# Generated by pormake.
# Topology iac, (4,6)-cn, num edge types: 1
# Building blocks:
#     Node 0, Type 0, BuildingBlock: UXUYUI_clean_sbu_0, # of connection points: 4
#     Node 1, Type 0, BuildingBlock: UXUYUI_clean_sbu_0, # of connection points: 4
#     Node 2, Type 0, BuildingBlock: UXUYUI_clean_sbu_0, # of connection points: 4
#     Node 3, Type 0, BuildingBlock: UXUYUI_clean_sbu_0, # of connection points: 4
#     Node 4, Type 0, BuildingBlock: UXUYUI_clean_sbu_0, # of connection points: 4
#     Node 5, Type 0, BuildingBlock: UXUYUI_clean_sbu_0, # of connection points: 4
#     Node 6, Type 0, BuildingBlock: UXUYUI_clean_sbu_0, # of connection points: 4
#     Node 7, Type 0, BuildingBlock: UXUYUI_clean_sbu_0, # of connection points: 4
#     Node 8, Type 0, BuildingBlock: UXUYUI_clean_sbu_0, # of connection points: 4
#     Node 9, Type 0, BuildingBlock: UXUYUI_clean_sbu_0, # of connection points: 4
#     Node 10, Type 0, BuildingBlock: UXUYUI_clean_sbu_0, # of connection points: 4
#     Node 11, Type 0, BuildingBlock: UXUYUI_clean_sbu_0, # of connection points: 4
#     Node 12, Type 0, BuildingBlock: UXUYUI_clean_sbu_0, # of connection points: 4
#     Node 13, Type 0, BuildingBlock: UXUYUI_clean_sbu_0, # of connection points: 4
#     Node 14, Type 0, BuildingBlock: UXUYUI_clean_sbu_0, # of connection points: 4
#     Node 15, Type 0, BuildingBlock: UXUYUI_clean_sbu_0, # of connection points: 4
#     Node 16, Type 0, BuildingBlock: UXUYUI_clean_sbu_0, # of connection points: 4
#     Node 17, Type 0, BuildingBlock: UXUYUI_clean_sbu_0, # of connection points: 4
#     Node 18, Type 0, BuildingBlock: UXUYUI_clean_sbu_0, # of connection points: 4
#     Node 19, Type 0, BuildingBlock: UXUYUI_clean_sbu_0, # of connection points: 4
#     Node 20, Type 0, BuildingBlock: UXUYUI_clean_sbu_0, # of connection points: 4
#     Node 21, Type 0, BuildingBlock: UXUYUI_clean_sbu_0, # of connection points: 4
#     Node 22, Type 0, BuildingBlock: UXUYUI_clean_sbu_0, # of connection points: 4
#     Node 23, Type 0, BuildingBlock: UXUYUI_clean_sbu_0, # of connection points: 4
#     Node 24, Type 1, BuildingBlock: JUFBIX_clean_sbu_0, # of connection points: 6
#     Node 25, Type 1, BuildingBlock: JUFBIX_clean_sbu_0, # of connection points: 6
#     Node 26, Type 1, BuildingBlock: JUFBIX_clean_sbu_0, # of connection points: 6
#     Node 27, Type 1, BuildingBlock: JUFBIX_clean_sbu_0, # of connection points: 6
#     Node 28, Type 1, BuildingBlock: JUFBIX_clean_sbu_0, # of connection points: 6
#     Node 29, Type 1, BuildingBlock: JUFBIX_clean_sbu_0, # of connection points: 6
#     Node 30, Type 1, BuildingBlock: JUFBIX_clean_sbu_0, # of connection points: 6
#     Node 31, Type 1, BuildingBlock: JUFBIX_clean_sbu_0, # of connection points: 6
#     Node 32, Type 1, BuildingBlock: JUFBIX_clean_sbu_0, # of connection points: 6
#     Node 33, Type 1, BuildingBlock: JUFBIX_clean_sbu_0, # of connection points: 6
#     Node 34, Type 1, BuildingBlock: JUFBIX_clean_sbu_0, # of connection points: 6
#     Node 35, Type 1, BuildingBlock: JUFBIX_clean_sbu_0, # of connection points: 6
#     Node 36, Type 1, BuildingBlock: JUFBIX_clean_sbu_0, # of connection points: 6
#     Node 37, Type 1, BuildingBlock: JUFBIX_clean_sbu_0, # of connection points: 6
#     Node 38, Type 1, BuildingBlock: JUFBIX_clean_sbu_0, # of connection points: 6
#     Node 39, Type 1, BuildingBlock: JUFBIX_clean_sbu_0, # of connection points: 6
#     Edge 40, Type (0, 1), BuildingBlock: CIFDUS_clean_linker_0, # of connection points: 2
#     Edge 41, Type (0, 1), BuildingBlock: CIFDUS_clean_linker_0, # of connection points: 2
#     Edge 42, Type (0, 1), BuildingBlock: CIFDUS_clean_linker_0, # of connection points: 2
#     Edge 43, Type (0, 1), BuildingBlock: CIFDUS_clean_linker_0, # of connection points: 2
#     Edge 44, Type (0, 1), BuildingBlock: CIFDUS_clean_linker_0, # of connection points: 2
#     Edge 45, Type (0, 1), BuildingBlock: CIFDUS_clean_linker_0, # of connection points: 2
#     Edge 46, Type (0, 1), BuildingBlock: CIFDUS_clean_linker_0, # of connection points: 2
#     Edge 47, Type (0, 1), BuildingBlock: CIFDUS_clean_linker_0, # of connection points: 2
#     Edge 48, Type (0, 1), BuildingBlock: CIFDUS_clean_linker_0, # of connection points: 2
#     Edge 49, Type (0, 1), BuildingBlock: CIFDUS_clean_linker_0, # of connection points: 2
#     Edge 50, Type (0, 1), BuildingBlock: CIFDUS_clean_linker_0, # of connection points: 2
#     Edge 51, Type (0, 1), BuildingBlock: CIFDUS_clean_linker_0, # of connection points: 2
#     Edge 52, Type (0, 1), BuildingBlock: CIFDUS_clean_linker_0, # of connection points: 2
#     Edge 53, Type (0, 1), BuildingBlock: CIFDUS_clean_linker_0, # of connection points: 2
#     Edge 54, Type (0, 1), BuildingBlock: CIFDUS_clean_linker_0, # of connection points: 2
#     Edge 55, Type (0, 1), BuildingBlock: CIFDUS_clean_linker_0, # of connection points: 2
#     Edge 56, Type (0, 1), BuildingBlock: CIFDUS_clean_linker_0, # of connection points: 2
#     Edge 57, Type (0, 1), BuildingBlock: CIFDUS_clean_linker_0, # of connection points: 2
#     Edge 58, Type (0, 1), BuildingBlock: CIFDUS_clean_linker_0, # of connection points: 2
#     Edge 59, Type (0, 1), BuildingBlock: CIFDUS_clean_linker_0, # of connection points: 2
#     Edge 60, Type (0, 1), BuildingBlock: CIFDUS_clean_linker_0, # of connection points: 2
#     Edge 61, Type (0, 1), BuildingBlock: CIFDUS_clean_linker_0, # of connection points: 2
#     Edge 62, Type (0, 1), BuildingBlock: CIFDUS_clean_linker_0, # of connection points: 2
#     Edge 63, Type (0, 1), BuildingBlock: CIFDUS_clean_linker_0, # of connection points: 2
#     Edge 64, Type (0, 1), BuildingBlock: CIFDUS_clean_linker_0, # of connection points: 2
#     Edge 65, Type (0, 1), BuildingBlock: CIFDUS_clean_linker_0, # of connection points: 2
#     Edge 66, Type (0, 1), BuildingBlock: CIFDUS_clean_linker_0, # of connection points: 2
#     Edge 67, Type (0, 1), BuildingBlock: CIFDUS_clean_linker_0, # of connection points: 2
#     Edge 68, Type (0, 1), BuildingBlock: CIFDUS_clean_linker_0, # of connection points: 2
#     Edge 69, Type (0, 1), BuildingBlock: CIFDUS_clean_linker_0, # of connection points: 2
#     Edge 70, Type (0, 1), BuildingBlock: CIFDUS_clean_linker_0, # of connection points: 2
#     Edge 71, Type (0, 1), BuildingBlock: CIFDUS_clean_linker_0, # of connection points: 2
#     Edge 72, Type (0, 1), BuildingBlock: CIFDUS_clean_linker_0, # of connection points: 2
#     Edge 73, Type (0, 1), BuildingBlock: CIFDUS_clean_linker_0, # of connection points: 2
#     Edge 74, Type (0, 1), BuildingBlock: CIFDUS_clean_linker_0, # of connection points: 2
#     Edge 75, Type (0, 1), BuildingBlock: CIFDUS_clean_linker_0, # of connection points: 2
#     Edge 76, Type (0, 1), BuildingBlock: CIFDUS_clean_linker_0, # of connection points: 2
#     Edge 77, Type (0, 1), BuildingBlock: CIFDUS_clean_linker_0, # of connection points: 2
#     Edge 78, Type (0, 1), BuildingBlock: CIFDUS_clean_linker_0, # of connection points: 2
#     Edge 79, Type (0, 1), BuildingBlock: CIFDUS_clean_linker_0, # of connection points: 2
#     Edge 80, Type (0, 1), BuildingBlock: CIFDUS_clean_linker_0, # of connection points: 2
#     Edge 81, Type (0, 1), BuildingBlock: CIFDUS_clean_linker_0, # of connection points: 2
#     Edge 82, Type (0, 1), BuildingBlock: CIFDUS_clean_linker_0, # of connection points: 2
#     Edge 83, Type (0, 1), BuildingBlock: CIFDUS_clean_linker_0, # of connection points: 2
#     Edge 84, Type (0, 1), BuildingBlock: CIFDUS_clean_linker_0, # of connection points: 2
#     Edge 85, Type (0, 1), BuildingBlock: CIFDUS_clean_linker_0, # of connection points: 2
#     Edge 86, Type (0, 1), BuildingBlock: CIFDUS_clean_linker_0, # of connection points: 2
#     Edge 87, Type (0, 1), BuildingBlock: CIFDUS_clean_linker_0, # of connection points: 2
#     Edge 88, Type (0, 1), BuildingBlock: CIFDUS_clean_linker_0, # of connection points: 2
#     Edge 89, Type (0, 1), BuildingBlock: CIFDUS_clean_linker_0, # of connection points: 2
#     Edge 90, Type (0, 1), BuildingBlock: CIFDUS_clean_linker_0, # of connection points: 2
#     Edge 91, Type (0, 1), BuildingBlock: CIFDUS_clean_linker_0, # of connection points: 2
#     Edge 92, Type (0, 1), BuildingBlock: CIFDUS_clean_linker_0, # of connection points: 2
#     Edge 93, Type (0, 1), BuildingBlock: CIFDUS_clean_linker_0, # of connection points: 2
#     Edge 94, Type (0, 1), BuildingBlock: CIFDUS_clean_linker_0, # of connection points: 2
#     Edge 95, Type (0, 1), BuildingBlock: CIFDUS_clean_linker_0, # of connection points: 2
#     Edge 96, Type (0, 1), BuildingBlock: CIFDUS_clean_linker_0, # of connection points: 2
#     Edge 97, Type (0, 1), BuildingBlock: CIFDUS_clean_linker_0, # of connection points: 2
#     Edge 98, Type (0, 1), BuildingBlock: CIFDUS_clean_linker_0, # of connection points: 2
#     Edge 99, Type (0, 1), BuildingBlock: CIFDUS_clean_linker_0, # of connection points: 2
#     Edge 100, Type (0, 1), BuildingBlock: CIFDUS_clean_linker_0, # of connection points: 2
#     Edge 101, Type (0, 1), BuildingBlock: CIFDUS_clean_linker_0, # of connection points: 2
#     Edge 102, Type (0, 1), BuildingBlock: CIFDUS_clean_linker_0, # of connection points: 2
#     Edge 103, Type (0, 1), BuildingBlock: CIFDUS_clean_linker_0, # of connection points: 2
#     Edge 104, Type (0, 1), BuildingBlock: CIFDUS_clean_linker_0, # of connection points: 2
#     Edge 105, Type (0, 1), BuildingBlock: CIFDUS_clean_linker_0, # of connection points: 2
#     Edge 106, Type (0, 1), BuildingBlock: CIFDUS_clean_linker_0, # of connection points: 2
#     Edge 107, Type (0, 1), BuildingBlock: CIFDUS_clean_linker_0, # of connection points: 2
#     Edge 108, Type (0, 1), BuildingBlock: CIFDUS_clean_linker_0, # of connection points: 2
#     Edge 109, Type (0, 1), BuildingBlock: CIFDUS_clean_linker_0, # of connection points: 2
#     Edge 110, Type (0, 1), BuildingBlock: CIFDUS_clean_linker_0, # of connection points: 2
#     Edge 111, Type (0, 1), BuildingBlock: CIFDUS_clean_linker_0, # of connection points: 2
#     Edge 112, Type (0, 1), BuildingBlock: CIFDUS_clean_linker_0, # of connection points: 2
#     Edge 113, Type (0, 1), BuildingBlock: CIFDUS_clean_linker_0, # of connection points: 2
#     Edge 114, Type (0, 1), BuildingBlock: CIFDUS_clean_linker_0, # of connection points: 2
#     Edge 115, Type (0, 1), BuildingBlock: CIFDUS_clean_linker_0, # of connection points: 2
#     Edge 116, Type (0, 1), BuildingBlock: CIFDUS_clean_linker_0, # of connection points: 2
#     Edge 117, Type (0, 1), BuildingBlock: CIFDUS_clean_linker_0, # of connection points: 2
#     Edge 118, Type (0, 1), BuildingBlock: CIFDUS_clean_linker_0, # of connection points: 2
#     Edge 119, Type (0, 1), BuildingBlock: CIFDUS_clean_linker_0, # of connection points: 2
#     Edge 120, Type (0, 1), BuildingBlock: CIFDUS_clean_linker_0, # of connection points: 2
#     Edge 121, Type (0, 1), BuildingBlock: CIFDUS_clean_linker_0, # of connection points: 2
#     Edge 122, Type (0, 1), BuildingBlock: CIFDUS_clean_linker_0, # of connection points: 2
#     Edge 123, Type (0, 1), BuildingBlock: CIFDUS_clean_linker_0, # of connection points: 2
#     Edge 124, Type (0, 1), BuildingBlock: CIFDUS_clean_linker_0, # of connection points: 2
#     Edge 125, Type (0, 1), BuildingBlock: CIFDUS_clean_linker_0, # of connection points: 2
#     Edge 126, Type (0, 1), BuildingBlock: CIFDUS_clean_linker_0, # of connection points: 2
#     Edge 127, Type (0, 1), BuildingBlock: CIFDUS_clean_linker_0, # of connection points: 2
#     Edge 128, Type (0, 1), BuildingBlock: CIFDUS_clean_linker_0, # of connection points: 2
#     Edge 129, Type (0, 1), BuildingBlock: CIFDUS_clean_linker_0, # of connection points: 2
#     Edge 130, Type (0, 1), BuildingBlock: CIFDUS_clean_linker_0, # of connection points: 2
#     Edge 131, Type (0, 1), BuildingBlock: CIFDUS_clean_linker_0, # of connection points: 2
#     Edge 132, Type (0, 1), BuildingBlock: CIFDUS_clean_linker_0, # of connection points: 2
#     Edge 133, Type (0, 1), BuildingBlock: CIFDUS_clean_linker_0, # of connection points: 2
#     Edge 134, Type (0, 1), BuildingBlock: CIFDUS_clean_linker_0, # of connection points: 2
#     Edge 135, Type (0, 1), BuildingBlock: CIFDUS_clean_linker_0, # of connection points: 2
# Relax obj value: 0.263
# Max RMSD: 0.231
# Mean RMSD: 0.175
data_MOF--net-iac--node1-UXUYUI_clean_sbu_0--node2-JUFBIX_clean_sbu_0--edge1-CIFDUS_clean_linker_0
_symmetry_space_group_name_H-M    P1
_symmetry_Int_Tables_number       1
_symmetry_cell_setting            triclinic
loop_
_symmetry_equiv_pos_as_xyz
'x, y, z'
_cell_length_a     60.534985
_cell_length_b     61.599781
_cell_length_c     61.038259
_cell_angle_alpha  89.169817
_cell_angle_beta   88.102709
_cell_angle_gamma 88.592219
loop_
_atom_site_label
_atom_site_type_symbol
_atom_site_fract_x
_atom_site_fract_y
_atom_site_fract_z
_atom_type_partial_charge
Li0 Li 0.02679 0.29674 0.13066 0.0
Li1 Li 0.04711 0.27603 0.16127 0.0
Li2 Li 0.02628 0.25419 0.13195 0.0
Li3 Li 0.00497 0.27495 0.16047 0.0
C4 C 0.06807 0.27924 0.11296 0.0
N5 N 0.10011 0.28916 0.08138 0.0
C6 C 0.08827 0.28741 0.11908 0.0
C7 C 0.06418 0.27605 0.09082 0.0
C8 C 0.10426 0.29234 0.10285 0.0
C9 C 0.08058 0.28119 0.07509 0.0
C10 C 0.02947 0.31514 0.17886 0.0
C11 C 0.03324 0.32434 0.21679 0.0
N12 N 0.04018 0.34438 0.21047 0.0
C13 C 0.0366 0.33583 0.17272 0.0
C14 C 0.02773 0.30933 0.20105 0.0
C15 C 0.04195 0.35038 0.18896 0.0
C16 C 0.00781 0.33746 0.1129 0.0
N17 N 0.02694 0.3253 0.1139 0.0
C18 C 0.04649 0.35408 0.09498 0.0
C19 C 0.04606 0.33333 0.105 0.0
C20 C 0.02714 0.36732 0.0941 0.0
C21 C 0.00753 0.3584 0.10307 0.0
H22 H 0.99273 0.33114 0.12021 0.0
H23 H 0.06125 0.3239 0.106 0.0
C24 C 0.08469 0.25704 0.18382 0.0
N25 N 0.0745 0.27637 0.17881 0.0
C26 C 0.10431 0.25625 0.19561 0.0
C27 C 0.10302 0.29525 0.19706 0.0
C28 C 0.08353 0.2953 0.18505 0.0
C29 C 0.11391 0.27552 0.20265 0.0
H30 H 0.07765 0.24211 0.1785 0.0
H31 H 0.07576 0.31063 0.18062 0.0
C32 C 0.99325 0.27087 0.10777 0.0
N33 N 0.97745 0.2599 0.06752 0.0
C34 C 0.97781 0.25449 0.10634 0.0
C35 C 1.0007 0.28161 0.08869 0.0
C36 C 0.97001 0.2492 0.08585 0.0
C37 C 0.9925 0.27586 0.06851 0.0
C38 C 0.01907 0.24052 0.18359 0.0
C39 C 0.00251 0.22517 0.18264 0.0
C40 C 0.02732 0.24588 0.20388 0.0
C41 C 0.99432 0.2156 0.20205 0.0
C42 C 0.01872 0.23594 0.22292 0.0
N43 N 0.00253 0.22114 0.22162 0.0
C44 C 0.02618 0.20699 0.12821 0.0
C45 C 0.02511 0.2245 0.09369 0.0
C46 C 0.02424 0.1865 0.11849 0.0
N47 N 0.02615 0.22568 0.11592 0.0
C48 C 0.02349 0.20433 0.08326 0.0
C49 C 0.02261 0.1847 0.09558 0.0
H50 H 0.02742 0.20786 0.14577 0.0
H51 H 0.02525 0.23923 0.08389 0.0
C52 C 0.9708 0.28799 0.19417 0.0
N53 N 0.97649 0.2742 0.17751 0.0
C54 C 0.95009 0.28662 0.20534 0.0
C55 C 0.9412 0.25725 0.18185 0.0
C56 C 0.96197 0.25913 0.17126 0.0
C57 C 0.93485 0.27098 0.19934 0.0
H58 H 0.98223 0.30014 0.19885 0.0
H59 H 0.96656 0.2484 0.15798 0.0
O60 O 0.05219 0.27445 0.1286 0.0
O61 O 0.02442 0.30061 0.16317 0.0
O62 O 1.00117 0.27627 0.12767 0.0
O63 O 0.02714 0.25029 0.1648 0.0
H64 H 0.09152 0.29 0.13615 0.0
H65 H 0.04863 0.26981 0.08583 0.0
H66 H 0.11995 0.29872 0.10733 0.0
H67 H 0.07777 0.27886 0.05788 0.0
H68 H 0.032 0.32005 0.23403 0.0
H69 H 0.03811 0.34056 0.15561 0.0
H70 H 0.02221 0.29341 0.20607 0.0
H71 H 0.04754 0.36643 0.18446 0.0
H72 H 0.06206 0.35968 0.08807 0.0
H73 H 0.99215 0.36774 0.10318 0.0
H74 H 0.11202 0.24054 0.19883 0.0
H75 H 0.10929 0.31064 0.20208 0.0
H76 H 0.97205 0.24577 0.12081 0.0
H77 H 0.01283 0.29412 0.08937 0.0
H78 H 0.95809 0.23652 0.08451 0.0
H79 H 0.99817 0.28402 0.05363 0.0
H80 H 0.99585 0.22085 0.1671 0.0
H81 H 0.0402 0.25763 0.20494 0.0
H82 H 0.98141 0.2038 0.20155 0.0
H83 H 0.02493 0.23999 0.23873 0.0
H84 H 0.02352 0.1723 0.12909 0.0
H85 H 0.02298 0.20432 0.06557 0.0
H86 H 0.94624 0.29755 0.21873 0.0
H87 H 0.93011 0.24521 0.1761 0.0
Li88 Li 0.02623 0.76436 0.39001 0.0
Li89 Li 0.04625 0.78254 0.41715 0.0
Li90 Li 0.06433 0.759 0.38953 0.0
Li91 Li 0.04318 0.74365 0.4193 0.0
C92 C 0.04007 0.80139 0.37034 0.0
N93 N 0.02215 0.8304 0.34039 0.0
C94 C 0.03216 0.82182 0.3771 0.0
C95 C 0.03925 0.79594 0.34822 0.0
C96 C 0.02306 0.8362 0.36175 0.0
C97 C 0.03002 0.81075 0.33338 0.0
C98 C 0.99909 0.75769 0.42768 0.0
C99 C 0.96555 0.75817 0.45014 0.0
N100 N 0.95856 0.74056 0.43937 0.0
C101 C 0.9916 0.73956 0.41685 0.0
C102 C 0.98598 0.76707 0.44445 0.0
C103 C 0.97104 0.73116 0.423 0.0
C104 C 0.99647 0.75402 0.35721 0.0
N105 N 0.0015 0.76838 0.37286 0.0
C106 C 0.97186 0.79222 0.363 0.0
C107 C 0.98938 0.78692 0.37634 0.0
C108 C 0.96651 0.77789 0.34653 0.0
C109 C 0.97867 0.75841 0.34382 0.0
H110 H 0.00629 0.73926 0.35513 0.0
H111 H 0.99364 0.79773 0.38926 0.0
C112 C 0.06492 0.81603 0.44189 0.0
N113 N 0.04645 0.80737 0.43393 0.0
C114 C 0.06308 0.83447 0.4549 0.0
C115 C 0.02339 0.83439 0.45096 0.0
C116 C 0.02599 0.81606 0.43817 0.0
C117 C 0.04205 0.84378 0.45954 0.0
H118 H 0.08096 0.80859 0.43819 0.0
H119 H 0.01173 0.8089 0.43121 0.0
C120 C 0.0509 0.72182 0.37298 0.0
N121 N 0.06933 0.69319 0.34263 0.0
C122 C 0.05741 0.70083 0.37948 0.0
C123 C 0.05332 0.72804 0.35094 0.0
C124 C 0.06682 0.68665 0.36393 0.0
C125 C 0.0628 0.7134 0.33588 0.0
C126 C 0.07808 0.75951 0.44177 0.0
C127 C 0.10014 0.75347 0.44496 0.0
C128 C 0.06393 0.76362 0.45989 0.0
C129 C 0.10777 0.75178 0.46628 0.0
C130 C 0.0722 0.7618 0.48094 0.0
N131 N 0.09376 0.75596 0.48368 0.0
C132 C 0.09541 0.77222 0.35861 0.0
C133 C 0.10365 0.73788 0.37494 0.0
C134 C 0.11531 0.77164 0.3467 0.0
N135 N 0.0901 0.75558 0.37241 0.0
C136 C 0.12378 0.73655 0.36322 0.0
C137 C 0.12988 0.75376 0.34913 0.0
H138 H 0.08455 0.78631 0.35743 0.0
H139 H 0.09902 0.72509 0.3864 0.0
C140 C 0.02768 0.71732 0.45555 0.0
N141 N 0.04356 0.72065 0.43968 0.0
C142 C 0.02977 0.69985 0.47013 0.0
C143 C 0.06513 0.69058 0.4526 0.0
C144 C 0.06232 0.70814 0.43838 0.0
C145 C 0.04848 0.686 0.46836 0.0
H146 H 0.01337 0.72803 0.45692 0.0
H147 H 0.07503 0.7118 0.42609 0.0
O148 O 0.04898 0.78704 0.3852 0.0
O149 O 0.01911 0.76634 0.42199 0.0
O150 O 0.04162 0.73594 0.388 0.0
O151 O 0.07024 0.76043 0.42102 0.0
H152 H 0.03299 0.82655 0.39401 0.0
H153 H 0.04564 0.78045 0.34254 0.0
H154 H 0.01676 0.85199 0.36682 0.0
H155 H 0.02915 0.80664 0.31626 0.0
H156 H 0.95526 0.76525 0.46312 0.0
H157 H 0.00151 0.73199 0.4039 0.0
H158 H 0.99159 0.78102 0.45311 0.0
H159 H 0.96502 0.71716 0.41476 0.0
H160 H 0.96238 0.80715 0.36569 0.0
H161 H 0.97457 0.74694 0.33139 0.0
H162 H 0.07784 0.84135 0.46123 0.0
H163 H 0.00696 0.84144 0.45362 0.0
H164 H 0.05504 0.69542 0.39627 0.0
H165 H 0.048 0.744 0.34552 0.0
H166 H 0.07202 0.6704 0.36877 0.0
H167 H 0.06492 0.7181 0.31881 0.0
H168 H 0.1112 0.74996 0.43108 0.0
H169 H 0.0467 0.76794 0.45774 0.0
H170 H 0.12481 0.74709 0.469 0.0
H171 H 0.06145 0.76492 0.49512 0.0
H172 H 0.11965 0.7855 0.33647 0.0
H173 H 0.13461 0.72249 0.36548 0.0
H174 H 0.01656 0.69675 0.48209 0.0
H175 H 0.07994 0.6804 0.451 0.0
Li176 Li 0.54793 0.77796 0.66085 0.0
Li177 Li 0.52779 0.79787 0.62964 0.0
Li178 Li 0.50532 0.77845 0.66125 0.0
Li179 Li 0.52582 0.75572 0.63299 0.0
C180 C 0.52845 0.81918 0.6768 0.0
N181 N 0.53268 0.8518 0.70686 0.0
C182 C 0.53787 0.83883 0.6703 0.0
C183 C 0.52091 0.81622 0.69851 0.0
C184 C 0.53995 0.85509 0.68577 0.0
C185 C 0.52327 0.83288 0.71347 0.0
C186 C 0.56688 0.7782 0.61082 0.0
C187 C 0.57508 0.77884 0.57191 0.0
N188 N 0.59584 0.78552 0.57575 0.0
C189 C 0.58829 0.78502 0.61441 0.0
C190 C 0.56019 0.77503 0.58944 0.0
C191 C 0.60269 0.78865 0.59644 0.0
C192 C 0.58586 0.76179 0.68657 0.0
N193 N 0.57554 0.77969 0.67779 0.0
C194 C 0.60455 0.80204 0.69036 0.0
C195 C 0.58462 0.79956 0.6796 0.0
C196 C 0.61595 0.78388 0.69925 0.0
C197 C 0.60603 0.76352 0.69737 0.0
H198 H 0.57867 0.74602 0.6849 0.0
H199 H 0.5766 0.81361 0.67232 0.0
C200 C 0.50974 0.83774 0.60923 0.0
N201 N 0.52871 0.82568 0.61193 0.0
C202 C 0.51024 0.85865 0.59937 0.0
C203 C 0.54968 0.85445 0.59467 0.0
C204 C 0.54845 0.83373 0.60467 0.0
C205 C 0.53049 0.86764 0.59216 0.0
H206 H 0.49417 0.83145 0.61537 0.0
H207 H 0.5635 0.82441 0.60719 0.0
C208 C 0.52342 0.74398 0.68637 0.0
N209 N 0.51681 0.72538 0.72747 0.0
C210 C 0.51405 0.72351 0.6886 0.0
C211 C 0.5297 0.75484 0.70502 0.0
C212 C 0.51075 0.71443 0.70953 0.0
C213 C 0.52616 0.74521 0.72566 0.0
C214 C 0.4888 0.77113 0.61249 0.0
C215 C 0.47115 0.75757 0.6176 0.0
C216 C 0.49343 0.77716 0.59071 0.0
C217 C 0.45852 0.75 0.60068 0.0
C218 C 0.48041 0.76926 0.57426 0.0
N219 N 0.46338 0.75595 0.57955 0.0
C220 C 0.46797 0.80104 0.68182 0.0
C221 C 0.46625 0.76289 0.68548 0.0
C222 C 0.44721 0.80361 0.69262 0.0
N223 N 0.47718 0.78092 0.67847 0.0
C224 C 0.44546 0.76472 0.6964 0.0
C225 C 0.43545 0.78531 0.70011 0.0
H226 H 0.47657 0.8152 0.67574 0.0
H227 H 0.47346 0.74699 0.68229 0.0
C228 C 0.53809 0.71887 0.60268 0.0
N229 N 0.52355 0.72658 0.61848 0.0
C230 C 0.53634 0.69762 0.59444 0.0
C231 C 0.50486 0.69233 0.6188 0.0
C232 C 0.50695 0.7137 0.62626 0.0
C233 C 0.51975 0.68375 0.60275 0.0
H234 H 0.55139 0.72896 0.59667 0.0
H235 H 0.49538 0.71991 0.63864 0.0
O236 O 0.52619 0.80312 0.66186 0.0
O237 O 0.55252 0.77474 0.62819 0.0
O238 O 0.52676 0.75316 0.66601 0.0
O239 O 0.50142 0.7786 0.62877 0.0
H240 H 0.54366 0.84144 0.65354 0.0
H241 H 0.51313 0.80131 0.70371 0.0
H242 H 0.54733 0.87034 0.681 0.0
H243 H 0.51755 0.83079 0.73033 0.0
H244 H 0.57014 0.77647 0.55526 0.0
H245 H 0.59369 0.78754 0.6309 0.0
H246 H 0.5437 0.76967 0.58644 0.0
H247 H 0.6193 0.79398 0.59895 0.0
H248 H 0.61094 0.81822 0.69157 0.0
H249 H 0.61403 0.74891 0.70362 0.0
H250 H 0.49492 0.86796 0.59819 0.0
H251 H 0.56574 0.86012 0.58917 0.0
H252 H 0.50934 0.71472 0.67437 0.0
H253 H 0.53737 0.77047 0.70357 0.0
H254 H 0.50341 0.69866 0.71149 0.0
H255 H 0.53091 0.75347 0.74023 0.0
H256 H 0.46732 0.75289 0.63443 0.0
H257 H 0.50689 0.78788 0.58657 0.0
H258 H 0.44486 0.73941 0.60435 0.0
H259 H 0.48381 0.77375 0.55731 0.0
H260 H 0.44025 0.81985 0.69457 0.0
H261 H 0.43738 0.75005 0.70193 0.0
H262 H 0.54836 0.69187 0.5822 0.0
H263 H 0.49161 0.68257 0.62562 0.0
Li264 Li 0.51837 0.26042 0.88902 0.0
Li265 Li 0.5371 0.28237 0.91694 0.0
Li266 Li 0.55718 0.26045 0.88947 0.0
Li267 Li 0.53602 0.2432 0.91994 0.0
C268 C 0.54938 0.29774 0.86894 0.0
N269 N 0.57383 0.32078 0.8378 0.0
C270 C 0.55852 0.31753 0.87425 0.0
C271 C 0.55226 0.28997 0.8476 0.0
C272 C 0.57093 0.32887 0.85834 0.0
C273 C 0.56479 0.30175 0.83215 0.0
C274 C 0.49596 0.2565 0.93661 0.0
C275 C 0.48685 0.24807 0.97454 0.0
N276 N 0.46669 0.2413 0.96871 0.0
C277 C 0.47503 0.24971 0.93106 0.0
C278 C 0.50181 0.25591 0.95859 0.0
C279 C 0.46052 0.24199 0.94749 0.0
C280 C 0.47914 0.2451 0.87023 0.0
N281 N 0.49454 0.2608 0.87006 0.0
C282 C 0.47595 0.28077 0.84224 0.0
C283 C 0.49338 0.27826 0.85629 0.0
C284 C 0.45922 0.26541 0.84272 0.0
C285 C 0.46113 0.24712 0.85661 0.0
H286 H 0.48053 0.23133 0.88132 0.0
H287 H 0.50573 0.29055 0.85653 0.0
C288 C 0.55386 0.3204 0.93539 0.0
N289 N 0.53614 0.30744 0.93396 0.0
C290 C 0.55253 0.33861 0.94873 0.0
C291 C 0.51528 0.32883 0.95975 0.0
C292 C 0.51711 0.3113 0.94573 0.0
C293 C 0.53296 0.34307 0.96111 0.0
H294 H 0.569 0.31657 0.92619 0.0
H295 H 0.50334 0.30066 0.94437 0.0
C296 C 0.52884 0.22075 0.87472 0.0
N297 N 0.50882 0.19302 0.84662 0.0
C298 C 0.51907 0.20181 0.88283 0.0
C299 C 0.52879 0.22532 0.85222 0.0
C300 C 0.50895 0.18806 0.86839 0.0
C301 C 0.51848 0.21119 0.8383 0.0
C302 C 0.57651 0.26695 0.93684 0.0
C303 C 0.59924 0.26457 0.93242 0.0
C304 C 0.56895 0.27365 0.9576 0.0
C305 C 0.61401 0.26949 0.94864 0.0
C306 C 0.58422 0.27846 0.97338 0.0
N307 N 0.60626 0.27631 0.9686 0.0
C308 C 0.59872 0.27355 0.87545 0.0
C309 C 0.58725 0.24068 0.85992 0.0
C310 C 0.61942 0.27123 0.86519 0.0
N311 N 0.58337 0.25819 0.8729 0.0
C312 C 0.60764 0.2379 0.84901 0.0
C313 C 0.62399 0.25309 0.85209 0.0
H314 H 0.59508 0.28715 0.88609 0.0
H315 H 0.57478 0.22859 0.85853 0.0
C316 C 0.51889 0.20719 0.94327 0.0
N317 N 0.5367 0.22003 0.94029 0.0
C318 C 0.52037 0.1886 0.95637 0.0
C319 C 0.55807 0.19743 0.96403 0.0
C320 C 0.55597 0.21566 0.95049 0.0
C321 C 0.54029 0.18351 0.96653 0.0
H322 H 0.50388 0.21086 0.9347 0.0
H323 H 0.57008 0.2257 0.9474 0.0
O324 O 0.53732 0.2863 0.88441 0.0
O325 O 0.51039 0.26411 0.92068 0.0
O326 O 0.53876 0.23448 0.88867 0.0
O327 O 0.56184 0.26206 0.92108 0.0
H328 H 0.55596 0.32418 0.8904 0.0
H329 H 0.54498 0.27497 0.84301 0.0
H330 H 0.57819 0.34413 0.8623 0.0
H331 H 0.5673 0.29577 0.81565 0.0
H332 H 0.49129 0.24736 0.99157 0.0
H333 H 0.46992 0.25057 0.9143 0.0
H334 H 0.51779 0.2612 0.96328 0.0
H335 H 0.44431 0.23661 0.94337 0.0
H336 H 0.4753 0.2949 0.83148 0.0
H337 H 0.44846 0.23501 0.85758 0.0
H338 H 0.56654 0.34917 0.94904 0.0
H339 H 0.50012 0.33109 0.96943 0.0
H340 H 0.51938 0.19765 0.90003 0.0
H341 H 0.5365 0.23966 0.84554 0.0
H342 H 0.50124 0.17341 0.8745 0.0
H343 H 0.51817 0.21467 0.82089 0.0
H344 H 0.60548 0.25864 0.91679 0.0
H345 H 0.5515 0.27539 0.96148 0.0
H346 H 0.63164 0.26776 0.94539 0.0
H347 H 0.57855 0.28388 0.98942 0.0
H348 H 0.63184 0.28325 0.86767 0.0
H349 H 0.61088 0.22375 0.83897 0.0
H350 H 0.50646 0.17788 0.9579 0.0
H351 H 0.57375 0.19358 0.9714 0.0
Li352 Li 0.13451 0.00274 0.30814 0.0
Li353 Li 0.16497 0.02596 0.29352 0.0
Li354 Li 0.147 0.99812 0.27037 0.0
Li355 Li 0.1701 0.98831 0.29926 0.0
C356 C 0.11909 0.04205 0.28496 0.0
N357 N 0.08964 0.07704 0.28722 0.0
C358 C 0.12184 0.05843 0.30017 0.0
C359 C 0.10132 0.04347 0.2709 0.0
C360 C 0.1068 0.07599 0.30105 0.0
C361 C 0.08661 0.06127 0.27231 0.0
C362 C 0.17526 0.00694 0.33948 0.0
C363 C 0.20806 0.0141 0.35935 0.0
N364 N 0.20036 0.00154 0.3763 0.0
C365 C 0.16767 0.99413 0.35711 0.0
C366 C 0.1956 0.01706 0.34064 0.0
C367 C 0.1806 0.99158 0.37556 0.0
C368 C 0.10984 0.98187 0.34021 0.0
N369 N 0.11013 0.00041 0.32785 0.0
C370 C 0.07904 0.01502 0.34796 0.0
C371 C 0.09453 0.01642 0.33072 0.0
C372 C 0.0797 0.99694 0.36213 0.0
C373 C 0.09459 0.97974 0.35762 0.0
H374 H 0.1223 0.96927 0.33729 0.0
H375 H 0.09464 0.03074 0.32048 0.0
C376 C 0.18796 0.06103 0.27535 0.0
N377 N 0.17828 0.05291 0.29401 0.0
C378 C 0.19986 0.08008 0.27602 0.0
C379 C 0.19143 0.08184 0.31504 0.0
C380 C 0.17945 0.06302 0.31355 0.0
C381 C 0.20193 0.09038 0.29616 0.0
H382 H 0.1868 0.05243 0.26012 0.0
H383 H 0.17147 0.05615 0.32807 0.0
C384 C 0.12173 0.96586 0.28872 0.0
N385 N 0.08182 0.94698 0.28082 0.0
C386 C 0.11923 0.94351 0.2919 0.0
C387 C 0.1038 0.97859 0.28168 0.0
C388 C 0.09896 0.93428 0.28777 0.0
C389 C 0.08381 0.96876 0.27772 0.0
C390 C 0.19803 0.9958 0.26605 0.0
C391 C 0.19851 0.97658 0.25415 0.0
C392 C 0.21783 0.00508 0.27177 0.0
C393 C 0.21888 0.96669 0.2485 0.0
C394 C 0.23787 0.9947 0.26579 0.0
N395 N 0.23797 0.97587 0.25441 0.0
C396 C 0.13143 0.00926 0.22952 0.0
C397 C 0.13519 0.97129 0.23619 0.0
C398 C 0.12124 0.00565 0.20986 0.0
N399 N 0.1376 0.99218 0.24238 0.0
C400 C 0.12484 0.96691 0.21677 0.0
C401 C 0.11742 0.98425 0.20362 0.0
H402 H 0.13372 0.02566 0.23496 0.0
H403 H 0.14056 0.95807 0.24673 0.0
C404 C 0.21225 0.97134 0.31337 0.0
N405 N 0.1917 0.9669 0.30643 0.0
C406 C 0.22854 0.95495 0.3141 0.0
C407 C 0.20204 0.92984 0.30093 0.0
C408 C 0.1863 0.94656 0.30066 0.0
C409 C 0.22349 0.93417 0.30723 0.0
H410 H 0.21657 0.98778 0.31674 0.0
H411 H 0.17018 0.94362 0.2945 0.0
O412 O 0.13378 0.02481 0.28363 0.0
O413 O 0.16233 0.01048 0.32171 0.0
O414 O 0.14149 0.97509 0.29302 0.0
O415 O 0.17826 0.00541 0.27223 0.0
H416 H 0.13506 0.05732 0.31157 0.0
H417 H 0.09882 0.03094 0.25907 0.0
H418 H 0.10869 0.08871 0.31283 0.0
H419 H 0.07277 0.06254 0.26156 0.0
H420 H 0.22389 0.02175 0.36037 0.0
H421 H 0.15191 0.98635 0.35668 0.0
H422 H 0.202 0.02672 0.32705 0.0
H423 H 0.17488 0.98175 0.38934 0.0
H424 H 0.06766 0.02856 0.35111 0.0
H425 H 0.09561 0.96568 0.36845 0.0
H426 H 0.20779 0.0864 0.26117 0.0
H427 H 0.19248 0.08967 0.33075 0.0
H428 H 0.13276 0.93337 0.29761 0.0
H429 H 0.10522 0.99587 0.27929 0.0
H430 H 0.09685 0.91701 0.29016 0.0
H431 H 0.06986 0.97845 0.27222 0.0
H432 H 0.1833 0.96922 0.24961 0.0
H433 H 0.2177 0.01994 0.28104 0.0
H434 H 0.21952 0.95169 0.23948 0.0
H435 H 0.25333 0.00156 0.27029 0.0
H436 H 0.11557 0.01941 0.20013 0.0
H437 H 0.12233 0.95023 0.21226 0.0
H438 H 0.24515 0.95874 0.31862 0.0
H439 H 0.19783 0.9139 0.2953 0.0
Li440 Li 0.23498 0.92244 0.53792 0.0
Li441 Li 0.2513 0.8952 0.56054 0.0
Li442 Li 0.27382 0.92027 0.53946 0.0
Li443 Li 0.25516 0.89145 0.52213 0.0
C444 C 0.26515 0.93936 0.57632 0.0
N445 N 0.29215 0.96415 0.60111 0.0
C446 C 0.27551 0.9302 0.59451 0.0
C447 C 0.26862 0.96115 0.57072 0.0
C448 C 0.28905 0.94301 0.60686 0.0
C449 C 0.28232 0.97339 0.58345 0.0
C450 C 0.21328 0.87903 0.55189 0.0
C451 C 0.20357 0.84465 0.56854 0.0
N452 N 0.18558 0.85435 0.57853 0.0
C453 C 0.19467 0.88865 0.56231 0.0
C454 C 0.21775 0.85684 0.55498 0.0
C455 C 0.18087 0.87589 0.57571 0.0
C456 C 0.19302 0.93594 0.52442 0.0
N457 N 0.21031 0.94117 0.53676 0.0
C458 C 0.19061 0.97194 0.55131 0.0
C459 C 0.20955 0.95877 0.54993 0.0
C460 C 0.17228 0.96657 0.5393 0.0
C461 C 0.17364 0.94854 0.52546 0.0
H462 H 0.19411 0.92162 0.51436 0.0
H463 H 0.22335 0.96218 0.55993 0.0
C464 C 0.25788 0.86306 0.59325 0.0
N465 N 0.24674 0.88159 0.5877 0.0
C466 C 0.25439 0.8538 0.61395 0.0
C467 C 0.22812 0.88297 0.62266 0.0
C468 C 0.23202 0.89157 0.60175 0.0
C469 C 0.23951 0.86395 0.62894 0.0
H470 H 0.26968 0.85573 0.58177 0.0
H471 H 0.22356 0.90641 0.59673 0.0
C472 C 0.24441 0.934 0.49812 0.0
N473 N 0.21839 0.95731 0.46927 0.0
C474 C 0.2335 0.9233 0.48174 0.0
C475 C 0.24205 0.95657 0.49983 0.0
C476 C 0.22045 0.93538 0.4673 0.0
C477 C 0.22882 0.96805 0.4851 0.0
C478 C 0.2928 0.87371 0.53443 0.0
C479 C 0.31179 0.88031 0.52275 0.0
C480 C 0.28779 0.85167 0.53549 0.0
C481 C 0.32538 0.86475 0.51223 0.0
C482 C 0.30176 0.83662 0.5247 0.0
N483 N 0.32011 0.84342 0.51338 0.0
C484 C 0.31613 0.93226 0.55222 0.0
C485 C 0.30096 0.95214 0.52245 0.0
C486 C 0.33541 0.94417 0.55051 0.0
N487 N 0.29955 0.93643 0.53818 0.0
C488 C 0.31978 0.96447 0.52022 0.0
C489 C 0.33742 0.96031 0.53413 0.0
H490 H 0.31449 0.91946 0.56444 0.0
H491 H 0.2876 0.95489 0.51144 0.0
C492 C 0.24803 0.85353 0.49657 0.0
N493 N 0.25897 0.87238 0.49839 0.0
C494 C 0.25323 0.83968 0.47912 0.0
C495 C 0.28055 0.86517 0.46587 0.0
C496 C 0.27483 0.87845 0.48346 0.0
C497 C 0.26967 0.84554 0.46351 0.0
H498 H 0.23543 0.84918 0.50867 0.0
H499 H 0.28329 0.89352 0.48549 0.0
O500 O 0.25205 0.92701 0.5638 0.0
O501 O 0.2272 0.89132 0.53901 0.0
O502 O 0.25701 0.92242 0.51263 0.0
O503 O 0.27902 0.88875 0.54446 0.0
H504 H 0.27341 0.91332 0.59896 0.0
H505 H 0.26122 0.96842 0.55639 0.0
H506 H 0.29719 0.93609 0.62094 0.0
H507 H 0.28525 0.99021 0.5792 0.0
H508 H 0.20694 0.82751 0.5712 0.0
H509 H 0.19105 0.90582 0.56033 0.0
H510 H 0.23224 0.84918 0.54735 0.0
H511 H 0.16648 0.88315 0.58394 0.0
H512 H 0.18996 0.98561 0.5623 0.0
H513 H 0.15975 0.94407 0.51588 0.0
H514 H 0.26377 0.8393 0.61844 0.0
H515 H 0.21654 0.89117 0.63385 0.0
H516 H 0.23488 0.90586 0.48027 0.0
H517 H 0.24996 0.9651 0.51269 0.0
H518 H 0.21188 0.9273 0.45457 0.0
H519 H 0.22673 0.98548 0.48634 0.0
H520 H 0.31586 0.89728 0.52153 0.0
H521 H 0.27303 0.84627 0.54419 0.0
H522 H 0.34006 0.86965 0.50304 0.0
H523 H 0.29796 0.81955 0.52522 0.0
H524 H 0.3488 0.94036 0.56135 0.0
H525 H 0.32065 0.97695 0.50755 0.0
H526 H 0.24431 0.82476 0.47767 0.0
H527 H 0.29351 0.87015 0.45434 0.0
Li528 Li 0.38163 0.02879 0.74745 0.0
Li529 Li 0.40662 0.04696 0.77069 0.0
Li530 Li 0.38042 0.06699 0.74844 0.0
Li531 Li 0.41226 0.04944 0.73243 0.0
C532 C 0.3587 0.03575 0.78494 0.0
N533 N 0.32817 0.0109 0.80798 0.0
C534 C 0.36456 0.02493 0.80427 0.0
C535 C 0.33723 0.03411 0.77748 0.0
C536 C 0.3489 0.01242 0.81566 0.0
C537 C 0.32207 0.0214 0.7893 0.0
C538 C 0.42867 0.01079 0.73914 0.0
C539 C 0.46649 0.00326 0.72741 0.0
N540 N 0.45956 0.98724 0.71435 0.0
C541 C 0.42192 0.99421 0.72566 0.0
C542 C 0.45114 0.0153 0.74012 0.0
C543 C 0.4378 0.9825 0.71324 0.0
C544 C 0.35129 0.99938 0.73012 0.0
N545 N 0.36585 0.00337 0.74597 0.0
C546 C 0.35788 0.97011 0.76437 0.0
C547 C 0.36981 0.98899 0.7625 0.0
C548 C 0.34223 0.96585 0.74871 0.0
C549 C 0.33921 0.98037 0.73113 0.0
H550 H 0.34893 0.01098 0.71692 0.0
H551 H 0.38196 0.99251 0.77447 0.0
C552 C 0.41697 0.05629 0.81491 0.0
N553 N 0.42073 0.04318 0.79738 0.0
C554 C 0.42649 0.051 0.83488 0.0
C555 C 0.44325 0.01893 0.81817 0.0
C556 C 0.43362 0.02489 0.79865 0.0
C557 C 0.43947 0.03189 0.8366 0.0
H558 H 0.40613 0.07042 0.81355 0.0
H559 H 0.43595 0.01449 0.7847 0.0
C560 C 0.36846 0.05917 0.70799 0.0
N561 N 0.34149 0.08244 0.68001 0.0
C562 C 0.37773 0.07171 0.69093 0.0
C563 C 0.34548 0.05836 0.71072 0.0
C564 C 0.36381 0.08337 0.67697 0.0
C565 C 0.33213 0.07029 0.69645 0.0
C566 C 0.42157 0.08637 0.76745 0.0
C567 C 0.40934 0.1029 0.77803 0.0
C568 C 0.44378 0.08277 0.77231 0.0
C569 C 0.41955 0.11558 0.79337 0.0
C570 C 0.45337 0.09577 0.78779 0.0
N571 N 0.44116 0.11177 0.7979 0.0
C572 C 0.3425 0.09406 0.75539 0.0
C573 C 0.37084 0.10706 0.73113 0.0
C574 C 0.32972 0.1128 0.7518 0.0
N575 N 0.36263 0.09173 0.74514 0.0
C576 C 0.35856 0.12587 0.72687 0.0
C577 C 0.33789 0.12905 0.73754 0.0
H578 H 0.33655 0.08154 0.7665 0.0
H579 H 0.38696 0.10456 0.72328 0.0
C580 C 0.42911 0.03948 0.69171 0.0
N581 N 0.43289 0.05158 0.7095 0.0
C582 C 0.44256 0.04149 0.67303 0.0
C583 C 0.46391 0.06803 0.69159 0.0
C584 C 0.4499 0.06553 0.70999 0.0
C585 C 0.45989 0.05621 0.67276 0.0
H586 H 0.41526 0.02871 0.69192 0.0
H587 H 0.45221 0.07508 0.7244 0.0
O588 O 0.37388 0.04789 0.77342 0.0
O589 O 0.41337 0.0227 0.75117 0.0
O590 O 0.38181 0.04788 0.72203 0.0
O591 O 0.41192 0.07378 0.75235 0.0
H592 H 0.38106 0.02597 0.81035 0.0
H593 H 0.3324 0.04233 0.76255 0.0
H594 H 0.35325 0.00387 0.83057 0.0
H595 H 0.30546 0.01984 0.78359 0.0
H596 H 0.48391 0.00668 0.72788 0.0
H597 H 0.40462 0.99054 0.72462 0.0
H598 H 0.45662 0.02818 0.75037 0.0
H599 H 0.43281 0.96968 0.70267 0.0
H600 H 0.36079 0.95894 0.77792 0.0
H601 H 0.32733 0.97728 0.71873 0.0
H602 H 0.42319 0.06126 0.84893 0.0
H603 H 0.45336 0.0042 0.81892 0.0
H604 H 0.39547 0.07269 0.68866 0.0
H605 H 0.33802 0.04886 0.72389 0.0
H606 H 0.37076 0.09323 0.66378 0.0
H607 H 0.31432 0.06993 0.69847 0.0
H608 H 0.39212 0.10587 0.77457 0.0
H609 H 0.45343 0.0699 0.76442 0.0
H610 H 0.41028 0.12842 0.80171 0.0
H611 H 0.4705 0.0931 0.79181 0.0
H612 H 0.31403 0.11487 0.76067 0.0
H613 H 0.36533 0.13796 0.71564 0.0
H614 H 0.43926 0.0319 0.65882 0.0
H615 H 0.47717 0.07951 0.69178 0.0
Li616 Li 0.2707 0.16714 0.04669 0.0
Li617 Li 0.29039 0.13862 0.02411 0.0
Li618 Li 0.27095 0.17083 0.00435 0.0
Li619 Li 0.24809 0.14105 0.02292 0.0
C620 C 0.30673 0.18802 0.03314 0.0
N621 N 0.32694 0.22335 0.05046 0.0
C622 C 0.32527 0.18497 0.04599 0.0
C623 C 0.29844 0.20901 0.02916 0.0
C624 C 0.33527 0.20304 0.05458 0.0
C625 C 0.30889 0.22667 0.03803 0.0
C626 C 0.27384 0.11525 0.05853 0.0
C627 C 0.26971 0.07664 0.06393 0.0
N628 N 0.28645 0.07639 0.07826 0.0
C629 C 0.29102 0.11457 0.07329 0.0
C630 C 0.26313 0.0961 0.05377 0.0
C631 C 0.29715 0.09479 0.08309 0.0
C632 C 0.25623 0.19596 0.0838 0.0
N633 N 0.27218 0.18174 0.076 0.0
C634 C 0.29136 0.18464 0.1099 0.0
C635 C 0.28964 0.17624 0.08871 0.0
C636 C 0.27526 0.19939 0.1183 0.0
C637 C 0.25764 0.20523 0.10475 0.0
H638 H 0.24211 0.19991 0.07402 0.0
H639 H 0.30232 0.16515 0.08251 0.0
C640 C 0.33714 0.13154 0.01845 0.0
N641 N 0.31811 0.1206 0.02268 0.0
C642 C 0.35779 0.12061 0.01773 0.0
C643 C 0.33921 0.08699 0.0248 0.0
C644 C 0.31893 0.09862 0.02581 0.0
C645 C 0.35909 0.09798 0.02085 0.0
H646 H 0.33634 0.14887 0.01553 0.0
H647 H 0.30392 0.08994 0.0292 0.0
C648 C 0.23178 0.18987 0.01832 0.0
N649 N 0.20489 0.22248 0.00147 0.0
C650 C 0.21741 0.18541 0.00161 0.0
C651 C 0.23258 0.21095 0.02638 0.0
C652 C 0.20394 0.20211 0.99331 0.0
C653 C 0.2188 0.2272 0.01769 0.0
C654 C 0.26556 0.12241 0.98454 0.0
C655 C 0.25727 0.12696 0.9638 0.0
C656 C 0.26815 0.10084 0.99153 0.0
C657 C 0.25187 0.10981 0.95039 0.0
C658 C 0.26257 0.08415 0.97766 0.0
N659 N 0.25462 0.08894 0.95753 0.0
C660 C 0.28272 0.17926 0.9588 0.0
C661 C 0.26625 0.21035 0.97522 0.0
C662 C 0.2843 0.19009 0.93834 0.0
N663 N 0.27341 0.18921 0.97681 0.0
C664 C 0.26797 0.22196 0.95516 0.0
C665 C 0.27688 0.21181 0.93617 0.0
H666 H 0.28894 0.16272 0.96023 0.0
H667 H 0.25918 0.21841 0.98946 0.0
C668 C 0.20913 0.11678 0.03916 0.0
N669 N 0.2196 0.1252 0.0209 0.0
C670 C 0.189 0.10586 0.03771 0.0
C671 C 0.19029 0.11266 0.9988 0.0
C672 C 0.21034 0.12333 0.00098 0.0
C673 C 0.17909 0.10372 0.01729 0.0
H674 H 0.21633 0.11861 0.055 0.0
H675 H 0.2183 0.13042 0.98663 0.0
O676 O 0.29634 0.17055 0.025 0.0
O677 O 0.26756 0.13449 0.04877 0.0
O678 O 0.24514 0.17373 0.02658 0.0
O679 O 0.27077 0.13896 0.99804 0.0
H680 H 0.33169 0.16881 0.04958 0.0
H681 H 0.28394 0.21162 0.01951 0.0
H682 H 0.34958 0.20091 0.06462 0.0
H683 H 0.30261 0.24301 0.03511 0.0
H684 H 0.26159 0.06172 0.06034 0.0
H685 H 0.29974 0.12907 0.07694 0.0
H686 H 0.25008 0.09615 0.04213 0.0
H687 H 0.31047 0.09405 0.09448 0.0
H688 H 0.30531 0.17968 0.11962 0.0
H689 H 0.24468 0.21634 0.11057 0.0
H690 H 0.37259 0.12976 0.01432 0.0
H691 H 0.33936 0.06956 0.0274 0.0
H692 H 0.21679 0.16927 0.995 0.0
H693 H 0.24399 0.21485 0.03891 0.0
H694 H 0.19275 0.19889 0.98035 0.0
H695 H 0.21929 0.2436 0.02373 0.0
H696 H 0.25455 0.14353 0.95828 0.0
H697 H 0.2742 0.09705 0.00758 0.0
H698 H 0.24536 0.11311 0.93436 0.0
H699 H 0.26449 0.06738 0.98292 0.0
H700 H 0.29164 0.1816 0.92438 0.0
H701 H 0.26201 0.23866 0.95446 0.0
H702 H 0.18104 0.09963 0.05256 0.0
H703 H 0.18368 0.1114 0.98262 0.0
Li704 Li 0.73296 0.41224 0.04382 0.0
Li705 Li 0.74918 0.38316 0.06391 0.0
Li706 Li 0.77255 0.41045 0.04681 0.0
Li707 Li 0.75525 0.38376 0.02611 0.0
C708 C 0.75007 0.43528 0.0777 0.0
N709 N 0.75058 0.47744 0.09246 0.0
C710 C 0.74842 0.4394 0.10014 0.0
C711 C 0.75192 0.4526 0.06273 0.0
C712 C 0.74872 0.46084 0.10729 0.0
C713 C 0.75216 0.4738 0.07054 0.0
C714 C 0.71243 0.36633 0.05106 0.0
C715 C 0.70545 0.33015 0.06486 0.0
N716 N 0.68459 0.33663 0.07116 0.0
C717 C 0.69081 0.37252 0.05736 0.0
C718 C 0.7197 0.34488 0.05453 0.0
C719 C 0.67703 0.35731 0.0676 0.0
C720 C 0.70146 0.445 0.02933 0.0
N721 N 0.70806 0.43097 0.04534 0.0
C722 C 0.67728 0.44125 0.06857 0.0
C723 C 0.69681 0.4294 0.0649 0.0
C724 C 0.66946 0.45503 0.05197 0.0
C725 C 0.68198 0.45728 0.03232 0.0
H726 H 0.71096 0.44648 0.01416 0.0
H727 H 0.70279 0.41843 0.07746 0.0
C728 C 0.75754 0.3502 0.09531 0.0
N729 N 0.74433 0.3674 0.08983 0.0
C730 C 0.75453 0.34 0.11565 0.0
C731 C 0.7242 0.36525 0.12395 0.0
C732 C 0.72775 0.3749 0.10345 0.0
C733 C 0.73794 0.34782 0.13035 0.0
H734 H 0.77075 0.34486 0.08418 0.0
H735 H 0.71766 0.38871 0.09853 0.0
C736 C 0.7463 0.42134 0.00066 0.0
N737 N 0.72665 0.43299 0.96183 0.0
C738 C 0.7292 0.40903 0.99282 0.0
C739 C 0.75334 0.4396 0.98875 0.0
C740 C 0.71952 0.41517 0.97314 0.0
C741 C 0.7432 0.44523 0.96917 0.0
C742 C 0.79283 0.36543 0.03782 0.0
C743 C 0.81166 0.37398 0.02739 0.0
C744 C 0.7891 0.34317 0.03671 0.0
C745 C 0.82623 0.36018 0.01567 0.0
C746 C 0.80402 0.32991 0.02477 0.0
N747 N 0.82211 0.33862 0.01456 0.0
C748 C 0.80688 0.43116 0.06816 0.0
C749 C 0.80483 0.4365 0.02966 0.0
C750 C 0.82516 0.44448 0.0687 0.0
N751 N 0.79726 0.42754 0.04879 0.0
C752 C 0.82292 0.44988 0.02943 0.0
C753 C 0.83327 0.45404 0.04912 0.0
H754 H 0.80031 0.42375 0.08309 0.0
H755 H 0.79694 0.43297 0.01454 0.0
C756 C 0.74926 0.34822 0.99797 0.0
N757 N 0.76019 0.36691 0.0008 0.0
C758 C 0.75488 0.33498 0.98021 0.0
C759 C 0.78243 0.36086 0.96842 0.0
C760 C 0.77624 0.37359 0.98635 0.0
C761 C 0.77187 0.34115 0.96534 0.0
H762 H 0.73653 0.34338 0.00972 0.0
H763 H 0.78457 0.3886 0.98909 0.0
O764 O 0.74986 0.41432 0.07057 0.0
O765 O 0.72624 0.38109 0.04119 0.0
O766 O 0.75618 0.41576 0.01986 0.0
O767 O 0.77807 0.37879 0.04894 0.0
H768 H 0.74695 0.42616 0.11191 0.0
H769 H 0.75317 0.44977 0.0453 0.0
H770 H 0.74748 0.46426 0.12463 0.0
H771 H 0.75361 0.48735 0.05916 0.0
H772 H 0.71099 0.31359 0.06789 0.0
H773 H 0.68461 0.38881 0.05419 0.0
H774 H 0.7363 0.33975 0.04965 0.0
H775 H 0.66029 0.36193 0.07265 0.0
H776 H 0.66816 0.43935 0.08403 0.0
H777 H 0.67635 0.46774 0.01913 0.0
H778 H 0.7657 0.32681 0.12021 0.0
H779 H 0.71121 0.37163 0.13485 0.0
H780 H 0.72336 0.39493 0.00177 0.0
H781 H 0.76641 0.44944 0.99464 0.0
H782 H 0.70629 0.40579 0.96689 0.0
H783 H 0.74848 0.45934 0.95982 0.0
H784 H 0.81492 0.39111 0.02814 0.0
H785 H 0.7747 0.33621 0.04473 0.0
H786 H 0.84077 0.36662 0.00738 0.0
H787 H 0.80119 0.31271 0.02357 0.0
H788 H 0.8328 0.44735 0.08416 0.0
H789 H 0.82905 0.45651 0.01392 0.0
H790 H 0.7464 0.31986 0.97841 0.0
H791 H 0.79532 0.36638 0.9571 0.0
Li792 Li 0.90866 0.5493 0.28232 0.0
Li793 Li 0.88025 0.527 0.26868 0.0
Li794 Li 0.90744 0.54374 0.24436 0.0
Li795 Li 0.87836 0.56481 0.26194 0.0
C796 C 0.92483 0.50645 0.25548 0.0
N797 N 0.94928 0.47699 0.23029 0.0
C798 C 0.91542 0.48713 0.24907 0.0
C799 C 0.94673 0.51073 0.24911 0.0
C800 C 0.92805 0.47246 0.23635 0.0
C801 C 0.95878 0.49566 0.23635 0.0
C802 C 0.86314 0.54132 0.30629 0.0
C803 C 0.82714 0.52887 0.31817 0.0
N804 N 0.83573 0.52151 0.33728 0.0
C805 C 0.8716 0.53363 0.32606 0.0
C806 C 0.8407 0.53898 0.30234 0.0
C807 C 0.85748 0.52368 0.34151 0.0
C808 C 0.92237 0.56574 0.32276 0.0
N809 N 0.92769 0.55256 0.30562 0.0
C810 C 0.96018 0.53944 0.32279 0.0
C811 C 0.94637 0.53995 0.30509 0.0
C812 C 0.95445 0.55176 0.34135 0.0
C813 C 0.93567 0.5656 0.34102 0.0
H814 H 0.90731 0.57555 0.32264 0.0
H815 H 0.95013 0.52967 0.29127 0.0
C816 C 0.84698 0.49734 0.26121 0.0
N817 N 0.86358 0.50228 0.27456 0.0
C818 C 0.83398 0.47947 0.26598 0.0
C819 C 0.85586 0.47187 0.29783 0.0
C820 C 0.86846 0.48986 0.29239 0.0
C821 C 0.83833 0.46656 0.28455 0.0
H822 H 0.84386 0.50725 0.24687 0.0
H823 H 0.88211 0.49403 0.30239 0.0
C824 C 0.92198 0.58673 0.26889 0.0
N825 N 0.94607 0.61644 0.29102 0.0
C826 C 0.91119 0.60393 0.27985 0.0
C827 C 0.94502 0.58464 0.26919 0.0
C828 C 0.92367 0.61879 0.29093 0.0
C829 C 0.9569 0.59981 0.28049 0.0
C830 C 0.86067 0.55039 0.22638 0.0
C831 C 0.86812 0.55957 0.20647 0.0
C832 C 0.83809 0.55124 0.23203 0.0
C833 C 0.85287 0.56948 0.19259 0.0
C834 C 0.82337 0.56133 0.21773 0.0
N835 N 0.831 0.57016 0.19847 0.0
C836 C 0.91812 0.52598 0.20363 0.0
C837 C 0.93799 0.55732 0.21235 0.0
C838 C 0.92739 0.52606 0.18249 0.0
N839 N 0.92338 0.54164 0.21785 0.0
C840 C 0.94774 0.55797 0.19142 0.0
C841 C 0.94205 0.54247 0.17613 0.0
H842 H 0.90606 0.51402 0.20849 0.0
H843 H 0.94136 0.56984 0.22389 0.0
C844 C 0.84123 0.59303 0.26909 0.0
N845 N 0.86 0.58895 0.25693 0.0
C846 C 0.82788 0.61103 0.26414 0.0
C847 C 0.85345 0.61997 0.23418 0.0
C848 C 0.8663 0.60189 0.23976 0.0
C849 C 0.83413 0.62484 0.24663 0.0
H850 H 0.83682 0.58252 0.28276 0.0
H851 H 0.88139 0.59809 0.23046 0.0
O852 O 0.91266 0.52114 0.26781 0.0
O853 O 0.87674 0.551 0.29089 0.0
O854 O 0.91004 0.57174 0.25833 0.0
O855 O 0.8754 0.54092 0.24039 0.0
H856 H 0.89853 0.4835 0.25373 0.0
H857 H 0.9542 0.52577 0.25351 0.0
H858 H 0.92095 0.45748 0.23124 0.0
H859 H 0.97566 0.49887 0.23116 0.0
H860 H 0.8098 0.5268 0.31523 0.0
H861 H 0.88893 0.53509 0.32936 0.0
H862 H 0.83391 0.54452 0.28704 0.0
H863 H 0.86382 0.51761 0.35685 0.0
H864 H 0.97471 0.52881 0.32234 0.0
H865 H 0.93066 0.5752 0.35513 0.0
H866 H 0.82061 0.47586 0.25535 0.0
H867 H 0.86001 0.46202 0.31202 0.0
H868 H 0.89338 0.60568 0.28004 0.0
H869 H 0.95362 0.57121 0.26111 0.0
H870 H 0.91554 0.63215 0.29953 0.0
H871 H 0.97472 0.59832 0.28097 0.0
H872 H 0.88551 0.55941 0.20187 0.0
H873 H 0.832 0.54451 0.24746 0.0
H874 H 0.85844 0.57674 0.1772 0.0
H875 H 0.80589 0.56222 0.22198 0.0
H876 H 0.9228 0.51376 0.1711 0.0
H877 H 0.9588 0.57098 0.18693 0.0
H878 H 0.81333 0.61458 0.2744 0.0
H879 H 0.85875 0.63028 0.22057 0.0
Li880 Li 0.7698 0.6674 0.54806 0.0
Li881 Li 0.78979 0.63821 0.52544 0.0
Li882 Li 0.76873 0.66894 0.50534 0.0
Li883 Li 0.74765 0.63901 0.52573 0.0
C884 C 0.80647 0.68878 0.52632 0.0
N885 N 0.83028 0.72634 0.5282 0.0
C886 C 0.82879 0.68771 0.53149 0.0
C887 C 0.7963 0.7089 0.52192 0.0
C888 C 0.84053 0.7069 0.53242 0.0
C889 C 0.80861 0.72772 0.52299 0.0
C890 C 0.77721 0.61906 0.56421 0.0
C891 C 0.78191 0.58151 0.57509 0.0
N892 N 0.7962 0.58744 0.59054 0.0
C893 C 0.7918 0.62482 0.58028 0.0
C894 C 0.77209 0.59728 0.56164 0.0
C895 C 0.80129 0.60858 0.59339 0.0
C896 C 0.75404 0.67884 0.59214 0.0
N897 N 0.77056 0.68279 0.57698 0.0
C898 C 0.78863 0.70457 0.60346 0.0
C899 C 0.78766 0.69553 0.58239 0.0
C900 C 0.77199 0.70047 0.61962 0.0
C901 C 0.75441 0.68747 0.61341 0.0
H902 H 0.74061 0.6686 0.58786 0.0
H903 H 0.80096 0.6984 0.57057 0.0
C904 C 0.82214 0.60669 0.50724 0.0
N905 N 0.81765 0.6207 0.52396 0.0
C906 C 0.84277 0.59574 0.50523 0.0
C907 C 0.8541 0.61378 0.53758 0.0
C908 C 0.8332 0.62424 0.53906 0.0
C909 C 0.85937 0.59932 0.52036 0.0
H910 H 0.80991 0.60426 0.49509 0.0
H911 H 0.82964 0.63571 0.55202 0.0
C912 C 0.72908 0.68827 0.52413 0.0
N913 N 0.69952 0.72204 0.51589 0.0
C914 C 0.71033 0.68469 0.51206 0.0
C915 C 0.73262 0.70891 0.53234 0.0
C916 C 0.69563 0.702 0.50797 0.0
C917 C 0.71753 0.7258 0.5279 0.0
C918 C 0.76426 0.62105 0.48627 0.0
C919 C 0.75867 0.62627 0.46477 0.0
C920 C 0.76406 0.59943 0.4935 0.0
C921 C 0.75293 0.6097 0.45081 0.0
C922 C 0.75824 0.58332 0.47904 0.0
N923 N 0.75283 0.58875 0.45817 0.0
C924 C 0.79006 0.69086 0.46827 0.0
C925 C 0.75119 0.69237 0.4665 0.0
C926 C 0.79221 0.70154 0.44778 0.0
N927 N 0.76977 0.68649 0.47741 0.0
C928 C 0.75259 0.70315 0.44595 0.0
C929 C 0.77335 0.70795 0.43608 0.0
H930 H 0.80474 0.68565 0.47671 0.0
H931 H 0.73516 0.68837 0.47347 0.0
C932 C 0.71031 0.61293 0.54303 0.0
N933 N 0.71993 0.6221 0.52471 0.0
C934 C 0.69018 0.60191 0.54197 0.0
C935 C 0.69035 0.60933 0.50317 0.0
C936 C 0.7102 0.62041 0.50502 0.0
C937 C 0.67961 0.60006 0.52181 0.0
H938 H 0.71806 0.61446 0.55864 0.0
H939 H 0.7177 0.62793 0.49061 0.0
O940 O 0.79471 0.67019 0.52537 0.0
O941 O 0.76789 0.63471 0.55112 0.0
O942 O 0.74363 0.67154 0.52833 0.0
O943 O 0.76958 0.63709 0.50025 0.0
H944 H 0.83695 0.67225 0.53479 0.0
H945 H 0.77915 0.70996 0.51756 0.0
H946 H 0.8578 0.70634 0.53647 0.0
H947 H 0.80095 0.74341 0.51964 0.0
H948 H 0.77815 0.56457 0.57327 0.0
H949 H 0.79587 0.64165 0.58248 0.0
H950 H 0.76061 0.59261 0.54944 0.0
H951 H 0.81272 0.61277 0.60583 0.0
H952 H 0.80273 0.71417 0.60721 0.0
H953 H 0.74092 0.68393 0.62488 0.0
H954 H 0.84561 0.58462 0.49181 0.0
H955 H 0.8662 0.61759 0.54951 0.0
H956 H 0.70728 0.66875 0.50575 0.0
H957 H 0.74681 0.71182 0.54213 0.0
H958 H 0.68113 0.69952 0.49851 0.0
H959 H 0.72011 0.74189 0.53406 0.0
H960 H 0.75868 0.64296 0.45897 0.0
H961 H 0.76837 0.59516 0.51009 0.0
H962 H 0.74853 0.61349 0.43413 0.0
H963 H 0.758 0.56651 0.4844 0.0
H964 H 0.80867 0.70423 0.44099 0.0
H965 H 0.73744 0.70775 0.43797 0.0
H966 H 0.68275 0.59541 0.55696 0.0
H967 H 0.68353 0.60814 0.48708 0.0
Li968 Li 0.67672 0.53107 0.78784 0.0
Li969 Li 0.64489 0.51639 0.80832 0.0
Li970 Li 0.67692 0.49435 0.79706 0.0
Li971 Li 0.65122 0.50832 0.76978 0.0
C972 C 0.68683 0.51006 0.83501 0.0
N973 N 0.70903 0.49089 0.86942 0.0
C974 C 0.67528 0.50402 0.85427 0.0
C975 C 0.70975 0.50655 0.8334 0.0
C976 C 0.68678 0.49433 0.87145 0.0
C977 C 0.72064 0.49676 0.85092 0.0
C978 C 0.62797 0.55123 0.78472 0.0
C979 C 0.58894 0.55976 0.78356 0.0
N980 N 0.59293 0.58059 0.78908 0.0
C981 C 0.63172 0.57275 0.7902 0.0
C982 C 0.60645 0.54469 0.7812 0.0
C983 C 0.61377 0.58734 0.79239 0.0
C984 C 0.68916 0.56989 0.76726 0.0
N985 N 0.69349 0.55568 0.78388 0.0
C986 C 0.72203 0.57757 0.79652 0.0
C987 C 0.70964 0.55897 0.79823 0.0
C988 C 0.71724 0.59314 0.78026 0.0
C989 C 0.70094 0.58898 0.76514 0.0
H990 H 0.67615 0.56663 0.75612 0.0
H991 H 0.7126 0.54737 0.81124 0.0
C992 C 0.61464 0.50261 0.84051 0.0
N993 N 0.62349 0.52051 0.83078 0.0
C994 C 0.60166 0.50457 0.85968 0.0
C995 C 0.60601 0.54349 0.85748 0.0
C996 C 0.61936 0.54071 0.83872 0.0
C997 C 0.59767 0.5252 0.8687 0.0
H998 H 0.61882 0.48669 0.83417 0.0
H999 H 0.62727 0.55455 0.83115 0.0
C1000 C 0.69909 0.51618 0.75379 0.0
N1001 N 0.72913 0.53698 0.72614 0.0
C1002 C 0.6932 0.52256 0.73266 0.0
C1003 C 0.7204 0.52011 0.76072 0.0
C1004 C 0.70858 0.53311 0.71896 0.0
C1005 C 0.7353 0.53074 0.74655 0.0
C1006 C 0.63128 0.47227 0.78886 0.0
C1007 C 0.63956 0.45155 0.7836 0.0
C1008 C 0.60858 0.47679 0.78812 0.0
C1009 C 0.62494 0.43571 0.77742 0.0
C1010 C 0.59452 0.46052 0.78182 0.0
N1011 N 0.60292 0.44049 0.77664 0.0
C1012 C 0.68526 0.45651 0.82104 0.0
C1013 C 0.7143 0.46692 0.79623 0.0
C1014 C 0.69677 0.43746 0.82647 0.0
N1015 N 0.69394 0.47034 0.80571 0.0
C1016 C 0.72652 0.44828 0.80143 0.0
C1017 C 0.71737 0.43311 0.81617 0.0
H1018 H 0.66898 0.45984 0.82825 0.0
H1019 H 0.72062 0.47819 0.78401 0.0
C1020 C 0.63142 0.52395 0.73297 0.0
N1021 N 0.63689 0.50499 0.74333 0.0
C1022 C 0.62096 0.52375 0.71308 0.0
C1023 C 0.62192 0.48445 0.7148 0.0
C1024 C 0.63276 0.48541 0.73455 0.0
C1025 C 0.61599 0.50383 0.70394 0.0
H1026 H 0.63549 0.53926 0.74004 0.0
H1027 H 0.63798 0.47061 0.74269 0.0
O1028 O 0.67578 0.51932 0.81787 0.0
O1029 O 0.64534 0.5367 0.78261 0.0
O1030 O 0.68409 0.50616 0.7676 0.0
O1031 O 0.64531 0.48794 0.79506 0.0
H1032 H 0.65763 0.50678 0.85599 0.0
H1033 H 0.71899 0.5108 0.81855 0.0
H1034 H 0.67801 0.48952 0.8864 0.0
H1035 H 0.73831 0.49372 0.84975 0.0
H1036 H 0.57218 0.55491 0.78097 0.0
H1037 H 0.64828 0.57807 0.793 0.0
H1038 H 0.60332 0.52818 0.77667 0.0
H1039 H 0.6164 0.60401 0.79677 0.0
H1040 H 0.73473 0.58007 0.80826 0.0
H1041 H 0.69666 0.60074 0.75251 0.0
H1042 H 0.59596 0.48998 0.86795 0.0
H1043 H 0.60307 0.55975 0.86361 0.0
H1044 H 0.67696 0.51941 0.72684 0.0
H1045 H 0.72524 0.51549 0.77707 0.0
H1046 H 0.70418 0.53821 0.70261 0.0
H1047 H 0.75174 0.53412 0.75181 0.0
H1048 H 0.65709 0.44779 0.78408 0.0
H1049 H 0.60189 0.49265 0.79243 0.0
H1050 H 0.63111 0.41963 0.7732 0.0
H1051 H 0.57692 0.4638 0.7811 0.0
H1052 H 0.68912 0.42563 0.83742 0.0
H1053 H 0.7421 0.4449 0.79274 0.0
H1054 H 0.61654 0.53898 0.70506 0.0
H1055 H 0.61846 0.46881 0.70794 0.0
Li1056 Li 0.99785 0.78166 0.88548 0.0
Li1057 Li 0.01809 0.80151 0.91444 0.0
Li1058 Li 0.04004 0.7786 0.88537 0.0
Li1059 Li 0.01807 0.75898 0.91594 0.0
C1060 C 0.01236 0.81987 0.86684 0.0
N1061 N 0.99582 0.84953 0.83686 0.0
C1062 C 0.99571 0.83477 0.87328 0.0
C1063 C 0.02066 0.82006 0.8452 0.0
C1064 C 0.98754 0.84963 0.85786 0.0
C1065 C 0.01206 0.83519 0.83028 0.0
C1066 C 0.97857 0.78838 0.93451 0.0
C1067 C 0.96503 0.7874 0.97208 0.0
N1068 N 0.95043 0.80386 0.96752 0.0
C1069 C 0.96339 0.80521 0.93014 0.0
C1070 C 0.97939 0.77932 0.95559 0.0
C1071 C 0.94932 0.81285 0.94708 0.0
C1072 C 0.95192 0.77414 0.879 0.0
N1073 N 0.97023 0.78189 0.86825 0.0
C1074 C 0.94893 0.78802 0.83581 0.0
C1075 C 0.96897 0.78882 0.84696 0.0
C1076 C 0.92982 0.77976 0.84644 0.0
C1077 C 0.93167 0.77295 0.86848 0.0
H1078 H 0.95302 0.76865 0.89584 0.0
H1079 H 0.98353 0.79474 0.83837 0.0
C1080 C 0.02914 0.84697 0.92028 0.0
N1081 N 0.01915 0.82987 0.9307 0.0
C1082 C 0.03075 0.86725 0.93059 0.0
C1083 C 0.01167 0.85239 0.9623 0.0
C1084 C 0.01041 0.83244 0.95141 0.0
C1085 C 0.02213 0.87033 0.9521 0.0
H1086 H 0.03611 0.8449 0.90388 0.0
H1087 H 0.00249 0.81899 0.95973 0.0
C1088 C 0.02317 0.74298 0.86522 0.0
N1089 N 0.03474 0.71891 0.82862 0.0
C1090 C 0.03052 0.72142 0.86756 0.0
C1091 C 0.0217 0.75233 0.84432 0.0
C1092 C 0.0363 0.70951 0.84883 0.0
C1093 C 0.02762 0.73988 0.826 0.0
C1094 C 0.05576 0.7759 0.93588 0.0
C1095 C 0.07669 0.76597 0.93362 0.0
C1096 C 0.04752 0.78192 0.95661 0.0
C1097 C 0.08908 0.7622 0.95227 0.0
C1098 C 0.06042 0.77789 0.97485 0.0
N1099 N 0.08076 0.76819 0.97232 0.0
C1100 C 0.07762 0.79437 0.85914 0.0
C1101 C 0.07915 0.75672 0.86701 0.0
C1102 C 0.09834 0.79305 0.84799 0.0
N1103 N 0.06833 0.77633 0.86834 0.0
C1104 C 0.09984 0.75465 0.85598 0.0
C1105 C 0.1099 0.77296 0.84624 0.0
H1106 H 0.06906 0.80993 0.86064 0.0
H1107 H 0.07191 0.74263 0.87487 0.0
C1108 C 0.00239 0.71598 0.92517 0.0
N1109 N 0.01683 0.73055 0.93268 0.0
C1110 C 1.00072 0.69506 0.93462 0.0
C1111 C 0.02879 0.70398 0.9597 0.0
C1112 C 0.02998 0.72479 0.94969 0.0
C1113 C 0.01395 0.68857 0.9523 0.0
H1114 H 0.99225 0.72049 0.91148 0.0
H1115 H 0.04158 0.73619 0.95556 0.0
O1116 O 0.0205 0.80515 0.88165 0.0
O1117 O 0.99253 0.78074 0.91823 0.0
O1118 O 0.01775 0.755 0.88334 0.0
O1119 O 0.0434 0.77969 0.91785 0.0
H1120 H 0.98916 0.83482 0.88999 0.0
H1121 H 0.03345 0.80852 0.83993 0.0
H1122 H 0.97463 0.86125 0.86259 0.0
H1123 H 0.01826 0.83549 0.81345 0.0
H1124 H 0.9655 0.78061 0.98851 0.0
H1125 H 0.96253 0.8123 0.91385 0.0
H1126 H 0.99108 0.76626 0.95918 0.0
H1127 H 0.93752 0.82591 0.94397 0.0
H1128 H 0.94861 0.79329 0.81883 0.0
H1129 H 0.91753 0.76675 0.87767 0.0
H1130 H 0.03919 0.88022 0.92189 0.0
H1131 H 0.00433 0.8537 0.97865 0.0
H1132 H 0.03187 0.71402 0.88367 0.0
H1133 H 0.01622 0.76906 0.84229 0.0
H1134 H 0.04205 0.69281 0.85037 0.0
H1135 H 0.02661 0.7469 0.80971 0.0
H1136 H 0.08326 0.7612 0.91765 0.0
H1137 H 0.03125 0.7894 0.95861 0.0
H1138 H 0.10531 0.7545 0.9508 0.0
H1139 H 0.05424 0.78241 0.99102 0.0
H1140 H 0.10513 0.80766 0.84069 0.0
H1141 H 0.10808 0.73886 0.85557 0.0
H1142 H 0.98932 0.68396 0.92775 0.0
H1143 H 0.03928 0.70015 0.97332 0.0
Li1144 Li 0.00576 0.31476 0.62672 0.0
Li1145 Li 0.02602 0.29545 0.65511 0.0
Li1146 Li 0.00209 0.27606 0.63119 0.0
Li1147 Li 0.98683 0.3003 0.65899 0.0
C1148 C 0.04199 0.29099 0.60503 0.0
N1149 N 0.06888 0.28893 0.56763 0.0
C1150 C 0.06482 0.29324 0.60639 0.0
C1151 C 0.03283 0.28769 0.58467 0.0
C1152 C 0.07813 0.29217 0.58728 0.0
C1153 C 0.0467 0.28667 0.56595 0.0
C1154 C 0.01175 0.33145 0.67846 0.0
C1155 C 0.01479 0.32574 0.71743 0.0
N1156 N 0.01671 0.3475 0.72 0.0
C1157 C 0.01372 0.35374 0.68148 0.0
C1158 C 0.01226 0.3173 0.69657 0.0
C1159 C 0.01623 0.36155 0.70261 0.0
C1160 C 0.98489 0.34918 0.60841 0.0
N1161 N 0.00428 0.3377 0.60683 0.0
C1162 C 0.01798 0.36125 0.57859 0.0
C1163 C 0.02072 0.34315 0.59225 0.0
C1164 C 0.99834 0.37377 0.58041 0.0
C1165 C 0.98151 0.36742 0.59523 0.0
H1166 H 0.97223 0.34434 0.62027 0.0
H1167 H 0.03611 0.33393 0.59165 0.0
C1168 C 0.05761 0.26939 0.6712 0.0
N1169 N 0.05251 0.29083 0.66883 0.0
C1170 C 0.07697 0.26278 0.68108 0.0
C1171 C 0.08565 0.30061 0.68568 0.0
C1172 C 0.06597 0.30651 0.67564 0.0
C1173 C 0.09125 0.27846 0.68845 0.0
H1174 H 0.0465 0.25742 0.66544 0.0
H1175 H 0.06143 0.32346 0.67328 0.0
C1176 C 0.96186 0.29581 0.6143 0.0
N1177 N 0.92753 0.29177 0.58603 0.0
C1178 C 0.94119 0.28907 0.62226 0.0
C1179 C 0.96495 0.30086 0.59202 0.0
C1180 C 0.92407 0.28702 0.60769 0.0
C1181 C 0.94743 0.2986 0.57798 0.0
C1182 C 0.99187 0.25674 0.67249 0.0
C1183 C 0.97248 0.25071 0.66266 0.0
C1184 C 0.99861 0.24597 0.69153 0.0
C1185 C 0.95999 0.23409 0.67219 0.0
C1186 C 0.98567 0.22942 0.70055 0.0
N1187 N 0.96677 0.22388 0.69079 0.0
C1188 C 0.01619 0.23466 0.62467 0.0
C1189 C 0.99361 0.24771 0.59605 0.0
C1190 C 0.02264 0.21655 0.61257 0.0
N1191 N 0.00236 0.24995 0.61607 0.0
C1192 C 0.99984 0.22993 0.58321 0.0
C1193 C 0.01508 0.21444 0.59124 0.0
H1194 H 0.02319 0.23716 0.64046 0.0
H1195 H 0.98307 0.26035 0.58941 0.0
C1196 C 0.94925 0.32304 0.67022 0.0
N1197 N 0.96262 0.30668 0.67753 0.0
C1198 C 0.92922 0.32771 0.68113 0.0
C1199 C 0.93779 0.29927 0.70754 0.0
C1200 C 0.95778 0.29535 0.69623 0.0
C1201 C 0.92293 0.3152 0.69959 0.0
H1202 H 0.95383 0.33189 0.65541 0.0
H1203 H 0.969 0.28277 0.70194 0.0
O1204 O 0.0288 0.29217 0.6236 0.0
O1205 O 0.0093 0.3237 0.65781 0.0
O1206 O 0.97864 0.29835 0.62845 0.0
O1207 O 0.00438 0.27303 0.6636 0.0
H1208 H 0.07214 0.29585 0.62205 0.0
H1209 H 0.0152 0.28617 0.5833 0.0
H1210 H 0.09582 0.29393 0.58808 0.0
H1211 H 0.03983 0.28416 0.55007 0.0
H1212 H 0.01524 0.31498 0.73158 0.0
H1213 H 0.01333 0.3649 0.66762 0.0
H1214 H 0.01077 0.3 0.69462 0.0
H1215 H 0.01779 0.37877 0.70519 0.0
H1216 H 0.03145 0.36607 0.56759 0.0
H1217 H 0.96623 0.37685 0.59706 0.0
H1218 H 0.08054 0.24558 0.68323 0.0
H1219 H 0.09641 0.31314 0.69103 0.0
H1220 H 0.93834 0.28554 0.63953 0.0
H1221 H 0.98073 0.30637 0.5856 0.0
H1222 H 0.90802 0.28174 0.61361 0.0
H1223 H 0.94964 0.30231 0.56068 0.0
H1224 H 0.96721 0.25868 0.6478 0.0
H1225 H 0.01364 0.25044 0.69929 0.0
H1226 H 0.94491 0.22928 0.66477 0.0
H1227 H 0.99064 0.22098 0.71533 0.0
H1228 H 0.034 0.2047 0.61956 0.0
H1229 H 0.99375 0.22897 0.56679 0.0
H1230 H 0.91843 0.34039 0.67472 0.0
H1231 H 0.93354 0.28911 0.7216 0.0
Li1232 Li 0.49751 0.28263 0.38556 0.0
Li1233 Li 0.51765 0.30215 0.41512 0.0
Li1234 Li 0.54007 0.28003 0.38553 0.0
Li1235 Li 0.51845 0.25999 0.41543 0.0
C1236 C 0.51637 0.31784 0.36341 0.0
N1237 N 0.50903 0.34076 0.32499 0.0
C1238 C 0.50503 0.33787 0.36398 0.0
C1239 C 0.52424 0.3096 0.34335 0.0
C1240 C 0.5014 0.34917 0.34436 0.0
C1241 C 0.5203 0.3214 0.32409 0.0
C1242 C 0.47995 0.28886 0.43595 0.0
C1243 C 0.47298 0.29104 0.47498 0.0
N1244 N 0.45565 0.30499 0.47145 0.0
C1245 C 0.46202 0.30311 0.43268 0.0
C1246 C 0.48545 0.28267 0.45723 0.0
C1247 C 0.44996 0.31113 0.45085 0.0
C1248 C 0.46266 0.26577 0.35826 0.0
N1249 N 0.47024 0.28396 0.36773 0.0
C1250 C 0.43935 0.30465 0.35358 0.0
C1251 C 0.45873 0.30315 0.36572 0.0
C1252 C 0.43129 0.28625 0.34318 0.0
C1253 C 0.4434 0.26657 0.34585 0.0
H1254 H 0.47154 0.25047 0.36032 0.0
H1255 H 0.46441 0.31738 0.37379 0.0
C1256 C 0.53512 0.33605 0.44373 0.0
N1257 N 0.5177 0.33042 0.43151 0.0
C1258 C 0.53604 0.35689 0.45306 0.0
C1259 C 0.50109 0.36604 0.43733 0.0
C1260 C 0.50075 0.34505 0.42847 0.0
C1261 C 0.51905 0.37256 0.44965 0.0
H1262 H 0.54876 0.32461 0.44576 0.0
H1263 H 0.48709 0.34067 0.41859 0.0
C1264 C 0.52309 0.24292 0.36561 0.0
N1265 N 0.53328 0.21569 0.33094 0.0
C1266 C 0.53447 0.22323 0.36916 0.0
C1267 C 0.51685 0.24874 0.34442 0.0
C1268 C 0.53948 0.2097 0.35141 0.0
C1269 C 0.52216 0.23475 0.32712 0.0
C1270 C 0.55689 0.27339 0.43404 0.0
C1271 C 0.57635 0.26183 0.42837 0.0
C1272 C 0.5514 0.27717 0.45608 0.0
C1273 C 0.58994 0.25407 0.44494 0.0
C1274 C 0.56544 0.26914 0.47217 0.0
N1275 N 0.58425 0.25784 0.46631 0.0
C1276 C 0.58408 0.29342 0.377 0.0
C1277 C 0.57471 0.26635 0.35218 0.0
C1278 C 0.6056 0.29416 0.36775 0.0
N1279 N 0.56902 0.27965 0.36926 0.0
C1280 C 0.5961 0.2666 0.34238 0.0
C1281 C 0.61203 0.28068 0.35007 0.0
H1282 H 0.57946 0.30372 0.3907 0.0
H1283 H 0.5628 0.25546 0.34603 0.0
C1284 C 0.49963 0.22407 0.44168 0.0
N1285 N 0.51869 0.23154 0.43209 0.0
C1286 C 0.49885 0.20314 0.45132 0.0
C1287 C 0.53737 0.19768 0.44162 0.0
C1288 C 0.53742 0.21871 0.43213 0.0
C1289 C 0.5178 0.18928 0.45118 0.0
H1290 H 0.48477 0.23418 0.44142 0.0
H1291 H 0.55236 0.22441 0.42404 0.0
O1292 O 0.51992 0.30644 0.38241 0.0
O1293 O 0.49214 0.28106 0.41841 0.0
O1294 O 0.51794 0.25633 0.38279 0.0
O1295 O 0.54333 0.28104 0.41806 0.0
H1296 H 0.49894 0.34454 0.37938 0.0
H1297 H 0.53332 0.29428 0.34265 0.0
H1298 H 0.4925 0.36462 0.34455 0.0
H1299 H 0.52624 0.31518 0.30843 0.0
H1300 H 0.47707 0.28643 0.49155 0.0
H1301 H 0.45755 0.30801 0.41628 0.0
H1302 H 0.49919 0.27151 0.46 0.0
H1303 H 0.43609 0.32226 0.44859 0.0
H1304 H 0.43059 0.32015 0.35274 0.0
H1305 H 0.43827 0.25186 0.33821 0.0
H1306 H 0.55039 0.36094 0.46216 0.0
H1307 H 0.48737 0.37717 0.43434 0.0
H1308 H 0.53942 0.21847 0.38541 0.0
H1309 H 0.50804 0.2639 0.34135 0.0
H1310 H 0.5483 0.19443 0.35392 0.0
H1311 H 0.51746 0.23907 0.31064 0.0
H1312 H 0.58078 0.2587 0.41136 0.0
H1313 H 0.53649 0.28624 0.46071 0.0
H1314 H 0.605 0.245 0.44081 0.0
H1315 H 0.56139 0.27192 0.48931 0.0
H1316 H 0.61717 0.30505 0.37469 0.0
H1317 H 0.59997 0.25605 0.32868 0.0
H1318 H 0.48335 0.19783 0.45867 0.0
H1319 H 0.5524 0.18781 0.44067 0.0
Li1320 Li 0.50134 0.81761 0.12589 0.0
Li1321 Li 0.53067 0.80058 0.14553 0.0
Li1322 Li 0.50412 0.77818 0.13046 0.0
Li1323 Li 0.49497 0.80228 0.16077 0.0
C1324 C 0.54505 0.80103 0.10547 0.0
N1325 N 0.58769 0.80841 0.09015 0.0
C1326 C 0.5533 0.82203 0.10532 0.0
C1327 C 0.55843 0.7838 0.09773 0.0
C1328 C 0.57491 0.82542 0.09753 0.0
C1329 C 0.57996 0.78786 0.09008 0.0
C1330 C 0.51344 0.83794 0.17245 0.0
C1331 C 0.52205 0.8397 0.21066 0.0
N1332 N 0.51118 0.85926 0.21199 0.0
C1333 C 0.50244 0.85809 0.17415 0.0
C1334 C 0.52341 0.82868 0.1908 0.0
C1335 C 0.50145 0.86859 0.1943 0.0
C1336 C 0.47677 0.85449 0.11571 0.0
N1337 N 0.49219 0.84022 0.10743 0.0
C1338 C 0.49544 0.86048 0.07406 0.0
C1339 C 0.50099 0.84236 0.0868 0.0
C1340 C 0.48069 0.87631 0.08278 0.0
C1341 C 0.47065 0.87278 0.10353 0.0
H1342 H 0.46976 0.85195 0.13204 0.0
H1343 H 0.51288 0.83041 0.08057 0.0
C1344 C 0.56965 0.77972 0.15345 0.0
N1345 N 0.56043 0.79997 0.15239 0.0
C1346 C 0.59039 0.77656 0.16213 0.0
C1347 C 0.59224 0.8154 0.16729 0.0
C1348 C 0.57135 0.81782 0.15845 0.0
C1349 C 0.60151 0.79445 0.1699 0.0
H1350 H 0.56037 0.76594 0.14851 0.0
H1351 H 0.56337 0.83369 0.15748 0.0
C1352 C 0.46195 0.80172 0.11952 0.0
N1353 N 0.43088 0.8118 0.08859 0.0
C1354 C 0.44099 0.8097 0.12607 0.0
C1355 C 0.46707 0.79876 0.09724 0.0
C1356 C 0.42552 0.81472 0.11018 0.0
C1357 C 0.45115 0.80399 0.08185 0.0
C1358 C 0.50645 0.75942 0.17169 0.0
C1359 C 0.4844 0.75407 0.16891 0.0
C1360 C 0.51935 0.74703 0.18602 0.0
C1361 C 0.4756 0.73648 0.18065 0.0
C1362 C 0.50993 0.72956 0.19746 0.0
N1363 N 0.48844 0.72471 0.19457 0.0
C1364 C 0.51956 0.73839 0.11773 0.0
C1365 C 0.48249 0.74504 0.10753 0.0
C1366 C 0.52055 0.71909 0.10623 0.0
N1367 N 0.50099 0.75115 0.11759 0.0
C1368 C 0.4828 0.72588 0.09561 0.0
C1369 C 0.50227 0.71301 0.09436 0.0
H1370 H 0.53382 0.74362 0.12627 0.0
H1371 H 0.46777 0.75529 0.10816 0.0
C1372 C 0.46059 0.82157 0.18312 0.0
N1373 N 0.47699 0.80654 0.18606 0.0
C1374 C 0.44326 0.82339 0.19845 0.0
C1375 C 0.46115 0.79567 0.22064 0.0
C1376 C 0.47839 0.79461 0.20492 0.0
C1377 C 0.4428 0.80931 0.21671 0.0
H1378 H 0.46033 0.83115 0.16815 0.0
H1379 H 0.49205 0.78328 0.20713 0.0
O1380 O 0.52411 0.79734 0.11354 0.0
O1381 O 0.51419 0.82719 0.15299 0.0
O1382 O 0.4775 0.79713 0.13479 0.0
O1383 O 0.51564 0.77658 0.16053 0.0
H1384 H 0.54322 0.83551 0.11146 0.0
H1385 H 0.55229 0.76746 0.09768 0.0
H1386 H 0.58156 0.84156 0.09744 0.0
H1387 H 0.59053 0.77467 0.0841 0.0
H1388 H 0.52957 0.83268 0.22504 0.0
H1389 H 0.4947 0.8655 0.16009 0.0
H1390 H 0.53182 0.813 0.1898 0.0
H1391 H 0.49293 0.88416 0.19589 0.0
H1392 H 0.50369 0.86274 0.0582 0.0
H1393 H 0.45902 0.88454 0.11066 0.0
H1394 H 0.59721 0.76021 0.16373 0.0
H1395 H 0.60039 0.8295 0.17328 0.0
H1396 H 0.43668 0.81195 0.14324 0.0
H1397 H 0.48327 0.79271 0.09188 0.0
H1398 H 0.40924 0.82093 0.11501 0.0
H1399 H 0.45494 0.80189 0.06456 0.0
H1400 H 0.47409 0.76335 0.15793 0.0
H1401 H 0.53645 0.75093 0.18831 0.0
H1402 H 0.45856 0.73221 0.17871 0.0
H1403 H 0.51972 0.71988 0.20864 0.0
H1404 H 0.53566 0.70929 0.10621 0.0
H1405 H 0.46832 0.72168 0.08676 0.0
H1406 H 0.42938 0.83425 0.1951 0.0
H1407 H 0.46125 0.78461 0.2346 0.0
Li1408 Li 0.91207 0.05602 0.78041 0.0
Li1409 Li 0.8908 0.02913 0.76285 0.0
Li1410 Li 0.92051 0.04837 0.74365 0.0
Li1411 Li 0.88544 0.06687 0.75345 0.0
C1412 C 0.93889 0.01335 0.76216 0.0
N1413 N 0.97147 0.98438 0.74738 0.0
C1414 C 0.93361 0.99201 0.75732 0.0
C1415 C 0.96081 0.01987 0.75968 0.0
C1416 C 0.9503 0.97764 0.74982 0.0
C1417 C 0.97702 0.00501 0.75212 0.0
C1418 C 0.86324 0.04488 0.79504 0.0
C1419 C 0.82529 0.03445 0.80043 0.0
N1420 N 0.82965 0.02791 0.82126 0.0
C1421 C 0.86731 0.0382 0.81654 0.0
C1422 C 0.84204 0.04315 0.78695 0.0
C1423 C 0.85012 0.02961 0.82953 0.0
C1424 C 0.9124 0.07701 0.82087 0.0
N1425 N 0.92416 0.06419 0.80654 0.0
C1426 C 0.95566 0.06415 0.82871 0.0
C1427 C 0.94529 0.0576 0.81008 0.0
C1428 C 0.94391 0.07719 0.84388 0.0
C1429 C 0.922 0.08359 0.84003 0.0
H1430 H 0.89563 0.08206 0.81736 0.0
H1431 H 0.9541 0.04743 0.79834 0.0
C1432 C 0.86871 0.99493 0.74621 0.0
N1433 N 0.87599 0.00286 0.76522 0.0
C1434 C 0.85716 0.97577 0.74629 0.0
C1435 C 0.86147 0.97279 0.78552 0.0
C1436 C 0.87305 0.99208 0.78464 0.0
C1437 C 0.85323 0.96459 0.76614 0.0
H1438 H 0.87215 0.00329 0.73089 0.0
H1439 H 0.87977 0.99838 0.79936 0.0
C1440 C 0.92598 0.09343 0.76636 0.0
N1441 N 0.9462 0.12524 0.78944 0.0
C1442 C 0.91349 0.11086 0.77498 0.0
C1443 C 0.94879 0.09226 0.7693 0.0
C1444 C 0.92401 0.12677 0.78663 0.0
C1445 C 0.95869 0.10847 0.78108 0.0
C1446 C 0.87808 0.04583 0.71563 0.0
C1447 C 0.88797 0.05136 0.69536 0.0
C1448 C 0.85512 0.044 0.71755 0.0
C1449 C 0.87466 0.05515 0.67736 0.0
C1450 C 0.84239 0.04796 0.69918 0.0
N1451 N 0.85234 0.05341 0.67963 0.0
C1452 C 0.94365 0.02801 0.70953 0.0
C1453 C 0.95239 0.06496 0.71446 0.0
C1454 C 0.95629 0.02736 0.69015 0.0
N1455 N 0.94175 0.0467 0.72099 0.0
C1456 C 0.96503 0.06513 0.695 0.0
C1457 C 0.96638 0.04635 0.68228 0.0
H1458 H 0.93438 0.014 0.71482 0.0
H1459 H 0.94992 0.07976 0.72358 0.0
C1460 C 0.85321 0.09705 0.76326 0.0
N1461 N 0.865 0.08873 0.74597 0.0
C1462 C 0.83974 0.11534 0.7605 0.0
C1463 C 0.84962 0.11537 0.72177 0.0
C1464 C 0.86356 0.09745 0.72548 0.0
C1465 C 0.83792 0.12498 0.73955 0.0
H1466 H 0.85529 0.09023 0.77949 0.0
H1467 H 0.87378 0.09105 0.71215 0.0
O1468 O 0.92276 0.02768 0.76954 0.0
O1469 O 0.87983 0.0534 0.7821 0.0
O1470 O 0.91589 0.07737 0.75543 0.0
O1471 O 0.89083 0.04188 0.73342 0.0
H1472 H 0.91683 0.98656 0.75927 0.0
H1473 H 0.96522 0.03637 0.76308 0.0
H1474 H 0.94642 0.96111 0.74594 0.0
H1475 H 0.994 0.00992 0.74992 0.0
H1476 H 0.80883 0.03294 0.79436 0.0
H1477 H 0.88364 0.03941 0.82306 0.0
H1478 H 0.83856 0.0485 0.77044 0.0
H1479 H 0.85306 0.02425 0.84616 0.0
H1480 H 0.97248 0.05864 0.83153 0.0
H1481 H 0.91254 0.0935 0.85166 0.0
H1482 H 0.85173 0.96957 0.7309 0.0
H1483 H 0.85891 0.96445 0.8011 0.0
H1484 H 0.89584 0.11202 0.77289 0.0
H1485 H 0.95867 0.07876 0.76292 0.0
H1486 H 0.91453 0.14029 0.7935 0.0
H1487 H 0.97628 0.10766 0.78367 0.0
H1488 H 0.90569 0.05286 0.69353 0.0
H1489 H 0.84722 0.03958 0.73307 0.0
H1490 H 0.88208 0.05952 0.66159 0.0
H1491 H 0.8246 0.04668 0.70046 0.0
H1492 H 0.95712 0.01254 0.6808 0.0
H1493 H 0.9723 0.08014 0.68924 0.0
H1494 H 0.83191 0.12243 0.77498 0.0
H1495 H 0.8487 0.12203 0.70531 0.0
Li1496 Li 0.78864 0.16729 0.52635 0.0
Li1497 Li 0.80726 0.14136 0.5014 0.0
Li1498 Li 0.79545 0.17592 0.48929 0.0
Li1499 Li 0.76873 0.1499 0.49828 0.0
C1500 C 0.83125 0.18665 0.50924 0.0
N1501 N 0.85789 0.2221 0.50307 0.0
C1502 C 0.85225 0.18411 0.49928 0.0
C1503 C 0.82384 0.20714 0.51623 0.0
C1504 C 0.86546 0.20226 0.49626 0.0
C1505 C 0.83755 0.22488 0.51292 0.0
C1506 C 0.78944 0.12429 0.54149 0.0
C1507 C 0.78289 0.0961 0.56858 0.0
N1508 N 0.80217 0.10086 0.57808 0.0
C1509 C 0.80917 0.12895 0.55154 0.0
C1510 C 0.77615 0.1078 0.55009 0.0
C1511 C 0.81532 0.1169 0.57002 0.0
C1512 C 0.76338 0.18106 0.56114 0.0
N1513 N 0.78483 0.17801 0.55456 0.0
C1514 C 0.79723 0.19394 0.58713 0.0
C1515 C 0.80175 0.18389 0.56709 0.0
C1516 C 0.77513 0.19794 0.59405 0.0
C1517 C 0.7581 0.19105 0.58094 0.0
H1518 H 0.75038 0.17636 0.55058 0.0
H1519 H 0.81866 0.18129 0.56125 0.0
C1520 C 0.84303 0.12491 0.47911 0.0
N1521 N 0.82927 0.11999 0.49636 0.0
C1522 C 0.86042 0.11085 0.47322 0.0
C1523 C 0.84856 0.08641 0.50246 0.0
C1524 C 0.83115 0.10086 0.50757 0.0
C1525 C 0.86378 0.09167 0.48544 0.0
H1526 H 0.84056 0.13995 0.47008 0.0
H1527 H 0.81943 0.09687 0.52061 0.0
C1528 C 0.75203 0.19155 0.49392 0.0
N1529 N 0.7207 0.21326 0.46939 0.0
C1530 C 0.74934 0.18607 0.47203 0.0
C1531 C 0.7387 0.20797 0.50336 0.0
C1532 C 0.73343 0.19727 0.4599 0.0
C1533 C 0.72298 0.21878 0.49068 0.0
C1534 C 0.78906 0.12947 0.46287 0.0
C1535 C 0.79082 0.12991 0.43999 0.0
C1536 C 0.78519 0.1098 0.47393 0.0
C1537 C 0.78857 0.11067 0.42851 0.0
C1538 C 0.78307 0.09092 0.46185 0.0
N1539 N 0.78478 0.09174 0.43958 0.0
C1540 C 0.82054 0.19201 0.45498 0.0
C1541 C 0.79399 0.21792 0.46835 0.0
C1542 C 0.82644 0.20571 0.4376 0.0
N1543 N 0.80405 0.19799 0.46939 0.0
C1544 C 0.79883 0.23188 0.45075 0.0
C1545 C 0.81452 0.22532 0.43452 0.0
H1546 H 0.82847 0.17617 0.45653 0.0
H1547 H 0.7814 0.22254 0.48045 0.0
C1548 C 0.72907 0.13868 0.51415 0.0
N1549 N 0.74094 0.13805 0.49495 0.0
C1550 C 0.70969 0.12724 0.51666 0.0
C1551 C 0.71462 0.11536 0.47914 0.0
C1552 C 0.73378 0.1275 0.47723 0.0
C1553 C 0.70277 0.11457 0.49934 0.0
H1554 H 0.73527 0.14735 0.52786 0.0
H1555 H 0.74337 0.12757 0.462 0.0
O1556 O 0.8179 0.16918 0.51195 0.0
O1557 O 0.78288 0.1359 0.52349 0.0
O1558 O 0.76747 0.18093 0.50628 0.0
O1559 O 0.79159 0.14823 0.47417 0.0
H1560 H 0.85824 0.16833 0.49384 0.0
H1561 H 0.80755 0.20936 0.52385 0.0
H1562 H 0.88172 0.20058 0.48849 0.0
H1563 H 0.83199 0.24088 0.51811 0.0
H1564 H 0.77278 0.08326 0.57539 0.0
H1565 H 0.81971 0.14159 0.54508 0.0
H1566 H 0.7608 0.10407 0.54251 0.0
H1567 H 0.83056 0.12027 0.57794 0.0
H1568 H 0.81081 0.19885 0.59691 0.0
H1569 H 0.74087 0.19414 0.58546 0.0
H1570 H 0.87155 0.11528 0.45971 0.0
H1571 H 0.85063 0.07182 0.51237 0.0
H1572 H 0.75942 0.17341 0.46439 0.0
H1573 H 0.74055 0.21235 0.5203 0.0
H1574 H 0.73122 0.19325 0.44293 0.0
H1575 H 0.71259 0.23157 0.49776 0.0
H1576 H 0.79392 0.14498 0.4312 0.0
H1577 H 0.78372 0.10906 0.4916 0.0
H1578 H 0.78987 0.11079 0.41079 0.0
H1579 H 0.78004 0.07561 0.47019 0.0
H1580 H 0.83912 0.20029 0.42586 0.0
H1581 H 0.78922 0.24683 0.44909 0.0
H1582 H 0.70067 0.12772 0.53227 0.0
H1583 H 0.70983 0.10589 0.46535 0.0
Li1584 Li 0.63319 0.00211 0.3102 0.0
Li1585 Li 0.66037 0.02915 0.29936 0.0
Li1586 Li 0.6412 0.00918 0.27359 0.0
Li1587 Li 0.66846 0.99087 0.29596 0.0
C1588 C 0.6142 0.04245 0.2828 0.0
N1589 N 0.58641 0.06671 0.25638 0.0
C1590 C 0.62082 0.06251 0.27421 0.0
C1591 C 0.59323 0.03495 0.27828 0.0
C1592 C 0.60659 0.07448 0.26081 0.0
C1593 C 0.57949 0.04739 0.2648 0.0
C1594 C 0.68141 0.00988 0.334 0.0
C1595 C 0.72037 0.01725 0.33381 0.0
N1596 N 0.71991 0.01566 0.35606 0.0
C1597 C 0.68133 0.00828 0.35686 0.0
C1598 C 0.7011 0.01435 0.32234 0.0
C1599 C 0.70096 0.01127 0.36772 0.0
C1600 C 0.61776 0.97666 0.34443 0.0
N1601 N 0.61232 0.99403 0.33159 0.0
C1602 C 0.57877 0.00022 0.35212 0.0
C1603 C 0.59312 0.00555 0.33471 0.0
C1604 C 0.58458 0.98309 0.3664 0.0
C1605 C 0.60393 0.97075 0.36201 0.0
H1606 H 0.63323 0.96791 0.34142 0.0
H1607 H 0.58946 0.01944 0.32434 0.0
C1608 C 0.68148 0.06408 0.28386 0.0
N1609 N 0.67381 0.05566 0.30321 0.0
C1610 C 0.6939 0.08263 0.28346 0.0
C1611 C 0.68996 0.08399 0.32304 0.0
C1612 C 0.67747 0.0652 0.32267 0.0
C1613 C 0.69863 0.09257 0.30321 0.0
H1614 H 0.67801 0.05621 0.26869 0.0
H1615 H 0.67121 0.05795 0.33781 0.0
C1616 C 0.62588 0.96347 0.29233 0.0
N1617 N 0.59828 0.92956 0.30315 0.0
C1618 C 0.63475 0.94283 0.29707 0.0
C1619 C 0.60293 0.96668 0.29256 0.0
C1620 C 0.62054 0.92594 0.30263 0.0
C1621 C 0.58927 0.9494 0.29823 0.0
C1622 C 0.68429 0.00601 0.25537 0.0
C1623 C 0.6767 0.98752 0.24519 0.0
C1624 C 0.70301 0.01631 0.24669 0.0
C1625 C 0.68804 0.97965 0.22653 0.0
C1626 C 0.71389 0.00792 0.22801 0.0
N1627 N 0.70624 0.98992 0.2184 0.0
C1628 C 0.63734 0.02932 0.23328 0.0
C1629 C 0.61149 0.00151 0.2404 0.0
C1630 C 0.62652 0.03578 0.21447 0.0
N1631 N 0.62937 0.0128 0.24595 0.0
C1632 C 0.59994 0.00763 0.2219 0.0
C1633 C 0.6072 0.02528 0.20894 0.0
H1634 H 0.65147 0.03812 0.23841 0.0
H1635 H 0.60549 0.9886 0.25096 0.0
C1636 C 0.6858 0.95691 0.31847 0.0
N1637 N 0.69018 0.96925 0.30031 0.0
C1638 C 0.69893 0.93873 0.32304 0.0
C1639 C 0.72211 0.9475 0.2912 0.0
C1640 C 0.70841 0.96552 0.2872 0.0
C1641 C 0.71683 0.93349 0.30884 0.0
H1642 H 0.67143 0.96068 0.32883 0.0
H1643 H 0.71201 0.97599 0.2733 0.0
O1644 O 0.62814 0.03025 0.29557 0.0
O1645 O 0.66226 0.00692 0.32325 0.0
O1646 O 0.63962 0.98021 0.28693 0.0
O1647 O 0.67345 0.01431 0.27354 0.0
H1648 H 0.63679 0.06877 0.27772 0.0
H1649 H 0.58773 0.01955 0.2848 0.0
H1650 H 0.6116 0.08994 0.25392 0.0
H1651 H 0.56335 0.04163 0.26096 0.0
H1652 H 0.7357 0.02075 0.325 0.0
H1653 H 0.66623 0.00475 0.3661 0.0
H1654 H 0.70156 0.0156 0.30466 0.0
H1655 H 0.70113 0.0101 0.38541 0.0
H1656 H 0.5642 0.01038 0.35534 0.0
H1657 H 0.60891 0.95752 0.3728 0.0
H1658 H 0.69978 0.08913 0.2678 0.0
H1659 H 0.69325 0.09138 0.33855 0.0
H1660 H 0.65239 0.93977 0.29621 0.0
H1661 H 0.59572 0.98245 0.28882 0.0
H1662 H 0.62722 0.90993 0.30644 0.0
H1663 H 0.57149 0.95178 0.29877 0.0
H1664 H 0.66226 0.97929 0.25153 0.0
H1665 H 0.70912 0.03062 0.25435 0.0
H1666 H 0.68236 0.96537 0.21851 0.0
H1667 H 0.72842 0.01572 0.22114 0.0
H1668 H 0.63292 0.04916 0.20468 0.0
H1669 H 0.58498 0.99924 0.21838 0.0
H1670 H 0.69453 0.9283 0.33686 0.0
H1671 H 0.73581 0.94383 0.27989 0.0
Li1672 Li 0.75458 0.91898 0.02293 0.0
Li1673 Li 0.77489 0.88879 0.04346 0.0
Li1674 Li 0.7969 0.91785 0.02047 0.0
Li1675 Li 0.77554 0.88923 0.00104 0.0
C1676 C 0.77025 0.93702 0.0614 0.0
N1677 N 0.75784 0.96912 0.09077 0.0
C1678 C 0.75541 0.93252 0.0788 0.0
C1679 C 0.77878 0.95783 0.05892 0.0
C1680 C 0.74933 0.94898 0.09348 0.0
C1681 C 0.7723 0.97383 0.07395 0.0
C1682 C 0.7403 0.86697 0.02559 0.0
C1683 C 0.74339 0.82788 0.02566 0.0
N1684 N 0.72167 0.8268 0.03197 0.0
C1685 C 0.71805 0.8655 0.03217 0.0
C1686 C 0.75312 0.84805 0.0224 0.0
C1687 C 0.70893 0.84503 0.03528 0.0
C1688 C 0.7085 0.92691 0.01566 0.0
N1689 N 0.72652 0.93637 0.0239 0.0
C1690 C 0.70386 0.96742 0.03448 0.0
C1691 C 0.72451 0.95646 0.03292 0.0
C1692 C 0.68482 0.95782 0.02659 0.0
C1693 C 0.68755 0.9373 0.01684 0.0
H1694 H 0.7103 0.91105 0.00836 0.0
H1695 H 0.73884 0.9641 0.03907 0.0
C1696 C 0.79206 0.86405 0.08142 0.0
N1697 N 0.77348 0.87184 0.07163 0.0
C1698 C 0.79071 0.85319 0.10194 0.0
C1699 C 0.7512 0.85849 0.10219 0.0
C1700 C 0.75329 0.8692 0.08173 0.0
C1701 C 0.77004 0.85021 0.11282 0.0
H1702 H 0.80805 0.86641 0.07341 0.0
H1703 H 0.73868 0.87579 0.0741 0.0
C1704 C 0.7798 0.93949 0.9841 0.0
N1705 N 0.79018 0.97598 0.95943 0.0
C1706 C 0.7887 0.93735 0.9628 0.0
C1707 C 0.77611 0.96014 0.99285 0.0
C1708 C 0.79386 0.95602 0.95059 0.0
C1709 C 0.78148 0.9784 0.98011 0.0
C1710 C 0.81656 0.87148 0.01282 0.0
C1711 C 0.82889 0.87803 0.99423 0.0
C1712 C 0.82012 0.85075 0.02182 0.0
C1713 C 0.84464 0.86367 0.98493 0.0
C1714 C 0.83602 0.83687 0.01203 0.0
N1715 N 0.84785 0.84356 0.99394 0.0
C1716 C 0.83305 0.94182 0.03871 0.0
C1717 C 0.83531 0.93963 0.00016 0.0
C1718 C 0.8525 0.95395 0.0387 0.0
N1719 N 0.82459 0.93504 0.0196 0.0
C1720 C 0.85489 0.95154 0.9994 0.0
C1721 C 0.8639 0.95913 0.01883 0.0
H1722 H 0.82464 0.93789 0.05412 0.0
H1723 H 0.82884 0.93387 0.98508 0.0
C1724 C 0.76255 0.88186 0.95642 0.0
N1725 N 0.77421 0.87253 0.973 0.0
C1726 C 0.76089 0.87147 0.9361 0.0
C1727 C 0.78322 0.84185 0.94991 0.0
C1728 C 0.78442 0.85277 0.96996 0.0
C1729 C 0.77125 0.85103 0.93242 0.0
H1730 H 0.7544 0.89749 0.95894 0.0
H1731 H 0.79358 0.8453 0.98307 0.0
O1732 O 0.77656 0.92108 0.04697 0.0
O1733 O 0.74964 0.88685 0.02291 0.0
O1734 O 0.77489 0.92142 0.99638 0.0
O1735 O 0.80087 0.88516 0.022 0.0
H1736 H 0.74863 0.91652 0.08091 0.0
H1737 H 0.79009 0.96166 0.04541 0.0
H1738 H 0.73786 0.94574 0.10702 0.0
H1739 H 0.77872 0.99002 0.0722 0.0
H1740 H 0.75312 0.8131 0.02324 0.0
H1741 H 0.70798 0.88 0.03503 0.0
H1742 H 0.77043 0.84894 0.01767 0.0
H1743 H 0.69173 0.84363 0.04039 0.0
H1744 H 0.70291 0.98336 0.04173 0.0
H1745 H 0.67354 0.92901 0.01064 0.0
H1746 H 0.80578 0.84704 0.1091 0.0
H1747 H 0.73488 0.85717 0.1098 0.0
H1748 H 0.79178 0.92145 0.95586 0.0
H1749 H 0.76927 0.96202 0.00932 0.0
H1750 H 0.80084 0.95463 0.93411 0.0
H1751 H 0.77875 0.9945 0.98668 0.0
H1752 H 0.8261 0.89393 0.98693 0.0
H1753 H 0.81059 0.8454 0.03613 0.0
H1754 H 0.85425 0.86849 0.97049 0.0
H1755 H 0.83893 0.82075 0.01878 0.0
H1756 H 0.85831 0.95944 0.0542 0.0
H1757 H 0.86302 0.95442 0.98361 0.0
H1758 H 0.75118 0.87931 0.92355 0.0
H1759 H 0.79189 0.82637 0.94814 0.0
Li1760 Li 0.28886 0.66785 0.01926 0.0
Li1761 Li 0.30401 0.6371 0.00173 0.0
Li1762 Li 0.29374 0.66641 0.9795 0.0
Li1763 Li 0.26598 0.64434 0.99882 0.0
C1764 C 0.32669 0.68618 0.00113 0.0
N1765 N 0.34645 0.72619 0.00057 0.0
C1766 C 0.34936 0.68759 0.00435 0.0
C1767 C 0.31407 0.70518 0.99762 0.0
C1768 C 0.35904 0.70796 0.00402 0.0
C1769 C 0.32437 0.72523 0.99739 0.0
C1770 C 0.29134 0.63068 0.04499 0.0
C1771 C 0.29087 0.60906 0.07826 0.0
N1772 N 0.31071 0.61719 0.08338 0.0
C1773 C 0.31175 0.63879 0.05057 0.0
C1774 C 0.28082 0.61568 0.05891 0.0
C1775 C 0.32126 0.63179 0.07006 0.0
C1776 C 0.26565 0.68607 0.05338 0.0
N1777 N 0.28617 0.68586 0.04373 0.0
C1778 C 0.29789 0.71302 0.06785 0.0
C1779 C 0.30241 0.69854 0.05088 0.0
C1780 C 0.27665 0.71395 0.07791 0.0
C1781 C 0.26052 0.69996 0.07066 0.0
H1782 H 0.25319 0.67558 0.04735 0.0
H1783 H 0.31876 0.69773 0.04331 0.0
C1784 C 0.3459 0.62177 0.99555 0.0
N1785 N 0.32579 0.61534 0.00308 0.0
C1786 C 0.36369 0.60724 0.99518 0.0
C1787 C 0.33952 0.57929 0.00946 0.0
C1788 C 0.3222 0.59467 0.01014 0.0
C1789 C 0.36066 0.58557 0.00196 0.0
H1790 H 0.34811 0.63829 0.98987 0.0
H1791 H 0.30589 0.59011 0.01602 0.0
C1792 C 0.24951 0.68742 0.98989 0.0
N1793 N 0.21345 0.71067 0.97464 0.0
C1794 C 0.23989 0.68146 0.97045 0.0
C1795 C 0.24089 0.70525 0.00152 0.0
C1796 C 0.22161 0.69339 0.96304 0.0
C1797 C 0.22265 0.7168 0.99354 0.0
C1798 C 0.29115 0.61514 0.96792 0.0
C1799 C 0.30765 0.6112 0.9518 0.0
C1800 C 0.27972 0.59769 0.97731 0.0
C1801 C 0.31255 0.58988 0.94546 0.0
C1802 C 0.28505 0.5766 0.97047 0.0
N1803 N 0.30124 0.57316 0.95485 0.0
C1804 C 0.31845 0.67315 0.9416 0.0
C1805 C 0.2897 0.69957 0.94732 0.0
C1806 C 0.32372 0.68199 0.92103 0.0
N1807 N 0.3012 0.68155 0.95379 0.0
C1808 C 0.29459 0.70913 0.92705 0.0
C1809 C 0.3114 0.69994 0.91348 0.0
H1810 H 0.32779 0.65934 0.94774 0.0
H1811 H 0.27652 0.70629 0.95766 0.0
C1812 C 0.22812 0.63003 0.01887 0.0
N1813 N 0.23783 0.63314 0.99876 0.0
C1814 C 0.20832 0.61919 0.02093 0.0
C1815 C 0.20838 0.61595 0.9814 0.0
C1816 C 0.2284 0.62668 0.98012 0.0
C1817 C 0.19851 0.61171 0.00207 0.0
H1818 H 0.23619 0.63537 0.03332 0.0
H1819 H 0.23683 0.62914 0.96441 0.0
O1820 O 0.31721 0.66622 0.00134 0.0
O1821 O 0.28174 0.63694 0.02584 0.0
O1822 O 0.26757 0.6762 0.99737 0.0
O1823 O 0.28635 0.6359 0.97464 0.0
H1824 H 0.35938 0.67309 0.00714 0.0
H1825 H 0.29651 0.7046 0.9953 0.0
H1826 H 0.37656 0.70926 0.00652 0.0
H1827 H 0.31478 0.74003 0.99473 0.0
H1828 H 0.28292 0.59745 0.08918 0.0
H1829 H 0.32026 0.65031 0.04001 0.0
H1830 H 0.26508 0.60915 0.05476 0.0
H1831 H 0.33704 0.63793 0.07457 0.0
H1832 H 0.31084 0.72357 0.07276 0.0
H1833 H 0.24412 0.69965 0.07829 0.0
H1834 H 0.37974 0.61322 0.99002 0.0
H1835 H 0.33636 0.56277 0.01474 0.0
H1836 H 0.24665 0.66794 0.96106 0.0
H1837 H 0.24835 0.71025 0.01645 0.0
H1838 H 0.21398 0.68898 0.94801 0.0
H1839 H 0.21584 0.73067 0.00235 0.0
H1840 H 0.31666 0.6244 0.94425 0.0
H1841 H 0.26718 0.6003 0.99008 0.0
H1842 H 0.32535 0.58662 0.93307 0.0
H1843 H 0.27642 0.56296 0.97771 0.0
H1844 H 0.33694 0.67472 0.911 0.0
H1845 H 0.28468 0.72295 0.92164 0.0
H1846 H 0.20094 0.61629 0.0371 0.0
H1847 H 0.2012 0.61022 0.96659 0.0
Li1848 Li 0.16464 0.52743 0.79113 0.0
Li1849 Li 0.13571 0.50547 0.80966 0.0
Li1850 Li 0.16911 0.48974 0.79685 0.0
Li1851 Li 0.14354 0.50147 0.77081 0.0
C1852 C 0.18322 0.50829 0.83191 0.0
N1853 N 0.21979 0.49861 0.85643 0.0
C1854 C 0.18076 0.49753 0.85212 0.0
C1855 C 0.20424 0.51426 0.82421 0.0
C1856 C 0.19947 0.49275 0.86426 0.0
C1857 C 0.22254 0.50918 0.83684 0.0
C1858 C 0.11654 0.54338 0.78731 0.0
C1859 C 0.08176 0.55884 0.77575 0.0
N1860 N 0.08407 0.57566 0.78962 0.0
C1861 C 0.11863 0.56086 0.80137 0.0
C1862 C 0.09802 0.54239 0.77431 0.0
C1863 C 0.10201 0.577 0.80234 0.0
C1864 C 0.18768 0.55943 0.76957 0.0
N1865 N 0.1782 0.55406 0.78927 0.0
C1866 C 0.1896 0.58695 0.80498 0.0
C1867 C 0.17912 0.56709 0.80694 0.0
C1868 C 0.19947 0.59307 0.78474 0.0
C1869 C 0.19865 0.57888 0.76697 0.0
H1870 H 0.18679 0.54849 0.75595 0.0
H1871 H 0.17164 0.56207 0.82248 0.0
C1872 C 0.11944 0.48514 0.84535 0.0
N1873 N 0.11543 0.50333 0.83317 0.0
C1874 C 0.10836 0.48199 0.86533 0.0
C1875 C 0.08804 0.51578 0.85919 0.0
C1876 C 0.09968 0.51832 0.83926 0.0
C1877 C 0.09295 0.49775 0.8727 0.0
H1878 H 0.13199 0.47352 0.83989 0.0
H1879 H 0.09673 0.53256 0.8292 0.0
C1880 C 0.18549 0.49233 0.7539 0.0
N1881 N 0.20461 0.46512 0.72264 0.0
C1882 C 0.17707 0.47168 0.75086 0.0
C1883 C 0.20362 0.49911 0.74103 0.0
C1884 C 0.18697 0.45818 0.73497 0.0
C1885 C 0.21306 0.48513 0.72532 0.0
C1886 C 0.11959 0.46848 0.79102 0.0
C1887 C 0.11878 0.44587 0.78999 0.0
C1888 C 0.10007 0.48097 0.78984 0.0
C1889 C 0.09842 0.43612 0.78761 0.0
C1890 C 0.08004 0.47062 0.78748 0.0
N1891 N 0.07963 0.44859 0.78641 0.0
C1892 C 0.18008 0.45334 0.81975 0.0
C1893 C 0.20986 0.46532 0.79675 0.0
C1894 C 0.19215 0.435 0.82597 0.0
N1895 N 0.18885 0.46765 0.80499 0.0
C1896 C 0.22246 0.44692 0.80223 0.0
C1897 C 0.21322 0.43116 0.81642 0.0
H1898 H 0.1634 0.45587 0.82612 0.0
H1899 H 0.21648 0.47725 0.78531 0.0
C1900 C 0.1337 0.51779 0.73119 0.0
N1901 N 0.13085 0.49946 0.74341 0.0
C1902 C 0.12241 0.52089 0.71192 0.0
C1903 C 0.10624 0.48562 0.71764 0.0
C1904 C 0.11814 0.48309 0.73673 0.0
C1905 C 0.1078 0.50505 0.70539 0.0
H1906 H 0.14408 0.53041 0.73699 0.0
H1907 H 0.11649 0.46847 0.74654 0.0
O1908 O 0.16522 0.51265 0.81951 0.0
O1909 O 0.13275 0.52755 0.78587 0.0
O1910 O 0.17623 0.50593 0.76939 0.0
O1911 O 0.13949 0.47809 0.79338 0.0
H1912 H 0.1646 0.49282 0.85831 0.0
H1913 H 0.20645 0.52242 0.8085 0.0
H1914 H 0.19783 0.48434 0.87989 0.0
H1915 H 0.23892 0.51358 0.83104 0.0
H1916 H 0.06732 0.55824 0.76582 0.0
H1917 H 0.13274 0.5618 0.81166 0.0
H1918 H 0.0962 0.52905 0.76321 0.0
H1919 H 0.10335 0.59056 0.81324 0.0
H1920 H 0.1897 0.59746 0.81904 0.0
H1921 H 0.2065 0.58266 0.75122 0.0
H1922 H 0.11235 0.46781 0.87527 0.0
H1923 H 0.07628 0.52831 0.86452 0.0
H1924 H 0.1631 0.46604 0.76061 0.0
H1925 H 0.21038 0.51502 0.74321 0.0
H1926 H 0.18064 0.44217 0.73246 0.0
H1927 H 0.22712 0.49018 0.71526 0.0
H1928 H 0.13376 0.43598 0.79096 0.0
H1929 H 0.10035 0.49844 0.79073 0.0
H1930 H 0.09756 0.41864 0.78673 0.0
H1931 H 0.06482 0.4801 0.7865 0.0
H1932 H 0.18461 0.42334 0.8372 0.0
H1933 H 0.23862 0.44442 0.79439 0.0
H1934 H 0.12461 0.53582 0.70261 0.0
H1935 H 0.0952 0.47298 0.71314 0.0
Li1936 Li 0.25433 0.41849 0.52127 0.0
Li1937 Li 0.27549 0.38964 0.54235 0.0
Li1938 Li 0.29624 0.41863 0.51845 0.0
Li1939 Li 0.27612 0.38857 0.49971 0.0
C1940 C 0.26704 0.43886 0.55718 0.0
N1941 N 0.24806 0.47268 0.58098 0.0
C1942 C 0.25606 0.43472 0.57724 0.0
C1943 C 0.26852 0.46019 0.54928 0.0
C1944 C 0.24653 0.45204 0.58902 0.0
C1945 C 0.25878 0.47707 0.56154 0.0
C1946 C 0.23899 0.36821 0.52762 0.0
C1947 C 0.23586 0.32928 0.52912 0.0
N1948 N 0.21603 0.33162 0.54006 0.0
C1949 C 0.21852 0.37026 0.53874 0.0
C1950 C 0.24771 0.34759 0.52264 0.0
C1951 C 0.20719 0.35155 0.54495 0.0
C1952 C 0.21991 0.44572 0.50261 0.0
N1953 N 0.2261 0.43543 0.52141 0.0
C1954 C 0.1913 0.44598 0.53899 0.0
C1955 C 0.2122 0.43546 0.53946 0.0
C1956 C 0.18427 0.45643 0.51966 0.0
C1957 C 0.19915 0.45633 0.50139 0.0
H1958 H 0.23091 0.44531 0.48829 0.0
H1959 H 0.21702 0.4268 0.55413 0.0
C1960 C 0.29579 0.36702 0.57929 0.0
N1961 N 0.27595 0.37368 0.57127 0.0
C1962 C 0.29715 0.35743 0.60032 0.0
C1963 C 0.25768 0.3616 0.60496 0.0
C1964 C 0.25706 0.37103 0.58376 0.0
C1965 C 0.27798 0.35477 0.61383 0.0
H1966 H 0.31076 0.36946 0.56949 0.0
H1967 H 0.24144 0.37689 0.57762 0.0
C1968 C 0.28292 0.43529 0.47949 0.0
N1969 N 0.30087 0.46456 0.4496 0.0
C1970 C 0.29607 0.42789 0.46176 0.0
C1971 C 0.2788 0.45755 0.48198 0.0
C1972 C 0.30502 0.44296 0.44683 0.0
C1973 C 0.28805 0.4721 0.4667 0.0
C1974 C 0.31455 0.3685 0.51511 0.0
C1975 C 0.33181 0.37059 0.49951 0.0
C1976 C 0.31068 0.34828 0.52502 0.0
C1977 C 0.34495 0.35237 0.49406 0.0
C1978 C 0.32421 0.33046 0.51915 0.0
N1979 N 0.34092 0.33285 0.50392 0.0
C1980 C 0.32814 0.4497 0.53382 0.0
C1981 C 0.33772 0.43502 0.49922 0.0
C1982 C 0.34759 0.46188 0.53334 0.0
N1983 N 0.32341 0.43656 0.51688 0.0
C1984 C 0.35732 0.44687 0.49807 0.0
C1985 C 0.3627 0.46065 0.51527 0.0
H1986 H 0.31688 0.45068 0.54792 0.0
H1987 H 0.33413 0.42435 0.48599 0.0
C1988 C 0.26302 0.38047 0.45533 0.0
N1989 N 0.27482 0.37134 0.47192 0.0
C1990 C 0.2613 0.36993 0.43511 0.0
C1991 C 0.28373 0.34045 0.44903 0.0
C1992 C 0.28504 0.35155 0.46898 0.0
C1993 C 0.27169 0.34949 0.43153 0.0
H1994 H 0.25484 0.3961 0.45775 0.0
H1995 H 0.29426 0.34419 0.48208 0.0
O1996 O 0.27616 0.4221 0.54524 0.0
O1997 O 0.25044 0.38631 0.52162 0.0
O1998 O 0.27416 0.42081 0.49436 0.0
O1999 O 0.30157 0.38616 0.52074 0.0
H2000 H 0.25479 0.41829 0.58359 0.0
H2001 H 0.2771 0.46366 0.53385 0.0
H2002 H 0.23789 0.44907 0.60453 0.0
H2003 H 0.25974 0.49366 0.5556 0.0
H2004 H 0.24244 0.31321 0.52543 0.0
H2005 H 0.21155 0.38613 0.54267 0.0
H2006 H 0.26345 0.34576 0.51389 0.0
H2007 H 0.19137 0.35288 0.55367 0.0
H2008 H 0.18046 0.44524 0.55343 0.0
H2009 H 0.19478 0.4643 0.48616 0.0
H2010 H 0.31324 0.35224 0.60591 0.0
H2011 H 0.2424 0.36038 0.61456 0.0
H2012 H 0.29957 0.41072 0.45969 0.0
H2013 H 0.26853 0.46354 0.49553 0.0
H2014 H 0.31533 0.43747 0.43309 0.0
H2015 H 0.28503 0.48938 0.46844 0.0
H2016 H 0.33496 0.38606 0.49161 0.0
H2017 H 0.29731 0.34632 0.53701 0.0
H2018 H 0.35836 0.35374 0.48199 0.0
H2019 H 0.32138 0.31471 0.52666 0.0
H2020 H 0.3506 0.4723 0.54699 0.0
H2021 H 0.36838 0.44481 0.48391 0.0
H2022 H 0.25153 0.37766 0.42253 0.0
H2023 H 0.29236 0.32494 0.44733 0.0
Li2024 Li 0.41071 0.55241 0.276 0.0
Li2025 Li 0.38774 0.53466 0.25079 0.0
Li2026 Li 0.41319 0.56204 0.23854 0.0
Li2027 Li 0.3799 0.57113 0.25965 0.0
C2028 C 0.43395 0.51901 0.26208 0.0
N2029 N 0.46098 0.49061 0.28512 0.0
C2030 C 0.42643 0.49854 0.26859 0.0
C2031 C 0.45527 0.52499 0.26735 0.0
C2032 C 0.44034 0.48442 0.28018 0.0
C2033 C 0.46865 0.51043 0.27901 0.0
C2034 C 0.36356 0.5526 0.29506 0.0
C2035 C 0.32541 0.55987 0.30597 0.0
N2036 N 0.33205 0.56814 0.32514 0.0
C2037 C 0.36997 0.56125 0.31488 0.0
C2038 C 0.34106 0.55193 0.29058 0.0
C2039 C 0.3538 0.56897 0.32987 0.0
C2040 C 0.44193 0.56313 0.3061 0.0
N2041 N 0.42638 0.54853 0.30161 0.0
C2042 C 0.43344 0.52848 0.33441 0.0
C2043 C 0.42201 0.53133 0.31511 0.0
C2044 C 0.44948 0.54349 0.33959 0.0
C2045 C 0.45395 0.56076 0.32498 0.0
H2046 H 0.44491 0.57664 0.29507 0.0
H2047 H 0.40941 0.52007 0.311 0.0
C2048 C 0.38341 0.496 0.22719 0.0
N2049 N 0.37514 0.5083 0.244 0.0
C2050 C 0.37388 0.47623 0.22274 0.0
C2051 C 0.34756 0.48257 0.25285 0.0
C2052 C 0.35768 0.50199 0.2568 0.0
C2053 C 0.35586 0.46928 0.23586 0.0
H2054 H 0.39755 0.50143 0.2175 0.0
H2055 H 0.35178 0.51191 0.27025 0.0
C2056 C 0.42017 0.59962 0.25436 0.0
N2057 N 0.44066 0.63447 0.234 0.0
C2058 C 0.40754 0.61654 0.24521 0.0
C2059 C 0.44325 0.60042 0.25306 0.0
C2060 C 0.4182 0.63403 0.23504 0.0
C2061 C 0.45329 0.61816 0.2427 0.0
C2062 C 0.37238 0.54836 0.21375 0.0
C2063 C 0.38464 0.54265 0.19479 0.0
C2064 C 0.35036 0.54214 0.21622 0.0
C2065 C 0.37463 0.53091 0.17858 0.0
C2066 C 0.34097 0.53034 0.19966 0.0
N2067 N 0.35319 0.52504 0.18133 0.0
C2068 C 0.45258 0.56063 0.21411 0.0
C2069 C 0.42535 0.58447 0.19932 0.0
C2070 C 0.46622 0.56337 0.19561 0.0
N2071 N 0.43234 0.57053 0.21527 0.0
C2072 C 0.4384 0.58748 0.18029 0.0
C2073 C 0.45864 0.57602 0.17799 0.0
H2074 H 0.45762 0.54962 0.22696 0.0
H2075 H 0.40907 0.59205 0.20077 0.0
C2076 C 0.36039 0.6055 0.28205 0.0
N2077 N 0.35747 0.59194 0.26512 0.0
C2078 C 0.34448 0.62141 0.28717 0.0
C2079 C 0.32256 0.60859 0.25773 0.0
C2080 C 0.33903 0.59303 0.25307 0.0
C2081 C 0.32542 0.62332 0.2747 0.0
H2082 H 0.37533 0.60415 0.29127 0.0
H2083 H 0.33724 0.58203 0.23969 0.0
O2084 O 0.42042 0.53325 0.25099 0.0
O2085 O 0.37918 0.54529 0.27995 0.0
O2086 O 0.41003 0.58215 0.26407 0.0
O2087 O 0.38197 0.55966 0.22995 0.0
H2088 H 0.40996 0.49362 0.26501 0.0
H2089 H 0.46124 0.54095 0.26309 0.0
H2090 H 0.43467 0.46857 0.28534 0.0
H2091 H 0.48507 0.51496 0.28336 0.0
H2092 H 0.30799 0.5596 0.3026 0.0
H2093 H 0.38721 0.56235 0.31858 0.0
H2094 H 0.33572 0.54589 0.27512 0.0
H2095 H 0.35856 0.57576 0.34521 0.0
H2096 H 0.42936 0.51509 0.34538 0.0
H2097 H 0.46647 0.57247 0.32818 0.0
H2098 H 0.38086 0.46627 0.20964 0.0
H2099 H 0.33348 0.47792 0.26314 0.0
H2100 H 0.3897 0.61611 0.24569 0.0
H2101 H 0.45336 0.58723 0.25947 0.0
H2102 H 0.40862 0.6472 0.22786 0.0
H2103 H 0.47112 0.6189 0.24145 0.0
H2104 H 0.40178 0.54694 0.19269 0.0
H2105 H 0.34077 0.54583 0.23101 0.0
H2106 H 0.38395 0.52635 0.16386 0.0
H2107 H 0.32402 0.52528 0.20146 0.0
H2108 H 0.48184 0.55443 0.19442 0.0
H2109 H 0.43197 0.59721 0.1669 0.0
H2110 H 0.34762 0.63273 0.30006 0.0
H2111 H 0.30806 0.6095 0.2478 0.0
Co2112 Co 0.0198 0.03605 0.01124 0.0
C2113 C 0.01843 0.06123 0.04965 0.0
Co2114 Co 0.02763 0.01718 0.04047 0.0
C2115 C 0.99838 0.05083 0.97222 0.0
C2116 C 0.02278 0.07264 0.98275 0.0
N2117 N 0.01372 0.05323 0.98738 0.0
N2118 N 0.99751 0.06804 0.95836 0.0
C2119 C 0.0129 0.08174 0.96483 0.0
H2120 H 0.98802 0.03681 0.97144 0.0
H2121 H 0.03532 0.08003 0.9922 0.0
C2122 C 0.029 0.99207 0.00186 0.0
N2123 N 0.03408 0.00067 0.06466 0.0
C2124 C 0.04894 0.00542 0.0796 0.0
C2125 C 0.02701 0.9807 0.07029 0.0
N2126 N 0.05183 0.98911 0.0942 0.0
C2127 C 0.03792 0.97354 0.08857 0.0
C2128 C 0.98265 0.01587 0.03067 0.0
O2129 O 0.02495 0.01053 0.99283 0.0
O2130 O 0.03143 0.99149 0.02251 0.0
O2131 O 0.99698 0.01048 0.04465 0.0
O2132 O 0.98872 0.02796 0.01453 0.0
O2133 O 0.0239 0.04309 0.05853 0.0
H2134 H 0.01527 0.97169 0.06128 0.0
H2135 H 0.0577 0.02053 0.07952 0.0
O2136 O 0.01454 0.0614 0.02933 0.0
O2137 O 0.05083 0.04395 0.00807 0.0
O2138 O 0.0585 0.02375 0.03649 0.0
C2139 C 0.06497 0.03699 0.02162 0.0
H2140 H 0.01638 0.09744 0.95747 0.0
H2141 H 0.0363 0.95784 0.09657 0.0
Co2142 Co 0.28614 0.78269 0.28532 0.0
C2143 C 0.28187 0.74312 0.26657 0.0
Co2144 Co 0.27332 0.78521 0.25208 0.0
C2145 C 0.28741 0.79508 0.32957 0.0
C2146 C 0.30954 0.76802 0.32387 0.0
N2147 N 0.29493 0.78144 0.31388 0.0
N2148 N 0.29686 0.79106 0.34885 0.0
C2149 C 0.31069 0.77389 0.34556 0.0
H2150 H 0.2751 0.80782 0.32694 0.0
H2151 H 0.3189 0.75504 0.31586 0.0
C2152 C 0.27733 0.82484 0.27077 0.0
N2153 N 0.26455 0.78669 0.22367 0.0
C2154 C 0.27431 0.77553 0.20712 0.0
C2155 C 0.24843 0.79883 0.21442 0.0
N2156 N 0.26515 0.78019 0.18779 0.0
C2157 C 0.2487 0.79478 0.19224 0.0
C2158 C 0.24034 0.78094 0.2826 0.0
O2159 O 0.28418 0.81335 0.28665 0.0
O2160 O 0.27148 0.81562 0.25355 0.0
O2161 O 0.24384 0.78339 0.26214 0.0
O2162 O 0.25649 0.78067 0.29536 0.0
O2163 O 0.27516 0.75459 0.25058 0.0
H2164 H 0.23736 0.80996 0.22319 0.0
H2165 H 0.28777 0.7639 0.20936 0.0
O2166 O 0.28791 0.75231 0.28377 0.0
O2167 O 0.3158 0.78451 0.27519 0.0
O2168 O 0.30285 0.78694 0.24211 0.0
C2169 C 0.31916 0.78633 0.25463 0.0
H2170 H 0.32126 0.76657 0.35774 0.0
H2171 H 0.23782 0.80211 0.18036 0.0
Co2172 Co 0.51001 0.02649 0.51184 0.0
C2173 C 0.52904 0.06685 0.50277 0.0
Co2174 Co 0.54206 0.02885 0.52693 0.0
C2175 C 0.46509 0.01501 0.50806 0.0
C2176 C 0.4777 0.03072 0.47892 0.0
N2177 N 0.48327 0.02413 0.49921 0.0
N2178 N 0.4483 0.01555 0.49411 0.0
C2179 C 0.45615 0.02543 0.47571 0.0
H2180 H 0.46443 0.00759 0.52425 0.0
H2181 H 0.48869 0.03865 0.46717 0.0
C2182 C 0.52275 0.98859 0.53618 0.0
N2183 N 0.56915 0.03135 0.53896 0.0
C2184 C 0.5863 0.04141 0.52914 0.0
C2185 C 0.57665 0.02393 0.55826 0.0
N2186 N 0.60441 0.0408 0.54143 0.0
C2187 C 0.59837 0.02973 0.55985 0.0
C2188 C 0.50752 0.04367 0.5531 0.0
O2189 O 0.50759 0.9972 0.5246 0.0
O2190 O 0.53972 0.99975 0.53947 0.0
O2191 O 0.52832 0.04056 0.55224 0.0
O2192 O 0.49615 0.0384 0.53701 0.0
O2193 O 0.54422 0.05829 0.51431 0.0
H2194 H 0.56695 0.01499 0.57038 0.0
H2195 H 0.58516 0.04934 0.51332 0.0
O2196 O 0.5123 0.0555 0.49928 0.0
O2197 O 0.52371 0.01457 0.48677 0.0
O2198 O 0.55594 0.01694 0.50157 0.0
C2199 C 0.54445 0.01138 0.48571 0.0
H2200 H 0.447 0.02859 0.46102 0.0
H2201 H 0.60873 0.02609 0.57359 0.0
Co2202 Co 0.28811 0.28768 0.77606 0.0
C2203 C 0.26929 0.2982 0.73525 0.0
Co2204 Co 0.25665 0.2721 0.77162 0.0
C2205 C 0.33268 0.29228 0.78789 0.0
C2206 C 0.3193 0.32179 0.77425 0.0
N2207 N 0.31428 0.3011 0.77945 0.0
N2208 N 0.34907 0.30662 0.78825 0.0
C2209 C 0.34076 0.32528 0.77974 0.0
H2210 H 0.3338 0.27577 0.79414 0.0
H2211 H 0.30803 0.33359 0.7671 0.0
C2212 C 0.27495 0.26101 0.81211 0.0
N2213 N 0.23035 0.25891 0.76815 0.0
C2214 C 0.21134 0.26899 0.76273 0.0
C2215 C 0.22582 0.23757 0.76918 0.0
N2216 N 0.19516 0.25485 0.76016 0.0
C2217 C 0.2041 0.23499 0.76394 0.0
C2218 C 0.29254 0.24805 0.7563 0.0
O2219 O 0.28994 0.27405 0.80552 0.0
O2220 O 0.25911 0.25772 0.79951 0.0
O2221 O 0.27162 0.2486 0.75802 0.0
O2222 O 0.30327 0.26367 0.76354 0.0
O2223 O 0.25403 0.28632 0.74328 0.0
H2224 H 0.23769 0.22472 0.77283 0.0
H2225 H 0.20969 0.28629 0.75956 0.0
O2226 O 0.28607 0.3011 0.74685 0.0
O2227 O 0.27334 0.31152 0.78855 0.0
O2228 O 0.24164 0.29584 0.78543 0.0
C2229 C 0.25259 0.31178 0.79164 0.0
H2230 H 0.34953 0.3403 0.77764 0.0
H2231 H 0.1957 0.2198 0.76241 0.0
Co2232 Co 0.00924 0.01394 0.51868 0.0
C2233 C 0.99865 0.0361 0.55632 0.0
Co2234 Co 0.02506 0.04547 0.52019 0.0
C2235 C 0.0089 0.96867 0.51397 0.0
C2236 C 0.97626 0.98074 0.52197 0.0
N2237 N 0.99726 0.987 0.51832 0.0
N2238 N 0.99616 0.95108 0.51445 0.0
C2239 C 0.97552 0.95855 0.51955 0.0
H2240 H 0.02653 0.9684 0.51049 0.0
H2241 H 0.96242 0.99161 0.52584 0.0
C2242 C 0.03567 0.02334 0.4825 0.0
N2243 N 0.03712 0.07237 0.52042 0.0
C2244 C 0.02601 0.09082 0.52554 0.0
C2245 C 0.058 0.07836 0.51547 0.0
N2246 N 0.039 0.10819 0.52406 0.0
C2247 C 0.05925 0.1005 0.51789 0.0
C2248 C 0.05054 0.01326 0.53759 0.0
O2249 O 0.02339 0.00889 0.49104 0.0
O2250 O 0.03838 0.04079 0.49266 0.0
O2251 O 0.0501 0.03346 0.5334 0.0
O2252 O 0.03414 0.00202 0.53289 0.0
O2253 O 0.01167 0.05014 0.5482 0.0
H2254 H 0.07141 0.06734 0.51063 0.0
H2255 H 0.0088 0.09138 0.53098 0.0
O2256 O 0.99515 0.01898 0.54586 0.0
O2257 O 0.98463 0.0258 0.50461 0.0
O2258 O 0.9999 0.05752 0.50666 0.0
C2259 C 0.98403 0.04608 0.50087 0.0
H2260 H 0.96085 0.94885 0.5208 0.0
H2261 H 0.07389 0.11012 0.51554 0.0
Co2262 Co 0.27501 0.79697 0.77746 0.0
C2263 C 0.23338 0.78036 0.79133 0.0
Co2264 Co 0.26881 0.7644 0.76569 0.0
C2265 C 0.28445 0.84206 0.77791 0.0
C2266 C 0.27604 0.82978 0.80998 0.0
N2267 N 0.27886 0.82385 0.7889 0.0
N2268 N 0.28537 0.85927 0.79126 0.0
C2269 C 0.28012 0.85152 0.81152 0.0
H2270 H 0.28752 0.84252 0.76037 0.0
H2271 H 0.27131 0.81897 0.82337 0.0
C2272 C 0.31049 0.78103 0.75193 0.0
N2273 N 0.26481 0.73769 0.75391 0.0
C2274 C 0.25484 0.72035 0.76303 0.0
C2275 C 0.26994 0.73202 0.73304 0.0
N2276 N 0.25329 0.7042 0.74856 0.0
C2277 C 0.26278 0.71141 0.72967 0.0
C2278 C 0.25451 0.79752 0.73824 0.0
O2279 O 0.30401 0.79769 0.76273 0.0
O2280 O 0.29755 0.76511 0.75124 0.0
O2281 O 0.25596 0.77713 0.74085 0.0
O2282 O 0.26199 0.8097 0.75266 0.0
O2283 O 0.2398 0.7638 0.78036 0.0
H2284 H 0.27779 0.74247 0.72086 0.0
H2285 H 0.24799 0.71994 0.77964 0.0
O2286 O 0.24634 0.79627 0.79212 0.0
O2287 O 0.28797 0.78432 0.80202 0.0
O2288 O 0.28179 0.75152 0.79065 0.0
C2289 C 0.28953 0.76394 0.80479 0.0
H2290 H 0.27962 0.86067 0.82651 0.0
H2291 H 0.26413 0.70254 0.71449 0.0
Co2292 Co 0.51797 0.02127 0.00792 0.0
C2293 C 0.56055 0.00938 0.0217 0.0
Co2294 Co 0.52562 0.03503 0.03942 0.0
C2295 C 0.50388 0.02215 0.96442 0.0
C2296 C 0.51594 0.99035 0.97327 0.0
N2297 N 0.51244 0.01056 0.98104 0.0
N2298 N 0.50186 0.01007 0.9465 0.0
C2299 C 0.5093 0.98997 0.95192 0.0
H2300 H 0.49881 0.03908 0.96561 0.0
H2301 H 0.52283 0.97685 0.98253 0.0
C2302 C 0.48316 0.04703 0.02542 0.0
N2303 N 0.53098 0.04591 0.06629 0.0
C2304 C 0.54 0.03465 0.08285 0.0
C2305 C 0.52611 0.06579 0.07432 0.0
N2306 N 0.54093 0.04656 0.10107 0.0
C2307 C 0.5323 0.06627 0.09581 0.0
C2308 C 0.53736 0.06158 0.00533 0.0
O2309 O 0.48877 0.03503 0.00929 0.0
O2310 O 0.49693 0.04927 0.04047 0.0
O2311 O 0.53759 0.05983 0.02602 0.0
O2312 O 0.52961 0.04637 0.99438 0.0
O2313 O 0.5547 0.02078 0.03824 0.0
H2314 H 0.51839 0.07896 0.06522 0.0
H2315 H 0.54598 0.01802 0.0814 0.0
O2316 O 0.54685 0.00755 0.0065 0.0
O2317 O 0.5063 0.99635 0.0213 0.0
O2318 O 0.51333 0.01013 0.05308 0.0
C2319 C 0.50565 0.99494 0.04202 0.0
H2320 H 0.50997 0.97608 0.94123 0.0
H2321 H 0.53035 0.07993 0.10671 0.0
Co2322 Co 0.26932 0.26707 0.27865 0.0
C2323 C 0.31419 0.27777 0.28261 0.0
Co2324 Co 0.27761 0.2979 0.26311 0.0
C2325 C 0.25225 0.2248 0.28405 0.0
C2326 C 0.26884 0.23457 0.31259 0.0
N2327 N 0.26319 0.24132 0.2924 0.0
N2328 N 0.2508 0.20787 0.29818 0.0
C2329 C 0.2612 0.21396 0.31623 0.0
H2330 H 0.24584 0.22512 0.26771 0.0
H2331 H 0.27798 0.244 0.32388 0.0
C2332 C 0.23271 0.28697 0.25927 0.0
N2333 N 0.28357 0.32351 0.24901 0.0
C2334 C 0.29611 0.33955 0.25594 0.0
C2335 C 0.27611 0.33042 0.22948 0.0
N2336 N 0.29678 0.35632 0.24155 0.0
C2337 C 0.28422 0.35066 0.22483 0.0
C2338 C 0.28069 0.26298 0.23368 0.0
O2339 O 0.23847 0.27058 0.27086 0.0
O2340 O 0.24713 0.3012 0.25484 0.0
O2341 O 0.28387 0.28311 0.23603 0.0
O2342 O 0.27504 0.25194 0.2507 0.0
O2343 O 0.30839 0.2946 0.27162 0.0
H2344 H 0.26534 0.32139 0.21936 0.0
H2345 H 0.3047 0.33879 0.27121 0.0
O2346 O 0.29984 0.26331 0.28638 0.0
O2347 O 0.26369 0.28231 0.30648 0.0
O2348 O 0.27128 0.31308 0.2901 0.0
C2349 C 0.26621 0.30275 0.3077 0.0
H2350 H 0.26301 0.20436 0.33107 0.0
H2351 H 0.28075 0.36055 0.2105 0.0
Co2352 Co 0.5143 0.51406 0.0247 0.0
C2353 C 0.50692 0.53883 0.06184 0.0
Co2354 Co 0.5251 0.54777 0.02113 0.0
C2355 C 0.51324 0.46787 0.02013 0.0
C2356 C 0.4855 0.48043 0.03904 0.0
N2357 N 0.50454 0.48629 0.0287 0.0
N2358 N 0.50018 0.45084 0.02437 0.0
C2359 C 0.4827 0.4586 0.03626 0.0
H2360 H 0.52808 0.46723 0.00973 0.0
H2361 H 0.47387 0.49153 0.04713 0.0
C2362 C 0.53292 0.5231 0.98414 0.0
N2363 N 0.5344 0.5758 0.01734 0.0
C2364 C 0.52491 0.59356 0.02652 0.0
C2365 C 0.55219 0.58308 0.00585 0.0
N2366 N 0.53609 0.61174 0.02152 0.0
C2367 C 0.55326 0.60518 0.00837 0.0
C2368 C 0.55721 0.51963 0.03629 0.0
O2369 O 0.52351 0.50804 0.99507 0.0
O2370 O 0.53508 0.54146 0.99278 0.0
O2371 O 0.55301 0.53942 0.03164 0.0
O2372 O 0.5424 0.50561 0.03422 0.0
O2373 O 0.51497 0.55397 0.05006 0.0
H2374 H 0.5639 0.57292 0.99669 0.0
H2375 H 0.51052 0.59289 0.03744 0.0
O2376 O 0.5054 0.52009 0.05383 0.0
O2377 O 0.48627 0.52255 0.01527 0.0
O2378 O 0.49725 0.55601 0.01031 0.0
C2379 C 0.48238 0.54195 0.0092 0.0
H2380 H 0.46851 0.44934 0.04168 0.0
H2381 H 0.566 0.61544 0.00138 0.0
Co2382 Co 0.77464 0.28943 0.28305 0.0
C2383 C 0.73494 0.269 0.29419 0.0
Co2384 Co 0.77424 0.25608 0.2713 0.0
C2385 C 0.78334 0.33479 0.28198 0.0
C2386 C 0.76553 0.32534 0.31131 0.0
N2387 N 0.77456 0.31753 0.29245 0.0
N2388 N 0.78024 0.35316 0.29355 0.0
C2389 C 0.76896 0.34726 0.31203 0.0
H2390 H 0.7923 0.33373 0.26638 0.0
H2391 H 0.75709 0.31569 0.32378 0.0
C2392 C 0.8138 0.27672 0.25996 0.0
N2393 N 0.77409 0.2279 0.26235 0.0
C2394 C 0.76702 0.21109 0.27473 0.0
C2395 C 0.78038 0.21931 0.24288 0.0
N2396 N 0.76836 0.19227 0.26381 0.0
C2397 C 0.77684 0.19731 0.24372 0.0
C2398 C 0.75807 0.28534 0.2416 0.0
O2399 O 0.80418 0.29232 0.27026 0.0
O2400 O 0.80357 0.25903 0.25839 0.0
O2401 O 0.76196 0.26528 0.24489 0.0
O2402 O 0.7625 0.29882 0.25629 0.0
O2403 O 0.74459 0.25314 0.28434 0.0
H2404 H 0.78676 0.22851 0.22893 0.0
H2405 H 0.76093 0.21276 0.2915 0.0
O2406 O 0.74531 0.28657 0.29552 0.0
O2407 O 0.78683 0.28 0.30985 0.0
O2408 O 0.78666 0.24681 0.29761 0.0
C2409 C 0.79107 0.2599 0.31257 0.0
H2410 H 0.76357 0.35795 0.32517 0.0
H2411 H 0.77956 0.18609 0.23036 0.0
Co2412 Co 0.02138 0.52455 0.51207 0.0
C2413 C 0.06312 0.51523 0.52974 0.0
Co2414 Co 0.02474 0.53748 0.54497 0.0
C2415 C 0.00949 0.52262 0.46723 0.0
C2416 C 0.02683 0.49379 0.47767 0.0
N2417 N 0.01906 0.51327 0.48468 0.0
N2418 N 0.01095 0.50976 0.44953 0.0
C2419 C 0.02187 0.49158 0.45604 0.0
H2420 H 1.00128 0.53842 0.46772 0.0
H2421 H 0.03552 0.48196 0.48768 0.0
C2422 C 0.983 0.54665 0.52805 0.0
N2423 N 0.02717 0.54838 0.57254 0.0
C2424 C 0.03782 0.53854 0.58905 0.0
C2425 C 0.01875 0.56704 0.58096 0.0
N2426 N 0.03647 0.5502 0.60758 0.0
C2427 C 0.02444 0.56821 0.60255 0.0
C2428 C 0.03742 0.56575 0.51197 0.0
O2429 O 0.99107 0.53679 0.51124 0.0
O2430 O 0.99515 0.54854 0.54444 0.0
O2431 O 0.03505 0.56373 0.53263 0.0
O2432 O 0.03244 0.55024 0.49978 0.0
O2433 O 0.05469 0.52613 0.5456 0.0
H2434 H 0.00908 0.57897 0.57199 0.0
H2435 H 0.04671 0.52321 0.58722 0.0
O2436 O 0.05139 0.51249 0.51312 0.0
O2437 O 0.01043 0.49884 0.52424 0.0
O2438 O 0.0143 0.51125 0.55729 0.0
C2439 C 0.0087 0.49619 0.54482 0.0
H2440 H 0.02612 0.47773 0.44592 0.0
H2441 H 0.01997 0.58129 0.6136 0.0
Co2442 Co 0.78806 0.78459 0.27793 0.0
C2443 C 0.77443 0.79736 0.2357 0.0
Co2444 Co 0.75586 0.77209 0.27021 0.0
C2445 C 0.83181 0.78368 0.29257 0.0
C2446 C 0.82227 0.81564 0.2817 0.0
N2447 N 0.81497 0.79524 0.28409 0.0
N2448 N 0.84945 0.79599 0.29577 0.0
C2449 C 0.84354 0.81617 0.28892 0.0
H2450 H 0.83104 0.76647 0.29618 0.0
H2451 H 0.81268 0.82924 0.27536 0.0
C2452 C 0.76956 0.75937 0.31249 0.0
N2453 N 0.72904 0.76112 0.2641 0.0
C2454 C 0.71278 0.77122 0.25315 0.0
C2455 C 0.72181 0.74093 0.26842 0.0
N2456 N 0.69569 0.75809 0.25018 0.0
C2457 C 0.70125 0.73901 0.25986 0.0
C2458 C 0.79063 0.745 0.25788 0.0
O2459 O 0.78646 0.77028 0.30676 0.0
O2460 O 0.75418 0.7581 0.29886 0.0
O2461 O 0.76975 0.74703 0.25836 0.0
O2462 O 0.802 0.7598 0.26574 0.0
O2463 O 0.75764 0.78621 0.24127 0.0
H2464 H 0.73116 0.72828 0.27672 0.0
H2465 H 0.71362 0.78786 0.24731 0.0
O2466 O 0.78968 0.79884 0.24946 0.0
O2467 O 0.7743 0.80931 0.28992 0.0
O2468 O 0.74179 0.79726 0.28212 0.0
C2469 C 0.75348 0.81183 0.29012 0.0
H2470 H 0.85358 0.83042 0.28952 0.0
H2471 H 0.69156 0.72448 0.26005 0.0
Co2472 Co 0.77845 0.2762 0.79021 0.0
C2473 C 0.78569 0.24 0.76514 0.0
Co2474 Co 0.76684 0.28002 0.75661 0.0
C2475 C 0.77594 0.27996 0.83653 0.0
C2476 C 0.80627 0.26416 0.82606 0.0
N2477 N 0.78724 0.27282 0.81859 0.0
N2478 N 0.78719 0.27638 0.85495 0.0
C2479 C 0.80634 0.26645 0.84849 0.0
H2480 H 0.76017 0.28859 0.83594 0.0
H2481 H 0.81946 0.25721 0.81581 0.0
C2482 C 0.75831 0.31583 0.78178 0.0
N2483 N 0.75787 0.28356 0.72836 0.0
C2484 C 0.76934 0.27729 0.7102 0.0
C2485 C 0.73776 0.28993 0.72143 0.0
N2486 N 0.75712 0.27905 0.69227 0.0
C2487 C 0.73715 0.28682 0.69918 0.0
C2488 C 0.73557 0.26346 0.78492 0.0
O2489 O 0.76873 0.30505 0.79617 0.0
O2490 O 0.75573 0.30773 0.76312 0.0
O2491 O 0.7392 0.26835 0.7649 0.0
O2492 O 0.75057 0.26613 0.79857 0.0
O2493 O 0.77777 0.25191 0.75011 0.0
H2494 H 0.72402 0.29503 0.73208 0.0
H2495 H 0.78567 0.2697 0.7104 0.0
O2496 O 0.78763 0.24745 0.78422 0.0
O2497 O 0.80648 0.28632 0.78173 0.0
O2498 O 0.79448 0.29171 0.74854 0.0
C2499 C 0.80982 0.29287 0.76214 0.0
H2500 H 0.81962 0.26163 0.85911 0.0
H2501 H 0.7228 0.28861 0.68913 0.0
Co2502 Co 0.77197 0.76852 0.78035 0.0
C2503 C 0.81503 0.78487 0.78117 0.0
Co2504 Co 0.77502 0.79958 0.76342 0.0
C2505 C 0.76085 0.72446 0.78945 0.0
C2506 C 0.77907 0.73829 0.81506 0.0
N2507 N 0.77034 0.74283 0.7954 0.0
N2508 N 0.76331 0.7086 0.80463 0.0
C2509 C 0.77469 0.71719 0.82083 0.0
H2510 H 0.75214 0.72285 0.77437 0.0
H2511 H 0.78819 0.74956 0.82449 0.0
C2512 C 0.73201 0.78302 0.76265 0.0
N2513 N 0.77702 0.82562 0.74891 0.0
C2514 C 0.78661 0.84326 0.75653 0.0
C2515 C 0.76939 0.83165 0.72917 0.0
N2516 N 0.78544 0.86018 0.7424 0.0
C2517 C 0.77456 0.85301 0.7251 0.0
C2518 C 0.78138 0.76424 0.73488 0.0
O2519 O 0.74055 0.76815 0.77467 0.0
O2520 O 0.7441 0.79872 0.75644 0.0
O2521 O 0.78218 0.78479 0.73641 0.0
O2522 O 0.77766 0.75323 0.75246 0.0
O2523 O 0.80621 0.80048 0.77037 0.0
H2524 H 0.76069 0.82119 0.71847 0.0
H2525 H 0.79406 0.84368 0.77238 0.0
O2526 O 0.80317 0.76867 0.78609 0.0
O2527 O 0.76621 0.78366 0.80794 0.0
O2528 O 0.76786 0.81469 0.79057 0.0
C2529 C 0.76565 0.80428 0.80864 0.0
H2530 H 0.77979 0.70874 0.83556 0.0
H2531 H 0.77094 0.86236 0.71045 0.0
Co2532 Co 0.5206 0.53356 0.51158 0.0
C2533 C 0.51581 0.56495 0.54576 0.0
Co2534 Co 0.52393 0.52023 0.54456 0.0
C2535 C 0.50721 0.54233 0.46753 0.0
C2536 C 0.52904 0.56605 0.47931 0.0
N2537 N 0.51907 0.54731 0.48491 0.0
N2538 N 0.50923 0.55738 0.45141 0.0
C2539 C 0.52296 0.57232 0.45869 0.0
H2540 H 0.49666 0.52841 0.46704 0.0
H2541 H 0.53965 0.57488 0.48977 0.0
C2542 C 0.52889 0.48905 0.50997 0.0
N2543 N 0.52544 0.50654 0.57134 0.0
C2544 C 0.53774 0.51155 0.5884 0.0
C2545 C 0.51533 0.48802 0.57739 0.0
N2546 N 0.53594 0.49672 0.60483 0.0
C2547 C 0.52175 0.48195 0.59799 0.0
C2548 C 0.48047 0.51843 0.52884 0.0
O2549 O 0.52624 0.50567 0.49758 0.0
O2550 O 0.52917 0.49205 0.5306 0.0
O2551 O 0.49273 0.51509 0.54511 0.0
O2552 O 0.48899 0.52744 0.51173 0.0
O2553 O 0.51884 0.54861 0.5585 0.0
H2554 H 0.50452 0.47914 0.56719 0.0
H2555 H 0.54804 0.52565 0.58853 0.0
O2556 O 0.51489 0.56138 0.52533 0.0
O2557 O 0.55204 0.53955 0.51145 0.0
O2558 O 0.55534 0.52546 0.54421 0.0
C2559 C 0.56407 0.53533 0.52776 0.0
H2560 H 0.52805 0.5868 0.44983 0.0
H2561 H 0.51704 0.46731 0.60679 0.0
Co2562 Co 1.00105 0.52797 0.01866 0.0
C2563 C 0.02106 0.56789 0.00883 0.0
Co2564 Co 0.03514 0.52831 0.02916 0.0
C2565 C 0.95513 0.52041 0.02284 0.0
C2566 C 0.96356 0.53499 0.99174 0.0
N2567 N 0.97227 0.52778 0.01061 0.0
N2568 N 0.93594 0.52254 0.01238 0.0
C2569 C 0.94115 0.53174 0.99277 0.0
H2570 H 0.9568 0.51366 0.03918 0.0
H2571 H 0.97294 0.54193 0.97808 0.0
C2572 C 0.01536 0.48835 0.03896 0.0
N2573 N 0.06386 0.52861 0.03739 0.0
C2574 C 0.08088 0.53729 0.02597 0.0
C2575 C 0.07229 0.52157 0.05645 0.0
N2576 N 0.09966 0.53638 0.03723 0.0
C2577 C 0.09434 0.52637 0.05642 0.0
C2578 C 0.00546 0.5419 0.06102 0.0
O2579 O 0.99902 0.4979 0.02983 0.0
O2580 O 0.03309 0.49883 0.04034 0.0
O2581 O 0.02595 0.53888 0.05696 0.0
O2582 O 0.99189 0.5383 0.04623 0.0
O2583 O 0.0373 0.55811 0.01783 0.0
H2584 H 0.06283 0.51411 0.06976 0.0
H2585 H 0.07928 0.5445 0.00982 0.0
O2586 O 0.00312 0.55768 0.00761 0.0
O2587 O 0.01 0.51766 0.9911 0.0
O2588 O 0.04433 0.51762 0.00133 0.0
C2589 C 0.03035 0.51415 0.9868 0.0
H2590 H 0.92975 0.53527 0.97982 0.0
H2591 H 0.10527 0.52363 0.06991 0.0
H2592 H 0.03564 0.14291 0.10945 0.0
H2593 H 0.00201 0.1762 0.05685 0.0
H2594 H 0.99779 0.14189 0.03858 0.0
H2595 H 0.00371 0.10205 0.03677 0.0
H2596 H 0.03497 0.06829 0.09029 0.0
H2597 H 0.03929 0.10279 0.10889 0.0
C2598 C 0.02709 0.14287 0.09416 0.0
C2599 C 0.01958 0.16284 0.08469 0.0
C2600 C 0.02405 0.12268 0.08375 0.0
C2601 C 0.00876 0.1617 0.06458 0.0
C2602 C 0.00603 0.14184 0.05408 0.0
C2603 C 0.01128 0.10213 0.05263 0.0
C2604 C 0.01892 0.08228 0.06201 0.0
C2605 C 0.01367 0.12219 0.0634 0.0
C2606 C 0.02872 0.08305 0.0826 0.0
C2607 C 0.03133 0.10291 0.09324 0.0
H2608 H 0.14021 0.7669 0.3076 0.0
H2609 H 0.16919 0.74221 0.36696 0.0
H2610 H 0.20612 0.74823 0.35123 0.0
H2611 H 0.22984 0.76295 0.32187 0.0
H2612 H 0.20112 0.78855 0.26276 0.0
H2613 H 0.16415 0.78029 0.27748 0.0
C2614 C 0.15464 0.76279 0.31705 0.0
C2615 C 0.15203 0.75429 0.33842 0.0
C2616 C 0.17572 0.76686 0.30817 0.0
C2617 C 0.1708 0.74858 0.35037 0.0
C2618 C 0.19189 0.75227 0.34151 0.0
C2619 C 0.21548 0.76685 0.31225 0.0
C2620 C 0.21806 0.77661 0.29144 0.0
C2621 C 0.19447 0.76187 0.32066 0.0
C2622 C 0.19942 0.78117 0.27893 0.0
C2623 C 0.17836 0.77639 0.28728 0.0
H2624 H 0.50053 0.89147 0.56696 0.0
H2625 H 0.56363 0.89686 0.59716 0.0
H2626 H 0.56691 0.93368 0.58269 0.0
H2627 H 0.55215 0.96504 0.56147 0.0
H2628 H 0.48877 0.96029 0.53187 0.0
H2629 H 0.48538 0.92321 0.54623 0.0
C2630 C 0.51497 0.90066 0.57057 0.0
C2631 C 0.53191 0.89076 0.58311 0.0
C2632 C 0.51676 0.92229 0.56227 0.0
C2633 C 0.55047 0.90336 0.58723 0.0
C2634 C 0.55233 0.9247 0.57907 0.0
C2635 C 0.53754 0.95596 0.55813 0.0
C2636 C 0.52076 0.96578 0.54544 0.0
C2637 C 0.53564 0.9344 0.56651 0.0
C2638 C 0.50202 0.95345 0.54148 0.0
C2639 C 0.50005 0.93209 0.54973 0.0
H2640 H 0.43728 0.30372 0.83797 0.0
H2641 H 0.43589 0.23634 0.81966 0.0
H2642 H 0.40169 0.24348 0.80022 0.0
H2643 H 0.37207 0.26885 0.78917 0.0
H2644 H 0.37387 0.3361 0.80772 0.0
H2645 H 0.40882 0.3292 0.82564 0.0
C2646 C 0.42978 0.29065 0.82937 0.0
C2647 C 0.43912 0.26956 0.83013 0.0
C2648 C 0.41038 0.29489 0.81819 0.0
C2649 C 0.42886 0.25268 0.81942 0.0
C2650 C 0.40942 0.25677 0.80824 0.0
C2651 C 0.38011 0.28195 0.7972 0.0
C2652 C 0.3704 0.30291 0.79729 0.0
C2653 C 0.39998 0.27779 0.80768 0.0
C2654 C 0.38116 0.31988 0.8073 0.0
C2655 C 0.40101 0.31591 0.81768 0.0
H2656 H 0.01101 0.85315 0.49119 0.0
H2657 H 0.06677 0.87998 0.45516 0.0
H2658 H 0.05818 0.91561 0.47058 0.0
H2659 H 0.03234 0.93953 0.49011 0.0
H2660 H 0.9759 0.91351 0.52579 0.0
H2661 H 0.98682 0.87699 0.51385 0.0
C2662 C 0.02136 0.8668 0.48689 0.0
C2663 C 0.03932 0.86409 0.4719 0.0
C2664 C 0.01592 0.88732 0.49526 0.0
C2665 C 0.05293 0.88168 0.46677 0.0
C2666 C 0.04788 0.90208 0.47537 0.0
C2667 C 0.02262 0.92595 0.49584 0.0
C2668 C 0.00322 0.92936 0.50879 0.0
C2669 C 0.02904 0.90516 0.48905 0.0
C2670 C 0.99068 0.91142 0.51551 0.0
C2671 C 0.99701 0.89053 0.50883 0.0
H2672 H 0.39954 0.75879 0.69781 0.0
H2673 H 0.42014 0.81747 0.72819 0.0
H2674 H 0.38368 0.82192 0.74604 0.0
H2675 H 0.34561 0.80891 0.75375 0.0
H2676 H 0.3259 0.74953 0.72408 0.0
H2677 H 0.36208 0.74564 0.70574 0.0
C2678 C 0.39627 0.77245 0.70852 0.0
C2679 C 0.41293 0.78775 0.71142 0.0
C2680 C 0.37517 0.77486 0.71903 0.0
C2681 C 0.40782 0.80552 0.72517 0.0
C2682 C 0.38688 0.80805 0.73559 0.0
C2683 C 0.34919 0.79516 0.74322 0.0
C2684 C 0.33279 0.77957 0.74043 0.0
C2685 C 0.37035 0.79283 0.73267 0.0
C2686 C 0.33799 0.76183 0.7267 0.0
C2687 C 0.35879 0.75954 0.71613 0.0
H2688 H 0.54011 0.14533 0.94678 0.0
H2689 H 0.54798 0.1748 0.0095 0.0
H2690 H 0.55085 0.13873 0.02704 0.0
H2691 H 0.54751 0.09923 0.02459 0.0
H2692 H 0.53912 0.07015 0.96148 0.0
H2693 H 0.54067 0.10579 0.94377 0.0
C2694 C 0.54255 0.1437 0.96428 0.0
C2695 C 0.54341 0.16228 0.97709 0.0
C2696 C 0.54423 0.12315 0.97402 0.0
C2697 C 0.54705 0.16043 0.99958 0.0
C2698 C 0.54871 0.13992 0.0095 0.0
C2699 C 0.54646 0.10065 0.00692 0.0
C2700 C 0.5429 0.08219 0.99438 0.0
C2701 C 0.54686 0.1212 0.99691 0.0
C2702 C 0.54168 0.08419 0.97149 0.0
C2703 C 0.54244 0.10455 0.96137 0.0
H2704 H 0.14727 0.30567 0.20323 0.0
H2705 H 0.12851 0.24407 0.23198 0.0
H2706 H 0.16266 0.24224 0.25198 0.0
H2707 H 0.19861 0.25773 0.26129 0.0
H2708 H 0.21647 0.31994 0.2335 0.0
H2709 H 0.182 0.32199 0.21394 0.0
C2710 C 0.15033 0.29192 0.21407 0.0
C2711 C 0.13494 0.27495 0.21562 0.0
C2712 C 0.17005 0.29107 0.22601 0.0
C2713 C 0.13991 0.25724 0.22973 0.0
C2714 C 0.15951 0.25623 0.24147 0.0
C2715 C 0.19488 0.27187 0.25117 0.0
C2716 C 0.21037 0.28869 0.2491 0.0
C2717 C 0.17482 0.27299 0.23971 0.0
C2718 C 0.20506 0.30674 0.23565 0.0
C2719 C 0.18527 0.30791 0.2243 0.0
H2720 H 0.12394 0.00188 0.16336 0.0
H2721 H 0.08224 0.95797 0.20043 0.0
H2722 H 0.05854 0.95455 0.16901 0.0
H2723 H 0.04826 0.96645 0.13208 0.0
H2724 H 0.09046 0.01015 0.09514 0.0
H2725 H 0.11525 0.01154 0.1256 0.0
C2726 C 0.10973 0.99147 0.16444 0.0
C2727 C 0.10467 0.98029 0.18404 0.0
C2728 C 0.09616 0.98979 0.14651 0.0
C2729 C 0.08645 0.96661 0.18533 0.0
C2730 C 0.07285 0.96478 0.16748 0.0
C2731 C 0.06304 0.97599 0.13059 0.0
C2732 C 0.06726 0.98847 0.11156 0.0
C2733 C 0.07734 0.97661 0.14812 0.0
C2734 C 0.08647 0.00086 0.10986 0.0
C2735 C 0.10077 0.00155 0.12719 0.0
H2736 H 0.27513 0.85896 0.42158 0.0
H2737 H 0.27617 0.80135 0.46256 0.0
H2738 H 0.28585 0.7791 0.4305 0.0
H2739 H 0.29366 0.77626 0.39048 0.0
H2740 H 0.29215 0.83437 0.35031 0.0
H2741 H 0.28344 0.85635 0.38247 0.0
C2742 C 0.27771 0.84156 0.42355 0.0
C2743 C 0.27509 0.83179 0.44434 0.0
C2744 C 0.28329 0.82902 0.40521 0.0
C2745 C 0.27797 0.80918 0.44661 0.0
C2746 C 0.28363 0.7965 0.42835 0.0
C2747 C 0.29166 0.79375 0.38897 0.0
C2748 C 0.29343 0.80375 0.3682 0.0
C2749 C 0.28634 0.80627 0.40755 0.0
C2750 C 0.29059 0.82638 0.36619 0.0
C2751 C 0.28566 0.83893 0.38453 0.0
H2752 H 0.44423 0.06464 0.633 0.0
H2753 H 0.50481 0.05482 0.66736 0.0
H2754 H 0.52582 0.05327 0.63236 0.0
H2755 H 0.5258 0.04922 0.59245 0.0
H2756 H 0.4644 0.05643 0.55861 0.0
H2757 H 0.44473 0.0646 0.59308 0.0
C2758 C 0.46208 0.06242 0.63274 0.0
C2759 C 0.47305 0.05939 0.65243 0.0
C2760 C 0.47376 0.06085 0.61276 0.0
C2761 C 0.49615 0.05706 0.65221 0.0
C2762 C 0.50807 0.05603 0.63227 0.0
C2763 C 0.50818 0.05293 0.59258 0.0
C2764 C 0.49645 0.05183 0.57317 0.0
C2765 C 0.4969 0.05705 0.61249 0.0
C2766 C 0.47369 0.05685 0.57346 0.0
C2767 C 0.46244 0.06152 0.59312 0.0
H2768 H 0.26582 0.19793 0.89541 0.0
H2769 H 0.29191 0.25298 0.92778 0.0
H2770 H 0.29506 0.27261 0.89266 0.0
H2771 H 0.28981 0.27457 0.8522 0.0
H2772 H 0.26105 0.22023 0.82086 0.0
H2773 H 0.25981 0.20012 0.8556 0.0
C2774 C 0.27232 0.21418 0.89479 0.0
C2775 C 0.27867 0.22382 0.91443 0.0
C2776 C 0.27369 0.22563 0.87447 0.0
C2777 C 0.28673 0.24509 0.91313 0.0
C2778 C 0.28864 0.25635 0.89293 0.0
C2779 C 0.28347 0.25826 0.85297 0.0
C2780 C 0.2757 0.24895 0.8337 0.0
C2781 C 0.28212 0.24685 0.87341 0.0
C2782 C 0.26718 0.22789 0.83526 0.0
C2783 C 0.26643 0.21632 0.85521 0.0
H2784 H 0.0855 0.02764 0.39116 0.0
H2785 H 0.05045 0.96868 0.38157 0.0
H2786 H 0.03385 0.97125 0.41883 0.0
H2787 H 0.02939 0.99084 0.45377 0.0
H2788 H 0.06584 0.04941 0.46259 0.0
H2789 H 0.08209 0.0463 0.42583 0.0
C2790 C 0.07397 0.01553 0.39718 0.0
C2791 C 0.06866 0.99831 0.38378 0.0
C2792 C 0.065 0.01696 0.4184 0.0
C2793 C 0.05438 0.98223 0.39175 0.0
C2794 C 0.04503 0.98368 0.41295 0.0
C2795 C 0.04095 0.00284 0.44764 0.0
C2796 C 0.04625 0.02042 0.46075 0.0
C2797 C 0.05024 0.00103 0.4264 0.0
C2798 C 0.06133 0.03583 0.45272 0.0
C2799 C 0.07063 0.03411 0.43171 0.0
H2800 H 0.2331 0.82235 0.64148 0.0
H2801 H 0.24109 0.88663 0.66669 0.0
H2802 H 0.24356 0.87173 0.70386 0.0
H2803 H 0.2484 0.8401 0.72806 0.0
H2804 H 0.24185 0.77563 0.70247 0.0
H2805 H 0.23371 0.79096 0.66653 0.0
C2806 C 0.23513 0.83305 0.6552 0.0
C2807 C 0.23723 0.85542 0.65149 0.0
C2808 C 0.23699 0.82435 0.67634 0.0
C2809 C 0.23941 0.86931 0.66929 0.0
C2810 C 0.24099 0.8608 0.69047 0.0
C2811 C 0.24487 0.82943 0.7147 0.0
C2812 C 0.24612 0.80682 0.71776 0.0
C2813 C 0.24055 0.83829 0.69403 0.0
C2814 C 0.24121 0.79314 0.70043 0.0
C2815 C 0.23661 0.80186 0.67987 0.0
H2816 H 0.46326 0.05589 0.86355 0.0
H2817 H 0.43672 0.99219 0.85601 0.0
H2818 H 0.45448 0.97946 0.88932 0.0
H2819 H 0.47768 0.98645 0.92034 0.0
H2820 H 0.50456 0.04995 0.92793 0.0
H2821 H 0.48648 0.0629 0.89484 0.0
C2822 C 0.46122 0.03932 0.86942 0.0
C2823 C 0.44884 0.02495 0.85752 0.0
C2824 C 0.47161 0.03209 0.88841 0.0
C2825 C 0.4464 0.00343 0.86497 0.0
C2826 C 0.45651 0.99617 0.88394 0.0
C2827 C 0.47978 0.00301 0.91454 0.0
C2828 C 0.49237 0.01722 0.9264 0.0
C2829 C 0.46931 0.0103 0.89566 0.0
C2830 C 0.49471 0.0388 0.91906 0.0
C2831 C 0.48444 0.04619 0.90018 0.0
H2832 H 0.27531 0.24178 0.13192 0.0
H2833 H 0.27849 0.17598 0.15656 0.0
H2834 H 0.28045 0.18916 0.19415 0.0
H2835 H 0.2809 0.21976 0.22055 0.0
H2836 H 0.28055 0.28544 0.19496 0.0
H2837 H 0.27803 0.27208 0.15784 0.0
C2838 C 0.27639 0.23034 0.14553 0.0
C2839 C 0.27656 0.20786 0.14129 0.0
C2840 C 0.27815 0.23807 0.16719 0.0
C2841 C 0.27831 0.19333 0.15922 0.0
C2842 C 0.27943 0.2009 0.1808 0.0
C2843 C 0.28046 0.23114 0.20686 0.0
C2844 C 0.28097 0.2537 0.2109 0.0
C2845 C 0.27936 0.22328 0.18509 0.0
C2846 C 0.28037 0.26804 0.19268 0.0
C2847 C 0.2788 0.2604 0.17127 0.0
H2848 H 0.16251 0.06776 0.03958 0.0
H2849 H 0.14527 0.11558 0.99027 0.0
H2850 H 0.10968 0.0987 0.98619 0.0
H2851 H 0.08249 0.07088 0.99719 0.0
H2852 H 0.09926 0.02357 0.0471 0.0
H2853 H 0.13547 0.03964 0.05027 0.0
C2854 C 0.15097 0.07462 0.02801 0.0
C2855 C 0.157 0.09302 0.01519 0.0
C2856 C 0.1302 0.0648 0.02574 0.0
C2857 C 0.1416 0.1013 0.00015 0.0
C2858 C 0.12103 0.09169 0.99786 0.0
C2859 C 0.09414 0.06388 0.00858 0.0
C2860 C 0.08794 0.04581 0.02175 0.0
C2861 C 0.11507 0.07343 0.01056 0.0
C2862 C 0.10338 0.0373 0.0366 0.0
C2863 C 0.12418 0.04659 0.03851 0.0
H2864 H 0.65819 0.49694 0.04278 0.0
H2865 H 0.6315 0.43628 0.06627 0.0
H2866 H 0.59414 0.45196 0.06587 0.0
H2867 H 0.56906 0.48145 0.05504 0.0
H2868 H 0.59533 0.54204 0.03074 0.0
H2869 H 0.63297 0.52792 0.03546 0.0
C2870 C 0.64416 0.4873 0.04798 0.0
C2871 C 0.64744 0.46552 0.05435 0.0
C2872 C 0.62274 0.49632 0.04745 0.0
C2873 C 0.62929 0.45316 0.06141 0.0
C2874 C 0.60795 0.46204 0.06105 0.0
C2875 C 0.58303 0.49165 0.05103 0.0
C2876 C 0.57954 0.51256 0.04227 0.0
C2877 C 0.60449 0.48339 0.05354 0.0
C2878 C 0.59769 0.5258 0.03745 0.0
C2879 C 0.61918 0.51772 0.04003 0.0
H2880 H 0.82556 0.43649 0.25603 0.0
H2881 H 0.82191 0.45321 0.3245 0.0
H2882 H 0.8025 0.41971 0.33324 0.0
H2883 H 0.78869 0.38498 0.32164 0.0
H2884 H 0.7913 0.36876 0.25298 0.0
H2885 H 0.80907 0.40296 0.24408 0.0
C2886 C 0.82018 0.43297 0.27281 0.0
C2887 C 0.82523 0.44715 0.28963 0.0
C2888 C 0.80906 0.41378 0.27768 0.0
C2889 C 0.81846 0.4423 0.31134 0.0
C2890 C 0.80731 0.42324 0.31632 0.0
C2891 C 0.79272 0.38903 0.30468 0.0
C2892 C 0.78885 0.37416 0.28807 0.0
C2893 C 0.80281 0.40874 0.29965 0.0
C2894 C 0.7945 0.37967 0.26618 0.0
C2895 C 0.80455 0.39928 0.26104 0.0
H2896 H 0.8877 0.58607 0.55271 0.0
H2897 H 0.88287 0.58829 0.4823 0.0
H2898 H 0.9196 0.57136 0.47823 0.0
H2899 H 0.95419 0.55666 0.49461 0.0
H2900 H 0.9591 0.55685 0.565 0.0
H2901 H 0.92183 0.57222 0.56886 0.0
C2902 C 0.89463 0.58314 0.53639 0.0
C2903 C 0.88207 0.58859 0.51791 0.0
C2904 C 0.91612 0.57376 0.53407 0.0
C2905 C 0.89162 0.58405 0.497 0.0
C2906 C 0.91287 0.57447 0.49459 0.0
C2907 C 0.94706 0.55997 0.51078 0.0
C2908 C 0.95969 0.55551 0.52946 0.0
C2909 C 0.9254 0.56928 0.513 0.0
C2910 C 0.95003 0.56013 0.55026 0.0
C2911 C 0.92859 0.56895 0.55254 0.0
H2912 H 0.19622 0.12742 0.27298 0.0
H2913 H 0.23575 0.09737 0.32299 0.0
H2914 H 0.25525 0.13128 0.32751 0.0
H2915 H 0.25993 0.1696 0.31805 0.0
H2916 H 0.21842 0.20029 0.26982 0.0
H2917 H 0.20103 0.16587 0.26347 0.0
C2918 C 0.2093 0.12834 0.28464 0.0
C2919 C 0.2147 0.11018 0.29763 0.0
C2920 C 0.21998 0.14792 0.28749 0.0
C2921 C 0.23141 0.11137 0.31293 0.0
C2922 C 0.24249 0.13067 0.3155 0.0
C2923 C 0.24694 0.16885 0.30632 0.0
C2924 C 0.24052 0.18754 0.29449 0.0
C2925 C 0.23666 0.14913 0.30309 0.0
C2926 C 0.22394 0.18613 0.27898 0.0
C2927 C 0.21386 0.16647 0.27541 0.0
H2928 H 0.35828 0.96834 0.49533 0.0
H2929 H 0.36324 0.97786 0.56489 0.0
H2930 H 0.3981 0.99662 0.55846 0.0
H2931 H 0.42689 0.0101 0.53297 0.0
H2932 H 0.42189 0.9999 0.46351 0.0
H2933 H 0.38662 0.98228 0.46995 0.0
C2934 C 0.36683 0.9748 0.50907 0.0
C2935 C 0.35824 0.97189 0.53052 0.0
C2936 C 0.38663 0.98555 0.50524 0.0
C2937 C 0.3697 0.97983 0.54824 0.0
C2938 C 0.3895 0.99062 0.54456 0.0
C2939 C 0.41816 0.00389 0.51927 0.0
C2940 C 0.42702 0.00622 0.49781 0.0
C2941 C 0.39812 0.99349 0.52312 0.0
C2942 C 0.41529 0.99853 0.48015 0.0
C2943 C 0.39523 0.9883 0.48383 0.0
H2944 H 0.85208 0.66402 0.2409 0.0
H2945 H 0.78944 0.63207 0.24546 0.0
H2946 H 0.76996 0.66738 0.24623 0.0
H2947 H 0.77129 0.70681 0.25042 0.0
H2948 H 0.83437 0.7382 0.24818 0.0
H2949 H 0.85323 0.70346 0.24109 0.0
C2950 C 0.83415 0.66478 0.24142 0.0
C2951 C 0.82214 0.64562 0.24324 0.0
C2952 C 0.82322 0.68496 0.24244 0.0
C2953 C 0.79894 0.64674 0.24429 0.0
C2954 C 0.78785 0.66686 0.24473 0.0
C2955 C 0.78913 0.7061 0.24796 0.0
C2956 C 0.8015 0.72489 0.25011 0.0
C2957 C 0.79989 0.68602 0.24457 0.0
C2958 C 0.82457 0.72382 0.24687 0.0
C2959 C 0.83535 0.70401 0.24284 0.0
H2960 H 0.70342 0.40276 0.79063 0.0
H2961 H 0.75126 0.41481 0.83934 0.0
H2962 H 0.76795 0.37834 0.83373 0.0
H2963 H 0.76976 0.34401 0.81307 0.0
H2964 H 0.72323 0.3344 0.76213 0.0
H2965 H 0.70509 0.36912 0.77036 0.0
C2966 C 0.71729 0.39713 0.80022 0.0
C2967 C 0.72607 0.41086 0.81553 0.0
C2968 C 0.72709 0.37685 0.79626 0.0
C2969 C 0.74425 0.40405 0.82768 0.0
C2970 C 0.75378 0.38339 0.82435 0.0
C2971 C 0.75563 0.34959 0.80388 0.0
C2972 C 0.74788 0.33687 0.78697 0.0
C2973 C 0.74552 0.3698 0.8084 0.0
C2974 C 0.72962 0.34413 0.77504 0.0
C2975 C 0.71916 0.36387 0.7798 0.0
H2976 H 0.02145 0.91293 0.93574 0.0
H2977 H 0.02871 0.87624 0.99599 0.0
H2978 H 0.03192 0.90979 0.01609 0.0
H2979 H 0.03228 0.94985 0.01724 0.0
H2980 H 0.02518 0.98696 0.95733 0.0
H2981 H 0.02275 0.9533 0.93677 0.0
C2982 C 0.02392 0.91215 0.95323 0.0
C2983 C 0.02454 0.89161 0.96412 0.0
C2984 C 0.02592 0.93181 0.96495 0.0
C2985 C 0.02759 0.89145 0.98695 0.0
C2986 C 0.02965 0.91079 0.99856 0.0
C2987 C 0.03039 0.95068 0.99964 0.0
C2988 C 0.02906 0.97125 0.98899 0.0
C2989 C 0.02875 0.9311 0.98783 0.0
C2990 C 0.02639 0.97161 0.96614 0.0
C2991 C 0.02492 0.95224 0.9543 0.0
H2992 H 0.90966 0.31273 0.74255 0.0
H2993 H 0.88494 0.32079 0.67727 0.0
H2994 H 0.84725 0.31725 0.69158 0.0
H2995 H 0.82193 0.30714 0.72159 0.0
H2996 H 0.84658 0.29621 0.78654 0.0
H2997 H 0.88374 0.30535 0.7733 0.0
C2998 C 0.896 0.31385 0.7315 0.0
C2999 C 0.90013 0.31682 0.70889 0.0
C3000 C 0.8744 0.31095 0.73969 0.0
C3001 C 0.88225 0.31874 0.6948 0.0
C3002 C 0.86067 0.31646 0.70291 0.0
C3003 C 0.83537 0.30698 0.73293 0.0
C3004 C 0.83163 0.30071 0.7549 0.0
C3005 C 0.85667 0.31184 0.72518 0.0
C3006 C 0.84913 0.30078 0.76945 0.0
C3007 C 0.87037 0.306 0.76192 0.0
H3008 H 0.54971 0.1645 0.47279 0.0
H3009 H 0.48358 0.16088 0.44893 0.0
H3010 H 0.48125 0.12357 0.46238 0.0
H3011 H 0.49774 0.09135 0.48089 0.0
H3012 H 0.56381 0.0946 0.5048 0.0
H3013 H 0.56635 0.13206 0.49123 0.0
C3014 C 0.53479 0.15559 0.47037 0.0
C3015 C 0.51678 0.16603 0.45985 0.0
C3016 C 0.53351 0.13375 0.47817 0.0
C3017 C 0.49762 0.15386 0.45725 0.0
C3018 C 0.4963 0.13226 0.46483 0.0
C3019 C 0.51276 0.10018 0.48313 0.0
C3020 C 0.53057 0.08983 0.49395 0.0
C3021 C 0.51409 0.12198 0.47535 0.0
C3022 C 0.54978 0.10187 0.49662 0.0
C3023 C 0.55125 0.12343 0.48883 0.0
H3024 H 0.60552 0.76646 0.2036 0.0
H3025 H 0.64117 0.8147 0.16582 0.0
H3026 H 0.67382 0.80786 0.18791 0.0
H3027 H 0.69214 0.78727 0.21709 0.0
H3028 H 0.65578 0.73974 0.25536 0.0
H3029 H 0.62335 0.7469 0.23349 0.0
C3030 C 0.62053 0.77532 0.2001 0.0
C3031 C 0.62124 0.79078 0.183 0.0
C3032 C 0.63897 0.77138 0.21282 0.0
C3033 C 0.64045 0.80265 0.17891 0.0
C3034 C 0.65903 0.79871 0.19147 0.0
C3035 C 0.67705 0.7787 0.2209 0.0
C3036 C 0.67638 0.76295 0.23782 0.0
C3037 C 0.65846 0.78304 0.20841 0.0
C3038 C 0.6568 0.75171 0.24223 0.0
C3039 C 0.63824 0.75587 0.22982 0.0
H3040 H 0.9923 0.19038 0.5632 0.0
H3041 H 0.0576 0.19884 0.58769 0.0
H3042 H 0.07153 0.16765 0.56684 0.0
H3043 H 0.06432 0.13619 0.54431 0.0
H3044 H 0.99926 0.12803 0.51947 0.0
H3045 H 0.98616 0.16139 0.53731 0.0
C3046 C 0.00966 0.18565 0.56366 0.0
C3047 C 0.02378 0.19661 0.57727 0.0
C3048 C 0.0176 0.16784 0.55155 0.0
C3049 C 0.04623 0.19024 0.5778 0.0
C3050 C 0.05428 0.17255 0.56575 0.0
C3051 C 0.04746 0.14205 0.54236 0.0
C3052 C 0.03268 0.12965 0.53091 0.0
C3053 C 0.04 0.16098 0.55293 0.0
C3054 C 0.01079 0.13724 0.52859 0.0
C3055 C 0.0033 0.15624 0.53877 0.0
H3056 H 0.63862 0.24739 0.33277 0.0
H3057 H 0.63753 0.31656 0.34346 0.0
H3058 H 0.67494 0.31884 0.3279 0.0
H3059 H 0.70828 0.30154 0.31114 0.0
H3060 H 0.7095 0.23271 0.29903 0.0
H3061 H 0.67194 0.23011 0.31492 0.0
C3062 C 0.64642 0.26302 0.33154 0.0
C3063 C 0.63499 0.28173 0.33967 0.0
C3064 C 0.66814 0.26434 0.32224 0.0
C3065 C 0.64578 0.30174 0.33795 0.0
C3066 C 0.66726 0.30312 0.32884 0.0
C3067 C 0.70039 0.28592 0.31196 0.0
C3068 C 0.71192 0.26734 0.30386 0.0
C3069 C 0.67866 0.28455 0.32101 0.0
C3070 C 0.70118 0.24731 0.30505 0.0
C3071 C 0.67963 0.24581 0.31418 0.0
H3072 H 0.4834 0.91497 0.10213 0.0
H3073 H 0.47505 0.88562 0.03927 0.0
H3074 H 0.47992 0.92093 0.02103 0.0
H3075 H 0.49094 0.95884 0.02293 0.0
H3076 H 0.50106 0.98735 0.08599 0.0
H3077 H 0.49066 0.95352 0.1043 0.0
C3078 C 0.48194 0.9164 0.08449 0.0
C3079 C 0.47891 0.89781 0.07201 0.0
C3080 C 0.48535 0.93647 0.0742 0.0
C3081 C 0.47752 0.89978 0.04914 0.0
C3082 C 0.48036 0.91989 0.03875 0.0
C3083 C 0.49061 0.95774 0.04069 0.0
C3084 C 0.49705 0.97542 0.05309 0.0
C3085 C 0.48504 0.93816 0.05109 0.0
C3086 C 0.49639 0.97385 0.07608 0.0
C3087 C 0.49045 0.95454 0.08657 0.0
H3088 H 0.9102 0.80741 0.81588 0.0
H3089 H 0.90074 0.74638 0.85014 0.0
H3090 H 0.86551 0.7423 0.83272 0.0
H3091 H 0.83653 0.75615 0.80843 0.0
H3092 H 0.84524 0.81719 0.77412 0.0
H3093 H 0.88134 0.82088 0.7905 0.0
C3094 C 0.90056 0.79311 0.81943 0.0
C3095 C 0.90835 0.77737 0.8347 0.0
C3096 C 0.87999 0.79077 0.80922 0.0
C3097 C 0.89526 0.75907 0.83898 0.0
C3098 C 0.87504 0.7566 0.82884 0.0
C3099 C 0.84637 0.77019 0.8043 0.0
C3100 C 0.83798 0.78629 0.78981 0.0
C3101 C 0.8671 0.77238 0.81405 0.0
C3102 C 0.85112 0.80442 0.78501 0.0
C3103 C 0.87183 0.8066 0.79449 0.0
H3104 H 0.9292 0.06589 0.88419 0.0
H3105 H 0.98193 0.09854 0.84907 0.0
H3106 H 0.00268 0.1004 0.88272 0.0
H3107 H 0.00748 0.08874 0.92072 0.0
H3108 H 0.95585 0.05395 0.95533 0.0
H3109 H 0.93286 0.05668 0.92317 0.0
C3110 C 0.94497 0.07391 0.88417 0.0
C3111 C 0.95415 0.08218 0.86452 0.0
C3112 C 0.95707 0.0741 0.90327 0.0
C3113 C 0.97471 0.09218 0.86425 0.0
C3114 C 0.98656 0.09311 0.88337 0.0
C3115 C 0.99103 0.08215 0.92133 0.0
C3116 C 0.98337 0.07102 0.94017 0.0
C3117 C 0.97818 0.08351 0.90277 0.0
C3118 C 0.96217 0.06224 0.94077 0.0
C3119 C 0.94902 0.06392 0.92249 0.0
H3120 H 0.79521 0.23393 0.6079 0.0
H3121 H 0.74244 0.1902 0.62482 0.0
H3122 H 0.73098 0.21287 0.65581 0.0
H3123 H 0.73607 0.24504 0.67816 0.0
H3124 H 0.79027 0.28718 0.66333 0.0
H3125 H 0.80124 0.26527 0.63123 0.0
C3126 C 0.78143 0.22917 0.61858 0.0
C3127 C 0.76962 0.21049 0.61403 0.0
C3128 C 0.77507 0.24215 0.63645 0.0
C3129 C 0.7516 0.20469 0.62782 0.0
C3130 C 0.74505 0.21761 0.64553 0.0
C3131 C 0.75 0.24951 0.66755 0.0
C3132 C 0.7621 0.2678 0.67241 0.0
C3133 C 0.75653 0.23645 0.64985 0.0
C3134 C 0.78062 0.27329 0.65933 0.0
C3135 C 0.78691 0.26072 0.64122 0.0
H3136 H 0.60361 0.98193 0.40533 0.0
H3137 H 0.54008 0.98166 0.37538 0.0
H3138 H 0.52162 0.98812 0.41109 0.0
H3139 H 0.52423 0.99898 0.44927 0.0
H3140 H 0.58823 0.00181 0.4783 0.0
H3141 H 0.60598 0.98894 0.4443 0.0
C3142 C 0.58569 0.98254 0.40676 0.0
C3143 C 0.57312 0.98136 0.38793 0.0
C3144 C 0.5754 0.98713 0.42699 0.0
C3145 C 0.54997 0.9826 0.3898 0.0
C3146 C 0.53949 0.98642 0.41011 0.0
C3147 C 0.54205 0.99657 0.44824 0.0
C3148 C 0.55497 0.0017 0.46606 0.0
C3149 C 0.55214 0.98961 0.42859 0.0
C3150 C 0.57798 0.99825 0.46464 0.0
C3151 C 0.58813 0.99086 0.44526 0.0
H3152 H 0.79836 0.85023 0.14766 0.0
H3153 H 0.73683 0.82356 0.12824 0.0
H3154 H 0.73243 0.80558 0.16389 0.0
H3155 H 0.74594 0.79695 0.20107 0.0
H3156 H 0.80787 0.82304 0.22008 0.0
H3157 H 0.81214 0.84118 0.18445 0.0
C3158 C 0.78407 0.84033 0.15103 0.0
C3159 C 0.76793 0.8386 0.13489 0.0
C3160 C 0.78163 0.82973 0.17176 0.0
C3161 C 0.74943 0.82576 0.14013 0.0
C3162 C 0.74692 0.81525 0.16063 0.0
C3163 C 0.76039 0.80659 0.19746 0.0
C3164 C 0.77653 0.80847 0.21355 0.0
C3165 C 0.76286 0.81711 0.17667 0.0
C3166 C 0.7951 0.82114 0.20827 0.0
C3167 C 0.7976 0.8316 0.18777 0.0
H3168 H 0.94768 0.03091 0.6467 0.0
H3169 H 0.00482 0.06483 0.6672 0.0
H3170 H 0.01892 0.06669 0.62911 0.0
H3171 H 0.01565 0.05684 0.59037 0.0
H3172 H 0.95939 0.02083 0.57103 0.0
H3173 H 0.94413 0.02161 0.60852 0.0
C3174 C 0.96341 0.03841 0.6429 0.0
C3175 C 0.97547 0.04732 0.65965 0.0
C3176 C 0.9714 0.03916 0.62125 0.0
C3177 C 0.99538 0.05774 0.65446 0.0
C3178 C 0.0034 0.05879 0.63277 0.0
C3179 C 0.99992 0.04946 0.5944 0.0
C3180 C 0.98858 0.03879 0.5782 0.0
C3181 C 0.99161 0.04939 0.61607 0.0
C3182 C 0.96836 0.02903 0.58343 0.0
C3183 C 0.95968 0.02943 0.60478 0.0
H3184 H 0.81818 0.20632 0.39509 0.0
H3185 H 0.81164 0.26925 0.4252 0.0
H3186 H 0.80547 0.28611 0.38927 0.0
H3187 H 0.79798 0.28204 0.35001 0.0
H3188 H 0.80445 0.21844 0.32115 0.0
H3189 H 0.81525 0.20285 0.35604 0.0
C3190 C 0.81623 0.22384 0.39387 0.0
C3191 C 0.81534 0.23648 0.41286 0.0
C3192 C 0.81245 0.23327 0.37341 0.0
C3193 C 0.81214 0.2591 0.41085 0.0
C3194 C 0.80862 0.26874 0.39033 0.0
C3195 C 0.80206 0.26484 0.35134 0.0
C3196 C 0.80007 0.25137 0.33314 0.0
C3197 C 0.80804 0.25584 0.3716 0.0
C3198 C 0.80555 0.22913 0.33499 0.0
C3199 C 0.81176 0.22017 0.35493 0.0
H3200 H 0.58628 0.00074 0.17998 0.0
H3201 H 0.59913 0.06728 0.1958 0.0
H3202 H 0.57895 0.07991 0.16393 0.0
H3203 H 0.55888 0.07186 0.13093 0.0
H3204 H 0.54384 0.00542 0.11695 0.0
H3205 H 0.56336 0.99297 0.14915 0.0
C3206 C 0.58438 0.01803 0.1767 0.0
C3207 C 0.5944 0.033 0.19007 0.0
C3208 C 0.57238 0.0252 0.15873 0.0
C3209 C 0.59203 0.05536 0.18541 0.0
C3210 C 0.58032 0.06262 0.16734 0.0
C3211 C 0.55953 0.05471 0.13514 0.0
C3212 C 0.55027 0.0396 0.12136 0.0
C3213 C 0.57059 0.04766 0.15379 0.0
C3214 C 0.55136 0.01738 0.12697 0.0
C3215 C 0.5624 0.01022 0.14544 0.0
H3216 H 0.76828 0.86801 0.89008 0.0
H3217 H 0.76956 0.8069 0.92562 0.0
H3218 H 0.76744 0.78741 0.89135 0.0
H3219 H 0.76575 0.7872 0.85081 0.0
H3220 H 0.76387 0.84825 0.81531 0.0
H3221 H 0.76519 0.86787 0.84973 0.0
C3222 C 0.76785 0.85044 0.8905 0.0
C3223 C 0.76934 0.83919 0.91088 0.0
C3224 C 0.76639 0.8391 0.87049 0.0
C3225 C 0.76899 0.81629 0.91052 0.0
C3226 C 0.76756 0.805 0.89078 0.0
C3227 C 0.76539 0.80481 0.85055 0.0
C3228 C 0.76458 0.81608 0.83019 0.0
C3229 C 0.76635 0.81616 0.8706 0.0
C3230 C 0.76436 0.83896 0.8305 0.0
C3231 C 0.7652 0.85028 0.85029 0.0
H3232 H 0.89648 0.96068 0.04966 0.0
H3233 H 0.87914 0.98775 0.9867 0.0
H3234 H 0.91332 0.00786 0.9849 0.0
H3235 H 0.94904 0.01758 0.00077 0.0
H3236 H 0.96538 0.99122 0.06426 0.0
H3237 H 0.93079 0.97183 0.06633 0.0
C3238 C 0.89984 0.97118 0.03562 0.0
C3239 C 0.88487 0.97223 0.01827 0.0
C3240 C 0.91959 0.98315 0.03476 0.0
C3241 C 0.89023 0.98591 0.00018 0.0
C3242 C 0.90984 0.99771 0.99918 0.0
C3243 C 0.94493 0.00784 0.0152 0.0
C3244 C 0.96007 0.00609 0.03235 0.0
C3245 C 0.92478 0.99641 0.01631 0.0
C3246 C 0.95428 0.9931 0.05077 0.0
C3247 C 0.93441 0.98184 0.05197 0.0
H3248 H 0.39595 0.58406 0.97331 0.0
H3249 H 0.36904 0.55279 0.03182 0.0
H3250 H 0.40409 0.53342 0.03676 0.0
H3251 H 0.44394 0.53035 0.02821 0.0
H3252 H 0.47222 0.56769 0.97449 0.0
H3253 H 0.43528 0.58052 0.96434 0.0
C3254 C 0.39772 0.57315 0.98728 0.0
C3255 C 0.38002 0.57042 0.0025 0.0
C3256 C 0.41836 0.56357 0.99112 0.0
C3257 C 0.38232 0.55529 0.01981 0.0
C3258 C 0.40248 0.54441 0.02285 0.0
C3259 C 0.44185 0.54107 0.01412 0.0
C3260 C 0.46042 0.54826 0.00207 0.0
C3261 C 0.42083 0.54921 0.00919 0.0
C3262 C 0.45792 0.56224 0.98399 0.0
C3263 C 0.4369 0.56946 0.97819 0.0
H3264 H 0.19853 0.61986 0.74923 0.0
H3265 H 0.22483 0.61382 0.81402 0.0
H3266 H 0.24325 0.64842 0.80877 0.0
H3267 H 0.25288 0.67975 0.78515 0.0
H3268 H 0.2285 0.68413 0.71965 0.0
H3269 H 0.20885 0.65027 0.7255 0.0
C3270 C 0.20855 0.62589 0.76212 0.0
C3271 C 0.21038 0.6142 0.78192 0.0
C3272 C 0.21958 0.64535 0.75876 0.0
C3273 C 0.22293 0.62262 0.79868 0.0
C3274 C 0.23361 0.6423 0.79564 0.0
C3275 C 0.24316 0.67325 0.77227 0.0
C3276 C 0.24208 0.68422 0.75202 0.0
C3277 C 0.23215 0.65372 0.77569 0.0
C3278 C 0.22972 0.67569 0.73526 0.0
C3279 C 0.21841 0.65648 0.73865 0.0
H3280 H 0.15997 0.47969 0.55089 0.0
H3281 H 0.15646 0.4558 0.48502 0.0
H3282 H 0.11939 0.47179 0.48212 0.0
H3283 H 0.08736 0.49239 0.49828 0.0
H3284 H 0.09087 0.51621 0.56418 0.0
H3285 H 0.12804 0.50036 0.567 0.0
C3286 C 0.1511 0.47784 0.53592 0.0
C3287 C 0.16136 0.46653 0.51817 0.0
C3288 C 0.12954 0.48711 0.53431 0.0
C3289 C 0.14941 0.46465 0.49887 0.0
C3290 C 0.12802 0.47371 0.49722 0.0
C3291 C 0.09624 0.49417 0.51326 0.0
C3292 C 0.0861 0.50561 0.53096 0.0
C3293 C 0.11785 0.485 0.51482 0.0
C3294 C 0.09807 0.50762 0.55021 0.0
C3295 C 0.11943 0.4985 0.55188 0.0
H3296 H 0.81605 0.95633 0.74474 0.0
H3297 H 0.86406 0.92684 0.78741 0.0
H3298 H 0.84665 0.89174 0.78418 0.0
H3299 H 0.81984 0.86927 0.76704 0.0
H3300 H 0.77177 0.89835 0.72417 0.0
H3301 H 0.78785 0.93392 0.72895 0.0
C3302 C 0.82266 0.94219 0.75333 0.0
C3303 C 0.84135 0.94403 0.76615 0.0
C3304 C 0.81289 0.92207 0.75103 0.0
C3305 C 0.84956 0.92578 0.77758 0.0
C3306 C 0.83976 0.90572 0.77557 0.0
C3307 C 0.81256 0.88339 0.75904 0.0
C3308 C 0.7946 0.88117 0.74529 0.0
C3309 C 0.82169 0.90366 0.76204 0.0
C3310 C 0.78578 0.89961 0.7346 0.0
C3311 C 0.79484 0.91993 0.73747 0.0
H3312 H 0.69319 0.09075 0.53596 0.0
H3313 H 0.67061 0.10476 0.47073 0.0
H3314 H 0.6394 0.08094 0.47741 0.0
H3315 H 0.61794 0.05796 0.50216 0.0
H3316 H 0.63811 0.04749 0.56893 0.0
H3317 H 0.67121 0.06806 0.56099 0.0
C3318 C 0.68128 0.0889 0.52327 0.0
C3319 C 0.68407 0.09979 0.50297 0.0
C3320 C 0.66306 0.07579 0.52744 0.0
C3321 C 0.66892 0.09652 0.48646 0.0
C3322 C 0.65102 0.083 0.49031 0.0
C3323 C 0.62923 0.06028 0.51523 0.0
C3324 C 0.62501 0.05137 0.53633 0.0
C3325 C 0.6478 0.07284 0.51085 0.0
C3326 C 0.64065 0.05406 0.55256 0.0
C3327 C 0.6596 0.06598 0.54808 0.0
H3328 H 0.19304 0.39299 0.81357 0.0
H3329 H 0.25688 0.42076 0.82235 0.0
H3330 H 0.27462 0.38486 0.8181 0.0
H3331 H 0.27208 0.34701 0.80733 0.0
H3332 H 0.20819 0.3199 0.79676 0.0
H3333 H 0.19015 0.35432 0.807 0.0
C3334 C 0.21077 0.39112 0.81527 0.0
C3335 C 0.22371 0.40942 0.81819 0.0
C3336 C 0.22077 0.3707 0.81231 0.0
C3337 C 0.24669 0.40685 0.81989 0.0
C3338 C 0.25678 0.3864 0.81746 0.0
C3339 C 0.25418 0.34852 0.80753 0.0
C3340 C 0.24147 0.33114 0.80092 0.0
C3341 C 0.24402 0.36841 0.81289 0.0
C3342 C 0.21831 0.33318 0.80157 0.0
C3343 C 0.20801 0.35283 0.80736 0.0
H3344 H 0.30762 0.6479 0.24251 0.0
H3345 H 0.31027 0.64201 0.31295 0.0
H3346 H 0.2942 0.67858 0.31676 0.0
H3347 H 0.2852 0.71383 0.29971 0.0
H3348 H 0.28296 0.7195 0.22922 0.0
H3349 H 0.29258 0.68098 0.22581 0.0
C3350 C 0.30396 0.65424 0.25874 0.0
C3351 C 0.31052 0.64248 0.27741 0.0
C3352 C 0.29511 0.67529 0.26077 0.0
C3353 C 0.3058 0.65103 0.29832 0.0
C3354 C 0.29665 0.6719 0.3005 0.0
C3355 C 0.28652 0.70653 0.28363 0.0
C3356 C 0.28395 0.71946 0.26473 0.0
C3357 C 0.29225 0.6845 0.28178 0.0
C3358 C 0.28515 0.70983 0.244 0.0
C3359 C 0.29069 0.68786 0.24203 0.0
H3360 H 0.52297 0.66707 0.56083 0.0
H3361 H 0.51315 0.6473 0.62838 0.0
H3362 H 0.51085 0.6094 0.6174 0.0
H3363 H 0.51208 0.58112 0.58839 0.0
H3364 H 0.51994 0.60172 0.52076 0.0
H3365 H 0.52251 0.63929 0.53194 0.0
C3366 C 0.5204 0.65449 0.57319 0.0
C3367 C 0.51832 0.66036 0.59551 0.0
C3368 C 0.51867 0.63252 0.5667 0.0
C3369 C 0.51469 0.64358 0.6111 0.0
C3370 C 0.51343 0.62174 0.60481 0.0
C3371 C 0.5142 0.59382 0.57607 0.0
C3372 C 0.51574 0.58817 0.55364 0.0
C3373 C 0.51539 0.61589 0.58263 0.0
C3374 C 0.51851 0.60518 0.53811 0.0
C3375 C 0.52009 0.62688 0.54449 0.0
H3376 H 0.63514 0.25216 0.80906 0.0
H3377 H 0.66181 0.24726 0.87359 0.0
H3378 H 0.69944 0.24665 0.85775 0.0
H3379 H 0.72413 0.25185 0.82623 0.0
H3380 H 0.69796 0.26004 0.76157 0.0
H3381 H 0.66055 0.25454 0.77669 0.0
C3382 C 0.6493 0.25056 0.81947 0.0
C3383 C 0.64611 0.24989 0.84229 0.0
C3384 C 0.67076 0.25093 0.81028 0.0
C3385 C 0.66423 0.24795 0.85593 0.0
C3386 C 0.68561 0.2476 0.84691 0.0
C3387 C 0.71031 0.25217 0.81535 0.0
C3388 C 0.71367 0.25667 0.79292 0.0
C3389 C 0.689 0.24976 0.82419 0.0
C3390 C 0.69568 0.25675 0.77897 0.0
C3391 C 0.67432 0.25371 0.7876 0.0
H3392 H 0.99504 0.39124 0.07154 0.0
H3393 H 0.06081 0.3964 0.09601 0.0
H3394 H 0.06307 0.4331 0.08109 0.0
H3395 H 0.0467 0.4644 0.06119 0.0
H3396 H 0.98065 0.46027 0.03746 0.0
H3397 H 0.97826 0.42312 0.05209 0.0
C3398 C 0.00986 0.40035 0.07379 0.0
C3399 C 0.02784 0.39041 0.08484 0.0
C3400 C 0.01106 0.42196 0.06524 0.0
C3401 C 0.04683 0.40291 0.08724 0.0
C3402 C 0.04812 0.42419 0.07881 0.0
C3403 C 0.03174 0.45543 0.05914 0.0
C3404 C 0.01391 0.46542 0.04803 0.0
C3405 C 0.0304 0.43393 0.06772 0.0
C3406 C 0.99471 0.45326 0.0458 0.0
C3407 C 0.99331 0.43189 0.05422 0.0
H3408 H 0.92943 0.75526 0.34568 0.0
H3409 H 0.96097 0.81195 0.31848 0.0
H3410 H 0.92739 0.82209 0.29897 0.0
H3411 H 0.8887 0.81554 0.29137 0.0
H3412 H 0.85638 0.76046 0.32171 0.0
H3413 H 0.89074 0.74874 0.33802 0.0
C3414 C 0.92892 0.76963 0.33519 0.0
C3415 C 0.94736 0.78282 0.33319 0.0
C3416 C 0.90948 0.77565 0.32473 0.0
C3417 C 0.94674 0.80163 0.32 0.0
C3418 C 0.92762 0.80741 0.30898 0.0
C3419 C 0.88908 0.80108 0.30166 0.0
C3420 C 0.86991 0.78896 0.30519 0.0
C3421 C 0.90877 0.79472 0.31155 0.0
C3422 C 0.87088 0.76999 0.31832 0.0
C3423 C 0.89052 0.7633 0.32784 0.0
H3424 H 0.49574 0.36767 0.96864 0.0
H3425 H 0.56481 0.36296 0.98441 0.0
H3426 H 0.56064 0.39608 0.00574 0.0
H3427 H 0.53728 0.42672 0.01948 0.0
H3428 H 0.46783 0.42903 0.00609 0.0
H3429 H 0.47201 0.39569 0.98503 0.0
C3430 C 0.50985 0.37342 0.97715 0.0
C3431 C 0.53056 0.36272 0.97482 0.0
C3432 C 0.50719 0.39191 0.99001 0.0
C3433 C 0.54873 0.37103 0.9855 0.0
C3434 C 0.54634 0.38986 0.99791 0.0
C3435 C 0.52313 0.41968 0.01207 0.0
C3436 C 0.50232 0.4301 0.01421 0.0
C3437 C 0.52566 0.40048 0.00016 0.0
C3438 C 0.48393 0.42101 0.00479 0.0
C3439 C 0.48636 0.40213 0.99263 0.0
H3440 H 0.90707 0.30292 0.21736 0.0
H3441 H 0.91224 0.23356 0.20833 0.0
H3442 H 0.87573 0.22933 0.22549 0.0
H3443 H 0.84182 0.24505 0.24299 0.0
H3444 H 0.83705 0.31408 0.25375 0.0
H3445 H 0.8737 0.31851 0.23641 0.0
C3446 C 0.9004 0.28682 0.21933 0.0
C3447 C 0.91264 0.26866 0.21109 0.0
C3448 C 0.87925 0.28436 0.22963 0.0
C3449 C 0.90329 0.248 0.21383 0.0
C3450 C 0.88233 0.24549 0.22387 0.0
C3451 C 0.84877 0.26109 0.24158 0.0
C3452 C 0.83647 0.2792 0.2497 0.0
C3453 C 0.87006 0.26354 0.23172 0.0
C3454 C 0.84599 0.2998 0.24775 0.0
C3455 C 0.86702 0.30237 0.23777 0.0
H3456 H 0.0588 0.64648 0.45273 0.0
H3457 H 0.03953 0.67987 0.51224 0.0
H3458 H 0.03671 0.64503 0.53189 0.0
H3459 H 0.03646 0.60519 0.53097 0.0
H3460 H 0.05373 0.57231 0.47054 0.0
H3461 H 0.0611 0.60703 0.45241 0.0
C3462 C 0.05451 0.64615 0.47013 0.0
C3463 C 0.04942 0.66556 0.4811 0.0
C3464 C 0.05248 0.62622 0.48105 0.0
C3465 C 0.04339 0.66499 0.50351 0.0
C3466 C 0.0418 0.64515 0.5147 0.0
C3467 C 0.0422 0.60564 0.51394 0.0
C3468 C 0.04443 0.58635 0.50202 0.0
C3469 C 0.04581 0.62566 0.50347 0.0
C3470 C 0.05173 0.58705 0.47996 0.0
C3471 C 0.05593 0.60685 0.46959 0.0
H3472 H 0.6347 0.76055 0.73379 0.0
H3473 H 0.64853 0.81259 0.68753 0.0
H3474 H 0.68409 0.81772 0.7037 0.0
H3475 H 0.71221 0.80726 0.73037 0.0
H3476 H 0.69993 0.7541 0.77551 0.0
H3477 H 0.66338 0.74962 0.76035 0.0
C3478 C 0.64547 0.77294 0.72708 0.0
C3479 C 0.6383 0.78633 0.70945 0.0
C3480 C 0.66647 0.77569 0.73633 0.0
C3481 C 0.65286 0.80233 0.70134 0.0
C3482 C 0.6735 0.80521 0.71051 0.0
C3483 C 0.7015 0.7948 0.7371 0.0
C3484 C 0.70898 0.78119 0.75432 0.0
C3485 C 0.68053 0.79205 0.72802 0.0
C3486 C 0.69477 0.76495 0.76243 0.0
C3487 C 0.67379 0.76232 0.75367 0.0
H3488 H 0.5781 0.48356 0.69659 0.0
H3489 H 0.6277 0.52376 0.66556 0.0
H3490 H 0.60717 0.52493 0.63168 0.0
H3491 H 0.57516 0.51476 0.61135 0.0
H3492 H 0.52428 0.47632 0.64294 0.0
H3493 H 0.54549 0.4739 0.6762 0.0
C3494 C 0.58443 0.49236 0.68227 0.0
C3495 C 0.60429 0.50346 0.68329 0.0
C3496 C 0.57236 0.49329 0.66312 0.0
C3497 C 0.61235 0.51513 0.66494 0.0
C3498 C 0.60065 0.51581 0.64567 0.0
C3499 C 0.56849 0.50612 0.62556 0.0
C3500 C 0.54811 0.4958 0.62464 0.0
C3501 C 0.58056 0.50509 0.64467 0.0
C3502 C 0.54003 0.48422 0.64312 0.0
C3503 C 0.55209 0.48291 0.66218 0.0
H3504 H 0.74496 0.32051 0.93824 0.0
H3505 H 0.8137 0.33075 0.95044 0.0
H3506 H 0.82469 0.30988 0.91797 0.0
H3507 H 0.8146 0.29086 0.88489 0.0
H3508 H 0.74591 0.28079 0.87259 0.0
H3509 H 0.735 0.29921 0.90658 0.0
C3510 C 0.76234 0.31786 0.93398 0.0
C3511 C 0.77849 0.32727 0.94657 0.0
C3512 C 0.76852 0.30594 0.9153 0.0
C3513 C 0.80096 0.32395 0.94074 0.0
C3514 C 0.80726 0.31194 0.92228 0.0
C3515 C 0.7973 0.29228 0.8899 0.0
C3516 C 0.78108 0.2846 0.87625 0.0
C3517 C 0.79117 0.30314 0.90927 0.0
C3518 C 0.75866 0.28685 0.88275 0.0
C3519 C 0.75242 0.29734 0.90216 0.0
H3520 H 0.9843 0.5488 0.16199 0.0
H3521 H 0.91834 0.5401 0.13939 0.0
H3522 H 0.93209 0.54179 0.10139 0.0
H3523 H 0.96286 0.54346 0.07502 0.0
H3524 H 0.02934 0.5504 0.09713 0.0
H3525 H 0.01523 0.5524 0.13509 0.0
C3526 C 0.97298 0.5475 0.14869 0.0
C3527 C 0.95045 0.54408 0.15332 0.0
C3528 C 0.98101 0.54833 0.12694 0.0
C3529 C 0.93584 0.54231 0.13609 0.0
C3530 C 0.94364 0.54344 0.11443 0.0
C3531 C 0.9743 0.54572 0.08807 0.0
C3532 C 0.9971 0.54665 0.08334 0.0
C3533 C 0.96621 0.54613 0.10972 0.0
C3534 C 0.01168 0.5496 0.10042 0.0
C3535 C 0.00365 0.55061 0.1221 0.0
H3536 H 0.74653 0.70553 0.40014 0.0
H3537 H 0.80503 0.73674 0.42144 0.0
H3538 H 0.80945 0.75454 0.38572 0.0
H3539 H 0.79678 0.76181 0.34797 0.0
H3540 H 0.73753 0.73163 0.32727 0.0
H3541 H 0.73338 0.71342 0.36288 0.0
C3542 C 0.76015 0.71639 0.39719 0.0
C3543 C 0.77547 0.71941 0.4139 0.0
C3544 C 0.76254 0.72696 0.37644 0.0
C3545 C 0.79312 0.73348 0.40914 0.0
C3546 C 0.79562 0.74391 0.38859 0.0
C3547 C 0.78295 0.75125 0.3512 0.0
C3548 C 0.76753 0.74824 0.33464 0.0
C3549 C 0.78049 0.74078 0.37203 0.0
C3550 C 0.74972 0.73443 0.33945 0.0
C3551 C 0.7473 0.72393 0.35994 0.0
H3552 H 0.56344 0.50194 0.88686 0.0
H3553 H 0.60847 0.55311 0.90057 0.0
H3554 H 0.59193 0.55687 0.93702 0.0
H3555 H 0.56559 0.54552 0.96512 0.0
H3556 H 0.52188 0.49287 0.95381 0.0
H3557 H 0.53762 0.48926 0.91634 0.0
C3558 C 0.56972 0.51381 0.89787 0.0
C3559 C 0.58692 0.52749 0.89073 0.0
C3560 C 0.5606 0.51546 0.91923 0.0
C3561 C 0.59479 0.54284 0.90523 0.0
C3562 C 0.58555 0.54484 0.92624 0.0
C3563 C 0.55937 0.53329 0.95446 0.0
C3564 C 0.54246 0.51965 0.962 0.0
C3565 C 0.56852 0.53126 0.93335 0.0
C3566 C 0.53491 0.50357 0.94823 0.0
C3567 C 0.54383 0.50158 0.92686 0.0
H3568 H 0.73876 0.30556 0.1431 0.0
H3569 H 0.73418 0.37074 0.16807 0.0
H3570 H 0.73752 0.35675 0.20543 0.0
H3571 H 0.74615 0.32649 0.23026 0.0
H3572 H 0.75212 0.26132 0.20519 0.0
H3573 H 0.74375 0.27482 0.16857 0.0
C3574 C 0.73828 0.31662 0.15679 0.0
C3575 C 0.73647 0.33908 0.15293 0.0
C3576 C 0.74067 0.30852 0.17812 0.0
C3577 C 0.73546 0.35334 0.17071 0.0
C3578 C 0.73755 0.34538 0.19204 0.0
C3579 C 0.74536 0.31521 0.21684 0.0
C3580 C 0.75008 0.29303 0.22031 0.0
C3581 C 0.74083 0.32307 0.19583 0.0
C3582 C 0.74872 0.27853 0.20286 0.0
C3583 C 0.74399 0.28622 0.18191 0.0
H3584 H 0.96663 0.51314 0.35863 0.0
H3585 H 0.96863 0.58202 0.36989 0.0
H3586 H 0.98724 0.57502 0.40446 0.0
H3587 H 0.00232 0.54913 0.43141 0.0
H3588 H 0.99886 0.48026 0.4201 0.0
H3589 H 0.98206 0.48752 0.38502 0.0
C3590 C 0.97149 0.52666 0.36845 0.0
C3591 C 0.96653 0.54806 0.36171 0.0
C3592 C 0.98196 0.52251 0.38815 0.0
C3593 C 0.97231 0.56541 0.37485 0.0
C3594 C 0.98296 0.56141 0.39452 0.0
C3595 C 0.99775 0.53571 0.42137 0.0
C3596 C 0.00181 0.51417 0.42845 0.0
C3597 C 0.98771 0.53999 0.40138 0.0
C3598 C 0.9962 0.49697 0.41498 0.0
C3599 C 0.98643 0.5011 0.39498 0.0
H3600 H 0.78794 0.73967 0.63358 0.0
H3601 H 0.75892 0.68066 0.65865 0.0
H3602 H 0.76008 0.69422 0.69595 0.0
H3603 H 0.76863 0.72335 0.72209 0.0
H3604 H 0.79728 0.78237 0.69664 0.0
H3605 H 0.7973 0.76819 0.65955 0.0
C3606 C 0.78203 0.7296 0.64714 0.0
C3607 C 0.77318 0.70906 0.64281 0.0
C3608 C 0.78277 0.73753 0.66886 0.0
C3609 C 0.76544 0.69664 0.66099 0.0
C3610 C 0.76625 0.70435 0.68254 0.0
C3611 C 0.77515 0.73301 0.70848 0.0
C3612 C 0.78308 0.75399 0.71251 0.0
C3613 C 0.77479 0.72484 0.68678 0.0
C3614 C 0.79112 0.76622 0.69437 0.0
C3615 C 0.79108 0.75812 0.67297 0.0
H3616 H 0.66162 0.56595 0.54659 0.0
H3617 H 0.64634 0.61027 0.49337 0.0
H3618 H 0.61098 0.59329 0.48947 0.0
H3619 H 0.58329 0.56659 0.50149 0.0
H3620 H 0.59676 0.52394 0.55631 0.0
H3621 H 0.63334 0.53959 0.55925 0.0
C3622 C 0.65058 0.5721 0.53421 0.0
C3623 C 0.65734 0.58939 0.52011 0.0
C3624 C 0.62963 0.56247 0.53226 0.0
C3625 C 0.6424 0.59671 0.50415 0.0
C3626 C 0.62185 0.58709 0.50198 0.0
C3627 C 0.59429 0.56049 0.51395 0.0
C3628 C 0.58715 0.54381 0.52848 0.0
C3629 C 0.61523 0.56995 0.51589 0.0
C3630 C 0.60168 0.53657 0.54475 0.0
C3631 C 0.62267 0.54561 0.54649 0.0
H3632 H 0.13201 0.95056 0.5481 0.0
H3633 H 0.16628 0.01047 0.53702 0.0
H3634 H 0.13111 0.03095 0.53917 0.0
H3635 H 0.09071 0.0311 0.54014 0.0
H3636 H 0.05645 0.97082 0.54965 0.0
H3637 H 0.09168 0.95114 0.55268 0.0
C3638 C 0.13169 0.96811 0.54618 0.0
C3639 C 0.15143 0.97907 0.54198 0.0
C3640 C 0.11154 0.97963 0.54728 0.0
C3641 C 0.15111 0.0018 0.54011 0.0
C3642 C 0.13108 0.01345 0.54133 0.0
C3643 C 0.09092 0.01373 0.54335 0.0
C3644 C 0.07109 0.00237 0.54437 0.0
C3645 C 0.11119 0.00246 0.54439 0.0
C3646 C 0.07157 0.97988 0.54863 0.0
C3647 C 0.09168 0.9686 0.55022 0.0
H3648 H 0.31562 0.95545 0.78296 0.0
H3649 H 0.3403 0.93259 0.72021 0.0
H3650 H 0.32341 0.89731 0.7274 0.0
H3651 H 0.30531 0.87243 0.75311 0.0
H3652 H 0.27958 0.89571 0.81567 0.0
H3653 H 0.29357 0.93155 0.80701 0.0
C3654 C 0.31693 0.94277 0.77079 0.0
C3655 C 0.32917 0.94624 0.75123 0.0
C3656 C 0.30741 0.92268 0.77513 0.0
C3657 C 0.33081 0.93004 0.73535 0.0
C3658 C 0.32133 0.90993 0.73954 0.0
C3659 C 0.30228 0.88527 0.7648 0.0
C3660 C 0.29171 0.88101 0.78527 0.0
C3661 C 0.3101 0.90594 0.75963 0.0
C3662 C 0.28817 0.89817 0.80006 0.0
C3663 C 0.29602 0.91879 0.79507 0.0
H3664 H 0.39756 0.1076 0.04071 0.0
H3665 H 0.36983 0.06103 0.99804 0.0
H3666 H 0.4055 0.04149 0.99513 0.0
H3667 H 0.44496 0.03759 0.00461 0.0
H3668 H 0.47185 0.08302 0.04913 0.0
H3669 H 0.43647 0.10291 0.0513 0.0
C3670 C 0.39935 0.09321 0.03072 0.0
C3671 C 0.38095 0.0859 0.01954 0.0
C3672 C 0.4199 0.08178 0.02942 0.0
C3673 C 0.38358 0.067 0.00693 0.0
C3674 C 0.40405 0.05584 0.00519 0.0
C3675 C 0.44308 0.05185 0.01476 0.0
C3676 C 0.46121 0.05877 0.02662 0.0
C3677 C 0.42238 0.06306 0.01634 0.0
C3678 C 0.45828 0.07721 0.03986 0.0
C3679 C 0.438 0.08867 0.04109 0.0
H3680 H 0.72361 0.6168 0.81596 0.0
H3681 H 0.73328 0.61745 0.74558 0.0
H3682 H 0.74878 0.65376 0.74699 0.0
H3683 H 0.75923 0.6851 0.76847 0.0
H3684 H 0.7496 0.68375 0.83882 0.0
H3685 H 0.735 0.64726 0.8373 0.0
C3686 C 0.72951 0.62467 0.80095 0.0
C3687 C 0.72755 0.61449 0.78072 0.0
C3688 C 0.73843 0.64524 0.80193 0.0
C3689 C 0.73461 0.62512 0.76132 0.0
C3690 C 0.74351 0.64576 0.76214 0.0
C3691 C 0.75379 0.67682 0.7834 0.0
C3692 C 0.75533 0.687 0.80371 0.0
C3693 C 0.74536 0.65598 0.78237 0.0
C3694 C 0.7487 0.67606 0.82305 0.0
C3695 C 0.74026 0.65532 0.82217 0.0
H3696 H 0.83898 0.49227 0.02771 0.0
H3697 H 0.8721 0.44536 0.06918 0.0
H3698 H 0.90694 0.46404 0.06298 0.0
H3699 H 0.92846 0.49053 0.042 0.0
H3700 H 0.89569 0.53696 0.99964 0.0
H3701 H 0.86009 0.52118 0.00955 0.0
C3702 C 0.85382 0.48629 0.03553 0.0
C3703 C 0.85315 0.46737 0.04862 0.0
C3704 C 0.8738 0.4967 0.0314 0.0
C3705 C 0.87227 0.45996 0.05908 0.0
C3706 C 0.89219 0.4705 0.05537 0.0
C3707 C 0.91355 0.4976 0.03529 0.0
C3708 C 0.91479 0.51476 0.01988 0.0
C3709 C 0.89324 0.48844 0.04101 0.0
C3710 C 0.89524 0.52345 0.01116 0.0
C3711 C 0.87488 0.51454 0.01692 0.0
H3712 H 0.35582 0.16858 0.73817 0.0
H3713 H 0.29349 0.13672 0.73336 0.0
H3714 H 0.2738 0.17179 0.73608 0.0
H3715 H 0.27442 0.21059 0.744 0.0
H3716 H 0.33699 0.2419 0.75001 0.0
H3717 H 0.35662 0.20781 0.74188 0.0
C3718 C 0.33797 0.16934 0.73708 0.0
C3719 C 0.32607 0.15016 0.73573 0.0
C3720 C 0.32686 0.18936 0.73896 0.0
C3721 C 0.30293 0.15132 0.73473 0.0
C3722 C 0.29171 0.17132 0.73623 0.0
C3723 C 0.29236 0.21004 0.74319 0.0
C3724 C 0.30426 0.22859 0.74793 0.0
C3725 C 0.30351 0.19033 0.73903 0.0
C3726 C 0.32747 0.22774 0.74665 0.0
C3727 C 0.33871 0.20826 0.74206 0.0
H3728 H 0.2389 0.91929 0.26886 0.0
H3729 H 0.24556 0.9114 0.33855 0.0
H3730 H 0.26714 0.87756 0.33283 0.0
H3731 H 0.27793 0.84764 0.30834 0.0
H3732 H 0.26831 0.85463 0.23875 0.0
H3733 H 0.25443 0.89176 0.24394 0.0
C3734 C 0.24566 0.91036 0.28267 0.0
C3735 C 0.24072 0.91737 0.30403 0.0
C3736 C 0.25722 0.89077 0.27924 0.0
C3737 C 0.24937 0.90604 0.32199 0.0
C3738 C 0.26149 0.88671 0.3187 0.0
C3739 C 0.27328 0.85746 0.29425 0.0
C3740 C 0.27366 0.84834 0.27326 0.0
C3741 C 0.26461 0.87848 0.29745 0.0
C3742 C 0.26778 0.86124 0.25512 0.0
C3743 C 0.25982 0.88243 0.25807 0.0
H3744 H 0.53458 0.38745 0.48904 0.0
H3745 H 0.50667 0.41049 0.42862 0.0
H3746 H 0.50803 0.44785 0.44111 0.0
H3747 H 0.51654 0.47462 0.46948 0.0
H3748 H 0.5433 0.45163 0.5304 0.0
H3749 H 0.54324 0.41428 0.51739 0.0
C3750 C 0.52891 0.4006 0.47849 0.0
C3751 C 0.52036 0.39571 0.45782 0.0
C3752 C 0.52961 0.4224 0.48588 0.0
C3753 C 0.51297 0.41332 0.4447 0.0
C3754 C 0.51388 0.43489 0.4518 0.0
C3755 C 0.52259 0.4615 0.47986 0.0
C3756 C 0.53011 0.46628 0.50095 0.0
C3757 C 0.52209 0.43972 0.4724 0.0
C3758 C 0.5375 0.44874 0.51412 0.0
C3759 C 0.53743 0.42722 0.50667 0.0
H3760 H 0.40563 0.79953 0.19775 0.0
H3761 H 0.43297 0.80918 0.26107 0.0
H3762 H 0.3968 0.80179 0.27892 0.0
H3763 H 0.35716 0.79365 0.27584 0.0
H3764 H 0.33117 0.78398 0.21166 0.0
H3765 H 0.3673 0.79031 0.19471 0.0
C3766 C 0.40358 0.80029 0.21547 0.0
C3767 C 0.42154 0.80539 0.22816 0.0
C3768 C 0.38312 0.79592 0.22536 0.0
C3769 C 0.41909 0.80556 0.25109 0.0
C3770 C 0.39853 0.80131 0.2612 0.0
C3771 C 0.35951 0.79278 0.25818 0.0
C3772 C 0.34153 0.78855 0.24501 0.0
C3773 C 0.38038 0.79659 0.24844 0.0
C3774 C 0.34472 0.78741 0.22215 0.0
C3775 C 0.36534 0.79103 0.21241 0.0
H3776 H 0.04634 0.66188 0.97104 0.0
H3777 H 0.97664 0.66408 0.958 0.0
H3778 H 0.9728 0.62775 0.9736 0.0
H3779 H 0.98887 0.59473 0.99105 0.0
H3780 H 0.05822 0.59266 0.00527 0.0
H3781 H 0.06226 0.62916 0.98956 0.0
C3782 C 0.03022 0.6546 0.97175 0.0
C3783 C 0.0119 0.66612 0.96287 0.0
C3784 C 0.02795 0.63343 0.98111 0.0
C3785 C 0.99128 0.65585 0.96401 0.0
C3786 C 0.98897 0.63494 0.97318 0.0
C3787 C 0.0049 0.60223 0.99079 0.0
C3788 C 0.02319 0.59064 0.99949 0.0
C3789 C 0.00716 0.62347 0.98171 0.0
C3790 C 0.04376 0.60093 0.99886 0.0
C3791 C 0.04611 0.62193 0.9898 0.0
H3792 H 0.10746 0.29499 0.72529 0.0
H3793 H 0.12035 0.2461 0.67623 0.0
H3794 H 0.15274 0.23295 0.69563 0.0
H3795 H 0.1779 0.23598 0.72603 0.0
H3796 H 0.16674 0.28631 0.77355 0.0
H3797 H 0.13296 0.29838 0.75536 0.0
C3798 C 0.11753 0.28164 0.71873 0.0
C3799 C 0.11157 0.27148 0.69945 0.0
C3800 C 0.1362 0.27432 0.72981 0.0
C3801 C 0.12453 0.25399 0.69124 0.0
C3802 C 0.14303 0.24648 0.70227 0.0
C3803 C 0.16772 0.24928 0.73253 0.0
C3804 C 0.17427 0.26011 0.75113 0.0
C3805 C 0.14895 0.25648 0.72158 0.0
C3806 C 0.16159 0.27775 0.75928 0.0
C3807 C 0.14249 0.28467 0.74885 0.0
H3808 H 0.53697 0.70155 0.06769 0.0
H3809 H 0.47145 0.682 0.08837 0.0
H3810 H 0.47533 0.64993 0.06529 0.0
H3811 H 0.49807 0.62677 0.04105 0.0
H3812 H 0.56498 0.64477 0.02338 0.0
H3813 H 0.55953 0.67853 0.04313 0.0
C3814 C 0.5236 0.69016 0.06732 0.0
C3815 C 0.50408 0.69395 0.07994 0.0
C3816 C 0.52612 0.67163 0.05445 0.0
C3817 C 0.48663 0.67944 0.07877 0.0
C3818 C 0.48888 0.66109 0.06565 0.0
C3819 C 0.51161 0.63787 0.04161 0.0
C3820 C 0.53207 0.63284 0.03097 0.0
C3821 C 0.50869 0.6569 0.05371 0.0
C3822 C 0.54903 0.64803 0.03129 0.0
C3823 C 0.54601 0.66733 0.04277 0.0
H3824 H 0.14399 0.80189 0.84535 0.0
H3825 H 0.12653 0.73961 0.82047 0.0
H3826 H 0.16276 0.73601 0.8019 0.0
H3827 H 0.19974 0.75065 0.79219 0.0
H3828 H 0.21659 0.81324 0.81685 0.0
H3829 H 0.18054 0.81654 0.83558 0.0
C3830 C 0.14793 0.7876 0.8357 0.0
C3831 C 0.13224 0.77106 0.83451 0.0
C3832 C 0.16891 0.78562 0.82487 0.0
C3833 C 0.13814 0.75254 0.82211 0.0
C3834 C 0.15892 0.75049 0.8113 0.0
C3835 C 0.19556 0.765 0.80168 0.0
C3836 C 0.21112 0.78165 0.80295 0.0
C3837 C 0.17452 0.76691 0.81254 0.0
C3838 C 0.20516 0.80011 0.81541 0.0
C3839 C 0.18443 0.80206 0.8262 0.0
H3840 H 0.98889 0.41185 0.5994 0.0
H3841 H 0.00507 0.3828 0.53688 0.0
H3842 H 0.00706 0.41893 0.51963 0.0
H3843 H 0.00783 0.45832 0.52342 0.0
H3844 H 0.99478 0.48712 0.58678 0.0
H3845 H 0.98755 0.4513 0.60276 0.0
C3846 C 0.99235 0.41349 0.5819 0.0
C3847 C 0.99675 0.39495 0.56928 0.0
C3848 C 0.99418 0.43412 0.57242 0.0
C3849 C 0.00168 0.39704 0.54676 0.0
C3850 C 0.00283 0.41759 0.53699 0.0
C3851 C 0.00307 0.45679 0.54066 0.0
C3852 C 0.00194 0.4752 0.55399 0.0
C3853 C 0.99967 0.4362 0.5498 0.0
C3854 C 0.9959 0.47307 0.57629 0.0
C3855 C 0.99178 0.45266 0.58541 0.0
H3856 H 0.39971 0.25507 0.33737 0.0
H3857 H 0.41559 0.32075 0.3182 0.0
H3858 H 0.38183 0.32385 0.29761 0.0
H3859 H 0.34691 0.30829 0.28522 0.0
H3860 H 0.3317 0.24238 0.30392 0.0
H3861 H 0.36595 0.23904 0.32374 0.0
C3862 C 0.39609 0.27002 0.3285 0.0
C3863 C 0.41054 0.28768 0.32979 0.0
C3864 C 0.37654 0.2717 0.31629 0.0
C3865 C 0.4049 0.30693 0.3182 0.0
C3866 C 0.38553 0.3087 0.30613 0.0
C3867 C 0.3512 0.29309 0.29338 0.0
C3868 C 0.33649 0.2756 0.29283 0.0
C3869 C 0.37109 0.29125 0.3051 0.0
C3870 C 0.34248 0.25616 0.30384 0.0
C3871 C 0.36215 0.25422 0.31533 0.0
H3872 H 0.45831 0.57656 0.36606 0.0
H3873 H 0.46555 0.50695 0.36042 0.0
H3874 H 0.48429 0.50502 0.39532 0.0
H3875 H 0.49945 0.52348 0.42685 0.0
H3876 H 0.49347 0.5932 0.43102 0.0
H3877 H 0.47389 0.59487 0.39672 0.0
C3878 C 0.46428 0.56098 0.37226 0.0
C3879 C 0.46075 0.54196 0.36063 0.0
C3880 C 0.47537 0.56007 0.39191 0.0
C3881 C 0.46798 0.52182 0.36919 0.0
C3882 C 0.47879 0.52072 0.38904 0.0
C3883 C 0.49371 0.53896 0.42022 0.0
C3884 C 0.49785 0.55819 0.43125 0.0
C3885 C 0.48263 0.53977 0.40047 0.0
C3886 C 0.49066 0.57825 0.42255 0.0
C3887 C 0.47938 0.57919 0.40308 0.0
H3888 H 0.3038 0.72536 0.11011 0.0
H3889 H 0.23778 0.73646 0.08687 0.0
H3890 H 0.22858 0.75901 0.11855 0.0
H3891 H 0.2388 0.77386 0.15388 0.0
H3892 H 0.30564 0.76457 0.17534 0.0
H3893 H 0.31516 0.74346 0.14287 0.0
C3894 C 0.28754 0.73307 0.1116 0.0
C3895 C 0.27148 0.72899 0.09621 0.0
C3896 C 0.28248 0.74634 0.12955 0.0
C3897 C 0.25035 0.73887 0.09875 0.0
C3898 C 0.24511 0.75194 0.11676 0.0
C3899 C 0.25553 0.76758 0.15123 0.0
C3900 C 0.27133 0.77039 0.16721 0.0
C3901 C 0.26097 0.75553 0.13242 0.0
C3902 C 0.29298 0.7621 0.16358 0.0
C3903 C 0.29849 0.75011 0.14497 0.0
H3904 H 0.05013 0.5028 0.88612 0.0
H3905 H 0.11571 0.49026 0.9096 0.0
H3906 H 0.10163 0.49215 0.94745 0.0
H3907 H 0.0714 0.50074 0.97358 0.0
H3908 H 0.00573 0.51369 0.95026 0.0
H3909 H 0.01909 0.50807 0.91259 0.0
C3910 C 0.06121 0.50032 0.89959 0.0
C3911 C 0.08383 0.49654 0.89526 0.0
C3912 C 0.05305 0.50159 0.92125 0.0
C3913 C 0.09815 0.49305 0.91268 0.0
C3914 C 0.09016 0.49426 0.93428 0.0
C3915 C 0.05997 0.50209 0.96027 0.0
C3916 C 0.03775 0.5079 0.96459 0.0
C3917 C 0.06775 0.49901 0.93871 0.0
C3918 C 0.02301 0.50933 0.94728 0.0
C3919 C 0.03061 0.50621 0.92574 0.0
H3920 H 0.24795 0.32961 0.63781 0.0
H3921 H 0.31117 0.35971 0.64315 0.0
H3922 H 0.3142 0.34518 0.68027 0.0
H3923 H 0.29911 0.32381 0.71188 0.0
H3924 H 0.23553 0.29446 0.70684 0.0
H3925 H 0.23248 0.309 0.66963 0.0
C3926 C 0.26236 0.33322 0.64705 0.0
C3927 C 0.27938 0.34575 0.63709 0.0
C3928 C 0.26398 0.32492 0.66881 0.0
C3929 C 0.29793 0.34982 0.64973 0.0
C3930 C 0.29964 0.34162 0.67124 0.0
C3931 C 0.28454 0.32061 0.70271 0.0
C3932 C 0.2676 0.30791 0.71249 0.0
C3933 C 0.28282 0.32908 0.68101 0.0
C3934 C 0.2489 0.30409 0.70004 0.0
C3935 C 0.24712 0.31243 0.67859 0.0
H3936 H 0.47073 0.53865 0.15905 0.0
H3937 H 0.46999 0.60795 0.14801 0.0
H3938 H 0.48595 0.60261 0.11086 0.0
H3939 H 0.49886 0.5778 0.08138 0.0
H3940 H 0.49773 0.50847 0.09311 0.0
H3941 H 0.48391 0.5143 0.13046 0.0
C3942 C 0.47449 0.55263 0.14868 0.0
C3943 C 0.46963 0.57366 0.15624 0.0
C3944 C 0.48318 0.5494 0.12754 0.0
C3945 C 0.47381 0.59162 0.14245 0.0
C3946 C 0.48288 0.58856 0.1213 0.0
C3947 C 0.49572 0.56402 0.0922 0.0
C3948 C 0.49927 0.54275 0.08454 0.0
C3949 C 0.48745 0.56747 0.11363 0.0
C3950 C 0.49501 0.52499 0.09861 0.0
C3951 C 0.48715 0.52829 0.11997 0.0
H3952 H 0.31658 0.74142 0.9004 0.0
H3953 H 0.31209 0.67635 0.87621 0.0
H3954 H 0.30746 0.69057 0.83898 0.0
H3955 H 0.29873 0.72167 0.81487 0.0
H3956 H 0.30206 0.78675 0.83984 0.0
H3957 H 0.31312 0.77237 0.87522 0.0
C3958 C 0.31505 0.73042 0.88683 0.0
C3959 C 0.31432 0.70802 0.89086 0.0
C3960 C 0.31178 0.7387 0.86576 0.0
C3961 C 0.3127 0.69372 0.87332 0.0
C3962 C 0.30981 0.70184 0.85213 0.0
C3963 C 0.30216 0.73267 0.82798 0.0
C3964 C 0.2991 0.75515 0.82494 0.0
C3965 C 0.30835 0.72432 0.84838 0.0
C3966 C 0.30399 0.76931 0.84189 0.0
C3967 C 0.31033 0.76115 0.86214 0.0
H3968 H 0.08694 0.54305 0.69522 0.0
H3969 H 0.09601 0.47683 0.67374 0.0
H3970 H 0.07267 0.48465 0.64257 0.0
H3971 H 0.05124 0.51055 0.62089 0.0
H3972 H 0.04541 0.57768 0.64041 0.0
H3973 H 0.06578 0.56905 0.67324 0.0
C3974 C 0.08409 0.53037 0.68356 0.0
C3975 C 0.09344 0.50946 0.68663 0.0
C3976 C 0.07117 0.53509 0.66547 0.0
C3977 C 0.08895 0.49304 0.67179 0.0
C3978 C 0.0757 0.49753 0.65393 0.0
C3979 C 0.05459 0.52345 0.63207 0.0
C3980 C 0.047 0.54485 0.62785 0.0
C3981 C 0.06698 0.51856 0.6505 0.0
C3982 C 0.0509 0.56106 0.64314 0.0
C3983 C 0.06273 0.55618 0.66188 0.0
H3984 H 0.26937 0.36631 0.38916 0.0
H3985 H 0.26941 0.30535 0.42491 0.0
H3986 H 0.26699 0.28578 0.39066 0.0
H3987 H 0.26539 0.28551 0.34998 0.0
H3988 H 0.2654 0.34657 0.31446 0.0
H3989 H 0.26677 0.36615 0.34883 0.0
C3990 C 0.26861 0.34876 0.38963 0.0
C3991 C 0.26975 0.33756 0.41004 0.0
C3992 C 0.26709 0.3374 0.36965 0.0
C3993 C 0.26903 0.31467 0.40976 0.0
C3994 C 0.26745 0.30335 0.39003 0.0
C3995 C 0.26543 0.30311 0.34973 0.0
C3996 C 0.26514 0.31439 0.32934 0.0
C3997 C 0.26654 0.31448 0.3698 0.0
C3998 C 0.26552 0.33727 0.32966 0.0
C3999 C 0.26637 0.34857 0.34943 0.0
H4000 H 0.38953 0.47142 0.54914 0.0
H4001 H 0.3841 0.47898 0.4791 0.0
H4002 H 0.41894 0.4981 0.477 0.0
H4003 H 0.45206 0.51204 0.49485 0.0
H4004 H 0.45686 0.50456 0.56494 0.0
H4005 H 0.42135 0.48677 0.56707 0.0
C4006 C 0.39568 0.47747 0.53339 0.0
C4007 C 0.38387 0.47337 0.51431 0.0
C4008 C 0.41586 0.48872 0.53224 0.0
C4009 C 0.39272 0.48128 0.49412 0.0
C4010 C 0.41271 0.49246 0.49288 0.0
C4011 C 0.4452 0.50683 0.51063 0.0
C4012 C 0.45736 0.50987 0.5297 0.0
C4013 C 0.42459 0.49619 0.5118 0.0
C4014 C 0.44809 0.50261 0.54993 0.0
C4015 C 0.42769 0.4923 0.5512 0.0
H4016 H 0.90455 0.10744 0.47891 0.0
H4017 H 0.86964 0.04736 0.4862 0.0
H4018 H 0.90483 0.02721 0.48866 0.0
H4019 H 0.94481 0.02763 0.49373 0.0
H4020 H 0.97902 0.0883 0.48797 0.0
H4021 H 0.94461 0.10728 0.47918 0.0
C4022 C 0.90459 0.08986 0.48031 0.0
C4023 C 0.88457 0.07889 0.48255 0.0
C4024 C 0.92469 0.07856 0.48214 0.0
C4025 C 0.8849 0.05615 0.48476 0.0
C4026 C 0.90497 0.04466 0.48615 0.0
C4027 C 0.9448 0.04493 0.49014 0.0
C4028 C 0.96427 0.05664 0.49186 0.0
C4029 C 0.92489 0.05583 0.48567 0.0
C4030 C 0.96413 0.079 0.48703 0.0
C4031 C 0.94448 0.08987 0.48204 0.0
H4032 H 0.73713 0.09752 0.28055 0.0
H4033 H 0.6906 0.13101 0.324 0.0
H4034 H 0.70973 0.16508 0.31692 0.0
H4035 H 0.73633 0.1857 0.29468 0.0
H4036 H 0.78208 0.15245 0.25013 0.0
H4037 H 0.76607 0.11772 0.26089 0.0
C4038 C 0.73135 0.11228 0.28862 0.0
C4039 C 0.71237 0.11198 0.30248 0.0
C4040 C 0.74193 0.13176 0.28392 0.0
C4041 C 0.70522 0.13095 0.31328 0.0
C4042 C 0.716 0.15041 0.30906 0.0
C4043 C 0.74321 0.17087 0.28766 0.0
C4044 C 0.76029 0.17168 0.27147 0.0
C4045 C 0.7339 0.15108 0.29385 0.0
C4046 C 0.76868 0.15227 0.26231 0.0
C4047 C 0.75964 0.13244 0.26855 0.0
H4048 H 0.65058 0.95827 0.99782 0.0
H4049 H 0.66796 0.98247 0.06081 0.0
H4050 H 0.63173 0.00049 0.06489 0.0
H4051 H 0.59457 0.00939 0.0508 0.0
H4052 H 0.57728 0.98457 0.98802 0.0
H4053 H 0.61355 0.96678 0.98395 0.0
C4054 C 0.64647 0.96731 0.01256 0.0
C4055 C 0.66235 0.96892 0.0289 0.0
C4056 C 0.62538 0.97761 0.01494 0.0
C4057 C 0.65648 0.9811 0.0477 0.0
C4058 C 0.63559 0.99135 0.05016 0.0
C4059 C 0.59871 8e-05 0.03622 0.0
C4060 C 0.58297 0.99845 0.01976 0.0
C4061 C 0.61984 0.98976 0.03389 0.0
C4062 C 0.58884 0.98624 0.00102 0.0
C4063 C 0.6097 0.97599 0.99864 0.0
H4064 H 0.34409 0.44053 0.26745 0.0
H4065 H 0.34624 0.45008 0.19724 0.0
H4066 H 0.3286 0.41514 0.19271 0.0
H4067 H 0.31163 0.38264 0.20902 0.0
H4068 H 0.30748 0.37493 0.27947 0.0
H4069 H 0.32682 0.40866 0.28362 0.0
C4070 C 0.34049 0.43509 0.25115 0.0
C4071 C 0.34618 0.44788 0.23272 0.0
C4072 C 0.33002 0.41541 0.24875 0.0
C4073 C 0.34205 0.44039 0.21166 0.0
C4074 C 0.33187 0.42054 0.20909 0.0
C4075 C 0.31478 0.38844 0.22526 0.0
C4076 C 0.30817 0.37626 0.24388 0.0
C4077 C 0.32558 0.40805 0.22756 0.0
C4078 C 0.3127 0.38379 0.26484 0.0
C4079 C 0.32363 0.40315 0.26726 0.0
H4080 H 0.19361 0.57591 0.02714 0.0
H4081 H 0.15946 0.61805 0.98179 0.0
H4082 H 0.12564 0.59742 0.98791 0.0
H4083 H 0.1056 0.56933 0.00818 0.0
H4084 H 0.14009 0.52639 0.05279 0.0
H4085 H 0.17419 0.54576 0.04515 0.0
C4086 C 0.17872 0.58047 0.0186 0.0
C4087 C 0.1787 0.5985 0.0043 0.0
C4088 C 0.15955 0.5686 0.02219 0.0
C4089 C 0.15963 0.60418 0.99291 0.0
C4090 C 0.14038 0.59248 0.99646 0.0
C4091 C 0.12059 0.56381 0.01592 0.0
C4092 C 0.12018 0.54648 0.03121 0.0
C4093 C 0.14011 0.57487 0.01132 0.0
C4094 C 0.13983 0.53991 0.04129 0.0
C4095 C 0.15935 0.5509 0.03685 0.0
H4096 H 0.69649 0.89542 0.31135 0.0
H4097 H 0.76104 0.92361 0.30839 0.0
H4098 H 0.77834 0.88738 0.30491 0.0
H4099 H 0.7746 0.84859 0.29882 0.0
H4100 H 0.70973 0.8209 0.29873 0.0
H4101 H 0.69287 0.85625 0.3077 0.0
C4102 C 0.71437 0.89353 0.31051 0.0
C4103 C 0.7276 0.91193 0.31023 0.0
C4104 C 0.724 0.8729 0.30778 0.0
C4105 C 0.75068 0.90952 0.30863 0.0
C4106 C 0.76049 0.8889 0.3066 0.0
C4107 C 0.75678 0.8502 0.30108 0.0
C4108 C 0.74336 0.83228 0.29797 0.0
C4109 C 0.74725 0.87059 0.30554 0.0
C4110 C 0.72034 0.83456 0.30088 0.0
C4111 C 0.71072 0.85472 0.30599 0.0
H4112 H 0.80159 0.13965 0.76291 0.0
H4113 H 0.84752 0.15857 0.7107 0.0
H4114 H 0.83278 0.19557 0.71207 0.0
H4115 H 0.81104 0.22379 0.73195 0.0
H4116 H 0.77138 0.20578 0.78896 0.0
H4117 H 0.78025 0.16737 0.78267 0.0
C4118 C 0.80864 0.15182 0.75194 0.0
C4119 C 0.82606 0.14623 0.73714 0.0
C4120 C 0.80159 0.17344 0.75412 0.0
C4121 C 0.83404 0.16215 0.72227 0.0
C4122 C 0.82588 0.18349 0.72325 0.0
C4123 C 0.80435 0.21132 0.74284 0.0
C4124 C 0.79087 0.21723 0.76095 0.0
C4125 C 0.81036 0.18948 0.73972 0.0
C4126 C 0.78212 0.2013 0.77511 0.0
C4127 C 0.78705 0.17945 0.77144 0.0
loop_
_geom_bond_atom_site_label_1
_geom_bond_atom_site_label_2
_geom_bond_distance
_geom_bond_site_symmetry_2
_ccdc_geom_bond_type
Li0 N17 1.990 . S
Li0 O60 1.956 . S
Li0 O61 1.970 . S
Li0 O62 1.960 . S
Li1 N25 1.990 . S
Li1 O60 1.970 . S
Li1 O61 1.956 . S
Li1 O63 1.961 . S
Li2 N47 1.990 . S
Li2 O60 1.961 . S
Li2 O62 1.956 . S
Li2 O63 1.970 . S
Li3 N53 1.990 1_455 S
Li3 O61 1.961 . S
Li3 O62 1.970 . S
Li3 O63 1.956 . S
C4 C6 1.348 . S
C4 C7 1.356 . S
C4 O60 1.325 . S
N5 C8 1.314 . S
N5 C9 1.279 . S
C6 C4 1.348 . S
C6 C8 1.353 . S
C6 H64 0.929 . S
C7 C4 1.356 . S
C7 C9 1.358 . S
C7 H65 0.930 . S
C8 N5 1.314 . S
C8 C6 1.353 . S
C8 H66 0.930 . S
C9 N5 1.279 . S
C9 C7 1.358 . S
C9 H67 0.930 . S
C10 C13 1.348 . S
C10 C14 1.356 . S
C10 O61 1.325 . S
C11 N12 1.279 . S
C11 C14 1.358 . S
C11 H68 0.930 . S
N12 C11 1.279 . S
N12 C15 1.314 . S
C13 C10 1.348 . S
C13 C15 1.353 . S
C13 H69 0.929 . S
C14 C10 1.356 . S
C14 C11 1.358 . S
C14 H70 0.930 . S
C15 N12 1.314 . S
C15 C13 1.353 . S
C15 H71 0.930 . S
C16 N17 1.314 . S
C16 C21 1.353 . S
C16 H22 0.930 1_455 S
N17 Li0 1.990 . S
N17 C16 1.314 . S
N17 C19 1.279 . S
C18 C19 1.358 . S
C18 C20 1.356 . S
C18 H72 0.930 . S
C19 N17 1.279 . S
C19 C18 1.358 . S
C19 H23 0.930 . S
C20 C18 1.356 . S
C20 C21 1.348 . S
C21 C16 1.353 . S
C21 C20 1.348 . S
C21 H73 0.929 1_455 S
H22 C16 0.930 1_655 S
H23 C19 0.930 . S
C24 N25 1.314 . S
C24 C26 1.353 . S
C24 H30 0.930 . S
N25 Li1 1.990 . S
N25 C24 1.314 . S
N25 C28 1.279 . S
C26 C24 1.353 . S
C26 C29 1.348 . S
C26 H74 0.929 . S
C27 C28 1.358 . S
C27 C29 1.356 . S
C27 H75 0.930 . S
C28 N25 1.279 . S
C28 C27 1.358 . S
C28 H31 0.930 . S
C29 C26 1.348 . S
C29 C27 1.356 . S
H30 C24 0.930 . S
H31 C28 0.930 . S
C32 C34 1.348 . S
C32 C35 1.356 . S
C32 O62 1.325 1_655 S
N33 C36 1.314 . S
N33 C37 1.279 . S
C34 C32 1.348 . S
C34 C36 1.353 . S
C34 H76 0.929 . S
C35 C32 1.356 . S
C35 C37 1.358 . S
C35 H77 0.930 . S
C36 N33 1.314 . S
C36 C34 1.353 . S
C36 H78 0.930 . S
C37 N33 1.279 . S
C37 C35 1.358 . S
C37 H79 0.930 . S
C38 C39 1.348 . S
C38 C40 1.356 . S
C38 O63 1.325 . S
C39 C38 1.348 . S
C39 C41 1.353 . S
C39 H80 0.929 . S
C40 C38 1.356 . S
C40 C42 1.358 . S
C40 H81 0.930 . S
C41 C39 1.353 . S
C41 N43 1.314 . S
C41 H82 0.930 . S
C42 C40 1.358 . S
C42 N43 1.279 . S
C42 H83 0.930 . S
N43 C41 1.314 . S
N43 C42 1.279 . S
C44 C46 1.353 . S
C44 N47 1.314 . S
C44 H50 0.930 . S
C45 N47 1.279 . S
C45 C48 1.358 . S
C45 H51 0.930 1_455 S
C46 C44 1.353 . S
C46 C49 1.348 . S
C46 H84 0.929 . S
N47 Li2 1.990 . S
N47 C44 1.314 . S
N47 C45 1.279 . S
C48 C45 1.358 . S
C48 C49 1.356 . S
C48 H85 0.930 1_455 S
C49 C46 1.348 . S
C49 C48 1.356 . S
H50 C44 0.930 . S
H51 C45 0.930 1_655 S
C52 N53 1.314 . S
C52 C54 1.353 . S
C52 H58 0.930 . S
N53 Li3 1.990 1_655 S
N53 C52 1.314 . S
N53 C56 1.279 . S
C54 C52 1.353 . S
C54 C57 1.348 . S
C54 H86 0.929 . S
C55 C56 1.358 . S
C55 C57 1.356 . S
C55 H87 0.930 . S
C56 N53 1.279 . S
C56 C55 1.358 . S
C56 H59 0.930 . S
C57 C54 1.348 . S
C57 C55 1.356 . S
H58 C52 0.930 . S
H59 C56 0.930 . S
O60 Li0 1.956 . S
O60 Li1 1.970 . S
O60 Li2 1.961 . S
O60 C4 1.325 . S
O61 Li0 1.970 . S
O61 Li1 1.956 . S
O61 Li3 1.961 . S
O61 C10 1.325 . S
O62 Li0 1.960 . S
O62 Li2 1.956 . S
O62 Li3 1.970 . S
O62 C32 1.325 1_455 S
O63 Li1 1.961 . S
O63 Li2 1.970 . S
O63 Li3 1.956 . S
O63 C38 1.325 . S
H64 C6 0.929 . S
H65 C7 0.930 . S
H66 C8 0.930 . S
H67 C9 0.930 . S
H68 C11 0.930 . S
H69 C13 0.929 . S
H70 C14 0.930 . S
H71 C15 0.930 . S
H72 C18 0.930 . S
H73 C21 0.929 1_655 S
H74 C26 0.929 . S
H75 C27 0.930 . S
H76 C34 0.929 . S
H77 C35 0.930 . S
H78 C36 0.930 . S
H79 C37 0.930 . S
H80 C39 0.929 . S
H81 C40 0.930 . S
H82 C41 0.930 . S
H83 C42 0.930 . S
H84 C46 0.929 . S
H85 C48 0.930 1_655 S
H86 C54 0.929 . S
H87 C55 0.930 . S
Li88 N105 1.990 1_455 S
Li88 O148 1.956 . S
Li88 O149 1.970 . S
Li88 O150 1.961 . S
Li89 N113 1.990 . S
Li89 O148 1.970 . S
Li89 O149 1.956 . S
Li89 O151 1.961 . S
Li90 N135 1.990 . S
Li90 O148 1.961 . S
Li90 O150 1.956 . S
Li90 O151 1.970 . S
Li91 N141 1.990 . S
Li91 O149 1.961 . S
Li91 O150 1.970 . S
Li91 O151 1.956 . S
C92 C94 1.348 . S
C92 C95 1.356 . S
C92 O148 1.325 . S
N93 C96 1.314 . S
N93 C97 1.279 . S
C94 C92 1.348 . S
C94 C96 1.353 . S
C94 H152 0.929 . S
C95 C92 1.356 . S
C95 C97 1.358 . S
C95 H153 0.930 . S
C96 N93 1.314 . S
C96 C94 1.353 . S
C96 H154 0.930 . S
C97 N93 1.279 . S
C97 C95 1.358 . S
C97 H155 0.930 . S
C98 C101 1.348 1_455 S
C98 C102 1.356 . S
C98 O149 1.325 . S
C99 N100 1.279 . S
C99 C102 1.358 1_655 S
C99 H156 0.930 . S
N100 C99 1.279 . S
N100 C103 1.314 . S
C101 C98 1.348 1_655 S
C101 C103 1.353 . S
C101 H157 0.929 . S
C102 C98 1.356 . S
C102 C99 1.358 1_455 S
C102 H158 0.930 . S
C103 N100 1.314 . S
C103 C101 1.353 . S
C103 H159 0.930 . S
C104 N105 1.314 . S
C104 C109 1.353 . S
C104 H110 0.930 . S
N105 Li88 1.990 1_655 S
N105 C104 1.314 . S
N105 C107 1.279 . S
C106 C107 1.358 . S
C106 C108 1.356 . S
C106 H160 0.930 . S
C107 N105 1.279 . S
C107 C106 1.358 . S
C107 H111 0.930 . S
C108 C106 1.356 . S
C108 C109 1.348 . S
C109 C104 1.353 . S
C109 C108 1.348 . S
C109 H161 0.929 . S
H110 C104 0.930 . S
H111 C107 0.930 . S
C112 N113 1.314 . S
C112 C114 1.353 . S
C112 H118 0.930 . S
N113 Li89 1.990 . S
N113 C112 1.314 . S
N113 C116 1.279 . S
C114 C112 1.353 . S
C114 C117 1.348 . S
C114 H162 0.929 . S
C115 C116 1.358 . S
C115 C117 1.356 . S
C115 H163 0.930 . S
C116 N113 1.279 . S
C116 C115 1.358 . S
C116 H119 0.930 . S
C117 C114 1.348 . S
C117 C115 1.356 . S
H118 C112 0.930 . S
H119 C116 0.930 . S
C120 C122 1.348 . S
C120 C123 1.356 . S
C120 O150 1.325 . S
N121 C124 1.314 . S
N121 C125 1.279 . S
C122 C120 1.348 . S
C122 C124 1.353 . S
C122 H164 0.929 . S
C123 C120 1.356 . S
C123 C125 1.358 . S
C123 H165 0.930 . S
C124 N121 1.314 . S
C124 C122 1.353 . S
C124 H166 0.930 . S
C125 N121 1.279 . S
C125 C123 1.358 . S
C125 H167 0.930 . S
C126 C127 1.348 . S
C126 C128 1.356 . S
C126 O151 1.325 . S
C127 C126 1.348 . S
C127 C129 1.353 . S
C127 H168 0.929 . S
C128 C126 1.356 . S
C128 C130 1.358 . S
C128 H169 0.930 . S
C129 C127 1.353 . S
C129 N131 1.314 . S
C129 H170 0.930 . S
C130 C128 1.358 . S
C130 N131 1.279 . S
C130 H171 0.930 . S
N131 C129 1.314 . S
N131 C130 1.279 . S
C132 C134 1.353 . S
C132 N135 1.314 . S
C132 H138 0.930 . S
C133 N135 1.279 . S
C133 C136 1.358 . S
C133 H139 0.930 . S
C134 C132 1.353 . S
C134 C137 1.348 . S
C134 H172 0.929 . S
N135 Li90 1.990 . S
N135 C132 1.314 . S
N135 C133 1.279 . S
C136 C133 1.358 . S
C136 C137 1.356 . S
C136 H173 0.930 . S
C137 C134 1.348 . S
C137 C136 1.356 . S
H138 C132 0.930 . S
H139 C133 0.930 . S
C140 N141 1.314 . S
C140 C142 1.353 . S
C140 H146 0.930 . S
N141 Li91 1.990 . S
N141 C140 1.314 . S
N141 C144 1.279 . S
C142 C140 1.353 . S
C142 C145 1.348 . S
C142 H174 0.929 . S
C143 C144 1.358 . S
C143 C145 1.356 . S
C143 H175 0.930 . S
C144 N141 1.279 . S
C144 C143 1.358 . S
C144 H147 0.930 . S
C145 C142 1.348 . S
C145 C143 1.356 . S
H146 C140 0.930 . S
H147 C144 0.930 . S
O148 Li88 1.956 . S
O148 Li89 1.970 . S
O148 Li90 1.961 . S
O148 C92 1.325 . S
O149 Li88 1.970 . S
O149 Li89 1.956 . S
O149 Li91 1.961 . S
O149 C98 1.325 . S
O150 Li88 1.961 . S
O150 Li90 1.956 . S
O150 Li91 1.970 . S
O150 C120 1.325 . S
O151 Li89 1.961 . S
O151 Li90 1.970 . S
O151 Li91 1.956 . S
O151 C126 1.325 . S
H152 C94 0.929 . S
H153 C95 0.930 . S
H154 C96 0.930 . S
H155 C97 0.930 . S
H156 C99 0.930 . S
H157 C101 0.929 . S
H158 C102 0.930 . S
H159 C103 0.930 . S
H160 C106 0.930 . S
H161 C109 0.929 . S
H162 C114 0.929 . S
H163 C115 0.930 . S
H164 C122 0.929 . S
H165 C123 0.930 . S
H166 C124 0.930 . S
H167 C125 0.930 . S
H168 C127 0.929 . S
H169 C128 0.930 . S
H170 C129 0.930 . S
H171 C130 0.930 . S
H172 C134 0.929 . S
H173 C136 0.930 . S
H174 C142 0.929 . S
H175 C143 0.930 . S
Li176 N193 1.990 . S
Li176 O236 1.956 . S
Li176 O237 1.970 . S
Li176 O238 1.961 . S
Li177 N201 1.990 . S
Li177 O236 1.970 . S
Li177 O237 1.956 . S
Li177 O239 1.961 . S
Li178 N223 1.990 . S
Li178 O236 1.961 . S
Li178 O238 1.956 . S
Li178 O239 1.970 . S
Li179 N229 1.990 . S
Li179 O237 1.961 . S
Li179 O238 1.970 . S
Li179 O239 1.956 . S
C180 C182 1.348 . S
C180 C183 1.356 . S
C180 O236 1.325 . S
N181 C184 1.314 . S
N181 C185 1.279 . S
C182 C180 1.348 . S
C182 C184 1.353 . S
C182 H240 0.929 . S
C183 C180 1.356 . S
C183 C185 1.358 . S
C183 H241 0.930 . S
C184 N181 1.314 . S
C184 C182 1.353 . S
C184 H242 0.930 . S
C185 N181 1.279 . S
C185 C183 1.358 . S
C185 H243 0.930 . S
C186 C189 1.348 . S
C186 C190 1.356 . S
C186 O237 1.325 . S
C187 N188 1.279 . S
C187 C190 1.358 . S
C187 H244 0.930 . S
N188 C187 1.279 . S
N188 C191 1.314 . S
C189 C186 1.348 . S
C189 C191 1.353 . S
C189 H245 0.929 . S
C190 C186 1.356 . S
C190 C187 1.358 . S
C190 H246 0.930 . S
C191 N188 1.314 . S
C191 C189 1.353 . S
C191 H247 0.930 . S
C192 N193 1.314 . S
C192 C197 1.353 . S
C192 H198 0.930 . S
N193 Li176 1.990 . S
N193 C192 1.314 . S
N193 C195 1.279 . S
C194 C195 1.358 . S
C194 C196 1.356 . S
C194 H248 0.930 . S
C195 N193 1.279 . S
C195 C194 1.358 . S
C195 H199 0.930 . S
C196 C194 1.356 . S
C196 C197 1.348 . S
C197 C192 1.353 . S
C197 C196 1.348 . S
C197 H249 0.929 . S
H198 C192 0.930 . S
H199 C195 0.930 . S
C200 N201 1.314 . S
C200 C202 1.353 . S
C200 H206 0.930 . S
N201 Li177 1.990 . S
N201 C200 1.314 . S
N201 C204 1.279 . S
C202 C200 1.353 . S
C202 C205 1.348 . S
C202 H250 0.929 . S
C203 C204 1.358 . S
C203 C205 1.356 . S
C203 H251 0.930 . S
C204 N201 1.279 . S
C204 C203 1.358 . S
C204 H207 0.930 . S
C205 C202 1.348 . S
C205 C203 1.356 . S
H206 C200 0.930 . S
H207 C204 0.930 . S
C208 C210 1.348 . S
C208 C211 1.356 . S
C208 O238 1.325 . S
N209 C212 1.314 . S
N209 C213 1.279 . S
C210 C208 1.348 . S
C210 C212 1.353 . S
C210 H252 0.929 . S
C211 C208 1.356 . S
C211 C213 1.358 . S
C211 H253 0.930 . S
C212 N209 1.314 . S
C212 C210 1.353 . S
C212 H254 0.930 . S
C213 N209 1.279 . S
C213 C211 1.358 . S
C213 H255 0.930 . S
C214 C215 1.348 . S
C214 C216 1.356 . S
C214 O239 1.325 . S
C215 C214 1.348 . S
C215 C217 1.353 . S
C215 H256 0.929 . S
C216 C214 1.356 . S
C216 C218 1.358 . S
C216 H257 0.930 . S
C217 C215 1.353 . S
C217 N219 1.314 . S
C217 H258 0.930 . S
C218 C216 1.358 . S
C218 N219 1.279 . S
C218 H259 0.930 . S
N219 C217 1.314 . S
N219 C218 1.279 . S
C220 C222 1.353 . S
C220 N223 1.314 . S
C220 H226 0.930 . S
C221 N223 1.279 . S
C221 C224 1.358 . S
C221 H227 0.930 . S
C222 C220 1.353 . S
C222 C225 1.348 . S
C222 H260 0.929 . S
N223 Li178 1.990 . S
N223 C220 1.314 . S
N223 C221 1.279 . S
C224 C221 1.358 . S
C224 C225 1.356 . S
C224 H261 0.930 . S
C225 C222 1.348 . S
C225 C224 1.356 . S
H226 C220 0.930 . S
H227 C221 0.930 . S
C228 N229 1.314 . S
C228 C230 1.353 . S
C228 H234 0.930 . S
N229 Li179 1.990 . S
N229 C228 1.314 . S
N229 C232 1.279 . S
C230 C228 1.353 . S
C230 C233 1.348 . S
C230 H262 0.929 . S
C231 C232 1.358 . S
C231 C233 1.356 . S
C231 H263 0.930 . S
C232 N229 1.279 . S
C232 C231 1.358 . S
C232 H235 0.930 . S
C233 C230 1.348 . S
C233 C231 1.356 . S
H234 C228 0.930 . S
H235 C232 0.930 . S
O236 Li176 1.956 . S
O236 Li177 1.970 . S
O236 Li178 1.961 . S
O236 C180 1.325 . S
O237 Li176 1.970 . S
O237 Li177 1.956 . S
O237 Li179 1.961 . S
O237 C186 1.325 . S
O238 Li176 1.961 . S
O238 Li178 1.956 . S
O238 Li179 1.970 . S
O238 C208 1.325 . S
O239 Li177 1.961 . S
O239 Li178 1.970 . S
O239 Li179 1.956 . S
O239 C214 1.325 . S
H240 C182 0.929 . S
H241 C183 0.930 . S
H242 C184 0.930 . S
H243 C185 0.930 . S
H244 C187 0.930 . S
H245 C189 0.929 . S
H246 C190 0.930 . S
H247 C191 0.930 . S
H248 C194 0.930 . S
H249 C197 0.929 . S
H250 C202 0.929 . S
H251 C203 0.930 . S
H252 C210 0.929 . S
H253 C211 0.930 . S
H254 C212 0.930 . S
H255 C213 0.930 . S
H256 C215 0.929 . S
H257 C216 0.930 . S
H258 C217 0.930 . S
H259 C218 0.930 . S
H260 C222 0.929 . S
H261 C224 0.930 . S
H262 C230 0.929 . S
H263 C231 0.930 . S
Li264 N281 1.990 . S
Li264 O324 1.956 . S
Li264 O325 1.970 . S
Li264 O326 1.961 . S
Li265 N289 1.990 . S
Li265 O324 1.970 . S
Li265 O325 1.956 . S
Li265 O327 1.961 . S
Li266 N311 1.990 . S
Li266 O324 1.961 . S
Li266 O326 1.956 . S
Li266 O327 1.970 . S
Li267 N317 1.990 . S
Li267 O325 1.961 . S
Li267 O326 1.970 . S
Li267 O327 1.956 . S
C268 C270 1.348 . S
C268 C271 1.356 . S
C268 O324 1.325 . S
N269 C272 1.314 . S
N269 C273 1.279 . S
C270 C268 1.348 . S
C270 C272 1.353 . S
C270 H328 0.929 . S
C271 C268 1.356 . S
C271 C273 1.358 . S
C271 H329 0.930 . S
C272 N269 1.314 . S
C272 C270 1.353 . S
C272 H330 0.930 . S
C273 N269 1.279 . S
C273 C271 1.358 . S
C273 H331 0.930 . S
C274 C277 1.348 . S
C274 C278 1.356 . S
C274 O325 1.325 . S
C275 N276 1.279 . S
C275 C278 1.358 . S
C275 H332 0.930 . S
N276 C275 1.279 . S
N276 C279 1.314 . S
C277 C274 1.348 . S
C277 C279 1.353 . S
C277 H333 0.929 . S
C278 C274 1.356 . S
C278 C275 1.358 . S
C278 H334 0.930 . S
C279 N276 1.314 . S
C279 C277 1.353 . S
C279 H335 0.930 . S
C280 N281 1.314 . S
C280 C285 1.353 . S
C280 H286 0.930 . S
N281 Li264 1.990 . S
N281 C280 1.314 . S
N281 C283 1.279 . S
C282 C283 1.358 . S
C282 C284 1.356 . S
C282 H336 0.930 . S
C283 N281 1.279 . S
C283 C282 1.358 . S
C283 H287 0.930 . S
C284 C282 1.356 . S
C284 C285 1.348 . S
C285 C280 1.353 . S
C285 C284 1.348 . S
C285 H337 0.929 . S
H286 C280 0.930 . S
H287 C283 0.930 . S
C288 N289 1.314 . S
C288 C290 1.353 . S
C288 H294 0.930 . S
N289 Li265 1.990 . S
N289 C288 1.314 . S
N289 C292 1.279 . S
C290 C288 1.353 . S
C290 C293 1.348 . S
C290 H338 0.929 . S
C291 C292 1.358 . S
C291 C293 1.356 . S
C291 H339 0.930 . S
C292 N289 1.279 . S
C292 C291 1.358 . S
C292 H295 0.930 . S
C293 C290 1.348 . S
C293 C291 1.356 . S
H294 C288 0.930 . S
H295 C292 0.930 . S
C296 C298 1.348 . S
C296 C299 1.356 . S
C296 O326 1.325 . S
N297 C300 1.314 . S
N297 C301 1.279 . S
C298 C296 1.348 . S
C298 C300 1.353 . S
C298 H340 0.929 . S
C299 C296 1.356 . S
C299 C301 1.358 . S
C299 H341 0.930 . S
C300 N297 1.314 . S
C300 C298 1.353 . S
C300 H342 0.930 . S
C301 N297 1.279 . S
C301 C299 1.358 . S
C301 H343 0.930 . S
C302 C303 1.348 . S
C302 C304 1.356 . S
C302 O327 1.325 . S
C303 C302 1.348 . S
C303 C305 1.353 . S
C303 H344 0.929 . S
C304 C302 1.356 . S
C304 C306 1.358 . S
C304 H345 0.930 . S
C305 C303 1.353 . S
C305 N307 1.314 . S
C305 H346 0.930 . S
C306 C304 1.358 . S
C306 N307 1.279 . S
C306 H347 0.930 . S
N307 C305 1.314 . S
N307 C306 1.279 . S
C308 C310 1.353 . S
C308 N311 1.314 . S
C308 H314 0.930 . S
C309 N311 1.279 . S
C309 C312 1.358 . S
C309 H315 0.930 . S
C310 C308 1.353 . S
C310 C313 1.348 . S
C310 H348 0.929 . S
N311 Li266 1.990 . S
N311 C308 1.314 . S
N311 C309 1.279 . S
C312 C309 1.358 . S
C312 C313 1.356 . S
C312 H349 0.930 . S
C313 C310 1.348 . S
C313 C312 1.356 . S
H314 C308 0.930 . S
H315 C309 0.930 . S
C316 N317 1.314 . S
C316 C318 1.353 . S
C316 H322 0.930 . S
N317 Li267 1.990 . S
N317 C316 1.314 . S
N317 C320 1.279 . S
C318 C316 1.353 . S
C318 C321 1.348 . S
C318 H350 0.929 . S
C319 C320 1.358 . S
C319 C321 1.356 . S
C319 H351 0.930 . S
C320 N317 1.279 . S
C320 C319 1.358 . S
C320 H323 0.930 . S
C321 C318 1.348 . S
C321 C319 1.356 . S
H322 C316 0.930 . S
H323 C320 0.930 . S
O324 Li264 1.956 . S
O324 Li265 1.970 . S
O324 Li266 1.961 . S
O324 C268 1.325 . S
O325 Li264 1.970 . S
O325 Li265 1.956 . S
O325 Li267 1.961 . S
O325 C274 1.325 . S
O326 Li264 1.961 . S
O326 Li266 1.956 . S
O326 Li267 1.970 . S
O326 C296 1.325 . S
O327 Li265 1.961 . S
O327 Li266 1.970 . S
O327 Li267 1.956 . S
O327 C302 1.325 . S
H328 C270 0.929 . S
H329 C271 0.930 . S
H330 C272 0.930 . S
H331 C273 0.930 . S
H332 C275 0.930 . S
H333 C277 0.929 . S
H334 C278 0.930 . S
H335 C279 0.930 . S
H336 C282 0.930 . S
H337 C285 0.929 . S
H338 C290 0.929 . S
H339 C291 0.930 . S
H340 C298 0.929 . S
H341 C299 0.930 . S
H342 C300 0.930 . S
H343 C301 0.930 . S
H344 C303 0.929 . S
H345 C304 0.930 . S
H346 C305 0.930 . S
H347 C306 0.930 . S
H348 C310 0.929 . S
H349 C312 0.930 . S
H350 C318 0.929 . S
H351 C319 0.930 . S
Li352 N369 1.990 . S
Li352 O412 1.956 . S
Li352 O413 1.970 . S
Li352 O414 1.961 1_545 S
Li353 N377 1.990 . S
Li353 O412 1.970 . S
Li353 O413 1.956 . S
Li353 O415 1.961 . S
Li354 N399 1.990 . S
Li354 O412 1.961 . S
Li354 O414 1.956 1_545 S
Li354 O415 1.970 . S
Li355 N405 1.990 . S
Li355 O413 1.961 1_565 S
Li355 O414 1.970 . S
Li355 O415 1.956 1_565 S
C356 C358 1.348 . S
C356 C359 1.356 . S
C356 O412 1.325 . S
N357 C360 1.314 . S
N357 C361 1.279 . S
C358 C356 1.348 . S
C358 C360 1.353 . S
C358 H416 0.929 . S
C359 C356 1.356 . S
C359 C361 1.358 . S
C359 H417 0.930 . S
C360 N357 1.314 . S
C360 C358 1.353 . S
C360 H418 0.930 . S
C361 N357 1.279 . S
C361 C359 1.358 . S
C361 H419 0.930 . S
C362 C365 1.348 . S
C362 C366 1.356 . S
C362 O413 1.325 . S
C363 N364 1.279 . S
C363 C366 1.358 . S
C363 H420 0.930 1_545 S
N364 C363 1.279 . S
N364 C367 1.314 . S
C365 C362 1.348 . S
C365 C367 1.353 . S
C365 H421 0.929 . S
C366 C362 1.356 . S
C366 C363 1.358 . S
C366 H422 0.922 1_545 S
C367 N364 1.314 . S
C367 C365 1.353 . S
C367 H423 0.930 . S
C368 N369 1.314 1_565 S
C368 C373 1.353 . S
C368 H374 0.930 . S
N369 Li352 1.990 . S
N369 C368 1.314 1_545 S
N369 C371 1.279 . S
C370 C371 1.358 . S
C370 C372 1.356 . S
C370 H424 0.930 . S
C371 N369 1.279 . S
C371 C370 1.358 . S
C371 H375 0.930 . S
C372 C370 1.356 . S
C372 C373 1.348 1_545 S
C373 C368 1.353 . S
C373 C372 1.348 1_565 S
C373 H425 0.929 . S
H374 C368 0.930 . S
H375 C371 0.930 . S
C376 N377 1.314 . S
C376 C378 1.353 . S
C376 H382 0.930 . S
N377 Li353 1.990 . S
N377 C376 1.314 . S
N377 C380 1.279 . S
C378 C376 1.353 . S
C378 C381 1.348 . S
C378 H426 0.929 . S
C379 C380 1.358 . S
C379 C381 1.356 . S
C379 H427 0.930 . S
C380 N377 1.279 . S
C380 C379 1.358 . S
C380 H383 0.930 . S
C381 C378 1.348 . S
C381 C379 1.356 . S
H382 C376 0.930 . S
H383 C380 0.930 . S
C384 C386 1.348 . S
C384 C387 1.356 . S
C384 O414 1.325 . S
N385 C388 1.314 . S
N385 C389 1.279 . S
C386 C384 1.348 . S
C386 C388 1.353 . S
C386 H428 0.929 . S
C387 C384 1.356 . S
C387 C389 1.358 . S
C387 H429 0.930 . S
C388 N385 1.314 . S
C388 C386 1.353 . S
C388 H430 0.930 . S
C389 N385 1.279 . S
C389 C387 1.358 . S
C389 H431 0.930 . S
C390 C391 1.348 . S
C390 C392 1.356 . S
C390 O415 1.325 . S
C391 C390 1.348 . S
C391 C393 1.353 . S
C391 H432 0.929 1_545 S
C392 C390 1.356 . S
C392 C394 1.358 . S
C392 H433 0.930 . S
C393 C391 1.353 . S
C393 N395 1.314 . S
C393 H434 0.930 1_545 S
C394 C392 1.358 . S
C394 N395 1.279 . S
C394 H435 0.930 . S
N395 C393 1.314 . S
N395 C394 1.279 . S
C396 C398 1.353 . S
C396 N399 1.314 . S
C396 H402 0.930 . S
C397 N399 1.279 1_565 S
C397 C400 1.358 . S
C397 H403 0.930 . S
C398 C396 1.353 . S
C398 C401 1.348 . S
C398 H436 0.929 . S
N399 Li354 1.990 . S
N399 C396 1.314 . S
N399 C397 1.279 1_545 S
C400 C397 1.358 . S
C400 C401 1.356 1_565 S
C400 H437 0.930 . S
C401 C398 1.348 . S
C401 C400 1.356 1_545 S
H402 C396 0.930 . S
H403 C397 0.930 . S
C404 N405 1.314 . S
C404 C406 1.353 . S
C404 H410 0.930 . S
N405 Li355 1.990 . S
N405 C404 1.314 . S
N405 C408 1.279 . S
C406 C404 1.353 . S
C406 C409 1.348 . S
C406 H438 0.929 . S
C407 C408 1.358 . S
C407 C409 1.356 . S
C407 H439 0.930 . S
C408 N405 1.279 . S
C408 C407 1.358 . S
C408 H411 0.930 . S
C409 C406 1.348 . S
C409 C407 1.356 . S
H410 C404 0.930 . S
H411 C408 0.930 . S
O412 Li352 1.956 . S
O412 Li353 1.970 . S
O412 Li354 1.961 . S
O412 C356 1.325 . S
O413 Li352 1.970 . S
O413 Li353 1.956 . S
O413 Li355 1.961 1_545 S
O413 C362 1.325 . S
O414 Li352 1.961 1_565 S
O414 Li354 1.956 1_565 S
O414 Li355 1.970 . S
O414 C384 1.325 . S
O415 Li353 1.961 . S
O415 Li354 1.970 . S
O415 Li355 1.956 1_545 S
O415 C390 1.325 . S
H416 C358 0.929 . S
H417 C359 0.930 . S
H418 C360 0.930 . S
H419 C361 0.930 . S
H420 C363 0.930 1_565 S
H421 C365 0.929 . S
H422 C366 0.922 1_565 S
H423 C367 0.930 . S
H424 C370 0.930 . S
H425 C373 0.929 . S
H426 C378 0.929 . S
H427 C379 0.930 . S
H428 C386 0.929 . S
H429 C387 0.930 . S
H430 C388 0.930 . S
H431 C389 0.930 . S
H432 C391 0.929 1_565 S
H433 C392 0.930 . S
H434 C393 0.930 1_565 S
H435 C394 0.930 . S
H436 C398 0.929 . S
H437 C400 0.930 . S
H438 C406 0.929 . S
H439 C407 0.930 . S
Li440 N457 1.990 . S
Li440 O500 1.956 . S
Li440 O501 1.970 . S
Li440 O502 1.961 . S
Li441 N465 1.990 . S
Li441 O500 1.970 . S
Li441 O501 1.956 . S
Li441 O503 1.961 . S
Li442 N487 1.990 . S
Li442 O500 1.961 . S
Li442 O502 1.956 . S
Li442 O503 1.970 . S
Li443 N493 1.990 . S
Li443 O501 1.961 . S
Li443 O502 1.970 . S
Li443 O503 1.956 . S
C444 C446 1.348 . S
C444 C447 1.356 . S
C444 O500 1.325 . S
N445 C448 1.314 . S
N445 C449 1.279 . S
C446 C444 1.348 . S
C446 C448 1.353 . S
C446 H504 0.929 . S
C447 C444 1.356 . S
C447 C449 1.358 . S
C447 H505 0.930 . S
C448 N445 1.314 . S
C448 C446 1.353 . S
C448 H506 0.930 . S
C449 N445 1.279 . S
C449 C447 1.358 . S
C449 H507 0.930 . S
C450 C453 1.348 . S
C450 C454 1.356 . S
C450 O501 1.325 . S
C451 N452 1.279 . S
C451 C454 1.358 . S
C451 H508 0.930 . S
N452 C451 1.279 . S
N452 C455 1.314 . S
C453 C450 1.348 . S
C453 C455 1.353 . S
C453 H509 0.929 . S
C454 C450 1.356 . S
C454 C451 1.358 . S
C454 H510 0.930 . S
C455 N452 1.314 . S
C455 C453 1.353 . S
C455 H511 0.930 . S
C456 N457 1.314 . S
C456 C461 1.353 . S
C456 H462 0.930 . S
N457 Li440 1.990 . S
N457 C456 1.314 . S
N457 C459 1.279 . S
C458 C459 1.358 . S
C458 C460 1.356 . S
C458 H512 0.930 . S
C459 N457 1.279 . S
C459 C458 1.358 . S
C459 H463 0.930 . S
C460 C458 1.356 . S
C460 C461 1.348 . S
C461 C456 1.353 . S
C461 C460 1.348 . S
C461 H513 0.929 . S
H462 C456 0.930 . S
H463 C459 0.930 . S
C464 N465 1.314 . S
C464 C466 1.353 . S
C464 H470 0.930 . S
N465 Li441 1.990 . S
N465 C464 1.314 . S
N465 C468 1.279 . S
C466 C464 1.353 . S
C466 C469 1.348 . S
C466 H514 0.929 . S
C467 C468 1.358 . S
C467 C469 1.356 . S
C467 H515 0.930 . S
C468 N465 1.279 . S
C468 C467 1.358 . S
C468 H471 0.930 . S
C469 C466 1.348 . S
C469 C467 1.356 . S
H470 C464 0.930 . S
H471 C468 0.930 . S
C472 C474 1.348 . S
C472 C475 1.356 . S
C472 O502 1.325 . S
N473 C476 1.314 . S
N473 C477 1.279 . S
C474 C472 1.348 . S
C474 C476 1.353 . S
C474 H516 0.929 . S
C475 C472 1.356 . S
C475 C477 1.358 . S
C475 H517 0.930 . S
C476 N473 1.314 . S
C476 C474 1.353 . S
C476 H518 0.930 . S
C477 N473 1.279 . S
C477 C475 1.358 . S
C477 H519 0.930 . S
C478 C479 1.348 . S
C478 C480 1.356 . S
C478 O503 1.325 . S
C479 C478 1.348 . S
C479 C481 1.353 . S
C479 H520 0.929 . S
C480 C478 1.356 . S
C480 C482 1.358 . S
C480 H521 0.930 . S
C481 C479 1.353 . S
C481 N483 1.314 . S
C481 H522 0.930 . S
C482 C480 1.358 . S
C482 N483 1.279 . S
C482 H523 0.930 . S
N483 C481 1.314 . S
N483 C482 1.279 . S
C484 C486 1.353 . S
C484 N487 1.314 . S
C484 H490 0.930 . S
C485 N487 1.279 . S
C485 C488 1.358 . S
C485 H491 0.930 . S
C486 C484 1.353 . S
C486 C489 1.348 . S
C486 H524 0.929 . S
N487 Li442 1.990 . S
N487 C484 1.314 . S
N487 C485 1.279 . S
C488 C485 1.358 . S
C488 C489 1.356 . S
C488 H525 0.930 . S
C489 C486 1.348 . S
C489 C488 1.356 . S
H490 C484 0.930 . S
H491 C485 0.930 . S
C492 N493 1.314 . S
C492 C494 1.353 . S
C492 H498 0.930 . S
N493 Li443 1.990 . S
N493 C492 1.314 . S
N493 C496 1.279 . S
C494 C492 1.353 . S
C494 C497 1.348 . S
C494 H526 0.929 . S
C495 C496 1.358 . S
C495 C497 1.356 . S
C495 H527 0.930 . S
C496 N493 1.279 . S
C496 C495 1.358 . S
C496 H499 0.930 . S
C497 C494 1.348 . S
C497 C495 1.356 . S
H498 C492 0.930 . S
H499 C496 0.930 . S
O500 Li440 1.956 . S
O500 Li441 1.970 . S
O500 Li442 1.961 . S
O500 C444 1.325 . S
O501 Li440 1.970 . S
O501 Li441 1.956 . S
O501 Li443 1.961 . S
O501 C450 1.325 . S
O502 Li440 1.961 . S
O502 Li442 1.956 . S
O502 Li443 1.970 . S
O502 C472 1.325 . S
O503 Li441 1.961 . S
O503 Li442 1.970 . S
O503 Li443 1.956 . S
O503 C478 1.325 . S
H504 C446 0.929 . S
H505 C447 0.930 . S
H506 C448 0.930 . S
H507 C449 0.930 . S
H508 C451 0.930 . S
H509 C453 0.929 . S
H510 C454 0.930 . S
H511 C455 0.930 . S
H512 C458 0.930 . S
H513 C461 0.929 . S
H514 C466 0.929 . S
H515 C467 0.930 . S
H516 C474 0.929 . S
H517 C475 0.930 . S
H518 C476 0.930 . S
H519 C477 0.930 . S
H520 C479 0.929 . S
H521 C480 0.930 . S
H522 C481 0.930 . S
H523 C482 0.930 . S
H524 C486 0.929 . S
H525 C488 0.930 . S
H526 C494 0.929 . S
H527 C495 0.930 . S
Li528 N545 1.990 . S
Li528 O588 1.956 . S
Li528 O589 1.970 . S
Li528 O590 1.961 . S
Li529 N553 1.990 . S
Li529 O588 1.970 . S
Li529 O589 1.956 . S
Li529 O591 1.961 . S
Li530 N575 1.990 . S
Li530 O588 1.961 . S
Li530 O590 1.956 . S
Li530 O591 1.970 . S
Li531 N581 1.990 . S
Li531 O589 1.961 . S
Li531 O590 1.970 . S
Li531 O591 1.956 . S
C532 C534 1.348 . S
C532 C535 1.356 . S
C532 O588 1.325 . S
N533 C536 1.314 . S
N533 C537 1.279 . S
C534 C532 1.348 . S
C534 C536 1.353 . S
C534 H592 0.929 . S
C535 C532 1.356 . S
C535 C537 1.358 . S
C535 H593 0.930 . S
C536 N533 1.314 . S
C536 C534 1.353 . S
C536 H594 0.930 . S
C537 N533 1.279 . S
C537 C535 1.358 . S
C537 H595 0.930 . S
C538 C541 1.348 1_545 S
C538 C542 1.356 . S
C538 O589 1.325 . S
C539 N540 1.279 . S
C539 C542 1.358 1_565 S
C539 H596 0.930 . S
N540 C539 1.279 . S
N540 C543 1.314 . S
C541 C538 1.348 1_565 S
C541 C543 1.353 . S
C541 H597 0.929 . S
C542 C538 1.356 . S
C542 C539 1.358 1_545 S
C542 H598 0.930 . S
C543 N540 1.314 . S
C543 C541 1.353 . S
C543 H599 0.930 . S
C544 N545 1.314 1_565 S
C544 C549 1.353 . S
C544 H550 0.930 . S
N545 Li528 1.990 . S
N545 C544 1.314 1_545 S
N545 C547 1.279 1_545 S
C546 C547 1.358 . S
C546 C548 1.356 . S
C546 H600 0.930 . S
C547 N545 1.279 1_565 S
C547 C546 1.358 . S
C547 H551 0.930 1_565 S
C548 C546 1.356 . S
C548 C549 1.348 . S
C549 C544 1.353 . S
C549 C548 1.348 . S
C549 H601 0.929 . S
H550 C544 0.930 . S
H551 C547 0.930 1_545 S
C552 N553 1.314 . S
C552 C554 1.353 . S
C552 H558 0.930 . S
N553 Li529 1.990 . S
N553 C552 1.314 . S
N553 C556 1.279 . S
C554 C552 1.353 . S
C554 C557 1.348 . S
C554 H602 0.929 . S
C555 C556 1.358 . S
C555 C557 1.356 . S
C555 H603 0.930 . S
C556 N553 1.279 . S
C556 C555 1.358 . S
C556 H559 0.930 . S
C557 C554 1.348 . S
C557 C555 1.356 . S
H558 C552 0.930 . S
H559 C556 0.930 . S
C560 C562 1.348 . S
C560 C563 1.356 . S
C560 O590 1.325 . S
N561 C564 1.314 . S
N561 C565 1.279 . S
C562 C560 1.348 . S
C562 C564 1.353 . S
C562 H604 0.929 . S
C563 C560 1.356 . S
C563 C565 1.358 . S
C563 H605 0.930 . S
C564 N561 1.314 . S
C564 C562 1.353 . S
C564 H606 0.930 . S
C565 N561 1.279 . S
C565 C563 1.358 . S
C565 H607 0.930 . S
C566 C567 1.348 . S
C566 C568 1.356 . S
C566 O591 1.325 . S
C567 C566 1.348 . S
C567 C569 1.353 . S
C567 H608 0.929 . S
C568 C566 1.356 . S
C568 C570 1.358 . S
C568 H609 0.930 . S
C569 C567 1.353 . S
C569 N571 1.314 . S
C569 H610 0.930 . S
C570 C568 1.358 . S
C570 N571 1.279 . S
C570 H611 0.930 . S
N571 C569 1.314 . S
N571 C570 1.279 . S
C572 C574 1.353 . S
C572 N575 1.314 . S
C572 H578 0.930 . S
C573 N575 1.279 . S
C573 C576 1.358 . S
C573 H579 0.930 . S
C574 C572 1.353 . S
C574 C577 1.348 . S
C574 H612 0.929 . S
N575 Li530 1.990 . S
N575 C572 1.314 . S
N575 C573 1.279 . S
C576 C573 1.358 . S
C576 C577 1.356 . S
C576 H613 0.930 . S
C577 C574 1.348 . S
C577 C576 1.356 . S
H578 C572 0.930 . S
H579 C573 0.930 . S
C580 N581 1.314 . S
C580 C582 1.353 . S
C580 H586 0.930 . S
N581 Li531 1.990 . S
N581 C580 1.314 . S
N581 C584 1.279 . S
C582 C580 1.353 . S
C582 C585 1.348 . S
C582 H614 0.929 . S
C583 C584 1.358 . S
C583 C585 1.356 . S
C583 H615 0.930 . S
C584 N581 1.279 . S
C584 C583 1.358 . S
C584 H587 0.930 . S
C585 C582 1.348 . S
C585 C583 1.356 . S
H586 C580 0.930 . S
H587 C584 0.930 . S
O588 Li528 1.956 . S
O588 Li529 1.970 . S
O588 Li530 1.961 . S
O588 C532 1.325 . S
O589 Li528 1.970 . S
O589 Li529 1.956 . S
O589 Li531 1.961 . S
O589 C538 1.325 . S
O590 Li528 1.961 . S
O590 Li530 1.956 . S
O590 Li531 1.970 . S
O590 C560 1.325 . S
O591 Li529 1.961 . S
O591 Li530 1.970 . S
O591 Li531 1.956 . S
O591 C566 1.325 . S
H592 C534 0.929 . S
H593 C535 0.930 . S
H594 C536 0.930 . S
H595 C537 0.930 . S
H596 C539 0.930 . S
H597 C541 0.929 . S
H598 C542 0.930 . S
H599 C543 0.930 . S
H600 C546 0.930 . S
H601 C549 0.929 . S
H602 C554 0.929 . S
H603 C555 0.930 . S
H604 C562 0.929 . S
H605 C563 0.930 . S
H606 C564 0.930 . S
H607 C565 0.930 . S
H608 C567 0.929 . S
H609 C568 0.930 . S
H610 C569 0.930 . S
H611 C570 0.930 . S
H612 C574 0.929 . S
H613 C576 0.930 . S
H614 C582 0.929 . S
H615 C583 0.930 . S
Li616 N633 1.990 . S
Li616 O676 1.956 . S
Li616 O677 1.970 . S
Li616 O678 1.961 . S
Li617 N641 1.990 . S
Li617 O676 1.970 . S
Li617 O677 1.956 . S
Li617 O679 1.961 . S
Li618 N663 1.990 1_554 S
Li618 O676 1.961 . S
Li618 O678 1.956 . S
Li618 O679 1.970 . S
Li619 N669 1.990 . S
Li619 O677 1.961 . S
Li619 O678 1.970 . S
Li619 O679 1.956 . S
C620 C622 1.348 . S
C620 C623 1.356 . S
C620 O676 1.325 . S
N621 C624 1.314 . S
N621 C625 1.279 . S
C622 C620 1.348 . S
C622 C624 1.353 . S
C622 H680 0.929 . S
C623 C620 1.356 . S
C623 C625 1.358 . S
C623 H681 0.930 . S
C624 N621 1.314 . S
C624 C622 1.353 . S
C624 H682 0.930 . S
C625 N621 1.279 . S
C625 C623 1.358 . S
C625 H683 0.930 . S
C626 C629 1.348 . S
C626 C630 1.356 . S
C626 O677 1.325 . S
C627 N628 1.279 . S
C627 C630 1.358 . S
C627 H684 0.930 . S
N628 C627 1.279 . S
N628 C631 1.314 . S
C629 C626 1.348 . S
C629 C631 1.353 . S
C629 H685 0.929 . S
C630 C626 1.356 . S
C630 C627 1.358 . S
C630 H686 0.930 . S
C631 N628 1.314 . S
C631 C629 1.353 . S
C631 H687 0.930 . S
C632 N633 1.314 . S
C632 C637 1.353 . S
C632 H638 0.930 . S
N633 Li616 1.990 . S
N633 C632 1.314 . S
N633 C635 1.279 . S
C634 C635 1.358 . S
C634 C636 1.356 . S
C634 H688 0.930 . S
C635 N633 1.279 . S
C635 C634 1.358 . S
C635 H639 0.930 . S
C636 C634 1.356 . S
C636 C637 1.348 . S
C637 C632 1.353 . S
C637 C636 1.348 . S
C637 H689 0.929 . S
H638 C632 0.930 . S
H639 C635 0.930 . S
C640 N641 1.314 . S
C640 C642 1.353 . S
C640 H646 0.930 1_554 S
N641 Li617 1.990 . S
N641 C640 1.314 . S
N641 C644 1.279 . S
C642 C640 1.353 . S
C642 C645 1.348 . S
C642 H690 0.929 1_554 S
C643 C644 1.358 . S
C643 C645 1.356 . S
C643 H691 0.930 . S
C644 N641 1.279 . S
C644 C643 1.358 . S
C644 H647 0.930 . S
C645 C642 1.348 . S
C645 C643 1.356 . S
H646 C640 0.930 1_556 S
H647 C644 0.930 . S
C648 C650 1.348 . S
C648 C651 1.356 . S
C648 O678 1.325 . S
N649 C652 1.314 . S
N649 C653 1.279 . S
C650 C648 1.348 . S
C650 C652 1.353 . S
C650 H692 0.929 . S
C651 C648 1.356 . S
C651 C653 1.358 . S
C651 H693 0.930 . S
C652 N649 1.314 . S
C652 C650 1.353 . S
C652 H694 0.930 . S
C653 N649 1.279 . S
C653 C651 1.358 . S
C653 H695 0.930 . S
C654 C655 1.348 . S
C654 C656 1.356 . S
C654 O679 1.325 1_556 S
C655 C654 1.348 . S
C655 C657 1.353 . S
C655 H696 0.929 . S
C656 C654 1.356 . S
C656 C658 1.358 . S
C656 H697 0.893 1_556 S
C657 C655 1.353 . S
C657 N659 1.314 . S
C657 H698 0.930 . S
C658 C656 1.358 . S
C658 N659 1.279 . S
C658 H699 0.930 . S
N659 C657 1.314 . S
N659 C658 1.279 . S
C660 C662 1.353 . S
C660 N663 1.314 . S
C660 H666 0.930 . S
C661 N663 1.279 . S
C661 C664 1.358 . S
C661 H667 0.930 . S
C662 C660 1.353 . S
C662 C665 1.348 . S
C662 H700 0.929 . S
N663 Li618 1.990 1_556 S
N663 C660 1.314 . S
N663 C661 1.279 . S
C664 C661 1.358 . S
C664 C665 1.356 . S
C664 H701 0.930 . S
C665 C662 1.348 . S
C665 C664 1.356 . S
H666 C660 0.930 . S
H667 C661 0.930 . S
C668 N669 1.314 . S
C668 C670 1.353 . S
C668 H674 0.930 . S
N669 Li619 1.990 . S
N669 C668 1.314 . S
N669 C672 1.279 . S
C670 C668 1.353 . S
C670 C673 1.348 . S
C670 H702 0.929 . S
C671 C672 1.358 . S
C671 C673 1.356 . S
C671 H703 0.930 1_554 S
C672 N669 1.279 . S
C672 C671 1.358 . S
C672 H675 0.930 1_554 S
C673 C670 1.348 . S
C673 C671 1.356 . S
H674 C668 0.930 . S
H675 C672 0.930 1_556 S
O676 Li616 1.956 . S
O676 Li617 1.970 . S
O676 Li618 1.961 . S
O676 C620 1.325 . S
O677 Li616 1.970 . S
O677 Li617 1.956 . S
O677 Li619 1.961 . S
O677 C626 1.325 . S
O678 Li616 1.961 . S
O678 Li618 1.956 . S
O678 Li619 1.970 . S
O678 C648 1.325 . S
O679 Li617 1.961 . S
O679 Li618 1.970 . S
O679 Li619 1.956 . S
O679 C654 1.325 1_554 S
H680 C622 0.929 . S
H681 C623 0.930 . S
H682 C624 0.930 . S
H683 C625 0.930 . S
H684 C627 0.930 . S
H685 C629 0.929 . S
H686 C630 0.930 . S
H687 C631 0.930 . S
H688 C634 0.930 . S
H689 C637 0.929 . S
H690 C642 0.929 1_556 S
H691 C643 0.930 . S
H692 C650 0.929 . S
H693 C651 0.930 . S
H694 C652 0.930 . S
H695 C653 0.930 . S
H696 C655 0.929 . S
H697 C656 0.893 1_554 S
H698 C657 0.930 . S
H699 C658 0.930 . S
H700 C662 0.929 . S
H701 C664 0.930 . S
H702 C670 0.929 . S
H703 C671 0.930 1_556 S
Li704 N721 1.990 . S
Li704 O764 1.956 . S
Li704 O765 1.970 . S
Li704 O766 1.961 . S
Li705 N729 1.990 . S
Li705 O764 1.970 . S
Li705 O765 1.956 . S
Li705 O767 1.961 . S
Li706 N751 1.990 . S
Li706 O764 1.961 . S
Li706 O766 1.956 . S
Li706 O767 1.970 . S
Li707 N757 1.996 . S
Li707 O765 1.961 . S
Li707 O766 1.970 . S
Li707 O767 1.956 . S
C708 C710 1.348 . S
C708 C711 1.356 . S
C708 O764 1.325 . S
N709 C712 1.314 . S
N709 C713 1.279 . S
C710 C708 1.348 . S
C710 C712 1.353 . S
C710 H768 0.929 . S
C711 C708 1.356 . S
C711 C713 1.358 . S
C711 H769 0.930 . S
C712 N709 1.314 . S
C712 C710 1.353 . S
C712 H770 0.930 . S
C713 N709 1.279 . S
C713 C711 1.358 . S
C713 H771 0.930 . S
C714 C717 1.348 . S
C714 C718 1.356 . S
C714 O765 1.325 . S
C715 N716 1.279 . S
C715 C718 1.358 . S
C715 H772 0.930 . S
N716 C715 1.279 . S
N716 C719 1.314 . S
C717 C714 1.348 . S
C717 C719 1.353 . S
C717 H773 0.929 . S
C718 C714 1.356 . S
C718 C715 1.358 . S
C718 H774 0.930 . S
C719 N716 1.314 . S
C719 C717 1.353 . S
C719 H775 0.930 . S
C720 N721 1.314 . S
C720 C725 1.353 . S
C720 H726 0.930 . S
N721 Li704 1.990 . S
N721 C720 1.314 . S
N721 C723 1.279 . S
C722 C723 1.358 . S
C722 C724 1.356 . S
C722 H776 0.930 . S
C723 N721 1.279 . S
C723 C722 1.358 . S
C723 H727 0.930 . S
C724 C722 1.356 . S
C724 C725 1.348 . S
C725 C720 1.353 . S
C725 C724 1.348 . S
C725 H777 0.929 . S
H726 C720 0.930 . S
H727 C723 0.930 . S
C728 N729 1.314 . S
C728 C730 1.353 . S
C728 H734 0.930 . S
N729 Li705 1.990 . S
N729 C728 1.314 . S
N729 C732 1.279 . S
C730 C728 1.353 . S
C730 C733 1.348 . S
C730 H778 0.929 . S
C731 C732 1.358 . S
C731 C733 1.356 . S
C731 H779 0.930 . S
C732 N729 1.279 . S
C732 C731 1.358 . S
C732 H735 0.930 . S
C733 C730 1.348 . S
C733 C731 1.356 . S
H734 C728 0.930 . S
H735 C732 0.930 . S
C736 C738 1.348 1_554 S
C736 C739 1.356 . S
C736 O766 1.325 . S
N737 C740 1.314 . S
N737 C741 1.279 . S
C738 C736 1.348 1_556 S
C738 C740 1.353 . S
C738 H780 0.929 . S
C739 C736 1.356 . S
C739 C741 1.358 1_554 S
C739 H781 0.930 . S
C740 N737 1.314 . S
C740 C738 1.353 . S
C740 H782 0.930 . S
C741 N737 1.279 . S
C741 C739 1.358 1_556 S
C741 H783 0.930 . S
C742 C743 1.348 . S
C742 C744 1.356 . S
C742 O767 1.325 . S
C743 C742 1.348 . S
C743 C745 1.353 . S
C743 H784 0.929 . S
C744 C742 1.356 . S
C744 C746 1.358 . S
C744 H785 0.930 . S
C745 C743 1.353 . S
C745 N747 1.314 . S
C745 H786 0.930 . S
C746 C744 1.358 . S
C746 N747 1.279 . S
C746 H787 0.930 . S
N747 C745 1.314 . S
N747 C746 1.279 . S
C748 C750 1.353 . S
C748 N751 1.314 . S
C748 H754 0.930 . S
C749 N751 1.279 . S
C749 C752 1.358 . S
C749 H755 0.930 . S
C750 C748 1.353 . S
C750 C753 1.348 . S
C750 H788 0.929 . S
N751 Li706 1.990 . S
N751 C748 1.314 . S
N751 C749 1.279 . S
C752 C749 1.358 . S
C752 C753 1.356 . S
C752 H789 0.930 . S
C753 C750 1.348 . S
C753 C752 1.356 . S
H754 C748 0.930 . S
H755 C749 0.930 . S
C756 N757 1.310 1_556 S
C756 C758 1.353 . S
C756 H762 0.930 . S
N757 Li707 1.996 . S
N757 C756 1.310 1_554 S
N757 C760 1.277 1_554 S
C758 C756 1.353 . S
C758 C761 1.348 . S
C758 H790 0.929 . S
C759 C760 1.358 . S
C759 C761 1.356 . S
C759 H791 0.930 . S
C760 N757 1.277 1_556 S
C760 C759 1.358 . S
C760 H763 0.936 . S
C761 C758 1.348 . S
C761 C759 1.356 . S
H762 C756 0.930 . S
H763 C760 0.936 . S
O764 Li704 1.956 . S
O764 Li705 1.970 . S
O764 Li706 1.961 . S
O764 C708 1.325 . S
O765 Li704 1.970 . S
O765 Li705 1.956 . S
O765 Li707 1.961 . S
O765 C714 1.325 . S
O766 Li704 1.961 . S
O766 Li706 1.956 . S
O766 Li707 1.970 . S
O766 C736 1.325 . S
O767 Li705 1.961 . S
O767 Li706 1.970 . S
O767 Li707 1.956 . S
O767 C742 1.325 . S
H768 C710 0.929 . S
H769 C711 0.930 . S
H770 C712 0.930 . S
H771 C713 0.930 . S
H772 C715 0.930 . S
H773 C717 0.929 . S
H774 C718 0.930 . S
H775 C719 0.930 . S
H776 C722 0.930 . S
H777 C725 0.929 . S
H778 C730 0.929 . S
H779 C731 0.930 . S
H780 C738 0.929 . S
H781 C739 0.930 . S
H782 C740 0.930 . S
H783 C741 0.930 . S
H784 C743 0.929 . S
H785 C744 0.930 . S
H786 C745 0.930 . S
H787 C746 0.930 . S
H788 C750 0.929 . S
H789 C752 0.930 . S
H790 C758 0.929 . S
H791 C759 0.930 . S
Li792 N809 1.990 . S
Li792 O852 1.956 . S
Li792 O853 1.970 . S
Li792 O854 1.961 . S
Li793 N817 1.990 . S
Li793 O852 1.970 . S
Li793 O853 1.956 . S
Li793 O855 1.961 . S
Li794 N839 1.990 . S
Li794 O852 1.961 . S
Li794 O854 1.956 . S
Li794 O855 1.970 . S
Li795 N845 1.990 . S
Li795 O853 1.961 . S
Li795 O854 1.970 . S
Li795 O855 1.956 . S
C796 C798 1.348 . S
C796 C799 1.356 . S
C796 O852 1.325 . S
N797 C800 1.314 . S
N797 C801 1.279 . S
C798 C796 1.348 . S
C798 C800 1.353 . S
C798 H856 0.929 . S
C799 C796 1.356 . S
C799 C801 1.358 . S
C799 H857 0.930 . S
C800 N797 1.314 . S
C800 C798 1.353 . S
C800 H858 0.930 . S
C801 N797 1.279 . S
C801 C799 1.358 . S
C801 H859 0.930 . S
C802 C805 1.348 . S
C802 C806 1.356 . S
C802 O853 1.325 . S
C803 N804 1.279 . S
C803 C806 1.358 . S
C803 H860 0.930 . S
N804 C803 1.279 . S
N804 C807 1.314 . S
C805 C802 1.348 . S
C805 C807 1.353 . S
C805 H861 0.929 . S
C806 C802 1.356 . S
C806 C803 1.358 . S
C806 H862 0.930 . S
C807 N804 1.314 . S
C807 C805 1.353 . S
C807 H863 0.930 . S
C808 N809 1.314 . S
C808 C813 1.353 . S
C808 H814 0.930 . S
N809 Li792 1.990 . S
N809 C808 1.314 . S
N809 C811 1.279 . S
C810 C811 1.358 . S
C810 C812 1.356 . S
C810 H864 0.930 . S
C811 N809 1.279 . S
C811 C810 1.358 . S
C811 H815 0.930 . S
C812 C810 1.356 . S
C812 C813 1.348 . S
C813 C808 1.353 . S
C813 C812 1.348 . S
C813 H865 0.929 . S
H814 C808 0.930 . S
H815 C811 0.930 . S
C816 N817 1.314 . S
C816 C818 1.353 . S
C816 H822 0.930 . S
N817 Li793 1.990 . S
N817 C816 1.314 . S
N817 C820 1.279 . S
C818 C816 1.353 . S
C818 C821 1.348 . S
C818 H866 0.929 . S
C819 C820 1.358 . S
C819 C821 1.356 . S
C819 H867 0.930 . S
C820 N817 1.279 . S
C820 C819 1.358 . S
C820 H823 0.930 . S
C821 C818 1.348 . S
C821 C819 1.356 . S
H822 C816 0.930 . S
H823 C820 0.930 . S
C824 C826 1.348 . S
C824 C827 1.356 . S
C824 O854 1.325 . S
N825 C828 1.314 . S
N825 C829 1.279 . S
C826 C824 1.348 . S
C826 C828 1.353 . S
C826 H868 0.929 . S
C827 C824 1.356 . S
C827 C829 1.358 . S
C827 H869 0.930 . S
C828 N825 1.314 . S
C828 C826 1.353 . S
C828 H870 0.930 . S
C829 N825 1.279 . S
C829 C827 1.358 . S
C829 H871 0.930 . S
C830 C831 1.348 . S
C830 C832 1.356 . S
C830 O855 1.325 . S
C831 C830 1.348 . S
C831 C833 1.353 . S
C831 H872 0.929 . S
C832 C830 1.356 . S
C832 C834 1.358 . S
C832 H873 0.930 . S
C833 C831 1.353 . S
C833 N835 1.314 . S
C833 H874 0.930 . S
C834 C832 1.358 . S
C834 N835 1.279 . S
C834 H875 0.930 . S
N835 C833 1.314 . S
N835 C834 1.279 . S
C836 C838 1.353 . S
C836 N839 1.314 . S
C836 H842 0.930 . S
C837 N839 1.279 . S
C837 C840 1.358 . S
C837 H843 0.930 . S
C838 C836 1.353 . S
C838 C841 1.348 . S
C838 H876 0.929 . S
N839 Li794 1.990 . S
N839 C836 1.314 . S
N839 C837 1.279 . S
C840 C837 1.358 . S
C840 C841 1.356 . S
C840 H877 0.930 . S
C841 C838 1.348 . S
C841 C840 1.356 . S
H842 C836 0.930 . S
H843 C837 0.930 . S
C844 N845 1.314 . S
C844 C846 1.353 . S
C844 H850 0.930 . S
N845 Li795 1.990 . S
N845 C844 1.314 . S
N845 C848 1.279 . S
C846 C844 1.353 . S
C846 C849 1.348 . S
C846 H878 0.929 . S
C847 C848 1.358 . S
C847 C849 1.356 . S
C847 H879 0.930 . S
C848 N845 1.279 . S
C848 C847 1.358 . S
C848 H851 0.930 . S
C849 C846 1.348 . S
C849 C847 1.356 . S
H850 C844 0.930 . S
H851 C848 0.930 . S
O852 Li792 1.956 . S
O852 Li793 1.970 . S
O852 Li794 1.961 . S
O852 C796 1.325 . S
O853 Li792 1.970 . S
O853 Li793 1.956 . S
O853 Li795 1.961 . S
O853 C802 1.325 . S
O854 Li792 1.961 . S
O854 Li794 1.956 . S
O854 Li795 1.970 . S
O854 C824 1.325 . S
O855 Li793 1.961 . S
O855 Li794 1.970 . S
O855 Li795 1.956 . S
O855 C830 1.325 . S
H856 C798 0.929 . S
H857 C799 0.930 . S
H858 C800 0.930 . S
H859 C801 0.930 . S
H860 C803 0.930 . S
H861 C805 0.929 . S
H862 C806 0.930 . S
H863 C807 0.930 . S
H864 C810 0.930 . S
H865 C813 0.929 . S
H866 C818 0.929 . S
H867 C819 0.930 . S
H868 C826 0.929 . S
H869 C827 0.930 . S
H870 C828 0.930 . S
H871 C829 0.930 . S
H872 C831 0.929 . S
H873 C832 0.930 . S
H874 C833 0.930 . S
H875 C834 0.930 . S
H876 C838 0.929 . S
H877 C840 0.930 . S
H878 C846 0.929 . S
H879 C847 0.930 . S
Li880 N897 1.990 . S
Li880 O940 1.956 . S
Li880 O941 1.970 . S
Li880 O942 1.961 . S
Li881 N905 1.990 . S
Li881 O940 1.970 . S
Li881 O941 1.956 . S
Li881 O943 1.961 . S
Li882 N927 1.990 . S
Li882 O940 1.961 . S
Li882 O942 1.956 . S
Li882 O943 1.970 . S
Li883 N933 1.990 . S
Li883 O941 1.961 . S
Li883 O942 1.970 . S
Li883 O943 1.956 . S
C884 C886 1.348 . S
C884 C887 1.356 . S
C884 O940 1.325 . S
N885 C888 1.314 . S
N885 C889 1.279 . S
C886 C884 1.348 . S
C886 C888 1.353 . S
C886 H944 0.929 . S
C887 C884 1.356 . S
C887 C889 1.358 . S
C887 H945 0.930 . S
C888 N885 1.314 . S
C888 C886 1.353 . S
C888 H946 0.930 . S
C889 N885 1.279 . S
C889 C887 1.358 . S
C889 H947 0.930 . S
C890 C893 1.348 . S
C890 C894 1.356 . S
C890 O941 1.325 . S
C891 N892 1.279 . S
C891 C894 1.358 . S
C891 H948 0.930 . S
N892 C891 1.279 . S
N892 C895 1.314 . S
C893 C890 1.348 . S
C893 C895 1.353 . S
C893 H949 0.929 . S
C894 C890 1.356 . S
C894 C891 1.358 . S
C894 H950 0.930 . S
C895 N892 1.314 . S
C895 C893 1.353 . S
C895 H951 0.930 . S
C896 N897 1.314 . S
C896 C901 1.353 . S
C896 H902 0.930 . S
N897 Li880 1.990 . S
N897 C896 1.314 . S
N897 C899 1.279 . S
C898 C899 1.358 . S
C898 C900 1.356 . S
C898 H952 0.930 . S
C899 N897 1.279 . S
C899 C898 1.358 . S
C899 H903 0.930 . S
C900 C898 1.356 . S
C900 C901 1.348 . S
C901 C896 1.353 . S
C901 C900 1.348 . S
C901 H953 0.929 . S
H902 C896 0.930 . S
H903 C899 0.930 . S
C904 N905 1.314 . S
C904 C906 1.353 . S
C904 H910 0.930 . S
N905 Li881 1.990 . S
N905 C904 1.314 . S
N905 C908 1.279 . S
C906 C904 1.353 . S
C906 C909 1.348 . S
C906 H954 0.929 . S
C907 C908 1.358 . S
C907 C909 1.356 . S
C907 H955 0.930 . S
C908 N905 1.279 . S
C908 C907 1.358 . S
C908 H911 0.930 . S
C909 C906 1.348 . S
C909 C907 1.356 . S
H910 C904 0.930 . S
H911 C908 0.930 . S
C912 C914 1.348 . S
C912 C915 1.356 . S
C912 O942 1.325 . S
N913 C916 1.314 . S
N913 C917 1.279 . S
C914 C912 1.348 . S
C914 C916 1.353 . S
C914 H956 0.929 . S
C915 C912 1.356 . S
C915 C917 1.358 . S
C915 H957 0.930 . S
C916 N913 1.314 . S
C916 C914 1.353 . S
C916 H958 0.930 . S
C917 N913 1.279 . S
C917 C915 1.358 . S
C917 H959 0.930 . S
C918 C919 1.348 . S
C918 C920 1.356 . S
C918 O943 1.325 . S
C919 C918 1.348 . S
C919 C921 1.353 . S
C919 H960 0.929 . S
C920 C918 1.356 . S
C920 C922 1.358 . S
C920 H961 0.930 . S
C921 C919 1.353 . S
C921 N923 1.314 . S
C921 H962 0.930 . S
C922 C920 1.358 . S
C922 N923 1.279 . S
C922 H963 0.930 . S
N923 C921 1.314 . S
N923 C922 1.279 . S
C924 C926 1.353 . S
C924 N927 1.314 . S
C924 H930 0.930 . S
C925 N927 1.279 . S
C925 C928 1.358 . S
C925 H931 0.930 . S
C926 C924 1.353 . S
C926 C929 1.348 . S
C926 H964 0.929 . S
N927 Li882 1.990 . S
N927 C924 1.314 . S
N927 C925 1.279 . S
C928 C925 1.358 . S
C928 C929 1.356 . S
C928 H965 0.930 . S
C929 C926 1.348 . S
C929 C928 1.356 . S
H930 C924 0.930 . S
H931 C925 0.930 . S
C932 N933 1.314 . S
C932 C934 1.353 . S
C932 H938 0.930 . S
N933 Li883 1.990 . S
N933 C932 1.314 . S
N933 C936 1.279 . S
C934 C932 1.353 . S
C934 C937 1.348 . S
C934 H966 0.929 . S
C935 C936 1.358 . S
C935 C937 1.356 . S
C935 H967 0.930 . S
C936 N933 1.279 . S
C936 C935 1.358 . S
C936 H939 0.930 . S
C937 C934 1.348 . S
C937 C935 1.356 . S
H938 C932 0.930 . S
H939 C936 0.930 . S
O940 Li880 1.956 . S
O940 Li881 1.970 . S
O940 Li882 1.961 . S
O940 C884 1.325 . S
O941 Li880 1.970 . S
O941 Li881 1.956 . S
O941 Li883 1.961 . S
O941 C890 1.325 . S
O942 Li880 1.961 . S
O942 Li882 1.956 . S
O942 Li883 1.970 . S
O942 C912 1.325 . S
O943 Li881 1.961 . S
O943 Li882 1.970 . S
O943 Li883 1.956 . S
O943 C918 1.325 . S
H944 C886 0.929 . S
H945 C887 0.930 . S
H946 C888 0.930 . S
H947 C889 0.930 . S
H948 C891 0.930 . S
H949 C893 0.929 . S
H950 C894 0.930 . S
H951 C895 0.930 . S
H952 C898 0.930 . S
H953 C901 0.929 . S
H954 C906 0.929 . S
H955 C907 0.930 . S
H956 C914 0.929 . S
H957 C915 0.930 . S
H958 C916 0.930 . S
H959 C917 0.930 . S
H960 C919 0.929 . S
H961 C920 0.930 . S
H962 C921 0.930 . S
H963 C922 0.930 . S
H964 C926 0.929 . S
H965 C928 0.930 . S
H966 C934 0.929 . S
H967 C935 0.930 . S
Li968 N985 1.990 . S
Li968 O1028 1.956 . S
Li968 O1029 1.970 . S
Li968 O1030 1.961 . S
Li969 N993 1.990 . S
Li969 O1028 1.970 . S
Li969 O1029 1.956 . S
Li969 O1031 1.961 . S
Li970 N1015 1.990 . S
Li970 O1028 1.961 . S
Li970 O1030 1.956 . S
Li970 O1031 1.970 . S
Li971 N1021 1.990 . S
Li971 O1029 1.961 . S
Li971 O1030 1.970 . S
Li971 O1031 1.956 . S
C972 C974 1.348 . S
C972 C975 1.356 . S
C972 O1028 1.325 . S
N973 C976 1.314 . S
N973 C977 1.279 . S
C974 C972 1.348 . S
C974 C976 1.353 . S
C974 H1032 0.929 . S
C975 C972 1.356 . S
C975 C977 1.358 . S
C975 H1033 0.930 . S
C976 N973 1.314 . S
C976 C974 1.353 . S
C976 H1034 0.930 . S
C977 N973 1.279 . S
C977 C975 1.358 . S
C977 H1035 0.930 . S
C978 C981 1.348 . S
C978 C982 1.356 . S
C978 O1029 1.325 . S
C979 N980 1.279 . S
C979 C982 1.358 . S
C979 H1036 0.930 . S
N980 C979 1.279 . S
N980 C983 1.314 . S
C981 C978 1.348 . S
C981 C983 1.353 . S
C981 H1037 0.929 . S
C982 C978 1.356 . S
C982 C979 1.358 . S
C982 H1038 0.930 . S
C983 N980 1.314 . S
C983 C981 1.353 . S
C983 H1039 0.930 . S
C984 N985 1.314 . S
C984 C989 1.353 . S
C984 H990 0.930 . S
N985 Li968 1.990 . S
N985 C984 1.314 . S
N985 C987 1.279 . S
C986 C987 1.358 . S
C986 C988 1.356 . S
C986 H1040 0.930 . S
C987 N985 1.279 . S
C987 C986 1.358 . S
C987 H991 0.930 . S
C988 C986 1.356 . S
C988 C989 1.348 . S
C989 C984 1.353 . S
C989 C988 1.348 . S
C989 H1041 0.929 . S
H990 C984 0.930 . S
H991 C987 0.930 . S
C992 N993 1.314 . S
C992 C994 1.353 . S
C992 H998 0.930 . S
N993 Li969 1.990 . S
N993 C992 1.314 . S
N993 C996 1.279 . S
C994 C992 1.353 . S
C994 C997 1.348 . S
C994 H1042 0.929 . S
C995 C996 1.358 . S
C995 C997 1.356 . S
C995 H1043 0.930 . S
C996 N993 1.279 . S
C996 C995 1.358 . S
C996 H999 0.930 . S
C997 C994 1.348 . S
C997 C995 1.356 . S
H998 C992 0.930 . S
H999 C996 0.930 . S
C1000 C1002 1.348 . S
C1000 C1003 1.356 . S
C1000 O1030 1.325 . S
N1001 C1004 1.314 . S
N1001 C1005 1.279 . S
C1002 C1000 1.348 . S
C1002 C1004 1.353 . S
C1002 H1044 0.929 . S
C1003 C1000 1.356 . S
C1003 C1005 1.358 . S
C1003 H1045 0.930 . S
C1004 N1001 1.314 . S
C1004 C1002 1.353 . S
C1004 H1046 0.930 . S
C1005 N1001 1.279 . S
C1005 C1003 1.358 . S
C1005 H1047 0.930 . S
C1006 C1007 1.348 . S
C1006 C1008 1.356 . S
C1006 O1031 1.325 . S
C1007 C1006 1.348 . S
C1007 C1009 1.353 . S
C1007 H1048 0.929 . S
C1008 C1006 1.356 . S
C1008 C1010 1.358 . S
C1008 H1049 0.930 . S
C1009 C1007 1.353 . S
C1009 N1011 1.314 . S
C1009 H1050 0.930 . S
C1010 C1008 1.358 . S
C1010 N1011 1.279 . S
C1010 H1051 0.930 . S
N1011 C1009 1.314 . S
N1011 C1010 1.279 . S
C1012 C1014 1.353 . S
C1012 N1015 1.314 . S
C1012 H1018 0.930 . S
C1013 N1015 1.279 . S
C1013 C1016 1.358 . S
C1013 H1019 0.930 . S
C1014 C1012 1.353 . S
C1014 C1017 1.348 . S
C1014 H1052 0.929 . S
N1015 Li970 1.990 . S
N1015 C1012 1.314 . S
N1015 C1013 1.279 . S
C1016 C1013 1.358 . S
C1016 C1017 1.356 . S
C1016 H1053 0.930 . S
C1017 C1014 1.348 . S
C1017 C1016 1.356 . S
H1018 C1012 0.930 . S
H1019 C1013 0.930 . S
C1020 N1021 1.314 . S
C1020 C1022 1.353 . S
C1020 H1026 0.930 . S
N1021 Li971 1.990 . S
N1021 C1020 1.314 . S
N1021 C1024 1.279 . S
C1022 C1020 1.353 . S
C1022 C1025 1.348 . S
C1022 H1054 0.929 . S
C1023 C1024 1.358 . S
C1023 C1025 1.356 . S
C1023 H1055 0.930 . S
C1024 N1021 1.279 . S
C1024 C1023 1.358 . S
C1024 H1027 0.930 . S
C1025 C1022 1.348 . S
C1025 C1023 1.356 . S
H1026 C1020 0.930 . S
H1027 C1024 0.930 . S
O1028 Li968 1.956 . S
O1028 Li969 1.970 . S
O1028 Li970 1.961 . S
O1028 C972 1.325 . S
O1029 Li968 1.970 . S
O1029 Li969 1.956 . S
O1029 Li971 1.961 . S
O1029 C978 1.325 . S
O1030 Li968 1.961 . S
O1030 Li970 1.956 . S
O1030 Li971 1.970 . S
O1030 C1000 1.325 . S
O1031 Li969 1.961 . S
O1031 Li970 1.970 . S
O1031 Li971 1.956 . S
O1031 C1006 1.325 . S
H1032 C974 0.929 . S
H1033 C975 0.930 . S
H1034 C976 0.930 . S
H1035 C977 0.930 . S
H1036 C979 0.930 . S
H1037 C981 0.929 . S
H1038 C982 0.930 . S
H1039 C983 0.930 . S
H1040 C986 0.930 . S
H1041 C989 0.929 . S
H1042 C994 0.929 . S
H1043 C995 0.930 . S
H1044 C1002 0.929 . S
H1045 C1003 0.930 . S
H1046 C1004 0.930 . S
H1047 C1005 0.930 . S
H1048 C1007 0.929 . S
H1049 C1008 0.930 . S
H1050 C1009 0.930 . S
H1051 C1010 0.930 . S
H1052 C1014 0.929 . S
H1053 C1016 0.930 . S
H1054 C1022 0.929 . S
H1055 C1023 0.930 . S
Li1056 N1073 1.990 . S
Li1056 O1116 1.956 1_655 S
Li1056 O1117 1.970 . S
Li1056 O1118 1.961 1_655 S
Li1057 N1081 1.990 . S
Li1057 O1116 1.970 . S
Li1057 O1117 1.956 1_455 S
Li1057 O1119 1.961 . S
Li1058 N1103 1.990 . S
Li1058 O1116 1.961 . S
Li1058 O1118 1.956 . S
Li1058 O1119 1.970 . S
Li1059 N1109 1.990 . S
Li1059 O1117 1.961 1_455 S
Li1059 O1118 1.970 . S
Li1059 O1119 1.956 . S
C1060 C1062 1.348 . S
C1060 C1063 1.356 . S
C1060 O1116 1.325 . S
N1061 C1064 1.314 . S
N1061 C1065 1.279 . S
C1062 C1060 1.348 . S
C1062 C1064 1.353 . S
C1062 H1120 0.929 . S
C1063 C1060 1.356 . S
C1063 C1065 1.358 . S
C1063 H1121 0.930 . S
C1064 N1061 1.314 . S
C1064 C1062 1.353 . S
C1064 H1122 0.930 . S
C1065 N1061 1.279 . S
C1065 C1063 1.358 . S
C1065 H1123 0.930 . S
C1066 C1069 1.348 . S
C1066 C1070 1.356 . S
C1066 O1117 1.325 . S
C1067 N1068 1.279 . S
C1067 C1070 1.358 . S
C1067 H1124 0.930 . S
N1068 C1067 1.279 . S
N1068 C1071 1.314 . S
C1069 C1066 1.348 . S
C1069 C1071 1.353 . S
C1069 H1125 0.929 . S
C1070 C1066 1.356 . S
C1070 C1067 1.358 . S
C1070 H1126 0.930 . S
C1071 N1068 1.314 . S
C1071 C1069 1.353 . S
C1071 H1127 0.930 . S
C1072 N1073 1.314 . S
C1072 C1077 1.353 . S
C1072 H1078 0.930 . S
N1073 Li1056 1.990 . S
N1073 C1072 1.314 . S
N1073 C1075 1.279 . S
C1074 C1075 1.358 . S
C1074 C1076 1.356 . S
C1074 H1128 0.930 . S
C1075 N1073 1.279 . S
C1075 C1074 1.358 . S
C1075 H1079 0.930 . S
C1076 C1074 1.356 . S
C1076 C1077 1.348 . S
C1077 C1072 1.353 . S
C1077 C1076 1.348 . S
C1077 H1129 0.929 . S
H1078 C1072 0.930 . S
H1079 C1075 0.930 . S
C1080 N1081 1.314 . S
C1080 C1082 1.353 . S
C1080 H1086 0.930 . S
N1081 Li1057 1.990 . S
N1081 C1080 1.314 . S
N1081 C1084 1.292 . S
C1082 C1080 1.353 . S
C1082 C1085 1.348 . S
C1082 H1130 0.929 . S
C1083 C1084 1.359 1_655 S
C1083 C1085 1.330 1_655 S
C1083 H1131 0.956 . S
C1084 N1081 1.292 . S
C1084 C1083 1.359 1_455 S
C1084 H1087 0.917 1_455 S
C1085 C1082 1.348 . S
C1085 C1083 1.330 1_455 S
H1086 C1080 0.930 . S
H1087 C1084 0.917 1_655 S
C1088 C1090 1.348 . S
C1088 C1091 1.356 . S
C1088 O1118 1.325 . S
N1089 C1092 1.314 . S
N1089 C1093 1.279 . S
C1090 C1088 1.348 . S
C1090 C1092 1.353 . S
C1090 H1132 0.929 . S
C1091 C1088 1.356 . S
C1091 C1093 1.358 . S
C1091 H1133 0.930 . S
C1092 N1089 1.314 . S
C1092 C1090 1.353 . S
C1092 H1134 0.930 . S
C1093 N1089 1.279 . S
C1093 C1091 1.358 . S
C1093 H1135 0.930 . S
C1094 C1095 1.348 . S
C1094 C1096 1.356 . S
C1094 O1119 1.325 . S
C1095 C1094 1.348 . S
C1095 C1097 1.353 . S
C1095 H1136 0.929 . S
C1096 C1094 1.356 . S
C1096 C1098 1.358 . S
C1096 H1137 0.930 . S
C1097 C1095 1.353 . S
C1097 N1099 1.314 . S
C1097 H1138 0.930 . S
C1098 C1096 1.358 . S
C1098 N1099 1.279 . S
C1098 H1139 0.930 . S
N1099 C1097 1.314 . S
N1099 C1098 1.279 . S
C1100 C1102 1.353 . S
C1100 N1103 1.314 . S
C1100 H1106 0.930 . S
C1101 N1103 1.279 . S
C1101 C1104 1.358 . S
C1101 H1107 0.930 . S
C1102 C1100 1.353 . S
C1102 C1105 1.348 . S
C1102 H1140 0.929 . S
N1103 Li1058 1.990 . S
N1103 C1100 1.314 . S
N1103 C1101 1.279 . S
C1104 C1101 1.358 . S
C1104 C1105 1.356 . S
C1104 H1141 0.930 . S
C1105 C1102 1.348 . S
C1105 C1104 1.356 . S
H1106 C1100 0.930 . S
H1107 C1101 0.930 . S
C1108 N1109 1.314 . S
C1108 C1110 1.353 . S
C1108 H1114 0.930 1_455 S
N1109 Li1059 1.990 . S
N1109 C1108 1.314 . S
N1109 C1112 1.279 . S
C1110 C1108 1.353 . S
C1110 C1113 1.348 . S
C1110 H1142 0.929 1_455 S
C1111 C1112 1.358 . S
C1111 C1113 1.356 . S
C1111 H1143 0.930 . S
C1112 N1109 1.279 . S
C1112 C1111 1.358 . S
C1112 H1115 0.930 . S
C1113 C1110 1.348 . S
C1113 C1111 1.356 . S
H1114 C1108 0.930 1_655 S
H1115 C1112 0.930 . S
O1116 Li1056 1.956 1_455 S
O1116 Li1057 1.970 . S
O1116 Li1058 1.961 . S
O1116 C1060 1.325 . S
O1117 Li1056 1.970 . S
O1117 Li1057 1.956 1_655 S
O1117 Li1059 1.961 1_655 S
O1117 C1066 1.325 . S
O1118 Li1056 1.961 1_455 S
O1118 Li1058 1.956 . S
O1118 Li1059 1.970 . S
O1118 C1088 1.325 . S
O1119 Li1057 1.961 . S
O1119 Li1058 1.970 . S
O1119 Li1059 1.956 . S
O1119 C1094 1.325 . S
H1120 C1062 0.929 . S
H1121 C1063 0.930 . S
H1122 C1064 0.930 . S
H1123 C1065 0.930 . S
H1124 C1067 0.930 . S
H1125 C1069 0.929 . S
H1126 C1070 0.930 . S
H1127 C1071 0.930 . S
H1128 C1074 0.930 . S
H1129 C1077 0.929 . S
H1130 C1082 0.929 . S
H1131 C1083 0.956 . S
H1132 C1090 0.929 . S
H1133 C1091 0.930 . S
H1134 C1092 0.930 . S
H1135 C1093 0.930 . S
H1136 C1095 0.929 . S
H1137 C1096 0.930 . S
H1138 C1097 0.930 . S
H1139 C1098 0.930 . S
H1140 C1102 0.929 . S
H1141 C1104 0.930 . S
H1142 C1110 0.929 1_655 S
H1143 C1111 0.930 . S
Li1144 N1161 1.991 . S
Li1144 O1204 1.987 . S
Li1144 O1205 1.970 1_455 S
Li1144 O1206 1.929 1_455 S
Li1145 N1169 1.990 . S
Li1145 O1204 1.970 . S
Li1145 O1205 1.956 1_455 S
Li1145 O1207 1.984 . S
Li1146 N1191 1.991 . S
Li1146 O1204 1.962 . S
Li1146 O1206 1.955 1_455 S
Li1146 O1207 1.969 . S
Li1147 N1197 1.990 . S
Li1147 O1205 1.961 . S
Li1147 O1206 1.970 . S
Li1147 O1207 1.932 1_655 S
C1148 C1150 1.348 . S
C1148 C1151 1.356 . S
C1148 O1204 1.325 . S
N1149 C1152 1.314 . S
N1149 C1153 1.279 . S
C1150 C1148 1.348 . S
C1150 C1152 1.353 . S
C1150 H1208 0.929 . S
C1151 C1148 1.356 . S
C1151 C1153 1.358 . S
C1151 H1209 0.930 . S
C1152 N1149 1.314 . S
C1152 C1150 1.353 . S
C1152 H1210 0.930 . S
C1153 N1149 1.279 . S
C1153 C1151 1.358 . S
C1153 H1211 0.930 . S
C1154 C1157 1.348 1_655 S
C1154 C1158 1.356 . S
C1154 O1205 1.325 . S
C1155 N1156 1.287 . S
C1155 C1158 1.358 . S
C1155 H1212 0.930 . S
N1156 C1155 1.287 . S
N1156 C1159 1.309 1_655 S
C1157 C1154 1.348 1_455 S
C1157 C1159 1.353 . S
C1157 H1213 0.929 . S
C1158 C1154 1.356 . S
C1158 C1155 1.358 . S
C1158 H1214 0.930 . S
C1159 N1156 1.309 1_455 S
C1159 C1157 1.353 . S
C1159 H1215 0.930 . S
C1160 N1161 1.314 1_655 S
C1160 C1165 1.353 . S
C1160 H1166 0.930 . S
N1161 Li1144 1.991 . S
N1161 C1160 1.314 1_455 S
N1161 C1163 1.279 . S
C1162 C1163 1.358 . S
C1162 C1164 1.370 . S
C1162 H1216 0.930 . S
C1163 N1161 1.279 . S
C1163 C1162 1.358 . S
C1163 H1167 0.930 . S
C1164 C1162 1.370 . S
C1164 C1165 1.333 1_455 S
C1165 C1160 1.353 . S
C1165 C1164 1.333 1_655 S
C1165 H1217 0.929 . S
H1166 C1160 0.930 . S
H1167 C1163 0.930 . S
C1168 N1169 1.314 . S
C1168 C1170 1.353 . S
C1168 H1174 0.930 . S
N1169 Li1145 1.990 . S
N1169 C1168 1.314 . S
N1169 C1172 1.279 . S
C1170 C1168 1.353 . S
C1170 C1173 1.348 . S
C1170 H1218 0.929 . S
C1171 C1172 1.358 . S
C1171 C1173 1.356 . S
C1171 H1219 0.930 . S
C1172 N1169 1.279 . S
C1172 C1171 1.358 . S
C1172 H1175 0.930 . S
C1173 C1170 1.348 . S
C1173 C1171 1.356 . S
H1174 C1168 0.930 . S
H1175 C1172 0.930 . S
C1176 C1178 1.348 . S
C1176 C1179 1.356 . S
C1176 O1206 1.325 . S
N1177 C1180 1.314 . S
N1177 C1181 1.279 . S
C1178 C1176 1.348 . S
C1178 C1180 1.353 . S
C1178 H1220 0.929 . S
C1179 C1176 1.356 . S
C1179 C1181 1.358 . S
C1179 H1221 0.930 . S
C1180 N1177 1.314 . S
C1180 C1178 1.353 . S
C1180 H1222 0.930 . S
C1181 N1177 1.279 . S
C1181 C1179 1.358 . S
C1181 H1223 0.930 . S
C1182 C1183 1.349 1_455 S
C1182 C1184 1.355 . S
C1182 O1207 1.324 . S
C1183 C1182 1.349 1_655 S
C1183 C1185 1.353 . S
C1183 H1224 0.929 . S
C1184 C1182 1.355 . S
C1184 C1186 1.358 . S
C1184 H1225 0.930 . S
C1185 C1183 1.353 . S
C1185 N1187 1.314 . S
C1185 H1226 0.930 . S
C1186 C1184 1.358 . S
C1186 N1187 1.279 1_455 S
C1186 H1227 0.930 . S
N1187 C1185 1.314 . S
N1187 C1186 1.279 1_655 S
C1188 C1190 1.353 . S
C1188 N1191 1.337 . S
C1188 H1194 0.930 . S
C1189 N1191 1.257 1_655 S
C1189 C1192 1.358 . S
C1189 H1195 0.930 . S
C1190 C1188 1.353 . S
C1190 C1193 1.348 . S
C1190 H1228 0.929 . S
N1191 Li1146 1.991 . S
N1191 C1188 1.337 . S
N1191 C1189 1.257 1_455 S
C1192 C1189 1.358 . S
C1192 C1193 1.356 1_655 S
C1192 H1229 0.930 . S
C1193 C1190 1.348 . S
C1193 C1192 1.356 1_455 S
H1194 C1188 0.930 . S
H1195 C1189 0.930 . S
C1196 N1197 1.314 . S
C1196 C1198 1.353 . S
C1196 H1202 0.930 . S
N1197 Li1147 1.990 . S
N1197 C1196 1.314 . S
N1197 C1200 1.279 . S
C1198 C1196 1.353 . S
C1198 C1201 1.348 . S
C1198 H1230 0.929 . S
C1199 C1200 1.358 . S
C1199 C1201 1.356 . S
C1199 H1231 0.930 . S
C1200 N1197 1.279 . S
C1200 C1199 1.358 . S
C1200 H1203 0.930 . S
C1201 C1198 1.348 . S
C1201 C1199 1.356 . S
H1202 C1196 0.930 . S
H1203 C1200 0.930 . S
O1204 Li1144 1.987 . S
O1204 Li1145 1.970 . S
O1204 Li1146 1.962 . S
O1204 C1148 1.325 . S
O1205 Li1144 1.970 1_655 S
O1205 Li1145 1.956 1_655 S
O1205 Li1147 1.961 . S
O1205 C1154 1.325 . S
O1206 Li1144 1.929 1_655 S
O1206 Li1146 1.955 1_655 S
O1206 Li1147 1.970 . S
O1206 C1176 1.325 . S
O1207 Li1145 1.984 . S
O1207 Li1146 1.969 . S
O1207 Li1147 1.932 1_455 S
O1207 C1182 1.324 . S
H1208 C1150 0.929 . S
H1209 C1151 0.930 . S
H1210 C1152 0.930 . S
H1211 C1153 0.930 . S
H1212 C1155 0.930 . S
H1213 C1157 0.929 . S
H1214 C1158 0.930 . S
H1215 C1159 0.930 . S
H1216 C1162 0.930 . S
H1217 C1165 0.929 . S
H1218 C1170 0.929 . S
H1219 C1171 0.930 . S
H1220 C1178 0.929 . S
H1221 C1179 0.930 . S
H1222 C1180 0.930 . S
H1223 C1181 0.930 . S
H1224 C1183 0.929 . S
H1225 C1184 0.930 . S
H1226 C1185 0.930 . S
H1227 C1186 0.930 . S
H1228 C1190 0.929 . S
H1229 C1192 0.930 . S
H1230 C1198 0.929 . S
H1231 C1199 0.930 . S
Li1232 N1249 1.990 . S
Li1232 O1292 1.956 . S
Li1232 O1293 1.970 . S
Li1232 O1294 1.961 . S
Li1233 N1257 1.990 . S
Li1233 O1292 1.970 . S
Li1233 O1293 1.956 . S
Li1233 O1295 1.961 . S
Li1234 N1279 1.990 . S
Li1234 O1292 1.961 . S
Li1234 O1294 1.956 . S
Li1234 O1295 1.970 . S
Li1235 N1285 1.990 . S
Li1235 O1293 1.961 . S
Li1235 O1294 1.970 . S
Li1235 O1295 1.956 . S
C1236 C1238 1.348 . S
C1236 C1239 1.356 . S
C1236 O1292 1.325 . S
N1237 C1240 1.314 . S
N1237 C1241 1.279 . S
C1238 C1236 1.348 . S
C1238 C1240 1.353 . S
C1238 H1296 0.929 . S
C1239 C1236 1.356 . S
C1239 C1241 1.358 . S
C1239 H1297 0.930 . S
C1240 N1237 1.314 . S
C1240 C1238 1.353 . S
C1240 H1298 0.930 . S
C1241 N1237 1.279 . S
C1241 C1239 1.358 . S
C1241 H1299 0.930 . S
C1242 C1245 1.348 . S
C1242 C1246 1.356 . S
C1242 O1293 1.325 . S
C1243 N1244 1.279 . S
C1243 C1246 1.358 . S
C1243 H1300 0.930 . S
N1244 C1243 1.279 . S
N1244 C1247 1.314 . S
C1245 C1242 1.348 . S
C1245 C1247 1.353 . S
C1245 H1301 0.929 . S
C1246 C1242 1.356 . S
C1246 C1243 1.358 . S
C1246 H1302 0.930 . S
C1247 N1244 1.314 . S
C1247 C1245 1.353 . S
C1247 H1303 0.930 . S
C1248 N1249 1.314 . S
C1248 C1253 1.353 . S
C1248 H1254 0.930 . S
N1249 Li1232 1.990 . S
N1249 C1248 1.314 . S
N1249 C1251 1.279 . S
C1250 C1251 1.358 . S
C1250 C1252 1.356 . S
C1250 H1304 0.930 . S
C1251 N1249 1.279 . S
C1251 C1250 1.358 . S
C1251 H1255 0.930 . S
C1252 C1250 1.356 . S
C1252 C1253 1.348 . S
C1253 C1248 1.353 . S
C1253 C1252 1.348 . S
C1253 H1305 0.929 . S
H1254 C1248 0.930 . S
H1255 C1251 0.930 . S
C1256 N1257 1.314 . S
C1256 C1258 1.353 . S
C1256 H1262 0.930 . S
N1257 Li1233 1.990 . S
N1257 C1256 1.314 . S
N1257 C1260 1.279 . S
C1258 C1256 1.353 . S
C1258 C1261 1.348 . S
C1258 H1306 0.929 . S
C1259 C1260 1.358 . S
C1259 C1261 1.356 . S
C1259 H1307 0.930 . S
C1260 N1257 1.279 . S
C1260 C1259 1.358 . S
C1260 H1263 0.930 . S
C1261 C1258 1.348 . S
C1261 C1259 1.356 . S
H1262 C1256 0.930 . S
H1263 C1260 0.930 . S
C1264 C1266 1.348 . S
C1264 C1267 1.356 . S
C1264 O1294 1.325 . S
N1265 C1268 1.314 . S
N1265 C1269 1.279 . S
C1266 C1264 1.348 . S
C1266 C1268 1.353 . S
C1266 H1308 0.929 . S
C1267 C1264 1.356 . S
C1267 C1269 1.358 . S
C1267 H1309 0.930 . S
C1268 N1265 1.314 . S
C1268 C1266 1.353 . S
C1268 H1310 0.930 . S
C1269 N1265 1.279 . S
C1269 C1267 1.358 . S
C1269 H1311 0.930 . S
C1270 C1271 1.348 . S
C1270 C1272 1.356 . S
C1270 O1295 1.325 . S
C1271 C1270 1.348 . S
C1271 C1273 1.353 . S
C1271 H1312 0.929 . S
C1272 C1270 1.356 . S
C1272 C1274 1.358 . S
C1272 H1313 0.930 . S
C1273 C1271 1.353 . S
C1273 N1275 1.314 . S
C1273 H1314 0.930 . S
C1274 C1272 1.358 . S
C1274 N1275 1.279 . S
C1274 H1315 0.930 . S
N1275 C1273 1.314 . S
N1275 C1274 1.279 . S
C1276 C1278 1.353 . S
C1276 N1279 1.314 . S
C1276 H1282 0.930 . S
C1277 N1279 1.279 . S
C1277 C1280 1.358 . S
C1277 H1283 0.930 . S
C1278 C1276 1.353 . S
C1278 C1281 1.348 . S
C1278 H1316 0.929 . S
N1279 Li1234 1.990 . S
N1279 C1276 1.314 . S
N1279 C1277 1.279 . S
C1280 C1277 1.358 . S
C1280 C1281 1.356 . S
C1280 H1317 0.930 . S
C1281 C1278 1.348 . S
C1281 C1280 1.356 . S
H1282 C1276 0.930 . S
H1283 C1277 0.930 . S
C1284 N1285 1.314 . S
C1284 C1286 1.353 . S
C1284 H1290 0.930 . S
N1285 Li1235 1.990 . S
N1285 C1284 1.314 . S
N1285 C1288 1.279 . S
C1286 C1284 1.353 . S
C1286 C1289 1.348 . S
C1286 H1318 0.929 . S
C1287 C1288 1.358 . S
C1287 C1289 1.356 . S
C1287 H1319 0.930 . S
C1288 N1285 1.279 . S
C1288 C1287 1.358 . S
C1288 H1291 0.930 . S
C1289 C1286 1.348 . S
C1289 C1287 1.356 . S
H1290 C1284 0.930 . S
H1291 C1288 0.930 . S
O1292 Li1232 1.956 . S
O1292 Li1233 1.970 . S
O1292 Li1234 1.961 . S
O1292 C1236 1.325 . S
O1293 Li1232 1.970 . S
O1293 Li1233 1.956 . S
O1293 Li1235 1.961 . S
O1293 C1242 1.325 . S
O1294 Li1232 1.961 . S
O1294 Li1234 1.956 . S
O1294 Li1235 1.970 . S
O1294 C1264 1.325 . S
O1295 Li1233 1.961 . S
O1295 Li1234 1.970 . S
O1295 Li1235 1.956 . S
O1295 C1270 1.325 . S
H1296 C1238 0.929 . S
H1297 C1239 0.930 . S
H1298 C1240 0.930 . S
H1299 C1241 0.930 . S
H1300 C1243 0.930 . S
H1301 C1245 0.929 . S
H1302 C1246 0.930 . S
H1303 C1247 0.930 . S
H1304 C1250 0.930 . S
H1305 C1253 0.929 . S
H1306 C1258 0.929 . S
H1307 C1259 0.930 . S
H1308 C1266 0.929 . S
H1309 C1267 0.930 . S
H1310 C1268 0.930 . S
H1311 C1269 0.930 . S
H1312 C1271 0.929 . S
H1313 C1272 0.930 . S
H1314 C1273 0.930 . S
H1315 C1274 0.930 . S
H1316 C1278 0.929 . S
H1317 C1280 0.930 . S
H1318 C1286 0.929 . S
H1319 C1287 0.930 . S
Li1320 N1337 1.990 . S
Li1320 O1380 1.956 . S
Li1320 O1381 1.970 . S
Li1320 O1382 1.961 . S
Li1321 N1345 1.990 . S
Li1321 O1380 1.970 . S
Li1321 O1381 1.956 . S
Li1321 O1383 1.961 . S
Li1322 N1367 1.990 . S
Li1322 O1380 1.961 . S
Li1322 O1382 1.956 . S
Li1322 O1383 1.970 . S
Li1323 N1373 1.990 . S
Li1323 O1381 1.961 . S
Li1323 O1382 1.970 . S
Li1323 O1383 1.956 . S
C1324 C1326 1.348 . S
C1324 C1327 1.356 . S
C1324 O1380 1.325 . S
N1325 C1328 1.314 . S
N1325 C1329 1.279 . S
C1326 C1324 1.348 . S
C1326 C1328 1.353 . S
C1326 H1384 0.929 . S
C1327 C1324 1.356 . S
C1327 C1329 1.358 . S
C1327 H1385 0.930 . S
C1328 N1325 1.314 . S
C1328 C1326 1.353 . S
C1328 H1386 0.930 . S
C1329 N1325 1.279 . S
C1329 C1327 1.358 . S
C1329 H1387 0.930 . S
C1330 C1333 1.348 . S
C1330 C1334 1.356 . S
C1330 O1381 1.325 . S
C1331 N1332 1.279 . S
C1331 C1334 1.358 . S
C1331 H1388 0.930 . S
N1332 C1331 1.279 . S
N1332 C1335 1.314 . S
C1333 C1330 1.348 . S
C1333 C1335 1.353 . S
C1333 H1389 0.929 . S
C1334 C1330 1.356 . S
C1334 C1331 1.358 . S
C1334 H1390 0.930 . S
C1335 N1332 1.314 . S
C1335 C1333 1.353 . S
C1335 H1391 0.930 . S
C1336 N1337 1.314 . S
C1336 C1341 1.353 . S
C1336 H1342 0.930 . S
N1337 Li1320 1.990 . S
N1337 C1336 1.314 . S
N1337 C1339 1.279 . S
C1338 C1339 1.358 . S
C1338 C1340 1.356 . S
C1338 H1392 0.930 . S
C1339 N1337 1.279 . S
C1339 C1338 1.358 . S
C1339 H1343 0.930 . S
C1340 C1338 1.356 . S
C1340 C1341 1.348 . S
C1341 C1336 1.353 . S
C1341 C1340 1.348 . S
C1341 H1393 0.929 . S
H1342 C1336 0.930 . S
H1343 C1339 0.930 . S
C1344 N1345 1.314 . S
C1344 C1346 1.353 . S
C1344 H1350 0.930 . S
N1345 Li1321 1.990 . S
N1345 C1344 1.314 . S
N1345 C1348 1.279 . S
C1346 C1344 1.353 . S
C1346 C1349 1.348 . S
C1346 H1394 0.929 . S
C1347 C1348 1.358 . S
C1347 C1349 1.356 . S
C1347 H1395 0.930 . S
C1348 N1345 1.279 . S
C1348 C1347 1.358 . S
C1348 H1351 0.930 . S
C1349 C1346 1.348 . S
C1349 C1347 1.356 . S
H1350 C1344 0.930 . S
H1351 C1348 0.930 . S
C1352 C1354 1.348 . S
C1352 C1355 1.356 . S
C1352 O1382 1.325 . S
N1353 C1356 1.314 . S
N1353 C1357 1.279 . S
C1354 C1352 1.348 . S
C1354 C1356 1.353 . S
C1354 H1396 0.929 . S
C1355 C1352 1.356 . S
C1355 C1357 1.358 . S
C1355 H1397 0.930 . S
C1356 N1353 1.314 . S
C1356 C1354 1.353 . S
C1356 H1398 0.930 . S
C1357 N1353 1.279 . S
C1357 C1355 1.358 . S
C1357 H1399 0.930 . S
C1358 C1359 1.348 . S
C1358 C1360 1.356 . S
C1358 O1383 1.325 . S
C1359 C1358 1.348 . S
C1359 C1361 1.353 . S
C1359 H1400 0.929 . S
C1360 C1358 1.356 . S
C1360 C1362 1.358 . S
C1360 H1401 0.930 . S
C1361 C1359 1.353 . S
C1361 N1363 1.314 . S
C1361 H1402 0.930 . S
C1362 C1360 1.358 . S
C1362 N1363 1.279 . S
C1362 H1403 0.930 . S
N1363 C1361 1.314 . S
N1363 C1362 1.279 . S
C1364 C1366 1.353 . S
C1364 N1367 1.314 . S
C1364 H1370 0.930 . S
C1365 N1367 1.279 . S
C1365 C1368 1.358 . S
C1365 H1371 0.930 . S
C1366 C1364 1.353 . S
C1366 C1369 1.348 . S
C1366 H1404 0.929 . S
N1367 Li1322 1.990 . S
N1367 C1364 1.314 . S
N1367 C1365 1.279 . S
C1368 C1365 1.358 . S
C1368 C1369 1.356 . S
C1368 H1405 0.930 . S
C1369 C1366 1.348 . S
C1369 C1368 1.356 . S
H1370 C1364 0.930 . S
H1371 C1365 0.930 . S
C1372 N1373 1.314 . S
C1372 C1374 1.353 . S
C1372 H1378 0.930 . S
N1373 Li1323 1.990 . S
N1373 C1372 1.314 . S
N1373 C1376 1.279 . S
C1374 C1372 1.353 . S
C1374 C1377 1.348 . S
C1374 H1406 0.929 . S
C1375 C1376 1.358 . S
C1375 C1377 1.356 . S
C1375 H1407 0.930 . S
C1376 N1373 1.279 . S
C1376 C1375 1.358 . S
C1376 H1379 0.930 . S
C1377 C1374 1.348 . S
C1377 C1375 1.356 . S
H1378 C1372 0.930 . S
H1379 C1376 0.930 . S
O1380 Li1320 1.956 . S
O1380 Li1321 1.970 . S
O1380 Li1322 1.961 . S
O1380 C1324 1.325 . S
O1381 Li1320 1.970 . S
O1381 Li1321 1.956 . S
O1381 Li1323 1.961 . S
O1381 C1330 1.325 . S
O1382 Li1320 1.961 . S
O1382 Li1322 1.956 . S
O1382 Li1323 1.970 . S
O1382 C1352 1.325 . S
O1383 Li1321 1.961 . S
O1383 Li1322 1.970 . S
O1383 Li1323 1.956 . S
O1383 C1358 1.325 . S
H1384 C1326 0.929 . S
H1385 C1327 0.930 . S
H1386 C1328 0.930 . S
H1387 C1329 0.930 . S
H1388 C1331 0.930 . S
H1389 C1333 0.929 . S
H1390 C1334 0.930 . S
H1391 C1335 0.930 . S
H1392 C1338 0.930 . S
H1393 C1341 0.929 . S
H1394 C1346 0.929 . S
H1395 C1347 0.930 . S
H1396 C1354 0.929 . S
H1397 C1355 0.930 . S
H1398 C1356 0.930 . S
H1399 C1357 0.930 . S
H1400 C1359 0.929 . S
H1401 C1360 0.930 . S
H1402 C1361 0.930 . S
H1403 C1362 0.930 . S
H1404 C1366 0.929 . S
H1405 C1368 0.930 . S
H1406 C1374 0.929 . S
H1407 C1375 0.930 . S
Li1408 N1425 1.990 . S
Li1408 O1468 1.956 . S
Li1408 O1469 1.970 . S
Li1408 O1470 1.961 . S
Li1409 N1433 1.990 . S
Li1409 O1468 1.970 . S
Li1409 O1469 1.956 . S
Li1409 O1471 1.961 . S
Li1410 N1455 1.990 . S
Li1410 O1468 1.961 . S
Li1410 O1470 1.956 . S
Li1410 O1471 1.970 . S
Li1411 N1461 1.990 . S
Li1411 O1469 1.961 . S
Li1411 O1470 1.970 . S
Li1411 O1471 1.956 . S
C1412 C1414 1.348 1_545 S
C1412 C1415 1.356 . S
C1412 O1468 1.325 . S
N1413 C1416 1.314 . S
N1413 C1417 1.279 . S
C1414 C1412 1.348 1_565 S
C1414 C1416 1.353 . S
C1414 H1472 0.929 . S
C1415 C1412 1.356 . S
C1415 C1417 1.358 1_545 S
C1415 H1473 0.930 . S
C1416 N1413 1.314 . S
C1416 C1414 1.353 . S
C1416 H1474 0.930 . S
C1417 N1413 1.279 . S
C1417 C1415 1.358 1_565 S
C1417 H1475 0.930 . S
C1418 C1421 1.348 . S
C1418 C1422 1.356 . S
C1418 O1469 1.325 . S
C1419 N1420 1.279 . S
C1419 C1422 1.358 . S
C1419 H1476 0.930 . S
N1420 C1419 1.279 . S
N1420 C1423 1.314 . S
C1421 C1418 1.348 . S
C1421 C1423 1.353 . S
C1421 H1477 0.929 . S
C1422 C1418 1.356 . S
C1422 C1419 1.358 . S
C1422 H1478 0.930 . S
C1423 N1420 1.314 . S
C1423 C1421 1.353 . S
C1423 H1479 0.930 . S
C1424 N1425 1.314 . S
C1424 C1429 1.353 . S
C1424 H1430 0.930 . S
N1425 Li1408 1.990 . S
N1425 C1424 1.314 . S
N1425 C1427 1.279 . S
C1426 C1427 1.358 . S
C1426 C1428 1.356 . S
C1426 H1480 0.930 . S
C1427 N1425 1.279 . S
C1427 C1426 1.358 . S
C1427 H1431 0.930 . S
C1428 C1426 1.356 . S
C1428 C1429 1.348 . S
C1429 C1424 1.353 . S
C1429 C1428 1.348 . S
C1429 H1481 0.929 . S
H1430 C1424 0.930 . S
H1431 C1427 0.930 . S
C1432 N1433 1.314 1_565 S
C1432 C1434 1.353 . S
C1432 H1438 0.930 . S
N1433 Li1409 1.990 . S
N1433 C1432 1.314 1_545 S
N1433 C1436 1.279 1_545 S
C1434 C1432 1.353 . S
C1434 C1437 1.348 . S
C1434 H1482 0.929 . S
C1435 C1436 1.358 . S
C1435 C1437 1.356 . S
C1435 H1483 0.930 . S
C1436 N1433 1.279 1_565 S
C1436 C1435 1.358 . S
C1436 H1439 0.930 1_565 S
C1437 C1434 1.348 . S
C1437 C1435 1.356 . S
H1438 C1432 0.930 . S
H1439 C1436 0.930 1_545 S
C1440 C1442 1.348 . S
C1440 C1443 1.356 . S
C1440 O1470 1.325 . S
N1441 C1444 1.314 . S
N1441 C1445 1.279 . S
C1442 C1440 1.348 . S
C1442 C1444 1.353 . S
C1442 H1484 0.929 . S
C1443 C1440 1.356 . S
C1443 C1445 1.358 . S
C1443 H1485 0.930 . S
C1444 N1441 1.314 . S
C1444 C1442 1.353 . S
C1444 H1486 0.930 . S
C1445 N1441 1.279 . S
C1445 C1443 1.358 . S
C1445 H1487 0.930 . S
C1446 C1447 1.348 . S
C1446 C1448 1.356 . S
C1446 O1471 1.325 . S
C1447 C1446 1.348 . S
C1447 C1449 1.353 . S
C1447 H1488 0.929 . S
C1448 C1446 1.356 . S
C1448 C1450 1.358 . S
C1448 H1489 0.930 . S
C1449 C1447 1.353 . S
C1449 N1451 1.314 . S
C1449 H1490 0.930 . S
C1450 C1448 1.358 . S
C1450 N1451 1.279 . S
C1450 H1491 0.930 . S
N1451 C1449 1.314 . S
N1451 C1450 1.279 . S
C1452 C1454 1.353 . S
C1452 N1455 1.314 . S
C1452 H1458 0.930 . S
C1453 N1455 1.279 . S
C1453 C1456 1.358 . S
C1453 H1459 0.930 . S
C1454 C1452 1.353 . S
C1454 C1457 1.348 . S
C1454 H1492 0.929 . S
N1455 Li1410 1.990 . S
N1455 C1452 1.314 . S
N1455 C1453 1.279 . S
C1456 C1453 1.358 . S
C1456 C1457 1.356 . S
C1456 H1493 0.930 . S
C1457 C1454 1.348 . S
C1457 C1456 1.356 . S
H1458 C1452 0.930 . S
H1459 C1453 0.930 . S
C1460 N1461 1.314 . S
C1460 C1462 1.353 . S
C1460 H1466 0.930 . S
N1461 Li1411 1.990 . S
N1461 C1460 1.314 . S
N1461 C1464 1.279 . S
C1462 C1460 1.353 . S
C1462 C1465 1.348 . S
C1462 H1494 0.929 . S
C1463 C1464 1.358 . S
C1463 C1465 1.356 . S
C1463 H1495 0.930 . S
C1464 N1461 1.279 . S
C1464 C1463 1.358 . S
C1464 H1467 0.930 . S
C1465 C1462 1.348 . S
C1465 C1463 1.356 . S
H1466 C1460 0.930 . S
H1467 C1464 0.930 . S
O1468 Li1408 1.956 . S
O1468 Li1409 1.970 . S
O1468 Li1410 1.961 . S
O1468 C1412 1.325 . S
O1469 Li1408 1.970 . S
O1469 Li1409 1.956 . S
O1469 Li1411 1.961 . S
O1469 C1418 1.325 . S
O1470 Li1408 1.961 . S
O1470 Li1410 1.956 . S
O1470 Li1411 1.970 . S
O1470 C1440 1.325 . S
O1471 Li1409 1.961 . S
O1471 Li1410 1.970 . S
O1471 Li1411 1.956 . S
O1471 C1446 1.325 . S
H1472 C1414 0.929 . S
H1473 C1415 0.930 . S
H1474 C1416 0.930 . S
H1475 C1417 0.930 . S
H1476 C1419 0.930 . S
H1477 C1421 0.929 . S
H1478 C1422 0.930 . S
H1479 C1423 0.930 . S
H1480 C1426 0.930 . S
H1481 C1429 0.929 . S
H1482 C1434 0.929 . S
H1483 C1435 0.930 . S
H1484 C1442 0.929 . S
H1485 C1443 0.930 . S
H1486 C1444 0.930 . S
H1487 C1445 0.930 . S
H1488 C1447 0.929 . S
H1489 C1448 0.930 . S
H1490 C1449 0.930 . S
H1491 C1450 0.930 . S
H1492 C1454 0.929 . S
H1493 C1456 0.930 . S
H1494 C1462 0.929 . S
H1495 C1463 0.930 . S
Li1496 N1513 1.990 . S
Li1496 O1556 1.956 . S
Li1496 O1557 1.970 . S
Li1496 O1558 1.961 . S
Li1497 N1521 1.990 . S
Li1497 O1556 1.970 . S
Li1497 O1557 1.956 . S
Li1497 O1559 1.961 . S
Li1498 N1543 1.990 . S
Li1498 O1556 1.961 . S
Li1498 O1558 1.956 . S
Li1498 O1559 1.970 . S
Li1499 N1549 1.990 . S
Li1499 O1557 1.961 . S
Li1499 O1558 1.970 . S
Li1499 O1559 1.956 . S
C1500 C1502 1.348 . S
C1500 C1503 1.356 . S
C1500 O1556 1.325 . S
N1501 C1504 1.314 . S
N1501 C1505 1.279 . S
C1502 C1500 1.348 . S
C1502 C1504 1.353 . S
C1502 H1560 0.929 . S
C1503 C1500 1.356 . S
C1503 C1505 1.358 . S
C1503 H1561 0.930 . S
C1504 N1501 1.314 . S
C1504 C1502 1.353 . S
C1504 H1562 0.930 . S
C1505 N1501 1.279 . S
C1505 C1503 1.358 . S
C1505 H1563 0.930 . S
C1506 C1509 1.348 . S
C1506 C1510 1.356 . S
C1506 O1557 1.325 . S
C1507 N1508 1.279 . S
C1507 C1510 1.358 . S
C1507 H1564 0.930 . S
N1508 C1507 1.279 . S
N1508 C1511 1.314 . S
C1509 C1506 1.348 . S
C1509 C1511 1.353 . S
C1509 H1565 0.929 . S
C1510 C1506 1.356 . S
C1510 C1507 1.358 . S
C1510 H1566 0.930 . S
C1511 N1508 1.314 . S
C1511 C1509 1.353 . S
C1511 H1567 0.930 . S
C1512 N1513 1.314 . S
C1512 C1517 1.353 . S
C1512 H1518 0.930 . S
N1513 Li1496 1.990 . S
N1513 C1512 1.314 . S
N1513 C1515 1.279 . S
C1514 C1515 1.358 . S
C1514 C1516 1.356 . S
C1514 H1568 0.930 . S
C1515 N1513 1.279 . S
C1515 C1514 1.358 . S
C1515 H1519 0.930 . S
C1516 C1514 1.356 . S
C1516 C1517 1.348 . S
C1517 C1512 1.353 . S
C1517 C1516 1.348 . S
C1517 H1569 0.929 . S
H1518 C1512 0.930 . S
H1519 C1515 0.930 . S
C1520 N1521 1.314 . S
C1520 C1522 1.353 . S
C1520 H1526 0.930 . S
N1521 Li1497 1.990 . S
N1521 C1520 1.314 . S
N1521 C1524 1.279 . S
C1522 C1520 1.353 . S
C1522 C1525 1.348 . S
C1522 H1570 0.929 . S
C1523 C1524 1.358 . S
C1523 C1525 1.356 . S
C1523 H1571 0.930 . S
C1524 N1521 1.279 . S
C1524 C1523 1.358 . S
C1524 H1527 0.930 . S
C1525 C1522 1.348 . S
C1525 C1523 1.356 . S
H1526 C1520 0.930 . S
H1527 C1524 0.930 . S
C1528 C1530 1.348 . S
C1528 C1531 1.356 . S
C1528 O1558 1.325 . S
N1529 C1532 1.314 . S
N1529 C1533 1.279 . S
C1530 C1528 1.348 . S
C1530 C1532 1.353 . S
C1530 H1572 0.929 . S
C1531 C1528 1.356 . S
C1531 C1533 1.358 . S
C1531 H1573 0.930 . S
C1532 N1529 1.314 . S
C1532 C1530 1.353 . S
C1532 H1574 0.930 . S
C1533 N1529 1.279 . S
C1533 C1531 1.358 . S
C1533 H1575 0.930 . S
C1534 C1535 1.348 . S
C1534 C1536 1.356 . S
C1534 O1559 1.325 . S
C1535 C1534 1.348 . S
C1535 C1537 1.353 . S
C1535 H1576 0.929 . S
C1536 C1534 1.356 . S
C1536 C1538 1.358 . S
C1536 H1577 0.930 . S
C1537 C1535 1.353 . S
C1537 N1539 1.314 . S
C1537 H1578 0.930 . S
C1538 C1536 1.358 . S
C1538 N1539 1.279 . S
C1538 H1579 0.930 . S
N1539 C1537 1.314 . S
N1539 C1538 1.279 . S
C1540 C1542 1.353 . S
C1540 N1543 1.314 . S
C1540 H1546 0.930 . S
C1541 N1543 1.279 . S
C1541 C1544 1.358 . S
C1541 H1547 0.930 . S
C1542 C1540 1.353 . S
C1542 C1545 1.348 . S
C1542 H1580 0.929 . S
N1543 Li1498 1.990 . S
N1543 C1540 1.314 . S
N1543 C1541 1.279 . S
C1544 C1541 1.358 . S
C1544 C1545 1.356 . S
C1544 H1581 0.930 . S
C1545 C1542 1.348 . S
C1545 C1544 1.356 . S
H1546 C1540 0.930 . S
H1547 C1541 0.930 . S
C1548 N1549 1.314 . S
C1548 C1550 1.353 . S
C1548 H1554 0.930 . S
N1549 Li1499 1.990 . S
N1549 C1548 1.314 . S
N1549 C1552 1.279 . S
C1550 C1548 1.353 . S
C1550 C1553 1.348 . S
C1550 H1582 0.929 . S
C1551 C1552 1.358 . S
C1551 C1553 1.356 . S
C1551 H1583 0.930 . S
C1552 N1549 1.279 . S
C1552 C1551 1.358 . S
C1552 H1555 0.930 . S
C1553 C1550 1.348 . S
C1553 C1551 1.356 . S
H1554 C1548 0.930 . S
H1555 C1552 0.930 . S
O1556 Li1496 1.956 . S
O1556 Li1497 1.970 . S
O1556 Li1498 1.961 . S
O1556 C1500 1.325 . S
O1557 Li1496 1.970 . S
O1557 Li1497 1.956 . S
O1557 Li1499 1.961 . S
O1557 C1506 1.325 . S
O1558 Li1496 1.961 . S
O1558 Li1498 1.956 . S
O1558 Li1499 1.970 . S
O1558 C1528 1.325 . S
O1559 Li1497 1.961 . S
O1559 Li1498 1.970 . S
O1559 Li1499 1.956 . S
O1559 C1534 1.325 . S
H1560 C1502 0.929 . S
H1561 C1503 0.930 . S
H1562 C1504 0.930 . S
H1563 C1505 0.930 . S
H1564 C1507 0.930 . S
H1565 C1509 0.929 . S
H1566 C1510 0.930 . S
H1567 C1511 0.930 . S
H1568 C1514 0.930 . S
H1569 C1517 0.929 . S
H1570 C1522 0.929 . S
H1571 C1523 0.930 . S
H1572 C1530 0.929 . S
H1573 C1531 0.930 . S
H1574 C1532 0.930 . S
H1575 C1533 0.930 . S
H1576 C1535 0.929 . S
H1577 C1536 0.930 . S
H1578 C1537 0.930 . S
H1579 C1538 0.930 . S
H1580 C1542 0.929 . S
H1581 C1544 0.930 . S
H1582 C1550 0.929 . S
H1583 C1551 0.930 . S
Li1584 N1601 1.990 . S
Li1584 O1644 1.956 . S
Li1584 O1645 1.970 . S
Li1584 O1646 1.961 1_545 S
Li1585 N1609 1.990 . S
Li1585 O1644 1.970 . S
Li1585 O1645 1.956 . S
Li1585 O1647 1.961 . S
Li1586 N1631 1.990 . S
Li1586 O1644 1.961 . S
Li1586 O1646 1.956 1_545 S
Li1586 O1647 1.970 . S
Li1587 N1637 1.990 . S
Li1587 O1645 1.961 1_565 S
Li1587 O1646 1.970 . S
Li1587 O1647 1.956 1_565 S
C1588 C1590 1.348 . S
C1588 C1591 1.356 . S
C1588 O1644 1.325 . S
N1589 C1592 1.314 . S
N1589 C1593 1.279 . S
C1590 C1588 1.348 . S
C1590 C1592 1.353 . S
C1590 H1648 0.929 . S
C1591 C1588 1.356 . S
C1591 C1593 1.358 . S
C1591 H1649 0.930 . S
C1592 N1589 1.314 . S
C1592 C1590 1.353 . S
C1592 H1650 0.930 . S
C1593 N1589 1.279 . S
C1593 C1591 1.358 . S
C1593 H1651 0.930 . S
C1594 C1597 1.348 . S
C1594 C1598 1.356 . S
C1594 O1645 1.325 . S
C1595 N1596 1.279 . S
C1595 C1598 1.358 . S
C1595 H1652 0.930 1_545 S
N1596 C1595 1.279 . S
N1596 C1599 1.314 . S
C1597 C1594 1.348 . S
C1597 C1599 1.353 . S
C1597 H1653 0.929 . S
C1598 C1594 1.356 . S
C1598 C1595 1.358 . S
C1598 H1654 0.930 1_545 S
C1599 N1596 1.314 . S
C1599 C1597 1.353 . S
C1599 H1655 0.930 . S
C1600 N1601 1.314 1_565 S
C1600 C1605 1.353 . S
C1600 H1606 0.930 . S
N1601 Li1584 1.990 . S
N1601 C1600 1.314 1_545 S
N1601 C1603 1.279 . S
C1602 C1603 1.358 . S
C1602 C1604 1.356 . S
C1602 H1656 0.930 . S
C1603 N1601 1.279 . S
C1603 C1602 1.358 . S
C1603 H1607 0.930 . S
C1604 C1602 1.356 . S
C1604 C1605 1.348 1_545 S
C1605 C1600 1.353 . S
C1605 C1604 1.348 1_565 S
C1605 H1657 0.929 . S
H1606 C1600 0.930 . S
H1607 C1603 0.930 . S
C1608 N1609 1.314 . S
C1608 C1610 1.353 . S
C1608 H1614 0.930 . S
N1609 Li1585 1.990 . S
N1609 C1608 1.314 . S
N1609 C1612 1.279 . S
C1610 C1608 1.353 . S
C1610 C1613 1.348 . S
C1610 H1658 0.929 . S
C1611 C1612 1.358 . S
C1611 C1613 1.356 . S
C1611 H1659 0.930 . S
C1612 N1609 1.279 . S
C1612 C1611 1.358 . S
C1612 H1615 0.930 . S
C1613 C1610 1.348 . S
C1613 C1611 1.356 . S
H1614 C1608 0.930 . S
H1615 C1612 0.930 . S
C1616 C1618 1.348 . S
C1616 C1619 1.356 . S
C1616 O1646 1.325 . S
N1617 C1620 1.314 . S
N1617 C1621 1.279 . S
C1618 C1616 1.348 . S
C1618 C1620 1.353 . S
C1618 H1660 0.929 . S
C1619 C1616 1.356 . S
C1619 C1621 1.358 . S
C1619 H1661 0.930 . S
C1620 N1617 1.314 . S
C1620 C1618 1.353 . S
C1620 H1662 0.930 . S
C1621 N1617 1.279 . S
C1621 C1619 1.358 . S
C1621 H1663 0.930 . S
C1622 C1623 1.363 . S
C1622 C1624 1.356 . S
C1622 O1647 1.325 . S
C1623 C1622 1.363 . S
C1623 C1625 1.353 . S
C1623 H1664 0.916 1_545 S
C1624 C1622 1.356 . S
C1624 C1626 1.358 . S
C1624 H1665 0.930 . S
C1625 C1623 1.353 . S
C1625 N1627 1.324 . S
C1625 H1666 0.920 1_545 S
C1626 C1624 1.358 . S
C1626 N1627 1.279 . S
C1626 H1667 0.930 . S
N1627 C1625 1.324 . S
N1627 C1626 1.279 . S
C1628 C1630 1.353 . S
C1628 N1631 1.314 . S
C1628 H1634 0.930 . S
C1629 N1631 1.279 1_565 S
C1629 C1632 1.358 . S
C1629 H1635 0.930 . S
C1630 C1628 1.353 . S
C1630 C1633 1.348 . S
C1630 H1668 0.929 . S
N1631 Li1586 1.990 . S
N1631 C1628 1.314 . S
N1631 C1629 1.279 1_545 S
C1632 C1629 1.358 . S
C1632 C1633 1.356 1_565 S
C1632 H1669 0.930 . S
C1633 C1630 1.348 . S
C1633 C1632 1.356 1_545 S
H1634 C1628 0.930 . S
H1635 C1629 0.930 . S
C1636 N1637 1.314 . S
C1636 C1638 1.353 . S
C1636 H1642 0.930 . S
N1637 Li1587 1.990 . S
N1637 C1636 1.314 . S
N1637 C1640 1.279 . S
C1638 C1636 1.353 . S
C1638 C1641 1.348 . S
C1638 H1670 0.929 . S
C1639 C1640 1.358 . S
C1639 C1641 1.356 . S
C1639 H1671 0.930 . S
C1640 N1637 1.279 . S
C1640 C1639 1.358 . S
C1640 H1643 0.930 . S
C1641 C1638 1.348 . S
C1641 C1639 1.356 . S
H1642 C1636 0.930 . S
H1643 C1640 0.930 . S
O1644 Li1584 1.956 . S
O1644 Li1585 1.970 . S
O1644 Li1586 1.961 . S
O1644 C1588 1.325 . S
O1645 Li1584 1.970 . S
O1645 Li1585 1.956 . S
O1645 Li1587 1.961 1_545 S
O1645 C1594 1.325 . S
O1646 Li1584 1.961 1_565 S
O1646 Li1586 1.956 1_565 S
O1646 Li1587 1.970 . S
O1646 C1616 1.325 . S
O1647 Li1585 1.961 . S
O1647 Li1586 1.970 . S
O1647 Li1587 1.956 1_545 S
O1647 C1622 1.325 . S
H1648 C1590 0.929 . S
H1649 C1591 0.930 . S
H1650 C1592 0.930 . S
H1651 C1593 0.930 . S
H1652 C1595 0.930 1_565 S
H1653 C1597 0.929 . S
H1654 C1598 0.930 1_565 S
H1655 C1599 0.930 . S
H1656 C1602 0.930 . S
H1657 C1605 0.929 . S
H1658 C1610 0.929 . S
H1659 C1611 0.930 . S
H1660 C1618 0.929 . S
H1661 C1619 0.930 . S
H1662 C1620 0.930 . S
H1663 C1621 0.930 . S
H1664 C1623 0.916 1_565 S
H1665 C1624 0.930 . S
H1666 C1625 0.920 1_565 S
H1667 C1626 0.930 . S
H1668 C1630 0.929 . S
H1669 C1632 0.930 . S
H1670 C1638 0.929 . S
H1671 C1639 0.930 . S
Li1672 N1689 1.990 . S
Li1672 O1732 1.956 . S
Li1672 O1733 1.970 . S
Li1672 O1734 1.961 1_554 S
Li1673 N1697 1.990 . S
Li1673 O1732 1.970 . S
Li1673 O1733 1.956 . S
Li1673 O1735 1.961 . S
Li1674 N1719 1.990 . S
Li1674 O1732 1.961 . S
Li1674 O1734 1.956 1_554 S
Li1674 O1735 1.970 . S
Li1675 N1725 1.990 . S
Li1675 O1733 1.961 1_556 S
Li1675 O1734 1.970 . S
Li1675 O1735 1.956 1_556 S
C1676 C1678 1.348 . S
C1676 C1679 1.356 . S
C1676 O1732 1.325 . S
N1677 C1680 1.314 . S
N1677 C1681 1.279 . S
C1678 C1676 1.348 . S
C1678 C1680 1.353 . S
C1678 H1736 0.929 . S
C1679 C1676 1.356 . S
C1679 C1681 1.358 . S
C1679 H1737 0.930 . S
C1680 N1677 1.314 . S
C1680 C1678 1.353 . S
C1680 H1738 0.930 . S
C1681 N1677 1.279 . S
C1681 C1679 1.358 . S
C1681 H1739 0.930 . S
C1682 C1685 1.348 . S
C1682 C1686 1.356 . S
C1682 O1733 1.325 . S
C1683 N1684 1.279 . S
C1683 C1686 1.358 . S
C1683 H1740 0.930 . S
N1684 C1683 1.279 . S
N1684 C1687 1.314 . S
C1685 C1682 1.348 . S
C1685 C1687 1.353 . S
C1685 H1741 0.929 . S
C1686 C1682 1.356 . S
C1686 C1683 1.358 . S
C1686 H1742 0.930 . S
C1687 N1684 1.314 . S
C1687 C1685 1.353 . S
C1687 H1743 0.930 . S
C1688 N1689 1.314 . S
C1688 C1693 1.353 . S
C1688 H1694 0.930 1_554 S
N1689 Li1672 1.990 . S
N1689 C1688 1.314 . S
N1689 C1691 1.279 . S
C1690 C1691 1.358 . S
C1690 C1692 1.356 . S
C1690 H1744 0.930 . S
C1691 N1689 1.279 . S
C1691 C1690 1.358 . S
C1691 H1695 0.930 . S
C1692 C1690 1.356 . S
C1692 C1693 1.348 . S
C1693 C1688 1.353 . S
C1693 C1692 1.348 . S
C1693 H1745 0.929 1_554 S
H1694 C1688 0.930 1_556 S
H1695 C1691 0.930 . S
C1696 N1697 1.314 . S
C1696 C1698 1.353 . S
C1696 H1702 0.930 . S
N1697 Li1673 1.990 . S
N1697 C1696 1.314 . S
N1697 C1700 1.279 . S
C1698 C1696 1.353 . S
C1698 C1701 1.348 . S
C1698 H1746 0.929 . S
C1699 C1700 1.358 . S
C1699 C1701 1.356 . S
C1699 H1747 0.930 . S
C1700 N1697 1.279 . S
C1700 C1699 1.358 . S
C1700 H1703 0.930 . S
C1701 C1698 1.348 . S
C1701 C1699 1.356 . S
H1702 C1696 0.930 . S
H1703 C1700 0.930 . S
C1704 C1706 1.348 . S
C1704 C1707 1.356 . S
C1704 O1734 1.325 . S
N1705 C1708 1.314 . S
N1705 C1709 1.279 . S
C1706 C1704 1.348 . S
C1706 C1708 1.353 . S
C1706 H1748 0.929 . S
C1707 C1704 1.356 . S
C1707 C1709 1.358 . S
C1707 H1749 0.930 . S
C1708 N1705 1.314 . S
C1708 C1706 1.353 . S
C1708 H1750 0.930 . S
C1709 N1705 1.279 . S
C1709 C1707 1.358 . S
C1709 H1751 0.930 . S
C1710 C1711 1.348 . S
C1710 C1712 1.356 . S
C1710 O1735 1.325 . S
C1711 C1710 1.348 . S
C1711 C1713 1.353 . S
C1711 H1752 0.929 . S
C1712 C1710 1.356 . S
C1712 C1714 1.358 . S
C1712 H1753 0.930 . S
C1713 C1711 1.353 . S
C1713 N1715 1.314 . S
C1713 H1754 0.930 . S
C1714 C1712 1.358 . S
C1714 N1715 1.279 . S
C1714 H1755 0.930 . S
N1715 C1713 1.314 . S
N1715 C1714 1.279 . S
C1716 C1718 1.353 . S
C1716 N1719 1.314 . S
C1716 H1722 0.930 . S
C1717 N1719 1.279 . S
C1717 C1720 1.359 . S
C1717 H1723 0.930 1_554 S
C1718 C1716 1.353 . S
C1718 C1721 1.348 . S
C1718 H1756 0.929 . S
N1719 Li1674 1.990 . S
N1719 C1716 1.314 . S
N1719 C1717 1.279 . S
C1720 C1717 1.359 . S
C1720 C1721 1.356 . S
C1720 H1757 0.929 1_554 S
C1721 C1718 1.348 . S
C1721 C1720 1.356 . S
H1722 C1716 0.930 . S
H1723 C1717 0.930 1_556 S
C1724 N1725 1.314 . S
C1724 C1726 1.353 . S
C1724 H1730 0.930 . S
N1725 Li1675 1.990 . S
N1725 C1724 1.314 . S
N1725 C1728 1.279 . S
C1726 C1724 1.353 . S
C1726 C1729 1.348 . S
C1726 H1758 0.929 . S
C1727 C1728 1.358 . S
C1727 C1729 1.356 . S
C1727 H1759 0.930 . S
C1728 N1725 1.279 . S
C1728 C1727 1.358 . S
C1728 H1731 0.930 . S
C1729 C1726 1.348 . S
C1729 C1727 1.356 . S
H1730 C1724 0.930 . S
H1731 C1728 0.930 . S
O1732 Li1672 1.956 . S
O1732 Li1673 1.970 . S
O1732 Li1674 1.961 . S
O1732 C1676 1.325 . S
O1733 Li1672 1.970 . S
O1733 Li1673 1.956 . S
O1733 Li1675 1.961 1_554 S
O1733 C1682 1.325 . S
O1734 Li1672 1.961 1_556 S
O1734 Li1674 1.956 1_556 S
O1734 Li1675 1.970 . S
O1734 C1704 1.325 . S
O1735 Li1673 1.961 . S
O1735 Li1674 1.970 . S
O1735 Li1675 1.956 1_554 S
O1735 C1710 1.325 . S
H1736 C1678 0.929 . S
H1737 C1679 0.930 . S
H1738 C1680 0.930 . S
H1739 C1681 0.930 . S
H1740 C1683 0.930 . S
H1741 C1685 0.929 . S
H1742 C1686 0.930 . S
H1743 C1687 0.930 . S
H1744 C1690 0.930 . S
H1745 C1693 0.929 1_556 S
H1746 C1698 0.929 . S
H1747 C1699 0.930 . S
H1748 C1706 0.929 . S
H1749 C1707 0.930 . S
H1750 C1708 0.930 . S
H1751 C1709 0.930 . S
H1752 C1711 0.929 . S
H1753 C1712 0.930 . S
H1754 C1713 0.930 . S
H1755 C1714 0.930 . S
H1756 C1718 0.929 . S
H1757 C1720 0.929 1_556 S
H1758 C1726 0.929 . S
H1759 C1727 0.930 . S
Li1760 N1777 1.990 . S
Li1760 O1820 1.956 1_554 S
Li1760 O1821 1.970 . S
Li1760 O1822 1.997 . S
Li1761 N1785 1.990 . S
Li1761 O1820 1.970 1_554 S
Li1761 O1821 1.973 . S
Li1761 O1823 1.943 1_554 S
Li1762 N1807 1.990 . S
Li1762 O1820 1.961 . S
Li1762 O1822 1.920 1_556 S
Li1762 O1823 1.970 . S
Li1763 N1813 1.991 . S
Li1763 O1821 1.957 . S
Li1763 O1822 1.969 . S
Li1763 O1823 1.960 1_554 S
C1764 C1766 1.333 1_556 S
C1764 C1767 1.366 . S
C1764 O1820 1.328 . S
N1765 C1768 1.313 1_556 S
N1765 C1769 1.281 . S
C1766 C1764 1.333 1_554 S
C1766 C1768 1.353 . S
C1766 H1824 0.929 . S
C1767 C1764 1.366 . S
C1767 C1769 1.358 . S
C1767 H1825 0.930 . S
C1768 N1765 1.313 1_554 S
C1768 C1766 1.353 . S
C1768 H1826 0.930 . S
C1769 N1765 1.281 . S
C1769 C1767 1.358 . S
C1769 H1827 0.930 . S
C1770 C1773 1.348 . S
C1770 C1774 1.356 . S
C1770 O1821 1.325 . S
C1771 N1772 1.279 . S
C1771 C1774 1.358 . S
C1771 H1828 0.930 . S
N1772 C1771 1.279 . S
N1772 C1775 1.314 . S
C1773 C1770 1.348 . S
C1773 C1775 1.353 . S
C1773 H1829 0.929 . S
C1774 C1770 1.356 . S
C1774 C1771 1.358 . S
C1774 H1830 0.930 . S
C1775 N1772 1.314 . S
C1775 C1773 1.353 . S
C1775 H1831 0.930 . S
C1776 N1777 1.314 . S
C1776 C1781 1.353 . S
C1776 H1782 0.930 . S
N1777 Li1760 1.990 . S
N1777 C1776 1.314 . S
N1777 C1779 1.279 . S
C1778 C1779 1.358 . S
C1778 C1780 1.356 . S
C1778 H1832 0.930 . S
C1779 N1777 1.279 . S
C1779 C1778 1.358 . S
C1779 H1783 0.930 . S
C1780 C1778 1.356 . S
C1780 C1781 1.348 . S
C1781 C1776 1.353 . S
C1781 C1780 1.348 . S
C1781 H1833 0.929 . S
H1782 C1776 0.930 . S
H1783 C1779 0.930 . S
C1784 N1785 1.291 1_556 S
C1784 C1786 1.353 . S
C1784 H1790 0.930 . S
N1785 Li1761 1.990 . S
N1785 C1784 1.291 1_554 S
N1785 C1788 1.303 . S
C1786 C1784 1.353 . S
C1786 C1789 1.383 . S
C1786 H1834 0.929 . S
C1787 C1788 1.358 . S
C1787 C1789 1.322 1_554 S
C1787 H1835 0.930 . S
C1788 N1785 1.303 . S
C1788 C1787 1.358 . S
C1788 H1791 0.930 . S
C1789 C1786 1.383 . S
C1789 C1787 1.322 1_556 S
H1790 C1784 0.930 . S
H1791 C1788 0.930 . S
C1792 C1794 1.338 1_554 S
C1792 C1795 1.362 . S
C1792 O1822 1.324 . S
N1793 C1796 1.323 . S
N1793 C1797 1.270 1_556 S
C1794 C1792 1.338 1_556 S
C1794 C1796 1.353 . S
C1794 H1836 0.929 . S
C1795 C1792 1.362 . S
C1795 C1797 1.358 . S
C1795 H1837 0.930 . S
C1796 N1793 1.323 . S
C1796 C1794 1.353 . S
C1796 H1838 0.930 . S
C1797 N1793 1.270 1_554 S
C1797 C1795 1.358 . S
C1797 H1839 0.930 . S
C1798 C1799 1.348 . S
C1798 C1800 1.356 . S
C1798 O1823 1.325 . S
C1799 C1798 1.348 . S
C1799 C1801 1.353 . S
C1799 H1840 0.929 . S
C1800 C1798 1.356 . S
C1800 C1802 1.358 . S
C1800 H1841 0.930 . S
C1801 C1799 1.353 . S
C1801 N1803 1.314 . S
C1801 H1842 0.930 . S
C1802 C1800 1.358 . S
C1802 N1803 1.279 . S
C1802 H1843 0.930 . S
N1803 C1801 1.314 . S
N1803 C1802 1.279 . S
C1804 C1806 1.353 . S
C1804 N1807 1.314 . S
C1804 H1810 0.930 . S
C1805 N1807 1.279 . S
C1805 C1808 1.358 . S
C1805 H1811 0.930 . S
C1806 C1804 1.353 . S
C1806 C1809 1.348 . S
C1806 H1844 0.929 . S
N1807 Li1762 1.990 . S
N1807 C1804 1.314 . S
N1807 C1805 1.279 . S
C1808 C1805 1.358 . S
C1808 C1809 1.356 . S
C1808 H1845 0.930 . S
C1809 C1806 1.348 . S
C1809 C1808 1.356 . S
H1810 C1804 0.930 . S
H1811 C1805 0.930 . S
C1812 N1813 1.324 . S
C1812 C1814 1.353 . S
C1812 H1818 0.930 . S
N1813 Li1763 1.991 . S
N1813 C1812 1.324 . S
N1813 C1816 1.270 1_554 S
C1814 C1812 1.353 . S
C1814 C1817 1.348 . S
C1814 H1846 0.929 . S
C1815 C1816 1.358 . S
C1815 C1817 1.356 1_556 S
C1815 H1847 0.930 . S
C1816 N1813 1.270 1_556 S
C1816 C1815 1.358 . S
C1816 H1819 0.930 . S
C1817 C1814 1.348 . S
C1817 C1815 1.356 1_554 S
H1818 C1812 0.930 . S
H1819 C1816 0.930 . S
O1820 Li1760 1.956 1_556 S
O1820 Li1761 1.970 1_556 S
O1820 Li1762 1.961 . S
O1820 C1764 1.328 . S
O1821 Li1760 1.970 . S
O1821 Li1761 1.973 . S
O1821 Li1763 1.957 . S
O1821 C1770 1.325 . S
O1822 Li1760 1.997 . S
O1822 Li1762 1.920 1_554 S
O1822 Li1763 1.969 . S
O1822 C1792 1.324 . S
O1823 Li1761 1.943 1_556 S
O1823 Li1762 1.970 . S
O1823 Li1763 1.960 1_556 S
O1823 C1798 1.325 . S
H1824 C1766 0.929 . S
H1825 C1767 0.930 . S
H1826 C1768 0.930 . S
H1827 C1769 0.930 . S
H1828 C1771 0.930 . S
H1829 C1773 0.929 . S
H1830 C1774 0.930 . S
H1831 C1775 0.930 . S
H1832 C1778 0.930 . S
H1833 C1781 0.929 . S
H1834 C1786 0.929 . S
H1835 C1787 0.930 . S
H1836 C1794 0.929 . S
H1837 C1795 0.930 . S
H1838 C1796 0.930 . S
H1839 C1797 0.930 . S
H1840 C1799 0.929 . S
H1841 C1800 0.930 . S
H1842 C1801 0.930 . S
H1843 C1802 0.930 . S
H1844 C1806 0.929 . S
H1845 C1808 0.930 . S
H1846 C1814 0.929 . S
H1847 C1815 0.930 . S
Li1848 N1865 1.990 . S
Li1848 O1908 1.956 . S
Li1848 O1909 1.970 . S
Li1848 O1910 1.961 . S
Li1849 N1873 1.990 . S
Li1849 O1908 1.970 . S
Li1849 O1909 1.956 . S
Li1849 O1911 1.961 . S
Li1850 N1895 1.990 . S
Li1850 O1908 1.961 . S
Li1850 O1910 1.956 . S
Li1850 O1911 1.970 . S
Li1851 N1901 1.990 . S
Li1851 O1909 1.961 . S
Li1851 O1910 1.970 . S
Li1851 O1911 1.956 . S
C1852 C1854 1.348 . S
C1852 C1855 1.356 . S
C1852 O1908 1.325 . S
N1853 C1856 1.314 . S
N1853 C1857 1.279 . S
C1854 C1852 1.348 . S
C1854 C1856 1.353 . S
C1854 H1912 0.929 . S
C1855 C1852 1.356 . S
C1855 C1857 1.358 . S
C1855 H1913 0.930 . S
C1856 N1853 1.314 . S
C1856 C1854 1.353 . S
C1856 H1914 0.930 . S
C1857 N1853 1.279 . S
C1857 C1855 1.358 . S
C1857 H1915 0.930 . S
C1858 C1861 1.348 . S
C1858 C1862 1.356 . S
C1858 O1909 1.325 . S
C1859 N1860 1.279 . S
C1859 C1862 1.358 . S
C1859 H1916 0.930 . S
N1860 C1859 1.279 . S
N1860 C1863 1.314 . S
C1861 C1858 1.348 . S
C1861 C1863 1.353 . S
C1861 H1917 0.929 . S
C1862 C1858 1.356 . S
C1862 C1859 1.358 . S
C1862 H1918 0.930 . S
C1863 N1860 1.314 . S
C1863 C1861 1.353 . S
C1863 H1919 0.930 . S
C1864 N1865 1.314 . S
C1864 C1869 1.353 . S
C1864 H1870 0.930 . S
N1865 Li1848 1.990 . S
N1865 C1864 1.314 . S
N1865 C1867 1.279 . S
C1866 C1867 1.358 . S
C1866 C1868 1.356 . S
C1866 H1920 0.930 . S
C1867 N1865 1.279 . S
C1867 C1866 1.358 . S
C1867 H1871 0.930 . S
C1868 C1866 1.356 . S
C1868 C1869 1.348 . S
C1869 C1864 1.353 . S
C1869 C1868 1.348 . S
C1869 H1921 0.929 . S
H1870 C1864 0.930 . S
H1871 C1867 0.930 . S
C1872 N1873 1.314 . S
C1872 C1874 1.353 . S
C1872 H1878 0.930 . S
N1873 Li1849 1.990 . S
N1873 C1872 1.314 . S
N1873 C1876 1.279 . S
C1874 C1872 1.353 . S
C1874 C1877 1.348 . S
C1874 H1922 0.929 . S
C1875 C1876 1.358 . S
C1875 C1877 1.356 . S
C1875 H1923 0.930 . S
C1876 N1873 1.279 . S
C1876 C1875 1.358 . S
C1876 H1879 0.930 . S
C1877 C1874 1.348 . S
C1877 C1875 1.356 . S
H1878 C1872 0.930 . S
H1879 C1876 0.930 . S
C1880 C1882 1.348 . S
C1880 C1883 1.356 . S
C1880 O1910 1.325 . S
N1881 C1884 1.314 . S
N1881 C1885 1.279 . S
C1882 C1880 1.348 . S
C1882 C1884 1.353 . S
C1882 H1924 0.929 . S
C1883 C1880 1.356 . S
C1883 C1885 1.358 . S
C1883 H1925 0.930 . S
C1884 N1881 1.314 . S
C1884 C1882 1.353 . S
C1884 H1926 0.930 . S
C1885 N1881 1.279 . S
C1885 C1883 1.358 . S
C1885 H1927 0.930 . S
C1886 C1887 1.348 . S
C1886 C1888 1.356 . S
C1886 O1911 1.325 . S
C1887 C1886 1.348 . S
C1887 C1889 1.353 . S
C1887 H1928 0.929 . S
C1888 C1886 1.356 . S
C1888 C1890 1.358 . S
C1888 H1929 0.930 . S
C1889 C1887 1.353 . S
C1889 N1891 1.314 . S
C1889 H1930 0.930 . S
C1890 C1888 1.358 . S
C1890 N1891 1.279 . S
C1890 H1931 0.930 . S
N1891 C1889 1.314 . S
N1891 C1890 1.279 . S
C1892 C1894 1.353 . S
C1892 N1895 1.314 . S
C1892 H1898 0.930 . S
C1893 N1895 1.279 . S
C1893 C1896 1.358 . S
C1893 H1899 0.930 . S
C1894 C1892 1.353 . S
C1894 C1897 1.348 . S
C1894 H1932 0.929 . S
N1895 Li1850 1.990 . S
N1895 C1892 1.314 . S
N1895 C1893 1.279 . S
C1896 C1893 1.358 . S
C1896 C1897 1.356 . S
C1896 H1933 0.930 . S
C1897 C1894 1.348 . S
C1897 C1896 1.356 . S
H1898 C1892 0.930 . S
H1899 C1893 0.930 . S
C1900 N1901 1.314 . S
C1900 C1902 1.353 . S
C1900 H1906 0.930 . S
N1901 Li1851 1.990 . S
N1901 C1900 1.314 . S
N1901 C1904 1.279 . S
C1902 C1900 1.353 . S
C1902 C1905 1.348 . S
C1902 H1934 0.929 . S
C1903 C1904 1.358 . S
C1903 C1905 1.356 . S
C1903 H1935 0.930 . S
C1904 N1901 1.279 . S
C1904 C1903 1.358 . S
C1904 H1907 0.930 . S
C1905 C1902 1.348 . S
C1905 C1903 1.356 . S
H1906 C1900 0.930 . S
H1907 C1904 0.930 . S
O1908 Li1848 1.956 . S
O1908 Li1849 1.970 . S
O1908 Li1850 1.961 . S
O1908 C1852 1.325 . S
O1909 Li1848 1.970 . S
O1909 Li1849 1.956 . S
O1909 Li1851 1.961 . S
O1909 C1858 1.325 . S
O1910 Li1848 1.961 . S
O1910 Li1850 1.956 . S
O1910 Li1851 1.970 . S
O1910 C1880 1.325 . S
O1911 Li1849 1.961 . S
O1911 Li1850 1.970 . S
O1911 Li1851 1.956 . S
O1911 C1886 1.325 . S
H1912 C1854 0.929 . S
H1913 C1855 0.930 . S
H1914 C1856 0.930 . S
H1915 C1857 0.930 . S
H1916 C1859 0.930 . S
H1917 C1861 0.929 . S
H1918 C1862 0.930 . S
H1919 C1863 0.930 . S
H1920 C1866 0.930 . S
H1921 C1869 0.929 . S
H1922 C1874 0.929 . S
H1923 C1875 0.930 . S
H1924 C1882 0.929 . S
H1925 C1883 0.930 . S
H1926 C1884 0.930 . S
H1927 C1885 0.930 . S
H1928 C1887 0.929 . S
H1929 C1888 0.930 . S
H1930 C1889 0.930 . S
H1931 C1890 0.930 . S
H1932 C1894 0.929 . S
H1933 C1896 0.930 . S
H1934 C1902 0.929 . S
H1935 C1903 0.930 . S
Li1936 N1953 1.990 . S
Li1936 O1996 1.956 . S
Li1936 O1997 1.970 . S
Li1936 O1998 1.961 . S
Li1937 N1961 1.990 . S
Li1937 O1996 1.970 . S
Li1937 O1997 1.956 . S
Li1937 O1999 1.961 . S
Li1938 N1983 1.990 . S
Li1938 O1996 1.961 . S
Li1938 O1998 1.956 . S
Li1938 O1999 1.970 . S
Li1939 N1989 1.990 . S
Li1939 O1997 1.961 . S
Li1939 O1998 1.970 . S
Li1939 O1999 1.956 . S
C1940 C1942 1.348 . S
C1940 C1943 1.356 . S
C1940 O1996 1.325 . S
N1941 C1944 1.314 . S
N1941 C1945 1.279 . S
C1942 C1940 1.348 . S
C1942 C1944 1.353 . S
C1942 H2000 0.929 . S
C1943 C1940 1.356 . S
C1943 C1945 1.358 . S
C1943 H2001 0.930 . S
C1944 N1941 1.314 . S
C1944 C1942 1.353 . S
C1944 H2002 0.930 . S
C1945 N1941 1.279 . S
C1945 C1943 1.358 . S
C1945 H2003 0.930 . S
C1946 C1949 1.348 . S
C1946 C1950 1.356 . S
C1946 O1997 1.325 . S
C1947 N1948 1.279 . S
C1947 C1950 1.358 . S
C1947 H2004 0.930 . S
N1948 C1947 1.279 . S
N1948 C1951 1.314 . S
C1949 C1946 1.348 . S
C1949 C1951 1.353 . S
C1949 H2005 0.929 . S
C1950 C1946 1.356 . S
C1950 C1947 1.358 . S
C1950 H2006 0.930 . S
C1951 N1948 1.314 . S
C1951 C1949 1.353 . S
C1951 H2007 0.930 . S
C1952 N1953 1.314 . S
C1952 C1957 1.353 . S
C1952 H1958 0.930 . S
N1953 Li1936 1.990 . S
N1953 C1952 1.314 . S
N1953 C1955 1.279 . S
C1954 C1955 1.358 . S
C1954 C1956 1.356 . S
C1954 H2008 0.930 . S
C1955 N1953 1.279 . S
C1955 C1954 1.358 . S
C1955 H1959 0.930 . S
C1956 C1954 1.356 . S
C1956 C1957 1.348 . S
C1957 C1952 1.353 . S
C1957 C1956 1.348 . S
C1957 H2009 0.929 . S
H1958 C1952 0.930 . S
H1959 C1955 0.930 . S
C1960 N1961 1.314 . S
C1960 C1962 1.353 . S
C1960 H1966 0.930 . S
N1961 Li1937 1.990 . S
N1961 C1960 1.314 . S
N1961 C1964 1.279 . S
C1962 C1960 1.353 . S
C1962 C1965 1.348 . S
C1962 H2010 0.929 . S
C1963 C1964 1.358 . S
C1963 C1965 1.356 . S
C1963 H2011 0.930 . S
C1964 N1961 1.279 . S
C1964 C1963 1.358 . S
C1964 H1967 0.930 . S
C1965 C1962 1.348 . S
C1965 C1963 1.356 . S
H1966 C1960 0.930 . S
H1967 C1964 0.930 . S
C1968 C1970 1.348 . S
C1968 C1971 1.356 . S
C1968 O1998 1.325 . S
N1969 C1972 1.314 . S
N1969 C1973 1.279 . S
C1970 C1968 1.348 . S
C1970 C1972 1.353 . S
C1970 H2012 0.929 . S
C1971 C1968 1.356 . S
C1971 C1973 1.358 . S
C1971 H2013 0.930 . S
C1972 N1969 1.314 . S
C1972 C1970 1.353 . S
C1972 H2014 0.930 . S
C1973 N1969 1.279 . S
C1973 C1971 1.358 . S
C1973 H2015 0.930 . S
C1974 C1975 1.348 . S
C1974 C1976 1.356 . S
C1974 O1999 1.325 . S
C1975 C1974 1.348 . S
C1975 C1977 1.353 . S
C1975 H2016 0.929 . S
C1976 C1974 1.356 . S
C1976 C1978 1.358 . S
C1976 H2017 0.930 . S
C1977 C1975 1.353 . S
C1977 N1979 1.314 . S
C1977 H2018 0.930 . S
C1978 C1976 1.358 . S
C1978 N1979 1.279 . S
C1978 H2019 0.930 . S
N1979 C1977 1.314 . S
N1979 C1978 1.279 . S
C1980 C1982 1.353 . S
C1980 N1983 1.314 . S
C1980 H1986 0.930 . S
C1981 N1983 1.279 . S
C1981 C1984 1.358 . S
C1981 H1987 0.930 . S
C1982 C1980 1.353 . S
C1982 C1985 1.348 . S
C1982 H2020 0.929 . S
N1983 Li1938 1.990 . S
N1983 C1980 1.314 . S
N1983 C1981 1.279 . S
C1984 C1981 1.358 . S
C1984 C1985 1.356 . S
C1984 H2021 0.930 . S
C1985 C1982 1.348 . S
C1985 C1984 1.356 . S
H1986 C1980 0.930 . S
H1987 C1981 0.930 . S
C1988 N1989 1.314 . S
C1988 C1990 1.353 . S
C1988 H1994 0.930 . S
N1989 Li1939 1.990 . S
N1989 C1988 1.314 . S
N1989 C1992 1.279 . S
C1990 C1988 1.353 . S
C1990 C1993 1.348 . S
C1990 H2022 0.929 . S
C1991 C1992 1.358 . S
C1991 C1993 1.356 . S
C1991 H2023 0.930 . S
C1992 N1989 1.279 . S
C1992 C1991 1.358 . S
C1992 H1995 0.930 . S
C1993 C1990 1.348 . S
C1993 C1991 1.356 . S
H1994 C1988 0.930 . S
H1995 C1992 0.930 . S
O1996 Li1936 1.956 . S
O1996 Li1937 1.970 . S
O1996 Li1938 1.961 . S
O1996 C1940 1.325 . S
O1997 Li1936 1.970 . S
O1997 Li1937 1.956 . S
O1997 Li1939 1.961 . S
O1997 C1946 1.325 . S
O1998 Li1936 1.961 . S
O1998 Li1938 1.956 . S
O1998 Li1939 1.970 . S
O1998 C1968 1.325 . S
O1999 Li1937 1.961 . S
O1999 Li1938 1.970 . S
O1999 Li1939 1.956 . S
O1999 C1974 1.325 . S
H2000 C1942 0.929 . S
H2001 C1943 0.930 . S
H2002 C1944 0.930 . S
H2003 C1945 0.930 . S
H2004 C1947 0.930 . S
H2005 C1949 0.929 . S
H2006 C1950 0.930 . S
H2007 C1951 0.930 . S
H2008 C1954 0.930 . S
H2009 C1957 0.929 . S
H2010 C1962 0.929 . S
H2011 C1963 0.930 . S
H2012 C1970 0.929 . S
H2013 C1971 0.930 . S
H2014 C1972 0.930 . S
H2015 C1973 0.930 . S
H2016 C1975 0.929 . S
H2017 C1976 0.930 . S
H2018 C1977 0.930 . S
H2019 C1978 0.930 . S
H2020 C1982 0.929 . S
H2021 C1984 0.930 . S
H2022 C1990 0.929 . S
H2023 C1991 0.930 . S
Li2024 N2041 1.990 . S
Li2024 O2084 1.956 . S
Li2024 O2085 1.970 . S
Li2024 O2086 1.961 . S
Li2025 N2049 1.990 . S
Li2025 O2084 1.970 . S
Li2025 O2085 1.956 . S
Li2025 O2087 1.961 . S
Li2026 N2071 1.990 . S
Li2026 O2084 1.961 . S
Li2026 O2086 1.956 . S
Li2026 O2087 1.970 . S
Li2027 N2077 1.990 . S
Li2027 O2085 1.961 . S
Li2027 O2086 1.970 . S
Li2027 O2087 1.956 . S
C2028 C2030 1.348 . S
C2028 C2031 1.356 . S
C2028 O2084 1.325 . S
N2029 C2032 1.314 . S
N2029 C2033 1.279 . S
C2030 C2028 1.348 . S
C2030 C2032 1.353 . S
C2030 H2088 0.929 . S
C2031 C2028 1.356 . S
C2031 C2033 1.358 . S
C2031 H2089 0.930 . S
C2032 N2029 1.314 . S
C2032 C2030 1.353 . S
C2032 H2090 0.930 . S
C2033 N2029 1.279 . S
C2033 C2031 1.358 . S
C2033 H2091 0.930 . S
C2034 C2037 1.348 . S
C2034 C2038 1.356 . S
C2034 O2085 1.325 . S
C2035 N2036 1.279 . S
C2035 C2038 1.358 . S
C2035 H2092 0.930 . S
N2036 C2035 1.279 . S
N2036 C2039 1.314 . S
C2037 C2034 1.348 . S
C2037 C2039 1.353 . S
C2037 H2093 0.929 . S
C2038 C2034 1.356 . S
C2038 C2035 1.358 . S
C2038 H2094 0.930 . S
C2039 N2036 1.314 . S
C2039 C2037 1.353 . S
C2039 H2095 0.930 . S
C2040 N2041 1.314 . S
C2040 C2045 1.353 . S
C2040 H2046 0.930 . S
N2041 Li2024 1.990 . S
N2041 C2040 1.314 . S
N2041 C2043 1.279 . S
C2042 C2043 1.358 . S
C2042 C2044 1.356 . S
C2042 H2096 0.930 . S
C2043 N2041 1.279 . S
C2043 C2042 1.358 . S
C2043 H2047 0.930 . S
C2044 C2042 1.356 . S
C2044 C2045 1.348 . S
C2045 C2040 1.353 . S
C2045 C2044 1.348 . S
C2045 H2097 0.929 . S
H2046 C2040 0.930 . S
H2047 C2043 0.930 . S
C2048 N2049 1.314 . S
C2048 C2050 1.353 . S
C2048 H2054 0.930 . S
N2049 Li2025 1.990 . S
N2049 C2048 1.314 . S
N2049 C2052 1.279 . S
C2050 C2048 1.353 . S
C2050 C2053 1.348 . S
C2050 H2098 0.929 . S
C2051 C2052 1.358 . S
C2051 C2053 1.356 . S
C2051 H2099 0.930 . S
C2052 N2049 1.279 . S
C2052 C2051 1.358 . S
C2052 H2055 0.930 . S
C2053 C2050 1.348 . S
C2053 C2051 1.356 . S
H2054 C2048 0.930 . S
H2055 C2052 0.930 . S
C2056 C2058 1.348 . S
C2056 C2059 1.356 . S
C2056 O2086 1.325 . S
N2057 C2060 1.314 . S
N2057 C2061 1.279 . S
C2058 C2056 1.348 . S
C2058 C2060 1.353 . S
C2058 H2100 0.929 . S
C2059 C2056 1.356 . S
C2059 C2061 1.358 . S
C2059 H2101 0.930 . S
C2060 N2057 1.314 . S
C2060 C2058 1.353 . S
C2060 H2102 0.930 . S
C2061 N2057 1.279 . S
C2061 C2059 1.358 . S
C2061 H2103 0.930 . S
C2062 C2063 1.348 . S
C2062 C2064 1.356 . S
C2062 O2087 1.325 . S
C2063 C2062 1.348 . S
C2063 C2065 1.353 . S
C2063 H2104 0.929 . S
C2064 C2062 1.356 . S
C2064 C2066 1.358 . S
C2064 H2105 0.930 . S
C2065 C2063 1.353 . S
C2065 N2067 1.314 . S
C2065 H2106 0.930 . S
C2066 C2064 1.358 . S
C2066 N2067 1.279 . S
C2066 H2107 0.930 . S
N2067 C2065 1.314 . S
N2067 C2066 1.279 . S
C2068 C2070 1.353 . S
C2068 N2071 1.314 . S
C2068 H2074 0.930 . S
C2069 N2071 1.279 . S
C2069 C2072 1.358 . S
C2069 H2075 0.930 . S
C2070 C2068 1.353 . S
C2070 C2073 1.348 . S
C2070 H2108 0.929 . S
N2071 Li2026 1.990 . S
N2071 C2068 1.314 . S
N2071 C2069 1.279 . S
C2072 C2069 1.358 . S
C2072 C2073 1.356 . S
C2072 H2109 0.930 . S
C2073 C2070 1.348 . S
C2073 C2072 1.356 . S
H2074 C2068 0.930 . S
H2075 C2069 0.930 . S
C2076 N2077 1.314 . S
C2076 C2078 1.353 . S
C2076 H2082 0.930 . S
N2077 Li2027 1.990 . S
N2077 C2076 1.314 . S
N2077 C2080 1.279 . S
C2078 C2076 1.353 . S
C2078 C2081 1.348 . S
C2078 H2110 0.929 . S
C2079 C2080 1.358 . S
C2079 C2081 1.356 . S
C2079 H2111 0.930 . S
C2080 N2077 1.279 . S
C2080 C2079 1.358 . S
C2080 H2083 0.930 . S
C2081 C2078 1.348 . S
C2081 C2079 1.356 . S
H2082 C2076 0.930 . S
H2083 C2080 0.930 . S
O2084 Li2024 1.956 . S
O2084 Li2025 1.970 . S
O2084 Li2026 1.961 . S
O2084 C2028 1.325 . S
O2085 Li2024 1.970 . S
O2085 Li2025 1.956 . S
O2085 Li2027 1.961 . S
O2085 C2034 1.325 . S
O2086 Li2024 1.961 . S
O2086 Li2026 1.956 . S
O2086 Li2027 1.970 . S
O2086 C2056 1.325 . S
O2087 Li2025 1.961 . S
O2087 Li2026 1.970 . S
O2087 Li2027 1.956 . S
O2087 C2062 1.325 . S
H2088 C2030 0.929 . S
H2089 C2031 0.930 . S
H2090 C2032 0.930 . S
H2091 C2033 0.930 . S
H2092 C2035 0.930 . S
H2093 C2037 0.929 . S
H2094 C2038 0.930 . S
H2095 C2039 0.930 . S
H2096 C2042 0.930 . S
H2097 C2045 0.929 . S
H2098 C2050 0.929 . S
H2099 C2051 0.930 . S
H2100 C2058 0.929 . S
H2101 C2059 0.930 . S
H2102 C2060 0.930 . S
H2103 C2061 0.930 . S
H2104 C2063 0.929 . S
H2105 C2064 0.930 . S
H2106 C2065 0.930 . S
H2107 C2066 0.930 . S
H2108 C2070 0.929 . S
H2109 C2072 0.930 . S
H2110 C2078 0.929 . S
H2111 C2079 0.930 . S
Co2112 N2117 2.024 1_554 S
Co2112 O2129 2.009 1_554 S
Co2112 O2132 2.074 1_455 S
Co2112 O2136 2.141 . S
Co2112 O2137 2.020 . S
C2113 O2133 1.259 . S
C2113 O2136 1.258 . S
Co2114 N2123 2.057 . S
Co2114 O2130 2.117 1_545 S
Co2114 O2131 2.020 1_455 S
Co2114 O2133 2.021 . S
Co2114 O2138 2.062 . S
C2115 N2117 1.309 1_655 S
C2115 N2118 1.359 . S
C2115 H2120 0.926 1_655 S
C2116 N2117 1.375 1_655 S
C2116 C2119 1.350 . S
C2116 H2121 0.930 . S
N2117 Co2112 2.024 1_556 S
N2117 C2115 1.309 1_455 S
N2117 C2116 1.375 1_455 S
N2118 C2115 1.359 . S
N2118 C2119 1.373 . S
C2119 C2116 1.350 . S
C2119 N2118 1.373 . S
C2119 H2140 0.931 . S
H2120 C2115 0.926 1_455 S
H2121 C2116 0.930 . S
C2122 O2129 1.259 1_564 S
C2122 O2130 1.258 . S
N2123 Co2114 2.057 . S
N2123 C2124 1.316 . S
N2123 C2125 1.375 1_545 S
C2124 N2123 1.316 . S
C2124 N2126 1.347 . S
C2124 H2135 0.931 . S
C2125 N2123 1.375 1_565 S
C2125 C2127 1.350 . S
C2125 H2134 0.930 . S
N2126 C2124 1.347 . S
N2126 C2127 1.373 1_545 S
C2127 C2125 1.350 . S
C2127 N2126 1.373 1_565 S
C2127 H2141 0.931 . S
C2128 O2131 1.256 . S
C2128 O2132 1.255 . S
O2129 Co2112 2.009 1_556 S
O2129 C2122 1.259 1_546 S
O2130 Co2114 2.117 1_565 S
O2130 C2122 1.258 . S
O2131 Co2114 2.020 1_655 S
O2131 C2128 1.256 . S
O2132 Co2112 2.074 1_655 S
O2132 C2128 1.255 . S
O2133 C2113 1.259 . S
O2133 Co2114 2.021 . S
H2134 C2125 0.930 . S
H2135 C2124 0.931 . S
O2136 Co2112 2.141 . S
O2136 C2113 1.258 . S
O2137 Co2112 2.020 . S
O2137 C2139 1.274 . S
O2138 Co2114 2.062 . S
O2138 C2139 1.255 . S
C2139 O2137 1.274 . S
C2139 O2138 1.255 . S
H2140 C2119 0.931 . S
H2141 C2127 0.931 . S
Co2142 N2147 2.057 . S
Co2142 O2159 2.021 . S
Co2142 O2162 2.062 . S
Co2142 O2166 2.117 . S
Co2142 O2167 2.020 . S
C2143 O2163 1.259 . S
C2143 O2166 1.258 . S
Co2144 N2153 2.057 . S
Co2144 O2160 2.117 . S
Co2144 O2161 2.020 . S
Co2144 O2163 2.021 . S
Co2144 O2168 2.062 . S
C2145 N2147 1.316 . S
C2145 N2148 1.347 . S
C2145 H2150 0.931 . S
C2146 N2147 1.375 . S
C2146 C2149 1.350 . S
C2146 H2151 0.930 . S
N2147 Co2142 2.057 . S
N2147 C2145 1.316 . S
N2147 C2146 1.375 . S
N2148 C2145 1.347 . S
N2148 C2149 1.373 . S
C2149 C2146 1.350 . S
C2149 N2148 1.373 . S
C2149 H2170 0.931 . S
H2150 C2145 0.931 . S
H2151 C2146 0.930 . S
C2152 O2159 1.259 . S
C2152 O2160 1.258 . S
N2153 Co2144 2.057 . S
N2153 C2154 1.316 . S
N2153 C2155 1.375 . S
C2154 N2153 1.316 . S
C2154 N2156 1.347 . S
C2154 H2165 0.931 . S
C2155 N2153 1.375 . S
C2155 C2157 1.350 . S
C2155 H2164 0.930 . S
N2156 C2154 1.347 . S
N2156 C2157 1.373 . S
C2157 C2155 1.350 . S
C2157 N2156 1.373 . S
C2157 H2171 0.931 . S
C2158 O2161 1.256 . S
C2158 O2162 1.255 . S
O2159 Co2142 2.021 . S
O2159 C2152 1.259 . S
O2160 Co2144 2.117 . S
O2160 C2152 1.258 . S
O2161 Co2144 2.020 . S
O2161 C2158 1.256 . S
O2162 Co2142 2.062 . S
O2162 C2158 1.255 . S
O2163 C2143 1.259 . S
O2163 Co2144 2.021 . S
H2164 C2155 0.930 . S
H2165 C2154 0.931 . S
O2166 Co2142 2.117 . S
O2166 C2143 1.258 . S
O2167 Co2142 2.020 . S
O2167 C2169 1.256 . S
O2168 Co2144 2.062 . S
O2168 C2169 1.255 . S
C2169 O2167 1.256 . S
C2169 O2168 1.255 . S
H2170 C2149 0.931 . S
H2171 C2157 0.931 . S
Co2172 N2177 2.057 . S
Co2172 O2189 2.021 1_545 S
Co2172 O2192 2.062 . S
Co2172 O2196 2.117 . S
Co2172 O2197 2.020 . S
C2173 O2193 1.259 . S
C2173 O2196 1.258 . S
Co2174 N2183 2.057 . S
Co2174 O2190 2.117 . S
Co2174 O2191 2.020 . S
Co2174 O2193 2.021 . S
Co2174 O2198 2.062 . S
C2175 N2177 1.302 1_565 S
C2175 N2178 1.344 1_565 S
C2175 H2180 0.946 . S
C2176 N2177 1.375 . S
C2176 C2179 1.350 . S
C2176 H2181 0.930 . S
N2177 Co2172 2.057 . S
N2177 C2175 1.302 1_545 S
N2177 C2176 1.375 . S
N2178 C2175 1.344 1_545 S
N2178 C2179 1.373 . S
C2179 C2176 1.350 . S
C2179 N2178 1.373 . S
C2179 H2200 0.931 . S
H2180 C2175 0.946 . S
H2181 C2176 0.930 . S
C2182 O2189 1.259 . S
C2182 O2190 1.258 1_565 S
N2183 Co2174 2.057 . S
N2183 C2184 1.316 . S
N2183 C2185 1.375 . S
C2184 N2183 1.316 . S
C2184 N2186 1.347 . S
C2184 H2195 0.931 . S
C2185 N2183 1.375 . S
C2185 C2187 1.350 . S
C2185 H2194 0.930 . S
N2186 C2184 1.347 . S
N2186 C2187 1.373 . S
C2187 C2185 1.350 . S
C2187 N2186 1.373 . S
C2187 H2201 0.931 . S
C2188 O2191 1.256 . S
C2188 O2192 1.255 . S
O2189 Co2172 2.021 1_565 S
O2189 C2182 1.259 . S
O2190 Co2174 2.117 . S
O2190 C2182 1.258 1_545 S
O2191 Co2174 2.020 . S
O2191 C2188 1.256 . S
O2192 Co2172 2.062 . S
O2192 C2188 1.255 . S
O2193 C2173 1.259 . S
O2193 Co2174 2.021 . S
H2194 C2185 0.930 . S
H2195 C2184 0.931 . S
O2196 Co2172 2.117 . S
O2196 C2173 1.258 . S
O2197 Co2172 2.020 . S
O2197 C2199 1.256 . S
O2198 Co2174 2.062 . S
O2198 C2199 1.255 . S
C2199 O2197 1.256 . S
C2199 O2198 1.255 . S
H2200 C2179 0.931 . S
H2201 C2187 0.931 . S
Co2202 N2207 2.057 . S
Co2202 O2219 2.021 . S
Co2202 O2222 2.062 . S
Co2202 O2226 2.117 . S
Co2202 O2227 2.020 . S
C2203 O2223 1.259 . S
C2203 O2226 1.258 . S
Co2204 N2213 2.057 . S
Co2204 O2220 2.117 . S
Co2204 O2221 2.020 . S
Co2204 O2223 2.021 . S
Co2204 O2228 2.062 . S
C2205 N2207 1.316 . S
C2205 N2208 1.347 . S
C2205 H2210 0.931 . S
C2206 N2207 1.375 . S
C2206 C2209 1.350 . S
C2206 H2211 0.930 . S
N2207 Co2202 2.057 . S
N2207 C2205 1.316 . S
N2207 C2206 1.375 . S
N2208 C2205 1.347 . S
N2208 C2209 1.373 . S
C2209 C2206 1.350 . S
C2209 N2208 1.373 . S
C2209 H2230 0.931 . S
H2210 C2205 0.931 . S
H2211 C2206 0.930 . S
C2212 O2219 1.259 . S
C2212 O2220 1.258 . S
N2213 Co2204 2.057 . S
N2213 C2214 1.316 . S
N2213 C2215 1.375 . S
C2214 N2213 1.316 . S
C2214 N2216 1.347 . S
C2214 H2225 0.931 . S
C2215 N2213 1.375 . S
C2215 C2217 1.350 . S
C2215 H2224 0.930 . S
N2216 C2214 1.347 . S
N2216 C2217 1.373 . S
C2217 C2215 1.350 . S
C2217 N2216 1.373 . S
C2217 H2231 0.931 . S
C2218 O2221 1.256 . S
C2218 O2222 1.255 . S
O2219 Co2202 2.021 . S
O2219 C2212 1.259 . S
O2220 Co2204 2.117 . S
O2220 C2212 1.258 . S
O2221 Co2204 2.020 . S
O2221 C2218 1.256 . S
O2222 Co2202 2.062 . S
O2222 C2218 1.255 . S
O2223 C2203 1.259 . S
O2223 Co2204 2.021 . S
H2224 C2215 0.930 . S
H2225 C2214 0.931 . S
O2226 Co2202 2.117 . S
O2226 C2203 1.258 . S
O2227 Co2202 2.020 . S
O2227 C2229 1.256 . S
O2228 Co2204 2.062 . S
O2228 C2229 1.255 . S
C2229 O2227 1.256 . S
C2229 O2228 1.255 . S
H2230 C2209 0.931 . S
H2231 C2217 0.931 . S
Co2232 N2237 2.057 1_545 S
Co2232 O2249 2.021 . S
Co2232 O2252 2.065 . S
Co2232 O2256 2.117 . S
Co2232 O2257 2.020 1_455 S
C2233 O2253 1.259 . S
C2233 O2256 1.258 . S
Co2234 N2243 2.057 . S
Co2234 O2250 2.117 . S
Co2234 O2251 2.020 . S
Co2234 O2253 2.021 . S
Co2234 O2258 2.062 1_455 S
C2235 N2237 1.316 . S
C2235 N2238 1.347 . S
C2235 H2240 0.931 . S
C2236 N2237 1.375 1_655 S
C2236 C2239 1.350 . S
C2236 H2241 0.930 . S
N2237 Co2232 2.057 1_565 S
N2237 C2235 1.316 . S
N2237 C2236 1.375 1_455 S
N2238 C2235 1.347 . S
N2238 C2239 1.373 1_455 S
C2239 C2236 1.350 . S
C2239 N2238 1.373 1_655 S
C2239 H2260 0.931 . S
H2240 C2235 0.931 . S
H2241 C2236 0.930 . S
C2242 O2249 1.259 . S
C2242 O2250 1.258 . S
N2243 Co2234 2.057 . S
N2243 C2244 1.316 . S
N2243 C2245 1.375 . S
C2244 N2243 1.316 . S
C2244 N2246 1.347 . S
C2244 H2255 0.931 . S
C2245 N2243 1.375 . S
C2245 C2247 1.350 . S
C2245 H2254 0.930 . S
N2246 C2244 1.347 . S
N2246 C2247 1.373 . S
C2247 C2245 1.350 . S
C2247 N2246 1.373 . S
C2247 H2261 0.931 . S
C2248 O2251 1.256 . S
C2248 O2252 1.264 . S
O2249 Co2232 2.021 . S
O2249 C2242 1.259 . S
O2250 Co2234 2.117 . S
O2250 C2242 1.258 . S
O2251 Co2234 2.020 . S
O2251 C2248 1.256 . S
O2252 Co2232 2.065 . S
O2252 C2248 1.264 . S
O2253 C2233 1.259 . S
O2253 Co2234 2.021 . S
H2254 C2245 0.930 . S
H2255 C2244 0.931 . S
O2256 Co2232 2.117 . S
O2256 C2233 1.258 . S
O2257 Co2232 2.020 1_655 S
O2257 C2259 1.256 . S
O2258 Co2234 2.062 1_655 S
O2258 C2259 1.255 . S
C2259 O2257 1.256 . S
C2259 O2258 1.255 . S
H2260 C2239 0.931 . S
H2261 C2247 0.931 . S
Co2262 N2267 2.057 . S
Co2262 O2279 2.021 . S
Co2262 O2282 2.062 . S
Co2262 O2286 2.117 . S
Co2262 O2287 2.020 . S
C2263 O2283 1.259 . S
C2263 O2286 1.258 . S
Co2264 N2273 2.057 . S
Co2264 O2280 2.117 . S
Co2264 O2281 2.020 . S
Co2264 O2283 2.021 . S
Co2264 O2288 2.062 . S
C2265 N2267 1.316 . S
C2265 N2268 1.347 . S
C2265 H2270 0.931 . S
C2266 N2267 1.375 . S
C2266 C2269 1.350 . S
C2266 H2271 0.930 . S
N2267 Co2262 2.057 . S
N2267 C2265 1.316 . S
N2267 C2266 1.375 . S
N2268 C2265 1.347 . S
N2268 C2269 1.373 . S
C2269 C2266 1.350 . S
C2269 N2268 1.373 . S
C2269 H2290 0.931 . S
H2270 C2265 0.931 . S
H2271 C2266 0.930 . S
C2272 O2279 1.259 . S
C2272 O2280 1.258 . S
N2273 Co2264 2.057 . S
N2273 C2274 1.316 . S
N2273 C2275 1.375 . S
C2274 N2273 1.316 . S
C2274 N2276 1.347 . S
C2274 H2285 0.931 . S
C2275 N2273 1.375 . S
C2275 C2277 1.350 . S
C2275 H2284 0.930 . S
N2276 C2274 1.347 . S
N2276 C2277 1.373 . S
C2277 C2275 1.350 . S
C2277 N2276 1.373 . S
C2277 H2291 0.931 . S
C2278 O2281 1.256 . S
C2278 O2282 1.255 . S
O2279 Co2262 2.021 . S
O2279 C2272 1.259 . S
O2280 Co2264 2.117 . S
O2280 C2272 1.258 . S
O2281 Co2264 2.020 . S
O2281 C2278 1.256 . S
O2282 Co2262 2.062 . S
O2282 C2278 1.255 . S
O2283 C2263 1.259 . S
O2283 Co2264 2.021 . S
H2284 C2275 0.930 . S
H2285 C2274 0.931 . S
O2286 Co2262 2.117 . S
O2286 C2263 1.258 . S
O2287 Co2262 2.020 . S
O2287 C2289 1.256 . S
O2288 Co2264 2.062 . S
O2288 C2289 1.255 . S
C2289 O2287 1.256 . S
C2289 O2288 1.255 . S
H2290 C2269 0.931 . S
H2291 C2277 0.931 . S
Co2292 N2297 2.057 1_554 S
Co2292 O2309 2.021 . S
Co2292 O2312 2.062 1_554 S
Co2292 O2316 2.117 . S
Co2292 O2317 2.020 1_545 S
C2293 O2313 1.259 . S
C2293 O2316 1.258 . S
Co2294 N2303 2.057 . S
Co2294 O2310 2.117 . S
Co2294 O2311 2.020 . S
Co2294 O2313 2.021 . S
Co2294 O2318 2.062 . S
C2295 N2297 1.316 . S
C2295 N2298 1.347 . S
C2295 H2300 0.931 . S
C2296 N2297 1.375 . S
C2296 C2299 1.350 . S
C2296 H2301 0.930 1_545 S
N2297 Co2292 2.057 1_556 S
N2297 C2295 1.316 . S
N2297 C2296 1.375 . S
N2298 C2295 1.347 . S
N2298 C2299 1.373 . S
C2299 C2296 1.350 . S
C2299 N2298 1.373 . S
C2299 H2320 0.931 1_545 S
H2300 C2295 0.931 . S
H2301 C2296 0.930 1_565 S
C2302 O2309 1.259 . S
C2302 O2310 1.258 . S
N2303 Co2294 2.057 . S
N2303 C2304 1.316 . S
N2303 C2305 1.375 . S
C2304 N2303 1.316 . S
C2304 N2306 1.347 . S
C2304 H2315 0.931 . S
C2305 N2303 1.375 . S
C2305 C2307 1.350 . S
C2305 H2314 0.930 . S
N2306 C2304 1.347 . S
N2306 C2307 1.373 . S
C2307 C2305 1.350 . S
C2307 N2306 1.373 . S
C2307 H2321 0.931 . S
C2308 O2311 1.256 . S
C2308 O2312 1.255 1_554 S
O2309 Co2292 2.021 . S
O2309 C2302 1.259 . S
O2310 Co2294 2.117 . S
O2310 C2302 1.258 . S
O2311 Co2294 2.020 . S
O2311 C2308 1.256 . S
O2312 Co2292 2.062 1_556 S
O2312 C2308 1.255 1_556 S
O2313 C2293 1.259 . S
O2313 Co2294 2.021 . S
H2314 C2305 0.930 . S
H2315 C2304 0.931 . S
O2316 Co2292 2.117 . S
O2316 C2293 1.258 . S
O2317 Co2292 2.020 1_565 S
O2317 C2319 1.256 . S
O2318 Co2294 2.062 . S
O2318 C2319 1.255 1_545 S
C2319 O2317 1.256 . S
C2319 O2318 1.255 1_565 S
H2320 C2299 0.931 1_565 S
H2321 C2307 0.931 . S
Co2322 N2327 2.057 . S
Co2322 O2339 2.021 . S
Co2322 O2342 2.062 . S
Co2322 O2346 2.117 . S
Co2322 O2347 2.020 . S
C2323 O2343 1.259 . S
C2323 O2346 1.258 . S
Co2324 N2333 2.057 . S
Co2324 O2340 2.117 . S
Co2324 O2341 2.020 . S
Co2324 O2343 2.021 . S
Co2324 O2348 2.062 . S
C2325 N2327 1.316 . S
C2325 N2328 1.347 . S
C2325 H2330 0.931 . S
C2326 N2327 1.375 . S
C2326 C2329 1.350 . S
C2326 H2331 0.930 . S
N2327 Co2322 2.057 . S
N2327 C2325 1.316 . S
N2327 C2326 1.375 . S
N2328 C2325 1.347 . S
N2328 C2329 1.373 . S
C2329 C2326 1.350 . S
C2329 N2328 1.373 . S
C2329 H2350 0.931 . S
H2330 C2325 0.931 . S
H2331 C2326 0.930 . S
C2332 O2339 1.259 . S
C2332 O2340 1.258 . S
N2333 Co2324 2.057 . S
N2333 C2334 1.316 . S
N2333 C2335 1.375 . S
C2334 N2333 1.316 . S
C2334 N2336 1.347 . S
C2334 H2345 0.931 . S
C2335 N2333 1.375 . S
C2335 C2337 1.350 . S
C2335 H2344 0.930 . S
N2336 C2334 1.347 . S
N2336 C2337 1.373 . S
C2337 C2335 1.350 . S
C2337 N2336 1.373 . S
C2337 H2351 0.931 . S
C2338 O2341 1.256 . S
C2338 O2342 1.255 . S
O2339 Co2322 2.021 . S
O2339 C2332 1.259 . S
O2340 Co2324 2.117 . S
O2340 C2332 1.258 . S
O2341 Co2324 2.020 . S
O2341 C2338 1.256 . S
O2342 Co2322 2.062 . S
O2342 C2338 1.255 . S
O2343 C2323 1.259 . S
O2343 Co2324 2.021 . S
H2344 C2335 0.930 . S
H2345 C2334 0.931 . S
O2346 Co2322 2.117 . S
O2346 C2323 1.258 . S
O2347 Co2322 2.020 . S
O2347 C2349 1.256 . S
O2348 Co2324 2.062 . S
O2348 C2349 1.255 . S
C2349 O2347 1.256 . S
C2349 O2348 1.255 . S
H2350 C2329 0.931 . S
H2351 C2337 0.931 . S
Co2352 N2357 2.057 . S
Co2352 O2369 2.021 1_554 S
Co2352 O2372 2.062 . S
Co2352 O2376 2.117 . S
Co2352 O2377 2.020 . S
C2353 O2373 1.259 . S
C2353 O2376 1.258 . S
Co2354 N2363 2.057 . S
Co2354 O2370 2.091 1_554 S
Co2354 O2371 2.020 . S
Co2354 O2373 2.021 . S
Co2354 O2378 2.062 . S
C2355 N2357 1.316 1_556 S
C2355 N2358 1.345 1_556 S
C2355 H2360 0.931 . S
C2356 N2357 1.375 . S
C2356 C2359 1.350 . S
C2356 H2361 0.930 . S
N2357 Co2352 2.057 . S
N2357 C2355 1.316 1_554 S
N2357 C2356 1.375 . S
N2358 C2355 1.345 1_554 S
N2358 C2359 1.382 . S
C2359 C2356 1.350 . S
C2359 N2358 1.382 . S
C2359 H2380 0.931 . S
H2360 C2355 0.931 . S
H2361 C2356 0.930 . S
C2362 O2369 1.259 . S
C2362 O2370 1.278 . S
N2363 Co2354 2.057 . S
N2363 C2364 1.316 . S
N2363 C2365 1.375 . S
C2364 N2363 1.316 . S
C2364 N2366 1.347 . S
C2364 H2375 0.931 . S
C2365 N2363 1.375 . S
C2365 C2367 1.350 . S
C2365 H2374 0.930 . S
N2366 C2364 1.347 . S
N2366 C2367 1.373 . S
C2367 C2365 1.350 . S
C2367 N2366 1.373 . S
C2367 H2381 0.931 . S
C2368 O2371 1.256 . S
C2368 O2372 1.255 . S
O2369 Co2352 2.021 1_556 S
O2369 C2362 1.259 . S
O2370 Co2354 2.091 1_556 S
O2370 C2362 1.278 . S
O2371 Co2354 2.020 . S
O2371 C2368 1.256 . S
O2372 Co2352 2.062 . S
O2372 C2368 1.255 . S
O2373 C2353 1.259 . S
O2373 Co2354 2.021 . S
H2374 C2365 0.930 . S
H2375 C2364 0.931 . S
O2376 Co2352 2.117 . S
O2376 C2353 1.258 . S
O2377 Co2352 2.020 . S
O2377 C2379 1.256 . S
O2378 Co2354 2.062 . S
O2378 C2379 1.255 . S
C2379 O2377 1.256 . S
C2379 O2378 1.255 . S
H2380 C2359 0.931 . S
H2381 C2367 0.931 . S
Co2382 N2387 2.057 . S
Co2382 O2399 2.021 . S
Co2382 O2402 2.062 . S
Co2382 O2406 2.117 . S
Co2382 O2407 2.020 . S
C2383 O2403 1.259 . S
C2383 O2406 1.258 . S
Co2384 N2393 2.057 . S
Co2384 O2400 2.117 . S
Co2384 O2401 2.020 . S
Co2384 O2403 2.021 . S
Co2384 O2408 2.062 . S
C2385 N2387 1.316 . S
C2385 N2388 1.347 . S
C2385 H2390 0.931 . S
C2386 N2387 1.375 . S
C2386 C2389 1.350 . S
C2386 H2391 0.930 . S
N2387 Co2382 2.057 . S
N2387 C2385 1.316 . S
N2387 C2386 1.375 . S
N2388 C2385 1.347 . S
N2388 C2389 1.373 . S
C2389 C2386 1.350 . S
C2389 N2388 1.373 . S
C2389 H2410 0.931 . S
H2390 C2385 0.931 . S
H2391 C2386 0.930 . S
C2392 O2399 1.259 . S
C2392 O2400 1.258 . S
N2393 Co2384 2.057 . S
N2393 C2394 1.316 . S
N2393 C2395 1.375 . S
C2394 N2393 1.316 . S
C2394 N2396 1.347 . S
C2394 H2405 0.931 . S
C2395 N2393 1.375 . S
C2395 C2397 1.350 . S
C2395 H2404 0.930 . S
N2396 C2394 1.347 . S
N2396 C2397 1.373 . S
C2397 C2395 1.350 . S
C2397 N2396 1.373 . S
C2397 H2411 0.931 . S
C2398 O2401 1.256 . S
C2398 O2402 1.255 . S
O2399 Co2382 2.021 . S
O2399 C2392 1.259 . S
O2400 Co2384 2.117 . S
O2400 C2392 1.258 . S
O2401 Co2384 2.020 . S
O2401 C2398 1.256 . S
O2402 Co2382 2.062 . S
O2402 C2398 1.255 . S
O2403 C2383 1.259 . S
O2403 Co2384 2.021 . S
H2404 C2395 0.930 . S
H2405 C2394 0.931 . S
O2406 Co2382 2.117 . S
O2406 C2383 1.258 . S
O2407 Co2382 2.020 . S
O2407 C2409 1.256 . S
O2408 Co2384 2.062 . S
O2408 C2409 1.255 . S
C2409 O2407 1.256 . S
C2409 O2408 1.255 . S
H2410 C2389 0.931 . S
H2411 C2397 0.931 . S
Co2412 N2417 2.057 . S
Co2412 O2429 2.021 1_455 S
Co2412 O2432 2.062 . S
Co2412 O2436 2.117 . S
Co2412 O2437 2.020 . S
C2413 O2433 1.259 . S
C2413 O2436 1.258 . S
Co2414 N2423 2.057 . S
Co2414 O2430 2.117 1_455 S
Co2414 O2431 2.020 . S
Co2414 O2433 2.021 . S
Co2414 O2438 2.062 . S
C2415 N2417 1.316 1_655 S
C2415 N2418 1.347 . S
C2415 H2420 0.931 . S
C2416 N2417 1.375 . S
C2416 C2419 1.350 . S
C2416 H2421 0.930 . S
N2417 Co2412 2.057 . S
N2417 C2415 1.316 1_455 S
N2417 C2416 1.375 . S
N2418 C2415 1.347 . S
N2418 C2419 1.373 1_655 S
C2419 C2416 1.350 . S
C2419 N2418 1.373 1_455 S
C2419 H2440 0.931 . S
H2420 C2415 0.931 . S
H2421 C2416 0.930 . S
C2422 O2429 1.259 . S
C2422 O2430 1.258 . S
N2423 Co2414 2.057 . S
N2423 C2424 1.316 . S
N2423 C2425 1.375 . S
C2424 N2423 1.316 . S
C2424 N2426 1.347 . S
C2424 H2435 0.931 . S
C2425 N2423 1.375 . S
C2425 C2427 1.350 . S
C2425 H2434 0.930 . S
N2426 C2424 1.347 . S
N2426 C2427 1.373 . S
C2427 C2425 1.350 . S
C2427 N2426 1.373 . S
C2427 H2441 0.931 . S
C2428 O2431 1.256 . S
C2428 O2432 1.255 . S
O2429 Co2412 2.021 1_655 S
O2429 C2422 1.259 . S
O2430 Co2414 2.117 1_655 S
O2430 C2422 1.258 . S
O2431 Co2414 2.020 . S
O2431 C2428 1.256 . S
O2432 Co2412 2.062 . S
O2432 C2428 1.255 . S
O2433 C2413 1.259 . S
O2433 Co2414 2.021 . S
H2434 C2425 0.930 . S
H2435 C2424 0.931 . S
O2436 Co2412 2.117 . S
O2436 C2413 1.258 . S
O2437 Co2412 2.020 . S
O2437 C2439 1.256 . S
O2438 Co2414 2.062 . S
O2438 C2439 1.255 . S
C2439 O2437 1.256 . S
C2439 O2438 1.255 . S
H2440 C2419 0.931 . S
H2441 C2427 0.931 . S
Co2442 N2447 2.057 . S
Co2442 O2459 2.021 . S
Co2442 O2462 2.062 . S
Co2442 O2466 2.117 . S
Co2442 O2467 2.020 . S
C2443 O2463 1.259 . S
C2443 O2466 1.258 . S
Co2444 N2453 2.057 . S
Co2444 O2460 2.117 . S
Co2444 O2461 2.020 . S
Co2444 O2463 2.021 . S
Co2444 O2468 2.062 . S
C2445 N2447 1.316 . S
C2445 N2448 1.347 . S
C2445 H2450 0.931 . S
C2446 N2447 1.375 . S
C2446 C2449 1.350 . S
C2446 H2451 0.930 . S
N2447 Co2442 2.057 . S
N2447 C2445 1.316 . S
N2447 C2446 1.375 . S
N2448 C2445 1.347 . S
N2448 C2449 1.373 . S
C2449 C2446 1.350 . S
C2449 N2448 1.373 . S
C2449 H2470 0.931 . S
H2450 C2445 0.931 . S
H2451 C2446 0.930 . S
C2452 O2459 1.259 . S
C2452 O2460 1.258 . S
N2453 Co2444 2.057 . S
N2453 C2454 1.316 . S
N2453 C2455 1.375 . S
C2454 N2453 1.316 . S
C2454 N2456 1.347 . S
C2454 H2465 0.931 . S
C2455 N2453 1.375 . S
C2455 C2457 1.350 . S
C2455 H2464 0.930 . S
N2456 C2454 1.347 . S
N2456 C2457 1.373 . S
C2457 C2455 1.350 . S
C2457 N2456 1.373 . S
C2457 H2471 0.931 . S
C2458 O2461 1.256 . S
C2458 O2462 1.255 . S
O2459 Co2442 2.021 . S
O2459 C2452 1.259 . S
O2460 Co2444 2.117 . S
O2460 C2452 1.258 . S
O2461 Co2444 2.020 . S
O2461 C2458 1.256 . S
O2462 Co2442 2.062 . S
O2462 C2458 1.255 . S
O2463 C2443 1.259 . S
O2463 Co2444 2.021 . S
H2464 C2455 0.930 . S
H2465 C2454 0.931 . S
O2466 Co2442 2.117 . S
O2466 C2443 1.258 . S
O2467 Co2442 2.020 . S
O2467 C2469 1.256 . S
O2468 Co2444 2.062 . S
O2468 C2469 1.255 . S
C2469 O2467 1.256 . S
C2469 O2468 1.255 . S
H2470 C2449 0.931 . S
H2471 C2457 0.931 . S
Co2472 N2477 2.057 . S
Co2472 O2489 2.021 . S
Co2472 O2492 2.062 . S
Co2472 O2496 2.117 . S
Co2472 O2497 2.020 . S
C2473 O2493 1.259 . S
C2473 O2496 1.258 . S
Co2474 N2483 2.057 . S
Co2474 O2490 2.117 . S
Co2474 O2491 2.020 . S
Co2474 O2493 2.021 . S
Co2474 O2498 2.062 . S
C2475 N2477 1.316 . S
C2475 N2478 1.347 . S
C2475 H2480 0.931 . S
C2476 N2477 1.375 . S
C2476 C2479 1.350 . S
C2476 H2481 0.930 . S
N2477 Co2472 2.057 . S
N2477 C2475 1.316 . S
N2477 C2476 1.375 . S
N2478 C2475 1.347 . S
N2478 C2479 1.373 . S
C2479 C2476 1.350 . S
C2479 N2478 1.373 . S
C2479 H2500 0.931 . S
H2480 C2475 0.931 . S
H2481 C2476 0.930 . S
C2482 O2489 1.259 . S
C2482 O2490 1.258 . S
N2483 Co2474 2.057 . S
N2483 C2484 1.316 . S
N2483 C2485 1.375 . S
C2484 N2483 1.316 . S
C2484 N2486 1.347 . S
C2484 H2495 0.931 . S
C2485 N2483 1.375 . S
C2485 C2487 1.350 . S
C2485 H2494 0.930 . S
N2486 C2484 1.347 . S
N2486 C2487 1.373 . S
C2487 C2485 1.350 . S
C2487 N2486 1.373 . S
C2487 H2501 0.931 . S
C2488 O2491 1.256 . S
C2488 O2492 1.255 . S
O2489 Co2472 2.021 . S
O2489 C2482 1.259 . S
O2490 Co2474 2.117 . S
O2490 C2482 1.258 . S
O2491 Co2474 2.020 . S
O2491 C2488 1.256 . S
O2492 Co2472 2.062 . S
O2492 C2488 1.255 . S
O2493 C2473 1.259 . S
O2493 Co2474 2.021 . S
H2494 C2485 0.930 . S
H2495 C2484 0.931 . S
O2496 Co2472 2.117 . S
O2496 C2473 1.258 . S
O2497 Co2472 2.020 . S
O2497 C2499 1.256 . S
O2498 Co2474 2.062 . S
O2498 C2499 1.255 . S
C2499 O2497 1.256 . S
C2499 O2498 1.255 . S
H2500 C2479 0.931 . S
H2501 C2487 0.931 . S
Co2502 N2507 2.057 . S
Co2502 O2519 2.021 . S
Co2502 O2522 2.062 . S
Co2502 O2526 2.117 . S
Co2502 O2527 2.020 . S
C2503 O2523 1.259 . S
C2503 O2526 1.258 . S
Co2504 N2513 2.057 . S
Co2504 O2520 2.117 . S
Co2504 O2521 2.020 . S
Co2504 O2523 2.021 . S
Co2504 O2528 2.062 . S
C2505 N2507 1.316 . S
C2505 N2508 1.347 . S
C2505 H2510 0.931 . S
C2506 N2507 1.375 . S
C2506 C2509 1.350 . S
C2506 H2511 0.930 . S
N2507 Co2502 2.057 . S
N2507 C2505 1.316 . S
N2507 C2506 1.375 . S
N2508 C2505 1.347 . S
N2508 C2509 1.373 . S
C2509 C2506 1.350 . S
C2509 N2508 1.373 . S
C2509 H2530 0.931 . S
H2510 C2505 0.931 . S
H2511 C2506 0.930 . S
C2512 O2519 1.259 . S
C2512 O2520 1.258 . S
N2513 Co2504 2.057 . S
N2513 C2514 1.316 . S
N2513 C2515 1.375 . S
C2514 N2513 1.316 . S
C2514 N2516 1.347 . S
C2514 H2525 0.931 . S
C2515 N2513 1.375 . S
C2515 C2517 1.350 . S
C2515 H2524 0.930 . S
N2516 C2514 1.347 . S
N2516 C2517 1.373 . S
C2517 C2515 1.350 . S
C2517 N2516 1.373 . S
C2517 H2531 0.931 . S
C2518 O2521 1.256 . S
C2518 O2522 1.255 . S
O2519 Co2502 2.021 . S
O2519 C2512 1.259 . S
O2520 Co2504 2.117 . S
O2520 C2512 1.258 . S
O2521 Co2504 2.020 . S
O2521 C2518 1.256 . S
O2522 Co2502 2.062 . S
O2522 C2518 1.255 . S
O2523 C2503 1.259 . S
O2523 Co2504 2.021 . S
H2524 C2515 0.930 . S
H2525 C2514 0.931 . S
O2526 Co2502 2.117 . S
O2526 C2503 1.258 . S
O2527 Co2502 2.020 . S
O2527 C2529 1.256 . S
O2528 Co2504 2.062 . S
O2528 C2529 1.255 . S
C2529 O2527 1.256 . S
C2529 O2528 1.255 . S
H2530 C2509 0.931 . S
H2531 C2517 0.931 . S
Co2532 N2537 2.057 . S
Co2532 O2549 2.021 . S
Co2532 O2552 2.062 . S
Co2532 O2556 2.117 . S
Co2532 O2557 2.020 . S
C2533 O2553 1.259 . S
C2533 O2556 1.258 . S
Co2534 N2543 2.057 . S
Co2534 O2550 2.117 . S
Co2534 O2551 2.020 . S
Co2534 O2553 2.021 . S
Co2534 O2558 2.062 . S
C2535 N2537 1.316 . S
C2535 N2538 1.347 . S
C2535 H2540 0.931 . S
C2536 N2537 1.375 . S
C2536 C2539 1.350 . S
C2536 H2541 0.930 . S
N2537 Co2532 2.057 . S
N2537 C2535 1.316 . S
N2537 C2536 1.375 . S
N2538 C2535 1.347 . S
N2538 C2539 1.373 . S
C2539 C2536 1.350 . S
C2539 N2538 1.373 . S
C2539 H2560 0.931 . S
H2540 C2535 0.931 . S
H2541 C2536 0.930 . S
C2542 O2549 1.259 . S
C2542 O2550 1.258 . S
N2543 Co2534 2.057 . S
N2543 C2544 1.316 . S
N2543 C2545 1.375 . S
C2544 N2543 1.316 . S
C2544 N2546 1.347 . S
C2544 H2555 0.931 . S
C2545 N2543 1.375 . S
C2545 C2547 1.350 . S
C2545 H2554 0.930 . S
N2546 C2544 1.347 . S
N2546 C2547 1.373 . S
C2547 C2545 1.350 . S
C2547 N2546 1.373 . S
C2547 H2561 0.931 . S
C2548 O2551 1.256 . S
C2548 O2552 1.255 . S
O2549 Co2532 2.021 . S
O2549 C2542 1.259 . S
O2550 Co2534 2.117 . S
O2550 C2542 1.258 . S
O2551 Co2534 2.020 . S
O2551 C2548 1.256 . S
O2552 Co2532 2.062 . S
O2552 C2548 1.255 . S
O2553 C2533 1.259 . S
O2553 Co2534 2.021 . S
H2554 C2545 0.930 . S
H2555 C2544 0.931 . S
O2556 Co2532 2.117 . S
O2556 C2533 1.258 . S
O2557 Co2532 2.020 . S
O2557 C2559 1.256 . S
O2558 Co2534 2.062 . S
O2558 C2559 1.255 . S
C2559 O2557 1.256 . S
C2559 O2558 1.255 . S
H2560 C2539 0.931 . S
H2561 C2547 0.931 . S
Co2562 N2567 2.057 1_455 S
Co2562 O2579 2.021 . S
Co2562 O2582 2.062 1_455 S
Co2562 O2586 2.117 . S
Co2562 O2587 2.020 1_554 S
C2563 O2583 1.259 . S
C2563 O2586 1.258 . S
Co2564 N2573 2.057 . S
Co2564 O2580 2.117 . S
Co2564 O2581 2.020 . S
Co2564 O2583 2.021 . S
Co2564 O2588 2.062 1_554 S
C2565 N2567 1.316 . S
C2565 N2568 1.347 . S
C2565 H2570 0.931 . S
C2566 N2567 1.375 1_556 S
C2566 C2569 1.350 . S
C2566 H2571 0.930 . S
N2567 Co2562 2.057 1_655 S
N2567 C2565 1.316 . S
N2567 C2566 1.375 1_554 S
N2568 C2565 1.347 . S
N2568 C2569 1.373 1_554 S
C2569 C2566 1.350 . S
C2569 N2568 1.373 1_556 S
C2569 H2590 0.931 . S
H2570 C2565 0.931 . S
H2571 C2566 0.930 . S
C2572 O2579 1.259 . S
C2572 O2580 1.258 . S
N2573 Co2564 2.057 . S
N2573 C2574 1.316 . S
N2573 C2575 1.375 . S
C2574 N2573 1.316 . S
C2574 N2576 1.347 . S
C2574 H2585 0.931 . S
C2575 N2573 1.375 . S
C2575 C2577 1.350 . S
C2575 H2584 0.930 . S
N2576 C2574 1.347 . S
N2576 C2577 1.373 . S
C2577 C2575 1.350 . S
C2577 N2576 1.373 . S
C2577 H2591 0.931 . S
C2578 O2581 1.256 . S
C2578 O2582 1.255 1_455 S
O2579 Co2562 2.021 . S
O2579 C2572 1.259 . S
O2580 Co2564 2.117 . S
O2580 C2572 1.258 . S
O2581 Co2564 2.020 . S
O2581 C2578 1.256 . S
O2582 Co2562 2.062 1_655 S
O2582 C2578 1.255 1_655 S
O2583 C2563 1.259 . S
O2583 Co2564 2.021 . S
H2584 C2575 0.930 . S
H2585 C2574 0.931 . S
O2586 Co2562 2.117 . S
O2586 C2563 1.258 . S
O2587 Co2562 2.020 1_556 S
O2587 C2589 1.256 . S
O2588 Co2564 2.062 1_556 S
O2588 C2589 1.255 . S
C2589 O2587 1.256 . S
C2589 O2588 1.255 . S
H2590 C2569 0.931 . S
H2591 C2577 0.931 . S
H2592 C2598 0.930 . S
H2593 C2601 0.917 1_655 S
H2594 C2602 0.930 . S
H2595 C2603 0.905 1_655 S
H2596 C2606 0.930 . S
H2597 C2607 0.930 . S
C2598 H2592 0.930 . S
C2598 C2599 1.355 . S
C2598 C2600 1.415 . S
C2599 C2598 1.355 . S
C2599 C2601 1.441 . S
C2600 C2598 1.415 . S
C2600 C2605 1.425 . S
C2600 C2607 1.409 . S
C2601 H2593 0.917 1_455 S
C2601 C2599 1.441 . S
C2601 C2602 1.354 1_455 S
C2602 H2594 0.930 . S
C2602 C2601 1.354 1_655 S
C2602 C2605 1.409 1_655 S
C2603 H2595 0.905 1_455 S
C2603 C2604 1.370 . S
C2603 C2605 1.423 . S
C2604 C2603 1.370 . S
C2604 C2606 1.419 . S
C2605 C2600 1.425 . S
C2605 C2602 1.409 1_455 S
C2605 C2603 1.423 . S
C2606 H2596 0.930 . S
C2606 C2604 1.419 . S
C2606 C2607 1.362 . S
C2607 H2597 0.930 . S
C2607 C2600 1.409 . S
C2607 C2606 1.362 . S
H2608 C2614 0.930 . S
H2609 C2617 0.930 . S
H2610 C2618 0.930 . S
H2611 C2619 0.930 . S
H2612 C2622 0.930 . S
H2613 C2623 0.930 . S
C2614 H2608 0.930 . S
C2614 C2615 1.355 . S
C2614 C2616 1.415 . S
C2615 C2614 1.355 . S
C2615 C2617 1.419 . S
C2616 C2614 1.415 . S
C2616 C2621 1.425 . S
C2616 C2623 1.409 . S
C2617 H2609 0.930 . S
C2617 C2615 1.419 . S
C2617 C2618 1.362 . S
C2618 H2610 0.930 . S
C2618 C2617 1.362 . S
C2618 C2621 1.409 . S
C2619 H2611 0.930 . S
C2619 C2620 1.355 . S
C2619 C2621 1.415 . S
C2620 C2619 1.355 . S
C2620 C2622 1.419 . S
C2621 C2616 1.425 . S
C2621 C2618 1.409 . S
C2621 C2619 1.415 . S
C2622 H2612 0.930 . S
C2622 C2620 1.419 . S
C2622 C2623 1.362 . S
C2623 H2613 0.930 . S
C2623 C2616 1.409 . S
C2623 C2622 1.362 . S
H2624 C2630 0.930 . S
H2625 C2633 0.930 . S
H2626 C2634 0.930 . S
H2627 C2635 0.930 . S
H2628 C2638 0.930 . S
H2629 C2639 0.930 . S
C2630 H2624 0.930 . S
C2630 C2631 1.355 . S
C2630 C2632 1.415 . S
C2631 C2630 1.355 . S
C2631 C2633 1.419 . S
C2632 C2630 1.415 . S
C2632 C2637 1.425 . S
C2632 C2639 1.409 . S
C2633 H2625 0.930 . S
C2633 C2631 1.419 . S
C2633 C2634 1.362 . S
C2634 H2626 0.930 . S
C2634 C2633 1.362 . S
C2634 C2637 1.409 . S
C2635 H2627 0.930 . S
C2635 C2636 1.355 . S
C2635 C2637 1.415 . S
C2636 C2635 1.355 . S
C2636 C2638 1.419 . S
C2637 C2632 1.425 . S
C2637 C2634 1.409 . S
C2637 C2635 1.415 . S
C2638 H2628 0.930 . S
C2638 C2636 1.419 . S
C2638 C2639 1.362 . S
C2639 H2629 0.930 . S
C2639 C2632 1.409 . S
C2639 C2638 1.362 . S
H2640 C2646 0.930 . S
H2641 C2649 0.930 . S
H2642 C2650 0.930 . S
H2643 C2651 0.930 . S
H2644 C2654 0.930 . S
H2645 C2655 0.930 . S
C2646 H2640 0.930 . S
C2646 C2647 1.355 . S
C2646 C2648 1.415 . S
C2647 C2646 1.355 . S
C2647 C2649 1.419 . S
C2648 C2646 1.415 . S
C2648 C2653 1.425 . S
C2648 C2655 1.409 . S
C2649 H2641 0.930 . S
C2649 C2647 1.419 . S
C2649 C2650 1.362 . S
C2650 H2642 0.930 . S
C2650 C2649 1.362 . S
C2650 C2653 1.409 . S
C2651 H2643 0.930 . S
C2651 C2652 1.355 . S
C2651 C2653 1.415 . S
C2652 C2651 1.355 . S
C2652 C2654 1.419 . S
C2653 C2648 1.425 . S
C2653 C2650 1.409 . S
C2653 C2651 1.415 . S
C2654 H2644 0.930 . S
C2654 C2652 1.419 . S
C2654 C2655 1.362 . S
C2655 H2645 0.930 . S
C2655 C2648 1.409 . S
C2655 C2654 1.362 . S
H2656 C2662 0.930 . S
H2657 C2665 0.930 . S
H2658 C2666 0.930 . S
H2659 C2667 0.930 . S
H2660 C2670 0.930 . S
H2661 C2671 0.930 . S
C2662 H2656 0.930 . S
C2662 C2663 1.355 . S
C2662 C2664 1.415 . S
C2663 C2662 1.355 . S
C2663 C2665 1.419 . S
C2664 C2662 1.415 . S
C2664 C2669 1.425 . S
C2664 C2671 1.409 . S
C2665 H2657 0.930 . S
C2665 C2663 1.419 . S
C2665 C2666 1.362 . S
C2666 H2658 0.930 . S
C2666 C2665 1.362 . S
C2666 C2669 1.409 . S
C2667 H2659 0.930 . S
C2667 C2668 1.355 . S
C2667 C2669 1.415 . S
C2668 C2667 1.355 . S
C2668 C2670 1.419 . S
C2669 C2664 1.425 . S
C2669 C2666 1.409 . S
C2669 C2667 1.415 . S
C2670 H2660 0.930 . S
C2670 C2668 1.419 . S
C2670 C2671 1.362 . S
C2671 H2661 0.930 . S
C2671 C2664 1.409 . S
C2671 C2670 1.362 . S
H2672 C2678 0.930 . S
H2673 C2681 0.930 . S
H2674 C2682 0.930 . S
H2675 C2683 0.930 . S
H2676 C2686 0.930 . S
H2677 C2687 0.930 . S
C2678 H2672 0.930 . S
C2678 C2679 1.355 . S
C2678 C2680 1.415 . S
C2679 C2678 1.355 . S
C2679 C2681 1.419 . S
C2680 C2678 1.415 . S
C2680 C2685 1.425 . S
C2680 C2687 1.409 . S
C2681 H2673 0.930 . S
C2681 C2679 1.419 . S
C2681 C2682 1.362 . S
C2682 H2674 0.930 . S
C2682 C2681 1.362 . S
C2682 C2685 1.409 . S
C2683 H2675 0.930 . S
C2683 C2684 1.355 . S
C2683 C2685 1.415 . S
C2684 C2683 1.355 . S
C2684 C2686 1.419 . S
C2685 C2680 1.425 . S
C2685 C2682 1.409 . S
C2685 C2683 1.415 . S
C2686 H2676 0.930 . S
C2686 C2684 1.419 . S
C2686 C2687 1.362 . S
C2687 H2677 0.930 . S
C2687 C2680 1.409 . S
C2687 C2686 1.362 . S
H2688 C2694 0.930 . S
H2689 C2697 0.921 1_554 S
H2690 C2698 0.930 . S
H2691 C2699 0.930 . S
H2692 C2702 0.930 . S
H2693 C2703 0.930 . S
C2694 H2688 0.930 . S
C2694 C2695 1.355 . S
C2694 C2696 1.415 . S
C2695 C2694 1.355 . S
C2695 C2697 1.419 . S
C2696 C2694 1.415 . S
C2696 C2701 1.425 . S
C2696 C2703 1.409 . S
C2697 H2689 0.921 1_556 S
C2697 C2695 1.419 . S
C2697 C2698 1.362 1_556 S
C2698 H2690 0.930 . S
C2698 C2697 1.362 1_554 S
C2698 C2701 1.409 1_554 S
C2699 H2691 0.930 . S
C2699 C2700 1.355 1_554 S
C2699 C2701 1.415 1_554 S
C2700 C2699 1.355 1_556 S
C2700 C2702 1.419 . S
C2701 C2696 1.425 . S
C2701 C2698 1.409 1_556 S
C2701 C2699 1.415 1_556 S
C2702 H2692 0.930 . S
C2702 C2700 1.419 . S
C2702 C2703 1.362 . S
C2703 H2693 0.930 . S
C2703 C2696 1.409 . S
C2703 C2702 1.362 . S
H2704 C2710 0.930 . S
H2705 C2713 0.930 . S
H2706 C2714 0.930 . S
H2707 C2715 0.930 . S
H2708 C2718 0.930 . S
H2709 C2719 0.930 . S
C2710 H2704 0.930 . S
C2710 C2711 1.355 . S
C2710 C2712 1.415 . S
C2711 C2710 1.355 . S
C2711 C2713 1.419 . S
C2712 C2710 1.415 . S
C2712 C2717 1.425 . S
C2712 C2719 1.409 . S
C2713 H2705 0.930 . S
C2713 C2711 1.419 . S
C2713 C2714 1.362 . S
C2714 H2706 0.930 . S
C2714 C2713 1.362 . S
C2714 C2717 1.409 . S
C2715 H2707 0.930 . S
C2715 C2716 1.355 . S
C2715 C2717 1.415 . S
C2716 C2715 1.355 . S
C2716 C2718 1.419 . S
C2717 C2712 1.425 . S
C2717 C2714 1.409 . S
C2717 C2715 1.415 . S
C2718 H2708 0.930 . S
C2718 C2716 1.419 . S
C2718 C2719 1.362 . S
C2719 H2709 0.930 . S
C2719 C2712 1.409 . S
C2719 C2718 1.362 . S
H2720 C2726 0.930 . S
H2721 C2729 0.930 . S
H2722 C2730 0.930 . S
H2723 C2731 0.930 . S
H2724 C2734 0.930 . S
H2725 C2735 0.930 . S
C2726 H2720 0.930 . S
C2726 C2727 1.355 . S
C2726 C2728 1.415 . S
C2727 C2726 1.355 . S
C2727 C2729 1.419 1_545 S
C2728 C2726 1.415 . S
C2728 C2733 1.425 1_545 S
C2728 C2735 1.409 . S
C2729 H2721 0.930 . S
C2729 C2727 1.419 1_565 S
C2729 C2730 1.362 . S
C2730 H2722 0.930 . S
C2730 C2729 1.362 . S
C2730 C2733 1.409 . S
C2731 H2723 0.930 . S
C2731 C2732 1.355 1_565 S
C2731 C2733 1.415 . S
C2732 C2731 1.355 1_545 S
C2732 C2734 1.419 . S
C2733 C2728 1.425 1_565 S
C2733 C2730 1.409 . S
C2733 C2731 1.415 . S
C2734 H2724 0.930 . S
C2734 C2732 1.419 . S
C2734 C2735 1.362 . S
C2735 H2725 0.930 . S
C2735 C2728 1.409 . S
C2735 C2734 1.362 . S
H2736 C2742 0.930 . S
H2737 C2745 0.930 . S
H2738 C2746 0.930 . S
H2739 C2747 0.930 . S
H2740 C2750 0.930 . S
H2741 C2751 0.930 . S
C2742 H2736 0.930 . S
C2742 C2743 1.355 . S
C2742 C2744 1.415 . S
C2743 C2742 1.355 . S
C2743 C2745 1.419 . S
C2744 C2742 1.415 . S
C2744 C2749 1.425 . S
C2744 C2751 1.409 . S
C2745 H2737 0.930 . S
C2745 C2743 1.419 . S
C2745 C2746 1.362 . S
C2746 H2738 0.930 . S
C2746 C2745 1.362 . S
C2746 C2749 1.409 . S
C2747 H2739 0.930 . S
C2747 C2748 1.355 . S
C2747 C2749 1.415 . S
C2748 C2747 1.355 . S
C2748 C2750 1.419 . S
C2749 C2744 1.425 . S
C2749 C2746 1.409 . S
C2749 C2747 1.415 . S
C2750 H2740 0.930 . S
C2750 C2748 1.419 . S
C2750 C2751 1.362 . S
C2751 H2741 0.930 . S
C2751 C2744 1.409 . S
C2751 C2750 1.362 . S
H2752 C2758 0.930 . S
H2753 C2761 0.930 . S
H2754 C2762 0.930 . S
H2755 C2763 0.930 . S
H2756 C2766 0.930 . S
H2757 C2767 0.930 . S
C2758 H2752 0.930 . S
C2758 C2759 1.355 . S
C2758 C2760 1.415 . S
C2759 C2758 1.355 . S
C2759 C2761 1.419 . S
C2760 C2758 1.415 . S
C2760 C2765 1.425 . S
C2760 C2767 1.409 . S
C2761 H2753 0.930 . S
C2761 C2759 1.419 . S
C2761 C2762 1.362 . S
C2762 H2754 0.930 . S
C2762 C2761 1.362 . S
C2762 C2765 1.409 . S
C2763 H2755 0.930 . S
C2763 C2764 1.355 . S
C2763 C2765 1.415 . S
C2764 C2763 1.355 . S
C2764 C2766 1.419 . S
C2765 C2760 1.425 . S
C2765 C2762 1.409 . S
C2765 C2763 1.415 . S
C2766 H2756 0.930 . S
C2766 C2764 1.419 . S
C2766 C2767 1.362 . S
C2767 H2757 0.930 . S
C2767 C2760 1.409 . S
C2767 C2766 1.362 . S
H2768 C2774 0.930 . S
H2769 C2777 0.930 . S
H2770 C2778 0.930 . S
H2771 C2779 0.930 . S
H2772 C2782 0.930 . S
H2773 C2783 0.930 . S
C2774 H2768 0.930 . S
C2774 C2775 1.355 . S
C2774 C2776 1.415 . S
C2775 C2774 1.355 . S
C2775 C2777 1.419 . S
C2776 C2774 1.415 . S
C2776 C2781 1.425 . S
C2776 C2783 1.409 . S
C2777 H2769 0.930 . S
C2777 C2775 1.419 . S
C2777 C2778 1.362 . S
C2778 H2770 0.930 . S
C2778 C2777 1.362 . S
C2778 C2781 1.409 . S
C2779 H2771 0.930 . S
C2779 C2780 1.355 . S
C2779 C2781 1.415 . S
C2780 C2779 1.355 . S
C2780 C2782 1.419 . S
C2781 C2776 1.425 . S
C2781 C2778 1.409 . S
C2781 C2779 1.415 . S
C2782 H2772 0.930 . S
C2782 C2780 1.419 . S
C2782 C2783 1.362 . S
C2783 H2773 0.930 . S
C2783 C2776 1.409 . S
C2783 C2782 1.362 . S
H2784 C2790 0.924 1_565 S
H2785 C2793 0.930 . S
H2786 C2794 0.930 . S
H2787 C2795 0.930 . S
H2788 C2798 0.930 . S
H2789 C2799 0.930 . S
C2790 H2784 0.924 1_545 S
C2790 C2791 1.355 . S
C2790 C2792 1.415 . S
C2791 C2790 1.355 . S
C2791 C2793 1.419 . S
C2792 C2790 1.415 . S
C2792 C2797 1.425 . S
C2792 C2799 1.409 . S
C2793 H2785 0.930 . S
C2793 C2791 1.419 . S
C2793 C2794 1.362 . S
C2794 H2786 0.930 . S
C2794 C2793 1.362 . S
C2794 C2797 1.409 . S
C2795 H2787 0.930 . S
C2795 C2796 1.355 . S
C2795 C2797 1.415 . S
C2796 C2795 1.355 . S
C2796 C2798 1.419 . S
C2797 C2792 1.425 . S
C2797 C2794 1.409 . S
C2797 C2795 1.415 . S
C2798 H2788 0.930 . S
C2798 C2796 1.419 . S
C2798 C2799 1.362 . S
C2799 H2789 0.930 . S
C2799 C2792 1.409 . S
C2799 C2798 1.362 . S
H2800 C2806 0.930 . S
H2801 C2809 0.930 . S
H2802 C2810 0.930 . S
H2803 C2811 0.930 . S
H2804 C2814 0.930 . S
H2805 C2815 0.930 . S
C2806 H2800 0.930 . S
C2806 C2807 1.355 . S
C2806 C2808 1.415 . S
C2807 C2806 1.355 . S
C2807 C2809 1.419 . S
C2808 C2806 1.415 . S
C2808 C2813 1.425 . S
C2808 C2815 1.409 . S
C2809 H2801 0.930 . S
C2809 C2807 1.419 . S
C2809 C2810 1.362 . S
C2810 H2802 0.930 . S
C2810 C2809 1.362 . S
C2810 C2813 1.409 . S
C2811 H2803 0.930 . S
C2811 C2812 1.355 . S
C2811 C2813 1.415 . S
C2812 C2811 1.355 . S
C2812 C2814 1.419 . S
C2813 C2808 1.425 . S
C2813 C2810 1.409 . S
C2813 C2811 1.415 . S
C2814 H2804 0.930 . S
C2814 C2812 1.419 . S
C2814 C2815 1.362 . S
C2815 H2805 0.930 . S
C2815 C2808 1.409 . S
C2815 C2814 1.362 . S
H2816 C2822 0.930 . S
H2817 C2825 0.930 . S
H2818 C2826 0.930 1_565 S
H2819 C2827 0.930 1_565 S
H2820 C2830 0.930 . S
H2821 C2831 0.930 . S
C2822 H2816 0.930 . S
C2822 C2823 1.355 . S
C2822 C2824 1.415 . S
C2823 C2822 1.355 . S
C2823 C2825 1.419 . S
C2824 C2822 1.415 . S
C2824 C2829 1.425 . S
C2824 C2831 1.409 . S
C2825 H2817 0.930 . S
C2825 C2823 1.419 . S
C2825 C2826 1.362 . S
C2826 H2818 0.930 1_545 S
C2826 C2825 1.362 . S
C2826 C2829 1.409 . S
C2827 H2819 0.930 1_545 S
C2827 C2828 1.355 . S
C2827 C2829 1.415 . S
C2828 C2827 1.355 . S
C2828 C2830 1.419 . S
C2829 C2824 1.425 . S
C2829 C2826 1.409 . S
C2829 C2827 1.415 . S
C2830 H2820 0.930 . S
C2830 C2828 1.419 . S
C2830 C2831 1.362 . S
C2831 H2821 0.930 . S
C2831 C2824 1.409 . S
C2831 C2830 1.362 . S
H2832 C2838 0.930 . S
H2833 C2841 0.930 . S
H2834 C2842 0.930 . S
H2835 C2843 0.930 . S
H2836 C2846 0.930 . S
H2837 C2847 0.930 . S
C2838 H2832 0.930 . S
C2838 C2839 1.355 . S
C2838 C2840 1.415 . S
C2839 C2838 1.355 . S
C2839 C2841 1.419 . S
C2840 C2838 1.415 . S
C2840 C2845 1.425 . S
C2840 C2847 1.409 . S
C2841 H2833 0.930 . S
C2841 C2839 1.419 . S
C2841 C2842 1.362 . S
C2842 H2834 0.930 . S
C2842 C2841 1.362 . S
C2842 C2845 1.409 . S
C2843 H2835 0.930 . S
C2843 C2844 1.355 . S
C2843 C2845 1.415 . S
C2844 C2843 1.355 . S
C2844 C2846 1.419 . S
C2845 C2840 1.425 . S
C2845 C2842 1.409 . S
C2845 C2843 1.415 . S
C2846 H2836 0.930 . S
C2846 C2844 1.419 . S
C2846 C2847 1.362 . S
C2847 H2837 0.930 . S
C2847 C2840 1.409 . S
C2847 C2846 1.362 . S
H2848 C2854 0.930 . S
H2849 C2857 0.930 . S
H2850 C2858 0.930 . S
H2851 C2859 0.930 . S
H2852 C2862 0.930 . S
H2853 C2863 0.930 . S
C2854 H2848 0.930 . S
C2854 C2855 1.355 . S
C2854 C2856 1.415 . S
C2855 C2854 1.355 . S
C2855 C2857 1.419 . S
C2856 C2854 1.415 . S
C2856 C2861 1.425 . S
C2856 C2863 1.409 . S
C2857 H2849 0.930 . S
C2857 C2855 1.419 . S
C2857 C2858 1.362 . S
C2858 H2850 0.930 . S
C2858 C2857 1.362 . S
C2858 C2861 1.409 . S
C2859 H2851 0.930 . S
C2859 C2860 1.355 . S
C2859 C2861 1.415 . S
C2860 C2859 1.355 . S
C2860 C2862 1.419 . S
C2861 C2856 1.425 . S
C2861 C2858 1.409 . S
C2861 C2859 1.415 . S
C2862 H2852 0.930 . S
C2862 C2860 1.419 . S
C2862 C2863 1.362 . S
C2863 H2853 0.930 . S
C2863 C2856 1.409 . S
C2863 C2862 1.362 . S
H2864 C2870 0.930 . S
H2865 C2873 0.930 . S
H2866 C2874 0.930 . S
H2867 C2875 0.930 . S
H2868 C2878 0.930 . S
H2869 C2879 0.930 . S
C2870 H2864 0.930 . S
C2870 C2871 1.355 . S
C2870 C2872 1.415 . S
C2871 C2870 1.355 . S
C2871 C2873 1.419 . S
C2872 C2870 1.415 . S
C2872 C2877 1.425 . S
C2872 C2879 1.409 . S
C2873 H2865 0.930 . S
C2873 C2871 1.419 . S
C2873 C2874 1.362 . S
C2874 H2866 0.930 . S
C2874 C2873 1.362 . S
C2874 C2877 1.409 . S
C2875 H2867 0.930 . S
C2875 C2876 1.355 . S
C2875 C2877 1.415 . S
C2876 C2875 1.355 . S
C2876 C2878 1.419 . S
C2877 C2872 1.425 . S
C2877 C2874 1.409 . S
C2877 C2875 1.415 . S
C2878 H2868 0.930 . S
C2878 C2876 1.419 . S
C2878 C2879 1.362 . S
C2879 H2869 0.930 . S
C2879 C2872 1.409 . S
C2879 C2878 1.362 . S
H2880 C2886 0.930 . S
H2881 C2889 0.930 . S
H2882 C2890 0.930 . S
H2883 C2891 0.930 . S
H2884 C2894 0.930 . S
H2885 C2895 0.930 . S
C2886 H2880 0.930 . S
C2886 C2887 1.355 . S
C2886 C2888 1.415 . S
C2887 C2886 1.355 . S
C2887 C2889 1.419 . S
C2888 C2886 1.415 . S
C2888 C2893 1.425 . S
C2888 C2895 1.409 . S
C2889 H2881 0.930 . S
C2889 C2887 1.419 . S
C2889 C2890 1.362 . S
C2890 H2882 0.930 . S
C2890 C2889 1.362 . S
C2890 C2893 1.409 . S
C2891 H2883 0.930 . S
C2891 C2892 1.355 . S
C2891 C2893 1.415 . S
C2892 C2891 1.355 . S
C2892 C2894 1.419 . S
C2893 C2888 1.425 . S
C2893 C2890 1.409 . S
C2893 C2891 1.415 . S
C2894 H2884 0.930 . S
C2894 C2892 1.419 . S
C2894 C2895 1.362 . S
C2895 H2885 0.930 . S
C2895 C2888 1.409 . S
C2895 C2894 1.362 . S
H2896 C2902 0.930 . S
H2897 C2905 0.930 . S
H2898 C2906 0.930 . S
H2899 C2907 0.930 . S
H2900 C2910 0.930 . S
H2901 C2911 0.930 . S
C2902 H2896 0.930 . S
C2902 C2903 1.355 . S
C2902 C2904 1.415 . S
C2903 C2902 1.355 . S
C2903 C2905 1.419 . S
C2904 C2902 1.415 . S
C2904 C2909 1.425 . S
C2904 C2911 1.409 . S
C2905 H2897 0.930 . S
C2905 C2903 1.419 . S
C2905 C2906 1.362 . S
C2906 H2898 0.930 . S
C2906 C2905 1.362 . S
C2906 C2909 1.409 . S
C2907 H2899 0.930 . S
C2907 C2908 1.355 . S
C2907 C2909 1.415 . S
C2908 C2907 1.355 . S
C2908 C2910 1.419 . S
C2909 C2904 1.425 . S
C2909 C2906 1.409 . S
C2909 C2907 1.415 . S
C2910 H2900 0.930 . S
C2910 C2908 1.419 . S
C2910 C2911 1.362 . S
C2911 H2901 0.930 . S
C2911 C2904 1.409 . S
C2911 C2910 1.362 . S
H2912 C2918 0.930 . S
H2913 C2921 0.930 . S
H2914 C2922 0.930 . S
H2915 C2923 0.930 . S
H2916 C2926 0.930 . S
H2917 C2927 0.930 . S
C2918 H2912 0.930 . S
C2918 C2919 1.355 . S
C2918 C2920 1.415 . S
C2919 C2918 1.355 . S
C2919 C2921 1.419 . S
C2920 C2918 1.415 . S
C2920 C2925 1.425 . S
C2920 C2927 1.409 . S
C2921 H2913 0.930 . S
C2921 C2919 1.419 . S
C2921 C2922 1.362 . S
C2922 H2914 0.930 . S
C2922 C2921 1.362 . S
C2922 C2925 1.409 . S
C2923 H2915 0.930 . S
C2923 C2924 1.355 . S
C2923 C2925 1.415 . S
C2924 C2923 1.355 . S
C2924 C2926 1.419 . S
C2925 C2920 1.425 . S
C2925 C2922 1.409 . S
C2925 C2923 1.415 . S
C2926 H2916 0.930 . S
C2926 C2924 1.419 . S
C2926 C2927 1.362 . S
C2927 H2917 0.930 . S
C2927 C2920 1.409 . S
C2927 C2926 1.362 . S
H2928 C2934 0.930 . S
H2929 C2937 0.930 . S
H2930 C2938 0.930 . S
H2931 C2939 0.925 1_545 S
H2932 C2942 0.930 . S
H2933 C2943 0.930 . S
C2934 H2928 0.930 . S
C2934 C2935 1.355 . S
C2934 C2936 1.415 . S
C2935 C2934 1.355 . S
C2935 C2937 1.419 . S
C2936 C2934 1.415 . S
C2936 C2941 1.425 . S
C2936 C2943 1.409 . S
C2937 H2929 0.930 . S
C2937 C2935 1.419 . S
C2937 C2938 1.362 . S
C2938 H2930 0.930 . S
C2938 C2937 1.362 . S
C2938 C2941 1.409 . S
C2939 H2931 0.925 1_565 S
C2939 C2940 1.355 . S
C2939 C2941 1.415 . S
C2940 C2939 1.355 . S
C2940 C2942 1.419 . S
C2941 C2936 1.425 . S
C2941 C2938 1.409 . S
C2941 C2939 1.415 . S
C2942 H2932 0.930 . S
C2942 C2940 1.419 . S
C2942 C2943 1.362 . S
C2943 H2933 0.930 . S
C2943 C2936 1.409 . S
C2943 C2942 1.362 . S
H2944 C2950 0.930 . S
H2945 C2953 0.930 . S
H2946 C2954 0.930 . S
H2947 C2955 0.930 . S
H2948 C2958 0.930 . S
H2949 C2959 0.930 . S
C2950 H2944 0.930 . S
C2950 C2951 1.355 . S
C2950 C2952 1.415 . S
C2951 C2950 1.355 . S
C2951 C2953 1.419 . S
C2952 C2950 1.415 . S
C2952 C2957 1.425 . S
C2952 C2959 1.409 . S
C2953 H2945 0.930 . S
C2953 C2951 1.419 . S
C2953 C2954 1.362 . S
C2954 H2946 0.930 . S
C2954 C2953 1.362 . S
C2954 C2957 1.409 . S
C2955 H2947 0.930 . S
C2955 C2956 1.355 . S
C2955 C2957 1.415 . S
C2956 C2955 1.355 . S
C2956 C2958 1.419 . S
C2957 C2952 1.425 . S
C2957 C2954 1.409 . S
C2957 C2955 1.415 . S
C2958 H2948 0.930 . S
C2958 C2956 1.419 . S
C2958 C2959 1.362 . S
C2959 H2949 0.930 . S
C2959 C2952 1.409 . S
C2959 C2958 1.362 . S
H2960 C2966 0.930 . S
H2961 C2969 0.930 . S
H2962 C2970 0.930 . S
H2963 C2971 0.930 . S
H2964 C2974 0.930 . S
H2965 C2975 0.930 . S
C2966 H2960 0.930 . S
C2966 C2967 1.355 . S
C2966 C2968 1.415 . S
C2967 C2966 1.355 . S
C2967 C2969 1.419 . S
C2968 C2966 1.415 . S
C2968 C2973 1.425 . S
C2968 C2975 1.409 . S
C2969 H2961 0.930 . S
C2969 C2967 1.419 . S
C2969 C2970 1.362 . S
C2970 H2962 0.930 . S
C2970 C2969 1.362 . S
C2970 C2973 1.409 . S
C2971 H2963 0.930 . S
C2971 C2972 1.355 . S
C2971 C2973 1.415 . S
C2972 C2971 1.355 . S
C2972 C2974 1.419 . S
C2973 C2968 1.425 . S
C2973 C2970 1.409 . S
C2973 C2971 1.415 . S
C2974 H2964 0.930 . S
C2974 C2972 1.419 . S
C2974 C2975 1.362 . S
C2975 H2965 0.930 . S
C2975 C2968 1.409 . S
C2975 C2974 1.362 . S
H2976 C2982 0.930 . S
H2977 C2985 0.930 1_655 S
H2978 C2986 0.930 1_655 S
H2979 C2987 0.930 . S
H2980 C2990 0.930 . S
H2981 C2991 0.930 . S
C2982 H2976 0.930 . S
C2982 C2983 1.355 . S
C2982 C2984 1.415 . S
C2983 C2982 1.355 . S
C2983 C2985 1.419 . S
C2984 C2982 1.415 . S
C2984 C2989 1.425 . S
C2984 C2991 1.409 . S
C2985 H2977 0.930 1_455 S
C2985 C2983 1.419 . S
C2985 C2986 1.362 1_556 S
C2986 H2978 0.930 1_455 S
C2986 C2985 1.362 1_554 S
C2986 C2989 1.409 1_554 S
C2987 H2979 0.930 . S
C2987 C2988 1.355 1_554 S
C2987 C2989 1.415 1_554 S
C2988 C2987 1.355 1_556 S
C2988 C2990 1.419 . S
C2989 C2984 1.425 . S
C2989 C2986 1.409 1_556 S
C2989 C2987 1.415 1_556 S
C2990 H2980 0.930 . S
C2990 C2988 1.419 . S
C2990 C2991 1.362 . S
C2991 H2981 0.930 . S
C2991 C2984 1.409 . S
C2991 C2990 1.362 . S
H2992 C2998 0.930 . S
H2993 C3001 0.930 . S
H2994 C3002 0.930 . S
H2995 C3003 0.930 . S
H2996 C3006 0.930 . S
H2997 C3007 0.930 . S
C2998 H2992 0.930 . S
C2998 C2999 1.355 . S
C2998 C3000 1.415 . S
C2999 C2998 1.355 . S
C2999 C3001 1.419 . S
C3000 C2998 1.415 . S
C3000 C3005 1.425 . S
C3000 C3007 1.409 . S
C3001 H2993 0.930 . S
C3001 C2999 1.419 . S
C3001 C3002 1.362 . S
C3002 H2994 0.930 . S
C3002 C3001 1.362 . S
C3002 C3005 1.409 . S
C3003 H2995 0.930 . S
C3003 C3004 1.355 . S
C3003 C3005 1.415 . S
C3004 C3003 1.355 . S
C3004 C3006 1.419 . S
C3005 C3000 1.425 . S
C3005 C3002 1.409 . S
C3005 C3003 1.415 . S
C3006 H2996 0.930 . S
C3006 C3004 1.419 . S
C3006 C3007 1.362 . S
C3007 H2997 0.930 . S
C3007 C3000 1.409 . S
C3007 C3006 1.362 . S
H3008 C3014 0.930 . S
H3009 C3017 0.930 . S
H3010 C3018 0.930 . S
H3011 C3019 0.930 . S
H3012 C3022 0.930 . S
H3013 C3023 0.930 . S
C3014 H3008 0.930 . S
C3014 C3015 1.355 . S
C3014 C3016 1.415 . S
C3015 C3014 1.355 . S
C3015 C3017 1.419 . S
C3016 C3014 1.415 . S
C3016 C3021 1.425 . S
C3016 C3023 1.409 . S
C3017 H3009 0.930 . S
C3017 C3015 1.419 . S
C3017 C3018 1.362 . S
C3018 H3010 0.930 . S
C3018 C3017 1.362 . S
C3018 C3021 1.409 . S
C3019 H3011 0.930 . S
C3019 C3020 1.355 . S
C3019 C3021 1.415 . S
C3020 C3019 1.355 . S
C3020 C3022 1.419 . S
C3021 C3016 1.425 . S
C3021 C3018 1.409 . S
C3021 C3019 1.415 . S
C3022 H3012 0.930 . S
C3022 C3020 1.419 . S
C3022 C3023 1.362 . S
C3023 H3013 0.930 . S
C3023 C3016 1.409 . S
C3023 C3022 1.362 . S
H3024 C3030 0.930 . S
H3025 C3033 0.930 . S
H3026 C3034 0.930 . S
H3027 C3035 0.930 . S
H3028 C3038 0.930 . S
H3029 C3039 0.930 . S
C3030 H3024 0.930 . S
C3030 C3031 1.355 . S
C3030 C3032 1.415 . S
C3031 C3030 1.355 . S
C3031 C3033 1.419 . S
C3032 C3030 1.415 . S
C3032 C3037 1.425 . S
C3032 C3039 1.409 . S
C3033 H3025 0.930 . S
C3033 C3031 1.419 . S
C3033 C3034 1.362 . S
C3034 H3026 0.930 . S
C3034 C3033 1.362 . S
C3034 C3037 1.409 . S
C3035 H3027 0.930 . S
C3035 C3036 1.355 . S
C3035 C3037 1.415 . S
C3036 C3035 1.355 . S
C3036 C3038 1.419 . S
C3037 C3032 1.425 . S
C3037 C3034 1.409 . S
C3037 C3035 1.415 . S
C3038 H3028 0.930 . S
C3038 C3036 1.419 . S
C3038 C3039 1.362 . S
C3039 H3029 0.930 . S
C3039 C3032 1.409 . S
C3039 C3038 1.362 . S
H3040 C3046 0.930 . S
H3041 C3049 0.930 . S
H3042 C3050 0.930 . S
H3043 C3051 0.930 . S
H3044 C3054 0.930 . S
H3045 C3055 0.930 . S
C3046 H3040 0.930 . S
C3046 C3047 1.355 1_655 S
C3046 C3048 1.415 1_655 S
C3047 C3046 1.355 1_455 S
C3047 C3049 1.419 . S
C3048 C3046 1.415 1_455 S
C3048 C3053 1.425 . S
C3048 C3055 1.409 1_455 S
C3049 H3041 0.930 . S
C3049 C3047 1.419 . S
C3049 C3050 1.362 . S
C3050 H3042 0.930 . S
C3050 C3049 1.362 . S
C3050 C3053 1.409 . S
C3051 H3043 0.930 . S
C3051 C3052 1.355 . S
C3051 C3053 1.415 . S
C3052 C3051 1.355 . S
C3052 C3054 1.419 . S
C3053 C3048 1.425 . S
C3053 C3050 1.409 . S
C3053 C3051 1.415 . S
C3054 H3044 0.930 . S
C3054 C3052 1.419 . S
C3054 C3055 1.362 1_455 S
C3055 H3045 0.930 . S
C3055 C3048 1.409 1_655 S
C3055 C3054 1.362 1_655 S
H3056 C3062 0.930 . S
H3057 C3065 0.930 . S
H3058 C3066 0.930 . S
H3059 C3067 0.930 . S
H3060 C3070 0.930 . S
H3061 C3071 0.930 . S
C3062 H3056 0.930 . S
C3062 C3063 1.355 . S
C3062 C3064 1.415 . S
C3063 C3062 1.355 . S
C3063 C3065 1.419 . S
C3064 C3062 1.415 . S
C3064 C3069 1.425 . S
C3064 C3071 1.409 . S
C3065 H3057 0.930 . S
C3065 C3063 1.419 . S
C3065 C3066 1.362 . S
C3066 H3058 0.930 . S
C3066 C3065 1.362 . S
C3066 C3069 1.409 . S
C3067 H3059 0.930 . S
C3067 C3068 1.355 . S
C3067 C3069 1.415 . S
C3068 C3067 1.355 . S
C3068 C3070 1.419 . S
C3069 C3064 1.425 . S
C3069 C3066 1.409 . S
C3069 C3067 1.415 . S
C3070 H3060 0.930 . S
C3070 C3068 1.419 . S
C3070 C3071 1.362 . S
C3071 H3061 0.930 . S
C3071 C3064 1.409 . S
C3071 C3070 1.362 . S
H3072 C3078 0.930 . S
H3073 C3081 0.930 . S
H3074 C3082 0.930 . S
H3075 C3083 0.930 . S
H3076 C3086 0.930 . S
H3077 C3087 0.930 . S
C3078 H3072 0.930 . S
C3078 C3079 1.355 . S
C3078 C3080 1.415 . S
C3079 C3078 1.355 . S
C3079 C3081 1.419 . S
C3080 C3078 1.415 . S
C3080 C3085 1.425 . S
C3080 C3087 1.409 . S
C3081 H3073 0.930 . S
C3081 C3079 1.419 . S
C3081 C3082 1.362 . S
C3082 H3074 0.930 . S
C3082 C3081 1.362 . S
C3082 C3085 1.409 . S
C3083 H3075 0.930 . S
C3083 C3084 1.355 . S
C3083 C3085 1.415 . S
C3084 C3083 1.355 . S
C3084 C3086 1.419 . S
C3085 C3080 1.425 . S
C3085 C3082 1.409 . S
C3085 C3083 1.415 . S
C3086 H3076 0.930 . S
C3086 C3084 1.419 . S
C3086 C3087 1.362 . S
C3087 H3077 0.930 . S
C3087 C3080 1.409 . S
C3087 C3086 1.362 . S
H3088 C3094 0.930 . S
H3089 C3097 0.930 . S
H3090 C3098 0.930 . S
H3091 C3099 0.930 . S
H3092 C3102 0.930 . S
H3093 C3103 0.930 . S
C3094 H3088 0.930 . S
C3094 C3095 1.355 . S
C3094 C3096 1.415 . S
C3095 C3094 1.355 . S
C3095 C3097 1.419 . S
C3096 C3094 1.415 . S
C3096 C3101 1.425 . S
C3096 C3103 1.409 . S
C3097 H3089 0.930 . S
C3097 C3095 1.419 . S
C3097 C3098 1.362 . S
C3098 H3090 0.930 . S
C3098 C3097 1.362 . S
C3098 C3101 1.409 . S
C3099 H3091 0.930 . S
C3099 C3100 1.355 . S
C3099 C3101 1.415 . S
C3100 C3099 1.355 . S
C3100 C3102 1.419 . S
C3101 C3096 1.425 . S
C3101 C3098 1.409 . S
C3101 C3099 1.415 . S
C3102 H3092 0.930 . S
C3102 C3100 1.419 . S
C3102 C3103 1.362 . S
C3103 H3093 0.930 . S
C3103 C3096 1.409 . S
C3103 C3102 1.362 . S
H3104 C3110 0.930 . S
H3105 C3113 0.930 . S
H3106 C3114 0.930 1_455 S
H3107 C3115 0.930 1_455 S
H3108 C3118 0.930 . S
H3109 C3119 0.930 . S
C3110 H3104 0.930 . S
C3110 C3111 1.355 . S
C3110 C3112 1.415 . S
C3111 C3110 1.355 . S
C3111 C3113 1.419 . S
C3112 C3110 1.415 . S
C3112 C3117 1.425 . S
C3112 C3119 1.409 . S
C3113 H3105 0.930 . S
C3113 C3111 1.419 . S
C3113 C3114 1.362 . S
C3114 H3106 0.930 1_655 S
C3114 C3113 1.362 . S
C3114 C3117 1.409 . S
C3115 H3107 0.930 1_655 S
C3115 C3116 1.355 . S
C3115 C3117 1.415 . S
C3116 C3115 1.355 . S
C3116 C3118 1.419 . S
C3117 C3112 1.425 . S
C3117 C3114 1.409 . S
C3117 C3115 1.415 . S
C3118 H3108 0.930 . S
C3118 C3116 1.419 . S
C3118 C3119 1.362 . S
C3119 H3109 0.930 . S
C3119 C3112 1.409 . S
C3119 C3118 1.362 . S
H3120 C3126 0.930 . S
H3121 C3129 0.930 . S
H3122 C3130 0.930 . S
H3123 C3131 0.930 . S
H3124 C3134 0.930 . S
H3125 C3135 0.930 . S
C3126 H3120 0.930 . S
C3126 C3127 1.355 . S
C3126 C3128 1.415 . S
C3127 C3126 1.355 . S
C3127 C3129 1.419 . S
C3128 C3126 1.415 . S
C3128 C3133 1.425 . S
C3128 C3135 1.409 . S
C3129 H3121 0.930 . S
C3129 C3127 1.419 . S
C3129 C3130 1.362 . S
C3130 H3122 0.930 . S
C3130 C3129 1.362 . S
C3130 C3133 1.409 . S
C3131 H3123 0.930 . S
C3131 C3132 1.355 . S
C3131 C3133 1.415 . S
C3132 C3131 1.355 . S
C3132 C3134 1.419 . S
C3133 C3128 1.425 . S
C3133 C3130 1.409 . S
C3133 C3131 1.415 . S
C3134 H3124 0.930 . S
C3134 C3132 1.419 . S
C3134 C3135 1.362 . S
C3135 H3125 0.930 . S
C3135 C3128 1.409 . S
C3135 C3134 1.362 . S
H3136 C3142 0.930 . S
H3137 C3145 0.930 . S
H3138 C3146 0.930 . S
H3139 C3147 0.930 1_565 S
H3140 C3150 0.930 . S
H3141 C3151 0.930 . S
C3142 H3136 0.930 . S
C3142 C3143 1.355 . S
C3142 C3144 1.415 . S
C3143 C3142 1.355 . S
C3143 C3145 1.419 1_545 S
C3144 C3142 1.415 . S
C3144 C3149 1.425 . S
C3144 C3151 1.409 . S
C3145 H3137 0.930 . S
C3145 C3143 1.419 1_565 S
C3145 C3146 1.362 . S
C3146 H3138 0.930 . S
C3146 C3145 1.362 . S
C3146 C3149 1.409 1_565 S
C3147 H3139 0.930 1_545 S
C3147 C3148 1.355 . S
C3147 C3149 1.415 . S
C3148 C3147 1.355 . S
C3148 C3150 1.419 . S
C3149 C3144 1.425 . S
C3149 C3146 1.409 1_545 S
C3149 C3147 1.415 . S
C3150 H3140 0.930 . S
C3150 C3148 1.419 . S
C3150 C3151 1.362 . S
C3151 H3141 0.930 . S
C3151 C3144 1.409 . S
C3151 C3150 1.362 . S
H3152 C3158 0.930 . S
H3153 C3161 0.930 . S
H3154 C3162 0.930 . S
H3155 C3163 0.930 . S
H3156 C3166 0.930 . S
H3157 C3167 0.930 . S
C3158 H3152 0.930 . S
C3158 C3159 1.355 . S
C3158 C3160 1.415 . S
C3159 C3158 1.355 . S
C3159 C3161 1.419 . S
C3160 C3158 1.415 . S
C3160 C3165 1.425 . S
C3160 C3167 1.409 . S
C3161 H3153 0.930 . S
C3161 C3159 1.419 . S
C3161 C3162 1.362 . S
C3162 H3154 0.930 . S
C3162 C3161 1.362 . S
C3162 C3165 1.409 . S
C3163 H3155 0.930 . S
C3163 C3164 1.355 . S
C3163 C3165 1.415 . S
C3164 C3163 1.355 . S
C3164 C3166 1.419 . S
C3165 C3160 1.425 . S
C3165 C3162 1.409 . S
C3165 C3163 1.415 . S
C3166 H3156 0.930 . S
C3166 C3164 1.419 . S
C3166 C3167 1.362 . S
C3167 H3157 0.930 . S
C3167 C3160 1.409 . S
C3167 C3166 1.362 . S
H3168 C3174 0.930 . S
H3169 C3177 0.930 . S
H3170 C3178 0.930 1_455 S
H3171 C3179 0.930 . S
H3172 C3182 0.930 . S
H3173 C3183 0.930 . S
C3174 H3168 0.930 . S
C3174 C3175 1.355 . S
C3174 C3176 1.415 . S
C3175 C3174 1.355 . S
C3175 C3177 1.419 . S
C3176 C3174 1.415 . S
C3176 C3181 1.425 . S
C3176 C3183 1.409 . S
C3177 H3169 0.930 . S
C3177 C3175 1.419 . S
C3177 C3178 1.362 . S
C3178 H3170 0.930 1_655 S
C3178 C3177 1.362 . S
C3178 C3181 1.409 . S
C3179 H3171 0.930 . S
C3179 C3180 1.355 1_455 S
C3179 C3181 1.415 1_455 S
C3180 C3179 1.355 1_655 S
C3180 C3182 1.419 . S
C3181 C3176 1.425 . S
C3181 C3178 1.409 . S
C3181 C3179 1.415 1_655 S
C3182 H3172 0.930 . S
C3182 C3180 1.419 . S
C3182 C3183 1.362 . S
C3183 H3173 0.930 . S
C3183 C3176 1.409 . S
C3183 C3182 1.362 . S
H3184 C3190 0.930 . S
H3185 C3193 0.930 . S
H3186 C3194 0.930 . S
H3187 C3195 0.930 . S
H3188 C3198 0.930 . S
H3189 C3199 0.930 . S
C3190 H3184 0.930 . S
C3190 C3191 1.355 . S
C3190 C3192 1.415 . S
C3191 C3190 1.355 . S
C3191 C3193 1.419 . S
C3192 C3190 1.415 . S
C3192 C3197 1.425 . S
C3192 C3199 1.409 . S
C3193 H3185 0.930 . S
C3193 C3191 1.419 . S
C3193 C3194 1.362 . S
C3194 H3186 0.930 . S
C3194 C3193 1.362 . S
C3194 C3197 1.409 . S
C3195 H3187 0.930 . S
C3195 C3196 1.355 . S
C3195 C3197 1.415 . S
C3196 C3195 1.355 . S
C3196 C3198 1.419 . S
C3197 C3192 1.425 . S
C3197 C3194 1.409 . S
C3197 C3195 1.415 . S
C3198 H3188 0.930 . S
C3198 C3196 1.419 . S
C3198 C3199 1.362 . S
C3199 H3189 0.930 . S
C3199 C3192 1.409 . S
C3199 C3198 1.362 . S
H3200 C3206 0.930 1_565 S
H3201 C3209 0.930 . S
H3202 C3210 0.930 . S
H3203 C3211 0.930 . S
H3204 C3214 0.930 . S
H3205 C3215 0.930 1_565 S
C3206 H3200 0.930 1_545 S
C3206 C3207 1.355 . S
C3206 C3208 1.415 . S
C3207 C3206 1.355 . S
C3207 C3209 1.419 . S
C3208 C3206 1.415 . S
C3208 C3213 1.425 . S
C3208 C3215 1.409 . S
C3209 H3201 0.930 . S
C3209 C3207 1.419 . S
C3209 C3210 1.362 . S
C3210 H3202 0.930 . S
C3210 C3209 1.362 . S
C3210 C3213 1.409 . S
C3211 H3203 0.930 . S
C3211 C3212 1.355 . S
C3211 C3213 1.415 . S
C3212 C3211 1.355 . S
C3212 C3214 1.419 . S
C3213 C3208 1.425 . S
C3213 C3210 1.409 . S
C3213 C3211 1.415 . S
C3214 H3204 0.930 . S
C3214 C3212 1.419 . S
C3214 C3215 1.362 . S
C3215 H3205 0.930 1_545 S
C3215 C3208 1.409 . S
C3215 C3214 1.362 . S
H3216 C3222 0.930 . S
H3217 C3225 0.930 . S
H3218 C3226 0.930 . S
H3219 C3227 0.930 . S
H3220 C3230 0.930 . S
H3221 C3231 0.930 . S
C3222 H3216 0.930 . S
C3222 C3223 1.355 . S
C3222 C3224 1.415 . S
C3223 C3222 1.355 . S
C3223 C3225 1.419 . S
C3224 C3222 1.415 . S
C3224 C3229 1.425 . S
C3224 C3231 1.409 . S
C3225 H3217 0.930 . S
C3225 C3223 1.419 . S
C3225 C3226 1.362 . S
C3226 H3218 0.930 . S
C3226 C3225 1.362 . S
C3226 C3229 1.409 . S
C3227 H3219 0.930 . S
C3227 C3228 1.355 . S
C3227 C3229 1.415 . S
C3228 C3227 1.355 . S
C3228 C3230 1.419 . S
C3229 C3224 1.425 . S
C3229 C3226 1.409 . S
C3229 C3227 1.415 . S
C3230 H3220 0.930 . S
C3230 C3228 1.419 . S
C3230 C3231 1.362 . S
C3231 H3221 0.930 . S
C3231 C3224 1.409 . S
C3231 C3230 1.362 . S
H3232 C3238 0.930 . S
H3233 C3241 0.930 . S
H3234 C3242 0.930 . S
H3235 C3243 0.930 . S
H3236 C3246 0.930 . S
H3237 C3247 0.930 . S
C3238 H3232 0.930 . S
C3238 C3239 1.355 . S
C3238 C3240 1.415 . S
C3239 C3238 1.355 . S
C3239 C3241 1.419 1_565 S
C3240 C3238 1.415 . S
C3240 C3245 1.425 1_565 S
C3240 C3247 1.409 . S
C3241 H3233 0.930 . S
C3241 C3239 1.419 1_545 S
C3241 C3242 1.362 . S
C3242 H3234 0.930 . S
C3242 C3241 1.362 . S
C3242 C3245 1.409 . S
C3243 H3235 0.930 . S
C3243 C3244 1.355 . S
C3243 C3245 1.415 . S
C3244 C3243 1.355 . S
C3244 C3246 1.419 1_545 S
C3245 C3240 1.425 1_545 S
C3245 C3242 1.409 . S
C3245 C3243 1.415 . S
C3246 H3236 0.930 . S
C3246 C3244 1.419 1_565 S
C3246 C3247 1.362 . S
C3247 H3237 0.930 . S
C3247 C3240 1.409 . S
C3247 C3246 1.362 . S
H3248 C3254 0.930 . S
H3249 C3257 0.930 . S
H3250 C3258 0.930 . S
H3251 C3259 0.930 . S
H3252 C3262 0.930 . S
H3253 C3263 0.930 . S
C3254 H3248 0.930 . S
C3254 C3255 1.355 1_556 S
C3254 C3256 1.415 . S
C3255 C3254 1.355 1_554 S
C3255 C3257 1.419 . S
C3256 C3254 1.415 . S
C3256 C3261 1.425 1_556 S
C3256 C3263 1.409 . S
C3257 H3249 0.930 . S
C3257 C3255 1.419 . S
C3257 C3258 1.362 . S
C3258 H3250 0.930 . S
C3258 C3257 1.362 . S
C3258 C3261 1.409 . S
C3259 H3251 0.930 . S
C3259 C3260 1.355 . S
C3259 C3261 1.415 . S
C3260 C3259 1.355 . S
C3260 C3262 1.419 1_554 S
C3261 C3256 1.425 1_554 S
C3261 C3258 1.409 . S
C3261 C3259 1.415 . S
C3262 H3252 0.930 . S
C3262 C3260 1.419 1_556 S
C3262 C3263 1.362 . S
C3263 H3253 0.930 . S
C3263 C3256 1.409 . S
C3263 C3262 1.362 . S
H3264 C3270 0.930 . S
H3265 C3273 0.930 . S
H3266 C3274 0.930 . S
H3267 C3275 0.930 . S
H3268 C3278 0.930 . S
H3269 C3279 0.930 . S
C3270 H3264 0.930 . S
C3270 C3271 1.355 . S
C3270 C3272 1.415 . S
C3271 C3270 1.355 . S
C3271 C3273 1.419 . S
C3272 C3270 1.415 . S
C3272 C3277 1.425 . S
C3272 C3279 1.409 . S
C3273 H3265 0.930 . S
C3273 C3271 1.419 . S
C3273 C3274 1.362 . S
C3274 H3266 0.930 . S
C3274 C3273 1.362 . S
C3274 C3277 1.409 . S
C3275 H3267 0.930 . S
C3275 C3276 1.355 . S
C3275 C3277 1.415 . S
C3276 C3275 1.355 . S
C3276 C3278 1.419 . S
C3277 C3272 1.425 . S
C3277 C3274 1.409 . S
C3277 C3275 1.415 . S
C3278 H3268 0.930 . S
C3278 C3276 1.419 . S
C3278 C3279 1.362 . S
C3279 H3269 0.930 . S
C3279 C3272 1.409 . S
C3279 C3278 1.362 . S
H3280 C3286 0.930 . S
H3281 C3289 0.930 . S
H3282 C3290 0.930 . S
H3283 C3291 0.930 . S
H3284 C3294 0.930 . S
H3285 C3295 0.930 . S
C3286 H3280 0.930 . S
C3286 C3287 1.355 . S
C3286 C3288 1.415 . S
C3287 C3286 1.355 . S
C3287 C3289 1.419 . S
C3288 C3286 1.415 . S
C3288 C3293 1.425 . S
C3288 C3295 1.409 . S
C3289 H3281 0.930 . S
C3289 C3287 1.419 . S
C3289 C3290 1.362 . S
C3290 H3282 0.930 . S
C3290 C3289 1.362 . S
C3290 C3293 1.409 . S
C3291 H3283 0.930 . S
C3291 C3292 1.355 . S
C3291 C3293 1.415 . S
C3292 C3291 1.355 . S
C3292 C3294 1.419 . S
C3293 C3288 1.425 . S
C3293 C3290 1.409 . S
C3293 C3291 1.415 . S
C3294 H3284 0.930 . S
C3294 C3292 1.419 . S
C3294 C3295 1.362 . S
C3295 H3285 0.930 . S
C3295 C3288 1.409 . S
C3295 C3294 1.362 . S
H3296 C3302 0.930 . S
H3297 C3305 0.930 . S
H3298 C3306 0.930 . S
H3299 C3307 0.930 . S
H3300 C3310 0.930 . S
H3301 C3311 0.930 . S
C3302 H3296 0.930 . S
C3302 C3303 1.355 . S
C3302 C3304 1.415 . S
C3303 C3302 1.355 . S
C3303 C3305 1.419 . S
C3304 C3302 1.415 . S
C3304 C3309 1.425 . S
C3304 C3311 1.409 . S
C3305 H3297 0.930 . S
C3305 C3303 1.419 . S
C3305 C3306 1.362 . S
C3306 H3298 0.930 . S
C3306 C3305 1.362 . S
C3306 C3309 1.409 . S
C3307 H3299 0.930 . S
C3307 C3308 1.355 . S
C3307 C3309 1.415 . S
C3308 C3307 1.355 . S
C3308 C3310 1.419 . S
C3309 C3304 1.425 . S
C3309 C3306 1.409 . S
C3309 C3307 1.415 . S
C3310 H3300 0.930 . S
C3310 C3308 1.419 . S
C3310 C3311 1.362 . S
C3311 H3301 0.930 . S
C3311 C3304 1.409 . S
C3311 C3310 1.362 . S
H3312 C3318 0.930 . S
H3313 C3321 0.930 . S
H3314 C3322 0.930 . S
H3315 C3323 0.930 . S
H3316 C3326 0.930 . S
H3317 C3327 0.930 . S
C3318 H3312 0.930 . S
C3318 C3319 1.355 . S
C3318 C3320 1.415 . S
C3319 C3318 1.355 . S
C3319 C3321 1.419 . S
C3320 C3318 1.415 . S
C3320 C3325 1.425 . S
C3320 C3327 1.409 . S
C3321 H3313 0.930 . S
C3321 C3319 1.419 . S
C3321 C3322 1.362 . S
C3322 H3314 0.930 . S
C3322 C3321 1.362 . S
C3322 C3325 1.409 . S
C3323 H3315 0.930 . S
C3323 C3324 1.355 . S
C3323 C3325 1.415 . S
C3324 C3323 1.355 . S
C3324 C3326 1.419 . S
C3325 C3320 1.425 . S
C3325 C3322 1.409 . S
C3325 C3323 1.415 . S
C3326 H3316 0.930 . S
C3326 C3324 1.419 . S
C3326 C3327 1.362 . S
C3327 H3317 0.930 . S
C3327 C3320 1.409 . S
C3327 C3326 1.362 . S
H3328 C3334 0.930 . S
H3329 C3337 0.930 . S
H3330 C3338 0.930 . S
H3331 C3339 0.930 . S
H3332 C3342 0.930 . S
H3333 C3343 0.930 . S
C3334 H3328 0.930 . S
C3334 C3335 1.355 . S
C3334 C3336 1.415 . S
C3335 C3334 1.355 . S
C3335 C3337 1.419 . S
C3336 C3334 1.415 . S
C3336 C3341 1.425 . S
C3336 C3343 1.409 . S
C3337 H3329 0.930 . S
C3337 C3335 1.419 . S
C3337 C3338 1.362 . S
C3338 H3330 0.930 . S
C3338 C3337 1.362 . S
C3338 C3341 1.409 . S
C3339 H3331 0.930 . S
C3339 C3340 1.355 . S
C3339 C3341 1.415 . S
C3340 C3339 1.355 . S
C3340 C3342 1.419 . S
C3341 C3336 1.425 . S
C3341 C3338 1.409 . S
C3341 C3339 1.415 . S
C3342 H3332 0.930 . S
C3342 C3340 1.419 . S
C3342 C3343 1.362 . S
C3343 H3333 0.930 . S
C3343 C3336 1.409 . S
C3343 C3342 1.362 . S
H3344 C3350 0.930 . S
H3345 C3353 0.930 . S
H3346 C3354 0.930 . S
H3347 C3355 0.930 . S
H3348 C3358 0.930 . S
H3349 C3359 0.930 . S
C3350 H3344 0.930 . S
C3350 C3351 1.355 . S
C3350 C3352 1.415 . S
C3351 C3350 1.355 . S
C3351 C3353 1.419 . S
C3352 C3350 1.415 . S
C3352 C3357 1.425 . S
C3352 C3359 1.409 . S
C3353 H3345 0.930 . S
C3353 C3351 1.419 . S
C3353 C3354 1.362 . S
C3354 H3346 0.930 . S
C3354 C3353 1.362 . S
C3354 C3357 1.409 . S
C3355 H3347 0.930 . S
C3355 C3356 1.355 . S
C3355 C3357 1.415 . S
C3356 C3355 1.355 . S
C3356 C3358 1.419 . S
C3357 C3352 1.425 . S
C3357 C3354 1.409 . S
C3357 C3355 1.415 . S
C3358 H3348 0.930 . S
C3358 C3356 1.419 . S
C3358 C3359 1.362 . S
C3359 H3349 0.930 . S
C3359 C3352 1.409 . S
C3359 C3358 1.362 . S
H3360 C3366 0.930 . S
H3361 C3369 0.930 . S
H3362 C3370 0.930 . S
H3363 C3371 0.930 . S
H3364 C3374 0.930 . S
H3365 C3375 0.930 . S
C3366 H3360 0.930 . S
C3366 C3367 1.355 . S
C3366 C3368 1.415 . S
C3367 C3366 1.355 . S
C3367 C3369 1.419 . S
C3368 C3366 1.415 . S
C3368 C3373 1.425 . S
C3368 C3375 1.409 . S
C3369 H3361 0.930 . S
C3369 C3367 1.419 . S
C3369 C3370 1.362 . S
C3370 H3362 0.930 . S
C3370 C3369 1.362 . S
C3370 C3373 1.409 . S
C3371 H3363 0.930 . S
C3371 C3372 1.355 . S
C3371 C3373 1.415 . S
C3372 C3371 1.355 . S
C3372 C3374 1.419 . S
C3373 C3368 1.425 . S
C3373 C3370 1.409 . S
C3373 C3371 1.415 . S
C3374 H3364 0.930 . S
C3374 C3372 1.419 . S
C3374 C3375 1.362 . S
C3375 H3365 0.930 . S
C3375 C3368 1.409 . S
C3375 C3374 1.362 . S
H3376 C3382 0.930 . S
H3377 C3385 0.930 . S
H3378 C3386 0.930 . S
H3379 C3387 0.930 . S
H3380 C3390 0.930 . S
H3381 C3391 0.930 . S
C3382 H3376 0.930 . S
C3382 C3383 1.355 . S
C3382 C3384 1.415 . S
C3383 C3382 1.355 . S
C3383 C3385 1.419 . S
C3384 C3382 1.415 . S
C3384 C3389 1.425 . S
C3384 C3391 1.409 . S
C3385 H3377 0.930 . S
C3385 C3383 1.419 . S
C3385 C3386 1.362 . S
C3386 H3378 0.930 . S
C3386 C3385 1.362 . S
C3386 C3389 1.409 . S
C3387 H3379 0.930 . S
C3387 C3388 1.355 . S
C3387 C3389 1.415 . S
C3388 C3387 1.355 . S
C3388 C3390 1.419 . S
C3389 C3384 1.425 . S
C3389 C3386 1.409 . S
C3389 C3387 1.415 . S
C3390 H3380 0.930 . S
C3390 C3388 1.419 . S
C3390 C3391 1.362 . S
C3391 H3381 0.930 . S
C3391 C3384 1.409 . S
C3391 C3390 1.362 . S
H3392 C3398 0.930 . S
H3393 C3401 0.930 . S
H3394 C3402 0.930 . S
H3395 C3403 0.930 . S
H3396 C3406 0.930 . S
H3397 C3407 0.930 . S
C3398 H3392 0.930 . S
C3398 C3399 1.355 . S
C3398 C3400 1.415 . S
C3399 C3398 1.355 . S
C3399 C3401 1.419 . S
C3400 C3398 1.415 . S
C3400 C3405 1.425 . S
C3400 C3407 1.409 . S
C3401 H3393 0.930 . S
C3401 C3399 1.419 . S
C3401 C3402 1.362 . S
C3402 H3394 0.930 . S
C3402 C3401 1.362 . S
C3402 C3405 1.409 . S
C3403 H3395 0.930 . S
C3403 C3404 1.355 . S
C3403 C3405 1.415 . S
C3404 C3403 1.355 . S
C3404 C3406 1.419 . S
C3405 C3400 1.425 . S
C3405 C3402 1.409 . S
C3405 C3403 1.415 . S
C3406 H3396 0.930 . S
C3406 C3404 1.419 . S
C3406 C3407 1.362 . S
C3407 H3397 0.930 . S
C3407 C3400 1.409 . S
C3407 C3406 1.362 . S
H3408 C3414 0.930 . S
H3409 C3417 0.930 . S
H3410 C3418 0.930 . S
H3411 C3419 0.930 . S
H3412 C3422 0.930 . S
H3413 C3423 0.930 . S
C3414 H3408 0.930 . S
C3414 C3415 1.355 . S
C3414 C3416 1.415 . S
C3415 C3414 1.355 . S
C3415 C3417 1.419 . S
C3416 C3414 1.415 . S
C3416 C3421 1.425 . S
C3416 C3423 1.409 . S
C3417 H3409 0.930 . S
C3417 C3415 1.419 . S
C3417 C3418 1.362 . S
C3418 H3410 0.930 . S
C3418 C3417 1.362 . S
C3418 C3421 1.409 . S
C3419 H3411 0.930 . S
C3419 C3420 1.355 . S
C3419 C3421 1.415 . S
C3420 C3419 1.355 . S
C3420 C3422 1.419 . S
C3421 C3416 1.425 . S
C3421 C3418 1.409 . S
C3421 C3419 1.415 . S
C3422 H3412 0.930 . S
C3422 C3420 1.419 . S
C3422 C3423 1.362 . S
C3423 H3413 0.930 . S
C3423 C3416 1.409 . S
C3423 C3422 1.362 . S
H3424 C3430 0.930 . S
H3425 C3433 0.930 . S
H3426 C3434 0.930 . S
H3427 C3435 0.930 . S
H3428 C3438 0.930 . S
H3429 C3439 0.930 . S
C3430 H3424 0.930 . S
C3430 C3431 1.355 . S
C3430 C3432 1.415 . S
C3431 C3430 1.355 . S
C3431 C3433 1.419 . S
C3432 C3430 1.415 . S
C3432 C3437 1.425 . S
C3432 C3439 1.409 . S
C3433 H3425 0.930 . S
C3433 C3431 1.419 . S
C3433 C3434 1.362 . S
C3434 H3426 0.930 . S
C3434 C3433 1.362 . S
C3434 C3437 1.409 . S
C3435 H3427 0.930 . S
C3435 C3436 1.355 . S
C3435 C3437 1.415 . S
C3436 C3435 1.355 . S
C3436 C3438 1.419 . S
C3437 C3432 1.425 . S
C3437 C3434 1.409 . S
C3437 C3435 1.415 . S
C3438 H3428 0.930 . S
C3438 C3436 1.419 . S
C3438 C3439 1.362 . S
C3439 H3429 0.930 . S
C3439 C3432 1.409 . S
C3439 C3438 1.362 . S
H3440 C3446 0.930 . S
H3441 C3449 0.930 . S
H3442 C3450 0.930 . S
H3443 C3451 0.930 . S
H3444 C3454 0.930 . S
H3445 C3455 0.930 . S
C3446 H3440 0.930 . S
C3446 C3447 1.355 . S
C3446 C3448 1.415 . S
C3447 C3446 1.355 . S
C3447 C3449 1.419 . S
C3448 C3446 1.415 . S
C3448 C3453 1.425 . S
C3448 C3455 1.409 . S
C3449 H3441 0.930 . S
C3449 C3447 1.419 . S
C3449 C3450 1.362 . S
C3450 H3442 0.930 . S
C3450 C3449 1.362 . S
C3450 C3453 1.409 . S
C3451 H3443 0.930 . S
C3451 C3452 1.355 . S
C3451 C3453 1.415 . S
C3452 C3451 1.355 . S
C3452 C3454 1.419 . S
C3453 C3448 1.425 . S
C3453 C3450 1.409 . S
C3453 C3451 1.415 . S
C3454 H3444 0.930 . S
C3454 C3452 1.419 . S
C3454 C3455 1.362 . S
C3455 H3445 0.930 . S
C3455 C3448 1.409 . S
C3455 C3454 1.362 . S
H3456 C3462 0.930 . S
H3457 C3465 0.930 . S
H3458 C3466 0.930 . S
H3459 C3467 0.930 . S
H3460 C3470 0.930 . S
H3461 C3471 0.930 . S
C3462 H3456 0.930 . S
C3462 C3463 1.355 . S
C3462 C3464 1.415 . S
C3463 C3462 1.355 . S
C3463 C3465 1.419 . S
C3464 C3462 1.415 . S
C3464 C3469 1.425 . S
C3464 C3471 1.409 . S
C3465 H3457 0.930 . S
C3465 C3463 1.419 . S
C3465 C3466 1.362 . S
C3466 H3458 0.930 . S
C3466 C3465 1.362 . S
C3466 C3469 1.409 . S
C3467 H3459 0.930 . S
C3467 C3468 1.355 . S
C3467 C3469 1.415 . S
C3468 C3467 1.355 . S
C3468 C3470 1.419 . S
C3469 C3464 1.425 . S
C3469 C3466 1.409 . S
C3469 C3467 1.415 . S
C3470 H3460 0.930 . S
C3470 C3468 1.419 . S
C3470 C3471 1.362 . S
C3471 H3461 0.930 . S
C3471 C3464 1.409 . S
C3471 C3470 1.362 . S
H3472 C3478 0.930 . S
H3473 C3481 0.930 . S
H3474 C3482 0.930 . S
H3475 C3483 0.930 . S
H3476 C3486 0.930 . S
H3477 C3487 0.930 . S
C3478 H3472 0.930 . S
C3478 C3479 1.355 . S
C3478 C3480 1.415 . S
C3479 C3478 1.355 . S
C3479 C3481 1.419 . S
C3480 C3478 1.415 . S
C3480 C3485 1.425 . S
C3480 C3487 1.409 . S
C3481 H3473 0.930 . S
C3481 C3479 1.419 . S
C3481 C3482 1.362 . S
C3482 H3474 0.930 . S
C3482 C3481 1.362 . S
C3482 C3485 1.409 . S
C3483 H3475 0.930 . S
C3483 C3484 1.355 . S
C3483 C3485 1.415 . S
C3484 C3483 1.355 . S
C3484 C3486 1.419 . S
C3485 C3480 1.425 . S
C3485 C3482 1.409 . S
C3485 C3483 1.415 . S
C3486 H3476 0.930 . S
C3486 C3484 1.419 . S
C3486 C3487 1.362 . S
C3487 H3477 0.930 . S
C3487 C3480 1.409 . S
C3487 C3486 1.362 . S
H3488 C3494 0.930 . S
H3489 C3497 0.930 . S
H3490 C3498 0.930 . S
H3491 C3499 0.930 . S
H3492 C3502 0.930 . S
H3493 C3503 0.930 . S
C3494 H3488 0.930 . S
C3494 C3495 1.355 . S
C3494 C3496 1.415 . S
C3495 C3494 1.355 . S
C3495 C3497 1.419 . S
C3496 C3494 1.415 . S
C3496 C3501 1.425 . S
C3496 C3503 1.409 . S
C3497 H3489 0.930 . S
C3497 C3495 1.419 . S
C3497 C3498 1.362 . S
C3498 H3490 0.930 . S
C3498 C3497 1.362 . S
C3498 C3501 1.409 . S
C3499 H3491 0.930 . S
C3499 C3500 1.355 . S
C3499 C3501 1.415 . S
C3500 C3499 1.355 . S
C3500 C3502 1.419 . S
C3501 C3496 1.425 . S
C3501 C3498 1.409 . S
C3501 C3499 1.415 . S
C3502 H3492 0.930 . S
C3502 C3500 1.419 . S
C3502 C3503 1.362 . S
C3503 H3493 0.930 . S
C3503 C3496 1.409 . S
C3503 C3502 1.362 . S
H3504 C3510 0.930 . S
H3505 C3513 0.930 . S
H3506 C3514 0.930 . S
H3507 C3515 0.930 . S
H3508 C3518 0.930 . S
H3509 C3519 0.930 . S
C3510 H3504 0.930 . S
C3510 C3511 1.355 . S
C3510 C3512 1.415 . S
C3511 C3510 1.355 . S
C3511 C3513 1.419 . S
C3512 C3510 1.415 . S
C3512 C3517 1.425 . S
C3512 C3519 1.409 . S
C3513 H3505 0.930 . S
C3513 C3511 1.419 . S
C3513 C3514 1.362 . S
C3514 H3506 0.930 . S
C3514 C3513 1.362 . S
C3514 C3517 1.409 . S
C3515 H3507 0.930 . S
C3515 C3516 1.355 . S
C3515 C3517 1.415 . S
C3516 C3515 1.355 . S
C3516 C3518 1.419 . S
C3517 C3512 1.425 . S
C3517 C3514 1.409 . S
C3517 C3515 1.415 . S
C3518 H3508 0.930 . S
C3518 C3516 1.419 . S
C3518 C3519 1.362 . S
C3519 H3509 0.930 . S
C3519 C3512 1.409 . S
C3519 C3518 1.362 . S
H3520 C3526 0.930 . S
H3521 C3529 0.930 . S
H3522 C3530 0.930 . S
H3523 C3531 0.930 . S
H3524 C3534 0.930 . S
H3525 C3535 0.930 . S
C3526 H3520 0.930 . S
C3526 C3527 1.355 . S
C3526 C3528 1.415 . S
C3527 C3526 1.355 . S
C3527 C3529 1.419 . S
C3528 C3526 1.415 . S
C3528 C3533 1.425 . S
C3528 C3535 1.409 1_655 S
C3529 H3521 0.930 . S
C3529 C3527 1.419 . S
C3529 C3530 1.362 . S
C3530 H3522 0.930 . S
C3530 C3529 1.362 . S
C3530 C3533 1.409 . S
C3531 H3523 0.930 . S
C3531 C3532 1.355 1_655 S
C3531 C3533 1.415 . S
C3532 C3531 1.355 1_455 S
C3532 C3534 1.419 . S
C3533 C3528 1.425 . S
C3533 C3530 1.409 . S
C3533 C3531 1.415 . S
C3534 H3524 0.930 . S
C3534 C3532 1.419 . S
C3534 C3535 1.362 . S
C3535 H3525 0.930 . S
C3535 C3528 1.409 1_455 S
C3535 C3534 1.362 . S
H3536 C3542 0.930 . S
H3537 C3545 0.930 . S
H3538 C3546 0.930 . S
H3539 C3547 0.930 . S
H3540 C3550 0.930 . S
H3541 C3551 0.930 . S
C3542 H3536 0.930 . S
C3542 C3543 1.355 . S
C3542 C3544 1.415 . S
C3543 C3542 1.355 . S
C3543 C3545 1.419 . S
C3544 C3542 1.415 . S
C3544 C3549 1.425 . S
C3544 C3551 1.409 . S
C3545 H3537 0.930 . S
C3545 C3543 1.419 . S
C3545 C3546 1.362 . S
C3546 H3538 0.930 . S
C3546 C3545 1.362 . S
C3546 C3549 1.409 . S
C3547 H3539 0.930 . S
C3547 C3548 1.355 . S
C3547 C3549 1.415 . S
C3548 C3547 1.355 . S
C3548 C3550 1.419 . S
C3549 C3544 1.425 . S
C3549 C3546 1.409 . S
C3549 C3547 1.415 . S
C3550 H3540 0.930 . S
C3550 C3548 1.419 . S
C3550 C3551 1.362 . S
C3551 H3541 0.930 . S
C3551 C3544 1.409 . S
C3551 C3550 1.362 . S
H3552 C3558 0.930 . S
H3553 C3561 0.930 . S
H3554 C3562 0.930 . S
H3555 C3563 0.930 . S
H3556 C3566 0.930 . S
H3557 C3567 0.930 . S
C3558 H3552 0.930 . S
C3558 C3559 1.355 . S
C3558 C3560 1.415 . S
C3559 C3558 1.355 . S
C3559 C3561 1.419 . S
C3560 C3558 1.415 . S
C3560 C3565 1.425 . S
C3560 C3567 1.409 . S
C3561 H3553 0.930 . S
C3561 C3559 1.419 . S
C3561 C3562 1.362 . S
C3562 H3554 0.930 . S
C3562 C3561 1.362 . S
C3562 C3565 1.409 . S
C3563 H3555 0.930 . S
C3563 C3564 1.355 . S
C3563 C3565 1.415 . S
C3564 C3563 1.355 . S
C3564 C3566 1.419 . S
C3565 C3560 1.425 . S
C3565 C3562 1.409 . S
C3565 C3563 1.415 . S
C3566 H3556 0.930 . S
C3566 C3564 1.419 . S
C3566 C3567 1.362 . S
C3567 H3557 0.930 . S
C3567 C3560 1.409 . S
C3567 C3566 1.362 . S
H3568 C3574 0.930 . S
H3569 C3577 0.930 . S
H3570 C3578 0.930 . S
H3571 C3579 0.930 . S
H3572 C3582 0.930 . S
H3573 C3583 0.930 . S
C3574 H3568 0.930 . S
C3574 C3575 1.355 . S
C3574 C3576 1.415 . S
C3575 C3574 1.355 . S
C3575 C3577 1.419 . S
C3576 C3574 1.415 . S
C3576 C3581 1.425 . S
C3576 C3583 1.409 . S
C3577 H3569 0.930 . S
C3577 C3575 1.419 . S
C3577 C3578 1.362 . S
C3578 H3570 0.930 . S
C3578 C3577 1.362 . S
C3578 C3581 1.409 . S
C3579 H3571 0.930 . S
C3579 C3580 1.355 . S
C3579 C3581 1.415 . S
C3580 C3579 1.355 . S
C3580 C3582 1.419 . S
C3581 C3576 1.425 . S
C3581 C3578 1.409 . S
C3581 C3579 1.415 . S
C3582 H3572 0.930 . S
C3582 C3580 1.419 . S
C3582 C3583 1.362 . S
C3583 H3573 0.930 . S
C3583 C3576 1.409 . S
C3583 C3582 1.362 . S
H3584 C3590 0.930 . S
H3585 C3593 0.930 . S
H3586 C3594 0.930 . S
H3587 C3595 0.930 . S
H3588 C3598 0.930 . S
H3589 C3599 0.930 . S
C3590 H3584 0.930 . S
C3590 C3591 1.355 . S
C3590 C3592 1.415 . S
C3591 C3590 1.355 . S
C3591 C3593 1.419 . S
C3592 C3590 1.415 . S
C3592 C3597 1.425 . S
C3592 C3599 1.409 . S
C3593 H3585 0.930 . S
C3593 C3591 1.419 . S
C3593 C3594 1.362 . S
C3594 H3586 0.930 . S
C3594 C3593 1.362 . S
C3594 C3597 1.409 . S
C3595 H3587 0.930 . S
C3595 C3596 1.355 . S
C3595 C3597 1.415 . S
C3596 C3595 1.355 . S
C3596 C3598 1.419 . S
C3597 C3592 1.425 . S
C3597 C3594 1.409 . S
C3597 C3595 1.415 . S
C3598 H3588 0.930 . S
C3598 C3596 1.419 . S
C3598 C3599 1.362 . S
C3599 H3589 0.930 . S
C3599 C3592 1.409 . S
C3599 C3598 1.362 . S
H3600 C3606 0.930 . S
H3601 C3609 0.930 . S
H3602 C3610 0.930 . S
H3603 C3611 0.930 . S
H3604 C3614 0.930 . S
H3605 C3615 0.930 . S
C3606 H3600 0.930 . S
C3606 C3607 1.355 . S
C3606 C3608 1.415 . S
C3607 C3606 1.355 . S
C3607 C3609 1.419 . S
C3608 C3606 1.415 . S
C3608 C3613 1.425 . S
C3608 C3615 1.409 . S
C3609 H3601 0.930 . S
C3609 C3607 1.419 . S
C3609 C3610 1.362 . S
C3610 H3602 0.930 . S
C3610 C3609 1.362 . S
C3610 C3613 1.409 . S
C3611 H3603 0.930 . S
C3611 C3612 1.355 . S
C3611 C3613 1.415 . S
C3612 C3611 1.355 . S
C3612 C3614 1.419 . S
C3613 C3608 1.425 . S
C3613 C3610 1.409 . S
C3613 C3611 1.415 . S
C3614 H3604 0.930 . S
C3614 C3612 1.419 . S
C3614 C3615 1.362 . S
C3615 H3605 0.930 . S
C3615 C3608 1.409 . S
C3615 C3614 1.362 . S
H3616 C3622 0.930 . S
H3617 C3625 0.930 . S
H3618 C3626 0.930 . S
H3619 C3627 0.930 . S
H3620 C3630 0.930 . S
H3621 C3631 0.930 . S
C3622 H3616 0.930 . S
C3622 C3623 1.355 . S
C3622 C3624 1.415 . S
C3623 C3622 1.355 . S
C3623 C3625 1.419 . S
C3624 C3622 1.415 . S
C3624 C3629 1.425 . S
C3624 C3631 1.409 . S
C3625 H3617 0.930 . S
C3625 C3623 1.419 . S
C3625 C3626 1.362 . S
C3626 H3618 0.930 . S
C3626 C3625 1.362 . S
C3626 C3629 1.409 . S
C3627 H3619 0.930 . S
C3627 C3628 1.355 . S
C3627 C3629 1.415 . S
C3628 C3627 1.355 . S
C3628 C3630 1.419 . S
C3629 C3624 1.425 . S
C3629 C3626 1.409 . S
C3629 C3627 1.415 . S
C3630 H3620 0.930 . S
C3630 C3628 1.419 . S
C3630 C3631 1.362 . S
C3631 H3621 0.930 . S
C3631 C3624 1.409 . S
C3631 C3630 1.362 . S
H3632 C3638 0.930 . S
H3633 C3641 0.930 . S
H3634 C3642 0.930 . S
H3635 C3643 0.930 . S
H3636 C3646 0.930 . S
H3637 C3647 0.930 . S
C3638 H3632 0.930 . S
C3638 C3639 1.355 . S
C3638 C3640 1.415 . S
C3639 C3638 1.355 . S
C3639 C3641 1.419 . S
C3640 C3638 1.415 . S
C3640 C3645 1.425 . S
C3640 C3647 1.409 . S
C3641 H3633 0.930 . S
C3641 C3639 1.419 . S
C3641 C3642 1.362 1_565 S
C3642 H3634 0.930 . S
C3642 C3641 1.362 1_545 S
C3642 C3645 1.409 1_545 S
C3643 H3635 0.930 . S
C3643 C3644 1.355 . S
C3643 C3645 1.415 1_545 S
C3644 C3643 1.355 . S
C3644 C3646 1.419 1_545 S
C3645 C3640 1.425 . S
C3645 C3642 1.409 1_565 S
C3645 C3643 1.415 1_565 S
C3646 H3636 0.930 . S
C3646 C3644 1.419 1_565 S
C3646 C3647 1.362 . S
C3647 H3637 0.930 . S
C3647 C3640 1.409 . S
C3647 C3646 1.362 . S
H3648 C3654 0.930 . S
H3649 C3657 0.930 . S
H3650 C3658 0.930 . S
H3651 C3659 0.930 . S
H3652 C3662 0.930 . S
H3653 C3663 0.930 . S
C3654 H3648 0.930 . S
C3654 C3655 1.355 . S
C3654 C3656 1.415 . S
C3655 C3654 1.355 . S
C3655 C3657 1.419 . S
C3656 C3654 1.415 . S
C3656 C3661 1.425 . S
C3656 C3663 1.409 . S
C3657 H3649 0.930 . S
C3657 C3655 1.419 . S
C3657 C3658 1.362 . S
C3658 H3650 0.930 . S
C3658 C3657 1.362 . S
C3658 C3661 1.409 . S
C3659 H3651 0.930 . S
C3659 C3660 1.355 . S
C3659 C3661 1.415 . S
C3660 C3659 1.355 . S
C3660 C3662 1.419 . S
C3661 C3656 1.425 . S
C3661 C3658 1.409 . S
C3661 C3659 1.415 . S
C3662 H3652 0.930 . S
C3662 C3660 1.419 . S
C3662 C3663 1.362 . S
C3663 H3653 0.930 . S
C3663 C3656 1.409 . S
C3663 C3662 1.362 . S
H3664 C3670 0.930 . S
H3665 C3673 0.930 . S
H3666 C3674 0.930 . S
H3667 C3675 0.930 . S
H3668 C3678 0.930 . S
H3669 C3679 0.930 . S
C3670 H3664 0.930 . S
C3670 C3671 1.355 . S
C3670 C3672 1.415 . S
C3671 C3670 1.355 . S
C3671 C3673 1.419 . S
C3672 C3670 1.415 . S
C3672 C3677 1.425 . S
C3672 C3679 1.409 . S
C3673 H3665 0.930 . S
C3673 C3671 1.419 . S
C3673 C3674 1.362 . S
C3674 H3666 0.930 . S
C3674 C3673 1.362 . S
C3674 C3677 1.409 . S
C3675 H3667 0.930 . S
C3675 C3676 1.355 . S
C3675 C3677 1.415 . S
C3676 C3675 1.355 . S
C3676 C3678 1.419 . S
C3677 C3672 1.425 . S
C3677 C3674 1.409 . S
C3677 C3675 1.415 . S
C3678 H3668 0.930 . S
C3678 C3676 1.419 . S
C3678 C3679 1.362 . S
C3679 H3669 0.930 . S
C3679 C3672 1.409 . S
C3679 C3678 1.362 . S
H3680 C3686 0.930 . S
H3681 C3689 0.930 . S
H3682 C3690 0.930 . S
H3683 C3691 0.930 . S
H3684 C3694 0.930 . S
H3685 C3695 0.930 . S
C3686 H3680 0.930 . S
C3686 C3687 1.355 . S
C3686 C3688 1.415 . S
C3687 C3686 1.355 . S
C3687 C3689 1.419 . S
C3688 C3686 1.415 . S
C3688 C3693 1.425 . S
C3688 C3695 1.409 . S
C3689 H3681 0.930 . S
C3689 C3687 1.419 . S
C3689 C3690 1.362 . S
C3690 H3682 0.930 . S
C3690 C3689 1.362 . S
C3690 C3693 1.409 . S
C3691 H3683 0.930 . S
C3691 C3692 1.355 . S
C3691 C3693 1.415 . S
C3692 C3691 1.355 . S
C3692 C3694 1.419 . S
C3693 C3688 1.425 . S
C3693 C3690 1.409 . S
C3693 C3691 1.415 . S
C3694 H3684 0.930 . S
C3694 C3692 1.419 . S
C3694 C3695 1.362 . S
C3695 H3685 0.930 . S
C3695 C3688 1.409 . S
C3695 C3694 1.362 . S
H3696 C3702 0.930 . S
H3697 C3705 0.930 . S
H3698 C3706 0.930 . S
H3699 C3707 0.930 . S
H3700 C3710 0.930 . S
H3701 C3711 0.930 . S
C3702 H3696 0.930 . S
C3702 C3703 1.355 . S
C3702 C3704 1.415 . S
C3703 C3702 1.355 . S
C3703 C3705 1.419 . S
C3704 C3702 1.415 . S
C3704 C3709 1.425 . S
C3704 C3711 1.409 . S
C3705 H3697 0.930 . S
C3705 C3703 1.419 . S
C3705 C3706 1.362 . S
C3706 H3698 0.930 . S
C3706 C3705 1.362 . S
C3706 C3709 1.409 . S
C3707 H3699 0.930 . S
C3707 C3708 1.355 . S
C3707 C3709 1.415 . S
C3708 C3707 1.355 . S
C3708 C3710 1.419 . S
C3709 C3704 1.425 . S
C3709 C3706 1.409 . S
C3709 C3707 1.415 . S
C3710 H3700 0.930 . S
C3710 C3708 1.419 . S
C3710 C3711 1.362 . S
C3711 H3701 0.930 . S
C3711 C3704 1.409 . S
C3711 C3710 1.362 . S
H3712 C3718 0.930 . S
H3713 C3721 0.930 . S
H3714 C3722 0.930 . S
H3715 C3723 0.930 . S
H3716 C3726 0.930 . S
H3717 C3727 0.930 . S
C3718 H3712 0.930 . S
C3718 C3719 1.355 . S
C3718 C3720 1.415 . S
C3719 C3718 1.355 . S
C3719 C3721 1.419 . S
C3720 C3718 1.415 . S
C3720 C3725 1.425 . S
C3720 C3727 1.409 . S
C3721 H3713 0.930 . S
C3721 C3719 1.419 . S
C3721 C3722 1.362 . S
C3722 H3714 0.930 . S
C3722 C3721 1.362 . S
C3722 C3725 1.409 . S
C3723 H3715 0.930 . S
C3723 C3724 1.355 . S
C3723 C3725 1.415 . S
C3724 C3723 1.355 . S
C3724 C3726 1.419 . S
C3725 C3720 1.425 . S
C3725 C3722 1.409 . S
C3725 C3723 1.415 . S
C3726 H3716 0.930 . S
C3726 C3724 1.419 . S
C3726 C3727 1.362 . S
C3727 H3717 0.930 . S
C3727 C3720 1.409 . S
C3727 C3726 1.362 . S
H3728 C3734 0.930 . S
H3729 C3737 0.930 . S
H3730 C3738 0.930 . S
H3731 C3739 0.930 . S
H3732 C3742 0.930 . S
H3733 C3743 0.930 . S
C3734 H3728 0.930 . S
C3734 C3735 1.355 . S
C3734 C3736 1.415 . S
C3735 C3734 1.355 . S
C3735 C3737 1.419 . S
C3736 C3734 1.415 . S
C3736 C3741 1.425 . S
C3736 C3743 1.409 . S
C3737 H3729 0.930 . S
C3737 C3735 1.419 . S
C3737 C3738 1.362 . S
C3738 H3730 0.930 . S
C3738 C3737 1.362 . S
C3738 C3741 1.409 . S
C3739 H3731 0.930 . S
C3739 C3740 1.355 . S
C3739 C3741 1.415 . S
C3740 C3739 1.355 . S
C3740 C3742 1.419 . S
C3741 C3736 1.425 . S
C3741 C3738 1.409 . S
C3741 C3739 1.415 . S
C3742 H3732 0.930 . S
C3742 C3740 1.419 . S
C3742 C3743 1.362 . S
C3743 H3733 0.930 . S
C3743 C3736 1.409 . S
C3743 C3742 1.362 . S
H3744 C3750 0.930 . S
H3745 C3753 0.930 . S
H3746 C3754 0.930 . S
H3747 C3755 0.930 . S
H3748 C3758 0.930 . S
H3749 C3759 0.930 . S
C3750 H3744 0.930 . S
C3750 C3751 1.355 . S
C3750 C3752 1.415 . S
C3751 C3750 1.355 . S
C3751 C3753 1.419 . S
C3752 C3750 1.415 . S
C3752 C3757 1.425 . S
C3752 C3759 1.409 . S
C3753 H3745 0.930 . S
C3753 C3751 1.419 . S
C3753 C3754 1.362 . S
C3754 H3746 0.930 . S
C3754 C3753 1.362 . S
C3754 C3757 1.409 . S
C3755 H3747 0.930 . S
C3755 C3756 1.355 . S
C3755 C3757 1.415 . S
C3756 C3755 1.355 . S
C3756 C3758 1.419 . S
C3757 C3752 1.425 . S
C3757 C3754 1.409 . S
C3757 C3755 1.415 . S
C3758 H3748 0.930 . S
C3758 C3756 1.419 . S
C3758 C3759 1.362 . S
C3759 H3749 0.930 . S
C3759 C3752 1.409 . S
C3759 C3758 1.362 . S
H3760 C3766 0.930 . S
H3761 C3769 0.930 . S
H3762 C3770 0.930 . S
H3763 C3771 0.930 . S
H3764 C3774 0.930 . S
H3765 C3775 0.930 . S
C3766 H3760 0.930 . S
C3766 C3767 1.355 . S
C3766 C3768 1.415 . S
C3767 C3766 1.355 . S
C3767 C3769 1.419 . S
C3768 C3766 1.415 . S
C3768 C3773 1.425 . S
C3768 C3775 1.409 . S
C3769 H3761 0.930 . S
C3769 C3767 1.419 . S
C3769 C3770 1.362 . S
C3770 H3762 0.930 . S
C3770 C3769 1.362 . S
C3770 C3773 1.409 . S
C3771 H3763 0.930 . S
C3771 C3772 1.355 . S
C3771 C3773 1.415 . S
C3772 C3771 1.355 . S
C3772 C3774 1.419 . S
C3773 C3768 1.425 . S
C3773 C3770 1.409 . S
C3773 C3771 1.415 . S
C3774 H3764 0.930 . S
C3774 C3772 1.419 . S
C3774 C3775 1.362 . S
C3775 H3765 0.930 . S
C3775 C3768 1.409 . S
C3775 C3774 1.362 . S
H3776 C3782 0.930 . S
H3777 C3785 0.932 1_554 S
H3778 C3786 0.930 1_655 S
H3779 C3787 0.930 1_655 S
H3780 C3790 0.930 . S
H3781 C3791 0.930 . S
C3782 H3776 0.930 . S
C3782 C3783 1.355 . S
C3782 C3784 1.415 . S
C3783 C3782 1.355 . S
C3783 C3785 1.419 . S
C3784 C3782 1.415 . S
C3784 C3789 1.425 . S
C3784 C3791 1.409 . S
C3785 H3777 0.932 1_556 S
C3785 C3783 1.419 . S
C3785 C3786 1.362 1_556 S
C3786 H3778 0.930 1_455 S
C3786 C3785 1.362 1_554 S
C3786 C3789 1.409 1_554 S
C3787 H3779 0.930 1_455 S
C3787 C3788 1.355 1_554 S
C3787 C3789 1.415 1_554 S
C3788 C3787 1.355 1_556 S
C3788 C3790 1.419 . S
C3789 C3784 1.425 . S
C3789 C3786 1.409 1_556 S
C3789 C3787 1.415 1_556 S
C3790 H3780 0.930 . S
C3790 C3788 1.419 . S
C3790 C3791 1.362 . S
C3791 H3781 0.930 . S
C3791 C3784 1.409 . S
C3791 C3790 1.362 . S
H3792 C3798 0.930 . S
H3793 C3801 0.930 . S
H3794 C3802 0.930 . S
H3795 C3803 0.930 . S
H3796 C3806 0.930 . S
H3797 C3807 0.930 . S
C3798 H3792 0.930 . S
C3798 C3799 1.355 . S
C3798 C3800 1.415 . S
C3799 C3798 1.355 . S
C3799 C3801 1.419 . S
C3800 C3798 1.415 . S
C3800 C3805 1.425 . S
C3800 C3807 1.409 . S
C3801 H3793 0.930 . S
C3801 C3799 1.419 . S
C3801 C3802 1.362 . S
C3802 H3794 0.930 . S
C3802 C3801 1.362 . S
C3802 C3805 1.409 . S
C3803 H3795 0.930 . S
C3803 C3804 1.355 . S
C3803 C3805 1.415 . S
C3804 C3803 1.355 . S
C3804 C3806 1.419 . S
C3805 C3800 1.425 . S
C3805 C3802 1.409 . S
C3805 C3803 1.415 . S
C3806 H3796 0.930 . S
C3806 C3804 1.419 . S
C3806 C3807 1.362 . S
C3807 H3797 0.930 . S
C3807 C3800 1.409 . S
C3807 C3806 1.362 . S
H3808 C3814 0.930 . S
H3809 C3817 0.930 . S
H3810 C3818 0.930 . S
H3811 C3819 0.930 . S
H3812 C3822 0.930 . S
H3813 C3823 0.930 . S
C3814 H3808 0.930 . S
C3814 C3815 1.355 . S
C3814 C3816 1.415 . S
C3815 C3814 1.355 . S
C3815 C3817 1.419 . S
C3816 C3814 1.415 . S
C3816 C3821 1.425 . S
C3816 C3823 1.409 . S
C3817 H3809 0.930 . S
C3817 C3815 1.419 . S
C3817 C3818 1.362 . S
C3818 H3810 0.930 . S
C3818 C3817 1.362 . S
C3818 C3821 1.409 . S
C3819 H3811 0.930 . S
C3819 C3820 1.355 . S
C3819 C3821 1.415 . S
C3820 C3819 1.355 . S
C3820 C3822 1.419 . S
C3821 C3816 1.425 . S
C3821 C3818 1.409 . S
C3821 C3819 1.415 . S
C3822 H3812 0.930 . S
C3822 C3820 1.419 . S
C3822 C3823 1.362 . S
C3823 H3813 0.930 . S
C3823 C3816 1.409 . S
C3823 C3822 1.362 . S
H3824 C3830 0.930 . S
H3825 C3833 0.930 . S
H3826 C3834 0.930 . S
H3827 C3835 0.930 . S
H3828 C3838 0.930 . S
H3829 C3839 0.930 . S
C3830 H3824 0.930 . S
C3830 C3831 1.355 . S
C3830 C3832 1.415 . S
C3831 C3830 1.355 . S
C3831 C3833 1.419 . S
C3832 C3830 1.415 . S
C3832 C3837 1.425 . S
C3832 C3839 1.409 . S
C3833 H3825 0.930 . S
C3833 C3831 1.419 . S
C3833 C3834 1.362 . S
C3834 H3826 0.930 . S
C3834 C3833 1.362 . S
C3834 C3837 1.409 . S
C3835 H3827 0.930 . S
C3835 C3836 1.355 . S
C3835 C3837 1.415 . S
C3836 C3835 1.355 . S
C3836 C3838 1.419 . S
C3837 C3832 1.425 . S
C3837 C3834 1.409 . S
C3837 C3835 1.415 . S
C3838 H3828 0.930 . S
C3838 C3836 1.419 . S
C3838 C3839 1.362 . S
C3839 H3829 0.930 . S
C3839 C3832 1.409 . S
C3839 C3838 1.362 . S
H3840 C3846 0.930 . S
H3841 C3849 0.930 . S
H3842 C3850 0.930 . S
H3843 C3851 0.930 . S
H3844 C3854 0.926 1_655 S
H3845 C3855 0.930 . S
C3846 H3840 0.930 . S
C3846 C3847 1.350 1_655 S
C3846 C3848 1.409 1_655 S
C3847 C3846 1.350 1_455 S
C3847 C3849 1.431 . S
C3848 C3846 1.409 1_455 S
C3848 C3853 1.436 . S
C3848 C3855 1.406 1_455 S
C3849 H3841 0.930 . S
C3849 C3847 1.431 . S
C3849 C3850 1.362 . S
C3850 H3842 0.930 . S
C3850 C3849 1.362 . S
C3850 C3853 1.409 . S
C3851 H3843 0.930 . S
C3851 C3852 1.355 . S
C3851 C3853 1.415 . S
C3852 C3851 1.355 . S
C3852 C3854 1.429 . S
C3853 C3848 1.436 . S
C3853 C3850 1.409 . S
C3853 C3851 1.415 . S
C3854 H3844 0.926 1_455 S
C3854 C3852 1.429 . S
C3854 C3855 1.358 1_455 S
C3855 H3845 0.930 . S
C3855 C3848 1.406 1_655 S
C3855 C3854 1.358 1_655 S
H3856 C3862 0.930 . S
H3857 C3865 0.930 . S
H3858 C3866 0.930 . S
H3859 C3867 0.930 . S
H3860 C3870 0.930 . S
H3861 C3871 0.930 . S
C3862 H3856 0.930 . S
C3862 C3863 1.355 . S
C3862 C3864 1.415 . S
C3863 C3862 1.355 . S
C3863 C3865 1.419 . S
C3864 C3862 1.415 . S
C3864 C3869 1.425 . S
C3864 C3871 1.409 . S
C3865 H3857 0.930 . S
C3865 C3863 1.419 . S
C3865 C3866 1.362 . S
C3866 H3858 0.930 . S
C3866 C3865 1.362 . S
C3866 C3869 1.409 . S
C3867 H3859 0.930 . S
C3867 C3868 1.355 . S
C3867 C3869 1.415 . S
C3868 C3867 1.355 . S
C3868 C3870 1.419 . S
C3869 C3864 1.425 . S
C3869 C3866 1.409 . S
C3869 C3867 1.415 . S
C3870 H3860 0.930 . S
C3870 C3868 1.419 . S
C3870 C3871 1.362 . S
C3871 H3861 0.930 . S
C3871 C3864 1.409 . S
C3871 C3870 1.362 . S
H3872 C3878 0.930 . S
H3873 C3881 0.930 . S
H3874 C3882 0.930 . S
H3875 C3883 0.930 . S
H3876 C3886 0.930 . S
H3877 C3887 0.930 . S
C3878 H3872 0.930 . S
C3878 C3879 1.355 . S
C3878 C3880 1.415 . S
C3879 C3878 1.355 . S
C3879 C3881 1.419 . S
C3880 C3878 1.415 . S
C3880 C3885 1.425 . S
C3880 C3887 1.409 . S
C3881 H3873 0.930 . S
C3881 C3879 1.419 . S
C3881 C3882 1.362 . S
C3882 H3874 0.930 . S
C3882 C3881 1.362 . S
C3882 C3885 1.409 . S
C3883 H3875 0.930 . S
C3883 C3884 1.355 . S
C3883 C3885 1.415 . S
C3884 C3883 1.355 . S
C3884 C3886 1.419 . S
C3885 C3880 1.425 . S
C3885 C3882 1.409 . S
C3885 C3883 1.415 . S
C3886 H3876 0.930 . S
C3886 C3884 1.419 . S
C3886 C3887 1.362 . S
C3887 H3877 0.930 . S
C3887 C3880 1.409 . S
C3887 C3886 1.362 . S
H3888 C3894 0.930 . S
H3889 C3897 0.930 . S
H3890 C3898 0.930 . S
H3891 C3899 0.930 . S
H3892 C3902 0.930 . S
H3893 C3903 0.930 . S
C3894 H3888 0.930 . S
C3894 C3895 1.355 . S
C3894 C3896 1.415 . S
C3895 C3894 1.355 . S
C3895 C3897 1.419 . S
C3896 C3894 1.415 . S
C3896 C3901 1.425 . S
C3896 C3903 1.409 . S
C3897 H3889 0.930 . S
C3897 C3895 1.419 . S
C3897 C3898 1.362 . S
C3898 H3890 0.930 . S
C3898 C3897 1.362 . S
C3898 C3901 1.409 . S
C3899 H3891 0.930 . S
C3899 C3900 1.355 . S
C3899 C3901 1.415 . S
C3900 C3899 1.355 . S
C3900 C3902 1.419 . S
C3901 C3896 1.425 . S
C3901 C3898 1.409 . S
C3901 C3899 1.415 . S
C3902 H3892 0.930 . S
C3902 C3900 1.419 . S
C3902 C3903 1.362 . S
C3903 H3893 0.930 . S
C3903 C3896 1.409 . S
C3903 C3902 1.362 . S
H3904 C3910 0.930 . S
H3905 C3913 0.930 . S
H3906 C3914 0.930 . S
H3907 C3915 0.930 . S
H3908 C3918 0.930 . S
H3909 C3919 0.930 . S
C3910 H3904 0.930 . S
C3910 C3911 1.355 . S
C3910 C3912 1.415 . S
C3911 C3910 1.355 . S
C3911 C3913 1.419 . S
C3912 C3910 1.415 . S
C3912 C3917 1.425 . S
C3912 C3919 1.409 . S
C3913 H3905 0.930 . S
C3913 C3911 1.419 . S
C3913 C3914 1.362 . S
C3914 H3906 0.930 . S
C3914 C3913 1.362 . S
C3914 C3917 1.409 . S
C3915 H3907 0.930 . S
C3915 C3916 1.355 . S
C3915 C3917 1.415 . S
C3916 C3915 1.355 . S
C3916 C3918 1.419 . S
C3917 C3912 1.425 . S
C3917 C3914 1.409 . S
C3917 C3915 1.415 . S
C3918 H3908 0.930 . S
C3918 C3916 1.419 . S
C3918 C3919 1.362 . S
C3919 H3909 0.930 . S
C3919 C3912 1.409 . S
C3919 C3918 1.362 . S
H3920 C3926 0.930 . S
H3921 C3929 0.930 . S
H3922 C3930 0.930 . S
H3923 C3931 0.930 . S
H3924 C3934 0.930 . S
H3925 C3935 0.930 . S
C3926 H3920 0.930 . S
C3926 C3927 1.355 . S
C3926 C3928 1.415 . S
C3927 C3926 1.355 . S
C3927 C3929 1.419 . S
C3928 C3926 1.415 . S
C3928 C3933 1.425 . S
C3928 C3935 1.409 . S
C3929 H3921 0.930 . S
C3929 C3927 1.419 . S
C3929 C3930 1.362 . S
C3930 H3922 0.930 . S
C3930 C3929 1.362 . S
C3930 C3933 1.409 . S
C3931 H3923 0.930 . S
C3931 C3932 1.355 . S
C3931 C3933 1.415 . S
C3932 C3931 1.355 . S
C3932 C3934 1.419 . S
C3933 C3928 1.425 . S
C3933 C3930 1.409 . S
C3933 C3931 1.415 . S
C3934 H3924 0.930 . S
C3934 C3932 1.419 . S
C3934 C3935 1.362 . S
C3935 H3925 0.930 . S
C3935 C3928 1.409 . S
C3935 C3934 1.362 . S
H3936 C3942 0.930 . S
H3937 C3945 0.930 . S
H3938 C3946 0.930 . S
H3939 C3947 0.930 . S
H3940 C3950 0.930 . S
H3941 C3951 0.930 . S
C3942 H3936 0.930 . S
C3942 C3943 1.355 . S
C3942 C3944 1.415 . S
C3943 C3942 1.355 . S
C3943 C3945 1.419 . S
C3944 C3942 1.415 . S
C3944 C3949 1.425 . S
C3944 C3951 1.409 . S
C3945 H3937 0.930 . S
C3945 C3943 1.419 . S
C3945 C3946 1.362 . S
C3946 H3938 0.930 . S
C3946 C3945 1.362 . S
C3946 C3949 1.409 . S
C3947 H3939 0.930 . S
C3947 C3948 1.355 . S
C3947 C3949 1.415 . S
C3948 C3947 1.355 . S
C3948 C3950 1.419 . S
C3949 C3944 1.425 . S
C3949 C3946 1.409 . S
C3949 C3947 1.415 . S
C3950 H3940 0.930 . S
C3950 C3948 1.419 . S
C3950 C3951 1.362 . S
C3951 H3941 0.930 . S
C3951 C3944 1.409 . S
C3951 C3950 1.362 . S
H3952 C3958 0.930 . S
H3953 C3961 0.930 . S
H3954 C3962 0.930 . S
H3955 C3963 0.930 . S
H3956 C3966 0.930 . S
H3957 C3967 0.930 . S
C3958 H3952 0.930 . S
C3958 C3959 1.355 . S
C3958 C3960 1.415 . S
C3959 C3958 1.355 . S
C3959 C3961 1.419 . S
C3960 C3958 1.415 . S
C3960 C3965 1.425 . S
C3960 C3967 1.409 . S
C3961 H3953 0.930 . S
C3961 C3959 1.419 . S
C3961 C3962 1.362 . S
C3962 H3954 0.930 . S
C3962 C3961 1.362 . S
C3962 C3965 1.409 . S
C3963 H3955 0.930 . S
C3963 C3964 1.355 . S
C3963 C3965 1.415 . S
C3964 C3963 1.355 . S
C3964 C3966 1.419 . S
C3965 C3960 1.425 . S
C3965 C3962 1.409 . S
C3965 C3963 1.415 . S
C3966 H3956 0.930 . S
C3966 C3964 1.419 . S
C3966 C3967 1.362 . S
C3967 H3957 0.930 . S
C3967 C3960 1.409 . S
C3967 C3966 1.362 . S
H3968 C3974 0.930 . S
H3969 C3977 0.930 . S
H3970 C3978 0.930 . S
H3971 C3979 0.930 . S
H3972 C3982 0.930 . S
H3973 C3983 0.930 . S
C3974 H3968 0.930 . S
C3974 C3975 1.355 . S
C3974 C3976 1.415 . S
C3975 C3974 1.355 . S
C3975 C3977 1.419 . S
C3976 C3974 1.415 . S
C3976 C3981 1.425 . S
C3976 C3983 1.409 . S
C3977 H3969 0.930 . S
C3977 C3975 1.419 . S
C3977 C3978 1.362 . S
C3978 H3970 0.930 . S
C3978 C3977 1.362 . S
C3978 C3981 1.409 . S
C3979 H3971 0.930 . S
C3979 C3980 1.355 . S
C3979 C3981 1.415 . S
C3980 C3979 1.355 . S
C3980 C3982 1.419 . S
C3981 C3976 1.425 . S
C3981 C3978 1.409 . S
C3981 C3979 1.415 . S
C3982 H3972 0.930 . S
C3982 C3980 1.419 . S
C3982 C3983 1.362 . S
C3983 H3973 0.930 . S
C3983 C3976 1.409 . S
C3983 C3982 1.362 . S
H3984 C3990 0.930 . S
H3985 C3993 0.930 . S
H3986 C3994 0.930 . S
H3987 C3995 0.930 . S
H3988 C3998 0.930 . S
H3989 C3999 0.930 . S
C3990 H3984 0.930 . S
C3990 C3991 1.355 . S
C3990 C3992 1.415 . S
C3991 C3990 1.355 . S
C3991 C3993 1.419 . S
C3992 C3990 1.415 . S
C3992 C3997 1.425 . S
C3992 C3999 1.409 . S
C3993 H3985 0.930 . S
C3993 C3991 1.419 . S
C3993 C3994 1.362 . S
C3994 H3986 0.930 . S
C3994 C3993 1.362 . S
C3994 C3997 1.409 . S
C3995 H3987 0.930 . S
C3995 C3996 1.355 . S
C3995 C3997 1.415 . S
C3996 C3995 1.355 . S
C3996 C3998 1.419 . S
C3997 C3992 1.425 . S
C3997 C3994 1.409 . S
C3997 C3995 1.415 . S
C3998 H3988 0.930 . S
C3998 C3996 1.419 . S
C3998 C3999 1.362 . S
C3999 H3989 0.930 . S
C3999 C3992 1.409 . S
C3999 C3998 1.362 . S
H4000 C4006 0.930 . S
H4001 C4009 0.930 . S
H4002 C4010 0.930 . S
H4003 C4011 0.930 . S
H4004 C4014 0.930 . S
H4005 C4015 0.930 . S
C4006 H4000 0.930 . S
C4006 C4007 1.355 . S
C4006 C4008 1.415 . S
C4007 C4006 1.355 . S
C4007 C4009 1.419 . S
C4008 C4006 1.415 . S
C4008 C4013 1.425 . S
C4008 C4015 1.409 . S
C4009 H4001 0.930 . S
C4009 C4007 1.419 . S
C4009 C4010 1.362 . S
C4010 H4002 0.930 . S
C4010 C4009 1.362 . S
C4010 C4013 1.409 . S
C4011 H4003 0.930 . S
C4011 C4012 1.355 . S
C4011 C4013 1.415 . S
C4012 C4011 1.355 . S
C4012 C4014 1.419 . S
C4013 C4008 1.425 . S
C4013 C4010 1.409 . S
C4013 C4011 1.415 . S
C4014 H4004 0.930 . S
C4014 C4012 1.419 . S
C4014 C4015 1.362 . S
C4015 H4005 0.930 . S
C4015 C4008 1.409 . S
C4015 C4014 1.362 . S
H4016 C4022 0.930 . S
H4017 C4025 0.930 . S
H4018 C4026 0.930 . S
H4019 C4027 0.930 . S
H4020 C4030 0.930 . S
H4021 C4031 0.930 . S
C4022 H4016 0.930 . S
C4022 C4023 1.355 . S
C4022 C4024 1.415 . S
C4023 C4022 1.355 . S
C4023 C4025 1.419 . S
C4024 C4022 1.415 . S
C4024 C4029 1.425 . S
C4024 C4031 1.409 . S
C4025 H4017 0.930 . S
C4025 C4023 1.419 . S
C4025 C4026 1.362 . S
C4026 H4018 0.930 . S
C4026 C4025 1.362 . S
C4026 C4029 1.409 . S
C4027 H4019 0.930 . S
C4027 C4028 1.355 . S
C4027 C4029 1.415 . S
C4028 C4027 1.355 . S
C4028 C4030 1.419 . S
C4029 C4024 1.425 . S
C4029 C4026 1.409 . S
C4029 C4027 1.415 . S
C4030 H4020 0.930 . S
C4030 C4028 1.419 . S
C4030 C4031 1.362 . S
C4031 H4021 0.930 . S
C4031 C4024 1.409 . S
C4031 C4030 1.362 . S
H4032 C4038 0.930 . S
H4033 C4041 0.930 . S
H4034 C4042 0.930 . S
H4035 C4043 0.930 . S
H4036 C4046 0.930 . S
H4037 C4047 0.930 . S
C4038 H4032 0.930 . S
C4038 C4039 1.355 . S
C4038 C4040 1.415 . S
C4039 C4038 1.355 . S
C4039 C4041 1.419 . S
C4040 C4038 1.415 . S
C4040 C4045 1.425 . S
C4040 C4047 1.409 . S
C4041 H4033 0.930 . S
C4041 C4039 1.419 . S
C4041 C4042 1.362 . S
C4042 H4034 0.930 . S
C4042 C4041 1.362 . S
C4042 C4045 1.409 . S
C4043 H4035 0.930 . S
C4043 C4044 1.355 . S
C4043 C4045 1.415 . S
C4044 C4043 1.355 . S
C4044 C4046 1.419 . S
C4045 C4040 1.425 . S
C4045 C4042 1.409 . S
C4045 C4043 1.415 . S
C4046 H4036 0.930 . S
C4046 C4044 1.419 . S
C4046 C4047 1.362 . S
C4047 H4037 0.930 . S
C4047 C4040 1.409 . S
C4047 C4046 1.362 . S
H4048 C4054 0.949 1_556 S
H4049 C4057 0.930 . S
H4050 C4058 0.930 . S
H4051 C4059 0.930 . S
H4052 C4062 0.930 . S
H4053 C4063 0.930 . S
C4054 H4048 0.949 1_554 S
C4054 C4055 1.355 . S
C4054 C4056 1.415 . S
C4055 C4054 1.355 . S
C4055 C4057 1.419 . S
C4056 C4054 1.415 . S
C4056 C4061 1.425 . S
C4056 C4063 1.409 1_564 S
C4057 H4049 0.930 . S
C4057 C4055 1.419 . S
C4057 C4058 1.362 . S
C4058 H4050 0.930 . S
C4058 C4057 1.362 . S
C4058 C4061 1.409 . S
C4059 H4051 0.930 . S
C4059 C4060 1.355 1_565 S
C4059 C4061 1.415 . S
C4060 C4059 1.355 1_545 S
C4060 C4062 1.419 1_554 S
C4061 C4056 1.425 . S
C4061 C4058 1.409 . S
C4061 C4059 1.415 . S
C4062 H4052 0.930 . S
C4062 C4060 1.419 1_556 S
C4062 C4063 1.362 . S
C4063 H4053 0.930 . S
C4063 C4056 1.409 1_546 S
C4063 C4062 1.362 . S
H4064 C4070 0.930 . S
H4065 C4073 0.930 . S
H4066 C4074 0.930 . S
H4067 C4075 0.930 . S
H4068 C4078 0.930 . S
H4069 C4079 0.930 . S
C4070 H4064 0.930 . S
C4070 C4071 1.355 . S
C4070 C4072 1.415 . S
C4071 C4070 1.355 . S
C4071 C4073 1.419 . S
C4072 C4070 1.415 . S
C4072 C4077 1.425 . S
C4072 C4079 1.409 . S
C4073 H4065 0.930 . S
C4073 C4071 1.419 . S
C4073 C4074 1.362 . S
C4074 H4066 0.930 . S
C4074 C4073 1.362 . S
C4074 C4077 1.409 . S
C4075 H4067 0.930 . S
C4075 C4076 1.355 . S
C4075 C4077 1.415 . S
C4076 C4075 1.355 . S
C4076 C4078 1.419 . S
C4077 C4072 1.425 . S
C4077 C4074 1.409 . S
C4077 C4075 1.415 . S
C4078 H4068 0.930 . S
C4078 C4076 1.419 . S
C4078 C4079 1.362 . S
C4079 H4069 0.930 . S
C4079 C4072 1.409 . S
C4079 C4078 1.362 . S
H4080 C4086 0.930 . S
H4081 C4089 0.930 . S
H4082 C4090 0.930 . S
H4083 C4091 0.930 . S
H4084 C4094 0.930 . S
H4085 C4095 0.930 . S
C4086 H4080 0.930 . S
C4086 C4087 1.355 . S
C4086 C4088 1.415 . S
C4087 C4086 1.355 . S
C4087 C4089 1.419 . S
C4088 C4086 1.415 . S
C4088 C4093 1.425 . S
C4088 C4095 1.409 . S
C4089 H4081 0.930 . S
C4089 C4087 1.419 . S
C4089 C4090 1.362 . S
C4090 H4082 0.930 . S
C4090 C4089 1.362 . S
C4090 C4093 1.409 . S
C4091 H4083 0.930 . S
C4091 C4092 1.355 . S
C4091 C4093 1.415 . S
C4092 C4091 1.355 . S
C4092 C4094 1.419 . S
C4093 C4088 1.425 . S
C4093 C4090 1.409 . S
C4093 C4091 1.415 . S
C4094 H4084 0.930 . S
C4094 C4092 1.419 . S
C4094 C4095 1.362 . S
C4095 H4085 0.930 . S
C4095 C4088 1.409 . S
C4095 C4094 1.362 . S
H4096 C4102 0.930 . S
H4097 C4105 0.930 . S
H4098 C4106 0.930 . S
H4099 C4107 0.930 . S
H4100 C4110 0.930 . S
H4101 C4111 0.930 . S
C4102 H4096 0.930 . S
C4102 C4103 1.355 . S
C4102 C4104 1.415 . S
C4103 C4102 1.355 . S
C4103 C4105 1.419 . S
C4104 C4102 1.415 . S
C4104 C4109 1.425 . S
C4104 C4111 1.409 . S
C4105 H4097 0.930 . S
C4105 C4103 1.419 . S
C4105 C4106 1.362 . S
C4106 H4098 0.930 . S
C4106 C4105 1.362 . S
C4106 C4109 1.409 . S
C4107 H4099 0.930 . S
C4107 C4108 1.355 . S
C4107 C4109 1.415 . S
C4108 C4107 1.355 . S
C4108 C4110 1.419 . S
C4109 C4104 1.425 . S
C4109 C4106 1.409 . S
C4109 C4107 1.415 . S
C4110 H4100 0.930 . S
C4110 C4108 1.419 . S
C4110 C4111 1.362 . S
C4111 H4101 0.930 . S
C4111 C4104 1.409 . S
C4111 C4110 1.362 . S
H4112 C4118 0.930 . S
H4113 C4121 0.930 . S
H4114 C4122 0.930 . S
H4115 C4123 0.930 . S
H4116 C4126 0.930 . S
H4117 C4127 0.930 . S
C4118 H4112 0.930 . S
C4118 C4119 1.355 . S
C4118 C4120 1.415 . S
C4119 C4118 1.355 . S
C4119 C4121 1.419 . S
C4120 C4118 1.415 . S
C4120 C4125 1.425 . S
C4120 C4127 1.409 . S
C4121 H4113 0.930 . S
C4121 C4119 1.419 . S
C4121 C4122 1.362 . S
C4122 H4114 0.930 . S
C4122 C4121 1.362 . S
C4122 C4125 1.409 . S
C4123 H4115 0.930 . S
C4123 C4124 1.355 . S
C4123 C4125 1.415 . S
C4124 C4123 1.355 . S
C4124 C4126 1.419 . S
C4125 C4120 1.425 . S
C4125 C4122 1.409 . S
C4125 C4123 1.415 . S
C4126 H4116 0.930 . S
C4126 C4124 1.419 . S
C4126 C4127 1.362 . S
C4127 H4117 0.930 . S
C4127 C4120 1.409 . S
C4127 C4126 1.362 . S
C2604 C2113 1.688 . S
C2599 C49 1.706 . S
C2615 C137 0.878 . S
C2620 C2158 0.888 . S
C2631 C205 1.615 . S
C2636 C2182 1.572 . S
C2652 N2208 0.996 . S
C2647 C284 1.008 . S
C2663 C117 0.989 . S
C2668 N2238 1.009 . S
C2684 C2272 1.531 . S
C2679 C225 1.538 . S
C2700 C2308 1.043 1_556 S
C2695 C321 1.045 . S
C2711 C29 1.682 . S
C2716 C2332 1.666 . S
C2727 C401 0.907 . S
C2732 N2126 0.920 . S
C2743 C497 1.067 . S
C2748 N2148 1.066 . S
C2764 C2188 0.926 . S
C2759 C585 0.904 . S
C2780 C2212 1.694 . S
C2775 C665 1.721 . S
C2791 C372 1.152 . S
C2796 C2242 1.117 . S
C2812 C2278 0.959 . S
C2807 C469 0.961 . S
C2828 N2298 1.028 . S
C2823 C557 0.995 . S
C2844 C2338 1.604 . S
C2839 C636 1.624 . S
C2860 C2139 1.572 . S
C2855 C673 1.565 . S
C2876 C2368 0.873 . S
C2871 C724 0.884 . S
C2887 C821 1.055 . S
C2892 N2388 1.079 . S
C2908 C2422 1.499 . S
C2903 C909 1.514 . S
C2919 C381 0.906 . S
C2924 N2328 0.918 . S
C2940 N2178 1.032 1_565 S
C2935 C489 1.042 . S
C2951 C849 0.996 . S
C2956 C2458 0.978 . S
C2972 C2482 1.012 . S
C2967 C1017 1.039 . S
C2983 C1085 1.739 . S
C2988 C2122 1.714 1_556 S
C3004 C2499 0.897 . S
C2999 C1201 0.884 . S
C3015 C1289 1.599 . S
C3020 C2173 1.576 . S
C3031 C1349 1.002 . S
C3036 N2456 0.992 . S
C3052 N2246 1.012 . S
C3047 C1193 0.982 . S
C3068 C2383 1.504 . S
C3063 C1281 1.548 . S
C3084 C2319 1.023 . S
C3079 C1340 1.039 . S
C3100 C2503 1.629 . S
C3095 C1076 1.676 . S
C3116 N2118 0.918 . S
C3111 C1428 0.924 . S
C3127 C1516 0.993 . S
C3132 N2486 1.019 . S
C3148 C2199 0.896 . S
C3143 C1604 0.924 . S
C3159 C1701 1.724 . S
C3164 C2443 1.703 . S
C3175 C1457 1.165 . S
C3180 C2233 1.138 1_655 S
C3191 C1545 0.989 . S
C3196 C2409 0.960 . S
C3212 N2306 1.024 . S
C3207 C1633 0.996 . S
C3223 C1729 1.655 . S
C3228 C2529 1.627 . S
C3239 C1721 1.592 . S
C3244 C2128 1.565 . S
C3255 C1789 0.877 1_554 S
C3260 C2379 0.910 . S
C3271 C1868 1.095 . S
C3276 N2276 1.095 . S
C3287 C1956 1.516 . S
C3292 C2413 1.487 . S
C3308 N2516 0.847 . S
C3303 C1437 0.858 . S
C3324 N2186 1.047 . S
C3319 C1553 1.055 . S
C3340 C2229 0.961 . S
C3335 C1897 0.982 . S
C3356 C2143 0.936 . S
C3351 C2081 0.988 . S
C3367 C233 1.706 . S
C3372 C2533 1.688 . S
C3388 C2488 0.886 . S
C3383 C313 0.880 . S
C3404 C2572 1.567 . S
C3399 C20 1.594 . S
C3415 C108 0.985 . S
C3420 N2448 1.007 . S
C3431 C293 1.042 . S
C3436 N2358 1.033 1_556 S
C3452 C2392 1.519 . S
C3447 C57 1.552 . S
C3468 C2428 1.045 . S
C3463 C145 1.041 . S
C3484 C2512 1.619 . S
C3479 C196 1.656 . S
C3500 N2546 0.875 . S
C3495 C1025 0.869 . S
C3511 C761 1.024 . S
C3516 N2478 1.047 . S
C3527 C841 0.886 . S
C3532 C2578 0.910 . S
C3548 C2452 1.703 . S
C3543 C929 1.715 . S
C3564 C2362 1.061 . S
C3559 C997 1.108 . S
C3575 C733 0.965 . S
C3580 C2398 0.958 . S
C3596 N2418 1.047 . S
C3591 C812 1.056 . S
C3607 C900 1.628 . S
C3612 C2518 1.619 . S
C3628 C2559 1.557 . S
C3623 C937 1.570 . S
C3644 C2248 0.908 . S
C3639 C460 0.885 . S
C3660 N2268 1.043 . S
C3655 C548 1.035 . S
C3671 C645 1.550 . S
C3676 C2302 1.527 . S
C3692 N2508 0.880 . S
C3687 C988 0.898 . S
C3703 C753 0.974 . S
C3708 N2568 0.995 . S
C3724 C2218 0.967 . S
C3719 C577 0.995 . S
C3740 C2152 1.021 . S
C3735 C409 1.019 . S
C3751 C1261 1.735 . S
C3756 C2542 1.729 . S
C3772 C2169 0.881 . S
C3767 C1377 0.914 . S
C3788 C2563 1.581 1_556 S
C3783 C1113 1.625 . S
C3799 C1173 0.947 . S
C3804 N2216 0.958 . S
C3815 C1369 1.051 . S
C3820 N2366 1.045 . S
C3831 C1105 1.559 . S
C3836 C2263 1.535 . S
C3847 C1164 1.054 . S
C3852 C2439 1.039 . S
C3863 C1252 1.686 . S
C3868 C2323 1.664 . S
C3884 N2538 0.907 . S
C3879 C2044 0.925 . S
C3895 C1780 0.993 . S
C3900 N2156 1.016 . S
C3916 C2589 0.923 . S
C3911 C1877 0.888 . S
C3927 C1965 1.699 . S
C3932 C2203 1.655 . S
C3943 C2073 1.167 . S
C3948 C2353 1.142 . S
C3964 C2289 0.979 . S
C3959 C1809 0.954 . S
C3975 C1905 1.071 . S
C3980 N2426 1.065 . S
C3996 C2349 1.650 . S
C3991 C1993 1.660 . S
C4012 C2548 1.586 . S
C4007 C1985 1.601 . S
C4028 C2259 0.889 . S
C4023 C1525 0.916 . S
C4039 C1613 1.027 . S
C4044 N2396 1.039 . S
C4060 C2293 1.530 . S
C4055 C1692 1.534 . S
C4076 N2336 0.875 . S
C4071 C2053 0.863 . S
C4087 C1817 1.003 . S
C4092 N2576 1.004 . S
C4108 C2469 0.983 . S
C4103 C1641 1.000 . S
C4124 C2473 1.032 . S
C4119 C1465 1.027 . S
