# Generated by pormake.
# Topology ibd, (4,6)-cn, num edge types: 1
# Building blocks:
#     Node 0, Type 0, BuildingBlock: CEKHIL_clean_sbu_0, # of connection points: 4
#     Node 1, Type 0, BuildingBlock: CEKHIL_clean_sbu_0, # of connection points: 4
#     Node 2, Type 0, BuildingBlock: CEKHIL_clean_sbu_0, # of connection points: 4
#     Node 3, Type 0, BuildingBlock: CEKHIL_clean_sbu_0, # of connection points: 4
#     Node 4, Type 0, BuildingBlock: CEKHIL_clean_sbu_0, # of connection points: 4
#     Node 5, Type 0, BuildingBlock: CEKHIL_clean_sbu_0, # of connection points: 4
#     Node 6, Type 0, BuildingBlock: CEKHIL_clean_sbu_0, # of connection points: 4
#     Node 7, Type 0, BuildingBlock: CEKHIL_clean_sbu_0, # of connection points: 4
#     Node 8, Type 0, BuildingBlock: CEKHIL_clean_sbu_0, # of connection points: 4
#     Node 9, Type 0, BuildingBlock: CEKHIL_clean_sbu_0, # of connection points: 4
#     Node 10, Type 0, BuildingBlock: CEKHIL_clean_sbu_0, # of connection points: 4
#     Node 11, Type 0, BuildingBlock: CEKHIL_clean_sbu_0, # of connection points: 4
#     Node 12, Type 0, BuildingBlock: CEKHIL_clean_sbu_0, # of connection points: 4
#     Node 13, Type 0, BuildingBlock: CEKHIL_clean_sbu_0, # of connection points: 4
#     Node 14, Type 0, BuildingBlock: CEKHIL_clean_sbu_0, # of connection points: 4
#     Node 15, Type 0, BuildingBlock: CEKHIL_clean_sbu_0, # of connection points: 4
#     Node 16, Type 0, BuildingBlock: CEKHIL_clean_sbu_0, # of connection points: 4
#     Node 17, Type 0, BuildingBlock: CEKHIL_clean_sbu_0, # of connection points: 4
#     Node 18, Type 0, BuildingBlock: CEKHIL_clean_sbu_0, # of connection points: 4
#     Node 19, Type 0, BuildingBlock: CEKHIL_clean_sbu_0, # of connection points: 4
#     Node 20, Type 0, BuildingBlock: CEKHIL_clean_sbu_0, # of connection points: 4
#     Node 21, Type 0, BuildingBlock: CEKHIL_clean_sbu_0, # of connection points: 4
#     Node 22, Type 0, BuildingBlock: CEKHIL_clean_sbu_0, # of connection points: 4
#     Node 23, Type 0, BuildingBlock: CEKHIL_clean_sbu_0, # of connection points: 4
#     Node 24, Type 1, BuildingBlock: IZENUY_clean_sbu_0, # of connection points: 6
#     Node 25, Type 1, BuildingBlock: IZENUY_clean_sbu_0, # of connection points: 6
#     Node 26, Type 1, BuildingBlock: IZENUY_clean_sbu_0, # of connection points: 6
#     Node 27, Type 1, BuildingBlock: IZENUY_clean_sbu_0, # of connection points: 6
#     Node 28, Type 1, BuildingBlock: IZENUY_clean_sbu_0, # of connection points: 6
#     Node 29, Type 1, BuildingBlock: IZENUY_clean_sbu_0, # of connection points: 6
#     Node 30, Type 1, BuildingBlock: IZENUY_clean_sbu_0, # of connection points: 6
#     Node 31, Type 1, BuildingBlock: IZENUY_clean_sbu_0, # of connection points: 6
#     Node 32, Type 1, BuildingBlock: IZENUY_clean_sbu_0, # of connection points: 6
#     Node 33, Type 1, BuildingBlock: IZENUY_clean_sbu_0, # of connection points: 6
#     Node 34, Type 1, BuildingBlock: IZENUY_clean_sbu_0, # of connection points: 6
#     Node 35, Type 1, BuildingBlock: IZENUY_clean_sbu_0, # of connection points: 6
#     Node 36, Type 1, BuildingBlock: IZENUY_clean_sbu_0, # of connection points: 6
#     Node 37, Type 1, BuildingBlock: IZENUY_clean_sbu_0, # of connection points: 6
#     Node 38, Type 1, BuildingBlock: IZENUY_clean_sbu_0, # of connection points: 6
#     Node 39, Type 1, BuildingBlock: IZENUY_clean_sbu_0, # of connection points: 6
#     Edge 40, Type (0, 1), BuildingBlock: OJICUG_clean_linker_0, # of connection points: 2
#     Edge 41, Type (0, 1), BuildingBlock: OJICUG_clean_linker_0, # of connection points: 2
#     Edge 42, Type (0, 1), BuildingBlock: OJICUG_clean_linker_0, # of connection points: 2
#     Edge 43, Type (0, 1), BuildingBlock: OJICUG_clean_linker_0, # of connection points: 2
#     Edge 44, Type (0, 1), BuildingBlock: OJICUG_clean_linker_0, # of connection points: 2
#     Edge 45, Type (0, 1), BuildingBlock: OJICUG_clean_linker_0, # of connection points: 2
#     Edge 46, Type (0, 1), BuildingBlock: OJICUG_clean_linker_0, # of connection points: 2
#     Edge 47, Type (0, 1), BuildingBlock: OJICUG_clean_linker_0, # of connection points: 2
#     Edge 48, Type (0, 1), BuildingBlock: OJICUG_clean_linker_0, # of connection points: 2
#     Edge 49, Type (0, 1), BuildingBlock: OJICUG_clean_linker_0, # of connection points: 2
#     Edge 50, Type (0, 1), BuildingBlock: OJICUG_clean_linker_0, # of connection points: 2
#     Edge 51, Type (0, 1), BuildingBlock: OJICUG_clean_linker_0, # of connection points: 2
#     Edge 52, Type (0, 1), BuildingBlock: OJICUG_clean_linker_0, # of connection points: 2
#     Edge 53, Type (0, 1), BuildingBlock: OJICUG_clean_linker_0, # of connection points: 2
#     Edge 54, Type (0, 1), BuildingBlock: OJICUG_clean_linker_0, # of connection points: 2
#     Edge 55, Type (0, 1), BuildingBlock: OJICUG_clean_linker_0, # of connection points: 2
#     Edge 56, Type (0, 1), BuildingBlock: OJICUG_clean_linker_0, # of connection points: 2
#     Edge 57, Type (0, 1), BuildingBlock: OJICUG_clean_linker_0, # of connection points: 2
#     Edge 58, Type (0, 1), BuildingBlock: OJICUG_clean_linker_0, # of connection points: 2
#     Edge 59, Type (0, 1), BuildingBlock: OJICUG_clean_linker_0, # of connection points: 2
#     Edge 60, Type (0, 1), BuildingBlock: OJICUG_clean_linker_0, # of connection points: 2
#     Edge 61, Type (0, 1), BuildingBlock: OJICUG_clean_linker_0, # of connection points: 2
#     Edge 62, Type (0, 1), BuildingBlock: OJICUG_clean_linker_0, # of connection points: 2
#     Edge 63, Type (0, 1), BuildingBlock: OJICUG_clean_linker_0, # of connection points: 2
#     Edge 64, Type (0, 1), BuildingBlock: OJICUG_clean_linker_0, # of connection points: 2
#     Edge 65, Type (0, 1), BuildingBlock: OJICUG_clean_linker_0, # of connection points: 2
#     Edge 66, Type (0, 1), BuildingBlock: OJICUG_clean_linker_0, # of connection points: 2
#     Edge 67, Type (0, 1), BuildingBlock: OJICUG_clean_linker_0, # of connection points: 2
#     Edge 68, Type (0, 1), BuildingBlock: OJICUG_clean_linker_0, # of connection points: 2
#     Edge 69, Type (0, 1), BuildingBlock: OJICUG_clean_linker_0, # of connection points: 2
#     Edge 70, Type (0, 1), BuildingBlock: OJICUG_clean_linker_0, # of connection points: 2
#     Edge 71, Type (0, 1), BuildingBlock: OJICUG_clean_linker_0, # of connection points: 2
#     Edge 72, Type (0, 1), BuildingBlock: OJICUG_clean_linker_0, # of connection points: 2
#     Edge 73, Type (0, 1), BuildingBlock: OJICUG_clean_linker_0, # of connection points: 2
#     Edge 74, Type (0, 1), BuildingBlock: OJICUG_clean_linker_0, # of connection points: 2
#     Edge 75, Type (0, 1), BuildingBlock: OJICUG_clean_linker_0, # of connection points: 2
#     Edge 76, Type (0, 1), BuildingBlock: OJICUG_clean_linker_0, # of connection points: 2
#     Edge 77, Type (0, 1), BuildingBlock: OJICUG_clean_linker_0, # of connection points: 2
#     Edge 78, Type (0, 1), BuildingBlock: OJICUG_clean_linker_0, # of connection points: 2
#     Edge 79, Type (0, 1), BuildingBlock: OJICUG_clean_linker_0, # of connection points: 2
#     Edge 80, Type (0, 1), BuildingBlock: OJICUG_clean_linker_0, # of connection points: 2
#     Edge 81, Type (0, 1), BuildingBlock: OJICUG_clean_linker_0, # of connection points: 2
#     Edge 82, Type (0, 1), BuildingBlock: OJICUG_clean_linker_0, # of connection points: 2
#     Edge 83, Type (0, 1), BuildingBlock: OJICUG_clean_linker_0, # of connection points: 2
#     Edge 84, Type (0, 1), BuildingBlock: OJICUG_clean_linker_0, # of connection points: 2
#     Edge 85, Type (0, 1), BuildingBlock: OJICUG_clean_linker_0, # of connection points: 2
#     Edge 86, Type (0, 1), BuildingBlock: OJICUG_clean_linker_0, # of connection points: 2
#     Edge 87, Type (0, 1), BuildingBlock: OJICUG_clean_linker_0, # of connection points: 2
#     Edge 88, Type (0, 1), BuildingBlock: OJICUG_clean_linker_0, # of connection points: 2
#     Edge 89, Type (0, 1), BuildingBlock: OJICUG_clean_linker_0, # of connection points: 2
#     Edge 90, Type (0, 1), BuildingBlock: OJICUG_clean_linker_0, # of connection points: 2
#     Edge 91, Type (0, 1), BuildingBlock: OJICUG_clean_linker_0, # of connection points: 2
#     Edge 92, Type (0, 1), BuildingBlock: OJICUG_clean_linker_0, # of connection points: 2
#     Edge 93, Type (0, 1), BuildingBlock: OJICUG_clean_linker_0, # of connection points: 2
#     Edge 94, Type (0, 1), BuildingBlock: OJICUG_clean_linker_0, # of connection points: 2
#     Edge 95, Type (0, 1), BuildingBlock: OJICUG_clean_linker_0, # of connection points: 2
#     Edge 96, Type (0, 1), BuildingBlock: OJICUG_clean_linker_0, # of connection points: 2
#     Edge 97, Type (0, 1), BuildingBlock: OJICUG_clean_linker_0, # of connection points: 2
#     Edge 98, Type (0, 1), BuildingBlock: OJICUG_clean_linker_0, # of connection points: 2
#     Edge 99, Type (0, 1), BuildingBlock: OJICUG_clean_linker_0, # of connection points: 2
#     Edge 100, Type (0, 1), BuildingBlock: OJICUG_clean_linker_0, # of connection points: 2
#     Edge 101, Type (0, 1), BuildingBlock: OJICUG_clean_linker_0, # of connection points: 2
#     Edge 102, Type (0, 1), BuildingBlock: OJICUG_clean_linker_0, # of connection points: 2
#     Edge 103, Type (0, 1), BuildingBlock: OJICUG_clean_linker_0, # of connection points: 2
#     Edge 104, Type (0, 1), BuildingBlock: OJICUG_clean_linker_0, # of connection points: 2
#     Edge 105, Type (0, 1), BuildingBlock: OJICUG_clean_linker_0, # of connection points: 2
#     Edge 106, Type (0, 1), BuildingBlock: OJICUG_clean_linker_0, # of connection points: 2
#     Edge 107, Type (0, 1), BuildingBlock: OJICUG_clean_linker_0, # of connection points: 2
#     Edge 108, Type (0, 1), BuildingBlock: OJICUG_clean_linker_0, # of connection points: 2
#     Edge 109, Type (0, 1), BuildingBlock: OJICUG_clean_linker_0, # of connection points: 2
#     Edge 110, Type (0, 1), BuildingBlock: OJICUG_clean_linker_0, # of connection points: 2
#     Edge 111, Type (0, 1), BuildingBlock: OJICUG_clean_linker_0, # of connection points: 2
#     Edge 112, Type (0, 1), BuildingBlock: OJICUG_clean_linker_0, # of connection points: 2
#     Edge 113, Type (0, 1), BuildingBlock: OJICUG_clean_linker_0, # of connection points: 2
#     Edge 114, Type (0, 1), BuildingBlock: OJICUG_clean_linker_0, # of connection points: 2
#     Edge 115, Type (0, 1), BuildingBlock: OJICUG_clean_linker_0, # of connection points: 2
#     Edge 116, Type (0, 1), BuildingBlock: OJICUG_clean_linker_0, # of connection points: 2
#     Edge 117, Type (0, 1), BuildingBlock: OJICUG_clean_linker_0, # of connection points: 2
#     Edge 118, Type (0, 1), BuildingBlock: OJICUG_clean_linker_0, # of connection points: 2
#     Edge 119, Type (0, 1), BuildingBlock: OJICUG_clean_linker_0, # of connection points: 2
#     Edge 120, Type (0, 1), BuildingBlock: OJICUG_clean_linker_0, # of connection points: 2
#     Edge 121, Type (0, 1), BuildingBlock: OJICUG_clean_linker_0, # of connection points: 2
#     Edge 122, Type (0, 1), BuildingBlock: OJICUG_clean_linker_0, # of connection points: 2
#     Edge 123, Type (0, 1), BuildingBlock: OJICUG_clean_linker_0, # of connection points: 2
#     Edge 124, Type (0, 1), BuildingBlock: OJICUG_clean_linker_0, # of connection points: 2
#     Edge 125, Type (0, 1), BuildingBlock: OJICUG_clean_linker_0, # of connection points: 2
#     Edge 126, Type (0, 1), BuildingBlock: OJICUG_clean_linker_0, # of connection points: 2
#     Edge 127, Type (0, 1), BuildingBlock: OJICUG_clean_linker_0, # of connection points: 2
#     Edge 128, Type (0, 1), BuildingBlock: OJICUG_clean_linker_0, # of connection points: 2
#     Edge 129, Type (0, 1), BuildingBlock: OJICUG_clean_linker_0, # of connection points: 2
#     Edge 130, Type (0, 1), BuildingBlock: OJICUG_clean_linker_0, # of connection points: 2
#     Edge 131, Type (0, 1), BuildingBlock: OJICUG_clean_linker_0, # of connection points: 2
#     Edge 132, Type (0, 1), BuildingBlock: OJICUG_clean_linker_0, # of connection points: 2
#     Edge 133, Type (0, 1), BuildingBlock: OJICUG_clean_linker_0, # of connection points: 2
#     Edge 134, Type (0, 1), BuildingBlock: OJICUG_clean_linker_0, # of connection points: 2
#     Edge 135, Type (0, 1), BuildingBlock: OJICUG_clean_linker_0, # of connection points: 2
# Relax obj value: 0.305
# Max RMSD: 0.285
# Mean RMSD: 0.259
data_MOF--net-ibd--node1-CEKHIL_clean_sbu_0--node2-IZENUY_clean_sbu_0--edge1-OJICUG_clean_linker_0
_symmetry_space_group_name_H-M    P1
_symmetry_Int_Tables_number       1
_symmetry_cell_setting            triclinic
loop_
_symmetry_equiv_pos_as_xyz
'x, y, z'
_cell_length_a     36.123906
_cell_length_b     36.09611
_cell_length_c     36.113135
_cell_angle_alpha  90.31276
_cell_angle_beta   90.35596
_cell_angle_gamma 90.903919
loop_
_atom_site_label
_atom_site_type_symbol
_atom_site_fract_x
_atom_site_fract_y
_atom_site_fract_z
_atom_type_partial_charge
Co0 Co 0.00584 0.2641 0.37144 0.0
O1 O 0.00167 0.30237 0.33473 0.0
O2 O 0.96006 0.2576 0.34463 0.0
C3 C 0.02587 0.30089 0.41816 0.0
O4 O -0.00265 0.22158 0.40702 0.0
Co5 Co 0.07895 0.24195 0.4097 0.0
O6 O 0.04611 0.21513 0.44487 0.0
C7 C 0.06596 0.22243 0.33148 0.0
C8 C 0.97019 0.28653 0.32588 0.0
C9 C 0.01259 0.20786 0.43595 0.0
O10 O 0.03194 0.23199 0.33451 0.0
O11 O 0.08987 0.22621 0.35758 0.0
O12 O 0.99066 0.29852 0.41032 0.0
O13 O 0.04753 0.28321 0.39624 0.0
Co14 Co 0.98376 0.73827 0.62589 0.0
O15 O 0.94739 0.73383 0.66482 0.0
O16 O 0.97851 0.78516 0.65104 0.0
C17 C 0.95155 0.70819 0.58155 0.0
O18 O 0.02072 0.75593 0.58758 0.0
Co19 Co 0.02101 0.67158 0.58613 0.0
O20 O 0.04189 0.70936 0.55236 0.0
C21 C 0.04171 0.69168 0.66297 0.0
C22 C 0.95375 0.76886 0.67142 0.0
C23 C 0.03939 0.74366 0.56013 0.0
O24 O 0.02406 0.72242 0.66103 0.0
O25 O 0.0409 0.66704 0.63739 0.0
O26 O 0.94483 0.74285 0.58855 0.0
O27 O 0.97489 0.6924 0.60306 0.0
Co28 Co 0.50366 0.76403 0.86865 0.0
O29 O 0.4999 0.80196 0.83145 0.0
O30 O 0.45805 0.75751 0.84131 0.0
C31 C 0.5233 0.8014 0.91519 0.0
O32 O 0.49473 0.72187 0.90464 0.0
Co33 Co 0.5764 0.74252 0.90831 0.0
O34 O 0.54328 0.71526 0.94278 0.0
C35 C 0.56411 0.72091 0.83048 0.0
C36 C 0.46837 0.78632 0.82247 0.0
C37 C 0.50986 0.70792 0.93353 0.0
O38 O 0.53024 0.73134 0.83246 0.0
O39 O 0.58759 0.72493 0.85693 0.0
O40 O 0.48816 0.79898 0.90704 0.0
O41 O 0.54509 0.7834 0.89371 0.0
Co42 Co 0.47589 0.24269 0.12601 0.0
O43 O 0.4388 0.24138 0.1644 0.0
O44 O 0.47561 0.28935 0.15241 0.0
C45 C 0.44132 0.21779 0.08022 0.0
O46 O 0.51507 0.2567 0.08846 0.0
Co47 Co 0.50541 0.17238 0.08579 0.0
O48 O 0.53015 0.20826 0.05241 0.0
C49 C 0.52817 0.18903 0.16273 0.0
C50 C 0.44892 0.27534 0.17206 0.0
C51 C 0.5319 0.24258 0.06066 0.0
O52 O 0.51375 0.2215 0.16116 0.0
O53 O 0.52477 0.16483 0.13689 0.0
O54 O 0.43839 0.25281 0.0883 0.0
O55 O 0.46199 0.19876 0.10185 0.0
Co56 Co 0.00526 0.76619 0.1185 0.0
O57 O 0.0094 0.80006 0.07719 0.0
O58 O 0.95863 0.76893 0.09278 0.0
C59 C 0.03465 0.80187 0.16121 0.0
O60 O 0.98743 0.73122 0.1585 0.0
Co61 Co 0.07053 0.73186 0.16247 0.0
O62 O 0.03224 0.72551 0.20118 0.0
C63 C 0.05226 0.70532 0.08676 0.0
C64 C 0.97447 0.79268 0.07098 0.0
C65 C -0.00155 0.72312 0.19121 0.0
O66 O 0.02198 0.72384 0.08639 0.0
O67 O 0.07582 0.70687 0.11337 0.0
O68 O 0.00017 0.80793 0.15278 0.0
O69 O 0.05064 0.77687 0.14172 0.0
Co70 Co 0.4744 0.7382 0.37433 0.0
O71 O 0.4362 0.74212 0.41121 0.0
O72 O 0.48112 0.78365 0.40167 0.0
C73 C 0.43736 0.7187 0.32747 0.0
O74 O 0.5168 0.74731 0.33882 0.0
Co75 Co 0.49636 0.66585 0.33447 0.0
O76 O 0.52349 0.69928 0.3001 0.0
C77 C 0.51694 0.6774 0.41271 0.0
C78 C 0.45219 0.77347 0.4203 0.0
C79 C 0.53071 0.73264 0.30973 0.0
O80 O 0.50667 0.71136 0.41081 0.0
O81 O 0.51319 0.65416 0.38602 0.0
O82 O 0.43984 0.75388 0.33559 0.0
O83 O 0.45521 0.69684 0.34904 0.0
Co84 Co 0.50386 0.26649 0.6181 0.0
O85 O 0.51055 0.30157 0.57796 0.0
O86 O 0.45802 0.27267 0.59184 0.0
C87 C 0.53416 0.29867 0.66273 0.0
O88 O 0.48303 0.23163 0.65677 0.0
Co89 Co 0.56671 0.2265 0.66094 0.0
O90 O 0.52689 0.20722 0.69321 0.0
C91 C 0.54963 0.20639 0.58347 0.0
C92 C 0.47537 0.29629 0.57109 0.0
C93 C 0.49318 0.21206 0.68442 0.0
O94 O 0.51901 0.22436 0.58454 0.0
O95 O 0.57343 0.20699 0.60982 0.0
O96 O 0.50039 0.30722 0.65374 0.0
O97 O 0.54924 0.27363 0.64258 0.0
Co98 Co 0.97116 0.24603 0.87722 0.0
O99 O 0.93364 0.25061 0.91425 0.0
O100 O 0.9791 0.29154 0.90438 0.0
C101 C 0.93305 0.22757 0.83105 0.0
O102 O 0.01313 0.25316 0.841 0.0
Co103 Co 0.98909 0.17154 0.83872 0.0
O104 O 0.01896 0.20312 0.80459 0.0
C105 C 0.00841 0.1835 0.9169 0.0
C106 C 0.94991 0.28186 0.92299 0.0
C107 C 0.02709 0.23668 0.81292 0.0
O108 O 0.00358 0.21853 0.913 0.0
O109 O 0.0002 0.15951 0.89185 0.0
O110 O 0.93659 0.2627 0.83894 0.0
O111 O 0.95024 0.20532 0.8527 0.0
Co112 Co 0.37039 0.00383 0.23207 0.0
O113 O 0.41282 0.0073 0.20005 0.0
O114 O 0.39187 0.95579 0.22634 0.0
C115 C 0.33158 0.03747 0.19747 0.0
O116 O 0.32743 0.98748 0.26421 0.0
Co117 Co 0.3346 0.07164 0.27057 0.0
O118 O 0.29636 0.03581 0.28733 0.0
C119 C 0.40647 0.04422 0.29718 0.0
C120 C 0.41582 0.97173 0.20479 0.0
C121 C 0.30051 0.00119 0.28249 0.0
O122 O 0.40298 0.01511 0.27656 0.0
O123 O 0.38369 0.07099 0.29633 0.0
O124 O 0.33747 0.00295 0.1892 0.0
O125 O 0.35171 0.05136 0.2239 0.0
Co126 Co 0.25159 0.12646 0.50959 0.0
O127 O 0.25031 0.08918 0.5476 0.0
O128 O 0.29727 0.0998 0.50955 0.0
C129 C 0.22713 0.17188 0.54425 0.0
O130 O 0.2659 0.16277 0.46891 0.0
Co131 Co 0.18237 0.16523 0.47792 0.0
O132 O 0.21801 0.1972 0.45084 0.0
C133 C 0.19382 0.0856 0.46555 0.0
C134 C 0.28317 0.08039 0.53626 0.0
C135 C 0.25224 0.18932 0.44992 0.0
O136 O 0.22833 0.0896 0.4741 0.0
O137 O 0.17048 0.11173 0.46835 0.0
O138 O 0.26242 0.16515 0.5468 0.0
O139 O 0.20828 0.15031 0.52261 0.0
Co140 Co 0.11883 0.99479 0.73699 0.0
O141 O 0.15631 -0.00411 0.69944 0.0
O142 O 0.14315 0.94778 0.73542 0.0
C143 C 0.07459 0.02237 0.70343 0.0
O144 O 0.08175 0.98147 0.77682 0.0
Co145 Co 0.08546 0.06604 0.77062 0.0
O146 O 0.05151 0.03138 0.79706 0.0
C147 C 0.16338 0.04807 0.782 0.0
C148 C 0.16336 0.96214 0.70941 0.0
C149 C 0.05667 -0.0035 0.79664 0.0
O150 O 0.15593 0.01403 0.77415 0.0
O151 O 0.14017 0.07415 0.77801 0.0
O152 O 0.08017 0.98699 0.69938 0.0
O153 O 0.09727 0.03976 0.72524 0.0
Co154 Co 0.24573 0.87113 0.0086 0.0
O155 O 0.23767 0.82852 0.04011 0.0
O156 O 0.29174 0.84715 0.01755 0.0
C157 C 0.21162 0.91196 0.04045 0.0
O158 O 0.26768 0.91271 0.9781 0.0
Co159 Co 0.18494 0.91199 0.96446 0.0
O160 O 0.22488 0.94681 0.94933 0.0
C161 C 0.20649 0.83651 0.9427 0.0
C162 C 0.27326 0.82367 0.03748 0.0
C163 C 0.2583 0.94007 0.9579 0.0
O164 O 0.23554 0.83907 0.96352 0.0
O165 O 0.18158 0.86131 0.94192 0.0
O166 O 0.24497 0.90419 0.05148 0.0
O167 O 0.19898 0.8928 0.01274 0.0
Co168 Co 0.26493 0.36744 0.99358 0.0
O169 O 0.2988 0.32705 0.99346 0.0
O170 O 0.2618 0.34233 0.94663 0.0
C171 C 0.30347 0.41068 0.01803 0.0
O172 O 0.22739 0.40689 0.98216 0.0
Co173 Co 0.23891 0.40455 0.06618 0.0
O174 O 0.21468 0.44043 0.03284 0.0
C175 C 0.21282 0.32931 0.04733 0.0
C176 C 0.28635 0.32023 0.9602 0.0
C177 C 0.21151 0.4341 -0.0018 0.0
O178 O 0.22608 0.33316 0.0146 0.0
O179 O 0.21713 0.35358 0.07302 0.0
O180 O 0.30458 0.40303 0.9828 0.0
O181 O 0.28177 0.38984 0.03753 0.0
Co182 Co 0.74992 0.11546 0.00845 0.0
O183 O 0.78374 0.07472 0.01583 0.0
O184 O 0.7553 0.08792 0.96322 0.0
C185 C 0.78407 0.15969 0.03762 0.0
O186 O 0.71592 0.15424 0.98696 0.0
Co187 Co 0.71155 0.1617 0.0694 0.0
O188 O 0.70858 0.19904 0.02922 0.0
C189 C 0.68838 0.08388 0.05548 0.0
C190 C 0.77837 0.06719 0.98085 0.0
C191 C 0.70828 0.18768 -0.00419 0.0
O192 O 0.70693 0.08327 0.02502 0.0
O193 O 0.68877 0.11154 0.07783 0.0
O194 O 0.7919 0.15004 0.00379 0.0
O195 O 0.75798 0.1408 0.05318 0.0
Co196 Co 0.12314 0.48703 0.23282 0.0
O197 O 0.16164 0.45057 0.22813 0.0
O198 O 0.15045 0.48382 0.27846 0.0
C199 C 0.07673 0.45388 0.20732 0.0
O200 O 0.08592 0.52429 0.25083 0.0
Co201 Co 0.08129 0.52224 0.16658 0.0
O202 O 0.04792 0.54223 0.20502 0.0
C203 C 0.15922 0.54266 0.18139 0.0
C204 C 0.16975 0.45833 0.26253 0.0
C205 C 0.05717 0.54109 0.23906 0.0
O206 O 0.15772 0.52677 0.21329 0.0
O207 O 0.13278 0.54103 0.15768 0.0
O208 O 0.08615 0.44836 0.24167 0.0
O209 O 0.09756 0.47629 0.1888 0.0
Co210 Co 0.76413 0.87206 0.4997 0.0
O211 O 0.80273 0.83617 0.50147 0.0
O212 O 0.76455 0.84486 0.45388 0.0
C213 C 0.79789 0.91931 0.52345 0.0
O214 O 0.72284 0.90709 0.48596 0.0
Co215 Co 0.73259 0.90829 0.57011 0.0
O216 O 0.7078 0.94202 0.53496 0.0
C217 C 0.71407 0.83055 0.55317 0.0
C218 C 0.79178 0.82671 0.46835 0.0
C219 C 0.70543 0.93421 0.50057 0.0
O220 O 0.72867 0.83451 0.52105 0.0
O221 O 0.71465 0.85601 0.57798 0.0
O222 O 0.80012 0.91109 0.48842 0.0
O223 O 0.77769 0.89724 0.54321 0.0
Co224 Co 0.87059 0.97515 0.25504 0.0
O225 O 0.90661 0.93663 0.25846 0.0
O226 O 0.89535 0.97842 0.30221 0.0
C227 C 0.82458 0.93937 0.23136 0.0
O228 O 0.83492 0.01704 0.2642 0.0
Co229 Co 0.83539 0.0012 0.18151 0.0
O230 O 0.79935 0.02609 0.21414 0.0
C231 C 0.91267 0.02223 0.19938 0.0
C232 C 0.914 0.94999 0.29127 0.0
C233 C 0.8069 0.03163 0.24824 0.0
O234 O 0.90893 0.00925 0.23233 0.0
O235 O 0.88739 0.01979 0.17447 0.0
O236 O 0.83098 0.93967 0.26688 0.0
O237 O 0.84743 0.95845 0.21153 0.0
Co238 Co 0.24188 0.61958 0.50904 0.0
O239 O 0.27725 0.58039 0.51567 0.0
O240 O 0.24612 0.59151 0.46397 0.0
C241 C 0.27641 0.66471 0.53573 0.0
O242 O 0.20573 0.65715 0.48906 0.0
Co243 Co 0.20534 0.66537 0.57106 0.0
O244 O 0.20258 0.70287 0.53075 0.0
C245 C 0.1831 0.58687 0.5588 0.0
C246 C 0.27082 0.57214 0.48106 0.0
C247 C 0.20069 0.69123 0.49743 0.0
O248 O 0.2008 0.58639 0.52787 0.0
O249 O 0.18343 0.61483 0.58084 0.0
O250 O 0.28222 0.65513 0.50147 0.0
O251 O 0.2517 0.64551 0.55312 0.0
Co252 Co 0.37325 0.47556 0.75721 0.0
O253 O 0.40826 0.43606 0.75942 0.0
O254 O 0.39877 0.47733 0.80406 0.0
C255 C 0.32619 0.44106 0.7339 0.0
O256 O 0.33866 0.51824 0.76743 0.0
Co257 Co 0.33762 0.50309 0.6844 0.0
O258 O 0.30286 0.5287 0.71779 0.0
C259 C 0.41554 0.5223 0.70136 0.0
C260 C 0.41635 0.44846 0.79241 0.0
C261 C 0.31089 0.53374 0.75186 0.0
O262 O 0.41207 0.50905 0.73424 0.0
O263 O 0.38985 0.52063 0.67683 0.0
O264 O 0.33306 0.44089 0.76932 0.0
O265 O 0.34911 0.45988 0.7139 0.0
Co266 Co 0.6253 0.9905 0.73406 0.0
O267 O 0.66421 0.95474 0.72623 0.0
O268 O 0.65315 0.98421 0.77884 0.0
C269 C 0.57871 0.95855 0.70666 0.0
O270 O 0.58835 0.0259 0.75594 0.0
Co271 Co 0.58169 0.03105 0.67238 0.0
O272 O 0.55155 0.05147 0.71312 0.0
C273 C 0.66014 0.04965 0.68591 0.0
C274 C 0.67233 0.95992 0.76113 0.0
C275 C 0.56113 0.04624 0.74664 0.0
O276 O 0.6592 0.03209 0.71696 0.0
O277 O 0.63318 0.04934 0.66278 0.0
O278 O 0.58922 0.95029 0.7401 0.0
O279 O 0.59853 0.98322 0.68986 0.0
Co280 Co 0.74483 0.62209 0.01207 0.0
O281 O 0.74287 0.5862 0.05127 0.0
O282 O 0.79017 0.59495 0.01316 0.0
C283 C 0.72098 0.66867 0.04511 0.0
O284 O 0.75936 0.65691 0.97017 0.0
Co285 Co 0.67565 0.66008 0.97921 0.0
O286 O 0.71145 0.69075 0.95091 0.0
C287 C 0.68679 0.58008 0.96993 0.0
C288 C 0.77567 0.57667 0.04047 0.0
C289 C 0.74568 0.68277 0.95021 0.0
O290 O 0.7214 0.58446 0.97776 0.0
O291 O 0.66343 0.60626 0.97212 0.0
O292 O 0.75619 0.66169 0.04794 0.0
O293 O 0.70182 0.64663 0.02421 0.0
Co294 Co 0.87235 0.50119 0.73736 0.0
O295 O 0.91409 0.50464 0.70441 0.0
O296 O 0.89439 0.45333 0.73193 0.0
C297 C 0.83254 0.53383 0.70276 0.0
O298 O 0.83012 0.48467 0.77049 0.0
Co299 Co 0.8363 0.56876 0.77563 0.0
O300 O 0.79855 0.5328 0.79325 0.0
C301 C 0.90964 0.54359 0.80057 0.0
C302 C 0.91763 0.46919 0.70957 0.0
C303 C 0.80311 0.49819 0.78882 0.0
O304 O 0.90586 0.51376 0.781 0.0
O305 O 0.88633 0.5699 0.79968 0.0
O306 O 0.83861 0.49922 0.69508 0.0
O307 O 0.85286 0.54835 0.72875 0.0
Co308 Co 0.74686 0.37178 0.49978 0.0
O309 O 0.74077 0.33117 0.53401 0.0
O310 O 0.79342 0.34806 0.50732 0.0
C311 C 0.71476 0.41384 0.53225 0.0
O312 O 0.76661 0.41181 0.46579 0.0
Co313 Co 0.68331 0.41042 0.45788 0.0
O314 O 0.7219 0.4444 0.43828 0.0
C315 C 0.70416 0.33436 0.4373 0.0
C316 C 0.77616 0.32615 0.52993 0.0
C317 C 0.75587 0.43807 0.44475 0.0
O318 O 0.73395 0.33744 0.45699 0.0
O319 O 0.67926 0.35918 0.43672 0.0
O320 O 0.74891 0.40682 0.54103 0.0
O321 O 0.70035 0.39363 0.50612 0.0
Co322 Co 0.62176 0.504 0.24023 0.0
O323 O 0.66017 0.50127 0.2037 0.0
O324 O 0.64692 0.45767 0.24494 0.0
C325 C 0.57801 0.52609 0.20222 0.0
O326 O 0.58382 0.49421 0.28013 0.0
Co327 Co 0.58417 0.57703 0.26409 0.0
O328 O 0.54931 0.54401 0.29149 0.0
C329 C 0.66219 0.56388 0.28146 0.0
C330 C 0.66703 0.4688 0.21738 0.0
C331 C 0.55641 0.50981 0.29593 0.0
O332 O 0.6571 0.52892 0.27592 0.0
O333 O 0.63791 0.58821 0.27413 0.0
O334 O 0.58443 0.49066 0.20269 0.0
O335 O 0.59944 0.54653 0.2226 0.0
Fe336 Fe 0.12685 0.08895 0.15879 0.0
Fe337 Fe 0.08484 0.15177 0.12034 0.0
O338 O 0.1204 0.1185 0.1203 0.0
Fe339 Fe 0.15001 0.11455 0.08149 0.0
O340 O 0.13467 0.06701 0.07319 0.0
O341 O 0.14296 0.04972 0.13089 0.0
O342 O 0.08046 0.06966 0.15459 0.0
C343 C 0.05122 0.08833 0.15366 0.0
C344 C 0.19872 0.10241 0.14191 0.0
O345 O 0.05181 0.1225 0.14573 0.0
C346 C 0.14671 0.18959 0.08866 0.0
O347 O 0.11184 0.12243 0.1936 0.0
O348 O 0.10188 0.17344 0.16247 0.0
O349 O 0.1902 0.09903 0.10806 0.0
O350 O 0.17384 0.10638 0.16589 0.0
C351 C 0.08123 0.13149 0.04793 0.0
O352 O 0.11228 0.18684 0.09517 0.0
O353 O 0.16702 0.16146 0.08765 0.0
C354 C 0.10708 0.157 0.19264 0.0
O355 O 0.06429 0.13296 0.07816 0.0
O356 O 0.11606 0.12995 0.04733 0.0
C357 C 0.1401 0.04183 0.09672 0.0
Fe358 Fe 0.09052 0.83365 0.37354 0.0
Fe359 Fe 0.11447 0.91062 0.34779 0.0
O360 O 0.12109 0.8723 0.3771 0.0
Fe361 Fe 0.15809 0.87242 0.40956 0.0
O362 O 0.17685 0.83073 0.38942 0.0
O363 O 0.12474 0.79928 0.38778 0.0
O364 O 0.1031 0.82554 0.3254 0.0
C365 C 0.09739 0.84957 0.30072 0.0
C366 C 0.09802 0.83877 0.44835 0.0
O367 O 0.09531 0.88348 0.30912 0.0
C368 C 0.13816 0.9444 0.41529 0.0
O369 O 0.05026 0.86067 0.35955 0.0
O370 O 0.06874 0.9184 0.3665 0.0
O371 O 0.13232 0.84569 0.44456 0.0
O372 O 0.07605 0.83986 0.42107 0.0
C373 C 0.18941 0.90662 0.3459 0.0
O374 O 0.1324 0.94497 0.38078 0.0
O375 O 0.14251 0.91428 0.43215 0.0
C376 C 0.04291 0.89468 0.36314 0.0
O377 O 0.15972 0.90507 0.32736 0.0
O378 O 0.18979 0.89934 0.38019 0.0
C379 C 0.15966 0.80014 0.39084 0.0
Fe380 Fe 0.36799 0.90685 0.6574 0.0
Fe381 Fe 0.33383 0.87469 0.58619 0.0
O382 O 0.36746 0.87269 0.62202 0.0
Fe383 Fe 0.4005 0.83689 0.62255 0.0
O384 O 0.38604 0.82126 0.66821 0.0
O385 O 0.38616 0.87661 0.69336 0.0
O386 O 0.32145 0.89371 0.67182 0.0
C387 C 0.29381 0.89558 0.65031 0.0
C388 C 0.44193 0.90068 0.64582 0.0
O389 O 0.29792 0.89445 0.61554 0.0
C390 C 0.39785 0.85005 0.54825 0.0
O391 O 0.3501 0.94388 0.62825 0.0
O392 O 0.34992 0.92053 0.5721 0.0
O393 O 0.43763 0.86591 0.64277 0.0
O394 O 0.41452 0.92199 0.64511 0.0
C395 C 0.33431 0.80022 0.59844 0.0
O396 O 0.36336 0.85494 0.55047 0.0
O397 O 0.41779 0.8496 0.57708 0.0
C398 C 0.34888 0.94821 0.59357 0.0
O399 O 0.31531 0.82922 0.59755 0.0
O400 O 0.36912 0.80175 0.60233 0.0
C401 C 0.38839 0.84188 0.6965 0.0
Fe402 Fe 0.40652 0.16067 0.86562 0.0
Fe403 Fe 0.38083 0.08524 0.83473 0.0
O404 O 0.37683 0.12125 0.86791 0.0
Fe405 Fe 0.34306 0.11728 0.9029 0.0
O406 O 0.32111 0.15972 0.88913 0.0
O407 O 0.37215 0.19311 0.88277 0.0
O408 O 0.3908 0.17103 0.819 0.0
C409 C 0.39647 0.14949 0.79214 0.0
C410 C 0.40418 0.1512 0.94049 0.0
O411 O 0.39794 0.115 0.79749 0.0
C412 C 0.36154 0.04561 0.89996 0.0
O413 O 0.4462 0.13452 0.84811 0.0
O414 O 0.42771 0.07617 0.85008 0.0
O415 O 0.37051 0.14153 0.93821 0.0
O416 O 0.42427 0.15392 0.91214 0.0
C417 C 0.30617 0.09046 0.83849 0.0
O418 O 0.36422 0.04813 0.86518 0.0
O419 O 0.36278 0.07457 0.91947 0.0
C420 C 0.45337 0.10019 0.84695 0.0
O421 O 0.33418 0.09294 0.81782 0.0
O422 O 0.3092 0.09266 0.87338 0.0
C423 C 0.33749 0.19069 0.88697 0.0
Fe424 Fe 0.59195 0.32813 0.87329 0.0
Fe425 Fe 0.61528 0.40603 0.84981 0.0
O426 O 0.62177 0.3672 0.87832 0.0
Fe427 Fe 0.65801 0.3672 0.91152 0.0
O428 O 0.67795 0.32683 0.89014 0.0
O429 O 0.62669 0.29409 0.88759 0.0
O430 O 0.60567 0.32129 0.82534 0.0
C431 C 0.59984 0.34571 0.80109 0.0
C432 C 0.5977 0.33203 0.94826 0.0
O433 O 0.59745 0.37946 0.81014 0.0
C434 C 0.63582 0.43823 0.91886 0.0
O435 O 0.55143 0.35484 0.85897 0.0
O436 O 0.56912 0.41259 0.86775 0.0
O437 O 0.6321 0.33881 0.94522 0.0
O438 O 0.57634 0.33316 0.92054 0.0
C439 C 0.69029 0.40355 0.84962 0.0
O440 O 0.63172 0.43972 0.88415 0.0
O441 O 0.6408 0.40783 0.93499 0.0
C442 C 0.54364 0.38868 0.86337 0.0
O443 O 0.66112 0.40174 0.8303 0.0
O444 O 0.68984 0.39581 0.88379 0.0
C445 C 0.66161 0.29579 0.89088 0.0
Fe446 Fe 0.82916 0.37009 0.09297 0.0
Fe447 Fe 0.86226 0.40462 0.1637 0.0
O448 O 0.86426 0.37146 0.12737 0.0
Fe449 Fe 0.90109 0.33967 0.12523 0.0
O450 O 0.91495 0.3559 0.07973 0.0
O451 O 0.85906 0.35381 0.05594 0.0
O452 O 0.8403 0.41715 0.07881 0.0
C453 C 0.83871 0.44464 0.1005 0.0
C454 C 0.83843 0.29628 0.10262 0.0
O455 O 0.84082 0.44047 0.13524 0.0
C456 C 0.89005 0.34075 0.19981 0.0
O457 O 0.79246 0.38645 0.12333 0.0
O458 O 0.8174 0.38705 0.1787 0.0
O459 O 0.87303 0.30194 0.10482 0.0
O460 O 0.81608 0.32279 0.10493 0.0
C461 C 0.9363 0.40638 0.14954 0.0
O462 O 0.88375 0.37505 0.19831 0.0
O463 O 0.89024 0.32112 0.17074 0.0
C464 C 0.78915 0.38818 0.1581 0.0
O465 O 0.9069 0.42463 0.1518 0.0
O466 O 0.93563 0.37167 0.14491 0.0
C467 C 0.89376 0.35412 0.05187 0.0
Fe468 Fe 0.84646 0.62122 0.40597 0.0
Fe469 Fe 0.91463 0.6599 0.3735 0.0
O470 O 0.87883 0.62616 0.36998 0.0
Fe471 Fe 0.87501 0.59748 0.33024 0.0
O472 O 0.82926 0.61485 0.31946 0.0
O473 O 0.80809 0.60664 0.37573 0.0
O474 O 0.83111 0.66839 0.40012 0.0
C475 C 0.85242 0.69631 0.40283 0.0
C476 C 0.85485 0.54907 0.38918 0.0
O477 O 0.88711 0.69325 0.39958 0.0
C478 C 0.94949 0.59836 0.33895 0.0
O479 O 0.87865 0.63527 0.44283 0.0
O480 O 0.93266 0.64003 0.41571 0.0
O481 O 0.85501 0.55758 0.35514 0.0
O482 O 0.86008 0.57377 0.41358 0.0
C483 C 0.89934 0.66681 0.30082 0.0
O484 O 0.94838 0.63247 0.34745 0.0
O485 O 0.92042 0.5785 0.33879 0.0
C486 C 0.91354 0.63763 0.4447 0.0
O487 O 0.89868 0.68235 0.33203 0.0
O488 O 0.8945 0.63205 0.29813 0.0
C489 C 0.80246 0.61092 0.34144 0.0
Fe490 Fe 0.90142 0.83807 0.87053 0.0
Fe491 Fe 0.83111 0.86944 0.90383 0.0
O492 O 0.86652 0.87157 0.87073 0.0
Fe493 Fe 0.867 0.90721 0.83777 0.0
O494 O 0.91069 0.92428 0.85514 0.0
O495 O 0.93801 0.87043 0.8531 0.0
O496 O 0.91621 0.8514 0.91634 0.0
C497 C 0.89579 0.84914 0.94428 0.0
C498 C 0.89021 0.84388 0.79682 0.0
O499 O 0.86067 0.84863 0.94056 0.0
C500 C 0.79382 0.89179 0.83769 0.0
O501 O 0.87088 0.79994 0.88812 0.0
O502 O 0.81596 0.82499 0.88651 0.0
O503 O 0.88917 0.87893 0.8009 0.0
O504 O 0.88845 0.82307 0.82458 0.0
C505 C 0.84316 0.94335 0.90397 0.0
O506 O 0.79545 0.88982 0.8729 0.0
O507 O 0.82306 0.89183 0.81897 0.0
C508 C 0.83573 0.79667 0.88683 0.0
O509 O 0.84441 0.91408 0.92266 0.0
O510 O 0.84505 0.94186 0.86876 0.0
C511 C 0.9398 0.90569 0.85487 0.0
Fe512 Fe 0.87212 0.09601 0.65315 0.0
Fe513 Fe 0.84845 0.12665 0.5784 0.0
O514 O 0.87773 0.12873 0.6176 0.0
Fe515 Fe 0.91258 0.16333 0.62141 0.0
O516 O 0.89302 0.18148 0.66355 0.0
O517 O 0.88821 0.12743 0.6905 0.0
O518 O 0.82604 0.11166 0.66233 0.0
C519 C 0.80039 0.10981 0.63864 0.0
C520 C 0.94682 0.09823 0.64807 0.0
O521 O 0.80783 0.10867 0.60423 0.0
C522 C 0.91907 0.14614 0.54857 0.0
O523 O 0.85494 0.05854 0.62243 0.0
O524 O 0.86358 0.08056 0.56666 0.0
O525 O 0.94536 0.13343 0.6468 0.0
O526 O 0.91779 0.0787 0.6455 0.0
C527 C 0.85108 0.20091 0.59067 0.0
O528 O 0.88394 0.14478 0.54579 0.0
O529 O 0.9344 0.14734 0.57986 0.0
C530 C 0.85854 0.05338 0.58788 0.0
O531 O 0.83136 0.17205 0.58809 0.0
O532 O 0.88579 0.19898 0.59634 0.0
C533 C 0.88912 0.16254 0.69242 0.0
Fe534 Fe 0.61776 0.07849 0.34158 0.0
Fe535 Fe 0.6598 0.12023 0.40337 0.0
O536 O 0.62192 0.11662 0.37233 0.0
Fe537 Fe 0.58808 0.15122 0.37199 0.0
O538 O 0.59842 0.16272 0.32477 0.0
O539 O 0.59543 0.10528 0.30441 0.0
O540 O 0.66096 0.09057 0.32024 0.0
C541 C 0.69158 0.0933 0.33675 0.0
C542 C 0.54582 0.08495 0.36053 0.0
O543 O 0.69305 0.0977 0.3717 0.0
C544 C 0.59829 0.14402 0.44576 0.0
O545 O 0.6398 0.04501 0.37338 0.0
O546 O 0.64689 0.07719 0.42473 0.0
O547 O 0.54991 0.1198 0.35819 0.0
O548 O 0.57357 0.06424 0.36064 0.0
C549 C 0.65493 0.19237 0.38395 0.0
O550 O 0.63302 0.14294 0.44032 0.0
O551 O 0.57583 0.14159 0.41912 0.0
C552 C 0.64397 0.04653 0.40832 0.0
O553 O 0.67501 0.16418 0.38441 0.0
O554 O 0.62001 0.18903 0.38581 0.0
C555 C 0.59498 0.13996 0.29845 0.0
Fe556 Fe 0.58143 0.83131 0.12529 0.0
Fe557 Fe 0.65003 0.87115 0.09581 0.0
O558 O 0.61572 0.8663 0.12991 0.0
Fe559 Fe 0.61586 0.89654 0.16841 0.0
O560 O 0.57095 0.91314 0.15614 0.0
O561 O 0.54455 0.85844 0.14798 0.0
O562 O 0.56528 0.84986 0.08183 0.0
C563 C 0.58549 0.85239 0.0537 0.0
C564 C 0.59541 0.82642 0.19894 0.0
O565 O 0.62047 0.85384 0.0573 0.0
C566 C 0.68951 0.88601 0.16276 0.0
O567 O 0.61257 0.7982 0.10221 0.0
O568 O 0.6672 0.82576 0.10544 0.0
O569 O 0.59643 0.86164 0.20104 0.0
O570 O 0.59555 0.81048 0.16797 0.0
C571 C 0.63446 0.94313 0.10762 0.0
O572 O 0.68598 0.88926 0.12794 0.0
O573 O 0.66135 0.88194 0.18277 0.0
C574 C 0.64777 0.79669 0.10243 0.0
O575 O 0.63448 0.9168 0.08468 0.0
O576 O 0.63471 0.93671 0.14228 0.0
C577 C 0.5423 0.89327 0.15259 0.0
Fe578 Fe 0.41068 0.65738 0.1179 0.0
Fe579 Fe 0.34767 0.61935 0.07426 0.0
O580 O 0.37697 0.62176 0.11354 0.0
Fe581 Fe 0.37253 0.58828 0.14862 0.0
O582 O 0.41876 0.57246 0.14063 0.0
O583 O 0.44449 0.62807 0.1423 0.0
O584 O 0.43279 0.64308 0.07589 0.0
C585 C 0.41745 0.64178 0.04462 0.0
C586 C 0.38851 0.65448 0.18926 0.0
O587 O 0.38241 0.63907 0.04183 0.0
C588 C 0.30035 0.60062 0.13434 0.0
O589 O 0.38259 0.69259 0.09391 0.0
O590 O 0.3291 0.66411 0.08446 0.0
O591 O 0.38798 0.61941 0.18656 0.0
O592 O 0.39095 0.67403 0.16065 0.0
C593 C 0.36021 0.5462 0.08277 0.0
O594 O 0.30775 0.59986 0.09994 0.0
O595 O 0.32598 0.60243 0.1581 0.0
C596 C 0.34786 0.69352 0.08807 0.0
O597 O 0.36418 0.57381 0.06186 0.0
O598 O 0.35637 0.55083 0.11736 0.0
C599 C 0.44715 0.59297 0.14326 0.0
Fe600 Fe 0.12254 0.58172 0.84384 0.0
Fe601 Fe 0.16371 0.62247 0.90682 0.0
O602 O 0.12608 0.61916 0.87542 0.0
Fe603 Fe 0.09191 0.65347 0.87569 0.0
O604 O 0.10253 0.66635 0.82892 0.0
O605 O 0.10095 0.60935 0.80702 0.0
O606 O 0.16607 0.59433 0.82338 0.0
C607 C 0.19648 0.5967 0.84031 0.0
C608 C 0.05009 0.58731 0.86172 0.0
O609 O 0.19747 0.6006 0.87528 0.0
C610 C 0.10177 0.64432 0.9493 0.0
O611 O 0.14413 0.54776 0.87534 0.0
O612 O 0.15088 0.57908 0.9273 0.0
O613 O 0.05402 0.62224 0.86061 0.0
O614 O 0.078 0.56681 0.86174 0.0
C615 C 0.15839 0.6948 0.8885 0.0
O616 O 0.13652 0.64434 0.94389 0.0
O617 O 0.07945 0.64235 0.92248 0.0
C618 C 0.14821 0.54873 0.91031 0.0
O619 O 0.17871 0.66677 0.88858 0.0
O620 O 0.1235 0.69115 0.89067 0.0
C621 C 0.10067 0.64417 0.80198 0.0
Fe622 Fe 0.15215 0.37233 0.59869 0.0
Fe623 Fe 0.08439 0.33075 0.62796 0.0
O624 O 0.11793 0.36646 0.63274 0.0
Fe625 Fe 0.11729 0.39655 0.67136 0.0
O626 O 0.16298 0.38271 0.68586 0.0
O627 O 0.18759 0.39081 0.63107 0.0
O628 O 0.17035 0.32716 0.60777 0.0
C629 C 0.15158 0.29767 0.60452 0.0
C630 C 0.13501 0.444 0.61115 0.0
O631 O 0.11633 0.29834 0.60479 0.0
C632 C 0.04388 0.39189 0.65525 0.0
O633 O 0.12302 0.35475 0.56001 0.0
O634 O 0.06794 0.34907 0.58454 0.0
O635 O 0.13556 0.43724 0.64571 0.0
O636 O 0.13566 0.41786 0.58797 0.0
C637 C 0.09748 0.32604 0.70165 0.0
O638 O 0.04683 0.35711 0.65059 0.0
O639 O 0.07213 0.41232 0.65885 0.0
C640 C 0.08808 0.35234 0.55644 0.0
O641 O 0.09876 0.31009 0.67072 0.0
O642 O 0.0982 0.36125 0.70367 0.0
C643 C 0.1911 0.38732 0.66587 0.0
Fe644 Fe 0.65359 0.61295 0.58216 0.0
Fe645 Fe 0.62964 0.58616 0.65885 0.0
O646 O 0.62382 0.61654 0.62085 0.0
Fe647 Fe 0.5888 0.65033 0.62157 0.0
O648 O 0.56798 0.63307 0.57915 0.0
O649 O 0.61953 0.62826 0.5479 0.0
O650 O 0.63799 0.56576 0.5732 0.0
C651 C 0.64327 0.54008 0.59607 0.0
C652 C 0.65087 0.68811 0.59054 0.0
O653 O 0.64616 0.54724 0.63041 0.0
C654 C 0.61007 0.65373 0.69392 0.0
O655 O 0.6937 0.59707 0.60908 0.0
O656 O 0.67647 0.60337 0.66684 0.0
O657 O 0.61647 0.6855 0.59705 0.0
O658 O 0.67087 0.6598 0.58874 0.0
C659 C 0.55425 0.58641 0.65334 0.0
O660 O 0.61415 0.61902 0.69427 0.0
O661 O 0.60638 0.6708 0.66394 0.0
C662 C 0.7017 0.5998 0.64319 0.0
O663 O 0.58321 0.56726 0.65359 0.0
O664 O 0.55538 0.62083 0.6464 0.0
C665 C 0.58471 0.63076 0.54882 0.0
Fe666 Fe 0.40485 0.34939 0.37255 0.0
Fe667 Fe 0.36712 0.41646 0.33892 0.0
O668 O 0.36862 0.38144 0.37253 0.0
Fe669 Fe 0.33367 0.37846 0.40604 0.0
O670 O 0.31987 0.33344 0.38932 0.0
O671 O 0.37572 0.31025 0.39048 0.0
O672 O 0.39229 0.33334 0.32686 0.0
C673 C 0.39229 0.35368 0.29873 0.0
C674 C 0.39921 0.36007 0.44627 0.0
O675 O 0.38998 0.38868 0.30217 0.0
C676 C 0.34283 0.45253 0.40489 0.0
O677 O 0.43999 0.38312 0.35464 0.0
O678 O 0.41027 0.43573 0.3553 0.0
O679 O 0.36412 0.35887 0.44261 0.0
O680 O 0.41942 0.36359 0.41829 0.0
C681 C 0.29461 0.39813 0.34026 0.0
O682 O 0.34416 0.45055 0.36969 0.0
O683 O 0.34578 0.42371 0.42406 0.0
C684 C 0.44018 0.41846 0.35536 0.0
O685 O 0.32354 0.39886 0.32107 0.0
O686 O 0.29688 0.39722 0.37545 0.0
C687 C 0.34064 0.30584 0.3893 0.0
C688 C 0.06199 0.21911 0.26266 0.0
C689 C 0.07822 0.20711 0.29582 0.0
H690 H 0.05947 0.21347 0.2037 0.0
C691 C 0.10636 0.18073 0.29452 0.0
H692 H 0.04062 0.23985 0.26291 0.0
C693 C 0.11677 0.16522 0.26069 0.0
C694 C 0.09998 0.1767 0.2276 0.0
H695 H 0.11946 0.17123 0.31973 0.0
H696 H 0.13751 0.14386 0.26042 0.0
C697 C 0.07311 0.20438 0.22879 0.0
C698 C 0.03596 0.80119 0.52299 0.0
C699 C 0.05644 0.77075 0.5351 0.0
H700 H 0.03316 0.84673 0.48518 0.0
C701 C 0.09213 0.76529 0.52133 0.0
H702 H 0.00822 0.80566 0.53316 0.0
C703 C 0.10683 0.78952 0.49508 0.0
C704 C 0.08551 0.8187 0.48132 0.0
H705 H 0.10834 0.74196 0.53037 0.0
H706 H 0.13397 0.78411 0.48395 0.0
C707 C 0.05015 0.82464 0.49574 0.0
C708 C 0.4231 0.77625 0.77038 0.0
C709 C 0.44548 0.8004 0.79189 0.0
H710 H 0.38751 0.7703 0.72267 0.0
C711 C 0.44653 0.83819 0.7835 0.0
H712 H 0.42193 0.74689 0.77638 0.0
C713 C 0.42607 0.85165 0.75379 0.0
C714 C 0.4049 0.82745 0.73105 0.0
H715 H 0.46335 0.85739 0.79982 0.0
H716 H 0.42827 0.88096 0.74772 0.0
C717 C 0.40338 0.78959 0.73978 0.0
C718 C 0.41666 0.1653 0.04285 0.0
C719 C 0.43002 0.20198 0.04441 0.0
H720 H 0.39789 0.12035 0.00816 0.0
C721 C 0.43702 0.22117 0.01146 0.0
H722 H 0.41165 0.1499 0.06806 0.0
C723 C 0.43082 0.20367 0.97727 0.0
C724 C 0.41683 0.16715 0.97581 0.0
H725 H 0.44818 0.24921 0.01216 0.0
H726 H 0.43577 0.21903 0.95204 0.0
C727 C 0.40941 0.14826 0.00879 0.0
C728 C 0.08472 0.79972 0.20932 0.0
C729 C 0.052 0.81581 0.1958 0.0
H730 H 0.12424 0.79699 0.25392 0.0
C731 C 0.03531 0.84377 0.21656 0.0
H732 H 0.09862 0.77842 0.19376 0.0
C733 C 0.05079 0.85511 0.25033 0.0
C734 C 0.08265 0.83801 0.2644 0.0
H735 H 0.01021 0.8567 0.20686 0.0
H736 H 0.03728 0.8767 0.26594 0.0
C737 C 0.09951 0.81023 0.24371 0.0
C738 C 0.46386 0.81163 0.47703 0.0
C739 C 0.43881 0.79615 0.45115 0.0
H740 H 0.47058 0.84074 0.52867 0.0
C741 C 0.40089 0.80196 0.45528 0.0
H742 H 0.49336 0.80756 0.4741 0.0
C743 C 0.388 0.82223 0.48541 0.0
C744 C 0.41268 0.83556 0.51297 0.0
H745 H 0.3812 0.79074 0.43525 0.0
H746 H 0.35845 0.82601 0.48784 0.0
C747 C 0.45087 0.8307 0.50808 0.0
C748 C 0.4637 0.15718 0.71354 0.0
C749 C 0.46438 0.1954 0.70756 0.0
H750 H 0.43978 0.11222 0.74346 0.0
C751 C 0.43849 0.2179 0.72526 0.0
H752 H 0.48327 0.13941 0.69973 0.0
C753 C 0.41411 0.20264 0.75117 0.0
C754 C 0.41475 0.16453 0.75884 0.0
H755 H 0.4386 0.24754 0.72066 0.0
H756 H 0.39609 0.22085 0.76643 0.0
C757 C 0.43852 0.14172 0.73835 0.0
C758 C 0.01275 0.13833 0.96887 0.0
C759 C 0.02612 0.17032 0.95096 0.0
H760 H 0.01943 0.1012 0.01478 0.0
C761 C 0.05739 0.18907 0.96513 0.0
H762 H 0.98852 0.12356 0.95832 0.0
C763 C 0.07561 0.1756 -0.00374 0.0
C764 C 0.06217 0.14384 0.01437 0.0
H765 H 0.06823 0.21364 0.95162 0.0
H766 H 0.09994 0.19037 0.0066 0.0
C767 C 0.0303 0.12554 0.00091 0.0
C768 C 0.28319 0.08608 0.20139 0.0
C769 C 0.30029 0.05759 0.18141 0.0
H770 H 0.23691 0.12254 0.20466 0.0
C771 C 0.28586 0.04688 0.14682 0.0
H772 H 0.29387 0.095 0.22809 0.0
C773 C 0.25408 0.06342 0.13298 0.0
C774 C 0.23557 0.09026 0.15397 0.0
H775 H 0.29871 0.02519 0.13078 0.0
H776 H 0.24293 0.05367 0.1067 0.0
C777 C 0.25068 0.1019 0.18803 0.0
C778 C 0.19672 0.01631 0.46486 0.0
C779 C 0.17944 0.04902 0.45357 0.0
H780 H 0.19605 0.9569 0.46268 0.0
C781 C 0.14653 0.04657 0.43269 0.0
H782 H 0.22179 0.01744 0.48149 0.0
C783 C 0.13188 0.01219 0.42214 0.0
C784 C 0.14937 0.97955 0.43289 0.0
H785 H 0.13245 0.0713 0.42381 0.0
H786 H 0.10733 0.01108 0.40473 0.0
C787 C 0.18159 0.98176 0.45484 0.0
C788 C 0.20589 0.94976 0.65723 0.0
C789 C 0.19452 0.94201 0.6934 0.0
H790 H 0.24576 0.94032 0.61505 0.0
C791 C 0.21461 0.91678 0.71483 0.0
H792 H 0.19081 0.96909 0.64021 0.0
C793 C 0.24673 0.90084 0.70077 0.0
C794 C 0.25841 0.90911 0.66473 0.0
H795 H 0.20639 0.9106 0.74296 0.0
H796 H 0.26263 0.88252 0.71815 0.0
C797 C 0.23723 0.93309 0.64285 0.0
C798 C 0.3122 0.98289 0.9674 0.0
C799 C 0.28781 0.96391 0.9433 0.0
H800 H 0.35541 0.02412 0.97242 0.0
C801 C 0.29177 0.96774 0.90503 0.0
H802 H 0.30967 0.97979 -0.00289 0.0
C803 C 0.31882 0.99157 0.8909 0.0
C804 C 0.34141 0.01312 0.91489 0.0
H805 H 0.27352 0.95276 0.88608 0.0
H806 H 0.32006 0.99504 0.86115 0.0
C807 C 0.33852 0.00782 0.95331 0.0
C808 C 0.26224 0.98104 0.33569 0.0
C809 C 0.2736 0.97555 0.29909 0.0
H810 H 0.2274 0.96224 0.37961 0.0
C811 C 0.25889 0.94563 0.27845 0.0
H812 H 0.27342 0.00389 0.35206 0.0
C813 C 0.23192 0.92229 0.29386 0.0
C814 C 0.22057 0.92784 0.33051 0.0
H815 H 0.26733 0.9411 0.25006 0.0
H816 H 0.21969 0.90023 0.27716 0.0
C817 C 0.23633 0.95701 0.35149 0.0
C818 C 0.29588 0.03717 0.588 0.0
C819 C 0.30271 0.04842 0.55161 0.0
H820 H 0.30602 -0.00281 0.62998 0.0
C821 C 0.32688 0.02778 0.52947 0.0
H822 H 0.27742 0.05265 0.6056 0.0
C823 C 0.34275 -0.0046 0.54311 0.0
C824 C 0.33553 0.98392 0.57945 0.0
H825 H 0.33237 0.03588 0.50116 0.0
H826 H 0.36024 0.97915 0.52521 0.0
C827 C 0.31251 0.00554 0.60195 0.0
C828 C 0.22181 0.0845 0.77692 0.0
C829 C 0.20039 0.05783 0.7956 0.0
H830 H 0.27326 0.11504 0.77549 0.0
C831 C 0.2143 0.04109 0.82751 0.0
H832 H 0.21136 0.09748 0.75206 0.0
C833 C 0.24886 0.05193 0.84144 0.0
C834 C 0.27042 0.0786 0.82282 0.0
H835 H 0.19802 0.02047 0.84217 0.0
H836 H 0.25876 0.03943 0.86675 0.0
C837 C 0.25702 0.09438 0.79012 0.0
C838 C 0.16275 0.96011 0.03526 0.0
C839 C 0.19088 0.94322 0.056 0.0
H840 H 0.1246 0.00501 0.03178 0.0
C841 C 0.19972 0.95712 0.09131 0.0
H842 H 0.15525 0.94986 0.00797 0.0
C843 C 0.18143 0.98788 0.10532 0.0
C844 C 0.15456 0.00597 0.08389 0.0
H845 H 0.22108 0.94447 0.10797 0.0
H846 H 0.18967 -0.00148 0.13229 0.0
C847 C 0.1451 0.99157 0.04887 0.0
C848 C 0.20485 0.26113 0.03905 0.0
C849 C 0.19392 0.29407 0.05641 0.0
H850 H 0.19894 0.20209 0.03637 0.0
C851 C 0.16661 0.29254 0.08393 0.0
H852 H 0.22602 0.26148 0.01793 0.0
C853 C 0.15058 0.25856 0.09397 0.0
C854 C 0.16251 0.22559 0.07745 0.0
H855 H 0.1577 0.31758 0.0977 0.0
H856 H 0.1296 0.25795 0.11528 0.0
C857 C 0.18963 0.22715 0.04982 0.0
C858 C 0.7149 0.24949 0.96673 0.0
C859 C 0.69913 0.2138 0.96616 0.0
H860 H 0.71705 0.30288 0.94184 0.0
C861 C 0.67514 0.20341 0.93704 0.0
H862 H 0.73406 0.25781 0.98856 0.0
C863 C 0.66483 0.22941 0.91041 0.0
C864 C 0.67937 0.26576 0.91186 0.0
H865 H 0.663 0.17579 0.93594 0.0
H866 H 0.64428 0.22163 0.88969 0.0
C867 C 0.70562 0.27504 0.93952 0.0
C868 C 0.00888 0.4443 0.21441 0.0
C869 C 0.04062 0.44219 0.19241 0.0
H870 H 0.95003 0.43632 0.21687 0.0
C871 C 0.03733 0.43134 0.15514 0.0
H872 H 0.01085 0.45333 0.24303 0.0
C873 C 0.00284 0.42103 0.14047 0.0
C874 C 0.97113 0.4231 0.16246 0.0
H875 H 0.06157 0.42997 0.13769 0.0
H876 H 0.00093 0.41096 0.11219 0.0
C877 C 0.97421 0.43528 0.19933 0.0
C878 C 0.78673 0.77358 0.42432 0.0
C879 C 0.80817 0.79521 0.44903 0.0
H880 H 0.78394 0.7245 0.39059 0.0
C881 C 0.84473 0.78526 0.45682 0.0
H882 H 0.75833 0.78068 0.41814 0.0
C883 C 0.85956 0.7538 0.44049 0.0
C884 C 0.83768 0.73128 0.41691 0.0
H885 H 0.86175 0.80162 0.47578 0.0
H886 H 0.88769 0.74637 0.44743 0.0
C887 C 0.80124 0.74148 0.40874 0.0
C888 C 0.98169 0.02775 0.2041 0.0
C889 C 0.94813 0.04002 0.18903 0.0
H890 H 0.04093 0.03285 0.20388 0.0
C891 C 0.94879 0.06813 0.16227 0.0
H892 H 0.98194 0.00589 0.22453 0.0
C893 C 0.98235 0.08386 0.15092 0.0
C894 C 0.01595 0.07112 0.16537 0.0
H895 H 0.9233 0.07809 0.15021 0.0
H896 H 0.98204 0.10566 0.13042 0.0
C897 C 0.01538 0.04287 0.19201 0.0
C898 C 0.29058 0.70504 0.59056 0.0
C899 C 0.29178 0.69914 0.55201 0.0
H900 H 0.30349 0.74216 0.63581 0.0
C901 C 0.30612 0.7271 0.52918 0.0
H902 H 0.27955 0.68386 0.60875 0.0
C903 C 0.31898 0.76039 0.54465 0.0
C904 C 0.31808 0.76608 0.58307 0.0
H905 H 0.30688 0.72351 0.4994 0.0
H906 H 0.32991 0.78166 0.52662 0.0
C907 C 0.30397 0.73826 0.60605 0.0
C908 C 0.01976 0.53524 0.2962 0.0
C909 C 0.03247 0.55715 0.26671 0.0
H910 H 0.98268 0.53112 0.34232 0.0
C911 C 0.02014 0.59353 0.26312 0.0
H912 H 0.02884 0.50693 0.29916 0.0
C913 C -0.00494 0.60775 0.28858 0.0
C914 C 0.98097 0.58531 0.31714 0.0
H915 H 0.02962 0.61077 0.24051 0.0
H916 H 0.98519 0.63565 0.28473 0.0
C917 C 0.9936 0.549 0.32086 0.0
C918 C 0.45557 0.39469 0.80804 0.0
C919 C 0.44538 0.43137 0.81496 0.0
H920 H 0.49401 0.35183 0.81917 0.0
C921 C 0.46462 0.45222 0.84204 0.0
H922 H 0.44083 0.37792 0.78761 0.0
C923 C 0.49548 0.4375 0.85983 0.0
C924 C 0.50697 0.40146 0.85136 0.0
H925 H 0.4571 0.48056 0.84798 0.0
H926 H 0.51127 0.45483 0.87898 0.0
C927 C 0.4858 0.37968 0.82643 0.0
C928 C 0.94028 0.82753 0.70639 0.0
C929 C 0.93432 0.78919 0.70114 0.0
H930 H 0.93036 0.8753 0.74044 0.0
C931 C 0.91043 0.77024 0.72528 0.0
H932 H 0.95833 0.843 0.68807 0.0
C933 C 0.89443 0.78874 0.75511 0.0
C934 C 0.90167 0.82669 0.76141 0.0
H935 H 0.90498 0.74082 0.72185 0.0
H936 H 0.87726 0.77297 0.77404 0.0
C937 C 0.92397 0.84616 0.73615 0.0
C938 C 0.95049 0.18282 0.45574 0.0
C939 C 0.98913 0.18548 0.46127 0.0
H940 H 0.8978 0.16794 0.47888 0.0
C941 C 0.00446 0.16974 0.49321 0.0
H942 H 0.9377 0.19436 0.43127 0.0
C943 C 0.98158 0.15436 0.52026 0.0
C944 C 0.94275 0.15454 0.5162 0.0
H945 H 0.03406 0.17081 0.49821 0.0
H946 H 0.99434 0.14404 0.54532 0.0
C947 C 0.92752 0.16753 0.48296 0.0
C948 C 0.56149 0.14138 0.1995 0.0
C949 C 0.54881 0.17796 0.19623 0.0
H950 H 0.58628 0.1008 0.23421 0.0
C951 C 0.55484 0.20285 0.22569 0.0
H952 H 0.55768 0.12144 0.17723 0.0
C953 C 0.57167 0.19095 0.25833 0.0
C954 C 0.58246 0.15383 0.26223 0.0
H955 H 0.54576 0.23125 0.22394 0.0
H956 H 0.57487 0.21055 0.28099 0.0
C957 C 0.57801 0.12944 0.23217 0.0
C958 C 0.51478 0.82767 0.97904 0.0
C959 C 0.53789 0.81959 0.94908 0.0
H960 H 0.51172 0.8447 0.03582 0.0
C961 C 0.57615 0.82652 0.95255 0.0
H962 H 0.48519 0.82269 0.97706 0.0
C963 C 0.59136 0.83933 0.98592 0.0
C964 C 0.56866 0.84515 0.01677 0.0
H965 H 0.59462 0.82099 0.92971 0.0
H966 H 0.62112 0.84306 0.98795 0.0
C967 C 0.53005 0.84024 0.01266 0.0
C968 C 0.90521 0.17561 0.79487 0.0
C969 C 0.91528 0.21329 0.79698 0.0
H970 H 0.88826 0.13017 0.76037 0.0
C971 C 0.91187 0.23543 0.7654 0.0
H972 H 0.9071 0.15803 0.81902 0.0
C973 C 0.90125 0.21936 0.73151 0.0
C974 C 0.89374 0.18098 0.72889 0.0
H975 H 0.91943 0.26458 0.76638 0.0
H976 H 0.90068 0.23667 0.70712 0.0
C977 C 0.89438 0.15964 0.76125 0.0
C978 C 0.53579 0.184 0.51889 0.0
C979 C 0.55977 0.18593 0.54955 0.0
H980 H 0.52901 0.16866 0.46203 0.0
C981 C 0.59521 0.17035 0.54674 0.0
H982 H 0.50828 0.19542 0.5202 0.0
C983 C 0.60725 0.15539 0.51338 0.0
C984 C 0.58402 0.15525 0.48222 0.0
H985 H 0.6144 0.17094 0.56991 0.0
H986 H 0.63514 0.14489 0.51177 0.0
C987 C 0.54774 0.16859 0.48557 0.0
C988 C 0.57152 0.74125 0.25453 0.0
C989 C 0.55349 0.75652 0.28518 0.0
H990 H 0.59995 0.75143 0.20392 0.0
C991 C 0.55455 0.79532 0.29014 0.0
H992 H 0.57176 0.71154 0.25009 0.0
C993 C 0.57063 0.81841 0.26342 0.0
C994 C 0.58604 0.8031 0.23133 0.0
H995 H 0.54116 0.80806 0.31362 0.0
H996 H 0.56896 0.84816 0.26685 0.0
C997 C 0.58774 0.76423 0.22805 0.0
C998 C 0.97131 0.83338 0.01511 0.0
C999 C 0.9534 0.8101 0.04053 0.0
H1000 H 0.96679 0.86456 0.96516 0.0
C1001 C 0.91515 0.80293 0.03616 0.0
H1002 H 0.00061 0.83972 0.01785 0.0
C1003 C 0.89556 0.8175 0.00611 0.0
C1004 C 0.91396 0.83928 0.97969 0.0
H1005 H 0.90045 0.78529 0.05549 0.0
H1006 H 0.86654 0.81023 0.00262 0.0
C1007 C 0.95184 0.84771 0.98501 0.0
C1008 C 0.72744 0.9183 0.76104 0.0
C1009 C 0.70143 0.93903 0.78063 0.0
H1010 H 0.77696 0.88654 0.76395 0.0
C1011 C 0.70375 0.94044 0.81955 0.0
H1012 H 0.7262 0.91646 0.73111 0.0
C1013 C 0.73238 0.92286 0.83843 0.0
C1014 C 0.75961 0.90385 0.81875 0.0
H1015 H 0.68383 0.95584 0.83551 0.0
H1016 H 0.73419 0.92581 0.86825 0.0
C1017 C 0.75638 0.90106 0.77991 0.0
C1018 C 0.81667 0.95731 0.5784 0.0
C1019 C 0.8165 0.95218 0.53984 0.0
H1020 H 0.83088 0.99287 0.6239 0.0
C1021 C 0.83355 0.97897 0.51735 0.0
H1022 H 0.80411 0.93689 0.59648 0.0
C1023 C 0.84894 0.01122 0.53307 0.0
C1024 C 0.8477 0.0171 0.5716 0.0
H1025 H 0.83408 0.97555 0.48754 0.0
H1026 H 0.86075 0.03202 0.51494 0.0
C1027 C 0.83226 0.98932 0.59414 0.0
C1028 C 0.78433 0.05426 0.31001 0.0
C1029 C 0.78102 0.05341 0.27108 0.0
H1030 H 0.75863 0.06794 0.36167 0.0
C1031 C 0.75073 0.07074 0.25441 0.0
H1032 H 0.80748 0.04137 0.32379 0.0
C1033 C 0.72304 0.08605 0.27609 0.0
C1034 C 0.72484 0.08433 0.31498 0.0
H1035 H 0.7475 0.07111 0.22457 0.0
H1036 H 0.69925 0.09773 0.26225 0.0
C1037 C 0.75645 0.06962 0.3318 0.0
C1038 C 0.65864 0.04537 0.10486 0.0
C1039 C 0.66857 0.04985 0.06743 0.0
H1040 H 0.64009 0.00808 0.14705 0.0
C1041 C 0.6627 0.02021 0.04274 0.0
H1042 H 0.66263 0.06771 0.12469 0.0
C1043 C 0.64936 0.98618 0.05557 0.0
C1044 C 0.64216 0.98085 0.0935 0.0
H1045 H 0.66962 0.02287 0.01372 0.0
H1046 H 0.64642 0.96355 0.03589 0.0
C1047 C 0.64575 0.01115 0.1178 0.0
C1048 C 0.72311 0.07614 0.70069 0.0
C1049 C 0.69444 0.06957 0.67501 0.0
H1050 H 0.77875 0.095 0.70954 0.0
C1051 C 0.6996 0.08036 0.63792 0.0
H1052 H 0.71988 0.0686 0.72949 0.0
C1053 C 0.73346 0.09523 0.62633 0.0
C1054 C 0.76278 0.09997 0.65163 0.0
H1055 H 0.678 0.07591 0.61736 0.0
H1056 H 0.73706 0.10173 0.59731 0.0
C1057 C 0.75682 0.09144 0.68918 0.0
C1058 C 0.68615 0.95591 0.43724 0.0
C1059 C 0.68383 0.95881 0.47612 0.0
H1060 H 0.67481 0.9814 0.38484 0.0
C1061 C 0.66318 0.98762 0.49151 0.0
H1062 H 0.70163 0.93387 0.42443 0.0
C1063 C 0.64777 0.01452 0.46888 0.0
C1064 C 0.65261 0.01333 0.43029 0.0
H1065 H 0.66026 0.99044 0.52123 0.0
H1066 H 0.6336 0.03739 0.48183 0.0
C1067 C 0.6706 0.98297 0.41448 0.0
C1068 C 0.76203 0.90863 0.23625 0.0
C1069 C 0.79143 0.92168 0.21445 0.0
H1070 H 0.7066 0.88674 0.237 0.0
C1071 C 0.78836 0.91947 0.1757 0.0
H1072 H 0.76376 0.90983 0.26619 0.0
C1073 C 0.75589 0.9061 0.15897 0.0
C1074 C 0.72561 0.89488 0.18062 0.0
H1075 H 0.81077 0.92891 0.15815 0.0
H1076 H 0.75412 0.90586 0.12901 0.0
C1077 C 0.72934 0.8954 0.21948 0.0
C1078 C 0.81731 0.01006 0.98084 0.0
C1079 C 0.79765 0.03694 0.96127 0.0
H1080 H 0.84749 0.95952 0.97796 0.0
C1081 C 0.79595 0.03452 0.92236 0.0
H1082 H 0.81927 0.01125 0.01077 0.0
C1083 C 0.81254 0.00525 0.90348 0.0
C1084 C 0.83084 0.97745 0.92312 0.0
H1085 H 0.78128 0.055 0.9064 0.0
H1086 H 0.80965 0.00361 0.87364 0.0
C1087 C 0.83355 0.98051 0.96198 0.0
C1088 C 0.75652 0.72993 0.90083 0.0
C1089 C 0.77103 0.70615 0.92771 0.0
H1090 H 0.76631 0.77645 0.86574 0.0
C1091 C 0.80934 0.70788 0.93538 0.0
H1092 H 0.72735 0.72891 0.89367 0.0
C1093 C 0.83186 0.73531 0.91921 0.0
C1094 C 0.81636 0.76128 0.89506 0.0
H1095 H 0.82147 0.68974 0.95577 0.0
H1096 H 0.86054 0.73799 0.92789 0.0
C1097 C 0.77894 0.75706 0.88463 0.0
C1098 C 0.33119 0.79127 0.05551 0.0
C1099 C 0.29224 0.79213 0.05467 0.0
H1100 H 0.37951 0.75958 0.06729 0.0
C1101 C 0.27198 0.76174 0.06821 0.0
H1102 H 0.34757 0.81449 0.04551 0.0
C1103 C 0.29031 0.73028 0.08049 0.0
C1104 C 0.32925 0.72872 0.07979 0.0
H1105 H 0.24199 0.76167 0.068 0.0
H1106 H 0.27387 0.70672 0.08964 0.0
C1107 C 0.34955 0.75993 0.06816 0.0
C1108 C 0.97476 0.52696 0.81868 0.0
C1109 C 0.94387 0.54983 0.82284 0.0
H1110 H 0.03294 0.52063 0.82839 0.0
C1111 C 0.94729 0.58161 0.84546 0.0
H1112 H 0.97306 0.50216 0.80169 0.0
C1113 C 0.98149 0.59222 0.86051 0.0
C1114 C 0.01304 0.57115 0.85367 0.0
H1115 H 0.92398 0.59956 0.84994 0.0
H1116 H 0.98361 0.61803 0.8759 0.0
C1117 C 0.00907 0.53749 0.8341 0.0
C1118 C 0.22879 0.23236 0.57901 0.0
C1119 C 0.20867 0.20267 0.56332 0.0
H1120 H 0.22638 0.28584 0.60469 0.0
C1121 C 0.16973 0.20298 0.56436 0.0
H1122 H 0.25878 0.23273 0.57872 0.0
C1123 C 0.15115 0.23304 0.57935 0.0
C1124 C 0.1711 0.26369 0.59337 0.0
H1125 H 0.15341 0.1802 0.55287 0.0
H1126 H 0.12116 0.23279 0.57868 0.0
C1127 C 0.21015 0.26271 0.59381 0.0
C1128 C 0.03108 0.9332 0.81187 0.0
C1129 C 0.03111 0.9719 0.81755 0.0
H1130 H 0.0022 0.88143 0.81972 0.0
C1131 C 0.00439 0.98705 0.841 0.0
H1132 H 0.05151 0.9205 0.79425 0.0
C1133 C 0.97651 0.96458 0.85583 0.0
C1134 C 0.97454 0.92646 0.84745 0.0
H1135 H 0.00391 0.01656 0.84655 0.0
H1136 H 0.95518 0.9775 0.8722 0.0
C1137 C 0.003 0.91066 0.82669 0.0
C1138 C 0.66326 0.29569 0.39591 0.0
C1139 C 0.69608 0.29932 0.41694 0.0
H1140 H 0.62476 0.25895 0.36867 0.0
C1141 C 0.71836 0.26805 0.42156 0.0
H1142 H 0.64565 0.31923 0.39116 0.0
C1143 C 0.70643 0.23337 0.40813 0.0
C1144 C 0.6719 0.2294 0.39017 0.0
H1145 H 0.74392 0.26988 0.43735 0.0
H1146 H 0.72303 0.20937 0.41408 0.0
C1147 C 0.65123 0.26112 0.38288 0.0
C1148 C 0.97366 0.4662 0.66973 0.0
C1149 C 0.94726 0.44794 0.69162 0.0
H1150 H 0.02461 0.46225 0.64037 0.0
C1151 C 0.95031 0.40952 0.69732 0.0
H1152 H 0.97187 0.49564 0.66446 0.0
C1153 C 0.98045 0.39018 0.6831 0.0
C1154 C 0.00805 0.40912 0.66326 0.0
H1155 H 0.93012 0.39461 0.71382 0.0
H1156 H 0.98326 0.36107 0.68949 0.0
C1157 C 0.00377 0.44702 0.6558 0.0
C1158 C 0.51705 0.52034 0.16921 0.0
C1159 C 0.54623 0.54248 0.18301 0.0
H1160 H 0.46268 0.51905 0.1455 0.0
C1161 C 0.54407 0.58126 0.1804 0.0
H1162 H 0.51812 0.49041 0.17074 0.0
C1163 C 0.51253 0.59772 0.16592 0.0
C1164 C 0.4824 0.57572 0.15398 0.0
H1165 H 0.56643 0.59905 0.19045 0.0
H1166 H 0.5113 0.62768 0.16538 0.0
C1167 C 0.48533 0.53683 0.15487 0.0
C1168 C 0.56267 0.71662 0.76169 0.0
C1169 C 0.57697 0.7044 0.7956 0.0
H1170 H 0.56302 0.71094 0.70277 0.0
C1171 C 0.60419 0.677 0.7958 0.0
H1172 H 0.54205 0.73809 0.76081 0.0
C1173 C 0.6158 0.66099 0.7626 0.0
C1174 C 0.60121 0.67301 0.7287 0.0
H1175 H 0.61577 0.66728 0.82167 0.0
H1176 H 0.63591 0.63905 0.76341 0.0
C1177 C 0.57503 0.70141 0.72851 0.0
C1178 C 0.58549 0.25813 0.02007 0.0
C1179 C 0.55144 0.26785 0.0355 0.0
H1180 H 0.62776 0.27226 0.98101 0.0
C1181 C 0.53454 0.30087 0.02464 0.0
H1182 H 0.5989 0.23272 0.02808 0.0
C1183 C 0.55044 0.32283 -0.00288 0.0
C1184 C 0.58408 0.31274 0.98117 0.0
H1185 H 0.50805 0.30864 0.03599 0.0
H1186 H 0.53603 0.34713 0.98758 0.0
C1187 C 0.60205 0.28081 0.99348 0.0
C1188 C 0.94663 0.33815 0.28776 0.0
C1189 C 0.94734 0.3002 0.29522 0.0
H1190 H 0.92671 0.3807 0.25259 0.0
C1191 C 0.92686 0.2754 0.27263 0.0
H1192 H 0.96201 0.35776 0.30496 0.0
C1193 C 0.90722 0.28838 0.24188 0.0
C1194 C 0.90688 0.32644 0.23413 0.0
H1195 H 0.92715 0.2459 0.27794 0.0
H1196 H 0.89278 0.26872 0.22396 0.0
C1197 C 0.92614 0.35121 0.25789 0.0
C1198 C 0.92812 0.65352 0.5464 0.0
C1199 C 0.94147 0.69024 0.54649 0.0
H1200 H 0.90859 0.6076 0.51325 0.0
C1201 C 0.94949 0.70779 0.51294 0.0
H1202 H 0.92255 0.63938 0.57221 0.0
C1203 C 0.94361 0.68894 0.47953 0.0
C1204 C 0.92874 0.65273 0.47933 0.0
H1205 H 0.96078 0.73578 0.51259 0.0
H1206 H 0.94886 0.70336 0.4538 0.0
C1207 C 0.92094 0.63515 0.51295 0.0
C1208 C 0.58252 0.29269 0.71209 0.0
C1209 C 0.55219 0.31182 0.69719 0.0
H1210 H 0.62108 0.28798 0.75729 0.0
C1211 C 0.53887 0.34285 0.71598 0.0
H1212 H 0.59365 0.2688 0.69811 0.0
C1213 C 0.55539 0.35439 0.74918 0.0
C1214 C 0.58493 0.33456 0.76465 0.0
H1215 H 0.51567 0.35813 0.70511 0.0
H1216 H 0.54425 0.37826 0.76333 0.0
C1217 C 0.59835 0.3036 0.74589 0.0
C1218 C 0.89775 0.30607 0.95938 0.0
C1219 C 0.9359 0.3049 0.95322 0.0
H1220 H 0.85447 0.32394 0.99455 0.0
C1221 C 0.96028 0.32398 0.97732 0.0
H1222 H 0.87847 0.2919 0.94084 0.0
C1223 C 0.94666 0.34187 0.00881 0.0
C1224 C 0.90844 0.3416 0.01592 0.0
H1225 H 0.9899 0.32339 0.97289 0.0
H1226 H 0.96604 0.35468 0.02818 0.0
C1227 C 0.8841 0.3247 0.99008 0.0
C1228 C 0.94239 0.68577 0.20789 0.0
C1229 C 0.97079 0.71083 0.21815 0.0
H1230 H 0.89694 0.65186 0.2265 0.0
C1231 C 0.9724 0.72473 0.25438 0.0
H1232 H 0.94058 0.67502 0.17986 0.0
C1233 C 0.9467 0.71281 0.28046 0.0
C1234 C 0.91962 0.68585 0.27103 0.0
H1235 H 0.99374 0.74462 0.2626 0.0
H1236 H 0.9496 0.72307 0.30859 0.0
C1237 C 0.91729 0.67286 0.23435 0.0
C1238 C 0.56038 0.63672 0.44727 0.0
C1239 C 0.53324 0.66419 0.44762 0.0
H1240 H 0.59829 0.60469 0.47939 0.0
C1241 C 0.52125 0.67844 0.48165 0.0
H1242 H 0.56993 0.62516 0.42135 0.0
C1243 C 0.53654 0.66583 0.51478 0.0
C1244 C 0.56478 0.6395 0.51437 0.0
H1245 H 0.5 0.69926 0.48266 0.0
H1246 H 0.52735 0.67786 0.54063 0.0
C1247 C 0.57645 0.6249 0.48037 0.0
C1248 C 0.78441 0.58282 0.70495 0.0
C1249 C 0.80166 0.55392 0.68574 0.0
H1250 H 0.73865 0.62 0.70655 0.0
C1251 C 0.78805 0.54316 0.6508 0.0
H1252 H 0.79444 0.59176 0.7319 0.0
C1253 C 0.75697 0.56015 0.63581 0.0
C1254 C 0.73829 0.58745 0.65601 0.0
H1255 H 0.80105 0.52115 0.63533 0.0
H1256 H 0.74641 0.55041 0.60929 0.0
C1257 C 0.7526 0.59906 0.69045 0.0
C1258 C 0.63917 0.53975 0.93919 0.0
C1259 C 0.67264 0.54316 0.95903 0.0
H1260 H 0.60089 0.50314 0.91139 0.0
C1261 C 0.6914 0.51104 0.96957 0.0
H1262 H 0.62393 0.56401 0.93099 0.0
C1263 C 0.67748 0.47613 0.95929 0.0
C1264 C 0.64503 0.47305 0.93786 0.0
H1265 H 0.71692 0.51289 0.98545 0.0
H1266 H 0.69323 0.45179 0.96618 0.0
C1267 C 0.62571 0.50501 0.92837 0.0
C1268 C 0.70513 0.44811 0.16452 0.0
C1269 C 0.69628 0.4455 0.20209 0.0
H1270 H 0.7405 0.43088 0.12097 0.0
C1271 C 0.71602 0.42113 0.22483 0.0
H1272 H 0.69008 0.46647 0.14641 0.0
C1273 C 0.74559 0.40107 0.21045 0.0
C1274 C 0.75494 0.40429 0.1729 0.0
H1275 H 0.70954 0.41871 0.25397 0.0
H1276 H 0.76159 0.38374 0.22875 0.0
C1277 C 0.73378 0.42734 0.14995 0.0
C1278 C 0.81522 0.47388 0.4497 0.0
C1279 C 0.78426 0.46255 0.42853 0.0
H1280 H 0.86231 0.51068 0.45366 0.0
C1281 C 0.78003 0.47586 0.39241 0.0
H1282 H 0.81908 0.46378 0.47763 0.0
C1283 C 0.80556 0.50135 0.37818 0.0
C1284 C 0.83489 0.51508 0.40041 0.0
H1285 H 0.75658 0.46713 0.37547 0.0
H1286 H 0.80071 0.51228 0.35072 0.0
C1287 C 0.84004 0.50044 0.43596 0.0
C1288 C 0.7637 0.47792 0.84136 0.0
C1289 C 0.77605 0.47237 0.80508 0.0
H1290 H 0.72754 0.45923 0.88434 0.0
C1291 C 0.76173 0.44249 0.78411 0.0
H1292 H 0.77449 0.50078 0.85798 0.0
C1293 C 0.73423 0.41929 0.79879 0.0
C1294 C 0.72184 0.42491 0.83508 0.0
H1295 H 0.77085 0.43793 0.75594 0.0
H1296 H 0.72238 0.39726 0.78177 0.0
C1297 C 0.7372 0.45399 0.85647 0.0
C1298 C 0.78634 0.5338 0.09309 0.0
C1299 C 0.79453 0.54484 0.05687 0.0
H1300 H 0.79477 0.49378 0.13556 0.0
C1301 C 0.81925 0.52395 0.03567 0.0
H1302 H 0.76737 0.54948 0.10994 0.0
C1303 C 0.83435 0.49157 0.05 0.0
C1304 C 0.82575 0.48027 0.08608 0.0
H1305 H 0.82579 0.53184 0.00753 0.0
H1306 H 0.85238 0.47517 0.03279 0.0
C1307 C 0.8022 0.50206 0.10775 0.0
C1308 C 0.71861 0.60395 0.27866 0.0
C1309 C 0.6975 0.57679 0.29704 0.0
H1310 H 0.76937 0.63575 0.27809 0.0
C1311 C 0.71022 0.56218 0.33044 0.0
H1312 H 0.70896 0.61548 0.25277 0.0
C1313 C 0.7437 0.57471 0.34551 0.0
C1314 C 0.76564 0.60098 0.32664 0.0
H1315 H 0.69408 0.54141 0.34504 0.0
H1316 H 0.75289 0.56297 0.37146 0.0
C1317 C 0.75291 0.61551 0.29306 0.0
C1318 C 0.6646 0.46083 0.53113 0.0
C1319 C 0.69416 0.44411 0.54983 0.0
H1320 H 0.62521 0.50474 0.53116 0.0
C1321 C 0.70427 0.45694 0.58525 0.0
H1322 H 0.65615 0.45135 0.50382 0.0
C1323 C 0.68578 0.48659 0.60135 0.0
C1324 C 0.65751 0.50464 0.58188 0.0
H1325 H 0.72673 0.4443 0.60038 0.0
H1326 H 0.69496 0.49656 0.62829 0.0
C1327 C 0.64678 0.49122 0.5468 0.0
C1328 C 0.66805 0.79165 0.58775 0.0
C1329 C 0.69719 0.79431 0.56228 0.0
H1330 H 0.63008 0.7557 0.61622 0.0
C1331 C 0.71105 0.76181 0.54631 0.0
H1332 H 0.65689 0.8163 0.60044 0.0
C1333 C 0.6964 0.72723 0.55602 0.0
C1334 C 0.66701 0.72457 0.58118 0.0
H1335 H 0.73372 0.76306 0.52682 0.0
H1336 H 0.70772 0.7026 0.54342 0.0
C1337 C 0.65273 0.75707 0.59672 0.0
C1338 C 0.1691 0.70786 0.43805 0.0
C1339 C 0.19295 0.71759 0.46748 0.0
H1340 H 0.13993 0.72668 0.38993 0.0
C1341 C 0.21038 0.75258 0.46771 0.0
H1342 H 0.15578 0.68077 0.43706 0.0
C1343 C 0.20269 0.77817 0.43995 0.0
C1344 C 0.17648 0.76966 0.41204 0.0
H1345 H 0.22958 0.76034 0.4897 0.0
H1346 H 0.2152 0.80558 0.44207 0.0
C1347 C 0.16047 0.73389 0.41085 0.0
C1348 C 0.53053 0.90873 0.70111 0.0
C1349 C 0.5443 0.94343 0.69013 0.0
H1350 H 0.48767 0.86762 0.69472 0.0
C1351 C 0.52472 0.96373 0.66346 0.0
H1352 H 0.54515 0.89254 0.72154 0.0
C1353 C 0.49134 0.94993 0.64875 0.0
C1354 C 0.47779 0.91508 0.65956 0.0
H1355 H 0.53471 0.99064 0.65456 0.0
H1356 H 0.47623 0.96634 0.62888 0.0
C1357 C 0.49784 0.89443 0.68557 0.0
C1358 C 0.2988 0.25323 0.95898 0.0
C1359 C 0.2972 0.28693 0.94007 0.0
H1360 H 0.31132 0.19564 0.95581 0.0
C1361 C 0.30559 0.28826 0.90219 0.0
H1362 H 0.29204 0.25167 0.98813 0.0
C1363 C 0.31752 0.25638 0.88389 0.0
C1364 C 0.31935 0.22278 0.90302 0.0
H1365 H 0.30433 0.31415 0.88723 0.0
H1366 H 0.32592 0.25804 0.85519 0.0
C1367 C 0.30927 0.22124 0.94043 0.0
C1368 C 0.48476 0.52627 0.70441 0.0
C1369 C 0.45112 0.53957 0.69051 0.0
H1370 H 0.54403 0.53007 0.70265 0.0
C1371 C 0.45171 0.56816 0.66426 0.0
H1372 H 0.48504 0.50402 0.72442 0.0
C1373 C 0.48527 0.58335 0.65225 0.0
C1374 C 0.51893 0.56959 0.66551 0.0
H1375 H 0.42615 0.57891 0.6531 0.0
H1376 H 0.48491 0.60557 0.6322 0.0
C1377 C 0.51843 0.54086 0.69165 0.0
C1378 C 0.78083 0.20964 0.08573 0.0
C1379 C 0.79902 0.19387 0.05517 0.0
H1380 H 0.77857 0.25512 0.12424 0.0
C1381 C 0.83082 0.21151 0.0413 0.0
H1382 H 0.75639 0.1966 0.0973 0.0
C1383 C 0.84411 0.24433 0.05764 0.0
C1384 C 0.82526 0.26054 0.08746 0.0
H1385 H 0.8454 0.19999 0.0179 0.0
H1386 H 0.8686 0.25762 0.04626 0.0
C1387 C 0.79345 0.24307 0.10129 0.0
C1388 C 0.52796 0.09903 0.77513 0.0
C1389 C 0.53854 0.06194 0.77628 0.0
H1390 H 0.49438 0.14104 0.79864 0.0
C1391 C 0.52557 0.03905 0.80489 0.0
H1392 H 0.53801 0.11719 0.75347 0.0
C1393 C 0.49966 0.05224 0.83013 0.0
C1394 C 0.48738 0.08886 0.82778 0.0
H1395 H 0.53363 0.0103 0.80626 0.0
H1396 H 0.48787 0.03335 0.85023 0.0
C1397 C 0.50324 0.11264 0.80123 0.0
C1398 C 0.95299 0.89733 0.3104 0.0
C1399 C 0.94356 0.93461 0.31431 0.0
H1400 H 0.99102 0.855 0.32423 0.0
C1401 C 0.96407 0.95756 0.33865 0.0
H1402 H 0.93726 0.87903 0.2921 0.0
C1403 C -0.00457 0.94407 0.35663 0.0
C1404 C 0.00608 0.9072 0.35114 0.0
H1405 H 0.95713 0.98646 0.34215 0.0
H1406 H 0.01216 0.96283 0.37351 0.0
C1407 C 0.98362 0.88357 0.3291 0.0
C1408 C 0.43985 0.33475 0.20747 0.0
C1409 C 0.4314 0.29683 0.20218 0.0
H1410 H 0.43333 0.38298 0.24188 0.0
C1411 C 0.40684 0.27929 0.22667 0.0
H1412 H 0.45851 0.34913 0.18888 0.0
C1413 C 0.3926 0.2986 0.25688 0.0
C1414 C 0.40217 0.33606 0.26311 0.0
H1415 H 0.39954 0.25024 0.22327 0.0
H1416 H 0.37488 0.28385 0.27613 0.0
C1417 C 0.42516 0.35427 0.23756 0.0
C1418 C 0.44791 0.6821 0.95297 0.0
C1419 C 0.48657 0.68479 0.95833 0.0
H1420 H 0.39547 0.66598 0.97594 0.0
C1421 C 0.50222 0.66798 0.98955 0.0
H1422 H 0.43491 0.69447 0.92904 0.0
C1423 C 0.47963 0.65144 0.01616 0.0
C1424 C 0.44079 0.65147 0.01236 0.0
H1425 H 0.53185 0.669 0.99435 0.0
H1426 H 0.49262 0.64027 0.04072 0.0
C1427 C 0.42523 0.66561 0.97976 0.0
C1428 C 0.06163 0.70614 0.72811 0.0
C1429 C 0.06192 0.68241 0.69722 0.0
H1430 H 0.07419 0.71273 0.78567 0.0
C1431 C 0.07918 0.6478 0.70019 0.0
H1432 H 0.04887 0.73305 0.72666 0.0
C1433 C 0.0933 0.63603 0.73397 0.0
C1434 C 0.09088 0.65875 0.76535 0.0
H1435 H 0.08046 0.62895 0.67681 0.0
H1436 H 0.10502 0.60864 0.73574 0.0
C1437 C 0.07619 0.69447 0.76189 0.0
C1438 C 0.01752 0.32751 0.48181 0.0
C1439 C 0.04065 0.31897 0.45201 0.0
H1440 H 0.0144 0.34513 0.53839 0.0
C1441 C 0.07896 0.32555 0.45553 0.0
H1442 H 0.98788 0.32282 0.47978 0.0
C1443 C 0.09416 0.33856 0.48883 0.0
C1444 C 0.07139 0.34491 0.51952 0.0
H1445 H 0.09744 0.31964 0.43281 0.0
H1446 H 0.12394 0.34203 0.49095 0.0
C1447 C 0.03277 0.34026 0.51534 0.0
C1448 C 0.41123 0.66588 0.2909 0.0
C1449 C 0.41929 0.70401 0.29356 0.0
H1450 H 0.39437 0.62048 0.25625 0.0
C1451 C 0.41277 0.72661 0.2628 0.0
H1452 H 0.41553 0.64783 0.31436 0.0
C1453 C 0.40074 0.71083 0.22919 0.0
C1454 C 0.39484 0.67223 0.22594 0.0
H1455 H 0.4187 0.7561 0.26415 0.0
H1456 H 0.39761 0.72867 0.20539 0.0
C1457 C 0.39896 0.65019 0.25757 0.0
C1458 C 0.03819 0.68048 0.02326 0.0
C1459 C 0.06253 0.68385 0.05355 0.0
H1460 H 0.03137 0.66472 0.96655 0.0
C1461 C 0.0985 0.66963 0.05052 0.0
H1462 H 0.01022 0.69073 0.0248 0.0
C1463 C 0.11079 0.65511 0.01705 0.0
C1464 C 0.08725 0.6541 0.98606 0.0
H1465 H 0.11795 0.67137 0.07344 0.0
H1466 H 0.13914 0.64597 0.0151 0.0
C1467 C 0.05038 0.66553 0.98987 0.0
C1468 C 0.05544 0.29737 0.79308 0.0
C1469 C 0.0511 0.25878 0.78787 0.0
H1470 H 0.07385 0.34906 0.77009 0.0
C1471 C 0.06717 0.24231 0.75672 0.0
H1472 H 0.04371 0.31102 0.81696 0.0
C1473 C 0.08477 0.26414 0.7301 0.0
C1474 C 0.08646 0.30304 0.73379 0.0
H1475 H 0.06482 0.2127 0.75201 0.0
H1476 H 0.09538 0.25056 0.70563 0.0
C1477 C 0.07288 0.31928 0.76627 0.0
C1478 C 0.41682 0.31139 0.53716 0.0
C1479 C 0.45546 0.31584 0.54115 0.0
H1480 H 0.3685 0.32246 0.50452 0.0
C1481 C 0.47461 0.33829 0.51587 0.0
H1482 H 0.40114 0.29452 0.55641 0.0
C1483 C 0.45581 0.3544 0.48618 0.0
C1484 C 0.41741 0.3486 0.48123 0.0
H1485 H 0.50428 0.34253 0.51835 0.0
H1486 H 0.47163 0.37048 0.46638 0.0
C1487 C 0.39797 0.3277 0.50762 0.0
C1488 C 0.22544 0.41776 0.2641 0.0
C1489 C 0.19959 0.43941 0.28292 0.0
H1490 H 0.27571 0.38728 0.26776 0.0
C1491 C 0.20304 0.44381 0.32153 0.0
H1492 H 0.22338 0.4137 0.23442 0.0
C1493 C 0.23263 0.42817 0.34075 0.0
C1494 C 0.25963 0.40824 0.32163 0.0
H1495 H 0.18332 0.46006 0.33688 0.0
H1496 H 0.23536 0.43337 0.37022 0.0
C1497 C 0.2553 0.40254 0.28324 0.0
C1498 C 0.33767 0.47127 0.0118 0.0
C1499 C 0.32247 0.44342 0.03435 0.0
H1500 H 0.36191 0.52575 0.00941 0.0
C1501 C 0.32365 0.448 0.07296 0.0
H1502 H 0.33732 0.46835 0.98193 0.0
C1503 C 0.33802 0.48057 0.08872 0.0
C1504 C 0.35116 0.50951 0.06618 0.0
H1505 H 0.31255 0.42679 0.09106 0.0
H1506 H 0.33731 0.48363 0.11856 0.0
C1507 C 0.35178 0.50411 0.02756 0.0
C1508 C 0.28841 0.55565 0.81397 0.0
C1509 C 0.28571 0.55603 0.77501 0.0
H1510 H 0.26228 0.56867 0.86559 0.0
C1511 C 0.25642 0.57507 0.75842 0.0
H1512 H 0.31079 0.54143 0.82768 0.0
C1513 C 0.22894 0.59074 0.7801 0.0
C1514 C 0.22995 0.58771 0.81891 0.0
H1515 H 0.25372 0.57646 0.72857 0.0
H1516 H 0.2058 0.60366 0.76627 0.0
C1517 C 0.26074 0.57139 0.83577 0.0
C1518 C 0.15673 0.54697 0.60913 0.0
C1519 C 0.16455 0.55232 0.57133 0.0
H1520 H 0.14132 0.50848 0.65153 0.0
C1521 C 0.15803 0.52294 0.54644 0.0
H1522 H 0.16132 0.5691 0.62911 0.0
C1523 C 0.14625 0.48836 0.55928 0.0
C1524 C 0.1412 0.48218 0.59741 0.0
H1525 H 0.16329 0.52625 0.51713 0.0
H1526 H 0.14276 0.46602 0.53936 0.0
C1527 C 0.14534 0.51219 0.62207 0.0
C1528 C 0.1994 0.57187 0.1331 0.0
C1529 C 0.19375 0.56204 0.17037 0.0
H1530 H 0.23747 0.59195 0.09246 0.0
C1531 C 0.22221 0.56891 0.19622 0.0
H1532 H 0.17798 0.56717 0.11241 0.0
C1533 C 0.25621 0.5835 0.18476 0.0
C1534 C 0.26263 0.5911 0.14711 0.0
H1535 H 0.21861 0.56209 0.22516 0.0
H1536 H 0.27796 0.58733 0.20527 0.0
C1537 C 0.23353 0.58611 0.12158 0.0
C1538 C 0.19076 0.4576 0.9362 0.0
C1539 C 0.19011 0.46002 0.97516 0.0
H1540 H 0.17741 0.48378 0.8847 0.0
C1541 C 0.17062 0.48889 0.9919 0.0
H1542 H 0.20526 0.43548 0.92239 0.0
C1543 C 0.15448 0.51617 0.97032 0.0
C1544 C 0.15755 0.51533 0.93152 0.0
H1545 H 0.169 0.4913 0.02176 0.0
H1546 H 0.1411 0.539 0.9842 0.0
C1547 C 0.17456 0.48506 0.91452 0.0
C1548 C 0.28978 0.42108 0.6785 0.0
C1549 C 0.29289 0.42358 0.71722 0.0
H1550 H 0.25558 0.40702 0.63198 0.0
C1551 C 0.26351 0.41076 0.73918 0.0
H1552 H 0.3122 0.43033 0.66085 0.0
C1553 C 0.2308 0.3974 0.72256 0.0
C1554 C 0.22709 0.3965 0.68371 0.0
H1555 H 0.26529 0.4122 0.76911 0.0
H1556 H 0.20807 0.38889 0.74015 0.0
C1557 C 0.25733 0.40757 0.66193 0.0
C1558 C 0.2881 0.53921 0.42266 0.0
C1559 C 0.2913 0.54294 0.46136 0.0
H1560 H 0.30261 0.50824 0.37424 0.0
C1561 C 0.31427 0.51869 0.48078 0.0
H1562 H 0.27084 0.55771 0.40685 0.0
C1563 C 0.33249 0.49036 0.46206 0.0
C1564 C 0.32844 0.48594 0.42348 0.0
H1565 H 0.3175 0.52103 0.51055 0.0
H1566 H 0.34907 0.47131 0.47795 0.0
C1567 C 0.30665 0.51114 0.40387 0.0
C1568 C 0.26323 0.23672 0.40088 0.0
C1569 C 0.2776 0.21346 0.42825 0.0
H1570 H 0.27275 0.28338 0.36593 0.0
C1571 C 0.31561 0.21635 0.43716 0.0
H1572 H 0.23431 0.2348 0.39284 0.0
C1573 C 0.33782 0.24442 0.42164 0.0
C1574 C 0.32231 0.26979 0.39688 0.0
H1575 H 0.32758 0.19865 0.45804 0.0
H1576 H 0.3661 0.24807 0.43129 0.0
C1577 C 0.28536 0.26442 0.38527 0.0
C1578 C 0.83484 0.29405 0.54674 0.0
C1579 C 0.79605 0.29646 0.54929 0.0
H1580 H 0.88307 0.26209 0.55859 0.0
C1581 C 0.77645 0.26947 0.56927 0.0
H1582 H 0.85076 0.31471 0.53178 0.0
C1583 C 0.79495 0.23951 0.58454 0.0
C1584 C 0.83346 0.23604 0.58041 0.0
H1585 H 0.74665 0.27075 0.57199 0.0
H1586 H 0.77886 0.2183 0.59857 0.0
C1587 C 0.85345 0.26416 0.56236 0.0
C1588 C 0.47058 0.02587 0.31652 0.0
C1589 C 0.44 0.04915 0.32061 0.0
H1590 H 0.5285 0.01869 0.32678 0.0
C1591 C 0.44333 0.08025 0.34415 0.0
H1592 H 0.46888 0.00152 0.2989 0.0
C1593 C 0.47739 0.0901 0.3599 0.0
C1594 C 0.50877 0.0689 0.35283 0.0
H1595 H 0.42017 0.09841 0.34863 0.0
H1596 H 0.47965 0.11561 0.37578 0.0
C1597 C 0.50473 0.03562 0.33265 0.0
C1598 C 0.66406 0.70118 0.06392 0.0
C1599 C 0.70297 0.70008 0.06333 0.0
H1600 H 0.61605 0.73225 0.07725 0.0
C1601 C 0.7236 0.7295 0.07882 0.0
H1602 H 0.64738 0.67859 0.05257 0.0
C1603 C 0.70552 0.7604 0.09299 0.0
C1604 C 0.66655 0.76219 0.09203 0.0
H1605 H 0.75359 0.72919 0.0789 0.0
H1606 H 0.72214 0.78331 0.10376 0.0
C1607 C 0.64602 0.73184 0.07825 0.0
C1608 C 0.53291 0.44715 0.31586 0.0
C1609 C 0.53054 0.48611 0.31746 0.0
H1610 H 0.50625 0.39486 0.32695 0.0
C1611 C 0.50126 0.50189 0.33704 0.0
H1612 H 0.55531 0.43399 0.30127 0.0
C1613 C 0.47349 0.47939 0.35207 0.0
C1614 C 0.47411 0.44059 0.34762 0.0
H1615 H 0.49885 0.53168 0.33937 0.0
H1616 H 0.45039 0.49264 0.36547 0.0
C1617 C 0.5049 0.42459 0.33076 0.0
C1618 C 0.1662 0.79809 0.90057 0.0
C1619 C 0.19896 0.80178 0.92169 0.0
H1620 H 0.12786 0.7612 0.8733 0.0
C1621 C 0.22143 0.77064 0.92619 0.0
H1622 H 0.14844 0.82153 0.89594 0.0
C1623 C 0.20968 0.73597 0.91266 0.0
C1624 C 0.17514 0.73187 0.89478 0.0
H1625 H 0.24695 0.77254 0.94203 0.0
H1626 H 0.22641 0.71203 0.91855 0.0
C1627 C 0.15432 0.76349 0.8875 0.0
C1628 C 0.47326 0.96878 0.16704 0.0
C1629 C 0.44569 0.95043 0.18739 0.0
H1630 H 0.52515 0.96462 0.13944 0.0
C1631 C 0.44782 0.91182 0.19221 0.0
H1632 H 0.47222 -0.00161 0.1625 0.0
C1633 C 0.47809 0.89228 0.17861 0.0
C1634 C 0.50676 0.9112 0.16031 0.0
H1635 H 0.42672 0.89687 0.20752 0.0
H1636 H 0.48004 0.86293 0.18423 0.0
C1637 C 0.5035 0.94939 0.15374 0.0
C1638 C 0.0415 0.08066 0.68883 0.0
C1639 C 0.04331 0.0418 0.68629 0.0
H1640 H 0.00982 0.12918 0.67826 0.0
C1641 C 0.01459 0.02206 0.66849 0.0
H1642 H 0.06348 0.09667 0.70215 0.0
C1643 C 0.98382 0.04072 0.65489 0.0
C1644 C 0.98134 0.07949 0.65863 0.0
H1645 H 0.01537 0.99217 0.66596 0.0
H1646 H 0.96158 0.02463 0.6421 0.0
C1647 C 0.01089 0.09937 0.67497 0.0
loop_
_geom_bond_atom_site_label_1
_geom_bond_atom_site_label_2
_geom_bond_distance
_geom_bond_site_symmetry_2
_ccdc_geom_bond_type
Co0 O1 2.216 1_655 S
Co0 O2 2.091 . S
Co0 O4 2.004 . S
Co0 O10 2.021 1_655 S
Co0 O12 2.140 . S
Co0 O13 2.244 1_655 S
O1 Co0 2.216 1_455 S
O1 C8 1.247 1_455 S
O2 Co0 2.091 . S
O2 C8 1.261 . S
C3 O12 1.226 1_455 S
C3 O13 1.272 . S
O4 Co0 2.004 . S
O4 C9 1.259 . S
Co5 O6 2.061 . S
Co5 O11 2.052 . S
Co5 O13 2.135 . S
O6 Co5 2.061 . S
O6 C9 1.235 1_455 S
C7 O10 1.238 . S
C7 O11 1.241 . S
C8 O1 1.247 1_655 S
C8 O2 1.261 . S
C9 O4 1.259 . S
C9 O6 1.235 1_655 S
O10 Co0 2.021 1_455 S
O10 C7 1.238 . S
O11 Co5 2.052 . S
O11 C7 1.241 . S
O12 Co0 2.140 . S
O12 C3 1.226 1_655 S
O13 Co0 2.244 1_455 S
O13 C3 1.272 . S
O13 Co5 2.135 . S
Co14 O15 2.216 . S
Co14 O16 2.091 . S
Co14 O18 2.004 1_655 S
Co14 O24 2.021 1_655 S
Co14 O26 2.137 . S
Co14 O27 2.244 . S
O15 Co14 2.216 . S
O15 C22 1.247 . S
O16 Co14 2.091 . S
O16 C22 1.261 . S
C17 O26 1.247 . S
C17 O27 1.272 . S
O18 Co14 2.004 1_455 S
O18 C23 1.259 . S
Co19 O20 2.061 . S
Co19 O25 2.052 . S
Co19 O27 2.135 1_455 S
O20 Co19 2.061 . S
O20 C23 1.235 . S
C21 O24 1.238 . S
C21 O25 1.241 . S
C22 O15 1.247 . S
C22 O16 1.261 . S
C23 O18 1.259 . S
C23 O20 1.235 . S
O24 Co14 2.021 1_455 S
O24 C21 1.238 . S
O25 Co19 2.052 . S
O25 C21 1.241 . S
O26 Co14 2.137 . S
O26 C17 1.247 . S
O27 Co14 2.244 . S
O27 C17 1.272 . S
O27 Co19 2.135 1_655 S
Co28 O29 2.216 . S
Co28 O30 2.091 . S
Co28 O32 2.004 . S
Co28 O38 2.021 . S
Co28 O40 2.137 . S
Co28 O41 2.244 . S
O29 Co28 2.216 . S
O29 C36 1.247 . S
O30 Co28 2.091 . S
O30 C36 1.261 . S
C31 O40 1.247 . S
C31 O41 1.272 . S
O32 Co28 2.004 . S
O32 C37 1.259 . S
Co33 O34 2.061 . S
Co33 O39 2.052 . S
Co33 O41 2.135 . S
O34 Co33 2.061 . S
O34 C37 1.235 . S
C35 O38 1.238 . S
C35 O39 1.241 . S
C36 O29 1.247 . S
C36 O30 1.261 . S
C37 O32 1.259 . S
C37 O34 1.235 . S
O38 Co28 2.021 . S
O38 C35 1.238 . S
O39 Co33 2.052 . S
O39 C35 1.241 . S
O40 Co28 2.137 . S
O40 C31 1.247 . S
O41 Co28 2.244 . S
O41 C31 1.272 . S
O41 Co33 2.135 . S
Co42 O43 2.216 . S
Co42 O44 2.091 . S
Co42 O46 2.004 . S
Co42 O52 2.021 . S
Co42 O54 2.137 . S
Co42 O55 2.244 . S
O43 Co42 2.216 . S
O43 C50 1.247 . S
O44 Co42 2.091 . S
O44 C50 1.261 . S
C45 O54 1.247 . S
C45 O55 1.272 . S
O46 Co42 2.004 . S
O46 C51 1.259 . S
Co47 O48 2.061 . S
Co47 O53 2.052 . S
Co47 O55 2.135 . S
O48 Co47 2.061 . S
O48 C51 1.235 . S
C49 O52 1.238 . S
C49 O53 1.241 . S
C50 O43 1.247 . S
C50 O44 1.261 . S
C51 O46 1.259 . S
C51 O48 1.235 . S
O52 Co42 2.021 . S
O52 C49 1.238 . S
O53 Co47 2.052 . S
O53 C49 1.241 . S
O54 Co42 2.137 . S
O54 C45 1.247 . S
O55 Co42 2.244 . S
O55 C45 1.272 . S
O55 Co47 2.135 . S
Co56 O57 2.216 1_655 S
Co56 O58 2.091 . S
Co56 O60 2.004 . S
Co56 O66 2.021 1_655 S
Co56 O68 2.137 . S
Co56 O69 2.244 1_655 S
O57 Co56 2.216 1_455 S
O57 C64 1.247 1_455 S
O58 Co56 2.091 . S
O58 C64 1.261 . S
C59 O68 1.247 1_455 S
C59 O69 1.272 . S
O60 Co56 2.004 . S
O60 C65 1.259 . S
Co61 O62 2.061 . S
Co61 O67 2.052 . S
Co61 O69 2.135 . S
O62 Co61 2.061 . S
O62 C65 1.235 1_455 S
C63 O66 1.238 . S
C63 O67 1.241 . S
C64 O57 1.247 1_655 S
C64 O58 1.261 . S
C65 O60 1.259 . S
C65 O62 1.235 1_655 S
O66 Co56 2.021 1_455 S
O66 C63 1.238 . S
O67 Co61 2.052 . S
O67 C63 1.241 . S
O68 Co56 2.137 . S
O68 C59 1.247 1_655 S
O69 Co56 2.244 1_455 S
O69 C59 1.272 . S
O69 Co61 2.135 . S
Co70 O71 2.216 . S
Co70 O72 2.091 . S
Co70 O74 2.004 . S
Co70 O80 2.021 . S
Co70 O82 2.137 . S
Co70 O83 2.244 . S
O71 Co70 2.216 . S
O71 C78 1.247 . S
O72 Co70 2.091 . S
O72 C78 1.261 . S
C73 O82 1.247 . S
C73 O83 1.272 . S
O74 Co70 2.004 . S
O74 C79 1.259 . S
Co75 O76 2.061 . S
Co75 O81 2.052 . S
Co75 O83 2.135 . S
O76 Co75 2.061 . S
O76 C79 1.235 . S
C77 O80 1.238 . S
C77 O81 1.241 . S
C78 O71 1.247 . S
C78 O72 1.261 . S
C79 O74 1.259 . S
C79 O76 1.235 . S
O80 Co70 2.021 . S
O80 C77 1.238 . S
O81 Co75 2.052 . S
O81 C77 1.241 . S
O82 Co70 2.137 . S
O82 C73 1.247 . S
O83 Co70 2.244 . S
O83 C73 1.272 . S
O83 Co75 2.135 . S
Co84 O85 2.216 . S
Co84 O86 2.091 . S
Co84 O88 2.004 . S
Co84 O94 2.021 . S
Co84 O96 2.137 . S
Co84 O97 2.244 . S
O85 Co84 2.216 . S
O85 C92 1.247 . S
O86 Co84 2.091 . S
O86 C92 1.261 . S
C87 O96 1.247 . S
C87 O97 1.272 . S
O88 Co84 2.004 . S
O88 C93 1.259 . S
Co89 O90 2.061 . S
Co89 O95 2.052 . S
Co89 O97 2.135 . S
O90 Co89 2.061 . S
O90 C93 1.235 . S
C91 O94 1.238 . S
C91 O95 1.241 . S
C92 O85 1.247 . S
C92 O86 1.261 . S
C93 O88 1.259 . S
C93 O90 1.235 . S
O94 Co84 2.021 . S
O94 C91 1.238 . S
O95 Co89 2.052 . S
O95 C91 1.241 . S
O96 Co84 2.137 . S
O96 C87 1.247 . S
O97 Co84 2.244 . S
O97 C87 1.272 . S
O97 Co89 2.135 . S
Co98 O99 2.216 . S
Co98 O100 2.091 . S
Co98 O102 2.004 1_655 S
Co98 O108 2.021 1_655 S
Co98 O110 2.137 . S
Co98 O111 2.244 . S
O99 Co98 2.216 . S
O99 C106 1.247 . S
O100 Co98 2.091 . S
O100 C106 1.261 . S
C101 O110 1.247 . S
C101 O111 1.272 . S
O102 Co98 2.004 1_455 S
O102 C107 1.259 . S
Co103 O104 2.061 . S
Co103 O109 2.052 . S
Co103 O111 2.135 1_455 S
O104 Co103 2.061 . S
O104 C107 1.235 . S
C105 O108 1.238 . S
C105 O109 1.241 . S
C106 O99 1.247 . S
C106 O100 1.261 . S
C107 O102 1.259 . S
C107 O104 1.235 . S
O108 Co98 2.021 1_455 S
O108 C105 1.238 . S
O109 Co103 2.052 . S
O109 C105 1.241 . S
O110 Co98 2.137 . S
O110 C101 1.247 . S
O111 Co98 2.244 . S
O111 C101 1.272 . S
O111 Co103 2.135 1_655 S
Co112 O113 2.216 1_565 S
Co112 O114 2.091 . S
Co112 O116 2.004 . S
Co112 O122 2.021 1_565 S
Co112 O124 2.137 . S
Co112 O125 2.244 1_565 S
O113 Co112 2.216 1_545 S
O113 C120 1.247 1_545 S
O114 Co112 2.091 . S
O114 C120 1.261 . S
C115 O124 1.247 1_545 S
C115 O125 1.272 . S
O116 Co112 2.004 . S
O116 C121 1.259 . S
Co117 O118 2.061 . S
Co117 O123 2.052 . S
Co117 O125 2.135 . S
O118 Co117 2.061 . S
O118 C121 1.235 1_545 S
C119 O122 1.238 . S
C119 O123 1.241 . S
C120 O113 1.247 1_565 S
C120 O114 1.261 . S
C121 O116 1.259 . S
C121 O118 1.235 1_565 S
O122 Co112 2.021 1_545 S
O122 C119 1.238 . S
O123 Co117 2.052 . S
O123 C119 1.241 . S
O124 Co112 2.137 . S
O124 C115 1.247 1_565 S
O125 Co112 2.244 1_545 S
O125 C115 1.272 . S
O125 Co117 2.135 . S
Co126 O127 2.216 . S
Co126 O128 2.091 . S
Co126 O130 2.004 . S
Co126 O136 2.021 . S
Co126 O138 2.137 . S
Co126 O139 2.244 . S
O127 Co126 2.216 . S
O127 C134 1.247 . S
O128 Co126 2.091 . S
O128 C134 1.261 . S
C129 O138 1.247 . S
C129 O139 1.272 . S
O130 Co126 2.004 . S
O130 C135 1.259 . S
Co131 O132 2.061 . S
Co131 O137 2.052 . S
Co131 O139 2.135 . S
O132 Co131 2.061 . S
O132 C135 1.235 . S
C133 O136 1.238 . S
C133 O137 1.241 . S
C134 O127 1.247 . S
C134 O128 1.261 . S
C135 O130 1.259 . S
C135 O132 1.235 . S
O136 Co126 2.021 . S
O136 C133 1.238 . S
O137 Co131 2.052 . S
O137 C133 1.241 . S
O138 Co126 2.137 . S
O138 C129 1.247 . S
O139 Co126 2.244 . S
O139 C129 1.272 . S
O139 Co131 2.135 . S
Co140 O141 2.216 1_565 S
Co140 O142 2.091 . S
Co140 O144 2.004 . S
Co140 O150 2.021 1_565 S
Co140 O152 2.137 . S
Co140 O153 2.244 1_565 S
O141 Co140 2.216 1_545 S
O141 C148 1.247 1_545 S
O142 Co140 2.091 . S
O142 C148 1.261 . S
C143 O152 1.247 1_545 S
C143 O153 1.272 . S
O144 Co140 2.004 . S
O144 C149 1.259 . S
Co145 O146 2.061 . S
Co145 O151 2.052 . S
Co145 O153 2.135 . S
O146 Co145 2.061 . S
O146 C149 1.235 1_545 S
C147 O150 1.238 . S
C147 O151 1.241 . S
C148 O141 1.247 1_565 S
C148 O142 1.261 . S
C149 O144 1.259 . S
C149 O146 1.235 1_565 S
O150 Co140 2.021 1_545 S
O150 C147 1.238 . S
O151 Co145 2.052 . S
O151 C147 1.241 . S
O152 Co140 2.137 . S
O152 C143 1.247 1_565 S
O153 Co140 2.244 1_545 S
O153 C143 1.272 . S
O153 Co145 2.135 . S
Co154 O155 2.216 . S
Co154 O156 2.091 . S
Co154 O158 2.004 1_554 S
Co154 O164 2.021 1_554 S
Co154 O166 2.137 . S
Co154 O167 2.244 . S
O155 Co154 2.216 . S
O155 C162 1.247 . S
O156 Co154 2.091 . S
O156 C162 1.261 . S
C157 O166 1.247 . S
C157 O167 1.272 . S
O158 Co154 2.004 1_556 S
O158 C163 1.259 . S
Co159 O160 2.061 . S
Co159 O165 2.052 . S
Co159 O167 2.135 1_556 S
O160 Co159 2.061 . S
O160 C163 1.235 . S
C161 O164 1.238 . S
C161 O165 1.241 . S
C162 O155 1.247 . S
C162 O156 1.261 . S
C163 O158 1.259 . S
C163 O160 1.235 . S
O164 Co154 2.021 1_556 S
O164 C161 1.238 . S
O165 Co159 2.052 . S
O165 C161 1.241 . S
O166 Co154 2.137 . S
O166 C157 1.247 . S
O167 Co154 2.244 . S
O167 C157 1.272 . S
O167 Co159 2.135 1_554 S
Co168 O169 2.216 1_556 S
Co168 O170 2.091 . S
Co168 O172 2.004 . S
Co168 O178 2.021 1_556 S
Co168 O180 2.137 . S
Co168 O181 2.244 1_556 S
O169 Co168 2.216 1_554 S
O169 C176 1.247 1_554 S
O170 Co168 2.091 . S
O170 C176 1.261 . S
C171 O180 1.247 1_554 S
C171 O181 1.272 . S
O172 Co168 2.004 . S
O172 C177 1.259 . S
Co173 O174 2.061 . S
Co173 O179 2.052 . S
Co173 O181 2.135 . S
O174 Co173 2.061 . S
O174 C177 1.235 1_554 S
C175 O178 1.238 . S
C175 O179 1.241 . S
C176 O169 1.247 1_556 S
C176 O170 1.261 . S
C177 O172 1.259 . S
C177 O174 1.235 1_556 S
O178 Co168 2.021 1_554 S
O178 C175 1.238 . S
O179 Co173 2.052 . S
O179 C175 1.241 . S
O180 Co168 2.137 . S
O180 C171 1.247 1_556 S
O181 Co168 2.244 1_554 S
O181 C171 1.272 . S
O181 Co173 2.135 . S
Co182 O183 2.216 1_556 S
Co182 O184 2.091 . S
Co182 O186 2.004 . S
Co182 O192 2.021 1_556 S
Co182 O194 2.137 . S
Co182 O195 2.244 1_556 S
O183 Co182 2.216 1_554 S
O183 C190 1.247 1_554 S
O184 Co182 2.091 . S
O184 C190 1.261 . S
C185 O194 1.247 1_554 S
C185 O195 1.272 . S
O186 Co182 2.004 . S
O186 C191 1.259 . S
Co187 O188 2.061 . S
Co187 O193 2.052 . S
Co187 O195 2.135 . S
O188 Co187 2.061 . S
O188 C191 1.235 1_554 S
C189 O192 1.238 . S
C189 O193 1.241 . S
C190 O183 1.247 1_556 S
C190 O184 1.261 . S
C191 O186 1.259 . S
C191 O188 1.235 1_556 S
O192 Co182 2.021 1_554 S
O192 C189 1.238 . S
O193 Co187 2.052 . S
O193 C189 1.241 . S
O194 Co182 2.137 . S
O194 C185 1.247 1_556 S
O195 Co182 2.244 1_554 S
O195 C185 1.272 . S
O195 Co187 2.135 . S
Co196 O197 2.216 . S
Co196 O198 2.091 . S
Co196 O200 2.004 . S
Co196 O206 2.021 . S
Co196 O208 2.137 . S
Co196 O209 2.244 . S
O197 Co196 2.216 . S
O197 C204 1.247 . S
O198 Co196 2.091 . S
O198 C204 1.261 . S
C199 O208 1.247 . S
C199 O209 1.272 . S
O200 Co196 2.004 . S
O200 C205 1.259 . S
Co201 O202 2.061 . S
Co201 O207 2.052 . S
Co201 O209 2.135 . S
O202 Co201 2.061 . S
O202 C205 1.235 . S
C203 O206 1.238 . S
C203 O207 1.241 . S
C204 O197 1.247 . S
C204 O198 1.261 . S
C205 O200 1.259 . S
C205 O202 1.235 . S
O206 Co196 2.021 . S
O206 C203 1.238 . S
O207 Co201 2.052 . S
O207 C203 1.241 . S
O208 Co196 2.137 . S
O208 C199 1.247 . S
O209 Co196 2.244 . S
O209 C199 1.272 . S
O209 Co201 2.135 . S
Co210 O211 2.216 . S
Co210 O212 2.091 . S
Co210 O214 2.004 . S
Co210 O220 2.021 . S
Co210 O222 2.137 . S
Co210 O223 2.244 . S
O211 Co210 2.216 . S
O211 C218 1.247 . S
O212 Co210 2.091 . S
O212 C218 1.261 . S
C213 O222 1.247 . S
C213 O223 1.272 . S
O214 Co210 2.004 . S
O214 C219 1.259 . S
Co215 O216 2.061 . S
Co215 O221 2.052 . S
Co215 O223 2.135 . S
O216 Co215 2.061 . S
O216 C219 1.235 . S
C217 O220 1.238 . S
C217 O221 1.241 . S
C218 O211 1.247 . S
C218 O212 1.261 . S
C219 O214 1.259 . S
C219 O216 1.235 . S
O220 Co210 2.021 . S
O220 C217 1.238 . S
O221 Co215 2.052 . S
O221 C217 1.241 . S
O222 Co210 2.137 . S
O222 C213 1.247 . S
O223 Co210 2.244 . S
O223 C213 1.272 . S
O223 Co215 2.135 . S
Co224 O225 2.198 1_545 S
Co224 O226 2.081 1_545 S
Co224 O228 2.021 . S
Co224 O234 2.041 . S
Co224 O236 2.117 1_545 S
Co224 O237 2.241 1_545 S
O225 Co224 2.198 1_565 S
O225 C232 1.247 . S
O226 Co224 2.081 1_565 S
O226 C232 1.261 . S
C227 O236 1.247 . S
C227 O237 1.272 . S
O228 Co224 2.021 . S
O228 C233 1.259 . S
Co229 O230 2.061 . S
Co229 O235 2.052 . S
Co229 O237 2.135 1_545 S
O230 Co229 2.061 . S
O230 C233 1.235 . S
C231 O234 1.238 . S
C231 O235 1.241 . S
C232 O225 1.247 . S
C232 O226 1.261 . S
C233 O228 1.259 . S
C233 O230 1.235 . S
O234 Co224 2.041 . S
O234 C231 1.238 . S
O235 Co229 2.052 . S
O235 C231 1.241 . S
O236 Co224 2.117 1_565 S
O236 C227 1.247 . S
O237 Co224 2.241 1_565 S
O237 C227 1.272 . S
O237 Co229 2.135 1_565 S
Co238 O239 2.216 . S
Co238 O240 2.091 . S
Co238 O242 2.004 . S
Co238 O248 2.021 . S
Co238 O250 2.137 . S
Co238 O251 2.244 . S
O239 Co238 2.216 . S
O239 C246 1.247 . S
O240 Co238 2.091 . S
O240 C246 1.261 . S
C241 O250 1.247 . S
C241 O251 1.272 . S
O242 Co238 2.004 . S
O242 C247 1.259 . S
Co243 O244 2.061 . S
Co243 O249 2.052 . S
Co243 O251 2.135 . S
O244 Co243 2.061 . S
O244 C247 1.235 . S
C245 O248 1.238 . S
C245 O249 1.241 . S
C246 O239 1.247 . S
C246 O240 1.261 . S
C247 O242 1.259 . S
C247 O244 1.235 . S
O248 Co238 2.021 . S
O248 C245 1.238 . S
O249 Co243 2.052 . S
O249 C245 1.241 . S
O250 Co238 2.137 . S
O250 C241 1.247 . S
O251 Co238 2.244 . S
O251 C241 1.272 . S
O251 Co243 2.135 . S
Co252 O253 2.216 . S
Co252 O254 2.091 . S
Co252 O256 2.004 . S
Co252 O262 2.021 . S
Co252 O264 2.137 . S
Co252 O265 2.244 . S
O253 Co252 2.216 . S
O253 C260 1.247 . S
O254 Co252 2.091 . S
O254 C260 1.261 . S
C255 O264 1.247 . S
C255 O265 1.272 . S
O256 Co252 2.004 . S
O256 C261 1.259 . S
Co257 O258 2.061 . S
Co257 O263 2.052 . S
Co257 O265 2.135 . S
O258 Co257 2.061 . S
O258 C261 1.235 . S
C259 O262 1.238 . S
C259 O263 1.241 . S
C260 O253 1.247 . S
C260 O254 1.261 . S
C261 O256 1.259 . S
C261 O258 1.235 . S
O262 Co252 2.021 . S
O262 C259 1.238 . S
O263 Co257 2.052 . S
O263 C259 1.241 . S
O264 Co252 2.137 . S
O264 C255 1.247 . S
O265 Co252 2.244 . S
O265 C255 1.272 . S
O265 Co257 2.135 . S
Co266 O267 2.216 . S
Co266 O268 2.091 . S
Co266 O270 2.004 1_565 S
Co266 O276 2.021 1_565 S
Co266 O278 2.137 . S
Co266 O279 2.244 . S
O267 Co266 2.216 . S
O267 C274 1.247 . S
O268 Co266 2.091 . S
O268 C274 1.261 . S
C269 O278 1.247 . S
C269 O279 1.272 . S
O270 Co266 2.004 1_545 S
O270 C275 1.259 . S
Co271 O272 2.061 . S
Co271 O277 2.052 . S
Co271 O279 2.135 1_545 S
O272 Co271 2.061 . S
O272 C275 1.235 . S
C273 O276 1.238 . S
C273 O277 1.241 . S
C274 O267 1.247 . S
C274 O268 1.261 . S
C275 O270 1.259 . S
C275 O272 1.235 . S
O276 Co266 2.021 1_545 S
O276 C273 1.238 . S
O277 Co271 2.052 . S
O277 C273 1.241 . S
O278 Co266 2.137 . S
O278 C269 1.247 . S
O279 Co266 2.244 . S
O279 C269 1.272 . S
O279 Co271 2.135 1_565 S
Co280 O281 2.216 . S
Co280 O282 2.091 . S
Co280 O284 2.004 1_554 S
Co280 O290 2.021 1_554 S
Co280 O292 2.137 . S
Co280 O293 2.244 . S
O281 Co280 2.216 . S
O281 C288 1.247 . S
O282 Co280 2.091 . S
O282 C288 1.261 . S
C283 O292 1.247 . S
C283 O293 1.272 . S
O284 Co280 2.004 1_556 S
O284 C289 1.259 . S
Co285 O286 2.061 . S
Co285 O291 2.052 . S
Co285 O293 2.135 1_556 S
O286 Co285 2.061 . S
O286 C289 1.235 . S
C287 O290 1.238 . S
C287 O291 1.241 . S
C288 O281 1.247 . S
C288 O282 1.261 . S
C289 O284 1.259 . S
C289 O286 1.235 . S
O290 Co280 2.021 1_556 S
O290 C287 1.238 . S
O291 Co285 2.052 . S
O291 C287 1.241 . S
O292 Co280 2.137 . S
O292 C283 1.247 . S
O293 Co280 2.244 . S
O293 C283 1.272 . S
O293 Co285 2.135 1_554 S
Co294 O295 2.216 . S
Co294 O296 2.091 . S
Co294 O298 2.004 . S
Co294 O304 2.021 . S
Co294 O306 2.137 . S
Co294 O307 2.244 . S
O295 Co294 2.216 . S
O295 C302 1.247 . S
O296 Co294 2.091 . S
O296 C302 1.261 . S
C297 O306 1.247 . S
C297 O307 1.272 . S
O298 Co294 2.004 . S
O298 C303 1.259 . S
Co299 O300 2.061 . S
Co299 O305 2.052 . S
Co299 O307 2.135 . S
O300 Co299 2.061 . S
O300 C303 1.235 . S
C301 O304 1.238 . S
C301 O305 1.241 . S
C302 O295 1.247 . S
C302 O296 1.261 . S
C303 O298 1.259 . S
C303 O300 1.235 . S
O304 Co294 2.021 . S
O304 C301 1.238 . S
O305 Co299 2.052 . S
O305 C301 1.241 . S
O306 Co294 2.137 . S
O306 C297 1.247 . S
O307 Co294 2.244 . S
O307 C297 1.272 . S
O307 Co299 2.135 . S
Co308 O309 2.216 . S
Co308 O310 2.091 . S
Co308 O312 2.004 . S
Co308 O318 2.021 . S
Co308 O320 2.137 . S
Co308 O321 2.244 . S
O309 Co308 2.216 . S
O309 C316 1.247 . S
O310 Co308 2.091 . S
O310 C316 1.261 . S
C311 O320 1.247 . S
C311 O321 1.272 . S
O312 Co308 2.004 . S
O312 C317 1.259 . S
Co313 O314 2.061 . S
Co313 O319 2.052 . S
Co313 O321 2.135 . S
O314 Co313 2.061 . S
O314 C317 1.235 . S
C315 O318 1.238 . S
C315 O319 1.241 . S
C316 O309 1.247 . S
C316 O310 1.261 . S
C317 O312 1.259 . S
C317 O314 1.235 . S
O318 Co308 2.021 . S
O318 C315 1.238 . S
O319 Co313 2.052 . S
O319 C315 1.241 . S
O320 Co308 2.137 . S
O320 C311 1.247 . S
O321 Co308 2.244 . S
O321 C311 1.272 . S
O321 Co313 2.135 . S
Co322 O323 2.216 . S
Co322 O324 2.091 . S
Co322 O326 2.004 . S
Co322 O332 2.021 . S
Co322 O334 2.137 . S
Co322 O335 2.244 . S
O323 Co322 2.216 . S
O323 C330 1.247 . S
O324 Co322 2.091 . S
O324 C330 1.261 . S
C325 O334 1.247 . S
C325 O335 1.272 . S
O326 Co322 2.004 . S
O326 C331 1.259 . S
Co327 O328 2.061 . S
Co327 O333 2.052 . S
Co327 O335 2.135 . S
O328 Co327 2.061 . S
O328 C331 1.235 . S
C329 O332 1.238 . S
C329 O333 1.241 . S
C330 O323 1.247 . S
C330 O324 1.261 . S
C331 O326 1.259 . S
C331 O328 1.235 . S
O332 Co322 2.021 . S
O332 C329 1.238 . S
O333 Co327 2.052 . S
O333 C329 1.241 . S
O334 Co322 2.137 . S
O334 C325 1.247 . S
O335 Co322 2.244 . S
O335 C325 1.272 . S
O335 Co327 2.135 . S
Fe336 O338 1.918 . S
Fe336 O341 1.997 . S
Fe336 O342 2.002 . S
Fe336 O347 1.976 . S
Fe336 O350 1.996 . S
Fe337 O338 1.918 . S
Fe337 O345 1.997 . S
Fe337 O348 1.996 . S
Fe337 O352 1.976 . S
Fe337 O355 2.002 . S
O338 Fe336 1.918 . S
O338 Fe337 1.918 . S
O338 Fe339 1.918 . S
Fe339 O338 1.918 . S
Fe339 O340 2.002 . S
Fe339 O349 1.976 . S
Fe339 O353 1.996 . S
Fe339 O356 1.997 . S
O340 Fe339 2.002 . S
O340 C357 1.295 . S
O341 Fe336 1.997 . S
O341 C357 1.235 . S
O342 Fe336 2.002 . S
O342 C343 1.295 . S
C343 O342 1.295 . S
C343 O345 1.235 . S
C344 O349 1.287 . S
C344 O350 1.255 . S
O345 Fe337 1.997 . S
O345 C343 1.235 . S
C346 O352 1.287 . S
C346 O353 1.255 . S
O347 Fe336 1.976 . S
O347 C354 1.287 . S
O348 Fe337 1.996 . S
O348 C354 1.255 . S
O349 Fe339 1.976 . S
O349 C344 1.287 . S
O350 Fe336 1.996 . S
O350 C344 1.255 . S
C351 O355 1.295 . S
C351 O356 1.235 . S
O352 Fe337 1.976 . S
O352 C346 1.287 . S
O353 Fe339 1.996 . S
O353 C346 1.255 . S
C354 O347 1.287 . S
C354 O348 1.255 . S
O355 Fe337 2.002 . S
O355 C351 1.295 . S
O356 Fe339 1.997 . S
O356 C351 1.235 . S
C357 O340 1.295 . S
C357 O341 1.235 . S
Fe358 O360 1.918 . S
Fe358 O363 1.997 . S
Fe358 O364 2.002 . S
Fe358 O369 1.976 . S
Fe358 O372 1.996 . S
Fe359 O360 1.918 . S
Fe359 O367 1.997 . S
Fe359 O370 1.996 . S
Fe359 O374 1.976 . S
Fe359 O377 2.002 . S
O360 Fe358 1.918 . S
O360 Fe359 1.918 . S
O360 Fe361 1.918 . S
Fe361 O360 1.918 . S
Fe361 O362 2.002 . S
Fe361 O371 1.976 . S
Fe361 O375 1.996 . S
Fe361 O378 1.997 . S
O362 Fe361 2.002 . S
O362 C379 1.295 . S
O363 Fe358 1.997 . S
O363 C379 1.235 . S
O364 Fe358 2.002 . S
O364 C365 1.295 . S
C365 O364 1.295 . S
C365 O367 1.235 . S
C366 O371 1.287 . S
C366 O372 1.255 . S
O367 Fe359 1.997 . S
O367 C365 1.235 . S
C368 O374 1.287 . S
C368 O375 1.255 . S
O369 Fe358 1.976 . S
O369 C376 1.287 . S
O370 Fe359 1.996 . S
O370 C376 1.255 . S
O371 Fe361 1.976 . S
O371 C366 1.287 . S
O372 Fe358 1.996 . S
O372 C366 1.255 . S
C373 O377 1.295 . S
C373 O378 1.235 . S
O374 Fe359 1.976 . S
O374 C368 1.287 . S
O375 Fe361 1.996 . S
O375 C368 1.255 . S
C376 O369 1.287 . S
C376 O370 1.255 . S
O377 Fe359 2.002 . S
O377 C373 1.295 . S
O378 Fe361 1.997 . S
O378 C373 1.235 . S
C379 O362 1.295 . S
C379 O363 1.235 . S
Fe380 O382 1.918 . S
Fe380 O385 1.997 . S
Fe380 O386 2.002 . S
Fe380 O391 1.976 . S
Fe380 O394 1.996 . S
Fe381 O382 1.918 . S
Fe381 O389 1.997 . S
Fe381 O392 1.996 . S
Fe381 O396 1.976 . S
Fe381 O399 2.002 . S
O382 Fe380 1.918 . S
O382 Fe381 1.918 . S
O382 Fe383 1.918 . S
Fe383 O382 1.918 . S
Fe383 O384 2.002 . S
Fe383 O393 1.976 . S
Fe383 O397 1.996 . S
Fe383 O400 1.997 . S
O384 Fe383 2.002 . S
O384 C401 1.295 . S
O385 Fe380 1.997 . S
O385 C401 1.235 . S
O386 Fe380 2.002 . S
O386 C387 1.295 . S
C387 O386 1.295 . S
C387 O389 1.235 . S
C388 O393 1.287 . S
C388 O394 1.255 . S
O389 Fe381 1.997 . S
O389 C387 1.235 . S
C390 O396 1.287 . S
C390 O397 1.255 . S
O391 Fe380 1.976 . S
O391 C398 1.287 . S
O392 Fe381 1.996 . S
O392 C398 1.255 . S
O393 Fe383 1.976 . S
O393 C388 1.287 . S
O394 Fe380 1.996 . S
O394 C388 1.255 . S
C395 O399 1.295 . S
C395 O400 1.235 . S
O396 Fe381 1.976 . S
O396 C390 1.287 . S
O397 Fe383 1.996 . S
O397 C390 1.255 . S
C398 O391 1.287 . S
C398 O392 1.255 . S
O399 Fe381 2.002 . S
O399 C395 1.295 . S
O400 Fe383 1.997 . S
O400 C395 1.235 . S
C401 O384 1.295 . S
C401 O385 1.235 . S
Fe402 O404 1.918 . S
Fe402 O407 1.997 . S
Fe402 O408 2.002 . S
Fe402 O413 1.976 . S
Fe402 O416 1.996 . S
Fe403 O404 1.918 . S
Fe403 O411 1.997 . S
Fe403 O414 1.996 . S
Fe403 O418 1.976 . S
Fe403 O421 2.002 . S
O404 Fe402 1.918 . S
O404 Fe403 1.918 . S
O404 Fe405 1.918 . S
Fe405 O404 1.918 . S
Fe405 O406 2.002 . S
Fe405 O415 1.976 . S
Fe405 O419 1.996 . S
Fe405 O422 1.997 . S
O406 Fe405 2.002 . S
O406 C423 1.295 . S
O407 Fe402 1.997 . S
O407 C423 1.235 . S
O408 Fe402 2.002 . S
O408 C409 1.295 . S
C409 O408 1.295 . S
C409 O411 1.235 . S
C410 O415 1.287 . S
C410 O416 1.255 . S
O411 Fe403 1.997 . S
O411 C409 1.235 . S
C412 O418 1.287 . S
C412 O419 1.255 . S
O413 Fe402 1.976 . S
O413 C420 1.287 . S
O414 Fe403 1.996 . S
O414 C420 1.255 . S
O415 Fe405 1.976 . S
O415 C410 1.287 . S
O416 Fe402 1.996 . S
O416 C410 1.255 . S
C417 O421 1.295 . S
C417 O422 1.235 . S
O418 Fe403 1.976 . S
O418 C412 1.287 . S
O419 Fe405 1.996 . S
O419 C412 1.255 . S
C420 O413 1.287 . S
C420 O414 1.255 . S
O421 Fe403 2.002 . S
O421 C417 1.295 . S
O422 Fe405 1.997 . S
O422 C417 1.235 . S
C423 O406 1.295 . S
C423 O407 1.235 . S
Fe424 O426 1.918 . S
Fe424 O429 1.997 . S
Fe424 O430 2.002 . S
Fe424 O435 1.976 . S
Fe424 O438 1.996 . S
Fe425 O426 1.918 . S
Fe425 O433 1.997 . S
Fe425 O436 1.996 . S
Fe425 O440 1.976 . S
Fe425 O443 2.002 . S
O426 Fe424 1.918 . S
O426 Fe425 1.918 . S
O426 Fe427 1.918 . S
Fe427 O426 1.918 . S
Fe427 O428 2.002 . S
Fe427 O437 1.976 . S
Fe427 O441 1.996 . S
Fe427 O444 1.997 . S
O428 Fe427 2.002 . S
O428 C445 1.295 . S
O429 Fe424 1.997 . S
O429 C445 1.235 . S
O430 Fe424 2.002 . S
O430 C431 1.295 . S
C431 O430 1.295 . S
C431 O433 1.235 . S
C432 O437 1.287 . S
C432 O438 1.255 . S
O433 Fe425 1.997 . S
O433 C431 1.235 . S
C434 O440 1.287 . S
C434 O441 1.255 . S
O435 Fe424 1.976 . S
O435 C442 1.287 . S
O436 Fe425 1.996 . S
O436 C442 1.255 . S
O437 Fe427 1.976 . S
O437 C432 1.287 . S
O438 Fe424 1.996 . S
O438 C432 1.255 . S
C439 O443 1.295 . S
C439 O444 1.235 . S
O440 Fe425 1.976 . S
O440 C434 1.287 . S
O441 Fe427 1.996 . S
O441 C434 1.255 . S
C442 O435 1.287 . S
C442 O436 1.255 . S
O443 Fe425 2.002 . S
O443 C439 1.295 . S
O444 Fe427 1.997 . S
O444 C439 1.235 . S
C445 O428 1.295 . S
C445 O429 1.235 . S
Fe446 O448 1.918 . S
Fe446 O451 1.997 . S
Fe446 O452 2.002 . S
Fe446 O457 1.976 . S
Fe446 O460 1.996 . S
Fe447 O448 1.918 . S
Fe447 O455 1.997 . S
Fe447 O458 1.996 . S
Fe447 O462 1.976 . S
Fe447 O465 2.002 . S
O448 Fe446 1.918 . S
O448 Fe447 1.918 . S
O448 Fe449 1.918 . S
Fe449 O448 1.918 . S
Fe449 O450 2.002 . S
Fe449 O459 1.976 . S
Fe449 O463 1.996 . S
Fe449 O466 1.997 . S
O450 Fe449 2.002 . S
O450 C467 1.295 . S
O451 Fe446 1.997 . S
O451 C467 1.235 . S
O452 Fe446 2.002 . S
O452 C453 1.295 . S
C453 O452 1.295 . S
C453 O455 1.235 . S
C454 O459 1.287 . S
C454 O460 1.255 . S
O455 Fe447 1.997 . S
O455 C453 1.235 . S
C456 O462 1.287 . S
C456 O463 1.255 . S
O457 Fe446 1.976 . S
O457 C464 1.287 . S
O458 Fe447 1.996 . S
O458 C464 1.255 . S
O459 Fe449 1.976 . S
O459 C454 1.287 . S
O460 Fe446 1.996 . S
O460 C454 1.255 . S
C461 O465 1.295 . S
C461 O466 1.235 . S
O462 Fe447 1.976 . S
O462 C456 1.287 . S
O463 Fe449 1.996 . S
O463 C456 1.255 . S
C464 O457 1.287 . S
C464 O458 1.255 . S
O465 Fe447 2.002 . S
O465 C461 1.295 . S
O466 Fe449 1.997 . S
O466 C461 1.235 . S
C467 O450 1.295 . S
C467 O451 1.235 . S
Fe468 O470 1.918 . S
Fe468 O473 1.997 . S
Fe468 O474 2.002 . S
Fe468 O479 1.976 . S
Fe468 O482 1.996 . S
Fe469 O470 1.918 . S
Fe469 O477 1.997 . S
Fe469 O480 1.996 . S
Fe469 O484 1.976 . S
Fe469 O487 2.002 . S
O470 Fe468 1.918 . S
O470 Fe469 1.918 . S
O470 Fe471 1.918 . S
Fe471 O470 1.918 . S
Fe471 O472 2.002 . S
Fe471 O481 1.976 . S
Fe471 O485 1.996 . S
Fe471 O488 1.997 . S
O472 Fe471 2.002 . S
O472 C489 1.295 . S
O473 Fe468 1.997 . S
O473 C489 1.235 . S
O474 Fe468 2.002 . S
O474 C475 1.295 . S
C475 O474 1.295 . S
C475 O477 1.235 . S
C476 O481 1.287 . S
C476 O482 1.255 . S
O477 Fe469 1.997 . S
O477 C475 1.235 . S
C478 O484 1.287 . S
C478 O485 1.255 . S
O479 Fe468 1.976 . S
O479 C486 1.287 . S
O480 Fe469 1.996 . S
O480 C486 1.255 . S
O481 Fe471 1.976 . S
O481 C476 1.287 . S
O482 Fe468 1.996 . S
O482 C476 1.255 . S
C483 O487 1.295 . S
C483 O488 1.235 . S
O484 Fe469 1.976 . S
O484 C478 1.287 . S
O485 Fe471 1.996 . S
O485 C478 1.255 . S
C486 O479 1.287 . S
C486 O480 1.255 . S
O487 Fe469 2.002 . S
O487 C483 1.295 . S
O488 Fe471 1.997 . S
O488 C483 1.235 . S
C489 O472 1.295 . S
C489 O473 1.235 . S
Fe490 O492 1.918 . S
Fe490 O495 1.997 . S
Fe490 O496 2.002 . S
Fe490 O501 1.976 . S
Fe490 O504 1.996 . S
Fe491 O492 1.918 . S
Fe491 O499 1.997 . S
Fe491 O502 1.996 . S
Fe491 O506 1.976 . S
Fe491 O509 2.002 . S
O492 Fe490 1.918 . S
O492 Fe491 1.918 . S
O492 Fe493 1.918 . S
Fe493 O492 1.918 . S
Fe493 O494 2.002 . S
Fe493 O503 1.976 . S
Fe493 O507 1.996 . S
Fe493 O510 1.997 . S
O494 Fe493 2.002 . S
O494 C511 1.295 . S
O495 Fe490 1.997 . S
O495 C511 1.235 . S
O496 Fe490 2.002 . S
O496 C497 1.295 . S
C497 O496 1.295 . S
C497 O499 1.235 . S
C498 O503 1.287 . S
C498 O504 1.255 . S
O499 Fe491 1.997 . S
O499 C497 1.235 . S
C500 O506 1.287 . S
C500 O507 1.255 . S
O501 Fe490 1.976 . S
O501 C508 1.287 . S
O502 Fe491 1.996 . S
O502 C508 1.255 . S
O503 Fe493 1.976 . S
O503 C498 1.287 . S
O504 Fe490 1.996 . S
O504 C498 1.255 . S
C505 O509 1.295 . S
C505 O510 1.235 . S
O506 Fe491 1.976 . S
O506 C500 1.287 . S
O507 Fe493 1.996 . S
O507 C500 1.255 . S
C508 O501 1.287 . S
C508 O502 1.255 . S
O509 Fe491 2.002 . S
O509 C505 1.295 . S
O510 Fe493 1.997 . S
O510 C505 1.235 . S
C511 O494 1.295 . S
C511 O495 1.235 . S
Fe512 O514 1.918 . S
Fe512 O517 1.997 . S
Fe512 O518 2.002 . S
Fe512 O523 1.976 . S
Fe512 O526 1.996 . S
Fe513 O514 1.918 . S
Fe513 O521 1.997 . S
Fe513 O524 1.996 . S
Fe513 O528 1.976 . S
Fe513 O531 2.002 . S
O514 Fe512 1.918 . S
O514 Fe513 1.918 . S
O514 Fe515 1.918 . S
Fe515 O514 1.918 . S
Fe515 O516 2.002 . S
Fe515 O525 1.976 . S
Fe515 O529 1.996 . S
Fe515 O532 1.997 . S
O516 Fe515 2.002 . S
O516 C533 1.295 . S
O517 Fe512 1.997 . S
O517 C533 1.235 . S
O518 Fe512 2.002 . S
O518 C519 1.295 . S
C519 O518 1.295 . S
C519 O521 1.235 . S
C520 O525 1.287 . S
C520 O526 1.255 . S
O521 Fe513 1.997 . S
O521 C519 1.235 . S
C522 O528 1.287 . S
C522 O529 1.255 . S
O523 Fe512 1.976 . S
O523 C530 1.287 . S
O524 Fe513 1.996 . S
O524 C530 1.255 . S
O525 Fe515 1.976 . S
O525 C520 1.287 . S
O526 Fe512 1.996 . S
O526 C520 1.255 . S
C527 O531 1.295 . S
C527 O532 1.235 . S
O528 Fe513 1.976 . S
O528 C522 1.287 . S
O529 Fe515 1.996 . S
O529 C522 1.255 . S
C530 O523 1.287 . S
C530 O524 1.255 . S
O531 Fe513 2.002 . S
O531 C527 1.295 . S
O532 Fe515 1.997 . S
O532 C527 1.235 . S
C533 O516 1.295 . S
C533 O517 1.235 . S
Fe534 O536 1.918 . S
Fe534 O539 1.997 . S
Fe534 O540 2.002 . S
Fe534 O545 1.976 . S
Fe534 O548 1.996 . S
Fe535 O536 1.918 . S
Fe535 O543 1.997 . S
Fe535 O546 1.996 . S
Fe535 O550 1.976 . S
Fe535 O553 2.002 . S
O536 Fe534 1.918 . S
O536 Fe535 1.918 . S
O536 Fe537 1.918 . S
Fe537 O536 1.918 . S
Fe537 O538 2.002 . S
Fe537 O547 1.976 . S
Fe537 O551 1.996 . S
Fe537 O554 1.997 . S
O538 Fe537 2.002 . S
O538 C555 1.295 . S
O539 Fe534 1.997 . S
O539 C555 1.235 . S
O540 Fe534 2.002 . S
O540 C541 1.295 . S
C541 O540 1.295 . S
C541 O543 1.235 . S
C542 O547 1.287 . S
C542 O548 1.255 . S
O543 Fe535 1.997 . S
O543 C541 1.235 . S
C544 O550 1.287 . S
C544 O551 1.255 . S
O545 Fe534 1.976 . S
O545 C552 1.287 . S
O546 Fe535 1.996 . S
O546 C552 1.255 . S
O547 Fe537 1.976 . S
O547 C542 1.287 . S
O548 Fe534 1.996 . S
O548 C542 1.255 . S
C549 O553 1.295 . S
C549 O554 1.235 . S
O550 Fe535 1.976 . S
O550 C544 1.287 . S
O551 Fe537 1.996 . S
O551 C544 1.255 . S
C552 O545 1.287 . S
C552 O546 1.255 . S
O553 Fe535 2.002 . S
O553 C549 1.295 . S
O554 Fe537 1.997 . S
O554 C549 1.235 . S
C555 O538 1.295 . S
C555 O539 1.235 . S
Fe556 O558 1.918 . S
Fe556 O561 1.997 . S
Fe556 O562 2.002 . S
Fe556 O567 1.976 . S
Fe556 O570 1.996 . S
Fe557 O558 1.918 . S
Fe557 O565 1.997 . S
Fe557 O568 1.996 . S
Fe557 O572 1.976 . S
Fe557 O575 2.002 . S
O558 Fe556 1.918 . S
O558 Fe557 1.918 . S
O558 Fe559 1.918 . S
Fe559 O558 1.918 . S
Fe559 O560 2.002 . S
Fe559 O569 1.976 . S
Fe559 O573 1.996 . S
Fe559 O576 1.997 . S
O560 Fe559 2.002 . S
O560 C577 1.295 . S
O561 Fe556 1.997 . S
O561 C577 1.235 . S
O562 Fe556 2.002 . S
O562 C563 1.295 . S
C563 O562 1.295 . S
C563 O565 1.235 . S
C564 O569 1.287 . S
C564 O570 1.255 . S
O565 Fe557 1.997 . S
O565 C563 1.235 . S
C566 O572 1.287 . S
C566 O573 1.255 . S
O567 Fe556 1.976 . S
O567 C574 1.287 . S
O568 Fe557 1.996 . S
O568 C574 1.255 . S
O569 Fe559 1.976 . S
O569 C564 1.287 . S
O570 Fe556 1.996 . S
O570 C564 1.255 . S
C571 O575 1.295 . S
C571 O576 1.235 . S
O572 Fe557 1.976 . S
O572 C566 1.287 . S
O573 Fe559 1.996 . S
O573 C566 1.255 . S
C574 O567 1.287 . S
C574 O568 1.255 . S
O575 Fe557 2.002 . S
O575 C571 1.295 . S
O576 Fe559 1.997 . S
O576 C571 1.235 . S
C577 O560 1.295 . S
C577 O561 1.235 . S
Fe578 O580 1.918 . S
Fe578 O583 1.997 . S
Fe578 O584 2.002 . S
Fe578 O589 1.976 . S
Fe578 O592 1.996 . S
Fe579 O580 1.918 . S
Fe579 O587 1.997 . S
Fe579 O590 1.996 . S
Fe579 O594 1.976 . S
Fe579 O597 2.002 . S
O580 Fe578 1.918 . S
O580 Fe579 1.918 . S
O580 Fe581 1.918 . S
Fe581 O580 1.918 . S
Fe581 O582 2.002 . S
Fe581 O591 1.976 . S
Fe581 O595 1.996 . S
Fe581 O598 1.997 . S
O582 Fe581 2.002 . S
O582 C599 1.295 . S
O583 Fe578 1.997 . S
O583 C599 1.235 . S
O584 Fe578 2.002 . S
O584 C585 1.295 . S
C585 O584 1.295 . S
C585 O587 1.235 . S
C586 O591 1.287 . S
C586 O592 1.255 . S
O587 Fe579 1.997 . S
O587 C585 1.235 . S
C588 O594 1.287 . S
C588 O595 1.255 . S
O589 Fe578 1.976 . S
O589 C596 1.287 . S
O590 Fe579 1.996 . S
O590 C596 1.255 . S
O591 Fe581 1.976 . S
O591 C586 1.287 . S
O592 Fe578 1.996 . S
O592 C586 1.255 . S
C593 O597 1.295 . S
C593 O598 1.235 . S
O594 Fe579 1.976 . S
O594 C588 1.287 . S
O595 Fe581 1.996 . S
O595 C588 1.255 . S
C596 O589 1.287 . S
C596 O590 1.255 . S
O597 Fe579 2.002 . S
O597 C593 1.295 . S
O598 Fe581 1.997 . S
O598 C593 1.235 . S
C599 O582 1.295 . S
C599 O583 1.235 . S
Fe600 O602 1.918 . S
Fe600 O605 1.997 . S
Fe600 O606 2.002 . S
Fe600 O611 1.976 . S
Fe600 O614 1.996 . S
Fe601 O602 1.918 . S
Fe601 O609 1.997 . S
Fe601 O612 1.996 . S
Fe601 O616 1.976 . S
Fe601 O619 2.002 . S
O602 Fe600 1.918 . S
O602 Fe601 1.918 . S
O602 Fe603 1.918 . S
Fe603 O602 1.918 . S
Fe603 O604 2.002 . S
Fe603 O613 1.976 . S
Fe603 O617 1.996 . S
Fe603 O620 1.997 . S
O604 Fe603 2.002 . S
O604 C621 1.295 . S
O605 Fe600 1.997 . S
O605 C621 1.235 . S
O606 Fe600 2.002 . S
O606 C607 1.295 . S
C607 O606 1.295 . S
C607 O609 1.235 . S
C608 O613 1.287 . S
C608 O614 1.255 . S
O609 Fe601 1.997 . S
O609 C607 1.235 . S
C610 O616 1.287 . S
C610 O617 1.255 . S
O611 Fe600 1.976 . S
O611 C618 1.287 . S
O612 Fe601 1.996 . S
O612 C618 1.255 . S
O613 Fe603 1.976 . S
O613 C608 1.287 . S
O614 Fe600 1.996 . S
O614 C608 1.255 . S
C615 O619 1.295 . S
C615 O620 1.235 . S
O616 Fe601 1.976 . S
O616 C610 1.287 . S
O617 Fe603 1.996 . S
O617 C610 1.255 . S
C618 O611 1.287 . S
C618 O612 1.255 . S
O619 Fe601 2.002 . S
O619 C615 1.295 . S
O620 Fe603 1.997 . S
O620 C615 1.235 . S
C621 O604 1.295 . S
C621 O605 1.235 . S
Fe622 O624 1.918 . S
Fe622 O627 1.997 . S
Fe622 O628 2.002 . S
Fe622 O633 1.976 . S
Fe622 O636 1.996 . S
Fe623 O624 1.918 . S
Fe623 O631 1.997 . S
Fe623 O634 1.996 . S
Fe623 O638 1.976 . S
Fe623 O641 2.002 . S
O624 Fe622 1.918 . S
O624 Fe623 1.918 . S
O624 Fe625 1.918 . S
Fe625 O624 1.918 . S
Fe625 O626 2.002 . S
Fe625 O635 1.976 . S
Fe625 O639 1.996 . S
Fe625 O642 1.997 . S
O626 Fe625 2.002 . S
O626 C643 1.295 . S
O627 Fe622 1.997 . S
O627 C643 1.235 . S
O628 Fe622 2.002 . S
O628 C629 1.295 . S
C629 O628 1.295 . S
C629 O631 1.235 . S
C630 O635 1.287 . S
C630 O636 1.255 . S
O631 Fe623 1.997 . S
O631 C629 1.235 . S
C632 O638 1.287 . S
C632 O639 1.255 . S
O633 Fe622 1.976 . S
O633 C640 1.287 . S
O634 Fe623 1.996 . S
O634 C640 1.255 . S
O635 Fe625 1.976 . S
O635 C630 1.287 . S
O636 Fe622 1.996 . S
O636 C630 1.255 . S
C637 O641 1.295 . S
C637 O642 1.235 . S
O638 Fe623 1.976 . S
O638 C632 1.287 . S
O639 Fe625 1.996 . S
O639 C632 1.255 . S
C640 O633 1.287 . S
C640 O634 1.255 . S
O641 Fe623 2.002 . S
O641 C637 1.295 . S
O642 Fe625 1.997 . S
O642 C637 1.235 . S
C643 O626 1.295 . S
C643 O627 1.235 . S
Fe644 O646 1.918 . S
Fe644 O649 1.997 . S
Fe644 O650 2.002 . S
Fe644 O655 1.976 . S
Fe644 O658 1.996 . S
Fe645 O646 1.918 . S
Fe645 O653 1.997 . S
Fe645 O656 1.996 . S
Fe645 O660 1.976 . S
Fe645 O663 2.002 . S
O646 Fe644 1.918 . S
O646 Fe645 1.918 . S
O646 Fe647 1.918 . S
Fe647 O646 1.918 . S
Fe647 O648 2.002 . S
Fe647 O657 1.976 . S
Fe647 O661 1.996 . S
Fe647 O664 1.997 . S
O648 Fe647 2.002 . S
O648 C665 1.295 . S
O649 Fe644 1.997 . S
O649 C665 1.235 . S
O650 Fe644 2.002 . S
O650 C651 1.295 . S
C651 O650 1.295 . S
C651 O653 1.235 . S
C652 O657 1.287 . S
C652 O658 1.255 . S
O653 Fe645 1.997 . S
O653 C651 1.235 . S
C654 O660 1.287 . S
C654 O661 1.255 . S
O655 Fe644 1.976 . S
O655 C662 1.287 . S
O656 Fe645 1.996 . S
O656 C662 1.255 . S
O657 Fe647 1.976 . S
O657 C652 1.287 . S
O658 Fe644 1.996 . S
O658 C652 1.255 . S
C659 O663 1.295 . S
C659 O664 1.235 . S
O660 Fe645 1.976 . S
O660 C654 1.287 . S
O661 Fe647 1.996 . S
O661 C654 1.255 . S
C662 O655 1.287 . S
C662 O656 1.255 . S
O663 Fe645 2.002 . S
O663 C659 1.295 . S
O664 Fe647 1.997 . S
O664 C659 1.235 . S
C665 O648 1.295 . S
C665 O649 1.235 . S
Fe666 O668 1.918 . S
Fe666 O671 1.997 . S
Fe666 O672 2.002 . S
Fe666 O677 1.976 . S
Fe666 O680 1.996 . S
Fe667 O668 1.918 . S
Fe667 O675 1.997 . S
Fe667 O678 1.996 . S
Fe667 O682 1.976 . S
Fe667 O685 2.002 . S
O668 Fe666 1.918 . S
O668 Fe667 1.918 . S
O668 Fe669 1.918 . S
Fe669 O668 1.918 . S
Fe669 O670 2.002 . S
Fe669 O679 1.976 . S
Fe669 O683 1.996 . S
Fe669 O686 1.997 . S
O670 Fe669 2.002 . S
O670 C687 1.295 . S
O671 Fe666 1.997 . S
O671 C687 1.235 . S
O672 Fe666 2.002 . S
O672 C673 1.295 . S
C673 O672 1.295 . S
C673 O675 1.235 . S
C674 O679 1.287 . S
C674 O680 1.255 . S
O675 Fe667 1.997 . S
O675 C673 1.235 . S
C676 O682 1.287 . S
C676 O683 1.255 . S
O677 Fe666 1.976 . S
O677 C684 1.287 . S
O678 Fe667 1.996 . S
O678 C684 1.255 . S
O679 Fe669 1.976 . S
O679 C674 1.287 . S
O680 Fe666 1.996 . S
O680 C674 1.255 . S
C681 O685 1.295 . S
C681 O686 1.235 . S
O682 Fe667 1.976 . S
O682 C676 1.287 . S
O683 Fe669 1.996 . S
O683 C676 1.255 . S
C684 O677 1.287 . S
C684 O678 1.255 . S
O685 Fe667 2.002 . S
O685 C681 1.295 . S
O686 Fe669 1.997 . S
O686 C681 1.235 . S
C687 O670 1.295 . S
C687 O671 1.235 . S
C688 C689 1.387 . S
C688 H692 0.950 . S
C688 C697 1.390 . S
C689 C688 1.387 . S
C689 C691 1.387 . S
H690 C697 0.950 . S
C691 C689 1.387 . S
C691 C693 1.390 . S
C691 H695 0.950 . S
H692 C688 0.950 . S
C693 C691 1.390 . S
C693 C694 1.387 . S
C693 H696 0.950 . S
C694 C693 1.387 . S
C694 C697 1.387 . S
H695 C691 0.950 . S
H696 C693 0.950 . S
C697 C688 1.390 . S
C697 H690 0.950 . S
C697 C694 1.387 . S
C698 C699 1.387 . S
C698 H702 0.950 . S
C698 C707 1.390 . S
C699 C698 1.387 . S
C699 C701 1.387 . S
H700 C707 0.950 . S
C701 C699 1.387 . S
C701 C703 1.390 . S
C701 H705 0.950 . S
H702 C698 0.950 . S
C703 C701 1.390 . S
C703 C704 1.387 . S
C703 H706 0.950 . S
C704 C703 1.387 . S
C704 C707 1.387 . S
H705 C701 0.950 . S
H706 C703 0.950 . S
C707 C698 1.390 . S
C707 H700 0.950 . S
C707 C704 1.387 . S
C708 C709 1.387 . S
C708 H712 0.950 . S
C708 C717 1.390 . S
C709 C708 1.387 . S
C709 C711 1.387 . S
H710 C717 0.950 . S
C711 C709 1.387 . S
C711 C713 1.390 . S
C711 H715 0.950 . S
H712 C708 0.950 . S
C713 C711 1.390 . S
C713 C714 1.387 . S
C713 H716 0.950 . S
C714 C713 1.387 . S
C714 C717 1.387 . S
H715 C711 0.950 . S
H716 C713 0.950 . S
C717 C708 1.390 . S
C717 H710 0.950 . S
C717 C714 1.387 . S
C718 C719 1.387 . S
C718 H722 0.950 . S
C718 C727 1.390 . S
C719 C718 1.387 . S
C719 C721 1.387 . S
H720 C727 0.950 . S
C721 C719 1.387 . S
C721 C723 1.390 1_554 S
C721 H725 0.950 . S
H722 C718 0.950 . S
C723 C721 1.390 1_556 S
C723 C724 1.387 . S
C723 H726 0.950 . S
C724 C723 1.387 . S
C724 C727 1.387 1_556 S
H725 C721 0.950 . S
H726 C723 0.950 . S
C727 C718 1.390 . S
C727 H720 0.950 . S
C727 C724 1.387 1_554 S
C728 C729 1.387 . S
C728 H732 0.950 . S
C728 C737 1.390 . S
C729 C728 1.387 . S
C729 C731 1.387 . S
H730 C737 0.950 . S
C731 C729 1.387 . S
C731 C733 1.390 . S
C731 H735 0.950 . S
H732 C728 0.950 . S
C733 C731 1.390 . S
C733 C734 1.387 . S
C733 H736 0.950 . S
C734 C733 1.387 . S
C734 C737 1.387 . S
H735 C731 0.950 . S
H736 C733 0.950 . S
C737 C728 1.390 . S
C737 H730 0.950 . S
C737 C734 1.387 . S
C738 C739 1.387 . S
C738 H742 0.950 . S
C738 C747 1.390 . S
C739 C738 1.387 . S
C739 C741 1.387 . S
H740 C747 0.950 . S
C741 C739 1.387 . S
C741 C743 1.390 . S
C741 H745 0.950 . S
H742 C738 0.950 . S
C743 C741 1.390 . S
C743 C744 1.387 . S
C743 H746 0.950 . S
C744 C743 1.387 . S
C744 C747 1.387 . S
H745 C741 0.950 . S
H746 C743 0.950 . S
C747 C738 1.390 . S
C747 H740 0.950 . S
C747 C744 1.387 . S
C748 C749 1.387 . S
C748 H752 0.950 . S
C748 C757 1.390 . S
C749 C748 1.387 . S
C749 C751 1.387 . S
H750 C757 0.950 . S
C751 C749 1.387 . S
C751 C753 1.390 . S
C751 H755 0.950 . S
H752 C748 0.950 . S
C753 C751 1.390 . S
C753 C754 1.387 . S
C753 H756 0.950 . S
C754 C753 1.387 . S
C754 C757 1.387 . S
H755 C751 0.950 . S
H756 C753 0.950 . S
C757 C748 1.390 . S
C757 H750 0.950 . S
C757 C754 1.387 . S
C758 C759 1.387 . S
C758 H762 0.950 . S
C758 C767 1.390 . S
C759 C758 1.387 . S
C759 C761 1.387 . S
H760 C767 0.950 1_554 S
C761 C759 1.387 . S
C761 C763 1.390 . S
C761 H765 0.950 . S
H762 C758 0.950 . S
C763 C761 1.390 . S
C763 C764 1.387 1_556 S
C763 H766 0.950 1_556 S
C764 C763 1.387 1_554 S
C764 C767 1.387 1_554 S
H765 C761 0.950 . S
H766 C763 0.950 1_554 S
C767 C758 1.390 . S
C767 H760 0.950 1_556 S
C767 C764 1.387 1_556 S
C768 C769 1.387 . S
C768 H772 0.950 . S
C768 C777 1.390 . S
C769 C768 1.387 . S
C769 C771 1.387 . S
H770 C777 0.950 . S
C771 C769 1.387 . S
C771 C773 1.390 . S
C771 H775 0.950 . S
H772 C768 0.950 . S
C773 C771 1.390 . S
C773 C774 1.387 . S
C773 H776 0.950 . S
C774 C773 1.387 . S
C774 C777 1.387 . S
H775 C771 0.950 . S
H776 C773 0.950 . S
C777 C768 1.390 . S
C777 H770 0.950 . S
C777 C774 1.387 . S
C778 C779 1.387 . S
C778 H782 0.950 . S
C778 C787 1.390 . S
C779 C778 1.387 . S
C779 C781 1.387 . S
H780 C787 0.950 1_565 S
C781 C779 1.387 . S
C781 C783 1.390 . S
C781 H785 0.950 . S
H782 C778 0.950 . S
C783 C781 1.390 . S
C783 C784 1.387 1_545 S
C783 H786 0.950 . S
C784 C783 1.387 1_565 S
C784 C787 1.387 1_565 S
H785 C781 0.950 . S
H786 C783 0.950 . S
C787 C778 1.390 . S
C787 H780 0.950 1_545 S
C787 C784 1.387 1_545 S
C788 C789 1.387 . S
C788 H792 0.950 . S
C788 C797 1.390 . S
C789 C788 1.387 . S
C789 C791 1.387 . S
H790 C797 0.950 . S
C791 C789 1.387 . S
C791 C793 1.390 . S
C791 H795 0.950 . S
H792 C788 0.950 . S
C793 C791 1.390 . S
C793 C794 1.387 . S
C793 H796 0.950 . S
C794 C793 1.387 . S
C794 C797 1.387 . S
H795 C791 0.950 . S
H796 C793 0.950 . S
C797 C788 1.390 . S
C797 H790 0.950 . S
C797 C794 1.387 . S
C798 C799 1.387 . S
C798 H802 0.950 . S
C798 C807 1.390 1_565 S
C799 C798 1.387 . S
C799 C801 1.387 . S
H800 C807 0.950 . S
C801 C799 1.387 . S
C801 C803 1.390 . S
C801 H805 0.950 . S
H802 C798 0.950 . S
C803 C801 1.390 . S
C803 C804 1.387 1_565 S
C803 H806 0.950 . S
C804 C803 1.387 1_545 S
C804 C807 1.387 . S
H805 C801 0.950 . S
H806 C803 0.950 . S
C807 C798 1.390 1_545 S
C807 H800 0.950 . S
C807 C804 1.387 . S
C808 C809 1.387 . S
C808 H812 0.950 . S
C808 C817 1.390 . S
C809 C808 1.387 . S
C809 C811 1.387 . S
H810 C817 0.950 . S
C811 C809 1.387 . S
C811 C813 1.390 . S
C811 H815 0.950 . S
H812 C808 0.950 . S
C813 C811 1.390 . S
C813 C814 1.387 . S
C813 H816 0.950 . S
C814 C813 1.387 . S
C814 C817 1.387 . S
H815 C811 0.950 . S
H816 C813 0.950 . S
C817 C808 1.390 . S
C817 H810 0.950 . S
C817 C814 1.387 . S
C818 C819 1.387 . S
C818 H822 0.950 . S
C818 C827 1.390 . S
C819 C818 1.387 . S
C819 C821 1.387 . S
H820 C827 0.950 . S
C821 C819 1.387 . S
C821 C823 1.390 1_545 S
C821 H825 0.950 . S
H822 C818 0.950 . S
C823 C821 1.390 1_565 S
C823 C824 1.387 . S
C823 H826 0.950 . S
C824 C823 1.387 . S
C824 C827 1.387 1_565 S
H825 C821 0.950 . S
H826 C823 0.950 . S
C827 C818 1.390 . S
C827 H820 0.950 . S
C827 C824 1.387 1_545 S
C828 C829 1.387 . S
C828 H832 0.950 . S
C828 C837 1.390 . S
C829 C828 1.387 . S
C829 C831 1.387 . S
H830 C837 0.950 . S
C831 C829 1.387 . S
C831 C833 1.390 . S
C831 H835 0.950 . S
H832 C828 0.950 . S
C833 C831 1.390 . S
C833 C834 1.387 . S
C833 H836 0.950 . S
C834 C833 1.387 . S
C834 C837 1.387 . S
H835 C831 0.950 . S
H836 C833 0.950 . S
C837 C828 1.390 . S
C837 H830 0.950 . S
C837 C834 1.387 . S
C838 C839 1.387 . S
C838 H842 0.950 . S
C838 C847 1.390 1_565 S
C839 C838 1.387 . S
C839 C841 1.387 . S
H840 C847 0.950 . S
C841 C839 1.387 . S
C841 C843 1.390 . S
C841 H845 0.950 . S
H842 C838 0.950 . S
C843 C841 1.390 . S
C843 C844 1.387 1_565 S
C843 H846 0.950 . S
C844 C843 1.387 1_545 S
C844 C847 1.387 . S
H845 C841 0.950 . S
H846 C843 0.950 . S
C847 C838 1.390 1_545 S
C847 H840 0.950 . S
C847 C844 1.387 . S
C848 C849 1.387 . S
C848 H852 0.950 . S
C848 C857 1.390 . S
C849 C848 1.387 . S
C849 C851 1.387 . S
H850 C857 0.950 . S
C851 C849 1.387 . S
C851 C853 1.390 . S
C851 H855 0.950 . S
H852 C848 0.950 . S
C853 C851 1.390 . S
C853 C854 1.387 . S
C853 H856 0.950 . S
C854 C853 1.387 . S
C854 C857 1.387 . S
H855 C851 0.950 . S
H856 C853 0.950 . S
C857 C848 1.390 . S
C857 H850 0.950 . S
C857 C854 1.387 . S
C858 C859 1.387 . S
C858 H862 0.950 . S
C858 C867 1.390 . S
C859 C858 1.387 . S
C859 C861 1.387 . S
H860 C867 0.950 . S
C861 C859 1.387 . S
C861 C863 1.390 . S
C861 H865 0.950 . S
H862 C858 0.950 . S
C863 C861 1.390 . S
C863 C864 1.387 . S
C863 H866 0.950 . S
C864 C863 1.387 . S
C864 C867 1.387 . S
H865 C861 0.950 . S
H866 C863 0.950 . S
C867 C858 1.390 . S
C867 H860 0.950 . S
C867 C864 1.387 . S
C868 C869 1.387 . S
C868 H872 0.950 . S
C868 C877 1.390 1_455 S
C869 C868 1.387 . S
C869 C871 1.387 . S
H870 C877 0.950 . S
C871 C869 1.387 . S
C871 C873 1.390 . S
C871 H875 0.950 . S
H872 C868 0.950 . S
C873 C871 1.390 . S
C873 C874 1.387 1_455 S
C873 H876 0.950 . S
C874 C873 1.387 1_655 S
C874 C877 1.387 . S
H875 C871 0.950 . S
H876 C873 0.950 . S
C877 C868 1.390 1_655 S
C877 H870 0.950 . S
C877 C874 1.387 . S
C878 C879 1.387 . S
C878 H882 0.950 . S
C878 C887 1.390 . S
C879 C878 1.387 . S
C879 C881 1.387 . S
H880 C887 0.950 . S
C881 C879 1.387 . S
C881 C883 1.390 . S
C881 H885 0.950 . S
H882 C878 0.950 . S
C883 C881 1.390 . S
C883 C884 1.387 . S
C883 H886 0.950 . S
C884 C883 1.387 . S
C884 C887 1.387 . S
H885 C881 0.950 . S
H886 C883 0.950 . S
C887 C878 1.390 . S
C887 H880 0.950 . S
C887 C884 1.387 . S
C888 C889 1.387 . S
C888 H892 0.950 . S
C888 C897 1.390 . S
C889 C888 1.387 . S
C889 C891 1.387 . S
H890 C897 0.950 1_455 S
C891 C889 1.387 . S
C891 C893 1.390 . S
C891 H895 0.950 . S
H892 C888 0.950 . S
C893 C891 1.390 . S
C893 C894 1.387 1_655 S
C893 H896 0.950 1_655 S
C894 C893 1.387 1_455 S
C894 C897 1.387 1_455 S
H895 C891 0.950 . S
H896 C893 0.950 1_455 S
C897 C888 1.390 . S
C897 H890 0.950 1_655 S
C897 C894 1.387 1_655 S
C898 C899 1.387 . S
C898 H902 0.950 . S
C898 C907 1.390 . S
C899 C898 1.387 . S
C899 C901 1.387 . S
H900 C907 0.950 . S
C901 C899 1.387 . S
C901 C903 1.390 . S
C901 H905 0.950 . S
H902 C898 0.950 . S
C903 C901 1.390 . S
C903 C904 1.387 . S
C903 H906 0.950 . S
C904 C903 1.387 . S
C904 C907 1.387 . S
H905 C901 0.950 . S
H906 C903 0.950 . S
C907 C898 1.390 . S
C907 H900 0.950 . S
C907 C904 1.387 . S
C908 C909 1.387 . S
C908 H912 0.950 . S
C908 C917 1.390 . S
C909 C908 1.387 . S
C909 C911 1.387 . S
H910 C917 0.945 1_655 S
C911 C909 1.387 . S
C911 C913 1.390 . S
C911 H915 0.950 . S
H912 C908 0.950 . S
C913 C911 1.390 . S
C913 C914 1.387 1_455 S
C913 H916 0.950 1_455 S
C914 C913 1.387 1_655 S
C914 C917 1.387 1_655 S
H915 C911 0.950 . S
H916 C913 0.950 1_655 S
C917 C908 1.390 . S
C917 H910 0.945 1_455 S
C917 C914 1.387 1_455 S
C918 C919 1.387 . S
C918 H922 0.950 . S
C918 C927 1.390 . S
C919 C918 1.387 . S
C919 C921 1.387 . S
H920 C927 0.950 . S
C921 C919 1.387 . S
C921 C923 1.390 . S
C921 H925 0.950 . S
H922 C918 0.950 . S
C923 C921 1.390 . S
C923 C924 1.387 . S
C923 H926 0.950 . S
C924 C923 1.387 . S
C924 C927 1.387 . S
H925 C921 0.950 . S
H926 C923 0.950 . S
C927 C918 1.390 . S
C927 H920 0.950 . S
C927 C924 1.387 . S
C928 C929 1.387 . S
C928 H932 0.950 . S
C928 C937 1.390 . S
C929 C928 1.387 . S
C929 C931 1.387 . S
H930 C937 0.950 . S
C931 C929 1.387 . S
C931 C933 1.390 . S
C931 H935 0.950 . S
H932 C928 0.950 . S
C933 C931 1.390 . S
C933 C934 1.387 . S
C933 H936 0.950 . S
C934 C933 1.387 . S
C934 C937 1.387 . S
H935 C931 0.950 . S
H936 C933 0.950 . S
C937 C928 1.390 . S
C937 H930 0.950 . S
C937 C934 1.387 . S
C938 C939 1.387 . S
C938 H942 0.950 . S
C938 C947 1.390 . S
C939 C938 1.387 . S
C939 C941 1.387 . S
H940 C947 0.950 . S
C941 C939 1.387 . S
C941 C943 1.390 . S
C941 H945 0.950 . S
H942 C938 0.950 . S
C943 C941 1.390 . S
C943 C944 1.387 . S
C943 H946 0.950 . S
C944 C943 1.387 . S
C944 C947 1.387 . S
H945 C941 0.950 . S
H946 C943 0.950 . S
C947 C938 1.390 . S
C947 H940 0.950 . S
C947 C944 1.387 . S
C948 C949 1.387 . S
C948 H952 0.950 . S
C948 C957 1.390 . S
C949 C948 1.387 . S
C949 C951 1.387 . S
H950 C957 0.950 . S
C951 C949 1.387 . S
C951 C953 1.390 . S
C951 H955 0.950 . S
H952 C948 0.950 . S
C953 C951 1.390 . S
C953 C954 1.387 . S
C953 H956 0.950 . S
C954 C953 1.387 . S
C954 C957 1.387 . S
H955 C951 0.950 . S
H956 C953 0.950 . S
C957 C948 1.390 . S
C957 H950 0.950 . S
C957 C954 1.387 . S
C958 C959 1.387 . S
C958 H962 0.950 . S
C958 C967 1.390 1_556 S
C959 C958 1.387 . S
C959 C961 1.387 . S
H960 C967 0.950 . S
C961 C959 1.387 . S
C961 C963 1.390 . S
C961 H965 0.950 . S
H962 C958 0.950 . S
C963 C961 1.390 . S
C963 C964 1.387 1_556 S
C963 H966 0.950 . S
C964 C963 1.387 1_554 S
C964 C967 1.387 . S
H965 C961 0.950 . S
H966 C963 0.950 . S
C967 C958 1.390 1_554 S
C967 H960 0.950 . S
C967 C964 1.387 . S
C968 C969 1.387 . S
C968 H972 0.950 . S
C968 C977 1.390 . S
C969 C968 1.387 . S
C969 C971 1.387 . S
H970 C977 0.950 . S
C971 C969 1.387 . S
C971 C973 1.390 . S
C971 H975 0.950 . S
H972 C968 0.950 . S
C973 C971 1.390 . S
C973 C974 1.387 . S
C973 H976 0.950 . S
C974 C973 1.387 . S
C974 C977 1.387 . S
H975 C971 0.950 . S
H976 C973 0.950 . S
C977 C968 1.390 . S
C977 H970 0.950 . S
C977 C974 1.387 . S
C978 C979 1.387 . S
C978 H982 0.950 . S
C978 C987 1.390 . S
C979 C978 1.387 . S
C979 C981 1.387 . S
H980 C987 0.950 . S
C981 C979 1.387 . S
C981 C983 1.390 . S
C981 H985 0.950 . S
H982 C978 0.950 . S
C983 C981 1.390 . S
C983 C984 1.387 . S
C983 H986 0.950 . S
C984 C983 1.387 . S
C984 C987 1.387 . S
H985 C981 0.950 . S
H986 C983 0.950 . S
C987 C978 1.390 . S
C987 H980 0.950 . S
C987 C984 1.387 . S
C988 C989 1.387 . S
C988 H992 0.950 . S
C988 C997 1.390 . S
C989 C988 1.387 . S
C989 C991 1.387 . S
H990 C997 0.950 . S
C991 C989 1.387 . S
C991 C993 1.390 . S
C991 H995 0.950 . S
H992 C988 0.950 . S
C993 C991 1.390 . S
C993 C994 1.387 . S
C993 H996 0.950 . S
C994 C993 1.387 . S
C994 C997 1.387 . S
H995 C991 0.950 . S
H996 C993 0.950 . S
C997 C988 1.390 . S
C997 H990 0.950 . S
C997 C994 1.387 . S
C998 C999 1.387 . S
C998 H1002 0.950 . S
C998 C1007 1.390 . S
C999 C998 1.387 . S
C999 C1001 1.387 . S
H1000 C1007 0.950 . S
C1001 C999 1.387 . S
C1001 C1003 1.371 1_554 S
C1001 H1005 0.950 . S
H1002 C998 0.950 . S
C1003 C1001 1.371 1_556 S
C1003 C1004 1.394 . S
C1003 H1006 0.963 . S
C1004 C1003 1.394 . S
C1004 C1007 1.387 1_556 S
H1005 C1001 0.950 . S
H1006 C1003 0.963 . S
C1007 C998 1.390 . S
C1007 H1000 0.950 . S
C1007 C1004 1.387 1_554 S
C1008 C1009 1.387 . S
C1008 H1012 0.950 . S
C1008 C1017 1.390 . S
C1009 C1008 1.387 . S
C1009 C1011 1.387 . S
H1010 C1017 0.950 . S
C1011 C1009 1.387 . S
C1011 C1013 1.390 . S
C1011 H1015 0.950 . S
H1012 C1008 0.950 . S
C1013 C1011 1.390 . S
C1013 C1014 1.387 . S
C1013 H1016 0.950 . S
C1014 C1013 1.387 . S
C1014 C1017 1.387 . S
H1015 C1011 0.950 . S
H1016 C1013 0.950 . S
C1017 C1008 1.390 . S
C1017 H1010 0.950 . S
C1017 C1014 1.387 . S
C1018 C1019 1.387 . S
C1018 H1022 0.950 . S
C1018 C1027 1.390 . S
C1019 C1018 1.387 . S
C1019 C1021 1.387 . S
H1020 C1027 0.950 . S
C1021 C1019 1.387 . S
C1021 C1023 1.390 1_565 S
C1021 H1025 0.950 . S
H1022 C1018 0.950 . S
C1023 C1021 1.390 1_545 S
C1023 C1024 1.387 . S
C1023 H1026 0.950 . S
C1024 C1023 1.387 . S
C1024 C1027 1.387 1_545 S
H1025 C1021 0.950 . S
H1026 C1023 0.950 . S
C1027 C1018 1.390 . S
C1027 H1020 0.950 . S
C1027 C1024 1.387 1_565 S
C1028 C1029 1.387 . S
C1028 H1032 0.950 . S
C1028 C1037 1.390 . S
C1029 C1028 1.387 . S
C1029 C1031 1.387 . S
H1030 C1037 0.950 . S
C1031 C1029 1.387 . S
C1031 C1033 1.390 . S
C1031 H1035 0.950 . S
H1032 C1028 0.950 . S
C1033 C1031 1.390 . S
C1033 C1034 1.387 . S
C1033 H1036 0.950 . S
C1034 C1033 1.387 . S
C1034 C1037 1.387 . S
H1035 C1031 0.950 . S
H1036 C1033 0.950 . S
C1037 C1028 1.390 . S
C1037 H1030 0.950 . S
C1037 C1034 1.387 . S
C1038 C1039 1.387 . S
C1038 H1042 0.950 . S
C1038 C1047 1.390 . S
C1039 C1038 1.387 . S
C1039 C1041 1.387 . S
H1040 C1047 0.950 . S
C1041 C1039 1.387 . S
C1041 C1043 1.390 1_545 S
C1041 H1045 0.950 . S
H1042 C1038 0.950 . S
C1043 C1041 1.390 1_565 S
C1043 C1044 1.387 . S
C1043 H1046 0.950 . S
C1044 C1043 1.387 . S
C1044 C1047 1.387 1_565 S
H1045 C1041 0.950 . S
H1046 C1043 0.950 . S
C1047 C1038 1.390 . S
C1047 H1040 0.950 . S
C1047 C1044 1.387 1_545 S
C1048 C1049 1.387 . S
C1048 H1052 0.950 . S
C1048 C1057 1.390 . S
C1049 C1048 1.387 . S
C1049 C1051 1.387 . S
H1050 C1057 0.950 . S
C1051 C1049 1.387 . S
C1051 C1053 1.390 . S
C1051 H1055 0.950 . S
H1052 C1048 0.950 . S
C1053 C1051 1.390 . S
C1053 C1054 1.387 . S
C1053 H1056 0.950 . S
C1054 C1053 1.387 . S
C1054 C1057 1.387 . S
H1055 C1051 0.950 . S
H1056 C1053 0.950 . S
C1057 C1048 1.390 . S
C1057 H1050 0.950 . S
C1057 C1054 1.387 . S
C1058 C1059 1.387 . S
C1058 H1062 0.950 . S
C1058 C1067 1.390 . S
C1059 C1058 1.387 . S
C1059 C1061 1.387 . S
H1060 C1067 0.950 . S
C1061 C1059 1.387 . S
C1061 C1063 1.390 1_565 S
C1061 H1065 0.950 . S
H1062 C1058 0.950 . S
C1063 C1061 1.390 1_545 S
C1063 C1064 1.387 . S
C1063 H1066 0.950 . S
C1064 C1063 1.387 . S
C1064 C1067 1.387 1_545 S
H1065 C1061 0.950 . S
H1066 C1063 0.950 . S
C1067 C1058 1.390 . S
C1067 H1060 0.950 . S
C1067 C1064 1.387 1_565 S
C1068 C1069 1.387 . S
C1068 H1072 0.950 . S
C1068 C1077 1.390 . S
C1069 C1068 1.387 . S
C1069 C1071 1.387 . S
H1070 C1077 0.950 . S
C1071 C1069 1.387 . S
C1071 C1073 1.390 . S
C1071 H1075 0.950 . S
H1072 C1068 0.950 . S
C1073 C1071 1.390 . S
C1073 C1074 1.387 . S
C1073 H1076 0.950 . S
C1074 C1073 1.387 . S
C1074 C1077 1.387 . S
H1075 C1071 0.950 . S
H1076 C1073 0.950 . S
C1077 C1068 1.390 . S
C1077 H1070 0.950 . S
C1077 C1074 1.387 . S
C1078 C1079 1.387 . S
C1078 H1082 0.950 1_556 S
C1078 C1087 1.390 1_545 S
C1079 C1078 1.387 . S
C1079 C1081 1.387 . S
H1080 C1087 0.950 . S
C1081 C1079 1.387 . S
C1081 C1083 1.390 . S
C1081 H1085 0.950 . S
H1082 C1078 0.950 1_554 S
C1083 C1081 1.390 . S
C1083 C1084 1.387 1_545 S
C1083 H1086 0.950 . S
C1084 C1083 1.387 1_565 S
C1084 C1087 1.387 . S
H1085 C1081 0.950 . S
H1086 C1083 0.950 . S
C1087 C1078 1.390 1_565 S
C1087 H1080 0.950 . S
C1087 C1084 1.387 . S
C1088 C1089 1.387 . S
C1088 H1092 0.950 . S
C1088 C1097 1.390 . S
C1089 C1088 1.387 . S
C1089 C1091 1.387 . S
H1090 C1097 0.950 . S
C1091 C1089 1.387 . S
C1091 C1093 1.390 . S
C1091 H1095 0.950 . S
H1092 C1088 0.950 . S
C1093 C1091 1.390 . S
C1093 C1094 1.387 . S
C1093 H1096 0.950 . S
C1094 C1093 1.387 . S
C1094 C1097 1.387 . S
H1095 C1091 0.950 . S
H1096 C1093 0.950 . S
C1097 C1088 1.390 . S
C1097 H1090 0.950 . S
C1097 C1094 1.387 . S
C1098 C1099 1.387 . S
C1098 H1102 0.950 . S
C1098 C1107 1.390 . S
C1099 C1098 1.387 . S
C1099 C1101 1.387 . S
H1100 C1107 0.950 . S
C1101 C1099 1.387 . S
C1101 C1103 1.390 . S
C1101 H1105 0.950 . S
H1102 C1098 0.950 . S
C1103 C1101 1.390 . S
C1103 C1104 1.387 . S
C1103 H1106 0.950 . S
C1104 C1103 1.387 . S
C1104 C1107 1.387 . S
H1105 C1101 0.950 . S
H1106 C1103 0.950 . S
C1107 C1098 1.390 . S
C1107 H1100 0.950 . S
C1107 C1104 1.387 . S
C1108 C1109 1.387 . S
C1108 H1112 0.950 . S
C1108 C1117 1.390 . S
C1109 C1108 1.387 . S
C1109 C1111 1.387 . S
H1110 C1117 0.950 1_455 S
C1111 C1109 1.387 . S
C1111 C1113 1.390 . S
C1111 H1115 0.950 . S
H1112 C1108 0.950 . S
C1113 C1111 1.390 . S
C1113 C1114 1.387 1_655 S
C1113 H1116 0.950 . S
C1114 C1113 1.387 1_455 S
C1114 C1117 1.387 1_455 S
H1115 C1111 0.950 . S
H1116 C1113 0.950 . S
C1117 C1108 1.390 . S
C1117 H1110 0.950 1_655 S
C1117 C1114 1.387 1_655 S
C1118 C1119 1.387 . S
C1118 H1122 0.950 . S
C1118 C1127 1.390 . S
C1119 C1118 1.387 . S
C1119 C1121 1.387 . S
H1120 C1127 0.950 . S
C1121 C1119 1.387 . S
C1121 C1123 1.390 . S
C1121 H1125 0.950 . S
H1122 C1118 0.950 . S
C1123 C1121 1.390 . S
C1123 C1124 1.387 . S
C1123 H1126 0.950 . S
C1124 C1123 1.387 . S
C1124 C1127 1.387 . S
H1125 C1121 0.950 . S
H1126 C1123 0.950 . S
C1127 C1118 1.390 . S
C1127 H1120 0.950 . S
C1127 C1124 1.387 . S
C1128 C1129 1.387 . S
C1128 H1132 0.950 . S
C1128 C1137 1.390 . S
C1129 C1128 1.387 . S
C1129 C1131 1.387 . S
H1130 C1137 0.950 . S
C1131 C1129 1.387 . S
C1131 C1133 1.390 1_455 S
C1131 H1135 0.950 1_565 S
H1132 C1128 0.950 . S
C1133 C1131 1.390 1_655 S
C1133 C1134 1.387 . S
C1133 H1136 0.950 . S
C1134 C1133 1.387 . S
C1134 C1137 1.387 1_655 S
H1135 C1131 0.950 1_545 S
H1136 C1133 0.950 . S
C1137 C1128 1.390 . S
C1137 H1130 0.950 . S
C1137 C1134 1.387 1_455 S
C1138 C1139 1.387 . S
C1138 H1142 0.950 . S
C1138 C1147 1.390 . S
C1139 C1138 1.387 . S
C1139 C1141 1.387 . S
H1140 C1147 0.950 . S
C1141 C1139 1.387 . S
C1141 C1143 1.390 . S
C1141 H1145 0.950 . S
H1142 C1138 0.950 . S
C1143 C1141 1.390 . S
C1143 C1144 1.387 . S
C1143 H1146 0.950 . S
C1144 C1143 1.387 . S
C1144 C1147 1.387 . S
H1145 C1141 0.950 . S
H1146 C1143 0.950 . S
C1147 C1138 1.390 . S
C1147 H1140 0.950 . S
C1147 C1144 1.387 . S
C1148 C1149 1.387 . S
C1148 H1152 0.950 . S
C1148 C1157 1.390 1_655 S
C1149 C1148 1.387 . S
C1149 C1151 1.387 . S
H1150 C1157 0.950 . S
C1151 C1149 1.387 . S
C1151 C1153 1.390 . S
C1151 H1155 0.950 . S
H1152 C1148 0.950 . S
C1153 C1151 1.390 . S
C1153 C1154 1.387 1_655 S
C1153 H1156 0.950 . S
C1154 C1153 1.387 1_455 S
C1154 C1157 1.387 . S
H1155 C1151 0.950 . S
H1156 C1153 0.950 . S
C1157 C1148 1.390 1_455 S
C1157 H1150 0.950 . S
C1157 C1154 1.387 . S
C1158 C1159 1.387 . S
C1158 H1162 0.950 . S
C1158 C1167 1.390 . S
C1159 C1158 1.387 . S
C1159 C1161 1.387 . S
H1160 C1167 0.950 . S
C1161 C1159 1.387 . S
C1161 C1163 1.390 . S
C1161 H1165 0.950 . S
H1162 C1158 0.950 . S
C1163 C1161 1.390 . S
C1163 C1164 1.387 . S
C1163 H1166 0.950 . S
C1164 C1163 1.387 . S
C1164 C1167 1.387 . S
H1165 C1161 0.950 . S
H1166 C1163 0.950 . S
C1167 C1158 1.390 . S
C1167 H1160 0.950 . S
C1167 C1164 1.387 . S
C1168 C1169 1.387 . S
C1168 H1172 0.950 . S
C1168 C1177 1.390 . S
C1169 C1168 1.387 . S
C1169 C1171 1.387 . S
H1170 C1177 0.950 . S
C1171 C1169 1.387 . S
C1171 C1173 1.390 . S
C1171 H1175 0.950 . S
H1172 C1168 0.950 . S
C1173 C1171 1.390 . S
C1173 C1174 1.387 . S
C1173 H1176 0.950 . S
C1174 C1173 1.387 . S
C1174 C1177 1.387 . S
H1175 C1171 0.950 . S
H1176 C1173 0.950 . S
C1177 C1168 1.390 . S
C1177 H1170 0.950 . S
C1177 C1174 1.387 . S
C1178 C1179 1.387 . S
C1178 H1182 0.950 . S
C1178 C1187 1.390 . S
C1179 C1178 1.387 . S
C1179 C1181 1.387 . S
H1180 C1187 0.950 . S
C1181 C1179 1.387 . S
C1181 C1183 1.365 1_554 S
C1181 H1185 0.950 . S
H1182 C1178 0.950 . S
C1183 C1181 1.365 1_556 S
C1183 C1184 1.393 . S
C1183 H1186 0.970 . S
C1184 C1183 1.393 . S
C1184 C1187 1.387 1_556 S
H1185 C1181 0.950 . S
H1186 C1183 0.970 . S
C1187 C1178 1.390 . S
C1187 H1180 0.950 . S
C1187 C1184 1.387 1_554 S
C1188 C1189 1.387 . S
C1188 H1192 0.950 . S
C1188 C1197 1.390 . S
C1189 C1188 1.387 . S
C1189 C1191 1.387 . S
H1190 C1197 0.950 . S
C1191 C1189 1.387 . S
C1191 C1193 1.390 . S
C1191 H1195 0.950 . S
H1192 C1188 0.950 . S
C1193 C1191 1.390 . S
C1193 C1194 1.387 . S
C1193 H1196 0.950 . S
C1194 C1193 1.387 . S
C1194 C1197 1.387 . S
H1195 C1191 0.950 . S
H1196 C1193 0.950 . S
C1197 C1188 1.390 . S
C1197 H1190 0.950 . S
C1197 C1194 1.387 . S
C1198 C1199 1.387 . S
C1198 H1202 0.950 . S
C1198 C1207 1.390 . S
C1199 C1198 1.387 . S
C1199 C1201 1.387 . S
H1200 C1207 0.950 . S
C1201 C1199 1.387 . S
C1201 C1203 1.390 . S
C1201 H1205 0.950 . S
H1202 C1198 0.950 . S
C1203 C1201 1.390 . S
C1203 C1204 1.387 . S
C1203 H1206 0.950 . S
C1204 C1203 1.387 . S
C1204 C1207 1.387 . S
H1205 C1201 0.950 . S
H1206 C1203 0.950 . S
C1207 C1198 1.390 . S
C1207 H1200 0.950 . S
C1207 C1204 1.387 . S
C1208 C1209 1.387 . S
C1208 H1212 0.950 . S
C1208 C1217 1.390 . S
C1209 C1208 1.387 . S
C1209 C1211 1.387 . S
H1210 C1217 0.950 . S
C1211 C1209 1.387 . S
C1211 C1213 1.390 . S
C1211 H1215 0.950 . S
H1212 C1208 0.950 . S
C1213 C1211 1.390 . S
C1213 C1214 1.387 . S
C1213 H1216 0.950 . S
C1214 C1213 1.387 . S
C1214 C1217 1.387 . S
H1215 C1211 0.950 . S
H1216 C1213 0.950 . S
C1217 C1208 1.390 . S
C1217 H1210 0.950 . S
C1217 C1214 1.387 . S
C1218 C1219 1.387 . S
C1218 H1222 0.950 . S
C1218 C1227 1.390 . S
C1219 C1218 1.387 . S
C1219 C1221 1.387 . S
H1220 C1227 0.950 . S
C1221 C1219 1.387 . S
C1221 C1223 1.390 1_556 S
C1221 H1225 0.950 . S
H1222 C1218 0.950 . S
C1223 C1221 1.390 1_554 S
C1223 C1224 1.387 . S
C1223 H1226 0.950 . S
C1224 C1223 1.387 . S
C1224 C1227 1.387 1_554 S
H1225 C1221 0.950 . S
H1226 C1223 0.950 . S
C1227 C1218 1.390 . S
C1227 H1220 0.950 . S
C1227 C1224 1.387 1_556 S
C1228 C1229 1.387 . S
C1228 H1232 0.950 . S
C1228 C1237 1.390 . S
C1229 C1228 1.387 . S
C1229 C1231 1.387 . S
H1230 C1237 0.950 . S
C1231 C1229 1.387 . S
C1231 C1233 1.390 . S
C1231 H1235 0.950 . S
H1232 C1228 0.950 . S
C1233 C1231 1.390 . S
C1233 C1234 1.387 . S
C1233 H1236 0.950 . S
C1234 C1233 1.387 . S
C1234 C1237 1.387 . S
H1235 C1231 0.950 . S
H1236 C1233 0.950 . S
C1237 C1228 1.390 . S
C1237 H1230 0.950 . S
C1237 C1234 1.387 . S
C1238 C1239 1.387 . S
C1238 H1242 0.950 . S
C1238 C1247 1.390 . S
C1239 C1238 1.387 . S
C1239 C1241 1.387 . S
H1240 C1247 0.950 . S
C1241 C1239 1.387 . S
C1241 C1243 1.390 . S
C1241 H1245 0.950 . S
H1242 C1238 0.950 . S
C1243 C1241 1.390 . S
C1243 C1244 1.387 . S
C1243 H1246 0.950 . S
C1244 C1243 1.387 . S
C1244 C1247 1.387 . S
H1245 C1241 0.950 . S
H1246 C1243 0.950 . S
C1247 C1238 1.390 . S
C1247 H1240 0.950 . S
C1247 C1244 1.387 . S
C1248 C1249 1.387 . S
C1248 H1252 0.950 . S
C1248 C1257 1.390 . S
C1249 C1248 1.387 . S
C1249 C1251 1.387 . S
H1250 C1257 0.950 . S
C1251 C1249 1.387 . S
C1251 C1253 1.390 . S
C1251 H1255 0.950 . S
H1252 C1248 0.950 . S
C1253 C1251 1.390 . S
C1253 C1254 1.387 . S
C1253 H1256 0.950 . S
C1254 C1253 1.387 . S
C1254 C1257 1.387 . S
H1255 C1251 0.950 . S
H1256 C1253 0.950 . S
C1257 C1248 1.390 . S
C1257 H1250 0.950 . S
C1257 C1254 1.387 . S
C1258 C1259 1.387 . S
C1258 H1262 0.950 . S
C1258 C1267 1.390 . S
C1259 C1258 1.387 . S
C1259 C1261 1.387 . S
H1260 C1267 0.950 . S
C1261 C1259 1.387 . S
C1261 C1263 1.390 . S
C1261 H1265 0.950 . S
H1262 C1258 0.950 . S
C1263 C1261 1.390 . S
C1263 C1264 1.387 . S
C1263 H1266 0.950 . S
C1264 C1263 1.387 . S
C1264 C1267 1.387 . S
H1265 C1261 0.950 . S
H1266 C1263 0.950 . S
C1267 C1258 1.390 . S
C1267 H1260 0.950 . S
C1267 C1264 1.387 . S
C1268 C1269 1.387 . S
C1268 H1272 0.950 . S
C1268 C1277 1.390 . S
C1269 C1268 1.387 . S
C1269 C1271 1.387 . S
H1270 C1277 0.950 . S
C1271 C1269 1.387 . S
C1271 C1273 1.390 . S
C1271 H1275 0.950 . S
H1272 C1268 0.950 . S
C1273 C1271 1.390 . S
C1273 C1274 1.387 . S
C1273 H1276 0.950 . S
C1274 C1273 1.387 . S
C1274 C1277 1.387 . S
H1275 C1271 0.950 . S
H1276 C1273 0.950 . S
C1277 C1268 1.390 . S
C1277 H1270 0.950 . S
C1277 C1274 1.387 . S
C1278 C1279 1.387 . S
C1278 H1282 0.950 . S
C1278 C1287 1.390 . S
C1279 C1278 1.387 . S
C1279 C1281 1.387 . S
H1280 C1287 0.950 . S
C1281 C1279 1.387 . S
C1281 C1283 1.390 . S
C1281 H1285 0.950 . S
H1282 C1278 0.950 . S
C1283 C1281 1.390 . S
C1283 C1284 1.387 . S
C1283 H1286 0.950 . S
C1284 C1283 1.387 . S
C1284 C1287 1.387 . S
H1285 C1281 0.950 . S
H1286 C1283 0.950 . S
C1287 C1278 1.390 . S
C1287 H1280 0.950 . S
C1287 C1284 1.387 . S
C1288 C1289 1.387 . S
C1288 H1292 0.950 . S
C1288 C1297 1.390 . S
C1289 C1288 1.387 . S
C1289 C1291 1.387 . S
H1290 C1297 0.950 . S
C1291 C1289 1.387 . S
C1291 C1293 1.390 . S
C1291 H1295 0.950 . S
H1292 C1288 0.950 . S
C1293 C1291 1.390 . S
C1293 C1294 1.387 . S
C1293 H1296 0.950 . S
C1294 C1293 1.387 . S
C1294 C1297 1.387 . S
H1295 C1291 0.950 . S
H1296 C1293 0.950 . S
C1297 C1288 1.390 . S
C1297 H1290 0.950 . S
C1297 C1294 1.387 . S
C1298 C1299 1.387 . S
C1298 H1302 0.950 . S
C1298 C1307 1.390 . S
C1299 C1298 1.387 . S
C1299 C1301 1.387 . S
H1300 C1307 0.950 . S
C1301 C1299 1.387 . S
C1301 C1303 1.390 . S
C1301 H1305 0.950 . S
H1302 C1298 0.950 . S
C1303 C1301 1.390 . S
C1303 C1304 1.387 . S
C1303 H1306 0.950 . S
C1304 C1303 1.387 . S
C1304 C1307 1.387 . S
H1305 C1301 0.950 . S
H1306 C1303 0.950 . S
C1307 C1298 1.390 . S
C1307 H1300 0.950 . S
C1307 C1304 1.387 . S
C1308 C1309 1.387 . S
C1308 H1312 0.950 . S
C1308 C1317 1.390 . S
C1309 C1308 1.387 . S
C1309 C1311 1.387 . S
H1310 C1317 0.950 . S
C1311 C1309 1.387 . S
C1311 C1313 1.390 . S
C1311 H1315 0.950 . S
H1312 C1308 0.950 . S
C1313 C1311 1.390 . S
C1313 C1314 1.387 . S
C1313 H1316 0.950 . S
C1314 C1313 1.387 . S
C1314 C1317 1.387 . S
H1315 C1311 0.950 . S
H1316 C1313 0.950 . S
C1317 C1308 1.390 . S
C1317 H1310 0.950 . S
C1317 C1314 1.387 . S
C1318 C1319 1.387 . S
C1318 H1322 0.950 . S
C1318 C1327 1.390 . S
C1319 C1318 1.387 . S
C1319 C1321 1.387 . S
H1320 C1327 0.950 . S
C1321 C1319 1.387 . S
C1321 C1323 1.390 . S
C1321 H1325 0.950 . S
H1322 C1318 0.950 . S
C1323 C1321 1.390 . S
C1323 C1324 1.387 . S
C1323 H1326 0.950 . S
C1324 C1323 1.387 . S
C1324 C1327 1.387 . S
H1325 C1321 0.950 . S
H1326 C1323 0.950 . S
C1327 C1318 1.390 . S
C1327 H1320 0.950 . S
C1327 C1324 1.387 . S
C1328 C1329 1.387 . S
C1328 H1332 0.950 . S
C1328 C1337 1.390 . S
C1329 C1328 1.387 . S
C1329 C1331 1.387 . S
H1330 C1337 0.950 . S
C1331 C1329 1.387 . S
C1331 C1333 1.390 . S
C1331 H1335 0.950 . S
H1332 C1328 0.950 . S
C1333 C1331 1.390 . S
C1333 C1334 1.387 . S
C1333 H1336 0.950 . S
C1334 C1333 1.387 . S
C1334 C1337 1.387 . S
H1335 C1331 0.950 . S
H1336 C1333 0.950 . S
C1337 C1328 1.390 . S
C1337 H1330 0.950 . S
C1337 C1334 1.387 . S
C1338 C1339 1.387 . S
C1338 H1342 0.950 . S
C1338 C1347 1.390 . S
C1339 C1338 1.387 . S
C1339 C1341 1.387 . S
H1340 C1347 0.950 . S
C1341 C1339 1.387 . S
C1341 C1343 1.390 . S
C1341 H1345 0.950 . S
H1342 C1338 0.950 . S
C1343 C1341 1.390 . S
C1343 C1344 1.387 . S
C1343 H1346 0.950 . S
C1344 C1343 1.387 . S
C1344 C1347 1.387 . S
H1345 C1341 0.950 . S
H1346 C1343 0.950 . S
C1347 C1338 1.390 . S
C1347 H1340 0.950 . S
C1347 C1344 1.387 . S
C1348 C1349 1.387 . S
C1348 H1352 0.950 . S
C1348 C1357 1.390 . S
C1349 C1348 1.387 . S
C1349 C1351 1.387 . S
H1350 C1357 0.950 . S
C1351 C1349 1.387 . S
C1351 C1353 1.390 . S
C1351 H1355 0.950 . S
H1352 C1348 0.950 . S
C1353 C1351 1.390 . S
C1353 C1354 1.387 . S
C1353 H1356 0.950 . S
C1354 C1353 1.387 . S
C1354 C1357 1.387 . S
H1355 C1351 0.950 . S
H1356 C1353 0.950 . S
C1357 C1348 1.390 . S
C1357 H1350 0.950 . S
C1357 C1354 1.387 . S
C1358 C1359 1.387 . S
C1358 H1362 0.950 . S
C1358 C1367 1.390 . S
C1359 C1358 1.387 . S
C1359 C1361 1.387 . S
H1360 C1367 0.950 . S
C1361 C1359 1.387 . S
C1361 C1363 1.390 . S
C1361 H1365 0.950 . S
H1362 C1358 0.950 . S
C1363 C1361 1.390 . S
C1363 C1364 1.387 . S
C1363 H1366 0.950 . S
C1364 C1363 1.387 . S
C1364 C1367 1.387 . S
H1365 C1361 0.950 . S
H1366 C1363 0.950 . S
C1367 C1358 1.390 . S
C1367 H1360 0.950 . S
C1367 C1364 1.387 . S
C1368 C1369 1.387 . S
C1368 H1372 0.950 . S
C1368 C1377 1.390 . S
C1369 C1368 1.387 . S
C1369 C1371 1.387 . S
H1370 C1377 0.950 . S
C1371 C1369 1.387 . S
C1371 C1373 1.390 . S
C1371 H1375 0.950 . S
H1372 C1368 0.950 . S
C1373 C1371 1.390 . S
C1373 C1374 1.387 . S
C1373 H1376 0.950 . S
C1374 C1373 1.387 . S
C1374 C1377 1.387 . S
H1375 C1371 0.950 . S
H1376 C1373 0.950 . S
C1377 C1368 1.390 . S
C1377 H1370 0.950 . S
C1377 C1374 1.387 . S
C1378 C1379 1.387 . S
C1378 H1382 0.950 . S
C1378 C1387 1.390 . S
C1379 C1378 1.387 . S
C1379 C1381 1.387 . S
H1380 C1387 0.950 . S
C1381 C1379 1.387 . S
C1381 C1383 1.390 . S
C1381 H1385 0.950 . S
H1382 C1378 0.950 . S
C1383 C1381 1.390 . S
C1383 C1384 1.387 . S
C1383 H1386 0.950 . S
C1384 C1383 1.387 . S
C1384 C1387 1.387 . S
H1385 C1381 0.950 . S
H1386 C1383 0.950 . S
C1387 C1378 1.390 . S
C1387 H1380 0.950 . S
C1387 C1384 1.387 . S
C1388 C1389 1.387 . S
C1388 H1392 0.950 . S
C1388 C1397 1.390 . S
C1389 C1388 1.387 . S
C1389 C1391 1.387 . S
H1390 C1397 0.950 . S
C1391 C1389 1.387 . S
C1391 C1393 1.390 . S
C1391 H1395 0.950 . S
H1392 C1388 0.950 . S
C1393 C1391 1.390 . S
C1393 C1394 1.387 . S
C1393 H1396 0.950 . S
C1394 C1393 1.387 . S
C1394 C1397 1.387 . S
H1395 C1391 0.950 . S
H1396 C1393 0.950 . S
C1397 C1388 1.390 . S
C1397 H1390 0.950 . S
C1397 C1394 1.387 . S
C1398 C1399 1.387 . S
C1398 H1402 0.950 . S
C1398 C1407 1.390 . S
C1399 C1398 1.387 . S
C1399 C1401 1.387 . S
H1400 C1407 0.950 . S
C1401 C1399 1.387 . S
C1401 C1403 1.390 1_655 S
C1401 H1405 0.950 . S
H1402 C1398 0.950 . S
C1403 C1401 1.390 1_455 S
C1403 C1404 1.387 . S
C1403 H1406 0.950 . S
C1404 C1403 1.387 . S
C1404 C1407 1.387 1_455 S
H1405 C1401 0.950 . S
H1406 C1403 0.950 . S
C1407 C1398 1.390 . S
C1407 H1400 0.950 . S
C1407 C1404 1.387 1_655 S
C1408 C1409 1.387 . S
C1408 H1412 0.950 . S
C1408 C1417 1.390 . S
C1409 C1408 1.387 . S
C1409 C1411 1.387 . S
H1410 C1417 0.950 . S
C1411 C1409 1.387 . S
C1411 C1413 1.390 . S
C1411 H1415 0.950 . S
H1412 C1408 0.950 . S
C1413 C1411 1.390 . S
C1413 C1414 1.387 . S
C1413 H1416 0.950 . S
C1414 C1413 1.387 . S
C1414 C1417 1.387 . S
H1415 C1411 0.950 . S
H1416 C1413 0.950 . S
C1417 C1408 1.390 . S
C1417 H1410 0.950 . S
C1417 C1414 1.387 . S
C1418 C1419 1.387 . S
C1418 H1422 0.950 . S
C1418 C1427 1.390 1_556 S
C1419 C1418 1.387 . S
C1419 C1421 1.387 . S
H1420 C1427 0.950 . S
C1421 C1419 1.387 . S
C1421 C1423 1.390 . S
C1421 H1425 0.950 . S
H1422 C1418 0.950 . S
C1423 C1421 1.390 . S
C1423 C1424 1.387 1_556 S
C1423 H1426 0.950 . S
C1424 C1423 1.387 1_554 S
C1424 C1427 1.387 . S
H1425 C1421 0.950 . S
H1426 C1423 0.950 . S
C1427 C1418 1.390 1_554 S
C1427 H1420 0.950 . S
C1427 C1424 1.387 . S
C1428 C1429 1.387 . S
C1428 H1432 0.950 . S
C1428 C1437 1.390 . S
C1429 C1428 1.387 . S
C1429 C1431 1.387 . S
H1430 C1437 0.950 . S
C1431 C1429 1.387 . S
C1431 C1433 1.390 . S
C1431 H1435 0.950 . S
H1432 C1428 0.950 . S
C1433 C1431 1.390 . S
C1433 C1434 1.387 . S
C1433 H1436 0.950 . S
C1434 C1433 1.387 . S
C1434 C1437 1.387 . S
H1435 C1431 0.950 . S
H1436 C1433 0.950 . S
C1437 C1428 1.390 . S
C1437 H1430 0.950 . S
C1437 C1434 1.387 . S
C1438 C1439 1.387 . S
C1438 H1442 0.950 . S
C1438 C1447 1.390 . S
C1439 C1438 1.387 . S
C1439 C1441 1.387 . S
H1440 C1447 0.950 . S
C1441 C1439 1.387 . S
C1441 C1443 1.390 . S
C1441 H1445 0.950 . S
H1442 C1438 0.950 . S
C1443 C1441 1.390 . S
C1443 C1444 1.387 . S
C1443 H1446 0.950 . S
C1444 C1443 1.387 . S
C1444 C1447 1.387 . S
H1445 C1441 0.950 . S
H1446 C1443 0.950 . S
C1447 C1438 1.390 . S
C1447 H1440 0.950 . S
C1447 C1444 1.387 . S
C1448 C1449 1.387 . S
C1448 H1452 0.950 . S
C1448 C1457 1.390 . S
C1449 C1448 1.387 . S
C1449 C1451 1.387 . S
H1450 C1457 0.950 . S
C1451 C1449 1.387 . S
C1451 C1453 1.390 . S
C1451 H1455 0.950 . S
H1452 C1448 0.950 . S
C1453 C1451 1.390 . S
C1453 C1454 1.387 . S
C1453 H1456 0.950 . S
C1454 C1453 1.387 . S
C1454 C1457 1.387 . S
H1455 C1451 0.950 . S
H1456 C1453 0.950 . S
C1457 C1448 1.390 . S
C1457 H1450 0.950 . S
C1457 C1454 1.387 . S
C1458 C1459 1.387 . S
C1458 H1462 0.950 . S
C1458 C1467 1.390 1_554 S
C1459 C1458 1.387 . S
C1459 C1461 1.387 . S
H1460 C1467 0.950 . S
C1461 C1459 1.387 . S
C1461 C1463 1.390 . S
C1461 H1465 0.950 . S
H1462 C1458 0.950 . S
C1463 C1461 1.390 . S
C1463 C1464 1.387 1_554 S
C1463 H1466 0.950 . S
C1464 C1463 1.387 1_556 S
C1464 C1467 1.387 . S
H1465 C1461 0.950 . S
H1466 C1463 0.950 . S
C1467 C1458 1.390 1_556 S
C1467 H1460 0.950 . S
C1467 C1464 1.387 . S
C1468 C1469 1.387 . S
C1468 H1472 0.950 . S
C1468 C1477 1.390 . S
C1469 C1468 1.387 . S
C1469 C1471 1.387 . S
H1470 C1477 0.950 . S
C1471 C1469 1.387 . S
C1471 C1473 1.390 . S
C1471 H1475 0.950 . S
H1472 C1468 0.950 . S
C1473 C1471 1.390 . S
C1473 C1474 1.387 . S
C1473 H1476 0.950 . S
C1474 C1473 1.387 . S
C1474 C1477 1.387 . S
H1475 C1471 0.950 . S
H1476 C1473 0.950 . S
C1477 C1468 1.390 . S
C1477 H1470 0.950 . S
C1477 C1474 1.387 . S
C1478 C1479 1.387 . S
C1478 H1482 0.950 . S
C1478 C1487 1.390 . S
C1479 C1478 1.387 . S
C1479 C1481 1.387 . S
H1480 C1487 0.950 . S
C1481 C1479 1.387 . S
C1481 C1483 1.390 . S
C1481 H1485 0.950 . S
H1482 C1478 0.950 . S
C1483 C1481 1.390 . S
C1483 C1484 1.387 . S
C1483 H1486 0.950 . S
C1484 C1483 1.387 . S
C1484 C1487 1.387 . S
H1485 C1481 0.950 . S
H1486 C1483 0.950 . S
C1487 C1478 1.390 . S
C1487 H1480 0.950 . S
C1487 C1484 1.387 . S
C1488 C1489 1.387 . S
C1488 H1492 0.950 . S
C1488 C1497 1.390 . S
C1489 C1488 1.387 . S
C1489 C1491 1.387 . S
H1490 C1497 0.950 . S
C1491 C1489 1.387 . S
C1491 C1493 1.390 . S
C1491 H1495 0.950 . S
H1492 C1488 0.950 . S
C1493 C1491 1.390 . S
C1493 C1494 1.387 . S
C1493 H1496 0.950 . S
C1494 C1493 1.387 . S
C1494 C1497 1.387 . S
H1495 C1491 0.950 . S
H1496 C1493 0.950 . S
C1497 C1488 1.390 . S
C1497 H1490 0.950 . S
C1497 C1494 1.387 . S
C1498 C1499 1.387 . S
C1498 H1502 0.950 . S
C1498 C1507 1.390 . S
C1499 C1498 1.387 . S
C1499 C1501 1.387 . S
H1500 C1507 0.950 . S
C1501 C1499 1.387 . S
C1501 C1503 1.390 . S
C1501 H1505 0.950 . S
H1502 C1498 0.950 . S
C1503 C1501 1.390 . S
C1503 C1504 1.387 . S
C1503 H1506 0.950 . S
C1504 C1503 1.387 . S
C1504 C1507 1.387 . S
H1505 C1501 0.950 . S
H1506 C1503 0.950 . S
C1507 C1498 1.390 . S
C1507 H1500 0.950 . S
C1507 C1504 1.387 . S
C1508 C1509 1.387 . S
C1508 H1512 0.950 . S
C1508 C1517 1.390 . S
C1509 C1508 1.387 . S
C1509 C1511 1.387 . S
H1510 C1517 0.950 . S
C1511 C1509 1.387 . S
C1511 C1513 1.390 . S
C1511 H1515 0.950 . S
H1512 C1508 0.950 . S
C1513 C1511 1.390 . S
C1513 C1514 1.387 . S
C1513 H1516 0.950 . S
C1514 C1513 1.387 . S
C1514 C1517 1.387 . S
H1515 C1511 0.950 . S
H1516 C1513 0.950 . S
C1517 C1508 1.390 . S
C1517 H1510 0.950 . S
C1517 C1514 1.387 . S
C1518 C1519 1.387 . S
C1518 H1522 0.950 . S
C1518 C1527 1.390 . S
C1519 C1518 1.387 . S
C1519 C1521 1.387 . S
H1520 C1527 0.950 . S
C1521 C1519 1.387 . S
C1521 C1523 1.390 . S
C1521 H1525 0.950 . S
H1522 C1518 0.950 . S
C1523 C1521 1.390 . S
C1523 C1524 1.387 . S
C1523 H1526 0.950 . S
C1524 C1523 1.387 . S
C1524 C1527 1.387 . S
H1525 C1521 0.950 . S
H1526 C1523 0.950 . S
C1527 C1518 1.390 . S
C1527 H1520 0.950 . S
C1527 C1524 1.387 . S
C1528 C1529 1.387 . S
C1528 H1532 0.950 . S
C1528 C1537 1.390 . S
C1529 C1528 1.387 . S
C1529 C1531 1.387 . S
H1530 C1537 0.950 . S
C1531 C1529 1.387 . S
C1531 C1533 1.390 . S
C1531 H1535 0.950 . S
H1532 C1528 0.950 . S
C1533 C1531 1.390 . S
C1533 C1534 1.387 . S
C1533 H1536 0.950 . S
C1534 C1533 1.387 . S
C1534 C1537 1.387 . S
H1535 C1531 0.950 . S
H1536 C1533 0.950 . S
C1537 C1528 1.390 . S
C1537 H1530 0.950 . S
C1537 C1534 1.387 . S
C1538 C1539 1.387 . S
C1538 H1542 0.950 . S
C1538 C1547 1.390 . S
C1539 C1538 1.387 . S
C1539 C1541 1.387 . S
H1540 C1547 0.950 . S
C1541 C1539 1.387 . S
C1541 C1543 1.390 . S
C1541 H1545 0.950 1_556 S
H1542 C1538 0.950 . S
C1543 C1541 1.390 . S
C1543 C1544 1.387 . S
C1543 H1546 0.950 . S
C1544 C1543 1.387 . S
C1544 C1547 1.387 . S
H1545 C1541 0.950 1_554 S
H1546 C1543 0.950 . S
C1547 C1538 1.390 . S
C1547 H1540 0.950 . S
C1547 C1544 1.387 . S
C1548 C1549 1.387 . S
C1548 H1552 0.950 . S
C1548 C1557 1.390 . S
C1549 C1548 1.387 . S
C1549 C1551 1.387 . S
H1550 C1557 0.950 . S
C1551 C1549 1.387 . S
C1551 C1553 1.390 . S
C1551 H1555 0.950 . S
H1552 C1548 0.950 . S
C1553 C1551 1.390 . S
C1553 C1554 1.387 . S
C1553 H1556 0.950 . S
C1554 C1553 1.387 . S
C1554 C1557 1.387 . S
H1555 C1551 0.950 . S
H1556 C1553 0.950 . S
C1557 C1548 1.390 . S
C1557 H1550 0.950 . S
C1557 C1554 1.387 . S
C1558 C1559 1.387 . S
C1558 H1562 0.950 . S
C1558 C1567 1.390 . S
C1559 C1558 1.387 . S
C1559 C1561 1.387 . S
H1560 C1567 0.950 . S
C1561 C1559 1.387 . S
C1561 C1563 1.390 . S
C1561 H1565 0.950 . S
H1562 C1558 0.950 . S
C1563 C1561 1.390 . S
C1563 C1564 1.387 . S
C1563 H1566 0.950 . S
C1564 C1563 1.387 . S
C1564 C1567 1.387 . S
H1565 C1561 0.950 . S
H1566 C1563 0.950 . S
C1567 C1558 1.390 . S
C1567 H1560 0.950 . S
C1567 C1564 1.387 . S
C1568 C1569 1.387 . S
C1568 H1572 0.950 . S
C1568 C1577 1.390 . S
C1569 C1568 1.387 . S
C1569 C1571 1.387 . S
H1570 C1577 0.950 . S
C1571 C1569 1.387 . S
C1571 C1573 1.390 . S
C1571 H1575 0.950 . S
H1572 C1568 0.950 . S
C1573 C1571 1.390 . S
C1573 C1574 1.387 . S
C1573 H1576 0.950 . S
C1574 C1573 1.387 . S
C1574 C1577 1.387 . S
H1575 C1571 0.950 . S
H1576 C1573 0.950 . S
C1577 C1568 1.390 . S
C1577 H1570 0.950 . S
C1577 C1574 1.387 . S
C1578 C1579 1.387 . S
C1578 H1582 0.950 . S
C1578 C1587 1.390 . S
C1579 C1578 1.387 . S
C1579 C1581 1.387 . S
H1580 C1587 0.950 . S
C1581 C1579 1.387 . S
C1581 C1583 1.390 . S
C1581 H1585 0.950 . S
H1582 C1578 0.950 . S
C1583 C1581 1.390 . S
C1583 C1584 1.387 . S
C1583 H1586 0.950 . S
C1584 C1583 1.387 . S
C1584 C1587 1.387 . S
H1585 C1581 0.950 . S
H1586 C1583 0.950 . S
C1587 C1578 1.390 . S
C1587 H1580 0.950 . S
C1587 C1584 1.387 . S
C1588 C1589 1.387 . S
C1588 H1592 0.950 . S
C1588 C1597 1.390 . S
C1589 C1588 1.387 . S
C1589 C1591 1.387 . S
H1590 C1597 0.950 . S
C1591 C1589 1.387 . S
C1591 C1593 1.390 . S
C1591 H1595 0.950 . S
H1592 C1588 0.950 . S
C1593 C1591 1.390 . S
C1593 C1594 1.387 . S
C1593 H1596 0.950 . S
C1594 C1593 1.387 . S
C1594 C1597 1.387 . S
H1595 C1591 0.950 . S
H1596 C1593 0.950 . S
C1597 C1588 1.390 . S
C1597 H1590 0.950 . S
C1597 C1594 1.387 . S
C1598 C1599 1.387 . S
C1598 H1602 0.950 . S
C1598 C1607 1.390 . S
C1599 C1598 1.387 . S
C1599 C1601 1.387 . S
H1600 C1607 0.950 . S
C1601 C1599 1.387 . S
C1601 C1603 1.390 . S
C1601 H1605 0.950 . S
H1602 C1598 0.950 . S
C1603 C1601 1.390 . S
C1603 C1604 1.387 . S
C1603 H1606 0.950 . S
C1604 C1603 1.387 . S
C1604 C1607 1.387 . S
H1605 C1601 0.950 . S
H1606 C1603 0.950 . S
C1607 C1598 1.390 . S
C1607 H1600 0.950 . S
C1607 C1604 1.387 . S
C1608 C1609 1.387 . S
C1608 H1612 0.950 . S
C1608 C1617 1.390 . S
C1609 C1608 1.387 . S
C1609 C1611 1.387 . S
H1610 C1617 0.950 . S
C1611 C1609 1.387 . S
C1611 C1613 1.390 . S
C1611 H1615 0.950 . S
H1612 C1608 0.950 . S
C1613 C1611 1.390 . S
C1613 C1614 1.387 . S
C1613 H1616 0.950 . S
C1614 C1613 1.387 . S
C1614 C1617 1.387 . S
H1615 C1611 0.950 . S
H1616 C1613 0.950 . S
C1617 C1608 1.390 . S
C1617 H1610 0.950 . S
C1617 C1614 1.387 . S
C1618 C1619 1.387 . S
C1618 H1622 0.950 . S
C1618 C1627 1.390 . S
C1619 C1618 1.387 . S
C1619 C1621 1.387 . S
H1620 C1627 0.950 . S
C1621 C1619 1.387 . S
C1621 C1623 1.390 . S
C1621 H1625 0.950 . S
H1622 C1618 0.950 . S
C1623 C1621 1.390 . S
C1623 C1624 1.387 . S
C1623 H1626 0.950 . S
C1624 C1623 1.387 . S
C1624 C1627 1.387 . S
H1625 C1621 0.950 . S
H1626 C1623 0.950 . S
C1627 C1618 1.390 . S
C1627 H1620 0.950 . S
C1627 C1624 1.387 . S
C1628 C1629 1.387 . S
C1628 H1632 0.950 . S
C1628 C1637 1.390 . S
C1629 C1628 1.387 . S
C1629 C1631 1.387 . S
H1630 C1637 0.950 . S
C1631 C1629 1.387 . S
C1631 C1633 1.390 . S
C1631 H1635 0.950 . S
H1632 C1628 0.950 . S
C1633 C1631 1.390 . S
C1633 C1634 1.387 . S
C1633 H1636 0.950 . S
C1634 C1633 1.387 . S
C1634 C1637 1.387 . S
H1635 C1631 0.950 . S
H1636 C1633 0.950 . S
C1637 C1628 1.390 . S
C1637 H1630 0.950 . S
C1637 C1634 1.387 . S
C1638 C1639 1.387 . S
C1638 H1642 0.950 . S
C1638 C1647 1.390 . S
C1639 C1638 1.387 . S
C1639 C1641 1.387 . S
H1640 C1647 0.950 1_655 S
C1641 C1639 1.387 . S
C1641 C1643 1.390 . S
C1641 H1645 0.950 . S
H1642 C1638 0.950 . S
C1643 C1641 1.390 . S
C1643 C1644 1.387 1_455 S
C1643 H1646 0.950 1_455 S
C1644 C1643 1.387 1_655 S
C1644 C1647 1.387 1_655 S
H1645 C1641 0.950 . S
H1646 C1643 0.950 1_655 S
C1647 C1638 1.390 . S
C1647 H1640 0.950 1_455 S
C1647 C1644 1.387 1_455 S
C694 C354 1.338 . S
C689 C7 1.347 . S
C699 C23 1.307 . S
C704 C366 1.292 . S
C714 C401 1.231 . S
C709 C36 1.268 . S
C724 C410 1.284 . S
C719 C45 1.299 . S
C734 C365 1.288 . S
C729 C59 1.331 . S
C739 C78 1.243 . S
C744 C390 1.231 . S
C754 C409 1.278 . S
C749 C93 1.320 . S
C759 C105 1.398 . S
C764 C351 1.360 . S
C769 C115 1.376 . S
C774 C344 1.360 . S
C784 C368 1.294 . S
C779 C133 1.301 . S
C794 C387 1.264 . S
C789 C148 1.304 . S
C804 C412 1.265 . S
C799 C163 1.281 . S
C814 C373 1.228 . S
C809 C121 1.267 . S
C824 C398 1.259 . S
C819 C134 1.268 . S
C829 C147 1.314 . S
C834 C417 1.279 . S
C844 C357 1.338 . S
C839 C157 1.384 . S
C849 C175 1.343 . S
C854 C346 1.333 . S
C859 C191 1.334 . S
C864 C445 1.303 . S
C874 C461 1.258 . S
C869 C199 1.302 . S
C884 C475 1.230 . S
C879 C218 1.264 . S
C889 C231 1.372 . S
C894 C343 1.336 . S
C899 C241 1.316 . S
C904 C395 1.266 . S
C914 C478 1.310 . S
C909 C205 1.325 . S
C924 C442 1.265 . S
C919 C260 1.280 . S
C934 C498 1.174 . S
C929 C22 1.174 . S
C944 C522 1.296 . S
C939 C9 1.282 . S
C949 C49 1.330 . S
C954 C555 1.310 . S
C959 C31 1.281 . S
C964 C563 1.257 . S
C969 C101 1.283 . S
C974 C533 1.256 . S
C979 C91 1.321 . S
C984 C544 1.313 . S
C994 C564 1.309 . S
C989 C79 1.300 . S
C999 C64 1.213 . S
C1004 C497 1.196 . S
C1009 C274 1.173 . S
C1014 C500 1.169 . S
C1024 C530 1.242 . S
C1019 C213 1.249 . S
C1034 C541 1.337 . S
C1029 C233 1.335 . S
C1044 C571 1.308 . S
C1039 C189 1.325 . S
C1054 C519 1.299 . S
C1049 C273 1.318 . S
C1064 C552 1.312 . S
C1059 C219 1.301 . S
C1074 C566 1.243 . S
C1069 C227 1.260 . S
C1079 C190 1.219 . S
C1084 C505 1.193 . S
C1094 C508 1.184 . S
C1089 C289 1.174 . S
C1099 C162 1.295 . S
C1104 C596 1.293 . S
C1114 C608 1.266 . S
C1109 C301 1.272 . S
C1119 C129 1.328 . S
C1124 C629 1.307 . S
C1134 C511 1.233 . S
C1129 C149 1.234 . S
C1144 C549 1.251 . S
C1139 C315 1.276 . S
C1154 C632 1.251 . S
C1149 C302 1.255 . S
C1159 C325 1.311 . S
C1164 C599 1.294 . S
C1169 C35 1.363 . S
C1174 C654 1.354 . S
C1179 C51 1.297 . S
C1184 C432 1.285 . S
C1194 C456 1.210 . S
C1189 C8 1.224 . S
C1199 C17 1.306 . S
C1204 C486 1.286 . S
C1209 C87 1.316 . S
C1214 C431 1.275 . S
C1219 C106 1.264 . S
C1224 C467 1.227 . S
C1234 C483 1.289 . S
C1229 C65 1.335 . S
C1244 C665 1.337 . S
C1239 C77 1.377 . S
C1254 C662 1.342 . S
C1249 C297 1.361 . S
C1264 C434 1.287 . S
C1259 C287 1.295 . S
C1274 C464 1.282 . S
C1269 C330 1.294 . S
C1279 C317 1.292 . S
C1284 C476 1.276 . S
C1294 C439 1.231 . S
C1289 C303 1.275 . S
C1299 C288 1.273 . S
C1304 C453 1.235 . S
C1314 C489 1.272 . S
C1309 C329 1.306 . S
C1319 C311 1.399 . S
C1324 C651 1.352 . S
C1334 C652 1.334 . S
C1329 C217 1.343 . S
C1339 C247 1.337 . S
C1344 C379 1.291 . S
C1354 C388 1.246 . S
C1349 C269 1.263 . S
C1359 C176 1.262 . S
C1364 C423 1.228 . S
C1374 C659 1.328 . S
C1369 C259 1.365 . S
C1384 C454 1.272 . S
C1379 C185 1.288 . S
C1394 C420 1.306 . S
C1389 C275 1.319 . S
C1404 C376 1.248 . S
C1399 C232 1.262 . S
C1409 C50 1.210 . S
C1414 C673 1.196 . S
C1419 C37 1.308 . S
C1424 C585 1.307 . S
C1429 C21 1.333 . S
C1434 C621 1.314 . S
C1444 C640 1.228 . S
C1439 C3 1.238 . S
C1454 C586 1.234 . S
C1449 C73 1.244 . S
C1459 C63 1.326 . S
C1464 C610 1.318 . S
C1474 C637 1.324 . S
C1469 C107 1.328 . S
C1479 C92 1.196 . S
C1484 C674 1.190 . S
C1494 C681 1.203 . S
C1489 C204 1.210 . S
C1499 C171 1.263 . S
C1504 C593 1.238 . S
C1509 C261 1.333 . S
C1514 C607 1.331 . S
C1524 C630 1.296 . S
C1519 C245 1.298 . S
C1534 C588 1.290 . S
C1529 C203 1.295 . S
C1539 C177 1.303 . S
C1544 C618 1.312 . S
C1554 C643 1.250 . S
C1549 C255 1.275 . S
C1564 C676 1.195 . S
C1559 C246 1.197 . S
C1574 C687 1.197 . S
C1569 C135 1.203 . S
C1584 C527 1.319 . S
C1579 C316 1.333 . S
C1589 C119 1.273 . S
C1594 C542 1.264 . S
C1599 C283 1.307 . S
C1604 C574 1.306 . S
C1614 C684 1.220 . S
C1609 C331 1.216 . S
C1624 C615 1.247 . S
C1619 C161 1.272 . S
C1634 C577 1.280 . S
C1629 C120 1.296 . S
C1644 C520 1.292 . S
C1639 C143 1.295 . S
