# Generated by pormake.
# Topology pth, (4,4)-cn, num edge types: 1
# Building blocks:
#     Node 0, Type 0, BuildingBlock: KUFVIS_clean_sbu_0, # of connection points: 4
#     Node 1, Type 0, BuildingBlock: KUFVIS_clean_sbu_0, # of connection points: 4
#     Node 2, Type 0, BuildingBlock: KUFVIS_clean_sbu_0, # of connection points: 4
#     Node 3, Type 1, BuildingBlock: MUDLON_clean_sbu_0, # of connection points: 4
#     Node 4, Type 1, BuildingBlock: MUDLON_clean_sbu_0, # of connection points: 4
#     Node 5, Type 1, BuildingBlock: MUDLON_clean_sbu_0, # of connection points: 4
#     Edge 6, Type (0, 1), BuildingBlock: XUDNAN_clean_linker_2, # of connection points: 2
#     Edge 7, Type (0, 1), BuildingBlock: XUDNAN_clean_linker_2, # of connection points: 2
#     Edge 8, Type (0, 1), BuildingBlock: XUDNAN_clean_linker_2, # of connection points: 2
#     Edge 9, Type (0, 1), BuildingBlock: XUDNAN_clean_linker_2, # of connection points: 2
#     Edge 10, Type (0, 1), BuildingBlock: XUDNAN_clean_linker_2, # of connection points: 2
#     Edge 11, Type (0, 1), BuildingBlock: XUDNAN_clean_linker_2, # of connection points: 2
#     Edge 12, Type (0, 1), BuildingBlock: XUDNAN_clean_linker_2, # of connection points: 2
#     Edge 13, Type (0, 1), BuildingBlock: XUDNAN_clean_linker_2, # of connection points: 2
#     Edge 14, Type (0, 1), BuildingBlock: XUDNAN_clean_linker_2, # of connection points: 2
#     Edge 15, Type (0, 1), BuildingBlock: XUDNAN_clean_linker_2, # of connection points: 2
#     Edge 16, Type (0, 1), BuildingBlock: XUDNAN_clean_linker_2, # of connection points: 2
#     Edge 17, Type (0, 1), BuildingBlock: XUDNAN_clean_linker_2, # of connection points: 2
# Relax obj value: 0.022
# Max RMSD: 0.096
# Mean RMSD: 0.069
data_MOF--net-pth--node1-KUFVIS_clean_sbu_0--node2-MUDLON_clean_sbu_0--edge1-XUDNAN_clean_linker_2
_symmetry_space_group_name_H-M    P1
_symmetry_Int_Tables_number       1
_symmetry_cell_setting            triclinic
loop_
_symmetry_equiv_pos_as_xyz
'x, y, z'
_cell_length_a     22.409971
_cell_length_b     22.445736
_cell_length_c     60.590441
_cell_angle_alpha  90.446483
_cell_angle_beta   91.856192
_cell_angle_gamma 120.39817
loop_
_atom_site_label
_atom_site_type_symbol
_atom_site_fract_x
_atom_site_fract_y
_atom_site_fract_z
_atom_type_partial_charge
Mn0 Mn 0.06712 0.12852 0.09059 0.0
Mn1 Mn 0.01365 0.22705 0.06479 0.0
C2 C 0.99635 0.08696 0.0589 0.0
C3 C 0.05152 0.04793 0.11719 0.0
C4 C 0.15969 0.25118 0.06231 0.0
O5 O 0.08247 0.20003 0.11419 0.0
O6 O 0.03907 0.25869 0.09643 0.0
C7 C 0.88614 0.18764 0.0887 0.0
N8 N 0.91772 0.19261 0.0694 0.0
C9 C 0.80956 0.1465 0.04849 0.0
C10 C 0.77602 0.14131 0.06813 0.0
C11 C 0.81449 0.16191 0.08832 0.0
C12 C 0.88125 0.1733 0.04986 0.0
H13 H 0.91532 0.20306 0.10429 0.0
C14 C 0.06407 0.24537 0.11383 0.0
O15 O 0.11242 0.08951 0.10987 0.0
O16 O 1.00045 0.05391 0.10922 0.0
N17 N 0.98534 0.19967 0.03444 0.0
C18 C 0.02398 0.20105 0.01733 0.0
C19 C 0.99264 0.17932 0.9961 0.0
C20 C 0.92183 0.15597 0.99269 0.0
C21 C 0.88284 0.15399 0.01059 0.0
C22 C 0.91707 0.17709 0.03134 0.0
H23 H 0.07795 0.21734 0.01992 0.0
O24 O 0.03521 0.06178 0.0648 0.0
O25 O 1.00104 0.13626 0.07154 0.0
O26 O 0.1503 0.20041 0.074 0.0
O27 O 0.11267 0.26636 0.05828 0.0
C28 C 0.81098 0.12817 1.00876 0.0
C29 C 0.77437 0.12448 0.02769 0.0
H30 H 0.72065 0.12087 0.06793 0.0
H31 H 0.78892 0.15773 0.10356 0.0
H32 H 0.02285 0.17992 0.98243 0.0
H33 H 0.89767 0.13863 0.97633 0.0
H34 H 0.78313 0.10982 0.99294 0.0
H35 H 0.71894 0.10345 0.02614 0.0
Mn36 Mn 0.05904 0.1308 0.41747 0.0
Mn37 Mn 0.141 0.28498 0.44529 0.0
C38 C 0.13628 0.14959 0.44678 0.0
C39 C 0.04522 0.05294 0.38922 0.0
C40 C 0.99052 0.17708 0.45116 0.0
O41 O 0.0503 0.1956 0.39577 0.0
O42 O 0.11014 0.29627 0.41532 0.0
C43 C 0.26368 0.35998 0.41801 0.0
N44 N 0.23618 0.33661 0.43802 0.0
C45 C 0.34949 0.38994 0.456 0.0
C46 C 0.37899 0.41485 0.4356 0.0
C47 C 0.33588 0.39965 0.41652 0.0
C48 C 0.27719 0.3509 0.45648 0.0
H49 H 0.2308 0.34845 0.40329 0.0
C50 C 0.07728 0.26116 0.39776 0.0
O51 O 0.99322 0.04815 0.39943 0.0
O52 O 0.10623 0.10463 0.39499 0.0
N53 N 0.17502 0.28189 0.47439 0.0
C54 C 0.13859 0.25034 0.4925 0.0
C55 C 0.17418 0.25884 0.51285 0.0
C56 C 0.24671 0.29988 0.51439 0.0
C57 C 0.28305 0.332 0.49556 0.0
C58 C 0.24476 0.32222 0.47577 0.0
H59 H 0.08284 0.21884 0.49145 0.0
O60 O 0.08808 0.08721 0.44096 0.0
O61 O 0.13755 0.19915 0.43547 0.0
O62 O 0.98922 0.13275 0.43772 0.0
O63 O 0.04406 0.23659 0.45475 0.0
C64 C 0.35582 0.3723 0.49556 0.0
C65 C 0.38903 0.40115 0.47578 0.0
H66 H 0.43468 0.44519 0.43437 0.0
H67 H 0.35828 0.41846 0.40071 0.0
H68 H 0.14577 0.23373 0.52731 0.0
H69 H 0.27404 0.30594 0.53008 0.0
H70 H 0.3868 0.3805 0.5106 0.0
H71 H 0.44505 0.43112 0.47592 0.0
Mn72 Mn 0.07406 0.11212 0.75705 0.0
Mn73 Mn 1.00178 0.19439 0.78213 0.0
C74 C 0.13445 0.19246 0.78548 0.0
C75 C 0.13551 0.09749 0.72915 0.0
C76 C 0.96094 0.04596 0.79082 0.0
O77 O 0.99733 0.09864 0.73485 0.0
O78 O 0.95716 0.15954 0.75239 0.0
C79 C 0.04771 0.31316 0.75266 0.0
N80 N 0.04449 0.28823 0.77328 0.0
C81 C 0.10421 0.40308 0.78954 0.0
C82 C 0.10783 0.42998 0.76849 0.0
C83 C 0.07965 0.38482 0.74997 0.0
C84 C 0.07168 0.33123 0.7912 0.0
H85 H 0.02607 0.27863 0.73838 0.0
C86 C 0.95789 0.12428 0.7358 0.0
O87 O 0.09047 0.04614 0.74022 0.0
O88 O 0.14502 0.15828 0.73417 0.0
N89 N 0.04034 0.23191 0.81101 0.0
C90 C 0.03557 0.19783 0.82998 0.0
C91 C 0.06231 0.23559 0.84999 0.0
C92 C 0.09348 0.30789 0.85031 0.0
C93 C 0.09731 0.34177 0.83062 0.0
C94 C 0.06896 0.30133 0.81122 0.0
H95 H 1.01143 0.14225 0.82987 0.0
O96 O 0.1496 0.14526 0.78064 0.0
O97 O 0.08458 0.19141 0.77359 0.0
O98 O 1.00409 0.044 0.77816 0.0
O99 O 0.9544 0.09894 0.793 0.0
C100 C 0.12905 0.41414 0.82942 0.0
C101 C 0.13268 0.44479 0.80888 0.0
H102 H 0.13262 0.48523 0.76633 0.0
H103 H 0.08251 0.4052 0.73366 0.0
H104 H 0.05892 0.209 0.86513 0.0
H105 H 0.1146 0.33691 0.86575 0.0
H106 H 0.15174 0.44675 0.84413 0.0
H107 H 0.15814 0.50053 0.80811 0.0
Mg108 Mg 0.07277 0.63687 0.2522 0.0
C109 C 0.14354 0.61329 0.29128 0.0
O110 O 0.11796 0.647 0.30126 0.0
C111 C 0.04106 0.70647 0.22059 0.0
O112 O 0.98512 0.65505 0.22867 0.0
C113 C 1.00512 0.48597 0.23992 0.0
O114 O 0.01916 0.48315 0.26097 0.0
O115 O 1.01084 0.54164 0.23279 0.0
O116 O 0.14431 0.61347 0.27027 0.0
O117 O 0.02492 0.67118 0.27608 0.0
C118 C 0.06611 0.73428 0.28177 0.0
O119 O 0.1276 0.76644 0.27331 0.0
O120 O 0.0996 0.71517 0.22723 0.0
Mg121 Mg 0.55215 0.12595 0.58701 0.0
C122 C 0.45746 0.14315 0.55852 0.0
O123 O 0.42451 0.07916 0.56516 0.0
C124 C 0.63863 0.15299 0.62858 0.0
O125 O 0.5771 0.10764 0.63522 0.0
C126 C 0.45354 0.11646 0.61769 0.0
O127 O 0.49528 0.18203 0.61366 0.0
O128 O 0.46366 0.07177 0.60806 0.0
O129 O 0.51979 0.18303 0.56558 0.0
O130 O 0.58691 0.07841 0.56298 0.0
C131 C 0.64155 0.12822 0.55524 0.0
O132 O 0.6619 0.19125 0.56252 0.0
O133 O 0.64388 0.1772 0.60934 0.0
Mg134 Mg 0.56298 0.62177 0.92804 0.0
C135 C 0.44788 0.51899 0.90085 0.0
O136 O 0.47767 0.48728 0.91003 0.0
C137 C 0.66358 0.74694 0.95217 0.0
O138 O 0.69887 0.72053 0.94387 0.0
C139 C 0.55254 0.54541 0.97144 0.0
O140 O 0.60405 0.60491 0.97903 0.0
O141 O 0.5337 0.53817 0.9511 0.0
O142 O 0.4712 0.58233 0.90606 0.0
O143 O 0.64369 0.65296 0.90411 0.0
C144 C 0.6455 0.70298 0.89371 0.0
O145 O 0.60032 0.72157 0.89849 0.0
O146 O 0.5983 0.71558 0.94826 0.0
H147 H 0.03454 0.34925 0.12103 0.0
H148 H 0.08901 0.21288 0.15532 0.0
H149 H 0.07142 0.25389 0.19095 0.0
H150 H 0.11922 0.49158 0.16144 0.0
H151 H 0.05344 0.51491 0.15825 0.0
H152 H 0.07132 0.4752 0.13545 0.0
H153 H 0.94189 0.3794 0.13253 0.0
H154 H 0.9239 0.41809 0.15563 0.0
H155 H 0.90186 0.32898 0.15635 0.0
H156 H 0.04273 0.30517 0.22285 0.0
H157 H 0.02188 0.37614 0.24922 0.0
H158 H 0.98875 0.48161 0.19454 0.0
C159 C 0.04368 0.32858 0.13602 0.0
C160 C 0.06321 0.27768 0.13523 0.0
C161 C 0.07443 0.2521 0.15534 0.0
C162 C 0.06399 0.27464 0.17573 0.0
C163 C 0.04281 0.32321 0.17584 0.0
C164 C 0.03404 0.35091 0.15657 0.0
C165 C 1.01278 0.40383 0.16138 0.0
C166 C 0.06746 0.47563 0.15368 0.0
C167 C 0.94083 0.38119 0.15084 0.0
C168 C 1.01102 0.4015 0.18637 0.0
C169 C 0.02764 0.35397 0.19433 0.0
C170 C 0.0299 0.34277 0.21684 0.0
C171 C 0.01745 0.38308 0.2317 0.0
C172 C 1.00361 0.43458 0.22402 0.0
C173 C 0.99875 0.44249 0.20098 0.0
H174 H 0.97134 0.25494 0.48237 0.0
H175 H 0.86827 0.05237 0.44969 0.0
H176 H 0.76759 0.01607 0.47285 0.0
H177 H 0.91398 0.19709 0.53634 0.0
H178 H 0.90303 0.26909 0.54333 0.0
H179 H 0.96625 0.27936 0.52381 0.0
H180 H 0.90961 0.3216 0.49467 0.0
H181 H 0.8465 0.31188 0.51415 0.0
H182 H 0.81851 0.26848 0.48746 0.0
H183 H 0.67823 1.00076 0.50092 0.0
H184 H 0.60755 0.01137 0.52978 0.0
H185 H 0.77022 0.22385 0.54304 0.0
C186 C 0.9275 0.20309 0.4799 0.0
C187 C 0.92806 0.15674 0.46411 0.0
C188 C 0.86936 0.08917 0.4616 0.0
C189 C 0.81181 0.06786 0.47474 0.0
C190 C 0.81341 0.11465 0.49031 0.0
C191 C 0.86964 0.18102 0.4928 0.0
C192 C 0.85884 0.22151 0.5107 0.0
C193 C 0.91378 0.243 0.52966 0.0
C194 C 0.85831 0.28458 0.50117 0.0
C195 C 0.78785 0.16766 0.51789 0.0
C196 C 0.76232 0.10613 0.50609 0.0
C197 C 0.69768 0.04889 0.5102 0.0
C198 C 0.65797 0.0552 0.52664 0.0
C199 C 0.68307 0.11841 0.53859 0.0
C200 C 0.74907 0.17484 0.53413 0.0
H201 H 0.85564 0.02472 0.81756 0.0
H202 H 0.97009 0.92875 0.79499 0.0
H203 H 0.90252 0.82969 0.81879 0.0
H204 H 0.84476 0.97411 0.87356 0.0
H205 H 0.75844 0.95925 0.87626 0.0
H206 H 0.81538 0.02181 0.8572 0.0
H207 H 0.72381 0.9588 0.82523 0.0
H208 H 0.6665 0.89617 0.84421 0.0
H209 H 0.6904 0.868 0.81983 0.0
H210 H 0.82339 0.74169 0.84653 0.0
H211 H 0.73659 0.67189 0.874 0.0
H212 H 0.67469 0.82626 0.87697 0.0
C213 C 0.86648 0.98286 0.81748 0.0
C214 C 0.9183 0.98479 0.80433 0.0
C215 C 0.93054 0.9286 0.80483 0.0
C216 C 0.89252 0.87207 0.81836 0.0
C217 C 0.84218 0.87218 0.83123 0.0
C218 C 0.82892 0.92603 0.83075 0.0
C219 C 0.77215 0.91404 0.84603 0.0
C220 C 0.79933 0.97066 0.86435 0.0
C221 C 0.70951 0.90893 0.83304 0.0
C222 C 0.75548 0.8451 0.85522 0.0
C223 C 0.79646 0.82165 0.84666 0.0
C224 C 0.79075 0.75945 0.85323 0.0
C225 C 0.7415 0.7202 0.86885 0.0
C226 C 0.69852 0.74325 0.87751 0.0
C227 C 0.70614 0.80661 0.87054 0.0
H228 H 0.14701 0.01966 0.13726 0.0
H229 H 0.92842 0.95522 0.13383 0.0
H230 H 0.90477 0.86314 0.15981 0.0
H231 H 0.12391 0.84942 0.13994 0.0
H232 H 0.19551 0.87328 0.1594 0.0
H233 H 0.19714 0.93626 0.14079 0.0
H234 H 0.2158 0.01811 0.17398 0.0
H235 H 0.21448 0.95548 0.1927 0.0
H236 H 0.15559 0.98715 0.19591 0.0
H237 H 0.90238 0.77708 0.18459 0.0
H238 H 0.921 0.70105 0.20883 0.0
H239 H 0.14188 0.8185 0.19794 0.0
C240 C 0.0943 0.98632 0.1421 0.0
C241 C 0.03949 0.99464 0.13347 0.0
C242 C 0.97123 0.94998 0.14017 0.0
C243 C 0.9572 0.89741 0.15493 0.0
C244 C 1.01196 0.89016 0.16296 0.0
C245 C 0.07923 0.93331 0.15698 0.0
C246 C 0.12794 0.91314 0.16821 0.0
C247 C 0.1632 0.89175 0.15106 0.0
C248 C 0.18163 0.97198 0.18362 0.0
C249 C 0.07713 0.85164 0.18124 0.0
C250 C 1.01067 0.83977 0.17781 0.0
C251 C 0.95415 0.78588 0.18753 0.0
C252 C 0.96552 0.74279 0.20128 0.0
C253 C 0.03303 0.75358 0.20537 0.0
C254 C 0.08975 0.80895 0.19518 0.0
H255 H 0.13004 0.09048 0.48663 0.0
H256 H 0.27313 0.22885 0.43948 0.0
H257 H 0.37201 0.25163 0.46467 0.0
H258 H 0.2269 0.17835 0.5381 0.0
H259 H 0.20321 0.09767 0.5508 0.0
H260 H 0.14659 0.10155 0.52978 0.0
H261 H 0.15129 1.00236 0.50835 0.0
H262 H 0.21057 1.00276 0.5292 0.0
H263 H 0.23411 0.01539 0.50074 0.0
H264 H 0.45525 0.26242 0.49588 0.0
H265 H 0.51674 0.24215 0.52709 0.0
H266 H 0.31908 0.08951 0.5521 0.0
C267 C 0.18227 0.12621 0.48183 0.0
C268 C 0.19439 0.16111 0.46178 0.0
C269 C 0.26316 0.20459 0.45538 0.0
C270 C 0.31949 0.21757 0.46951 0.0
C271 C 0.30599 0.18516 0.48974 0.0
C272 C 0.23911 0.13902 0.49566 0.0
C273 C 0.23899 0.10531 0.51719 0.0
C274 C 0.20166 0.12173 0.53499 0.0
C275 C 0.20687 0.02682 0.51365 0.0
C276 C 0.31605 0.14051 0.52261 0.0
C277 C 0.35391 0.18725 0.5068 0.0
C278 C 0.42618 0.22571 0.50833 0.0
C279 C 0.46066 0.21435 0.52616 0.0
C280 C 0.42262 0.16424 0.5419 0.0
C281 C 0.3495 0.12806 0.54025 0.0
H282 H 0.18652 0.18825 0.82656 0.0
H283 H 0.1918 0.32861 0.77702 0.0
H284 H 0.26568 0.42827 0.80232 0.0
H285 H 0.18958 0.28252 0.87665 0.0
H286 H 0.24701 0.26055 0.89089 0.0
H287 H 0.18844 0.20398 0.86914 0.0
H288 H 0.29772 0.21423 0.85068 0.0
H289 H 0.35383 0.27452 0.8721 0.0
H290 H 0.36685 0.29847 0.84358 0.0
H291 H 0.33318 0.51215 0.83416 0.0
H292 H 0.40973 0.5752 0.86688 0.0
H293 H 0.36743 0.38007 0.89415 0.0
C294 C 0.20281 0.24004 0.82123 0.0
C295 C 0.18065 0.25113 0.80043 0.0
C296 C 0.20566 0.3194 0.79341 0.0
C297 C 0.24775 0.37615 0.8076 0.0
C298 C 0.26565 0.36357 0.82855 0.0
C299 C 0.24552 0.29731 0.83513 0.0
C300 C 0.27772 0.29841 0.85759 0.0
C301 C 0.22229 0.25895 0.87453 0.0
C302 C 0.32696 0.26973 0.85588 0.0
C303 C 0.31715 0.3753 0.86287 0.0
C304 C 0.30897 0.41207 0.84607 0.0
C305 C 0.34042 0.48396 0.84738 0.0
C306 C 0.38324 0.51929 0.86607 0.0
C307 C 0.39455 0.48254 0.88298 0.0
C308 C 0.35991 0.40962 0.88144 0.0
H309 H 0.83077 0.11236 0.7348 0.0
H310 H 0.99169 0.13163 0.69251 0.0
H311 H 0.93089 0.14835 0.66036 0.0
H312 H 0.68729 0.01697 0.69411 0.0
H313 H 0.64135 0.05837 0.70356 0.0
H314 H 0.69709 0.04562 0.72257 0.0
H315 H 0.76406 0.17689 0.7323 0.0
H316 H 0.70974 0.19035 0.71289 0.0
H317 H 0.80242 0.23786 0.7106 0.0
H318 H 0.85633 0.17309 0.63353 0.0
H319 H 0.76383 0.18184 0.61295 0.0
H320 H 0.65023 0.14073 0.67292 0.0
C321 C 0.8525 0.11879 0.71868 0.0
C322 C 0.91568 0.12049 0.71605 0.0
C323 C 0.94275 0.12919 0.69476 0.0
C324 C 0.90902 0.13953 0.6765 0.0
C325 C 0.84789 0.13994 0.67982 0.0
C326 C 0.81902 0.12795 0.70029 0.0
C327 C 0.75214 0.1292 0.69951 0.0
C328 C 0.69084 0.05833 0.70527 0.0
C329 C 0.75747 0.18703 0.71473 0.0
C330 C 0.74816 0.14473 0.67545 0.0
C331 C 0.80424 0.15172 0.66437 0.0
C332 C 0.81196 0.16716 0.64201 0.0
C333 C 0.75961 0.17284 0.63052 0.0
C334 C 0.70007 0.16215 0.64139 0.0
C335 C 0.69528 0.14933 0.66421 0.0
H336 H 0.99813 0.03581 0.01809 0.0
H337 H 0.8614 0.04312 0.06547 0.0
H338 H 0.76023 0.96909 0.04051 0.0
H339 H 0.89593 0.02662 0.96669 0.0
H340 H 0.91605 0.96706 0.95355 0.0
H341 H 0.97666 0.03039 0.97358 0.0
H342 H 0.9752 0.93073 0.99576 0.0
H343 H 0.91336 0.86807 0.97596 0.0
H344 H 0.89381 0.86141 1.00477 0.0
H345 H 0.67326 0.88596 0.01171 0.0
H346 H 0.60812 0.79339 0.98317 0.0
H347 H 0.80206 0.83755 0.95551 0.0
C348 C 0.94692 0.02314 0.02284 0.0
C349 C 0.9374 0.04764 0.04311 0.0
C350 C 0.86966 0.02745 0.04944 0.0
C351 C 0.81198 0.98523 0.03543 0.0
C352 C 0.82298 0.96272 0.0153 0.0
C353 C 0.88882 0.98071 1.00907 0.0
C354 C 0.88615 0.94352 0.98783 0.0
C355 C 0.92078 0.995 0.96932 0.0
C356 C 0.91904 0.89825 0.9913 0.0
C357 C 0.80862 0.90012 0.98347 0.0
C358 C 0.77293 0.91287 0.9992 0.0
C359 C 0.70065 0.87608 0.99914 0.0
C360 C 0.66404 0.82375 0.98287 0.0
C361 C 0.70002 0.80829 0.96718 0.0
C362 C 0.77306 0.84823 0.96728 0.0
H363 H 0.14227 0.04704 0.36386 0.0
H364 H 0.92334 0.93666 0.37723 0.0
H365 H 0.90423 0.84311 0.35124 0.0
H366 H 0.12023 1.00085 0.30531 0.0
H367 H 0.19597 0.99231 0.30511 0.0
H368 H 0.1922 0.05137 0.32453 0.0
H369 H 0.21698 0.99082 0.35683 0.0
H370 H 0.22047 0.93138 0.33752 0.0
H371 H 0.16159 0.89901 0.35978 0.0
H372 H 0.90935 0.75862 0.32481 0.0
H373 H 0.93842 0.69326 0.29837 0.0
H374 H 0.15277 0.85991 0.30174 0.0
C375 C 0.09028 1.00344 0.3612 0.0
C376 C 0.03439 0.99927 0.3726 0.0
C377 C 0.96708 0.94119 0.36867 0.0
C378 C 0.9556 0.88759 0.35396 0.0
C379 C 1.01183 0.89285 0.34316 0.0
C380 C 0.07775 0.94951 0.34645 0.0
C381 C 0.12919 0.94231 0.33276 0.0
C382 C 0.16127 1.00014 0.31593 0.0
C383 C 0.18536 0.94077 0.34761 0.0
C384 C 0.08197 0.87269 0.32143 0.0
C385 C 0.0145 0.84478 0.32768 0.0
C386 C 0.96199 0.78013 0.31968 0.0
C387 C 0.97892 0.74329 0.30473 0.0
C388 C 0.04766 0.77151 0.29792 0.0
C389 C 0.09956 0.837 0.30648 0.0
H390 H 0.24143 0.19498 0.70497 0.0
H391 H 0.11766 0.97404 0.71442 0.0
H392 H 0.18357 0.95374 0.68651 0.0
H393 H 0.25732 0.18534 0.64591 0.0
H394 H 0.34545 0.25626 0.64645 0.0
H395 H 0.28716 0.25314 0.6668 0.0
H396 H 0.37328 0.26212 0.69808 0.0
H397 H 0.43173 0.26514 0.67783 0.0
H398 H 0.4021 0.20028 0.6986 0.0
H399 H 0.26532 0.95758 0.65788 0.0
H400 H 0.35629 0.98639 0.63087 0.0
H401 H 0.42562 0.20414 0.64047 0.0
C402 C 0.22792 0.14234 0.70107 0.0
C403 C 0.17431 0.08617 0.71187 0.0
C404 C 0.15854 0.01802 0.70638 0.0
C405 C 0.19565 1.00586 0.69052 0.0
C406 C 0.2485 0.06235 0.68026 0.0
C407 C 0.26458 0.12923 0.6853 0.0
C408 C 0.32456 0.18093 0.67219 0.0
C409 C 0.30226 0.22128 0.65693 0.0
C410 C 0.38658 0.22999 0.6876 0.0
C411 C 0.33971 0.13271 0.65907 0.0
C412 C 0.29536 0.06449 0.66389 0.0
C413 C 0.30027 0.01089 0.65392 0.0
C414 C 0.35204 0.02765 0.63862 0.0
C415 C 0.39804 0.09738 0.63352 0.0
C416 C 0.39129 0.15021 0.64392 0.0
H417 H 0.18576 0.3193 0.02331 0.0
H418 H 0.28706 0.27699 0.07809 0.0
H419 H 0.39984 0.34538 0.06057 0.0
H420 H 0.28607 0.30002 0.98128 0.0
H421 H 0.28699 0.36629 0.96443 0.0
H422 H 0.21544 0.31671 0.98185 0.0
H423 H 0.23497 0.42966 1.00067 0.0
H424 H 0.3063 0.47954 0.98325 0.0
H425 H 0.31909 0.49037 0.01286 0.0
H426 H 0.50324 0.4264 0.0377 0.0
H427 H 0.58524 0.50321 0.01012 0.0
H428 H 0.41222 0.47781 0.96867 0.0
C429 C 0.23148 0.32417 0.03166 0.0
C430 C 0.22758 0.29299 0.05214 0.0
C431 C 0.28886 0.3005 0.06239 0.0
C432 C 0.35309 0.33924 0.05257 0.0
C433 C 0.35489 0.36868 0.03222 0.0
C434 C 0.29537 0.36056 0.02176 0.0
C435 C 0.31032 0.39485 0.99962 0.0
C436 C 0.27246 0.34126 0.98068 0.0
C437 C 0.29158 0.452 0.99909 0.0
C438 C 0.38781 0.4247 0.99937 0.0
C439 C 0.41297 0.40997 0.01841 0.0
C440 C 0.48388 0.43698 0.02253 0.0
C441 C 0.53006 0.48039 1.00682 0.0
C442 C 0.50487 0.49476 0.98707 0.0
C443 C 0.4328 0.46581 0.9833 0.0
H444 H 0.09371 0.39038 0.39742 0.0
H445 H 0.06837 0.22398 0.3539 0.0
H446 H 0.09229 0.2996 0.32186 0.0
H447 H 1.01269 0.4564 0.3598 0.0
H448 H 0.07112 0.54483 0.36864 0.0
H449 H 0.05017 0.47617 0.38756 0.0
H450 H 0.1811 0.5202 0.39398 0.0
H451 H 0.20236 0.58789 0.37461 0.0
H452 H 0.23249 0.52791 0.37072 0.0
H453 H 0.12658 0.39749 0.2948 0.0
H454 H 0.14759 0.50094 0.27444 0.0
H455 H 0.14733 0.60083 0.33604 0.0
C456 C 0.09219 0.36937 0.38112 0.0
C457 C 0.07904 0.30116 0.37818 0.0
C458 C 0.0775 0.27577 0.35655 0.0
C459 C 0.09186 0.31864 0.33828 0.0
C460 C 0.10705 0.38648 0.34192 0.0
C461 C 0.10576 0.41107 0.36277 0.0
C462 C 0.12203 0.4852 0.36233 0.0
C463 C 0.06033 0.49096 0.37003 0.0
C464 C 0.18844 0.5331 0.37624 0.0
C465 C 0.13282 0.49878 0.33795 0.0
C466 C 0.12497 0.44167 0.32645 0.0
C467 C 0.13237 0.44229 0.30366 0.0
C468 C 0.14492 0.50162 0.29225 0.0
C469 C 0.14867 0.55901 0.3036 0.0
C470 C 0.14478 0.55797 0.32684 0.0
loop_
_geom_bond_atom_site_label_1
_geom_bond_atom_site_label_2
_geom_bond_distance
_geom_bond_site_symmetry_2
_ccdc_geom_bond_type
Mn0 O5 2.095 . S
Mn0 O15 2.162 . S
Mn0 O16 2.297 . S
Mn0 O24 2.385 . S
Mn0 O25 2.209 1_455 S
Mn0 O26 2.094 . S
Mn1 O6 2.121 . S
Mn1 N8 2.257 1_455 S
Mn1 N17 2.282 1_455 S
Mn1 O25 2.215 1_455 S
Mn1 O27 2.117 . S
C2 O24 1.234 1_655 S
C2 O25 1.283 . S
C3 O15 1.281 . S
C3 O16 1.236 . S
C4 O26 1.240 . S
C4 O27 1.264 . S
O5 Mn0 2.095 . S
O5 C14 1.250 . S
O6 Mn1 2.121 . S
O6 C14 1.258 . S
C7 N8 1.326 . S
C7 C11 1.460 . S
C7 H13 0.929 . S
N8 Mn1 2.257 1_655 S
N8 C7 1.326 . S
N8 C12 1.362 . S
C9 C10 1.258 . S
C9 C12 1.431 . S
C9 C29 1.449 . S
C10 C9 1.258 . S
C10 C11 1.477 . S
C10 H30 0.931 . S
C11 C7 1.460 . S
C11 C10 1.477 . S
C11 H31 0.930 . S
C12 N8 1.362 . S
C12 C9 1.431 . S
C12 C22 1.476 . S
H13 C7 0.929 . S
C14 O5 1.250 . S
C14 O6 1.258 . S
O15 Mn0 2.162 . S
O15 C3 1.281 . S
O16 Mn0 2.297 . S
O16 C3 1.236 . S
N17 Mn1 2.282 1_655 S
N17 C18 1.328 1_655 S
N17 C22 1.318 . S
C18 N17 1.328 1_455 S
C18 C19 1.457 1_454 S
C18 H23 0.929 . S
C19 C18 1.457 1_656 S
C19 C20 1.291 . S
C19 H32 0.931 1_655 S
C20 C19 1.291 . S
C20 C21 1.373 . S
C20 H33 0.929 . S
C21 C20 1.373 . S
C21 C22 1.396 1_556 S
C21 C28 1.403 . S
C22 C12 1.476 . S
C22 N17 1.318 . S
C22 C21 1.396 1_554 S
H23 C18 0.929 . S
O24 Mn0 2.385 . S
O24 C2 1.234 1_455 S
O25 Mn0 2.209 1_655 S
O25 Mn1 2.215 1_655 S
O25 C2 1.283 . S
O26 Mn0 2.094 . S
O26 C4 1.240 . S
O27 Mn1 2.117 . S
O27 C4 1.264 . S
C28 C21 1.403 . S
C28 C29 1.399 1_556 S
C28 H34 0.929 . S
C29 C9 1.449 . S
C29 C28 1.399 1_554 S
C29 H35 0.930 1_554 S
H30 C10 0.931 . S
H31 C11 0.930 . S
H32 C19 0.931 1_455 S
H33 C20 0.929 . S
H34 C28 0.929 . S
H35 C29 0.930 1_556 S
Mn36 O41 2.095 . S
Mn36 O51 2.162 1_445 S
Mn36 O52 2.297 . S
Mn36 O60 2.385 . S
Mn36 O61 2.209 . S
Mn36 O62 2.094 1_455 S
Mn37 O42 2.121 . S
Mn37 N44 2.257 . S
Mn37 N53 2.282 . S
Mn37 O61 2.215 . S
Mn37 O63 2.117 1_455 S
C38 O60 1.234 . S
C38 O61 1.283 . S
C39 O51 1.281 1_445 S
C39 O52 1.236 . S
C40 O62 1.240 . S
C40 O63 1.264 . S
O41 Mn36 2.095 . S
O41 C50 1.250 . S
O42 Mn37 2.121 . S
O42 C50 1.258 . S
C43 N44 1.326 . S
C43 C47 1.460 . S
C43 H49 0.929 . S
N44 Mn37 2.257 . S
N44 C43 1.326 . S
N44 C48 1.362 . S
C45 C46 1.258 . S
C45 C48 1.431 . S
C45 C65 1.449 . S
C46 C45 1.258 . S
C46 C47 1.477 . S
C46 H66 0.931 . S
C47 C43 1.460 . S
C47 C46 1.477 . S
C47 H67 0.930 . S
C48 N44 1.362 . S
C48 C45 1.431 . S
C48 C58 1.476 . S
H49 C43 0.929 . S
C50 O41 1.250 . S
C50 O42 1.258 . S
O51 Mn36 2.162 1_665 S
O51 C39 1.281 1_665 S
O52 Mn36 2.297 . S
O52 C39 1.236 . S
N53 Mn37 2.282 . S
N53 C54 1.328 . S
N53 C58 1.318 . S
C54 N53 1.328 . S
C54 C55 1.457 . S
C54 H59 0.929 . S
C55 C54 1.457 . S
C55 C56 1.291 . S
C55 H68 0.931 . S
C56 C55 1.291 . S
C56 C57 1.373 . S
C56 H69 0.929 . S
C57 C56 1.373 . S
C57 C58 1.396 . S
C57 C64 1.403 . S
C58 C48 1.476 . S
C58 N53 1.318 . S
C58 C57 1.396 . S
H59 C54 0.929 . S
O60 Mn36 2.385 . S
O60 C38 1.234 . S
O61 Mn36 2.209 . S
O61 Mn37 2.215 . S
O61 C38 1.283 . S
O62 Mn36 2.094 1_655 S
O62 C40 1.240 . S
O63 Mn37 2.117 1_655 S
O63 C40 1.264 . S
C64 C57 1.403 . S
C64 C65 1.399 . S
C64 H70 0.929 . S
C65 C45 1.449 . S
C65 C64 1.399 . S
C65 H71 0.930 . S
H66 C46 0.931 . S
H67 C47 0.930 . S
H68 C55 0.931 . S
H69 C56 0.929 . S
H70 C64 0.929 . S
H71 C65 0.930 . S
Mn72 O77 2.095 1_455 S
Mn72 O87 2.162 . S
Mn72 O88 2.297 . S
Mn72 O96 2.385 . S
Mn72 O97 2.209 . S
Mn72 O98 2.094 1_455 S
Mn73 O78 2.121 . S
Mn73 N80 2.257 1_655 S
Mn73 N89 2.282 1_655 S
Mn73 O97 2.215 1_655 S
Mn73 O99 2.117 . S
C74 O96 1.234 . S
C74 O97 1.283 . S
C75 O87 1.281 . S
C75 O88 1.236 . S
C76 O98 1.240 . S
C76 O99 1.264 . S
O77 Mn72 2.095 1_655 S
O77 C86 1.250 . S
O78 Mn73 2.121 . S
O78 C86 1.258 . S
C79 N80 1.326 . S
C79 C83 1.460 . S
C79 H85 0.929 1_455 S
N80 Mn73 2.257 1_455 S
N80 C79 1.326 . S
N80 C84 1.362 . S
C81 C82 1.258 . S
C81 C84 1.431 . S
C81 C101 1.449 . S
C82 C81 1.258 . S
C82 C83 1.477 . S
C82 H102 0.931 . S
C83 C79 1.460 . S
C83 C82 1.477 . S
C83 H103 0.930 . S
C84 N80 1.362 . S
C84 C81 1.431 . S
C84 C94 1.476 . S
H85 C79 0.929 1_655 S
C86 O77 1.250 . S
C86 O78 1.258 . S
O87 Mn72 2.162 . S
O87 C75 1.281 . S
O88 Mn72 2.297 . S
O88 C75 1.236 . S
N89 Mn73 2.282 1_455 S
N89 C90 1.328 . S
N89 C94 1.318 . S
C90 N89 1.328 . S
C90 C91 1.457 . S
C90 H95 0.929 . S
C91 C90 1.457 . S
C91 C92 1.291 . S
C91 H104 0.931 . S
C92 C91 1.291 . S
C92 C93 1.373 . S
C92 H105 0.929 . S
C93 C92 1.373 . S
C93 C94 1.396 . S
C93 C100 1.403 . S
C94 C84 1.476 . S
C94 N89 1.318 . S
C94 C93 1.396 . S
H95 C90 0.929 . S
O96 Mn72 2.385 . S
O96 C74 1.234 . S
O97 Mn72 2.209 . S
O97 Mn73 2.215 1_455 S
O97 C74 1.283 . S
O98 Mn72 2.094 1_655 S
O98 C76 1.240 . S
O99 Mn73 2.117 . S
O99 C76 1.264 . S
C100 C93 1.403 . S
C100 C101 1.399 . S
C100 H106 0.929 . S
C101 C81 1.449 . S
C101 C100 1.399 . S
C101 H107 0.930 . S
H102 C82 0.931 . S
H103 C83 0.930 . S
H104 C91 0.931 . S
H105 C92 0.929 . S
H106 C100 0.929 . S
H107 C101 0.930 . S
Mg108 O115 2.141 . S
Mg108 O116 2.048 . S
Mg108 O117 2.048 . S
Mg108 O120 2.141 . S
C109 O110 1.313 1_455 S
C109 O116 1.195 . S
O110 C109 1.313 1_655 S
C111 O112 1.245 1_455 S
C111 O120 1.289 . S
O112 C111 1.245 1_655 S
C113 O114 1.245 1_455 S
C113 O115 1.289 . S
O114 C113 1.245 1_655 S
O115 Mg108 2.141 . S
O115 C113 1.289 . S
O116 Mg108 2.048 . S
O116 C109 1.195 . S
O117 Mg108 2.048 . S
O117 C118 1.195 . S
C118 O117 1.195 . S
C118 O119 1.313 1_455 S
O119 C118 1.313 1_655 S
O120 Mg108 2.141 . S
O120 C111 1.289 . S
Mg121 O128 2.141 . S
Mg121 O129 2.048 . S
Mg121 O130 2.048 . S
Mg121 O133 2.141 . S
C122 O123 1.313 . S
C122 O129 1.195 . S
O123 C122 1.313 . S
C124 O125 1.245 . S
C124 O133 1.289 . S
O125 C124 1.245 . S
C126 O127 1.245 . S
C126 O128 1.289 . S
O127 C126 1.245 . S
O128 Mg121 2.141 . S
O128 C126 1.289 . S
O129 Mg121 2.048 . S
O129 C122 1.195 . S
O130 Mg121 2.048 . S
O130 C131 1.195 . S
C131 O130 1.195 . S
C131 O132 1.313 . S
O132 C131 1.313 . S
O133 Mg121 2.141 . S
O133 C124 1.289 . S
Mg134 O141 2.141 . S
Mg134 O142 2.048 . S
Mg134 O143 2.048 . S
Mg134 O146 2.141 . S
C135 O136 1.313 . S
C135 O142 1.195 . S
O136 C135 1.313 . S
C137 O138 1.245 . S
C137 O146 1.289 . S
O138 C137 1.245 . S
C139 O140 1.245 . S
C139 O141 1.289 . S
O140 C139 1.245 . S
O141 Mg134 2.141 . S
O141 C139 1.289 . S
O142 Mg134 2.048 . S
O142 C135 1.195 . S
O143 Mg134 2.048 . S
O143 C144 1.195 . S
C144 O143 1.195 . S
C144 O145 1.313 . S
O145 C144 1.313 . S
O146 Mg134 2.141 . S
O146 C137 1.289 . S
H147 C159 0.930 . S
H148 C161 0.930 . S
H149 C162 0.930 . S
H150 C166 0.959 . S
H151 C166 0.959 . S
H152 C166 0.961 . S
H153 C167 0.960 . S
H154 C167 0.961 . S
H155 C167 0.959 1_655 S
H156 C170 0.929 . S
H157 C171 0.931 . S
H158 C173 0.930 . S
C159 H147 0.930 . S
C159 C160 1.399 . S
C159 C164 1.399 . S
C160 C159 1.399 . S
C160 C161 1.376 . S
C161 H148 0.930 . S
C161 C160 1.376 . S
C161 C162 1.388 . S
C162 H149 0.930 . S
C162 C161 1.388 . S
C162 C163 1.390 . S
C163 C162 1.390 . S
C163 C164 1.394 . S
C163 C169 1.465 . S
C164 C159 1.399 . S
C164 C163 1.394 . S
C164 C165 1.516 . S
C165 C164 1.516 . S
C165 C166 1.502 . S
C165 C167 1.561 . S
C165 C168 1.526 . S
C166 H150 0.959 . S
C166 H151 0.959 . S
C166 H152 0.961 . S
C166 C165 1.502 . S
C167 H153 0.960 . S
C167 H154 0.961 . S
C167 H155 0.959 1_455 S
C167 C165 1.561 . S
C168 C165 1.526 . S
C168 C169 1.396 . S
C168 C173 1.390 . S
C169 C163 1.465 . S
C169 C168 1.396 . S
C169 C170 1.399 . S
C170 H156 0.929 . S
C170 C169 1.399 . S
C170 C171 1.385 . S
C171 H157 0.931 . S
C171 C170 1.385 . S
C171 C172 1.389 . S
C172 C171 1.389 . S
C172 C173 1.387 . S
C173 H158 0.930 . S
C173 C168 1.390 . S
C173 C172 1.387 . S
H174 C186 0.930 . S
H175 C188 0.930 . S
H176 C189 0.930 . S
H177 C193 0.959 . S
H178 C193 0.959 . S
H179 C193 0.961 . S
H180 C194 0.960 . S
H181 C194 0.961 . S
H182 C194 0.959 . S
H183 C197 0.929 . S
H184 C198 0.931 . S
H185 C200 0.930 . S
C186 H174 0.930 . S
C186 C187 1.399 . S
C186 C191 1.399 . S
C187 C186 1.399 . S
C187 C188 1.376 . S
C188 H175 0.930 . S
C188 C187 1.376 . S
C188 C189 1.388 . S
C189 H176 0.930 . S
C189 C188 1.388 . S
C189 C190 1.390 . S
C190 C189 1.390 . S
C190 C191 1.394 . S
C190 C196 1.465 . S
C191 C186 1.399 . S
C191 C190 1.394 . S
C191 C192 1.516 . S
C192 C191 1.516 . S
C192 C193 1.502 . S
C192 C194 1.561 . S
C192 C195 1.526 . S
C193 H177 0.959 . S
C193 H178 0.959 . S
C193 H179 0.961 . S
C193 C192 1.502 . S
C194 H180 0.960 . S
C194 H181 0.961 . S
C194 H182 0.959 . S
C194 C192 1.561 . S
C195 C192 1.526 . S
C195 C196 1.396 . S
C195 C200 1.390 . S
C196 C190 1.465 . S
C196 C195 1.396 . S
C196 C197 1.399 . S
C197 H183 0.929 . S
C197 C196 1.399 . S
C197 C198 1.385 . S
C198 H184 0.931 . S
C198 C197 1.385 . S
C198 C199 1.389 . S
C199 C198 1.389 . S
C199 C200 1.387 . S
C200 H185 0.930 . S
C200 C195 1.390 . S
C200 C199 1.387 . S
H201 C213 0.930 1_545 S
H202 C215 0.930 . S
H203 C216 0.930 . S
H204 C220 0.959 . S
H205 C220 0.959 . S
H206 C220 0.961 . S
H207 C221 0.960 1_545 S
H208 C221 0.961 . S
H209 C221 0.959 . S
H210 C224 0.929 . S
H211 C225 0.931 . S
H212 C227 0.930 . S
C213 H201 0.930 1_565 S
C213 C214 1.399 . S
C213 C218 1.399 . S
C214 C213 1.399 . S
C214 C215 1.376 . S
C215 H202 0.930 . S
C215 C214 1.376 . S
C215 C216 1.388 . S
C216 H203 0.930 . S
C216 C215 1.388 . S
C216 C217 1.390 . S
C217 C216 1.390 . S
C217 C218 1.394 . S
C217 C223 1.465 . S
C218 C213 1.399 . S
C218 C217 1.394 . S
C218 C219 1.516 . S
C219 C218 1.516 . S
C219 C220 1.502 . S
C219 C221 1.561 . S
C219 C222 1.526 . S
C220 H204 0.959 . S
C220 H205 0.959 . S
C220 H206 0.961 . S
C220 C219 1.502 . S
C221 H207 0.960 1_565 S
C221 H208 0.961 . S
C221 H209 0.959 . S
C221 C219 1.561 . S
C222 C219 1.526 . S
C222 C223 1.396 . S
C222 C227 1.390 . S
C223 C217 1.465 . S
C223 C222 1.396 . S
C223 C224 1.399 . S
C224 H210 0.929 . S
C224 C223 1.399 . S
C224 C225 1.385 . S
C225 H211 0.931 . S
C225 C224 1.385 . S
C225 C226 1.389 . S
C226 C225 1.389 . S
C226 C227 1.387 . S
C227 H212 0.930 . S
C227 C222 1.390 . S
C227 C226 1.387 . S
H228 C240 0.919 1_545 S
H229 C242 0.930 1_655 S
H230 C243 0.930 1_655 S
H231 C247 0.959 . S
H232 C247 0.959 . S
H233 C247 0.961 1_545 S
H234 C248 0.960 1_545 S
H235 C248 0.961 . S
H236 C248 0.959 . S
H237 C251 0.929 . S
H238 C252 0.931 1_655 S
H239 C254 0.930 . S
C240 H228 0.919 1_565 S
C240 C241 1.395 . S
C240 C245 1.414 . S
C241 C240 1.395 . S
C241 C242 1.376 . S
C242 H229 0.930 1_455 S
C242 C241 1.376 . S
C242 C243 1.388 . S
C243 H230 0.930 1_455 S
C243 C242 1.388 . S
C243 C244 1.390 . S
C244 C243 1.390 . S
C244 C245 1.394 . S
C244 C250 1.465 . S
C245 C240 1.414 . S
C245 C244 1.394 . S
C245 C246 1.516 . S
C246 C245 1.516 . S
C246 C247 1.502 . S
C246 C248 1.561 . S
C246 C249 1.526 . S
C247 H231 0.959 . S
C247 H232 0.959 . S
C247 H233 0.961 1_565 S
C247 C246 1.502 . S
C248 H234 0.960 1_565 S
C248 H235 0.961 . S
C248 H236 0.959 . S
C248 C246 1.561 . S
C249 C246 1.526 . S
C249 C250 1.396 . S
C249 C254 1.390 . S
C250 C244 1.465 . S
C250 C249 1.396 . S
C250 C251 1.399 1_455 S
C251 H237 0.929 . S
C251 C250 1.399 1_655 S
C251 C252 1.385 1_655 S
C252 H238 0.931 1_455 S
C252 C251 1.385 1_455 S
C252 C253 1.389 . S
C253 C252 1.389 . S
C253 C254 1.387 . S
C254 H239 0.930 . S
C254 C249 1.390 . S
C254 C253 1.387 . S
H255 C267 0.930 . S
H256 C269 0.930 . S
H257 C270 0.930 . S
H258 C274 0.959 . S
H259 C274 0.959 . S
H260 C274 0.961 . S
H261 C275 0.960 . S
H262 C275 0.961 . S
H263 C275 0.959 . S
H264 C278 0.929 . S
H265 C279 0.931 . S
H266 C281 0.930 . S
C267 H255 0.930 . S
C267 C268 1.399 . S
C267 C272 1.399 . S
C268 C267 1.399 . S
C268 C269 1.376 . S
C269 H256 0.930 . S
C269 C268 1.376 . S
C269 C270 1.388 . S
C270 H257 0.930 . S
C270 C269 1.388 . S
C270 C271 1.390 . S
C271 C270 1.390 . S
C271 C272 1.394 . S
C271 C277 1.465 . S
C272 C267 1.399 . S
C272 C271 1.394 . S
C272 C273 1.516 . S
C273 C272 1.516 . S
C273 C274 1.502 . S
C273 C275 1.561 . S
C273 C276 1.526 . S
C274 H258 0.959 . S
C274 H259 0.959 . S
C274 H260 0.961 . S
C274 C273 1.502 . S
C275 H261 0.960 . S
C275 H262 0.961 . S
C275 H263 0.959 . S
C275 C273 1.561 . S
C276 C273 1.526 . S
C276 C277 1.396 . S
C276 C281 1.390 . S
C277 C271 1.465 . S
C277 C276 1.396 . S
C277 C278 1.399 . S
C278 H264 0.929 . S
C278 C277 1.399 . S
C278 C279 1.385 . S
C279 H265 0.931 . S
C279 C278 1.385 . S
C279 C280 1.389 . S
C280 C279 1.389 . S
C280 C281 1.387 . S
C281 H266 0.930 . S
C281 C276 1.390 . S
C281 C280 1.387 . S
H282 C294 0.930 . S
H283 C296 0.930 . S
H284 C297 0.930 . S
H285 C301 0.959 . S
H286 C301 0.959 . S
H287 C301 0.961 . S
H288 C302 0.960 . S
H289 C302 0.961 . S
H290 C302 0.959 . S
H291 C305 0.929 . S
H292 C306 0.931 . S
H293 C308 0.930 . S
C294 H282 0.930 . S
C294 C295 1.399 . S
C294 C299 1.399 . S
C295 C294 1.399 . S
C295 C296 1.376 . S
C296 H283 0.930 . S
C296 C295 1.376 . S
C296 C297 1.388 . S
C297 H284 0.930 . S
C297 C296 1.388 . S
C297 C298 1.390 . S
C298 C297 1.390 . S
C298 C299 1.394 . S
C298 C304 1.465 . S
C299 C294 1.399 . S
C299 C298 1.394 . S
C299 C300 1.516 . S
C300 C299 1.516 . S
C300 C301 1.502 . S
C300 C302 1.561 . S
C300 C303 1.526 . S
C301 H285 0.959 . S
C301 H286 0.959 . S
C301 H287 0.961 . S
C301 C300 1.502 . S
C302 H288 0.960 . S
C302 H289 0.961 . S
C302 H290 0.959 . S
C302 C300 1.561 . S
C303 C300 1.526 . S
C303 C304 1.396 . S
C303 C308 1.390 . S
C304 C298 1.465 . S
C304 C303 1.396 . S
C304 C305 1.399 . S
C305 H291 0.929 . S
C305 C304 1.399 . S
C305 C306 1.385 . S
C306 H292 0.931 . S
C306 C305 1.385 . S
C306 C307 1.389 . S
C307 C306 1.389 . S
C307 C308 1.387 . S
C308 H293 0.930 . S
C308 C303 1.390 . S
C308 C307 1.387 . S
H309 C321 0.930 . S
H310 C323 0.930 . S
H311 C324 0.930 . S
H312 C328 0.959 . S
H313 C328 0.959 1_565 S
H314 C328 0.961 . S
H315 C329 0.960 1_565 S
H316 C329 0.961 1_565 S
H317 C329 0.959 . S
H318 C332 0.929 . S
H319 C333 0.931 . S
H320 C335 0.930 . S
C321 H309 0.930 . S
C321 C322 1.399 . S
C321 C326 1.399 . S
C322 C321 1.399 . S
C322 C323 1.376 . S
C323 H310 0.930 . S
C323 C322 1.376 . S
C323 C324 1.388 . S
C324 H311 0.930 . S
C324 C323 1.388 . S
C324 C325 1.390 . S
C325 C324 1.390 . S
C325 C326 1.394 . S
C325 C331 1.465 . S
C326 C321 1.399 . S
C326 C325 1.394 . S
C326 C327 1.516 . S
C327 C326 1.516 . S
C327 C328 1.502 . S
C327 C329 1.561 . S
C327 C330 1.526 . S
C328 H312 0.959 . S
C328 H313 0.959 1_545 S
C328 H314 0.961 . S
C328 C327 1.502 . S
C329 H315 0.960 1_545 S
C329 H316 0.961 1_545 S
C329 H317 0.959 . S
C329 C327 1.561 . S
C330 C327 1.526 . S
C330 C331 1.396 . S
C330 C335 1.390 . S
C331 C325 1.465 . S
C331 C330 1.396 . S
C331 C332 1.399 . S
C332 H318 0.929 . S
C332 C331 1.399 . S
C332 C333 1.385 . S
C333 H319 0.931 . S
C333 C332 1.385 . S
C333 C334 1.389 . S
C334 C333 1.389 . S
C334 C335 1.387 . S
C335 H320 0.930 . S
C335 C330 1.390 . S
C335 C334 1.387 . S
H336 C348 0.930 . S
H337 C350 0.930 . S
H338 C351 0.930 . S
H339 C355 0.959 . S
H340 C355 0.959 . S
H341 C355 0.961 1_554 S
H342 C356 0.960 . S
H343 C356 0.961 . S
H344 C356 0.959 . S
H345 C359 0.929 . S
H346 C360 0.931 . S
H347 C362 0.930 . S
C348 H336 0.930 . S
C348 C349 1.399 1_565 S
C348 C353 1.399 . S
C349 C348 1.399 1_545 S
C349 C350 1.376 . S
C350 H337 0.930 . S
C350 C349 1.376 . S
C350 C351 1.388 . S
C351 H338 0.930 . S
C351 C350 1.388 . S
C351 C352 1.390 1_545 S
C352 C351 1.390 1_565 S
C352 C353 1.394 . S
C352 C358 1.465 1_554 S
C353 C348 1.399 . S
C353 C352 1.394 . S
C353 C354 1.516 . S
C354 C353 1.516 . S
C354 C355 1.502 1_554 S
C354 C356 1.561 . S
C354 C357 1.526 1_554 S
C355 H339 0.959 . S
C355 H340 0.959 . S
C355 H341 0.961 1_556 S
C355 C354 1.502 1_556 S
C356 H342 0.960 . S
C356 H343 0.961 . S
C356 H344 0.959 . S
C356 C354 1.561 . S
C357 C354 1.526 1_556 S
C357 C358 1.396 . S
C357 C362 1.390 . S
C358 C352 1.465 1_556 S
C358 C357 1.396 . S
C358 C359 1.399 . S
C359 H345 0.929 . S
C359 C358 1.399 . S
C359 C360 1.385 . S
C360 H346 0.931 . S
C360 C359 1.385 . S
C360 C361 1.389 . S
C361 C360 1.389 . S
C361 C362 1.387 . S
C362 H347 0.930 . S
C362 C357 1.390 . S
C362 C361 1.387 . S
H363 C375 0.930 . S
H364 C377 0.930 1_545 S
H365 C378 0.930 . S
H366 C382 0.959 . S
H367 C382 0.959 . S
H368 C382 0.961 . S
H369 C383 0.960 . S
H370 C383 0.961 . S
H371 C383 0.959 1_655 S
H372 C386 0.929 1_655 S
H373 C387 0.931 . S
H374 C389 0.930 . S
C375 H363 0.930 . S
C375 C376 1.399 . S
C375 C380 1.399 . S
C376 C375 1.399 . S
C376 C377 1.376 1_455 S
C377 H364 0.930 1_565 S
C377 C376 1.376 1_655 S
C377 C378 1.388 . S
C378 H365 0.930 . S
C378 C377 1.388 . S
C378 C379 1.390 1_655 S
C379 C378 1.390 1_455 S
C379 C380 1.394 . S
C379 C385 1.465 . S
C380 C375 1.399 . S
C380 C379 1.394 . S
C380 C381 1.516 . S
C381 C380 1.516 . S
C381 C382 1.502 . S
C381 C383 1.561 . S
C381 C384 1.526 . S
C382 H366 0.959 . S
C382 H367 0.959 . S
C382 H368 0.961 . S
C382 C381 1.502 . S
C383 H369 0.960 . S
C383 H370 0.961 . S
C383 H371 0.959 1_455 S
C383 C381 1.561 . S
C384 C381 1.526 . S
C384 C385 1.396 . S
C384 C389 1.390 . S
C385 C379 1.465 . S
C385 C384 1.396 . S
C385 C386 1.399 . S
C386 H372 0.929 1_455 S
C386 C385 1.399 . S
C386 C387 1.385 . S
C387 H373 0.931 . S
C387 C386 1.385 . S
C387 C388 1.389 . S
C388 C387 1.389 . S
C388 C389 1.387 . S
C389 H374 0.930 . S
C389 C384 1.390 . S
C389 C388 1.387 . S
H390 C402 0.930 . S
H391 C404 0.930 . S
H392 C405 0.930 . S
H393 C409 0.959 . S
H394 C409 0.959 . S
H395 C409 0.961 . S
H396 C410 0.960 . S
H397 C410 0.961 . S
H398 C410 0.959 1_545 S
H399 C413 0.929 . S
H400 C414 0.931 . S
H401 C416 0.930 . S
C402 H390 0.930 . S
C402 C403 1.399 . S
C402 C407 1.399 . S
C403 C402 1.399 . S
C403 C404 1.376 . S
C404 H391 0.930 . S
C404 C403 1.376 . S
C404 C405 1.388 . S
C405 H392 0.930 . S
C405 C404 1.388 . S
C405 C406 1.390 . S
C406 C405 1.390 . S
C406 C407 1.394 . S
C406 C412 1.465 . S
C407 C402 1.399 . S
C407 C406 1.394 . S
C407 C408 1.516 . S
C408 C407 1.516 . S
C408 C409 1.502 . S
C408 C410 1.561 1_545 S
C408 C411 1.526 . S
C409 H393 0.959 . S
C409 H394 0.959 . S
C409 H395 0.961 . S
C409 C408 1.502 . S
C410 H396 0.960 . S
C410 H397 0.961 . S
C410 H398 0.959 1_565 S
C410 C408 1.561 1_565 S
C411 C408 1.526 . S
C411 C412 1.396 . S
C411 C416 1.390 . S
C412 C406 1.465 . S
C412 C411 1.396 . S
C412 C413 1.399 . S
C413 H399 0.929 . S
C413 C412 1.399 . S
C413 C414 1.385 . S
C414 H400 0.931 . S
C414 C413 1.385 . S
C414 C415 1.389 . S
C415 C414 1.389 . S
C415 C416 1.387 . S
C416 H401 0.930 . S
C416 C411 1.390 . S
C416 C415 1.387 . S
H417 C429 0.930 . S
H418 C431 0.930 . S
H419 C432 0.930 . S
H420 C436 0.959 . S
H421 C436 0.959 . S
H422 C436 0.961 1_554 S
H423 C437 0.960 . S
H424 C437 0.961 . S
H425 C437 0.959 . S
H426 C440 0.929 . S
H427 C441 0.931 . S
H428 C443 0.930 . S
C429 H417 0.930 . S
C429 C430 1.399 . S
C429 C434 1.399 . S
C430 C429 1.399 . S
C430 C431 1.376 . S
C431 H418 0.930 . S
C431 C430 1.376 . S
C431 C432 1.388 . S
C432 H419 0.930 . S
C432 C431 1.388 . S
C432 C433 1.390 . S
C433 C432 1.390 . S
C433 C434 1.394 . S
C433 C439 1.465 1_554 S
C434 C429 1.399 . S
C434 C433 1.394 . S
C434 C435 1.516 . S
C435 C434 1.516 . S
C435 C436 1.502 1_554 S
C435 C437 1.561 . S
C435 C438 1.526 1_554 S
C436 H420 0.959 . S
C436 H421 0.959 . S
C436 H422 0.961 1_556 S
C436 C435 1.502 1_556 S
C437 H423 0.960 . S
C437 H424 0.961 . S
C437 H425 0.959 . S
C437 C435 1.561 . S
C438 C435 1.526 1_556 S
C438 C439 1.396 . S
C438 C443 1.390 . S
C439 C433 1.465 1_556 S
C439 C438 1.396 . S
C439 C440 1.399 . S
C440 H426 0.929 . S
C440 C439 1.399 . S
C440 C441 1.385 . S
C441 H427 0.931 . S
C441 C440 1.385 . S
C441 C442 1.389 . S
C442 C441 1.389 . S
C442 C443 1.387 . S
C443 H428 0.930 . S
C443 C438 1.390 . S
C443 C442 1.387 . S
H444 C456 0.930 1_655 S
H445 C458 0.930 . S
H446 C459 0.930 . S
H447 C463 0.959 . S
H448 C463 0.959 . S
H449 C463 0.961 . S
H450 C464 0.960 . S
H451 C464 0.961 . S
H452 C464 0.959 1_455 S
H453 C467 0.929 . S
H454 C468 0.931 . S
H455 C470 0.930 1_655 S
C456 H444 0.930 1_455 S
C456 C457 1.399 . S
C456 C461 1.399 . S
C457 C456 1.399 . S
C457 C458 1.376 . S
C458 H445 0.930 . S
C458 C457 1.376 . S
C458 C459 1.388 . S
C459 H446 0.930 . S
C459 C458 1.388 . S
C459 C460 1.390 . S
C460 C459 1.390 . S
C460 C461 1.394 . S
C460 C466 1.465 . S
C461 C456 1.399 . S
C461 C460 1.394 . S
C461 C462 1.516 1_455 S
C462 C461 1.516 1_655 S
C462 C463 1.502 . S
C462 C464 1.561 . S
C462 C465 1.526 1_655 S
C463 H447 0.959 . S
C463 H448 0.959 . S
C463 H449 0.961 . S
C463 C462 1.502 . S
C464 H450 0.960 . S
C464 H451 0.961 . S
C464 H452 0.959 1_655 S
C464 C462 1.561 . S
C465 C462 1.526 1_455 S
C465 C466 1.396 . S
C465 C470 1.390 . S
C466 C460 1.465 . S
C466 C465 1.396 . S
C466 C467 1.399 . S
C467 H453 0.929 . S
C467 C466 1.399 . S
C467 C468 1.385 . S
C468 H454 0.931 . S
C468 C467 1.385 . S
C468 C469 1.389 . S
C469 C468 1.389 . S
C469 C470 1.387 . S
C470 H455 0.930 1_455 S
C470 C465 1.390 . S
C470 C469 1.387 . S
C172 C113 1.409 . S
C160 C14 1.420 . S
C187 C40 1.489 . S
C199 C131 1.456 . S
C214 C76 1.460 1_565 S
C226 C144 1.464 . S
C241 C3 1.379 1_565 S
C253 C111 1.362 . S
C280 C122 1.482 . S
C268 C38 1.475 . S
C295 C74 1.481 . S
C307 C135 1.483 . S
C334 C124 1.388 . S
C322 C86 1.333 . S
C349 C2 1.417 . S
C361 C137 1.419 . S
C388 C118 1.432 . S
C376 C39 1.442 1_565 S
C415 C126 1.400 . S
C403 C75 1.382 . S
C442 C139 1.372 . S
C430 C4 1.414 . S
C457 C50 1.460 . S
C469 C109 1.495 . S
