# Generated by pormake.
# Topology zzz, (3,6)-cn, num edge types: 1
# Building blocks:
#     Node 0, Type 0, BuildingBlock: OLANEW_clean_sbu_2, # of connection points: 3
#     Node 1, Type 0, BuildingBlock: OLANEW_clean_sbu_2, # of connection points: 3
#     Node 2, Type 0, BuildingBlock: OLANEW_clean_sbu_2, # of connection points: 3
#     Node 3, Type 0, BuildingBlock: OLANEW_clean_sbu_2, # of connection points: 3
#     Node 4, Type 0, BuildingBlock: OLANEW_clean_sbu_2, # of connection points: 3
#     Node 5, Type 0, BuildingBlock: OLANEW_clean_sbu_2, # of connection points: 3
#     Node 6, Type 0, BuildingBlock: OLANEW_clean_sbu_2, # of connection points: 3
#     Node 7, Type 0, BuildingBlock: OLANEW_clean_sbu_2, # of connection points: 3
#     Node 8, Type 1, BuildingBlock: LEVNOQ01_clean_sbu_1, # of connection points: 6
#     Node 9, Type 1, BuildingBlock: LEVNOQ01_clean_sbu_1, # of connection points: 6
#     Node 10, Type 1, BuildingBlock: LEVNOQ01_clean_sbu_1, # of connection points: 6
#     Node 11, Type 1, BuildingBlock: LEVNOQ01_clean_sbu_1, # of connection points: 6
#     Edge 12, Type (0, 1), BuildingBlock: XIVTED_clean_linker_0, # of connection points: 2
#     Edge 13, Type (0, 1), BuildingBlock: XIVTED_clean_linker_0, # of connection points: 2
#     Edge 14, Type (0, 1), BuildingBlock: XIVTED_clean_linker_0, # of connection points: 2
#     Edge 15, Type (0, 1), BuildingBlock: XIVTED_clean_linker_0, # of connection points: 2
#     Edge 16, Type (0, 1), BuildingBlock: XIVTED_clean_linker_0, # of connection points: 2
#     Edge 17, Type (0, 1), BuildingBlock: XIVTED_clean_linker_0, # of connection points: 2
#     Edge 18, Type (0, 1), BuildingBlock: XIVTED_clean_linker_0, # of connection points: 2
#     Edge 19, Type (0, 1), BuildingBlock: XIVTED_clean_linker_0, # of connection points: 2
#     Edge 20, Type (0, 1), BuildingBlock: XIVTED_clean_linker_0, # of connection points: 2
#     Edge 21, Type (0, 1), BuildingBlock: XIVTED_clean_linker_0, # of connection points: 2
#     Edge 22, Type (0, 1), BuildingBlock: XIVTED_clean_linker_0, # of connection points: 2
#     Edge 23, Type (0, 1), BuildingBlock: XIVTED_clean_linker_0, # of connection points: 2
#     Edge 24, Type (0, 1), BuildingBlock: XIVTED_clean_linker_0, # of connection points: 2
#     Edge 25, Type (0, 1), BuildingBlock: XIVTED_clean_linker_0, # of connection points: 2
#     Edge 26, Type (0, 1), BuildingBlock: XIVTED_clean_linker_0, # of connection points: 2
#     Edge 27, Type (0, 1), BuildingBlock: XIVTED_clean_linker_0, # of connection points: 2
#     Edge 28, Type (0, 1), BuildingBlock: XIVTED_clean_linker_0, # of connection points: 2
#     Edge 29, Type (0, 1), BuildingBlock: XIVTED_clean_linker_0, # of connection points: 2
#     Edge 30, Type (0, 1), BuildingBlock: XIVTED_clean_linker_0, # of connection points: 2
#     Edge 31, Type (0, 1), BuildingBlock: XIVTED_clean_linker_0, # of connection points: 2
#     Edge 32, Type (0, 1), BuildingBlock: XIVTED_clean_linker_0, # of connection points: 2
#     Edge 33, Type (0, 1), BuildingBlock: XIVTED_clean_linker_0, # of connection points: 2
#     Edge 34, Type (0, 1), BuildingBlock: XIVTED_clean_linker_0, # of connection points: 2
#     Edge 35, Type (0, 1), BuildingBlock: XIVTED_clean_linker_0, # of connection points: 2
# Relax obj value: 0.132
# Max RMSD: 0.181
# Mean RMSD: 0.111
data_MOF--net-zzz--node1-OLANEW_clean_sbu_2--node2-LEVNOQ01_clean_sbu_1--edge1-XIVTED_clean_linker_0
_symmetry_space_group_name_H-M    P1
_symmetry_Int_Tables_number       1
_symmetry_cell_setting            triclinic
loop_
_symmetry_equiv_pos_as_xyz
'x, y, z'
_cell_length_a     52.670391
_cell_length_b     52.951004
_cell_length_c     17.641181
_cell_angle_alpha  90.111851
_cell_angle_beta   90.014446
_cell_angle_gamma 90.116766
loop_
_atom_site_label
_atom_site_type_symbol
_atom_site_fract_x
_atom_site_fract_y
_atom_site_fract_z
_atom_type_partial_charge
O0 O 0.794 0.6007 0.01456 0.0
Cd1 Cd 0.75358 0.62007 0.05067 0.0
O2 O 0.7816 0.56684 0.07491 0.0
Cd3 Cd 0.78995 0.53218 0.13558 0.0
O4 O 0.81711 0.51875 0.2182 0.0
C5 C 0.83424 0.53477 0.23494 0.0
O6 O 0.834 0.55692 0.20153 0.0
C7 C 0.79857 0.57843 0.03715 0.0
C8 C 0.71196 0.59626 0.98417 0.0
O9 O 0.72457 0.61336 0.94921 0.0
O10 O 0.719 0.59024 0.05131 0.0
O11 O 0.9078 0.78993 0.02246 0.0
Cd12 Cd 0.89339 0.75199 0.08908 0.0
O13 O 0.94461 0.78006 0.07082 0.0
Cd14 Cd 0.98137 0.79004 0.11856 0.0
O15 O 0.99308 0.81604 0.20685 0.0
C16 C 0.97939 0.83572 0.21159 0.0
O17 O 0.96104 0.83902 0.16232 0.0
C18 C 0.93108 0.7953 0.03257 0.0
C19 C 0.91655 0.70953 0.02821 0.0
O20 O 0.92804 0.72332 0.07722 0.0
O21 O 0.89386 0.71548 0.00923 0.0
O22 O 0.71852 0.9114 0.05182 0.0
Cd23 Cd 0.75961 0.89606 0.09967 0.0
O24 O 0.72185 0.94183 0.13495 0.0
Cd25 Cd 0.71086 0.97515 0.20027 0.0
O26 O 0.72171 0.00652 0.28232 0.0
C27 C 0.71322 0.00773 0.3501 0.0
O28 O 0.72248 0.00742 0.28156 0.0
C29 C 0.70939 0.93118 0.08211 0.0
C30 C 0.80221 0.917 0.02808 0.0
O31 O 0.79074 0.89766 0.00073 0.0
O32 O 0.79343 0.92676 0.08923 0.0
O33 O 0.60098 0.71792 0.00757 0.0
Cd34 Cd 0.61485 0.75724 0.06905 0.0
O35 O 0.56551 0.72743 0.06407 0.0
Cd36 Cd 0.53021 0.71985 0.1234 0.0
O37 O 0.52097 0.69621 0.2192 0.0
C38 C 0.53696 0.67857 0.2287 0.0
O39 O 0.55589 0.67633 0.18071 0.0
C40 C 0.57834 0.71185 0.02463 0.0
C41 C 0.59193 0.79925 0.0047 0.0
O42 O 0.61509 0.79389 0.98958 0.0
O43 O 0.57977 0.78502 0.05084 0.0
O44 O 0.22575 0.44371 0.36986 0.0
Cd45 Cd 0.26381 0.42748 0.30645 0.0
O46 O 0.20657 0.40687 0.36965 0.0
Cd47 Cd 0.2279 0.39652 0.26895 0.0
O48 O 0.20571 0.41327 0.17714 0.0
C49 C 0.18178 0.41141 0.18557 0.0
O50 O 0.17296 0.39809 0.24259 0.0
C51 C 0.20739 0.42977 0.39108 0.0
C52 C 0.30734 0.44154 0.38692 0.0
O53 O 0.29792 0.45579 0.3355 0.0
O54 O 0.29639 0.42034 0.39981 0.0
O55 O 0.05739 0.2285 0.37432 0.0
Cd56 Cd 0.07647 0.26569 0.31415 0.0
O57 O 0.09615 0.21386 0.37147 0.0
Cd58 Cd 0.12178 0.18186 0.36027 0.0
O59 O 0.11103 0.154 0.27576 0.0
C60 C 0.09656 0.16347 0.22568 0.0
O61 O 0.09186 0.18781 0.22796 0.0
C62 C 0.07274 0.21047 0.38617 0.0
C63 C 0.07119 0.31005 0.39734 0.0
O64 O 0.05517 0.30419 0.34542 0.0
O65 O 0.08959 0.29483 0.41008 0.0
O66 O 0.28454 0.06679 0.3775 0.0
Cd67 Cd 0.24534 0.08302 0.32191 0.0
O68 O 0.30213 0.10403 0.36453 0.0
Cd69 Cd 0.33643 0.12603 0.34458 0.0
O70 O 0.36456 0.11187 0.26528 0.0
C71 C 0.35518 0.09511 0.22175 0.0
O72 O 0.33085 0.0899 0.227 0.0
C73 C 0.30393 0.08092 0.38337 0.0
C74 C 0.20442 0.06981 0.41227 0.0
O75 O 0.21444 0.05392 0.36638 0.0
O76 O 0.21337 0.09231 0.41459 0.0
O77 O 0.44555 0.27696 0.38681 0.0
Cd78 Cd 0.42395 0.24168 0.32425 0.0
O79 O 0.40932 0.29619 0.37013 0.0
Cd80 Cd 0.38806 0.3305 0.34712 0.0
O81 O 0.39823 0.35382 0.25057 0.0
C82 C 0.41655 0.36895 0.26183 0.0
O83 O 0.42487 0.37224 0.33115 0.0
C84 C 0.43225 0.29684 0.39263 0.0
C85 C 0.43378 0.19567 0.39331 0.0
O86 O 0.44724 0.20319 0.33714 0.0
O87 O 0.41573 0.20993 0.41645 0.0
O88 O 0.02736 0.96384 0.88835 0.0
Mg89 Mg 0.03955 0.9672 0.77594 0.0
O90 O 0.99232 0.97516 0.83163 0.0
Mg91 Mg 0.00166 0.00725 0.74169 0.0
O92 O 0.04549 0.00246 0.73538 0.0
O93 O 0.07695 0.97538 0.76002 0.0
O94 O 0.00916 0.03923 0.65014 0.0
O95 O 0.00822 0.03656 0.83531 0.0
Mg96 Mg 0.95839 0.05161 0.72849 0.0
O97 O 0.95925 0.01398 0.74832 0.0
O98 O 0.97364 0.05925 0.61989 0.0
O99 O 0.9798 0.06736 0.82128 0.0
O100 O 0.92285 0.03447 0.74494 0.0
C101 C 0.0036 0.95473 0.64391 0.0
C102 C 0.0035 0.96272 0.88388 0.0
C103 C 0.06956 -0.00287 0.73559 0.0
C104 C 0.99705 0.05508 0.60889 0.0
C105 C -0.00107 0.05783 0.85504 0.0
C106 C 0.93494 0.01378 0.75732 0.0
O107 O 0.0197 0.94636 0.69141 0.0
O108 O 0.99551 0.97745 0.64734 0.0
O109 O 0.44548 0.9789 0.80691 0.0
Mg110 Mg 0.46046 0.95921 0.71154 0.0
O111 O 0.47697 0.00674 0.81484 0.0
Mg112 Mg 0.5059 -0.00192 0.71923 0.0
O113 O 0.49868 0.95509 0.72707 0.0
O114 O 0.47189 0.92248 0.72137 0.0
O115 O 0.53582 0.99014 0.62534 0.0
O116 O 0.53856 0.99185 0.81242 0.0
Mg117 Mg 0.54963 0.04269 0.73072 0.0
O118 O 0.51267 0.03993 0.7087 0.0
O119 O 0.5657 0.01981 0.64263 0.0
O120 O 0.55425 0.02951 0.84163 0.0
O121 O 0.53165 0.07707 0.70745 0.0
C122 C 0.45653 0.99519 0.58916 0.0
C123 C 0.45582 -0.00207 0.8385 0.0
C124 C 0.49465 0.93092 0.73149 0.0
C125 C 0.55708 0.00039 0.60826 0.0
C126 C 0.55292 0.00596 0.85361 0.0
C127 C 0.51149 0.06382 0.69586 0.0
O128 O 0.45019 0.9727 0.60401 0.0
O129 O 0.47412 0.0061 0.62721 0.0
O130 O 0.53449 0.43995 0.81415 0.0
Mg131 Mg 0.55389 0.45495 0.71731 0.0
O132 O 0.50436 0.4695 0.81915 0.0
Mg133 Mg 0.51121 0.49987 0.72911 0.0
O134 O 0.5539 0.49288 0.7333 0.0
O135 O 0.58977 0.47118 0.72695 0.0
O136 O 0.5175 0.53104 0.63968 0.0
O137 O 0.52127 0.53083 0.8225 0.0
Mg138 Mg 0.47592 0.53732 0.77371 0.0
O139 O 0.46701 0.50463 0.71921 0.0
O140 O 0.49535 0.56126 0.69658 0.0
O141 O 0.48715 0.53879 0.88809 0.0
O142 O 0.43813 0.53332 0.75523 0.0
C143 C 0.51467 0.45192 0.59676 0.0
C144 C 0.51436 0.44909 0.8431 0.0
C145 C 0.57835 0.4923 0.73914 0.0
C146 C 0.51031 0.55406 0.6443 0.0
C147 C 0.51074 0.54162 0.87919 0.0
C148 C 0.44356 0.51226 0.72207 0.0
O149 O 0.53749 0.44603 0.61124 0.0
O150 O 0.50329 0.46905 0.63516 0.0
O151 O 0.96392 0.47416 0.89259 0.0
Mg152 Mg 0.97103 0.45882 0.78454 0.0
O153 O 0.97606 0.51116 0.84795 0.0
Mg154 Mg 0.00862 0.50641 0.75609 0.0
O155 O 0.00715 0.46354 0.75172 0.0
O156 O 0.99093 0.42532 0.76659 0.0
O157 O 0.04091 0.50062 0.66264 0.0
O158 O 0.03846 0.50126 0.85175 0.0
Mg159 Mg 0.04675 0.54559 0.74132 0.0
O160 O 0.00899 0.55106 0.76375 0.0
O161 O 0.05753 0.53712 0.63121 0.0
O162 O 0.06852 0.52936 0.82974 0.0
O163 O 0.03792 0.58211 0.75313 0.0
C164 C 0.95755 0.49514 0.65047 0.0
C165 C 0.96303 0.49805 0.89491 0.0
C166 C 0.00926 0.43941 0.74308 0.0
C167 C 0.05581 0.51366 0.62068 0.0
C168 C 0.06009 0.5108 0.86742 0.0
C169 C 0.01478 0.57506 0.76483 0.0
O170 O 0.95168 0.47634 0.69217 0.0
O171 O 0.97758 0.5084 0.66245 0.0
H172 H 0.19989 0.02448 0.48092 0.0
H173 H 0.06198 0.0331 0.62693 0.0
H174 H 0.16324 0.09696 0.46157 0.0
H175 H 0.12034 -0.00185 0.76171 0.0
H176 H 0.09509 0.05533 0.55417 0.0
H177 H 0.16693 0.0111 0.56981 0.0
C178 C 0.18477 0.0375 0.49518 0.0
C179 C 0.18415 0.06179 0.4642 0.0
C180 C 0.10048 0.04328 0.60102 0.0
C181 C 0.14638 0.04656 0.56466 0.0
C182 C 0.08166 0.0309 0.64293 0.0
C183 C 0.08846 0.01405 0.70066 0.0
C184 C 0.12609 0.03805 0.61606 0.0
C185 C 0.11429 0.01086 0.71725 0.0
C186 C 0.16616 0.02996 0.54621 0.0
C187 C 0.1643 0.07808 0.48481 0.0
N188 N 0.13218 0.02238 0.67424 0.0
N189 N 0.14585 0.07004 0.53323 0.0
H190 H 0.46575 0.15791 0.34719 0.0
H191 H 0.47739 0.0979 0.7488 0.0
H192 H 0.41493 0.17896 0.5285 0.0
H193 H 0.50051 0.05772 0.54803 0.0
H194 H 0.45225 0.12655 0.6698 0.0
H195 H 0.47775 0.12026 0.41873 0.0
C196 C 0.45693 0.15448 0.4017 0.0
C197 C 0.43953 0.17172 0.43238 0.0
C198 C 0.46215 0.11098 0.64313 0.0
C199 C 0.45325 0.12883 0.51453 0.0
C200 C 0.47629 0.09459 0.68826 0.0
C201 C 0.49049 0.07533 0.65454 0.0
C202 C 0.46314 0.10854 0.56383 0.0
C203 C 0.48936 0.0722 0.57579 0.0
C204 C 0.46366 0.13291 0.44226 0.0
C205 C 0.42856 0.16625 0.50299 0.0
N206 N 0.47628 0.08897 0.53273 0.0
N207 N 0.43591 0.14548 0.54227 0.0
H208 H 0.33446 0.4147 0.49301 0.0
H209 H 0.40825 0.53626 0.63909 0.0
H210 H 0.33075 0.48754 0.38414 0.0
H211 H 0.43493 0.46156 0.69381 0.0
H212 H 0.37706 0.51797 0.55345 0.0
H213 H 0.3692 0.43049 0.57322 0.0
C214 C 0.34103 0.43393 0.48561 0.0
C215 C 0.32953 0.4499 0.43214 0.0
C216 C 0.38965 0.50547 0.58405 0.0
C217 C 0.36895 0.46802 0.524 0.0
C218 C 0.40731 0.51589 0.63362 0.0
C219 C 0.42402 0.50034 0.6739 0.0
C220 C 0.38825 0.47917 0.5754 0.0
C221 C 0.42234 0.47412 0.66345 0.0
C222 C 0.36087 0.44286 0.53126 0.0
C223 C 0.3389 0.47458 0.42476 0.0
N224 N 0.40453 0.46425 0.61554 0.0
N225 N 0.35785 0.48292 0.47062 0.0
H226 H 0.09598 0.32323 0.52796 0.0
H227 H 0.01121 0.4464 0.59246 0.0
H228 H 0.03939 0.34986 0.37032 0.0
H229 H 0.04641 0.40517 0.77434 0.0
H230 H 0.03193 0.41841 0.50068 0.0
H231 H 0.08769 0.36002 0.60853 0.0
C232 C 0.08202 0.33694 0.50986 0.0
C233 C 0.06805 0.33328 0.44294 0.0
C234 C 0.03567 0.41588 0.56055 0.0
C235 C 0.05872 0.37543 0.5344 0.0
C236 C 0.02413 0.432 0.61276 0.0
C237 C 0.02766 0.42829 0.69061 0.0
C238 C 0.05056 0.39575 0.58672 0.0
C239 C 0.04377 0.40888 0.71452 0.0
C240 C 0.07732 0.3579 0.55587 0.0
C241 C 0.05032 0.35174 0.42201 0.0
N242 N 0.05455 0.39317 0.66269 0.0
N243 N 0.04606 0.37195 0.46783 0.0
H244 H 0.81984 0.90611 0.88609 0.0
H245 H 0.9378 0.00122 0.90539 0.0
H246 H 0.83602 0.95237 0.08202 0.0
H247 H 0.90007 0.98156 0.69688 0.0
H248 H 0.90764 0.97445 0.97516 0.0
H249 H 0.85598 0.92531 0.82067 0.0
C250 C 0.83107 0.92019 0.91557 0.0
C251 C 0.82471 0.92783 0.9894 0.0
C252 C 0.90629 0.97561 0.914 0.0
C253 C 0.86629 0.9496 0.91501 0.0
C254 C 0.92363 0.99057 0.87422 0.0
C255 C 0.92159 0.99304 0.79538 0.0
C256 C 0.88687 0.96307 0.87434 0.0
C257 C 0.9025 0.9796 0.75753 0.0
C258 C 0.85167 0.93113 0.87813 0.0
C259 C 0.84006 0.9461 0.02486 0.0
N260 N 0.88582 0.96516 0.79738 0.0
N261 N 0.86015 0.95638 0.9873 0.0
H262 H 0.54402 0.79896 0.95004 0.0
H263 H 0.53782 0.94078 0.81265 0.0
H264 H 0.6105 0.84619 0.96935 0.0
H265 H 0.49566 0.88031 0.70855 0.0
H266 H 0.56369 0.90923 0.88098 0.0
H267 H 0.52336 0.8318 0.87529 0.0
C268 C 0.55412 0.81643 0.93915 0.0
C269 C 0.57895 0.81995 0.96524 0.0
C270 C 0.54905 0.903 0.84203 0.0
C271 C 0.5555 0.85759 0.88027 0.0
C272 C 0.53447 0.92092 0.80324 0.0
C273 C 0.51435 0.9131 0.75679 0.0
C274 C 0.54326 0.87723 0.83355 0.0
C275 C 0.51067 0.88716 0.7452 0.0
C276 C 0.54246 0.83505 0.89598 0.0
C277 C 0.59136 0.84282 0.94928 0.0
N278 N 0.52473 0.87018 0.78413 0.0
N279 N 0.57941 0.86099 0.9081 0.0
H280 H 0.70013 0.59605 0.83394 0.0
H281 H 0.57387 0.51346 0.8782 0.0
H282 H 0.67416 0.56793 0.05 0.0
H283 H 0.61775 0.51663 0.6725 0.0
H284 H 0.60497 0.54147 0.93982 0.0
H285 H 0.66471 0.57445 0.77215 0.0
C286 C 0.68688 0.58546 0.86847 0.0
C287 C 0.69016 0.58368 0.94716 0.0
C288 C 0.60753 0.53639 0.88082 0.0
C289 C 0.64944 0.55915 0.87678 0.0
C290 C 0.58966 0.52077 0.84549 0.0
C291 C 0.59308 0.51343 0.76989 0.0
C292 C 0.62885 0.5446 0.83988 0.0
C293 C 0.61425 0.52247 0.73042 0.0
C294 C 0.6667 0.57312 0.83312 0.0
C295 C 0.67242 0.56963 0.98907 0.0
N296 N 0.63137 0.53764 0.76587 0.0
N297 N 0.65274 0.5579 0.95333 0.0
H298 H 0.96734 0.70418 0.00769 0.0
H299 H 0.96533 0.569 0.81434 0.0
H300 H 0.89577 0.66725 0.96282 0.0
H301 H 0.02237 0.62575 0.77063 0.0
H302 H 0.93955 0.60134 0.87945 0.0
H303 H 0.98898 0.67121 0.93593 0.0
C304 C 0.95622 0.68895 0.98338 0.0
C305 C 0.92976 0.68844 0.99068 0.0
C306 C 0.95763 0.60658 0.85474 0.0
C307 C 0.95436 0.65067 0.9086 0.0
C308 C 0.9723 0.5882 0.81796 0.0
C309 C 0.99638 0.59447 0.78949 0.0
C310 C 0.96732 0.6312 0.8628 0.0
C311 C 0.00424 0.6198 0.7934 0.0
C312 C 0.96853 0.67027 0.94188 0.0
C313 C 0.91623 0.66834 0.9577 0.0
N314 N 0.98996 0.63708 0.83041 0.0
N315 N 0.92871 0.65008 0.91819 0.0
H316 H 0.09674 0.17583 0.47546 0.0
H317 H 0.97959 0.07913 0.48179 0.0
H318 H 0.02699 0.18822 0.35327 0.0
H319 H 0.04524 0.07321 0.62643 0.0
H320 H -0.00051 0.11512 0.41768 0.0
H321 H 0.08087 0.13459 0.51565 0.0
C322 C 0.07822 0.16968 0.45609 0.0
C323 C 0.06327 0.18537 0.41033 0.0
C324 C 0.00978 0.10559 0.46236 0.0
C325 C 0.04469 0.13828 0.45739 0.0
C326 C -0.00149 0.08493 0.49862 0.0
C327 C 0.01098 0.07277 0.55873 0.0
C328 C 0.03361 0.11434 0.48689 0.0
C329 C 0.03533 0.0813 0.57872 0.0
C330 C 0.06907 0.14619 0.4795 0.0
C331 C 0.03909 0.17675 0.38885 0.0
N332 N 0.04571 0.10166 0.54346 0.0
N333 N 0.03053 0.1538 0.41261 0.0
H334 H 0.34246 0.10307 0.46385 0.0
H335 H 0.42765 0.97809 0.47085 0.0
H336 H 0.32154 0.03349 0.35269 0.0
H337 H 0.44486 0.04528 0.59934 0.0
H338 H 0.39231 0.0003 0.41068 0.0
H339 H 0.38319 0.0843 0.49913 0.0
C340 C 0.34662 0.08397 0.44584 0.0
C341 C 0.32873 0.06992 0.40461 0.0
C342 C 0.40416 0.01039 0.45082 0.0
C343 C 0.37512 0.04809 0.44592 0.0
C344 C 0.42445 -0.00223 0.48476 0.0
C345 C 0.43949 0.00998 0.53945 0.0
C346 C 0.39866 0.03535 0.47225 0.0
C347 C 0.43431 0.03539 0.55589 0.0
C348 C 0.36981 0.07319 0.4664 0.0
C349 C 0.33478 0.04496 0.38477 0.0
N350 N 0.41417 0.04714 0.52312 0.0
N351 N 0.35744 0.03484 0.40565 0.0
H352 H 0.47962 0.31448 0.35956 0.0
H353 H 0.46351 0.4423 0.59875 0.0
H354 H 0.41161 0.33345 0.48277 0.0
H355 H 0.53273 0.42066 0.4857 0.0
H356 H 0.44234 0.40533 0.54409 0.0
H357 H 0.49823 0.35502 0.39716 0.0
C358 C 0.46868 0.32719 0.39487 0.0
C359 C 0.44398 0.32083 0.41744 0.0
C360 C 0.46206 0.40888 0.53029 0.0
C361 C 0.46513 0.36718 0.46121 0.0
C362 C 0.47406 0.43022 0.56068 0.0
C363 C 0.50001 0.43448 0.5475 0.0
C364 C 0.47611 0.39174 0.48617 0.0
C365 C 0.51277 0.41798 0.49812 0.0
C366 C 0.47924 0.35037 0.41608 0.0
C367 C 0.4306 0.33788 0.46339 0.0
N368 N 0.5008 0.39722 0.47002 0.0
N369 N 0.44138 0.36025 0.48406 0.0
H370 H 0.16292 0.40658 0.4323 0.0
H371 H 0.09502 0.5361 0.5442 0.0
H372 H 0.20115 0.4788 0.43712 0.0
H373 H 0.06282 0.46315 0.59428 0.0
H374 H 0.13206 0.51536 0.49016 0.0
H375 H 0.12461 0.42682 0.48127 0.0
C376 C 0.1634 0.42662 0.44462 0.0
C377 C 0.18534 0.44101 0.43054 0.0
C378 C 0.1167 0.50384 0.51196 0.0
C379 C 0.14136 0.46433 0.48519 0.0
C380 C 0.09536 0.51566 0.54223 0.0
C381 C 0.07553 0.50126 0.57368 0.0
C382 C 0.1182 0.4774 0.51217 0.0
C383 C 0.07735 0.47489 0.56986 0.0
C384 C 0.14146 0.43818 0.47212 0.0
C385 C 0.18472 0.46695 0.44704 0.0
N386 N 0.09833 0.46377 0.53997 0.0
N387 N 0.16304 0.47779 0.47304 0.0
H388 H 0.98018 0.80788 -0.00469 0.0
H389 H 0.95365 0.94814 0.86975 0.0
H390 H 0.90488 0.83927 0.01232 0.0
H391 H 0.02407 0.92658 0.9764 0.0
H392 H 0.93506 0.90781 0.90848 0.0
H393 H 0.99691 0.85021 0.96987 0.0
C394 C 0.96721 0.82369 0.99466 0.0
C395 C 0.94121 0.82017 0.00871 0.0
C396 C 0.95445 0.91216 0.92439 0.0
C397 C 0.96008 0.86843 0.9767 0.0
C398 C 0.96497 0.93536 0.90327 0.0
C399 C 0.99038 0.94107 0.92049 0.0
C400 C 0.96968 0.89422 0.96105 0.0
C401 C 0.00439 0.92317 0.96191 0.0
C402 C 0.97675 0.8478 0.97974 0.0
C403 C 0.92509 0.84118 0.00268 0.0
N404 N 0.994 0.90041 0.97957 0.0
N405 N 0.93478 0.86444 0.98717 0.0
H406 H 0.66799 0.90515 0.02971 0.0
H407 H 0.59513 0.02982 0.90651 0.0
H408 H 0.69538 0.98066 0.07211 0.0
H409 H 0.55733 0.95748 0.91367 0.0
H410 H 0.63174 0.01141 0.96705 0.0
H411 H 0.6277 0.9229 0.98411 0.0
C412 C 0.66543 0.92545 0.02991 0.0
C413 C 0.68485 0.94148 0.05596 0.0
C414 C 0.61543 -0.00053 0.95604 0.0
C415 C 0.63909 0.96183 0.00355 0.0
C416 C 0.59425 0.01001 0.92155 0.0
C417 C 0.57305 0.99503 0.90283 0.0
C418 C 0.61572 0.97361 0.97251 0.0
C419 C 0.57349 0.9695 0.92414 0.0
C420 C 0.64243 0.93553 0.00431 0.0
C421 C 0.68068 0.96759 0.05473 0.0
N422 N 0.59462 0.95948 0.95717 0.0
N423 N 0.65835 0.97692 0.0286 0.0
H424 H 0.52855 0.69561 0.01392 0.0
H425 H 0.55798 0.56084 0.84952 0.0
H426 H 0.60568 0.6696 0.98941 0.0
H427 H 0.49166 0.57401 0.98728 0.0
H428 H 0.57541 0.6012 0.89138 0.0
H429 H 0.51351 0.65245 0.99254 0.0
C430 C 0.54238 0.68082 0.0057 0.0
C431 C 0.56851 0.6862 0.0063 0.0
C432 C 0.55727 0.59501 0.91364 0.0
C433 C 0.55129 0.6369 0.97792 0.0
C434 C 0.54747 0.57169 0.89075 0.0
C435 C 0.52354 0.56354 0.91603 0.0
C436 C 0.5427 0.61081 0.96034 0.0
C437 C 0.51027 0.57931 0.96659 0.0
C438 C 0.53374 0.65619 0.99281 0.0
C439 C 0.58539 0.66637 0.99023 0.0
N440 N 0.51982 0.60235 0.98606 0.0
N441 N 0.5765 0.64265 0.97642 0.0
H442 H 0.84437 0.60256 0.02635 0.0
H443 H 0.92183 0.47463 0.95778 0.0
H444 H 0.81035 0.52851 0.01524 0.0
H445 H 0.95504 0.54845 0.92734 0.0
H446 H 0.88265 0.49433 -2e-05 0.0
H447 H 0.88616 0.58341 0.00548 0.0
C448 C 0.84571 0.58226 0.01997 0.0
C449 C 0.82389 0.56705 0.02421 0.0
C450 C 0.89854 0.50629 0.98467 0.0
C451 C 0.87161 0.54503 0.00062 0.0
C452 C 0.92113 0.49504 0.9612 0.0
C453 C 0.94174 0.50994 0.93719 0.0
C454 C 0.89642 0.5327 0.9848 0.0
C455 C 0.93946 0.53628 0.94323 0.0
C456 C 0.86957 0.57135 0.0084 0.0
C457 C 0.82671 0.54088 0.01519 0.0
N458 N 0.91711 0.54685 0.96569 0.0
N459 N 0.85009 0.53072 0.00391 0.0
H460 H 0.10492 0.11348 0.19278 0.0
H461 H 0.98718 0.10518 0.90699 0.0
H462 H 0.05763 0.17688 0.13275 0.0
H463 H 0.04106 0.04459 0.93708 0.0
H464 H 0.01131 0.13071 -0.00314 0.0
H465 H 0.08074 0.08705 0.10421 0.0
C466 C 0.08952 0.12183 0.16084 0.0
C467 C 0.08327 0.14738 0.17007 0.0
C468 C 0.01782 0.1118 0.98395 0.0
C469 C 0.05542 0.11732 0.06972 0.0
C470 C 0.00396 0.09714 0.93289 0.0
C471 C 0.01208 0.07268 0.91432 0.0
C472 C 0.03994 0.10194 0.01695 0.0
C473 C 0.03404 0.06333 0.94968 0.0
C474 C 0.07573 0.10677 0.11041 0.0
C475 C 0.06318 0.15729 0.12725 0.0
N476 N 0.04724 0.078 -0.00081 0.0
N477 N 0.04991 0.14222 0.07924 0.0
H478 H 0.40494 0.10377 0.18285 0.0
H479 H 0.41032 0.98488 0.90229 0.0
H480 H 0.34181 0.05365 0.13939 0.0
H481 H 0.47018 0.04058 0.9167 0.0
H482 H 0.38668 0.00798 -0.00154 0.0
H483 H 0.43068 0.07923 0.0935 0.0
C484 C 0.39652 0.08763 0.15458 0.0
C485 C 0.37118 0.08082 0.1682 0.0
C486 C 0.40502 0.01514 0.9808 0.0
C487 C 0.40046 0.05264 0.06674 0.0
C488 C 0.4186 0.0019 0.92594 0.0
C489 C 0.44226 0.01085 0.90094 0.0
C490 C 0.41512 0.03753 0.01122 0.0
C491 C 0.45199 0.033 0.93406 0.0
C492 C 0.41119 0.07365 0.10365 0.0
C493 C 0.36121 0.05971 0.13022 0.0
N494 N 0.43833 0.04564 0.98734 0.0
N495 N 0.37587 0.04638 0.08134 0.0
H496 H 0.40238 0.37087 0.11245 0.0
H497 H 0.53472 0.42614 0.96762 0.0
H498 H 0.46341 0.39075 0.26503 0.0
H499 H 0.46398 0.4399 0.85185 0.0
H500 H 0.51114 0.4044 0.06884 0.0
H501 H 0.42735 0.38779 0.00674 0.0
C502 C 0.42093 0.3789 0.12373 0.0
C503 C 0.43067 0.37983 0.19766 0.0
C504 C 0.50088 0.4121 0.02096 0.0
C505 C 0.45935 0.39861 0.07745 0.0
C506 C 0.51427 0.42436 0.96348 0.0
C507 C 0.50109 0.435 0.90253 0.0
C508 C 0.47433 0.41003 0.01588 0.0
C509 C 0.47466 0.43225 0.89898 0.0
C510 C 0.43515 0.38846 0.06354 0.0
C511 C 0.455 0.39007 0.20906 0.0
N512 N 0.4621 0.41992 0.95489 0.0
N513 N 0.46855 0.39902 0.14947 0.0
H514 H 0.19305 0.44531 0.07275 0.0
H515 H 0.04814 0.4726 0.96644 0.0
H516 H 0.12991 0.41065 0.18923 0.0
H517 H 0.11058 0.51951 0.89288 0.0
H518 H 0.07769 0.44841 0.04481 0.0
H519 H 0.16303 0.47073 -0.00035 0.0
C520 C 0.1729 0.44294 0.08268 0.0
C521 C 0.16401 0.42581 0.13717 0.0
C522 C 0.08486 0.46414 0.01198 0.0
C523 C 0.12956 0.45495 0.05415 0.0
C524 C 0.06799 0.47801 0.96742 0.0
C525 C 0.07687 0.49812 0.92289 0.0
C526 C 0.11084 0.4702 0.01129 0.0
C527 C 0.10283 0.50422 0.92635 0.0
C528 C 0.15577 0.45757 0.04128 0.0
C529 C 0.13765 0.42359 0.14776 0.0
N530 N 0.11891 0.49017 0.96914 0.0
N531 N 0.12137 0.43797 0.10662 0.0
H532 H 0.00413 0.82791 0.34534 0.0
H533 H 0.9821 0.9668 0.50627 0.0
H534 H 0.96074 0.88363 0.22298 0.0
H535 H 0.00627 0.90358 0.64247 0.0
H536 H 0.97416 0.9376 0.40044 0.0
H537 H 0.00652 0.8567 0.45313 0.0
C538 C 0.99528 0.8463 0.34101 0.0
C539 C 0.98229 0.85346 0.27526 0.0
C540 C 0.98095 0.93018 0.45387 0.0
C541 C 0.98484 0.88649 0.39834 0.0
C542 C 0.9854 0.94679 0.5142 0.0
C543 C 0.9953 0.93763 0.58265 0.0
C544 C 0.98656 0.90439 0.46249 0.0
C545 C -0.00083 0.91155 0.59013 0.0
C546 C 0.99644 0.86265 0.40276 0.0
C547 C 0.97091 0.87741 0.27289 0.0
N548 N 0.99502 0.89591 0.53061 0.0
N549 N 0.97256 0.89318 0.33354 0.0
H550 H 0.70393 0.9833 0.48055 0.0
H551 H 0.56045 0.01118 0.45785 0.0
H552 H 0.66873 0.00376 0.269 0.0
H553 H 0.59283 0.96505 0.63356 0.0
H554 H 0.59753 0.00248 0.37785 0.0
H555 H 0.66259 0.97005 0.52907 0.0
C556 C 0.68748 0.98443 0.4438 0.0
C557 C 0.6896 0.99464 0.37112 0.0
C558 C 0.59617 0.99351 0.43281 0.0
C559 C 0.64203 0.98067 0.42701 0.0
C560 C 0.57495 -0.00163 0.47813 0.0
C561 C 0.57376 0.9887 0.55183 0.0
C562 C 0.61654 0.97959 0.46282 0.0
C563 C 0.59314 0.97268 0.57664 0.0
C564 C 0.66386 0.97687 0.47137 0.0
C565 C 0.66779 -0.00415 0.32548 0.0
N566 N 0.61403 0.96905 0.53286 0.0
N567 N 0.64473 0.98958 0.35494 0.0
H568 H 0.50898 0.6845 0.35786 0.0
H569 H 0.53839 0.5465 0.51461 0.0
H570 H 0.56037 0.63308 0.24611 0.0
H571 H 0.50033 0.60449 0.64411 0.0
H572 H 0.54748 0.57777 0.41601 0.0
H573 H 0.50575 0.65505 0.46375 0.0
C574 C 0.51952 0.66696 0.35559 0.0
C575 C 0.53481 0.66109 0.29308 0.0
C576 C 0.53732 0.58362 0.46639 0.0
C577 C 0.53121 0.6273 0.41367 0.0
C578 C 0.53213 0.56579 0.5226 0.0
C579 C 0.51825 0.57278 0.58711 0.0
C580 C 0.52839 0.60847 0.47481 0.0
C581 C 0.51076 0.5981 0.59483 0.0
C582 C 0.51781 0.65022 0.41619 0.0
C583 C 0.54833 0.63828 0.29334 0.0
N584 N 0.51572 0.61494 0.53906 0.0
N585 N 0.54605 0.62208 0.35251 0.0
H586 H 0.87443 0.56416 0.2792 0.0
H587 H 0.91843 0.46653 0.59751 0.0
H588 H 0.8381 0.49247 0.32269 0.0
H589 H 0.95758 0.53699 0.55685 0.0
H590 H 0.88951 0.47603 0.49488 0.0
H591 H 0.90556 0.55482 0.37817 0.0
C592 C 0.87302 0.54643 0.30943 0.0
C593 C 0.8536 0.52907 0.29281 0.0
C594 C 0.90439 0.48948 0.50809 0.0
C595 C 0.8891 0.51833 0.40594 0.0
C596 C 0.92097 0.48409 0.56705 0.0
C597 C 0.94046 0.50107 0.58636 0.0
C598 C 0.9071 0.51208 0.46767 0.0
C599 C 0.94283 0.52338 0.544 0.0
C600 C 0.89081 0.54113 0.36587 0.0
C601 C 0.85274 0.5064 0.33355 0.0
N602 N 0.92624 0.52831 0.48667 0.0
N603 N 0.87019 0.50174 0.3883 0.0
loop_
_geom_bond_atom_site_label_1
_geom_bond_atom_site_label_2
_geom_bond_distance
_geom_bond_site_symmetry_2
_ccdc_geom_bond_type
O0 Cd1 2.300 1_556 S
O0 C7 1.275 1_556 S
Cd1 O0 2.300 1_554 S
Cd1 O9 2.381 1_554 S
Cd1 O10 2.378 . S
O2 Cd3 2.385 . S
O2 C7 1.255 . S
Cd3 O2 2.385 . S
Cd3 O4 2.317 . S
O4 Cd3 2.317 . S
O4 C5 1.232 . S
C5 O4 1.232 . S
C5 O6 1.218 . S
O6 C5 1.218 . S
C7 O0 1.275 1_554 S
C7 O2 1.255 . S
C8 O9 1.258 1_554 S
C8 O10 1.256 . S
O9 Cd1 2.381 1_556 S
O9 C8 1.258 1_556 S
O10 Cd1 2.378 . S
O10 C8 1.256 . S
O11 Cd12 2.300 1_556 S
O11 C18 1.275 1_556 S
Cd12 O11 2.300 1_554 S
Cd12 O20 2.381 1_554 S
Cd12 O21 2.378 . S
O13 Cd14 2.385 1_655 S
O13 C18 1.255 . S
Cd14 O13 2.385 1_455 S
Cd14 O15 2.317 1_455 S
O15 Cd14 2.317 1_655 S
O15 C16 1.232 . S
C16 O15 1.232 . S
C16 O17 1.218 . S
O17 C16 1.218 . S
C18 O11 1.275 1_554 S
C18 O13 1.255 . S
C19 O20 1.258 1_554 S
C19 O21 1.256 . S
O20 Cd12 2.381 1_556 S
O20 C19 1.258 1_556 S
O21 Cd12 2.378 . S
O21 C19 1.256 . S
O22 Cd23 2.300 1_556 S
O22 C29 1.275 1_556 S
Cd23 O22 2.300 1_554 S
Cd23 O31 2.381 1_554 S
Cd23 O32 2.378 . S
O24 Cd25 2.385 1_565 S
O24 C29 1.255 . S
Cd25 O24 2.385 1_545 S
Cd25 O26 2.317 1_545 S
O26 Cd25 2.317 1_565 S
O26 C27 1.232 . S
C27 O26 1.232 . S
C27 O28 1.218 . S
O28 C27 1.218 . S
C29 O22 1.275 1_554 S
C29 O24 1.255 . S
C30 O31 1.258 1_554 S
C30 O32 1.256 . S
O31 Cd23 2.381 1_556 S
O31 C30 1.258 1_556 S
O32 Cd23 2.378 . S
O32 C30 1.256 . S
O33 Cd34 2.300 1_556 S
O33 C40 1.275 1_556 S
Cd34 O33 2.300 1_554 S
Cd34 O42 2.381 1_554 S
Cd34 O43 2.378 . S
O35 Cd36 2.385 . S
O35 C40 1.255 . S
Cd36 O35 2.385 . S
Cd36 O37 2.317 . S
O37 Cd36 2.317 . S
O37 C38 1.232 . S
C38 O37 1.232 . S
C38 O39 1.218 . S
O39 C38 1.218 . S
C40 O33 1.275 1_554 S
C40 O35 1.255 . S
C41 O42 1.258 1_554 S
C41 O43 1.256 . S
O42 Cd34 2.381 1_556 S
O42 C41 1.258 1_556 S
O43 Cd34 2.378 . S
O43 C41 1.256 . S
O44 Cd45 2.300 . S
O44 C51 1.275 . S
Cd45 O44 2.300 . S
Cd45 O53 2.381 . S
Cd45 O54 2.378 . S
O46 Cd47 2.385 . S
O46 C51 1.255 . S
Cd47 O46 2.385 . S
Cd47 O48 2.317 . S
O48 Cd47 2.317 . S
O48 C49 1.232 . S
C49 O48 1.232 . S
C49 O50 1.218 . S
O50 C49 1.218 . S
C51 O44 1.275 . S
C51 O46 1.255 . S
C52 O53 1.258 . S
C52 O54 1.256 . S
O53 Cd45 2.381 . S
O53 C52 1.258 . S
O54 Cd45 2.378 . S
O54 C52 1.256 . S
O55 Cd56 2.300 . S
O55 C62 1.275 . S
Cd56 O55 2.300 . S
Cd56 O64 2.381 . S
Cd56 O65 2.378 . S
O57 Cd58 2.385 . S
O57 C62 1.255 . S
Cd58 O57 2.385 . S
Cd58 O59 2.317 . S
O59 Cd58 2.317 . S
O59 C60 1.232 . S
C60 O59 1.232 . S
C60 O61 1.218 . S
O61 C60 1.218 . S
C62 O55 1.275 . S
C62 O57 1.255 . S
C63 O64 1.258 . S
C63 O65 1.256 . S
O64 Cd56 2.381 . S
O64 C63 1.258 . S
O65 Cd56 2.378 . S
O65 C63 1.256 . S
O66 Cd67 2.300 . S
O66 C73 1.275 . S
Cd67 O66 2.300 . S
Cd67 O75 2.381 . S
Cd67 O76 2.378 . S
O68 Cd69 2.385 . S
O68 C73 1.255 . S
Cd69 O68 2.385 . S
Cd69 O70 2.317 . S
O70 Cd69 2.317 . S
O70 C71 1.232 . S
C71 O70 1.232 . S
C71 O72 1.218 . S
O72 C71 1.218 . S
C73 O66 1.275 . S
C73 O68 1.255 . S
C74 O75 1.258 . S
C74 O76 1.256 . S
O75 Cd67 2.381 . S
O75 C74 1.258 . S
O76 Cd67 2.378 . S
O76 C74 1.256 . S
O77 Cd78 2.300 . S
O77 C84 1.275 . S
Cd78 O77 2.300 . S
Cd78 O86 2.381 . S
Cd78 O87 2.378 . S
O79 Cd80 2.385 . S
O79 C84 1.255 . S
Cd80 O79 2.385 . S
Cd80 O81 2.317 . S
O81 Cd80 2.317 . S
O81 C82 1.232 . S
C82 O81 1.232 . S
C82 O83 1.218 . S
O83 C82 1.218 . S
C84 O77 1.275 . S
C84 O79 1.255 . S
C85 O86 1.258 . S
C85 O87 1.256 . S
O86 Cd78 2.381 . S
O86 C85 1.258 . S
O87 Cd78 2.378 . S
O87 C85 1.256 . S
O88 Mg89 1.990 . S
O88 C102 1.253 . S
Mg89 O88 1.990 . S
Mg89 O92 2.180 . S
Mg89 O93 2.117 . S
Mg89 O107 2.030 . S
O90 Mg91 2.072 1_565 S
O90 C102 1.260 . S
Mg91 O90 2.072 1_545 S
Mg91 O92 2.099 1_545 S
Mg91 O94 2.079 . S
Mg91 O95 2.072 . S
Mg91 O97 2.099 1_455 S
Mg91 O108 2.079 1_445 S
O92 Mg89 2.180 . S
O92 Mg91 2.099 1_565 S
O92 C103 1.278 1_565 S
O93 Mg89 2.117 . S
O93 C103 1.242 1_565 S
O94 Mg91 2.079 . S
O94 C104 1.264 . S
O95 Mg91 2.072 . S
O95 C105 1.260 . S
Mg96 O97 2.180 . S
Mg96 O98 2.030 . S
Mg96 O99 1.990 . S
Mg96 O100 2.117 . S
O97 Mg91 2.099 1_655 S
O97 Mg96 2.180 . S
O97 C106 1.279 . S
O98 Mg96 2.030 . S
O98 C104 1.248 1_655 S
O99 Mg96 1.990 . S
O99 C105 1.253 1_655 S
O100 Mg96 2.117 . S
O100 C106 1.250 . S
C101 O107 1.238 1_655 S
C101 O108 1.266 . S
C102 O88 1.253 . S
C102 O90 1.260 . S
C103 O92 1.278 1_545 S
C103 O93 1.242 1_545 S
C104 O94 1.264 . S
C104 O98 1.248 1_455 S
C105 O95 1.260 . S
C105 O99 1.253 1_455 S
C106 O97 1.279 . S
C106 O100 1.250 . S
O107 Mg89 2.030 . S
O107 C101 1.238 1_455 S
O108 Mg91 2.079 1_665 S
O108 C101 1.266 . S
O109 Mg110 1.990 . S
O109 C123 1.253 1_565 S
Mg110 O109 1.990 . S
Mg110 O113 2.180 . S
Mg110 O114 2.117 . S
Mg110 O128 2.030 . S
O111 Mg112 2.072 . S
O111 C123 1.260 . S
Mg112 O111 2.072 . S
Mg112 O113 2.099 1_545 S
Mg112 O115 2.079 1_545 S
Mg112 O116 2.072 . S
Mg112 O118 2.099 . S
Mg112 O129 2.079 . S
O113 Mg110 2.180 . S
O113 Mg112 2.099 1_565 S
O113 C124 1.279 . S
O114 Mg110 2.117 . S
O114 C124 1.250 . S
O115 Mg112 2.079 1_565 S
O115 C125 1.269 . S
O116 Mg112 2.072 . S
O116 C126 1.260 . S
Mg117 O118 2.180 . S
Mg117 O119 2.030 . S
Mg117 O120 1.990 . S
Mg117 O121 2.117 . S
O118 Mg112 2.099 . S
O118 Mg117 2.180 . S
O118 C127 1.279 . S
O119 Mg117 2.030 . S
O119 C125 1.224 1_545 S
O120 Mg117 1.990 . S
O120 C126 1.253 . S
O121 Mg117 2.117 . S
O121 C127 1.250 . S
C122 O128 1.248 1_545 S
C122 O129 1.264 . S
C123 O109 1.253 1_545 S
C123 O111 1.260 . S
C124 O113 1.279 . S
C124 O114 1.250 . S
C125 O115 1.269 . S
C125 O119 1.224 1_565 S
C126 O116 1.260 . S
C126 O120 1.253 . S
C127 O118 1.279 . S
C127 O121 1.250 . S
O128 Mg110 2.030 . S
O128 C122 1.248 1_565 S
O129 Mg112 2.079 . S
O129 C122 1.264 . S
O130 Mg131 1.990 . S
O130 C144 1.253 . S
Mg131 O130 1.990 . S
Mg131 O134 2.180 . S
Mg131 O135 2.117 . S
Mg131 O149 2.030 . S
O132 Mg133 2.072 . S
O132 C144 1.260 . S
Mg133 O132 2.072 . S
Mg133 O134 2.099 . S
Mg133 O136 2.079 . S
Mg133 O137 2.072 . S
Mg133 O139 2.099 . S
Mg133 O150 2.079 . S
O134 Mg131 2.180 . S
O134 Mg133 2.099 . S
O134 C145 1.279 . S
O135 Mg131 2.117 . S
O135 C145 1.250 . S
O136 Mg133 2.079 . S
O136 C146 1.264 . S
O137 Mg133 2.072 . S
O137 C147 1.260 . S
Mg138 O139 2.180 . S
Mg138 O140 2.030 . S
Mg138 O141 1.990 . S
Mg138 O142 2.117 . S
O139 Mg133 2.099 . S
O139 Mg138 2.180 . S
O139 C148 1.279 . S
O140 Mg138 2.030 . S
O140 C146 1.248 . S
O141 Mg138 1.990 . S
O141 C147 1.253 . S
O142 Mg138 2.117 . S
O142 C148 1.250 . S
C143 O149 1.248 . S
C143 O150 1.264 . S
C144 O130 1.253 . S
C144 O132 1.260 . S
C145 O134 1.279 . S
C145 O135 1.250 . S
C146 O136 1.264 . S
C146 O140 1.248 . S
C147 O137 1.260 . S
C147 O141 1.253 . S
C148 O139 1.279 . S
C148 O142 1.250 . S
O149 Mg131 2.030 . S
O149 C143 1.248 . S
O150 Mg133 2.079 . S
O150 C143 1.264 . S
O151 Mg152 1.990 . S
O151 C165 1.253 . S
Mg152 O151 1.990 . S
Mg152 O155 2.204 . S
Mg152 O156 2.117 . S
Mg152 O170 2.030 . S
O153 Mg154 2.072 1_655 S
O153 C165 1.260 . S
Mg154 O153 2.072 1_455 S
Mg154 O155 2.093 1_455 S
Mg154 O157 2.079 . S
Mg154 O158 2.072 . S
Mg154 O160 2.099 . S
Mg154 O171 2.079 1_455 S
O155 Mg152 2.204 . S
O155 Mg154 2.093 1_655 S
O155 C166 1.277 1_655 S
O156 Mg152 2.117 . S
O156 C166 1.219 1_655 S
O157 Mg154 2.079 . S
O157 C167 1.264 . S
O158 Mg154 2.072 . S
O158 C168 1.260 . S
Mg159 O160 2.180 . S
Mg159 O161 2.030 . S
Mg159 O162 1.990 . S
Mg159 O163 2.117 . S
O160 Mg154 2.099 . S
O160 Mg159 2.180 . S
O160 C169 1.279 . S
O161 Mg159 2.030 . S
O161 C167 1.248 . S
O162 Mg159 1.990 . S
O162 C168 1.253 . S
O163 Mg159 2.117 . S
O163 C169 1.250 . S
C164 O170 1.248 . S
C164 O171 1.264 . S
C165 O151 1.253 . S
C165 O153 1.260 . S
C166 O155 1.277 1_455 S
C166 O156 1.219 1_455 S
C167 O157 1.264 . S
C167 O161 1.248 . S
C168 O158 1.260 . S
C168 O162 1.253 . S
C169 O160 1.279 . S
C169 O163 1.250 . S
O170 Mg152 2.030 . S
O170 C164 1.248 . S
O171 Mg154 2.079 1_655 S
O171 C164 1.264 . S
H172 C178 0.930 . S
H173 C182 0.930 . S
H174 C187 0.929 . S
H175 C185 0.912 1_565 S
H176 C180 0.929 . S
H177 C186 0.929 . S
C178 H172 0.930 . S
C178 C179 1.367 . S
C178 C186 1.378 . S
C179 C178 1.367 . S
C179 C187 1.433 . S
C180 H176 0.929 . S
C180 C182 1.378 . S
C180 C184 1.350 . S
C181 C184 1.463 . S
C181 C186 1.350 . S
C181 N189 1.427 . S
C182 H173 0.930 . S
C182 C180 1.378 . S
C182 C183 1.367 . S
C183 C182 1.367 . S
C183 C185 1.446 . S
C184 C180 1.350 . S
C184 C181 1.463 . S
C184 N188 1.427 . S
C185 H175 0.912 1_545 S
C185 C183 1.446 . S
C185 N188 1.389 . S
C186 H177 0.929 . S
C186 C178 1.378 . S
C186 C181 1.350 . S
C187 H174 0.929 . S
C187 C179 1.433 . S
C187 N189 1.384 . S
N188 C184 1.427 . S
N188 C185 1.389 . S
N189 C181 1.427 . S
N189 C187 1.384 . S
H190 C196 0.930 . S
H191 C200 0.930 . S
H192 C205 0.929 . S
H193 C203 0.929 . S
H194 C198 0.929 . S
H195 C204 0.929 . S
C196 H190 0.930 . S
C196 C197 1.367 . S
C196 C204 1.378 . S
C197 C196 1.367 . S
C197 C205 1.433 . S
C198 H194 0.929 . S
C198 C200 1.378 . S
C198 C202 1.350 . S
C199 C202 1.463 . S
C199 C204 1.350 . S
C199 N207 1.427 . S
C200 H191 0.930 . S
C200 C198 1.378 . S
C200 C201 1.367 . S
C201 C200 1.367 . S
C201 C203 1.433 . S
C202 C198 1.350 . S
C202 C199 1.463 . S
C202 N206 1.427 . S
C203 H193 0.929 . S
C203 C201 1.433 . S
C203 N206 1.384 . S
C204 H195 0.929 . S
C204 C196 1.378 . S
C204 C199 1.350 . S
C205 H192 0.929 . S
C205 C197 1.433 . S
C205 N207 1.384 . S
N206 C202 1.427 . S
N206 C203 1.384 . S
N207 C199 1.427 . S
N207 C205 1.384 . S
H208 C214 0.930 . S
H209 C218 0.930 . S
H210 C223 0.929 . S
H211 C221 0.929 . S
H212 C216 0.929 . S
H213 C222 0.929 . S
C214 H208 0.930 . S
C214 C215 1.367 . S
C214 C222 1.378 . S
C215 C214 1.367 . S
C215 C223 1.433 . S
C216 H212 0.929 . S
C216 C218 1.378 . S
C216 C220 1.350 . S
C217 C220 1.463 . S
C217 C222 1.350 . S
C217 N225 1.427 . S
C218 H209 0.930 . S
C218 C216 1.378 . S
C218 C219 1.367 . S
C219 C218 1.367 . S
C219 C221 1.433 . S
C220 C216 1.350 . S
C220 C217 1.463 . S
C220 N224 1.427 . S
C221 H211 0.929 . S
C221 C219 1.433 . S
C221 N224 1.384 . S
C222 H213 0.929 . S
C222 C214 1.378 . S
C222 C217 1.350 . S
C223 H210 0.929 . S
C223 C215 1.433 . S
C223 N225 1.384 . S
N224 C220 1.427 . S
N224 C221 1.384 . S
N225 C217 1.427 . S
N225 C223 1.384 . S
H226 C232 0.930 . S
H227 C236 0.929 1_655 S
H228 C241 0.929 . S
H229 C239 0.929 . S
H230 C234 0.929 1_655 S
H231 C240 0.929 . S
C232 H226 0.930 . S
C232 C233 1.367 . S
C232 C240 1.378 . S
C233 C232 1.367 . S
C233 C241 1.433 . S
C234 H230 0.929 1_455 S
C234 C236 1.378 . S
C234 C238 1.350 . S
C235 C238 1.463 . S
C235 C240 1.350 . S
C235 N243 1.427 . S
C236 H227 0.929 1_455 S
C236 C234 1.378 . S
C236 C237 1.368 . S
C237 C236 1.368 . S
C237 C239 1.433 . S
C238 C234 1.350 . S
C238 C235 1.463 . S
C238 N242 1.427 . S
C239 H229 0.929 . S
C239 C237 1.433 . S
C239 N242 1.384 . S
C240 H231 0.929 . S
C240 C232 1.378 . S
C240 C235 1.350 . S
C241 H228 0.929 . S
C241 C233 1.433 . S
C241 N243 1.384 . S
N242 C238 1.427 . S
N242 C239 1.384 . S
N243 C235 1.427 . S
N243 C241 1.384 . S
H244 C250 0.930 . S
H245 C254 0.930 . S
H246 C259 0.929 . S
H247 C257 0.929 . S
H248 C252 0.929 . S
H249 C258 0.929 . S
C250 H244 0.930 . S
C250 C251 1.367 . S
C250 C258 1.378 . S
C251 C250 1.367 . S
C251 C259 1.433 1_556 S
C252 H248 0.929 . S
C252 C254 1.378 . S
C252 C256 1.350 1_545 S
C253 C256 1.463 . S
C253 C258 1.350 . S
C253 N261 1.427 . S
C254 H245 0.930 . S
C254 C252 1.378 . S
C254 C255 1.366 1_545 S
C255 C254 1.366 1_565 S
C255 C257 1.435 . S
C256 C252 1.350 1_565 S
C256 C253 1.463 . S
C256 N260 1.427 . S
C257 H247 0.929 . S
C257 C255 1.435 . S
C257 N260 1.384 . S
C258 H249 0.929 . S
C258 C250 1.378 . S
C258 C253 1.350 . S
C259 H246 0.929 . S
C259 C251 1.433 1_554 S
C259 N261 1.384 1_554 S
N260 C256 1.427 . S
N260 C257 1.384 . S
N261 C253 1.427 . S
N261 C259 1.384 1_556 S
H262 C268 0.930 . S
H263 C272 0.930 . S
H264 C277 0.929 . S
H265 C275 0.929 . S
H266 C270 0.929 . S
H267 C276 0.929 . S
C268 H262 0.930 . S
C268 C269 1.367 . S
C268 C276 1.378 . S
C269 C268 1.367 . S
C269 C277 1.433 1_556 S
C270 H266 0.929 . S
C270 C272 1.378 . S
C270 C274 1.350 . S
C271 C274 1.463 . S
C271 C276 1.350 . S
C271 N279 1.427 . S
C272 H263 0.930 . S
C272 C270 1.378 . S
C272 C273 1.367 . S
C273 C272 1.367 . S
C273 C275 1.433 . S
C274 C270 1.350 . S
C274 C271 1.463 . S
C274 N278 1.427 . S
C275 H265 0.929 . S
C275 C273 1.433 . S
C275 N278 1.384 . S
C276 H267 0.929 . S
C276 C268 1.378 . S
C276 C271 1.350 . S
C277 H264 0.929 . S
C277 C269 1.433 1_554 S
C277 N279 1.384 1_554 S
N278 C274 1.427 . S
N278 C275 1.384 . S
N279 C271 1.427 . S
N279 C277 1.384 1_556 S
H280 C286 0.930 . S
H281 C290 0.930 . S
H282 C295 0.929 . S
H283 C293 0.929 . S
H284 C288 0.929 . S
H285 C294 0.929 . S
C286 H280 0.930 . S
C286 C287 1.367 . S
C286 C294 1.378 . S
C287 C286 1.367 . S
C287 C295 1.433 1_556 S
C288 H284 0.929 . S
C288 C290 1.378 . S
C288 C292 1.350 . S
C289 C292 1.463 . S
C289 C294 1.350 . S
C289 N297 1.427 . S
C290 H281 0.930 . S
C290 C288 1.378 . S
C290 C291 1.367 . S
C291 C290 1.367 . S
C291 C293 1.433 . S
C292 C288 1.350 . S
C292 C289 1.463 . S
C292 N296 1.427 . S
C293 H283 0.929 . S
C293 C291 1.433 . S
C293 N296 1.384 . S
C294 H285 0.929 . S
C294 C286 1.378 . S
C294 C289 1.350 . S
C295 H282 0.929 . S
C295 C287 1.433 1_554 S
C295 N297 1.384 1_554 S
N296 C292 1.427 . S
N296 C293 1.384 . S
N297 C289 1.427 . S
N297 C295 1.384 1_556 S
H298 C304 0.930 1_455 S
H299 C308 0.930 . S
H300 C313 0.929 1_554 S
H301 C311 0.929 . S
H302 C306 0.929 . S
H303 C312 0.929 1_455 S
C304 H298 0.930 1_655 S
C304 C305 1.367 . S
C304 C312 1.378 . S
C305 C304 1.367 . S
C305 C313 1.433 . S
C306 H302 0.929 . S
C306 C308 1.378 . S
C306 C310 1.350 . S
C307 C310 1.463 . S
C307 C312 1.349 . S
C307 N315 1.427 . S
C308 H299 0.930 . S
C308 C306 1.378 . S
C308 C309 1.394 . S
C309 C308 1.394 . S
C309 C311 1.412 1_655 S
C310 C306 1.350 . S
C310 C307 1.463 . S
C310 N314 1.427 1_655 S
C311 H301 0.929 . S
C311 C309 1.412 1_455 S
C311 N314 1.384 . S
C312 H303 0.929 1_655 S
C312 C304 1.378 . S
C312 C307 1.349 . S
C313 H300 0.929 1_556 S
C313 C305 1.433 . S
C313 N315 1.384 . S
N314 C310 1.427 1_455 S
N314 C311 1.384 . S
N315 C307 1.427 . S
N315 C313 1.384 . S
H316 C322 0.930 . S
H317 C326 0.930 1_655 S
H318 C331 0.929 . S
H319 C329 0.929 . S
H320 C324 0.929 . S
H321 C330 0.929 . S
C322 H316 0.930 . S
C322 C323 1.367 . S
C322 C330 1.378 . S
C323 C322 1.367 . S
C323 C331 1.433 . S
C324 H320 0.929 . S
C324 C326 1.378 . S
C324 C328 1.350 . S
C325 C328 1.463 . S
C325 C330 1.350 . S
C325 N333 1.427 . S
C326 H317 0.930 1_455 S
C326 C324 1.378 . S
C326 C327 1.367 . S
C327 C326 1.367 . S
C327 C329 1.433 . S
C328 C324 1.350 . S
C328 C325 1.463 . S
C328 N332 1.427 . S
C329 H319 0.929 . S
C329 C327 1.433 . S
C329 N332 1.384 . S
C330 H321 0.929 . S
C330 C322 1.378 . S
C330 C325 1.350 . S
C331 H318 0.929 . S
C331 C323 1.433 . S
C331 N333 1.384 . S
N332 C328 1.427 . S
N332 C329 1.384 . S
N333 C325 1.427 . S
N333 C331 1.384 . S
H334 C340 0.930 . S
H335 C344 0.930 . S
H336 C349 0.929 . S
H337 C347 0.929 . S
H338 C342 0.929 . S
H339 C348 0.929 . S
C340 H334 0.930 . S
C340 C341 1.367 . S
C340 C348 1.378 . S
C341 C340 1.367 . S
C341 C349 1.433 . S
C342 H338 0.929 . S
C342 C344 1.378 . S
C342 C346 1.350 1_565 S
C343 C346 1.463 . S
C343 C348 1.350 . S
C343 N351 1.427 . S
C344 H335 0.930 . S
C344 C342 1.378 . S
C344 C345 1.367 1_565 S
C345 C344 1.367 1_545 S
C345 C347 1.433 . S
C346 C342 1.350 1_545 S
C346 C343 1.463 . S
C346 N350 1.427 . S
C347 H337 0.929 . S
C347 C345 1.433 . S
C347 N350 1.384 . S
C348 H339 0.929 . S
C348 C340 1.378 . S
C348 C343 1.350 . S
C349 H336 0.929 . S
C349 C341 1.433 . S
C349 N351 1.384 . S
N350 C346 1.427 . S
N350 C347 1.384 . S
N351 C343 1.427 . S
N351 C349 1.384 . S
H352 C358 0.930 . S
H353 C362 0.930 . S
H354 C367 0.929 . S
H355 C365 0.929 . S
H356 C360 0.929 . S
H357 C366 0.929 . S
C358 H352 0.930 . S
C358 C359 1.367 . S
C358 C366 1.378 . S
C359 C358 1.367 . S
C359 C367 1.433 . S
C360 H356 0.929 . S
C360 C362 1.378 . S
C360 C364 1.350 . S
C361 C364 1.463 . S
C361 C366 1.350 . S
C361 N369 1.427 . S
C362 H353 0.930 . S
C362 C360 1.378 . S
C362 C363 1.367 . S
C363 C362 1.367 . S
C363 C365 1.433 . S
C364 C360 1.350 . S
C364 C361 1.463 . S
C364 N368 1.427 . S
C365 H355 0.929 . S
C365 C363 1.433 . S
C365 N368 1.384 . S
C366 H357 0.929 . S
C366 C358 1.378 . S
C366 C361 1.350 . S
C367 H354 0.929 . S
C367 C359 1.433 . S
C367 N369 1.384 . S
N368 C364 1.427 . S
N368 C365 1.384 . S
N369 C361 1.427 . S
N369 C367 1.384 . S
H370 C376 0.930 . S
H371 C380 0.930 . S
H372 C385 0.929 . S
H373 C383 0.929 . S
H374 C378 0.929 . S
H375 C384 0.929 . S
C376 H370 0.930 . S
C376 C377 1.367 . S
C376 C384 1.378 . S
C377 C376 1.367 . S
C377 C385 1.433 . S
C378 H374 0.929 . S
C378 C380 1.378 . S
C378 C382 1.350 . S
C379 C382 1.463 . S
C379 C384 1.350 . S
C379 N387 1.427 . S
C380 H371 0.930 . S
C380 C378 1.378 . S
C380 C381 1.367 . S
C381 C380 1.367 . S
C381 C383 1.433 . S
C382 C378 1.350 . S
C382 C379 1.463 . S
C382 N386 1.427 . S
C383 H373 0.929 . S
C383 C381 1.433 . S
C383 N386 1.384 . S
C384 H375 0.929 . S
C384 C376 1.378 . S
C384 C379 1.350 . S
C385 H372 0.929 . S
C385 C377 1.433 . S
C385 N387 1.384 . S
N386 C382 1.427 . S
N386 C383 1.384 . S
N387 C379 1.427 . S
N387 C385 1.384 . S
H388 C394 0.930 1_455 S
H389 C398 0.930 . S
H390 C403 0.929 1_554 S
H391 C401 0.929 . S
H392 C396 0.929 . S
H393 C402 0.931 . S
C394 H388 0.930 1_655 S
C394 C395 1.367 . S
C394 C402 1.377 1_655 S
C395 C394 1.367 . S
C395 C403 1.433 . S
C396 H392 0.929 . S
C396 C398 1.378 . S
C396 C400 1.350 . S
C397 C400 1.463 . S
C397 C402 1.349 1_655 S
C397 N405 1.427 . S
C398 H389 0.930 . S
C398 C396 1.378 . S
C398 C399 1.367 1_655 S
C399 C398 1.367 1_455 S
C399 C401 1.433 . S
C400 C396 1.350 . S
C400 C397 1.463 . S
C400 N404 1.427 1_655 S
C401 H391 0.929 . S
C401 C399 1.433 . S
C401 N404 1.384 . S
C402 H393 0.931 . S
C402 C394 1.377 1_455 S
C402 C397 1.349 1_455 S
C403 H390 0.929 1_556 S
C403 C395 1.433 . S
C403 N405 1.384 . S
N404 C400 1.427 1_455 S
N404 C401 1.384 . S
N405 C397 1.427 . S
N405 C403 1.384 . S
H406 C412 0.930 . S
H407 C416 0.930 . S
H408 C421 0.929 . S
H409 C419 0.929 . S
H410 C414 0.929 . S
H411 C420 0.929 . S
C412 H406 0.930 . S
C412 C413 1.367 1_554 S
C412 C420 1.378 1_554 S
C413 C412 1.367 1_556 S
C413 C421 1.433 . S
C414 H410 0.929 . S
C414 C416 1.378 . S
C414 C418 1.350 1_545 S
C415 C418 1.463 . S
C415 C420 1.350 . S
C415 N423 1.427 . S
C416 H407 0.930 . S
C416 C414 1.378 . S
C416 C417 1.367 . S
C417 C416 1.367 . S
C417 C419 1.433 1_545 S
C418 C414 1.350 1_565 S
C418 C415 1.463 . S
C418 N422 1.427 . S
C419 H409 0.929 . S
C419 C417 1.433 1_565 S
C419 N422 1.384 . S
C420 H411 0.929 . S
C420 C412 1.378 1_556 S
C420 C415 1.350 . S
C421 H408 0.929 . S
C421 C413 1.433 . S
C421 N423 1.384 . S
N422 C418 1.427 . S
N422 C419 1.384 . S
N423 C415 1.427 . S
N423 C421 1.384 . S
H424 C430 0.930 . S
H425 C434 0.930 . S
H426 C439 0.929 . S
H427 C437 0.929 . S
H428 C432 0.929 . S
H429 C438 0.929 . S
C430 H424 0.930 . S
C430 C431 1.367 1_554 S
C430 C438 1.378 . S
C431 C430 1.367 1_556 S
C431 C439 1.433 . S
C432 H428 0.929 . S
C432 C434 1.378 . S
C432 C436 1.350 . S
C433 C436 1.463 . S
C433 C438 1.350 1_556 S
C433 N441 1.427 . S
C434 H425 0.930 . S
C434 C432 1.378 . S
C434 C435 1.367 . S
C435 C434 1.367 . S
C435 C437 1.433 . S
C436 C432 1.350 . S
C436 C433 1.463 . S
C436 N440 1.427 . S
C437 H427 0.929 . S
C437 C435 1.433 . S
C437 N440 1.384 . S
C438 H429 0.929 . S
C438 C430 1.378 . S
C438 C433 1.350 1_554 S
C439 H426 0.929 . S
C439 C431 1.433 . S
C439 N441 1.384 . S
N440 C436 1.427 . S
N440 C437 1.384 . S
N441 C433 1.427 . S
N441 C439 1.384 . S
H442 C448 0.930 . S
H443 C452 0.930 . S
H444 C457 0.929 . S
H445 C455 0.929 . S
H446 C450 0.929 . S
H447 C456 0.929 . S
C448 H442 0.930 . S
C448 C449 1.367 . S
C448 C456 1.378 . S
C449 C448 1.367 . S
C449 C457 1.433 . S
C450 H446 0.929 . S
C450 C452 1.378 . S
C450 C454 1.350 . S
C451 C454 1.463 . S
C451 C456 1.350 . S
C451 N459 1.427 . S
C452 H443 0.930 . S
C452 C450 1.378 . S
C452 C453 1.367 . S
C453 C452 1.367 . S
C453 C455 1.433 . S
C454 C450 1.350 . S
C454 C451 1.463 . S
C454 N458 1.427 . S
C455 H445 0.929 . S
C455 C453 1.433 . S
C455 N458 1.384 . S
C456 H447 0.929 . S
C456 C448 1.378 . S
C456 C451 1.350 . S
C457 H444 0.929 . S
C457 C449 1.433 . S
C457 N459 1.384 . S
N458 C454 1.427 . S
N458 C455 1.384 . S
N459 C451 1.427 . S
N459 C457 1.384 . S
H460 C466 0.930 . S
H461 C470 0.930 1_655 S
H462 C475 0.929 . S
H463 C473 0.929 . S
H464 C468 0.929 . S
H465 C474 0.929 . S
C466 H460 0.930 . S
C466 C467 1.367 . S
C466 C474 1.378 . S
C467 C466 1.367 . S
C467 C475 1.433 . S
C468 H464 0.929 . S
C468 C470 1.378 . S
C468 C472 1.358 . S
C469 C472 1.454 1_554 S
C469 C474 1.350 . S
C469 N477 1.427 . S
C470 H461 0.930 1_455 S
C470 C468 1.378 . S
C470 C471 1.367 . S
C471 C470 1.367 . S
C471 C473 1.433 . S
C472 C468 1.358 . S
C472 C469 1.454 1_556 S
C472 N476 1.428 . S
C473 H463 0.929 . S
C473 C471 1.433 . S
C473 N476 1.384 . S
C474 H465 0.929 . S
C474 C466 1.378 . S
C474 C469 1.350 . S
C475 H462 0.929 . S
C475 C467 1.433 . S
C475 N477 1.384 . S
N476 C472 1.428 . S
N476 C473 1.384 . S
N477 C469 1.427 . S
N477 C475 1.384 . S
H478 C484 0.930 . S
H479 C488 0.921 1_565 S
H480 C493 0.929 . S
H481 C491 0.929 . S
H482 C486 0.929 . S
H483 C492 0.929 . S
C484 H478 0.930 . S
C484 C485 1.367 . S
C484 C492 1.378 . S
C485 C484 1.367 . S
C485 C493 1.433 . S
C486 H482 0.929 . S
C486 C488 1.378 . S
C486 C490 1.350 . S
C487 C490 1.463 1_554 S
C487 C492 1.350 . S
C487 N495 1.427 . S
C488 H479 0.921 1_545 S
C488 C486 1.378 . S
C488 C489 1.367 . S
C489 C488 1.367 . S
C489 C491 1.433 . S
C490 C486 1.350 . S
C490 C487 1.463 1_556 S
C490 N494 1.427 1_556 S
C491 H481 0.929 . S
C491 C489 1.433 . S
C491 N494 1.384 1_556 S
C492 H483 0.929 . S
C492 C484 1.378 . S
C492 C487 1.350 . S
C493 H480 0.929 . S
C493 C485 1.433 . S
C493 N495 1.384 . S
N494 C490 1.427 1_554 S
N494 C491 1.384 1_554 S
N495 C487 1.427 . S
N495 C493 1.384 . S
H496 C502 0.930 . S
H497 C506 0.930 . S
H498 C511 0.929 . S
H499 C509 0.929 . S
H500 C504 0.929 . S
H501 C510 0.929 1_556 S
C502 H496 0.930 . S
C502 C503 1.367 . S
C502 C510 1.378 . S
C503 C502 1.367 . S
C503 C511 1.433 . S
C504 H500 0.929 . S
C504 C506 1.378 1_554 S
C504 C508 1.350 . S
C505 C508 1.463 . S
C505 C510 1.350 . S
C505 N513 1.427 . S
C506 H497 0.930 . S
C506 C504 1.378 1_556 S
C506 C507 1.367 . S
C507 C506 1.367 . S
C507 C509 1.433 . S
C508 C504 1.350 . S
C508 C505 1.463 . S
C508 N512 1.427 1_554 S
C509 H499 0.929 . S
C509 C507 1.433 . S
C509 N512 1.384 . S
C510 H501 0.929 1_554 S
C510 C502 1.378 . S
C510 C505 1.350 . S
C511 H498 0.929 . S
C511 C503 1.433 . S
C511 N513 1.384 . S
N512 C508 1.427 1_556 S
N512 C509 1.384 . S
N513 C505 1.427 . S
N513 C511 1.384 . S
H514 C520 0.930 . S
H515 C524 0.930 . S
H516 C529 0.929 . S
H517 C527 0.929 . S
H518 C522 0.929 . S
H519 C528 0.929 1_556 S
C520 H514 0.930 . S
C520 C521 1.367 . S
C520 C528 1.378 . S
C521 C520 1.367 . S
C521 C529 1.433 . S
C522 H518 0.929 . S
C522 C524 1.378 1_554 S
C522 C526 1.350 . S
C523 C526 1.463 . S
C523 C528 1.350 . S
C523 N531 1.427 . S
C524 H515 0.930 . S
C524 C522 1.378 1_556 S
C524 C525 1.367 . S
C525 C524 1.367 . S
C525 C527 1.433 . S
C526 C522 1.350 . S
C526 C523 1.463 . S
C526 N530 1.427 1_554 S
C527 H517 0.929 . S
C527 C525 1.433 . S
C527 N530 1.384 . S
C528 H519 0.929 1_554 S
C528 C520 1.378 . S
C528 C523 1.350 . S
C529 H516 0.929 . S
C529 C521 1.433 . S
C529 N531 1.384 . S
N530 C526 1.427 1_556 S
N530 C527 1.384 . S
N531 C523 1.427 . S
N531 C529 1.384 . S
H532 C538 0.930 . S
H533 C542 0.930 . S
H534 C547 0.929 . S
H535 C545 0.929 1_455 S
H536 C540 0.929 . S
H537 C546 0.929 . S
C538 H532 0.930 . S
C538 C539 1.367 . S
C538 C546 1.378 . S
C539 C538 1.367 . S
C539 C547 1.433 . S
C540 H536 0.929 . S
C540 C542 1.378 . S
C540 C544 1.350 . S
C541 C544 1.463 . S
C541 C546 1.350 . S
C541 N549 1.427 . S
C542 H533 0.930 . S
C542 C540 1.378 . S
C542 C543 1.367 . S
C543 C542 1.367 . S
C543 C545 1.433 . S
C544 C540 1.350 . S
C544 C541 1.463 . S
C544 N548 1.427 . S
C545 H535 0.929 1_655 S
C545 C543 1.433 . S
C545 N548 1.384 . S
C546 H537 0.929 . S
C546 C538 1.378 . S
C546 C541 1.350 . S
C547 H534 0.929 . S
C547 C539 1.433 . S
C547 N549 1.384 . S
N548 C544 1.427 . S
N548 C545 1.384 . S
N549 C541 1.427 . S
N549 C547 1.384 . S
H550 C556 0.930 . S
H551 C560 0.917 1_545 S
H552 C565 0.929 . S
H553 C563 0.929 . S
H554 C558 0.929 1_545 S
H555 C564 0.929 . S
C556 H550 0.930 . S
C556 C557 1.367 . S
C556 C564 1.378 . S
C557 C556 1.367 . S
C557 C565 1.433 . S
C558 H554 0.929 1_565 S
C558 C560 1.381 . S
C558 C562 1.350 . S
C559 C562 1.463 . S
C559 C564 1.350 . S
C559 N567 1.427 . S
C560 H551 0.917 1_565 S
C560 C558 1.381 . S
C560 C561 1.377 . S
C561 C560 1.377 . S
C561 C563 1.433 . S
C562 C558 1.350 . S
C562 C559 1.463 . S
C562 N566 1.427 . S
C563 H553 0.929 . S
C563 C561 1.433 . S
C563 N566 1.384 . S
C564 H555 0.929 . S
C564 C556 1.378 . S
C564 C559 1.350 . S
C565 H552 0.929 . S
C565 C557 1.433 . S
C565 N567 1.384 . S
N566 C562 1.427 . S
N566 C563 1.384 . S
N567 C559 1.427 . S
N567 C565 1.384 . S
H568 C574 0.930 . S
H569 C578 0.930 . S
H570 C583 0.929 . S
H571 C581 0.929 . S
H572 C576 0.929 . S
H573 C582 0.929 . S
C574 H568 0.930 . S
C574 C575 1.367 . S
C574 C582 1.378 . S
C575 C574 1.367 . S
C575 C583 1.433 . S
C576 H572 0.929 . S
C576 C578 1.378 . S
C576 C580 1.350 . S
C577 C580 1.463 . S
C577 C582 1.350 . S
C577 N585 1.427 . S
C578 H569 0.930 . S
C578 C576 1.378 . S
C578 C579 1.367 . S
C579 C578 1.367 . S
C579 C581 1.433 . S
C580 C576 1.350 . S
C580 C577 1.463 . S
C580 N584 1.427 . S
C581 H571 0.929 . S
C581 C579 1.433 . S
C581 N584 1.384 . S
C582 H573 0.929 . S
C582 C574 1.378 . S
C582 C577 1.350 . S
C583 H570 0.929 . S
C583 C575 1.433 . S
C583 N585 1.384 . S
N584 C580 1.427 . S
N584 C581 1.384 . S
N585 C577 1.427 . S
N585 C583 1.384 . S
H586 C592 0.930 . S
H587 C596 0.930 . S
H588 C601 0.929 . S
H589 C599 0.929 . S
H590 C594 0.929 . S
H591 C600 0.929 . S
C592 H586 0.930 . S
C592 C593 1.367 . S
C592 C600 1.378 . S
C593 C592 1.367 . S
C593 C601 1.433 . S
C594 H590 0.929 . S
C594 C596 1.378 . S
C594 C598 1.350 . S
C595 C598 1.463 . S
C595 C600 1.350 . S
C595 N603 1.427 . S
C596 H587 0.930 . S
C596 C594 1.378 . S
C596 C597 1.367 . S
C597 C596 1.367 . S
C597 C599 1.433 . S
C598 C594 1.350 . S
C598 C595 1.463 . S
C598 N602 1.427 . S
C599 H589 0.929 . S
C599 C597 1.433 . S
C599 N602 1.384 . S
C600 H591 0.929 . S
C600 C592 1.378 . S
C600 C595 1.350 . S
C601 H588 0.929 . S
C601 C593 1.433 . S
C601 N603 1.384 . S
N602 C598 1.427 . S
N602 C599 1.384 . S
N603 C595 1.427 . S
N603 C601 1.384 . S
C179 C74 1.572 . S
C183 C103 1.429 . S
C201 C127 1.428 . S
C197 C85 1.577 . S
C219 C148 1.404 . S
C215 C52 1.574 . S
C237 C166 1.428 . S
C233 C63 1.574 . S
C255 C106 1.326 1_565 S
C251 C30 1.459 1_556 S
C269 C41 1.453 1_556 S
C273 C124 1.338 . S
C287 C8 1.452 1_556 S
C291 C145 1.338 . S
C305 C19 1.451 1_556 S
C309 C169 1.330 1_655 S
C327 C104 0.693 . S
C323 C62 0.665 . S
C345 C122 0.678 . S
C341 C73 0.666 . S
C363 C143 0.665 . S
C359 C84 0.667 . S
C377 C51 0.667 . S
C381 C167 0.663 . S
C395 C18 0.760 1_556 S
C399 C102 0.788 . S
C417 C126 0.770 . S
C413 C29 0.789 1_556 S
C435 C147 0.775 . S
C431 C40 0.768 1_556 S
C449 C7 0.792 1_556 S
C453 C165 0.774 . S
C467 C60 1.417 . S
C471 C105 1.557 . S
C485 C71 1.416 . S
C489 C123 1.556 . S
C507 C144 1.561 . S
C503 C82 1.429 . S
C525 C168 1.570 . S
C521 C49 1.440 . S
C539 C16 1.192 . S
C543 C101 1.441 . S
C561 C125 1.439 . S
C557 C27 1.207 . S
C579 C146 1.436 . S
C575 C38 1.185 . S
C593 C5 1.203 . S
C597 C164 1.416 . S
