# Generated by pormake.
# Topology nia, (6,6)-cn, num edge types: 1
# Building blocks:
#     Node 0, Type 0, BuildingBlock: CUWYAW_clean_sbu_0, # of connection points: 6
#     Node 1, Type 0, BuildingBlock: CUWYAW_clean_sbu_0, # of connection points: 6
#     Node 2, Type 1, BuildingBlock: MIDCAF_clean_sbu_0, # of connection points: 6
#     Node 3, Type 1, BuildingBlock: MIDCAF_clean_sbu_0, # of connection points: 6
#     Edge 4, Type (0, 1), BuildingBlock: KIFKEQ_clean_linker_1, # of connection points: 2
#     Edge 5, Type (0, 1), BuildingBlock: KIFKEQ_clean_linker_1, # of connection points: 2
#     Edge 6, Type (0, 1), BuildingBlock: KIFKEQ_clean_linker_1, # of connection points: 2
#     Edge 7, Type (0, 1), BuildingBlock: KIFKEQ_clean_linker_1, # of connection points: 2
#     Edge 8, Type (0, 1), BuildingBlock: KIFKEQ_clean_linker_1, # of connection points: 2
#     Edge 9, Type (0, 1), BuildingBlock: KIFKEQ_clean_linker_1, # of connection points: 2
#     Edge 10, Type (0, 1), BuildingBlock: KIFKEQ_clean_linker_1, # of connection points: 2
#     Edge 11, Type (0, 1), BuildingBlock: KIFKEQ_clean_linker_1, # of connection points: 2
#     Edge 12, Type (0, 1), BuildingBlock: KIFKEQ_clean_linker_1, # of connection points: 2
#     Edge 13, Type (0, 1), BuildingBlock: KIFKEQ_clean_linker_1, # of connection points: 2
#     Edge 14, Type (0, 1), BuildingBlock: KIFKEQ_clean_linker_1, # of connection points: 2
#     Edge 15, Type (0, 1), BuildingBlock: KIFKEQ_clean_linker_1, # of connection points: 2
# Relax obj value: 0.284
# Max RMSD: 0.269
# Mean RMSD: 0.235
data_MOF--net-nia--node1-CUWYAW_clean_sbu_0--node2-MIDCAF_clean_sbu_0--edge1-KIFKEQ_clean_linker_1
_symmetry_space_group_name_H-M    P1
_symmetry_Int_Tables_number       1
_symmetry_cell_setting            triclinic
loop_
_symmetry_equiv_pos_as_xyz
'x, y, z'
_cell_length_a     28.866692
_cell_length_b     25.697534
_cell_length_c     34.48146
_cell_angle_alpha  101.59358
_cell_angle_beta   68.560872
_cell_angle_gamma 128.60708
loop_
_atom_site_label
_atom_site_type_symbol
_atom_site_fract_x
_atom_site_fract_y
_atom_site_fract_z
_atom_type_partial_charge
C0 C 0.08039 0.93604 0.05458 0.0
Eu1 Eu 0.02219 0.98034 0.0506 0.0
C2 C 0.09591 0.92315 0.0859 0.0
C3 C 0.06089 0.91252 0.12833 0.0
C4 C 0.07691 0.90032 0.1574 0.0
C5 C 0.12852 0.89918 0.14449 0.0
C6 C 0.16361 0.91055 0.10193 0.0
C7 C 0.14743 0.92242 0.07299 0.0
C8 C 0.90464 0.93889 0.09663 0.0
C9 C 0.97544 0.93704 0.96752 0.0
C10 C 0.90025 0.07615 1.02371 0.0
Eu11 Eu 0.97163 0.04882 1.02722 0.0
C12 C 0.88769 0.0928 0.99233 0.0
C13 C 0.92725 0.11013 0.95093 0.0
C14 C 0.91394 0.12559 0.92161 0.0
C15 C 0.86063 0.12344 0.93329 0.0
C16 C 0.82106 0.10541 0.97483 0.0
C17 C 0.83449 0.09021 1.004 0.0
C18 C 0.09488 0.10669 0.98345 0.0
C19 C 0.02969 0.10068 0.10379 0.0
O20 O 0.02144 0.89703 0.05639 0.0
O21 O 0.10828 0.99885 0.04686 0.0
O22 O 0.94084 0.94024 0.11143 0.0
O23 O 0.93073 0.95494 0.05836 0.0
O24 O 0.0059 0.93661 0.98843 0.0
O25 O 0.95447 0.97295 0.97783 0.0
O26 O 0.95465 0.12115 1.02965 0.0
O27 O 0.88341 0.01556 1.02321 0.0
O28 O 0.06494 0.12593 0.97863 0.0
O29 O 0.05752 0.06038 1.01054 0.0
O30 O -0.01352 0.08859 0.09009 0.0
O31 O 0.05776 0.07209 0.08838 0.0
H32 H 0.0212 0.91354 0.1389 0.0
H33 H 0.0492 0.89214 0.18996 0.0
H34 H 0.20289 0.90882 0.09077 0.0
H35 H 0.17503 0.93066 0.04037 0.0
H36 H 0.96835 0.1118 0.94137 0.0
H37 H 0.94513 0.13893 0.88985 0.0
H38 H 0.78033 0.10451 0.98511 0.0
H39 H 0.80344 0.07679 0.03584 0.0
C40 C 0.92042 0.98271 0.44996 0.0
Eu41 Eu 0.95595 0.9881 0.51048 0.0
C42 C 0.89369 0.94801 0.4159 0.0
C43 C 0.84137 0.88086 0.42061 0.0
C44 C 0.80628 0.85415 0.39332 0.0
C45 C 0.82289 0.89437 0.36114 0.0
C46 C 0.87874 0.95962 0.3542 0.0
C47 C 0.91384 0.98621 0.38144 0.0
C48 C 0.91745 0.89796 0.56696 0.0
C49 C 0.93198 0.06813 0.59185 0.0
C50 C 0.08264 0.08528 0.63272 0.0
Eu51 Eu 0.0457 0.05522 0.56796 0.0
C52 C 0.11034 0.0741 0.65521 0.0
C53 C 0.16044 0.07127 0.63419 0.0
C54 C 0.19304 0.07292 0.6566 0.0
C55 C 0.17599 0.07752 0.70027 0.0
C56 C 0.12268 0.07492 0.72129 0.0
C57 C 0.0902 0.07331 0.69888 0.0
C58 C 0.08351 0.12904 0.50164 0.0
C59 C 0.06424 0.9681 0.49136 0.0
O60 O 0.88285 0.96101 0.48827 0.0
O61 O 0.97818 0.00701 0.44461 0.0
O62 O 0.88761 0.88261 0.54089 0.0
O63 O 0.96352 0.9583 0.56071 0.0
O64 O 0.91455 0.03349 0.55935 0.0
O65 O 0.98029 0.08313 0.60021 0.0
O66 O 0.02537 0.03603 0.63309 0.0
O67 O 0.11874 0.11923 0.59701 0.0
O68 O 0.12245 0.13494 0.51609 0.0
O69 O 0.02858 0.08931 0.52492 0.0
O70 O 0.0736 0.99273 0.52774 0.0
O71 O 0.02696 0.96735 0.47684 0.0
H72 H 0.82503 0.85052 0.44705 0.0
H73 H 0.76327 0.80382 0.39969 0.0
H74 H 0.89305 0.99145 0.32938 0.0
H75 H 0.95415 0.03822 0.37736 0.0
H76 H 0.17642 0.07138 0.60045 0.0
H77 H 0.23423 0.07544 0.63945 0.0
H78 H 0.10806 0.07762 0.75491 0.0
H79 H 0.05127 0.07502 0.7156 0.0
Zn80 Zn 0.3292 0.66 0.21714 0.0
Zn81 Zn 0.29089 0.65357 0.37785 0.0
Zn82 Zn 0.30801 0.65319 0.29776 0.0
C83 C 0.41723 0.71331 0.33701 0.0
C84 C 0.22194 0.52057 0.35803 0.0
O85 O 0.27242 0.70395 0.2877 0.0
O86 O 0.29719 0.70931 0.21895 0.0
C87 C 0.44464 0.72152 0.22385 0.0
O88 O 0.39993 0.70503 0.30535 0.0
O89 O 0.37783 0.6925 0.37296 0.0
O90 O 0.22801 0.55632 0.38954 0.0
O91 O 0.24902 0.5476 0.32107 0.0
O92 O 0.42048 0.70734 0.19579 0.0
O93 O 0.41028 0.70573 0.26246 0.0
O94 O 0.25176 0.54851 0.27908 0.0
O95 O 0.27116 0.56251 0.21214 0.0
C96 C 0.24285 0.52444 0.24376 0.0
O97 O 0.26551 0.70636 0.33057 0.0
O98 O 0.26344 0.71061 0.39583 0.0
C99 C 0.27314 0.72132 0.25472 0.0
C100 C 0.25353 0.72509 0.36833 0.0
Zn101 Zn 0.67016 0.37892 0.86278 0.0
Zn102 Zn 0.70566 0.38031 0.70195 0.0
Zn103 Zn 0.68965 0.38227 0.78256 0.0
C104 C 0.77377 0.5136 0.72057 0.0
C105 C 0.57846 0.31282 0.74361 0.0
O106 O 0.72593 0.33303 0.79358 0.0
O107 O 0.70147 0.3294 0.86236 0.0
C108 C 0.75708 0.5133 0.83403 0.0
O109 O 0.74821 0.48725 0.75762 0.0
O110 O 0.76601 0.47731 0.68935 0.0
O111 O 0.6171 0.33503 0.70755 0.0
O112 O 0.59714 0.32503 0.77521 0.0
O113 O 0.7295 0.47639 0.86613 0.0
O114 O 0.74644 0.48784 0.79931 0.0
O115 O 0.58744 0.33033 0.81841 0.0
O116 O 0.57924 0.33337 0.88502 0.0
C117 C 0.55392 0.31688 0.85726 0.0
O118 O 0.7322 0.32977 0.75086 0.0
O119 O 0.736 0.32602 0.68515 0.0
C120 C 0.72543 0.31667 0.82683 0.0
C121 C 0.74506 0.31148 0.71315 0.0
H122 H 0.04902 0.80363 0.20775 0.0
H123 H 0.24455 0.95856 0.14901 0.0
H124 H 0.07668 0.76664 0.24957 0.0
H125 H 0.27226 0.92012 0.18945 0.0
H126 H 0.3146 0.84996 0.26919 0.0
H127 H 0.27297 0.90116 0.25546 0.0
H128 H 0.12154 0.70756 0.22849 0.0
H129 H 0.16279 0.65741 0.24279 0.0
C130 C 0.09784 0.83066 0.20436 0.0
C131 C 0.14463 0.88331 0.17452 0.0
C132 C 0.11372 0.80916 0.22812 0.0
C133 C 0.17671 0.83984 0.22254 0.0
C134 C 0.22328 0.89553 0.19485 0.0
C135 C 0.20742 0.917 0.17116 0.0
C136 C 0.27129 0.81856 0.26172 0.0
C137 C 0.24145 0.75001 0.25718 0.0
C138 C 0.24769 0.84768 0.25355 0.0
C139 C 0.1942 0.80858 0.24048 0.0
C140 C 0.16225 0.73919 0.23897 0.0
C141 C 0.18591 0.71034 0.24698 0.0
H142 H 0.21281 0.17263 0.75782 0.0
H143 H 0.23912 0.02668 0.69182 0.0
H144 H 0.30259 0.22319 0.7809 0.0
H145 H 0.32967 0.07816 0.71493 0.0
H146 H 0.48389 0.18933 0.78072 0.0
H147 H 0.37387 0.12081 0.7831 0.0
H148 H 0.41517 0.28187 0.72118 0.0
H149 H 0.5245 0.3488 0.71767 0.0
C150 C 0.23617 0.14967 0.74957 0.0
C151 C 0.21943 0.09615 0.72252 0.0
C152 C 0.2877 0.17889 0.76269 0.0
C153 C 0.32299 0.15477 0.74931 0.0
C154 C 0.3028 0.09731 0.72575 0.0
C155 C 0.25147 0.06833 0.71225 0.0
C156 C 0.46882 0.20983 0.76808 0.0
C157 C 0.51192 0.27385 0.74894 0.0
C158 C 0.40634 0.17094 0.76948 0.0
C159 C 0.38643 0.19657 0.75266 0.0
C160 C 0.42938 0.26152 0.7349 0.0
C161 C 0.49177 0.29952 0.73259 0.0
H162 H 0.96887 0.15029 0.15568 0.0
H163 H 0.13509 0.16361 0.12545 0.0
H164 H 0.00761 0.24174 0.2029 0.0
H165 H 0.17498 0.2566 0.17121 0.0
H166 H 0.23661 0.41979 0.26015 0.0
H167 H 0.17229 0.305 0.2382 0.0
H168 H 0.0868 0.35734 0.18992 0.0
H169 H 0.14868 0.46974 0.21355 0.0
C170 C 0.01349 0.17244 0.15931 0.0
C171 C 0.04935 0.15041 0.13626 0.0
C172 C 0.0358 0.22498 0.18635 0.0
C173 C 0.09493 0.25741 0.19048 0.0
C174 C 0.12902 0.2326 0.16927 0.0
C175 C 0.10633 0.1795 0.14264 0.0
C176 C 0.20182 0.4054 0.24671 0.0
C177 C 0.19669 0.45289 0.2391 0.0
C178 C 0.16579 0.34014 0.23339 0.0
C179 C 0.12446 0.32175 0.212 0.0
C180 C 0.11713 0.36887 0.2068 0.0
C181 C 0.15292 0.43359 0.22009 0.0
H182 H 0.8109 0.01756 0.60792 0.0
H183 H 0.98116 0.18431 0.63316 0.0
H184 H 0.76074 0.07001 0.6446 0.0
H185 H 0.93277 0.23923 0.66746 0.0
H186 H 0.82445 0.31702 0.74276 0.0
H187 H 0.86229 0.24974 0.72187 0.0
H188 H 0.76257 0.15547 0.6313 0.0
H189 H 0.7206 0.21754 0.65525 0.0
C190 C 0.83756 0.06555 0.62133 0.0
C191 C 0.89999 0.09708 0.61741 0.0
C192 C 0.80906 0.09603 0.64212 0.0
C193 C 0.84287 0.15976 0.65844 0.0
C194 C 0.90478 0.19 0.65583 0.0
C195 C 0.93279 0.15868 0.63589 0.0
C196 C 0.80872 0.27976 0.71974 0.0
C197 C 0.76802 0.27096 0.70168 0.0
C198 C 0.83151 0.24222 0.70695 0.0
C199 C 0.81531 0.1964 0.67495 0.0
C200 C 0.7749 0.18847 0.6568 0.0
C201 C 0.75139 0.22491 0.67014 0.0
H202 H 0.84007 0.90486 0.17999 0.0
H203 H 0.81813 0.90389 0.06254 0.0
H204 H 0.72877 0.85434 0.21506 0.0
H205 H 0.70851 0.85508 0.09716 0.0
H206 H 0.53347 0.83305 0.17475 0.0
H207 H 0.64567 0.88866 0.14759 0.0
H208 H 0.62173 0.74541 0.21571 0.0
H209 H 0.50867 0.6898 0.24313 0.0
C210 C 0.81165 0.89437 0.16177 0.0
C211 C 0.8381 0.90971 0.11865 0.0
C212 C 0.74802 0.86526 0.18176 0.0
C213 C 0.71001 0.85147 0.15895 0.0
C214 C 0.73672 0.86646 0.11582 0.0
C215 C 0.79976 0.89484 0.09596 0.0
C216 C 0.55237 0.81397 0.18426 0.0
C217 C 0.51279 0.75776 0.21134 0.0
C218 C 0.6165 0.84557 0.16862 0.0
C219 C 0.6426 0.82124 0.17929 0.0
C220 C 0.6031 0.76564 0.20716 0.0
C221 C 0.53855 0.73385 0.22284 0.0
H222 H 0.80419 0.78072 0.5973 0.0
H223 H -0.00912 0.9101 0.60609 0.0
H224 H 0.77517 0.6995 0.64506 0.0
H225 H 0.96206 0.82794 0.65363 0.0
H226 H 0.72439 0.58053 0.75055 0.0
H227 H 0.7631 0.6847 0.72072 0.0
H228 H 0.93044 0.70769 0.64095 0.0
H229 H 0.89123 0.60326 0.67057 0.0
C230 C 0.83881 0.79203 0.60986 0.0
C231 C 0.89968 0.85162 0.59809 0.0
C232 C 0.82209 0.74581 0.63746 0.0
C233 C 0.86622 0.75758 0.65334 0.0
C234 C 0.92706 0.81772 0.642 0.0
C235 C 0.94346 0.86471 0.61494 0.0
C236 C 0.77067 0.60956 0.72805 0.0
C237 C 0.80542 0.58472 0.71335 0.0
C238 C 0.79249 0.66866 0.71061 0.0
C239 C 0.84959 0.70405 0.67829 0.0
C240 C 0.88658 0.68189 0.66605 0.0
C241 C 0.86431 0.6223 0.68307 0.0
H242 H 0.18145 0.01273 0.4816 0.0
H243 H 0.018 0.85616 0.44553 0.0
H244 H 0.23161 0.96035 0.44546 0.0
H245 H 0.0658 0.80009 0.41192 0.0
H246 H 0.17601 0.72265 0.33808 0.0
H247 H 0.13711 0.7889 0.36028 0.0
H248 H 0.22914 0.8739 0.45503 0.0
H249 H 0.27301 0.81397 0.42946 0.0
C250 C 0.15617 0.96671 0.46601 0.0
C251 C 0.09577 0.93825 0.46658 0.0
C252 C 0.18461 0.93606 0.44555 0.0
C253 C 0.15256 0.87469 0.42633 0.0
C254 C 0.09258 0.84741 0.42586 0.0
C255 C 0.06483 0.87929 0.44536 0.0
C256 C 0.19027 0.75813 0.36213 0.0
C257 C 0.22966 0.76506 0.38071 0.0
C258 C 0.16654 0.79485 0.37584 0.0
C259 C 0.18019 0.83788 0.40942 0.0
C260 C 0.21887 0.84347 0.42828 0.0
C261 C 0.24353 0.80814 0.41395 0.0
H262 H 0.18715 0.22631 0.94119 0.0
H263 H 0.14965 0.04644 0.97213 0.0
H264 H 0.29708 0.2737 0.90649 0.0
H265 H 0.2589 0.09241 0.93663 0.0
H266 H 0.46699 0.22676 0.92146 0.0
H267 H 0.35577 0.17363 0.94816 0.0
H268 H 0.3743 0.27252 0.84974 0.0
H269 H 0.48714 0.32933 0.82485 0.0
C270 C 0.20249 0.19673 0.94022 0.0
C271 C 0.1604 0.13343 0.96023 0.0
C272 C 0.26541 0.22361 0.92004 0.0
C273 C 0.28743 0.18736 0.91906 0.0
C274 C 0.24427 0.12268 0.93766 0.0
C275 C 0.18161 0.09622 0.95815 0.0
C276 C 0.44723 0.23686 0.90538 0.0
C277 C 0.48556 0.28111 0.87049 0.0
C278 C 0.38318 0.20582 0.92043 0.0
C279 C 0.35545 0.21808 0.90101 0.0
C280 C 0.39388 0.26207 0.86574 0.0
C281 C 0.45837 0.2937 0.85089 0.0
H282 H 0.00524 0.13083 0.47672 0.0
H283 H 0.20066 0.23121 0.4561 0.0
H284 H 0.0325 0.21362 0.43133 0.0
H285 H 0.22816 0.31541 0.41154 0.0
H286 H 0.26776 0.45079 0.32159 0.0
H287 H 0.23031 0.34463 0.34748 0.0
H288 H 0.07284 0.32891 0.44043 0.0
H289 H 0.10968 0.43361 0.41368 0.0
C290 C 0.05414 0.17012 0.46197 0.0
C291 C 0.10087 0.1748 0.47016 0.0
C292 C 0.06975 0.21783 0.43613 0.0
C293 C 0.13251 0.27163 0.41798 0.0
C294 C 0.17936 0.27434 0.42456 0.0
C295 C 0.16368 0.22638 0.45037 0.0
C296 C 0.22345 0.42266 0.34607 0.0
C297 C 0.19073 0.44941 0.36499 0.0
C298 C 0.20264 0.36259 0.36152 0.0
C299 C 0.14881 0.32836 0.39632 0.0
C300 C 0.114 0.35323 0.41331 0.0
C301 C 0.13499 0.41326 0.39799 0.0
H302 H 0.7477 0.06388 0.92313 0.0
H303 H 0.9435 0.2276 0.87564 0.0
H304 H 0.72321 0.10768 0.88378 0.0
H305 H 0.91928 0.27001 0.83476 0.0
H306 H 0.83015 0.37699 0.84586 0.0
H307 H 0.87026 0.32467 0.85887 0.0
H308 H 0.72913 0.13728 0.81844 0.0
H309 H 0.68849 0.19059 0.80604 0.0
C310 C 0.78567 0.10857 0.90363 0.0
C311 C 0.84738 0.14304 0.90326 0.0
C312 C 0.77172 0.13319 0.88053 0.0
C313 C 0.81922 0.19283 0.85643 0.0
C314 C 0.88151 0.22445 0.8535 0.0
C315 C 0.89545 0.19986 0.8767 0.0
C316 C 0.80903 0.3251 0.8386 0.0
C317 C 0.75665 0.28764 0.82488 0.0
C318 C 0.83213 0.29508 0.84581 0.0
C319 C 0.80274 0.22659 0.83992 0.0
C320 C 0.75239 0.18997 0.82368 0.0
C321 C 0.72936 0.22033 0.81632 0.0
H322 H 0.78976 0.96617 0.34771 0.0
H323 H 0.74997 0.77232 0.32941 0.0
H324 H 0.6968 0.92315 0.33147 0.0
H325 H 0.65691 0.72922 0.31236 0.0
H326 H 0.45429 0.66118 0.36746 0.0
H327 H 0.56029 0.70616 0.36035 0.0
H328 H 0.63219 0.8734 0.28629 0.0
H329 H 0.52481 0.82821 0.29446 0.0
C330 C 0.76249 0.91493 0.33859 0.0
C331 C 0.77664 0.87229 0.34048 0.0
C332 C 0.70901 0.89022 0.32927 0.0
C333 C 0.66867 0.8224 0.32157 0.0
C334 C 0.68626 0.78137 0.31928 0.0
C335 C 0.73959 0.806 0.32888 0.0
C336 C 0.49287 0.70743 0.34955 0.0
C337 C 0.48188 0.74126 0.33134 0.0
C338 C 0.55364 0.73276 0.3449 0.0
C339 C 0.60486 0.79293 0.32221 0.0
C340 C 0.59372 0.82697 0.30399 0.0
C341 C 0.53255 0.80123 0.30853 0.0
H342 H 0.03469 0.88359 0.92008 0.0
H343 H 0.87971 0.8853 0.93744 0.0
H344 H -0.00264 0.79284 0.87221 0.0
H345 H 0.84055 0.79257 0.89145 0.0
H346 H 0.77344 0.62038 0.80915 0.0
H347 H 0.84254 0.73689 0.82713 0.0
H348 H 0.91302 0.68 0.88791 0.0
H349 H 0.84672 0.56615 0.86834 0.0
C350 C -0.00698 0.86503 0.9133 0.0
C351 C 0.95945 0.89062 0.93316 0.0
C352 C 0.97147 0.8129 0.88595 0.0
C353 C 0.91504 0.78414 0.87866 0.0
C354 C 0.8843 0.81347 0.896 0.0
C355 C 0.90653 0.86646 0.92273 0.0
C356 C 0.80582 0.63392 0.8247 0.0
C357 C 0.80521 0.58481 0.83719 0.0
C358 C 0.84471 0.70027 0.8356 0.0
C359 C 0.88332 0.7181 0.85922 0.0
C360 C 0.88503 0.669 0.86919 0.0
C361 C 0.84645 0.60334 0.85835 0.0
loop_
_geom_bond_atom_site_label_1
_geom_bond_atom_site_label_2
_geom_bond_distance
_geom_bond_site_symmetry_2
_ccdc_geom_bond_type
C0 Eu1 2.835 . S
C0 C2 1.500 . S
C0 O20 1.257 . S
C0 O21 1.260 . S
Eu1 C0 2.835 . S
Eu1 O20 2.473 . S
Eu1 O21 2.480 . S
Eu1 O22 2.430 1_455 S
Eu1 O23 2.670 1_455 S
Eu1 O24 2.394 1_455 S
Eu1 O29 2.355 1_564 S
Eu1 O31 2.374 1_565 S
C2 C0 1.500 . S
C2 C3 1.377 . S
C2 C7 1.377 . S
C3 C2 1.377 . S
C3 C4 1.395 . S
C3 H32 0.931 1_455 S
C4 C3 1.395 . S
C4 C5 1.383 . S
C4 H33 0.931 . S
C5 C4 1.383 . S
C5 C6 1.394 . S
C6 C5 1.394 . S
C6 C7 1.378 . S
C6 H34 0.931 . S
C7 C2 1.377 . S
C7 C6 1.378 . S
C7 H35 0.931 . S
C8 O22 1.259 . S
C8 O23 1.270 . S
C9 O24 1.251 1_556 S
C9 O25 1.251 . S
C10 Eu11 2.835 . S
C10 C12 1.500 . S
C10 O26 1.257 . S
C10 O27 1.260 1_655 S
Eu11 C10 2.835 . S
Eu11 O23 2.355 1_546 S
Eu11 O25 2.374 1_545 S
Eu11 O26 2.473 . S
Eu11 O27 2.480 1_655 S
Eu11 O28 2.430 1_655 S
Eu11 O29 2.670 1_655 S
Eu11 O30 2.394 1_656 S
C12 C10 1.500 . S
C12 C13 1.377 1_655 S
C12 C17 1.377 . S
C13 C12 1.377 1_455 S
C13 C14 1.395 1_455 S
C13 H36 0.931 . S
C14 C13 1.395 1_655 S
C14 C15 1.383 . S
C14 H37 0.931 1_655 S
C15 C14 1.383 . S
C15 C16 1.394 . S
C16 C15 1.394 . S
C16 C17 1.378 . S
C16 H38 0.931 . S
C17 C12 1.377 . S
C17 C16 1.378 . S
C17 H39 0.931 . S
C18 O28 1.259 . S
C18 O29 1.270 . S
C19 O30 1.251 . S
C19 O31 1.251 . S
O20 C0 1.257 . S
O20 Eu1 2.473 . S
O21 C0 1.260 . S
O21 Eu1 2.480 . S
O22 Eu1 2.430 1_655 S
O22 C8 1.259 . S
O23 Eu1 2.670 1_655 S
O23 C8 1.270 . S
O23 Eu11 2.355 1_564 S
O24 Eu1 2.394 1_655 S
O24 C9 1.251 1_554 S
O25 C9 1.251 . S
O25 Eu11 2.374 1_565 S
O26 C10 1.257 . S
O26 Eu11 2.473 . S
O27 C10 1.260 1_455 S
O27 Eu11 2.480 1_455 S
O28 Eu11 2.430 1_455 S
O28 C18 1.259 . S
O29 Eu1 2.355 1_546 S
O29 Eu11 2.670 1_455 S
O29 C18 1.270 . S
O30 Eu11 2.394 1_454 S
O30 C19 1.251 . S
O31 Eu1 2.374 1_545 S
O31 C19 1.251 . S
H32 C3 0.931 1_655 S
H33 C4 0.931 . S
H34 C6 0.931 . S
H35 C7 0.931 . S
H36 C13 0.931 . S
H37 C14 0.931 1_455 S
H38 C16 0.931 . S
H39 C17 0.931 . S
C40 Eu41 2.835 . S
C40 C42 1.500 . S
C40 O60 1.257 . S
C40 O61 1.260 . S
Eu41 C40 2.835 . S
Eu41 O60 2.473 . S
Eu41 O61 2.480 . S
Eu41 O62 2.430 . S
Eu41 O63 2.656 1_655 S
Eu41 O64 2.394 . S
Eu41 O69 2.355 1_665 S
Eu41 O71 2.374 1_655 S
C42 C40 1.500 . S
C42 C43 1.377 . S
C42 C47 1.377 . S
C43 C42 1.377 . S
C43 C44 1.395 . S
C43 H72 0.931 . S
C44 C43 1.395 . S
C44 C45 1.383 . S
C44 H73 0.931 . S
C45 C44 1.383 . S
C45 C46 1.394 . S
C46 C45 1.394 . S
C46 C47 1.378 . S
C46 H74 0.931 . S
C47 C42 1.377 . S
C47 C46 1.378 . S
C47 H75 0.931 1_565 S
C48 O62 1.259 . S
C48 O63 1.263 1_655 S
C49 O64 1.251 1_545 S
C49 O65 1.251 . S
C50 Eu51 2.835 . S
C50 C52 1.500 . S
C50 O66 1.257 . S
C50 O67 1.260 . S
Eu51 C50 2.835 . S
Eu51 O63 2.360 1_545 S
Eu51 O65 2.374 1_455 S
Eu51 O66 2.473 . S
Eu51 O67 2.480 . S
Eu51 O68 2.430 . S
Eu51 O69 2.670 . S
Eu51 O70 2.394 . S
C52 C50 1.500 . S
C52 C53 1.377 . S
C52 C57 1.377 . S
C53 C52 1.377 . S
C53 C54 1.395 . S
C53 H76 0.931 . S
C54 C53 1.395 . S
C54 C55 1.383 . S
C54 H77 0.931 . S
C55 C54 1.383 . S
C55 C56 1.394 . S
C56 C55 1.394 . S
C56 C57 1.378 . S
C56 H78 0.931 . S
C57 C52 1.377 . S
C57 C56 1.378 . S
C57 H79 0.931 . S
C58 O68 1.259 . S
C58 O69 1.270 . S
C59 O70 1.251 1_565 S
C59 O71 1.251 . S
O60 C40 1.257 . S
O60 Eu41 2.473 . S
O61 C40 1.260 . S
O61 Eu41 2.480 . S
O62 Eu41 2.430 . S
O62 C48 1.259 . S
O63 Eu41 2.656 1_455 S
O63 C48 1.263 1_455 S
O63 Eu51 2.360 1_565 S
O64 Eu41 2.394 . S
O64 C49 1.251 1_565 S
O65 C49 1.251 . S
O65 Eu51 2.374 1_655 S
O66 C50 1.257 . S
O66 Eu51 2.473 . S
O67 C50 1.260 . S
O67 Eu51 2.480 . S
O68 Eu51 2.430 . S
O68 C58 1.259 . S
O69 Eu41 2.355 1_445 S
O69 Eu51 2.670 . S
O69 C58 1.270 . S
O70 Eu51 2.394 . S
O70 C59 1.251 1_545 S
O71 Eu41 2.374 1_455 S
O71 C59 1.251 . S
H72 C43 0.931 . S
H73 C44 0.931 . S
H74 C46 0.931 . S
H75 C47 0.931 1_545 S
H76 C53 0.931 . S
H77 C54 0.931 . S
H78 C56 0.931 . S
H79 C57 0.931 . S
Zn80 O86 1.920 . S
Zn80 O92 1.898 . S
Zn80 O95 1.905 . S
Zn81 O89 1.905 . S
Zn81 O90 1.898 . S
Zn81 O98 1.920 . S
Zn82 O85 2.080 . S
Zn82 O88 2.114 . S
Zn82 O91 2.120 . S
Zn82 O93 2.120 . S
Zn82 O94 2.114 . S
Zn82 O97 2.080 . S
C83 O88 1.166 . S
C83 O89 1.182 . S
C84 O90 1.167 . S
C84 O91 1.299 . S
O85 Zn82 2.080 . S
O85 C99 1.305 . S
O86 Zn80 1.920 . S
O86 C99 1.234 . S
C87 O92 1.167 . S
C87 O93 1.299 . S
O88 Zn82 2.114 . S
O88 C83 1.166 . S
O89 Zn81 1.905 . S
O89 C83 1.182 . S
O90 Zn81 1.898 . S
O90 C84 1.167 . S
O91 Zn82 2.120 . S
O91 C84 1.299 . S
O92 Zn80 1.898 . S
O92 C87 1.167 . S
O93 Zn82 2.120 . S
O93 C87 1.299 . S
O94 Zn82 2.114 . S
O94 C96 1.166 . S
O95 Zn80 1.905 . S
O95 C96 1.182 . S
C96 O94 1.166 . S
C96 O95 1.182 . S
O97 Zn82 2.080 . S
O97 C100 1.305 . S
O98 Zn81 1.920 . S
O98 C100 1.234 . S
C99 O85 1.305 . S
C99 O86 1.234 . S
C100 O97 1.305 . S
C100 O98 1.234 . S
Zn101 O107 1.920 . S
Zn101 O113 1.898 . S
Zn101 O116 1.905 . S
Zn102 O110 1.905 . S
Zn102 O111 1.898 . S
Zn102 O119 1.920 . S
Zn103 O106 2.080 . S
Zn103 O109 2.114 . S
Zn103 O112 2.120 . S
Zn103 O114 2.120 . S
Zn103 O115 2.114 . S
Zn103 O118 2.080 . S
C104 O109 1.166 . S
C104 O110 1.182 . S
C105 O111 1.167 . S
C105 O112 1.299 . S
O106 Zn103 2.080 . S
O106 C120 1.305 . S
O107 Zn101 1.920 . S
O107 C120 1.234 . S
C108 O113 1.167 . S
C108 O114 1.299 . S
O109 Zn103 2.114 . S
O109 C104 1.166 . S
O110 Zn102 1.905 . S
O110 C104 1.182 . S
O111 Zn102 1.898 . S
O111 C105 1.167 . S
O112 Zn103 2.120 . S
O112 C105 1.299 . S
O113 Zn101 1.898 . S
O113 C108 1.167 . S
O114 Zn103 2.120 . S
O114 C108 1.299 . S
O115 Zn103 2.114 . S
O115 C117 1.166 . S
O116 Zn101 1.905 . S
O116 C117 1.182 . S
C117 O115 1.166 . S
C117 O116 1.182 . S
O118 Zn103 2.080 . S
O118 C121 1.305 . S
O119 Zn102 1.920 . S
O119 C121 1.234 . S
C120 O106 1.305 . S
C120 O107 1.234 . S
C121 O118 1.305 . S
C121 O119 1.234 . S
H122 C130 0.950 . S
H123 C135 0.950 . S
H124 C132 0.950 . S
H125 C134 0.950 . S
H126 C136 0.950 . S
H127 C138 0.950 . S
H128 C140 0.950 . S
H129 C141 0.950 . S
C130 H122 0.950 . S
C130 C131 1.386 . S
C130 C132 1.391 . S
C131 C130 1.386 . S
C131 C135 1.393 . S
C132 H124 0.950 . S
C132 C130 1.391 . S
C132 C133 1.400 . S
C133 C132 1.400 . S
C133 C134 1.398 . S
C133 C139 1.491 . S
C134 H125 0.950 . S
C134 C133 1.398 . S
C134 C135 1.391 . S
C135 H123 0.950 . S
C135 C131 1.393 . S
C135 C134 1.391 . S
C136 H126 0.950 . S
C136 C137 1.386 . S
C136 C138 1.391 . S
C137 C136 1.386 . S
C137 C141 1.393 . S
C138 H127 0.950 . S
C138 C136 1.391 . S
C138 C139 1.400 . S
C139 C133 1.491 . S
C139 C138 1.400 . S
C139 C140 1.398 . S
C140 H128 0.950 . S
C140 C139 1.398 . S
C140 C141 1.391 . S
C141 H129 0.950 . S
C141 C137 1.393 . S
C141 C140 1.391 . S
H142 C150 0.950 . S
H143 C155 0.950 . S
H144 C152 0.950 . S
H145 C154 0.950 . S
H146 C156 0.950 . S
H147 C158 0.950 . S
H148 C160 0.950 . S
H149 C161 0.950 . S
C150 H142 0.950 . S
C150 C151 1.386 . S
C150 C152 1.391 . S
C151 C150 1.386 . S
C151 C155 1.393 . S
C152 H144 0.950 . S
C152 C150 1.391 . S
C152 C153 1.400 . S
C153 C152 1.400 . S
C153 C154 1.398 . S
C153 C159 1.491 . S
C154 H145 0.950 . S
C154 C153 1.398 . S
C154 C155 1.391 . S
C155 H143 0.950 . S
C155 C151 1.393 . S
C155 C154 1.391 . S
C156 H146 0.950 . S
C156 C157 1.386 . S
C156 C158 1.391 . S
C157 C156 1.386 . S
C157 C161 1.393 . S
C158 H147 0.950 . S
C158 C156 1.391 . S
C158 C159 1.400 . S
C159 C153 1.491 . S
C159 C158 1.400 . S
C159 C160 1.398 . S
C160 H148 0.950 . S
C160 C159 1.398 . S
C160 C161 1.391 . S
C161 H149 0.950 . S
C161 C157 1.393 . S
C161 C160 1.391 . S
H162 C170 0.950 . S
H163 C175 0.950 . S
H164 C172 0.950 . S
H165 C174 0.950 . S
H166 C176 0.950 . S
H167 C178 0.950 . S
H168 C180 0.950 . S
H169 C181 0.950 . S
C170 H162 0.950 . S
C170 C171 1.386 . S
C170 C172 1.391 . S
C171 C170 1.386 . S
C171 C175 1.393 . S
C172 H164 0.950 . S
C172 C170 1.391 . S
C172 C173 1.400 . S
C173 C172 1.400 . S
C173 C174 1.398 . S
C173 C179 1.491 . S
C174 H165 0.950 . S
C174 C173 1.398 . S
C174 C175 1.391 . S
C175 H163 0.950 . S
C175 C171 1.393 . S
C175 C174 1.391 . S
C176 H166 0.950 . S
C176 C177 1.386 . S
C176 C178 1.391 . S
C177 C176 1.386 . S
C177 C181 1.393 . S
C178 H167 0.950 . S
C178 C176 1.391 . S
C178 C179 1.400 . S
C179 C173 1.491 . S
C179 C178 1.400 . S
C179 C180 1.398 . S
C180 H168 0.950 . S
C180 C179 1.398 . S
C180 C181 1.391 . S
C181 H169 0.950 . S
C181 C177 1.393 . S
C181 C180 1.391 . S
H182 C190 0.950 . S
H183 C195 0.950 . S
H184 C192 0.950 . S
H185 C194 0.950 . S
H186 C196 0.950 . S
H187 C198 0.950 . S
H188 C200 0.950 . S
H189 C201 0.950 . S
C190 H182 0.950 . S
C190 C191 1.386 . S
C190 C192 1.391 . S
C191 C190 1.386 . S
C191 C195 1.393 . S
C192 H184 0.950 . S
C192 C190 1.391 . S
C192 C193 1.400 . S
C193 C192 1.400 . S
C193 C194 1.398 . S
C193 C199 1.491 . S
C194 H185 0.950 . S
C194 C193 1.398 . S
C194 C195 1.391 . S
C195 H183 0.950 . S
C195 C191 1.393 . S
C195 C194 1.391 . S
C196 H186 0.950 . S
C196 C197 1.386 . S
C196 C198 1.391 . S
C197 C196 1.386 . S
C197 C201 1.393 . S
C198 H187 0.950 . S
C198 C196 1.391 . S
C198 C199 1.400 . S
C199 C193 1.491 . S
C199 C198 1.400 . S
C199 C200 1.398 . S
C200 H188 0.950 . S
C200 C199 1.398 . S
C200 C201 1.391 . S
C201 H189 0.950 . S
C201 C197 1.393 . S
C201 C200 1.391 . S
H202 C210 0.950 . S
H203 C215 0.950 . S
H204 C212 0.950 . S
H205 C214 0.950 . S
H206 C216 0.950 . S
H207 C218 0.950 . S
H208 C220 0.950 . S
H209 C221 0.950 . S
C210 H202 0.950 . S
C210 C211 1.386 . S
C210 C212 1.391 . S
C211 C210 1.386 . S
C211 C215 1.393 . S
C212 H204 0.950 . S
C212 C210 1.391 . S
C212 C213 1.400 . S
C213 C212 1.400 . S
C213 C214 1.398 . S
C213 C219 1.491 . S
C214 H205 0.950 . S
C214 C213 1.398 . S
C214 C215 1.391 . S
C215 H203 0.950 . S
C215 C211 1.393 . S
C215 C214 1.391 . S
C216 H206 0.950 . S
C216 C217 1.386 . S
C216 C218 1.391 . S
C217 C216 1.386 . S
C217 C221 1.393 . S
C218 H207 0.950 . S
C218 C216 1.391 . S
C218 C219 1.400 . S
C219 C213 1.491 . S
C219 C218 1.400 . S
C219 C220 1.398 . S
C220 H208 0.950 . S
C220 C219 1.398 . S
C220 C221 1.391 . S
C221 H209 0.950 . S
C221 C217 1.393 . S
C221 C220 1.391 . S
H222 C230 0.950 . S
H223 C235 0.950 . S
H224 C232 0.950 . S
H225 C234 0.950 . S
H226 C236 0.950 . S
H227 C238 0.950 . S
H228 C240 0.950 . S
H229 C241 0.950 . S
C230 H222 0.950 . S
C230 C231 1.386 . S
C230 C232 1.391 . S
C231 C230 1.386 . S
C231 C235 1.393 . S
C232 H224 0.950 . S
C232 C230 1.391 . S
C232 C233 1.400 . S
C233 C232 1.400 . S
C233 C234 1.398 . S
C233 C239 1.491 . S
C234 H225 0.950 . S
C234 C233 1.398 . S
C234 C235 1.391 . S
C235 H223 0.950 . S
C235 C231 1.393 . S
C235 C234 1.391 . S
C236 H226 0.950 . S
C236 C237 1.386 . S
C236 C238 1.391 . S
C237 C236 1.386 . S
C237 C241 1.393 . S
C238 H227 0.950 . S
C238 C236 1.391 . S
C238 C239 1.400 . S
C239 C233 1.491 . S
C239 C238 1.400 . S
C239 C240 1.398 . S
C240 H228 0.950 . S
C240 C239 1.398 . S
C240 C241 1.391 . S
C241 H229 0.950 . S
C241 C237 1.393 . S
C241 C240 1.391 . S
H242 C250 0.950 1_545 S
H243 C255 0.950 . S
H244 C252 0.950 . S
H245 C254 0.950 . S
H246 C256 0.950 . S
H247 C258 0.950 . S
H248 C260 0.950 . S
H249 C261 0.950 . S
C250 H242 0.950 1_565 S
C250 C251 1.386 . S
C250 C252 1.391 . S
C251 C250 1.386 . S
C251 C255 1.393 . S
C252 H244 0.950 . S
C252 C250 1.391 . S
C252 C253 1.400 . S
C253 C252 1.400 . S
C253 C254 1.398 . S
C253 C259 1.491 . S
C254 H245 0.950 . S
C254 C253 1.398 . S
C254 C255 1.391 . S
C255 H243 0.950 . S
C255 C251 1.393 . S
C255 C254 1.391 . S
C256 H246 0.950 . S
C256 C257 1.386 . S
C256 C258 1.391 . S
C257 C256 1.386 . S
C257 C261 1.393 . S
C258 H247 0.950 . S
C258 C256 1.391 . S
C258 C259 1.400 . S
C259 C253 1.491 . S
C259 C258 1.400 . S
C259 C260 1.398 . S
C260 H248 0.950 . S
C260 C259 1.398 . S
C260 C261 1.391 . S
C261 H249 0.950 . S
C261 C257 1.393 . S
C261 C260 1.391 . S
H262 C270 0.950 . S
H263 C275 0.950 . S
H264 C272 0.950 . S
H265 C274 0.950 . S
H266 C276 0.950 . S
H267 C278 0.950 . S
H268 C280 0.950 . S
H269 C281 0.950 . S
C270 H262 0.950 . S
C270 C271 1.386 . S
C270 C272 1.391 . S
C271 C270 1.386 . S
C271 C275 1.393 . S
C272 H264 0.950 . S
C272 C270 1.391 . S
C272 C273 1.400 . S
C273 C272 1.400 . S
C273 C274 1.398 . S
C273 C279 1.491 . S
C274 H265 0.950 . S
C274 C273 1.398 . S
C274 C275 1.391 . S
C275 H263 0.950 . S
C275 C271 1.393 . S
C275 C274 1.391 . S
C276 H266 0.950 . S
C276 C277 1.386 . S
C276 C278 1.391 . S
C277 C276 1.386 . S
C277 C281 1.393 . S
C278 H267 0.950 . S
C278 C276 1.391 . S
C278 C279 1.400 . S
C279 C273 1.491 . S
C279 C278 1.400 . S
C279 C280 1.398 . S
C280 H268 0.950 . S
C280 C279 1.398 . S
C280 C281 1.391 . S
C281 H269 0.950 . S
C281 C277 1.393 . S
C281 C280 1.391 . S
H282 C290 0.950 . S
H283 C295 0.950 . S
H284 C292 0.950 . S
H285 C294 0.950 . S
H286 C296 0.950 . S
H287 C298 0.950 . S
H288 C300 0.950 . S
H289 C301 0.950 . S
C290 H282 0.950 . S
C290 C291 1.386 . S
C290 C292 1.391 . S
C291 C290 1.386 . S
C291 C295 1.393 . S
C292 H284 0.950 . S
C292 C290 1.391 . S
C292 C293 1.400 . S
C293 C292 1.400 . S
C293 C294 1.398 . S
C293 C299 1.491 . S
C294 H285 0.950 . S
C294 C293 1.398 . S
C294 C295 1.391 . S
C295 H283 0.950 . S
C295 C291 1.393 . S
C295 C294 1.391 . S
C296 H286 0.950 . S
C296 C297 1.386 . S
C296 C298 1.391 . S
C297 C296 1.386 . S
C297 C301 1.393 . S
C298 H287 0.950 . S
C298 C296 1.391 . S
C298 C299 1.400 . S
C299 C293 1.491 . S
C299 C298 1.400 . S
C299 C300 1.398 . S
C300 H288 0.950 . S
C300 C299 1.398 . S
C300 C301 1.391 . S
C301 H289 0.950 . S
C301 C297 1.393 . S
C301 C300 1.391 . S
H302 C310 0.950 . S
H303 C315 0.950 . S
H304 C312 0.950 . S
H305 C314 0.950 . S
H306 C316 0.950 . S
H307 C318 0.950 . S
H308 C320 0.950 . S
H309 C321 0.950 . S
C310 H302 0.950 . S
C310 C311 1.386 . S
C310 C312 1.391 . S
C311 C310 1.386 . S
C311 C315 1.393 . S
C312 H304 0.950 . S
C312 C310 1.391 . S
C312 C313 1.400 . S
C313 C312 1.400 . S
C313 C314 1.398 . S
C313 C319 1.491 . S
C314 H305 0.950 . S
C314 C313 1.398 . S
C314 C315 1.391 . S
C315 H303 0.950 . S
C315 C311 1.393 . S
C315 C314 1.391 . S
C316 H306 0.950 . S
C316 C317 1.386 . S
C316 C318 1.391 . S
C317 C316 1.386 . S
C317 C321 1.393 . S
C318 H307 0.950 . S
C318 C316 1.391 . S
C318 C319 1.400 . S
C319 C313 1.491 . S
C319 C318 1.400 . S
C319 C320 1.398 . S
C320 H308 0.950 . S
C320 C319 1.398 . S
C320 C321 1.391 . S
C321 H309 0.950 . S
C321 C317 1.393 . S
C321 C320 1.391 . S
H322 C330 0.950 . S
H323 C335 0.950 . S
H324 C332 0.950 . S
H325 C334 0.950 . S
H326 C336 0.950 . S
H327 C338 0.950 . S
H328 C340 0.950 . S
H329 C341 0.950 . S
C330 H322 0.950 . S
C330 C331 1.386 . S
C330 C332 1.391 . S
C331 C330 1.386 . S
C331 C335 1.393 . S
C332 H324 0.950 . S
C332 C330 1.391 . S
C332 C333 1.400 . S
C333 C332 1.400 . S
C333 C334 1.398 . S
C333 C339 1.491 . S
C334 H325 0.950 . S
C334 C333 1.398 . S
C334 C335 1.391 . S
C335 H323 0.950 . S
C335 C331 1.393 . S
C335 C334 1.391 . S
C336 H326 0.950 . S
C336 C337 1.386 . S
C336 C338 1.391 . S
C337 C336 1.386 . S
C337 C341 1.393 . S
C338 H327 0.950 . S
C338 C336 1.391 . S
C338 C339 1.400 . S
C339 C333 1.491 . S
C339 C338 1.400 . S
C339 C340 1.398 . S
C340 H328 0.950 . S
C340 C339 1.398 . S
C340 C341 1.391 . S
C341 H329 0.950 . S
C341 C337 1.393 . S
C341 C340 1.391 . S
H342 C350 0.950 1_455 S
H343 C355 0.950 . S
H344 C352 0.950 . S
H345 C354 0.950 . S
H346 C356 0.950 . S
H347 C358 0.950 . S
H348 C360 0.950 . S
H349 C361 0.950 . S
C350 H342 0.950 1_655 S
C350 C351 1.386 . S
C350 C352 1.391 . S
C351 C350 1.386 . S
C351 C355 1.393 . S
C352 H344 0.950 . S
C352 C350 1.391 . S
C352 C353 1.400 . S
C353 C352 1.400 . S
C353 C354 1.398 . S
C353 C359 1.491 . S
C354 H345 0.950 . S
C354 C353 1.398 . S
C354 C355 1.391 . S
C355 H343 0.950 . S
C355 C351 1.393 . S
C355 C354 1.391 . S
C356 H346 0.950 . S
C356 C357 1.386 . S
C356 C358 1.391 . S
C357 C356 1.386 . S
C357 C361 1.393 . S
C358 H347 0.950 . S
C358 C356 1.391 . S
C358 C359 1.400 . S
C359 C353 1.491 . S
C359 C358 1.400 . S
C359 C360 1.398 . S
C360 H348 0.950 . S
C360 C359 1.398 . S
C360 C361 1.391 . S
C361 H349 0.950 . S
C361 C357 1.393 . S
C361 C360 1.391 . S
C131 C5 1.263 . S
C137 C99 1.174 . S
C151 C55 1.015 . S
C157 C105 0.904 . S
C171 C19 1.313 . S
C177 C96 1.212 . S
C191 C49 2.116 . S
C197 C121 1.991 . S
C211 C8 2.004 . S
C217 C87 1.915 . S
C237 C104 1.823 . S
C231 C48 1.925 . S
C251 C59 1.879 . S
C257 C100 1.796 . S
C277 C117 2.081 . S
C271 C18 2.145 . S
C297 C84 2.086 . S
C291 C58 2.230 . S
C317 C120 1.262 . S
C311 C15 1.393 . S
C337 C83 0.928 . S
C331 C45 1.031 . S
C357 C108 1.030 . S
C351 C9 1.095 . S
