# Generated by pormake.
# Topology ibd, (4,6)-cn, num edge types: 1
# Building blocks:
#     Node 0, Type 0, BuildingBlock: NAHDIM_clean_sbu_0, # of connection points: 4
#     Node 1, Type 0, BuildingBlock: NAHDIM_clean_sbu_0, # of connection points: 4
#     Node 2, Type 0, BuildingBlock: NAHDIM_clean_sbu_0, # of connection points: 4
#     Node 3, Type 0, BuildingBlock: NAHDIM_clean_sbu_0, # of connection points: 4
#     Node 4, Type 0, BuildingBlock: NAHDIM_clean_sbu_0, # of connection points: 4
#     Node 5, Type 0, BuildingBlock: NAHDIM_clean_sbu_0, # of connection points: 4
#     Node 6, Type 0, BuildingBlock: NAHDIM_clean_sbu_0, # of connection points: 4
#     Node 7, Type 0, BuildingBlock: NAHDIM_clean_sbu_0, # of connection points: 4
#     Node 8, Type 0, BuildingBlock: NAHDIM_clean_sbu_0, # of connection points: 4
#     Node 9, Type 0, BuildingBlock: NAHDIM_clean_sbu_0, # of connection points: 4
#     Node 10, Type 0, BuildingBlock: NAHDIM_clean_sbu_0, # of connection points: 4
#     Node 11, Type 0, BuildingBlock: NAHDIM_clean_sbu_0, # of connection points: 4
#     Node 12, Type 0, BuildingBlock: NAHDIM_clean_sbu_0, # of connection points: 4
#     Node 13, Type 0, BuildingBlock: NAHDIM_clean_sbu_0, # of connection points: 4
#     Node 14, Type 0, BuildingBlock: NAHDIM_clean_sbu_0, # of connection points: 4
#     Node 15, Type 0, BuildingBlock: NAHDIM_clean_sbu_0, # of connection points: 4
#     Node 16, Type 0, BuildingBlock: NAHDIM_clean_sbu_0, # of connection points: 4
#     Node 17, Type 0, BuildingBlock: NAHDIM_clean_sbu_0, # of connection points: 4
#     Node 18, Type 0, BuildingBlock: NAHDIM_clean_sbu_0, # of connection points: 4
#     Node 19, Type 0, BuildingBlock: NAHDIM_clean_sbu_0, # of connection points: 4
#     Node 20, Type 0, BuildingBlock: NAHDIM_clean_sbu_0, # of connection points: 4
#     Node 21, Type 0, BuildingBlock: NAHDIM_clean_sbu_0, # of connection points: 4
#     Node 22, Type 0, BuildingBlock: NAHDIM_clean_sbu_0, # of connection points: 4
#     Node 23, Type 0, BuildingBlock: NAHDIM_clean_sbu_0, # of connection points: 4
#     Node 24, Type 1, BuildingBlock: CIFDUS_clean_sbu_1, # of connection points: 6
#     Node 25, Type 1, BuildingBlock: CIFDUS_clean_sbu_1, # of connection points: 6
#     Node 26, Type 1, BuildingBlock: CIFDUS_clean_sbu_1, # of connection points: 6
#     Node 27, Type 1, BuildingBlock: CIFDUS_clean_sbu_1, # of connection points: 6
#     Node 28, Type 1, BuildingBlock: CIFDUS_clean_sbu_1, # of connection points: 6
#     Node 29, Type 1, BuildingBlock: CIFDUS_clean_sbu_1, # of connection points: 6
#     Node 30, Type 1, BuildingBlock: CIFDUS_clean_sbu_1, # of connection points: 6
#     Node 31, Type 1, BuildingBlock: CIFDUS_clean_sbu_1, # of connection points: 6
#     Node 32, Type 1, BuildingBlock: CIFDUS_clean_sbu_1, # of connection points: 6
#     Node 33, Type 1, BuildingBlock: CIFDUS_clean_sbu_1, # of connection points: 6
#     Node 34, Type 1, BuildingBlock: CIFDUS_clean_sbu_1, # of connection points: 6
#     Node 35, Type 1, BuildingBlock: CIFDUS_clean_sbu_1, # of connection points: 6
#     Node 36, Type 1, BuildingBlock: CIFDUS_clean_sbu_1, # of connection points: 6
#     Node 37, Type 1, BuildingBlock: CIFDUS_clean_sbu_1, # of connection points: 6
#     Node 38, Type 1, BuildingBlock: CIFDUS_clean_sbu_1, # of connection points: 6
#     Node 39, Type 1, BuildingBlock: CIFDUS_clean_sbu_1, # of connection points: 6
#     Edge 40, Type (0, 1), BuildingBlock: ZUJKAS_clean_linker_0, # of connection points: 2
#     Edge 41, Type (0, 1), BuildingBlock: ZUJKAS_clean_linker_0, # of connection points: 2
#     Edge 42, Type (0, 1), BuildingBlock: ZUJKAS_clean_linker_0, # of connection points: 2
#     Edge 43, Type (0, 1), BuildingBlock: ZUJKAS_clean_linker_0, # of connection points: 2
#     Edge 44, Type (0, 1), BuildingBlock: ZUJKAS_clean_linker_0, # of connection points: 2
#     Edge 45, Type (0, 1), BuildingBlock: ZUJKAS_clean_linker_0, # of connection points: 2
#     Edge 46, Type (0, 1), BuildingBlock: ZUJKAS_clean_linker_0, # of connection points: 2
#     Edge 47, Type (0, 1), BuildingBlock: ZUJKAS_clean_linker_0, # of connection points: 2
#     Edge 48, Type (0, 1), BuildingBlock: ZUJKAS_clean_linker_0, # of connection points: 2
#     Edge 49, Type (0, 1), BuildingBlock: ZUJKAS_clean_linker_0, # of connection points: 2
#     Edge 50, Type (0, 1), BuildingBlock: ZUJKAS_clean_linker_0, # of connection points: 2
#     Edge 51, Type (0, 1), BuildingBlock: ZUJKAS_clean_linker_0, # of connection points: 2
#     Edge 52, Type (0, 1), BuildingBlock: ZUJKAS_clean_linker_0, # of connection points: 2
#     Edge 53, Type (0, 1), BuildingBlock: ZUJKAS_clean_linker_0, # of connection points: 2
#     Edge 54, Type (0, 1), BuildingBlock: ZUJKAS_clean_linker_0, # of connection points: 2
#     Edge 55, Type (0, 1), BuildingBlock: ZUJKAS_clean_linker_0, # of connection points: 2
#     Edge 56, Type (0, 1), BuildingBlock: ZUJKAS_clean_linker_0, # of connection points: 2
#     Edge 57, Type (0, 1), BuildingBlock: ZUJKAS_clean_linker_0, # of connection points: 2
#     Edge 58, Type (0, 1), BuildingBlock: ZUJKAS_clean_linker_0, # of connection points: 2
#     Edge 59, Type (0, 1), BuildingBlock: ZUJKAS_clean_linker_0, # of connection points: 2
#     Edge 60, Type (0, 1), BuildingBlock: ZUJKAS_clean_linker_0, # of connection points: 2
#     Edge 61, Type (0, 1), BuildingBlock: ZUJKAS_clean_linker_0, # of connection points: 2
#     Edge 62, Type (0, 1), BuildingBlock: ZUJKAS_clean_linker_0, # of connection points: 2
#     Edge 63, Type (0, 1), BuildingBlock: ZUJKAS_clean_linker_0, # of connection points: 2
#     Edge 64, Type (0, 1), BuildingBlock: ZUJKAS_clean_linker_0, # of connection points: 2
#     Edge 65, Type (0, 1), BuildingBlock: ZUJKAS_clean_linker_0, # of connection points: 2
#     Edge 66, Type (0, 1), BuildingBlock: ZUJKAS_clean_linker_0, # of connection points: 2
#     Edge 67, Type (0, 1), BuildingBlock: ZUJKAS_clean_linker_0, # of connection points: 2
#     Edge 68, Type (0, 1), BuildingBlock: ZUJKAS_clean_linker_0, # of connection points: 2
#     Edge 69, Type (0, 1), BuildingBlock: ZUJKAS_clean_linker_0, # of connection points: 2
#     Edge 70, Type (0, 1), BuildingBlock: ZUJKAS_clean_linker_0, # of connection points: 2
#     Edge 71, Type (0, 1), BuildingBlock: ZUJKAS_clean_linker_0, # of connection points: 2
#     Edge 72, Type (0, 1), BuildingBlock: ZUJKAS_clean_linker_0, # of connection points: 2
#     Edge 73, Type (0, 1), BuildingBlock: ZUJKAS_clean_linker_0, # of connection points: 2
#     Edge 74, Type (0, 1), BuildingBlock: ZUJKAS_clean_linker_0, # of connection points: 2
#     Edge 75, Type (0, 1), BuildingBlock: ZUJKAS_clean_linker_0, # of connection points: 2
#     Edge 76, Type (0, 1), BuildingBlock: ZUJKAS_clean_linker_0, # of connection points: 2
#     Edge 77, Type (0, 1), BuildingBlock: ZUJKAS_clean_linker_0, # of connection points: 2
#     Edge 78, Type (0, 1), BuildingBlock: ZUJKAS_clean_linker_0, # of connection points: 2
#     Edge 79, Type (0, 1), BuildingBlock: ZUJKAS_clean_linker_0, # of connection points: 2
#     Edge 80, Type (0, 1), BuildingBlock: ZUJKAS_clean_linker_0, # of connection points: 2
#     Edge 81, Type (0, 1), BuildingBlock: ZUJKAS_clean_linker_0, # of connection points: 2
#     Edge 82, Type (0, 1), BuildingBlock: ZUJKAS_clean_linker_0, # of connection points: 2
#     Edge 83, Type (0, 1), BuildingBlock: ZUJKAS_clean_linker_0, # of connection points: 2
#     Edge 84, Type (0, 1), BuildingBlock: ZUJKAS_clean_linker_0, # of connection points: 2
#     Edge 85, Type (0, 1), BuildingBlock: ZUJKAS_clean_linker_0, # of connection points: 2
#     Edge 86, Type (0, 1), BuildingBlock: ZUJKAS_clean_linker_0, # of connection points: 2
#     Edge 87, Type (0, 1), BuildingBlock: ZUJKAS_clean_linker_0, # of connection points: 2
#     Edge 88, Type (0, 1), BuildingBlock: ZUJKAS_clean_linker_0, # of connection points: 2
#     Edge 89, Type (0, 1), BuildingBlock: ZUJKAS_clean_linker_0, # of connection points: 2
#     Edge 90, Type (0, 1), BuildingBlock: ZUJKAS_clean_linker_0, # of connection points: 2
#     Edge 91, Type (0, 1), BuildingBlock: ZUJKAS_clean_linker_0, # of connection points: 2
#     Edge 92, Type (0, 1), BuildingBlock: ZUJKAS_clean_linker_0, # of connection points: 2
#     Edge 93, Type (0, 1), BuildingBlock: ZUJKAS_clean_linker_0, # of connection points: 2
#     Edge 94, Type (0, 1), BuildingBlock: ZUJKAS_clean_linker_0, # of connection points: 2
#     Edge 95, Type (0, 1), BuildingBlock: ZUJKAS_clean_linker_0, # of connection points: 2
#     Edge 96, Type (0, 1), BuildingBlock: ZUJKAS_clean_linker_0, # of connection points: 2
#     Edge 97, Type (0, 1), BuildingBlock: ZUJKAS_clean_linker_0, # of connection points: 2
#     Edge 98, Type (0, 1), BuildingBlock: ZUJKAS_clean_linker_0, # of connection points: 2
#     Edge 99, Type (0, 1), BuildingBlock: ZUJKAS_clean_linker_0, # of connection points: 2
#     Edge 100, Type (0, 1), BuildingBlock: ZUJKAS_clean_linker_0, # of connection points: 2
#     Edge 101, Type (0, 1), BuildingBlock: ZUJKAS_clean_linker_0, # of connection points: 2
#     Edge 102, Type (0, 1), BuildingBlock: ZUJKAS_clean_linker_0, # of connection points: 2
#     Edge 103, Type (0, 1), BuildingBlock: ZUJKAS_clean_linker_0, # of connection points: 2
#     Edge 104, Type (0, 1), BuildingBlock: ZUJKAS_clean_linker_0, # of connection points: 2
#     Edge 105, Type (0, 1), BuildingBlock: ZUJKAS_clean_linker_0, # of connection points: 2
#     Edge 106, Type (0, 1), BuildingBlock: ZUJKAS_clean_linker_0, # of connection points: 2
#     Edge 107, Type (0, 1), BuildingBlock: ZUJKAS_clean_linker_0, # of connection points: 2
#     Edge 108, Type (0, 1), BuildingBlock: ZUJKAS_clean_linker_0, # of connection points: 2
#     Edge 109, Type (0, 1), BuildingBlock: ZUJKAS_clean_linker_0, # of connection points: 2
#     Edge 110, Type (0, 1), BuildingBlock: ZUJKAS_clean_linker_0, # of connection points: 2
#     Edge 111, Type (0, 1), BuildingBlock: ZUJKAS_clean_linker_0, # of connection points: 2
#     Edge 112, Type (0, 1), BuildingBlock: ZUJKAS_clean_linker_0, # of connection points: 2
#     Edge 113, Type (0, 1), BuildingBlock: ZUJKAS_clean_linker_0, # of connection points: 2
#     Edge 114, Type (0, 1), BuildingBlock: ZUJKAS_clean_linker_0, # of connection points: 2
#     Edge 115, Type (0, 1), BuildingBlock: ZUJKAS_clean_linker_0, # of connection points: 2
#     Edge 116, Type (0, 1), BuildingBlock: ZUJKAS_clean_linker_0, # of connection points: 2
#     Edge 117, Type (0, 1), BuildingBlock: ZUJKAS_clean_linker_0, # of connection points: 2
#     Edge 118, Type (0, 1), BuildingBlock: ZUJKAS_clean_linker_0, # of connection points: 2
#     Edge 119, Type (0, 1), BuildingBlock: ZUJKAS_clean_linker_0, # of connection points: 2
#     Edge 120, Type (0, 1), BuildingBlock: ZUJKAS_clean_linker_0, # of connection points: 2
#     Edge 121, Type (0, 1), BuildingBlock: ZUJKAS_clean_linker_0, # of connection points: 2
#     Edge 122, Type (0, 1), BuildingBlock: ZUJKAS_clean_linker_0, # of connection points: 2
#     Edge 123, Type (0, 1), BuildingBlock: ZUJKAS_clean_linker_0, # of connection points: 2
#     Edge 124, Type (0, 1), BuildingBlock: ZUJKAS_clean_linker_0, # of connection points: 2
#     Edge 125, Type (0, 1), BuildingBlock: ZUJKAS_clean_linker_0, # of connection points: 2
#     Edge 126, Type (0, 1), BuildingBlock: ZUJKAS_clean_linker_0, # of connection points: 2
#     Edge 127, Type (0, 1), BuildingBlock: ZUJKAS_clean_linker_0, # of connection points: 2
#     Edge 128, Type (0, 1), BuildingBlock: ZUJKAS_clean_linker_0, # of connection points: 2
#     Edge 129, Type (0, 1), BuildingBlock: ZUJKAS_clean_linker_0, # of connection points: 2
#     Edge 130, Type (0, 1), BuildingBlock: ZUJKAS_clean_linker_0, # of connection points: 2
#     Edge 131, Type (0, 1), BuildingBlock: ZUJKAS_clean_linker_0, # of connection points: 2
#     Edge 132, Type (0, 1), BuildingBlock: ZUJKAS_clean_linker_0, # of connection points: 2
#     Edge 133, Type (0, 1), BuildingBlock: ZUJKAS_clean_linker_0, # of connection points: 2
#     Edge 134, Type (0, 1), BuildingBlock: ZUJKAS_clean_linker_0, # of connection points: 2
#     Edge 135, Type (0, 1), BuildingBlock: ZUJKAS_clean_linker_0, # of connection points: 2
# Relax obj value: 0.361
# Max RMSD: 0.321
# Mean RMSD: 0.285
data_MOF--net-ibd--node1-NAHDIM_clean_sbu_0--node2-CIFDUS_clean_sbu_1--edge1-ZUJKAS_clean_linker_0
_symmetry_space_group_name_H-M    P1
_symmetry_Int_Tables_number       1
_symmetry_cell_setting            triclinic
loop_
_symmetry_equiv_pos_as_xyz
'x, y, z'
_cell_length_a     60.048325
_cell_length_b     61.823691
_cell_length_c     62.783665
_cell_angle_alpha  91.459001
_cell_angle_beta   89.901494
_cell_angle_gamma 94.832303
loop_
_atom_site_label
_atom_site_type_symbol
_atom_site_fract_x
_atom_site_fract_y
_atom_site_fract_z
_atom_type_partial_charge
C0 C 0.01832 0.28117 0.34125 0.0
O1 O 0.03495 0.29288 0.35061 0.0
O2 O 0.01997 0.31487 0.38767 0.0
Zn3 Zn 0.99308 0.30764 0.36886 0.0
O4 O 0.98499 0.33304 0.35193 0.0
C5 C 0.96548 0.31391 0.40398 0.0
O6 O 0.97588 0.33331 0.40184 0.0
O7 O -0.00158 0.28374 0.34716 0.0
C8 C -0.00064 0.34419 0.34094 0.0
O9 O 0.02052 0.34045 0.34231 0.0
C10 C 0.025 0.29942 0.39927 0.0
O11 O 0.01421 0.28018 0.3964 0.0
O12 O 0.96868 0.29922 0.38998 0.0
C13 C 0.00109 0.7556 0.68298 0.0
O14 O 0.98355 0.76691 0.68211 0.0
O15 O 0.98765 0.78097 0.63169 0.0
Zn16 Zn 0.01518 0.7845 0.65012 0.0
O17 O 0.01501 0.81112 0.66929 0.0
C18 C 0.05024 0.80338 0.62255 0.0
O19 O 0.0465 0.82162 0.6326 0.0
O20 O 0.01679 0.75932 0.6696 0.0
C21 C 0.03043 0.81466 0.68313 0.0
O22 O 0.04717 0.80227 0.68281 0.0
C23 C 0.98502 0.79608 0.61877 0.0
O24 O -0.00167 0.81404 0.62031 0.0
O25 O 0.0404 0.7857 0.62886 0.0
C26 C 0.51241 0.77181 0.84683 0.0
O27 O 0.53161 0.77745 0.85626 0.0
O28 O 0.526 0.80443 0.89191 0.0
Zn29 Zn 0.50024 0.80796 0.87203 0.0
O30 O 0.50512 0.83394 0.85301 0.0
C31 C 0.47584 0.82434 0.90683 0.0
O32 O 0.49236 0.83962 0.90589 0.0
O33 O 0.49555 0.78195 0.85191 0.0
C34 C 0.48904 0.84526 0.84881 0.0
O35 O 0.47003 0.84149 0.85897 0.0
C36 C 0.5397 0.81988 0.89856 0.0
O37 O 0.5393 0.83905 0.89006 0.0
O38 O 0.47416 0.8096 0.89225 0.0
C39 C 0.49365 0.26805 0.1862 0.0
O40 O 0.47424 0.27641 0.18605 0.0
O41 O 0.47642 0.29265 0.13532 0.0
Zn42 Zn 0.50289 0.29991 0.15467 0.0
O43 O 0.49847 0.32456 0.17553 0.0
C44 C 0.53423 0.32509 0.12781 0.0
O45 O 0.52519 0.34175 0.13664 0.0
O46 O 0.50852 0.27464 0.17288 0.0
C47 C 0.51365 0.32831 0.18958 0.0
O48 O 0.53189 0.31804 0.18786 0.0
C49 C 0.47039 0.30741 0.12337 0.0
O50 O 0.47904 0.32744 0.12665 0.0
O51 O 0.52862 0.30617 0.13445 0.0
C52 C 0.0108 0.78663 0.09638 0.0
O53 O -0.0006 0.80329 0.09238 0.0
O54 O 0.98133 0.80384 0.15065 0.0
Zn55 Zn 0.97692 0.77983 0.12835 0.0
O56 O 0.95367 0.7858 0.10643 0.0
C57 C 0.95097 0.75472 0.15754 0.0
O58 O 0.93836 0.77086 0.15516 0.0
O59 O 0.00509 0.77481 0.1121 0.0
C60 C 0.94797 0.80499 0.1045 0.0
O61 O 0.95539 0.82006 0.11847 0.0
C62 C -0.00047 0.8151 0.15481 0.0
O63 O 0.01701 0.81289 0.14259 0.0
O64 O 0.96807 0.75368 0.14574 0.0
C65 C 0.55786 0.75078 0.41817 0.0
O66 O 0.53988 0.7382 0.41285 0.0
O67 O 0.52474 0.75464 0.37149 0.0
Zn68 Zn 0.53344 0.77742 0.39416 0.0
O69 O 0.50995 0.7811 0.41677 0.0
C70 C 0.52098 0.81072 0.36867 0.0
O71 O 0.50152 0.80156 0.37467 0.0
O72 O 0.56053 0.76958 0.41034 0.0
C73 C 0.51735 0.79425 0.43152 0.0
O74 O 0.5374 0.80424 0.42936 0.0
C75 C 0.50465 0.74875 0.36639 0.0
O76 O 0.48841 0.75488 0.37859 0.0
O77 O 0.5386 0.80459 0.37707 0.0
C78 C 0.54855 0.28954 0.58735 0.0
O79 O 0.5401 0.30836 0.58576 0.0
O80 O 0.52636 0.31175 0.63931 0.0
Zn81 Zn 0.51614 0.2857 0.62049 0.0
O82 O 0.49191 0.29078 0.59899 0.0
C83 C 0.49301 0.26535 0.6554 0.0
O84 O 0.48328 0.28356 0.65514 0.0
O85 O 0.54175 0.27708 0.60226 0.0
C86 C 0.47141 0.29438 0.60041 0.0
O87 O 0.4619 0.29584 0.61917 0.0
C88 C 0.5142 0.32624 0.64632 0.0
O89 O 0.49386 0.32676 0.63883 0.0
O90 O 0.50727 0.26166 0.64105 0.0
C91 C 0.07493 0.27108 0.92232 0.0
O92 O 0.06601 0.25317 0.91295 0.0
O93 O 0.04025 0.26532 0.87451 0.0
Zn94 Zn 0.0434 0.29054 0.89575 0.0
O95 O 0.01679 0.29306 0.91516 0.0
C96 C 0.0313 0.31877 0.86424 0.0
O97 O 0.01231 0.30706 0.86719 0.0
O98 O 0.06933 0.28924 0.91607 0.0
C99 C 0.02025 0.30923 0.92801 0.0
O100 O 0.0384 0.32236 0.9255 0.0
C101 C 0.02134 0.25653 0.86845 0.0
O102 O 0.00342 0.26082 0.87926 0.0
O103 O 0.0476 0.31625 0.8766 0.0
C104 C 0.40272 0.98766 0.24873 0.0
O105 O 0.40031 -0.00127 0.26662 0.0
O106 O 0.34896 0.01146 0.26165 0.0
Zn107 Zn 0.37115 0.01614 0.23776 0.0
O108 O 0.39378 0.04082 0.24565 0.0
C109 C 0.33496 0.01257 0.20782 0.0
O110 O 0.32944 0.99505 0.21871 0.0
O111 O 0.38983 0.99069 0.23319 0.0
C112 C 0.41043 0.0443 0.23328 0.0
O113 O 0.41057 0.0336 0.21494 0.0
C114 C 0.33693 0.02701 0.26587 0.0
O115 O 0.34066 0.04517 0.25553 0.0
O116 O 0.35341 0.02354 0.212 0.0
C117 C 0.27747 0.13283 0.57284 0.0
O118 O 0.29319 0.14637 0.56493 0.0
O119 O 0.27581 0.17546 0.53668 0.0
Zn120 Zn 0.25102 0.15177 0.54125 0.0
O121 O 0.24823 0.12923 0.51729 0.0
C122 C 0.22097 0.18328 0.53269 0.0
O123 O 0.23531 0.18609 0.51697 0.0
O124 O 0.25744 0.13371 0.5666 0.0
C125 C 0.23762 0.12828 0.49975 0.0
O126 O 0.2267 0.14478 0.49417 0.0
C127 C 0.28734 0.17802 0.51982 0.0
O128 O 0.28489 0.16327 0.50438 0.0
O129 O 0.22308 0.16779 0.54534 0.0
C130 C 0.17572 0.03445 0.72516 0.0
O131 O 0.17116 0.02282 0.7421 0.0
O132 O 0.11844 0.028 0.74612 0.0
Zn133 Zn 0.14088 0.05396 0.74411 0.0
O134 O 0.16019 0.05881 0.77037 0.0
C135 C 0.10915 0.08536 0.7518 0.0
O136 O 0.10732 0.07553 0.77011 0.0
O137 O 0.16306 0.04919 0.72075 0.0
C138 C 0.17623 0.07326 0.76772 0.0
O139 O 0.17618 0.08507 0.7506 0.0
C140 C 0.1156 0.01675 0.76269 0.0
O141 O 0.12873 0.02125 0.7792 0.0
O142 O 0.12348 0.07958 0.73832 0.0
C143 C 0.31419 0.89379 -0.00125 0.0
O144 O 0.30367 0.89137 0.9804 0.0
O145 O 0.28685 0.94553 0.98113 0.0
Zn146 Zn 0.28248 0.92561 0.00613 0.0
O147 O 0.25672 0.90277 0.00138 0.0
C148 C 0.26656 0.94321 0.04796 0.0
O149 O 0.25594 0.92419 0.05149 0.0
O150 O 0.30908 0.90871 0.01175 0.0
C151 C 0.23593 0.90255 0.00537 0.0
O152 O 0.22775 0.91999 0.01351 0.0
C153 C 0.27065 0.95696 0.97751 0.0
O154 O 0.25199 0.95306 0.98822 0.0
O155 O 0.27792 0.946 0.03103 0.0
C156 C 0.2719 0.46249 0.97521 0.0
O157 O 0.29021 0.46424 0.98678 0.0
O158 O 0.28936 0.40847 -0.00438 0.0
Zn159 Zn 0.26354 0.42651 0.00178 0.0
O160 O 0.26914 0.4473 0.02691 0.0
C161 C 0.2308 0.39761 0.02381 0.0
O162 O 0.23881 0.40794 0.04105 0.0
O163 O 0.25801 0.44599 0.97745 0.0
C164 C 0.2546 0.46095 0.02971 0.0
O165 O 0.2359 0.4582 0.01875 0.0
C166 C 0.2855 0.39565 0.97964 0.0
O167 O 0.26744 0.39753 0.96827 0.0
O168 O 0.2375 0.40411 0.00569 0.0
C169 C 0.71724 0.1813 0.97747 0.0
O170 O 0.73333 0.17543 0.96495 0.0
O171 O 0.75636 0.13997 0.98738 0.0
Zn172 Zn 0.74193 0.15944 0.00844 0.0
O173 O 0.76448 0.18348 0.01861 0.0
C174 C 0.74757 0.12851 0.03934 0.0
O175 O 0.76824 0.1333 0.03305 0.0
O176 O 0.71632 0.17466 -0.00352 0.0
C177 C 0.77654 0.19367 0.00483 0.0
O178 O 0.77545 0.18683 0.98485 0.0
C179 C 0.74573 0.1262 0.97499 0.0
O180 O 0.72393 0.12611 0.9733 0.0
O181 O 0.73225 0.13932 0.03208 0.0
C182 C 0.10999 0.57886 0.31062 0.0
O183 O 0.11033 0.55896 0.31742 0.0
O184 O 0.16033 0.54922 0.31039 0.0
Zn185 Zn 0.14405 0.56245 0.28647 0.0
O186 O 0.12288 0.54003 0.27157 0.0
C187 C 0.18118 0.55923 0.25986 0.0
O188 O 0.17684 0.53909 0.26582 0.0
O189 O 0.12464 0.58563 0.29715 0.0
C190 C 0.11435 0.5451 0.25408 0.0
O191 O 0.12091 0.5639 0.24584 0.0
C192 C 0.15622 0.5296 0.31575 0.0
O193 O 0.13913 0.51797 0.30707 0.0
O194 O 0.16831 0.57345 0.26615 0.0
C195 C 0.7713 0.95259 0.48466 0.0
O196 O 0.7922 0.95562 0.49097 0.0
O197 O 0.79576 0.90242 0.50609 0.0
Zn198 Zn 0.7703 0.91963 0.51598 0.0
O199 O 0.77767 0.94171 0.53977 0.0
C200 C 0.74346 0.89197 0.54422 0.0
O201 O 0.75572 0.90266 0.55898 0.0
O202 O 0.75887 0.93694 0.4922 0.0
C203 C 0.79696 0.95105 0.54355 0.0
O204 O 0.81423 0.94456 0.53304 0.0
C205 C 0.80459 0.88989 0.51881 0.0
O206 O 0.79926 0.89074 0.5391 0.0
O207 O 0.74604 0.89724 0.52489 0.0
C208 C 0.85098 0.04209 0.31358 0.0
O209 O 0.85035 0.0211 0.30945 0.0
O210 O 0.89704 0.01581 0.29064 0.0
Zn211 Zn 0.88203 0.04154 0.27991 0.0
O212 O 0.85772 0.03443 0.25796 0.0
C213 C 0.92067 0.05524 0.25662 0.0
O214 O 0.91656 0.03526 0.24921 0.0
O215 O 0.8652 0.0547 0.30389 0.0
C216 C 0.85633 0.02579 0.23938 0.0
O217 O 0.87407 0.01877 0.23013 0.0
C218 C 0.9001 -0.00195 0.28082 0.0
O219 O 0.89099 0.99392 0.26202 0.0
O220 O 0.90698 0.06281 0.26973 0.0
C221 C 0.2403 0.7011 0.48413 0.0
O222 O 0.2571 0.69874 0.4711 0.0
O223 O 0.27048 0.65239 0.47965 0.0
Zn224 Zn 0.2636 0.67047 0.50555 0.0
O225 O 0.28996 0.6913 0.51412 0.0
C226 C 0.26924 0.63375 0.52979 0.0
O227 O 0.28815 0.63565 0.51915 0.0
O228 O 0.23818 0.68916 0.5003 0.0
C229 C 0.30339 0.69969 0.50032 0.0
O230 O 0.30183 0.69254 0.48046 0.0
C231 C 0.25515 0.63873 0.47246 0.0
O232 O 0.23484 0.63921 0.48017 0.0
O233 O 0.25574 0.64841 0.52802 0.0
C234 C 0.33766 0.53383 0.84029 0.0
O235 O 0.33517 0.51363 0.83309 0.0
O236 O 0.38848 0.50752 0.82228 0.0
Zn237 Zn 0.37294 0.53273 0.81126 0.0
O238 O 0.35031 0.52299 0.78864 0.0
C239 C 0.41109 0.54586 0.78744 0.0
O240 O 0.40732 0.52533 0.78163 0.0
O241 O 0.35462 0.5459 0.83429 0.0
C242 C 0.34719 0.53262 0.7714 0.0
O243 O 0.36091 0.54928 0.76607 0.0
C244 C 0.38996 0.48988 0.81168 0.0
O245 O 0.37888 0.48666 0.79369 0.0
O246 O 0.39737 0.55416 0.80006 0.0
C247 C 0.62812 0.08047 0.80483 0.0
O248 O 0.62954 0.06185 0.81418 0.0
O249 O 0.67681 0.04904 0.80019 0.0
Zn250 Zn 0.65648 0.05928 0.77782 0.0
O251 O 0.63235 0.03588 0.76986 0.0
C252 C 0.68912 0.05198 0.74695 0.0
O253 O 0.68602 0.03281 0.75558 0.0
O254 O 0.64007 0.08457 0.78847 0.0
C255 C 0.61719 0.04164 0.75766 0.0
O256 O 0.61942 0.06122 0.74984 0.0
C257 C 0.67349 0.03107 0.80952 0.0
O258 O 0.65456 0.01915 0.80639 0.0
O259 O 0.6768 0.06676 0.75296 0.0
C260 C 0.77365 0.64056 0.04802 0.0
O261 O 0.78383 0.64606 0.03017 0.0
O262 O 0.77 0.68994 0.02208 0.0
Zn263 Zn 0.74577 0.66635 0.02797 0.0
O264 O 0.74103 0.64431 0.00365 0.0
C265 C 0.71352 0.6949 0.01882 0.0
O266 O 0.72418 0.69359 0.00059 0.0
O267 O 0.75546 0.64881 0.05255 0.0
C268 C 0.72882 0.62747 0.00887 0.0
O269 O 0.71886 0.62754 0.02753 0.0
C270 C 0.78061 0.69242 0.00469 0.0
O271 O 0.77693 0.67795 0.98914 0.0
O272 O 0.71849 0.68263 0.03378 0.0
C273 C 0.91455 0.49787 0.74589 0.0
O274 O 0.9133 0.50448 0.76588 0.0
O275 O 0.86329 0.52211 0.7654 0.0
Zn276 Zn 0.8849 0.53097 0.74184 0.0
O277 O 0.90808 0.55448 0.75191 0.0
C278 C 0.86237 0.56132 0.71769 0.0
O279 O 0.87392 0.57511 0.73053 0.0
O280 O 0.90244 0.50604 0.7321 0.0
C281 C 0.92373 0.56014 0.739 0.0
O282 O 0.92307 0.55161 0.7196 0.0
C283 C 0.85259 0.53665 0.77453 0.0
O284 O 0.85771 0.55708 0.76997 0.0
O285 O 0.86562 0.54129 0.71832 0.0
C286 C 0.7925 0.37378 0.50857 0.0
O287 O 0.7794 0.37054 0.49186 0.0
O288 O 0.76581 0.42718 0.49412 0.0
Zn289 Zn 0.76161 0.40547 0.51766 0.0
O290 O 0.73605 0.3827 0.51195 0.0
C291 C 0.73552 0.42603 0.54959 0.0
O292 O 0.71912 0.41423 0.53999 0.0
O293 O 0.78901 0.38912 0.52176 0.0
C294 C 0.73294 0.36784 0.52557 0.0
O295 O 0.74556 0.36883 0.54271 0.0
C296 C 0.74946 0.43807 0.48955 0.0
O297 O 0.72986 0.43271 0.49812 0.0
O298 O 0.75551 0.42377 0.54382 0.0
C299 C 0.6395 0.51956 0.21144 0.0
O300 O 0.62503 0.50381 0.21752 0.0
O301 O 0.59392 0.52313 0.25056 0.0
Zn302 Zn 0.61932 0.54585 0.24487 0.0
O303 O 0.64045 0.55067 0.27005 0.0
C304 C 0.58856 0.57826 0.25124 0.0
O305 O 0.58483 0.56745 0.26882 0.0
O306 O 0.63879 0.53842 0.21982 0.0
C307 C 0.65498 0.53703 0.27232 0.0
O308 O 0.65442 0.51995 0.2594 0.0
C309 C 0.59343 0.50393 0.25744 0.0
O310 O 0.61219 0.49544 0.26168 0.0
O311 O 0.60395 0.57285 0.23872 0.0
O312 O 0.16416 0.18861 0.11737 0.0
Mn313 Mn 0.14728 0.166 0.137 0.0
O314 O 0.18442 0.21187 0.13955 0.0
Mn315 Mn 0.17803 0.1983 0.16524 0.0
O316 O 0.13021 0.14451 0.15793 0.0
O317 O 0.12299 0.16115 0.11482 0.0
Mn318 Mn 0.11389 0.13316 0.11337 0.0
O319 O 0.1644 0.14135 0.12298 0.0
O320 O 0.10187 0.12672 0.13969 0.0
O321 O 0.12944 0.18987 0.15203 0.0
O322 O 0.15171 0.20509 0.17814 0.0
O323 O 0.09778 0.14635 0.09319 0.0
O324 O 0.13865 0.11847 0.10615 0.0
C325 C 0.18959 0.16605 0.16787 0.0
C326 C 0.17744 0.20577 0.12093 0.0
C327 C 0.11201 0.132 0.15707 0.0
C328 C 0.10921 0.16404 0.09952 0.0
C329 C 0.15872 0.12391 0.11205 0.0
C330 C 0.13258 0.20144 0.1693 0.0
O331 O 0.17193 0.17079 0.15816 0.0
O332 O 0.19969 0.1827 0.17769 0.0
O333 O 0.09881 0.88651 0.36183 0.0
Mn334 Mn 0.11988 0.90022 0.38602 0.0
O335 O 0.12142 0.87139 0.33797 0.0
Mn336 Mn 0.14825 0.87734 0.35232 0.0
O337 O 0.1419 0.91494 0.40911 0.0
O338 O 0.09764 0.92181 0.39219 0.0
Mn339 Mn 0.09448 0.92707 0.41956 0.0
O340 O 0.1043 0.87931 0.40844 0.0
O341 O 0.12249 0.93824 0.42841 0.0
O342 O 0.13601 0.92215 0.36467 0.0
O343 O 0.16211 0.9044 0.3474 0.0
O344 O 0.07477 0.94353 0.40558 0.0
O345 O 0.08476 0.90027 0.43033 0.0
C346 C 0.1528 0.86126 0.38177 0.0
C347 C 0.10223 0.8766 0.34398 0.0
C348 C 0.14074 0.9304 0.42311 0.0
C349 C 0.08206 0.93428 0.38856 0.0
C350 C 0.09102 0.88182 0.42434 0.0
C351 C 0.15321 0.9218 0.35242 0.0
O352 O 0.14149 0.8779 0.3796 0.0
O353 O 0.16244 0.85529 0.36439 0.0
O354 O 0.42067 0.93388 0.65217 0.0
Mn355 Mn 0.39675 0.92081 0.63053 0.0
O356 O 0.44914 0.9484 0.63218 0.0
Mn357 Mn 0.43609 0.94451 0.6053 0.0
O358 O 0.37365 0.90667 0.60815 0.0
O359 O 0.38639 0.89906 0.65184 0.0
Mn360 Mn 0.35731 0.89277 0.6517 0.0
O361 O 0.3739 0.94148 0.64251 0.0
O362 O 0.35348 0.8798 0.625 0.0
O363 O 0.41868 0.89916 0.61752 0.0
O364 O 0.4392 0.91763 0.59274 0.0
O365 O 0.36891 0.8806 0.67586 0.0
O366 O 0.34503 0.91936 0.65462 0.0
C367 C 0.40616 0.96133 0.60035 0.0
C368 C 0.44047 0.94321 0.65015 0.0
C369 C 0.36037 0.88915 0.60802 0.0
C370 C 0.38783 0.89 0.66985 0.0
C371 C 0.35416 0.93819 0.65035 0.0
C372 C 0.43197 0.8999 0.60134 0.0
O373 O 0.40714 0.94331 0.60984 0.0
O374 O 0.42512 0.96822 0.59214 0.0
O375 O 0.41239 0.20098 0.91335 0.0
Mn376 Mn 0.39804 0.17878 0.89044 0.0
O377 O 0.42801 0.18073 0.93789 0.0
Mn378 Mn 0.41986 0.1533 0.92622 0.0
O379 O 0.38277 0.15554 0.86885 0.0
O380 O 0.37739 0.20102 0.88202 0.0
Mn381 Mn 0.37319 0.20026 0.85426 0.0
O382 O 0.42101 0.18999 0.86728 0.0
O383 O 0.35955 0.17294 0.84847 0.0
O384 O 0.3742 0.16619 0.91234 0.0
O385 O 0.39104 0.14209 0.93177 0.0
O386 O 0.35817 0.22303 0.86493 0.0
O387 O 0.40128 0.20594 0.84238 0.0
C388 C 0.43588 0.14564 0.89648 0.0
C389 C 0.42339 0.19902 0.93074 0.0
C390 C 0.36686 0.15556 0.85511 0.0
C391 C 0.36625 0.21797 0.88305 0.0
C392 C 0.41956 0.20005 0.8497 0.0
C393 C 0.37357 0.15042 0.92541 0.0
O394 O 0.41945 0.1575 0.89873 0.0
O395 O 0.44148 0.13699 0.914 0.0
O396 O 0.60521 0.39297 0.86221 0.0
Mn397 Mn 0.62712 0.40642 0.88585 0.0
O398 O 0.62569 0.37367 0.83958 0.0
Mn399 Mn 0.65332 0.38048 0.85241 0.0
O400 O 0.65013 0.42118 0.90816 0.0
O401 O 0.60569 0.42883 0.89177 0.0
Mn402 Mn 0.60404 0.43607 0.91885 0.0
O403 O 0.61162 0.38711 0.90946 0.0
O404 O 0.63262 0.44746 0.92527 0.0
O405 O 0.64371 0.42693 0.86365 0.0
O406 O 0.66747 0.40701 0.84551 0.0
O407 O 0.58301 0.45089 0.90477 0.0
O408 O 0.59512 0.41015 0.93192 0.0
C409 C 0.65892 0.36648 0.88271 0.0
C410 C 0.60728 0.38092 0.84539 0.0
C411 C 0.65018 0.43809 0.92062 0.0
C412 C 0.58913 0.4401 0.88817 0.0
C413 C 0.60009 0.39116 0.92622 0.0
C414 C 0.66018 0.42518 0.85073 0.0
O415 O 0.64758 0.38296 0.87981 0.0
O416 O 0.66808 0.35934 0.86556 0.0
O417 O 0.90762 0.4394 0.14525 0.0
Mn418 Mn 0.88347 0.42267 0.12587 0.0
O419 O 0.93129 0.4585 0.12317 0.0
Mn420 Mn 0.91729 0.45036 0.0974 0.0
O421 O 0.86068 0.40497 0.10546 0.0
O422 O 0.87817 0.40087 0.14859 0.0
Mn423 Mn 0.85001 0.39119 0.15112 0.0
O424 O 0.85793 0.44 0.13873 0.0
O425 O 0.84342 0.37823 0.1248 0.0
O426 O 0.9076 0.40399 0.11198 0.0
O427 O 0.92431 0.42399 0.086 0.0
O428 O 0.8658 0.37834 0.17225 0.0
O429 O 0.83547 0.41597 0.15728 0.0
C430 C 0.88466 0.46194 0.09325 0.0
C431 C 0.92516 0.45223 0.14168 0.0
C432 C 0.84819 0.3871 0.10705 0.0
C433 C 0.8828 0.39013 0.16501 0.0
C434 C 0.84061 0.43499 0.15031 0.0
C435 C 0.92014 0.40601 0.09535 0.0
O436 O 0.88895 0.44545 0.10408 0.0
O437 O 0.90181 0.4704 0.08303 0.0
O438 O 0.89156 0.68571 0.42272 0.0
Mn439 Mn 0.87473 0.66637 0.39926 0.0
O440 O 0.90679 0.66264 0.44473 0.0
Mn441 Mn 0.89918 0.63691 0.4294 0.0
O442 O 0.85712 0.6461 0.37656 0.0
O443 O 0.85343 0.68939 0.39639 0.0
Mn444 Mn 0.8458 0.69285 0.36982 0.0
O445 O 0.89485 0.68059 0.37535 0.0
O446 O 0.83199 0.66615 0.36151 0.0
O447 O 0.85305 0.65086 0.42172 0.0
O448 O 0.87127 0.62395 0.43522 0.0
O449 O 0.83169 0.71314 0.38618 0.0
O450 O 0.87265 0.70055 0.35611 0.0
C451 C 0.91382 0.63342 0.39821 0.0
C452 C 0.90244 0.68172 0.43959 0.0
C453 C 0.83997 0.64802 0.36468 0.0
C454 C 0.84222 0.70549 0.40187 0.0
C455 C 0.8915 0.69328 0.35993 0.0
C456 C 0.85343 0.63318 0.43213 0.0
O457 O 0.89717 0.64454 0.40268 0.0
O458 O 0.92056 0.62293 0.4142 0.0
O459 O 0.88032 0.89204 0.90485 0.0
Mn460 Mn 0.89448 0.91496 0.88392 0.0
O461 O 0.86542 0.86446 0.88346 0.0
Mn462 Mn 0.87028 0.87678 0.85691 0.0
O463 O 0.90923 0.93646 0.86163 0.0
O464 O 0.91696 0.92538 0.90594 0.0
Mn465 Mn 0.92451 0.95342 0.90472 0.0
O466 O 0.87375 0.93804 0.89526 0.0
O467 O 0.93797 0.95546 0.87838 0.0
O468 O 0.91661 0.89319 0.87179 0.0
O469 O 0.89824 0.87357 0.84563 0.0
O470 O 0.93724 0.94345 0.92933 0.0
O471 O 0.89759 0.96628 0.90662 0.0
C472 C 0.85421 0.90616 0.85079 0.0
C473 C 0.87053 0.87286 0.90185 0.0
C474 C 0.92775 0.94857 0.86142 0.0
C475 C 0.92685 0.92494 0.92399 0.0
C476 C 0.87793 0.95759 0.90257 0.0
C477 C 0.91627 0.88051 0.85518 0.0
O478 O 0.87133 0.90474 0.86262 0.0
O479 O 0.8473 0.88792 0.84157 0.0
O480 O 0.92597 0.20505 0.6557 0.0
Mn481 Mn 0.90339 0.18808 0.63442 0.0
O482 O 0.90453 0.22112 0.68 0.0
Mn483 Mn 0.87648 0.21172 0.66932 0.0
O484 O 0.87983 0.17014 0.61469 0.0
O485 O 0.92718 0.16837 0.62665 0.0
Mn486 Mn 0.92592 0.16135 0.59928 0.0
O487 O 0.91382 0.20854 0.60958 0.0
O488 O 0.89848 0.14607 0.59581 0.0
O489 O 0.89155 0.16686 0.6583 0.0
O490 O 0.8658 0.18409 0.67687 0.0
O491 O 0.95033 0.14895 0.61009 0.0
O492 O 0.92917 0.18721 0.5849 0.0
C493 C 0.86858 0.2244 0.63859 0.0
C494 C 0.92359 0.21685 0.67268 0.0
C495 C 0.88034 0.15316 0.60244 0.0
C496 C 0.94487 0.15801 0.62794 0.0
C497 C 0.92268 0.20545 0.59118 0.0
C498 C 0.87529 0.16698 0.67173 0.0
O499 O 0.88049 0.2085 0.6418 0.0
O500 O 0.85988 0.23161 0.65595 0.0
O501 O 0.63674 0.17534 0.40708 0.0
Mn502 Mn 0.6229 0.15178 0.38563 0.0
O503 O 0.65584 0.20071 0.38731 0.0
Mn504 Mn 0.65102 0.18755 0.36053 0.0
O505 O 0.60816 0.12894 0.36338 0.0
O506 O 0.59891 0.14391 0.40653 0.0
Mn507 Mn 0.59116 0.11585 0.40727 0.0
O508 O 0.64189 0.12893 0.39881 0.0
O509 O 0.57941 0.11072 0.38029 0.0
O510 O 0.60278 0.17379 0.37169 0.0
O511 O 0.62431 0.19276 0.34805 0.0
O512 O 0.57736 0.12933 0.4302 0.0
O513 O 0.61754 0.10279 0.41198 0.0
C514 C 0.66556 0.15716 0.35445 0.0
C515 C 0.64852 0.19355 0.40517 0.0
C516 C 0.58995 0.11625 0.36333 0.0
C517 C 0.58819 0.14695 0.42386 0.0
C518 C 0.63738 0.11063 0.40776 0.0
C519 C 0.6053 0.18681 0.35601 0.0
O520 O 0.64785 0.15961 0.36545 0.0
O521 O 0.6738 0.17486 0.34588 0.0
O522 O 0.60535 0.88295 0.11462 0.0
Mn523 Mn 0.62153 0.90245 0.13884 0.0
O524 O 0.58493 0.90458 0.09589 0.0
Mn525 Mn 0.59632 0.93021 0.10889 0.0
O526 O 0.63826 0.92246 0.16228 0.0
O527 O 0.64374 0.87968 0.14126 0.0
Mn528 Mn 0.6482 0.87581 0.16868 0.0
O529 O 0.60013 0.88662 0.16119 0.0
O530 O 0.66081 0.90184 0.17978 0.0
O531 O 0.64349 0.91867 0.11736 0.0
O532 O 0.62378 0.94151 0.09935 0.0
O533 O 0.66576 0.85729 0.15461 0.0
O534 O 0.62109 0.86545 0.17996 0.0
C535 C 0.58477 0.93935 0.13975 0.0
C536 C 0.59143 0.88597 0.09963 0.0
C537 C 0.65404 0.92023 0.17566 0.0
C538 C 0.65754 0.86495 0.13758 0.0
C539 C 0.60232 0.8724 0.17552 0.0
C540 C 0.64219 0.93417 0.10427 0.0
O541 O 0.59927 0.9252 0.13634 0.0
O542 O 0.57778 0.94794 0.12266 0.0
O543 O 0.4112 0.70326 0.1482 0.0
Mn544 Mn 0.39281 0.68826 0.12293 0.0
O545 O 0.38492 0.71468 0.17068 0.0
Mn546 Mn 0.35938 0.70842 0.15408 0.0
O547 O 0.37273 0.6722 0.09891 0.0
O548 O 0.41771 0.66907 0.11749 0.0
Mn549 Mn 0.41994 0.66339 0.08989 0.0
O550 O 0.40764 0.71034 0.10151 0.0
O551 O 0.3934 0.6478 0.08307 0.0
O552 O 0.37699 0.66526 0.14358 0.0
O553 O 0.34631 0.68046 0.15542 0.0
O554 O 0.44321 0.65104 0.10283 0.0
O555 O 0.42447 0.69007 0.07688 0.0
C556 C 0.35883 0.7257 0.12457 0.0
C557 C 0.40528 0.71201 0.16595 0.0
C558 C 0.37462 0.65513 0.08704 0.0
C559 C 0.43556 0.65923 0.12027 0.0
C560 C 0.41835 0.70819 0.08394 0.0
C561 C 0.35732 0.66398 0.15198 0.0
O562 O 0.36922 0.70873 0.12785 0.0
O563 O 0.34679 0.73095 0.14068 0.0
O564 O 0.13576 0.69145 0.91697 0.0
Mn565 Mn 0.12572 0.6666 0.89512 0.0
O566 O 0.1555 0.7172 0.89804 0.0
Mn567 Mn 0.15364 0.70356 0.87124 0.0
O568 O 0.1148 0.64301 0.8721 0.0
O569 O 0.10061 0.65726 0.91429 0.0
Mn570 Mn 0.09437 0.629 0.91423 0.0
O571 O 0.14529 0.64537 0.91018 0.0
O572 O 0.08578 0.6229 0.88633 0.0
O573 O 0.10529 0.68672 0.87921 0.0
O574 O 0.12742 0.70618 0.85637 0.0
O575 O 0.0758 0.64123 0.93434 0.0
O576 O 0.1212 0.6183 0.92214 0.0
C577 C 0.17074 0.67395 0.86801 0.0
C578 C 0.14701 0.70998 0.91541 0.0
C579 C 0.09743 0.62941 0.87036 0.0
C580 C 0.08635 0.65941 0.9292 0.0
C581 C 0.14103 0.62704 0.91923 0.0
C582 C 0.10814 0.69894 0.86296 0.0
O583 O 0.15158 0.67572 0.87662 0.0
O584 O 0.17893 0.69188 0.85985 0.0
O585 O 0.11721 0.38776 0.60526 0.0
Mn586 Mn 0.13273 0.4098 0.62749 0.0
O587 O 0.09319 0.40645 0.58679 0.0
Mn588 Mn 0.10024 0.43366 0.59948 0.0
O589 O 0.14879 0.4331 0.64866 0.0
O590 O 0.15762 0.39057 0.62921 0.0
Mn591 Mn 0.17045 0.39221 0.65427 0.0
O592 O 0.11755 0.39346 0.65288 0.0
O593 O 0.18209 0.42074 0.65558 0.0
O594 O 0.14965 0.42706 0.60322 0.0
O595 O 0.12569 0.44901 0.58943 0.0
O596 O 0.1831 0.37037 0.63859 0.0
O597 O 0.14681 0.38543 0.67309 0.0
C598 C 0.09029 0.43851 0.63215 0.0
C599 C 0.10236 0.38904 0.59068 0.0
C600 C 0.16928 0.43607 0.65481 0.0
C601 C 0.16889 0.37448 0.62413 0.0
C602 C 0.1258 0.38632 0.66999 0.0
C603 C 0.14537 0.44312 0.5917 0.0
O604 O 0.10689 0.4281 0.62594 0.0
O605 O 0.07991 0.44685 0.61675 0.0
O606 O 0.64398 0.67912 0.62646 0.0
Mn607 Mn 0.62704 0.65529 0.64469 0.0
O608 O 0.66183 0.70283 0.65013 0.0
Mn609 Mn 0.65355 0.68887 0.67522 0.0
O610 O 0.60905 0.63298 0.66423 0.0
O611 O 0.60517 0.64937 0.62093 0.0
Mn612 Mn 0.59511 0.62196 0.61856 0.0
O613 O 0.64564 0.63095 0.63209 0.0
O614 O 0.58079 0.61724 0.64426 0.0
O615 O 0.60675 0.67808 0.65809 0.0
O616 O 0.62584 0.69426 0.6858 0.0
O617 O 0.58287 0.63629 0.59619 0.0
O618 O 0.62083 0.60759 0.61413 0.0
C619 C 0.66712 0.65801 0.67903 0.0
C620 C 0.65632 0.69664 0.63113 0.0
C621 C 0.58997 0.62192 0.66229 0.0
C622 C 0.59493 0.65306 0.60363 0.0
C623 C 0.64054 0.61344 0.62095 0.0
C624 C 0.60776 0.68973 0.6754 0.0
O625 O 0.65008 0.6613 0.66754 0.0
O626 O 0.67467 0.67494 0.69012 0.0
O627 O 0.35594 0.38435 0.41559 0.0
Mn628 Mn 0.37134 0.40781 0.39594 0.0
O629 O 0.34028 0.35817 0.39326 0.0
Mn630 Mn 0.34682 0.37111 0.36724 0.0
O631 O 0.38774 0.43015 0.37555 0.0
O632 O 0.39287 0.41645 0.4193 0.0
Mn633 Mn 0.39989 0.44459 0.42118 0.0
O634 O 0.35047 0.43102 0.40699 0.0
O635 O 0.41391 0.44975 0.39528 0.0
O636 O 0.39328 0.38599 0.38356 0.0
O637 O 0.375 0.36748 0.35657 0.0
O638 O 0.41303 0.43214 0.44427 0.0
O639 O 0.37276 0.45659 0.42495 0.0
C640 C 0.33165 0.40125 0.36222 0.0
C641 C 0.34508 0.36577 0.41201 0.0
C642 C 0.40558 0.44316 0.37732 0.0
C643 C 0.40327 0.4141 0.4368 0.0
C644 C 0.35372 0.44901 0.41775 0.0
C645 C 0.39299 0.37391 0.36651 0.0
O646 O 0.34907 0.39903 0.37338 0.0
O647 O 0.32416 0.38345 0.35253 0.0
H648 H 0.05787 0.26584 0.32985 0.0
H649 H 0.06694 0.24779 0.29628 0.0
H650 H -0.00152 0.24794 0.27581 0.0
H651 H 0.98911 0.26594 0.30963 0.0
H652 H 0.04386 0.2065 0.27361 0.0
H653 H 0.04161 0.28507 0.23221 0.0
H654 H 0.04553 0.28443 0.26068 0.0
H655 H 0.01882 0.27572 0.2493 0.0
C656 C 0.04462 0.26173 0.31839 0.0
C657 C 0.02281 0.26744 0.32233 0.0
C658 C 0.04983 0.25135 0.29924 0.0
C659 C 0.0334 0.24668 0.28358 0.0
C660 C 0.01136 0.25147 0.28775 0.0
H661 H 0.08875 0.18462 0.1683 0.0
H662 H 0.05875 0.19441 0.19251 0.0
C663 C 0.00605 0.26167 0.30707 0.0
C664 C 0.04018 0.23856 0.26237 0.0
H665 H 0.05856 0.25711 0.21417 0.0
C666 C 0.04654 0.2173 0.26033 0.0
C667 C 0.04364 0.25279 0.2452 0.0
C668 C 0.03713 0.27582 0.24677 0.0
C669 C 0.05761 0.2103 0.24199 0.0
C670 C 0.06244 0.22504 0.22537 0.0
C671 C 0.05475 0.24584 0.22689 0.0
C672 C 0.07885 0.22066 0.20847 0.0
C673 C 0.06544 0.18774 0.24114 0.0
C674 C 0.09969 0.23275 0.20882 0.0
C675 C 0.1167 0.22725 0.19512 0.0
C676 C 0.11322 0.20963 0.18059 0.0
C677 C 0.09188 0.19837 0.17924 0.0
C678 C 0.07481 0.2038 0.19318 0.0
H679 H 0.06232 0.17912 0.25631 0.0
H680 H 0.05646 0.17807 0.22819 0.0
H681 H 0.0836 0.18843 0.23754 0.0
H682 H 0.10315 0.24584 0.22046 0.0
H683 H 0.13291 0.23632 0.19648 0.0
H684 H 0.05239 0.76985 0.59344 0.0
H685 H 0.06351 0.77253 0.55606 0.0
H686 H 0.08293 0.84078 0.56598 0.0
H687 H 0.07198 0.83828 0.60334 0.0
H688 H 0.04277 0.79817 0.52852 0.0
H689 H 0.13366 0.82113 0.52882 0.0
H690 H 0.1192 0.80908 0.55145 0.0
H691 H 0.11931 0.83779 0.5472 0.0
C692 C 0.05962 0.78532 0.58784 0.0
C693 C 0.06118 0.80392 0.60138 0.0
C694 C 0.06591 0.7868 0.56644 0.0
C695 C 0.0742 0.80679 0.55826 0.0
C696 C 0.07698 0.82508 0.57203 0.0
H697 H 0.05707 0.87899 0.45319 0.0
H698 H 0.05229 0.85399 0.48234 0.0
C699 C 0.07059 0.82366 0.59339 0.0
C700 C 0.07713 0.8094 0.53499 0.0
H701 H 0.11308 0.83264 0.49842 0.0
C702 C 0.0583 0.80521 0.5218 0.0
C703 C 0.09747 0.81816 0.5261 0.0
C704 C 0.11862 0.82157 0.53911 0.0
C705 C 0.05878 0.81135 0.50044 0.0
C706 C 0.07848 0.82219 0.49218 0.0
C707 C 0.09786 0.82456 0.50481 0.0
C708 C 0.07848 0.83414 0.47199 0.0
C709 C 0.03789 0.80694 0.48718 0.0
C710 C 0.09442 0.83103 0.45606 0.0
C711 C 0.097 0.84524 0.43902 0.0
C712 C 0.08437 0.86333 0.43824 0.0
C713 C 0.06735 0.86541 0.45342 0.0
C714 C 0.06446 0.851 0.47009 0.0
H715 H 0.02784 0.79214 0.4925 0.0
H716 H 0.02739 0.82079 0.48913 0.0
H717 H 0.04191 0.80488 0.47001 0.0
H718 H 0.10552 0.81826 0.45741 0.0
H719 H 0.10979 0.84285 0.4273 0.0
H720 H 0.52092 0.84821 0.81734 0.0
H721 H 0.51816 0.86567 0.78295 0.0
H722 H 0.45635 0.89067 0.80303 0.0
H723 H 0.4591 0.87358 0.83729 0.0
H724 H 0.48527 0.85364 0.7558 0.0
H725 H 0.48393 0.94135 0.77044 0.0
H726 H 0.49469 0.92386 0.7899 0.0
H727 H 0.46521 0.9276 0.78888 0.0
C728 C 0.50712 0.85802 0.81467 0.0
C729 C 0.4901 0.85935 0.83 0.0
C730 C 0.50557 0.86798 0.79499 0.0
C731 C 0.48718 0.8797 0.79042 0.0
C732 C 0.47099 0.88219 0.80628 0.0
H733 H 0.38639 0.89419 0.71245 0.0
H734 H 0.4173 0.89589 0.73764 0.0
C735 C 0.47246 0.87219 0.82585 0.0
C736 C 0.48253 0.88609 0.76829 0.0
H737 H 0.45845 0.92557 0.74189 0.0
C738 C 0.48028 0.86965 0.75239 0.0
C739 C 0.47632 0.90703 0.76366 0.0
C740 C 0.48044 0.92599 0.77912 0.0
C741 C 0.46945 0.87285 0.73305 0.0
C742 C 0.46068 0.89299 0.72961 0.0
C743 C 0.46505 0.91009 0.74455 0.0
C744 C 0.44297 0.89484 0.71352 0.0
C745 C 0.46542 0.85401 0.71738 0.0
C746 C 0.44719 0.89405 0.69149 0.0
C747 C 0.42937 0.8931 0.67692 0.0
C748 C 0.40724 0.89283 0.68432 0.0
C749 C 0.40328 0.89425 0.70632 0.0
C750 C 0.42094 0.8954 0.72073 0.0
H751 H 0.47283 0.83921 0.72276 0.0
H752 H 0.44719 0.85012 0.71501 0.0
H753 H 0.47281 0.85851 0.70174 0.0
H754 H 0.46413 0.89371 0.68562 0.0
H755 H 0.4328 0.89189 0.66002 0.0
H756 H 0.46118 0.33403 0.09098 0.0
H757 H 0.44796 0.32302 0.0552 0.0
H758 H 0.43964 0.25628 0.07416 0.0
H759 H 0.45269 0.2671 0.10997 0.0
H760 H 0.47093 0.29554 0.02959 0.0
H761 H 0.38324 0.26198 0.03907 0.0
H762 H 0.39756 0.27963 0.05896 0.0
H763 H 0.40165 0.25111 0.05777 0.0
C764 C 0.45597 0.31707 0.08773 0.0
C765 C 0.45814 0.30141 0.10332 0.0
C766 C 0.44846 0.31082 0.06724 0.0
C767 C 0.44271 0.28887 0.06204 0.0
C768 C 0.44362 0.27337 0.07791 0.0
H769 H 0.45808 0.20483 0.95862 0.0
H770 H 0.46269 0.23174 0.98768 0.0
C771 C 0.45119 0.27958 0.09838 0.0
C772 C 0.43854 0.28173 0.03957 0.0
H773 H 0.40267 0.24955 0.00792 0.0
C774 C 0.45581 0.28586 0.02472 0.0
C775 C 0.41872 0.26936 0.03314 0.0
C776 C 0.39914 0.26544 0.04803 0.0
C777 C 0.45438 0.27668 0.00405 0.0
C778 C 0.43531 0.26289 -0.00182 0.0
C779 C 0.41738 0.26 0.01251 0.0
C780 C 0.43469 0.24926 0.97842 0.0
C781 C 0.4736 0.28127 0.98887 0.0
C782 C 0.41774 0.25047 0.96324 0.0
C783 C 0.41546 0.23539 0.94619 0.0
C784 C 0.42937 0.21826 0.94472 0.0
C785 C 0.44701 0.21779 0.95936 0.0
C786 C 0.4497 0.2332 0.97597 0.0
H787 H 0.48333 0.29689 0.99305 0.0
H788 H 0.48506 0.26815 0.9898 0.0
H789 H 0.46761 0.28183 0.97219 0.0
H790 H 0.40576 0.26248 0.96514 0.0
H791 H 0.40196 0.23626 0.93504 0.0
H792 H 0.96949 0.81552 0.18762 0.0
H793 H 0.97592 0.83125 0.22344 0.0
H794 H 0.04133 0.85802 0.20439 0.0
H795 H 0.03514 0.84232 0.16857 0.0
H796 H 0.01106 0.81919 0.24883 0.0
H797 H 0.01684 0.90812 0.23949 0.0
H798 H 0.00309 0.88934 0.22018 0.0
H799 H 0.03301 0.89475 0.21988 0.0
C800 C 0.98506 0.82519 0.19088 0.0
C801 C 0.00189 0.82758 0.17525 0.0
C802 C 0.98867 0.83415 0.21138 0.0
C803 C 0.00898 0.84596 0.21651 0.0
C804 C 0.02535 0.8493 0.20065 0.0
H805 H 0.10636 0.88106 0.30172 0.0
H806 H 0.07776 0.87503 0.27443 0.0
C807 C 0.02185 0.84019 0.18021 0.0
C808 C 0.01448 0.85237 0.23889 0.0
H809 H 0.03718 0.89508 0.26929 0.0
C810 C 0.01618 0.83585 0.2536 0.0
C811 C 0.02087 0.87413 0.24508 0.0
C812 C 0.01814 0.89263 0.23038 0.0
C813 C 0.02628 0.84025 0.27357 0.0
C814 C 0.03455 0.86178 0.27898 0.0
C815 C 0.03092 0.87856 0.26505 0.0
C816 C 0.0509 0.86646 0.29645 0.0
C817 C 0.0298 0.82163 0.28793 0.0
C818 C 0.04527 0.86365 0.31801 0.0
C819 C 0.06181 0.867 0.33383 0.0
C820 C 0.08406 0.87314 0.32816 0.0
C821 C 0.0894 0.87612 0.30658 0.0
C822 C 0.07303 0.87289 0.29096 0.0
H823 H 0.02384 0.80565 0.28058 0.0
H824 H 0.04781 0.82145 0.29183 0.0
H825 H 0.02061 0.82375 0.30308 0.0
H826 H 0.02821 0.8588 0.32257 0.0
H827 H 0.05732 0.86445 0.35034 0.0
H828 H 0.53081 0.8194 0.46594 0.0
H829 H 0.51073 0.82509 0.49893 0.0
H830 H 0.45504 0.78241 0.47575 0.0
H831 H 0.47518 0.77664 0.44219 0.0
H832 H 0.44262 0.82131 0.49279 0.0
H833 H 0.49855 0.78567 0.54914 0.0
H834 H 0.51432 0.80391 0.53193 0.0
H835 H 0.49922 0.77981 0.5208 0.0
C836 C 0.51435 0.81107 0.46778 0.0
C837 C 0.50461 0.79754 0.45139 0.0
C838 C 0.50298 0.81415 0.48682 0.0
C839 C 0.48164 0.80371 0.49006 0.0
C840 C 0.47166 0.79033 0.47369 0.0
H841 H 0.40704 0.86071 0.59681 0.0
H842 H 0.41529 0.83043 0.57259 0.0
C843 C 0.48313 0.78714 0.45453 0.0
C844 C 0.46944 0.80862 0.50992 0.0
H845 H 0.47842 0.81581 0.56339 0.0
C846 C 0.44995 0.81947 0.50835 0.0
C847 C 0.47886 0.80593 0.53023 0.0
C848 C 0.49876 0.79296 0.53314 0.0
C849 C 0.44113 0.82985 0.52624 0.0
C850 C 0.45201 0.82913 0.54615 0.0
C851 C 0.47017 0.81645 0.54808 0.0
C852 C 0.4479 0.84491 0.56355 0.0
C853 C 0.42141 0.84305 0.52341 0.0
C854 C 0.46384 0.86252 0.56708 0.0
C855 C 0.45914 0.87974 0.58061 0.0
C856 C 0.43847 0.8796 0.59113 0.0
C857 C 0.42313 0.86118 0.58893 0.0
C858 C 0.42774 0.84398 0.57503 0.0
H859 H 0.41564 0.84294 0.5066 0.0
H860 H 0.4074 0.83627 0.53336 0.0
H861 H 0.4257 0.86012 0.52884 0.0
H862 H 0.47949 0.86354 0.55839 0.0
H863 H 0.47131 0.89366 0.5821 0.0
H864 H 0.52096 0.23652 0.67089 0.0
H865 H 0.51705 0.21736 0.70473 0.0
H866 H 0.45352 0.24346 0.71552 0.0
H867 H 0.45738 0.26273 0.68209 0.0
H868 H 0.51069 0.24071 0.74624 0.0
H869 H 0.44289 0.17671 0.72731 0.0
H870 H 0.46061 0.18948 0.7071 0.0
H871 H 0.43765 0.20304 0.71796 0.0
C872 C 0.50596 0.23777 0.68029 0.0
C873 C 0.48945 0.25111 0.67387 0.0
C874 C 0.50382 0.22692 0.69962 0.0
C875 C 0.48494 0.22892 0.7125 0.0
C876 C 0.46809 0.24152 0.70567 0.0
H877 H 0.43815 0.23781 0.83431 0.0
H878 H 0.46148 0.24162 0.80249 0.0
C879 C 0.47035 0.25257 0.68659 0.0
C880 C 0.48322 0.21942 0.73389 0.0
H881 H 0.44748 0.18744 0.76423 0.0
C882 C 0.49725 0.22863 0.75016 0.0
C883 C 0.46589 0.20349 0.73891 0.0
C884 C 0.451 0.19242 0.72187 0.0
C885 C 0.49318 0.22361 0.7716 0.0
C886 C 0.47454 0.20919 0.77679 0.0
C887 C 0.46172 0.1986 0.76031 0.0
C888 C 0.46585 0.2073 0.79885 0.0
C889 C 0.50832 0.23446 0.78855 0.0
C890 C 0.46098 0.18682 0.80775 0.0
C891 C 0.44762 0.18468 0.82598 0.0
C892 C 0.43903 0.20298 0.83557 0.0
C893 C 0.44511 0.22357 0.82749 0.0
C894 C 0.45849 0.22574 0.80934 0.0
H895 H 0.52547 0.23833 0.78227 0.0
H896 H 0.50172 0.24997 0.79378 0.0
H897 H 0.50925 0.22407 0.80264 0.0
H898 H 0.46621 0.17235 0.79976 0.0
H899 H 0.4424 0.16855 0.83143 0.0
H900 H 0.08145 0.30233 0.95397 0.0
H901 H 0.09501 0.29738 0.99018 0.0
H902 H 0.10907 0.23196 0.97295 0.0
H903 H 0.09547 0.2367 0.93691 0.0
H904 H 0.07363 0.26592 0.01589 0.0
H905 H 0.16325 0.25309 0.00999 0.0
H906 H 0.14893 0.26759 0.99023 0.0
H907 H 0.14754 0.23835 0.98922 0.0
C908 C 0.08809 0.28712 0.95771 0.0
C909 C 0.08733 0.26984 0.94258 0.0
C910 C 0.09579 0.28433 0.97843 0.0
C911 C 0.10329 0.2644 0.98422 0.0
C912 C 0.10381 0.24764 0.96875 0.0
H913 H 0.08394 0.16919 0.06487 0.0
H914 H 0.08361 0.20051 0.04251 0.0
C915 C 0.09587 0.25031 0.94816 0.0
C916 C 0.10718 0.25957 0.00688 0.0
H917 H 0.14202 0.23257 0.03731 0.0
C918 C 0.08894 0.25942 0.02094 0.0
C919 C 0.12721 0.25145 0.0137 0.0
C920 C 0.14793 0.25285 5e-05 0.0
C921 C 0.08939 0.24903 0.04054 0.0
C922 C 0.10842 0.23841 0.04605 0.0
C923 C 0.12748 0.24071 0.03311 0.0
C924 C 0.10697 0.22097 0.06185 0.0
C925 C 0.06884 0.24791 0.05442 0.0
C926 C 0.12002 0.22215 0.08048 0.0
C927 C 0.11997 0.20411 0.0937 0.0
C928 C 0.10759 0.1845 0.08796 0.0
C929 C 0.09395 0.18387 0.06973 0.0
C930 C 0.09364 0.20185 0.05689 0.0
H931 H 0.05882 0.26192 0.05181 0.0
H932 H 0.05821 0.23281 0.05035 0.0
H933 H 0.0734 0.24759 0.07154 0.0
H934 H 0.1304 0.23684 0.08459 0.0
H935 H 0.12979 0.20545 0.10811 0.0
H936 H 0.29295 0.99465 0.19747 0.0
H937 H 0.26299 0.01272 0.18078 0.0
H938 H 0.30845 0.06958 0.1718 0.0
H939 H 0.33848 0.05154 0.18792 0.0
H940 H 0.24661 0.04743 0.19769 0.0
H941 H 0.27469 0.06817 0.11681 0.0
H942 H 0.28692 0.04765 0.13186 0.0
H943 H 0.29678 0.07592 0.13532 0.0
C944 C 0.29673 0.01078 0.19139 0.0
C945 C 0.31811 0.02171 0.19418 0.0
C946 C 0.27955 0.02109 0.18185 0.0
C947 C 0.28344 0.04245 0.17483 0.0
C948 C 0.30509 0.05291 0.17656 0.0
H949 H 0.23357 0.16095 0.16886 0.0
H950 H 0.25207 0.12743 0.16674 0.0
C951 C 0.32227 0.0426 0.18599 0.0
C952 C 0.26455 0.0551 0.16873 0.0
H953 H 0.25141 0.094 0.13453 0.0
C954 C 0.24715 0.05706 0.18348 0.0
C955 C 0.26506 0.0675 0.1501 0.0
C956 C 0.28175 0.06449 0.13253 0.0
C957 C 0.23161 0.0726 0.18112 0.0
C958 C 0.23354 0.08649 0.16355 0.0
C959 C 0.2499 0.08338 0.14801 0.0
C960 C 0.22155 0.10648 0.16301 0.0
C961 C 0.21445 0.07528 0.19837 0.0
C962 C 0.19814 0.10589 0.16141 0.0
C963 C 0.18741 0.12523 0.16269 0.0
C964 C 0.20002 0.1453 0.16554 0.0
C965 C 0.2234 0.14573 0.16676 0.0
C966 C 0.23402 0.12658 0.16539 0.0
H967 H 0.21668 0.06463 0.21205 0.0
H968 H 0.2154 0.09241 0.20431 0.0
H969 H 0.19747 0.07119 0.19171 0.0
H970 H 0.1882 0.09053 0.15937 0.0
H971 H 0.16936 0.12444 0.16193 0.0
H972 H 0.21477 0.11893 0.46233 0.0
H973 H 0.20589 0.08301 0.44563 0.0
H974 H 0.24502 0.05432 0.49321 0.0
H975 H 0.25448 0.09007 0.50964 0.0
H976 H 0.24818 0.03403 0.45305 0.0
H977 H 0.16 0.04271 0.47649 0.0
H978 H 0.17172 0.06332 0.45916 0.0
H979 H 0.18273 0.06153 0.48562 0.0
C980 C 0.22183 0.10504 0.46901 0.0
C981 C 0.23499 0.10735 0.48756 0.0
C982 C 0.21669 0.08451 0.45948 0.0
C983 C 0.2244 0.06594 0.46847 0.0
C984 C 0.23881 0.0684 0.48606 0.0
H985 H 0.14935 0.94276 0.46411 0.0
H986 H 0.17498 0.97356 0.47561 0.0
C987 C 0.24409 0.08889 0.4955 0.0
C988 C 0.21558 0.04384 0.46118 0.0
H989 H 0.16734 0.01068 0.45792 0.0
C990 C 0.2305 0.02887 0.45404 0.0
C991 C 0.19257 0.03705 0.46287 0.0
C992 C 0.17582 0.05189 0.47162 0.0
C993 C 0.22296 0.00726 0.44851 0.0
C994 C 0.1999 0.00062 0.44998 0.0
C995 C 0.18506 0.01571 0.45692 0.0
C996 C 0.19025 0.97821 0.44462 0.0
C997 C 0.23975 0.99166 0.44165 0.0
C998 C 0.19157 0.96947 0.4238 0.0
C999 C 0.17738 0.95129 0.41742 0.0
C1000 C 0.16129 0.94218 0.43158 0.0
C1001 C 0.16165 0.94951 0.45292 0.0
C1002 C 0.17617 0.96723 0.45943 0.0
H1003 H 0.2569 -0.00261 0.44704 0.0
H1004 H 0.23531 0.97525 0.44798 0.0
H1005 H 0.23991 0.99027 0.424 0.0
H1006 H 0.20207 0.97774 0.41199 0.0
H1007 H 0.17735 0.94593 0.40087 0.0
H1008 H 0.20582 0.00495 0.73182 0.0
H1009 H 0.24185 0.00238 0.71474 0.0
H1010 H 0.23025 0.05643 0.67531 0.0
H1011 H 0.19367 0.0591 0.69241 0.0
H1012 H 0.24588 0.02227 0.6526 0.0
H1013 H 0.2997 0.04084 0.72256 0.0
H1014 H 0.27755 0.02098 0.72936 0.0
H1015 H 0.27103 0.04767 0.72176 0.0
C1016 C 0.21083 0.01636 0.71954 0.0
C1017 C 0.19687 0.03226 0.71351 0.0
C1018 C 0.23161 0.01504 0.70997 0.0
C1019 C 0.23904 0.02966 0.69424 0.0
C1020 C 0.22497 0.04526 0.68771 0.0
H1021 H 0.36781 0.98096 0.66013 0.0
H1022 H 0.34359 0.01062 0.66687 0.0
C1023 C 0.20405 0.04665 0.69737 0.0
C1024 C 0.26078 0.02702 0.68375 0.0
H1025 H 0.31303 0.01408 0.69664 0.0
C1026 C 0.26084 0.02116 0.66204 0.0
C1027 C 0.2806 0.02636 0.69578 0.0
C1028 C 0.28228 0.03458 0.7186 0.0
C1029 C 0.27911 0.0117 0.65287 0.0
C1030 C 0.29751 0.00775 0.6659 0.0
C1031 C 0.29873 0.01654 0.68674 0.0
C1032 C 0.31277 0.99094 0.65999 0.0
C1033 C 0.27765 0.00461 0.62972 0.0
C1034 C 0.30347 0.96994 0.65464 0.0
C1035 C 0.31707 0.95304 0.65143 0.0
C1036 C 0.34037 0.95668 0.65346 0.0
C1037 C 0.34988 0.97775 0.65847 0.0
C1038 C 0.3361 0.9947 0.66211 0.0
H1039 H 0.27114 0.01755 0.62013 0.0
H1040 H 0.29401 0.00071 0.62313 0.0
H1041 H 0.26563 0.99001 0.62798 0.0
H1042 H 0.28553 0.96638 0.65364 0.0
H1043 H 0.30925 0.93702 0.64743 0.0
H1044 H 0.23948 0.98486 0.96772 0.0
H1045 H 0.24612 0.02084 0.9526 0.0
H1046 H 0.31578 0.0106 0.94422 0.0
H1047 H 0.30925 0.97449 0.95907 0.0
H1048 H 0.27258 0.05283 0.97131 0.0
H1049 H 0.30248 0.03986 0.88925 0.0
H1050 H 0.28793 0.01837 0.90414 0.0
H1051 H 0.31755 0.02481 0.90762 0.0
C1052 C 0.25612 0.99002 0.96217 0.0
C1053 C 0.27388 0.97683 0.96475 0.0
C1054 C 0.25986 0.01063 0.95352 0.0
C1055 C 0.28139 0.0184 0.94711 0.0
C1056 C 0.29892 0.00481 0.94861 0.0
H1057 H 0.36359 0.12879 0.96167 0.0
H1058 H 0.33369 0.10021 0.96601 0.0
C1059 C 0.29519 0.98417 0.95724 0.0
C1060 C 0.28627 0.04156 0.94164 0.0
H1061 H 0.31581 0.07417 0.90672 0.0
C1062 C 0.28154 0.05755 0.95691 0.0
C1063 C 0.29746 0.0479 0.92267 0.0
C1064 C 0.30141 0.03182 0.9049 0.0
C1065 C 0.28952 0.07936 0.95461 0.0
C1066 C 0.30286 0.08525 0.93677 0.0
C1067 C 0.30579 0.06965 0.92055 0.0
C1068 C 0.3171 0.10605 0.93636 0.0
C1069 C 0.28437 0.09571 0.97177 0.0
C1070 C 0.31736 0.11944 0.9186 0.0
C1071 C 0.33455 0.13597 0.9161 0.0
C1072 C 0.35191 0.13896 0.93116 0.0
C1073 C 0.35045 0.12683 0.9498 0.0
C1074 C 0.33325 0.11051 0.95234 0.0
H1075 H 0.26785 0.09124 0.97915 0.0
H1076 H 0.29718 0.09588 0.98451 0.0
H1077 H 0.28442 0.11231 0.96542 0.0
H1078 H 0.30506 0.1163 0.9061 0.0
H1079 H 0.33533 0.14498 0.9015 0.0
H1080 H 0.30609 0.05591 0.27543 0.0
H1081 H 0.2715 0.04929 0.29575 0.0
H1082 H 0.28852 0.98445 0.3084 0.0
H1083 H 0.3232 0.99097 0.28836 0.0
H1084 H 0.23806 0.01893 0.28495 0.0
H1085 H 0.26657 0.00399 0.36634 0.0
H1086 H 0.28472 0.01723 0.34675 0.0
H1087 H 0.28058 0.98803 0.34711 0.0
C1088 C 0.3027 0.04037 0.2829 0.0
C1089 C 0.31739 0.02392 0.28023 0.0
C1090 C 0.28292 0.03665 0.29451 0.0
C1091 C 0.27757 0.01651 0.30386 0.0
C1092 C 0.29255 0.00032 0.30179 0.0
H1093 H 0.17356 0.92697 0.31433 0.0
H1094 H 0.19946 0.95713 0.3038 0.0
C1095 C 0.31231 0.004 0.29016 0.0
C1096 C 0.25529 0.01132 0.31357 0.0
H1097 H 0.23027 0.986 0.35608 0.0
C1098 C 0.23628 0.01229 0.30075 0.0
C1099 C 0.25279 0.00314 0.33435 0.0
C1100 C 0.27226 0.00327 0.3495 0.0
C1101 C 0.21525 0.00326 0.30733 0.0
C1102 C 0.2133 0.99279 0.32708 0.0
C1103 C 0.23181 0.99383 0.34081 0.0
C1104 C 0.194 0.97714 0.33182 0.0
C1105 C 0.19555 0.00394 0.29257 0.0
C1106 C 0.18186 0.97852 0.3509 0.0
C1107 C 0.16669 0.96123 0.35687 0.0
C1108 C 0.16415 0.94214 0.34415 0.0
C1109 C 0.1753 0.94145 0.3245 0.0
C1110 C 0.19001 0.95876 0.31839 0.0
H1111 H 0.1973 0.01869 0.28276 0.0
H1112 H 0.19482 0.98959 0.28154 0.0
H1113 H 0.17958 0.00368 0.30155 0.0
H1114 H 0.18484 0.99252 0.36156 0.0
H1115 H 0.1582 0.96218 0.37206 0.0
H1116 H 0.25196 0.09492 0.58079 0.0
H1117 H 0.26528 0.06123 0.59373 0.0
H1118 H 0.33078 0.09406 0.60391 0.0
H1119 H 0.31764 0.12765 0.59124 0.0
H1120 H 0.29767 0.04097 0.57295 0.0
H1121 H 0.32395 0.05692 0.65614 0.0
H1122 H 0.30503 0.07342 0.64289 0.0
H1123 H 0.33485 0.07886 0.63997 0.0
C1124 C 0.26901 0.09513 0.58643 0.0
C1125 C 0.2838 0.11395 0.58487 0.0
C1126 C 0.2766 0.07583 0.59376 0.0
C1127 C 0.29897 0.07513 0.59995 0.0
C1128 C 0.31333 0.09426 0.59965 0.0
H1129 H 0.40932 0.00497 0.60144 0.0
H1130 H 0.37934 0.02912 0.60354 0.0
C1131 C 0.30583 0.11347 0.59224 0.0
C1132 C 0.30844 0.05413 0.60369 0.0
H1133 H 0.34583 0.03194 0.63554 0.0
C1134 C 0.30757 0.03852 0.58698 0.0
C1135 C 0.32117 0.05083 0.62205 0.0
C1136 C 0.32109 0.06582 0.64136 0.0
C1137 C 0.32074 0.02078 0.58734 0.0
C1138 C 0.33509 0.01868 0.60485 0.0
C1139 C 0.33476 0.03347 0.62217 0.0
C1140 C 0.35273 0.0033 0.60421 0.0
C1141 C 0.32046 0.00534 0.56832 0.0
C1142 C 0.34772 0.98066 0.6039 0.0
C1143 C 0.36499 0.96669 0.60269 0.0
C1144 C 0.38739 0.97526 0.6018 0.0
C1145 C 0.39221 -0.00211 0.60208 0.0
C1146 C 0.3751 0.01172 0.60341 0.0
H1147 H 0.3103 0.01072 0.55498 0.0
H1148 H 0.33774 0.00373 0.56253 0.0
H1149 H 0.31331 0.98904 0.57308 0.0
H1150 H 0.33053 0.97383 0.60468 0.0
H1151 H 0.36084 0.9493 0.6022 0.0
H1152 H 0.21443 0.09944 0.76283 0.0
H1153 H 0.24942 0.09882 0.78213 0.0
H1154 H 0.21976 0.04865 0.82223 0.0
H1155 H 0.18429 0.04895 0.80268 0.0
H1156 H 0.2453 0.08574 0.84368 0.0
H1157 H 0.29296 0.04936 0.77866 0.0
H1158 H 0.27692 0.07051 0.7695 0.0
H1159 H 0.26277 0.04627 0.78003 0.0
C1160 C 0.21518 0.08829 0.77579 0.0
C1161 C 0.19654 0.0742 0.78117 0.0
C1162 C 0.23531 0.08782 0.78668 0.0
C1163 C 0.23731 0.07332 0.80323 0.0
C1164 C 0.21859 0.05971 0.80926 0.0
H1165 H 0.35785 0.11781 0.87702 0.0
H1166 H 0.3292 0.08838 0.86735 0.0
C1167 C 0.19835 0.06003 0.79818 0.0
C1168 C 0.25893 0.07357 0.81453 0.0
H1169 H 0.3145 0.07398 0.8033 0.0
C1170 C 0.2605 0.08252 0.83525 0.0
C1171 C 0.27861 0.0689 0.80358 0.0
C1172 C 0.27775 0.058 0.78178 0.0
C1173 C 0.28136 0.0896 0.84422 0.0
C1174 C 0.30105 0.08739 0.83211 0.0
C1175 C 0.29945 0.07591 0.8125 0.0
C1176 C 0.32189 0.10143 0.83667 0.0
C1177 C 0.28197 0.10117 0.86567 0.0
C1178 C 0.32837 0.11759 0.82209 0.0
C1179 C 0.34464 0.13416 0.82749 0.0
C1180 C 0.3549 0.13494 0.84759 0.0
C1181 C 0.35012 0.11762 0.86143 0.0
C1182 C 0.33361 0.10093 0.85601 0.0
H1183 H 0.26497 0.10327 0.87201 0.0
H1184 H 0.29074 0.09156 0.87719 0.0
H1185 H 0.29123 0.11743 0.86468 0.0
H1186 H 0.31969 0.11831 0.80703 0.0
H1187 H 0.34816 0.14717 0.81641 0.0
H1188 H 0.29271 0.98137 0.05118 0.0
H1189 H 0.2836 0.01505 0.06909 0.0
H1190 H 0.22237 0.98242 0.09245 0.0
H1191 H 0.23185 0.94854 0.07531 0.0
H1192 H 0.2502 0.03592 0.05816 0.0
H1193 H 0.23916 0.01944 0.14356 0.0
H1194 H 0.25408 0.0022 0.12593 0.0
H1195 H 0.22402 -0.00141 0.12785 0.0
C1196 C 0.2776 0.98125 0.06064 0.0
C1197 C 0.26293 0.96234 0.06177 0.0
C1198 C 0.27244 0.00051 0.0709 0.0
C1199 C 0.25241 0.00132 0.08234 0.0
C1200 C 0.23824 0.98216 0.08429 0.0
H1201 H 0.15082 0.08047 0.10549 0.0
H1202 H 0.17794 0.05368 0.10043 0.0
C1203 C 0.24358 0.96278 0.07431 0.0
C1204 C 0.24465 0.02258 0.08933 0.0
H1205 H 0.21704 0.0472 0.12953 0.0
C1206 C 0.2436 0.03866 0.074 0.0
C1207 C 0.23615 0.02633 0.11001 0.0
C1208 C 0.23866 0.0108 0.12782 0.0
C1209 C 0.23271 0.0575 0.07826 0.0
C1210 C 0.22254 0.06026 0.0983 0.0
C1211 C 0.22476 0.04492 0.11409 0.0
C1212 C 0.20678 0.07707 0.10198 0.0
C1213 C 0.2307 0.07358 0.06083 0.0
C1214 C 0.21409 0.09917 0.10438 0.0
C1215 C 0.19855 0.11465 0.10753 0.0
C1216 C 0.17552 0.1082 0.10778 0.0
C1217 C 0.1684 0.08604 0.10508 0.0
C1218 C 0.18387 0.07066 0.10239 0.0
H1219 H 0.23864 0.06848 0.04573 0.0
H1220 H 0.21281 0.07563 0.0577 0.0
H1221 H 0.2388 0.08964 0.06602 0.0
H1222 H 0.23173 0.10443 0.10388 0.0
H1223 H 0.20451 0.13159 0.10971 0.0
H1224 H 0.22614 0.36495 0.99353 0.0
H1225 H 0.21204 0.32715 -0.00116 0.0
H1226 H 0.19345 0.34351 0.06324 0.0
H1227 H 0.20786 0.38124 0.05822 0.0
H1228 H 0.23198 0.30376 0.03251 0.0
H1229 H 0.1399 0.30113 0.03947 0.0
H1230 H 0.15627 0.32212 0.02538 0.0
H1231 H 0.15411 0.32368 0.05395 0.0
C1232 C 0.21846 0.36065 0.00864 0.0
C1233 C 0.2182 0.37607 0.02553 0.0
C1234 C 0.21043 0.33903 0.01162 0.0
C1235 C 0.20153 0.33259 0.03134 0.0
C1236 C 0.19994 0.34823 0.04777 0.0
H1237 H 0.20006 0.24582 0.12365 0.0
H1238 H 0.20621 0.27211 0.09575 0.0
C1239 C 0.20829 0.36976 0.04493 0.0
C1240 C 0.1972 0.30929 0.03613 0.0
H1241 H 0.15791 0.2736 0.05827 0.0
C1242 C 0.21564 0.29686 0.03748 0.0
C1243 C 0.17587 0.30023 0.04237 0.0
C1244 C 0.15533 0.3124 0.04004 0.0
C1245 C 0.21367 0.27646 0.04692 0.0
C1246 C 0.1928 0.26841 0.05513 0.0
C1247 C 0.17393 0.27987 0.05195 0.0
C1248 C 0.19124 0.25097 0.07082 0.0
C1249 C 0.23421 0.26434 0.04953 0.0
C1250 C 0.18125 0.23014 0.06586 0.0
C1251 C 0.17742 0.21493 0.08194 0.0
C1252 C 0.18371 0.2204 0.10313 0.0
C1253 C 0.19484 0.24097 0.10761 0.0
C1254 C 0.19843 0.25608 0.09166 0.0
H1255 H 0.24763 0.26991 0.03824 0.0
H1256 H 0.2407 0.26715 0.066 0.0
H1257 H 0.23007 0.24661 0.04706 0.0
H1258 H 0.1762 0.22578 0.04969 0.0
H1259 H 0.16904 0.19916 0.07788 0.0
H1260 H 0.71732 0.20078 0.93901 0.0
H1261 H 0.69894 0.23293 0.92978 0.0
H1262 H 0.66687 0.23325 0.99128 0.0
H1263 H 0.68567 0.20119 0.00092 0.0
H1264 H 0.65515 0.24217 0.92742 0.0
H1265 H 0.70054 0.29339 0.99032 0.0
H1266 H 0.70803 0.26653 0.98309 0.0
H1267 H 0.68373 0.26989 -0.00083 0.0
C1268 C 0.70616 0.20748 0.95054 0.0
C1269 C 0.70318 0.19853 0.9708 0.0
C1270 C 0.69564 0.22589 0.94521 0.0
C1271 C 0.68189 0.23577 0.96 0.0
C1272 C 0.67781 0.22618 0.97981 0.0
H1273 H 0.6229 0.34618 0.90225 0.0
H1274 H 0.62384 0.31583 0.9266 0.0
C1275 C 0.68843 0.20774 0.98521 0.0
C1276 C 0.67287 0.2566 0.95465 0.0
H1277 H 0.67884 0.31107 0.96634 0.0
C1278 C 0.65996 0.25722 0.93611 0.0
C1279 C 0.67932 0.2762 0.96601 0.0
C1280 C 0.69379 0.27665 0.98567 0.0
C1281 C 0.65442 0.27698 0.92788 0.0
C1282 C 0.66148 0.29668 0.93886 0.0
C1283 C 0.6733 0.29596 0.95807 0.0
C1284 C 0.65994 0.31804 0.92889 0.0
C1285 C 0.64248 0.27659 0.9067 0.0
C1286 C 0.67975 0.33039 0.92347 0.0
C1287 C 0.67915 0.348 0.91007 0.0
C1288 C 0.65874 0.35376 0.90211 0.0
C1289 C 0.63879 0.34248 0.90877 0.0
C1290 C 0.63936 0.32488 0.92232 0.0
H1291 H 0.64188 0.26037 0.89857 0.0
H1292 H 0.62503 0.28069 0.90927 0.0
H1293 H 0.65081 0.28873 0.89593 0.0
H1294 H 0.69583 0.32541 0.92828 0.0
H1295 H 0.69476 0.35612 0.90467 0.0
H1296 H 0.09058 0.50984 0.27105 0.0
H1297 H 0.05771 0.48888 0.25569 0.0
H1298 H 0.06293 0.52814 0.19984 0.0
H1299 H 0.09565 0.54916 0.21499 0.0
H1300 H 0.01686 0.5072 0.24271 0.0
H1301 H 0.05739 0.46419 0.17646 0.0
H1302 H 0.07271 0.47587 0.19931 0.0
H1303 H 0.0652 0.49289 0.17815 0.0
C1304 C 0.0849 0.51382 0.25537 0.0
C1305 C 0.09574 0.53115 0.2442 0.0
C1306 C 0.0661 0.50189 0.24668 0.0
C1307 C 0.05805 0.50688 0.22659 0.0
C1308 C 0.06908 0.52387 0.21526 0.0
H1309 H 0.93601 0.49263 0.15844 0.0
H1310 H 0.96706 0.50351 0.18289 0.0
C1311 C 0.08773 0.53591 0.22398 0.0
C1312 C 0.03751 0.49515 0.21773 0.0
H1313 H 0.01776 0.46529 0.17431 0.0
C1314 C 0.01704 0.49776 0.22792 0.0
C1315 C 0.03786 0.48264 0.1986 0.0
C1316 C 0.05948 0.47851 0.18755 0.0
C1317 C -0.00325 0.4891 0.21882 0.0
C1318 C -0.00296 0.47774 0.19902 0.0
C1319 C 0.01759 0.47416 0.18943 0.0
C1320 C 0.97631 0.47078 0.18712 0.0
C1321 C 0.97515 0.49243 0.23025 0.0
C1322 C 0.97121 0.44881 0.1815 0.0
C1323 C 0.9535 0.44266 0.16762 0.0
C1324 C 0.94064 0.45835 0.15927 0.0
C1325 C 0.9454 0.48025 0.16521 0.0
C1326 C 0.96305 0.48642 0.17917 0.0
H1327 H 0.97795 0.49616 0.24749 0.0
H1328 H 0.96745 0.50631 0.22323 0.0
H1329 H 0.96315 0.47781 0.22846 0.0
H1330 H 0.98142 0.43655 0.18725 0.0
H1331 H 0.95054 0.42576 0.16261 0.0
H1332 H 0.82756 0.86152 0.54128 0.0
H1333 H 0.84325 0.82861 0.52763 0.0
H1334 H 0.82394 0.84363 0.46388 0.0
H1335 H 0.80907 0.87679 0.47724 0.0
H1336 H 0.82212 0.79448 0.51006 0.0
H1337 H 0.88457 0.82562 0.45188 0.0
H1338 H 0.87239 0.8433 0.47114 0.0
H1339 H 0.85848 0.83626 0.44614 0.0
C1340 C 0.82718 0.85808 0.52428 0.0
C1341 C 0.8171 0.87185 0.51035 0.0
C1342 C 0.8361 0.8392 0.5165 0.0
C1343 C 0.8351 0.83369 0.49466 0.0
C1344 C 0.82558 0.84776 0.4807 0.0
H1345 H 0.80827 0.71657 0.427 0.0
H1346 H 0.81017 0.74536 0.45444 0.0
C1347 C 0.81692 0.86673 0.4884 0.0
C1348 C 0.84187 0.81235 0.48657 0.0
H1349 H 0.86746 0.78897 0.44441 0.0
C1350 C 0.83244 0.79329 0.49596 0.0
C1351 C 0.85592 0.81055 0.46861 0.0
C1352 C 0.86861 0.83007 0.45907 0.0
C1353 C 0.83518 0.77268 0.48683 0.0
C1354 C 0.84699 0.77112 0.4674 0.0
C1355 C 0.85796 0.79004 0.45905 0.0
C1356 C 0.84631 0.75066 0.45427 0.0
C1357 C 0.82512 0.75287 0.49799 0.0
C1358 C 0.86592 0.74381 0.44496 0.0
C1359 C 0.86475 0.72745 0.42907 0.0
C1360 C 0.84402 0.71742 0.42244 0.0
C1361 C 0.82451 0.72351 0.43242 0.0
C1362 C 0.82563 0.73995 0.44818 0.0
H1363 H 0.82528 0.75567 0.51554 0.0
H1364 H 0.80742 0.74949 0.493 0.0
H1365 H 0.83423 0.73836 0.49416 0.0
H1366 H 0.88199 0.75215 0.44897 0.0
H1367 H 0.87983 0.72415 0.4206 0.0
H1368 H 0.93893 0.09373 0.27469 0.0
H1369 H 0.97634 0.11163 0.26821 0.0
H1370 H 0.98834 0.06215 0.22091 0.0
H1371 H 0.95141 0.04414 0.22739 0.0
H1372 H 0.02305 0.07045 0.25197 0.0
H1373 H -0.00156 0.14628 0.21548 0.0
H1374 H 0.98672 0.13873 0.2409 0.0
H1375 H 0.97896 0.12253 0.21757 0.0
C1376 C 0.94947 0.08684 0.26274 0.0
C1377 C 0.94219 0.06751 0.25154 0.0
C1378 C 0.97082 0.09708 0.25907 0.0
C1379 C 0.98508 0.0882 0.24408 0.0
C1380 C 0.97763 0.06919 0.23265 0.0
H1381 H 0.0891 0.09321 0.16358 0.0
H1382 H 0.06266 0.08451 0.19217 0.0
C1383 C 0.95645 0.05897 0.23631 0.0
C1384 C 0.00796 0.09818 0.24011 0.0
H1385 H 0.03602 0.13914 0.21302 0.0
C1386 C 0.02599 0.08573 0.24389 0.0
C1387 C 0.01183 0.11828 0.22993 0.0
C1388 C 0.99304 0.1323 0.22559 0.0
C1389 C 0.04744 0.09197 0.23617 0.0
C1390 C 0.05082 0.11097 0.22416 0.0
C1391 C 0.03333 0.12451 0.22219 0.0
C1392 C 0.0704 0.11467 0.20996 0.0
C1393 C 0.06601 0.07755 0.23992 0.0
C1394 C 0.08398 0.13432 0.21071 0.0
C1395 C 0.09937 0.13925 0.19436 0.0
C1396 C 0.1009 0.12476 0.17689 0.0
C1397 C 0.08828 0.1046 0.17691 0.0
C1398 C 0.07324 0.09958 0.19331 0.0
H1399 H 0.06346 0.0688 0.25508 0.0
H1400 H 0.06611 0.0652 0.22679 0.0
H1401 H 0.08257 0.08703 0.24037 0.0
H1402 H 0.08192 0.1462 0.22336 0.0
H1403 H 0.10875 0.15501 0.19457 0.0
H1404 H 0.32235 0.72961 0.47293 0.0
H1405 H 0.33905 0.76617 0.48207 0.0
H1406 H 0.33173 0.75263 0.54886 0.0
H1407 H 0.31486 0.71619 0.53992 0.0
H1408 H 0.31441 0.79594 0.50639 0.0
H1409 H 0.39554 0.78406 0.54408 0.0
H1410 H 0.38128 0.76395 0.52635 0.0
H1411 H 0.37313 0.7659 0.55388 0.0
C1412 C 0.32483 0.7342 0.48957 0.0
C1413 C 0.3172 0.72003 0.50573 0.0
C1414 C 0.33432 0.75512 0.49474 0.0
C1415 C 0.33677 0.76202 0.51611 0.0
C1416 C 0.33031 0.7475 0.53225 0.0
H1417 H 0.32315 0.86253 0.59893 0.0
H1418 H 0.31865 0.83581 0.56971 0.0
C1419 C 0.32057 0.72671 0.52713 0.0
C1420 C 0.34335 0.78504 0.52181 0.0
H1421 H 0.37815 0.81652 0.55493 0.0
C1422 C 0.32875 0.80066 0.51646 0.0
C1423 C 0.36216 0.79121 0.53473 0.0
C1424 C 0.37907 0.77544 0.53993 0.0
C1425 C 0.33144 0.82182 0.52526 0.0
C1426 C 0.34906 0.82735 0.53976 0.0
C1427 C 0.36468 0.81228 0.5437 0.0
C1428 C 0.34938 0.8469 0.55386 0.0
C1429 C 0.31472 0.83773 0.51991 0.0
C1430 C 0.36775 0.86253 0.55418 0.0
C1431 C 0.37028 0.87802 0.57085 0.0
C1432 C 0.3547 0.87767 0.5876 0.0
C1433 C 0.33547 0.8631 0.58628 0.0
C1434 C 0.33282 0.84788 0.56953 0.0
H1435 H 0.30664 0.83362 0.50426 0.0
H1436 H 0.30146 0.83718 0.53227 0.0
H1437 H 0.32279 0.85456 0.51961 0.0
H1438 H 0.38066 0.86205 0.54218 0.0
H1439 H 0.38532 0.88901 0.57151 0.0
H1440 H 0.08008 0.57073 0.34253 0.0
H1441 H 0.04693 0.58949 0.35085 0.0
H1442 H 0.0639 0.63507 0.30134 0.0
H1443 H 0.09736 0.61618 0.29274 0.0
H1444 H 0.04346 0.63453 0.36244 0.0
H1445 H -0.00128 0.60859 0.28715 0.0
H1446 H 0.02242 0.59526 0.2963 0.0
H1447 H 0.02653 0.62185 0.28547 0.0
C1448 C 0.07693 0.58484 0.33347 0.0
C1449 C 0.09133 0.5919 0.31691 0.0
C1450 C 0.05796 0.59556 0.33827 0.0
C1451 C 0.05282 0.6135 0.32655 0.0
C1452 C 0.06744 0.62108 0.31039 0.0
H1453 H 0.93684 0.67004 0.38434 0.0
H1454 H 0.96999 0.67101 0.36136 0.0
C1455 C 0.08661 0.61038 0.30562 0.0
C1456 C 0.03178 0.62362 0.33135 0.0
H1457 H 0.97793 0.62454 0.3141 0.0
C1458 C 0.02923 0.63287 0.35173 0.0
C1459 C 0.01329 0.62127 0.3173 0.0
C1460 C 0.01515 0.61114 0.29533 0.0
C1461 C 0.00835 0.63858 0.35899 0.0
C1462 C 0.98954 0.63529 0.34531 0.0
C1463 C 0.99239 0.62722 0.32446 0.0
C1464 C 0.96653 0.63656 0.35369 0.0
C1465 C 0.00631 0.64652 0.38181 0.0
C1466 C 0.95266 0.61726 0.35559 0.0
C1467 C 0.93356 0.6168 0.36834 0.0
C1468 C 0.92782 0.63569 0.37909 0.0
C1469 C 0.94054 0.65541 0.37567 0.0
C1470 C 0.95968 0.65589 0.36283 0.0
H1471 H 0.0218 0.64502 0.39111 0.0
H1472 H 0.00291 0.66389 0.38208 0.0
H1473 H 0.99222 0.63724 0.38988 0.0
H1474 H 0.95764 0.60214 0.34875 0.0
H1475 H 0.9243 0.60133 0.3712 0.0
H1476 H 0.40506 0.45635 0.78782 0.0
H1477 H 0.43812 0.43692 0.79474 0.0
H1478 H 0.44809 0.47226 0.85454 0.0
H1479 H 0.41512 0.4915 0.84792 0.0
H1480 H 0.48067 0.45644 0.79899 0.0
H1481 H 0.45783 0.41087 0.87132 0.0
H1482 H 0.43721 0.42179 0.85466 0.0
H1483 H 0.45205 0.43874 0.87464 0.0
C1484 C 0.41397 0.45959 0.80269 0.0
C1485 C 0.40747 0.47552 0.81731 0.0
C1486 C 0.4329 0.44852 0.80657 0.0
C1487 C 0.44544 0.45297 0.82524 0.0
C1488 C 0.43842 0.46821 0.84023 0.0
H1489 H 0.57719 0.47076 0.86168 0.0
H1490 H 0.54304 0.46857 0.84045 0.0
C1491 C 0.4196 0.47931 0.83636 0.0
C1492 C 0.46709 0.44358 0.82833 0.0
H1493 H 0.49745 0.421 0.86638 0.0
C1494 C 0.48426 0.44819 0.81348 0.0
C1495 C 0.47169 0.43237 0.84693 0.0
C1496 C 0.45362 0.42545 0.86266 0.0
C1497 C 0.50632 0.4436 0.81768 0.0
C1498 C 0.51135 0.43455 0.8374 0.0
C1499 C 0.49378 0.42819 0.85134 0.0
C1500 C 0.53461 0.43428 0.84537 0.0
C1501 C 0.52405 0.44919 0.80123 0.0
C1502 C 0.5416 0.41569 0.85495 0.0
C1503 C 0.56114 0.41703 0.86718 0.0
C1504 C 0.57409 0.43689 0.8698 0.0
C1505 C 0.56788 0.45511 0.85919 0.0
C1506 C 0.54834 0.45382 0.84702 0.0
H1507 H 0.5171 0.44662 0.78488 0.0
H1508 H 0.52996 0.46663 0.80311 0.0
H1509 H 0.53855 0.43937 0.80284 0.0
H1510 H 0.53119 0.40051 0.85412 0.0
H1511 H 0.56507 0.403 0.876 0.0
H1512 H 0.9942 0.83714 0.69245 0.0
H1513 H 0.98639 0.85573 0.72591 0.0
H1514 H 0.05191 0.84471 0.74923 0.0
H1515 H 0.05966 0.82547 0.71586 0.0
H1516 H 0.02108 0.83017 0.77609 0.0
H1517 H 0.00201 0.91276 0.75566 0.0
H1518 H 0.98688 0.89327 0.73843 0.0
H1519 H 0.01702 0.89587 0.73775 0.0
C1520 C 0.00721 0.83914 0.70444 0.0
C1521 C 0.02749 0.82963 0.70153 0.0
C1522 C 0.00279 0.85 0.72356 0.0
C1523 C 0.01867 0.85192 0.74006 0.0
C1524 C 0.03945 0.84355 0.73671 0.0
H1525 H 0.95637 0.90522 0.85496 0.0
H1526 H 0.98791 0.90011 0.83087 0.0
C1527 C 0.04384 0.83254 0.71761 0.0
C1528 C 0.01209 0.85951 0.76163 0.0
H1529 H 0.982 0.89714 0.78651 0.0
C1530 C 0.01318 0.84518 0.77854 0.0
C1531 C 0.00214 0.87926 0.76511 0.0
C1532 C 0.0022 0.89625 0.7483 0.0
C1533 C 0.00268 0.84904 0.79807 0.0
C1534 C 0.99046 0.86749 0.80061 0.0
C1535 C 0.9912 0.88288 0.7845 0.0
C1536 C 0.97385 0.86917 0.81791 0.0
C1537 C 0.00376 0.83273 0.81541 0.0
C1538 C 0.95578 0.8533 0.81889 0.0
C1539 C 0.93778 0.85628 0.83235 0.0
C1540 C 0.93747 0.87517 0.8452 0.0
C1541 C 0.95626 0.8904 0.84536 0.0
C1542 C 0.97421 0.88758 0.83154 0.0
H1543 H 0.01951 0.82453 0.81441 0.0
H1544 H 0.00257 0.84051 0.83147 0.0
H1545 H 0.98964 0.82005 0.81345 0.0
H1546 H 0.95493 0.83919 0.80824 0.0
H1547 H 0.92354 0.84428 0.83187 0.0
H1548 H 0.9566 0.34157 0.43703 0.0
H1549 H 0.94253 0.33191 0.47243 0.0
H1550 H 0.93442 0.26448 0.45242 0.0
H1551 H 0.94816 0.27397 0.41691 0.0
H1552 H 0.89901 0.27804 0.4784 0.0
H1553 H 0.98276 0.30249 0.51385 0.0
H1554 H 0.96945 0.32265 0.49949 0.0
H1555 H 0.97866 0.29937 0.48545 0.0
C1556 C 0.9515 0.3247 0.44004 0.0
C1557 C 0.95373 0.30849 0.42418 0.0
C1558 C 0.94357 0.31923 0.46034 0.0
C1559 C 0.93785 0.29745 0.46517 0.0
C1560 C 0.93884 0.2814 0.44903 0.0
H1561 H 0.92204 0.19969 0.54843 0.0
H1562 H 0.92186 0.22682 0.5213 0.0
C1563 C 0.9467 0.28685 0.42873 0.0
C1564 C 0.93224 0.29091 0.48724 0.0
H1565 H 0.95646 0.28353 0.53542 0.0
C1566 C 0.91141 0.27965 0.49101 0.0
C1567 C 0.94832 0.29325 0.50381 0.0
C1568 C 0.97112 0.30497 0.50056 0.0
C1569 C 0.90684 0.26924 0.51032 0.0
C1570 C 0.92361 0.27006 0.52621 0.0
C1571 C 0.94365 0.28297 0.52322 0.0
C1572 C 0.92265 0.25418 0.54352 0.0
C1573 C 0.88458 0.25633 0.51281 0.0
C1574 C 0.92371 0.26058 0.56518 0.0
C1575 C 0.92362 0.2449 0.581 0.0
C1576 C 0.92328 0.22273 0.57524 0.0
C1577 C 0.9226 0.21661 0.5535 0.0
C1578 C 0.92222 0.2321 0.5379 0.0
H1579 H 0.87094 0.26557 0.50671 0.0
H1580 H 0.88456 0.24106 0.50311 0.0
H1581 H 0.88089 0.25213 0.52957 0.0
H1582 H 0.92455 0.27762 0.5698 0.0
H1583 H 0.92404 0.25007 0.59762 0.0
H1584 H 0.46544 0.24864 0.21573 0.0
H1585 H 0.47579 0.22923 0.24728 0.0
H1586 H 0.54505 0.23722 0.22843 0.0
H1587 H 0.53481 0.25591 0.19664 0.0
H1588 H 0.53456 0.19769 0.24401 0.0
H1589 H 0.5039 0.2608 0.29889 0.0
H1590 H 0.48327 0.24737 0.28134 0.0
H1591 H 0.50609 0.26434 0.27053 0.0
C1592 C 0.48284 0.24599 0.21818 0.0
C1593 C 0.49933 0.25398 0.20377 0.0
C1594 C 0.48874 0.23505 0.23631 0.0
C1595 C 0.51125 0.23222 0.24049 0.0
C1596 C 0.52757 0.23929 0.22559 0.0
H1597 H 0.60234 0.22525 0.33701 0.0
H1598 H 0.57392 0.23403 0.31167 0.0
C1599 C 0.52169 0.24999 0.20739 0.0
C1600 C 0.51828 0.22281 0.26068 0.0
H1601 H 0.52251 0.23324 0.31433 0.0
C1602 C 0.53147 0.20512 0.25945 0.0
C1603 C 0.51452 0.2328 0.2808 0.0
C1604 C 0.50134 0.25248 0.28308 0.0
C1605 C 0.54194 0.19785 0.27757 0.0
C1606 C 0.53865 0.20819 0.29753 0.0
C1607 C 0.52458 0.22514 0.29901 0.0
C1608 C 0.55294 0.20429 0.31594 0.0
C1609 C 0.55822 0.18066 0.2749 0.0
C1610 C 0.54991 0.1851 0.32747 0.0
C1611 C 0.56614 0.18007 0.34216 0.0
C1612 C 0.58557 0.19414 0.34525 0.0
C1613 C 0.58759 0.21406 0.33483 0.0
C1614 C 0.57137 0.21911 0.32038 0.0
H1615 H 0.55742 0.17292 0.25873 0.0
H1616 H 0.57546 0.18817 0.27768 0.0
H1617 H 0.55497 0.16789 0.28681 0.0
H1618 H 0.53565 0.17356 0.3243 0.0
H1619 H 0.56426 0.16455 0.34989 0.0
H1620 H 0.54122 0.78331 0.92213 0.0
H1621 H 0.55422 0.78155 0.9589 0.0
H1622 H 0.57793 0.84931 0.95789 0.0
H1623 H 0.56527 0.8512 0.92111 0.0
H1624 H 0.60563 0.82342 0.98162 0.0
H1625 H 0.51568 0.81097 0.00369 0.0
H1626 H 0.5262 0.7907 0.98622 0.0
H1627 H 0.52453 0.81783 0.97712 0.0
C1628 C 0.54968 0.79773 0.92954 0.0
C1629 C 0.55185 0.81752 0.91879 0.0
C1630 C 0.55704 0.79667 0.95059 0.0
C1631 C 0.56662 0.81539 0.96123 0.0
C1632 C 0.57049 0.83468 0.94997 0.0
H1633 H 0.56039 0.88667 0.06826 0.0
H1634 H 0.55485 0.86195 0.03793 0.0
C1635 C 0.56319 0.83575 0.92894 0.0
C1636 C 0.57016 0.81593 0.98461 0.0
H1637 H 0.54118 0.81872 0.03128 0.0
C1638 C 0.59167 0.8219 0.99262 0.0
C1639 C 0.55184 0.81387 -0.00114 0.0
C1640 C 0.52822 0.80812 0.99113 0.0
C1641 C 0.59511 0.82752 0.01427 0.0
C1642 C 0.57653 0.82694 0.02822 0.0
C1643 C 0.55537 0.81907 0.02053 0.0
C1644 C 0.5776 0.83923 0.04884 0.0
C1645 C 0.61825 0.83581 0.02164 0.0
C1646 C 0.59139 0.83413 0.06575 0.0
C1647 C 0.59462 0.84843 0.08343 0.0
C1648 C 0.58437 0.86811 0.08419 0.0
C1649 C 0.56904 0.87198 0.06809 0.0
C1650 C 0.56576 0.85777 0.05066 0.0
H1651 H 0.63051 0.83682 0.00836 0.0
H1652 H 0.61795 0.85216 0.02932 0.0
H1653 H 0.62415 0.82473 0.03364 0.0
H1654 H 0.60023 0.81958 0.06493 0.0
H1655 H 0.6059 0.84458 0.09592 0.0
H1656 H 0.98426 0.23455 0.85069 0.0
H1657 H 0.97814 0.22481 0.81308 0.0
H1658 H 0.04645 0.24706 0.79911 0.0
H1659 H 0.05278 0.25681 0.83674 0.0
H1660 H 0.01542 0.26662 0.77493 0.0
H1661 H -0.00239 0.17741 0.77163 0.0
H1662 H 0.98189 0.18995 0.79218 0.0
H1663 H 0.01191 0.19163 0.79384 0.0
C1664 C -0.00183 0.23682 0.83975 0.0
C1665 C 0.01898 0.2465 0.84676 0.0
C1666 C 0.99468 0.23114 0.81823 0.0
C1667 C 0.0119 0.23505 0.80329 0.0
C1668 C 0.03299 0.24376 0.81038 0.0
H1669 H 0.9659 0.20239 0.67221 0.0
H1670 H 0.99324 0.20731 0.70143 0.0
C1671 C 0.03657 0.24925 0.83194 0.0
C1672 C 0.00688 0.23259 0.78017 0.0
H1673 H 0.98187 0.19711 0.74323 0.0
C1674 C 0.00855 0.25131 0.76785 0.0
C1675 C -0.00166 0.21259 0.77075 0.0
C1676 C -0.00245 0.1917 0.78273 0.0
C1677 C 0.00014 0.25089 0.74697 0.0
C1678 C 0.98959 0.23131 0.73832 0.0
C1679 C 0.98971 0.21221 0.74995 0.0
C1680 C 0.97547 0.23089 0.71891 0.0
C1681 C 0.00185 0.2716 0.73469 0.0
C1682 C 0.95665 0.24284 0.71895 0.0
C1683 C 0.94073 0.23954 0.70281 0.0
C1684 C 0.94322 0.22419 0.68619 0.0
C1685 C 0.96313 0.21376 0.68509 0.0
C1686 C 0.97888 0.21671 0.70162 0.0
H1687 H 0.01681 0.28234 0.73964 0.0
H1688 H 0.00273 0.26827 0.71726 0.0
H1689 H 0.9869 0.28053 0.73804 0.0
H1690 H 0.95348 0.25369 0.73223 0.0
H1691 H 0.9258 0.24818 0.70406 0.0
H1692 H 0.56588 0.25012 0.58392 0.0
H1693 H 0.58309 0.23447 0.55264 0.0
H1694 H 0.58048 0.29475 0.51999 0.0
H1695 H 0.56279 0.31049 0.55122 0.0
H1696 H 0.56067 0.26137 0.49743 0.0
H1697 H 0.64273 0.23816 0.52309 0.0
H1698 H 0.62184 0.22956 0.54221 0.0
H1699 H 0.62794 0.25813 0.53757 0.0
C1700 C 0.56944 0.26027 0.57031 0.0
C1701 C 0.56274 0.28149 0.57002 0.0
C1702 C 0.57952 0.25134 0.55246 0.0
C1703 C 0.58335 0.2635 0.53401 0.0
C1704 C 0.57781 0.28511 0.53408 0.0
H1705 H 0.59585 0.18956 0.41182 0.0
H1706 H 0.59946 0.22202 0.43554 0.0
C1707 C 0.56768 0.29406 0.55196 0.0
C1708 C 0.58981 0.25244 0.51395 0.0
H1709 H 0.62361 0.21445 0.49577 0.0
C1710 C 0.57491 0.25169 0.49666 0.0
C1711 C 0.60848 0.23999 0.51285 0.0
C1712 C 0.62628 0.24171 0.52986 0.0
C1713 C 0.57692 0.23717 0.47933 0.0
C1714 C 0.59435 0.22315 0.4793 0.0
C1715 C 0.61025 0.22518 0.49576 0.0
C1716 C 0.59415 0.20405 0.46453 0.0
C1717 C 0.55928 0.23561 0.46213 0.0
C1718 C 0.59045 0.18329 0.47297 0.0
C1719 C 0.58858 0.16493 0.45958 0.0
C1720 C 0.59059 0.16687 0.43742 0.0
C1721 C 0.59455 0.18762 0.42887 0.0
C1722 C 0.5964 0.20614 0.44237 0.0
H1723 H 0.54542 0.24592 0.46586 0.0
H1724 H 0.56696 0.24094 0.44685 0.0
H1725 H 0.55217 0.21854 0.45985 0.0
H1726 H 0.58854 0.1813 0.48999 0.0
H1727 H 0.58558 0.14914 0.46663 0.0
H1728 H 0.55831 0.83121 0.3505 0.0
H1729 H 0.56108 0.84685 0.31512 0.0
H1730 H 0.48977 0.835 0.30712 0.0
H1731 H 0.48678 0.81941 0.34246 0.0
H1732 H 0.51449 0.81636 0.27498 0.0
H1733 H 0.54361 0.90296 0.28788 0.0
H1734 H 0.55945 0.88531 0.30297 0.0
H1735 H 0.53018 0.88668 0.30853 0.0
C1736 C 0.54314 0.83246 0.34147 0.0
C1737 C 0.52236 0.82396 0.3493 0.0
C1738 C 0.54473 0.84151 0.32128 0.0
C1739 C 0.52559 0.84224 0.30857 0.0
C1740 C 0.5047 0.83473 0.31673 0.0
H1741 H 0.56169 0.88994 0.18077 0.0
H1742 H 0.53568 0.88322 0.21063 0.0
C1743 C 0.50307 0.82584 0.33698 0.0
C1744 C 0.52794 0.84813 0.28589 0.0
H1745 H 0.55277 0.88675 0.25375 0.0
C1746 C 0.52232 0.83196 0.27026 0.0
C1747 C 0.53778 0.86858 0.27969 0.0
C1748 C 0.54289 0.88696 0.29564 0.0
C1749 C 0.52818 0.83503 0.24884 0.0
C1750 C 0.54005 0.85469 0.24301 0.0
C1751 C 0.54377 0.87161 0.25828 0.0
C1752 C 0.55253 0.85649 0.2227 0.0
C1753 C 0.52272 0.81675 0.23285 0.0
C1754 C 0.57014 0.84333 0.21931 0.0
C1755 C 0.58527 0.84754 0.20282 0.0
C1756 C 0.58317 0.86505 0.18928 0.0
C1757 C 0.56425 0.87689 0.19139 0.0
C1758 C 0.54926 0.87295 0.2083 0.0
H1759 H 0.50751 0.80652 0.23759 0.0
H1760 H 0.52013 0.82302 0.2167 0.0
H1761 H 0.5368 0.80623 0.23209 0.0
H1762 H 0.5731 0.83066 0.23032 0.0
H1763 H 0.59937 0.83775 0.20146 0.0
H1764 H 0.9344 0.77902 0.06989 0.0
H1765 H 0.92177 0.79095 0.0353 0.0
H1766 H 0.92506 0.85702 0.05963 0.0
H1767 H 0.93695 0.84526 0.09419 0.0
H1768 H 0.88876 0.84719 0.03376 0.0
H1769 H 0.96618 0.82143 -0.00508 0.0
H1770 H 0.94815 0.80075 0.00732 0.0
H1771 H 0.96276 0.82175 0.02346 0.0
C1772 C 0.93203 0.79604 0.06796 0.0
C1773 C 0.93696 0.81124 0.08474 0.0
C1774 C 0.92499 0.80284 0.04813 0.0
C1775 C 0.92299 0.82495 0.04473 0.0
C1776 C 0.92659 0.83988 0.06184 0.0
H1777 H 0.92642 0.92956 0.96664 0.0
H1778 H 0.92131 0.90146 0.99304 0.0
C1779 C 0.93346 0.83312 0.08162 0.0
C1780 C 0.91869 0.83322 0.02327 0.0
H1781 H 0.94445 0.84363 0.9756 0.0
C1782 C 0.90068 0.84602 0.02086 0.0
C1783 C 0.93414 0.83157 0.00634 0.0
C1784 C 0.95399 0.81826 0.00804 0.0
C1785 C 0.89869 0.85855 0.00278 0.0
C1786 C 0.91509 0.85819 0.98659 0.0
C1787 C 0.93196 0.84392 0.98808 0.0
C1788 C 0.91715 0.87483 0.96997 0.0
C1789 C 0.8797 0.87299 0.00198 0.0
C1790 C 0.91722 0.86914 0.94815 0.0
C1791 C 0.92028 0.88533 0.93288 0.0
C1792 C 0.9235 0.9073 0.93934 0.0
C1793 C 0.92384 0.91277 0.96118 0.0
C1794 C 0.9207 0.89674 0.9763 0.0
H1795 H 0.86406 0.8643 0.00795 0.0
H1796 H 0.88363 0.8874 0.01265 0.0
H1797 H 0.87669 0.87868 0.98572 0.0
H1798 H 0.91493 0.85225 0.94298 0.0
H1799 H 0.92052 0.88069 0.91614 0.0
H1800 H 0.71695 0.0481 0.81168 0.0
H1801 H 0.74918 0.02981 0.82304 0.0
H1802 H 0.70544 0.97515 0.84298 0.0
H1803 H 0.673 0.9931 0.83112 0.0
H1804 H 0.76365 0.01225 0.86008 0.0
H1805 H 0.7439 0.94847 0.79747 0.0
H1806 H 0.72997 0.97319 0.79902 0.0
H1807 H 0.72186 0.95125 0.81644 0.0
C1808 C 0.71409 0.03233 0.8188 0.0
C1809 C 0.69241 0.02187 0.82015 0.0
C1810 C 0.73258 0.02192 0.8253 0.0
C1811 C 0.72972 0.00092 0.83335 0.0
C1812 C 0.70801 0.99115 0.8363 0.0
H1813 H 0.83258 0.92511 0.88328 0.0
H1814 H 0.804 0.9508 0.88009 0.0
C1815 C 0.68949 0.00148 0.82963 0.0
C1816 C 0.7495 0.9887 0.83697 0.0
H1817 H 0.77422 0.94361 0.82017 0.0
C1818 C 0.76601 -0.00276 0.85137 0.0
C1819 C 0.75272 0.96936 0.82526 0.0
C1820 C 0.7363 0.9601 0.80853 0.0
C1821 C 0.7856 0.98681 0.85451 0.0
C1822 C 0.78853 0.96713 0.84327 0.0
C1823 C 0.772 0.95869 0.82882 0.0
C1824 C 0.80842 0.95475 0.8461 0.0
C1825 C 0.8031 -0.00291 0.86959 0.0
C1826 C 0.8206 0.94852 0.82816 0.0
C1827 C 0.83676 0.9337 0.82999 0.0
C1828 C 0.84131 0.92522 0.84984 0.0
C1829 C 0.82998 0.93219 0.86798 0.0
C1830 C 0.81358 0.94681 0.86612 0.0
H1831 H 0.80122 0.01465 0.87248 0.0
H1832 H 0.80122 0.98891 0.88505 0.0
H1833 H 0.82017 0.99514 0.86342 0.0
H1834 H 0.81685 0.95433 0.81254 0.0
H1835 H 0.84503 0.92815 0.81575 0.0
H1836 H 0.83544 0.97494 0.55579 0.0
H1837 H 0.83886 0.01113 0.57263 0.0
H1838 H 0.76713 0.00988 0.57732 0.0
H1839 H 0.7635 0.97363 0.56049 0.0
H1840 H 0.7869 0.04627 0.5569 0.0
H1841 H 0.82921 0.03499 0.63345 0.0
H1842 H 0.84269 0.02226 0.61149 0.0
H1843 H 0.81455 0.01276 0.61858 0.0
C1844 C 0.82039 0.98213 0.56081 0.0
C1845 C 0.79921 0.97139 0.55671 0.0
C1846 C 0.82238 0.00279 0.57056 0.0
C1847 C 0.80325 0.01312 0.57642 0.0
C1848 C 0.7821 0.00214 0.57306 0.0
H1849 H 0.84423 0.14367 0.6283 0.0
H1850 H 0.81742 0.11151 0.62413 0.0
C1851 C 0.78009 0.98139 0.56346 0.0
C1852 C 0.80548 0.03621 0.58373 0.0
H1853 H 0.83455 0.07093 0.61876 0.0
C1854 C 0.79685 0.05167 0.57074 0.0
C1855 C 0.81803 0.04328 0.60202 0.0
C1856 C 0.82645 0.02743 0.61732 0.0
C1857 C 0.80223 0.07399 0.57443 0.0
C1858 C 0.81673 0.08096 0.59141 0.0
C1859 C 0.82357 0.0656 0.6056 0.0
C1860 C 0.82842 0.10307 0.59236 0.0
C1861 C 0.79323 0.08987 0.55949 0.0
C1862 C 0.84286 0.10939 0.57564 0.0
C1863 C 0.85834 0.12735 0.57816 0.0
C1864 C 0.85961 0.13946 0.59741 0.0
C1865 C 0.84362 0.13455 0.61333 0.0
C1866 C 0.82835 0.11618 0.61098 0.0
H1867 H 0.77677 0.08345 0.55287 0.0
H1868 H 0.79141 0.10579 0.56762 0.0
H1869 H 0.80496 0.09246 0.54593 0.0
H1870 H 0.8435 0.09937 0.56127 0.0
H1871 H 0.87047 0.13079 0.56563 0.0
H1872 H 0.81907 0.02016 0.33791 0.0
H1873 H 0.78509 0.03409 0.35255 0.0
H1874 H 0.80657 0.09782 0.32998 0.0
H1875 H 0.84079 0.08427 0.31608 0.0
H1876 H 0.7869 0.10021 0.36812 0.0
H1877 H 0.73395 0.04499 0.3139 0.0
H1878 H 0.75072 0.03188 0.33249 0.0
H1879 H 0.76399 0.04794 0.31181 0.0
C1880 C 0.81672 0.03723 0.33642 0.0
C1881 C 0.8325 0.05106 0.32561 0.0
C1882 C 0.79719 0.04511 0.34462 0.0
C1883 C 0.79299 0.06684 0.34181 0.0
C1884 C 0.80937 0.08094 0.3322 0.0
H1885 H 0.681 0.13584 0.32013 0.0
H1886 H 0.70984 0.1101 0.32007 0.0
C1887 C 0.82898 0.07316 0.32426 0.0
C1888 C 0.7712 0.07498 0.34769 0.0
H1889 H 0.71584 0.07048 0.33433 0.0
C1890 C 0.77128 0.09358 0.36095 0.0
C1891 C 0.75087 0.0663 0.33821 0.0
C1892 C 0.74977 0.04679 0.32318 0.0
C1893 C 0.75196 0.10453 0.36404 0.0
C1894 C 0.73172 0.09613 0.35419 0.0
C1895 C 0.73135 0.07684 0.34187 0.0
C1896 C 0.71154 0.10845 0.35445 0.0
C1897 C 0.75391 0.12573 0.37667 0.0
C1898 C 0.70227 0.1154 0.37371 0.0
C1899 C 0.68611 0.13041 0.37371 0.0
C1900 C 0.67822 0.13786 0.35445 0.0
C1901 C 0.68644 0.12985 0.33516 0.0
C1902 C 0.70291 0.11518 0.33515 0.0
H1903 H 0.77159 0.13235 0.37868 0.0
H1904 H 0.74466 0.13814 0.36881 0.0
H1905 H 0.74676 0.12306 0.39278 0.0
H1906 H 0.70857 0.11031 0.38874 0.0
H1907 H 0.68126 0.13752 0.38873 0.0
H1908 H 0.77633 0.10085 0.0551 0.0
H1909 H 0.76682 0.06518 0.07021 0.0
H1910 H 0.69674 0.07484 0.06549 0.0
H1911 H 0.70605 0.11064 0.0506 0.0
H1912 H 0.70889 0.05521 0.10372 0.0
H1913 H 0.74128 0.01416 0.03147 0.0
H1914 H 0.76045 0.03362 0.0452 0.0
H1915 H 0.7364 0.04257 0.03218 0.0
C1916 C 0.75888 0.09555 0.05757 0.0
C1917 C 0.74192 0.10852 0.05144 0.0
C1918 C 0.7535 0.07509 0.06609 0.0
C1919 C 0.73109 0.06721 0.06857 0.0
C1920 C 0.71416 0.0806 0.06359 0.0
H1921 H 0.64843 0.95387 0.06642 0.0
H1922 H 0.67623 0.98376 0.05897 0.0
C1923 C 0.71951 0.10106 0.05509 0.0
C1924 C 0.72502 0.04463 0.07517 0.0
H1925 H 0.72363 0.99188 0.05725 0.0
C1926 C 0.71244 0.04129 0.09381 0.0
C1927 C 0.72963 0.02656 0.06207 0.0
C1928 C 0.74254 0.02927 0.04152 0.0
C1929 C 0.70346 0.02045 0.09925 0.0
C1930 C 0.70746 0.00246 0.08579 0.0
C1931 C 0.72089 0.00568 0.06765 0.0
C1932 C 0.69462 0.98113 0.08827 0.0
C1933 C 0.68846 0.01807 0.11853 0.0
C1934 C 0.69663 0.96882 0.10657 0.0
C1935 C 0.68077 0.95152 0.1108 0.0
C1936 C 0.6627 0.94651 0.09681 0.0
C1937 C 0.66214 0.95746 0.07751 0.0
C1938 C 0.678 0.97457 0.07325 0.0
H1939 H 0.68493 0.03401 0.12575 0.0
H1940 H 0.67234 0.00892 0.11417 0.0
H1941 H 0.69659 0.00879 0.13077 0.0
H1942 H 0.70959 0.97344 0.11817 0.0
H1943 H 0.68153 0.94343 0.12586 0.0
H1944 H 0.70201 0.09041 0.72785 0.0
H1945 H 0.73747 0.10019 0.70993 0.0
H1946 H 0.75675 0.0352 0.7175 0.0
H1947 H 0.72138 0.02527 0.7355 0.0
H1948 H 0.78797 0.06662 0.73334 0.0
H1949 H 0.76405 0.08628 0.65156 0.0
H1950 H 0.74795 0.09958 0.67127 0.0
H1951 H 0.74551 0.07039 0.66898 0.0
C1952 C 0.71356 0.07805 0.72529 0.0
C1953 C 0.70888 0.05709 0.73321 0.0
C1954 C 0.73379 0.08363 0.71492 0.0
C1955 C 0.74967 0.06836 0.71218 0.0
C1956 C 0.74468 0.04719 0.71932 0.0
H1957 H 0.87197 0.1268 0.65192 0.0
H1958 H 0.84492 0.09632 0.66087 0.0
C1959 C 0.72442 0.04156 0.72961 0.0
C1960 C 0.77237 0.07532 0.70423 0.0
H1961 H 0.79942 0.10347 0.66445 0.0
C1962 C 0.79058 0.07422 0.71806 0.0
C1963 C 0.77591 0.08482 0.68413 0.0
C1964 C 0.75734 0.08514 0.66804 0.0
C1965 C 0.8118 0.08407 0.71308 0.0
C1966 C 0.81478 0.09546 0.69391 0.0
C1967 C 0.79709 0.09488 0.67925 0.0
C1968 C 0.83448 0.11108 0.69047 0.0
C1969 C 0.8306 0.08302 0.72881 0.0
C1970 C 0.83804 0.1291 0.70444 0.0
C1971 C 0.8531 0.14654 0.69922 0.0
C1972 C 0.86499 0.1463 0.67994 0.0
C1973 C 0.86301 0.12741 0.66688 0.0
C1974 C 0.84753 0.11004 0.67193 0.0
H1975 H 0.82833 0.06802 0.73822 0.0
H1976 H 0.84706 0.08355 0.72068 0.0
H1977 H 0.83069 0.09711 0.74013 0.0
H1978 H 0.82793 0.13044 0.71865 0.0
H1979 H 0.85432 0.16085 0.70962 0.0
H1980 H 0.79258 0.98918 0.46774 0.0
H1981 H 0.7752 0.01919 0.45141 0.0
H1982 H 0.71048 0.98394 0.45679 0.0
H1983 H 0.72758 0.95386 0.47303 0.0
H1984 H 0.7412 0.01879 0.41341 0.0
H1985 H 0.71147 0.04429 0.49341 0.0
H1986 H 0.7348 0.02791 0.4898 0.0
H1987 H 0.70672 0.01581 0.48667 0.0
C1988 C 0.77469 0.98763 0.46511 0.0
C1989 C 0.76144 0.96919 0.47188 0.0
C1990 C 0.76483 0.00479 0.45577 0.0
C1991 C 0.7416 0.00378 0.45314 0.0
C1992 C 0.72846 0.98499 0.45884 0.0
H1993 H 0.63915 0.06793 0.39861 0.0
H1994 H 0.66865 0.04483 0.40795 0.0
C1995 C 0.73828 0.96782 0.46809 0.0
C1996 C 0.73069 0.02287 0.44597 0.0
H1997 H 0.69597 0.06045 0.46354 0.0
C1998 C 0.73153 0.02811 0.42436 0.0
C1999 C 0.71849 0.03522 0.46041 0.0
C2000 C 0.71788 0.03072 0.48393 0.0
C2001 C 0.71933 0.04469 0.41663 0.0
C2002 C 0.70596 0.05604 0.43088 0.0
C2003 C 0.70619 0.05162 0.45266 0.0
C2004 C 0.68968 0.07076 0.42332 0.0
C2005 C 0.7204 0.04973 0.39325 0.0
C2006 C 0.69176 0.09295 0.429 0.0
C2007 C 0.675 0.10623 0.42346 0.0
C2008 C 0.65579 0.0973 0.41265 0.0
C2009 C 0.65383 0.07513 0.40697 0.0
C2010 C 0.67071 0.062 0.41212 0.0
H2011 H 0.73539 0.04365 0.38549 0.0
H2012 H 0.70532 0.04184 0.38514 0.0
H2013 H 0.72064 0.0675 0.39097 0.0
H2014 H 0.70619 0.0999 0.43788 0.0
H2015 H 0.67675 0.12329 0.42809 0.0
H2016 H 0.82114 0.05046 0.24418 0.0
H2017 H 0.78295 0.04211 0.23115 0.0
H2018 H 0.80272 0.98356 0.20028 0.0
H2019 H 0.84125 0.99257 0.21223 0.0
H2020 H 0.77336 0.00099 0.17665 0.0
H2021 H 0.74136 -0.0011 0.25973 0.0
H2022 H 0.75422 0.02485 0.25236 0.0
H2023 H 0.77078 0.00196 0.25378 0.0
C2024 C 0.81736 0.03596 0.23435 0.0
C2025 C 0.83406 0.02202 0.22937 0.0
C2026 C 0.79549 0.03111 0.22707 0.0
C2027 C 0.78974 0.01184 0.21532 0.0
C2028 C 0.80668 -0.00154 0.20945 0.0
H2029 H 0.67953 0.92231 0.21137 0.0
H2030 H 0.70942 0.94978 0.22057 0.0
C2031 C 0.8287 0.0036 0.21627 0.0
C2032 C 0.76603 0.00486 0.21001 0.0
H2033 H 0.71523 0.99059 0.23249 0.0
C2034 C 0.76057 -0.00115 0.18882 0.0
C2035 C 0.74933 0.00214 0.22594 0.0
C2036 C 0.7542 0.00711 0.24924 0.0
C2037 C 0.73936 0.98902 0.18328 0.0
C2038 C 0.72281 0.98585 0.19928 0.0
C2039 C 0.72785 0.99316 0.22022 0.0
C2040 C 0.70189 0.97159 0.1956 0.0
C2041 C 0.73544 0.9809 0.1606 0.0
C2042 C 0.68675 0.97518 0.17923 0.0
C2043 C 0.66957 0.9592 0.17375 0.0
C2044 C 0.66726 0.93957 0.18473 0.0
C2045 C 0.68103 0.93712 0.20242 0.0
C2046 C 0.69816 0.95289 0.20774 0.0
H2047 H 0.75124 0.98087 0.15137 0.0
H2048 H 0.72711 0.96416 0.16014 0.0
H2049 H 0.72447 0.99168 0.15253 0.0
H2050 H 0.68887 0.98978 0.17003 0.0
H2051 H 0.6592 0.96158 0.16005 0.0
H2052 H 0.73746 0.10399 0.93711 0.0
H2053 H 0.75708 0.07352 0.92275 0.0
H2054 H 0.79825 0.07606 0.97924 0.0
H2055 H 0.77986 0.10722 0.99276 0.0
H2056 H 0.82309 0.07218 0.94752 0.0
H2057 H 0.75101 0.01112 0.93569 0.0
H2058 H 0.74826 0.035 0.92065 0.0
H2059 H 0.74842 0.03679 0.94935 0.0
C2060 C 0.75079 0.09801 0.94632 0.0
C2061 C 0.75736 0.10806 0.96587 0.0
C2062 C 0.76178 0.08042 0.93827 0.0
C2063 C 0.77892 0.07213 0.95007 0.0
C2064 C 0.78517 0.08211 0.96976 0.0
H2065 H 0.84061 0.95036 0.92737 0.0
H2066 H 0.81513 0.97776 0.93847 0.0
C2067 C 0.7747 0.1 0.97745 0.0
C2068 C 0.7914 0.05395 0.94165 0.0
H2069 H 0.78581 0.0021 0.9209 0.0
C2070 C 0.81485 0.05683 0.94185 0.0
C2071 C 0.78077 0.03374 0.93447 0.0
C2072 C 0.75574 0.02887 0.93523 0.0
C2073 C 0.82793 0.04021 0.93525 0.0
C2074 C 0.81736 0.02043 0.92701 0.0
C2075 C 0.79392 0.01739 0.92689 0.0
C2076 C 0.83056 0.00289 0.9185 0.0
C2077 C 0.85299 0.04393 0.93785 0.0
C2078 C 0.84678 0.00753 0.90278 0.0
C2079 C 0.86136 0.99213 0.89675 0.0
C2080 C 0.8596 0.97159 0.90586 0.0
C2081 C 0.84218 0.96615 0.92017 0.0
C2082 C 0.82775 0.9818 0.92654 0.0
H2083 H 0.85759 0.05628 0.95061 0.0
H2084 H 0.86049 0.02871 0.9418 0.0
H2085 H 0.86047 0.05009 0.92277 0.0
H2086 H 0.84863 0.02334 0.89565 0.0
H2087 H 0.87455 -0.00348 0.88547 0.0
H2088 H 0.7867 0.72793 0.03162 0.0
H2089 H 0.8067 0.76308 0.02423 0.0
H2090 H 0.82644 0.73835 0.96286 0.0
H2091 H 0.80646 0.70314 0.97 0.0
H2092 H 0.86142 0.76614 0.99046 0.0
H2093 H 0.78061 0.80192 0.97624 0.0
H2094 H 0.78414 0.78682 -1e-05 0.0
H2095 H 0.78254 0.77294 0.97456 0.0
C2096 C 0.79555 0.72984 0.01665 0.0
C2097 C 0.79483 0.71277 0.00129 0.0
C2098 C 0.80693 0.74994 0.01249 0.0
C2099 C 0.81787 0.75326 0.99298 0.0
C2100 C 0.81807 0.73602 0.97803 0.0
H2101 H 0.87766 0.83064 0.90306 0.0
H2102 H 0.86802 0.80529 0.93126 0.0
C2103 C 0.8066 0.71595 0.98211 0.0
C2104 C 0.82771 0.77502 0.98724 0.0
H2105 H 0.81339 0.82198 0.9657 0.0
C2106 C 0.85099 0.77858 0.98546 0.0
C2107 C 0.81405 0.79134 0.98114 0.0
C2108 C 0.78892 0.78823 0.98297 0.0
C2109 C 0.8609 0.7975 0.97632 0.0
C2110 C 0.84709 0.81288 0.9683 0.0
C2111 C 0.82395 0.81015 0.97178 0.0
C2112 C 0.85559 0.82933 0.95288 0.0
C2113 C 0.88601 0.80028 0.97452 0.0
C2114 C 0.85161 0.85133 0.9555 0.0
C2115 C 0.85743 0.86604 0.93936 0.0
C2116 C 0.86639 0.85863 0.92011 0.0
C2117 C 0.87059 0.83671 0.91771 0.0
C2118 C 0.86535 0.82226 0.93393 0.0
H2119 H 0.89393 0.79447 0.98905 0.0
H2120 H 0.89137 0.79029 0.9608 0.0
H2121 H 0.89223 0.81743 0.97213 0.0
H2122 H 0.84358 0.85697 0.96981 0.0
H2123 H 0.85401 0.88289 0.9415 0.0
H2124 H 0.33067 0.86094 0.9748 0.0
H2125 H 0.34926 0.83005 0.98789 0.0
H2126 H 0.3474 0.85704 0.05186 0.0
H2127 H 0.3298 0.8882 0.03885 0.0
H2128 H 0.38564 0.83852 0.04476 0.0
H2129 H 0.31398 0.78154 0.01718 0.0
H2130 H 0.32934 0.79655 -0.00296 0.0
H2131 H 0.31315 0.81056 0.01623 0.0
C2132 C 0.33459 0.86045 0.99161 0.0
C2133 C 0.32849 0.87691 0.00583 0.0
C2134 C 0.34504 0.84268 -0.00092 0.0
C2135 C 0.34916 0.84088 0.02096 0.0
C2136 C 0.34429 0.85796 0.03492 0.0
H2137 H 0.35828 0.769 0.1267 0.0
H2138 H 0.36173 0.79455 0.09794 0.0
C2139 C 0.33418 0.87582 0.02745 0.0
C2140 C 0.35707 0.82086 0.02996 0.0
H2141 H 0.33945 0.76818 0.04037 0.0
C2142 C 0.37573 0.82303 0.0435 0.0
C2143 C 0.34444 0.80047 0.02805 0.0
C2144 C 0.32403 0.79704 0.01397 0.0
C2145 C 0.38083 0.80615 0.05668 0.0
C2146 C 0.36712 0.78635 0.05605 0.0
C2147 C 0.34992 0.78337 0.04089 0.0
C2148 C 0.36741 0.77045 0.07337 0.0
C2149 C 0.40024 0.81047 0.07184 0.0
C2150 C 0.3689 0.74814 0.06914 0.0
C2151 C 0.36678 0.73328 0.08576 0.0
C2152 C 0.36284 0.74059 0.10669 0.0
C2153 C 0.3614 0.76287 0.11074 0.0
C2154 C 0.36361 0.77757 0.09432 0.0
H2155 H 0.41536 0.81658 0.06289 0.0
H2156 H 0.39645 0.82343 0.08353 0.0
H2157 H 0.4041 0.79597 0.08065 0.0
H2158 H 0.37137 0.74223 0.05299 0.0
H2159 H 0.36751 0.71613 0.08218 0.0
H2160 H 0.93173 0.57834 0.7787 0.0
H2161 H 0.96671 0.5966 0.79208 0.0
H2162 H -0.0039 0.59135 0.72964 0.0
H2163 H 0.96119 0.57277 0.71613 0.0
H2164 H 0.021 0.57472 0.76018 0.0
H2165 H -0.00038 0.65626 0.78712 0.0
H2166 H 0.97965 0.63529 0.79614 0.0
H2167 H 0.98285 0.6397 0.76801 0.0
C2168 C 0.94545 0.58146 0.76768 0.0
C2169 C 0.9437 0.57397 0.74638 0.0
C2170 C 0.96541 0.5921 0.77532 0.0
C2171 C 0.98394 0.59564 0.76178 0.0
C2172 C 0.98195 0.58895 0.7403 0.0
H2173 H 0.10057 0.65307 0.83412 0.0
H2174 H 0.07745 0.64642 0.80203 0.0
C2175 C 0.96198 0.57831 0.73264 0.0
C2176 C 0.00599 0.60358 0.77085 0.0
H2177 H 0.03077 0.64204 0.80504 0.0
C2178 C 0.02336 0.58974 0.76954 0.0
C2179 C 0.00929 0.62334 0.78272 0.0
C2180 C 0.99194 0.63962 0.7834 0.0
C2181 C 0.04308 0.59418 0.78134 0.0
C2182 C 0.04534 0.61277 0.79497 0.0
C2183 C 0.02891 0.62764 0.79476 0.0
C2184 C 0.06248 0.61524 0.81197 0.0
C2185 C 0.06089 0.5784 0.77988 0.0
C2186 C 0.06205 0.59971 0.82791 0.0
C2187 C 0.07495 0.60356 0.84626 0.0
C2188 C 0.08864 0.62298 0.84898 0.0
C2189 C 0.09034 0.63784 0.83233 0.0
C2190 C 0.07708 0.63414 0.81406 0.0
H2191 H 0.06063 0.56993 0.76405 0.0
H2192 H 0.0778 0.58673 0.78266 0.0
H2193 H 0.05769 0.5659 0.79213 0.0
H2194 H 0.0506 0.58521 0.82683 0.0
H2195 H 0.07326 0.59187 0.85885 0.0
H2196 H 0.18924 0.18387 0.5643 0.0
H2197 H 0.16809 0.21449 0.5752 0.0
H2198 H 0.19748 0.25179 0.52357 0.0
H2199 H 0.21782 0.22121 0.51218 0.0
H2200 H 0.18684 0.25103 0.58972 0.0
H2201 H 0.1361 0.27078 0.52097 0.0
H2202 H 0.14857 0.24528 0.52244 0.0
H2203 H 0.16452 0.26912 0.51287 0.0
C2204 C 0.19068 0.19838 0.55493 0.0
C2205 C 0.20533 0.2001 0.53745 0.0
C2206 C 0.17857 0.21589 0.56116 0.0
C2207 C 0.18092 0.23546 0.55009 0.0
C2208 C 0.19477 0.23677 0.53206 0.0
H2209 H 0.19328 0.36599 0.58917 0.0
H2210 H 0.19035 0.33173 0.5684 0.0
C2211 C 0.20665 0.21924 0.52569 0.0
C2212 C 0.17189 0.25544 0.55912 0.0
H2213 H 0.14713 0.30109 0.54563 0.0
C2214 C 0.17763 0.26165 0.58021 0.0
C2215 C 0.15989 0.26946 0.54677 0.0
C2216 C 0.15172 0.26316 0.52459 0.0
C2217 C 0.17291 0.28189 0.58882 0.0
C2218 C 0.16223 0.2964 0.57603 0.0
C2219 C 0.15549 0.28994 0.5553 0.0
C2220 C 0.15996 0.3189 0.58373 0.0
C2221 C 0.18037 0.28816 0.61125 0.0
C2222 C 0.14324 0.32333 0.59846 0.0
C2223 C 0.14476 0.34301 0.61012 0.0
C2224 C 0.16298 0.35841 0.60709 0.0
C2225 C 0.17878 0.35458 0.59128 0.0
C2226 C 0.17715 0.33502 0.5795 0.0
H2227 H 0.18891 0.27516 0.61897 0.0
H2228 H 0.19196 0.30313 0.61113 0.0
H2229 H 0.16567 0.29175 0.62107 0.0
H2230 H 0.13002 0.31096 0.60209 0.0
H2231 H 0.13275 0.34542 0.62268 0.0
H2232 H 0.1008 0.99457 0.79775 0.0
H2233 H 0.06467 0.97431 0.80239 0.0
H2234 H 0.0488 0.98318 0.73636 0.0
H2235 H 0.08486 0.00401 0.73169 0.0
H2236 H 0.01748 -0.0031 0.76114 0.0
H2237 H 0.03396 0.91583 0.78822 0.0
H2238 H 0.05094 0.93598 0.80318 0.0
H2239 H 0.05493 0.9332 0.77477 0.0
C2240 C 0.08991 0.99177 0.78405 0.0
C2241 C 0.09563 0.00113 0.76442 0.0
C2242 C 0.06928 0.97994 0.78667 0.0
C2243 C 0.05408 0.97692 0.76965 0.0
C2244 C 0.06031 0.98517 0.74968 0.0
H2245 H 0.9277 0.92281 0.82531 0.0
H2246 H 0.95419 0.9272 0.79552 0.0
C2247 C 0.08091 -0.00288 0.74707 0.0
C2248 C 0.03066 0.96847 0.77384 0.0
H2249 H 0.00062 0.93101 0.8036 0.0
C2250 C 0.01363 0.98206 0.76976 0.0
C2251 C 0.02537 0.9489 0.78466 0.0
C2252 C 0.04228 0.93255 0.78771 0.0
C2253 C 0.99218 0.97786 0.77832 0.0
C2254 C 0.98782 0.95986 0.79155 0.0
C2255 C 0.00404 0.94497 0.79363 0.0
C2256 C 0.96882 0.95866 0.8066 0.0
C2257 C 0.97481 0.99353 0.77432 0.0
C2258 C 0.96802 0.97506 0.82237 0.0
C2259 C 0.95328 0.97245 0.83942 0.0
C2260 C 0.93895 0.95344 0.84099 0.0
C2261 C 0.9385 0.9377 0.82438 0.0
C2262 C 0.95364 0.94014 0.80743 0.0
H2263 H 0.97738 0.0011 0.75854 0.0
H2264 H 0.95764 0.98535 0.77498 0.0
H2265 H 0.97631 0.00673 0.78667 0.0
H2266 H 0.97986 0.98929 0.82228 0.0
H2267 H 0.95397 0.98482 0.852 0.0
H2268 H 0.70439 0.36045 0.49178 0.0
H2269 H 0.68218 0.32675 0.48226 0.0
H2270 H 0.70343 0.2978 0.53978 0.0
H2271 H 0.72589 0.33147 0.54938 0.0
H2272 H 0.71195 0.27392 0.50475 0.0
H2273 H 0.62445 0.2939 0.50146 0.0
H2274 H 0.64195 0.31375 0.48746 0.0
H2275 H 0.64576 0.31086 0.5157 0.0
C2276 C 0.70399 0.34709 0.50265 0.0
C2277 C 0.71706 0.3486 0.52124 0.0
C2278 C 0.69107 0.32788 0.4973 0.0
C2279 C 0.69087 0.30983 0.51047 0.0
C2280 C 0.70317 0.31159 0.5295 0.0
H2281 H 0.65062 0.18214 0.44718 0.0
H2282 H 0.65817 0.20682 0.4782 0.0
C2283 C 0.71605 0.33084 0.53491 0.0
C2284 C 0.68068 0.28845 0.50257 0.0
H2285 H 0.63478 0.2656 0.47597 0.0
C2286 C 0.69482 0.27173 0.49911 0.0
C2287 C 0.65827 0.28548 0.49549 0.0
C2288 C 0.64169 0.3019 0.50046 0.0
C2289 C 0.68788 0.25319 0.48673 0.0
C2290 C 0.66626 0.2514 0.47768 0.0
C2291 C 0.65144 0.26713 0.4828 0.0
C2292 C 0.6605 0.23603 0.45976 0.0
C2293 C 0.70433 0.23661 0.48177 0.0
C2294 C 0.65947 0.24432 0.43928 0.0
C2295 C 0.65578 0.23039 0.42167 0.0
C2296 C 0.65269 0.20783 0.42418 0.0
C2297 C 0.65313 0.19947 0.4448 0.0
C2298 C 0.6573 0.21351 0.46249 0.0
H2299 H 0.72088 0.24095 0.48932 0.0
H2300 H 0.69766 0.22053 0.48755 0.0
H2301 H 0.70669 0.23501 0.46427 0.0
H2302 H 0.66202 0.26165 0.43686 0.0
H2303 H 0.65517 0.23737 0.40605 0.0
H2304 H 0.92783 0.48808 0.70536 0.0
H2305 H 0.96011 0.46902 0.69466 0.0
H2306 H 0.97363 0.45644 0.76046 0.0
H2307 H 0.94161 0.4761 0.77136 0.0
H2308 H 0.01037 0.47223 0.74193 0.0
H2309 H 0.97245 0.40675 0.68943 0.0
H2310 H 0.96356 0.43212 0.68106 0.0
H2311 H 0.95584 0.42233 0.70712 0.0
C2312 C 0.93736 0.48089 0.71755 0.0
C2313 C 0.93212 0.48364 0.73922 0.0
C2314 C 0.95578 0.46983 0.71139 0.0
C2315 C 0.96915 0.46092 0.72671 0.0
C2316 C 0.96352 0.46304 0.74833 0.0
H2317 H 0.07582 0.40426 0.65601 0.0
H2318 H 0.05027 0.40528 0.68652 0.0
C2319 C 0.94518 0.47427 0.75453 0.0
C2320 C 0.99013 0.45145 0.7201 0.0
H2321 H 0.01106 0.41973 0.68098 0.0
C2322 C 0.01049 0.46033 0.72895 0.0
C2323 C 0.99048 0.43536 0.70369 0.0
C2324 C 0.96935 0.42343 0.695 0.0
C2325 C 0.03106 0.45517 0.72037 0.0
C2326 C 0.03126 0.4413 0.70212 0.0
C2327 C 0.01101 0.43073 0.69471 0.0
C2328 C 0.05136 0.44037 0.68838 0.0
C2329 C 0.05235 0.46524 0.73048 0.0
C2330 C 0.0612 0.45968 0.67985 0.0
C2331 C 0.07602 0.45902 0.66275 0.0
C2332 C 0.08137 0.43908 0.65392 0.0
C2333 C 0.07282 0.41978 0.6633 0.0
C2334 C 0.05793 0.42039 0.68047 0.0
H2335 H 0.05027 0.46727 0.74798 0.0
H2336 H 0.06659 0.45525 0.72732 0.0
H2337 H 0.05643 0.48162 0.72397 0.0
H2338 H 0.05597 0.47528 0.68514 0.0
H2339 H 0.08195 0.47408 0.65536 0.0
H2340 H 0.55342 0.59284 0.2738 0.0
H2341 H 0.52467 0.61512 0.26087 0.0
H2342 H 0.5589 0.62111 0.2006 0.0
H2343 H 0.58789 0.59933 0.21349 0.0
H2344 H 0.54207 0.65958 0.21467 0.0
H2345 H 0.47704 0.58994 0.21896 0.0
H2346 H 0.49126 0.59849 0.24328 0.0
H2347 H 0.50638 0.58648 0.22198 0.0
C2348 C 0.55499 0.59915 0.25788 0.0
C2349 C 0.57285 0.59409 0.24459 0.0
C2350 C 0.53845 0.61177 0.25049 0.0
C2351 C 0.53938 0.61939 0.22962 0.0
C2352 C 0.55779 0.61532 0.21674 0.0
H2353 H 0.47998 0.65866 0.12291 0.0
H2354 H 0.5026 0.65423 0.15412 0.0
C2355 C 0.57436 0.60283 0.22414 0.0
C2356 C 0.52078 0.63053 0.22043 0.0
H2357 H 0.46763 0.62059 0.2012 0.0
C2358 C 0.52564 0.65122 0.21208 0.0
C2359 C 0.4992 0.61979 0.21732 0.0
C2360 C 0.49306 0.5974 0.22571 0.0
C2361 C 0.51019 0.66072 0.19931 0.0
C2362 C 0.48928 0.64918 0.19469 0.0
C2363 C 0.48363 0.62942 0.20471 0.0
C2364 C 0.47523 0.6549 0.17655 0.0
C2365 C 0.51713 0.68255 0.1901 0.0
C2366 C 0.45205 0.65653 0.17859 0.0
C2367 C 0.43883 0.65897 0.16045 0.0
C2368 C 0.4487 0.65946 0.14014 0.0
C2369 C 0.47188 0.65833 0.13835 0.0
C2370 C 0.48494 0.65603 0.15626 0.0
H2371 H 0.52474 0.69373 0.20272 0.0
H2372 H 0.53011 0.68059 0.17775 0.0
H2373 H 0.50305 0.69018 0.18282 0.0
H2374 H 0.44416 0.65544 0.1941 0.0
H2375 H 0.42096 0.65964 0.16221 0.0
H2376 H 0.54549 0.74773 0.83249 0.0
H2377 H 0.54688 0.72767 0.79875 0.0
H2378 H 0.47891 0.74058 0.7853 0.0
H2379 H 0.47752 0.76129 0.81907 0.0
H2380 H 0.52239 0.69254 0.77908 0.0
H2381 H 0.51367 0.76929 0.73617 0.0
H2382 H 0.51832 0.76932 0.76453 0.0
H2383 H 0.49149 0.75981 0.75374 0.0
C2384 C 0.53068 0.74609 0.82256 0.0
C2385 C 0.51154 0.75645 0.82831 0.0
C2386 C 0.53147 0.7345 0.80328 0.0
C2387 C 0.51315 0.73296 0.78932 0.0
C2388 C 0.49339 0.74192 0.79566 0.0
H2389 H 0.56547 0.66903 0.6743 0.0
H2390 H 0.53404 0.67743 0.69743 0.0
C2391 C 0.4926 0.75364 0.81501 0.0
C2392 C 0.51612 0.72389 0.7675 0.0
H2393 H 0.52777 0.74073 0.71704 0.0
C2394 C 0.52295 0.70278 0.76529 0.0
C2395 C 0.5167 0.73732 0.74954 0.0
C2396 C 0.50977 0.76024 0.75096 0.0
C2397 C 0.53251 0.69555 0.74625 0.0
C2398 C 0.53493 0.70975 0.7289 0.0
C2399 C 0.52588 0.72993 0.73039 0.0
C2400 C 0.55131 0.70636 0.71169 0.0
C2401 C 0.54195 0.67367 0.7456 0.0
C2402 C 0.57083 0.7205 0.71118 0.0
C2403 C 0.58856 0.71587 0.69802 0.0
C2404 C 0.58714 0.69704 0.68497 0.0
C2405 C 0.56694 0.68374 0.68414 0.0
C2406 C 0.54909 0.68837 0.69749 0.0
H2407 H 0.54013 0.66535 0.76106 0.0
H2408 H 0.53311 0.6631 0.73323 0.0
H2409 H 0.55995 0.6755 0.74132 0.0
H2410 H 0.57291 0.7345 0.72195 0.0
H2411 H 0.60388 0.72646 0.6989 0.0
H2412 H 0.55084 0.29333 0.10265 0.0
H2413 H 0.56708 0.29724 0.06704 0.0
H2414 H 0.5621 0.36638 0.07155 0.0
H2415 H 0.54614 0.36271 0.10717 0.0
H2416 H 0.546 0.31258 0.03245 0.0
H2417 H 0.62499 0.36286 0.04854 0.0
H2418 H 0.60933 0.34864 0.06925 0.0
H2419 H 0.60151 0.3745 0.06058 0.0
C2420 C 0.55365 0.30945 0.09627 0.0
C2421 C 0.54718 0.32773 0.10779 0.0
C2422 C 0.56286 0.31161 0.07587 0.0
C2423 C 0.56599 0.3321 0.06671 0.0
C2424 C 0.56026 0.35045 0.07846 0.0
H2425 H 0.55954 0.38064 0.94379 0.0
H2426 H 0.55228 0.36035 0.9763 0.0
C2427 C 0.55104 0.34831 0.09882 0.0
C2428 C 0.57346 0.33426 0.04427 0.0
H2429 H 0.61044 0.36366 0.01283 0.0
C2430 C 0.56035 0.32343 0.02813 0.0
C2431 C 0.59239 0.34807 0.03862 0.0
C2432 C 0.608 0.35899 0.05518 0.0
C2433 C 0.56484 0.32716 0.0065 0.0
C2434 C 0.58268 0.34238 0.00091 0.0
C2435 C 0.59663 0.3521 0.01704 0.0
C2436 C 0.58587 0.35032 0.97889 0.0
C2437 C 0.55016 0.31504 0.98991 0.0
C2438 C 0.60707 0.35128 0.96928 0.0
C2439 C 0.61125 0.3631 0.95078 0.0
C2440 C 0.59425 0.3739 0.94146 0.0
C2441 C 0.57275 0.37193 0.95037 0.0
C2442 C 0.56859 0.36025 0.96892 0.0
H2443 H 0.54342 0.29896 -0.00427 0.0
H2444 H 0.53571 0.32449 0.98653 0.0
H2445 H 0.55938 0.31255 0.97482 0.0
H2446 H 0.62076 0.34405 0.97685 0.0
H2447 H 0.62823 0.3654 0.94494 0.0
H2448 H 0.0251 0.3718 0.31553 0.0
H2449 H 0.01265 0.39154 0.28498 0.0
H2450 H 0.9445 0.36725 0.29738 0.0
H2451 H 0.95661 0.34839 0.32818 0.0
H2452 H 0.99516 0.37558 0.25009 0.0
H2453 H 0.93423 0.42776 0.28446 0.0
H2454 H 0.95339 0.41468 0.30099 0.0
H2455 H 0.92692 0.40073 0.29312 0.0
C2456 C 0.0074 0.37114 0.31203 0.0
C2457 C 0.99185 0.35853 0.32432 0.0
C2458 C 0.00031 0.38241 0.29454 0.0
C2459 C 0.97757 0.38124 0.28901 0.0
C2460 C 0.96203 0.36909 0.30164 0.0
H2461 H 0.90994 0.3596 0.17568 0.0
H2462 H 0.9382 0.36275 0.20372 0.0
C2463 C 0.96903 0.35809 0.31922 0.0
C2464 C 0.97009 0.39041 0.26881 0.0
H2465 H 0.92591 0.41382 0.24792 0.0
C2466 C 0.98035 0.38446 0.24965 0.0
C2467 C 0.9513 0.40273 0.26801 0.0
C2468 C 0.94107 0.41204 0.28782 0.0
C2469 C 0.97096 0.38855 0.22983 0.0
C2470 C 0.95033 0.39801 0.2292 0.0
C2471 C 0.9414 0.40599 0.24826 0.0
C2472 C 0.93631 0.39726 0.20965 0.0
C2473 C 0.983 0.38215 0.20983 0.0
C2474 C 0.92552 0.41548 0.20364 0.0
C2475 C 0.90924 0.41358 0.18763 0.0
C2476 C 0.90357 0.39348 0.17733 0.0
C2477 C 0.9147 0.37543 0.18288 0.0
C2478 C 0.93094 0.37729 0.19885 0.0
H2479 H 0.00139 0.38441 0.21218 0.0
H2480 H 0.97862 0.36468 0.20609 0.0
H2481 H 0.9785 0.39179 0.19603 0.0
H2482 H 0.92904 0.43097 0.21193 0.0
H2483 H 0.90005 0.42746 0.18437 0.0
H2484 H 0.95625 0.76033 0.60976 0.0
H2485 H 0.93819 0.75047 0.57561 0.0
H2486 H 0.9635 0.81191 0.55032 0.0
H2487 H 0.98169 0.82196 0.58442 0.0
H2488 H 0.90729 0.77267 0.54771 0.0
H2489 H 0.99188 0.7639 0.51313 0.0
H2490 H 0.98743 0.76522 0.54156 0.0
H2491 H 0.98668 0.78921 0.52621 0.0
C2492 C 0.95762 0.77195 0.59711 0.0
C2493 C 0.97064 0.79181 0.59974 0.0
C2494 C 0.94726 0.76631 0.57761 0.0
C2495 C 0.94981 0.78036 0.56041 0.0
C2496 C 0.96156 0.80077 0.56337 0.0
H2497 H 0.92057 0.72306 0.43176 0.0
H2498 H 0.9305 0.75224 0.45845 0.0
C2499 C 0.97186 0.80649 0.5829 0.0
C2500 C 0.94199 0.77253 0.53904 0.0
H2501 H 0.96094 0.75002 0.49296 0.0
C2502 C 0.91897 0.76812 0.53554 0.0
C2503 C 0.9573 0.76692 0.52307 0.0
C2504 C 0.98223 0.77142 0.52605 0.0
C2505 C 0.91092 0.75703 0.51696 0.0
C2506 C 0.92632 0.74969 0.50192 0.0
C2507 C 0.94922 0.75558 0.50463 0.0
C2508 C 0.91938 0.73301 0.4854 0.0
C2509 C 0.88602 0.75255 0.51394 0.0
C2510 C 0.91036 0.71255 0.49181 0.0
C2511 C 0.90509 0.69598 0.47679 0.0
C2512 C 0.90856 0.69956 0.45501 0.0
C2513 C 0.9176 0.72003 0.44848 0.0
C2514 C 0.92323 0.73662 0.46365 0.0
H2515 H 0.8768 0.76522 0.52209 0.0
H2516 H 0.88147 0.75178 0.49678 0.0
H2517 H 0.88048 0.73671 0.52097 0.0
H2518 H 0.90778 0.70927 0.50854 0.0
H2519 H 0.8981 0.68034 0.48221 0.0
H2520 H 0.48851 0.35019 0.67242 0.0
H2521 H 0.49854 0.36577 0.70772 0.0
H2522 H 0.56525 0.34583 0.70016 0.0
H2523 H 0.55548 0.33035 0.66494 0.0
H2524 H 0.51249 0.34133 0.7415 0.0
H2525 H 0.5762 0.40831 0.72352 0.0
H2526 H 0.55688 0.39623 0.7037 0.0
H2527 H 0.58163 0.38326 0.71021 0.0
C2528 C 0.50548 0.34959 0.67804 0.0
C2529 C 0.52119 0.33899 0.66585 0.0
C2530 C 0.51113 0.35842 0.69827 0.0
C2531 C 0.53267 0.35709 0.7065 0.0
C2532 C 0.54864 0.34737 0.69399 0.0
H2533 H 0.59103 0.343 0.82625 0.0
H2534 H 0.56768 0.33904 0.79425 0.0
C2535 C 0.54299 0.33844 0.67386 0.0
C2536 C 0.53806 0.364 0.72883 0.0
H2537 H 0.57687 0.39437 0.75894 0.0
C2538 C 0.5263 0.35323 0.74537 0.0
C2539 C 0.55584 0.37973 0.73388 0.0
C2540 C 0.56822 0.39272 0.71689 0.0
C2541 C 0.53278 0.35681 0.76675 0.0
C2542 C 0.55166 0.37131 0.77163 0.0
C2543 C 0.5625 0.38309 0.7552 0.0
C2544 C 0.56183 0.37309 0.79321 0.0
C2545 C 0.51964 0.34471 0.78385 0.0
C2546 C 0.56611 0.39347 0.80344 0.0
C2547 C 0.57947 0.39572 0.82172 0.0
C2548 C 0.58869 0.37762 0.83009 0.0
C2549 C 0.58361 0.35709 0.8204 0.0
C2550 C 0.57022 0.35483 0.80216 0.0
H2551 H 0.5021 0.34028 0.77875 0.0
H2552 H 0.5274 0.32945 0.78704 0.0
H2553 H 0.51952 0.3545 0.79892 0.0
H2554 H 0.56017 0.40782 0.79659 0.0
H2555 H 0.58403 0.41185 0.82826 0.0
H2556 H 0.02607 0.34068 0.9589 0.0
H2557 H 0.0045 0.3448 0.9913 0.0
H2558 H 0.9602 0.28898 0.97287 0.0
H2559 H 0.98201 0.28455 0.94 0.0
H2560 H 0.9391 0.32795 0.98804 0.0
H2561 H 0.00364 0.30441 0.04353 0.0
H2562 H 0.01489 0.32319 0.02415 0.0
H2563 H 0.00321 0.29663 0.01556 0.0
C2564 C 0.01175 0.32922 0.96159 0.0
C2565 C 0.00584 0.31221 0.94686 0.0
C2566 C -0.00048 0.33153 0.98025 0.0
C2567 C 0.98108 0.31692 0.98469 0.0
C2568 C 0.97459 0.30024 0.96982 0.0
H2569 H 0.90082 0.36415 0.09237 0.0
H2570 H 0.91282 0.335 0.0686 0.0
C2571 C 0.987 0.2978 0.95105 0.0
C2572 C 0.9685 0.32008 0.00469 0.0
H2573 H 0.97806 0.32965 0.05776 0.0
C2574 C 0.94717 0.32761 0.00345 0.0
C2575 C 0.97904 0.31939 0.02475 0.0
C2576 C 0.00138 0.31024 0.02715 0.0
C2577 C 0.93719 0.33673 0.02146 0.0
C2578 C 0.94888 0.33814 0.04108 0.0
C2579 C 0.96917 0.32861 0.0427 0.0
C2580 C 0.94295 0.35346 0.05826 0.0
C2581 C 0.91526 0.34665 0.01896 0.0
C2582 C 0.95643 0.37297 0.061 0.0
C2583 C 0.94965 0.38949 0.07434 0.0
C2584 C 0.92933 0.38678 0.08544 0.0
C2585 C 0.91661 0.36661 0.08404 0.0
C2586 C 0.92333 0.35005 0.07037 0.0
H2587 H 0.90874 0.34488 0.0024 0.0
H2588 H 0.90264 0.33871 0.02979 0.0
H2589 H 0.9173 0.36419 0.02347 0.0
H2590 H 0.97166 0.3759 0.05183 0.0
H2591 H 0.95983 0.40482 0.07521 0.0
H2592 H 0.98114 0.72943 0.17507 0.0
H2593 H 0.97847 0.71224 0.20984 0.0
H2594 H 0.91197 0.73254 0.21795 0.0
H2595 H 0.91448 0.74981 0.18338 0.0
H2596 H 0.97103 0.73655 0.24867 0.0
H2597 H 0.90656 0.66801 0.23557 0.0
H2598 H 0.92228 0.68075 0.21402 0.0
H2599 H 0.89879 0.69317 0.22532 0.0
C2600 C 0.96573 0.72977 0.18402 0.0
C2601 C 0.948 0.74101 0.17648 0.0
C2602 C 0.9643 0.72003 0.20391 0.0
C2603 C 0.94499 0.72103 0.21637 0.0
C2604 C 0.9269 0.73133 0.20844 0.0
H2605 H 0.90471 0.73167 0.34194 0.0
H2606 H 0.92457 0.73634 0.30815 0.0
C2607 C 0.92839 0.74125 0.1887 0.0
C2608 C 0.94426 0.71319 0.23846 0.0
H2609 H 0.91227 0.68086 0.27177 0.0
C2610 C 0.95852 0.72404 0.25372 0.0
C2611 C 0.92817 0.69669 0.24494 0.0
C2612 C 0.91321 0.68381 0.22908 0.0
C2613 C 0.95597 0.71987 0.27551 0.0
C2614 C 0.93865 0.70461 0.28213 0.0
C2615 C 0.9255 0.69265 0.26672 0.0
C2616 C 0.93183 0.7027 0.30475 0.0
C2617 C 0.97137 0.73231 0.2913 0.0
C2618 C 0.92977 0.68237 0.31436 0.0
C2619 C 0.91841 0.67971 0.3337 0.0
C2620 C 0.90894 0.69734 0.34368 0.0
C2621 C 0.91226 0.71794 0.33475 0.0
C2622 C 0.92367 0.72062 0.31548 0.0
H2623 H 0.98774 0.73742 0.28391 0.0
H2624 H 0.96369 0.7472 0.29675 0.0
H2625 H 0.97426 0.72248 0.30544 0.0
H2626 H 0.93566 0.66828 0.30621 0.0
H2627 H 0.91525 0.66351 0.33977 0.0
H2628 H 0.58956 0.77629 0.4411 0.0
H2629 H 0.60844 0.76651 0.47371 0.0
H2630 H 0.57633 0.70154 0.46792 0.0
H2631 H 0.55797 0.71095 0.4354 0.0
H2632 H 0.5881 0.7547 0.51006 0.0
H2633 H 0.63831 0.68866 0.48375 0.0
H2634 H 0.62726 0.70685 0.46517 0.0
H2635 H 0.61041 0.68315 0.47386 0.0
C2636 C 0.58706 0.75975 0.44648 0.0
C2637 C 0.57225 0.74438 0.43566 0.0
C2638 C 0.59779 0.75423 0.46515 0.0
C2639 C 0.59408 0.7332 0.47313 0.0
C2640 C 0.57997 0.71769 0.46184 0.0
H2641 H 0.56518 0.67963 0.58942 0.0
H2642 H 0.57056 0.70441 0.55985 0.0
C2643 C 0.5693 0.72317 0.44328 0.0
C2644 C 0.60258 0.7278 0.49438 0.0
H2645 H 0.62341 0.68603 0.5201 0.0
C2646 C 0.59639 0.74 0.51228 0.0
C2647 C 0.61399 0.70901 0.4974 0.0
C2648 C 0.62309 0.69636 0.47895 0.0
C2649 C 0.59927 0.7327 0.53303 0.0
C2650 C 0.608 0.71239 0.53587 0.0
C2651 C 0.61627 0.70139 0.51807 0.0
C2652 C 0.60601 0.70085 0.55638 0.0
C2653 C 0.5922 0.74655 0.55155 0.0
C2654 C 0.62403 0.6904 0.56437 0.0
C2655 C 0.62087 0.67613 0.58127 0.0
C2656 C 0.59967 0.67219 0.59051 0.0
C2657 C 0.58184 0.68311 0.58304 0.0
C2658 C 0.58497 0.69734 0.56617 0.0
H2659 H 0.59591 0.76406 0.54827 0.0
H2660 H 0.57386 0.74366 0.55378 0.0
H2661 H 0.60067 0.74288 0.56657 0.0
H2662 H 0.64034 0.69255 0.55694 0.0
H2663 H 0.63462 0.66712 0.58615 0.0
H2664 H 0.84536 0.60069 0.72066 0.0
H2665 H 0.81059 0.61097 0.70574 0.0
H2666 H 0.80081 0.54892 0.67254 0.0
H2667 H 0.83539 0.53806 0.68831 0.0
H2668 H 0.79557 0.61599 0.66714 0.0
H2669 H 0.74313 0.54885 0.70461 0.0
H2670 H 0.77235 0.55457 0.71084 0.0
H2671 H 0.76397 0.54054 0.68633 0.0
C2672 C 0.83598 0.58923 0.71004 0.0
C2673 C 0.84306 0.56845 0.70588 0.0
C2674 C 0.81604 0.59515 0.70149 0.0
C2675 C 0.80276 0.58056 0.68837 0.0
C2676 C 0.8104 0.56023 0.68312 0.0
H2677 H 0.68719 0.64536 0.64265 0.0
H2678 H 0.71819 0.62205 0.64001 0.0
C2679 C 0.83029 0.55413 0.69197 0.0
C2680 C 0.78069 0.58681 0.68106 0.0
H2681 H 0.72442 0.5746 0.6865 0.0
C2682 C 0.77999 0.60683 0.67115 0.0
C2683 C 0.76036 0.57482 0.68633 0.0
C2684 C 0.75985 0.55359 0.69776 0.0
C2685 C 0.75972 0.61595 0.6677 0.0
C2686 C 0.73938 0.60422 0.67344 0.0
C2687 C 0.73999 0.58353 0.68206 0.0
C2688 C 0.71779 0.61438 0.67349 0.0
C2689 C 0.76055 0.63873 0.65941 0.0
C2690 C 0.70615 0.6165 0.69277 0.0
C2691 C 0.68801 0.6292 0.6941 0.0
C2692 C 0.68098 0.63974 0.67611 0.0
C2693 C 0.69179 0.63672 0.65656 0.0
C2694 C 0.70985 0.62383 0.65517 0.0
H2695 H 0.77764 0.64714 0.66039 0.0
H2696 H 0.75542 0.63805 0.64242 0.0
H2697 H 0.74904 0.64866 0.66849 0.0
H2698 H 0.71198 0.60949 0.70716 0.0
H2699 H 0.68035 0.63189 0.70947 0.0
H2700 H 0.70625 0.58882 0.01781 0.0
H2701 H 0.70684 0.55438 -0.00165 0.0
H2702 H 0.75024 0.58482 0.95105 0.0
H2703 H 0.74982 0.61978 0.97064 0.0
H2704 H 0.71314 0.55748 0.93444 0.0
H2705 H 0.75893 0.515 0.99452 0.0
H2706 H 0.7366 0.52868 0.00634 0.0
H2707 H 0.75954 0.54427 0.99394 0.0
C2708 C 0.71595 0.58833 0.00327 0.0
C2709 C 0.72805 0.60709 -0.00417 0.0
C2710 C 0.71644 0.56853 0.99226 0.0
C2711 C 0.72906 0.56692 0.97357 0.0
C2712 C 0.74068 0.58568 0.96564 0.0
H2713 H 0.68939 0.44725 0.89898 0.0
H2714 H 0.71812 0.47646 0.90908 0.0
C2715 C 0.74031 0.60563 0.97678 0.0
C2716 C 0.72879 0.54564 0.96209 0.0
H2717 H 0.73305 0.49214 0.97198 0.0
C2718 C 0.71815 0.5432 0.94222 0.0
C2719 C 0.73567 0.52711 0.97216 0.0
C2720 C 0.74855 0.52891 0.99282 0.0
C2721 C 0.71183 0.52248 0.93335 0.0
C2722 C 0.71656 0.50382 0.94465 0.0
C2723 C 0.72933 0.50641 0.96339 0.0
C2724 C 0.70397 0.4825 0.94019 0.0
C2725 C 0.69828 0.52074 0.91305 0.0
C2726 C 0.6877 0.47509 0.95496 0.0
C2727 C 0.6715 0.45853 0.94929 0.0
C2728 C 0.67135 0.44892 0.92879 0.0
C2729 C 0.68917 0.45445 0.91488 0.0
C2730 C 0.70542 0.47127 0.92054 0.0
H2731 H 0.69459 0.53688 0.90723 0.0
H2732 H 0.70765 0.5125 0.90042 0.0
H2733 H 0.68221 0.51088 0.91557 0.0
H2734 H 0.68632 0.4834 0.97025 0.0
H2735 H 0.65796 0.4545 0.96031 0.0
H2736 H 0.65283 0.47962 0.2005 0.0
H2737 H 0.68862 0.47151 0.18515 0.0
H2738 H 0.70664 0.53991 0.17761 0.0
H2739 H 0.67109 0.54823 0.19368 0.0
H2740 H 0.71019 0.47904 0.14814 0.0
H2741 H 0.75704 0.52325 0.21451 0.0
H2742 H 0.72708 0.51789 0.21486 0.0
H2743 H 0.73988 0.53953 0.19923 0.0
C2744 C 0.66423 0.49296 0.19531 0.0
C2745 C 0.65923 0.51459 0.1986 0.0
C2746 C 0.68473 0.48829 0.18654 0.0
C2747 C 0.70056 0.50513 0.18073 0.0
C2748 C 0.69496 0.52669 0.18256 0.0
H2749 H 0.82217 0.46009 0.12138 0.0
H2750 H 0.79066 0.48233 0.12693 0.0
C2751 C 0.67455 0.5314 0.19158 0.0
C2752 C 0.72323 0.49991 0.17392 0.0
H2753 H 0.77817 0.50591 0.18875 0.0
C2754 C 0.72512 0.48507 0.15686 0.0
C2755 C 0.74265 0.50768 0.18547 0.0
C2756 C 0.74165 0.52282 0.20465 0.0
C2757 C 0.74568 0.4771 0.15154 0.0
C2758 C 0.76507 0.48472 0.16322 0.0
C2759 C 0.76334 0.50023 0.17972 0.0
C2760 C 0.78664 0.47488 0.16032 0.0
C2761 C 0.74609 0.45964 0.1343 0.0
C2762 C 0.79584 0.46457 0.17752 0.0
C2763 C 0.81445 0.45273 0.17454 0.0
C2764 C 0.82427 0.45108 0.15434 0.0
C2765 C 0.81561 0.46205 0.13732 0.0
C2766 C 0.79721 0.47423 0.14036 0.0
H2767 H 0.72906 0.4522 0.13036 0.0
H2768 H 0.7534 0.46686 0.1196 0.0
H2769 H 0.75647 0.44657 0.13918 0.0
H2770 H 0.78797 0.4648 0.19306 0.0
H2771 H 0.82059 0.44408 0.18782 0.0
H2772 H 0.78879 0.45646 0.47333 0.0
H2773 H 0.79604 0.49317 0.45996 0.0
H2774 H 0.72624 0.50351 0.46671 0.0
H2775 H 0.71882 0.46687 0.48034 0.0
H2776 H 0.77819 0.5158 0.42578 0.0
H2777 H 0.75821 0.55148 0.50521 0.0
H2778 H 0.76246 0.5231 0.50144 0.0
H2779 H 0.73694 0.53324 0.49274 0.0
C2780 C 0.77489 0.46638 0.47167 0.0
C2781 C 0.75327 0.45878 0.47815 0.0
C2782 C 0.77906 0.48737 0.46402 0.0
C2783 C 0.76174 0.50119 0.46272 0.0
C2784 C 0.73991 0.49325 0.46796 0.0
H2785 H 0.81286 0.62807 0.41172 0.0
H2786 H 0.78329 0.59898 0.41829 0.0
C2787 C 0.73571 0.47224 0.47563 0.0
C2788 C 0.76708 0.52426 0.45723 0.0
H2789 H 0.77324 0.57536 0.47957 0.0
C2790 C 0.77675 0.52895 0.43734 0.0
C2791 C 0.76509 0.54132 0.4724 0.0
C2792 C 0.75525 0.53717 0.49421 0.0
C2793 C 0.78575 0.55001 0.43266 0.0
C2794 C 0.7848 0.5669 0.44825 0.0
C2795 C 0.77381 0.56245 0.46761 0.0
C2796 C 0.79892 0.58773 0.44656 0.0
C2797 C 0.79751 0.55363 0.41161 0.0
C2798 C 0.81649 0.59212 0.46115 0.0
C2799 C 0.83311 0.60872 0.45755 0.0
C2800 C 0.83249 0.62137 0.43933 0.0
C2801 C 0.81369 0.61858 0.42592 0.0
C2802 C 0.79697 0.60178 0.4295 0.0
H2803 H 0.79948 0.53817 0.40267 0.0
H2804 H 0.7876 0.56384 0.40162 0.0
H2805 H 0.81432 0.56226 0.41407 0.0
H2806 H 0.81831 0.58164 0.4745 0.0
H2807 H 0.84736 0.6106 0.46821 0.0
H2808 H 0.83678 0.49603 0.78684 0.0
H2809 H 0.80097 0.48562 0.80395 0.0
H2810 H 0.78679 0.55279 0.80826 0.0
H2811 H 0.82257 0.56342 0.79116 0.0
H2812 H 0.78129 0.5008 0.84467 0.0
H2813 H 0.73488 0.52025 0.77171 0.0
H2814 H 0.76435 0.5164 0.77113 0.0
H2815 H 0.7549 0.54076 0.78283 0.0
C2816 C 0.82622 0.50864 0.79169 0.0
C2817 C 0.83247 0.53053 0.78746 0.0
C2818 C 0.80578 0.50266 0.80149 0.0
C2819 C 0.79118 0.51843 0.80711 0.0
C2820 C 0.79776 0.54038 0.80383 0.0
H2821 H 0.66715 0.46534 0.87051 0.0
H2822 H 0.69631 0.49393 0.86133 0.0
C2823 C 0.81826 0.5464 0.79412 0.0
C2824 C 0.76855 0.51155 0.81512 0.0
H2825 H 0.71419 0.50289 0.799 0.0
C2826 C 0.76649 0.50161 0.83493 0.0
C2827 C 0.74936 0.51271 0.80231 0.0
C2828 C 0.7508 0.52299 0.78074 0.0
C2829 C 0.74588 0.49177 0.84183 0.0
C2830 C 0.72688 0.49198 0.82852 0.0
C2831 C 0.72874 0.50295 0.80922 0.0
C2832 C 0.70638 0.47755 0.83243 0.0
C2833 C 0.74489 0.48005 0.86265 0.0
C2834 C 0.70158 0.4596 0.81862 0.0
C2835 C 0.68511 0.44338 0.82381 0.0
C2836 C 0.67296 0.44484 0.84286 0.0
C2837 C 0.67631 0.46378 0.85575 0.0
C2838 C 0.69306 0.48002 0.85062 0.0
H2839 H 0.76171 0.47921 0.86978 0.0
H2840 H 0.73455 0.48875 0.87415 0.0
H2841 H 0.73696 0.46327 0.86035 0.0
H2842 H 0.71157 0.45742 0.80446 0.0
H2843 H 0.68276 0.42906 0.81348 0.0
H2844 H 0.8128 0.62228 0.04263 0.0
H2845 H 0.82512 0.59073 0.05997 0.0
H2846 H 0.7663 0.58739 0.09969 0.0
H2847 H 0.75339 0.61902 0.08183 0.0
H2848 H 0.83463 0.58327 0.10144 0.0
H2849 H 0.76362 0.52652 0.07219 0.0
H2850 H 0.76903 0.55345 0.06194 0.0
H2851 H 0.75694 0.54982 0.08791 0.0
C2852 C 0.80246 0.615 0.05514 0.0
C2853 C 0.78201 0.62309 0.06073 0.0
C2854 C 0.80958 0.59694 0.06509 0.0
C2855 C 0.7965 0.58648 0.08091 0.0
C2856 C 0.77646 0.59497 0.08723 0.0
H2857 H 0.87187 0.48189 0.12952 0.0
H2858 H 0.8459 0.51043 0.13217 0.0
C2859 C 0.76922 0.61315 0.07716 0.0
C2860 C 0.80408 0.56639 0.08994 0.0
H2861 H 0.79366 0.51119 0.08803 0.0
C2862 C 0.82553 0.5675 0.09893 0.0
C2863 C 0.79213 0.54587 0.08655 0.0
C2864 C 0.7692 0.54365 0.07652 0.0
C2865 C 0.83611 0.54867 0.10306 0.0
C2866 C 0.82455 0.52807 0.09881 0.0
C2867 C 0.80245 0.52698 0.0913 0.0
C2868 C 0.83626 0.50785 0.09892 0.0
C2869 C 0.8602 0.55113 0.11029 0.0
C2870 C 0.83832 0.49593 0.07976 0.0
C2871 C 0.85272 0.47935 0.07839 0.0
C2872 C 0.86497 0.47416 0.09624 0.0
C2873 C 0.862 0.48518 0.11572 0.0
C2874 C 0.84752 0.50176 0.11713 0.0
H2875 H 0.86785 0.56801 0.1087 0.0
H2876 H 0.86108 0.54693 0.12733 0.0
H2877 H 0.87037 0.5401 0.10093 0.0
H2878 H 0.82994 0.50042 0.06546 0.0
H2879 H 0.85532 0.47148 0.06307 0.0
H2880 H 0.68845 0.51107 0.28029 0.0
H2881 H 0.72264 0.52047 0.30069 0.0
H2882 H 0.6995 0.5828 0.31763 0.0
H2883 H 0.6651 0.57344 0.29748 0.0
H2884 H 0.75288 0.55332 0.29089 0.0
H2885 H 0.72493 0.56524 0.37387 0.0
H2886 H 0.70734 0.55093 0.35387 0.0
H2887 H 0.70937 0.58015 0.35577 0.0
C2888 C 0.69039 0.52662 0.28872 0.0
C2889 C 0.67406 0.54157 0.28716 0.0
C2890 C 0.70997 0.53194 0.30039 0.0
C2891 C 0.71357 0.55223 0.31088 0.0
C2892 C 0.6969 0.56684 0.31008 0.0
H2893 H 0.81768 0.64535 0.32721 0.0
H2894 H 0.79058 0.61633 0.31478 0.0
C2895 C 0.67727 0.56153 0.29842 0.0
C2896 C 0.73571 0.55924 0.32039 0.0
H2897 H 0.76031 0.58459 0.36432 0.0
C2898 C 0.75458 0.55969 0.30711 0.0
C2899 C 0.73812 0.56714 0.34168 0.0
C2900 C 0.71888 0.56562 0.35718 0.0
C2901 C 0.77533 0.5695 0.31398 0.0
C2902 C 0.77717 0.57934 0.33454 0.0
C2903 C 0.75883 0.57723 0.34846 0.0
C2904 C 0.79642 0.59486 0.34052 0.0
C2905 C 0.79489 0.57004 0.29884 0.0
C2906 C 0.80903 0.59232 0.35899 0.0
C2907 C 0.82476 0.60898 0.36612 0.0
C2908 C 0.82764 0.62853 0.35507 0.0
C2909 C 0.81579 0.63048 0.33604 0.0
C2910 C 0.80037 0.61383 0.32885 0.0
H2911 H 0.79337 0.55588 0.28753 0.0
H2912 H 0.79521 0.58498 0.28937 0.0
H2913 H 0.81098 0.57015 0.30756 0.0
H2914 H 0.80613 0.57782 0.36824 0.0
H2915 H 0.83356 0.60714 0.38092 0.0
H2916 H 0.69449 0.43786 0.56141 0.0
H2917 H 0.68589 0.47153 0.57934 0.0
H2918 H 0.75626 0.48986 0.58805 0.0
H2919 H 0.76511 0.45629 0.56952 0.0
H2920 H 0.6949 0.49044 0.61837 0.0
H2921 H 0.73617 0.54008 0.55442 0.0
H2922 H 0.73111 0.51097 0.55191 0.0
H2923 H 0.75367 0.52289 0.56824 0.0
C2924 C 0.70819 0.44887 0.56736 0.0
C2925 C 0.7305 0.44451 0.56375 0.0
C2926 C 0.70323 0.46814 0.57764 0.0
C2927 C 0.72044 0.48343 0.58461 0.0
C2928 C 0.74273 0.47852 0.58233 0.0
H2929 H 0.66829 0.59704 0.64943 0.0
H2930 H 0.69344 0.56832 0.64291 0.0
C2931 C 0.74774 0.45925 0.57189 0.0
C2932 C 0.71467 0.50488 0.59304 0.0
H2933 H 0.71697 0.55853 0.5808 0.0
C2934 C 0.69996 0.50542 0.61039 0.0
C2935 C 0.72121 0.52433 0.58243 0.0
C2936 C 0.73626 0.52466 0.56312 0.0
C2937 C 0.69065 0.52463 0.61676 0.0
C2938 C 0.69678 0.544 0.60584 0.0
C2939 C 0.71242 0.54369 0.5892 0.0
C2940 C 0.68496 0.56391 0.60946 0.0
C2941 C 0.67323 0.52358 0.63417 0.0
C2942 C 0.67295 0.57191 0.59261 0.0
C2943 C 0.6594 0.5889 0.59617 0.0
C2944 C 0.65771 0.59829 0.61661 0.0
C2945 C 0.67022 0.59078 0.63334 0.0
C2946 C 0.6841 0.57399 0.62972 0.0
H2947 H 0.66706 0.5066 0.63769 0.0
H2948 H 0.68064 0.5312 0.649 0.0
H2949 H 0.65871 0.53251 0.62971 0.0
H2950 H 0.67328 0.56436 0.57686 0.0
H2951 H 0.64962 0.59421 0.5831 0.0
H2952 H 0.71952 0.86358 0.51697 0.0
H2953 H 0.69909 0.829 0.52571 0.0
H2954 H 0.71508 0.84082 0.59215 0.0
H2955 H 0.73529 0.87543 0.58366 0.0
H2956 H 0.71738 0.79445 0.54427 0.0
H2957 H 0.64837 0.82189 0.5938 0.0
H2958 H 0.66493 0.8399 0.57662 0.0
H2959 H 0.67514 0.83389 0.60257 0.0
C2960 C 0.71836 0.85901 0.5335 0.0
C2961 C 0.72904 0.87228 0.54964 0.0
C2962 C 0.70673 0.83922 0.53844 0.0
C2963 C 0.70537 0.83247 0.55959 0.0
C2964 C 0.71553 0.84592 0.57577 0.0
H2965 H 0.69819 0.71317 0.62142 0.0
H2966 H 0.70831 0.74438 0.5991 0.0
C2967 C 0.72719 0.86567 0.57087 0.0
C2968 C 0.69485 0.8107 0.56472 0.0
H2969 H 0.65721 0.785 0.59828 0.0
C2970 C 0.70395 0.79234 0.55579 0.0
C2971 C 0.67706 0.80795 0.57944 0.0
C2972 C 0.66564 0.82696 0.58849 0.0
C2973 C 0.69667 0.77134 0.56225 0.0
C2974 C 0.68014 0.76874 0.57825 0.0
C2975 C 0.67006 0.78701 0.58615 0.0
C2976 C 0.67447 0.74768 0.58852 0.0
C2977 C 0.70701 0.75218 0.55215 0.0
C2978 C 0.65212 0.73914 0.58998 0.0
C2979 C 0.64636 0.72141 0.60285 0.0
C2980 C 0.66288 0.71186 0.61424 0.0
C2981 C 0.6853 0.71994 0.61227 0.0
C2982 C 0.69106 0.73769 0.59946 0.0
H2983 H 0.71324 0.75588 0.53586 0.0
H2984 H 0.72149 0.74831 0.5619 0.0
H2985 H 0.69487 0.73761 0.55123 0.0
H2986 H 0.63904 0.74684 0.58198 0.0
H2987 H 0.62887 0.71608 0.60496 0.0
H2988 H 0.24511 0.73244 0.45453 0.0
H2989 H 0.2227 0.76296 0.45001 0.0
H2990 H 0.18025 0.74141 0.5021 0.0
H2991 H 0.20287 0.7105 0.5069 0.0
H2992 H 0.15713 0.75166 0.46464 0.0
H2993 H 0.21989 0.81832 0.48771 0.0
H2994 H 0.23162 0.79927 0.4698 0.0
H2995 H 0.22187 0.79062 0.49562 0.0
C2996 C 0.23106 0.7341 0.46511 0.0
C2997 C 0.2258 0.719 0.48109 0.0
C2998 C 0.2184 0.75174 0.46264 0.0
C2999 C 0.20017 0.75475 0.47607 0.0
C3000 C 0.1945 0.73954 0.49182 0.0
H3001 H 0.15398 0.87341 0.42451 0.0
H3002 H 0.15861 0.84913 0.45458 0.0
C3003 C 0.20735 0.72186 0.49444 0.0
C3004 C 0.1864 0.77302 0.47212 0.0
H3005 H 0.19301 0.8267 0.46054 0.0
C3006 C 0.16464 0.76824 0.46436 0.0
C3007 C 0.1959 0.79474 0.47235 0.0
C3008 C 0.21853 0.80108 0.48206 0.0
C3009 C 0.15332 0.78406 0.45422 0.0
C3010 C 0.1642 0.80513 0.45172 0.0
C3011 C 0.1847 0.81055 0.46207 0.0
C3012 C 0.15748 0.81974 0.43487 0.0
C3013 C 0.13052 0.77732 0.44504 0.0
C3014 C 0.15531 0.81138 0.41394 0.0
C3015 C 0.15274 0.82504 0.39708 0.0
C3016 C 0.15244 0.84751 0.40058 0.0
C3017 C 0.15397 0.85609 0.42149 0.0
C3018 C 0.15662 0.84225 0.43859 0.0
H3019 H 0.11986 0.76892 0.4573 0.0
H3020 H 0.1219 0.79115 0.43918 0.0
H3021 H 0.13221 0.7655 0.43165 0.0
H3022 H 0.15671 0.7943 0.41043 0.0
H3023 H 0.15169 0.81801 0.38108 0.0
H3024 H 0.58486 0.04715 0.72854 0.0
H3025 H 0.54999 0.02488 0.72257 0.0
H3026 H 0.56701 0.98211 0.77216 0.0
H3027 H 0.60254 0.00418 0.77787 0.0
H3028 H 0.55118 0.95925 0.73885 0.0
H3029 H 0.49301 0.02133 0.75567 0.0
H3030 H 0.51322 0.03207 0.73689 0.0
H3031 H 0.52214 0.02524 0.76315 0.0
C3032 C 0.58122 0.03306 0.73825 0.0
C3033 C 0.59645 0.02747 0.7537 0.0
C3034 C 0.56109 0.02047 0.73502 0.0
C3035 C 0.55548 0.00221 0.74741 0.0
C3036 C 0.57081 -0.00367 0.76265 0.0
H3037 H 0.42749 0.94954 0.69181 0.0
H3038 H 0.4521 0.9588 0.72259 0.0
C3039 C 0.59114 0.00887 0.7658 0.0
C3040 C 0.53439 0.98859 0.74291 0.0
H3041 H 0.48074 0.99395 0.72761 0.0
C3042 C 0.53558 0.96666 0.73702 0.0
C3043 C 0.51365 -0.00222 0.74138 0.0
C3044 C 0.51041 0.02033 0.7499 0.0
C3045 C 0.51749 0.95471 0.72695 0.0
C3046 C 0.49813 0.9652 0.72213 0.0
C3047 C 0.49583 0.98606 0.73071 0.0
C3048 C 0.48279 0.95702 0.70472 0.0
C3049 C 0.51993 0.93141 0.72033 0.0
C3050 C 0.49185 0.95337 0.68447 0.0
C3051 C 0.47798 0.94863 0.66698 0.0
C3052 C 0.45465 0.94741 0.66925 0.0
C3053 C 0.44543 0.95046 0.68961 0.0
C3054 C 0.45945 0.95559 0.70719 0.0
H3055 H 0.52859 0.92308 0.73299 0.0
H3056 H 0.50354 0.92227 0.71701 0.0
H3057 H 0.5304 0.93099 0.70577 0.0
H3058 H 0.50976 0.95503 0.68197 0.0
H3059 H 0.48562 0.94616 0.65156 0.0
H3060 H 0.28135 0.36674 0.94629 0.0
H3061 H 0.30064 0.334 0.94071 0.0
H3062 H 0.33936 0.34903 -0.00225 0.0
H3063 H 0.32002 0.38221 0.00352 0.0
H3064 H 0.36461 0.33543 0.96244 0.0
H3065 H 0.29042 0.27823 0.97503 0.0
H3066 H 0.28465 0.29875 0.9566 0.0
H3067 H 0.29167 0.30638 0.98379 0.0
C3068 C 0.294 0.36321 0.95767 0.0
C3069 C 0.29903 0.37704 0.97543 0.0
C3070 C 0.30488 0.34435 0.95455 0.0
C3071 C 0.32096 0.33877 0.96914 0.0
C3072 C 0.32673 0.3529 0.98649 0.0
H3073 H 0.35556 0.2099 0.92507 0.0
H3074 H 0.34946 0.23766 0.95302 0.0
C3075 C 0.31577 0.37189 0.98968 0.0
C3076 C 0.332 0.31845 0.96546 0.0
H3077 H 0.31932 0.26505 0.95221 0.0
C3078 C 0.35488 0.31988 0.96073 0.0
C3079 C 0.3195 0.29805 0.96386 0.0
C3080 C 0.29524 0.29519 0.97033 0.0
C3081 C 0.36502 0.30194 0.95217 0.0
C3082 C 0.35181 0.28214 0.94805 0.0
C3083 C 0.32952 0.28017 0.95505 0.0
C3084 C 0.35916 0.26506 0.93314 0.0
C3085 C 0.38954 0.30502 0.94667 0.0
C3086 C 0.36671 0.27113 0.91283 0.0
C3087 C 0.37022 0.25549 0.89718 0.0
C3088 C 0.36609 0.23333 0.90129 0.0
C3089 C 0.35915 0.22694 0.9217 0.0
C3090 C 0.35561 0.24277 0.93756 0.0
H3091 H 0.399 0.31326 0.9602 0.0
H3092 H 0.39686 0.28957 0.94276 0.0
H3093 H 0.3918 0.3158 0.93282 0.0
H3094 H 0.36879 0.28806 0.90862 0.0
H3095 H 0.37534 0.2608 0.88146 0.0
H3096 H 0.44636 0.53001 0.76703 0.0
H3097 H 0.48036 0.5499 0.75461 0.0
H3098 H 0.45705 0.60988 0.77878 0.0
H3099 H 0.42258 0.58989 0.79149 0.0
H3100 H 0.47188 0.6107 0.73582 0.0
H3101 H 0.53488 0.57827 0.78755 0.0
H3102 H 0.51593 0.55705 0.77627 0.0
H3103 H 0.50551 0.57697 0.79429 0.0
C3104 C 0.44841 0.54741 0.76987 0.0
C3105 C 0.43171 0.55838 0.78021 0.0
C3106 C 0.46803 0.55874 0.76296 0.0
C3107 C 0.47145 0.58128 0.76619 0.0
C3108 C 0.45484 0.59241 0.77644 0.0
H3109 H 0.5937 0.64021 0.7027 0.0
H3110 H 0.56688 0.63425 0.7321 0.0
C3111 C 0.43516 0.581 0.78359 0.0
C3112 C 0.49155 0.59302 0.75691 0.0
H3113 H 0.54797 0.59025 0.75263 0.0
C3114 C 0.4886 0.60681 0.73994 0.0
C3115 C 0.51339 0.58811 0.76239 0.0
C3116 C 0.51766 0.57446 0.78128 0.0
C3117 C 0.50664 0.61405 0.72702 0.0
C3118 C 0.52808 0.60727 0.73121 0.0
C3119 C 0.53145 0.59523 0.74937 0.0
C3120 C 0.54594 0.60947 0.71501 0.0
C3121 C 0.5023 0.62752 0.70801 0.0
C3122 C 0.54346 0.59681 0.69623 0.0
C3123 C 0.55872 0.59994 0.67966 0.0
C3124 C 0.57682 0.61585 0.6815 0.0
C3125 C 0.58004 0.6277 0.70087 0.0
C3126 C 0.56466 0.62448 0.71758 0.0
H3127 H 0.48777 0.63722 0.71083 0.0
H3128 H 0.51712 0.63865 0.70406 0.0
H3129 H 0.49843 0.61653 0.69401 0.0
H3130 H 0.52924 0.58495 0.69412 0.0
H3131 H 0.55582 0.59043 0.66504 0.0
H3132 H 0.78344 0.21211 0.04459 0.0
H3133 H 0.80029 0.24862 0.05347 0.0
H3134 H 0.81451 0.25941 0.98708 0.0
H3135 H 0.79775 0.22287 0.97797 0.0
H3136 H 0.84573 0.26978 0.04204 0.0
H3137 H 0.77315 0.30821 0.00848 0.0
H3138 H 0.77108 0.28005 0.01581 0.0
H3139 H 0.78632 0.28836 0.99242 0.0
C3140 C 0.7904 0.22211 0.03189 0.0
C3141 C 0.78911 0.21463 0.01056 0.0
C3142 C 0.80004 0.24295 0.03699 0.0
C3143 C 0.8084 0.2567 0.02088 0.0
C3144 C 0.80796 0.24905 -0.00032 0.0
H3145 H 0.87086 0.38287 0.06952 0.0
H3146 H 0.86293 0.35394 0.04231 0.0
C3147 C 0.79845 0.22814 0.99456 0.0
C3148 C 0.81644 0.2794 0.02643 0.0
H3149 H 0.79956 0.33078 0.02798 0.0
C3150 C 0.83598 0.28326 0.03859 0.0
C3151 C 0.80356 0.29683 0.02184 0.0
C3152 C 0.78229 0.29333 0.00899 0.0
C3153 C 0.84238 0.30398 0.0473 0.0
C3154 C 0.82887 0.32121 0.04364 0.0
C3155 C 0.80997 0.31757 0.03052 0.0
C3156 C 0.83171 0.34159 0.05656 0.0
C3157 C 0.86265 0.30695 0.0616 0.0
C3158 C 0.81618 0.3449 0.07277 0.0
C3159 C 0.8207 0.36119 0.08825 0.0
C3160 C 0.84071 0.37465 0.08766 0.0
C3161 C 0.85526 0.37275 0.07026 0.0
C3162 C 0.85085 0.35616 0.05483 0.0
H3163 H 0.87015 0.29143 0.06431 0.0
H3164 H 0.87549 0.31835 0.05423 0.0
H3165 H 0.85815 0.3141 0.07727 0.0
H3166 H 0.8013 0.33385 0.07433 0.0
H3167 H 0.80918 0.36238 0.10145 0.0
H3168 H 0.60288 0.07755 0.84076 0.0
H3169 H 0.57052 0.09722 0.84975 0.0
H3170 H 0.58065 0.13489 0.79315 0.0
H3171 H 0.61315 0.11496 0.7838 0.0
H3172 H 0.56607 0.14194 0.85619 0.0
H3173 H 0.51574 0.10669 0.78728 0.0
H3174 H 0.54114 0.09568 0.79558 0.0
H3175 H 0.54248 0.1208 0.78175 0.0
C3176 C 0.59842 0.09015 0.83029 0.0
C3177 C 0.6105 0.09458 0.81149 0.0
C3178 C 0.57991 0.10141 0.83547 0.0
C3179 C 0.573 0.11728 0.82196 0.0
C3180 C 0.58552 0.12245 0.80361 0.0
H3181 H 0.46046 0.17978 0.87964 0.0
H3182 H 0.49289 0.1777 0.85613 0.0
C3183 C 0.60418 0.11118 0.7984 0.0
C3184 C 0.55216 0.12756 0.82711 0.0
H3185 H 0.49706 0.12626 0.81324 0.0
C3186 C 0.55104 0.13895 0.84662 0.0
C3187 C 0.53263 0.12347 0.81457 0.0
C3188 C 0.53284 0.1109 0.79366 0.0
C3189 C 0.53067 0.14522 0.85462 0.0
C3190 C 0.51091 0.14035 0.8425 0.0
C3191 C 0.51225 0.13007 0.82239 0.0
C3192 C 0.48856 0.14274 0.85192 0.0
C3193 C 0.53027 0.15555 0.87667 0.0
C3194 C 0.47454 0.12399 0.85612 0.0
C3195 C 0.45578 0.12525 0.86913 0.0
C3196 C 0.45056 0.1453 0.87782 0.0
C3197 C 0.46366 0.16425 0.87244 0.0
C3198 C 0.48244 0.16301 0.85936 0.0
H3199 H 0.54633 0.15475 0.88525 0.0
H3200 H 0.52714 0.1729 0.87541 0.0
H3201 H 0.51666 0.14746 0.88637 0.0
H3202 H 0.47901 0.10817 0.85065 0.0
H3203 H 0.44623 0.11039 0.87356 0.0
H3204 H 0.92061 0.00127 0.3196 0.0
H3205 H 0.9524 0.98248 0.33109 0.0
H3206 H 0.95023 0.94499 0.27215 0.0
H3207 H 0.91839 0.964 0.26029 0.0
H3208 H 0.95787 0.93819 0.33605 0.0
H3209 H 0.01444 0.97504 0.27393 0.0
H3210 H 0.98771 0.98504 0.27999 0.0
H3211 H 0.98903 0.96004 0.26506 0.0
C3212 C 0.92668 0.98887 0.30912 0.0
C3213 C 0.91707 0.98429 0.28894 0.0
C3214 C 0.94487 0.97813 0.31573 0.0
C3215 C 0.9539 0.96263 0.30231 0.0
C3216 C 0.94373 0.95719 0.28257 0.0
H3217 H 0.06019 0.90078 0.36692 0.0
H3218 H 0.03102 0.90332 0.34006 0.0
C3219 C 0.92543 0.96794 0.27592 0.0
C3220 C 0.97444 0.95299 0.30906 0.0
H3221 H 0.03078 0.95536 0.30036 0.0
C3222 C 0.97377 0.94154 0.32806 0.0
C3223 C 0.99513 0.95754 0.29858 0.0
C3224 C -0.00317 0.97019 0.27832 0.0
C3225 C 0.99338 0.93555 0.33756 0.0
C3226 C 0.01421 0.94079 0.3275 0.0
C3227 C 0.01477 0.95125 0.30791 0.0
C3228 C 0.03553 0.93831 0.33867 0.0
C3229 C 0.99171 0.925 0.35901 0.0
C3230 C 0.04871 0.95699 0.34562 0.0
C3231 C 0.06575 0.95543 0.36049 0.0
C3232 C 0.07006 0.93517 0.36832 0.0
C3233 C 0.05803 0.91637 0.36016 0.0
C3234 C 0.04103 0.91789 0.34521 0.0
H3235 H 0.97486 0.92561 0.36622 0.0
H3236 H 0.99512 0.9077 0.35713 0.0
H3237 H 0.00423 0.93306 0.37026 0.0
H3238 H 0.04468 0.97293 0.34087 0.0
H3239 H 0.07447 0.97018 0.367 0.0
H3240 H 0.47598 0.34818 0.2004 0.0
H3241 H 0.46615 0.36211 0.2356 0.0
H3242 H 0.53104 0.34963 0.2594 0.0
H3243 H 0.54098 0.3355 0.22426 0.0
H3244 H 0.49763 0.33008 0.28261 0.0
H3245 H 0.48204 0.41588 0.27298 0.0
H3246 H 0.46761 0.39906 0.25287 0.0
H3247 H 0.49771 0.40118 0.25371 0.0
C3248 C 0.48839 0.34891 0.21295 0.0
C3249 C 0.5092 0.34055 0.20953 0.0
C3250 C 0.4828 0.35703 0.23307 0.0
C3251 C 0.49793 0.35709 0.25012 0.0
C3252 C 0.51915 0.34984 0.24645 0.0
H3253 H 0.43348 0.39794 0.36881 0.0
H3254 H 0.46531 0.39458 0.34467 0.0
C3255 C 0.52479 0.34176 0.22633 0.0
C3256 C 0.49032 0.36168 0.27215 0.0
H3257 H 0.46139 0.39716 0.30144 0.0
C3258 C 0.49018 0.34498 0.28691 0.0
C3259 C 0.48108 0.38126 0.27804 0.0
C3260 C 0.48234 0.40044 0.26361 0.0
C3261 C 0.47923 0.34655 0.30657 0.0
C3262 C 0.46781 0.36514 0.31142 0.0
C3263 C 0.4698 0.38271 0.29758 0.0
C3264 C 0.45095 0.36527 0.32872 0.0
C3265 C 0.47925 0.32788 0.32158 0.0
C3266 C 0.43261 0.34962 0.3281 0.0
C3267 C 0.41451 0.3515 0.34174 0.0
C3268 C 0.41428 0.36913 0.35628 0.0
C3269 C 0.43328 0.38404 0.35792 0.0
C3270 C 0.45139 0.38225 0.34405 0.0
H3271 H 0.49486 0.31953 0.31988 0.0
H3272 H 0.47755 0.3334 0.33843 0.0
H3273 H 0.46504 0.31581 0.31759 0.0
H3274 H 0.43163 0.33664 0.31614 0.0
H3275 H 0.40012 0.33978 0.34005 0.0
H3276 H 0.44294 0.7925 0.91585 0.0
H3277 H 0.42786 0.78348 0.95089 0.0
H3278 H 0.4645 0.8404 0.97836 0.0
H3279 H 0.47991 0.84944 0.94335 0.0
H3280 H 0.47434 0.80392 -0.00281 0.0
H3281 H 0.38255 0.80351 0.99305 0.0
H3282 H 0.39326 0.78944 0.97047 0.0
H3283 H 0.40086 0.81809 0.97445 0.0
C3284 C 0.44729 0.80348 0.9292 0.0
C3285 C 0.46281 0.82158 0.9268 0.0
C3286 C 0.43848 0.79839 0.94925 0.0
C3287 C 0.44485 0.81139 0.96727 0.0
C3288 C 0.45922 0.83023 0.96467 0.0
H3289 H 0.43101 0.75097 0.09445 0.0
H3290 H 0.43745 0.78103 0.06948 0.0
C3291 C 0.46802 0.83536 0.94461 0.0
C3292 C 0.43951 0.80324 0.98887 0.0
H3293 H 0.39704 0.77842 0.01783 0.0
C3294 C 0.4574 0.79897 0.00209 0.0
C3295 C 0.41739 0.79692 -0.00468 0.0
C3296 C 0.39742 0.80246 0.98266 0.0
C3297 C 0.4539 0.78673 0.0205 0.0
C3298 C 0.43193 0.77874 0.02586 0.0
C3299 C 0.41389 0.78452 0.01363 0.0
C3300 C 0.42777 0.76136 0.04148 0.0
C3301 C 0.47382 0.78091 0.03312 0.0
C3302 C 0.4208 0.7404 0.03389 0.0
C3303 C 0.41806 0.72326 0.04783 0.0
C3304 C 0.42171 0.7268 0.06977 0.0
C3305 C 0.42815 0.74789 0.07757 0.0
C3306 C 0.43163 0.76502 0.0634 0.0
H3307 H 0.48993 0.78686 0.02573 0.0
H3308 H 0.47314 0.78814 0.04944 0.0
H3309 H 0.47346 0.76302 0.03457 0.0
H3310 H 0.4179 0.73721 0.01702 0.0
H3311 H 0.41278 0.70719 0.04145 0.0
H3312 H 0.03802 0.73486 0.69292 0.0
H3313 H 0.0457 0.71789 0.7264 0.0
H3314 H 0.9792 0.72786 0.74851 0.0
H3315 H 0.97151 0.74536 0.71512 0.0
H3316 H 0.00995 0.74499 0.77573 0.0
H3317 H 0.03046 0.66149 0.7556 0.0
H3318 H 0.04484 0.6807 0.73844 0.0
H3319 H 0.01475 0.67707 0.73787 0.0
C3320 C 0.0248 0.73296 0.70464 0.0
C3321 C 0.00422 0.74166 0.7014 0.0
C3322 C 0.02915 0.72302 0.72376 0.0
C3323 C 0.01293 0.72131 0.73991 0.0
C3324 C 0.99192 0.72887 0.73623 0.0
H3325 H 0.06832 0.67409 0.85868 0.0
H3326 H 0.03938 0.67782 0.83173 0.0
C3327 C 0.98757 0.7389 0.71713 0.0
C3328 C 0.01927 0.7149 0.76156 0.0
H3329 H 0.04829 0.67829 0.78739 0.0
C3330 C 0.01777 0.7301 0.7784 0.0
C3331 C 0.02914 0.69534 0.76528 0.0
C3332 C 0.02966 0.67762 0.74837 0.0
C3333 C 0.02766 0.72719 0.79822 0.0
C3334 C 0.03962 0.70876 0.80115 0.0
C3335 C 0.03937 0.69259 0.78502 0.0
C3336 C 0.05516 0.70763 0.81928 0.0
C3337 C 0.02611 0.74437 0.81553 0.0
C3338 C 0.07343 0.72325 0.82131 0.0
C3339 C 0.08998 0.72108 0.83644 0.0
C3340 C 0.08859 0.70326 0.84995 0.0
C3341 C 0.06971 0.68814 0.84865 0.0
C3342 C 0.05324 0.69017 0.83321 0.0
H3343 H 0.01072 0.75297 0.81378 0.0
H3344 H 0.02619 0.73726 0.83159 0.0
H3345 H 0.04067 0.75658 0.81434 0.0
H3346 H 0.07544 0.73663 0.81047 0.0
H3347 H 0.10432 0.73294 0.83701 0.0
H3348 H 0.04249 0.33867 0.41549 0.0
H3349 H 0.06218 0.34559 0.44924 0.0
H3350 H 0.06117 0.27668 0.45891 0.0
H3351 H 0.04095 0.26961 0.42535 0.0
H3352 H 0.0456 0.29666 0.49286 0.0
H3353 H 0.12491 0.34123 0.46957 0.0
H3354 H 0.10177 0.35352 0.45838 0.0
H3355 H 0.10689 0.32614 0.45044 0.0
C3356 C 0.0469 0.32496 0.42454 0.0
C3357 C 0.0401 0.3036 0.41778 0.0
C3358 C 0.0583 0.32894 0.44381 0.0
C3359 C 0.06344 0.31164 0.45651 0.0
C3360 C 0.05748 0.29026 0.44934 0.0
H3361 H 0.131 0.36184 0.57298 0.0
H3362 H 0.12331 0.336 0.5432 0.0
C3363 C 0.04594 0.28627 0.43014 0.0
C3364 C 0.0727 0.31606 0.47822 0.0
H3365 H 0.11198 0.34865 0.50559 0.0
C3366 C 0.06043 0.30764 0.49565 0.0
C3367 C 0.09233 0.32993 0.48196 0.0
C3368 C 0.10734 0.338 0.46405 0.0
C3369 C 0.06624 0.31412 0.51663 0.0
C3370 C 0.08445 0.32983 0.52021 0.0
C3371 C 0.0978 0.33684 0.5029 0.0
C3372 C 0.08821 0.34134 0.54109 0.0
C3373 C 0.05241 0.30446 0.53467 0.0
C3374 C 0.07096 0.35245 0.55025 0.0
C3375 C 0.07525 0.36676 0.56756 0.0
C3376 C 0.09692 0.37038 0.57599 0.0
C3377 C 0.11398 0.35859 0.56746 0.0
C3378 C 0.10966 0.34411 0.55019 0.0
H3379 H 0.04591 0.2875 0.53063 0.0
H3380 H 0.06219 0.30455 0.54967 0.0
H3381 H 0.03778 0.31402 0.53738 0.0
H3382 H 0.05445 0.35116 0.54317 0.0
H3383 H 0.06189 0.37591 0.57363 0.0
H3384 H 0.53421 0.74305 0.33384 0.0
H3385 H 0.52523 0.73505 0.2963 0.0
H3386 H 0.45517 0.72669 0.31186 0.0
H3387 H 0.46386 0.73486 0.34943 0.0
H3388 H 0.48042 0.69395 0.27808 0.0
H3389 H 0.48388 0.7832 0.26551 0.0
H3390 H 0.50501 0.77188 0.28119 0.0
H3391 H 0.47715 0.77225 0.29133 0.0
C3392 C 0.51691 0.73902 0.32941 0.0
C3393 C 0.4997 0.73975 0.34465 0.0
C3394 C 0.51185 0.73449 0.30793 0.0
C3395 C 0.48958 0.73041 0.30142 0.0
C3396 C 0.47248 0.7298 0.31669 0.0
H3397 H 0.39885 0.73295 0.2039 0.0
H3398 H 0.42438 0.73805 0.23384 0.0
C3399 C 0.47748 0.73447 0.33814 0.0
C3400 C 0.48374 0.72886 0.27857 0.0
H3401 H 0.46928 0.76016 0.23766 0.0
C3402 C 0.47842 0.70835 0.269 0.0
C3403 C 0.48129 0.74776 0.2669 0.0
C3404 C 0.48709 0.7701 0.27661 0.0
C3405 C 0.46951 0.70627 0.24829 0.0
C3406 C 0.46579 0.72522 0.23709 0.0
C3407 C 0.47225 0.7457 0.24629 0.0
C3408 C 0.4518 0.72414 0.21765 0.0
C3409 C 0.46284 0.68392 0.23901 0.0
C3410 C 0.45904 0.71532 0.19829 0.0
C3411 C 0.4444 0.71238 0.18087 0.0
C3412 C 0.42224 0.71803 0.18273 0.0
C3413 C 0.41563 0.72805 0.20186 0.0
C3414 C 0.43024 0.73106 0.21907 0.0
H3415 H 0.4657 0.67088 0.25029 0.0
H3416 H 0.44491 0.68257 0.23444 0.0
H3417 H 0.47269 0.68126 0.22437 0.0
H3418 H 0.47579 0.71033 0.19686 0.0
H3419 H 0.4502 0.70504 0.16628 0.0
H3420 H 0.03887 0.75435 0.1004 0.0
H3421 H 0.06029 0.73792 0.07206 0.0
H3422 H 0.04023 0.78526 0.02821 0.0
H3423 H 0.0193 0.8021 0.05654 0.0
H3424 H 0.03925 0.71921 0.03848 0.0
H3425 H 0.10414 0.7804 0.00974 0.0
H3426 H 0.09027 0.78331 0.03509 0.0
H3427 H 0.0771 0.79069 0.01089 0.0
C3428 C 0.03954 0.76164 0.08488 0.0
C3429 C 0.02719 0.77938 0.08066 0.0
C3430 C 0.05182 0.75226 0.0687 0.0
C3431 C 0.05197 0.7604 0.04801 0.0
C3432 C 0.0408 0.77895 0.04412 0.0
H3433 H 0.0496 0.68134 0.93398 0.0
H3434 H 0.04331 0.70863 0.9619 0.0
C3435 C 0.02866 0.78847 0.06034 0.0
C3436 C 0.0605 0.74751 0.02997 0.0
H3437 H 0.0933 0.75047 0.98543 0.0
C3438 C 0.05132 0.72601 0.02708 0.0
C3439 C 0.07631 0.75632 0.01509 0.0
C3440 C 0.0877 0.77888 0.01796 0.0
C3441 C 0.05693 0.71329 0.00944 0.0
C3442 C 0.07174 0.72246 0.99394 0.0
C3443 C 0.08163 0.74367 -0.00286 0.0
C3444 C 0.07695 0.70992 0.97446 0.0
C3445 C 0.04688 0.69009 0.00752 0.0
C3446 C 0.09826 0.70257 0.97164 0.0
C3447 C 0.10193 0.68728 0.95547 0.0
C3448 C 0.08436 0.67931 0.94196 0.0
C3449 C 0.06344 0.68761 0.94403 0.0
C3450 C 0.05984 0.70304 0.96001 0.0
H3451 H 0.04052 0.68398 0.02307 0.0
H3452 H 0.03262 0.68917 -0.00378 0.0
H3453 H 0.05932 0.6792 0.00133 0.0
H3454 H 0.11163 0.70763 0.98271 0.0
H3455 H 0.11799 0.68054 0.95456 0.0
H3456 H 0.00203 0.32111 0.83125 0.0
H3457 H 0.01019 0.33567 0.79597 0.0
H3458 H 0.07684 0.35796 0.81647 0.0
H3459 H 0.06893 0.34342 0.85185 0.0
H3460 H 0.05195 0.3879 0.78921 0.0
H3461 H 0.05486 0.30333 0.75665 0.0
H3462 H 0.03077 0.30984 0.77186 0.0
H3463 H 0.05731 0.30958 0.78484 0.0
C3464 C 0.01831 0.32948 0.82843 0.0
C3465 C 0.03493 0.33093 0.84433 0.0
C3466 C 0.02293 0.33771 0.80822 0.0
C3467 C 0.04417 0.34761 0.80361 0.0
C3468 C 0.06034 0.3503 0.81977 0.0
H3469 H 0.13547 0.39154 0.71192 0.0
H3470 H 0.1111 0.38328 0.74219 0.0
C3471 C 0.0558 0.34198 0.83997 0.0
C3472 C 0.0503 0.35365 0.78159 0.0
H3473 H 0.0664 0.3318 0.73409 0.0
C3474 C 0.05477 0.37568 0.77702 0.0
C3475 C 0.05365 0.33763 0.76567 0.0
C3476 C 0.04902 0.31374 0.76986 0.0
C3477 C 0.0635 0.38208 0.75719 0.0
C3478 C 0.06844 0.366 0.74187 0.0
C3479 C 0.06266 0.34405 0.74594 0.0
C3480 C 0.08248 0.37147 0.72306 0.0
C3481 C 0.06795 0.40597 0.75294 0.0
C3482 C 0.07463 0.36697 0.70222 0.0
C3483 C 0.08864 0.37165 0.68475 0.0
C3484 C 0.11074 0.38056 0.68798 0.0
C3485 C 0.11855 0.38461 0.7089 0.0
C3486 C 0.10457 0.38015 0.72622 0.0
H3487 H 0.05711 0.41586 0.76289 0.0
H3488 H 0.08561 0.41124 0.75693 0.0
H3489 H 0.06517 0.40933 0.73589 0.0
H3490 H 0.05769 0.35997 0.69951 0.0
H3491 H 0.08231 0.36812 0.66879 0.0
H3492 H 0.43517 0.31784 0.59644 0.0
H3493 H 0.4175 0.3277 0.56351 0.0
H3494 H 0.46104 0.28866 0.52716 0.0
H3495 H 0.47963 0.27979 0.56005 0.0
H3496 H 0.4621 0.32578 0.51101 0.0
H3497 H 0.37262 0.30138 0.52296 0.0
H3498 H 0.38339 0.31731 0.54535 0.0
H3499 H 0.39403 0.29139 0.53933 0.0
C3500 C 0.44068 0.31104 0.58146 0.0
C3501 C 0.45884 0.29814 0.5808 0.0
C3502 C 0.43036 0.31647 0.5626 0.0
C3503 C 0.43752 0.30855 0.54275 0.0
C3504 C 0.45508 0.29489 0.54222 0.0
H3505 H 0.40492 0.37181 0.4222 0.0
H3506 H 0.40966 0.34006 0.44433 0.0
C3507 C 0.46574 0.28987 0.56103 0.0
C3508 C 0.42883 0.31692 0.52262 0.0
H3509 H 0.38128 0.33174 0.49936 0.0
C3510 C 0.44437 0.3264 0.5081 0.0
C3511 C 0.4057 0.31765 0.51857 0.0
C3512 C 0.38803 0.30613 0.53228 0.0
C3513 C 0.43751 0.33816 0.49083 0.0
C3514 C 0.41455 0.34064 0.48805 0.0
C3515 C 0.39888 0.32986 0.50154 0.0
C3516 C 0.40736 0.35783 0.4743 0.0
C3517 C 0.45496 0.3494 0.47665 0.0
C3518 C 0.40397 0.37798 0.48387 0.0
C3519 C 0.40171 0.39596 0.47141 0.0
C3520 C 0.40238 0.39408 0.4491 0.0
C3521 C 0.40427 0.3736 0.43937 0.0
C3522 C 0.40695 0.35553 0.45196 0.0
H3523 H 0.47216 0.34554 0.48073 0.0
H3524 H 0.45155 0.34446 0.45977 0.0
H3525 H 0.45415 0.36726 0.47807 0.0
H3526 H 0.40436 0.38008 0.50106 0.0
H3527 H 0.40011 0.41156 0.47928 0.0
H3528 H 0.15452 0.48717 0.32727 0.0
H3529 H 0.18496 0.4682 0.34176 0.0
H3530 H 0.22646 0.52853 0.34632 0.0
H3531 H 0.19606 0.54773 0.33196 0.0
H3532 H 0.22539 0.46863 0.31913 0.0
H3533 H 0.23943 0.49831 0.40276 0.0
H3534 H 0.2134 0.50051 0.38884 0.0
H3535 H 0.23733 0.51895 0.38339 0.0
C3536 C 0.16991 0.49653 0.33183 0.0
C3537 C 0.17292 0.51894 0.32825 0.0
C3538 C 0.18729 0.48565 0.34013 0.0
C3539 C 0.20792 0.49697 0.34517 0.0
C3540 C 0.21056 0.51954 0.34283 0.0
H3541 H 0.33295 0.43606 0.33659 0.0
H3542 H 0.30416 0.46191 0.33421 0.0
C3543 C 0.19318 0.53046 0.33451 0.0
C3544 C 0.22743 0.48476 0.34993 0.0
H3545 H 0.26626 0.47644 0.38779 0.0
C3546 C 0.23444 0.47043 0.3341 0.0
C3547 C 0.23905 0.48705 0.36952 0.0
C3548 C 0.23188 0.5019 0.38722 0.0
C3549 C 0.25288 0.45842 0.3372 0.0
C3550 C 0.26495 0.4611 0.35657 0.0
C3551 C 0.25758 0.47502 0.37266 0.0
C3552 C 0.28454 0.44866 0.36056 0.0
C3553 C 0.2588 0.44248 0.31989 0.0
C3554 C 0.28383 0.43369 0.37703 0.0
C3555 C 0.30048 0.41931 0.37863 0.0
C3556 C 0.31809 0.41983 0.36389 0.0
C3557 C 0.31961 0.43564 0.34826 0.0
C3558 C 0.30307 0.45018 0.34677 0.0
H3559 H 0.24458 0.43824 0.30883 0.0
H3560 H 0.27295 0.44986 0.3104 0.0
H3561 H 0.26392 0.42729 0.32676 0.0
H3562 H 0.26976 0.43228 0.38787 0.0
H3563 H 0.29891 0.40696 0.3906 0.0
H3564 H 0.22826 0.4945 0.03628 0.0
H3565 H 0.24006 0.53135 0.04915 0.0
H3566 H 0.3062 0.51216 0.06105 0.0
H3567 H 0.29453 0.47521 0.04844 0.0
H3568 H 0.29044 0.54074 0.0928 0.0
H3569 H 0.28054 0.57088 0.01075 0.0
H3570 H 0.25627 0.5569 0.02246 0.0
H3571 H 0.28016 0.54234 0.01617 0.0
C3572 C 0.24522 0.49798 0.042 0.0
C3573 C 0.26053 0.48194 0.04111 0.0
C3574 C 0.25195 0.51911 0.04924 0.0
C3575 C 0.27411 0.52458 0.05563 0.0
C3576 C 0.28903 0.50829 0.05607 0.0
H3577 H 0.3718 0.62645 0.05346 0.0
H3578 H 0.34207 0.598 0.0463 0.0
C3579 C 0.28232 0.48715 0.04887 0.0
C3580 C 0.2824 0.54747 0.0604 0.0
H3581 H 0.29629 0.59575 0.03645 0.0
C3582 C 0.29137 0.55294 0.08064 0.0
C3583 C 0.28363 0.56328 0.04441 0.0
C3584 C 0.27481 0.55814 0.02217 0.0
C3585 C 0.30251 0.57347 0.08505 0.0
C3586 C 0.30447 0.589 0.06881 0.0
C3587 C 0.29453 0.58388 0.0489 0.0
C3588 C 0.32008 0.60885 0.07097 0.0
C3589 C 0.31338 0.57787 0.10657 0.0
C3590 C 0.31709 0.62514 0.08649 0.0
C3591 C 0.33416 0.64165 0.09055 0.0
C3592 C 0.35444 0.64187 0.0793 0.0
C3593 C 0.35649 0.62659 0.0626 0.0
C3594 C 0.33947 0.6103 0.05846 0.0
H3595 H 0.31265 0.56312 0.11637 0.0
H3596 H 0.33116 0.58405 0.10468 0.0
H3597 H 0.30473 0.59051 0.11537 0.0
H3598 H 0.30206 0.62452 0.09608 0.0
H3599 H 0.33207 0.65335 0.10336 0.0
H3600 H 0.33625 0.57535 0.85619 0.0
H3601 H 0.3034 0.59233 0.8691 0.0
H3602 H 0.26385 0.53097 0.86253 0.0
H3603 H 0.29661 0.51385 0.84962 0.0
H3604 H 0.24538 0.56213 0.84192 0.0
H3605 H 0.26652 0.59311 0.92296 0.0
H3606 H 0.28908 0.60051 0.9051 0.0
H3607 H 0.28126 0.57223 0.90987 0.0
C3608 C 0.32071 0.56532 0.85804 0.0
C3609 C 0.31905 0.54328 0.85175 0.0
C3610 C 0.30194 0.57503 0.8656 0.0
C3611 C 0.28117 0.56287 0.86712 0.0
C3612 C 0.27971 0.54063 0.86178 0.0
H3613 H 0.15626 0.63057 0.87163 0.0
H3614 H 0.17978 0.60008 0.87487 0.0
C3615 C 0.29851 0.53088 0.85434 0.0
C3616 C 0.26069 0.57414 0.87138 0.0
H3617 H 0.24124 0.61398 0.90299 0.0
C3618 C 0.24401 0.57297 0.85563 0.0
C3619 C 0.25878 0.58806 0.88937 0.0
C3620 C 0.27476 0.58836 0.90789 0.0
C3621 C 0.22659 0.58677 0.85645 0.0
C3622 C 0.22589 0.6021 0.87349 0.0
C3623 C 0.24173 0.60223 0.88994 0.0
C3624 C 0.21107 0.62008 0.87295 0.0
C3625 C 0.21013 0.58601 0.83826 0.0
C3626 C 0.22083 0.64136 0.87123 0.0
C3627 C 0.20752 0.65864 0.86958 0.0
C3628 C 0.18412 0.65509 0.86984 0.0
C3629 C 0.17424 0.6338 0.87172 0.0
C3630 C 0.18765 0.61637 0.87333 0.0
H3631 H 0.21486 0.57521 0.82489 0.0
H3632 H 0.19336 0.57987 0.84403 0.0
H3633 H 0.20883 0.60254 0.83211 0.0
H3634 H 0.23884 0.6446 0.8708 0.0
H3635 H 0.21564 0.67487 0.8682 0.0
H3636 H 0.29226 0.59757 0.53203 0.0
H3637 H 0.27827 0.56175 0.54434 0.0
H3638 H 0.21624 0.58704 0.56311 0.0
H3639 H 0.23006 0.62299 0.55092 0.0
H3640 H 0.23406 0.55689 0.59261 0.0
H3641 H 0.22878 0.52609 0.50847 0.0
H3642 H 0.25546 0.5384 0.51736 0.0
H3643 H 0.23225 0.5547 0.51529 0.0
C3644 C 0.27577 0.59564 0.53911 0.0
C3645 C 0.26217 0.61311 0.5403 0.0
C3646 C 0.2678 0.57512 0.54606 0.0
C3647 C 0.24613 0.57172 0.55433 0.0
C3648 C 0.23301 0.58936 0.5567 0.0
H3649 H 0.14302 0.4732 0.56099 0.0
H3650 H 0.17167 0.50163 0.55175 0.0
C3651 C 0.24093 0.60989 0.54971 0.0
C3652 C 0.23639 0.54956 0.55906 0.0
H3653 H 0.2153 0.50216 0.53483 0.0
C3654 C 0.23025 0.54474 0.58008 0.0
C3655 C 0.23139 0.53387 0.54258 0.0
C3656 C 0.23713 0.53844 0.51961 0.0
C3657 C 0.2185 0.52487 0.585 0.0
C3658 C 0.21291 0.50944 0.5684 0.0
C3659 C 0.21981 0.51396 0.5475 0.0
C3660 C 0.19714 0.49011 0.57188 0.0
C3661 C 0.21108 0.52102 0.60768 0.0
C3662 C 0.2023 0.47358 0.58551 0.0
C3663 C 0.18589 0.45712 0.59078 0.0
C3664 C 0.16407 0.45711 0.58261 0.0
C3665 C 0.15956 0.47283 0.56776 0.0
C3666 C 0.17593 0.48912 0.56244 0.0
H3667 H 0.21408 0.53583 0.61802 0.0
H3668 H 0.19301 0.5155 0.6082 0.0
H3669 H 0.22045 0.50807 0.61443 0.0
H3670 H 0.21873 0.47387 0.59267 0.0
H3671 H 0.18994 0.44517 0.60215 0.0
H3672 H 0.2125 0.53265 0.24574 0.0
H3673 H 0.2476 0.54289 0.22737 0.0
H3674 H 0.23153 0.60957 0.22749 0.0
H3675 H 0.1965 0.59955 0.24614 0.0
H3676 H 0.2559 0.56188 0.18863 0.0
H3677 H 0.29387 0.61416 0.25399 0.0
H3678 H 0.26943 0.59557 0.25781 0.0
H3679 H 0.26679 0.62178 0.24668 0.0
C3680 C 0.21639 0.54951 0.24184 0.0
C3681 C 0.20174 0.56533 0.24754 0.0
C3682 C 0.23648 0.55531 0.23135 0.0
C3683 C 0.2424 0.57704 0.22646 0.0
C3684 C 0.22755 0.59277 0.23159 0.0
H3685 H 0.31739 0.64659 0.13834 0.0
H3686 H 0.29342 0.61865 0.15552 0.0
C3687 C 0.20744 0.587 0.2421 0.0
C3688 C 0.26389 0.5833 0.21566 0.0
H3689 H 0.31007 0.6193 0.21924 0.0
C3690 C 0.26795 0.57418 0.19546 0.0
C3691 C 0.27996 0.59883 0.22482 0.0
C3692 C 0.27744 0.60798 0.24712 0.0
C3693 C 0.2868 0.58143 0.18351 0.0
C3694 C 0.30175 0.59844 0.19187 0.0
C3695 C 0.29857 0.60634 0.21272 0.0
C3696 C 0.31835 0.61077 0.17829 0.0
C3697 C 0.29016 0.57122 0.1618 0.0
C3698 C 0.3407 0.6153 0.18489 0.0
C3699 C 0.35466 0.63125 0.17474 0.0
C3700 C 0.34622 0.643 0.15818 0.0
C3701 C 0.32442 0.63739 0.15074 0.0
C3702 C 0.31068 0.62137 0.1606 0.0
H3703 H 0.28343 0.55392 0.16127 0.0
H3704 H 0.28094 0.57983 0.14978 0.0
H3705 H 0.30811 0.57219 0.15733 0.0
H3706 H 0.34689 0.60748 0.19867 0.0
H3707 H 0.37128 0.63564 0.18098 0.0
H3708 H 0.23343 0.46593 0.95284 0.0
H3709 H 0.22013 0.49879 0.93866 0.0
H3710 H 0.28221 0.53486 0.95644 0.0
H3711 H 0.29555 0.50202 0.97115 0.0
H3712 H 0.24651 0.55387 0.97177 0.0
H3713 H 0.23138 0.53411 0.8864 0.0
H3714 H 0.22093 0.51239 0.90294 0.0
H3715 H 0.25052 0.52013 0.90226 0.0
C3716 C 0.24452 0.48069 0.95328 0.0
C3717 C 0.26553 0.48132 0.96318 0.0
C3718 C 0.23695 0.49948 0.94498 0.0
C3719 C 0.25033 0.51925 0.94613 0.0
C3720 C 0.27171 0.51975 0.9552 0.0
H3721 H 0.1854 0.64127 0.92512 0.0
H3722 H 0.21643 0.61876 0.93157 0.0
C3723 C 0.27929 0.50094 0.96356 0.0
C3724 C 0.24066 0.53961 0.94038 0.0
H3725 H 0.20855 0.56033 0.90242 0.0
C3726 C 0.23874 0.55565 0.9564 0.0
C3727 C 0.23075 0.54204 0.92027 0.0
C3728 C 0.23372 0.52636 0.90191 0.0
C3729 C 0.22538 0.57293 0.95347 0.0
C3730 C 0.21382 0.57414 0.93403 0.0
C3731 C 0.21723 0.55914 0.91744 0.0
C3732 C 0.19554 0.58848 0.93165 0.0
C3733 C 0.22232 0.58879 0.97166 0.0
C3734 C 0.17359 0.57896 0.93021 0.0
C3735 C 0.15592 0.59169 0.92702 0.0
C3736 C 0.15984 0.61428 0.92488 0.0
C3737 C 0.18186 0.62392 0.92673 0.0
C3738 C 0.19959 0.6111 0.9303 0.0
H3739 H 0.2314 0.58473 0.98625 0.0
H3740 H 0.22858 0.60537 0.96689 0.0
H3741 H 0.20429 0.58908 0.97552 0.0
H3742 H 0.17013 0.56154 0.93134 0.0
H3743 H 0.13924 0.58366 0.92553 0.0
H3744 H 0.30819 0.51262 0.7856 0.0
H3745 H 0.27389 0.5032 0.76552 0.0
H3746 H 0.30543 0.52922 0.70878 0.0
H3747 H 0.33967 0.53972 0.7292 0.0
H3748 H 0.26283 0.53958 0.71152 0.0
H3749 H 0.26526 0.45181 0.7259 0.0
H3750 H 0.26481 0.46733 0.75035 0.0
H3751 H 0.28833 0.47132 0.73259 0.0
C3752 C 0.30789 0.51623 0.76881 0.0
C3753 C 0.32673 0.52655 0.75885 0.0
C3754 C 0.28827 0.51081 0.75734 0.0
C3755 C 0.28725 0.51498 0.73551 0.0
C3756 C 0.30588 0.52572 0.72559 0.0
H3757 H 0.20041 0.46399 0.63702 0.0
H3758 H 0.22625 0.48961 0.65693 0.0
C3759 C 0.32545 0.53159 0.73721 0.0
C3760 C 0.2669 0.50759 0.72306 0.0
H3761 H 0.23176 0.46266 0.71114 0.0
C3762 C 0.25604 0.52276 0.71139 0.0
C3763 C 0.25817 0.48557 0.72271 0.0
C3764 C 0.26988 0.46805 0.73336 0.0
C3765 C 0.23651 0.51648 0.69965 0.0
C3766 C 0.22759 0.49464 0.69986 0.0
C3767 C 0.23841 0.47954 0.71148 0.0
C3768 C 0.20825 0.4862 0.68669 0.0
C3769 C 0.22548 0.53309 0.68712 0.0
C3770 C 0.18893 0.47675 0.69657 0.0
C3771 C 0.17396 0.46234 0.68509 0.0
C3772 C 0.17837 0.45709 0.66373 0.0
C3773 C 0.19647 0.46819 0.65336 0.0
C3774 C 0.21126 0.48279 0.66475 0.0
H3775 H 0.23217 0.54994 0.69142 0.0
H3776 H 0.2284 0.53017 0.66986 0.0
H3777 H 0.20713 0.53151 0.6898 0.0
H3778 H 0.18652 0.47899 0.71357 0.0
H3779 H 0.16039 0.45355 0.69348 0.0
H3780 H 0.22674 0.60768 0.45247 0.0
H3781 H 0.23646 0.57339 0.43601 0.0
H3782 H 0.30632 0.59221 0.44745 0.0
H3783 H 0.29684 0.62669 0.46314 0.0
H3784 H 0.30021 0.57111 0.40976 0.0
H3785 H 0.25327 0.52488 0.47279 0.0
H3786 H 0.2369 0.54116 0.4567 0.0
H3787 H 0.25813 0.55405 0.47403 0.0
C3788 C 0.2442 0.60466 0.45111 0.0
C3789 C 0.26101 0.61982 0.45932 0.0
C3790 C 0.2497 0.58497 0.44187 0.0
C3791 C 0.27207 0.57997 0.44102 0.0
C3792 C 0.28892 0.59565 0.44803 0.0
H3793 H 0.34068 0.46892 0.45406 0.0
H3794 H 0.31659 0.49888 0.45678 0.0
C3795 C 0.28347 0.6154 0.45701 0.0
C3796 C 0.27817 0.55808 0.43416 0.0
H3797 H 0.27378 0.50501 0.44868 0.0
C3798 C 0.29425 0.55658 0.41806 0.0
C3799 C 0.27039 0.53916 0.44512 0.0
C3800 C 0.25386 0.5398 0.46323 0.0
C3801 C 0.30374 0.53701 0.41344 0.0
C3802 C 0.29636 0.5182 0.42477 0.0
C3803 C 0.27933 0.51942 0.43998 0.0
C3804 C 0.30812 0.49803 0.42322 0.0
C3805 C 0.3226 0.5371 0.39749 0.0
C3806 C 0.31077 0.48707 0.40363 0.0
C3807 C 0.32434 0.46978 0.40217 0.0
C3808 C 0.33541 0.4632 0.42024 0.0
C3809 C 0.33197 0.4735 0.43998 0.0
C3810 C 0.31827 0.49063 0.4415 0.0
H3811 H 0.32944 0.55385 0.3938 0.0
H3812 H 0.33645 0.5281 0.40347 0.0
H3813 H 0.31632 0.5291 0.38239 0.0
H3814 H 0.30324 0.49249 0.38929 0.0
H3815 H 0.32752 0.46265 0.38668 0.0
H3816 H 0.31235 0.19024 0.48497 0.0
H3817 H 0.32743 0.2269 0.47643 0.0
H3818 H 0.30573 0.25072 0.53751 0.0
H3819 H 0.29048 0.2141 0.54619 0.0
H3820 H 0.28914 0.27186 0.50376 0.0
H3821 H 0.38051 0.26916 0.49456 0.0
H3822 H 0.36507 0.24679 0.48102 0.0
H3823 H 0.36352 0.2494 0.50959 0.0
C3824 C 0.31127 0.20314 0.49683 0.0
C3825 C 0.30004 0.19923 0.51619 0.0
C3826 C 0.32007 0.2241 0.49198 0.0
C3827 C 0.31791 0.24153 0.50643 0.0
C3828 C 0.30772 0.23748 0.52621 0.0
H3829 H 0.35669 0.37169 0.45443 0.0
H3830 H 0.35029 0.34518 0.48274 0.0
C3831 C 0.299 0.21651 0.53112 0.0
C3832 C 0.32324 0.26412 0.49949 0.0
H3833 H 0.36356 0.29668 0.47473 0.0
C3834 C 0.30558 0.27754 0.49798 0.0
C3835 C 0.34471 0.27165 0.49213 0.0
C3836 C 0.3646 0.25858 0.4946 0.0
C3837 C 0.3084 0.29742 0.48763 0.0
C3838 C 0.32933 0.30398 0.47859 0.0
C3839 C 0.34747 0.2915 0.48163 0.0
C3840 C 0.33152 0.32123 0.46271 0.0
C3841 C 0.28864 0.31067 0.48523 0.0
C3842 C 0.32251 0.31671 0.44238 0.0
C3843 C 0.32613 0.33165 0.42627 0.0
C3844 C 0.33893 0.3515 0.43011 0.0
C3845 C 0.34706 0.35645 0.45084 0.0
C3846 C 0.34351 0.34132 0.46702 0.0
H3847 H 0.27546 0.30638 0.49721 0.0
H3848 H 0.29389 0.3283 0.48685 0.0
H3849 H 0.28131 0.30753 0.46912 0.0
H3850 H 0.31321 0.30126 0.43879 0.0
H3851 H 0.31938 0.32728 0.41061 0.0
H3852 H 0.82096 0.37453 0.54262 0.0
H3853 H 0.8427 0.34534 0.55404 0.0
H3854 H 0.82213 0.30728 0.49787 0.0
H3855 H 0.80007 0.33639 0.48639 0.0
H3856 H 0.81305 0.28527 0.53329 0.0
H3857 H 0.90033 0.31968 0.53785 0.0
H3858 H 0.88283 0.33803 0.55092 0.0
H3859 H 0.87947 0.33215 0.52276 0.0
C3860 C 0.82145 0.36018 0.53241 0.0
C3861 C 0.80862 0.35776 0.51367 0.0
C3862 C 0.83409 0.34354 0.53887 0.0
C3863 C 0.8343 0.32417 0.52668 0.0
C3864 C 0.82236 0.32212 0.50744 0.0
H3865 H 0.86955 0.20854 0.59699 0.0
H3866 H 0.86545 0.22945 0.56445 0.0
C3867 C 0.80973 0.3388 0.50093 0.0
C3868 C 0.84418 0.3052 0.53579 0.0
H3869 H 0.88897 0.29263 0.56484 0.0
C3870 C 0.82995 0.28647 0.53954 0.0
C3871 C 0.86631 0.30658 0.54365 0.0
C3872 C 0.88315 0.32513 0.53834 0.0
C3873 C 0.83645 0.27025 0.55291 0.0
C3874 C 0.8577 0.27291 0.56273 0.0
C3875 C 0.87264 0.29064 0.55741 0.0
C3876 C 0.86285 0.26008 0.58142 0.0
C3877 C 0.81986 0.25138 0.55796 0.0
C3878 C 0.86327 0.27045 0.60151 0.0
C3879 C 0.8655 0.25867 0.61984 0.0
C3880 C 0.86766 0.23624 0.61854 0.0
C3881 C 0.86804 0.22584 0.59839 0.0
C3882 C 0.86558 0.23772 0.57987 0.0
H3883 H 0.80354 0.25238 0.5499 0.0
H3884 H 0.82669 0.23597 0.55278 0.0
H3885 H 0.817 0.25075 0.57542 0.0
H3886 H 0.8611 0.28765 0.60307 0.0
H3887 H 0.86531 0.26716 0.63515 0.0
H3888 H 0.44898 0.05491 0.21116 0.0
H3889 H 0.48458 0.07116 0.22557 0.0
H3890 H 0.45421 0.07748 0.28748 0.0
H3891 H 0.41855 0.06186 0.27315 0.0
H3892 H 0.4823 0.11275 0.27829 0.0
H3893 H 0.52374 0.03676 0.26221 0.0
H3894 H 0.51245 0.04887 0.23935 0.0
H3895 H 0.49397 0.03794 0.25967 0.0
C3896 C 0.44981 0.06007 0.22777 0.0
C3897 C 0.43097 0.05692 0.24106 0.0
C3898 C 0.47022 0.06919 0.23601 0.0
C3899 C 0.47218 0.07506 0.2577 0.0
C3900 C 0.45311 0.07296 0.27071 0.0
H3901 H 0.56456 0.0786 0.35546 0.0
H3902 H 0.53982 0.06996 0.32516 0.0
C3903 C 0.4327 0.06403 0.26248 0.0
C3904 C 0.4941 0.08249 0.26737 0.0
H3905 H 0.54455 0.06498 0.28084 0.0
C3906 C 0.49609 0.10249 0.27857 0.0
C3907 C 0.51198 0.06895 0.26779 0.0
C3908 C 0.51049 0.04686 0.25678 0.0
C3909 C 0.51492 0.10883 0.29113 0.0
C3910 C 0.53258 0.09508 0.29196 0.0
C3911 C 0.53111 0.0756 0.27989 0.0
C3912 C 0.55068 0.09887 0.30797 0.0
C3913 C 0.51506 0.12945 0.30453 0.0
C3914 C 0.56578 0.11752 0.3079 0.0
C3915 C 0.58013 0.12246 0.32526 0.0
C3916 C 0.57937 0.10885 0.34291 0.0
C3917 C 0.5654 0.08945 0.34214 0.0
C3918 C 0.55128 0.08447 0.32481 0.0
H3919 H 0.49856 0.13634 0.30466 0.0
H3920 H 0.51988 0.12653 0.32122 0.0
H3921 H 0.52754 0.14172 0.29799 0.0
H3922 H 0.56574 0.1287 0.29491 0.0
H3923 H 0.59066 0.13758 0.32551 0.0
H3924 H 0.69147 0.70481 0.05562 0.0
H3925 H 0.67474 0.73858 0.06439 0.0
H3926 H 0.68775 0.76068 0.00063 0.0
H3927 H 0.70456 0.72697 0.9917 0.0
H3928 H 0.70601 0.78907 0.03104 0.0
H3929 H 0.61764 0.76698 0.05087 0.0
H3930 H 0.63556 0.74972 0.06401 0.0
H3931 H 0.63416 0.74919 0.03533 0.0
C3932 C 0.69023 0.71657 0.04328 0.0
C3933 C 0.69953 0.71322 0.02302 0.0
C3934 C 0.68051 0.73585 0.04827 0.0
C3935 C 0.67979 0.75211 0.0331 0.0
C3936 C 0.68798 0.74832 0.01253 0.0
H3937 H 0.64017 0.8726 0.09758 0.0
H3938 H 0.64366 0.84963 0.06526 0.0
C3939 C 0.69761 0.729 0.00748 0.0
C3940 C 0.67369 0.77405 0.03982 0.0
H3941 H 0.63544 0.79903 0.06979 0.0
C3942 C 0.69025 0.79146 0.03886 0.0
C3943 C 0.65303 0.77737 0.04971 0.0
C3944 C 0.634 0.75985 0.04983 0.0
C3945 C 0.68761 0.81127 0.04958 0.0
C3946 C 0.66803 0.81366 0.06156 0.0
C3947 C 0.65051 0.79714 0.06062 0.0
C3948 C 0.66783 0.83005 0.0791 0.0
C3949 C 0.70653 0.82892 0.0495 0.0
C3950 C 0.68067 0.82701 0.09717 0.0
C3951 C 0.67816 0.83949 0.1156 0.0
C3952 C 0.66273 0.8554 0.11645 0.0
C3953 C 0.65137 0.85985 0.09772 0.0
C3954 C 0.65354 0.84691 0.0792 0.0
H3955 H 0.71721 0.8275 0.03514 0.0
H3956 H 0.70006 0.84524 0.05009 0.0
H3957 H 0.71713 0.82748 0.06378 0.0
H3958 H 0.69181 0.8141 0.09741 0.0
H3959 H 0.68763 0.83585 0.12954 0.0
H3960 H 0.58489 0.46147 0.26889 0.0
H3961 H 0.54912 0.44364 0.28059 0.0
H3962 H 0.51733 0.50246 0.26985 0.0
H3963 H 0.55253 0.51997 0.25748 0.0
H3964 H 0.52821 0.45447 0.31436 0.0
H3965 H 0.46925 0.45957 0.24823 0.0
H3966 H 0.49909 0.4641 0.24456 0.0
H3967 H 0.48299 0.48602 0.25341 0.0
C3968 C 0.57014 0.47041 0.26859 0.0
C3969 C 0.57159 0.49217 0.26237 0.0
C3970 C 0.5497 0.46019 0.27521 0.0
C3971 C 0.53037 0.47155 0.2758 0.0
C3972 C 0.53173 0.49305 0.26892 0.0
H3973 H 0.43631 0.47756 0.37232 0.0
H3974 H 0.46466 0.48158 0.34453 0.0
C3975 C 0.55203 0.50316 0.26208 0.0
C3976 C 0.50976 0.46242 0.28658 0.0
H3977 H 0.45275 0.46062 0.28419 0.0
C3978 C 0.51176 0.45528 0.30748 0.0
C3979 C 0.48818 0.46309 0.27764 0.0
C3980 C 0.48481 0.46838 0.25462 0.0
C3981 C 0.4929 0.45059 0.32021 0.0
C3982 C 0.4715 0.45361 0.31201 0.0
C3983 C 0.46925 0.45892 0.2906 0.0
C3984 C 0.45182 0.45315 0.32622 0.0
C3985 C 0.49617 0.44342 0.3427 0.0
C3986 C 0.43439 0.43662 0.32431 0.0
C3987 C 0.41791 0.43441 0.34012 0.0
C3988 C 0.41885 0.44863 0.35804 0.0
C3989 C 0.43528 0.4662 0.35886 0.0
C3990 C 0.45154 0.46848 0.34304 0.0
H3991 H 0.51175 0.43505 0.34417 0.0
H3992 H 0.49763 0.45792 0.35357 0.0
H3993 H 0.48185 0.43236 0.34805 0.0
H3994 H 0.43425 0.42475 0.31131 0.0
H3995 H 0.40549 0.42067 0.33907 0.0
H3996 H 0.24876 0.86325 0.99192 0.0
H3997 H 0.22529 0.82974 0.98507 0.0
H3998 H 0.16683 0.86179 0.0032 0.0
H3999 H 0.19032 0.89574 0.0101 0.0
H4000 H 0.19431 0.80587 0.01391 0.0
H4001 H 0.15355 0.83593 0.94187 0.0
H4002 H 0.17906 0.8494 0.95265 0.0
H4003 H 0.15309 0.85179 0.96629 0.0
C4004 C 0.23092 0.86329 0.99448 0.0
C4005 C 0.2214 0.88227 0.00142 0.0
C4006 C 0.21755 0.84405 0.99066 0.0
C4007 C 0.19436 0.84332 0.99356 0.0
C4008 C 0.18471 0.86209 0.00073 0.0
H4009 H 0.1152 0.73196 0.93493 0.0
H4010 H 0.12182 0.76324 0.95973 0.0
C4011 C 0.19814 0.88145 0.00466 0.0
C4012 C 0.1806 0.82292 0.98816 0.0
H4013 H 0.14825 0.79877 0.94823 0.0
C4014 C 0.18383 0.80435 -0.0002 0.0
C4015 C 0.16676 0.82105 0.96991 0.0
C4016 C 0.16286 0.84051 0.95681 0.0
C4017 C 0.17468 0.78372 0.9929 0.0
C4018 C 0.16241 0.78163 0.97367 0.0
C4019 C 0.15773 0.8004 0.96295 0.0
C4020 C 0.15733 0.76032 0.96259 0.0
C4021 C 0.17887 0.76428 0.00588 0.0
C4022 C 0.17504 0.74815 0.95622 0.0
C4023 C 0.1713 0.73048 0.94203 0.0
C4024 C 0.14977 0.72455 0.93417 0.0
C4025 C 0.13183 0.73593 0.94133 0.0
C4026 C 0.1356 0.7538 0.9554 0.0
H4027 H 0.18087 0.76886 0.02304 0.0
H4028 H 0.16504 0.75126 0.00409 0.0
H4029 H 0.19461 0.75771 0.00042 0.0
H4030 H 0.19203 0.75323 0.96102 0.0
H4031 H 0.18541 0.72221 0.93624 0.0
H4032 H 0.41551 0.96595 0.2127 0.0
H4033 H 0.45183 0.95211 0.20581 0.0
H4034 H 0.4722 0.96878 0.27039 0.0
H4035 H 0.43596 0.98272 0.27743 0.0
H4036 H 0.50113 0.98694 0.24119 0.0
H4037 H 0.48435 0.89953 0.2219 0.0
H4038 H 0.46591 0.91522 0.20746 0.0
H4039 H 0.46452 0.91496 0.23612 0.0
C4040 C 0.42747 0.96614 0.22562 0.0
C4041 C 0.42283 0.97556 0.24557 0.0
C4042 C 0.44821 0.95809 0.2217 0.0
C4043 C 0.46468 0.95919 0.23766 0.0
C4044 C 0.4597 0.96761 0.2579 0.0
H4045 H 0.59022 0.92116 0.17931 0.0
H4046 H 0.56571 0.92516 0.2105 0.0
C4047 C 0.43893 0.97558 0.26186 0.0
C4048 C 0.48788 0.95448 0.23218 0.0
H4049 H 0.51705 0.91783 0.20474 0.0
C4050 C 0.50481 0.97157 0.23383 0.0
C4051 C 0.49291 0.93435 0.22298 0.0
C4052 C 0.47599 0.9149 0.22223 0.0
C4053 C 0.52583 0.96978 0.22448 0.0
C4054 C 0.52993 0.95052 0.21308 0.0
C4055 C 0.51389 0.93265 0.21342 0.0
C4056 C 0.54779 0.95037 0.19678 0.0
C4057 C 0.54296 0.98906 0.2256 0.0
C4058 C 0.54622 0.96356 0.17915 0.0
C4059 C 0.55954 0.9608 0.16133 0.0
C4060 C 0.5748 0.94474 0.16063 0.0
C4061 C 0.57798 0.93297 0.17906 0.0
C4062 C 0.56418 0.93542 0.19694 0.0
H4063 H 0.54091 -0.00101 0.24037 0.0
H4064 H 0.56022 0.98389 0.22504 0.0
H4065 H 0.54063 -0.00046 0.21182 0.0
H4066 H 0.5336 0.97508 0.17857 0.0
H4067 H 0.55692 0.97056 0.14761 0.0
H4068 H 0.07632 0.10146 0.77656 0.0
H4069 H 0.04633 0.12298 0.7649 0.0
H4070 H 0.07421 0.12442 0.70153 0.0
H4071 H 0.10444 0.1036 0.71313 0.0
H4072 H 0.05909 0.16335 0.71374 0.0
H4073 H 0.99442 0.09561 0.72977 0.0
H4074 H 0.01097 0.10642 0.75199 0.0
H4075 H 0.02387 0.092 0.73074 0.0
C4076 C 0.07621 0.10662 0.76021 0.0
C4077 C 0.09264 0.1006 0.7457 0.0
C4078 C 0.05897 0.1188 0.75355 0.0
C4079 C 0.05774 0.1249 0.73223 0.0
C4080 C 0.07476 0.11982 0.71805 0.0
H4081 H 0.98901 0.15437 0.62716 0.0
H4082 H 0.0142 0.15147 0.65688 0.0
C4083 C 0.09204 0.10786 0.72471 0.0
C4084 C 0.03832 0.13543 0.72393 0.0
H4085 H 0.98361 0.1242 0.70978 0.0
C4086 C 0.04245 0.15501 0.71325 0.0
C4087 C 0.01651 0.12472 0.72354 0.0
C4088 C 0.01106 0.10347 0.73449 0.0
C4089 C 0.02602 0.16316 0.70061 0.0
C4090 C 0.00474 0.15148 0.69876 0.0
C4091 C -0.0001 0.13312 0.71119 0.0
C4092 C 0.98914 0.1553 0.68121 0.0
C4093 C 0.03239 0.18353 0.68849 0.0
C4094 C 0.96634 0.15775 0.68489 0.0
C4095 C 0.95166 0.15927 0.66767 0.0
C4096 C 0.95965 0.15805 0.64667 0.0
C4097 C 0.98239 0.15552 0.64317 0.0
C4098 C -0.0031 0.15409 0.66019 0.0
H4099 H 0.04037 0.19626 0.69947 0.0
H4100 H 0.045 0.18001 0.6762 0.0
H4101 H 0.01805 0.1901 0.68055 0.0
H4102 H 0.95992 0.15834 0.70101 0.0
H4103 H 0.93414 0.16096 0.67075 0.0
loop_
_geom_bond_atom_site_label_1
_geom_bond_atom_site_label_2
_geom_bond_distance
_geom_bond_site_symmetry_2
_ccdc_geom_bond_type
C0 O1 1.160 . S
C0 O7 1.185 . S
O1 C0 1.160 . S
O2 Zn3 1.899 . S
O2 C10 1.284 . S
Zn3 O2 1.899 . S
Zn3 O4 2.032 . S
Zn3 O7 2.086 . S
Zn3 O12 1.977 . S
O4 Zn3 2.032 . S
O4 C8 1.278 . S
C5 O6 1.211 . S
C5 O12 1.287 . S
O6 C5 1.211 . S
O7 C0 1.185 . S
O7 Zn3 2.086 . S
C8 O4 1.278 . S
C8 O9 1.211 1_455 S
O9 C8 1.211 1_655 S
C10 O2 1.284 . S
C10 O11 1.273 . S
O11 C10 1.273 . S
O12 Zn3 1.977 . S
O12 C5 1.287 . S
C13 O14 1.160 . S
C13 O20 1.185 . S
O14 C13 1.160 . S
O15 Zn16 1.899 1_655 S
O15 C23 1.284 . S
Zn16 O15 1.899 1_455 S
Zn16 O17 2.032 1_455 S
Zn16 O20 2.086 . S
Zn16 O25 1.977 . S
O17 Zn16 2.032 1_655 S
O17 C21 1.278 . S
C18 O19 1.203 . S
C18 O25 1.267 . S
O19 C18 1.203 . S
O20 C13 1.185 . S
O20 Zn16 2.086 . S
C21 O17 1.278 . S
C21 O22 1.211 . S
O22 C21 1.211 . S
C23 O15 1.284 . S
C23 O24 1.273 . S
O24 C23 1.273 . S
O25 Zn16 1.977 . S
O25 C18 1.267 . S
C26 O27 1.160 . S
C26 O33 1.185 . S
O27 C26 1.160 . S
O28 Zn29 1.899 . S
O28 C36 1.284 . S
Zn29 O28 1.899 . S
Zn29 O30 2.032 . S
Zn29 O33 2.086 . S
Zn29 O38 1.977 . S
O30 Zn29 2.032 . S
O30 C34 1.278 . S
C31 O32 1.203 . S
C31 O38 1.267 . S
O32 C31 1.203 . S
O33 C26 1.185 . S
O33 Zn29 2.086 . S
C34 O30 1.278 . S
C34 O35 1.211 . S
O35 C34 1.211 . S
C36 O28 1.284 . S
C36 O37 1.273 . S
O37 C36 1.273 . S
O38 Zn29 1.977 . S
O38 C31 1.267 . S
C39 O40 1.160 . S
C39 O46 1.185 . S
O40 C39 1.160 . S
O41 Zn42 1.899 . S
O41 C49 1.284 . S
Zn42 O41 1.899 . S
Zn42 O43 2.032 . S
Zn42 O46 2.086 . S
Zn42 O51 1.977 . S
O43 Zn42 2.032 . S
O43 C47 1.278 . S
C44 O45 1.203 . S
C44 O51 1.267 . S
O45 C44 1.203 . S
O46 C39 1.185 . S
O46 Zn42 2.086 . S
C47 O43 1.278 . S
C47 O48 1.211 . S
O48 C47 1.211 . S
C49 O41 1.284 . S
C49 O50 1.273 . S
O50 C49 1.273 . S
O51 Zn42 1.977 . S
O51 C44 1.267 . S
C52 O53 1.160 . S
C52 O59 1.185 . S
O53 C52 1.160 . S
O54 Zn55 1.899 . S
O54 C62 1.284 . S
Zn55 O54 1.899 . S
Zn55 O56 2.032 1_455 S
Zn55 O59 2.086 . S
Zn55 O64 1.977 1_455 S
O56 Zn55 2.032 1_655 S
O56 C60 1.278 . S
C57 O58 1.203 . S
C57 O64 1.267 . S
O58 C57 1.203 . S
O59 C52 1.185 . S
O59 Zn55 2.086 . S
C60 O56 1.278 . S
C60 O61 1.211 . S
O61 C60 1.211 . S
C62 O54 1.284 . S
C62 O63 1.273 . S
O63 C62 1.273 . S
O64 Zn55 1.977 1_655 S
O64 C57 1.267 . S
C65 O66 1.160 . S
C65 O72 1.185 . S
O66 C65 1.160 . S
O67 Zn68 1.899 . S
O67 C75 1.284 . S
Zn68 O67 1.899 . S
Zn68 O69 2.032 . S
Zn68 O72 2.086 . S
Zn68 O77 1.977 . S
O69 Zn68 2.032 . S
O69 C73 1.278 . S
C70 O71 1.203 . S
C70 O77 1.267 . S
O71 C70 1.203 . S
O72 C65 1.185 . S
O72 Zn68 2.086 . S
C73 O69 1.278 . S
C73 O74 1.211 . S
O74 C73 1.211 . S
C75 O67 1.284 . S
C75 O76 1.273 . S
O76 C75 1.273 . S
O77 Zn68 1.977 . S
O77 C70 1.267 . S
C78 O79 1.160 . S
C78 O85 1.185 . S
O79 C78 1.160 . S
O80 Zn81 1.899 . S
O80 C88 1.284 . S
Zn81 O80 1.899 . S
Zn81 O82 2.032 . S
Zn81 O85 2.086 . S
Zn81 O90 1.977 . S
O82 Zn81 2.032 . S
O82 C86 1.278 . S
C83 O84 1.203 . S
C83 O90 1.267 . S
O84 C83 1.203 . S
O85 C78 1.185 . S
O85 Zn81 2.086 . S
C86 O82 1.278 . S
C86 O87 1.211 . S
O87 C86 1.211 . S
C88 O80 1.284 . S
C88 O89 1.273 . S
O89 C88 1.273 . S
O90 Zn81 1.977 . S
O90 C83 1.267 . S
C91 O92 1.160 . S
C91 O98 1.185 . S
O92 C91 1.160 . S
O93 Zn94 1.899 . S
O93 C101 1.284 . S
Zn94 O93 1.899 . S
Zn94 O95 2.032 . S
Zn94 O98 2.086 . S
Zn94 O103 1.977 . S
O95 Zn94 2.032 . S
O95 C99 1.278 . S
C96 O97 1.203 . S
C96 O103 1.267 . S
O97 C96 1.203 . S
O98 C91 1.185 . S
O98 Zn94 2.086 . S
C99 O95 1.278 . S
C99 O100 1.211 . S
O100 C99 1.211 . S
C101 O93 1.284 . S
C101 O102 1.273 . S
O102 C101 1.273 . S
O103 Zn94 1.977 . S
O103 C96 1.267 . S
C104 O105 1.160 . S
C104 O111 1.185 . S
O105 C104 1.160 . S
O106 Zn107 1.899 . S
O106 C114 1.284 . S
Zn107 O106 1.899 . S
Zn107 O108 2.032 1_565 S
Zn107 O111 2.086 . S
Zn107 O116 1.977 1_565 S
O108 Zn107 2.032 1_545 S
O108 C112 1.278 . S
C109 O110 1.203 . S
C109 O116 1.267 . S
O110 C109 1.203 . S
O111 C104 1.185 . S
O111 Zn107 2.086 . S
C112 O108 1.278 . S
C112 O113 1.211 . S
O113 C112 1.211 . S
C114 O106 1.284 . S
C114 O115 1.273 . S
O115 C114 1.273 . S
O116 Zn107 1.977 1_545 S
O116 C109 1.267 . S
C117 O118 1.160 . S
C117 O124 1.185 . S
O118 C117 1.160 . S
O119 Zn120 1.899 . S
O119 C127 1.284 . S
Zn120 O119 1.899 . S
Zn120 O121 2.032 . S
Zn120 O124 2.086 . S
Zn120 O129 1.977 . S
O121 Zn120 2.032 . S
O121 C125 1.278 . S
C122 O123 1.203 . S
C122 O129 1.267 . S
O123 C122 1.203 . S
O124 C117 1.185 . S
O124 Zn120 2.086 . S
C125 O121 1.278 . S
C125 O126 1.211 . S
O126 C125 1.211 . S
C127 O119 1.284 . S
C127 O128 1.273 . S
O128 C127 1.273 . S
O129 Zn120 1.977 . S
O129 C122 1.267 . S
C130 O131 1.160 . S
C130 O137 1.185 . S
O131 C130 1.160 . S
O132 Zn133 1.899 . S
O132 C140 1.284 . S
Zn133 O132 1.899 . S
Zn133 O134 2.032 . S
Zn133 O137 2.086 . S
Zn133 O142 1.977 . S
O134 Zn133 2.032 . S
O134 C138 1.278 . S
C135 O136 1.203 . S
C135 O142 1.267 . S
O136 C135 1.203 . S
O137 C130 1.185 . S
O137 Zn133 2.086 . S
C138 O134 1.278 . S
C138 O139 1.211 . S
O139 C138 1.211 . S
C140 O132 1.284 . S
C140 O141 1.273 . S
O141 C140 1.273 . S
O142 Zn133 1.977 . S
O142 C135 1.267 . S
C143 O144 1.160 . S
C143 O150 1.185 . S
O144 C143 1.160 . S
O145 Zn146 1.899 . S
O145 C153 1.284 . S
Zn146 O145 1.899 . S
Zn146 O147 2.032 . S
Zn146 O150 2.086 . S
Zn146 O155 1.977 . S
O147 Zn146 2.032 . S
O147 C151 1.278 . S
C148 O149 1.203 . S
C148 O155 1.267 . S
O149 C148 1.203 . S
O150 C143 1.185 . S
O150 Zn146 2.086 . S
C151 O147 1.278 . S
C151 O152 1.211 . S
O152 C151 1.211 . S
C153 O145 1.284 . S
C153 O154 1.273 1_554 S
O154 C153 1.273 1_556 S
O155 Zn146 1.977 . S
O155 C148 1.267 . S
C156 O157 1.160 . S
C156 O163 1.185 . S
O157 C156 1.160 . S
O158 Zn159 1.899 1_556 S
O158 C166 1.284 . S
Zn159 O158 1.899 1_554 S
Zn159 O160 2.032 . S
Zn159 O163 2.086 1_554 S
Zn159 O168 1.977 . S
O160 Zn159 2.032 . S
O160 C164 1.278 . S
C161 O162 1.203 . S
C161 O168 1.267 . S
O162 C161 1.203 . S
O163 C156 1.185 . S
O163 Zn159 2.086 1_556 S
C164 O160 1.278 . S
C164 O165 1.211 . S
O165 C164 1.211 . S
C166 O158 1.284 . S
C166 O167 1.273 1_556 S
O167 C166 1.273 1_554 S
O168 Zn159 1.977 . S
O168 C161 1.267 . S
C169 O170 1.160 . S
C169 O176 1.185 . S
O170 C169 1.160 . S
O171 Zn172 1.899 . S
O171 C179 1.284 . S
Zn172 O171 1.899 . S
Zn172 O173 2.032 1_556 S
Zn172 O176 2.086 . S
Zn172 O181 1.977 1_556 S
O173 Zn172 2.032 1_554 S
O173 C177 1.278 . S
C174 O175 1.203 . S
C174 O181 1.267 . S
O175 C174 1.203 . S
O176 C169 1.185 . S
O176 Zn172 2.086 . S
C177 O173 1.278 . S
C177 O178 1.211 . S
O178 C177 1.211 . S
C179 O171 1.284 . S
C179 O180 1.273 . S
O180 C179 1.273 . S
O181 Zn172 1.977 1_554 S
O181 C174 1.267 . S
C182 O183 1.160 . S
C182 O189 1.185 . S
O183 C182 1.160 . S
O184 Zn185 1.899 . S
O184 C192 1.284 . S
Zn185 O184 1.899 . S
Zn185 O186 2.032 . S
Zn185 O189 2.086 . S
Zn185 O194 1.977 . S
O186 Zn185 2.032 . S
O186 C190 1.278 . S
C187 O188 1.203 . S
C187 O194 1.267 . S
O188 C187 1.203 . S
O189 C182 1.185 . S
O189 Zn185 2.086 . S
C190 O186 1.278 . S
C190 O191 1.211 . S
O191 C190 1.211 . S
C192 O184 1.284 . S
C192 O193 1.273 . S
O193 C192 1.273 . S
O194 Zn185 1.977 . S
O194 C187 1.267 . S
C195 O196 1.160 . S
C195 O202 1.185 . S
O196 C195 1.160 . S
O197 Zn198 1.899 . S
O197 C205 1.284 . S
Zn198 O197 1.899 . S
Zn198 O199 2.032 . S
Zn198 O202 2.086 . S
Zn198 O207 1.977 . S
O199 Zn198 2.032 . S
O199 C203 1.278 . S
C200 O201 1.203 . S
C200 O207 1.267 . S
O201 C200 1.203 . S
O202 C195 1.185 . S
O202 Zn198 2.086 . S
C203 O199 1.278 . S
C203 O204 1.211 . S
O204 C203 1.211 . S
C205 O197 1.284 . S
C205 O206 1.273 . S
O206 C205 1.273 . S
O207 Zn198 1.977 . S
O207 C200 1.267 . S
C208 O209 1.160 . S
C208 O215 1.185 . S
O209 C208 1.160 . S
O210 Zn211 1.899 . S
O210 C218 1.284 1_545 S
Zn211 O210 1.899 . S
Zn211 O212 2.032 . S
Zn211 O215 2.086 . S
Zn211 O220 1.977 . S
O212 Zn211 2.032 . S
O212 C216 1.278 1_545 S
C213 O214 1.203 . S
C213 O220 1.267 . S
O214 C213 1.203 . S
O215 C208 1.185 . S
O215 Zn211 2.086 . S
C216 O212 1.278 1_565 S
C216 O217 1.211 . S
O217 C216 1.211 . S
C218 O210 1.284 1_565 S
C218 O219 1.273 . S
O219 C218 1.273 . S
O220 Zn211 1.977 . S
O220 C213 1.267 . S
C221 O222 1.160 . S
C221 O228 1.185 . S
O222 C221 1.160 . S
O223 Zn224 1.899 . S
O223 C231 1.284 . S
Zn224 O223 1.899 . S
Zn224 O225 2.032 . S
Zn224 O228 2.086 . S
Zn224 O233 1.977 . S
O225 Zn224 2.032 . S
O225 C229 1.278 . S
C226 O227 1.203 . S
C226 O233 1.267 . S
O227 C226 1.203 . S
O228 C221 1.185 . S
O228 Zn224 2.086 . S
C229 O225 1.278 . S
C229 O230 1.211 . S
O230 C229 1.211 . S
C231 O223 1.284 . S
C231 O232 1.273 . S
O232 C231 1.273 . S
O233 Zn224 1.977 . S
O233 C226 1.267 . S
C234 O235 1.160 . S
C234 O241 1.185 . S
O235 C234 1.160 . S
O236 Zn237 1.899 . S
O236 C244 1.284 . S
Zn237 O236 1.899 . S
Zn237 O238 2.032 . S
Zn237 O241 2.086 . S
Zn237 O246 1.977 . S
O238 Zn237 2.032 . S
O238 C242 1.278 . S
C239 O240 1.203 . S
C239 O246 1.267 . S
O240 C239 1.203 . S
O241 C234 1.185 . S
O241 Zn237 2.086 . S
C242 O238 1.278 . S
C242 O243 1.211 . S
O243 C242 1.211 . S
C244 O236 1.284 . S
C244 O245 1.273 . S
O245 C244 1.273 . S
O246 Zn237 1.977 . S
O246 C239 1.267 . S
C247 O248 1.160 . S
C247 O254 1.185 . S
O248 C247 1.160 . S
O249 Zn250 1.899 . S
O249 C257 1.284 . S
Zn250 O249 1.899 . S
Zn250 O251 2.032 . S
Zn250 O254 2.086 . S
Zn250 O259 1.977 . S
O251 Zn250 2.032 . S
O251 C255 1.278 . S
C252 O253 1.203 . S
C252 O259 1.267 . S
O253 C252 1.203 . S
O254 C247 1.185 . S
O254 Zn250 2.086 . S
C255 O251 1.278 . S
C255 O256 1.211 . S
O256 C255 1.211 . S
C257 O249 1.284 . S
C257 O258 1.273 . S
O258 C257 1.273 . S
O259 Zn250 1.977 . S
O259 C252 1.267 . S
C260 O261 1.160 . S
C260 O267 1.185 . S
O261 C260 1.160 . S
O262 Zn263 1.899 . S
O262 C270 1.284 1_554 S
Zn263 O262 1.899 . S
Zn263 O264 2.032 . S
Zn263 O267 2.086 . S
Zn263 O272 1.977 . S
O264 Zn263 2.032 . S
O264 C268 1.278 1_554 S
C265 O266 1.203 . S
C265 O272 1.267 . S
O266 C265 1.203 . S
O267 C260 1.185 . S
O267 Zn263 2.086 . S
C268 O264 1.278 1_556 S
C268 O269 1.211 . S
O269 C268 1.211 . S
C270 O262 1.284 1_556 S
C270 O271 1.273 . S
O271 C270 1.273 . S
O272 Zn263 1.977 . S
O272 C265 1.267 . S
C273 O274 1.160 . S
C273 O280 1.185 . S
O274 C273 1.160 . S
O275 Zn276 1.899 . S
O275 C283 1.284 . S
Zn276 O275 1.899 . S
Zn276 O277 2.032 . S
Zn276 O280 2.086 . S
Zn276 O285 1.977 . S
O277 Zn276 2.032 . S
O277 C281 1.278 . S
C278 O279 1.203 . S
C278 O285 1.267 . S
O279 C278 1.203 . S
O280 C273 1.185 . S
O280 Zn276 2.086 . S
C281 O277 1.278 . S
C281 O282 1.211 . S
O282 C281 1.211 . S
C283 O275 1.284 . S
C283 O284 1.273 . S
O284 C283 1.273 . S
O285 Zn276 1.977 . S
O285 C278 1.267 . S
C286 O287 1.160 . S
C286 O293 1.185 . S
O287 C286 1.160 . S
O288 Zn289 1.899 . S
O288 C296 1.284 . S
Zn289 O288 1.899 . S
Zn289 O290 2.032 . S
Zn289 O293 2.086 . S
Zn289 O298 1.977 . S
O290 Zn289 2.032 . S
O290 C294 1.278 . S
C291 O292 1.203 . S
C291 O298 1.267 . S
O292 C291 1.203 . S
O293 C286 1.185 . S
O293 Zn289 2.086 . S
C294 O290 1.278 . S
C294 O295 1.211 . S
O295 C294 1.211 . S
C296 O288 1.284 . S
C296 O297 1.273 . S
O297 C296 1.273 . S
O298 Zn289 1.977 . S
O298 C291 1.267 . S
C299 O300 1.160 . S
C299 O306 1.185 . S
O300 C299 1.160 . S
O301 Zn302 1.899 . S
O301 C309 1.284 . S
Zn302 O301 1.899 . S
Zn302 O303 2.032 . S
Zn302 O306 2.086 . S
Zn302 O311 1.977 . S
O303 Zn302 2.032 . S
O303 C307 1.278 . S
C304 O305 1.203 . S
C304 O311 1.267 . S
O305 C304 1.203 . S
O306 C299 1.185 . S
O306 Zn302 2.086 . S
C307 O303 1.278 . S
C307 O308 1.211 . S
O308 C307 1.211 . S
C309 O301 1.284 . S
C309 O310 1.273 . S
O310 C309 1.273 . S
O311 Zn302 1.977 . S
O311 C304 1.267 . S
O312 Mn313 2.163 . S
O312 C326 1.244 . S
Mn313 O312 2.163 . S
Mn313 O316 2.160 . S
Mn313 O317 2.221 . S
Mn313 O319 2.163 . S
Mn313 O321 2.160 . S
Mn313 O331 2.221 . S
O314 Mn315 2.087 . S
O314 C326 1.256 . S
Mn315 O314 2.087 . S
Mn315 O322 2.089 . S
Mn315 O331 2.290 . S
Mn315 O332 2.251 . S
O316 Mn313 2.160 . S
O316 C327 1.239 . S
O317 Mn313 2.221 . S
O317 Mn318 2.290 . S
O317 C328 1.278 . S
Mn318 O317 2.290 . S
Mn318 O320 2.089 . S
Mn318 O323 2.251 . S
Mn318 O324 2.087 . S
O319 Mn313 2.163 . S
O319 C329 1.244 . S
O320 Mn318 2.089 . S
O320 C327 1.256 . S
O321 Mn313 2.160 . S
O321 C330 1.239 . S
O322 Mn315 2.089 . S
O322 C330 1.256 . S
O323 Mn318 2.251 . S
O323 C328 1.241 . S
O324 Mn318 2.087 . S
O324 C329 1.256 . S
C325 O331 1.278 . S
C325 O332 1.241 . S
C326 O312 1.244 . S
C326 O314 1.256 . S
C327 O316 1.239 . S
C327 O320 1.256 . S
C328 O317 1.278 . S
C328 O323 1.241 . S
C329 O319 1.244 . S
C329 O324 1.256 . S
C330 O321 1.239 . S
C330 O322 1.256 . S
O331 Mn313 2.221 . S
O331 Mn315 2.290 . S
O331 C325 1.278 . S
O332 Mn315 2.251 . S
O332 C325 1.241 . S
O333 Mn334 2.163 . S
O333 C347 1.244 . S
Mn334 O333 2.163 . S
Mn334 O337 2.160 . S
Mn334 O338 2.221 . S
Mn334 O340 2.163 . S
Mn334 O342 2.160 . S
Mn334 O352 2.221 . S
O335 Mn336 2.087 . S
O335 C347 1.256 . S
Mn336 O335 2.087 . S
Mn336 O343 2.089 . S
Mn336 O352 2.290 . S
Mn336 O353 2.251 . S
O337 Mn334 2.160 . S
O337 C348 1.239 . S
O338 Mn334 2.221 . S
O338 Mn339 2.290 . S
O338 C349 1.278 . S
Mn339 O338 2.290 . S
Mn339 O341 2.089 . S
Mn339 O344 2.251 . S
Mn339 O345 2.087 . S
O340 Mn334 2.163 . S
O340 C350 1.244 . S
O341 Mn339 2.089 . S
O341 C348 1.256 . S
O342 Mn334 2.160 . S
O342 C351 1.239 . S
O343 Mn336 2.089 . S
O343 C351 1.256 . S
O344 Mn339 2.251 . S
O344 C349 1.241 . S
O345 Mn339 2.087 . S
O345 C350 1.256 . S
C346 O352 1.278 . S
C346 O353 1.241 . S
C347 O333 1.244 . S
C347 O335 1.256 . S
C348 O337 1.239 . S
C348 O341 1.256 . S
C349 O338 1.278 . S
C349 O344 1.241 . S
C350 O340 1.244 . S
C350 O345 1.256 . S
C351 O342 1.239 . S
C351 O343 1.256 . S
O352 Mn334 2.221 . S
O352 Mn336 2.290 . S
O352 C346 1.278 . S
O353 Mn336 2.251 . S
O353 C346 1.241 . S
O354 Mn355 2.163 . S
O354 C368 1.244 . S
Mn355 O354 2.163 . S
Mn355 O358 2.160 . S
Mn355 O359 2.221 . S
Mn355 O361 2.163 . S
Mn355 O363 2.160 . S
Mn355 O373 2.221 . S
O356 Mn357 2.087 . S
O356 C368 1.256 . S
Mn357 O356 2.087 . S
Mn357 O364 2.089 . S
Mn357 O373 2.290 . S
Mn357 O374 2.251 . S
O358 Mn355 2.160 . S
O358 C369 1.239 . S
O359 Mn355 2.221 . S
O359 Mn360 2.290 . S
O359 C370 1.278 . S
Mn360 O359 2.290 . S
Mn360 O362 2.089 . S
Mn360 O365 2.251 . S
Mn360 O366 2.087 . S
O361 Mn355 2.163 . S
O361 C371 1.244 . S
O362 Mn360 2.089 . S
O362 C369 1.256 . S
O363 Mn355 2.160 . S
O363 C372 1.239 . S
O364 Mn357 2.089 . S
O364 C372 1.256 . S
O365 Mn360 2.251 . S
O365 C370 1.241 . S
O366 Mn360 2.087 . S
O366 C371 1.256 . S
C367 O373 1.278 . S
C367 O374 1.241 . S
C368 O354 1.244 . S
C368 O356 1.256 . S
C369 O358 1.239 . S
C369 O362 1.256 . S
C370 O359 1.278 . S
C370 O365 1.241 . S
C371 O361 1.244 . S
C371 O366 1.256 . S
C372 O363 1.239 . S
C372 O364 1.256 . S
O373 Mn355 2.221 . S
O373 Mn357 2.290 . S
O373 C367 1.278 . S
O374 Mn357 2.251 . S
O374 C367 1.241 . S
O375 Mn376 2.163 . S
O375 C389 1.244 . S
Mn376 O375 2.163 . S
Mn376 O379 2.160 . S
Mn376 O380 2.221 . S
Mn376 O382 2.163 . S
Mn376 O384 2.160 . S
Mn376 O394 2.221 . S
O377 Mn378 2.087 . S
O377 C389 1.256 . S
Mn378 O377 2.087 . S
Mn378 O385 2.089 . S
Mn378 O394 2.290 . S
Mn378 O395 2.251 . S
O379 Mn376 2.160 . S
O379 C390 1.239 . S
O380 Mn376 2.221 . S
O380 Mn381 2.290 . S
O380 C391 1.278 . S
Mn381 O380 2.290 . S
Mn381 O383 2.089 . S
Mn381 O386 2.251 . S
Mn381 O387 2.087 . S
O382 Mn376 2.163 . S
O382 C392 1.244 . S
O383 Mn381 2.089 . S
O383 C390 1.256 . S
O384 Mn376 2.160 . S
O384 C393 1.239 . S
O385 Mn378 2.089 . S
O385 C393 1.256 . S
O386 Mn381 2.251 . S
O386 C391 1.241 . S
O387 Mn381 2.087 . S
O387 C392 1.256 . S
C388 O394 1.278 . S
C388 O395 1.241 . S
C389 O375 1.244 . S
C389 O377 1.256 . S
C390 O379 1.239 . S
C390 O383 1.256 . S
C391 O380 1.278 . S
C391 O386 1.241 . S
C392 O382 1.244 . S
C392 O387 1.256 . S
C393 O384 1.239 . S
C393 O385 1.256 . S
O394 Mn376 2.221 . S
O394 Mn378 2.290 . S
O394 C388 1.278 . S
O395 Mn378 2.251 . S
O395 C388 1.241 . S
O396 Mn397 2.163 . S
O396 C410 1.244 . S
Mn397 O396 2.163 . S
Mn397 O400 2.160 . S
Mn397 O401 2.221 . S
Mn397 O403 2.163 . S
Mn397 O405 2.160 . S
Mn397 O415 2.221 . S
O398 Mn399 2.087 . S
O398 C410 1.256 . S
Mn399 O398 2.087 . S
Mn399 O406 2.089 . S
Mn399 O415 2.290 . S
Mn399 O416 2.251 . S
O400 Mn397 2.160 . S
O400 C411 1.239 . S
O401 Mn397 2.221 . S
O401 Mn402 2.290 . S
O401 C412 1.278 . S
Mn402 O401 2.290 . S
Mn402 O404 2.089 . S
Mn402 O407 2.251 . S
Mn402 O408 2.087 . S
O403 Mn397 2.163 . S
O403 C413 1.244 . S
O404 Mn402 2.089 . S
O404 C411 1.256 . S
O405 Mn397 2.160 . S
O405 C414 1.239 . S
O406 Mn399 2.089 . S
O406 C414 1.256 . S
O407 Mn402 2.251 . S
O407 C412 1.241 . S
O408 Mn402 2.087 . S
O408 C413 1.256 . S
C409 O415 1.278 . S
C409 O416 1.241 . S
C410 O396 1.244 . S
C410 O398 1.256 . S
C411 O400 1.239 . S
C411 O404 1.256 . S
C412 O401 1.278 . S
C412 O407 1.241 . S
C413 O403 1.244 . S
C413 O408 1.256 . S
C414 O405 1.239 . S
C414 O406 1.256 . S
O415 Mn397 2.221 . S
O415 Mn399 2.290 . S
O415 C409 1.278 . S
O416 Mn399 2.251 . S
O416 C409 1.241 . S
O417 Mn418 2.163 . S
O417 C431 1.244 . S
Mn418 O417 2.163 . S
Mn418 O421 2.160 . S
Mn418 O422 2.221 . S
Mn418 O424 2.163 . S
Mn418 O426 2.160 . S
Mn418 O436 2.221 . S
O419 Mn420 2.087 . S
O419 C431 1.256 . S
Mn420 O419 2.087 . S
Mn420 O427 2.089 . S
Mn420 O436 2.290 . S
Mn420 O437 2.251 . S
O421 Mn418 2.160 . S
O421 C432 1.239 . S
O422 Mn418 2.221 . S
O422 Mn423 2.290 . S
O422 C433 1.278 . S
Mn423 O422 2.290 . S
Mn423 O425 2.089 . S
Mn423 O428 2.251 . S
Mn423 O429 2.087 . S
O424 Mn418 2.163 . S
O424 C434 1.244 . S
O425 Mn423 2.089 . S
O425 C432 1.256 . S
O426 Mn418 2.160 . S
O426 C435 1.239 . S
O427 Mn420 2.089 . S
O427 C435 1.256 . S
O428 Mn423 2.251 . S
O428 C433 1.241 . S
O429 Mn423 2.087 . S
O429 C434 1.256 . S
C430 O436 1.278 . S
C430 O437 1.241 . S
C431 O417 1.244 . S
C431 O419 1.256 . S
C432 O421 1.239 . S
C432 O425 1.256 . S
C433 O422 1.278 . S
C433 O428 1.241 . S
C434 O424 1.244 . S
C434 O429 1.256 . S
C435 O426 1.239 . S
C435 O427 1.256 . S
O436 Mn418 2.221 . S
O436 Mn420 2.290 . S
O436 C430 1.278 . S
O437 Mn420 2.251 . S
O437 C430 1.241 . S
O438 Mn439 2.163 . S
O438 C452 1.244 . S
Mn439 O438 2.163 . S
Mn439 O442 2.160 . S
Mn439 O443 2.221 . S
Mn439 O445 2.163 . S
Mn439 O447 2.160 . S
Mn439 O457 2.221 . S
O440 Mn441 2.087 . S
O440 C452 1.256 . S
Mn441 O440 2.087 . S
Mn441 O448 2.089 . S
Mn441 O457 2.290 . S
Mn441 O458 2.251 . S
O442 Mn439 2.160 . S
O442 C453 1.239 . S
O443 Mn439 2.221 . S
O443 Mn444 2.290 . S
O443 C454 1.278 . S
Mn444 O443 2.290 . S
Mn444 O446 2.089 . S
Mn444 O449 2.251 . S
Mn444 O450 2.087 . S
O445 Mn439 2.163 . S
O445 C455 1.244 . S
O446 Mn444 2.089 . S
O446 C453 1.256 . S
O447 Mn439 2.160 . S
O447 C456 1.239 . S
O448 Mn441 2.089 . S
O448 C456 1.256 . S
O449 Mn444 2.251 . S
O449 C454 1.241 . S
O450 Mn444 2.087 . S
O450 C455 1.256 . S
C451 O457 1.278 . S
C451 O458 1.241 . S
C452 O438 1.244 . S
C452 O440 1.256 . S
C453 O442 1.239 . S
C453 O446 1.256 . S
C454 O443 1.278 . S
C454 O449 1.241 . S
C455 O445 1.244 . S
C455 O450 1.256 . S
C456 O447 1.239 . S
C456 O448 1.256 . S
O457 Mn439 2.221 . S
O457 Mn441 2.290 . S
O457 C451 1.278 . S
O458 Mn441 2.251 . S
O458 C451 1.241 . S
O459 Mn460 2.163 . S
O459 C473 1.244 . S
Mn460 O459 2.163 . S
Mn460 O463 2.160 . S
Mn460 O464 2.221 . S
Mn460 O466 2.163 . S
Mn460 O468 2.160 . S
Mn460 O478 2.221 . S
O461 Mn462 2.087 . S
O461 C473 1.256 . S
Mn462 O461 2.087 . S
Mn462 O469 2.089 . S
Mn462 O478 2.290 . S
Mn462 O479 2.251 . S
O463 Mn460 2.160 . S
O463 C474 1.239 . S
O464 Mn460 2.221 . S
O464 Mn465 2.290 . S
O464 C475 1.278 . S
Mn465 O464 2.290 . S
Mn465 O467 2.089 . S
Mn465 O470 2.251 . S
Mn465 O471 2.087 . S
O466 Mn460 2.163 . S
O466 C476 1.244 . S
O467 Mn465 2.089 . S
O467 C474 1.256 . S
O468 Mn460 2.160 . S
O468 C477 1.239 . S
O469 Mn462 2.089 . S
O469 C477 1.256 . S
O470 Mn465 2.251 . S
O470 C475 1.241 . S
O471 Mn465 2.087 . S
O471 C476 1.256 . S
C472 O478 1.278 . S
C472 O479 1.241 . S
C473 O459 1.244 . S
C473 O461 1.256 . S
C474 O463 1.239 . S
C474 O467 1.256 . S
C475 O464 1.278 . S
C475 O470 1.241 . S
C476 O466 1.244 . S
C476 O471 1.256 . S
C477 O468 1.239 . S
C477 O469 1.256 . S
O478 Mn460 2.221 . S
O478 Mn462 2.290 . S
O478 C472 1.278 . S
O479 Mn462 2.251 . S
O479 C472 1.241 . S
O480 Mn481 2.163 . S
O480 C494 1.244 . S
Mn481 O480 2.163 . S
Mn481 O484 2.160 . S
Mn481 O485 2.221 . S
Mn481 O487 2.163 . S
Mn481 O489 2.160 . S
Mn481 O499 2.221 . S
O482 Mn483 2.087 . S
O482 C494 1.256 . S
Mn483 O482 2.087 . S
Mn483 O490 2.089 . S
Mn483 O499 2.290 . S
Mn483 O500 2.251 . S
O484 Mn481 2.160 . S
O484 C495 1.239 . S
O485 Mn481 2.221 . S
O485 Mn486 2.290 . S
O485 C496 1.278 . S
Mn486 O485 2.290 . S
Mn486 O488 2.089 . S
Mn486 O491 2.251 . S
Mn486 O492 2.087 . S
O487 Mn481 2.163 . S
O487 C497 1.244 . S
O488 Mn486 2.089 . S
O488 C495 1.256 . S
O489 Mn481 2.160 . S
O489 C498 1.239 . S
O490 Mn483 2.089 . S
O490 C498 1.256 . S
O491 Mn486 2.251 . S
O491 C496 1.241 . S
O492 Mn486 2.087 . S
O492 C497 1.256 . S
C493 O499 1.278 . S
C493 O500 1.241 . S
C494 O480 1.244 . S
C494 O482 1.256 . S
C495 O484 1.239 . S
C495 O488 1.256 . S
C496 O485 1.278 . S
C496 O491 1.241 . S
C497 O487 1.244 . S
C497 O492 1.256 . S
C498 O489 1.239 . S
C498 O490 1.256 . S
O499 Mn481 2.221 . S
O499 Mn483 2.290 . S
O499 C493 1.278 . S
O500 Mn483 2.251 . S
O500 C493 1.241 . S
O501 Mn502 2.163 . S
O501 C515 1.244 . S
Mn502 O501 2.163 . S
Mn502 O505 2.160 . S
Mn502 O506 2.221 . S
Mn502 O508 2.163 . S
Mn502 O510 2.160 . S
Mn502 O520 2.221 . S
O503 Mn504 2.087 . S
O503 C515 1.256 . S
Mn504 O503 2.087 . S
Mn504 O511 2.089 . S
Mn504 O520 2.290 . S
Mn504 O521 2.251 . S
O505 Mn502 2.160 . S
O505 C516 1.239 . S
O506 Mn502 2.221 . S
O506 Mn507 2.290 . S
O506 C517 1.278 . S
Mn507 O506 2.290 . S
Mn507 O509 2.089 . S
Mn507 O512 2.251 . S
Mn507 O513 2.087 . S
O508 Mn502 2.163 . S
O508 C518 1.244 . S
O509 Mn507 2.089 . S
O509 C516 1.256 . S
O510 Mn502 2.160 . S
O510 C519 1.239 . S
O511 Mn504 2.089 . S
O511 C519 1.256 . S
O512 Mn507 2.251 . S
O512 C517 1.241 . S
O513 Mn507 2.087 . S
O513 C518 1.256 . S
C514 O520 1.278 . S
C514 O521 1.241 . S
C515 O501 1.244 . S
C515 O503 1.256 . S
C516 O505 1.239 . S
C516 O509 1.256 . S
C517 O506 1.278 . S
C517 O512 1.241 . S
C518 O508 1.244 . S
C518 O513 1.256 . S
C519 O510 1.239 . S
C519 O511 1.256 . S
O520 Mn502 2.221 . S
O520 Mn504 2.290 . S
O520 C514 1.278 . S
O521 Mn504 2.251 . S
O521 C514 1.241 . S
O522 Mn523 2.163 . S
O522 C536 1.244 . S
Mn523 O522 2.163 . S
Mn523 O526 2.160 . S
Mn523 O527 2.221 . S
Mn523 O529 2.163 . S
Mn523 O531 2.160 . S
Mn523 O541 2.221 . S
O524 Mn525 2.087 . S
O524 C536 1.256 . S
Mn525 O524 2.087 . S
Mn525 O532 2.089 . S
Mn525 O541 2.290 . S
Mn525 O542 2.251 . S
O526 Mn523 2.160 . S
O526 C537 1.239 . S
O527 Mn523 2.221 . S
O527 Mn528 2.290 . S
O527 C538 1.278 . S
Mn528 O527 2.290 . S
Mn528 O530 2.089 . S
Mn528 O533 2.251 . S
Mn528 O534 2.087 . S
O529 Mn523 2.163 . S
O529 C539 1.244 . S
O530 Mn528 2.089 . S
O530 C537 1.256 . S
O531 Mn523 2.160 . S
O531 C540 1.239 . S
O532 Mn525 2.089 . S
O532 C540 1.256 . S
O533 Mn528 2.251 . S
O533 C538 1.241 . S
O534 Mn528 2.087 . S
O534 C539 1.256 . S
C535 O541 1.278 . S
C535 O542 1.241 . S
C536 O522 1.244 . S
C536 O524 1.256 . S
C537 O526 1.239 . S
C537 O530 1.256 . S
C538 O527 1.278 . S
C538 O533 1.241 . S
C539 O529 1.244 . S
C539 O534 1.256 . S
C540 O531 1.239 . S
C540 O532 1.256 . S
O541 Mn523 2.221 . S
O541 Mn525 2.290 . S
O541 C535 1.278 . S
O542 Mn525 2.251 . S
O542 C535 1.241 . S
O543 Mn544 2.163 . S
O543 C557 1.244 . S
Mn544 O543 2.163 . S
Mn544 O547 2.160 . S
Mn544 O548 2.221 . S
Mn544 O550 2.163 . S
Mn544 O552 2.160 . S
Mn544 O562 2.221 . S
O545 Mn546 2.087 . S
O545 C557 1.256 . S
Mn546 O545 2.087 . S
Mn546 O553 2.089 . S
Mn546 O562 2.290 . S
Mn546 O563 2.251 . S
O547 Mn544 2.160 . S
O547 C558 1.239 . S
O548 Mn544 2.221 . S
O548 Mn549 2.290 . S
O548 C559 1.278 . S
Mn549 O548 2.290 . S
Mn549 O551 2.089 . S
Mn549 O554 2.251 . S
Mn549 O555 2.087 . S
O550 Mn544 2.163 . S
O550 C560 1.244 . S
O551 Mn549 2.089 . S
O551 C558 1.256 . S
O552 Mn544 2.160 . S
O552 C561 1.239 . S
O553 Mn546 2.089 . S
O553 C561 1.256 . S
O554 Mn549 2.251 . S
O554 C559 1.241 . S
O555 Mn549 2.087 . S
O555 C560 1.256 . S
C556 O562 1.278 . S
C556 O563 1.241 . S
C557 O543 1.244 . S
C557 O545 1.256 . S
C558 O547 1.239 . S
C558 O551 1.256 . S
C559 O548 1.278 . S
C559 O554 1.241 . S
C560 O550 1.244 . S
C560 O555 1.256 . S
C561 O552 1.239 . S
C561 O553 1.256 . S
O562 Mn544 2.221 . S
O562 Mn546 2.290 . S
O562 C556 1.278 . S
O563 Mn546 2.251 . S
O563 C556 1.241 . S
O564 Mn565 2.163 . S
O564 C578 1.244 . S
Mn565 O564 2.163 . S
Mn565 O568 2.160 . S
Mn565 O569 2.221 . S
Mn565 O571 2.163 . S
Mn565 O573 2.160 . S
Mn565 O583 2.221 . S
O566 Mn567 2.087 . S
O566 C578 1.256 . S
Mn567 O566 2.087 . S
Mn567 O574 2.089 . S
Mn567 O583 2.290 . S
Mn567 O584 2.251 . S
O568 Mn565 2.160 . S
O568 C579 1.239 . S
O569 Mn565 2.221 . S
O569 Mn570 2.290 . S
O569 C580 1.278 . S
Mn570 O569 2.290 . S
Mn570 O572 2.089 . S
Mn570 O575 2.251 . S
Mn570 O576 2.087 . S
O571 Mn565 2.163 . S
O571 C581 1.244 . S
O572 Mn570 2.089 . S
O572 C579 1.256 . S
O573 Mn565 2.160 . S
O573 C582 1.239 . S
O574 Mn567 2.089 . S
O574 C582 1.256 . S
O575 Mn570 2.251 . S
O575 C580 1.241 . S
O576 Mn570 2.087 . S
O576 C581 1.256 . S
C577 O583 1.278 . S
C577 O584 1.241 . S
C578 O564 1.244 . S
C578 O566 1.256 . S
C579 O568 1.239 . S
C579 O572 1.256 . S
C580 O569 1.278 . S
C580 O575 1.241 . S
C581 O571 1.244 . S
C581 O576 1.256 . S
C582 O573 1.239 . S
C582 O574 1.256 . S
O583 Mn565 2.221 . S
O583 Mn567 2.290 . S
O583 C577 1.278 . S
O584 Mn567 2.251 . S
O584 C577 1.241 . S
O585 Mn586 2.163 . S
O585 C599 1.244 . S
Mn586 O585 2.163 . S
Mn586 O589 2.160 . S
Mn586 O590 2.221 . S
Mn586 O592 2.163 . S
Mn586 O594 2.160 . S
Mn586 O604 2.221 . S
O587 Mn588 2.087 . S
O587 C599 1.256 . S
Mn588 O587 2.087 . S
Mn588 O595 2.089 . S
Mn588 O604 2.290 . S
Mn588 O605 2.251 . S
O589 Mn586 2.160 . S
O589 C600 1.239 . S
O590 Mn586 2.221 . S
O590 Mn591 2.290 . S
O590 C601 1.278 . S
Mn591 O590 2.290 . S
Mn591 O593 2.089 . S
Mn591 O596 2.251 . S
Mn591 O597 2.087 . S
O592 Mn586 2.163 . S
O592 C602 1.244 . S
O593 Mn591 2.089 . S
O593 C600 1.256 . S
O594 Mn586 2.160 . S
O594 C603 1.239 . S
O595 Mn588 2.089 . S
O595 C603 1.256 . S
O596 Mn591 2.251 . S
O596 C601 1.241 . S
O597 Mn591 2.087 . S
O597 C602 1.256 . S
C598 O604 1.278 . S
C598 O605 1.241 . S
C599 O585 1.244 . S
C599 O587 1.256 . S
C600 O589 1.239 . S
C600 O593 1.256 . S
C601 O590 1.278 . S
C601 O596 1.241 . S
C602 O592 1.244 . S
C602 O597 1.256 . S
C603 O594 1.239 . S
C603 O595 1.256 . S
O604 Mn586 2.221 . S
O604 Mn588 2.290 . S
O604 C598 1.278 . S
O605 Mn588 2.251 . S
O605 C598 1.241 . S
O606 Mn607 2.163 . S
O606 C620 1.244 . S
Mn607 O606 2.163 . S
Mn607 O610 2.160 . S
Mn607 O611 2.221 . S
Mn607 O613 2.163 . S
Mn607 O615 2.160 . S
Mn607 O625 2.221 . S
O608 Mn609 2.087 . S
O608 C620 1.256 . S
Mn609 O608 2.087 . S
Mn609 O616 2.089 . S
Mn609 O625 2.290 . S
Mn609 O626 2.251 . S
O610 Mn607 2.160 . S
O610 C621 1.239 . S
O611 Mn607 2.221 . S
O611 Mn612 2.290 . S
O611 C622 1.278 . S
Mn612 O611 2.290 . S
Mn612 O614 2.089 . S
Mn612 O617 2.251 . S
Mn612 O618 2.087 . S
O613 Mn607 2.163 . S
O613 C623 1.244 . S
O614 Mn612 2.089 . S
O614 C621 1.256 . S
O615 Mn607 2.160 . S
O615 C624 1.239 . S
O616 Mn609 2.089 . S
O616 C624 1.256 . S
O617 Mn612 2.251 . S
O617 C622 1.241 . S
O618 Mn612 2.087 . S
O618 C623 1.256 . S
C619 O625 1.278 . S
C619 O626 1.241 . S
C620 O606 1.244 . S
C620 O608 1.256 . S
C621 O610 1.239 . S
C621 O614 1.256 . S
C622 O611 1.278 . S
C622 O617 1.241 . S
C623 O613 1.244 . S
C623 O618 1.256 . S
C624 O615 1.239 . S
C624 O616 1.256 . S
O625 Mn607 2.221 . S
O625 Mn609 2.290 . S
O625 C619 1.278 . S
O626 Mn609 2.251 . S
O626 C619 1.241 . S
O627 Mn628 2.163 . S
O627 C641 1.244 . S
Mn628 O627 2.163 . S
Mn628 O631 2.160 . S
Mn628 O632 2.221 . S
Mn628 O634 2.163 . S
Mn628 O636 2.160 . S
Mn628 O646 2.221 . S
O629 Mn630 2.087 . S
O629 C641 1.256 . S
Mn630 O629 2.087 . S
Mn630 O637 2.089 . S
Mn630 O646 2.290 . S
Mn630 O647 2.251 . S
O631 Mn628 2.160 . S
O631 C642 1.239 . S
O632 Mn628 2.221 . S
O632 Mn633 2.290 . S
O632 C643 1.278 . S
Mn633 O632 2.290 . S
Mn633 O635 2.089 . S
Mn633 O638 2.251 . S
Mn633 O639 2.087 . S
O634 Mn628 2.163 . S
O634 C644 1.244 . S
O635 Mn633 2.089 . S
O635 C642 1.256 . S
O636 Mn628 2.160 . S
O636 C645 1.239 . S
O637 Mn630 2.089 . S
O637 C645 1.256 . S
O638 Mn633 2.251 . S
O638 C643 1.241 . S
O639 Mn633 2.087 . S
O639 C644 1.256 . S
C640 O646 1.278 . S
C640 O647 1.241 . S
C641 O627 1.244 . S
C641 O629 1.256 . S
C642 O631 1.239 . S
C642 O635 1.256 . S
C643 O632 1.278 . S
C643 O638 1.241 . S
C644 O634 1.244 . S
C644 O639 1.256 . S
C645 O636 1.239 . S
C645 O637 1.256 . S
O646 Mn628 2.221 . S
O646 Mn630 2.290 . S
O646 C640 1.278 . S
O647 Mn630 2.251 . S
O647 C640 1.241 . S
H648 C656 0.929 . S
H649 C658 0.930 . S
H650 C660 0.930 . S
H651 C663 0.929 . S
H652 C666 0.930 . S
H653 C668 0.960 . S
H654 C668 0.960 . S
H655 C668 0.960 . S
C656 H648 0.929 . S
C656 C657 1.377 . S
C656 C658 1.384 . S
C657 C656 1.377 . S
C657 C663 1.390 . S
C658 H649 0.930 . S
C658 C656 1.384 . S
C658 C659 1.372 . S
C659 C658 1.372 . S
C659 C660 1.400 . S
C659 C664 1.490 . S
C660 H650 0.930 . S
C660 C659 1.400 . S
C660 C663 1.386 . S
H661 C677 0.930 . S
H662 C678 0.931 . S
C663 H651 0.929 . S
C663 C657 1.390 . S
C663 C660 1.386 . S
C664 C659 1.490 . S
C664 C666 1.395 . S
C664 C667 1.403 . S
H665 C671 0.930 . S
C666 H652 0.930 . S
C666 C664 1.395 . S
C666 C669 1.403 . S
C667 C664 1.403 . S
C667 C668 1.524 . S
C667 C671 1.400 . S
C668 H653 0.960 . S
C668 H654 0.960 . S
C668 H655 0.960 . S
C668 C667 1.524 . S
C669 C666 1.403 . S
C669 C670 1.392 . S
C669 C673 1.495 . S
C670 C669 1.392 . S
C670 C671 1.385 . S
C670 C672 1.478 . S
C671 H665 0.930 . S
C671 C667 1.400 . S
C671 C670 1.385 . S
C672 C670 1.478 . S
C672 C674 1.381 . S
C672 C678 1.383 . S
C673 C669 1.495 . S
C673 H679 0.959 . S
C673 H680 0.961 . S
C673 H681 0.960 . S
C674 C672 1.381 . S
C674 C675 1.394 . S
C674 H682 0.930 . S
C675 C674 1.394 . S
C675 C676 1.383 . S
C675 H683 0.929 . S
C676 C675 1.383 . S
C676 C677 1.377 . S
C677 H661 0.930 . S
C677 C676 1.377 . S
C677 C678 1.379 . S
C678 H662 0.931 . S
C678 C672 1.383 . S
C678 C677 1.379 . S
H679 C673 0.959 . S
H680 C673 0.961 . S
H681 C673 0.960 . S
H682 C674 0.930 . S
H683 C675 0.929 . S
H684 C692 0.929 . S
H685 C694 0.930 . S
H686 C696 0.930 . S
H687 C699 0.929 . S
H688 C702 0.930 . S
H689 C704 0.960 . S
H690 C704 0.960 . S
H691 C704 0.960 . S
C692 H684 0.929 . S
C692 C693 1.377 . S
C692 C694 1.384 . S
C693 C692 1.377 . S
C693 C699 1.390 . S
C694 H685 0.930 . S
C694 C692 1.384 . S
C694 C695 1.372 . S
C695 C694 1.372 . S
C695 C696 1.400 . S
C695 C700 1.490 . S
C696 H686 0.930 . S
C696 C695 1.400 . S
C696 C699 1.386 . S
H697 C713 0.930 . S
H698 C714 0.931 . S
C699 H687 0.929 . S
C699 C693 1.390 . S
C699 C696 1.386 . S
C700 C695 1.490 . S
C700 C702 1.395 . S
C700 C703 1.403 . S
H701 C707 0.930 . S
C702 H688 0.930 . S
C702 C700 1.395 . S
C702 C705 1.403 . S
C703 C700 1.403 . S
C703 C704 1.524 . S
C703 C707 1.400 . S
C704 H689 0.960 . S
C704 H690 0.960 . S
C704 H691 0.960 . S
C704 C703 1.524 . S
C705 C702 1.403 . S
C705 C706 1.392 . S
C705 C709 1.495 . S
C706 C705 1.392 . S
C706 C707 1.385 . S
C706 C708 1.478 . S
C707 H701 0.930 . S
C707 C703 1.400 . S
C707 C706 1.385 . S
C708 C706 1.478 . S
C708 C710 1.381 . S
C708 C714 1.383 . S
C709 C705 1.495 . S
C709 H715 0.959 . S
C709 H716 0.961 . S
C709 H717 0.960 . S
C710 C708 1.381 . S
C710 C711 1.394 . S
C710 H718 0.930 . S
C711 C710 1.394 . S
C711 C712 1.383 . S
C711 H719 0.929 . S
C712 C711 1.383 . S
C712 C713 1.377 . S
C713 H697 0.930 . S
C713 C712 1.377 . S
C713 C714 1.379 . S
C714 H698 0.931 . S
C714 C708 1.383 . S
C714 C713 1.379 . S
H715 C709 0.959 . S
H716 C709 0.961 . S
H717 C709 0.960 . S
H718 C710 0.930 . S
H719 C711 0.929 . S
H720 C728 0.929 . S
H721 C730 0.930 . S
H722 C732 0.930 . S
H723 C735 0.929 . S
H724 C738 0.930 . S
H725 C740 0.960 . S
H726 C740 0.960 . S
H727 C740 0.960 . S
C728 H720 0.929 . S
C728 C729 1.377 . S
C728 C730 1.384 . S
C729 C728 1.377 . S
C729 C735 1.390 . S
C730 H721 0.930 . S
C730 C728 1.384 . S
C730 C731 1.372 . S
C731 C730 1.372 . S
C731 C732 1.400 . S
C731 C736 1.490 . S
C732 H722 0.930 . S
C732 C731 1.400 . S
C732 C735 1.386 . S
H733 C749 0.930 . S
H734 C750 0.931 . S
C735 H723 0.929 . S
C735 C729 1.390 . S
C735 C732 1.386 . S
C736 C731 1.490 . S
C736 C738 1.395 . S
C736 C739 1.403 . S
H737 C743 0.930 . S
C738 H724 0.930 . S
C738 C736 1.395 . S
C738 C741 1.403 . S
C739 C736 1.403 . S
C739 C740 1.524 . S
C739 C743 1.400 . S
C740 H725 0.960 . S
C740 H726 0.960 . S
C740 H727 0.960 . S
C740 C739 1.524 . S
C741 C738 1.403 . S
C741 C742 1.392 . S
C741 C745 1.495 . S
C742 C741 1.392 . S
C742 C743 1.385 . S
C742 C744 1.478 . S
C743 H737 0.930 . S
C743 C739 1.400 . S
C743 C742 1.385 . S
C744 C742 1.478 . S
C744 C746 1.381 . S
C744 C750 1.383 . S
C745 C741 1.495 . S
C745 H751 0.959 . S
C745 H752 0.961 . S
C745 H753 0.960 . S
C746 C744 1.381 . S
C746 C747 1.394 . S
C746 H754 0.930 . S
C747 C746 1.394 . S
C747 C748 1.383 . S
C747 H755 0.929 . S
C748 C747 1.383 . S
C748 C749 1.377 . S
C749 H733 0.930 . S
C749 C748 1.377 . S
C749 C750 1.379 . S
C750 H734 0.931 . S
C750 C744 1.383 . S
C750 C749 1.379 . S
H751 C745 0.959 . S
H752 C745 0.961 . S
H753 C745 0.960 . S
H754 C746 0.930 . S
H755 C747 0.929 . S
H756 C764 0.929 . S
H757 C766 0.930 . S
H758 C768 0.930 . S
H759 C771 0.929 . S
H760 C774 0.930 . S
H761 C776 0.960 . S
H762 C776 0.960 . S
H763 C776 0.960 . S
C764 H756 0.929 . S
C764 C765 1.377 . S
C764 C766 1.384 . S
C765 C764 1.377 . S
C765 C771 1.390 . S
C766 H757 0.930 . S
C766 C764 1.384 . S
C766 C767 1.372 . S
C767 C766 1.372 . S
C767 C768 1.400 . S
C767 C772 1.490 . S
C768 H758 0.930 . S
C768 C767 1.400 . S
C768 C771 1.386 . S
H769 C785 0.930 . S
H770 C786 0.931 . S
C771 H759 0.929 . S
C771 C765 1.390 . S
C771 C768 1.386 . S
C772 C767 1.490 . S
C772 C774 1.395 . S
C772 C775 1.403 . S
H773 C779 0.930 . S
C774 H760 0.930 . S
C774 C772 1.395 . S
C774 C777 1.403 . S
C775 C772 1.403 . S
C775 C776 1.524 . S
C775 C779 1.400 . S
C776 H761 0.960 . S
C776 H762 0.960 . S
C776 H763 0.960 . S
C776 C775 1.524 . S
C777 C774 1.403 . S
C777 C778 1.392 . S
C777 C781 1.495 . S
C778 C777 1.392 . S
C778 C779 1.385 . S
C778 C780 1.478 1_554 S
C779 H773 0.930 . S
C779 C775 1.400 . S
C779 C778 1.385 . S
C780 C778 1.478 1_556 S
C780 C782 1.381 . S
C780 C786 1.383 . S
C781 C777 1.495 . S
C781 H787 0.959 . S
C781 H788 0.961 . S
C781 H789 0.960 . S
C782 C780 1.381 . S
C782 C783 1.394 . S
C782 H790 0.930 1_556 S
C783 C782 1.394 . S
C783 C784 1.383 . S
C783 H791 0.929 . S
C784 C783 1.383 . S
C784 C785 1.377 . S
C785 H769 0.930 . S
C785 C784 1.377 . S
C785 C786 1.379 . S
C786 H770 0.931 . S
C786 C780 1.383 . S
C786 C785 1.379 . S
H787 C781 0.959 . S
H788 C781 0.961 . S
H789 C781 0.960 . S
H790 C782 0.930 1_554 S
H791 C783 0.929 . S
H792 C800 0.929 . S
H793 C802 0.930 . S
H794 C804 0.930 . S
H795 C807 0.929 . S
H796 C810 0.930 . S
H797 C812 0.960 . S
H798 C812 0.960 . S
H799 C812 0.960 . S
C800 H792 0.929 . S
C800 C801 1.377 . S
C800 C802 1.384 . S
C801 C800 1.377 . S
C801 C807 1.390 . S
C802 H793 0.930 . S
C802 C800 1.384 . S
C802 C803 1.372 . S
C803 C802 1.372 . S
C803 C804 1.400 . S
C803 C808 1.490 . S
C804 H794 0.930 . S
C804 C803 1.400 . S
C804 C807 1.386 . S
H805 C821 0.930 . S
H806 C822 0.931 . S
C807 H795 0.929 . S
C807 C801 1.390 . S
C807 C804 1.386 . S
C808 C803 1.490 . S
C808 C810 1.395 . S
C808 C811 1.403 . S
H809 C815 0.930 . S
C810 H796 0.930 . S
C810 C808 1.395 . S
C810 C813 1.403 . S
C811 C808 1.403 . S
C811 C812 1.524 . S
C811 C815 1.400 . S
C812 H797 0.960 . S
C812 H798 0.960 . S
C812 H799 0.960 . S
C812 C811 1.524 . S
C813 C810 1.403 . S
C813 C814 1.392 . S
C813 C817 1.495 . S
C814 C813 1.392 . S
C814 C815 1.385 . S
C814 C816 1.478 . S
C815 H809 0.930 . S
C815 C811 1.400 . S
C815 C814 1.385 . S
C816 C814 1.478 . S
C816 C818 1.381 . S
C816 C822 1.383 . S
C817 C813 1.495 . S
C817 H823 0.959 . S
C817 H824 0.961 . S
C817 H825 0.960 . S
C818 C816 1.381 . S
C818 C819 1.394 . S
C818 H826 0.930 . S
C819 C818 1.394 . S
C819 C820 1.383 . S
C819 H827 0.929 . S
C820 C819 1.383 . S
C820 C821 1.377 . S
C821 H805 0.930 . S
C821 C820 1.377 . S
C821 C822 1.379 . S
C822 H806 0.931 . S
C822 C816 1.383 . S
C822 C821 1.379 . S
H823 C817 0.959 . S
H824 C817 0.961 . S
H825 C817 0.960 . S
H826 C818 0.930 . S
H827 C819 0.929 . S
H828 C836 0.929 . S
H829 C838 0.930 . S
H830 C840 0.930 . S
H831 C843 0.929 . S
H832 C846 0.930 . S
H833 C848 0.960 . S
H834 C848 0.960 . S
H835 C848 0.960 . S
C836 H828 0.929 . S
C836 C837 1.377 . S
C836 C838 1.384 . S
C837 C836 1.377 . S
C837 C843 1.390 . S
C838 H829 0.930 . S
C838 C836 1.384 . S
C838 C839 1.372 . S
C839 C838 1.372 . S
C839 C840 1.400 . S
C839 C844 1.490 . S
C840 H830 0.930 . S
C840 C839 1.400 . S
C840 C843 1.386 . S
H841 C857 0.930 . S
H842 C858 0.931 . S
C843 H831 0.929 . S
C843 C837 1.390 . S
C843 C840 1.386 . S
C844 C839 1.490 . S
C844 C846 1.395 . S
C844 C847 1.403 . S
H845 C851 0.930 . S
C846 H832 0.930 . S
C846 C844 1.395 . S
C846 C849 1.403 . S
C847 C844 1.403 . S
C847 C848 1.524 . S
C847 C851 1.400 . S
C848 H833 0.960 . S
C848 H834 0.960 . S
C848 H835 0.960 . S
C848 C847 1.524 . S
C849 C846 1.403 . S
C849 C850 1.392 . S
C849 C853 1.495 . S
C850 C849 1.392 . S
C850 C851 1.385 . S
C850 C852 1.478 . S
C851 H845 0.930 . S
C851 C847 1.400 . S
C851 C850 1.385 . S
C852 C850 1.478 . S
C852 C854 1.381 . S
C852 C858 1.383 . S
C853 C849 1.495 . S
C853 H859 0.959 . S
C853 H860 0.961 . S
C853 H861 0.960 . S
C854 C852 1.381 . S
C854 C855 1.394 . S
C854 H862 0.930 . S
C855 C854 1.394 . S
C855 C856 1.383 . S
C855 H863 0.929 . S
C856 C855 1.383 . S
C856 C857 1.377 . S
C857 H841 0.930 . S
C857 C856 1.377 . S
C857 C858 1.379 . S
C858 H842 0.931 . S
C858 C852 1.383 . S
C858 C857 1.379 . S
H859 C853 0.959 . S
H860 C853 0.961 . S
H861 C853 0.960 . S
H862 C854 0.930 . S
H863 C855 0.929 . S
H864 C872 0.929 . S
H865 C874 0.930 . S
H866 C876 0.930 . S
H867 C879 0.929 . S
H868 C882 0.930 . S
H869 C884 0.960 . S
H870 C884 0.960 . S
H871 C884 0.960 . S
C872 H864 0.929 . S
C872 C873 1.377 . S
C872 C874 1.384 . S
C873 C872 1.377 . S
C873 C879 1.390 . S
C874 H865 0.930 . S
C874 C872 1.384 . S
C874 C875 1.372 . S
C875 C874 1.372 . S
C875 C876 1.400 . S
C875 C880 1.490 . S
C876 H866 0.930 . S
C876 C875 1.400 . S
C876 C879 1.386 . S
H877 C893 0.930 . S
H878 C894 0.931 . S
C879 H867 0.929 . S
C879 C873 1.390 . S
C879 C876 1.386 . S
C880 C875 1.490 . S
C880 C882 1.395 . S
C880 C883 1.403 . S
H881 C887 0.930 . S
C882 H868 0.930 . S
C882 C880 1.395 . S
C882 C885 1.403 . S
C883 C880 1.403 . S
C883 C884 1.524 . S
C883 C887 1.400 . S
C884 H869 0.960 . S
C884 H870 0.960 . S
C884 H871 0.960 . S
C884 C883 1.524 . S
C885 C882 1.403 . S
C885 C886 1.392 . S
C885 C889 1.495 . S
C886 C885 1.392 . S
C886 C887 1.385 . S
C886 C888 1.478 . S
C887 H881 0.930 . S
C887 C883 1.400 . S
C887 C886 1.385 . S
C888 C886 1.478 . S
C888 C890 1.381 . S
C888 C894 1.383 . S
C889 C885 1.495 . S
C889 H895 0.959 . S
C889 H896 0.961 . S
C889 H897 0.960 . S
C890 C888 1.381 . S
C890 C891 1.394 . S
C890 H898 0.930 . S
C891 C890 1.394 . S
C891 C892 1.383 . S
C891 H899 0.929 . S
C892 C891 1.383 . S
C892 C893 1.377 . S
C893 H877 0.930 . S
C893 C892 1.377 . S
C893 C894 1.379 . S
C894 H878 0.931 . S
C894 C888 1.383 . S
C894 C893 1.379 . S
H895 C889 0.959 . S
H896 C889 0.961 . S
H897 C889 0.960 . S
H898 C890 0.930 . S
H899 C891 0.929 . S
H900 C908 0.929 . S
H901 C910 0.930 . S
H902 C912 0.930 . S
H903 C915 0.929 . S
H904 C918 0.930 . S
H905 C920 0.960 . S
H906 C920 0.960 . S
H907 C920 0.960 . S
C908 H900 0.929 . S
C908 C909 1.377 . S
C908 C910 1.384 . S
C909 C908 1.377 . S
C909 C915 1.390 . S
C910 H901 0.930 . S
C910 C908 1.384 . S
C910 C911 1.372 . S
C911 C910 1.372 . S
C911 C912 1.400 . S
C911 C916 1.490 1_556 S
C912 H902 0.930 . S
C912 C911 1.400 . S
C912 C915 1.386 . S
H913 C929 0.930 . S
H914 C930 0.931 . S
C915 H903 0.929 . S
C915 C909 1.390 . S
C915 C912 1.386 . S
C916 C911 1.490 1_554 S
C916 C918 1.395 . S
C916 C919 1.403 . S
H917 C923 0.930 . S
C918 H904 0.930 . S
C918 C916 1.395 . S
C918 C921 1.403 . S
C919 C916 1.403 . S
C919 C920 1.524 1_554 S
C919 C923 1.400 . S
C920 H905 0.960 . S
C920 H906 0.960 . S
C920 H907 0.960 . S
C920 C919 1.524 1_556 S
C921 C918 1.403 . S
C921 C922 1.392 . S
C921 C925 1.495 . S
C922 C921 1.392 . S
C922 C923 1.385 . S
C922 C924 1.478 . S
C923 H917 0.930 . S
C923 C919 1.400 . S
C923 C922 1.385 . S
C924 C922 1.478 . S
C924 C926 1.381 . S
C924 C930 1.383 . S
C925 C921 1.495 . S
C925 H931 0.959 . S
C925 H932 0.961 . S
C925 H933 0.960 . S
C926 C924 1.381 . S
C926 C927 1.394 . S
C926 H934 0.930 . S
C927 C926 1.394 . S
C927 C928 1.383 . S
C927 H935 0.929 . S
C928 C927 1.383 . S
C928 C929 1.377 . S
C929 H913 0.930 . S
C929 C928 1.377 . S
C929 C930 1.379 . S
C930 H914 0.931 . S
C930 C924 1.383 . S
C930 C929 1.379 . S
H931 C925 0.959 . S
H932 C925 0.961 . S
H933 C925 0.960 . S
H934 C926 0.930 . S
H935 C927 0.929 . S
H936 C944 0.929 . S
H937 C946 0.930 . S
H938 C948 0.930 . S
H939 C951 0.929 . S
H940 C954 0.930 . S
H941 C956 0.960 . S
H942 C956 0.960 . S
H943 C956 0.960 . S
C944 H936 0.929 . S
C944 C945 1.377 . S
C944 C946 1.384 . S
C945 C944 1.377 . S
C945 C951 1.390 . S
C946 H937 0.930 . S
C946 C944 1.384 . S
C946 C947 1.372 . S
C947 C946 1.372 . S
C947 C948 1.400 . S
C947 C952 1.490 . S
C948 H938 0.930 . S
C948 C947 1.400 . S
C948 C951 1.386 . S
H949 C965 0.930 . S
H950 C966 0.931 . S
C951 H939 0.929 . S
C951 C945 1.390 . S
C951 C948 1.386 . S
C952 C947 1.490 . S
C952 C954 1.395 . S
C952 C955 1.403 . S
H953 C959 0.930 . S
C954 H940 0.930 . S
C954 C952 1.395 . S
C954 C957 1.403 . S
C955 C952 1.403 . S
C955 C956 1.524 . S
C955 C959 1.400 . S
C956 H941 0.960 . S
C956 H942 0.960 . S
C956 H943 0.960 . S
C956 C955 1.524 . S
C957 C954 1.403 . S
C957 C958 1.392 . S
C957 C961 1.495 . S
C958 C957 1.392 . S
C958 C959 1.385 . S
C958 C960 1.478 . S
C959 H953 0.930 . S
C959 C955 1.400 . S
C959 C958 1.385 . S
C960 C958 1.478 . S
C960 C962 1.381 . S
C960 C966 1.383 . S
C961 C957 1.495 . S
C961 H967 0.959 . S
C961 H968 0.961 . S
C961 H969 0.960 . S
C962 C960 1.381 . S
C962 C963 1.394 . S
C962 H970 0.930 . S
C963 C962 1.394 . S
C963 C964 1.383 . S
C963 H971 0.929 . S
C964 C963 1.383 . S
C964 C965 1.377 . S
C965 H949 0.930 . S
C965 C964 1.377 . S
C965 C966 1.379 . S
C966 H950 0.931 . S
C966 C960 1.383 . S
C966 C965 1.379 . S
H967 C961 0.959 . S
H968 C961 0.961 . S
H969 C961 0.960 . S
H970 C962 0.930 . S
H971 C963 0.929 . S
H972 C980 0.929 . S
H973 C982 0.930 . S
H974 C984 0.930 . S
H975 C987 0.929 . S
H976 C990 0.930 . S
H977 C992 0.960 . S
H978 C992 0.960 . S
H979 C992 0.960 . S
C980 H972 0.929 . S
C980 C981 1.377 . S
C980 C982 1.384 . S
C981 C980 1.377 . S
C981 C987 1.390 . S
C982 H973 0.930 . S
C982 C980 1.384 . S
C982 C983 1.372 . S
C983 C982 1.372 . S
C983 C984 1.400 . S
C983 C988 1.490 . S
C984 H974 0.930 . S
C984 C983 1.400 . S
C984 C987 1.386 . S
H985 C1001 0.930 . S
H986 C1002 0.931 . S
C987 H975 0.929 . S
C987 C981 1.390 . S
C987 C984 1.386 . S
C988 C983 1.490 . S
C988 C990 1.395 . S
C988 C991 1.403 . S
H989 C995 0.930 . S
C990 H976 0.930 . S
C990 C988 1.395 . S
C990 C993 1.403 . S
C991 C988 1.403 . S
C991 C992 1.524 . S
C991 C995 1.400 . S
C992 H977 0.960 . S
C992 H978 0.960 . S
C992 H979 0.960 . S
C992 C991 1.524 . S
C993 C990 1.403 . S
C993 C994 1.392 . S
C993 C997 1.495 . S
C994 C993 1.392 . S
C994 C995 1.385 . S
C994 C996 1.478 1_545 S
C995 H989 0.930 . S
C995 C991 1.400 . S
C995 C994 1.385 . S
C996 C994 1.478 1_565 S
C996 C998 1.381 . S
C996 C1002 1.383 . S
C997 C993 1.495 . S
C997 H1003 0.959 . S
C997 H1004 0.961 . S
C997 H1005 0.960 . S
C998 C996 1.381 . S
C998 C999 1.394 . S
C998 H1006 0.930 1_565 S
C999 C998 1.394 . S
C999 C1000 1.383 . S
C999 H1007 0.929 . S
C1000 C999 1.383 . S
C1000 C1001 1.377 . S
C1001 H985 0.930 . S
C1001 C1000 1.377 . S
C1001 C1002 1.379 . S
C1002 H986 0.931 . S
C1002 C996 1.383 . S
C1002 C1001 1.379 . S
H1003 C997 0.959 . S
H1004 C997 0.961 . S
H1005 C997 0.960 . S
H1006 C998 0.930 1_545 S
H1007 C999 0.929 . S
H1008 C1016 0.929 . S
H1009 C1018 0.930 1_565 S
H1010 C1020 0.930 . S
H1011 C1023 0.929 . S
H1012 C1026 0.930 . S
H1013 C1028 0.960 . S
H1014 C1028 0.960 . S
H1015 C1028 0.960 . S
C1016 H1008 0.929 . S
C1016 C1017 1.377 . S
C1016 C1018 1.384 . S
C1017 C1016 1.377 . S
C1017 C1023 1.390 . S
C1018 H1009 0.930 1_545 S
C1018 C1016 1.384 . S
C1018 C1019 1.372 . S
C1019 C1018 1.372 . S
C1019 C1020 1.400 . S
C1019 C1024 1.490 1_545 S
C1020 H1010 0.930 . S
C1020 C1019 1.400 . S
C1020 C1023 1.386 . S
H1021 C1037 0.930 . S
H1022 C1038 0.931 . S
C1023 H1011 0.929 . S
C1023 C1017 1.390 . S
C1023 C1020 1.386 . S
C1024 C1019 1.490 1_565 S
C1024 C1026 1.395 . S
C1024 C1027 1.403 1_565 S
H1025 C1031 0.930 1_545 S
C1026 H1012 0.930 . S
C1026 C1024 1.395 . S
C1026 C1029 1.403 . S
C1027 C1024 1.403 1_545 S
C1027 C1028 1.524 . S
C1027 C1031 1.400 1_545 S
C1028 H1013 0.960 . S
C1028 H1014 0.960 . S
C1028 H1015 0.960 . S
C1028 C1027 1.524 . S
C1029 C1026 1.403 . S
C1029 C1030 1.392 . S
C1029 C1033 1.495 . S
C1030 C1029 1.392 . S
C1030 C1031 1.385 . S
C1030 C1032 1.478 . S
C1031 H1025 0.930 1_565 S
C1031 C1027 1.400 1_565 S
C1031 C1030 1.385 . S
C1032 C1030 1.478 . S
C1032 C1034 1.381 . S
C1032 C1038 1.383 . S
C1033 C1029 1.495 . S
C1033 H1039 0.959 . S
C1033 H1040 0.961 . S
C1033 H1041 0.960 . S
C1034 C1032 1.381 . S
C1034 C1035 1.394 . S
C1034 H1042 0.930 . S
C1035 C1034 1.394 . S
C1035 C1036 1.383 . S
C1035 H1043 0.929 . S
C1036 C1035 1.383 . S
C1036 C1037 1.377 . S
C1037 H1021 0.930 . S
C1037 C1036 1.377 . S
C1037 C1038 1.379 . S
C1038 H1022 0.931 . S
C1038 C1032 1.383 . S
C1038 C1037 1.379 . S
H1039 C1033 0.959 . S
H1040 C1033 0.961 . S
H1041 C1033 0.960 . S
H1042 C1034 0.930 . S
H1043 C1035 0.929 . S
H1044 C1052 0.929 . S
H1045 C1054 0.930 . S
H1046 C1056 0.930 1_545 S
H1047 C1059 0.929 . S
H1048 C1062 0.930 . S
H1049 C1064 0.960 . S
H1050 C1064 0.960 . S
H1051 C1064 0.960 . S
C1052 H1044 0.929 . S
C1052 C1053 1.419 . S
C1052 C1054 1.384 . S
C1053 C1052 1.419 . S
C1053 C1059 1.364 1_556 S
C1054 H1045 0.930 . S
C1054 C1052 1.384 . S
C1054 C1055 1.372 1_565 S
C1055 C1054 1.372 1_545 S
C1055 C1056 1.400 1_546 S
C1055 C1060 1.490 . S
C1056 H1046 0.930 1_565 S
C1056 C1055 1.400 1_564 S
C1056 C1059 1.386 . S
H1057 C1073 0.930 . S
H1058 C1074 0.931 . S
C1059 H1047 0.929 . S
C1059 C1053 1.364 1_554 S
C1059 C1056 1.386 . S
C1060 C1055 1.490 . S
C1060 C1062 1.395 . S
C1060 C1063 1.403 . S
H1061 C1067 0.930 . S
C1062 H1048 0.930 . S
C1062 C1060 1.395 . S
C1062 C1065 1.403 . S
C1063 C1060 1.403 . S
C1063 C1064 1.524 . S
C1063 C1067 1.400 . S
C1064 H1049 0.960 . S
C1064 H1050 0.960 . S
C1064 H1051 0.960 . S
C1064 C1063 1.524 . S
C1065 C1062 1.403 . S
C1065 C1066 1.392 . S
C1065 C1069 1.495 . S
C1066 C1065 1.392 . S
C1066 C1067 1.385 . S
C1066 C1068 1.478 . S
C1067 H1061 0.930 . S
C1067 C1063 1.400 . S
C1067 C1066 1.385 . S
C1068 C1066 1.478 . S
C1068 C1070 1.381 . S
C1068 C1074 1.383 . S
C1069 C1065 1.495 . S
C1069 H1075 0.959 . S
C1069 H1076 0.961 . S
C1069 H1077 0.960 . S
C1070 C1068 1.381 . S
C1070 C1071 1.394 . S
C1070 H1078 0.930 . S
C1071 C1070 1.394 . S
C1071 C1072 1.383 . S
C1071 H1079 0.929 . S
C1072 C1071 1.383 . S
C1072 C1073 1.377 . S
C1073 H1057 0.930 . S
C1073 C1072 1.377 . S
C1073 C1074 1.379 . S
C1074 H1058 0.931 . S
C1074 C1068 1.383 . S
C1074 C1073 1.379 . S
H1075 C1069 0.959 . S
H1076 C1069 0.961 . S
H1077 C1069 0.960 . S
H1078 C1070 0.930 . S
H1079 C1071 0.929 . S
H1080 C1088 0.924 . S
H1081 C1090 0.930 . S
H1082 C1092 0.930 . S
H1083 C1095 0.929 . S
H1084 C1098 0.930 . S
H1085 C1100 0.960 . S
H1086 C1100 0.960 . S
H1087 C1100 0.960 . S
C1088 H1080 0.924 . S
C1088 C1089 1.377 . S
C1088 C1090 1.384 . S
C1089 C1088 1.377 . S
C1089 C1095 1.390 . S
C1090 H1081 0.930 . S
C1090 C1088 1.384 . S
C1090 C1091 1.372 . S
C1091 C1090 1.372 . S
C1091 C1092 1.400 . S
C1091 C1096 1.490 . S
C1092 H1082 0.930 . S
C1092 C1091 1.400 . S
C1092 C1095 1.386 . S
H1093 C1109 0.930 . S
H1094 C1110 0.931 . S
C1095 H1083 0.929 . S
C1095 C1089 1.390 . S
C1095 C1092 1.386 . S
C1096 C1091 1.490 . S
C1096 C1098 1.395 . S
C1096 C1099 1.403 . S
H1097 C1103 0.930 . S
C1098 H1084 0.930 . S
C1098 C1096 1.395 . S
C1098 C1101 1.403 . S
C1099 C1096 1.403 . S
C1099 C1100 1.524 . S
C1099 C1103 1.400 . S
C1100 H1085 0.960 . S
C1100 H1086 0.960 . S
C1100 H1087 0.960 . S
C1100 C1099 1.524 . S
C1101 C1098 1.403 . S
C1101 C1102 1.392 . S
C1101 C1105 1.495 . S
C1102 C1101 1.392 . S
C1102 C1103 1.385 . S
C1102 C1104 1.478 . S
C1103 H1097 0.930 . S
C1103 C1099 1.400 . S
C1103 C1102 1.385 . S
C1104 C1102 1.478 . S
C1104 C1106 1.381 . S
C1104 C1110 1.383 . S
C1105 C1101 1.495 . S
C1105 H1111 0.959 . S
C1105 H1112 0.961 . S
C1105 H1113 0.960 . S
C1106 C1104 1.381 . S
C1106 C1107 1.394 . S
C1106 H1114 0.930 . S
C1107 C1106 1.394 . S
C1107 C1108 1.383 . S
C1107 H1115 0.929 . S
C1108 C1107 1.383 . S
C1108 C1109 1.377 . S
C1109 H1093 0.930 . S
C1109 C1108 1.377 . S
C1109 C1110 1.379 . S
C1110 H1094 0.931 . S
C1110 C1104 1.383 . S
C1110 C1109 1.379 . S
H1111 C1105 0.959 . S
H1112 C1105 0.961 . S
H1113 C1105 0.960 . S
H1114 C1106 0.930 . S
H1115 C1107 0.929 . S
H1116 C1124 0.929 . S
H1117 C1126 0.930 . S
H1118 C1128 0.930 . S
H1119 C1131 0.929 . S
H1120 C1134 0.930 . S
H1121 C1136 0.960 . S
H1122 C1136 0.960 . S
H1123 C1136 0.960 . S
C1124 H1116 0.929 . S
C1124 C1125 1.377 . S
C1124 C1126 1.384 . S
C1125 C1124 1.377 . S
C1125 C1131 1.390 . S
C1126 H1117 0.930 . S
C1126 C1124 1.384 . S
C1126 C1127 1.372 . S
C1127 C1126 1.372 . S
C1127 C1128 1.400 . S
C1127 C1132 1.490 . S
C1128 H1118 0.930 . S
C1128 C1127 1.400 . S
C1128 C1131 1.386 . S
H1129 C1145 0.930 . S
H1130 C1146 0.931 . S
C1131 H1119 0.929 . S
C1131 C1125 1.390 . S
C1131 C1128 1.386 . S
C1132 C1127 1.490 . S
C1132 C1134 1.395 . S
C1132 C1135 1.403 . S
H1133 C1139 0.930 . S
C1134 H1120 0.930 . S
C1134 C1132 1.395 . S
C1134 C1137 1.403 . S
C1135 C1132 1.403 . S
C1135 C1136 1.524 . S
C1135 C1139 1.400 . S
C1136 H1121 0.960 . S
C1136 H1122 0.960 . S
C1136 H1123 0.960 . S
C1136 C1135 1.524 . S
C1137 C1134 1.403 . S
C1137 C1138 1.392 . S
C1137 C1141 1.495 . S
C1138 C1137 1.392 . S
C1138 C1139 1.385 . S
C1138 C1140 1.478 . S
C1139 H1133 0.930 . S
C1139 C1135 1.400 . S
C1139 C1138 1.385 . S
C1140 C1138 1.478 . S
C1140 C1142 1.381 1_545 S
C1140 C1146 1.383 . S
C1141 C1137 1.495 . S
C1141 H1147 0.959 . S
C1141 H1148 0.961 . S
C1141 H1149 0.960 1_545 S
C1142 C1140 1.381 1_565 S
C1142 C1143 1.394 . S
C1142 H1150 0.930 . S
C1143 C1142 1.394 . S
C1143 C1144 1.383 . S
C1143 H1151 0.929 . S
C1144 C1143 1.383 . S
C1144 C1145 1.377 . S
C1145 H1129 0.930 . S
C1145 C1144 1.377 . S
C1145 C1146 1.379 1_565 S
C1146 H1130 0.931 . S
C1146 C1140 1.383 . S
C1146 C1145 1.379 1_545 S
H1147 C1141 0.959 . S
H1148 C1141 0.961 . S
H1149 C1141 0.960 1_565 S
H1150 C1142 0.930 . S
H1151 C1143 0.929 . S
H1152 C1160 0.929 . S
H1153 C1162 0.930 . S
H1154 C1164 0.930 . S
H1155 C1167 0.929 . S
H1156 C1170 0.930 . S
H1157 C1172 0.960 . S
H1158 C1172 0.960 . S
H1159 C1172 0.960 . S
C1160 H1152 0.929 . S
C1160 C1161 1.377 . S
C1160 C1162 1.384 . S
C1161 C1160 1.377 . S
C1161 C1167 1.390 . S
C1162 H1153 0.930 . S
C1162 C1160 1.384 . S
C1162 C1163 1.372 . S
C1163 C1162 1.372 . S
C1163 C1164 1.400 . S
C1163 C1168 1.490 . S
C1164 H1154 0.930 . S
C1164 C1163 1.400 . S
C1164 C1167 1.386 . S
H1165 C1181 0.930 . S
H1166 C1182 0.931 . S
C1167 H1155 0.929 . S
C1167 C1161 1.390 . S
C1167 C1164 1.386 . S
C1168 C1163 1.490 . S
C1168 C1170 1.395 . S
C1168 C1171 1.403 . S
H1169 C1175 0.930 . S
C1170 H1156 0.930 . S
C1170 C1168 1.395 . S
C1170 C1173 1.403 . S
C1171 C1168 1.403 . S
C1171 C1172 1.524 . S
C1171 C1175 1.400 . S
C1172 H1157 0.960 . S
C1172 H1158 0.960 . S
C1172 H1159 0.960 . S
C1172 C1171 1.524 . S
C1173 C1170 1.403 . S
C1173 C1174 1.392 . S
C1173 C1177 1.495 . S
C1174 C1173 1.392 . S
C1174 C1175 1.385 . S
C1174 C1176 1.478 . S
C1175 H1169 0.930 . S
C1175 C1171 1.400 . S
C1175 C1174 1.385 . S
C1176 C1174 1.478 . S
C1176 C1178 1.381 . S
C1176 C1182 1.383 . S
C1177 C1173 1.495 . S
C1177 H1183 0.959 . S
C1177 H1184 0.961 . S
C1177 H1185 0.960 . S
C1178 C1176 1.381 . S
C1178 C1179 1.394 . S
C1178 H1186 0.930 . S
C1179 C1178 1.394 . S
C1179 C1180 1.383 . S
C1179 H1187 0.929 . S
C1180 C1179 1.383 . S
C1180 C1181 1.377 . S
C1181 H1165 0.930 . S
C1181 C1180 1.377 . S
C1181 C1182 1.379 . S
C1182 H1166 0.931 . S
C1182 C1176 1.383 . S
C1182 C1181 1.379 . S
H1183 C1177 0.959 . S
H1184 C1177 0.961 . S
H1185 C1177 0.960 . S
H1186 C1178 0.930 . S
H1187 C1179 0.929 . S
H1188 C1196 0.929 . S
H1189 C1198 0.930 . S
H1190 C1200 0.930 . S
H1191 C1203 0.929 . S
H1192 C1206 0.930 . S
H1193 C1208 0.960 1_545 S
H1194 C1208 0.960 . S
H1195 C1208 0.960 . S
C1196 H1188 0.929 . S
C1196 C1197 1.377 . S
C1196 C1198 1.384 . S
C1197 C1196 1.377 . S
C1197 C1203 1.390 . S
C1198 H1189 0.930 . S
C1198 C1196 1.384 . S
C1198 C1199 1.372 . S
C1199 C1198 1.372 . S
C1199 C1200 1.400 . S
C1199 C1204 1.490 1_565 S
C1200 H1190 0.930 . S
C1200 C1199 1.400 . S
C1200 C1203 1.386 . S
H1201 C1217 0.930 . S
H1202 C1218 0.931 . S
C1203 H1191 0.929 . S
C1203 C1197 1.390 . S
C1203 C1200 1.386 . S
C1204 C1199 1.490 1_545 S
C1204 C1206 1.395 . S
C1204 C1207 1.403 . S
H1205 C1211 0.930 . S
C1206 H1192 0.930 . S
C1206 C1204 1.395 . S
C1206 C1209 1.403 . S
C1207 C1204 1.403 . S
C1207 C1208 1.524 1_545 S
C1207 C1211 1.400 . S
C1208 H1193 0.960 1_565 S
C1208 H1194 0.960 . S
C1208 H1195 0.960 . S
C1208 C1207 1.524 1_565 S
C1209 C1206 1.403 . S
C1209 C1210 1.392 . S
C1209 C1213 1.495 . S
C1210 C1209 1.392 . S
C1210 C1211 1.385 . S
C1210 C1212 1.478 . S
C1211 H1205 0.930 . S
C1211 C1207 1.400 . S
C1211 C1210 1.385 . S
C1212 C1210 1.478 . S
C1212 C1214 1.381 . S
C1212 C1218 1.383 . S
C1213 C1209 1.495 . S
C1213 H1219 0.959 . S
C1213 H1220 0.961 . S
C1213 H1221 0.960 . S
C1214 C1212 1.381 . S
C1214 C1215 1.394 . S
C1214 H1222 0.930 . S
C1215 C1214 1.394 . S
C1215 C1216 1.383 . S
C1215 H1223 0.929 . S
C1216 C1215 1.383 . S
C1216 C1217 1.377 . S
C1217 H1201 0.930 . S
C1217 C1216 1.377 . S
C1217 C1218 1.379 . S
C1218 H1202 0.931 . S
C1218 C1212 1.383 . S
C1218 C1217 1.379 . S
H1219 C1213 0.959 . S
H1220 C1213 0.961 . S
H1221 C1213 0.960 . S
H1222 C1214 0.930 . S
H1223 C1215 0.929 . S
H1224 C1232 0.929 . S
H1225 C1234 0.930 . S
H1226 C1236 0.930 . S
H1227 C1239 0.929 . S
H1228 C1242 0.930 . S
H1229 C1244 0.960 . S
H1230 C1244 0.960 . S
H1231 C1244 0.960 . S
C1232 H1224 0.929 . S
C1232 C1233 1.377 . S
C1232 C1234 1.384 . S
C1233 C1232 1.377 . S
C1233 C1239 1.390 . S
C1234 H1225 0.930 . S
C1234 C1232 1.384 . S
C1234 C1235 1.372 . S
C1235 C1234 1.372 . S
C1235 C1236 1.400 . S
C1235 C1240 1.490 . S
C1236 H1226 0.930 . S
C1236 C1235 1.400 . S
C1236 C1239 1.386 . S
H1237 C1253 0.930 . S
H1238 C1254 0.931 . S
C1239 H1227 0.929 . S
C1239 C1233 1.390 . S
C1239 C1236 1.386 . S
C1240 C1235 1.490 . S
C1240 C1242 1.395 . S
C1240 C1243 1.403 . S
H1241 C1247 0.930 . S
C1242 H1228 0.930 . S
C1242 C1240 1.395 . S
C1242 C1245 1.403 . S
C1243 C1240 1.403 . S
C1243 C1244 1.524 . S
C1243 C1247 1.400 . S
C1244 H1229 0.960 . S
C1244 H1230 0.960 . S
C1244 H1231 0.960 . S
C1244 C1243 1.524 . S
C1245 C1242 1.403 . S
C1245 C1246 1.392 . S
C1245 C1249 1.495 . S
C1246 C1245 1.392 . S
C1246 C1247 1.385 . S
C1246 C1248 1.478 . S
C1247 H1241 0.930 . S
C1247 C1243 1.400 . S
C1247 C1246 1.385 . S
C1248 C1246 1.478 . S
C1248 C1250 1.381 . S
C1248 C1254 1.383 . S
C1249 C1245 1.495 . S
C1249 H1255 0.959 . S
C1249 H1256 0.961 . S
C1249 H1257 0.960 . S
C1250 C1248 1.381 . S
C1250 C1251 1.394 . S
C1250 H1258 0.930 . S
C1251 C1250 1.394 . S
C1251 C1252 1.383 . S
C1251 H1259 0.929 . S
C1252 C1251 1.383 . S
C1252 C1253 1.377 . S
C1253 H1237 0.930 . S
C1253 C1252 1.377 . S
C1253 C1254 1.379 . S
C1254 H1238 0.931 . S
C1254 C1248 1.383 . S
C1254 C1253 1.379 . S
H1255 C1249 0.959 . S
H1256 C1249 0.961 . S
H1257 C1249 0.960 . S
H1258 C1250 0.930 . S
H1259 C1251 0.929 . S
H1260 C1268 0.929 . S
H1261 C1270 0.930 . S
H1262 C1272 0.930 . S
H1263 C1275 0.929 . S
H1264 C1278 0.930 . S
H1265 C1280 0.960 . S
H1266 C1280 0.960 . S
H1267 C1280 0.960 . S
C1268 H1260 0.929 . S
C1268 C1269 1.377 . S
C1268 C1270 1.384 . S
C1269 C1268 1.377 . S
C1269 C1275 1.390 . S
C1270 H1261 0.930 . S
C1270 C1268 1.384 . S
C1270 C1271 1.372 . S
C1271 C1270 1.372 . S
C1271 C1272 1.400 . S
C1271 C1276 1.490 . S
C1272 H1262 0.930 . S
C1272 C1271 1.400 . S
C1272 C1275 1.386 . S
H1273 C1289 0.930 . S
H1274 C1290 0.931 . S
C1275 H1263 0.929 . S
C1275 C1269 1.390 . S
C1275 C1272 1.386 . S
C1276 C1271 1.490 . S
C1276 C1278 1.395 . S
C1276 C1279 1.403 . S
H1277 C1283 0.930 . S
C1278 H1264 0.930 . S
C1278 C1276 1.395 . S
C1278 C1281 1.403 . S
C1279 C1276 1.403 . S
C1279 C1280 1.524 . S
C1279 C1283 1.400 . S
C1280 H1265 0.960 . S
C1280 H1266 0.960 . S
C1280 H1267 0.960 . S
C1280 C1279 1.524 . S
C1281 C1278 1.403 . S
C1281 C1282 1.392 . S
C1281 C1285 1.495 . S
C1282 C1281 1.392 . S
C1282 C1283 1.385 . S
C1282 C1284 1.478 . S
C1283 H1277 0.930 . S
C1283 C1279 1.400 . S
C1283 C1282 1.385 . S
C1284 C1282 1.478 . S
C1284 C1286 1.381 . S
C1284 C1290 1.383 . S
C1285 C1281 1.495 . S
C1285 H1291 0.959 . S
C1285 H1292 0.961 . S
C1285 H1293 0.960 . S
C1286 C1284 1.381 . S
C1286 C1287 1.394 . S
C1286 H1294 0.930 . S
C1287 C1286 1.394 . S
C1287 C1288 1.383 . S
C1287 H1295 0.929 . S
C1288 C1287 1.383 . S
C1288 C1289 1.377 . S
C1289 H1273 0.930 . S
C1289 C1288 1.377 . S
C1289 C1290 1.379 . S
C1290 H1274 0.931 . S
C1290 C1284 1.383 . S
C1290 C1289 1.379 . S
H1291 C1285 0.959 . S
H1292 C1285 0.961 . S
H1293 C1285 0.960 . S
H1294 C1286 0.930 . S
H1295 C1287 0.929 . S
H1296 C1304 0.929 . S
H1297 C1306 0.930 . S
H1298 C1308 0.930 . S
H1299 C1311 0.929 . S
H1300 C1314 0.930 . S
H1301 C1316 0.960 . S
H1302 C1316 0.960 . S
H1303 C1316 0.960 . S
C1304 H1296 0.929 . S
C1304 C1305 1.377 . S
C1304 C1306 1.384 . S
C1305 C1304 1.377 . S
C1305 C1311 1.390 . S
C1306 H1297 0.930 . S
C1306 C1304 1.384 . S
C1306 C1307 1.372 . S
C1307 C1306 1.372 . S
C1307 C1308 1.400 . S
C1307 C1312 1.490 . S
C1308 H1298 0.930 . S
C1308 C1307 1.400 . S
C1308 C1311 1.386 . S
H1309 C1325 0.930 . S
H1310 C1326 0.931 . S
C1311 H1299 0.929 . S
C1311 C1305 1.390 . S
C1311 C1308 1.386 . S
C1312 C1307 1.490 . S
C1312 C1314 1.395 . S
C1312 C1315 1.403 . S
H1313 C1319 0.930 . S
C1314 H1300 0.930 . S
C1314 C1312 1.395 . S
C1314 C1317 1.403 . S
C1315 C1312 1.403 . S
C1315 C1316 1.524 . S
C1315 C1319 1.400 . S
C1316 H1301 0.960 . S
C1316 H1302 0.960 . S
C1316 H1303 0.960 . S
C1316 C1315 1.524 . S
C1317 C1314 1.403 . S
C1317 C1318 1.392 . S
C1317 C1321 1.495 1_455 S
C1318 C1317 1.392 . S
C1318 C1319 1.385 . S
C1318 C1320 1.478 1_455 S
C1319 H1313 0.930 . S
C1319 C1315 1.400 . S
C1319 C1318 1.385 . S
C1320 C1318 1.478 1_655 S
C1320 C1322 1.381 . S
C1320 C1326 1.383 . S
C1321 C1317 1.495 1_655 S
C1321 H1327 0.959 . S
C1321 H1328 0.961 . S
C1321 H1329 0.960 . S
C1322 C1320 1.381 . S
C1322 C1323 1.394 . S
C1322 H1330 0.930 . S
C1323 C1322 1.394 . S
C1323 C1324 1.383 . S
C1323 H1331 0.929 . S
C1324 C1323 1.383 . S
C1324 C1325 1.377 . S
C1325 H1309 0.930 . S
C1325 C1324 1.377 . S
C1325 C1326 1.379 . S
C1326 H1310 0.931 . S
C1326 C1320 1.383 . S
C1326 C1325 1.379 . S
H1327 C1321 0.959 . S
H1328 C1321 0.961 . S
H1329 C1321 0.960 . S
H1330 C1322 0.930 . S
H1331 C1323 0.929 . S
H1332 C1340 0.929 . S
H1333 C1342 0.930 . S
H1334 C1344 0.930 . S
H1335 C1347 0.929 . S
H1336 C1350 0.930 . S
H1337 C1352 0.960 . S
H1338 C1352 0.960 . S
H1339 C1352 0.960 . S
C1340 H1332 0.929 . S
C1340 C1341 1.377 . S
C1340 C1342 1.384 . S
C1341 C1340 1.377 . S
C1341 C1347 1.390 . S
C1342 H1333 0.930 . S
C1342 C1340 1.384 . S
C1342 C1343 1.372 . S
C1343 C1342 1.372 . S
C1343 C1344 1.400 . S
C1343 C1348 1.490 . S
C1344 H1334 0.930 . S
C1344 C1343 1.400 . S
C1344 C1347 1.386 . S
H1345 C1361 0.930 . S
H1346 C1362 0.931 . S
C1347 H1335 0.929 . S
C1347 C1341 1.390 . S
C1347 C1344 1.386 . S
C1348 C1343 1.490 . S
C1348 C1350 1.395 . S
C1348 C1351 1.403 . S
H1349 C1355 0.930 . S
C1350 H1336 0.930 . S
C1350 C1348 1.395 . S
C1350 C1353 1.403 . S
C1351 C1348 1.403 . S
C1351 C1352 1.524 . S
C1351 C1355 1.400 . S
C1352 H1337 0.960 . S
C1352 H1338 0.960 . S
C1352 H1339 0.960 . S
C1352 C1351 1.524 . S
C1353 C1350 1.403 . S
C1353 C1354 1.392 . S
C1353 C1357 1.495 . S
C1354 C1353 1.392 . S
C1354 C1355 1.385 . S
C1354 C1356 1.478 . S
C1355 H1349 0.930 . S
C1355 C1351 1.400 . S
C1355 C1354 1.385 . S
C1356 C1354 1.478 . S
C1356 C1358 1.381 . S
C1356 C1362 1.383 . S
C1357 C1353 1.495 . S
C1357 H1363 0.959 . S
C1357 H1364 0.961 . S
C1357 H1365 0.960 . S
C1358 C1356 1.381 . S
C1358 C1359 1.394 . S
C1358 H1366 0.930 . S
C1359 C1358 1.394 . S
C1359 C1360 1.383 . S
C1359 H1367 0.929 . S
C1360 C1359 1.383 . S
C1360 C1361 1.377 . S
C1361 H1345 0.930 . S
C1361 C1360 1.377 . S
C1361 C1362 1.379 . S
C1362 H1346 0.931 . S
C1362 C1356 1.383 . S
C1362 C1361 1.379 . S
H1363 C1357 0.959 . S
H1364 C1357 0.961 . S
H1365 C1357 0.960 . S
H1366 C1358 0.930 . S
H1367 C1359 0.929 . S
H1368 C1376 0.929 . S
H1369 C1378 0.930 . S
H1370 C1380 0.930 . S
H1371 C1383 0.929 . S
H1372 C1386 0.919 1_655 S
H1373 C1388 0.943 1_455 S
H1374 C1388 0.960 . S
H1375 C1388 0.960 . S
C1376 H1368 0.929 . S
C1376 C1377 1.377 . S
C1376 C1378 1.384 . S
C1377 C1376 1.377 . S
C1377 C1383 1.390 . S
C1378 H1369 0.930 . S
C1378 C1376 1.384 . S
C1378 C1379 1.372 . S
C1379 C1378 1.372 . S
C1379 C1380 1.400 . S
C1379 C1384 1.490 . S
C1380 H1370 0.930 . S
C1380 C1379 1.400 . S
C1380 C1383 1.386 . S
H1381 C1397 0.930 . S
H1382 C1398 0.931 . S
C1383 H1371 0.929 . S
C1383 C1377 1.390 . S
C1383 C1380 1.386 . S
C1384 C1379 1.490 . S
C1384 C1386 1.387 1_655 S
C1384 C1387 1.380 1_655 S
H1385 C1391 0.930 . S
C1386 H1372 0.919 1_455 S
C1386 C1384 1.387 1_455 S
C1386 C1389 1.423 . S
C1387 C1384 1.380 1_455 S
C1387 C1388 1.508 1_455 S
C1387 C1391 1.441 . S
C1388 H1373 0.943 1_655 S
C1388 H1374 0.960 . S
C1388 H1375 0.960 . S
C1388 C1387 1.508 1_655 S
C1389 C1386 1.423 . S
C1389 C1390 1.392 . S
C1389 C1393 1.495 . S
C1390 C1389 1.392 . S
C1390 C1391 1.385 . S
C1390 C1392 1.478 . S
C1391 H1385 0.930 . S
C1391 C1387 1.441 . S
C1391 C1390 1.385 . S
C1392 C1390 1.478 . S
C1392 C1394 1.381 . S
C1392 C1398 1.383 . S
C1393 C1389 1.495 . S
C1393 H1399 0.959 . S
C1393 H1400 0.961 . S
C1393 H1401 0.960 . S
C1394 C1392 1.381 . S
C1394 C1395 1.394 . S
C1394 H1402 0.930 . S
C1395 C1394 1.394 . S
C1395 C1396 1.383 . S
C1395 H1403 0.929 . S
C1396 C1395 1.383 . S
C1396 C1397 1.377 . S
C1397 H1381 0.930 . S
C1397 C1396 1.377 . S
C1397 C1398 1.379 . S
C1398 H1382 0.931 . S
C1398 C1392 1.383 . S
C1398 C1397 1.379 . S
H1399 C1393 0.959 . S
H1400 C1393 0.961 . S
H1401 C1393 0.960 . S
H1402 C1394 0.930 . S
H1403 C1395 0.929 . S
H1404 C1412 0.929 . S
H1405 C1414 0.930 . S
H1406 C1416 0.930 . S
H1407 C1419 0.929 . S
H1408 C1422 0.930 . S
H1409 C1424 0.960 . S
H1410 C1424 0.960 . S
H1411 C1424 0.960 . S
C1412 H1404 0.929 . S
C1412 C1413 1.377 . S
C1412 C1414 1.384 . S
C1413 C1412 1.377 . S
C1413 C1419 1.390 . S
C1414 H1405 0.930 . S
C1414 C1412 1.384 . S
C1414 C1415 1.372 . S
C1415 C1414 1.372 . S
C1415 C1416 1.400 . S
C1415 C1420 1.490 . S
C1416 H1406 0.930 . S
C1416 C1415 1.400 . S
C1416 C1419 1.386 . S
H1417 C1433 0.930 . S
H1418 C1434 0.931 . S
C1419 H1407 0.929 . S
C1419 C1413 1.390 . S
C1419 C1416 1.386 . S
C1420 C1415 1.490 . S
C1420 C1422 1.395 . S
C1420 C1423 1.403 . S
H1421 C1427 0.930 . S
C1422 H1408 0.930 . S
C1422 C1420 1.395 . S
C1422 C1425 1.403 . S
C1423 C1420 1.403 . S
C1423 C1424 1.524 . S
C1423 C1427 1.400 . S
C1424 H1409 0.960 . S
C1424 H1410 0.960 . S
C1424 H1411 0.960 . S
C1424 C1423 1.524 . S
C1425 C1422 1.403 . S
C1425 C1426 1.392 . S
C1425 C1429 1.495 . S
C1426 C1425 1.392 . S
C1426 C1427 1.385 . S
C1426 C1428 1.478 . S
C1427 H1421 0.930 . S
C1427 C1423 1.400 . S
C1427 C1426 1.385 . S
C1428 C1426 1.478 . S
C1428 C1430 1.381 . S
C1428 C1434 1.383 . S
C1429 C1425 1.495 . S
C1429 H1435 0.959 . S
C1429 H1436 0.961 . S
C1429 H1437 0.960 . S
C1430 C1428 1.381 . S
C1430 C1431 1.394 . S
C1430 H1438 0.930 . S
C1431 C1430 1.394 . S
C1431 C1432 1.383 . S
C1431 H1439 0.929 . S
C1432 C1431 1.383 . S
C1432 C1433 1.377 . S
C1433 H1417 0.930 . S
C1433 C1432 1.377 . S
C1433 C1434 1.379 . S
C1434 H1418 0.931 . S
C1434 C1428 1.383 . S
C1434 C1433 1.379 . S
H1435 C1429 0.959 . S
H1436 C1429 0.961 . S
H1437 C1429 0.960 . S
H1438 C1430 0.930 . S
H1439 C1431 0.929 . S
H1440 C1448 0.929 . S
H1441 C1450 0.930 . S
H1442 C1452 0.930 . S
H1443 C1455 0.929 . S
H1444 C1458 0.930 . S
H1445 C1460 0.960 . S
H1446 C1460 0.960 . S
H1447 C1460 0.960 . S
C1448 H1440 0.929 . S
C1448 C1449 1.377 . S
C1448 C1450 1.384 . S
C1449 C1448 1.377 . S
C1449 C1455 1.390 . S
C1450 H1441 0.930 . S
C1450 C1448 1.384 . S
C1450 C1451 1.372 . S
C1451 C1450 1.372 . S
C1451 C1452 1.400 . S
C1451 C1456 1.490 . S
C1452 H1442 0.930 . S
C1452 C1451 1.400 . S
C1452 C1455 1.386 . S
H1453 C1469 0.930 . S
H1454 C1470 0.931 . S
C1455 H1443 0.929 . S
C1455 C1449 1.390 . S
C1455 C1452 1.386 . S
C1456 C1451 1.490 . S
C1456 C1458 1.395 . S
C1456 C1459 1.403 . S
H1457 C1463 0.930 . S
C1458 H1444 0.930 . S
C1458 C1456 1.395 . S
C1458 C1461 1.403 . S
C1459 C1456 1.403 . S
C1459 C1460 1.524 . S
C1459 C1463 1.400 . S
C1460 H1445 0.960 . S
C1460 H1446 0.960 . S
C1460 H1447 0.960 . S
C1460 C1459 1.524 . S
C1461 C1458 1.403 . S
C1461 C1462 1.392 1_455 S
C1461 C1465 1.495 1_455 S
C1462 C1461 1.392 1_655 S
C1462 C1463 1.385 1_655 S
C1462 C1464 1.478 . S
C1463 H1457 0.930 . S
C1463 C1459 1.400 . S
C1463 C1462 1.385 1_455 S
C1464 C1462 1.478 . S
C1464 C1466 1.381 . S
C1464 C1470 1.383 . S
C1465 C1461 1.495 1_655 S
C1465 H1471 0.933 1_655 S
C1465 H1472 0.961 . S
C1465 H1473 0.960 . S
C1466 C1464 1.381 . S
C1466 C1467 1.394 . S
C1466 H1474 0.930 . S
C1467 C1466 1.394 . S
C1467 C1468 1.383 . S
C1467 H1475 0.929 . S
C1468 C1467 1.383 . S
C1468 C1469 1.377 . S
C1469 H1453 0.930 . S
C1469 C1468 1.377 . S
C1469 C1470 1.379 . S
C1470 H1454 0.931 . S
C1470 C1464 1.383 . S
C1470 C1469 1.379 . S
H1471 C1465 0.933 1_455 S
H1472 C1465 0.961 . S
H1473 C1465 0.960 . S
H1474 C1466 0.930 . S
H1475 C1467 0.929 . S
H1476 C1484 0.929 . S
H1477 C1486 0.930 . S
H1478 C1488 0.930 . S
H1479 C1491 0.929 . S
H1480 C1494 0.930 . S
H1481 C1496 0.960 . S
H1482 C1496 0.960 . S
H1483 C1496 0.960 . S
C1484 H1476 0.929 . S
C1484 C1485 1.377 . S
C1484 C1486 1.384 . S
C1485 C1484 1.377 . S
C1485 C1491 1.390 . S
C1486 H1477 0.930 . S
C1486 C1484 1.384 . S
C1486 C1487 1.372 . S
C1487 C1486 1.372 . S
C1487 C1488 1.400 . S
C1487 C1492 1.490 . S
C1488 H1478 0.930 . S
C1488 C1487 1.400 . S
C1488 C1491 1.386 . S
H1489 C1505 0.930 . S
H1490 C1506 0.931 . S
C1491 H1479 0.929 . S
C1491 C1485 1.390 . S
C1491 C1488 1.386 . S
C1492 C1487 1.490 . S
C1492 C1494 1.395 . S
C1492 C1495 1.403 . S
H1493 C1499 0.930 . S
C1494 H1480 0.930 . S
C1494 C1492 1.395 . S
C1494 C1497 1.403 . S
C1495 C1492 1.403 . S
C1495 C1496 1.524 . S
C1495 C1499 1.400 . S
C1496 H1481 0.960 . S
C1496 H1482 0.960 . S
C1496 H1483 0.960 . S
C1496 C1495 1.524 . S
C1497 C1494 1.403 . S
C1497 C1498 1.392 . S
C1497 C1501 1.495 . S
C1498 C1497 1.392 . S
C1498 C1499 1.385 . S
C1498 C1500 1.478 . S
C1499 H1493 0.930 . S
C1499 C1495 1.400 . S
C1499 C1498 1.385 . S
C1500 C1498 1.478 . S
C1500 C1502 1.381 . S
C1500 C1506 1.383 . S
C1501 C1497 1.495 . S
C1501 H1507 0.959 . S
C1501 H1508 0.961 . S
C1501 H1509 0.960 . S
C1502 C1500 1.381 . S
C1502 C1503 1.394 . S
C1502 H1510 0.930 . S
C1503 C1502 1.394 . S
C1503 C1504 1.383 . S
C1503 H1511 0.929 . S
C1504 C1503 1.383 . S
C1504 C1505 1.377 . S
C1505 H1489 0.930 . S
C1505 C1504 1.377 . S
C1505 C1506 1.379 . S
C1506 H1490 0.931 . S
C1506 C1500 1.383 . S
C1506 C1505 1.379 . S
H1507 C1501 0.959 . S
H1508 C1501 0.961 . S
H1509 C1501 0.960 . S
H1510 C1502 0.930 . S
H1511 C1503 0.929 . S
H1512 C1520 0.929 . S
H1513 C1522 0.930 . S
H1514 C1524 0.930 . S
H1515 C1527 0.929 1_455 S
H1516 C1530 0.930 . S
H1517 C1532 0.960 . S
H1518 C1532 0.960 . S
H1519 C1532 0.960 . S
C1520 H1512 0.929 . S
C1520 C1521 1.377 . S
C1520 C1522 1.384 . S
C1521 C1520 1.377 . S
C1521 C1527 1.390 . S
C1522 H1513 0.930 . S
C1522 C1520 1.384 . S
C1522 C1523 1.372 . S
C1523 C1522 1.372 . S
C1523 C1524 1.400 . S
C1523 C1528 1.490 . S
C1524 H1514 0.930 . S
C1524 C1523 1.400 . S
C1524 C1527 1.386 . S
H1525 C1541 0.930 . S
H1526 C1542 0.931 . S
C1527 H1515 0.929 1_655 S
C1527 C1521 1.390 . S
C1527 C1524 1.386 . S
C1528 C1523 1.490 . S
C1528 C1530 1.395 . S
C1528 C1531 1.403 . S
H1529 C1535 0.930 . S
C1530 H1516 0.930 . S
C1530 C1528 1.395 . S
C1530 C1533 1.403 . S
C1531 C1528 1.403 . S
C1531 C1532 1.524 . S
C1531 C1535 1.400 . S
C1532 H1517 0.960 . S
C1532 H1518 0.960 . S
C1532 H1519 0.960 . S
C1532 C1531 1.524 . S
C1533 C1530 1.403 . S
C1533 C1534 1.392 . S
C1533 C1537 1.495 . S
C1534 C1533 1.392 . S
C1534 C1535 1.385 . S
C1534 C1536 1.478 . S
C1535 H1529 0.930 . S
C1535 C1531 1.400 . S
C1535 C1534 1.385 . S
C1536 C1534 1.478 . S
C1536 C1538 1.381 . S
C1536 C1542 1.383 . S
C1537 C1533 1.495 . S
C1537 H1543 0.959 . S
C1537 H1544 0.961 . S
C1537 H1545 0.960 . S
C1538 C1536 1.381 . S
C1538 C1539 1.394 . S
C1538 H1546 0.930 . S
C1539 C1538 1.394 . S
C1539 C1540 1.383 . S
C1539 H1547 0.929 . S
C1540 C1539 1.383 . S
C1540 C1541 1.377 . S
C1541 H1525 0.930 . S
C1541 C1540 1.377 . S
C1541 C1542 1.379 . S
C1542 H1526 0.931 . S
C1542 C1536 1.383 . S
C1542 C1541 1.379 . S
H1543 C1537 0.959 . S
H1544 C1537 0.961 . S
H1545 C1537 0.960 . S
H1546 C1538 0.930 . S
H1547 C1539 0.929 . S
H1548 C1556 0.929 . S
H1549 C1558 0.930 . S
H1550 C1560 0.930 1_455 S
H1551 C1563 0.929 . S
H1552 C1566 0.930 . S
H1553 C1568 0.960 . S
H1554 C1568 0.960 . S
H1555 C1568 0.947 1_455 S
C1556 H1548 0.929 . S
C1556 C1557 1.377 . S
C1556 C1558 1.384 . S
C1557 C1556 1.377 . S
C1557 C1563 1.390 1_655 S
C1558 H1549 0.930 . S
C1558 C1556 1.384 . S
C1558 C1559 1.372 . S
C1559 C1558 1.372 . S
C1559 C1560 1.400 . S
C1559 C1564 1.490 . S
C1560 H1550 0.930 1_655 S
C1560 C1559 1.400 . S
C1560 C1563 1.386 1_655 S
H1561 C1577 0.930 . S
H1562 C1578 0.931 . S
C1563 H1551 0.929 . S
C1563 C1557 1.390 1_455 S
C1563 C1560 1.386 1_455 S
C1564 C1559 1.490 . S
C1564 C1566 1.395 . S
C1564 C1567 1.403 . S
H1565 C1571 0.930 . S
C1566 H1552 0.930 . S
C1566 C1564 1.395 . S
C1566 C1569 1.403 . S
C1567 C1564 1.403 . S
C1567 C1568 1.524 . S
C1567 C1571 1.400 . S
C1568 H1553 0.960 . S
C1568 H1554 0.960 . S
C1568 H1555 0.947 1_655 S
C1568 C1567 1.524 . S
C1569 C1566 1.403 . S
C1569 C1570 1.392 . S
C1569 C1573 1.495 . S
C1570 C1569 1.392 . S
C1570 C1571 1.385 . S
C1570 C1572 1.478 . S
C1571 H1565 0.930 . S
C1571 C1567 1.400 . S
C1571 C1570 1.385 . S
C1572 C1570 1.478 . S
C1572 C1574 1.381 . S
C1572 C1578 1.383 . S
C1573 C1569 1.495 . S
C1573 H1579 0.959 . S
C1573 H1580 0.961 . S
C1573 H1581 0.960 . S
C1574 C1572 1.381 . S
C1574 C1575 1.394 . S
C1574 H1582 0.930 . S
C1575 C1574 1.394 . S
C1575 C1576 1.383 . S
C1575 H1583 0.929 . S
C1576 C1575 1.383 . S
C1576 C1577 1.377 . S
C1577 H1561 0.930 . S
C1577 C1576 1.377 . S
C1577 C1578 1.379 . S
C1578 H1562 0.931 . S
C1578 C1572 1.383 . S
C1578 C1577 1.379 . S
H1579 C1573 0.959 . S
H1580 C1573 0.961 . S
H1581 C1573 0.960 . S
H1582 C1574 0.930 . S
H1583 C1575 0.929 . S
H1584 C1592 0.929 . S
H1585 C1594 0.930 . S
H1586 C1596 0.930 . S
H1587 C1599 0.929 . S
H1588 C1602 0.930 . S
H1589 C1604 0.960 . S
H1590 C1604 0.960 . S
H1591 C1604 0.960 . S
C1592 H1584 0.929 . S
C1592 C1593 1.377 . S
C1592 C1594 1.384 . S
C1593 C1592 1.377 . S
C1593 C1599 1.390 . S
C1594 H1585 0.930 . S
C1594 C1592 1.384 . S
C1594 C1595 1.372 . S
C1595 C1594 1.372 . S
C1595 C1596 1.400 . S
C1595 C1600 1.490 . S
C1596 H1586 0.930 . S
C1596 C1595 1.400 . S
C1596 C1599 1.386 . S
H1597 C1613 0.930 . S
H1598 C1614 0.931 . S
C1599 H1587 0.929 . S
C1599 C1593 1.390 . S
C1599 C1596 1.386 . S
C1600 C1595 1.490 . S
C1600 C1602 1.395 . S
C1600 C1603 1.403 . S
H1601 C1607 0.930 . S
C1602 H1588 0.930 . S
C1602 C1600 1.395 . S
C1602 C1605 1.403 . S
C1603 C1600 1.403 . S
C1603 C1604 1.524 . S
C1603 C1607 1.400 . S
C1604 H1589 0.960 . S
C1604 H1590 0.960 . S
C1604 H1591 0.960 . S
C1604 C1603 1.524 . S
C1605 C1602 1.403 . S
C1605 C1606 1.392 . S
C1605 C1609 1.495 . S
C1606 C1605 1.392 . S
C1606 C1607 1.385 . S
C1606 C1608 1.478 . S
C1607 H1601 0.930 . S
C1607 C1603 1.400 . S
C1607 C1606 1.385 . S
C1608 C1606 1.478 . S
C1608 C1610 1.381 . S
C1608 C1614 1.383 . S
C1609 C1605 1.495 . S
C1609 H1615 0.959 . S
C1609 H1616 0.961 . S
C1609 H1617 0.960 . S
C1610 C1608 1.381 . S
C1610 C1611 1.394 . S
C1610 H1618 0.930 . S
C1611 C1610 1.394 . S
C1611 C1612 1.383 . S
C1611 H1619 0.929 . S
C1612 C1611 1.383 . S
C1612 C1613 1.377 . S
C1613 H1597 0.930 . S
C1613 C1612 1.377 . S
C1613 C1614 1.379 . S
C1614 H1598 0.931 . S
C1614 C1608 1.383 . S
C1614 C1613 1.379 . S
H1615 C1609 0.959 . S
H1616 C1609 0.961 . S
H1617 C1609 0.960 . S
H1618 C1610 0.930 . S
H1619 C1611 0.929 . S
H1620 C1628 0.929 . S
H1621 C1630 0.930 . S
H1622 C1632 0.930 . S
H1623 C1635 0.929 . S
H1624 C1638 0.930 . S
H1625 C1640 0.960 1_554 S
H1626 C1640 0.960 . S
H1627 C1640 0.960 . S
C1628 H1620 0.929 . S
C1628 C1629 1.377 . S
C1628 C1630 1.384 . S
C1629 C1628 1.377 . S
C1629 C1635 1.390 . S
C1630 H1621 0.930 . S
C1630 C1628 1.384 . S
C1630 C1631 1.372 . S
C1631 C1630 1.372 . S
C1631 C1632 1.400 . S
C1631 C1636 1.490 . S
C1632 H1622 0.930 . S
C1632 C1631 1.400 . S
C1632 C1635 1.386 . S
H1633 C1649 0.930 . S
H1634 C1650 0.931 . S
C1635 H1623 0.929 . S
C1635 C1629 1.390 . S
C1635 C1632 1.386 . S
C1636 C1631 1.490 . S
C1636 C1638 1.395 . S
C1636 C1639 1.403 . S
H1637 C1643 0.930 . S
C1638 H1624 0.930 . S
C1638 C1636 1.395 . S
C1638 C1641 1.403 1_556 S
C1639 C1636 1.403 . S
C1639 C1640 1.524 . S
C1639 C1643 1.400 1_556 S
C1640 H1625 0.960 1_556 S
C1640 H1626 0.960 . S
C1640 H1627 0.960 . S
C1640 C1639 1.524 . S
C1641 C1638 1.403 1_554 S
C1641 C1642 1.392 . S
C1641 C1645 1.495 . S
C1642 C1641 1.392 . S
C1642 C1643 1.385 . S
C1642 C1644 1.478 . S
C1643 H1637 0.930 . S
C1643 C1639 1.400 1_554 S
C1643 C1642 1.385 . S
C1644 C1642 1.478 . S
C1644 C1646 1.381 . S
C1644 C1650 1.383 . S
C1645 C1641 1.495 . S
C1645 H1651 0.959 1_554 S
C1645 H1652 0.961 . S
C1645 H1653 0.960 . S
C1646 C1644 1.381 . S
C1646 C1647 1.394 . S
C1646 H1654 0.930 . S
C1647 C1646 1.394 . S
C1647 C1648 1.383 . S
C1647 H1655 0.929 . S
C1648 C1647 1.383 . S
C1648 C1649 1.377 . S
C1649 H1633 0.930 . S
C1649 C1648 1.377 . S
C1649 C1650 1.379 . S
C1650 H1634 0.931 . S
C1650 C1644 1.383 . S
C1650 C1649 1.379 . S
H1651 C1645 0.959 1_556 S
H1652 C1645 0.961 . S
H1653 C1645 0.960 . S
H1654 C1646 0.930 . S
H1655 C1647 0.929 . S
H1656 C1664 0.929 . S
H1657 C1666 0.930 . S
H1658 C1668 0.930 . S
H1659 C1671 0.929 . S
H1660 C1674 0.930 . S
H1661 C1676 0.960 . S
H1662 C1676 0.960 . S
H1663 C1676 0.960 1_455 S
C1664 H1656 0.929 . S
C1664 C1665 1.377 1_655 S
C1664 C1666 1.384 . S
C1665 C1664 1.377 1_455 S
C1665 C1671 1.390 . S
C1666 H1657 0.930 . S
C1666 C1664 1.384 . S
C1666 C1667 1.372 . S
C1667 C1666 1.372 . S
C1667 C1668 1.400 1_655 S
C1667 C1672 1.490 . S
C1668 H1658 0.930 . S
C1668 C1667 1.400 1_455 S
C1668 C1671 1.386 . S
H1669 C1685 0.930 . S
H1670 C1686 0.931 . S
C1671 H1659 0.929 . S
C1671 C1665 1.390 . S
C1671 C1668 1.386 . S
C1672 C1667 1.490 . S
C1672 C1674 1.395 . S
C1672 C1675 1.403 . S
H1673 C1679 0.930 . S
C1674 H1660 0.930 . S
C1674 C1672 1.395 . S
C1674 C1677 1.403 . S
C1675 C1672 1.403 . S
C1675 C1676 1.524 . S
C1675 C1679 1.400 . S
C1676 H1661 0.960 . S
C1676 H1662 0.960 . S
C1676 H1663 0.960 1_655 S
C1676 C1675 1.524 . S
C1677 C1674 1.403 . S
C1677 C1678 1.392 . S
C1677 C1681 1.495 . S
C1678 C1677 1.392 . S
C1678 C1679 1.385 . S
C1678 C1680 1.478 . S
C1679 H1673 0.930 . S
C1679 C1675 1.400 . S
C1679 C1678 1.385 . S
C1680 C1678 1.478 . S
C1680 C1682 1.381 . S
C1680 C1686 1.383 . S
C1681 C1677 1.495 . S
C1681 H1687 0.959 . S
C1681 H1688 0.961 . S
C1681 H1689 0.960 . S
C1682 C1680 1.381 . S
C1682 C1683 1.394 . S
C1682 H1690 0.930 . S
C1683 C1682 1.394 . S
C1683 C1684 1.383 . S
C1683 H1691 0.929 . S
C1684 C1683 1.383 . S
C1684 C1685 1.377 . S
C1685 H1669 0.930 . S
C1685 C1684 1.377 . S
C1685 C1686 1.379 . S
C1686 H1670 0.931 . S
C1686 C1680 1.383 . S
C1686 C1685 1.379 . S
H1687 C1681 0.959 . S
H1688 C1681 0.961 . S
H1689 C1681 0.960 . S
H1690 C1682 0.930 . S
H1691 C1683 0.929 . S
H1692 C1700 0.929 . S
H1693 C1702 0.930 . S
H1694 C1704 0.930 . S
H1695 C1707 0.929 . S
H1696 C1710 0.930 . S
H1697 C1712 0.960 . S
H1698 C1712 0.960 . S
H1699 C1712 0.960 . S
C1700 H1692 0.929 . S
C1700 C1701 1.377 . S
C1700 C1702 1.384 . S
C1701 C1700 1.377 . S
C1701 C1707 1.390 . S
C1702 H1693 0.930 . S
C1702 C1700 1.384 . S
C1702 C1703 1.372 . S
C1703 C1702 1.372 . S
C1703 C1704 1.400 . S
C1703 C1708 1.490 . S
C1704 H1694 0.930 . S
C1704 C1703 1.400 . S
C1704 C1707 1.386 . S
H1705 C1721 0.930 . S
H1706 C1722 0.931 . S
C1707 H1695 0.929 . S
C1707 C1701 1.390 . S
C1707 C1704 1.386 . S
C1708 C1703 1.490 . S
C1708 C1710 1.395 . S
C1708 C1711 1.403 . S
H1709 C1715 0.930 . S
C1710 H1696 0.930 . S
C1710 C1708 1.395 . S
C1710 C1713 1.403 . S
C1711 C1708 1.403 . S
C1711 C1712 1.524 . S
C1711 C1715 1.400 . S
C1712 H1697 0.960 . S
C1712 H1698 0.960 . S
C1712 H1699 0.960 . S
C1712 C1711 1.524 . S
C1713 C1710 1.403 . S
C1713 C1714 1.392 . S
C1713 C1717 1.495 . S
C1714 C1713 1.392 . S
C1714 C1715 1.385 . S
C1714 C1716 1.478 . S
C1715 H1709 0.930 . S
C1715 C1711 1.400 . S
C1715 C1714 1.385 . S
C1716 C1714 1.478 . S
C1716 C1718 1.381 . S
C1716 C1722 1.383 . S
C1717 C1713 1.495 . S
C1717 H1723 0.959 . S
C1717 H1724 0.961 . S
C1717 H1725 0.960 . S
C1718 C1716 1.381 . S
C1718 C1719 1.394 . S
C1718 H1726 0.930 . S
C1719 C1718 1.394 . S
C1719 C1720 1.383 . S
C1719 H1727 0.929 . S
C1720 C1719 1.383 . S
C1720 C1721 1.377 . S
C1721 H1705 0.930 . S
C1721 C1720 1.377 . S
C1721 C1722 1.379 . S
C1722 H1706 0.931 . S
C1722 C1716 1.383 . S
C1722 C1721 1.379 . S
H1723 C1717 0.959 . S
H1724 C1717 0.961 . S
H1725 C1717 0.960 . S
H1726 C1718 0.930 . S
H1727 C1719 0.929 . S
H1728 C1736 0.929 . S
H1729 C1738 0.930 . S
H1730 C1740 0.930 . S
H1731 C1743 0.929 . S
H1732 C1746 0.930 . S
H1733 C1748 0.960 . S
H1734 C1748 0.960 . S
H1735 C1748 0.960 . S
C1736 H1728 0.929 . S
C1736 C1737 1.377 . S
C1736 C1738 1.384 . S
C1737 C1736 1.377 . S
C1737 C1743 1.390 . S
C1738 H1729 0.930 . S
C1738 C1736 1.384 . S
C1738 C1739 1.372 . S
C1739 C1738 1.372 . S
C1739 C1740 1.400 . S
C1739 C1744 1.490 . S
C1740 H1730 0.930 . S
C1740 C1739 1.400 . S
C1740 C1743 1.386 . S
H1741 C1757 0.930 . S
H1742 C1758 0.931 . S
C1743 H1731 0.929 . S
C1743 C1737 1.390 . S
C1743 C1740 1.386 . S
C1744 C1739 1.490 . S
C1744 C1746 1.395 . S
C1744 C1747 1.403 . S
H1745 C1751 0.930 . S
C1746 H1732 0.930 . S
C1746 C1744 1.395 . S
C1746 C1749 1.403 . S
C1747 C1744 1.403 . S
C1747 C1748 1.524 . S
C1747 C1751 1.400 . S
C1748 H1733 0.960 . S
C1748 H1734 0.960 . S
C1748 H1735 0.960 . S
C1748 C1747 1.524 . S
C1749 C1746 1.403 . S
C1749 C1750 1.392 . S
C1749 C1753 1.495 . S
C1750 C1749 1.392 . S
C1750 C1751 1.385 . S
C1750 C1752 1.478 . S
C1751 H1745 0.930 . S
C1751 C1747 1.400 . S
C1751 C1750 1.385 . S
C1752 C1750 1.478 . S
C1752 C1754 1.381 . S
C1752 C1758 1.383 . S
C1753 C1749 1.495 . S
C1753 H1759 0.959 . S
C1753 H1760 0.961 . S
C1753 H1761 0.960 . S
C1754 C1752 1.381 . S
C1754 C1755 1.394 . S
C1754 H1762 0.930 . S
C1755 C1754 1.394 . S
C1755 C1756 1.383 . S
C1755 H1763 0.929 . S
C1756 C1755 1.383 . S
C1756 C1757 1.377 . S
C1757 H1741 0.930 . S
C1757 C1756 1.377 . S
C1757 C1758 1.379 . S
C1758 H1742 0.931 . S
C1758 C1752 1.383 . S
C1758 C1757 1.379 . S
H1759 C1753 0.959 . S
H1760 C1753 0.961 . S
H1761 C1753 0.960 . S
H1762 C1754 0.930 . S
H1763 C1755 0.929 . S
H1764 C1772 0.929 . S
H1765 C1774 0.930 . S
H1766 C1776 0.930 . S
H1767 C1779 0.929 . S
H1768 C1782 0.930 . S
H1769 C1784 0.960 . S
H1770 C1784 0.960 . S
H1771 C1784 0.960 . S
C1772 H1764 0.929 . S
C1772 C1773 1.377 . S
C1772 C1774 1.384 . S
C1773 C1772 1.377 . S
C1773 C1779 1.390 . S
C1774 H1765 0.930 . S
C1774 C1772 1.384 . S
C1774 C1775 1.372 . S
C1775 C1774 1.372 . S
C1775 C1776 1.400 . S
C1775 C1780 1.490 . S
C1776 H1766 0.930 . S
C1776 C1775 1.400 . S
C1776 C1779 1.386 . S
H1777 C1793 0.930 . S
H1778 C1794 0.931 . S
C1779 H1767 0.929 . S
C1779 C1773 1.390 . S
C1779 C1776 1.386 . S
C1780 C1775 1.490 . S
C1780 C1782 1.395 . S
C1780 C1783 1.403 . S
H1781 C1787 0.930 . S
C1782 H1768 0.930 . S
C1782 C1780 1.395 . S
C1782 C1785 1.403 . S
C1783 C1780 1.403 . S
C1783 C1784 1.524 . S
C1783 C1787 1.400 . S
C1784 H1769 0.960 . S
C1784 H1770 0.960 . S
C1784 H1771 0.960 . S
C1784 C1783 1.524 . S
C1785 C1782 1.403 . S
C1785 C1786 1.386 1_554 S
C1785 C1789 1.495 1_554 S
C1786 C1785 1.386 1_556 S
C1786 C1787 1.355 1_556 S
C1786 C1788 1.514 . S
C1787 H1781 0.930 . S
C1787 C1783 1.400 . S
C1787 C1786 1.355 1_554 S
C1788 C1786 1.514 . S
C1788 C1790 1.381 . S
C1788 C1794 1.383 . S
C1789 C1785 1.495 1_556 S
C1789 H1795 0.959 . S
C1789 H1796 0.961 . S
C1789 H1797 0.960 . S
C1790 C1788 1.381 . S
C1790 C1791 1.394 . S
C1790 H1798 0.930 . S
C1791 C1790 1.394 . S
C1791 C1792 1.383 . S
C1791 H1799 0.929 . S
C1792 C1791 1.383 . S
C1792 C1793 1.377 . S
C1793 H1777 0.930 . S
C1793 C1792 1.377 . S
C1793 C1794 1.379 . S
C1794 H1778 0.931 . S
C1794 C1788 1.383 . S
C1794 C1793 1.379 . S
H1795 C1789 0.959 . S
H1796 C1789 0.961 . S
H1797 C1789 0.960 . S
H1798 C1790 0.930 . S
H1799 C1791 0.929 . S
H1800 C1808 0.929 . S
H1801 C1810 0.930 . S
H1802 C1812 0.930 1_565 S
H1803 C1815 0.929 . S
H1804 C1818 0.930 . S
H1805 C1820 0.960 . S
H1806 C1820 0.960 . S
H1807 C1820 0.960 . S
C1808 H1800 0.929 . S
C1808 C1809 1.377 . S
C1808 C1810 1.384 . S
C1809 C1808 1.377 . S
C1809 C1815 1.390 . S
C1810 H1801 0.930 . S
C1810 C1808 1.384 . S
C1810 C1811 1.372 . S
C1811 C1810 1.372 . S
C1811 C1812 1.400 . S
C1811 C1816 1.490 . S
C1812 H1802 0.930 1_545 S
C1812 C1811 1.400 . S
C1812 C1815 1.386 . S
H1813 C1829 0.930 . S
H1814 C1830 0.931 . S
C1815 H1803 0.929 . S
C1815 C1809 1.390 . S
C1815 C1812 1.386 . S
C1816 C1811 1.490 . S
C1816 C1818 1.395 . S
C1816 C1819 1.403 1_545 S
H1817 C1823 0.930 . S
C1818 H1804 0.930 . S
C1818 C1816 1.395 . S
C1818 C1821 1.403 . S
C1819 C1816 1.403 1_565 S
C1819 C1820 1.524 . S
C1819 C1823 1.400 . S
C1820 H1805 0.960 . S
C1820 H1806 0.960 . S
C1820 H1807 0.960 . S
C1820 C1819 1.524 . S
C1821 C1818 1.403 . S
C1821 C1822 1.392 1_545 S
C1821 C1825 1.495 . S
C1822 C1821 1.392 1_565 S
C1822 C1823 1.385 . S
C1822 C1824 1.478 . S
C1823 H1817 0.930 . S
C1823 C1819 1.400 . S
C1823 C1822 1.385 . S
C1824 C1822 1.478 . S
C1824 C1826 1.381 . S
C1824 C1830 1.383 . S
C1825 C1821 1.495 . S
C1825 H1831 0.959 . S
C1825 H1832 0.961 . S
C1825 H1833 0.960 . S
C1826 C1824 1.381 . S
C1826 C1827 1.394 . S
C1826 H1834 0.930 . S
C1827 C1826 1.394 . S
C1827 C1828 1.383 . S
C1827 H1835 0.929 . S
C1828 C1827 1.383 . S
C1828 C1829 1.377 . S
C1829 H1813 0.930 . S
C1829 C1828 1.377 . S
C1829 C1830 1.379 . S
C1830 H1814 0.931 . S
C1830 C1824 1.383 . S
C1830 C1829 1.379 . S
H1831 C1825 0.959 . S
H1832 C1825 0.961 . S
H1833 C1825 0.960 . S
H1834 C1826 0.930 . S
H1835 C1827 0.929 . S
H1836 C1844 0.929 . S
H1837 C1846 0.930 . S
H1838 C1848 0.930 . S
H1839 C1851 0.929 . S
H1840 C1854 0.930 . S
H1841 C1856 0.960 . S
H1842 C1856 0.960 . S
H1843 C1856 0.960 . S
C1844 H1836 0.929 . S
C1844 C1845 1.377 . S
C1844 C1846 1.384 . S
C1845 C1844 1.377 . S
C1845 C1851 1.390 . S
C1846 H1837 0.930 . S
C1846 C1844 1.384 . S
C1846 C1847 1.372 1_565 S
C1847 C1846 1.372 1_545 S
C1847 C1848 1.400 . S
C1847 C1852 1.490 . S
C1848 H1838 0.930 . S
C1848 C1847 1.400 . S
C1848 C1851 1.386 1_545 S
H1849 C1865 0.930 . S
H1850 C1866 0.931 . S
C1851 H1839 0.929 . S
C1851 C1845 1.390 . S
C1851 C1848 1.386 1_565 S
C1852 C1847 1.490 . S
C1852 C1854 1.395 . S
C1852 C1855 1.403 . S
H1853 C1859 0.930 . S
C1854 H1840 0.930 . S
C1854 C1852 1.395 . S
C1854 C1857 1.403 . S
C1855 C1852 1.403 . S
C1855 C1856 1.524 . S
C1855 C1859 1.400 . S
C1856 H1841 0.960 . S
C1856 H1842 0.960 . S
C1856 H1843 0.960 . S
C1856 C1855 1.524 . S
C1857 C1854 1.403 . S
C1857 C1858 1.392 . S
C1857 C1861 1.495 . S
C1858 C1857 1.392 . S
C1858 C1859 1.385 . S
C1858 C1860 1.478 . S
C1859 H1853 0.930 . S
C1859 C1855 1.400 . S
C1859 C1858 1.385 . S
C1860 C1858 1.478 . S
C1860 C1862 1.381 . S
C1860 C1866 1.383 . S
C1861 C1857 1.495 . S
C1861 H1867 0.959 . S
C1861 H1868 0.961 . S
C1861 H1869 0.960 . S
C1862 C1860 1.381 . S
C1862 C1863 1.394 . S
C1862 H1870 0.930 . S
C1863 C1862 1.394 . S
C1863 C1864 1.383 . S
C1863 H1871 0.929 . S
C1864 C1863 1.383 . S
C1864 C1865 1.377 . S
C1865 H1849 0.930 . S
C1865 C1864 1.377 . S
C1865 C1866 1.379 . S
C1866 H1850 0.931 . S
C1866 C1860 1.383 . S
C1866 C1865 1.379 . S
H1867 C1861 0.959 . S
H1868 C1861 0.961 . S
H1869 C1861 0.960 . S
H1870 C1862 0.930 . S
H1871 C1863 0.929 . S
H1872 C1880 0.929 . S
H1873 C1882 0.930 . S
H1874 C1884 0.930 . S
H1875 C1887 0.929 . S
H1876 C1890 0.930 . S
H1877 C1892 0.960 . S
H1878 C1892 0.960 . S
H1879 C1892 0.960 . S
C1880 H1872 0.929 . S
C1880 C1881 1.377 . S
C1880 C1882 1.384 . S
C1881 C1880 1.377 . S
C1881 C1887 1.390 . S
C1882 H1873 0.930 . S
C1882 C1880 1.384 . S
C1882 C1883 1.372 . S
C1883 C1882 1.372 . S
C1883 C1884 1.400 . S
C1883 C1888 1.490 . S
C1884 H1874 0.930 . S
C1884 C1883 1.400 . S
C1884 C1887 1.386 . S
H1885 C1901 0.930 . S
H1886 C1902 0.931 . S
C1887 H1875 0.929 . S
C1887 C1881 1.390 . S
C1887 C1884 1.386 . S
C1888 C1883 1.490 . S
C1888 C1890 1.395 . S
C1888 C1891 1.403 . S
H1889 C1895 0.930 . S
C1890 H1876 0.930 . S
C1890 C1888 1.395 . S
C1890 C1893 1.403 . S
C1891 C1888 1.403 . S
C1891 C1892 1.524 . S
C1891 C1895 1.400 . S
C1892 H1877 0.960 . S
C1892 H1878 0.960 . S
C1892 H1879 0.960 . S
C1892 C1891 1.524 . S
C1893 C1890 1.403 . S
C1893 C1894 1.392 . S
C1893 C1897 1.495 . S
C1894 C1893 1.392 . S
C1894 C1895 1.385 . S
C1894 C1896 1.478 . S
C1895 H1889 0.930 . S
C1895 C1891 1.400 . S
C1895 C1894 1.385 . S
C1896 C1894 1.478 . S
C1896 C1898 1.381 . S
C1896 C1902 1.383 . S
C1897 C1893 1.495 . S
C1897 H1903 0.959 . S
C1897 H1904 0.961 . S
C1897 H1905 0.960 . S
C1898 C1896 1.381 . S
C1898 C1899 1.394 . S
C1898 H1906 0.930 . S
C1899 C1898 1.394 . S
C1899 C1900 1.383 . S
C1899 H1907 0.929 . S
C1900 C1899 1.383 . S
C1900 C1901 1.377 . S
C1901 H1885 0.930 . S
C1901 C1900 1.377 . S
C1901 C1902 1.379 . S
C1902 H1886 0.931 . S
C1902 C1896 1.383 . S
C1902 C1901 1.379 . S
H1903 C1897 0.959 . S
H1904 C1897 0.961 . S
H1905 C1897 0.960 . S
H1906 C1898 0.930 . S
H1907 C1899 0.929 . S
H1908 C1916 0.929 . S
H1909 C1918 0.930 . S
H1910 C1920 0.930 . S
H1911 C1923 0.929 . S
H1912 C1926 0.930 . S
H1913 C1928 0.960 . S
H1914 C1928 0.960 . S
H1915 C1928 0.960 . S
C1916 H1908 0.929 . S
C1916 C1917 1.377 . S
C1916 C1918 1.384 . S
C1917 C1916 1.377 . S
C1917 C1923 1.390 . S
C1918 H1909 0.930 . S
C1918 C1916 1.384 . S
C1918 C1919 1.372 . S
C1919 C1918 1.372 . S
C1919 C1920 1.400 . S
C1919 C1924 1.490 . S
C1920 H1910 0.930 . S
C1920 C1919 1.400 . S
C1920 C1923 1.386 . S
H1921 C1937 0.930 . S
H1922 C1938 0.931 . S
C1923 H1911 0.929 . S
C1923 C1917 1.390 . S
C1923 C1920 1.386 . S
C1924 C1919 1.490 . S
C1924 C1926 1.395 . S
C1924 C1927 1.403 . S
H1925 C1931 0.930 . S
C1926 H1912 0.930 . S
C1926 C1924 1.395 . S
C1926 C1929 1.403 . S
C1927 C1924 1.403 . S
C1927 C1928 1.524 . S
C1927 C1931 1.400 . S
C1928 H1913 0.960 . S
C1928 H1914 0.960 . S
C1928 H1915 0.960 . S
C1928 C1927 1.524 . S
C1929 C1926 1.403 . S
C1929 C1930 1.392 . S
C1929 C1933 1.495 . S
C1930 C1929 1.392 . S
C1930 C1931 1.385 . S
C1930 C1932 1.478 . S
C1931 H1925 0.930 . S
C1931 C1927 1.400 . S
C1931 C1930 1.385 . S
C1932 C1930 1.478 . S
C1932 C1934 1.381 1_545 S
C1932 C1938 1.383 1_545 S
C1933 C1929 1.495 . S
C1933 H1939 0.959 . S
C1933 H1940 0.961 . S
C1933 H1941 0.960 . S
C1934 C1932 1.381 1_565 S
C1934 C1935 1.394 . S
C1934 H1942 0.930 1_565 S
C1935 C1934 1.394 . S
C1935 C1936 1.383 . S
C1935 H1943 0.929 . S
C1936 C1935 1.383 . S
C1936 C1937 1.377 . S
C1937 H1921 0.930 . S
C1937 C1936 1.377 . S
C1937 C1938 1.379 . S
C1938 H1922 0.931 . S
C1938 C1932 1.383 1_565 S
C1938 C1937 1.379 . S
H1939 C1933 0.959 . S
H1940 C1933 0.961 . S
H1941 C1933 0.960 . S
H1942 C1934 0.930 1_545 S
H1943 C1935 0.929 . S
H1944 C1952 0.929 . S
H1945 C1954 0.930 . S
H1946 C1956 0.930 . S
H1947 C1959 0.929 . S
H1948 C1962 0.930 . S
H1949 C1964 0.960 . S
H1950 C1964 0.960 . S
H1951 C1964 0.960 . S
C1952 H1944 0.929 . S
C1952 C1953 1.377 . S
C1952 C1954 1.384 . S
C1953 C1952 1.377 . S
C1953 C1959 1.390 . S
C1954 H1945 0.930 . S
C1954 C1952 1.384 . S
C1954 C1955 1.372 . S
C1955 C1954 1.372 . S
C1955 C1956 1.400 . S
C1955 C1960 1.490 . S
C1956 H1946 0.930 . S
C1956 C1955 1.400 . S
C1956 C1959 1.386 . S
H1957 C1973 0.930 . S
H1958 C1974 0.931 . S
C1959 H1947 0.929 . S
C1959 C1953 1.390 . S
C1959 C1956 1.386 . S
C1960 C1955 1.490 . S
C1960 C1962 1.395 . S
C1960 C1963 1.403 . S
H1961 C1967 0.930 . S
C1962 H1948 0.930 . S
C1962 C1960 1.395 . S
C1962 C1965 1.403 . S
C1963 C1960 1.403 . S
C1963 C1964 1.524 . S
C1963 C1967 1.400 . S
C1964 H1949 0.960 . S
C1964 H1950 0.960 . S
C1964 H1951 0.960 . S
C1964 C1963 1.524 . S
C1965 C1962 1.403 . S
C1965 C1966 1.392 . S
C1965 C1969 1.495 . S
C1966 C1965 1.392 . S
C1966 C1967 1.385 . S
C1966 C1968 1.478 . S
C1967 H1961 0.930 . S
C1967 C1963 1.400 . S
C1967 C1966 1.385 . S
C1968 C1966 1.478 . S
C1968 C1970 1.381 . S
C1968 C1974 1.383 . S
C1969 C1965 1.495 . S
C1969 H1975 0.959 . S
C1969 H1976 0.961 . S
C1969 H1977 0.960 . S
C1970 C1968 1.381 . S
C1970 C1971 1.394 . S
C1970 H1978 0.930 . S
C1971 C1970 1.394 . S
C1971 C1972 1.383 . S
C1971 H1979 0.929 . S
C1972 C1971 1.383 . S
C1972 C1973 1.377 . S
C1973 H1957 0.930 . S
C1973 C1972 1.377 . S
C1973 C1974 1.379 . S
C1974 H1958 0.931 . S
C1974 C1968 1.383 . S
C1974 C1973 1.379 . S
H1975 C1969 0.959 . S
H1976 C1969 0.961 . S
H1977 C1969 0.960 . S
H1978 C1970 0.930 . S
H1979 C1971 0.929 . S
H1980 C1988 0.929 . S
H1981 C1990 0.930 1_545 S
H1982 C1992 0.930 . S
H1983 C1995 0.929 . S
H1984 C1998 0.930 . S
H1985 C2000 0.960 . S
H1986 C2000 0.960 . S
H1987 C2000 0.960 1_565 S
C1988 H1980 0.929 . S
C1988 C1989 1.377 . S
C1988 C1990 1.384 . S
C1989 C1988 1.377 . S
C1989 C1995 1.390 . S
C1990 H1981 0.930 1_565 S
C1990 C1988 1.384 . S
C1990 C1991 1.372 . S
C1991 C1990 1.372 . S
C1991 C1992 1.400 . S
C1991 C1996 1.490 1_565 S
C1992 H1982 0.930 . S
C1992 C1991 1.400 . S
C1992 C1995 1.386 . S
H1993 C2009 0.930 . S
H1994 C2010 0.931 . S
C1995 H1983 0.929 . S
C1995 C1989 1.390 . S
C1995 C1992 1.386 . S
C1996 C1991 1.490 1_545 S
C1996 C1998 1.395 . S
C1996 C1999 1.403 . S
H1997 C2003 0.930 . S
C1998 H1984 0.930 . S
C1998 C1996 1.395 . S
C1998 C2001 1.403 . S
C1999 C1996 1.403 . S
C1999 C2000 1.524 . S
C1999 C2003 1.400 . S
C2000 H1985 0.960 . S
C2000 H1986 0.960 . S
C2000 H1987 0.960 1_545 S
C2000 C1999 1.524 . S
C2001 C1998 1.403 . S
C2001 C2002 1.392 . S
C2001 C2005 1.495 . S
C2002 C2001 1.392 . S
C2002 C2003 1.385 . S
C2002 C2004 1.478 . S
C2003 H1997 0.930 . S
C2003 C1999 1.400 . S
C2003 C2002 1.385 . S
C2004 C2002 1.478 . S
C2004 C2006 1.381 . S
C2004 C2010 1.383 . S
C2005 C2001 1.495 . S
C2005 H2011 0.959 . S
C2005 H2012 0.961 . S
C2005 H2013 0.960 . S
C2006 C2004 1.381 . S
C2006 C2007 1.394 . S
C2006 H2014 0.930 . S
C2007 C2006 1.394 . S
C2007 C2008 1.383 . S
C2007 H2015 0.929 . S
C2008 C2007 1.383 . S
C2008 C2009 1.377 . S
C2009 H1993 0.930 . S
C2009 C2008 1.377 . S
C2009 C2010 1.379 . S
C2010 H1994 0.931 . S
C2010 C2004 1.383 . S
C2010 C2009 1.379 . S
H2011 C2005 0.959 . S
H2012 C2005 0.961 . S
H2013 C2005 0.960 . S
H2014 C2006 0.930 . S
H2015 C2007 0.929 . S
H2016 C2024 0.922 1_545 S
H2017 C2026 0.930 1_545 S
H2018 C2028 0.930 . S
H2019 C2031 0.929 . S
H2020 C2034 0.930 . S
H2021 C2036 0.960 . S
H2022 C2036 0.960 . S
H2023 C2036 0.960 . S
C2024 H2016 0.922 1_565 S
C2024 C2025 1.383 . S
C2024 C2026 1.385 . S
C2025 C2024 1.383 . S
C2025 C2031 1.390 . S
C2026 H2017 0.930 1_565 S
C2026 C2024 1.385 . S
C2026 C2027 1.372 . S
C2027 C2026 1.372 . S
C2027 C2028 1.400 . S
C2027 C2032 1.490 . S
C2028 H2018 0.930 . S
C2028 C2027 1.400 . S
C2028 C2031 1.386 . S
H2029 C2045 0.930 . S
H2030 C2046 0.931 . S
C2031 H2019 0.929 . S
C2031 C2025 1.390 . S
C2031 C2028 1.386 . S
C2032 C2027 1.490 . S
C2032 C2034 1.395 . S
C2032 C2035 1.403 . S
H2033 C2039 0.930 . S
C2034 H2020 0.930 . S
C2034 C2032 1.395 . S
C2034 C2037 1.403 . S
C2035 C2032 1.403 . S
C2035 C2036 1.524 . S
C2035 C2039 1.400 . S
C2036 H2021 0.960 . S
C2036 H2022 0.960 . S
C2036 H2023 0.960 . S
C2036 C2035 1.524 . S
C2037 C2034 1.403 . S
C2037 C2038 1.392 . S
C2037 C2041 1.495 . S
C2038 C2037 1.392 . S
C2038 C2039 1.385 . S
C2038 C2040 1.478 . S
C2039 H2033 0.930 . S
C2039 C2035 1.400 . S
C2039 C2038 1.385 . S
C2040 C2038 1.478 . S
C2040 C2042 1.381 . S
C2040 C2046 1.383 . S
C2041 C2037 1.495 . S
C2041 H2047 0.959 . S
C2041 H2048 0.961 . S
C2041 H2049 0.960 . S
C2042 C2040 1.381 . S
C2042 C2043 1.394 . S
C2042 H2050 0.930 . S
C2043 C2042 1.394 . S
C2043 C2044 1.383 . S
C2043 H2051 0.929 . S
C2044 C2043 1.383 . S
C2044 C2045 1.377 . S
C2045 H2029 0.930 . S
C2045 C2044 1.377 . S
C2045 C2046 1.379 . S
C2046 H2030 0.931 . S
C2046 C2040 1.383 . S
C2046 C2045 1.379 . S
H2047 C2041 0.959 . S
H2048 C2041 0.961 . S
H2049 C2041 0.960 . S
H2050 C2042 0.930 . S
H2051 C2043 0.929 . S
H2052 C2060 0.929 . S
H2053 C2062 0.930 . S
H2054 C2064 0.930 . S
H2055 C2067 0.929 . S
H2056 C2070 0.930 . S
H2057 C2072 0.960 . S
H2058 C2072 0.960 . S
H2059 C2072 0.960 . S
C2060 H2052 0.929 . S
C2060 C2061 1.377 . S
C2060 C2062 1.384 . S
C2061 C2060 1.377 . S
C2061 C2067 1.390 . S
C2062 H2053 0.930 . S
C2062 C2060 1.384 . S
C2062 C2063 1.372 . S
C2063 C2062 1.372 . S
C2063 C2064 1.400 . S
C2063 C2068 1.490 . S
C2064 H2054 0.930 . S
C2064 C2063 1.400 . S
C2064 C2067 1.386 . S
H2065 C2081 0.930 . S
H2066 C2082 0.931 . S
C2067 H2055 0.929 . S
C2067 C2061 1.390 . S
C2067 C2064 1.386 . S
C2068 C2063 1.490 . S
C2068 C2070 1.395 . S
C2068 C2071 1.403 . S
H2069 C2075 0.930 . S
C2070 H2056 0.930 . S
C2070 C2068 1.395 . S
C2070 C2073 1.403 . S
C2071 C2068 1.403 . S
C2071 C2072 1.524 . S
C2071 C2075 1.400 . S
C2072 H2057 0.960 . S
C2072 H2058 0.960 . S
C2072 H2059 0.960 . S
C2072 C2071 1.524 . S
C2073 C2070 1.403 . S
C2073 C2074 1.392 . S
C2073 C2077 1.495 . S
C2074 C2073 1.392 . S
C2074 C2075 1.385 . S
C2074 C2076 1.478 . S
C2075 H2069 0.930 . S
C2075 C2071 1.400 . S
C2075 C2074 1.385 . S
C2076 C2074 1.478 . S
C2076 C2078 1.381 . S
C2076 C2082 1.383 . S
C2077 C2073 1.495 . S
C2077 H2083 0.959 . S
C2077 H2084 0.961 . S
C2077 H2085 0.960 . S
C2078 C2076 1.381 . S
C2078 C2079 1.406 . S
C2078 H2086 0.930 . S
C2079 C2078 1.406 . S
C2079 C2080 1.373 1_545 S
C2079 H2087 0.927 1_545 S
C2080 C2079 1.373 1_565 S
C2080 C2081 1.377 . S
C2081 H2065 0.930 . S
C2081 C2080 1.377 . S
C2081 C2082 1.379 1_565 S
C2082 H2066 0.931 . S
C2082 C2076 1.383 . S
C2082 C2081 1.379 1_545 S
H2083 C2077 0.959 . S
H2084 C2077 0.961 . S
H2085 C2077 0.960 . S
H2086 C2078 0.930 . S
H2087 C2079 0.927 1_565 S
H2088 C2096 0.929 1_554 S
H2089 C2098 0.930 . S
H2090 C2100 0.930 . S
H2091 C2103 0.929 . S
H2092 C2106 0.930 . S
H2093 C2108 0.960 . S
H2094 C2108 0.960 . S
H2095 C2108 0.960 . S
C2096 H2088 0.929 1_556 S
C2096 C2097 1.377 . S
C2096 C2098 1.384 . S
C2097 C2096 1.377 . S
C2097 C2103 1.390 . S
C2098 H2089 0.930 . S
C2098 C2096 1.384 . S
C2098 C2099 1.372 . S
C2099 C2098 1.372 . S
C2099 C2100 1.400 . S
C2099 C2104 1.490 . S
C2100 H2090 0.930 . S
C2100 C2099 1.400 . S
C2100 C2103 1.386 . S
H2101 C2117 0.930 . S
H2102 C2118 0.931 . S
C2103 H2091 0.929 . S
C2103 C2097 1.390 . S
C2103 C2100 1.386 . S
C2104 C2099 1.490 . S
C2104 C2106 1.395 . S
C2104 C2107 1.403 . S
H2105 C2111 0.930 . S
C2106 H2092 0.930 . S
C2106 C2104 1.395 . S
C2106 C2109 1.403 . S
C2107 C2104 1.403 . S
C2107 C2108 1.524 . S
C2107 C2111 1.400 . S
C2108 H2093 0.960 . S
C2108 H2094 0.960 . S
C2108 H2095 0.960 . S
C2108 C2107 1.524 . S
C2109 C2106 1.403 . S
C2109 C2110 1.392 . S
C2109 C2113 1.495 . S
C2110 C2109 1.392 . S
C2110 C2111 1.385 . S
C2110 C2112 1.478 . S
C2111 H2105 0.930 . S
C2111 C2107 1.400 . S
C2111 C2110 1.385 . S
C2112 C2110 1.478 . S
C2112 C2114 1.381 . S
C2112 C2118 1.383 . S
C2113 C2109 1.495 . S
C2113 H2119 0.959 . S
C2113 H2120 0.961 . S
C2113 H2121 0.960 . S
C2114 C2112 1.381 . S
C2114 C2115 1.394 . S
C2114 H2122 0.930 . S
C2115 C2114 1.394 . S
C2115 C2116 1.383 . S
C2115 H2123 0.929 . S
C2116 C2115 1.383 . S
C2116 C2117 1.377 . S
C2117 H2101 0.930 . S
C2117 C2116 1.377 . S
C2117 C2118 1.379 . S
C2118 H2102 0.931 . S
C2118 C2112 1.383 . S
C2118 C2117 1.379 . S
H2119 C2113 0.959 . S
H2120 C2113 0.961 . S
H2121 C2113 0.960 . S
H2122 C2114 0.930 . S
H2123 C2115 0.929 . S
H2124 C2132 0.929 . S
H2125 C2134 0.930 . S
H2126 C2136 0.930 . S
H2127 C2139 0.929 . S
H2128 C2142 0.930 . S
H2129 C2144 0.960 . S
H2130 C2144 0.960 . S
H2131 C2144 0.960 . S
C2132 H2124 0.929 . S
C2132 C2133 1.377 . S
C2132 C2134 1.384 . S
C2133 C2132 1.377 . S
C2133 C2139 1.390 . S
C2134 H2125 0.930 . S
C2134 C2132 1.384 . S
C2134 C2135 1.372 . S
C2135 C2134 1.372 . S
C2135 C2136 1.400 . S
C2135 C2140 1.490 . S
C2136 H2126 0.930 . S
C2136 C2135 1.400 . S
C2136 C2139 1.386 . S
H2137 C2153 0.930 . S
H2138 C2154 0.931 . S
C2139 H2127 0.929 . S
C2139 C2133 1.390 . S
C2139 C2136 1.386 . S
C2140 C2135 1.490 . S
C2140 C2142 1.395 . S
C2140 C2143 1.403 . S
H2141 C2147 0.930 . S
C2142 H2128 0.930 . S
C2142 C2140 1.395 . S
C2142 C2145 1.403 . S
C2143 C2140 1.403 . S
C2143 C2144 1.524 . S
C2143 C2147 1.400 . S
C2144 H2129 0.960 . S
C2144 H2130 0.960 . S
C2144 H2131 0.960 . S
C2144 C2143 1.524 . S
C2145 C2142 1.403 . S
C2145 C2146 1.392 . S
C2145 C2149 1.495 . S
C2146 C2145 1.392 . S
C2146 C2147 1.385 . S
C2146 C2148 1.478 . S
C2147 H2141 0.930 . S
C2147 C2143 1.400 . S
C2147 C2146 1.385 . S
C2148 C2146 1.478 . S
C2148 C2150 1.381 . S
C2148 C2154 1.383 . S
C2149 C2145 1.495 . S
C2149 H2155 0.959 . S
C2149 H2156 0.961 . S
C2149 H2157 0.960 . S
C2150 C2148 1.381 . S
C2150 C2151 1.394 . S
C2150 H2158 0.930 . S
C2151 C2150 1.394 . S
C2151 C2152 1.383 . S
C2151 H2159 0.929 . S
C2152 C2151 1.383 . S
C2152 C2153 1.377 . S
C2153 H2137 0.930 . S
C2153 C2152 1.377 . S
C2153 C2154 1.379 . S
C2154 H2138 0.931 . S
C2154 C2148 1.383 . S
C2154 C2153 1.379 . S
H2155 C2149 0.959 . S
H2156 C2149 0.961 . S
H2157 C2149 0.960 . S
H2158 C2150 0.930 . S
H2159 C2151 0.929 . S
H2160 C2168 0.929 . S
H2161 C2170 0.930 . S
H2162 C2172 0.930 . S
H2163 C2175 0.929 . S
H2164 C2178 0.929 1_655 S
H2165 C2180 0.960 . S
H2166 C2180 0.960 . S
H2167 C2180 0.960 . S
C2168 H2160 0.929 . S
C2168 C2169 1.377 . S
C2168 C2170 1.384 . S
C2169 C2168 1.377 . S
C2169 C2175 1.390 . S
C2170 H2161 0.930 . S
C2170 C2168 1.384 . S
C2170 C2171 1.372 . S
C2171 C2170 1.372 . S
C2171 C2172 1.400 . S
C2171 C2176 1.490 . S
C2172 H2162 0.930 . S
C2172 C2171 1.400 . S
C2172 C2175 1.386 . S
H2173 C2189 0.930 . S
H2174 C2190 0.931 . S
C2175 H2163 0.929 . S
C2175 C2169 1.390 . S
C2175 C2172 1.386 . S
C2176 C2171 1.490 . S
C2176 C2178 1.386 1_655 S
C2176 C2179 1.403 . S
H2177 C2183 0.930 . S
C2178 H2164 0.929 1_455 S
C2178 C2176 1.386 1_455 S
C2178 C2181 1.413 . S
C2179 C2176 1.403 . S
C2179 C2180 1.524 . S
C2179 C2183 1.400 1_655 S
C2180 H2165 0.960 . S
C2180 H2166 0.960 . S
C2180 H2167 0.960 . S
C2180 C2179 1.524 . S
C2181 C2178 1.413 . S
C2181 C2182 1.392 . S
C2181 C2185 1.495 . S
C2182 C2181 1.392 . S
C2182 C2183 1.385 . S
C2182 C2184 1.478 . S
C2183 H2177 0.930 . S
C2183 C2179 1.400 1_455 S
C2183 C2182 1.385 . S
C2184 C2182 1.478 . S
C2184 C2186 1.381 . S
C2184 C2190 1.383 . S
C2185 C2181 1.495 . S
C2185 H2191 0.959 . S
C2185 H2192 0.961 . S
C2185 H2193 0.960 . S
C2186 C2184 1.381 . S
C2186 C2187 1.394 . S
C2186 H2194 0.930 . S
C2187 C2186 1.394 . S
C2187 C2188 1.383 . S
C2187 H2195 0.929 . S
C2188 C2187 1.383 . S
C2188 C2189 1.377 . S
C2189 H2173 0.930 . S
C2189 C2188 1.377 . S
C2189 C2190 1.379 . S
C2190 H2174 0.931 . S
C2190 C2184 1.383 . S
C2190 C2189 1.379 . S
H2191 C2185 0.959 . S
H2192 C2185 0.961 . S
H2193 C2185 0.960 . S
H2194 C2186 0.930 . S
H2195 C2187 0.929 . S
H2196 C2204 0.929 . S
H2197 C2206 0.930 . S
H2198 C2208 0.930 . S
H2199 C2211 0.929 . S
H2200 C2214 0.930 . S
H2201 C2216 0.960 . S
H2202 C2216 0.960 . S
H2203 C2216 0.960 . S
C2204 H2196 0.929 . S
C2204 C2205 1.377 . S
C2204 C2206 1.384 . S
C2205 C2204 1.377 . S
C2205 C2211 1.390 . S
C2206 H2197 0.930 . S
C2206 C2204 1.384 . S
C2206 C2207 1.372 . S
C2207 C2206 1.372 . S
C2207 C2208 1.400 . S
C2207 C2212 1.490 . S
C2208 H2198 0.930 . S
C2208 C2207 1.400 . S
C2208 C2211 1.386 . S
H2209 C2225 0.930 . S
H2210 C2226 0.931 . S
C2211 H2199 0.929 . S
C2211 C2205 1.390 . S
C2211 C2208 1.386 . S
C2212 C2207 1.490 . S
C2212 C2214 1.395 . S
C2212 C2215 1.403 . S
H2213 C2219 0.930 . S
C2214 H2200 0.930 . S
C2214 C2212 1.395 . S
C2214 C2217 1.403 . S
C2215 C2212 1.403 . S
C2215 C2216 1.524 . S
C2215 C2219 1.400 . S
C2216 H2201 0.960 . S
C2216 H2202 0.960 . S
C2216 H2203 0.960 . S
C2216 C2215 1.524 . S
C2217 C2214 1.403 . S
C2217 C2218 1.392 . S
C2217 C2221 1.495 . S
C2218 C2217 1.392 . S
C2218 C2219 1.385 . S
C2218 C2220 1.478 . S
C2219 H2213 0.930 . S
C2219 C2215 1.400 . S
C2219 C2218 1.385 . S
C2220 C2218 1.478 . S
C2220 C2222 1.381 . S
C2220 C2226 1.383 . S
C2221 C2217 1.495 . S
C2221 H2227 0.959 . S
C2221 H2228 0.961 . S
C2221 H2229 0.960 . S
C2222 C2220 1.381 . S
C2222 C2223 1.394 . S
C2222 H2230 0.930 . S
C2223 C2222 1.394 . S
C2223 C2224 1.383 . S
C2223 H2231 0.929 . S
C2224 C2223 1.383 . S
C2224 C2225 1.377 . S
C2225 H2209 0.930 . S
C2225 C2224 1.377 . S
C2225 C2226 1.379 . S
C2226 H2210 0.931 . S
C2226 C2220 1.383 . S
C2226 C2225 1.379 . S
H2227 C2221 0.959 . S
H2228 C2221 0.961 . S
H2229 C2221 0.960 . S
H2230 C2222 0.930 . S
H2231 C2223 0.929 . S
H2232 C2240 0.929 . S
H2233 C2242 0.930 . S
H2234 C2244 0.930 . S
H2235 C2247 0.929 . S
H2236 C2250 0.930 . S
H2237 C2252 0.960 . S
H2238 C2252 0.960 . S
H2239 C2252 0.960 . S
C2240 H2232 0.929 . S
C2240 C2241 1.377 . S
C2240 C2242 1.384 . S
C2241 C2240 1.377 . S
C2241 C2247 1.390 . S
C2242 H2233 0.930 . S
C2242 C2240 1.384 . S
C2242 C2243 1.372 . S
C2243 C2242 1.372 . S
C2243 C2244 1.400 . S
C2243 C2248 1.490 . S
C2244 H2234 0.930 . S
C2244 C2243 1.400 . S
C2244 C2247 1.386 . S
H2245 C2261 0.930 . S
H2246 C2262 0.931 . S
C2247 H2235 0.929 . S
C2247 C2241 1.390 . S
C2247 C2244 1.386 . S
C2248 C2243 1.490 . S
C2248 C2250 1.395 . S
C2248 C2251 1.403 1_545 S
H2249 C2255 0.930 1_655 S
C2250 H2236 0.930 . S
C2250 C2248 1.395 . S
C2250 C2253 1.403 . S
C2251 C2248 1.403 1_565 S
C2251 C2252 1.524 . S
C2251 C2255 1.400 . S
C2252 H2237 0.960 . S
C2252 H2238 0.960 . S
C2252 H2239 0.960 . S
C2252 C2251 1.524 . S
C2253 C2250 1.403 . S
C2253 C2254 1.392 1_455 S
C2253 C2257 1.495 . S
C2254 C2253 1.392 1_655 S
C2254 C2255 1.385 1_645 S
C2254 C2256 1.478 1_545 S
C2255 H2249 0.930 1_455 S
C2255 C2251 1.400 . S
C2255 C2254 1.385 1_465 S
C2256 C2254 1.478 1_565 S
C2256 C2258 1.381 . S
C2256 C2262 1.383 . S
C2257 C2253 1.495 . S
C2257 H2263 0.959 . S
C2257 H2264 0.961 1_455 S
C2257 H2265 0.960 . S
C2258 C2256 1.381 . S
C2258 C2259 1.394 . S
C2258 H2266 0.930 . S
C2259 C2258 1.394 . S
C2259 C2260 1.383 . S
C2259 H2267 0.929 . S
C2260 C2259 1.383 . S
C2260 C2261 1.377 . S
C2261 H2245 0.930 . S
C2261 C2260 1.377 . S
C2261 C2262 1.379 . S
C2262 H2246 0.931 . S
C2262 C2256 1.383 . S
C2262 C2261 1.379 . S
H2263 C2257 0.959 . S
H2264 C2257 0.961 1_655 S
H2265 C2257 0.960 . S
H2266 C2258 0.930 . S
H2267 C2259 0.929 . S
H2268 C2276 0.929 . S
H2269 C2278 0.930 . S
H2270 C2280 0.930 . S
H2271 C2283 0.929 . S
H2272 C2286 0.930 . S
H2273 C2288 0.960 . S
H2274 C2288 0.960 . S
H2275 C2288 0.960 . S
C2276 H2268 0.929 . S
C2276 C2277 1.377 . S
C2276 C2278 1.384 . S
C2277 C2276 1.377 . S
C2277 C2283 1.390 . S
C2278 H2269 0.930 . S
C2278 C2276 1.384 . S
C2278 C2279 1.372 . S
C2279 C2278 1.372 . S
C2279 C2280 1.400 . S
C2279 C2284 1.490 . S
C2280 H2270 0.930 . S
C2280 C2279 1.400 . S
C2280 C2283 1.386 . S
H2281 C2297 0.930 . S
H2282 C2298 0.931 . S
C2283 H2271 0.929 . S
C2283 C2277 1.390 . S
C2283 C2280 1.386 . S
C2284 C2279 1.490 . S
C2284 C2286 1.395 . S
C2284 C2287 1.403 . S
H2285 C2291 0.930 . S
C2286 H2272 0.930 . S
C2286 C2284 1.395 . S
C2286 C2289 1.403 . S
C2287 C2284 1.403 . S
C2287 C2288 1.524 . S
C2287 C2291 1.400 . S
C2288 H2273 0.960 . S
C2288 H2274 0.960 . S
C2288 H2275 0.960 . S
C2288 C2287 1.524 . S
C2289 C2286 1.403 . S
C2289 C2290 1.392 . S
C2289 C2293 1.495 . S
C2290 C2289 1.392 . S
C2290 C2291 1.385 . S
C2290 C2292 1.478 . S
C2291 H2285 0.930 . S
C2291 C2287 1.400 . S
C2291 C2290 1.385 . S
C2292 C2290 1.478 . S
C2292 C2294 1.381 . S
C2292 C2298 1.383 . S
C2293 C2289 1.495 . S
C2293 H2299 0.959 . S
C2293 H2300 0.961 . S
C2293 H2301 0.960 . S
C2294 C2292 1.381 . S
C2294 C2295 1.394 . S
C2294 H2302 0.930 . S
C2295 C2294 1.394 . S
C2295 C2296 1.383 . S
C2295 H2303 0.929 . S
C2296 C2295 1.383 . S
C2296 C2297 1.377 . S
C2297 H2281 0.930 . S
C2297 C2296 1.377 . S
C2297 C2298 1.379 . S
C2298 H2282 0.931 . S
C2298 C2292 1.383 . S
C2298 C2297 1.379 . S
H2299 C2293 0.959 . S
H2300 C2293 0.961 . S
H2301 C2293 0.960 . S
H2302 C2294 0.930 . S
H2303 C2295 0.929 . S
H2304 C2312 0.929 . S
H2305 C2314 0.930 . S
H2306 C2316 0.930 . S
H2307 C2319 0.929 . S
H2308 C2322 0.930 1_655 S
H2309 C2324 0.960 . S
H2310 C2324 0.960 . S
H2311 C2324 0.960 . S
C2312 H2304 0.929 . S
C2312 C2313 1.377 . S
C2312 C2314 1.384 . S
C2313 C2312 1.377 . S
C2313 C2319 1.390 . S
C2314 H2305 0.930 . S
C2314 C2312 1.384 . S
C2314 C2315 1.372 . S
C2315 C2314 1.372 . S
C2315 C2316 1.400 . S
C2315 C2320 1.490 . S
C2316 H2306 0.930 . S
C2316 C2315 1.400 . S
C2316 C2319 1.386 . S
H2317 C2333 0.930 . S
H2318 C2334 0.931 . S
C2319 H2307 0.929 . S
C2319 C2313 1.390 . S
C2319 C2316 1.386 . S
C2320 C2315 1.490 . S
C2320 C2322 1.395 1_655 S
C2320 C2323 1.403 . S
H2321 C2327 0.930 . S
C2322 H2308 0.930 1_455 S
C2322 C2320 1.395 1_455 S
C2322 C2325 1.403 . S
C2323 C2320 1.403 . S
C2323 C2324 1.524 . S
C2323 C2327 1.400 1_655 S
C2324 H2309 0.960 . S
C2324 H2310 0.960 . S
C2324 H2311 0.960 . S
C2324 C2323 1.524 . S
C2325 C2322 1.403 . S
C2325 C2326 1.392 . S
C2325 C2329 1.495 . S
C2326 C2325 1.392 . S
C2326 C2327 1.385 . S
C2326 C2328 1.478 . S
C2327 H2321 0.930 . S
C2327 C2323 1.400 1_455 S
C2327 C2326 1.385 . S
C2328 C2326 1.478 . S
C2328 C2330 1.381 . S
C2328 C2334 1.383 . S
C2329 C2325 1.495 . S
C2329 H2335 0.959 . S
C2329 H2336 0.961 . S
C2329 H2337 0.960 . S
C2330 C2328 1.381 . S
C2330 C2331 1.394 . S
C2330 H2338 0.930 . S
C2331 C2330 1.394 . S
C2331 C2332 1.383 . S
C2331 H2339 0.929 . S
C2332 C2331 1.383 . S
C2332 C2333 1.377 . S
C2333 H2317 0.930 . S
C2333 C2332 1.377 . S
C2333 C2334 1.379 . S
C2334 H2318 0.931 . S
C2334 C2328 1.383 . S
C2334 C2333 1.379 . S
H2335 C2329 0.959 . S
H2336 C2329 0.961 . S
H2337 C2329 0.960 . S
H2338 C2330 0.930 . S
H2339 C2331 0.929 . S
H2340 C2348 0.929 . S
H2341 C2350 0.930 . S
H2342 C2352 0.930 . S
H2343 C2355 0.929 . S
H2344 C2358 0.930 . S
H2345 C2360 0.960 . S
H2346 C2360 0.960 . S
H2347 C2360 0.960 . S
C2348 H2340 0.929 . S
C2348 C2349 1.377 . S
C2348 C2350 1.384 . S
C2349 C2348 1.377 . S
C2349 C2355 1.390 . S
C2350 H2341 0.930 . S
C2350 C2348 1.384 . S
C2350 C2351 1.372 . S
C2351 C2350 1.372 . S
C2351 C2352 1.400 . S
C2351 C2356 1.490 . S
C2352 H2342 0.930 . S
C2352 C2351 1.400 . S
C2352 C2355 1.386 . S
H2353 C2369 0.930 . S
H2354 C2370 0.931 . S
C2355 H2343 0.929 . S
C2355 C2349 1.390 . S
C2355 C2352 1.386 . S
C2356 C2351 1.490 . S
C2356 C2358 1.395 . S
C2356 C2359 1.403 . S
H2357 C2363 0.930 . S
C2358 H2344 0.930 . S
C2358 C2356 1.395 . S
C2358 C2361 1.403 . S
C2359 C2356 1.403 . S
C2359 C2360 1.524 . S
C2359 C2363 1.400 . S
C2360 H2345 0.960 . S
C2360 H2346 0.960 . S
C2360 H2347 0.960 . S
C2360 C2359 1.524 . S
C2361 C2358 1.403 . S
C2361 C2362 1.392 . S
C2361 C2365 1.495 . S
C2362 C2361 1.392 . S
C2362 C2363 1.385 . S
C2362 C2364 1.478 . S
C2363 H2357 0.930 . S
C2363 C2359 1.400 . S
C2363 C2362 1.385 . S
C2364 C2362 1.478 . S
C2364 C2366 1.381 . S
C2364 C2370 1.383 . S
C2365 C2361 1.495 . S
C2365 H2371 0.959 . S
C2365 H2372 0.961 . S
C2365 H2373 0.960 . S
C2366 C2364 1.381 . S
C2366 C2367 1.394 . S
C2366 H2374 0.930 . S
C2367 C2366 1.394 . S
C2367 C2368 1.383 . S
C2367 H2375 0.929 . S
C2368 C2367 1.383 . S
C2368 C2369 1.377 . S
C2369 H2353 0.930 . S
C2369 C2368 1.377 . S
C2369 C2370 1.379 . S
C2370 H2354 0.931 . S
C2370 C2364 1.383 . S
C2370 C2369 1.379 . S
H2371 C2365 0.959 . S
H2372 C2365 0.961 . S
H2373 C2365 0.960 . S
H2374 C2366 0.930 . S
H2375 C2367 0.929 . S
H2376 C2384 0.929 . S
H2377 C2386 0.930 . S
H2378 C2388 0.930 . S
H2379 C2391 0.929 . S
H2380 C2394 0.930 . S
H2381 C2396 0.960 . S
H2382 C2396 0.960 . S
H2383 C2396 0.960 . S
C2384 H2376 0.929 . S
C2384 C2385 1.377 . S
C2384 C2386 1.384 . S
C2385 C2384 1.377 . S
C2385 C2391 1.390 . S
C2386 H2377 0.930 . S
C2386 C2384 1.384 . S
C2386 C2387 1.372 . S
C2387 C2386 1.372 . S
C2387 C2388 1.400 . S
C2387 C2392 1.490 . S
C2388 H2378 0.930 . S
C2388 C2387 1.400 . S
C2388 C2391 1.386 . S
H2389 C2405 0.930 . S
H2390 C2406 0.931 . S
C2391 H2379 0.929 . S
C2391 C2385 1.390 . S
C2391 C2388 1.386 . S
C2392 C2387 1.490 . S
C2392 C2394 1.395 . S
C2392 C2395 1.403 . S
H2393 C2399 0.930 . S
C2394 H2380 0.930 . S
C2394 C2392 1.395 . S
C2394 C2397 1.403 . S
C2395 C2392 1.403 . S
C2395 C2396 1.524 . S
C2395 C2399 1.400 . S
C2396 H2381 0.960 . S
C2396 H2382 0.960 . S
C2396 H2383 0.960 . S
C2396 C2395 1.524 . S
C2397 C2394 1.403 . S
C2397 C2398 1.392 . S
C2397 C2401 1.495 . S
C2398 C2397 1.392 . S
C2398 C2399 1.385 . S
C2398 C2400 1.478 . S
C2399 H2393 0.930 . S
C2399 C2395 1.400 . S
C2399 C2398 1.385 . S
C2400 C2398 1.478 . S
C2400 C2402 1.381 . S
C2400 C2406 1.383 . S
C2401 C2397 1.495 . S
C2401 H2407 0.959 . S
C2401 H2408 0.961 . S
C2401 H2409 0.960 . S
C2402 C2400 1.381 . S
C2402 C2403 1.394 . S
C2402 H2410 0.930 . S
C2403 C2402 1.394 . S
C2403 C2404 1.383 . S
C2403 H2411 0.929 . S
C2404 C2403 1.383 . S
C2404 C2405 1.377 . S
C2405 H2389 0.930 . S
C2405 C2404 1.377 . S
C2405 C2406 1.379 . S
C2406 H2390 0.931 . S
C2406 C2400 1.383 . S
C2406 C2405 1.379 . S
H2407 C2401 0.959 . S
H2408 C2401 0.961 . S
H2409 C2401 0.960 . S
H2410 C2402 0.930 . S
H2411 C2403 0.929 . S
H2412 C2420 0.929 . S
H2413 C2422 0.930 . S
H2414 C2424 0.930 . S
H2415 C2427 0.929 . S
H2416 C2430 0.930 . S
H2417 C2432 0.960 . S
H2418 C2432 0.960 . S
H2419 C2432 0.960 . S
C2420 H2412 0.929 . S
C2420 C2421 1.377 . S
C2420 C2422 1.384 . S
C2421 C2420 1.377 . S
C2421 C2427 1.390 . S
C2422 H2413 0.930 . S
C2422 C2420 1.384 . S
C2422 C2423 1.372 . S
C2423 C2422 1.372 . S
C2423 C2424 1.400 . S
C2423 C2428 1.490 . S
C2424 H2414 0.930 . S
C2424 C2423 1.400 . S
C2424 C2427 1.386 . S
H2425 C2441 0.930 . S
H2426 C2442 0.931 . S
C2427 H2415 0.929 . S
C2427 C2421 1.390 . S
C2427 C2424 1.386 . S
C2428 C2423 1.490 . S
C2428 C2430 1.395 . S
C2428 C2431 1.403 . S
H2429 C2435 0.930 . S
C2430 H2416 0.930 . S
C2430 C2428 1.395 . S
C2430 C2433 1.403 . S
C2431 C2428 1.403 . S
C2431 C2432 1.524 . S
C2431 C2435 1.400 . S
C2432 H2417 0.960 . S
C2432 H2418 0.960 . S
C2432 H2419 0.960 . S
C2432 C2431 1.524 . S
C2433 C2430 1.403 . S
C2433 C2434 1.392 . S
C2433 C2437 1.495 . S
C2434 C2433 1.392 . S
C2434 C2435 1.385 . S
C2434 C2436 1.478 1_554 S
C2435 H2429 0.930 . S
C2435 C2431 1.400 . S
C2435 C2434 1.385 . S
C2436 C2434 1.478 1_556 S
C2436 C2438 1.381 . S
C2436 C2442 1.383 . S
C2437 C2433 1.495 . S
C2437 H2443 0.959 . S
C2437 H2444 0.961 1_554 S
C2437 H2445 0.960 1_554 S
C2438 C2436 1.381 . S
C2438 C2439 1.394 . S
C2438 H2446 0.930 . S
C2439 C2438 1.394 . S
C2439 C2440 1.383 . S
C2439 H2447 0.929 . S
C2440 C2439 1.383 . S
C2440 C2441 1.377 . S
C2441 H2425 0.930 . S
C2441 C2440 1.377 . S
C2441 C2442 1.379 . S
C2442 H2426 0.931 . S
C2442 C2436 1.383 . S
C2442 C2441 1.379 . S
H2443 C2437 0.959 . S
H2444 C2437 0.961 1_556 S
H2445 C2437 0.960 1_556 S
H2446 C2438 0.930 . S
H2447 C2439 0.929 . S
H2448 C2456 0.929 . S
H2449 C2458 0.930 . S
H2450 C2460 0.930 . S
H2451 C2463 0.929 . S
H2452 C2466 0.930 1_455 S
H2453 C2468 0.960 . S
H2454 C2468 0.960 . S
H2455 C2468 0.960 . S
C2456 H2448 0.929 . S
C2456 C2457 1.377 1_455 S
C2456 C2458 1.384 1_455 S
C2457 C2456 1.377 1_655 S
C2457 C2463 1.393 . S
C2458 H2449 0.930 . S
C2458 C2456 1.384 1_655 S
C2458 C2459 1.372 . S
C2459 C2458 1.372 . S
C2459 C2460 1.400 . S
C2459 C2464 1.490 . S
C2460 H2450 0.930 . S
C2460 C2459 1.400 . S
C2460 C2463 1.386 . S
H2461 C2477 0.930 . S
H2462 C2478 0.931 . S
C2463 H2451 0.929 . S
C2463 C2457 1.393 . S
C2463 C2460 1.386 . S
C2464 C2459 1.490 . S
C2464 C2466 1.395 . S
C2464 C2467 1.403 . S
H2465 C2471 0.930 . S
C2466 H2452 0.930 1_655 S
C2466 C2464 1.395 . S
C2466 C2469 1.403 . S
C2467 C2464 1.403 . S
C2467 C2468 1.524 . S
C2467 C2471 1.400 . S
C2468 H2453 0.960 . S
C2468 H2454 0.960 . S
C2468 H2455 0.960 . S
C2468 C2467 1.524 . S
C2469 C2466 1.403 . S
C2469 C2470 1.392 . S
C2469 C2473 1.495 . S
C2470 C2469 1.392 . S
C2470 C2471 1.385 . S
C2470 C2472 1.478 . S
C2471 H2465 0.930 . S
C2471 C2467 1.400 . S
C2471 C2470 1.385 . S
C2472 C2470 1.478 . S
C2472 C2474 1.381 . S
C2472 C2478 1.383 . S
C2473 C2469 1.495 . S
C2473 H2479 0.959 1_655 S
C2473 H2480 0.961 . S
C2473 H2481 0.960 . S
C2474 C2472 1.381 . S
C2474 C2475 1.394 . S
C2474 H2482 0.930 . S
C2475 C2474 1.394 . S
C2475 C2476 1.383 . S
C2475 H2483 0.929 . S
C2476 C2475 1.383 . S
C2476 C2477 1.377 . S
C2477 H2461 0.930 . S
C2477 C2476 1.377 . S
C2477 C2478 1.379 . S
C2478 H2462 0.931 . S
C2478 C2472 1.383 . S
C2478 C2477 1.379 . S
H2479 C2473 0.959 1_455 S
H2480 C2473 0.961 . S
H2481 C2473 0.960 . S
H2482 C2474 0.930 . S
H2483 C2475 0.929 . S
H2484 C2492 0.929 . S
H2485 C2494 0.930 . S
H2486 C2496 0.930 . S
H2487 C2499 0.929 . S
H2488 C2502 0.930 . S
H2489 C2504 0.960 . S
H2490 C2504 0.960 . S
H2491 C2504 0.960 . S
C2492 H2484 0.929 . S
C2492 C2493 1.377 . S
C2492 C2494 1.384 . S
C2493 C2492 1.377 . S
C2493 C2499 1.390 . S
C2494 H2485 0.930 . S
C2494 C2492 1.384 . S
C2494 C2495 1.372 . S
C2495 C2494 1.372 . S
C2495 C2496 1.400 . S
C2495 C2500 1.490 . S
C2496 H2486 0.930 . S
C2496 C2495 1.400 . S
C2496 C2499 1.386 . S
H2497 C2513 0.930 . S
H2498 C2514 0.931 . S
C2499 H2487 0.929 . S
C2499 C2493 1.390 . S
C2499 C2496 1.386 . S
C2500 C2495 1.490 . S
C2500 C2502 1.395 . S
C2500 C2503 1.403 . S
H2501 C2507 0.930 . S
C2502 H2488 0.930 . S
C2502 C2500 1.395 . S
C2502 C2505 1.403 . S
C2503 C2500 1.403 . S
C2503 C2504 1.524 . S
C2503 C2507 1.400 . S
C2504 H2489 0.960 . S
C2504 H2490 0.960 . S
C2504 H2491 0.960 . S
C2504 C2503 1.524 . S
C2505 C2502 1.403 . S
C2505 C2506 1.392 . S
C2505 C2509 1.495 . S
C2506 C2505 1.392 . S
C2506 C2507 1.385 . S
C2506 C2508 1.478 . S
C2507 H2501 0.930 . S
C2507 C2503 1.400 . S
C2507 C2506 1.385 . S
C2508 C2506 1.478 . S
C2508 C2510 1.381 . S
C2508 C2514 1.383 . S
C2509 C2505 1.495 . S
C2509 H2515 0.959 . S
C2509 H2516 0.961 . S
C2509 H2517 0.960 . S
C2510 C2508 1.381 . S
C2510 C2511 1.394 . S
C2510 H2518 0.930 . S
C2511 C2510 1.394 . S
C2511 C2512 1.383 . S
C2511 H2519 0.929 . S
C2512 C2511 1.383 . S
C2512 C2513 1.377 . S
C2513 H2497 0.930 . S
C2513 C2512 1.377 . S
C2513 C2514 1.379 . S
C2514 H2498 0.931 . S
C2514 C2508 1.383 . S
C2514 C2513 1.379 . S
H2515 C2509 0.959 . S
H2516 C2509 0.961 . S
H2517 C2509 0.960 . S
H2518 C2510 0.930 . S
H2519 C2511 0.929 . S
H2520 C2528 0.929 . S
H2521 C2530 0.930 . S
H2522 C2532 0.930 . S
H2523 C2535 0.929 . S
H2524 C2538 0.930 . S
H2525 C2540 0.960 . S
H2526 C2540 0.960 . S
H2527 C2540 0.960 . S
C2528 H2520 0.929 . S
C2528 C2529 1.377 . S
C2528 C2530 1.384 . S
C2529 C2528 1.377 . S
C2529 C2535 1.390 . S
C2530 H2521 0.930 . S
C2530 C2528 1.384 . S
C2530 C2531 1.372 . S
C2531 C2530 1.372 . S
C2531 C2532 1.400 . S
C2531 C2536 1.490 . S
C2532 H2522 0.930 . S
C2532 C2531 1.400 . S
C2532 C2535 1.386 . S
H2533 C2549 0.930 . S
H2534 C2550 0.931 . S
C2535 H2523 0.929 . S
C2535 C2529 1.390 . S
C2535 C2532 1.386 . S
C2536 C2531 1.490 . S
C2536 C2538 1.395 . S
C2536 C2539 1.403 . S
H2537 C2543 0.930 . S
C2538 H2524 0.930 . S
C2538 C2536 1.395 . S
C2538 C2541 1.403 . S
C2539 C2536 1.403 . S
C2539 C2540 1.524 . S
C2539 C2543 1.400 . S
C2540 H2525 0.960 . S
C2540 H2526 0.960 . S
C2540 H2527 0.960 . S
C2540 C2539 1.524 . S
C2541 C2538 1.403 . S
C2541 C2542 1.392 . S
C2541 C2545 1.495 . S
C2542 C2541 1.392 . S
C2542 C2543 1.385 . S
C2542 C2544 1.478 . S
C2543 H2537 0.930 . S
C2543 C2539 1.400 . S
C2543 C2542 1.385 . S
C2544 C2542 1.478 . S
C2544 C2546 1.381 . S
C2544 C2550 1.383 . S
C2545 C2541 1.495 . S
C2545 H2551 0.959 . S
C2545 H2552 0.961 . S
C2545 H2553 0.960 . S
C2546 C2544 1.381 . S
C2546 C2547 1.394 . S
C2546 H2554 0.930 . S
C2547 C2546 1.394 . S
C2547 C2548 1.383 . S
C2547 H2555 0.929 . S
C2548 C2547 1.383 . S
C2548 C2549 1.377 . S
C2549 H2533 0.930 . S
C2549 C2548 1.377 . S
C2549 C2550 1.379 . S
C2550 H2534 0.931 . S
C2550 C2544 1.383 . S
C2550 C2549 1.379 . S
H2551 C2545 0.959 . S
H2552 C2545 0.961 . S
H2553 C2545 0.960 . S
H2554 C2546 0.930 . S
H2555 C2547 0.929 . S
H2556 C2564 0.929 . S
H2557 C2566 0.930 . S
H2558 C2568 0.930 . S
H2559 C2571 0.929 . S
H2560 C2574 0.930 1_556 S
H2561 C2576 0.960 . S
H2562 C2576 0.960 . S
H2563 C2576 0.960 . S
C2564 H2556 0.929 . S
C2564 C2565 1.377 . S
C2564 C2566 1.384 1_455 S
C2565 C2564 1.377 . S
C2565 C2571 1.390 . S
C2566 H2557 0.930 . S
C2566 C2564 1.384 1_655 S
C2566 C2567 1.372 1_655 S
C2567 C2566 1.372 1_455 S
C2567 C2568 1.400 . S
C2567 C2572 1.512 1_455 S
C2568 H2558 0.930 . S
C2568 C2567 1.400 . S
C2568 C2571 1.386 . S
H2569 C2585 0.930 . S
H2570 C2586 0.931 . S
C2571 H2559 0.929 . S
C2571 C2565 1.390 . S
C2571 C2568 1.386 . S
C2572 C2567 1.512 1_655 S
C2572 C2574 1.392 1_556 S
C2572 C2575 1.384 1_656 S
H2573 C2579 0.930 1_455 S
C2574 H2560 0.930 1_554 S
C2574 C2572 1.392 1_554 S
C2574 C2577 1.403 . S
C2575 C2572 1.384 1_454 S
C2575 C2576 1.524 . S
C2575 C2579 1.400 1_455 S
C2576 H2561 0.960 . S
C2576 H2562 0.960 . S
C2576 H2563 0.960 . S
C2576 C2575 1.524 . S
C2577 C2574 1.403 . S
C2577 C2578 1.392 . S
C2577 C2581 1.495 . S
C2578 C2577 1.392 . S
C2578 C2579 1.385 . S
C2578 C2580 1.478 . S
C2579 H2573 0.930 1_655 S
C2579 C2575 1.400 1_655 S
C2579 C2578 1.385 . S
C2580 C2578 1.478 . S
C2580 C2582 1.381 . S
C2580 C2586 1.383 . S
C2581 C2577 1.495 . S
C2581 H2587 0.959 . S
C2581 H2588 0.961 . S
C2581 H2589 0.960 . S
C2582 C2580 1.381 . S
C2582 C2583 1.394 . S
C2582 H2590 0.930 . S
C2583 C2582 1.394 . S
C2583 C2584 1.383 . S
C2583 H2591 0.929 . S
C2584 C2583 1.383 . S
C2584 C2585 1.377 . S
C2585 H2569 0.930 . S
C2585 C2584 1.377 . S
C2585 C2586 1.379 . S
C2586 H2570 0.931 . S
C2586 C2580 1.383 . S
C2586 C2585 1.379 . S
H2587 C2581 0.959 . S
H2588 C2581 0.961 . S
H2589 C2581 0.960 . S
H2590 C2582 0.930 . S
H2591 C2583 0.929 . S
H2592 C2600 0.929 . S
H2593 C2602 0.930 . S
H2594 C2604 0.930 . S
H2595 C2607 0.929 . S
H2596 C2610 0.930 . S
H2597 C2612 0.960 . S
H2598 C2612 0.960 . S
H2599 C2612 0.960 . S
C2600 H2592 0.929 . S
C2600 C2601 1.377 . S
C2600 C2602 1.384 . S
C2601 C2600 1.377 . S
C2601 C2607 1.390 . S
C2602 H2593 0.930 . S
C2602 C2600 1.384 . S
C2602 C2603 1.372 . S
C2603 C2602 1.372 . S
C2603 C2604 1.400 . S
C2603 C2608 1.490 . S
C2604 H2594 0.930 . S
C2604 C2603 1.400 . S
C2604 C2607 1.386 . S
H2605 C2621 0.930 . S
H2606 C2622 0.931 . S
C2607 H2595 0.929 . S
C2607 C2601 1.390 . S
C2607 C2604 1.386 . S
C2608 C2603 1.490 . S
C2608 C2610 1.395 . S
C2608 C2611 1.403 . S
H2609 C2615 0.930 . S
C2610 H2596 0.930 . S
C2610 C2608 1.395 . S
C2610 C2613 1.403 . S
C2611 C2608 1.403 . S
C2611 C2612 1.524 . S
C2611 C2615 1.400 . S
C2612 H2597 0.960 . S
C2612 H2598 0.960 . S
C2612 H2599 0.960 . S
C2612 C2611 1.524 . S
C2613 C2610 1.403 . S
C2613 C2614 1.392 . S
C2613 C2617 1.495 . S
C2614 C2613 1.392 . S
C2614 C2615 1.385 . S
C2614 C2616 1.478 . S
C2615 H2609 0.930 . S
C2615 C2611 1.400 . S
C2615 C2614 1.385 . S
C2616 C2614 1.478 . S
C2616 C2618 1.381 . S
C2616 C2622 1.383 . S
C2617 C2613 1.495 . S
C2617 H2623 0.959 . S
C2617 H2624 0.961 . S
C2617 H2625 0.960 . S
C2618 C2616 1.381 . S
C2618 C2619 1.394 . S
C2618 H2626 0.930 . S
C2619 C2618 1.394 . S
C2619 C2620 1.383 . S
C2619 H2627 0.929 . S
C2620 C2619 1.383 . S
C2620 C2621 1.377 . S
C2621 H2605 0.930 . S
C2621 C2620 1.377 . S
C2621 C2622 1.379 . S
C2622 H2606 0.931 . S
C2622 C2616 1.383 . S
C2622 C2621 1.379 . S
H2623 C2617 0.959 . S
H2624 C2617 0.961 . S
H2625 C2617 0.960 . S
H2626 C2618 0.930 . S
H2627 C2619 0.929 . S
H2628 C2636 0.929 . S
H2629 C2638 0.930 . S
H2630 C2640 0.930 . S
H2631 C2643 0.929 . S
H2632 C2646 0.930 . S
H2633 C2648 0.960 . S
H2634 C2648 0.960 . S
H2635 C2648 0.960 . S
C2636 H2628 0.929 . S
C2636 C2637 1.377 . S
C2636 C2638 1.384 . S
C2637 C2636 1.377 . S
C2637 C2643 1.390 . S
C2638 H2629 0.930 . S
C2638 C2636 1.384 . S
C2638 C2639 1.372 . S
C2639 C2638 1.372 . S
C2639 C2640 1.400 . S
C2639 C2644 1.490 . S
C2640 H2630 0.930 . S
C2640 C2639 1.400 . S
C2640 C2643 1.386 . S
H2641 C2657 0.930 . S
H2642 C2658 0.931 . S
C2643 H2631 0.929 . S
C2643 C2637 1.390 . S
C2643 C2640 1.386 . S
C2644 C2639 1.490 . S
C2644 C2646 1.395 . S
C2644 C2647 1.403 . S
H2645 C2651 0.930 . S
C2646 H2632 0.930 . S
C2646 C2644 1.395 . S
C2646 C2649 1.403 . S
C2647 C2644 1.403 . S
C2647 C2648 1.524 . S
C2647 C2651 1.400 . S
C2648 H2633 0.960 . S
C2648 H2634 0.960 . S
C2648 H2635 0.960 . S
C2648 C2647 1.524 . S
C2649 C2646 1.403 . S
C2649 C2650 1.392 . S
C2649 C2653 1.495 . S
C2650 C2649 1.392 . S
C2650 C2651 1.385 . S
C2650 C2652 1.478 . S
C2651 H2645 0.930 . S
C2651 C2647 1.400 . S
C2651 C2650 1.385 . S
C2652 C2650 1.478 . S
C2652 C2654 1.381 . S
C2652 C2658 1.383 . S
C2653 C2649 1.495 . S
C2653 H2659 0.959 . S
C2653 H2660 0.961 . S
C2653 H2661 0.960 . S
C2654 C2652 1.381 . S
C2654 C2655 1.394 . S
C2654 H2662 0.930 . S
C2655 C2654 1.394 . S
C2655 C2656 1.383 . S
C2655 H2663 0.929 . S
C2656 C2655 1.383 . S
C2656 C2657 1.377 . S
C2657 H2641 0.930 . S
C2657 C2656 1.377 . S
C2657 C2658 1.379 . S
C2658 H2642 0.931 . S
C2658 C2652 1.383 . S
C2658 C2657 1.379 . S
H2659 C2653 0.959 . S
H2660 C2653 0.961 . S
H2661 C2653 0.960 . S
H2662 C2654 0.930 . S
H2663 C2655 0.929 . S
H2664 C2672 0.929 . S
H2665 C2674 0.930 . S
H2666 C2676 0.930 . S
H2667 C2679 0.929 . S
H2668 C2682 0.930 . S
H2669 C2684 0.960 . S
H2670 C2684 0.960 . S
H2671 C2684 0.960 . S
C2672 H2664 0.929 . S
C2672 C2673 1.377 . S
C2672 C2674 1.384 . S
C2673 C2672 1.377 . S
C2673 C2679 1.390 . S
C2674 H2665 0.930 . S
C2674 C2672 1.384 . S
C2674 C2675 1.372 . S
C2675 C2674 1.372 . S
C2675 C2676 1.400 . S
C2675 C2680 1.490 . S
C2676 H2666 0.930 . S
C2676 C2675 1.400 . S
C2676 C2679 1.386 . S
H2677 C2693 0.930 . S
H2678 C2694 0.931 . S
C2679 H2667 0.929 . S
C2679 C2673 1.390 . S
C2679 C2676 1.386 . S
C2680 C2675 1.490 . S
C2680 C2682 1.395 . S
C2680 C2683 1.403 . S
H2681 C2687 0.930 . S
C2682 H2668 0.930 . S
C2682 C2680 1.395 . S
C2682 C2685 1.403 . S
C2683 C2680 1.403 . S
C2683 C2684 1.524 . S
C2683 C2687 1.400 . S
C2684 H2669 0.960 . S
C2684 H2670 0.960 . S
C2684 H2671 0.960 . S
C2684 C2683 1.524 . S
C2685 C2682 1.403 . S
C2685 C2686 1.392 . S
C2685 C2689 1.495 . S
C2686 C2685 1.392 . S
C2686 C2687 1.385 . S
C2686 C2688 1.478 . S
C2687 H2681 0.930 . S
C2687 C2683 1.400 . S
C2687 C2686 1.385 . S
C2688 C2686 1.478 . S
C2688 C2690 1.381 . S
C2688 C2694 1.383 . S
C2689 C2685 1.495 . S
C2689 H2695 0.959 . S
C2689 H2696 0.961 . S
C2689 H2697 0.960 . S
C2690 C2688 1.381 . S
C2690 C2691 1.394 . S
C2690 H2698 0.930 . S
C2691 C2690 1.394 . S
C2691 C2692 1.383 . S
C2691 H2699 0.929 . S
C2692 C2691 1.383 . S
C2692 C2693 1.377 . S
C2693 H2677 0.930 . S
C2693 C2692 1.377 . S
C2693 C2694 1.379 . S
C2694 H2678 0.931 . S
C2694 C2688 1.383 . S
C2694 C2693 1.379 . S
H2695 C2689 0.959 . S
H2696 C2689 0.961 . S
H2697 C2689 0.960 . S
H2698 C2690 0.930 . S
H2699 C2691 0.929 . S
H2700 C2708 0.929 . S
H2701 C2710 0.930 . S
H2702 C2712 0.930 . S
H2703 C2715 0.929 . S
H2704 C2718 0.930 . S
H2705 C2720 0.947 1_554 S
H2706 C2720 0.926 1_554 S
H2707 C2720 0.973 . S
C2708 H2700 0.929 . S
C2708 C2709 1.377 . S
C2708 C2710 1.384 . S
C2709 C2708 1.377 . S
C2709 C2715 1.390 . S
C2710 H2701 0.930 . S
C2710 C2708 1.384 . S
C2710 C2711 1.372 . S
C2711 C2710 1.372 . S
C2711 C2712 1.400 . S
C2711 C2716 1.490 . S
C2712 H2702 0.930 . S
C2712 C2711 1.400 . S
C2712 C2715 1.386 . S
H2713 C2729 0.930 . S
H2714 C2730 0.931 . S
C2715 H2703 0.929 . S
C2715 C2709 1.390 . S
C2715 C2712 1.386 . S
C2716 C2711 1.490 . S
C2716 C2718 1.395 . S
C2716 C2719 1.403 . S
H2717 C2723 0.930 . S
C2718 H2704 0.930 . S
C2718 C2716 1.395 . S
C2718 C2721 1.403 . S
C2719 C2716 1.403 . S
C2719 C2720 1.560 . S
C2719 C2723 1.400 . S
C2720 H2705 0.947 1_556 S
C2720 H2706 0.926 1_556 S
C2720 H2707 0.973 . S
C2720 C2719 1.560 . S
C2721 C2718 1.403 . S
C2721 C2722 1.392 . S
C2721 C2725 1.495 . S
C2722 C2721 1.392 . S
C2722 C2723 1.385 . S
C2722 C2724 1.478 . S
C2723 H2717 0.930 . S
C2723 C2719 1.400 . S
C2723 C2722 1.385 . S
C2724 C2722 1.478 . S
C2724 C2726 1.381 . S
C2724 C2730 1.383 . S
C2725 C2721 1.495 . S
C2725 H2731 0.959 . S
C2725 H2732 0.961 . S
C2725 H2733 0.960 . S
C2726 C2724 1.381 . S
C2726 C2727 1.394 . S
C2726 H2734 0.930 . S
C2727 C2726 1.394 . S
C2727 C2728 1.383 . S
C2727 H2735 0.929 . S
C2728 C2727 1.383 . S
C2728 C2729 1.377 . S
C2729 H2713 0.930 . S
C2729 C2728 1.377 . S
C2729 C2730 1.379 . S
C2730 H2714 0.931 . S
C2730 C2724 1.383 . S
C2730 C2729 1.379 . S
H2731 C2725 0.959 . S
H2732 C2725 0.961 . S
H2733 C2725 0.960 . S
H2734 C2726 0.930 . S
H2735 C2727 0.929 . S
H2736 C2744 0.929 . S
H2737 C2746 0.930 . S
H2738 C2748 0.930 . S
H2739 C2751 0.929 . S
H2740 C2754 0.930 . S
H2741 C2756 0.960 . S
H2742 C2756 0.960 . S
H2743 C2756 0.960 . S
C2744 H2736 0.929 . S
C2744 C2745 1.377 . S
C2744 C2746 1.384 . S
C2745 C2744 1.377 . S
C2745 C2751 1.390 . S
C2746 H2737 0.930 . S
C2746 C2744 1.384 . S
C2746 C2747 1.372 . S
C2747 C2746 1.372 . S
C2747 C2748 1.400 . S
C2747 C2752 1.490 . S
C2748 H2738 0.930 . S
C2748 C2747 1.400 . S
C2748 C2751 1.386 . S
H2749 C2765 0.930 . S
H2750 C2766 0.931 . S
C2751 H2739 0.929 . S
C2751 C2745 1.390 . S
C2751 C2748 1.386 . S
C2752 C2747 1.490 . S
C2752 C2754 1.395 . S
C2752 C2755 1.403 . S
H2753 C2759 0.930 . S
C2754 H2740 0.930 . S
C2754 C2752 1.395 . S
C2754 C2757 1.403 . S
C2755 C2752 1.403 . S
C2755 C2756 1.524 . S
C2755 C2759 1.400 . S
C2756 H2741 0.960 . S
C2756 H2742 0.960 . S
C2756 H2743 0.960 . S
C2756 C2755 1.524 . S
C2757 C2754 1.403 . S
C2757 C2758 1.392 . S
C2757 C2761 1.495 . S
C2758 C2757 1.392 . S
C2758 C2759 1.385 . S
C2758 C2760 1.478 . S
C2759 H2753 0.930 . S
C2759 C2755 1.400 . S
C2759 C2758 1.385 . S
C2760 C2758 1.478 . S
C2760 C2762 1.381 . S
C2760 C2766 1.383 . S
C2761 C2757 1.495 . S
C2761 H2767 0.959 . S
C2761 H2768 0.961 . S
C2761 H2769 0.960 . S
C2762 C2760 1.381 . S
C2762 C2763 1.394 . S
C2762 H2770 0.930 . S
C2763 C2762 1.394 . S
C2763 C2764 1.383 . S
C2763 H2771 0.929 . S
C2764 C2763 1.383 . S
C2764 C2765 1.377 . S
C2765 H2749 0.930 . S
C2765 C2764 1.377 . S
C2765 C2766 1.379 . S
C2766 H2750 0.931 . S
C2766 C2760 1.383 . S
C2766 C2765 1.379 . S
H2767 C2761 0.959 . S
H2768 C2761 0.961 . S
H2769 C2761 0.960 . S
H2770 C2762 0.930 . S
H2771 C2763 0.929 . S
H2772 C2780 0.929 . S
H2773 C2782 0.930 . S
H2774 C2784 0.930 . S
H2775 C2787 0.929 . S
H2776 C2790 0.930 . S
H2777 C2792 0.960 . S
H2778 C2792 0.960 . S
H2779 C2792 0.960 . S
C2780 H2772 0.929 . S
C2780 C2781 1.377 . S
C2780 C2782 1.384 . S
C2781 C2780 1.377 . S
C2781 C2787 1.390 . S
C2782 H2773 0.930 . S
C2782 C2780 1.384 . S
C2782 C2783 1.372 . S
C2783 C2782 1.372 . S
C2783 C2784 1.400 . S
C2783 C2788 1.490 . S
C2784 H2774 0.930 . S
C2784 C2783 1.400 . S
C2784 C2787 1.386 . S
H2785 C2801 0.930 . S
H2786 C2802 0.931 . S
C2787 H2775 0.929 . S
C2787 C2781 1.390 . S
C2787 C2784 1.386 . S
C2788 C2783 1.490 . S
C2788 C2790 1.395 . S
C2788 C2791 1.403 . S
H2789 C2795 0.930 . S
C2790 H2776 0.930 . S
C2790 C2788 1.395 . S
C2790 C2793 1.403 . S
C2791 C2788 1.403 . S
C2791 C2792 1.524 . S
C2791 C2795 1.400 . S
C2792 H2777 0.960 . S
C2792 H2778 0.960 . S
C2792 H2779 0.960 . S
C2792 C2791 1.524 . S
C2793 C2790 1.403 . S
C2793 C2794 1.392 . S
C2793 C2797 1.495 . S
C2794 C2793 1.392 . S
C2794 C2795 1.385 . S
C2794 C2796 1.478 . S
C2795 H2789 0.930 . S
C2795 C2791 1.400 . S
C2795 C2794 1.385 . S
C2796 C2794 1.478 . S
C2796 C2798 1.381 . S
C2796 C2802 1.383 . S
C2797 C2793 1.495 . S
C2797 H2803 0.959 . S
C2797 H2804 0.961 . S
C2797 H2805 0.960 . S
C2798 C2796 1.381 . S
C2798 C2799 1.394 . S
C2798 H2806 0.930 . S
C2799 C2798 1.394 . S
C2799 C2800 1.383 . S
C2799 H2807 0.929 . S
C2800 C2799 1.383 . S
C2800 C2801 1.377 . S
C2801 H2785 0.930 . S
C2801 C2800 1.377 . S
C2801 C2802 1.379 . S
C2802 H2786 0.931 . S
C2802 C2796 1.383 . S
C2802 C2801 1.379 . S
H2803 C2797 0.959 . S
H2804 C2797 0.961 . S
H2805 C2797 0.960 . S
H2806 C2798 0.930 . S
H2807 C2799 0.929 . S
H2808 C2816 0.929 . S
H2809 C2818 0.930 . S
H2810 C2820 0.930 . S
H2811 C2823 0.929 . S
H2812 C2826 0.930 . S
H2813 C2828 0.960 . S
H2814 C2828 0.960 . S
H2815 C2828 0.960 . S
C2816 H2808 0.929 . S
C2816 C2817 1.377 . S
C2816 C2818 1.384 . S
C2817 C2816 1.377 . S
C2817 C2823 1.390 . S
C2818 H2809 0.930 . S
C2818 C2816 1.384 . S
C2818 C2819 1.372 . S
C2819 C2818 1.372 . S
C2819 C2820 1.400 . S
C2819 C2824 1.490 . S
C2820 H2810 0.930 . S
C2820 C2819 1.400 . S
C2820 C2823 1.386 . S
H2821 C2837 0.930 . S
H2822 C2838 0.931 . S
C2823 H2811 0.929 . S
C2823 C2817 1.390 . S
C2823 C2820 1.386 . S
C2824 C2819 1.490 . S
C2824 C2826 1.395 . S
C2824 C2827 1.403 . S
H2825 C2831 0.930 . S
C2826 H2812 0.930 . S
C2826 C2824 1.395 . S
C2826 C2829 1.403 . S
C2827 C2824 1.403 . S
C2827 C2828 1.524 . S
C2827 C2831 1.400 . S
C2828 H2813 0.960 . S
C2828 H2814 0.960 . S
C2828 H2815 0.960 . S
C2828 C2827 1.524 . S
C2829 C2826 1.403 . S
C2829 C2830 1.392 . S
C2829 C2833 1.495 . S
C2830 C2829 1.392 . S
C2830 C2831 1.385 . S
C2830 C2832 1.478 . S
C2831 H2825 0.930 . S
C2831 C2827 1.400 . S
C2831 C2830 1.385 . S
C2832 C2830 1.478 . S
C2832 C2834 1.381 . S
C2832 C2838 1.383 . S
C2833 C2829 1.495 . S
C2833 H2839 0.959 . S
C2833 H2840 0.961 . S
C2833 H2841 0.960 . S
C2834 C2832 1.381 . S
C2834 C2835 1.394 . S
C2834 H2842 0.930 . S
C2835 C2834 1.394 . S
C2835 C2836 1.383 . S
C2835 H2843 0.929 . S
C2836 C2835 1.383 . S
C2836 C2837 1.377 . S
C2837 H2821 0.930 . S
C2837 C2836 1.377 . S
C2837 C2838 1.379 . S
C2838 H2822 0.931 . S
C2838 C2832 1.383 . S
C2838 C2837 1.379 . S
H2839 C2833 0.959 . S
H2840 C2833 0.961 . S
H2841 C2833 0.960 . S
H2842 C2834 0.930 . S
H2843 C2835 0.929 . S
H2844 C2852 0.929 . S
H2845 C2854 0.930 . S
H2846 C2856 0.930 . S
H2847 C2859 0.929 . S
H2848 C2862 0.930 . S
H2849 C2864 0.960 . S
H2850 C2864 0.960 . S
H2851 C2864 0.960 . S
C2852 H2844 0.929 . S
C2852 C2853 1.377 . S
C2852 C2854 1.384 . S
C2853 C2852 1.377 . S
C2853 C2859 1.390 . S
C2854 H2845 0.930 . S
C2854 C2852 1.384 . S
C2854 C2855 1.372 . S
C2855 C2854 1.372 . S
C2855 C2856 1.400 . S
C2855 C2860 1.490 . S
C2856 H2846 0.930 . S
C2856 C2855 1.400 . S
C2856 C2859 1.386 . S
H2857 C2873 0.930 . S
H2858 C2874 0.931 . S
C2859 H2847 0.929 . S
C2859 C2853 1.390 . S
C2859 C2856 1.386 . S
C2860 C2855 1.490 . S
C2860 C2862 1.395 . S
C2860 C2863 1.403 . S
H2861 C2867 0.930 . S
C2862 H2848 0.930 . S
C2862 C2860 1.395 . S
C2862 C2865 1.403 . S
C2863 C2860 1.403 . S
C2863 C2864 1.524 . S
C2863 C2867 1.400 . S
C2864 H2849 0.960 . S
C2864 H2850 0.960 . S
C2864 H2851 0.960 . S
C2864 C2863 1.524 . S
C2865 C2862 1.403 . S
C2865 C2866 1.392 . S
C2865 C2869 1.495 . S
C2866 C2865 1.392 . S
C2866 C2867 1.385 . S
C2866 C2868 1.478 . S
C2867 H2861 0.930 . S
C2867 C2863 1.400 . S
C2867 C2866 1.385 . S
C2868 C2866 1.478 . S
C2868 C2870 1.381 . S
C2868 C2874 1.383 . S
C2869 C2865 1.495 . S
C2869 H2875 0.959 . S
C2869 H2876 0.961 . S
C2869 H2877 0.960 . S
C2870 C2868 1.381 . S
C2870 C2871 1.394 . S
C2870 H2878 0.930 . S
C2871 C2870 1.394 . S
C2871 C2872 1.383 . S
C2871 H2879 0.929 . S
C2872 C2871 1.383 . S
C2872 C2873 1.377 . S
C2873 H2857 0.930 . S
C2873 C2872 1.377 . S
C2873 C2874 1.379 . S
C2874 H2858 0.931 . S
C2874 C2868 1.383 . S
C2874 C2873 1.379 . S
H2875 C2869 0.959 . S
H2876 C2869 0.961 . S
H2877 C2869 0.960 . S
H2878 C2870 0.930 . S
H2879 C2871 0.929 . S
H2880 C2888 0.929 . S
H2881 C2890 0.930 . S
H2882 C2892 0.930 . S
H2883 C2895 0.929 . S
H2884 C2898 0.930 . S
H2885 C2900 0.960 . S
H2886 C2900 0.960 . S
H2887 C2900 0.960 . S
C2888 H2880 0.929 . S
C2888 C2889 1.377 . S
C2888 C2890 1.384 . S
C2889 C2888 1.377 . S
C2889 C2895 1.390 . S
C2890 H2881 0.930 . S
C2890 C2888 1.384 . S
C2890 C2891 1.372 . S
C2891 C2890 1.372 . S
C2891 C2892 1.400 . S
C2891 C2896 1.490 . S
C2892 H2882 0.930 . S
C2892 C2891 1.400 . S
C2892 C2895 1.386 . S
H2893 C2909 0.930 . S
H2894 C2910 0.931 . S
C2895 H2883 0.929 . S
C2895 C2889 1.390 . S
C2895 C2892 1.386 . S
C2896 C2891 1.490 . S
C2896 C2898 1.395 . S
C2896 C2899 1.403 . S
H2897 C2903 0.930 . S
C2898 H2884 0.930 . S
C2898 C2896 1.395 . S
C2898 C2901 1.403 . S
C2899 C2896 1.403 . S
C2899 C2900 1.524 . S
C2899 C2903 1.400 . S
C2900 H2885 0.960 . S
C2900 H2886 0.960 . S
C2900 H2887 0.960 . S
C2900 C2899 1.524 . S
C2901 C2898 1.403 . S
C2901 C2902 1.392 . S
C2901 C2905 1.495 . S
C2902 C2901 1.392 . S
C2902 C2903 1.385 . S
C2902 C2904 1.478 . S
C2903 H2897 0.930 . S
C2903 C2899 1.400 . S
C2903 C2902 1.385 . S
C2904 C2902 1.478 . S
C2904 C2906 1.381 . S
C2904 C2910 1.383 . S
C2905 C2901 1.495 . S
C2905 H2911 0.959 . S
C2905 H2912 0.961 . S
C2905 H2913 0.960 . S
C2906 C2904 1.381 . S
C2906 C2907 1.394 . S
C2906 H2914 0.930 . S
C2907 C2906 1.394 . S
C2907 C2908 1.383 . S
C2907 H2915 0.929 . S
C2908 C2907 1.383 . S
C2908 C2909 1.377 . S
C2909 H2893 0.930 . S
C2909 C2908 1.377 . S
C2909 C2910 1.379 . S
C2910 H2894 0.931 . S
C2910 C2904 1.383 . S
C2910 C2909 1.379 . S
H2911 C2905 0.959 . S
H2912 C2905 0.961 . S
H2913 C2905 0.960 . S
H2914 C2906 0.930 . S
H2915 C2907 0.929 . S
H2916 C2924 0.929 . S
H2917 C2926 0.930 . S
H2918 C2928 0.930 . S
H2919 C2931 0.929 . S
H2920 C2934 0.930 . S
H2921 C2936 0.960 . S
H2922 C2936 0.960 . S
H2923 C2936 0.960 . S
C2924 H2916 0.929 . S
C2924 C2925 1.377 . S
C2924 C2926 1.384 . S
C2925 C2924 1.377 . S
C2925 C2931 1.390 . S
C2926 H2917 0.930 . S
C2926 C2924 1.384 . S
C2926 C2927 1.372 . S
C2927 C2926 1.372 . S
C2927 C2928 1.400 . S
C2927 C2932 1.490 . S
C2928 H2918 0.930 . S
C2928 C2927 1.400 . S
C2928 C2931 1.386 . S
H2929 C2945 0.930 . S
H2930 C2946 0.931 . S
C2931 H2919 0.929 . S
C2931 C2925 1.390 . S
C2931 C2928 1.386 . S
C2932 C2927 1.490 . S
C2932 C2934 1.395 . S
C2932 C2935 1.403 . S
H2933 C2939 0.930 . S
C2934 H2920 0.930 . S
C2934 C2932 1.395 . S
C2934 C2937 1.403 . S
C2935 C2932 1.403 . S
C2935 C2936 1.524 . S
C2935 C2939 1.400 . S
C2936 H2921 0.960 . S
C2936 H2922 0.960 . S
C2936 H2923 0.960 . S
C2936 C2935 1.524 . S
C2937 C2934 1.403 . S
C2937 C2938 1.392 . S
C2937 C2941 1.495 . S
C2938 C2937 1.392 . S
C2938 C2939 1.385 . S
C2938 C2940 1.478 . S
C2939 H2933 0.930 . S
C2939 C2935 1.400 . S
C2939 C2938 1.385 . S
C2940 C2938 1.478 . S
C2940 C2942 1.381 . S
C2940 C2946 1.383 . S
C2941 C2937 1.495 . S
C2941 H2947 0.959 . S
C2941 H2948 0.961 . S
C2941 H2949 0.960 . S
C2942 C2940 1.381 . S
C2942 C2943 1.394 . S
C2942 H2950 0.930 . S
C2943 C2942 1.394 . S
C2943 C2944 1.383 . S
C2943 H2951 0.929 . S
C2944 C2943 1.383 . S
C2944 C2945 1.377 . S
C2945 H2929 0.930 . S
C2945 C2944 1.377 . S
C2945 C2946 1.379 . S
C2946 H2930 0.931 . S
C2946 C2940 1.383 . S
C2946 C2945 1.379 . S
H2947 C2941 0.959 . S
H2948 C2941 0.961 . S
H2949 C2941 0.960 . S
H2950 C2942 0.930 . S
H2951 C2943 0.929 . S
H2952 C2960 0.929 . S
H2953 C2962 0.930 . S
H2954 C2964 0.930 . S
H2955 C2967 0.929 . S
H2956 C2970 0.930 . S
H2957 C2972 0.960 . S
H2958 C2972 0.960 . S
H2959 C2972 0.960 . S
C2960 H2952 0.929 . S
C2960 C2961 1.377 . S
C2960 C2962 1.384 . S
C2961 C2960 1.377 . S
C2961 C2967 1.390 . S
C2962 H2953 0.930 . S
C2962 C2960 1.384 . S
C2962 C2963 1.372 . S
C2963 C2962 1.372 . S
C2963 C2964 1.400 . S
C2963 C2968 1.490 . S
C2964 H2954 0.930 . S
C2964 C2963 1.400 . S
C2964 C2967 1.386 . S
H2965 C2981 0.930 . S
H2966 C2982 0.931 . S
C2967 H2955 0.929 . S
C2967 C2961 1.390 . S
C2967 C2964 1.386 . S
C2968 C2963 1.490 . S
C2968 C2970 1.395 . S
C2968 C2971 1.403 . S
H2969 C2975 0.930 . S
C2970 H2956 0.930 . S
C2970 C2968 1.395 . S
C2970 C2973 1.403 . S
C2971 C2968 1.403 . S
C2971 C2972 1.524 . S
C2971 C2975 1.400 . S
C2972 H2957 0.960 . S
C2972 H2958 0.960 . S
C2972 H2959 0.960 . S
C2972 C2971 1.524 . S
C2973 C2970 1.403 . S
C2973 C2974 1.392 . S
C2973 C2977 1.495 . S
C2974 C2973 1.392 . S
C2974 C2975 1.385 . S
C2974 C2976 1.478 . S
C2975 H2969 0.930 . S
C2975 C2971 1.400 . S
C2975 C2974 1.385 . S
C2976 C2974 1.478 . S
C2976 C2978 1.381 . S
C2976 C2982 1.383 . S
C2977 C2973 1.495 . S
C2977 H2983 0.959 . S
C2977 H2984 0.961 . S
C2977 H2985 0.960 . S
C2978 C2976 1.381 . S
C2978 C2979 1.394 . S
C2978 H2986 0.930 . S
C2979 C2978 1.394 . S
C2979 C2980 1.383 . S
C2979 H2987 0.929 . S
C2980 C2979 1.383 . S
C2980 C2981 1.377 . S
C2981 H2965 0.930 . S
C2981 C2980 1.377 . S
C2981 C2982 1.379 . S
C2982 H2966 0.931 . S
C2982 C2976 1.383 . S
C2982 C2981 1.379 . S
H2983 C2977 0.959 . S
H2984 C2977 0.961 . S
H2985 C2977 0.960 . S
H2986 C2978 0.930 . S
H2987 C2979 0.929 . S
H2988 C2996 0.929 . S
H2989 C2998 0.930 . S
H2990 C3000 0.930 . S
H2991 C3003 0.929 . S
H2992 C3006 0.930 . S
H2993 C3008 0.960 . S
H2994 C3008 0.960 . S
H2995 C3008 0.960 . S
C2996 H2988 0.929 . S
C2996 C2997 1.377 . S
C2996 C2998 1.384 . S
C2997 C2996 1.377 . S
C2997 C3003 1.390 . S
C2998 H2989 0.930 . S
C2998 C2996 1.384 . S
C2998 C2999 1.372 . S
C2999 C2998 1.372 . S
C2999 C3000 1.400 . S
C2999 C3004 1.490 . S
C3000 H2990 0.930 . S
C3000 C2999 1.400 . S
C3000 C3003 1.386 . S
H3001 C3017 0.930 . S
H3002 C3018 0.931 . S
C3003 H2991 0.929 . S
C3003 C2997 1.390 . S
C3003 C3000 1.386 . S
C3004 C2999 1.490 . S
C3004 C3006 1.395 . S
C3004 C3007 1.403 . S
H3005 C3011 0.930 . S
C3006 H2992 0.930 . S
C3006 C3004 1.395 . S
C3006 C3009 1.403 . S
C3007 C3004 1.403 . S
C3007 C3008 1.524 . S
C3007 C3011 1.400 . S
C3008 H2993 0.960 . S
C3008 H2994 0.960 . S
C3008 H2995 0.960 . S
C3008 C3007 1.524 . S
C3009 C3006 1.403 . S
C3009 C3010 1.392 . S
C3009 C3013 1.495 . S
C3010 C3009 1.392 . S
C3010 C3011 1.385 . S
C3010 C3012 1.478 . S
C3011 H3005 0.930 . S
C3011 C3007 1.400 . S
C3011 C3010 1.385 . S
C3012 C3010 1.478 . S
C3012 C3014 1.381 . S
C3012 C3018 1.383 . S
C3013 C3009 1.495 . S
C3013 H3019 0.959 . S
C3013 H3020 0.961 . S
C3013 H3021 0.960 . S
C3014 C3012 1.381 . S
C3014 C3015 1.394 . S
C3014 H3022 0.930 . S
C3015 C3014 1.394 . S
C3015 C3016 1.383 . S
C3015 H3023 0.929 . S
C3016 C3015 1.383 . S
C3016 C3017 1.377 . S
C3017 H3001 0.930 . S
C3017 C3016 1.377 . S
C3017 C3018 1.379 . S
C3018 H3002 0.931 . S
C3018 C3012 1.383 . S
C3018 C3017 1.379 . S
H3019 C3013 0.959 . S
H3020 C3013 0.961 . S
H3021 C3013 0.960 . S
H3022 C3014 0.930 . S
H3023 C3015 0.929 . S
H3024 C3032 0.929 1_565 S
H3025 C3034 0.930 . S
H3026 C3036 0.930 . S
H3027 C3039 0.929 . S
H3028 C3042 0.930 . S
H3029 C3044 0.960 . S
H3030 C3044 0.960 . S
H3031 C3044 0.960 . S
C3032 H3024 0.929 1_545 S
C3032 C3033 1.377 . S
C3032 C3034 1.384 1_545 S
C3033 C3032 1.377 . S
C3033 C3039 1.390 . S
C3034 H3025 0.930 . S
C3034 C3032 1.384 1_565 S
C3034 C3035 1.372 1_565 S
C3035 C3034 1.372 1_545 S
C3035 C3036 1.400 . S
C3035 C3040 1.490 . S
C3036 H3026 0.930 . S
C3036 C3035 1.400 . S
C3036 C3039 1.386 . S
H3037 C3053 0.930 . S
H3038 C3054 0.931 1_545 S
C3039 H3027 0.929 . S
C3039 C3033 1.390 . S
C3039 C3036 1.386 . S
C3040 C3035 1.490 . S
C3040 C3042 1.395 1_545 S
C3040 C3043 1.403 . S
H3041 C3047 0.930 . S
C3042 H3028 0.930 . S
C3042 C3040 1.395 1_565 S
C3042 C3045 1.403 . S
C3043 C3040 1.403 . S
C3043 C3044 1.524 . S
C3043 C3047 1.400 . S
C3044 H3029 0.960 . S
C3044 H3030 0.960 . S
C3044 H3031 0.960 . S
C3044 C3043 1.524 . S
C3045 C3042 1.403 . S
C3045 C3046 1.392 . S
C3045 C3049 1.495 . S
C3046 C3045 1.392 . S
C3046 C3047 1.385 1_565 S
C3046 C3048 1.478 . S
C3047 H3041 0.930 . S
C3047 C3043 1.400 . S
C3047 C3046 1.385 1_545 S
C3048 C3046 1.478 . S
C3048 C3050 1.381 . S
C3048 C3054 1.383 . S
C3049 C3045 1.495 . S
C3049 H3055 0.959 . S
C3049 H3056 0.961 . S
C3049 H3057 0.960 . S
C3050 C3048 1.381 . S
C3050 C3051 1.394 . S
C3050 H3058 0.930 . S
C3051 C3050 1.394 . S
C3051 C3052 1.383 . S
C3051 H3059 0.929 . S
C3052 C3051 1.383 . S
C3052 C3053 1.377 . S
C3053 H3037 0.930 . S
C3053 C3052 1.377 . S
C3053 C3054 1.379 . S
C3054 H3038 0.931 1_565 S
C3054 C3048 1.383 . S
C3054 C3053 1.379 . S
H3055 C3049 0.959 . S
H3056 C3049 0.961 . S
H3057 C3049 0.960 . S
H3058 C3050 0.930 . S
H3059 C3051 0.929 . S
H3060 C3068 0.929 . S
H3061 C3070 0.930 . S
H3062 C3072 0.930 . S
H3063 C3075 0.949 . S
H3064 C3078 0.930 . S
H3065 C3080 0.960 . S
H3066 C3080 0.960 . S
H3067 C3080 0.960 . S
C3068 H3060 0.929 . S
C3068 C3069 1.377 . S
C3068 C3070 1.384 . S
C3069 C3068 1.377 . S
C3069 C3075 1.390 . S
C3070 H3061 0.930 . S
C3070 C3068 1.384 . S
C3070 C3071 1.372 . S
C3071 C3070 1.372 . S
C3071 C3072 1.400 . S
C3071 C3076 1.490 . S
C3072 H3062 0.930 . S
C3072 C3071 1.400 . S
C3072 C3075 1.386 . S
H3073 C3089 0.930 . S
H3074 C3090 0.931 . S
C3075 H3063 0.949 . S
C3075 C3069 1.390 . S
C3075 C3072 1.386 . S
C3076 C3071 1.490 . S
C3076 C3078 1.395 . S
C3076 C3079 1.403 . S
H3077 C3083 0.930 . S
C3078 H3064 0.930 . S
C3078 C3076 1.395 . S
C3078 C3081 1.403 . S
C3079 C3076 1.403 . S
C3079 C3080 1.524 . S
C3079 C3083 1.400 . S
C3080 H3065 0.960 . S
C3080 H3066 0.960 . S
C3080 H3067 0.960 . S
C3080 C3079 1.524 . S
C3081 C3078 1.403 . S
C3081 C3082 1.392 . S
C3081 C3085 1.495 . S
C3082 C3081 1.392 . S
C3082 C3083 1.385 . S
C3082 C3084 1.478 . S
C3083 H3077 0.930 . S
C3083 C3079 1.400 . S
C3083 C3082 1.385 . S
C3084 C3082 1.478 . S
C3084 C3086 1.381 . S
C3084 C3090 1.383 . S
C3085 C3081 1.495 . S
C3085 H3091 0.959 . S
C3085 H3092 0.961 . S
C3085 H3093 0.960 . S
C3086 C3084 1.381 . S
C3086 C3087 1.394 . S
C3086 H3094 0.930 . S
C3087 C3086 1.394 . S
C3087 C3088 1.383 . S
C3087 H3095 0.929 . S
C3088 C3087 1.383 . S
C3088 C3089 1.377 . S
C3089 H3073 0.930 . S
C3089 C3088 1.377 . S
C3089 C3090 1.379 . S
C3090 H3074 0.931 . S
C3090 C3084 1.383 . S
C3090 C3089 1.379 . S
H3091 C3085 0.959 . S
H3092 C3085 0.961 . S
H3093 C3085 0.960 . S
H3094 C3086 0.930 . S
H3095 C3087 0.929 . S
H3096 C3104 0.929 . S
H3097 C3106 0.930 . S
H3098 C3108 0.930 . S
H3099 C3111 0.929 . S
H3100 C3114 0.930 . S
H3101 C3116 0.960 . S
H3102 C3116 0.960 . S
H3103 C3116 0.960 . S
C3104 H3096 0.929 . S
C3104 C3105 1.377 . S
C3104 C3106 1.384 . S
C3105 C3104 1.377 . S
C3105 C3111 1.390 . S
C3106 H3097 0.930 . S
C3106 C3104 1.384 . S
C3106 C3107 1.372 . S
C3107 C3106 1.372 . S
C3107 C3108 1.400 . S
C3107 C3112 1.490 . S
C3108 H3098 0.930 . S
C3108 C3107 1.400 . S
C3108 C3111 1.386 . S
H3109 C3125 0.930 . S
H3110 C3126 0.931 . S
C3111 H3099 0.929 . S
C3111 C3105 1.390 . S
C3111 C3108 1.386 . S
C3112 C3107 1.490 . S
C3112 C3114 1.395 . S
C3112 C3115 1.403 . S
H3113 C3119 0.930 . S
C3114 H3100 0.930 . S
C3114 C3112 1.395 . S
C3114 C3117 1.403 . S
C3115 C3112 1.403 . S
C3115 C3116 1.524 . S
C3115 C3119 1.400 . S
C3116 H3101 0.960 . S
C3116 H3102 0.960 . S
C3116 H3103 0.960 . S
C3116 C3115 1.524 . S
C3117 C3114 1.403 . S
C3117 C3118 1.392 . S
C3117 C3121 1.495 . S
C3118 C3117 1.392 . S
C3118 C3119 1.385 . S
C3118 C3120 1.478 . S
C3119 H3113 0.930 . S
C3119 C3115 1.400 . S
C3119 C3118 1.385 . S
C3120 C3118 1.478 . S
C3120 C3122 1.381 . S
C3120 C3126 1.383 . S
C3121 C3117 1.495 . S
C3121 H3127 0.959 . S
C3121 H3128 0.961 . S
C3121 H3129 0.960 . S
C3122 C3120 1.381 . S
C3122 C3123 1.394 . S
C3122 H3130 0.930 . S
C3123 C3122 1.394 . S
C3123 C3124 1.383 . S
C3123 H3131 0.929 . S
C3124 C3123 1.383 . S
C3124 C3125 1.377 . S
C3125 H3109 0.930 . S
C3125 C3124 1.377 . S
C3125 C3126 1.379 . S
C3126 H3110 0.931 . S
C3126 C3120 1.383 . S
C3126 C3125 1.379 . S
H3127 C3121 0.959 . S
H3128 C3121 0.961 . S
H3129 C3121 0.960 . S
H3130 C3122 0.930 . S
H3131 C3123 0.929 . S
H3132 C3140 0.929 . S
H3133 C3142 0.930 . S
H3134 C3144 0.930 . S
H3135 C3147 0.929 . S
H3136 C3150 0.930 . S
H3137 C3152 0.960 . S
H3138 C3152 0.960 . S
H3139 C3152 0.960 . S
C3140 H3132 0.929 . S
C3140 C3141 1.377 . S
C3140 C3142 1.384 . S
C3141 C3140 1.377 . S
C3141 C3147 1.390 . S
C3142 H3133 0.930 . S
C3142 C3140 1.384 . S
C3142 C3143 1.372 . S
C3143 C3142 1.372 . S
C3143 C3144 1.400 . S
C3143 C3148 1.490 . S
C3144 H3134 0.930 . S
C3144 C3143 1.400 . S
C3144 C3147 1.386 . S
H3145 C3161 0.930 . S
H3146 C3162 0.931 . S
C3147 H3135 0.929 . S
C3147 C3141 1.390 . S
C3147 C3144 1.386 . S
C3148 C3143 1.490 . S
C3148 C3150 1.395 . S
C3148 C3151 1.403 . S
H3149 C3155 0.930 . S
C3150 H3136 0.930 . S
C3150 C3148 1.395 . S
C3150 C3153 1.403 . S
C3151 C3148 1.403 . S
C3151 C3152 1.524 . S
C3151 C3155 1.400 . S
C3152 H3137 0.960 . S
C3152 H3138 0.960 . S
C3152 H3139 0.960 . S
C3152 C3151 1.524 . S
C3153 C3150 1.403 . S
C3153 C3154 1.392 . S
C3153 C3157 1.495 . S
C3154 C3153 1.392 . S
C3154 C3155 1.385 . S
C3154 C3156 1.478 . S
C3155 H3149 0.930 . S
C3155 C3151 1.400 . S
C3155 C3154 1.385 . S
C3156 C3154 1.478 . S
C3156 C3158 1.381 . S
C3156 C3162 1.383 . S
C3157 C3153 1.495 . S
C3157 H3163 0.959 . S
C3157 H3164 0.961 . S
C3157 H3165 0.960 . S
C3158 C3156 1.381 . S
C3158 C3159 1.394 . S
C3158 H3166 0.930 . S
C3159 C3158 1.394 . S
C3159 C3160 1.383 . S
C3159 H3167 0.929 . S
C3160 C3159 1.383 . S
C3160 C3161 1.377 . S
C3161 H3145 0.930 . S
C3161 C3160 1.377 . S
C3161 C3162 1.379 . S
C3162 H3146 0.931 . S
C3162 C3156 1.383 . S
C3162 C3161 1.379 . S
H3163 C3157 0.959 . S
H3164 C3157 0.961 . S
H3165 C3157 0.960 . S
H3166 C3158 0.930 . S
H3167 C3159 0.929 . S
H3168 C3176 0.929 . S
H3169 C3178 0.930 . S
H3170 C3180 0.930 . S
H3171 C3183 0.929 . S
H3172 C3186 0.930 . S
H3173 C3188 0.960 . S
H3174 C3188 0.960 . S
H3175 C3188 0.960 . S
C3176 H3168 0.929 . S
C3176 C3177 1.377 . S
C3176 C3178 1.384 . S
C3177 C3176 1.377 . S
C3177 C3183 1.390 . S
C3178 H3169 0.930 . S
C3178 C3176 1.384 . S
C3178 C3179 1.372 . S
C3179 C3178 1.372 . S
C3179 C3180 1.400 . S
C3179 C3184 1.490 . S
C3180 H3170 0.930 . S
C3180 C3179 1.400 . S
C3180 C3183 1.386 . S
H3181 C3197 0.930 . S
H3182 C3198 0.931 . S
C3183 H3171 0.929 . S
C3183 C3177 1.390 . S
C3183 C3180 1.386 . S
C3184 C3179 1.490 . S
C3184 C3186 1.395 . S
C3184 C3187 1.403 . S
H3185 C3191 0.930 . S
C3186 H3172 0.930 . S
C3186 C3184 1.395 . S
C3186 C3189 1.403 . S
C3187 C3184 1.403 . S
C3187 C3188 1.524 . S
C3187 C3191 1.400 . S
C3188 H3173 0.960 . S
C3188 H3174 0.960 . S
C3188 H3175 0.960 . S
C3188 C3187 1.524 . S
C3189 C3186 1.403 . S
C3189 C3190 1.392 . S
C3189 C3193 1.495 . S
C3190 C3189 1.392 . S
C3190 C3191 1.385 . S
C3190 C3192 1.478 . S
C3191 H3185 0.930 . S
C3191 C3187 1.400 . S
C3191 C3190 1.385 . S
C3192 C3190 1.478 . S
C3192 C3194 1.381 . S
C3192 C3198 1.383 . S
C3193 C3189 1.495 . S
C3193 H3199 0.959 . S
C3193 H3200 0.961 . S
C3193 H3201 0.960 . S
C3194 C3192 1.381 . S
C3194 C3195 1.394 . S
C3194 H3202 0.930 . S
C3195 C3194 1.394 . S
C3195 C3196 1.383 . S
C3195 H3203 0.929 . S
C3196 C3195 1.383 . S
C3196 C3197 1.377 . S
C3197 H3181 0.930 . S
C3197 C3196 1.377 . S
C3197 C3198 1.379 . S
C3198 H3182 0.931 . S
C3198 C3192 1.383 . S
C3198 C3197 1.379 . S
H3199 C3193 0.959 . S
H3200 C3193 0.961 . S
H3201 C3193 0.960 . S
H3202 C3194 0.930 . S
H3203 C3195 0.929 . S
H3204 C3212 0.929 . S
H3205 C3214 0.930 1_545 S
H3206 C3216 0.930 . S
H3207 C3219 0.929 . S
H3208 C3222 0.930 . S
H3209 C3224 0.960 . S
H3210 C3224 0.960 . S
H3211 C3224 0.960 . S
C3212 H3204 0.929 . S
C3212 C3213 1.377 1_545 S
C3212 C3214 1.384 1_545 S
C3213 C3212 1.377 1_565 S
C3213 C3219 1.390 . S
C3214 H3205 0.930 1_565 S
C3214 C3212 1.384 1_565 S
C3214 C3215 1.372 . S
C3215 C3214 1.372 . S
C3215 C3216 1.400 . S
C3215 C3220 1.490 . S
C3216 H3206 0.930 . S
C3216 C3215 1.400 . S
C3216 C3219 1.386 . S
H3217 C3233 0.930 . S
H3218 C3234 0.931 . S
C3219 H3207 0.929 . S
C3219 C3213 1.390 . S
C3219 C3216 1.386 . S
C3220 C3215 1.490 . S
C3220 C3222 1.395 . S
C3220 C3223 1.403 . S
H3221 C3227 0.930 . S
C3222 H3208 0.930 . S
C3222 C3220 1.395 . S
C3222 C3225 1.403 1_655 S
C3223 C3220 1.403 . S
C3223 C3224 1.524 . S
C3223 C3227 1.400 1_655 S
C3224 H3209 0.960 . S
C3224 H3210 0.960 . S
C3224 H3211 0.960 . S
C3224 C3223 1.524 . S
C3225 C3222 1.403 1_455 S
C3225 C3226 1.392 . S
C3225 C3229 1.495 . S
C3226 C3225 1.392 . S
C3226 C3227 1.385 . S
C3226 C3228 1.478 . S
C3227 H3221 0.930 . S
C3227 C3223 1.400 1_455 S
C3227 C3226 1.385 . S
C3228 C3226 1.478 . S
C3228 C3230 1.381 . S
C3228 C3234 1.383 . S
C3229 C3225 1.495 . S
C3229 H3235 0.961 1_565 S
C3229 H3236 0.961 . S
C3229 H3237 0.960 . S
C3230 C3228 1.381 . S
C3230 C3231 1.394 . S
C3230 H3238 0.930 . S
C3231 C3230 1.394 . S
C3231 C3232 1.383 . S
C3231 H3239 0.929 . S
C3232 C3231 1.383 . S
C3232 C3233 1.377 . S
C3233 H3217 0.930 . S
C3233 C3232 1.377 . S
C3233 C3234 1.379 . S
C3234 H3218 0.931 . S
C3234 C3228 1.383 . S
C3234 C3233 1.379 . S
H3235 C3229 0.961 1_545 S
H3236 C3229 0.961 . S
H3237 C3229 0.960 . S
H3238 C3230 0.930 . S
H3239 C3231 0.929 . S
H3240 C3248 0.929 . S
H3241 C3250 0.930 . S
H3242 C3252 0.930 . S
H3243 C3255 0.929 . S
H3244 C3258 0.930 . S
H3245 C3260 0.960 . S
H3246 C3260 0.960 . S
H3247 C3260 0.960 . S
C3248 H3240 0.929 . S
C3248 C3249 1.377 . S
C3248 C3250 1.384 . S
C3249 C3248 1.377 . S
C3249 C3255 1.390 . S
C3250 H3241 0.930 . S
C3250 C3248 1.384 . S
C3250 C3251 1.372 . S
C3251 C3250 1.372 . S
C3251 C3252 1.400 . S
C3251 C3256 1.490 . S
C3252 H3242 0.930 . S
C3252 C3251 1.400 . S
C3252 C3255 1.386 . S
H3253 C3269 0.930 . S
H3254 C3270 0.931 . S
C3255 H3243 0.929 . S
C3255 C3249 1.390 . S
C3255 C3252 1.386 . S
C3256 C3251 1.490 . S
C3256 C3258 1.395 . S
C3256 C3259 1.403 . S
H3257 C3263 0.930 . S
C3258 H3244 0.930 . S
C3258 C3256 1.395 . S
C3258 C3261 1.403 . S
C3259 C3256 1.403 . S
C3259 C3260 1.524 . S
C3259 C3263 1.400 . S
C3260 H3245 0.960 . S
C3260 H3246 0.960 . S
C3260 H3247 0.960 . S
C3260 C3259 1.524 . S
C3261 C3258 1.403 . S
C3261 C3262 1.392 . S
C3261 C3265 1.495 . S
C3262 C3261 1.392 . S
C3262 C3263 1.385 . S
C3262 C3264 1.478 . S
C3263 H3257 0.930 . S
C3263 C3259 1.400 . S
C3263 C3262 1.385 . S
C3264 C3262 1.478 . S
C3264 C3266 1.381 . S
C3264 C3270 1.383 . S
C3265 C3261 1.495 . S
C3265 H3271 0.959 . S
C3265 H3272 0.961 . S
C3265 H3273 0.960 . S
C3266 C3264 1.381 . S
C3266 C3267 1.394 . S
C3266 H3274 0.930 . S
C3267 C3266 1.394 . S
C3267 C3268 1.383 . S
C3267 H3275 0.929 . S
C3268 C3267 1.383 . S
C3268 C3269 1.377 . S
C3269 H3253 0.930 . S
C3269 C3268 1.377 . S
C3269 C3270 1.379 . S
C3270 H3254 0.931 . S
C3270 C3264 1.383 . S
C3270 C3269 1.379 . S
H3271 C3265 0.959 . S
H3272 C3265 0.961 . S
H3273 C3265 0.960 . S
H3274 C3266 0.930 . S
H3275 C3267 0.929 . S
H3276 C3284 0.929 . S
H3277 C3286 0.930 . S
H3278 C3288 0.930 . S
H3279 C3291 0.929 . S
H3280 C3294 0.932 . S
H3281 C3296 0.960 . S
H3282 C3296 0.960 . S
H3283 C3296 0.960 . S
C3284 H3276 0.929 . S
C3284 C3285 1.377 . S
C3284 C3286 1.384 . S
C3285 C3284 1.377 . S
C3285 C3291 1.390 . S
C3286 H3277 0.930 . S
C3286 C3284 1.384 . S
C3286 C3287 1.372 . S
C3287 C3286 1.372 . S
C3287 C3288 1.400 . S
C3287 C3292 1.490 . S
C3288 H3278 0.930 . S
C3288 C3287 1.400 . S
C3288 C3291 1.386 . S
H3289 C3305 0.930 . S
H3290 C3306 0.931 . S
C3291 H3279 0.929 . S
C3291 C3285 1.390 . S
C3291 C3288 1.386 . S
C3292 C3287 1.490 . S
C3292 C3294 1.400 . S
C3292 C3295 1.403 . S
H3293 C3299 0.930 . S
C3294 H3280 0.932 . S
C3294 C3292 1.400 . S
C3294 C3297 1.396 1_556 S
C3295 C3292 1.403 . S
C3295 C3296 1.524 . S
C3295 C3299 1.400 1_556 S
C3296 H3281 0.960 . S
C3296 H3282 0.960 . S
C3296 H3283 0.960 . S
C3296 C3295 1.524 . S
C3297 C3294 1.396 1_554 S
C3297 C3298 1.392 . S
C3297 C3301 1.495 . S
C3298 C3297 1.392 . S
C3298 C3299 1.385 . S
C3298 C3300 1.478 . S
C3299 H3293 0.930 . S
C3299 C3295 1.400 1_554 S
C3299 C3298 1.385 . S
C3300 C3298 1.478 . S
C3300 C3302 1.381 . S
C3300 C3306 1.383 . S
C3301 C3297 1.495 . S
C3301 H3307 0.959 . S
C3301 H3308 0.961 . S
C3301 H3309 0.960 . S
C3302 C3300 1.381 . S
C3302 C3303 1.394 . S
C3302 H3310 0.930 . S
C3303 C3302 1.394 . S
C3303 C3304 1.383 . S
C3303 H3311 0.929 . S
C3304 C3303 1.383 . S
C3304 C3305 1.377 . S
C3305 H3289 0.930 . S
C3305 C3304 1.377 . S
C3305 C3306 1.379 . S
C3306 H3290 0.931 . S
C3306 C3300 1.383 . S
C3306 C3305 1.379 . S
H3307 C3301 0.959 . S
H3308 C3301 0.961 . S
H3309 C3301 0.960 . S
H3310 C3302 0.930 . S
H3311 C3303 0.929 . S
H3312 C3320 0.929 . S
H3313 C3322 0.930 . S
H3314 C3324 0.930 . S
H3315 C3327 0.929 . S
H3316 C3330 0.930 . S
H3317 C3332 0.960 . S
H3318 C3332 0.960 . S
H3319 C3332 0.960 . S
C3320 H3312 0.929 . S
C3320 C3321 1.377 . S
C3320 C3322 1.384 . S
C3321 C3320 1.377 . S
C3321 C3327 1.390 . S
C3322 H3313 0.930 . S
C3322 C3320 1.384 . S
C3322 C3323 1.372 . S
C3323 C3322 1.372 . S
C3323 C3324 1.400 . S
C3323 C3328 1.490 . S
C3324 H3314 0.930 . S
C3324 C3323 1.400 . S
C3324 C3327 1.386 . S
H3325 C3341 0.930 . S
H3326 C3342 0.931 . S
C3327 H3315 0.929 . S
C3327 C3321 1.390 . S
C3327 C3324 1.386 . S
C3328 C3323 1.490 . S
C3328 C3330 1.395 . S
C3328 C3331 1.403 . S
H3329 C3335 0.930 . S
C3330 H3316 0.930 . S
C3330 C3328 1.395 . S
C3330 C3333 1.403 . S
C3331 C3328 1.403 . S
C3331 C3332 1.524 . S
C3331 C3335 1.400 . S
C3332 H3317 0.960 . S
C3332 H3318 0.960 . S
C3332 H3319 0.960 . S
C3332 C3331 1.524 . S
C3333 C3330 1.403 . S
C3333 C3334 1.392 . S
C3333 C3337 1.495 . S
C3334 C3333 1.392 . S
C3334 C3335 1.385 . S
C3334 C3336 1.478 . S
C3335 H3329 0.930 . S
C3335 C3331 1.400 . S
C3335 C3334 1.385 . S
C3336 C3334 1.478 . S
C3336 C3338 1.381 . S
C3336 C3342 1.383 . S
C3337 C3333 1.495 . S
C3337 H3343 0.959 . S
C3337 H3344 0.961 . S
C3337 H3345 0.960 . S
C3338 C3336 1.381 . S
C3338 C3339 1.394 . S
C3338 H3346 0.930 . S
C3339 C3338 1.394 . S
C3339 C3340 1.383 . S
C3339 H3347 0.929 . S
C3340 C3339 1.383 . S
C3340 C3341 1.377 . S
C3341 H3325 0.930 . S
C3341 C3340 1.377 . S
C3341 C3342 1.379 . S
C3342 H3326 0.931 . S
C3342 C3336 1.383 . S
C3342 C3341 1.379 . S
H3343 C3337 0.959 . S
H3344 C3337 0.961 . S
H3345 C3337 0.960 . S
H3346 C3338 0.930 . S
H3347 C3339 0.929 . S
H3348 C3356 0.929 . S
H3349 C3358 0.930 . S
H3350 C3360 0.930 . S
H3351 C3363 0.929 . S
H3352 C3366 0.930 . S
H3353 C3368 0.960 . S
H3354 C3368 0.960 . S
H3355 C3368 0.960 . S
C3356 H3348 0.929 . S
C3356 C3357 1.377 . S
C3356 C3358 1.384 . S
C3357 C3356 1.377 . S
C3357 C3363 1.390 . S
C3358 H3349 0.930 . S
C3358 C3356 1.384 . S
C3358 C3359 1.372 . S
C3359 C3358 1.372 . S
C3359 C3360 1.400 . S
C3359 C3364 1.490 . S
C3360 H3350 0.930 . S
C3360 C3359 1.400 . S
C3360 C3363 1.386 . S
H3361 C3377 0.930 . S
H3362 C3378 0.931 . S
C3363 H3351 0.929 . S
C3363 C3357 1.390 . S
C3363 C3360 1.386 . S
C3364 C3359 1.490 . S
C3364 C3366 1.395 . S
C3364 C3367 1.403 . S
H3365 C3371 0.930 . S
C3366 H3352 0.930 . S
C3366 C3364 1.395 . S
C3366 C3369 1.403 . S
C3367 C3364 1.403 . S
C3367 C3368 1.524 . S
C3367 C3371 1.400 . S
C3368 H3353 0.960 . S
C3368 H3354 0.960 . S
C3368 H3355 0.960 . S
C3368 C3367 1.524 . S
C3369 C3366 1.403 . S
C3369 C3370 1.392 . S
C3369 C3373 1.495 . S
C3370 C3369 1.392 . S
C3370 C3371 1.385 . S
C3370 C3372 1.478 . S
C3371 H3365 0.930 . S
C3371 C3367 1.400 . S
C3371 C3370 1.385 . S
C3372 C3370 1.478 . S
C3372 C3374 1.381 . S
C3372 C3378 1.383 . S
C3373 C3369 1.495 . S
C3373 H3379 0.959 . S
C3373 H3380 0.961 . S
C3373 H3381 0.960 . S
C3374 C3372 1.381 . S
C3374 C3375 1.394 . S
C3374 H3382 0.930 . S
C3375 C3374 1.394 . S
C3375 C3376 1.383 . S
C3375 H3383 0.929 . S
C3376 C3375 1.383 . S
C3376 C3377 1.377 . S
C3377 H3361 0.930 . S
C3377 C3376 1.377 . S
C3377 C3378 1.379 . S
C3378 H3362 0.931 . S
C3378 C3372 1.383 . S
C3378 C3377 1.379 . S
H3379 C3373 0.959 . S
H3380 C3373 0.961 . S
H3381 C3373 0.960 . S
H3382 C3374 0.930 . S
H3383 C3375 0.929 . S
H3384 C3392 0.929 . S
H3385 C3394 0.930 . S
H3386 C3396 0.930 . S
H3387 C3399 0.929 . S
H3388 C3402 0.930 . S
H3389 C3404 0.960 . S
H3390 C3404 0.960 . S
H3391 C3404 0.960 . S
C3392 H3384 0.929 . S
C3392 C3393 1.377 . S
C3392 C3394 1.384 . S
C3393 C3392 1.377 . S
C3393 C3399 1.390 . S
C3394 H3385 0.930 . S
C3394 C3392 1.384 . S
C3394 C3395 1.372 . S
C3395 C3394 1.372 . S
C3395 C3396 1.400 . S
C3395 C3400 1.490 . S
C3396 H3386 0.930 . S
C3396 C3395 1.400 . S
C3396 C3399 1.386 . S
H3397 C3413 0.930 . S
H3398 C3414 0.931 . S
C3399 H3387 0.929 . S
C3399 C3393 1.390 . S
C3399 C3396 1.386 . S
C3400 C3395 1.490 . S
C3400 C3402 1.395 . S
C3400 C3403 1.403 . S
H3401 C3407 0.930 . S
C3402 H3388 0.930 . S
C3402 C3400 1.395 . S
C3402 C3405 1.403 . S
C3403 C3400 1.403 . S
C3403 C3404 1.524 . S
C3403 C3407 1.400 . S
C3404 H3389 0.960 . S
C3404 H3390 0.960 . S
C3404 H3391 0.960 . S
C3404 C3403 1.524 . S
C3405 C3402 1.403 . S
C3405 C3406 1.392 . S
C3405 C3409 1.495 . S
C3406 C3405 1.392 . S
C3406 C3407 1.385 . S
C3406 C3408 1.478 . S
C3407 H3401 0.930 . S
C3407 C3403 1.400 . S
C3407 C3406 1.385 . S
C3408 C3406 1.478 . S
C3408 C3410 1.381 . S
C3408 C3414 1.383 . S
C3409 C3405 1.495 . S
C3409 H3415 0.959 . S
C3409 H3416 0.961 . S
C3409 H3417 0.960 . S
C3410 C3408 1.381 . S
C3410 C3411 1.394 . S
C3410 H3418 0.930 . S
C3411 C3410 1.394 . S
C3411 C3412 1.383 . S
C3411 H3419 0.929 . S
C3412 C3411 1.383 . S
C3412 C3413 1.377 . S
C3413 H3397 0.930 . S
C3413 C3412 1.377 . S
C3413 C3414 1.379 . S
C3414 H3398 0.931 . S
C3414 C3408 1.383 . S
C3414 C3413 1.379 . S
H3415 C3409 0.959 . S
H3416 C3409 0.961 . S
H3417 C3409 0.960 . S
H3418 C3410 0.930 . S
H3419 C3411 0.929 . S
H3420 C3428 0.929 . S
H3421 C3430 0.930 . S
H3422 C3432 0.930 . S
H3423 C3435 0.929 . S
H3424 C3438 0.930 . S
H3425 C3440 0.960 . S
H3426 C3440 0.960 . S
H3427 C3440 0.960 . S
C3428 H3420 0.929 . S
C3428 C3429 1.377 . S
C3428 C3430 1.384 . S
C3429 C3428 1.377 . S
C3429 C3435 1.390 . S
C3430 H3421 0.930 . S
C3430 C3428 1.384 . S
C3430 C3431 1.372 . S
C3431 C3430 1.372 . S
C3431 C3432 1.400 . S
C3431 C3436 1.490 . S
C3432 H3422 0.930 . S
C3432 C3431 1.400 . S
C3432 C3435 1.386 . S
H3433 C3449 0.930 . S
H3434 C3450 0.931 . S
C3435 H3423 0.929 . S
C3435 C3429 1.390 . S
C3435 C3432 1.386 . S
C3436 C3431 1.490 . S
C3436 C3438 1.395 . S
C3436 C3439 1.403 . S
H3437 C3443 0.890 1_556 S
C3438 H3424 0.930 . S
C3438 C3436 1.395 . S
C3438 C3441 1.403 . S
C3439 C3436 1.403 . S
C3439 C3440 1.524 . S
C3439 C3443 1.444 . S
C3440 H3425 0.960 . S
C3440 H3426 0.960 . S
C3440 H3427 0.960 . S
C3440 C3439 1.524 . S
C3441 C3438 1.403 . S
C3441 C3442 1.392 1_554 S
C3441 C3445 1.495 . S
C3442 C3441 1.392 1_556 S
C3442 C3443 1.382 1_556 S
C3442 C3444 1.478 . S
C3443 H3437 0.890 1_554 S
C3443 C3439 1.444 . S
C3443 C3442 1.382 1_554 S
C3444 C3442 1.478 . S
C3444 C3446 1.381 . S
C3444 C3450 1.383 . S
C3445 C3441 1.495 . S
C3445 H3451 0.959 . S
C3445 H3452 0.961 . S
C3445 H3453 0.960 . S
C3446 C3444 1.381 . S
C3446 C3447 1.394 . S
C3446 H3454 0.930 . S
C3447 C3446 1.394 . S
C3447 C3448 1.383 . S
C3447 H3455 0.929 . S
C3448 C3447 1.383 . S
C3448 C3449 1.377 . S
C3449 H3433 0.930 . S
C3449 C3448 1.377 . S
C3449 C3450 1.379 . S
C3450 H3434 0.931 . S
C3450 C3444 1.383 . S
C3450 C3449 1.379 . S
H3451 C3445 0.959 . S
H3452 C3445 0.961 . S
H3453 C3445 0.960 . S
H3454 C3446 0.930 . S
H3455 C3447 0.929 . S
H3456 C3464 0.929 . S
H3457 C3466 0.930 . S
H3458 C3468 0.930 . S
H3459 C3471 0.929 . S
H3460 C3474 0.930 . S
H3461 C3476 0.960 . S
H3462 C3476 0.960 . S
H3463 C3476 0.960 . S
C3464 H3456 0.929 . S
C3464 C3465 1.377 . S
C3464 C3466 1.384 . S
C3465 C3464 1.377 . S
C3465 C3471 1.390 . S
C3466 H3457 0.930 . S
C3466 C3464 1.384 . S
C3466 C3467 1.372 . S
C3467 C3466 1.372 . S
C3467 C3468 1.400 . S
C3467 C3472 1.490 . S
C3468 H3458 0.930 . S
C3468 C3467 1.400 . S
C3468 C3471 1.386 . S
H3469 C3485 0.930 . S
H3470 C3486 0.931 . S
C3471 H3459 0.929 . S
C3471 C3465 1.390 . S
C3471 C3468 1.386 . S
C3472 C3467 1.490 . S
C3472 C3474 1.395 . S
C3472 C3475 1.403 . S
H3473 C3479 0.930 . S
C3474 H3460 0.930 . S
C3474 C3472 1.395 . S
C3474 C3477 1.403 . S
C3475 C3472 1.403 . S
C3475 C3476 1.524 . S
C3475 C3479 1.400 . S
C3476 H3461 0.960 . S
C3476 H3462 0.960 . S
C3476 H3463 0.960 . S
C3476 C3475 1.524 . S
C3477 C3474 1.403 . S
C3477 C3478 1.392 . S
C3477 C3481 1.495 . S
C3478 C3477 1.392 . S
C3478 C3479 1.385 . S
C3478 C3480 1.478 . S
C3479 H3473 0.930 . S
C3479 C3475 1.400 . S
C3479 C3478 1.385 . S
C3480 C3478 1.478 . S
C3480 C3482 1.381 . S
C3480 C3486 1.383 . S
C3481 C3477 1.495 . S
C3481 H3487 0.959 . S
C3481 H3488 0.961 . S
C3481 H3489 0.960 . S
C3482 C3480 1.381 . S
C3482 C3483 1.394 . S
C3482 H3490 0.930 . S
C3483 C3482 1.394 . S
C3483 C3484 1.383 . S
C3483 H3491 0.929 . S
C3484 C3483 1.383 . S
C3484 C3485 1.377 . S
C3485 H3469 0.930 . S
C3485 C3484 1.377 . S
C3485 C3486 1.379 . S
C3486 H3470 0.931 . S
C3486 C3480 1.383 . S
C3486 C3485 1.379 . S
H3487 C3481 0.959 . S
H3488 C3481 0.961 . S
H3489 C3481 0.960 . S
H3490 C3482 0.930 . S
H3491 C3483 0.929 . S
H3492 C3500 0.929 . S
H3493 C3502 0.930 . S
H3494 C3504 0.930 . S
H3495 C3507 0.929 . S
H3496 C3510 0.930 . S
H3497 C3512 0.960 . S
H3498 C3512 0.960 . S
H3499 C3512 0.960 . S
C3500 H3492 0.929 . S
C3500 C3501 1.377 . S
C3500 C3502 1.384 . S
C3501 C3500 1.377 . S
C3501 C3507 1.390 . S
C3502 H3493 0.930 . S
C3502 C3500 1.384 . S
C3502 C3503 1.372 . S
C3503 C3502 1.372 . S
C3503 C3504 1.400 . S
C3503 C3508 1.490 . S
C3504 H3494 0.930 . S
C3504 C3503 1.400 . S
C3504 C3507 1.386 . S
H3505 C3521 0.930 . S
H3506 C3522 0.931 . S
C3507 H3495 0.929 . S
C3507 C3501 1.390 . S
C3507 C3504 1.386 . S
C3508 C3503 1.490 . S
C3508 C3510 1.395 . S
C3508 C3511 1.403 . S
H3509 C3515 0.930 . S
C3510 H3496 0.930 . S
C3510 C3508 1.395 . S
C3510 C3513 1.403 . S
C3511 C3508 1.403 . S
C3511 C3512 1.524 . S
C3511 C3515 1.400 . S
C3512 H3497 0.960 . S
C3512 H3498 0.960 . S
C3512 H3499 0.960 . S
C3512 C3511 1.524 . S
C3513 C3510 1.403 . S
C3513 C3514 1.392 . S
C3513 C3517 1.495 . S
C3514 C3513 1.392 . S
C3514 C3515 1.385 . S
C3514 C3516 1.478 . S
C3515 H3509 0.930 . S
C3515 C3511 1.400 . S
C3515 C3514 1.385 . S
C3516 C3514 1.478 . S
C3516 C3518 1.381 . S
C3516 C3522 1.383 . S
C3517 C3513 1.495 . S
C3517 H3523 0.959 . S
C3517 H3524 0.961 . S
C3517 H3525 0.960 . S
C3518 C3516 1.381 . S
C3518 C3519 1.394 . S
C3518 H3526 0.930 . S
C3519 C3518 1.394 . S
C3519 C3520 1.383 . S
C3519 H3527 0.929 . S
C3520 C3519 1.383 . S
C3520 C3521 1.377 . S
C3521 H3505 0.930 . S
C3521 C3520 1.377 . S
C3521 C3522 1.379 . S
C3522 H3506 0.931 . S
C3522 C3516 1.383 . S
C3522 C3521 1.379 . S
H3523 C3517 0.959 . S
H3524 C3517 0.961 . S
H3525 C3517 0.960 . S
H3526 C3518 0.930 . S
H3527 C3519 0.929 . S
H3528 C3536 0.929 . S
H3529 C3538 0.930 . S
H3530 C3540 0.930 . S
H3531 C3543 0.929 . S
H3532 C3546 0.930 . S
H3533 C3548 0.960 . S
H3534 C3548 0.960 . S
H3535 C3548 0.960 . S
C3536 H3528 0.929 . S
C3536 C3537 1.377 . S
C3536 C3538 1.384 . S
C3537 C3536 1.377 . S
C3537 C3543 1.390 . S
C3538 H3529 0.930 . S
C3538 C3536 1.384 . S
C3538 C3539 1.372 . S
C3539 C3538 1.372 . S
C3539 C3540 1.400 . S
C3539 C3544 1.490 . S
C3540 H3530 0.930 . S
C3540 C3539 1.400 . S
C3540 C3543 1.386 . S
H3541 C3557 0.930 . S
H3542 C3558 0.931 . S
C3543 H3531 0.929 . S
C3543 C3537 1.390 . S
C3543 C3540 1.386 . S
C3544 C3539 1.490 . S
C3544 C3546 1.395 . S
C3544 C3547 1.403 . S
H3545 C3551 0.930 . S
C3546 H3532 0.930 . S
C3546 C3544 1.395 . S
C3546 C3549 1.403 . S
C3547 C3544 1.403 . S
C3547 C3548 1.524 . S
C3547 C3551 1.400 . S
C3548 H3533 0.960 . S
C3548 H3534 0.960 . S
C3548 H3535 0.960 . S
C3548 C3547 1.524 . S
C3549 C3546 1.403 . S
C3549 C3550 1.392 . S
C3549 C3553 1.495 . S
C3550 C3549 1.392 . S
C3550 C3551 1.385 . S
C3550 C3552 1.478 . S
C3551 H3545 0.930 . S
C3551 C3547 1.400 . S
C3551 C3550 1.385 . S
C3552 C3550 1.478 . S
C3552 C3554 1.381 . S
C3552 C3558 1.383 . S
C3553 C3549 1.495 . S
C3553 H3559 0.959 . S
C3553 H3560 0.961 . S
C3553 H3561 0.960 . S
C3554 C3552 1.381 . S
C3554 C3555 1.394 . S
C3554 H3562 0.930 . S
C3555 C3554 1.394 . S
C3555 C3556 1.383 . S
C3555 H3563 0.929 . S
C3556 C3555 1.383 . S
C3556 C3557 1.377 . S
C3557 H3541 0.930 . S
C3557 C3556 1.377 . S
C3557 C3558 1.379 . S
C3558 H3542 0.931 . S
C3558 C3552 1.383 . S
C3558 C3557 1.379 . S
H3559 C3553 0.959 . S
H3560 C3553 0.961 . S
H3561 C3553 0.960 . S
H3562 C3554 0.930 . S
H3563 C3555 0.929 . S
H3564 C3572 0.929 . S
H3565 C3574 0.930 . S
H3566 C3576 0.930 . S
H3567 C3579 0.929 . S
H3568 C3582 0.930 . S
H3569 C3584 0.960 . S
H3570 C3584 0.960 . S
H3571 C3584 0.960 . S
C3572 H3564 0.929 . S
C3572 C3573 1.377 . S
C3572 C3574 1.384 . S
C3573 C3572 1.377 . S
C3573 C3579 1.390 . S
C3574 H3565 0.930 . S
C3574 C3572 1.384 . S
C3574 C3575 1.372 . S
C3575 C3574 1.372 . S
C3575 C3576 1.400 . S
C3575 C3580 1.490 . S
C3576 H3566 0.930 . S
C3576 C3575 1.400 . S
C3576 C3579 1.386 . S
H3577 C3593 0.930 . S
H3578 C3594 0.931 . S
C3579 H3567 0.929 . S
C3579 C3573 1.390 . S
C3579 C3576 1.386 . S
C3580 C3575 1.490 . S
C3580 C3582 1.395 . S
C3580 C3583 1.403 . S
H3581 C3587 0.930 . S
C3582 H3568 0.930 . S
C3582 C3580 1.395 . S
C3582 C3585 1.403 . S
C3583 C3580 1.403 . S
C3583 C3584 1.524 . S
C3583 C3587 1.400 . S
C3584 H3569 0.960 . S
C3584 H3570 0.960 . S
C3584 H3571 0.960 . S
C3584 C3583 1.524 . S
C3585 C3582 1.403 . S
C3585 C3586 1.392 . S
C3585 C3589 1.495 . S
C3586 C3585 1.392 . S
C3586 C3587 1.385 . S
C3586 C3588 1.478 . S
C3587 H3581 0.930 . S
C3587 C3583 1.400 . S
C3587 C3586 1.385 . S
C3588 C3586 1.478 . S
C3588 C3590 1.381 . S
C3588 C3594 1.383 . S
C3589 C3585 1.495 . S
C3589 H3595 0.959 . S
C3589 H3596 0.961 . S
C3589 H3597 0.960 . S
C3590 C3588 1.381 . S
C3590 C3591 1.394 . S
C3590 H3598 0.930 . S
C3591 C3590 1.394 . S
C3591 C3592 1.383 . S
C3591 H3599 0.929 . S
C3592 C3591 1.383 . S
C3592 C3593 1.377 . S
C3593 H3577 0.930 . S
C3593 C3592 1.377 . S
C3593 C3594 1.379 . S
C3594 H3578 0.931 . S
C3594 C3588 1.383 . S
C3594 C3593 1.379 . S
H3595 C3589 0.959 . S
H3596 C3589 0.961 . S
H3597 C3589 0.960 . S
H3598 C3590 0.930 . S
H3599 C3591 0.929 . S
H3600 C3608 0.929 . S
H3601 C3610 0.930 . S
H3602 C3612 0.930 . S
H3603 C3615 0.929 . S
H3604 C3618 0.930 . S
H3605 C3620 0.960 . S
H3606 C3620 0.960 . S
H3607 C3620 0.960 . S
C3608 H3600 0.929 . S
C3608 C3609 1.377 . S
C3608 C3610 1.384 . S
C3609 C3608 1.377 . S
C3609 C3615 1.390 . S
C3610 H3601 0.930 . S
C3610 C3608 1.384 . S
C3610 C3611 1.372 . S
C3611 C3610 1.372 . S
C3611 C3612 1.400 . S
C3611 C3616 1.490 . S
C3612 H3602 0.930 . S
C3612 C3611 1.400 . S
C3612 C3615 1.386 . S
H3613 C3629 0.930 . S
H3614 C3630 0.931 . S
C3615 H3603 0.929 . S
C3615 C3609 1.390 . S
C3615 C3612 1.386 . S
C3616 C3611 1.490 . S
C3616 C3618 1.395 . S
C3616 C3619 1.403 . S
H3617 C3623 0.930 . S
C3618 H3604 0.930 . S
C3618 C3616 1.395 . S
C3618 C3621 1.403 . S
C3619 C3616 1.403 . S
C3619 C3620 1.524 . S
C3619 C3623 1.400 . S
C3620 H3605 0.960 . S
C3620 H3606 0.960 . S
C3620 H3607 0.960 . S
C3620 C3619 1.524 . S
C3621 C3618 1.403 . S
C3621 C3622 1.392 . S
C3621 C3625 1.495 . S
C3622 C3621 1.392 . S
C3622 C3623 1.385 . S
C3622 C3624 1.478 . S
C3623 H3617 0.930 . S
C3623 C3619 1.400 . S
C3623 C3622 1.385 . S
C3624 C3622 1.478 . S
C3624 C3626 1.381 . S
C3624 C3630 1.383 . S
C3625 C3621 1.495 . S
C3625 H3631 0.959 . S
C3625 H3632 0.961 . S
C3625 H3633 0.960 . S
C3626 C3624 1.381 . S
C3626 C3627 1.394 . S
C3626 H3634 0.930 . S
C3627 C3626 1.394 . S
C3627 C3628 1.383 . S
C3627 H3635 0.929 . S
C3628 C3627 1.383 . S
C3628 C3629 1.377 . S
C3629 H3613 0.930 . S
C3629 C3628 1.377 . S
C3629 C3630 1.379 . S
C3630 H3614 0.931 . S
C3630 C3624 1.383 . S
C3630 C3629 1.379 . S
H3631 C3625 0.959 . S
H3632 C3625 0.961 . S
H3633 C3625 0.960 . S
H3634 C3626 0.930 . S
H3635 C3627 0.929 . S
H3636 C3644 0.929 . S
H3637 C3646 0.930 . S
H3638 C3648 0.930 . S
H3639 C3651 0.929 . S
H3640 C3654 0.930 . S
H3641 C3656 0.960 . S
H3642 C3656 0.960 . S
H3643 C3656 0.960 . S
C3644 H3636 0.929 . S
C3644 C3645 1.377 . S
C3644 C3646 1.384 . S
C3645 C3644 1.377 . S
C3645 C3651 1.390 . S
C3646 H3637 0.930 . S
C3646 C3644 1.384 . S
C3646 C3647 1.372 . S
C3647 C3646 1.372 . S
C3647 C3648 1.400 . S
C3647 C3652 1.490 . S
C3648 H3638 0.930 . S
C3648 C3647 1.400 . S
C3648 C3651 1.386 . S
H3649 C3665 0.930 . S
H3650 C3666 0.931 . S
C3651 H3639 0.929 . S
C3651 C3645 1.390 . S
C3651 C3648 1.386 . S
C3652 C3647 1.490 . S
C3652 C3654 1.395 . S
C3652 C3655 1.403 . S
H3653 C3659 0.930 . S
C3654 H3640 0.930 . S
C3654 C3652 1.395 . S
C3654 C3657 1.403 . S
C3655 C3652 1.403 . S
C3655 C3656 1.524 . S
C3655 C3659 1.400 . S
C3656 H3641 0.960 . S
C3656 H3642 0.960 . S
C3656 H3643 0.960 . S
C3656 C3655 1.524 . S
C3657 C3654 1.403 . S
C3657 C3658 1.392 . S
C3657 C3661 1.495 . S
C3658 C3657 1.392 . S
C3658 C3659 1.385 . S
C3658 C3660 1.478 . S
C3659 H3653 0.930 . S
C3659 C3655 1.400 . S
C3659 C3658 1.385 . S
C3660 C3658 1.478 . S
C3660 C3662 1.381 . S
C3660 C3666 1.383 . S
C3661 C3657 1.495 . S
C3661 H3667 0.959 . S
C3661 H3668 0.961 . S
C3661 H3669 0.960 . S
C3662 C3660 1.381 . S
C3662 C3663 1.394 . S
C3662 H3670 0.930 . S
C3663 C3662 1.394 . S
C3663 C3664 1.383 . S
C3663 H3671 0.929 . S
C3664 C3663 1.383 . S
C3664 C3665 1.377 . S
C3665 H3649 0.930 . S
C3665 C3664 1.377 . S
C3665 C3666 1.379 . S
C3666 H3650 0.931 . S
C3666 C3660 1.383 . S
C3666 C3665 1.379 . S
H3667 C3661 0.959 . S
H3668 C3661 0.961 . S
H3669 C3661 0.960 . S
H3670 C3662 0.930 . S
H3671 C3663 0.929 . S
H3672 C3680 0.929 . S
H3673 C3682 0.930 . S
H3674 C3684 0.930 . S
H3675 C3687 0.929 . S
H3676 C3690 0.930 . S
H3677 C3692 0.960 . S
H3678 C3692 0.960 . S
H3679 C3692 0.960 . S
C3680 H3672 0.929 . S
C3680 C3681 1.377 . S
C3680 C3682 1.384 . S
C3681 C3680 1.377 . S
C3681 C3687 1.390 . S
C3682 H3673 0.930 . S
C3682 C3680 1.384 . S
C3682 C3683 1.372 . S
C3683 C3682 1.372 . S
C3683 C3684 1.400 . S
C3683 C3688 1.490 . S
C3684 H3674 0.930 . S
C3684 C3683 1.400 . S
C3684 C3687 1.386 . S
H3685 C3701 0.930 . S
H3686 C3702 0.931 . S
C3687 H3675 0.929 . S
C3687 C3681 1.390 . S
C3687 C3684 1.386 . S
C3688 C3683 1.490 . S
C3688 C3690 1.395 . S
C3688 C3691 1.403 . S
H3689 C3695 0.930 . S
C3690 H3676 0.930 . S
C3690 C3688 1.395 . S
C3690 C3693 1.403 . S
C3691 C3688 1.403 . S
C3691 C3692 1.524 . S
C3691 C3695 1.400 . S
C3692 H3677 0.960 . S
C3692 H3678 0.960 . S
C3692 H3679 0.960 . S
C3692 C3691 1.524 . S
C3693 C3690 1.403 . S
C3693 C3694 1.392 . S
C3693 C3697 1.495 . S
C3694 C3693 1.392 . S
C3694 C3695 1.385 . S
C3694 C3696 1.478 . S
C3695 H3689 0.930 . S
C3695 C3691 1.400 . S
C3695 C3694 1.385 . S
C3696 C3694 1.478 . S
C3696 C3698 1.381 . S
C3696 C3702 1.383 . S
C3697 C3693 1.495 . S
C3697 H3703 0.959 . S
C3697 H3704 0.961 . S
C3697 H3705 0.960 . S
C3698 C3696 1.381 . S
C3698 C3699 1.394 . S
C3698 H3706 0.930 . S
C3699 C3698 1.394 . S
C3699 C3700 1.383 . S
C3699 H3707 0.929 . S
C3700 C3699 1.383 . S
C3700 C3701 1.377 . S
C3701 H3685 0.930 . S
C3701 C3700 1.377 . S
C3701 C3702 1.379 . S
C3702 H3686 0.931 . S
C3702 C3696 1.383 . S
C3702 C3701 1.379 . S
H3703 C3697 0.959 . S
H3704 C3697 0.961 . S
H3705 C3697 0.960 . S
H3706 C3698 0.930 . S
H3707 C3699 0.929 . S
H3708 C3716 0.929 1_554 S
H3709 C3718 0.930 . S
H3710 C3720 0.930 . S
H3711 C3723 0.929 . S
H3712 C3726 0.930 . S
H3713 C3728 0.960 . S
H3714 C3728 0.960 . S
H3715 C3728 0.960 . S
C3716 H3708 0.929 1_556 S
C3716 C3717 1.377 . S
C3716 C3718 1.384 . S
C3717 C3716 1.377 . S
C3717 C3723 1.390 . S
C3718 H3709 0.930 . S
C3718 C3716 1.384 . S
C3718 C3719 1.372 . S
C3719 C3718 1.372 . S
C3719 C3720 1.400 . S
C3719 C3724 1.490 . S
C3720 H3710 0.930 . S
C3720 C3719 1.400 . S
C3720 C3723 1.386 . S
H3721 C3737 0.930 . S
H3722 C3738 0.931 . S
C3723 H3711 0.929 . S
C3723 C3717 1.390 . S
C3723 C3720 1.386 . S
C3724 C3719 1.490 . S
C3724 C3726 1.395 . S
C3724 C3727 1.403 . S
H3725 C3731 0.930 . S
C3726 H3712 0.930 . S
C3726 C3724 1.395 . S
C3726 C3729 1.403 . S
C3727 C3724 1.403 . S
C3727 C3728 1.524 . S
C3727 C3731 1.400 . S
C3728 H3713 0.960 . S
C3728 H3714 0.960 . S
C3728 H3715 0.960 . S
C3728 C3727 1.524 . S
C3729 C3726 1.403 . S
C3729 C3730 1.392 . S
C3729 C3733 1.495 . S
C3730 C3729 1.392 . S
C3730 C3731 1.385 . S
C3730 C3732 1.478 . S
C3731 H3725 0.930 . S
C3731 C3727 1.400 . S
C3731 C3730 1.385 . S
C3732 C3730 1.478 . S
C3732 C3734 1.381 . S
C3732 C3738 1.383 . S
C3733 C3729 1.495 . S
C3733 H3739 0.959 . S
C3733 H3740 0.961 . S
C3733 H3741 0.960 . S
C3734 C3732 1.381 . S
C3734 C3735 1.394 . S
C3734 H3742 0.930 . S
C3735 C3734 1.394 . S
C3735 C3736 1.383 . S
C3735 H3743 0.929 . S
C3736 C3735 1.383 . S
C3736 C3737 1.377 . S
C3737 H3721 0.930 . S
C3737 C3736 1.377 . S
C3737 C3738 1.379 . S
C3738 H3722 0.931 . S
C3738 C3732 1.383 . S
C3738 C3737 1.379 . S
H3739 C3733 0.959 . S
H3740 C3733 0.961 . S
H3741 C3733 0.960 . S
H3742 C3734 0.930 . S
H3743 C3735 0.929 . S
H3744 C3752 0.929 . S
H3745 C3754 0.930 . S
H3746 C3756 0.930 . S
H3747 C3759 0.929 . S
H3748 C3762 0.930 . S
H3749 C3764 0.960 . S
H3750 C3764 0.960 . S
H3751 C3764 0.960 . S
C3752 H3744 0.929 . S
C3752 C3753 1.377 . S
C3752 C3754 1.384 . S
C3753 C3752 1.377 . S
C3753 C3759 1.390 . S
C3754 H3745 0.930 . S
C3754 C3752 1.384 . S
C3754 C3755 1.372 . S
C3755 C3754 1.372 . S
C3755 C3756 1.400 . S
C3755 C3760 1.490 . S
C3756 H3746 0.930 . S
C3756 C3755 1.400 . S
C3756 C3759 1.386 . S
H3757 C3773 0.930 . S
H3758 C3774 0.931 . S
C3759 H3747 0.929 . S
C3759 C3753 1.390 . S
C3759 C3756 1.386 . S
C3760 C3755 1.490 . S
C3760 C3762 1.395 . S
C3760 C3763 1.403 . S
H3761 C3767 0.930 . S
C3762 H3748 0.930 . S
C3762 C3760 1.395 . S
C3762 C3765 1.403 . S
C3763 C3760 1.403 . S
C3763 C3764 1.524 . S
C3763 C3767 1.400 . S
C3764 H3749 0.960 . S
C3764 H3750 0.960 . S
C3764 H3751 0.960 . S
C3764 C3763 1.524 . S
C3765 C3762 1.403 . S
C3765 C3766 1.392 . S
C3765 C3769 1.495 . S
C3766 C3765 1.392 . S
C3766 C3767 1.385 . S
C3766 C3768 1.478 . S
C3767 H3761 0.930 . S
C3767 C3763 1.400 . S
C3767 C3766 1.385 . S
C3768 C3766 1.478 . S
C3768 C3770 1.381 . S
C3768 C3774 1.383 . S
C3769 C3765 1.495 . S
C3769 H3775 0.959 . S
C3769 H3776 0.961 . S
C3769 H3777 0.960 . S
C3770 C3768 1.381 . S
C3770 C3771 1.394 . S
C3770 H3778 0.930 . S
C3771 C3770 1.394 . S
C3771 C3772 1.383 . S
C3771 H3779 0.929 . S
C3772 C3771 1.383 . S
C3772 C3773 1.377 . S
C3773 H3757 0.930 . S
C3773 C3772 1.377 . S
C3773 C3774 1.379 . S
C3774 H3758 0.931 . S
C3774 C3768 1.383 . S
C3774 C3773 1.379 . S
H3775 C3769 0.959 . S
H3776 C3769 0.961 . S
H3777 C3769 0.960 . S
H3778 C3770 0.930 . S
H3779 C3771 0.929 . S
H3780 C3788 0.929 . S
H3781 C3790 0.930 . S
H3782 C3792 0.930 . S
H3783 C3795 0.929 . S
H3784 C3798 0.930 . S
H3785 C3800 0.960 . S
H3786 C3800 0.960 . S
H3787 C3800 0.960 . S
C3788 H3780 0.929 . S
C3788 C3789 1.377 . S
C3788 C3790 1.384 . S
C3789 C3788 1.377 . S
C3789 C3795 1.390 . S
C3790 H3781 0.930 . S
C3790 C3788 1.384 . S
C3790 C3791 1.372 . S
C3791 C3790 1.372 . S
C3791 C3792 1.400 . S
C3791 C3796 1.490 . S
C3792 H3782 0.930 . S
C3792 C3791 1.400 . S
C3792 C3795 1.386 . S
H3793 C3809 0.930 . S
H3794 C3810 0.931 . S
C3795 H3783 0.929 . S
C3795 C3789 1.390 . S
C3795 C3792 1.386 . S
C3796 C3791 1.490 . S
C3796 C3798 1.395 . S
C3796 C3799 1.403 . S
H3797 C3803 0.930 . S
C3798 H3784 0.930 . S
C3798 C3796 1.395 . S
C3798 C3801 1.403 . S
C3799 C3796 1.403 . S
C3799 C3800 1.524 . S
C3799 C3803 1.400 . S
C3800 H3785 0.960 . S
C3800 H3786 0.960 . S
C3800 H3787 0.960 . S
C3800 C3799 1.524 . S
C3801 C3798 1.403 . S
C3801 C3802 1.392 . S
C3801 C3805 1.495 . S
C3802 C3801 1.392 . S
C3802 C3803 1.385 . S
C3802 C3804 1.478 . S
C3803 H3797 0.930 . S
C3803 C3799 1.400 . S
C3803 C3802 1.385 . S
C3804 C3802 1.478 . S
C3804 C3806 1.381 . S
C3804 C3810 1.383 . S
C3805 C3801 1.495 . S
C3805 H3811 0.959 . S
C3805 H3812 0.961 . S
C3805 H3813 0.960 . S
C3806 C3804 1.381 . S
C3806 C3807 1.394 . S
C3806 H3814 0.930 . S
C3807 C3806 1.394 . S
C3807 C3808 1.383 . S
C3807 H3815 0.929 . S
C3808 C3807 1.383 . S
C3808 C3809 1.377 . S
C3809 H3793 0.930 . S
C3809 C3808 1.377 . S
C3809 C3810 1.379 . S
C3810 H3794 0.931 . S
C3810 C3804 1.383 . S
C3810 C3809 1.379 . S
H3811 C3805 0.959 . S
H3812 C3805 0.961 . S
H3813 C3805 0.960 . S
H3814 C3806 0.930 . S
H3815 C3807 0.929 . S
H3816 C3824 0.929 . S
H3817 C3826 0.930 . S
H3818 C3828 0.930 . S
H3819 C3831 0.929 . S
H3820 C3834 0.930 . S
H3821 C3836 0.960 . S
H3822 C3836 0.960 . S
H3823 C3836 0.960 . S
C3824 H3816 0.929 . S
C3824 C3825 1.377 . S
C3824 C3826 1.384 . S
C3825 C3824 1.377 . S
C3825 C3831 1.390 . S
C3826 H3817 0.930 . S
C3826 C3824 1.384 . S
C3826 C3827 1.372 . S
C3827 C3826 1.372 . S
C3827 C3828 1.400 . S
C3827 C3832 1.490 . S
C3828 H3818 0.930 . S
C3828 C3827 1.400 . S
C3828 C3831 1.386 . S
H3829 C3845 0.930 . S
H3830 C3846 0.931 . S
C3831 H3819 0.929 . S
C3831 C3825 1.390 . S
C3831 C3828 1.386 . S
C3832 C3827 1.490 . S
C3832 C3834 1.395 . S
C3832 C3835 1.403 . S
H3833 C3839 0.930 . S
C3834 H3820 0.930 . S
C3834 C3832 1.395 . S
C3834 C3837 1.403 . S
C3835 C3832 1.403 . S
C3835 C3836 1.524 . S
C3835 C3839 1.400 . S
C3836 H3821 0.960 . S
C3836 H3822 0.960 . S
C3836 H3823 0.960 . S
C3836 C3835 1.524 . S
C3837 C3834 1.403 . S
C3837 C3838 1.392 . S
C3837 C3841 1.495 . S
C3838 C3837 1.392 . S
C3838 C3839 1.385 . S
C3838 C3840 1.478 . S
C3839 H3833 0.930 . S
C3839 C3835 1.400 . S
C3839 C3838 1.385 . S
C3840 C3838 1.478 . S
C3840 C3842 1.381 . S
C3840 C3846 1.383 . S
C3841 C3837 1.495 . S
C3841 H3847 0.959 . S
C3841 H3848 0.961 . S
C3841 H3849 0.960 . S
C3842 C3840 1.381 . S
C3842 C3843 1.394 . S
C3842 H3850 0.930 . S
C3843 C3842 1.394 . S
C3843 C3844 1.383 . S
C3843 H3851 0.929 . S
C3844 C3843 1.383 . S
C3844 C3845 1.377 . S
C3845 H3829 0.930 . S
C3845 C3844 1.377 . S
C3845 C3846 1.379 . S
C3846 H3830 0.931 . S
C3846 C3840 1.383 . S
C3846 C3845 1.379 . S
H3847 C3841 0.959 . S
H3848 C3841 0.961 . S
H3849 C3841 0.960 . S
H3850 C3842 0.930 . S
H3851 C3843 0.929 . S
H3852 C3860 0.929 . S
H3853 C3862 0.930 . S
H3854 C3864 0.930 . S
H3855 C3867 0.929 . S
H3856 C3870 0.930 . S
H3857 C3872 0.960 . S
H3858 C3872 0.960 . S
H3859 C3872 0.960 . S
C3860 H3852 0.929 . S
C3860 C3861 1.377 . S
C3860 C3862 1.384 . S
C3861 C3860 1.377 . S
C3861 C3867 1.390 . S
C3862 H3853 0.930 . S
C3862 C3860 1.384 . S
C3862 C3863 1.372 . S
C3863 C3862 1.372 . S
C3863 C3864 1.400 . S
C3863 C3868 1.490 . S
C3864 H3854 0.930 . S
C3864 C3863 1.400 . S
C3864 C3867 1.386 . S
H3865 C3881 0.930 . S
H3866 C3882 0.931 . S
C3867 H3855 0.929 . S
C3867 C3861 1.390 . S
C3867 C3864 1.386 . S
C3868 C3863 1.490 . S
C3868 C3870 1.395 . S
C3868 C3871 1.403 . S
H3869 C3875 0.930 . S
C3870 H3856 0.930 . S
C3870 C3868 1.395 . S
C3870 C3873 1.403 . S
C3871 C3868 1.403 . S
C3871 C3872 1.524 . S
C3871 C3875 1.400 . S
C3872 H3857 0.960 . S
C3872 H3858 0.960 . S
C3872 H3859 0.960 . S
C3872 C3871 1.524 . S
C3873 C3870 1.403 . S
C3873 C3874 1.392 . S
C3873 C3877 1.495 . S
C3874 C3873 1.392 . S
C3874 C3875 1.385 . S
C3874 C3876 1.478 . S
C3875 H3869 0.930 . S
C3875 C3871 1.400 . S
C3875 C3874 1.385 . S
C3876 C3874 1.478 . S
C3876 C3878 1.381 . S
C3876 C3882 1.383 . S
C3877 C3873 1.495 . S
C3877 H3883 0.959 . S
C3877 H3884 0.961 . S
C3877 H3885 0.960 . S
C3878 C3876 1.381 . S
C3878 C3879 1.394 . S
C3878 H3886 0.930 . S
C3879 C3878 1.394 . S
C3879 C3880 1.383 . S
C3879 H3887 0.929 . S
C3880 C3879 1.383 . S
C3880 C3881 1.377 . S
C3881 H3865 0.930 . S
C3881 C3880 1.377 . S
C3881 C3882 1.379 . S
C3882 H3866 0.931 . S
C3882 C3876 1.383 . S
C3882 C3881 1.379 . S
H3883 C3877 0.959 . S
H3884 C3877 0.961 . S
H3885 C3877 0.960 . S
H3886 C3878 0.930 . S
H3887 C3879 0.929 . S
H3888 C3896 0.929 . S
H3889 C3898 0.930 . S
H3890 C3900 0.930 . S
H3891 C3903 0.929 . S
H3892 C3906 0.930 . S
H3893 C3908 0.960 . S
H3894 C3908 0.960 . S
H3895 C3908 0.960 . S
C3896 H3888 0.929 . S
C3896 C3897 1.377 . S
C3896 C3898 1.384 . S
C3897 C3896 1.377 . S
C3897 C3903 1.390 . S
C3898 H3889 0.930 . S
C3898 C3896 1.384 . S
C3898 C3899 1.372 . S
C3899 C3898 1.372 . S
C3899 C3900 1.400 . S
C3899 C3904 1.490 . S
C3900 H3890 0.930 . S
C3900 C3899 1.400 . S
C3900 C3903 1.386 . S
H3901 C3917 0.930 . S
H3902 C3918 0.931 . S
C3903 H3891 0.929 . S
C3903 C3897 1.390 . S
C3903 C3900 1.386 . S
C3904 C3899 1.490 . S
C3904 C3906 1.395 . S
C3904 C3907 1.403 . S
H3905 C3911 0.930 . S
C3906 H3892 0.930 . S
C3906 C3904 1.395 . S
C3906 C3909 1.403 . S
C3907 C3904 1.403 . S
C3907 C3908 1.524 . S
C3907 C3911 1.400 . S
C3908 H3893 0.960 . S
C3908 H3894 0.960 . S
C3908 H3895 0.960 . S
C3908 C3907 1.524 . S
C3909 C3906 1.403 . S
C3909 C3910 1.392 . S
C3909 C3913 1.495 . S
C3910 C3909 1.392 . S
C3910 C3911 1.385 . S
C3910 C3912 1.478 . S
C3911 H3905 0.930 . S
C3911 C3907 1.400 . S
C3911 C3910 1.385 . S
C3912 C3910 1.478 . S
C3912 C3914 1.381 . S
C3912 C3918 1.383 . S
C3913 C3909 1.495 . S
C3913 H3919 0.959 . S
C3913 H3920 0.961 . S
C3913 H3921 0.960 . S
C3914 C3912 1.381 . S
C3914 C3915 1.394 . S
C3914 H3922 0.930 . S
C3915 C3914 1.394 . S
C3915 C3916 1.383 . S
C3915 H3923 0.929 . S
C3916 C3915 1.383 . S
C3916 C3917 1.377 . S
C3917 H3901 0.930 . S
C3917 C3916 1.377 . S
C3917 C3918 1.379 . S
C3918 H3902 0.931 . S
C3918 C3912 1.383 . S
C3918 C3917 1.379 . S
H3919 C3913 0.959 . S
H3920 C3913 0.961 . S
H3921 C3913 0.960 . S
H3922 C3914 0.930 . S
H3923 C3915 0.929 . S
H3924 C3932 0.929 . S
H3925 C3934 0.930 . S
H3926 C3936 0.930 . S
H3927 C3939 0.929 . S
H3928 C3942 0.930 . S
H3929 C3944 0.960 . S
H3930 C3944 0.960 . S
H3931 C3944 0.960 . S
C3932 H3924 0.929 . S
C3932 C3933 1.377 . S
C3932 C3934 1.384 . S
C3933 C3932 1.377 . S
C3933 C3939 1.390 . S
C3934 H3925 0.930 . S
C3934 C3932 1.384 . S
C3934 C3935 1.372 . S
C3935 C3934 1.372 . S
C3935 C3936 1.400 . S
C3935 C3940 1.490 . S
C3936 H3926 0.930 . S
C3936 C3935 1.400 . S
C3936 C3939 1.386 . S
H3937 C3953 0.930 . S
H3938 C3954 0.931 . S
C3939 H3927 0.929 . S
C3939 C3933 1.390 . S
C3939 C3936 1.386 . S
C3940 C3935 1.490 . S
C3940 C3942 1.395 . S
C3940 C3943 1.403 . S
H3941 C3947 0.930 . S
C3942 H3928 0.930 . S
C3942 C3940 1.395 . S
C3942 C3945 1.403 . S
C3943 C3940 1.403 . S
C3943 C3944 1.524 . S
C3943 C3947 1.400 . S
C3944 H3929 0.960 . S
C3944 H3930 0.960 . S
C3944 H3931 0.960 . S
C3944 C3943 1.524 . S
C3945 C3942 1.403 . S
C3945 C3946 1.392 . S
C3945 C3949 1.495 . S
C3946 C3945 1.392 . S
C3946 C3947 1.385 . S
C3946 C3948 1.478 . S
C3947 H3941 0.930 . S
C3947 C3943 1.400 . S
C3947 C3946 1.385 . S
C3948 C3946 1.478 . S
C3948 C3950 1.381 . S
C3948 C3954 1.383 . S
C3949 C3945 1.495 . S
C3949 H3955 0.959 . S
C3949 H3956 0.961 . S
C3949 H3957 0.960 . S
C3950 C3948 1.381 . S
C3950 C3951 1.394 . S
C3950 H3958 0.930 . S
C3951 C3950 1.394 . S
C3951 C3952 1.383 . S
C3951 H3959 0.929 . S
C3952 C3951 1.383 . S
C3952 C3953 1.377 . S
C3953 H3937 0.930 . S
C3953 C3952 1.377 . S
C3953 C3954 1.379 . S
C3954 H3938 0.931 . S
C3954 C3948 1.383 . S
C3954 C3953 1.379 . S
H3955 C3949 0.959 . S
H3956 C3949 0.961 . S
H3957 C3949 0.960 . S
H3958 C3950 0.930 . S
H3959 C3951 0.929 . S
H3960 C3968 0.929 . S
H3961 C3970 0.930 . S
H3962 C3972 0.930 . S
H3963 C3975 0.929 . S
H3964 C3978 0.930 . S
H3965 C3980 0.960 . S
H3966 C3980 0.960 . S
H3967 C3980 0.960 . S
C3968 H3960 0.929 . S
C3968 C3969 1.377 . S
C3968 C3970 1.384 . S
C3969 C3968 1.377 . S
C3969 C3975 1.390 . S
C3970 H3961 0.930 . S
C3970 C3968 1.384 . S
C3970 C3971 1.372 . S
C3971 C3970 1.372 . S
C3971 C3972 1.400 . S
C3971 C3976 1.490 . S
C3972 H3962 0.930 . S
C3972 C3971 1.400 . S
C3972 C3975 1.386 . S
H3973 C3989 0.930 . S
H3974 C3990 0.931 . S
C3975 H3963 0.929 . S
C3975 C3969 1.390 . S
C3975 C3972 1.386 . S
C3976 C3971 1.490 . S
C3976 C3978 1.395 . S
C3976 C3979 1.403 . S
H3977 C3983 0.930 . S
C3978 H3964 0.930 . S
C3978 C3976 1.395 . S
C3978 C3981 1.403 . S
C3979 C3976 1.403 . S
C3979 C3980 1.524 . S
C3979 C3983 1.400 . S
C3980 H3965 0.960 . S
C3980 H3966 0.960 . S
C3980 H3967 0.960 . S
C3980 C3979 1.524 . S
C3981 C3978 1.403 . S
C3981 C3982 1.392 . S
C3981 C3985 1.495 . S
C3982 C3981 1.392 . S
C3982 C3983 1.385 . S
C3982 C3984 1.478 . S
C3983 H3977 0.930 . S
C3983 C3979 1.400 . S
C3983 C3982 1.385 . S
C3984 C3982 1.478 . S
C3984 C3986 1.381 . S
C3984 C3990 1.383 . S
C3985 C3981 1.495 . S
C3985 H3991 0.959 . S
C3985 H3992 0.961 . S
C3985 H3993 0.960 . S
C3986 C3984 1.381 . S
C3986 C3987 1.394 . S
C3986 H3994 0.930 . S
C3987 C3986 1.394 . S
C3987 C3988 1.383 . S
C3987 H3995 0.929 . S
C3988 C3987 1.383 . S
C3988 C3989 1.377 . S
C3989 H3973 0.930 . S
C3989 C3988 1.377 . S
C3989 C3990 1.379 . S
C3990 H3974 0.931 . S
C3990 C3984 1.383 . S
C3990 C3989 1.379 . S
H3991 C3985 0.959 . S
H3992 C3985 0.961 . S
H3993 C3985 0.960 . S
H3994 C3986 0.930 . S
H3995 C3987 0.929 . S
H3996 C4004 0.929 1_554 S
H3997 C4006 0.930 . S
H3998 C4008 0.930 . S
H3999 C4011 0.929 . S
H4000 C4014 0.930 . S
H4001 C4016 0.960 . S
H4002 C4016 0.960 . S
H4003 C4016 0.960 . S
C4004 H3996 0.929 1_556 S
C4004 C4005 1.377 1_556 S
C4004 C4006 1.384 . S
C4005 C4004 1.377 1_554 S
C4005 C4011 1.390 1_554 S
C4006 H3997 0.930 . S
C4006 C4004 1.384 . S
C4006 C4007 1.372 . S
C4007 C4006 1.372 . S
C4007 C4008 1.400 . S
C4007 C4012 1.490 . S
C4008 H3998 0.930 . S
C4008 C4007 1.400 . S
C4008 C4011 1.386 . S
H4009 C4025 0.930 . S
H4010 C4026 0.931 . S
C4011 H3999 0.929 . S
C4011 C4005 1.390 1_556 S
C4011 C4008 1.386 . S
C4012 C4007 1.490 . S
C4012 C4014 1.395 . S
C4012 C4015 1.403 . S
H4013 C4019 0.930 . S
C4014 H4000 0.930 . S
C4014 C4012 1.395 . S
C4014 C4017 1.403 . S
C4015 C4012 1.403 . S
C4015 C4016 1.524 . S
C4015 C4019 1.400 . S
C4016 H4001 0.960 . S
C4016 H4002 0.960 . S
C4016 H4003 0.960 . S
C4016 C4015 1.524 . S
C4017 C4014 1.403 . S
C4017 C4018 1.392 . S
C4017 C4021 1.495 . S
C4018 C4017 1.392 . S
C4018 C4019 1.385 . S
C4018 C4020 1.478 . S
C4019 H4013 0.930 . S
C4019 C4015 1.400 . S
C4019 C4018 1.385 . S
C4020 C4018 1.478 . S
C4020 C4022 1.381 . S
C4020 C4026 1.383 . S
C4021 C4017 1.495 . S
C4021 H4027 0.959 1_556 S
C4021 H4028 0.961 . S
C4021 H4029 0.960 . S
C4022 C4020 1.381 . S
C4022 C4023 1.394 . S
C4022 H4030 0.930 . S
C4023 C4022 1.394 . S
C4023 C4024 1.383 . S
C4023 H4031 0.929 . S
C4024 C4023 1.383 . S
C4024 C4025 1.377 . S
C4025 H4009 0.930 . S
C4025 C4024 1.377 . S
C4025 C4026 1.379 . S
C4026 H4010 0.931 . S
C4026 C4020 1.383 . S
C4026 C4025 1.379 . S
H4027 C4021 0.959 1_554 S
H4028 C4021 0.961 . S
H4029 C4021 0.960 . S
H4030 C4022 0.930 . S
H4031 C4023 0.929 . S
H4032 C4040 0.929 . S
H4033 C4042 0.930 . S
H4034 C4044 0.930 . S
H4035 C4047 0.929 . S
H4036 C4050 0.930 . S
H4037 C4052 0.960 . S
H4038 C4052 0.960 . S
H4039 C4052 0.960 . S
C4040 H4032 0.929 . S
C4040 C4041 1.377 . S
C4040 C4042 1.384 . S
C4041 C4040 1.377 . S
C4041 C4047 1.390 . S
C4042 H4033 0.930 . S
C4042 C4040 1.384 . S
C4042 C4043 1.372 . S
C4043 C4042 1.372 . S
C4043 C4044 1.400 . S
C4043 C4048 1.490 . S
C4044 H4034 0.930 . S
C4044 C4043 1.400 . S
C4044 C4047 1.386 . S
H4045 C4061 0.930 . S
H4046 C4062 0.931 . S
C4047 H4035 0.929 . S
C4047 C4041 1.390 . S
C4047 C4044 1.386 . S
C4048 C4043 1.490 . S
C4048 C4050 1.395 . S
C4048 C4051 1.403 . S
H4049 C4055 0.930 . S
C4050 H4036 0.930 . S
C4050 C4048 1.395 . S
C4050 C4053 1.403 . S
C4051 C4048 1.403 . S
C4051 C4052 1.524 . S
C4051 C4055 1.400 . S
C4052 H4037 0.960 . S
C4052 H4038 0.960 . S
C4052 H4039 0.960 . S
C4052 C4051 1.524 . S
C4053 C4050 1.403 . S
C4053 C4054 1.392 . S
C4053 C4057 1.495 . S
C4054 C4053 1.392 . S
C4054 C4055 1.385 . S
C4054 C4056 1.478 . S
C4055 H4049 0.930 . S
C4055 C4051 1.400 . S
C4055 C4054 1.385 . S
C4056 C4054 1.478 . S
C4056 C4058 1.381 . S
C4056 C4062 1.383 . S
C4057 C4053 1.495 . S
C4057 H4063 0.959 1_565 S
C4057 H4064 0.961 . S
C4057 H4065 0.960 . S
C4058 C4056 1.381 . S
C4058 C4059 1.394 . S
C4058 H4066 0.930 . S
C4059 C4058 1.394 . S
C4059 C4060 1.383 . S
C4059 H4067 0.929 . S
C4060 C4059 1.383 . S
C4060 C4061 1.377 . S
C4061 H4045 0.930 . S
C4061 C4060 1.377 . S
C4061 C4062 1.379 . S
C4062 H4046 0.931 . S
C4062 C4056 1.383 . S
C4062 C4061 1.379 . S
H4063 C4057 0.959 1_545 S
H4064 C4057 0.961 . S
H4065 C4057 0.960 . S
H4066 C4058 0.930 . S
H4067 C4059 0.929 . S
H4068 C4076 0.929 . S
H4069 C4078 0.930 . S
H4070 C4080 0.930 . S
H4071 C4083 0.929 . S
H4072 C4086 0.930 . S
H4073 C4088 0.960 . S
H4074 C4088 0.960 . S
H4075 C4088 0.960 . S
C4076 H4068 0.929 . S
C4076 C4077 1.377 . S
C4076 C4078 1.384 . S
C4077 C4076 1.377 . S
C4077 C4083 1.390 . S
C4078 H4069 0.930 . S
C4078 C4076 1.384 . S
C4078 C4079 1.372 . S
C4079 C4078 1.372 . S
C4079 C4080 1.400 . S
C4079 C4084 1.490 . S
C4080 H4070 0.930 . S
C4080 C4079 1.400 . S
C4080 C4083 1.386 . S
H4081 C4097 0.930 . S
H4082 C4098 0.931 . S
C4083 H4071 0.929 . S
C4083 C4077 1.390 . S
C4083 C4080 1.386 . S
C4084 C4079 1.490 . S
C4084 C4086 1.395 . S
C4084 C4087 1.403 . S
H4085 C4091 0.930 1_655 S
C4086 H4072 0.930 . S
C4086 C4084 1.395 . S
C4086 C4089 1.403 . S
C4087 C4084 1.403 . S
C4087 C4088 1.524 . S
C4087 C4091 1.400 . S
C4088 H4073 0.960 . S
C4088 H4074 0.960 . S
C4088 H4075 0.960 . S
C4088 C4087 1.524 . S
C4089 C4086 1.403 . S
C4089 C4090 1.392 . S
C4089 C4093 1.495 . S
C4090 C4089 1.392 . S
C4090 C4091 1.385 . S
C4090 C4092 1.478 1_455 S
C4091 H4085 0.930 1_455 S
C4091 C4087 1.400 . S
C4091 C4090 1.385 . S
C4092 C4090 1.478 1_655 S
C4092 C4094 1.381 . S
C4092 C4098 1.383 . S
C4093 C4089 1.495 . S
C4093 H4099 0.959 . S
C4093 H4100 0.961 . S
C4093 H4101 0.960 . S
C4094 C4092 1.381 . S
C4094 C4095 1.394 . S
C4094 H4102 0.930 . S
C4095 C4094 1.394 . S
C4095 C4096 1.383 . S
C4095 H4103 0.929 . S
C4096 C4095 1.383 . S
C4096 C4097 1.377 . S
C4097 H4081 0.930 . S
C4097 C4096 1.377 . S
C4097 C4098 1.379 . S
C4098 H4082 0.931 . S
C4098 C4092 1.383 . S
C4098 C4097 1.379 . S
H4099 C4093 0.959 . S
H4100 C4093 0.961 . S
H4101 C4093 0.960 . S
H4102 C4094 0.930 . S
H4103 C4095 0.929 . S
C676 C330 0.668 . S
C657 C0 0.724 . S
C693 C18 1.286 . S
C712 C350 1.377 . S
C748 C370 0.928 . S
C729 C34 1.004 . S
C784 C389 1.283 . S
C765 C49 1.272 . S
C820 C347 1.162 . S
C801 C62 1.150 . S
C837 C73 1.036 . S
C856 C372 0.942 . S
C892 C392 1.248 . S
C873 C83 1.168 . S
C909 C91 0.887 . S
C928 C328 0.904 . S
C945 C109 1.159 . S
C964 C325 1.082 . S
C1000 C348 0.982 . S
C981 C125 0.999 . S
C1036 C371 1.207 . S
C1017 C130 1.201 . S
C1072 C393 1.257 . S
C1053 C153 1.282 1_556 S
C1108 C351 0.864 . S
C1089 C114 0.805 . S
C1144 C367 0.895 . S
C1125 C117 0.965 . S
C1161 C138 0.841 . S
C1180 C390 0.758 . S
C1216 C329 0.619 . S
C1197 C148 0.653 . S
C1233 C161 1.087 . S
C1252 C326 1.161 . S
C1269 C169 0.732 . S
C1288 C409 0.717 . S
C1324 C431 1.121 . S
C1305 C190 1.101 . S
C1360 C454 0.976 . S
C1341 C205 1.043 . S
C1377 C213 1.146 . S
C1396 C327 1.142 . S
C1413 C229 1.236 . S
C1432 C369 1.204 . S
C1468 C451 1.057 . S
C1449 C182 1.281 . S
C1504 C412 0.819 . S
C1485 C244 0.719 . S
C1540 C477 0.845 . S
C1521 C21 0.810 . S
C1576 C497 1.482 . S
C1557 C5 1.403 1_655 S
C1593 C39 0.778 . S
C1612 C519 0.732 . S
C1629 C36 0.931 . S
C1648 C536 0.927 . S
C1665 C101 1.557 . S
C1684 C494 1.559 . S
C1701 C78 0.902 . S
C1720 C517 0.862 . S
C1756 C539 1.140 . S
C1737 C70 1.040 . S
C1773 C60 1.160 . S
C1792 C475 1.090 . S
C1809 C257 0.847 . S
C1828 C472 0.890 . S
C1864 C495 1.308 . S
C1845 C203 1.398 . S
C1900 C514 1.086 . S
C1881 C208 1.279 . S
C1936 C540 1.017 . S
C1917 C174 1.066 . S
C1972 C498 0.834 . S
C1953 C252 0.776 . S
C2008 C518 0.777 . S
C1989 C195 0.752 . S
C2044 C537 0.564 . S
C2025 C216 0.543 . S
C2061 C179 1.165 . S
C2080 C476 1.168 . S
C2116 C473 1.227 . S
C2097 C270 1.219 . S
C2133 C143 0.992 . S
C2152 C556 0.897 . S
C2188 C579 1.163 . S
C2169 C281 1.192 . S
C2205 C122 1.027 . S
C2224 C601 0.863 . S
C2260 C474 1.211 . S
C2241 C140 1.241 . S
C2296 C515 1.265 . S
C2277 C294 1.261 . S
C2332 C598 0.899 . S
C2313 C273 0.886 . S
C2349 C304 0.646 . S
C2368 C559 0.725 . S
C2385 C26 0.724 . S
C2404 C624 0.668 . S
C2421 C44 1.296 . S
C2440 C413 1.400 . S
C2476 C433 0.983 . S
C2457 C8 1.000 1_655 S
C2493 C23 1.270 . S
C2512 C452 1.262 . S
C2529 C88 1.160 . S
C2548 C410 1.179 . S
C2565 C99 1.038 . S
C2584 C435 0.973 . S
C2620 C455 1.251 . S
C2601 C57 1.170 . S
C2656 C622 0.899 . S
C2637 C65 0.880 . S
C2692 C619 1.048 . S
C2673 C278 1.152 . S
C2728 C411 0.902 . S
C2709 C268 0.990 . S
C2764 C434 1.208 . S
C2745 C299 1.200 . S
C2781 C296 1.294 . S
C2800 C456 1.178 . S
C2836 C414 0.823 . S
C2817 C283 0.797 . S
C2853 C260 0.958 . S
C2872 C430 0.816 . S
C2908 C453 0.879 . S
C2889 C307 0.849 . S
C2925 C291 0.621 . S
C2944 C623 0.541 . S
C2980 C620 1.142 . S
C2961 C200 1.081 . S
C2997 C221 0.723 . S
C3016 C346 0.699 . S
C3052 C368 1.121 . S
C3033 C255 1.098 . S
C3069 C166 1.050 . S
C3088 C391 0.942 . S
C3124 C621 1.115 . S
C3105 C239 1.132 . S
C3160 C432 1.181 . S
C3141 C177 1.236 . S
C3196 C388 1.056 . S
C3177 C247 1.278 . S
C3232 C349 0.654 . S
C3213 C218 0.705 . S
C3249 C47 0.805 . S
C3268 C645 0.821 . S
C3285 C31 1.431 . S
C3304 C560 1.499 . S
C3321 C13 0.786 . S
C3340 C582 0.815 . S
C3376 C599 0.975 . S
C3357 C10 0.928 . S
C3412 C557 1.546 . S
C3393 C75 1.557 . S
C3429 C52 0.895 . S
C3448 C580 0.763 . S
C3484 C602 1.120 . S
C3465 C96 1.022 . S
C3501 C86 1.160 . S
C3520 C643 0.988 . S
C3556 C640 0.744 . S
C3537 C192 0.863 . S
C3573 C164 1.396 . S
C3592 C558 1.271 . S
C3609 C234 1.282 . S
C3628 C577 1.190 . S
C3664 C603 1.017 . S
C3645 C226 1.066 . S
C3700 C561 0.787 . S
C3681 C187 0.759 . S
C3717 C156 0.756 . S
C3736 C581 0.765 . S
C3772 C600 0.633 . S
C3753 C242 0.550 . S
C3808 C644 1.169 . S
C3789 C231 1.165 . S
C3844 C641 1.238 . S
C3825 C127 1.223 . S
C3880 C493 0.870 . S
C3861 C286 0.999 . S
C3897 C112 1.187 . S
C3916 C516 1.093 . S
C3933 C265 1.031 . S
C3952 C538 0.983 . S
C3988 C642 1.176 . S
C3969 C309 1.243 . S
C4024 C578 1.266 . S
C4005 C151 1.260 . S
C4060 C535 0.861 . S
C4041 C104 0.892 . S
C4096 C496 0.614 . S
C4077 C135 0.658 . S
