# Generated by pormake.
# Topology csq, (4,8)-cn, num edge types: 1
# Building blocks:
#     Node 0, Type 0, BuildingBlock: MUDLON_clean_sbu_0, # of connection points: 4
#     Node 1, Type 0, BuildingBlock: MUDLON_clean_sbu_0, # of connection points: 4
#     Node 2, Type 0, BuildingBlock: MUDLON_clean_sbu_0, # of connection points: 4
#     Node 3, Type 0, BuildingBlock: MUDLON_clean_sbu_0, # of connection points: 4
#     Node 4, Type 0, BuildingBlock: MUDLON_clean_sbu_0, # of connection points: 4
#     Node 5, Type 0, BuildingBlock: MUDLON_clean_sbu_0, # of connection points: 4
#     Node 6, Type 1, BuildingBlock: TAGTUT_clean_sbu_3, # of connection points: 8
#     Node 7, Type 1, BuildingBlock: TAGTUT_clean_sbu_3, # of connection points: 8
#     Node 8, Type 1, BuildingBlock: TAGTUT_clean_sbu_3, # of connection points: 8
#     Edge 9, Type (0, 1), BuildingBlock: OJICUG_clean_linker_0, # of connection points: 2
#     Edge 10, Type (0, 1), BuildingBlock: OJICUG_clean_linker_0, # of connection points: 2
#     Edge 11, Type (0, 1), BuildingBlock: OJICUG_clean_linker_0, # of connection points: 2
#     Edge 12, Type (0, 1), BuildingBlock: OJICUG_clean_linker_0, # of connection points: 2
#     Edge 13, Type (0, 1), BuildingBlock: OJICUG_clean_linker_0, # of connection points: 2
#     Edge 14, Type (0, 1), BuildingBlock: OJICUG_clean_linker_0, # of connection points: 2
#     Edge 15, Type (0, 1), BuildingBlock: OJICUG_clean_linker_0, # of connection points: 2
#     Edge 16, Type (0, 1), BuildingBlock: OJICUG_clean_linker_0, # of connection points: 2
#     Edge 17, Type (0, 1), BuildingBlock: OJICUG_clean_linker_0, # of connection points: 2
#     Edge 18, Type (0, 1), BuildingBlock: OJICUG_clean_linker_0, # of connection points: 2
#     Edge 19, Type (0, 1), BuildingBlock: OJICUG_clean_linker_0, # of connection points: 2
#     Edge 20, Type (0, 1), BuildingBlock: OJICUG_clean_linker_0, # of connection points: 2
#     Edge 21, Type (0, 1), BuildingBlock: OJICUG_clean_linker_0, # of connection points: 2
#     Edge 22, Type (0, 1), BuildingBlock: OJICUG_clean_linker_0, # of connection points: 2
#     Edge 23, Type (0, 1), BuildingBlock: OJICUG_clean_linker_0, # of connection points: 2
#     Edge 24, Type (0, 1), BuildingBlock: OJICUG_clean_linker_0, # of connection points: 2
#     Edge 25, Type (0, 1), BuildingBlock: OJICUG_clean_linker_0, # of connection points: 2
#     Edge 26, Type (0, 1), BuildingBlock: OJICUG_clean_linker_0, # of connection points: 2
#     Edge 27, Type (0, 1), BuildingBlock: OJICUG_clean_linker_0, # of connection points: 2
#     Edge 28, Type (0, 1), BuildingBlock: OJICUG_clean_linker_0, # of connection points: 2
#     Edge 29, Type (0, 1), BuildingBlock: OJICUG_clean_linker_0, # of connection points: 2
#     Edge 30, Type (0, 1), BuildingBlock: OJICUG_clean_linker_0, # of connection points: 2
#     Edge 31, Type (0, 1), BuildingBlock: OJICUG_clean_linker_0, # of connection points: 2
#     Edge 32, Type (0, 1), BuildingBlock: OJICUG_clean_linker_0, # of connection points: 2
# Relax obj value: 0.067
# Max RMSD: 0.124
# Mean RMSD: 0.102
data_MOF--net-csq--node1-MUDLON_clean_sbu_0--node2-TAGTUT_clean_sbu_3--edge1-OJICUG_clean_linker_0
_symmetry_space_group_name_H-M    P1
_symmetry_Int_Tables_number       1
_symmetry_cell_setting            triclinic
loop_
_symmetry_equiv_pos_as_xyz
'x, y, z'
_cell_length_a     37.85597
_cell_length_b     37.235545
_cell_length_c     15.176085
_cell_angle_alpha  93.320592
_cell_angle_beta   93.123856
_cell_angle_gamma 119.91074
loop_
_atom_site_label
_atom_site_type_symbol
_atom_site_fract_x
_atom_site_fract_y
_atom_site_fract_z
_atom_type_partial_charge
Mg0 Mg 0.22886 0.45104 0.16644 0.0
C1 C 0.16075 0.36261 0.06225 0.0
O2 O 0.14789 0.32259 0.04978 0.0
C3 C 0.27522 0.42605 0.29384 0.0
O4 O 0.24706 0.38847 0.26012 0.0
C5 C 0.17197 0.44613 0.28637 0.0
O6 O 0.17641 0.41336 0.28878 0.0
O7 O 0.19169 0.47244 0.23234 0.0
O8 O 0.19219 0.385 0.11717 0.0
O9 O 0.27319 0.48313 0.07178 0.0
C10 C 0.29461 0.46544 0.06747 0.0
O11 O 0.28296 0.43111 0.10579 0.0
O12 O 0.27253 0.45711 0.27262 0.0
Mg13 Mg 0.76205 0.26431 0.17999 0.0
C14 C 0.80526 0.30488 0.0185 0.0
O15 O 0.78247 0.2666 0.98101 0.0
C16 C 0.68496 0.25785 0.26066 0.0
O17 O 0.66232 0.27411 0.28145 0.0
C18 C 0.80978 0.28907 0.35995 0.0
O19 O 0.78135 0.29819 0.37713 0.0
O20 O 0.8064 0.26956 0.28532 0.0
O21 O 0.80157 0.31292 0.09896 0.0
O22 O 0.72696 0.20609 0.09382 0.0
C23 C 0.69521 0.20246 0.05129 0.0
O24 O 0.68654 0.23226 0.06462 0.0
O25 O 0.71954 0.28122 0.23246 0.0
Mg26 Mg 0.54055 0.77283 0.03732 0.0
C27 C 0.57339 0.8377 0.21199 0.0
O28 O 0.60776 0.83785 0.20257 0.0
C29 C 0.5709 0.73449 0.89125 0.0
O30 O 0.60642 0.76202 0.93357 0.0
C31 C 0.56978 0.85603 0.93943 0.0
O32 O 0.6037 0.86929 0.99134 0.0
O33 O 0.53994 0.81945 0.94407 0.0
O34 O 0.54217 0.81448 0.15735 0.0
O35 O 0.53826 0.72282 0.12607 0.0
C36 C 0.52668 0.71637 0.20383 0.0
O37 O 0.51569 0.74089 0.24422 0.0
O38 O 0.53843 0.73204 0.91697 0.0
Mg39 Mg 0.78335 0.53002 0.04656 0.0
C40 C 0.69776 0.49299 0.96306 0.0
O41 O 0.6906 0.4934 0.04673 0.0
C42 C 0.81459 0.4763 0.11968 0.0
O43 O 0.81534 0.46514 0.03658 0.0
C44 C 0.76636 0.56928 0.20836 0.0
O45 O 0.78599 0.55367 0.25067 0.0
O46 O 0.76646 0.56937 0.12448 0.0
O47 O 0.73292 0.50041 0.94425 0.0
O48 O 0.83943 0.55721 0.97969 0.0
C49 C 0.83775 0.53223 0.91641 0.0
O50 O 0.80261 0.49821 0.89167 0.0
O51 O 0.79289 0.49252 0.13801 0.0
Mg52 Mg 0.2433 0.79746 0.13878 0.0
C53 C 0.216 0.73675 0.95728 0.0
O54 O 0.24684 0.7633 0.91636 0.0
C55 C 0.33426 0.84688 0.19672 0.0
O56 O 0.33619 0.86382 0.12233 0.0
C57 C 0.20612 0.74133 0.26941 0.0
O58 O 0.23316 0.73388 0.23468 0.0
O59 O 0.20245 0.77138 0.24315 0.0
O60 O 0.21322 0.74516 0.03811 0.0
O61 O 0.25545 0.85474 0.08296 0.0
C62 C 0.24726 0.85558 1.00085 0.0
O63 O 0.21929 0.82107 0.95457 0.0
O64 O 0.30156 0.81379 0.2091 0.0
Mg65 Mg 0.43701 0.23567 0.23796 0.0
C66 C 0.36955 0.23903 0.33946 0.0
O67 O 0.33329 0.22236 0.36923 0.0
C68 C 0.4688 0.19001 0.13424 0.0
O69 O 0.49974 0.21338 0.19387 0.0
C70 C 0.47872 0.29667 0.09588 0.0
O71 O 0.50125 0.27911 0.08999 0.0
O72 O 0.45488 0.28831 0.15733 0.0
O73 O 0.3769 0.21746 0.28285 0.0
O74 O 0.47282 0.22951 0.34936 0.0
C75 C 0.45316 0.20556 0.40776 0.0
O76 O 0.41453 0.19444 0.41167 0.0
O77 O 0.43562 0.19076 0.13794 0.0
C78 C 0.07312 0.4641 0.54515 0.0
C79 C 0.06739 0.4246 0.87564 0.0
C80 C 0.94826 0.41765 0.85245 0.0
Mg81 Mg 0.02884 0.50744 0.44277 0.0
Mg82 Mg 0.00505 0.57269 0.54722 0.0
O83 O 0.00605 0.52299 0.54493 0.0
Mg84 Mg 0.02378 0.50228 0.64564 0.0
O85 O 0.04076 0.47694 0.73989 0.0
Mg86 Mg 0.00773 0.41675 0.69299 0.0
Mg87 Mg 0.03706 0.48791 0.86004 0.0
C88 C 0.97061 0.54311 0.73177 0.0
O89 O 0.07467 0.56705 0.71325 0.0
O90 O 0.98223 0.5153 0.35064 0.0
O91 O 0.06987 0.55477 0.85795 0.0
O92 O 0.07871 0.57723 0.43787 0.0
O93 O 0.96135 0.55196 0.43384 0.0
O94 O 0.06327 0.62045 0.51221 0.0
O95 O 0.97378 0.4356 0.59187 0.0
O96 O 0.97924 0.44009 0.4472 0.0
C97 C 0.963 0.41899 0.51174 0.0
C98 C 0.95803 0.52965 0.36297 0.0
O99 O 0.97961 0.51389 0.72827 0.0
O100 O 0.04647 0.4053 0.80127 0.0
O101 O 0.98185 0.57067 0.67608 0.0
O102 O 0.95715 0.40119 0.78745 0.0
O103 O 0.06871 0.45754 0.9102 0.0
O104 O 0.9739 0.45402 0.88903 0.0
O105 O 0.06644 0.4947 0.55174 0.0
O106 O 0.05645 0.43409 0.59441 0.0
C107 C 0.08676 0.61414 0.46442 0.0
C108 C 0.08421 0.5794 0.79679 0.0
C109 C 0.4922 0.08268 0.51261 0.0
C110 C 0.61462 0.09561 0.37945 0.0
C111 C 0.57018 0.96552 0.43908 0.0
Mg112 Mg 0.43535 0.02637 0.6633 0.0
Mg113 Mg 0.47917 0.00529 0.82785 0.0
O114 O 0.46734 -0.00045 0.70524 0.0
Mg115 Mg 0.51395 0.02318 0.62822 0.0
O116 O 0.55684 0.04664 0.54224 0.0
Mg117 Mg 0.52172 0.02095 0.42652 0.0
Mg118 Mg 0.60867 0.051 0.55158 0.0
C119 C 0.53333 0.967 0.76452 0.0
O120 O 0.56372 0.06972 0.73609 0.0
O121 O 0.38345 0.98223 0.74845 0.0
O122 O 0.62278 0.07546 0.69359 0.0
O123 O 0.45924 0.07587 0.78453 0.0
O124 O 0.41708 0.97144 0.86171 0.0
O125 O 0.50115 0.068 0.87983 0.0
O126 O 0.47047 0.97865 0.51196 0.0
O127 O 0.4124 0.97611 0.54382 0.0
C128 C 0.43211 0.9644 0.49484 0.0
C129 C 0.38406 0.96667 0.8218 0.0
O130 O 0.53213 0.97607 0.68374 0.0
O131 O 0.57647 0.06945 0.3578 0.0
O132 O 0.51848 0.97845 0.82714 0.0
O133 O 0.5427 0.97331 0.40975 0.0
O134 O 0.63345 0.09487 0.45172 0.0
O135 O 0.59889 0.99035 0.49842 0.0
O136 O 0.4921 0.06893 0.58827 0.0
O137 O 0.5024 0.06907 0.4454 0.0
C138 C 0.48341 0.08777 0.85583 0.0
C139 C 0.60236 0.08283 0.75027 0.0
C140 C 0.54107 0.583 0.72235 0.0
C141 C 0.42052 0.47611 0.86872 0.0
C142 C 0.46865 0.39298 0.82117 0.0
Mg143 Mg 0.58676 0.57515 0.55569 0.0
Mg144 Mg 0.53535 0.50451 0.38792 0.0
O145 O 0.55068 0.51453 0.51045 0.0
Mg146 Mg 0.50962 0.49455 0.60242 0.0
O147 O 0.47379 0.47916 0.70251 0.0
Mg148 Mg 0.51342 0.49699 0.8114 0.0
Mg149 Mg 0.42639 0.42755 0.70292 0.0
C150 C 0.47971 0.4133 0.4561 0.0
O151 O 0.45277 0.48372 0.51286 0.0
O152 O 0.6333 0.57799 0.45662 0.0
O153 O 0.40481 0.42457 0.56618 0.0
O154 O 0.55802 0.59857 0.4513 0.0
O155 O 0.59606 0.52771 0.3455 0.0
O156 O 0.51653 0.54795 0.34678 0.0
O157 O 0.55809 0.49907 0.70658 0.0
O158 O 0.6144 0.55111 0.66146 0.0
C159 C 0.59692 0.52233 0.713 0.0
C160 C 0.63039 0.5575 0.38265 0.0
O161 O 0.48653 0.42673 0.53946 0.0
O162 O 0.45937 0.49285 0.89051 0.0
O163 O 0.4928 0.43784 0.39402 0.0
O164 O 0.49598 0.43098 0.84019 0.0
O165 O 0.40224 0.45098 0.7989 0.0
O166 O 0.43797 0.38236 0.76478 0.0
O167 O 0.5352 0.56413 0.64548 0.0
O168 O 0.53291 0.56352 0.79125 0.0
C169 C 0.53295 0.58556 0.38135 0.0
C170 C 0.41653 0.4512 0.50825 0.0
C171 C 0.14191 0.48743 0.35579 0.0
C172 C 0.14596 0.45179 0.34904 0.0
H173 H 0.11562 0.51965 0.42341 0.0
C174 C 0.12553 0.42079 0.40583 0.0
H175 H 0.15732 0.51189 0.31294 0.0
C176 C 0.10219 0.42523 0.46843 0.0
C177 C 0.09823 0.46081 0.47657 0.0
H178 H 0.12772 0.39283 0.40279 0.0
H179 H 0.0873 0.40043 0.51081 0.0
C180 C 0.11815 0.49189 0.41911 0.0
C181 C 0.69454 0.1999 0.3114 0.0
C182 C 0.66942 0.21329 0.27107 0.0
H183 H 0.69696 0.15179 0.37833 0.0
C184 C 0.62739 0.18481 0.25273 0.0
H185 H 0.72698 0.22105 0.32602 0.0
C186 C 0.61029 0.14482 0.2802 0.0
C187 C 0.63468 0.13274 0.32909 0.0
H188 H 0.60733 0.19419 0.22096 0.0
H189 H 0.57737 0.12469 0.2693 0.0
C190 C 0.67727 0.16015 0.34134 0.0
C191 C 0.52146 0.6461 0.19969 0.0
C192 C 0.52566 0.68147 0.24888 0.0
H193 H 0.51897 0.58728 0.20303 0.0
C194 C 0.52907 0.68333 0.34196 0.0
H195 H 0.5184 0.64356 0.12788 0.0
C196 C 0.53005 0.65147 0.38488 0.0
C197 C 0.52649 0.6164 0.33583 0.0
H198 H 0.53227 0.71006 0.3818 0.0
H199 H 0.53419 0.65457 0.45668 0.0
C200 C 0.52133 0.61366 0.24271 0.0
C201 C 0.88117 0.47898 0.15949 0.0
C202 C 0.84901 0.48482 0.18483 0.0
H203 H 0.9413 0.48911 0.19518 0.0
C204 C 0.85296 0.50475 0.26918 0.0
H205 H 0.87926 0.46406 0.09459 0.0
C206 C 0.88877 0.52008 0.32536 0.0
C207 C 0.92144 0.51534 0.29946 0.0
H208 H 0.82886 0.50976 0.29106 0.0
H209 H 0.8906 0.53551 0.3896 0.0
C210 C 0.91698 0.4939 0.21652 0.0
C211 C 0.40203 0.90585 0.26547 0.0
C212 C 0.36242 0.87306 0.27499 0.0
H213 H 0.4558 0.9603 0.32877 0.0
C214 C 0.34742 0.86923 0.35878 0.0
H215 H 0.41422 0.90968 0.20155 0.0
C216 C 0.37039 0.89888 0.42997 0.0
C217 C 0.40938 0.93229 0.41988 0.0
H218 H 0.31689 0.84463 0.36835 0.0
H219 H 0.35743 0.89593 0.4929 0.0
C220 C 0.42566 0.93486 0.33791 0.0
C221 C 0.41028 0.29616 0.46153 0.0
C222 C 0.40046 0.28254 0.37055 0.0
H223 H 0.44353 0.34812 0.56065 0.0
C224 C 0.41707 0.31173 0.30892 0.0
H225 H 0.397 0.27416 0.51038 0.0
C226 C 0.44371 0.35374 0.33706 0.0
C227 C 0.45379 0.36786 0.4281 0.0
H228 H 0.40774 0.30235 0.23888 0.0
H229 H 0.45535 0.3753 0.28689 0.0
C230 C 0.43687 0.33844 0.49017 0.0
C231 C 0.59125 0.92791 0.89758 0.0
C232 C 0.56494 0.88458 0.88178 0.0
H233 H 0.60191 0.98836 0.87094 0.0
C234 C 0.53233 0.86913 0.81451 0.0
H235 H 0.61665 0.94089 0.94877 0.0
C236 C 0.52472 0.89646 0.76814 0.0
C237 C 0.5493 0.93967 0.78878 0.0
H238 H 0.51166 0.83593 0.80023 0.0
H239 H 0.49779 0.88381 0.72106 0.0
C240 C 0.58315 0.95515 0.85239 0.0
C241 C 0.68532 0.51407 0.81656 0.0
C242 C 0.67013 0.49586 0.8948 0.0
H243 H 0.67443 0.53767 0.69914 0.0
C244 C 0.63021 0.48554 0.91183 0.0
H245 H 0.71609 0.52277 0.80173 0.0
C246 C 0.60627 0.49398 0.8526 0.0
C247 C 0.62208 0.51355 0.7761 0.0
H248 H 0.61776 0.47174 0.9718 0.0
H249 H 0.57583 0.48618 0.86789 0.0
C250 C 0.66169 0.52319 0.75832 0.0
C251 C 0.1454 0.67634 0.95152 0.0
C252 C 0.18126 0.69855 0.90919 0.0
H253 H 0.08635 0.62234 0.94742 0.0
C254 C 0.18271 0.6838 0.82269 0.0
H255 H 0.14257 0.68708 0.01722 0.0
C256 C 0.14973 0.64612 0.78191 0.0
C257 C 0.11507 0.62298 0.82736 0.0
H258 H 0.2097 0.70056 0.78792 0.0
H259 H 0.15226 0.63408 0.71732 0.0
C260 C 0.11284 0.63923 0.91116 0.0
C261 C 0.44752 0.15203 0.98218 0.0
C262 C 0.47416 0.16614 0.0603 0.0
H263 H 0.43055 0.11756 0.85466 0.0
C264 C 0.50683 0.15823 0.06641 0.0
H265 H 0.42253 0.15831 0.97496 0.0
C266 C 0.5115 0.13483 0.99748 0.0
C267 C 0.48392 0.11937 0.92052 0.0
H268 H 0.52815 0.16909 0.12555 0.0
H269 H 0.53587 0.12769 0.00579 0.0
C270 C 0.45255 0.12919 0.91271 0.0
C271 C 0.36642 0.48194 0.0648 0.0
C272 C 0.33217 0.48148 0.0222 0.0
H273 H 0.4224 0.48177 0.04945 0.0
C274 C 0.33122 0.48689 0.93191 0.0
H275 H 0.36751 0.47754 0.13469 0.0
C276 C 0.36212 0.48837 0.88308 0.0
C277 C 0.39464 0.4852 0.92427 0.0
H278 H 0.30492 0.48608 0.89768 0.0
H279 H 0.35929 0.4894 0.81195 0.0
C280 C 0.39777 0.48432 0.01633 0.0
C281 C 0.8668 0.37624 0.01435 0.0
C282 C 0.83858 0.33663 0.97143 0.0
H283 H 0.92345 0.4333 0.01017 0.0
C284 C 0.84446 0.32624 0.8851 0.0
H285 H 0.86306 0.38537 0.08068 0.0
C286 C 0.87903 0.35358 0.84489 0.0
C287 C 0.90863 0.39211 0.88983 0.0
H288 H 0.82317 0.29623 0.8496 0.0
H289 H 0.88322 0.34377 0.77959 0.0
C290 C 0.90143 0.40376 0.97385 0.0
C291 C 0.90693 0.57564 0.86237 0.0
C292 C 0.87507 0.5368 0.88045 0.0
H293 H 0.96265 0.60816 0.80034 0.0
C294 C 0.87791 0.50104 0.86007 0.0
H295 H 0.90553 0.60362 0.87808 0.0
C296 C 0.91093 0.50366 0.81821 0.0
C297 C 0.9413 0.54199 0.79376 0.0
H298 H 0.85401 0.47073 0.8747 0.0
H299 H 0.91122 0.47525 0.80004 0.0
C300 C 0.93955 0.57815 0.8182 0.0
C301 C 0.27512 0.88773 0.8607 0.0
C302 C 0.27799 0.89005 0.95413 0.0
H303 H 0.3066 0.91066 0.74476 0.0
C304 C 0.31405 0.92189 0.00204 0.0
H305 H 0.24772 0.86372 0.82165 0.0
C306 C 0.34779 0.94782 0.95811 0.0
C307 C 0.346 0.94338 0.86518 0.0
H308 H 0.31731 0.9251 0.07387 0.0
H309 H 0.37591 0.97049 0.99721 0.0
C310 C 0.30881 0.91446 0.81652 0.0
C311 C 0.51009 0.34402 0.97664 0.0
C312 C 0.47595 0.32023 0.02279 0.0
H313 H 0.5345 0.38591 0.87593 0.0
C314 C 0.43833 0.31699 0.99486 0.0
H315 H 0.53935 0.34675 0.99613 0.0
C316 C 0.43508 0.33771 0.92331 0.0
C317 C 0.46964 0.363 0.87976 0.0
H318 H 0.41131 0.29831 0.02821 0.0
H319 H 0.40607 0.33582 0.90533 0.0
C320 C 0.50716 0.36587 0.90706 0.0
C321 C 0.14889 0.42148 0.0265 0.0
C322 C 0.13799 0.37946 0.01325 0.0
H323 H 0.13488 0.46858 0.99483 0.0
C324 C 0.10402 0.35261 0.95241 0.0
H325 H 0.1752 0.44332 0.07042 0.0
C326 C 0.08136 0.36726 0.90705 0.0
C327 C 0.09166 0.40902 0.92242 0.0
H328 H 0.09471 0.32002 0.93971 0.0
H329 H 0.05535 0.3457 0.86103 0.0
C330 C 0.12572 0.436 0.98254 0.0
C331 C 0.68617 0.14569 0.93795 0.0
C332 C 0.67009 0.16785 0.98174 0.0
H333 H 0.67744 0.10143 0.82967 0.0
C334 C 0.63053 0.15938 0.95303 0.0
H335 H 0.71664 0.15169 0.95844 0.0
C336 C 0.60813 0.13067 0.88001 0.0
C337 C 0.62479 0.10986 0.83326 0.0
H338 H 0.61721 0.17581 0.98565 0.0
H339 H 0.57842 0.12623 0.85797 0.0
C340 C 0.66382 0.11714 0.86391 0.0
C341 C 0.53118 0.67603 0.77182 0.0
C342 C 0.5678 0.70167 0.82617 0.0
H343 H 0.4947 0.61799 0.69144 0.0
C344 C 0.59924 0.69194 0.82673 0.0
H345 H 0.50656 0.68296 0.76947 0.0
C346 C 0.59227 0.6547 0.78236 0.0
C347 C 0.55428 0.62732 0.73495 0.0
H348 H 0.62783 0.7111 0.86778 0.0
H349 H 0.61523 0.6456 0.79144 0.0
C350 C 0.52455 0.63917 0.72614 0.0
C351 C 0.50218 0.17896 0.42017 0.0
C352 C 0.46885 0.18078 0.45143 0.0
H353 H 0.53528 0.14639 0.41525 0.0
C354 C 0.44654 0.15336 0.51404 0.0
H355 H 0.52012 0.19947 0.37228 0.0
C356 C 0.45552 0.12284 0.53957 0.0
C357 C 0.48651 0.11886 0.5017 0.0
H358 H 0.42073 0.15402 0.5398 0.0
H359 H 0.43665 0.10083 0.58418 0.0
C360 C 0.51064 0.14821 0.4444 0.0
C361 C 0.316 0.3986 0.36786 0.0
C362 C 0.31293 0.43277 0.34364 0.0
H363 H 0.35218 0.37782 0.43654 0.0
C364 C 0.34684 0.4732 0.36406 0.0
H365 H 0.29077 0.36707 0.35168 0.0
C366 C 0.38241 0.47936 0.41174 0.0
C367 C 0.38437 0.4452 0.44024 0.0
H368 H 0.3457 0.50015 0.34456 0.0
H369 H 0.40733 0.51084 0.43047 0.0
C370 C 0.35133 0.40476 0.4157 0.0
C371 C 0.88584 0.3211 0.37367 0.0
C372 C 0.85002 0.31224 0.41331 0.0
H373 H 0.95041 0.36237 0.37497 0.0
C374 C 0.85366 0.33268 0.49719 0.0
H375 H 0.88422 0.30582 0.3094 0.0
C376 C 0.89188 0.3647 0.53564 0.0
C377 C 0.92678 0.37714 0.48985 0.0
H378 H 0.82663 0.32622 0.5298 0.0
H379 H 0.89333 0.38233 0.59646 0.0
C380 C 0.92382 0.35357 0.41117 0.0
C381 C 0.53504 0.86708 0.28838 0.0
C382 C 0.57172 0.86684 0.28058 0.0
H383 H 0.5057 0.89777 0.34591 0.0
C384 C 0.60704 0.89637 0.33494 0.0
H385 H 0.50713 0.84456 0.24854 0.0
C386 C 0.60618 0.92704 0.39171 0.0
C387 C 0.57003 0.9288 0.39479 0.0
H388 H 0.63576 0.89688 0.3311 0.0
H389 H 0.6343 0.95063 0.42926 0.0
C390 C 0.53422 0.89763 0.34458 0.0
C391 C 0.70004 0.56907 0.20364 0.0
C392 C 0.73533 0.57492 0.25322 0.0
H393 H 0.6389 0.55811 0.20605 0.0
C394 C 0.73744 0.57972 0.34637 0.0
H395 H 0.69727 0.56522 0.13185 0.0
C396 C 0.70418 0.57661 0.38891 0.0
C397 C 0.66783 0.56749 0.33902 0.0
H398 H 0.76418 0.58421 0.38639 0.0
H399 H 0.70603 0.57888 0.46069 0.0
C400 C 0.66644 0.56473 0.24608 0.0
C401 C 0.14828 0.71745 0.36817 0.0
C402 C 0.17849 0.71204 0.32992 0.0
H403 H 0.09595 0.69101 0.44284 0.0
C404 C 0.1809 0.67636 0.34555 0.0
H405 H 0.14571 0.74463 0.35783 0.0
C406 C 0.15241 0.64564 0.39334 0.0
C407 C 0.12101 0.64998 0.42808 0.0
H408 H 0.20394 0.67117 0.31789 0.0
H409 H 0.15421 0.61781 0.40061 0.0
C410 C 0.11996 0.68682 0.41734 0.0
loop_
_geom_bond_atom_site_label_1
_geom_bond_atom_site_label_2
_geom_bond_distance
_geom_bond_site_symmetry_2
_ccdc_geom_bond_type
Mg0 O7 2.141 . S
Mg0 O8 2.048 . S
Mg0 O9 2.048 . S
Mg0 O12 2.141 . S
C1 O2 1.313 . S
C1 O8 1.195 . S
O2 C1 1.313 . S
C3 O4 1.245 . S
C3 O12 1.289 . S
O4 C3 1.245 . S
C5 O6 1.245 . S
C5 O7 1.289 . S
O6 C5 1.245 . S
O7 Mg0 2.141 . S
O7 C5 1.289 . S
O8 Mg0 2.048 . S
O8 C1 1.195 . S
O9 Mg0 2.048 . S
O9 C10 1.195 . S
C10 O9 1.195 . S
C10 O11 1.313 . S
O11 C10 1.313 . S
O12 Mg0 2.141 . S
O12 C3 1.289 . S
Mg13 O20 2.141 . S
Mg13 O21 2.048 . S
Mg13 O22 2.048 . S
Mg13 O25 2.141 . S
C14 O15 1.313 . S
C14 O21 1.195 1_556 S
O15 C14 1.313 . S
C16 O17 1.245 . S
C16 O25 1.289 . S
O17 C16 1.245 . S
C18 O19 1.245 . S
C18 O20 1.289 . S
O19 C18 1.245 . S
O20 Mg13 2.141 . S
O20 C18 1.289 . S
O21 Mg13 2.048 . S
O21 C14 1.195 1_554 S
O22 Mg13 2.048 . S
O22 C23 1.195 1_554 S
C23 O22 1.195 1_556 S
C23 O24 1.313 . S
O24 C23 1.313 . S
O25 Mg13 2.141 . S
O25 C16 1.289 . S
Mg26 O33 2.141 1_554 S
Mg26 O34 2.048 . S
Mg26 O35 2.048 . S
Mg26 O38 2.141 1_554 S
C27 O28 1.313 . S
C27 O34 1.195 . S
O28 C27 1.313 . S
C29 O30 1.245 . S
C29 O38 1.289 . S
O30 C29 1.245 . S
C31 O32 1.245 . S
C31 O33 1.289 . S
O32 C31 1.245 . S
O33 Mg26 2.141 1_556 S
O33 C31 1.289 . S
O34 Mg26 2.048 . S
O34 C27 1.195 . S
O35 Mg26 2.048 . S
O35 C36 1.195 . S
C36 O35 1.195 . S
C36 O37 1.313 . S
O37 C36 1.313 . S
O38 Mg26 2.141 1_556 S
O38 C29 1.289 . S
Mg39 O46 2.141 . S
Mg39 O47 2.048 1_554 S
Mg39 O48 2.048 1_554 S
Mg39 O51 2.141 . S
C40 O41 1.313 . S
C40 O47 1.195 . S
O41 C40 1.313 . S
C42 O43 1.245 . S
C42 O51 1.289 . S
O43 C42 1.245 . S
C44 O45 1.245 . S
C44 O46 1.289 . S
O45 C44 1.245 . S
O46 Mg39 2.141 . S
O46 C44 1.289 . S
O47 Mg39 2.048 1_556 S
O47 C40 1.195 . S
O48 Mg39 2.048 1_556 S
O48 C49 1.195 . S
C49 O48 1.195 . S
C49 O50 1.313 . S
O50 C49 1.313 . S
O51 Mg39 2.141 . S
O51 C42 1.289 . S
Mg52 O59 2.141 . S
Mg52 O60 2.048 . S
Mg52 O61 2.048 . S
Mg52 O64 2.141 . S
C53 O54 1.313 . S
C53 O60 1.195 1_556 S
O54 C53 1.313 . S
C55 O56 1.245 . S
C55 O64 1.289 . S
O56 C55 1.245 . S
C57 O58 1.245 . S
C57 O59 1.289 . S
O58 C57 1.245 . S
O59 Mg52 2.141 . S
O59 C57 1.289 . S
O60 Mg52 2.048 . S
O60 C53 1.195 1_554 S
O61 Mg52 2.048 . S
O61 C62 1.195 . S
C62 O61 1.195 . S
C62 O63 1.313 . S
O63 C62 1.313 . S
O64 Mg52 2.141 . S
O64 C55 1.289 . S
Mg65 O72 2.141 . S
Mg65 O73 2.048 . S
Mg65 O74 2.048 . S
Mg65 O77 2.141 . S
C66 O67 1.313 . S
C66 O73 1.195 . S
O67 C66 1.313 . S
C68 O69 1.245 . S
C68 O77 1.289 . S
O69 C68 1.245 . S
C70 O71 1.245 . S
C70 O72 1.289 . S
O71 C70 1.245 . S
O72 Mg65 2.141 . S
O72 C70 1.289 . S
O73 Mg65 2.048 . S
O73 C66 1.195 . S
O74 Mg65 2.048 . S
O74 C75 1.195 . S
C75 O74 1.195 . S
C75 O76 1.313 . S
O76 C75 1.313 . S
O77 Mg65 2.141 . S
O77 C68 1.289 . S
C78 O105 1.312 . S
C78 O106 1.208 . S
C79 O100 1.331 . S
C79 O103 1.244 . S
C80 O102 1.264 . S
C80 O104 1.273 . S
Mg81 O83 1.936 1_455 S
Mg81 O90 2.081 1_455 S
Mg81 O92 2.023 . S
Mg81 O96 2.031 1_455 S
Mg81 O105 2.291 . S
Mg82 O83 1.963 . S
Mg82 O93 1.942 . S
Mg82 O94 1.955 1_655 S
Mg82 O101 1.986 . S
O83 Mg81 1.936 1_655 S
O83 Mg82 1.963 . S
O83 Mg84 1.915 1_655 S
Mg84 O83 1.915 1_455 S
Mg84 O85 1.915 . S
Mg84 O89 2.013 . S
Mg84 O95 2.114 1_455 S
Mg84 O99 2.013 1_455 S
Mg84 O105 2.114 . S
O85 Mg84 1.915 . S
O85 Mg86 1.936 . S
O85 Mg87 1.963 . S
Mg86 O85 1.936 . S
Mg86 O95 2.291 1_455 S
Mg86 O100 2.081 . S
Mg86 O102 2.023 1_455 S
Mg86 O106 2.031 . S
Mg87 O85 1.963 . S
Mg87 O91 1.986 . S
Mg87 O103 1.942 . S
Mg87 O104 1.955 1_455 S
C88 O99 1.191 . S
C88 O101 1.307 . S
O89 Mg84 2.013 . S
O89 C108 1.191 . S
O90 Mg81 2.081 1_655 S
O90 C98 1.331 . S
O91 Mg87 1.986 . S
O91 C108 1.307 . S
O92 Mg81 2.023 . S
O92 C107 1.264 . S
O93 Mg82 1.942 . S
O93 C98 1.244 . S
O94 Mg82 1.955 1_455 S
O94 C107 1.273 . S
O95 Mg84 2.114 1_655 S
O95 Mg86 2.291 1_655 S
O95 C97 1.312 . S
O96 Mg81 2.031 1_655 S
O96 C97 1.208 . S
C97 O95 1.312 . S
C97 O96 1.208 . S
C98 O90 1.331 . S
C98 O93 1.244 . S
O99 Mg84 2.013 1_655 S
O99 C88 1.191 . S
O100 C79 1.331 . S
O100 Mg86 2.081 . S
O101 Mg82 1.986 . S
O101 C88 1.307 . S
O102 C80 1.264 . S
O102 Mg86 2.023 1_655 S
O103 C79 1.244 . S
O103 Mg87 1.942 . S
O104 C80 1.273 . S
O104 Mg87 1.955 1_655 S
O105 C78 1.312 . S
O105 Mg81 2.291 . S
O105 Mg84 2.114 . S
O106 C78 1.208 . S
O106 Mg86 2.031 . S
C107 O92 1.264 . S
C107 O94 1.273 . S
C108 O89 1.191 . S
C108 O91 1.307 . S
C109 O136 1.312 . S
C109 O137 1.208 . S
C110 O131 1.331 . S
C110 O134 1.244 . S
C111 O133 1.264 . S
C111 O135 1.273 . S
Mg112 O114 1.936 1_545 S
Mg112 O121 2.081 1_545 S
Mg112 O123 2.023 . S
Mg112 O127 2.031 1_545 S
Mg112 O136 2.291 . S
Mg113 O114 1.963 . S
Mg113 O124 1.942 . S
Mg113 O125 1.955 1_565 S
Mg113 O132 1.986 . S
O114 Mg112 1.936 1_565 S
O114 Mg113 1.963 . S
O114 Mg115 1.915 1_565 S
Mg115 O114 1.915 1_545 S
Mg115 O116 1.915 . S
Mg115 O120 2.013 . S
Mg115 O126 2.114 1_545 S
Mg115 O130 2.013 1_545 S
Mg115 O136 2.114 . S
O116 Mg115 1.915 . S
O116 Mg117 1.936 . S
O116 Mg118 1.963 . S
Mg117 O116 1.936 . S
Mg117 O126 2.291 1_545 S
Mg117 O131 2.081 . S
Mg117 O133 2.023 1_545 S
Mg117 O137 2.031 . S
Mg118 O116 1.963 . S
Mg118 O122 1.986 . S
Mg118 O134 1.942 . S
Mg118 O135 1.955 1_545 S
C119 O130 1.191 . S
C119 O132 1.307 . S
O120 Mg115 2.013 . S
O120 C139 1.191 . S
O121 Mg112 2.081 1_565 S
O121 C129 1.331 . S
O122 Mg118 1.986 . S
O122 C139 1.307 . S
O123 Mg112 2.023 . S
O123 C138 1.264 . S
O124 Mg113 1.942 . S
O124 C129 1.244 . S
O125 Mg113 1.955 1_545 S
O125 C138 1.273 . S
O126 Mg115 2.114 1_565 S
O126 Mg117 2.291 1_565 S
O126 C128 1.312 . S
O127 Mg112 2.031 1_565 S
O127 C128 1.208 . S
C128 O126 1.312 . S
C128 O127 1.208 . S
C129 O121 1.331 . S
C129 O124 1.244 . S
O130 Mg115 2.013 1_565 S
O130 C119 1.191 . S
O131 C110 1.331 . S
O131 Mg117 2.081 . S
O132 Mg113 1.986 . S
O132 C119 1.307 . S
O133 C111 1.264 . S
O133 Mg117 2.023 1_565 S
O134 C110 1.244 . S
O134 Mg118 1.942 . S
O135 C111 1.273 . S
O135 Mg118 1.955 1_565 S
O136 C109 1.312 . S
O136 Mg112 2.291 . S
O136 Mg115 2.114 . S
O137 C109 1.208 . S
O137 Mg117 2.031 . S
C138 O123 1.264 . S
C138 O125 1.273 . S
C139 O120 1.191 . S
C139 O122 1.307 . S
C140 O167 1.312 . S
C140 O168 1.208 . S
C141 O162 1.331 . S
C141 O165 1.244 . S
C142 O164 1.264 . S
C142 O166 1.273 . S
Mg143 O145 1.936 . S
Mg143 O152 2.081 . S
Mg143 O154 2.023 . S
Mg143 O158 2.031 . S
Mg143 O167 2.291 . S
Mg144 O145 1.963 . S
Mg144 O155 1.942 . S
Mg144 O156 1.955 . S
Mg144 O163 1.986 . S
O145 Mg143 1.936 . S
O145 Mg144 1.963 . S
O145 Mg146 1.915 . S
Mg146 O145 1.915 . S
Mg146 O147 1.915 . S
Mg146 O151 2.013 . S
Mg146 O157 2.114 . S
Mg146 O161 2.013 . S
Mg146 O167 2.114 . S
O147 Mg146 1.915 . S
O147 Mg148 1.936 . S
O147 Mg149 1.963 . S
Mg148 O147 1.936 . S
Mg148 O157 2.291 . S
Mg148 O162 2.081 . S
Mg148 O164 2.023 . S
Mg148 O168 2.031 . S
Mg149 O147 1.963 . S
Mg149 O153 1.986 . S
Mg149 O165 1.942 . S
Mg149 O166 1.955 . S
C150 O161 1.191 . S
C150 O163 1.307 . S
O151 Mg146 2.013 . S
O151 C170 1.191 . S
O152 Mg143 2.081 . S
O152 C160 1.331 . S
O153 Mg149 1.986 . S
O153 C170 1.307 . S
O154 Mg143 2.023 . S
O154 C169 1.264 . S
O155 Mg144 1.942 . S
O155 C160 1.244 . S
O156 Mg144 1.955 . S
O156 C169 1.273 . S
O157 Mg146 2.114 . S
O157 Mg148 2.291 . S
O157 C159 1.312 . S
O158 Mg143 2.031 . S
O158 C159 1.208 . S
C159 O157 1.312 . S
C159 O158 1.208 . S
C160 O152 1.331 . S
C160 O155 1.244 . S
O161 Mg146 2.013 . S
O161 C150 1.191 . S
O162 C141 1.331 . S
O162 Mg148 2.081 . S
O163 Mg144 1.986 . S
O163 C150 1.307 . S
O164 C142 1.264 . S
O164 Mg148 2.023 . S
O165 C141 1.244 . S
O165 Mg149 1.942 . S
O166 C142 1.273 . S
O166 Mg149 1.955 . S
O167 C140 1.312 . S
O167 Mg143 2.291 . S
O167 Mg146 2.114 . S
O168 C140 1.208 . S
O168 Mg148 2.031 . S
C169 O154 1.264 . S
C169 O156 1.273 . S
C170 O151 1.191 . S
C170 O153 1.307 . S
C171 C172 1.387 . S
C171 H175 0.950 . S
C171 C180 1.390 . S
C172 C171 1.387 . S
C172 C174 1.387 . S
H173 C180 0.950 . S
C174 C172 1.387 . S
C174 C176 1.390 . S
C174 H178 0.950 . S
H175 C171 0.950 . S
C176 C174 1.390 . S
C176 C177 1.387 . S
C176 H179 0.950 . S
C177 C176 1.387 . S
C177 C180 1.387 . S
H178 C174 0.950 . S
H179 C176 0.950 . S
C180 C171 1.390 . S
C180 H173 0.950 . S
C180 C177 1.387 . S
C181 C182 1.387 . S
C181 H185 0.950 . S
C181 C190 1.390 . S
C182 C181 1.387 . S
C182 C184 1.387 . S
H183 C190 0.950 . S
C184 C182 1.387 . S
C184 C186 1.390 . S
C184 H188 0.950 . S
H185 C181 0.950 . S
C186 C184 1.390 . S
C186 C187 1.387 . S
C186 H189 0.950 . S
C187 C186 1.387 . S
C187 C190 1.387 . S
H188 C184 0.950 . S
H189 C186 0.950 . S
C190 C181 1.390 . S
C190 H183 0.950 . S
C190 C187 1.387 . S
C191 C192 1.387 . S
C191 H195 0.950 . S
C191 C200 1.390 . S
C192 C191 1.387 . S
C192 C194 1.387 . S
H193 C200 0.950 . S
C194 C192 1.387 . S
C194 C196 1.390 . S
C194 H198 0.950 . S
H195 C191 0.950 . S
C196 C194 1.390 . S
C196 C197 1.387 . S
C196 H199 0.950 . S
C197 C196 1.387 . S
C197 C200 1.387 . S
H198 C194 0.950 . S
H199 C196 0.950 . S
C200 C191 1.390 . S
C200 H193 0.950 . S
C200 C197 1.387 . S
C201 C202 1.387 . S
C201 H205 0.950 . S
C201 C210 1.390 . S
C202 C201 1.387 . S
C202 C204 1.387 . S
H203 C210 0.950 . S
C204 C202 1.387 . S
C204 C206 1.390 . S
C204 H208 0.950 . S
H205 C201 0.950 . S
C206 C204 1.390 . S
C206 C207 1.387 . S
C206 H209 0.950 . S
C207 C206 1.387 . S
C207 C210 1.387 . S
H208 C204 0.950 . S
H209 C206 0.950 . S
C210 C201 1.390 . S
C210 H203 0.950 . S
C210 C207 1.387 . S
C211 C212 1.387 . S
C211 H215 0.950 . S
C211 C220 1.390 . S
C212 C211 1.387 . S
C212 C214 1.387 . S
H213 C220 0.950 . S
C214 C212 1.387 . S
C214 C216 1.390 . S
C214 H218 0.950 . S
H215 C211 0.950 . S
C216 C214 1.390 . S
C216 C217 1.387 . S
C216 H219 0.950 . S
C217 C216 1.387 . S
C217 C220 1.387 . S
H218 C214 0.950 . S
H219 C216 0.950 . S
C220 C211 1.390 . S
C220 H213 0.950 . S
C220 C217 1.387 . S
C221 C222 1.387 . S
C221 H225 0.950 . S
C221 C230 1.390 . S
C222 C221 1.387 . S
C222 C224 1.387 . S
H223 C230 0.950 . S
C224 C222 1.387 . S
C224 C226 1.390 . S
C224 H228 0.950 . S
H225 C221 0.950 . S
C226 C224 1.390 . S
C226 C227 1.387 . S
C226 H229 0.950 . S
C227 C226 1.387 . S
C227 C230 1.387 . S
H228 C224 0.950 . S
H229 C226 0.950 . S
C230 C221 1.390 . S
C230 H223 0.950 . S
C230 C227 1.387 . S
C231 C232 1.387 . S
C231 H235 0.950 . S
C231 C240 1.390 . S
C232 C231 1.387 . S
C232 C234 1.387 . S
H233 C240 0.950 . S
C234 C232 1.387 . S
C234 C236 1.390 . S
C234 H238 0.950 . S
H235 C231 0.950 . S
C236 C234 1.390 . S
C236 C237 1.387 . S
C236 H239 0.950 . S
C237 C236 1.387 . S
C237 C240 1.387 . S
H238 C234 0.950 . S
H239 C236 0.950 . S
C240 C231 1.390 . S
C240 H233 0.950 . S
C240 C237 1.387 . S
C241 C242 1.387 . S
C241 H245 0.950 . S
C241 C250 1.390 . S
C242 C241 1.387 . S
C242 C244 1.387 . S
H243 C250 0.950 . S
C244 C242 1.387 . S
C244 C246 1.390 . S
C244 H248 0.950 . S
H245 C241 0.950 . S
C246 C244 1.390 . S
C246 C247 1.387 . S
C246 H249 0.950 . S
C247 C246 1.387 . S
C247 C250 1.387 . S
H248 C244 0.950 . S
H249 C246 0.950 . S
C250 C241 1.390 . S
C250 H243 0.950 . S
C250 C247 1.387 . S
C251 C252 1.387 . S
C251 H255 0.950 . S
C251 C260 1.390 . S
C252 C251 1.387 . S
C252 C254 1.387 . S
H253 C260 0.950 . S
C254 C252 1.387 . S
C254 C256 1.390 . S
C254 H258 0.950 . S
H255 C251 0.950 . S
C256 C254 1.390 . S
C256 C257 1.387 . S
C256 H259 0.950 . S
C257 C256 1.387 . S
C257 C260 1.387 . S
H258 C254 0.950 . S
H259 C256 0.950 . S
C260 C251 1.390 . S
C260 H253 0.950 . S
C260 C257 1.387 . S
C261 C262 1.387 1_556 S
C261 H265 0.950 . S
C261 C270 1.390 . S
C262 C261 1.387 1_554 S
C262 C264 1.387 . S
H263 C270 0.950 . S
C264 C262 1.387 . S
C264 C266 1.390 1_554 S
C264 H268 0.950 . S
H265 C261 0.950 . S
C266 C264 1.390 1_556 S
C266 C267 1.387 . S
C266 H269 0.950 . S
C267 C266 1.387 . S
C267 C270 1.387 . S
H268 C264 0.950 . S
H269 C266 0.950 . S
C270 C261 1.390 . S
C270 H263 0.950 . S
C270 C267 1.387 . S
C271 C272 1.387 1_556 S
C271 H275 0.950 . S
C271 C280 1.390 . S
C272 C271 1.387 1_554 S
C272 C274 1.387 . S
H273 C280 0.950 . S
C274 C272 1.387 . S
C274 C276 1.390 1_554 S
C274 H278 0.950 . S
H275 C271 0.950 . S
C276 C274 1.390 1_556 S
C276 C277 1.387 . S
C276 H279 0.950 . S
C277 C276 1.387 . S
C277 C280 1.387 . S
H278 C274 0.950 . S
H279 C276 0.950 . S
C280 C271 1.390 . S
C280 H273 0.950 . S
C280 C277 1.387 . S
C281 C282 1.387 . S
C281 H285 0.950 1_556 S
C281 C290 1.390 . S
C282 C281 1.387 . S
C282 C284 1.387 . S
H283 C290 0.950 . S
C284 C282 1.387 . S
C284 C286 1.390 . S
C284 H288 0.950 . S
H285 C281 0.950 1_554 S
C286 C284 1.390 . S
C286 C287 1.387 . S
C286 H289 0.950 . S
C287 C286 1.387 . S
C287 C290 1.387 . S
H288 C284 0.950 . S
H289 C286 0.950 . S
C290 C281 1.390 . S
C290 H283 0.950 . S
C290 C287 1.387 . S
C291 C292 1.387 . S
C291 H295 0.950 . S
C291 C300 1.390 . S
C292 C291 1.387 . S
C292 C294 1.387 . S
H293 C300 0.950 . S
C294 C292 1.387 . S
C294 C296 1.390 . S
C294 H298 0.950 . S
H295 C291 0.950 . S
C296 C294 1.390 . S
C296 C297 1.387 . S
C296 H299 0.950 . S
C297 C296 1.387 . S
C297 C300 1.387 . S
H298 C294 0.950 . S
H299 C296 0.950 . S
C300 C291 1.390 . S
C300 H293 0.950 . S
C300 C297 1.387 . S
C301 C302 1.387 . S
C301 H305 0.950 . S
C301 C310 1.390 . S
C302 C301 1.387 . S
C302 C304 1.387 . S
H303 C310 0.950 . S
C304 C302 1.387 . S
C304 C306 1.390 . S
C304 H308 0.950 1_556 S
H305 C301 0.950 . S
C306 C304 1.390 . S
C306 C307 1.387 . S
C306 H309 0.950 . S
C307 C306 1.387 . S
C307 C310 1.387 . S
H308 C304 0.950 1_554 S
H309 C306 0.950 . S
C310 C301 1.390 . S
C310 H303 0.950 . S
C310 C307 1.387 . S
C311 C312 1.387 . S
C311 H315 0.950 1_556 S
C311 C320 1.390 . S
C312 C311 1.387 . S
C312 C314 1.387 . S
H313 C320 0.950 . S
C314 C312 1.387 . S
C314 C316 1.390 . S
C314 H318 0.950 . S
H315 C311 0.950 1_554 S
C316 C314 1.390 . S
C316 C317 1.387 . S
C316 H319 0.950 . S
C317 C316 1.387 . S
C317 C320 1.387 . S
H318 C314 0.950 . S
H319 C316 0.950 . S
C320 C311 1.390 . S
C320 H313 0.950 . S
C320 C317 1.387 . S
C321 C322 1.387 . S
C321 H325 0.950 . S
C321 C330 1.390 1_554 S
C322 C321 1.387 . S
C322 C324 1.387 1_554 S
H323 C330 0.950 . S
C324 C322 1.387 1_556 S
C324 C326 1.390 . S
C324 H328 0.950 . S
H325 C321 0.950 . S
C326 C324 1.390 . S
C326 C327 1.387 . S
C326 H329 0.950 . S
C327 C326 1.387 . S
C327 C330 1.387 . S
H328 C324 0.950 . S
H329 C326 0.950 . S
C330 C321 1.390 1_556 S
C330 H323 0.950 . S
C330 C327 1.387 . S
C331 C332 1.387 . S
C331 H335 0.950 . S
C331 C340 1.390 . S
C332 C331 1.387 . S
C332 C334 1.387 . S
H333 C340 0.950 . S
C334 C332 1.387 . S
C334 C336 1.390 . S
C334 H338 0.950 . S
H335 C331 0.950 . S
C336 C334 1.390 . S
C336 C337 1.387 . S
C336 H339 0.950 . S
C337 C336 1.387 . S
C337 C340 1.387 . S
H338 C334 0.950 . S
H339 C336 0.950 . S
C340 C331 1.390 . S
C340 H333 0.950 . S
C340 C337 1.387 . S
C341 C342 1.387 . S
C341 H345 0.950 . S
C341 C350 1.390 . S
C342 C341 1.387 . S
C342 C344 1.387 . S
H343 C350 0.950 . S
C344 C342 1.387 . S
C344 C346 1.390 . S
C344 H348 0.950 . S
H345 C341 0.950 . S
C346 C344 1.390 . S
C346 C347 1.387 . S
C346 H349 0.950 . S
C347 C346 1.387 . S
C347 C350 1.387 . S
H348 C344 0.950 . S
H349 C346 0.950 . S
C350 C341 1.390 . S
C350 H343 0.950 . S
C350 C347 1.387 . S
C351 C352 1.387 . S
C351 H355 0.950 . S
C351 C360 1.390 . S
C352 C351 1.387 . S
C352 C354 1.387 . S
H353 C360 0.950 . S
C354 C352 1.387 . S
C354 C356 1.390 . S
C354 H358 0.950 . S
H355 C351 0.950 . S
C356 C354 1.390 . S
C356 C357 1.387 . S
C356 H359 0.950 . S
C357 C356 1.387 . S
C357 C360 1.387 . S
H358 C354 0.950 . S
H359 C356 0.950 . S
C360 C351 1.390 . S
C360 H353 0.950 . S
C360 C357 1.387 . S
C361 C362 1.387 . S
C361 H365 0.950 . S
C361 C370 1.390 . S
C362 C361 1.387 . S
C362 C364 1.387 . S
H363 C370 0.950 . S
C364 C362 1.387 . S
C364 C366 1.390 . S
C364 H368 0.950 . S
H365 C361 0.950 . S
C366 C364 1.390 . S
C366 C367 1.387 . S
C366 H369 0.950 . S
C367 C366 1.387 . S
C367 C370 1.387 . S
H368 C364 0.950 . S
H369 C366 0.950 . S
C370 C361 1.390 . S
C370 H363 0.950 . S
C370 C367 1.387 . S
C371 C372 1.387 . S
C371 H375 0.950 . S
C371 C380 1.390 . S
C372 C371 1.387 . S
C372 C374 1.387 . S
H373 C380 0.950 . S
C374 C372 1.387 . S
C374 C376 1.390 . S
C374 H378 0.950 . S
H375 C371 0.950 . S
C376 C374 1.390 . S
C376 C377 1.387 . S
C376 H379 0.950 . S
C377 C376 1.387 . S
C377 C380 1.387 . S
H378 C374 0.950 . S
H379 C376 0.950 . S
C380 C371 1.390 . S
C380 H373 0.950 . S
C380 C377 1.387 . S
C381 C382 1.387 . S
C381 H385 0.950 . S
C381 C390 1.390 . S
C382 C381 1.387 . S
C382 C384 1.387 . S
H383 C390 0.950 . S
C384 C382 1.387 . S
C384 C386 1.390 . S
C384 H388 0.950 . S
H385 C381 0.950 . S
C386 C384 1.390 . S
C386 C387 1.387 . S
C386 H389 0.950 . S
C387 C386 1.387 . S
C387 C390 1.387 . S
H388 C384 0.950 . S
H389 C386 0.950 . S
C390 C381 1.390 . S
C390 H383 0.950 . S
C390 C387 1.387 . S
C391 C392 1.387 . S
C391 H395 0.950 . S
C391 C400 1.390 . S
C392 C391 1.387 . S
C392 C394 1.387 . S
H393 C400 0.950 . S
C394 C392 1.387 . S
C394 C396 1.390 . S
C394 H398 0.950 . S
H395 C391 0.950 . S
C396 C394 1.390 . S
C396 C397 1.387 . S
C396 H399 0.950 . S
C397 C396 1.387 . S
C397 C400 1.387 . S
H398 C394 0.950 . S
H399 C396 0.950 . S
C400 C391 1.390 . S
C400 H393 0.950 . S
C400 C397 1.387 . S
C401 C402 1.387 . S
C401 H405 0.950 . S
C401 C410 1.390 . S
C402 C401 1.387 . S
C402 C404 1.387 . S
H403 C410 0.950 . S
C404 C402 1.387 . S
C404 C406 1.390 . S
C404 H408 0.950 . S
H405 C401 0.950 . S
C406 C404 1.390 . S
C406 C407 1.387 . S
C406 H409 0.950 . S
C407 C406 1.387 . S
C407 C410 1.387 . S
H408 C404 0.950 . S
H409 C406 0.950 . S
C410 C401 1.390 . S
C410 H403 0.950 . S
C410 C407 1.387 . S
C172 C5 1.719 . S
C177 C78 1.602 . S
C182 C16 1.371 . S
C187 C110 1.384 . S
C197 C169 1.726 . S
C192 C36 1.791 . S
C207 C98 1.299 . S
C202 C42 1.302 . S
C212 C55 1.581 . S
C217 C128 1.536 . S
C227 C150 1.306 . S
C222 C66 1.284 . S
C237 C119 1.604 . S
C232 C31 1.657 . S
C242 C40 1.347 . S
C247 C159 1.321 . S
C257 C108 1.618 . S
C252 C53 1.612 . S
C262 C68 1.363 . S
C267 C138 1.353 . S
C272 C10 1.721 . S
C277 C141 1.662 . S
C287 C80 1.511 . S
C282 C14 1.507 . S
C297 C88 1.650 . S
C292 C49 1.663 . S
C307 C129 1.434 . S
C302 C62 1.442 1_556 S
C317 C142 1.691 . S
C312 C70 1.724 1_556 S
C327 C79 1.377 . S
C322 C1 1.420 . S
C337 C139 1.582 . S
C332 C23 1.598 . S
C342 C29 1.277 . S
C347 C140 1.218 . S
C357 C109 1.633 . S
C352 C75 1.674 . S
C367 C170 1.229 . S
C362 C3 1.279 . S
C377 C97 1.519 . S
C372 C18 1.559 . S
C387 C111 1.444 . S
C382 C27 1.490 . S
C392 C44 1.649 . S
C397 C160 1.616 . S
C402 C57 1.452 . S
C407 C107 1.451 . S
