# Generated by pormake.
# Topology ocu, (6,8)-cn, num edge types: 1
# Building blocks:
#     Node 0, Type 0, BuildingBlock: KUMBUR_clean_sbu_0, # of connection points: 6
#     Node 1, Type 0, BuildingBlock: KUMBUR_clean_sbu_0, # of connection points: 6
#     Node 2, Type 0, BuildingBlock: KUMBUR_clean_sbu_0, # of connection points: 6
#     Node 3, Type 0, BuildingBlock: KUMBUR_clean_sbu_0, # of connection points: 6
#     Node 4, Type 0, BuildingBlock: KUMBUR_clean_sbu_0, # of connection points: 6
#     Node 5, Type 0, BuildingBlock: KUMBUR_clean_sbu_0, # of connection points: 6
#     Node 6, Type 0, BuildingBlock: KUMBUR_clean_sbu_0, # of connection points: 6
#     Node 7, Type 0, BuildingBlock: KUMBUR_clean_sbu_0, # of connection points: 6
#     Node 8, Type 1, BuildingBlock: GIZVER_clean_sbu_0, # of connection points: 8
#     Node 9, Type 1, BuildingBlock: GIZVER_clean_sbu_0, # of connection points: 8
#     Node 10, Type 1, BuildingBlock: GIZVER_clean_sbu_0, # of connection points: 8
#     Node 11, Type 1, BuildingBlock: GIZVER_clean_sbu_0, # of connection points: 8
#     Node 12, Type 1, BuildingBlock: GIZVER_clean_sbu_0, # of connection points: 8
#     Node 13, Type 1, BuildingBlock: GIZVER_clean_sbu_0, # of connection points: 8
#     Edge 14, Type (0, 1), BuildingBlock: XIVTED_clean_linker_0, # of connection points: 2
#     Edge 15, Type (0, 1), BuildingBlock: XIVTED_clean_linker_0, # of connection points: 2
#     Edge 16, Type (0, 1), BuildingBlock: XIVTED_clean_linker_0, # of connection points: 2
#     Edge 17, Type (0, 1), BuildingBlock: XIVTED_clean_linker_0, # of connection points: 2
#     Edge 18, Type (0, 1), BuildingBlock: XIVTED_clean_linker_0, # of connection points: 2
#     Edge 19, Type (0, 1), BuildingBlock: XIVTED_clean_linker_0, # of connection points: 2
#     Edge 20, Type (0, 1), BuildingBlock: XIVTED_clean_linker_0, # of connection points: 2
#     Edge 21, Type (0, 1), BuildingBlock: XIVTED_clean_linker_0, # of connection points: 2
#     Edge 22, Type (0, 1), BuildingBlock: XIVTED_clean_linker_0, # of connection points: 2
#     Edge 23, Type (0, 1), BuildingBlock: XIVTED_clean_linker_0, # of connection points: 2
#     Edge 24, Type (0, 1), BuildingBlock: XIVTED_clean_linker_0, # of connection points: 2
#     Edge 25, Type (0, 1), BuildingBlock: XIVTED_clean_linker_0, # of connection points: 2
#     Edge 26, Type (0, 1), BuildingBlock: XIVTED_clean_linker_0, # of connection points: 2
#     Edge 27, Type (0, 1), BuildingBlock: XIVTED_clean_linker_0, # of connection points: 2
#     Edge 28, Type (0, 1), BuildingBlock: XIVTED_clean_linker_0, # of connection points: 2
#     Edge 29, Type (0, 1), BuildingBlock: XIVTED_clean_linker_0, # of connection points: 2
#     Edge 30, Type (0, 1), BuildingBlock: XIVTED_clean_linker_0, # of connection points: 2
#     Edge 31, Type (0, 1), BuildingBlock: XIVTED_clean_linker_0, # of connection points: 2
#     Edge 32, Type (0, 1), BuildingBlock: XIVTED_clean_linker_0, # of connection points: 2
#     Edge 33, Type (0, 1), BuildingBlock: XIVTED_clean_linker_0, # of connection points: 2
#     Edge 34, Type (0, 1), BuildingBlock: XIVTED_clean_linker_0, # of connection points: 2
#     Edge 35, Type (0, 1), BuildingBlock: XIVTED_clean_linker_0, # of connection points: 2
#     Edge 36, Type (0, 1), BuildingBlock: XIVTED_clean_linker_0, # of connection points: 2
#     Edge 37, Type (0, 1), BuildingBlock: XIVTED_clean_linker_0, # of connection points: 2
#     Edge 38, Type (0, 1), BuildingBlock: XIVTED_clean_linker_0, # of connection points: 2
#     Edge 39, Type (0, 1), BuildingBlock: XIVTED_clean_linker_0, # of connection points: 2
#     Edge 40, Type (0, 1), BuildingBlock: XIVTED_clean_linker_0, # of connection points: 2
#     Edge 41, Type (0, 1), BuildingBlock: XIVTED_clean_linker_0, # of connection points: 2
#     Edge 42, Type (0, 1), BuildingBlock: XIVTED_clean_linker_0, # of connection points: 2
#     Edge 43, Type (0, 1), BuildingBlock: XIVTED_clean_linker_0, # of connection points: 2
#     Edge 44, Type (0, 1), BuildingBlock: XIVTED_clean_linker_0, # of connection points: 2
#     Edge 45, Type (0, 1), BuildingBlock: XIVTED_clean_linker_0, # of connection points: 2
#     Edge 46, Type (0, 1), BuildingBlock: XIVTED_clean_linker_0, # of connection points: 2
#     Edge 47, Type (0, 1), BuildingBlock: XIVTED_clean_linker_0, # of connection points: 2
#     Edge 48, Type (0, 1), BuildingBlock: XIVTED_clean_linker_0, # of connection points: 2
#     Edge 49, Type (0, 1), BuildingBlock: XIVTED_clean_linker_0, # of connection points: 2
#     Edge 50, Type (0, 1), BuildingBlock: XIVTED_clean_linker_0, # of connection points: 2
#     Edge 51, Type (0, 1), BuildingBlock: XIVTED_clean_linker_0, # of connection points: 2
#     Edge 52, Type (0, 1), BuildingBlock: XIVTED_clean_linker_0, # of connection points: 2
#     Edge 53, Type (0, 1), BuildingBlock: XIVTED_clean_linker_0, # of connection points: 2
#     Edge 54, Type (0, 1), BuildingBlock: XIVTED_clean_linker_0, # of connection points: 2
#     Edge 55, Type (0, 1), BuildingBlock: XIVTED_clean_linker_0, # of connection points: 2
#     Edge 56, Type (0, 1), BuildingBlock: XIVTED_clean_linker_0, # of connection points: 2
#     Edge 57, Type (0, 1), BuildingBlock: XIVTED_clean_linker_0, # of connection points: 2
#     Edge 58, Type (0, 1), BuildingBlock: XIVTED_clean_linker_0, # of connection points: 2
#     Edge 59, Type (0, 1), BuildingBlock: XIVTED_clean_linker_0, # of connection points: 2
#     Edge 60, Type (0, 1), BuildingBlock: XIVTED_clean_linker_0, # of connection points: 2
#     Edge 61, Type (0, 1), BuildingBlock: XIVTED_clean_linker_0, # of connection points: 2
# Relax obj value: 0.167
# Max RMSD: 0.298
# Mean RMSD: 0.214
data_MOF--net-ocu--node1-KUMBUR_clean_sbu_0--node2-GIZVER_clean_sbu_0--edge1-XIVTED_clean_linker_0
_symmetry_space_group_name_H-M    P1
_symmetry_Int_Tables_number       1
_symmetry_cell_setting            triclinic
loop_
_symmetry_equiv_pos_as_xyz
'x, y, z'
_cell_length_a     42.537629
_cell_length_b     44.045852
_cell_length_c     35.192097
_cell_angle_alpha  77.2034
_cell_angle_beta   102.03234
_cell_angle_gamma 111.47829
loop_
_atom_site_label
_atom_site_type_symbol
_atom_site_fract_x
_atom_site_fract_y
_atom_site_fract_z
_atom_type_partial_charge
Tb0 Tb 0.27479 0.24925 0.20544 0.0
C1 C 0.37624 0.31125 0.3401 0.0
C2 C 0.37939 0.26534 0.39143 0.0
C3 C 0.42856 0.31565 0.3858 0.0
C4 C 0.36132 0.27943 0.3583 0.0
C5 C 0.40978 0.33006 0.35406 0.0
C6 C 0.41337 0.28333 0.40449 0.0
C7 C 0.40236 0.3768 0.30689 0.0
N8 N 0.35701 0.32441 0.31009 0.0
C9 C 0.36905 0.35723 0.29445 0.0
C10 C 0.42298 0.36306 0.33652 0.0
Tb11 Tb 0.30316 0.29018 0.29084 0.0
N12 N 0.32834 0.26311 0.34503 0.0
C13 C 0.31118 0.2333 0.36554 0.0
C14 C 0.36244 0.23409 0.41116 0.0
C15 C 0.32805 0.21822 0.39846 0.0
H16 H 0.35333 0.36803 0.27143 0.0
H17 H 0.31449 0.1943 0.41395 0.0
H18 H 0.42779 0.27282 0.42964 0.0
H19 H 0.41207 0.40248 0.29368 0.0
H20 H 0.28464 0.22047 0.35627 0.0
H21 H 0.25115 0.34314 0.08604 0.0
H22 H 0.37539 0.22239 0.43673 0.0
H23 H 0.23311 0.16833 0.21958 0.0
H24 H 0.28564 0.31888 0.14042 0.0
H25 H 0.17669 0.12984 0.19787 0.0
H26 H 0.45449 0.32959 0.39678 0.0
H27 H 0.19051 0.31117 0.06665 0.0
H28 H 0.14227 0.25725 0.07368 0.0
H29 H 0.44868 0.37834 0.34633 0.0
H30 H 0.12192 0.19873 0.10408 0.0
N31 N 0.24509 0.27379 0.15309 0.0
C32 C 0.25945 0.30446 0.1324 0.0
C33 C 0.20573 0.3004 0.0905 0.0
C34 C 0.19193 0.2681 0.10961 0.0
C35 C 0.23989 0.31842 0.10137 0.0
C36 C 0.21264 0.25534 0.1409 0.0
H37 H 0.13486 0.15075 0.14994 0.0
N38 N 0.22323 0.21126 0.18562 0.0
C39 C 0.18316 0.15598 0.18653 0.0
C40 C 0.20128 0.22272 0.15771 0.0
C41 C 0.21522 0.17801 0.19877 0.0
C42 C 0.15958 0.16787 0.15957 0.0
C43 C 0.16877 0.20155 0.14416 0.0
O44 O 0.29193 0.21401 0.19212 0.0
O45 O 0.3074 0.25359 0.2621 0.0
O46 O 0.34705 0.3031 0.25987 0.0
O47 O 0.31748 0.29613 0.19725 0.0
O48 O 0.28431 0.20761 0.2478 0.0
O49 O 0.30087 0.26185 0.15644 0.0
O50 O 0.29302 0.32968 0.30429 0.0
O51 O 0.26961 0.28542 0.23485 0.0
O52 O 0.23077 0.23152 0.23677 0.0
O53 O 0.25733 0.24615 0.29872 0.0
O54 O 0.29417 0.33181 0.2481 0.0
O55 O 0.27637 0.28112 0.33851 0.0
C56 C 0.30488 0.22358 0.27453 0.0
C57 C 0.29422 0.21714 0.12492 0.0
C58 C 0.30731 0.1867 0.08326 0.0
C59 C 0.31539 0.20169 0.11722 0.0
C60 C 0.27743 0.18732 0.05728 0.0
C61 C 0.26463 0.21746 0.09852 0.0
C62 C 0.25633 0.20259 0.06494 0.0
C63 C 0.34558 0.30906 0.22116 0.0
C64 C 0.30355 0.23277 0.16054 0.0
C65 C 0.14713 0.21448 0.11464 0.0
C66 C 0.15872 0.24778 0.09738 0.0
C67 C 0.27205 0.31548 0.22252 0.0
C68 C 0.28754 0.32685 0.37053 0.0
C69 C 0.26538 0.34032 0.37999 0.0
C70 C 0.2742 0.35638 0.41327 0.0
C71 C 0.30566 0.35808 0.43715 0.0
C72 C 0.31845 0.32863 0.39504 0.0
C73 C 0.32736 0.34409 0.4282 0.0
C74 C 0.23095 0.23002 0.27478 0.0
C75 C 0.27811 0.3118 0.33446 0.0
H76 H 0.33804 0.2012 0.13791 0.0
H77 H 0.27067 0.17657 0.0306 0.0
H78 H 0.24807 0.22933 0.10369 0.0
H79 H 0.23355 0.20311 0.04458 0.0
H80 H 0.24118 0.33801 0.36131 0.0
H81 H 0.31397 0.37071 0.46244 0.0
H82 H 0.33573 0.31825 0.38854 0.0
H83 H 0.35141 0.34557 0.44686 0.0
Tb84 Tb 0.81099 0.25093 0.25805 0.0
C85 C 0.68386 0.26978 0.27441 0.0
C86 C 0.63934 0.26376 0.21834 0.0
C87 C 0.62412 0.24542 0.28438 0.0
C88 C 0.67418 0.27298 0.23437 0.0
C89 C 0.65882 0.25669 0.29998 0.0
C90 C 0.61437 0.24905 0.24356 0.0
C91 C 0.70373 0.27031 0.35405 0.0
N92 N 0.71768 0.28141 0.28816 0.0
C93 C 0.72757 0.28321 0.32757 0.0
C94 C 0.66927 0.25637 0.34033 0.0
Tb95 Tb 0.75448 0.29829 0.24129 0.0
N96 N 0.69898 0.28737 0.21109 0.0
C97 C 0.69058 0.29604 0.17139 0.0
C98 C 0.63066 0.27076 0.17757 0.0
C99 C 0.65642 0.28761 0.15407 0.0
H100 H 0.75372 0.29344 0.33995 0.0
H101 H 0.65003 0.29386 0.12259 0.0
H102 H 0.58749 0.24137 0.23184 0.0
H103 H 0.71207 0.27102 0.38517 0.0
H104 H 0.71039 0.30863 0.15287 0.0
H105 H 0.9181 0.26874 0.37488 0.0
H106 H 0.6042 0.26419 0.16412 0.0
H107 H 0.80855 0.25314 0.15983 0.0
H108 H 0.85717 0.25133 0.34664 0.0
H109 H 0.84902 0.27195 0.1132 0.0
H110 H 0.6046 0.23493 0.30359 0.0
H111 H 0.96254 0.29237 0.33088 0.0
H112 H 0.97735 0.30758 0.26214 0.0
H113 H 0.6509 0.24644 0.36095 0.0
H114 H 0.95845 0.30851 0.19101 0.0
N115 N 0.86696 0.26514 0.28711 0.0
C116 C 0.87642 0.26127 0.32718 0.0
C117 C 0.93585 0.28459 0.31836 0.0
C118 C 0.9261 0.28707 0.27759 0.0
C119 C 0.91087 0.27122 0.34328 0.0
C120 C 0.89101 0.27659 0.26276 0.0
H121 H 0.91081 0.29502 0.1354 0.0
N122 N 0.84624 0.26541 0.21027 0.0
C123 C 0.85821 0.27352 0.14403 0.0
C124 C 0.88031 0.27673 0.22299 0.0
C125 C 0.83512 0.26268 0.17125 0.0
C126 C 0.89304 0.28656 0.15663 0.0
C127 C 0.90457 0.28787 0.19658 0.0
O128 O 0.78859 0.20397 0.24032 0.0
O129 O 0.76348 0.2528 0.26865 0.0
O130 O 0.79017 0.30683 0.29589 0.0
O131 O 0.83651 0.29498 0.28615 0.0
O132 O 0.7922 0.23504 0.3155 0.0
O133 O 0.82489 0.21126 0.29254 0.0
O134 O 0.78283 0.34432 0.2601 0.0
O135 O 0.80086 0.29541 0.22933 0.0
O136 O 0.77339 0.23743 0.20622 0.0
O137 O 0.72988 0.25822 0.20595 0.0
O138 O 0.77298 0.31476 0.18345 0.0
O139 O 0.74142 0.34044 0.21366 0.0
C140 C 0.76328 0.2395 0.30418 0.0
C141 C 0.77672 0.16334 0.29756 0.0
C142 C 0.76589 0.1313 0.36264 0.0
C143 C 0.78842 0.15325 0.33688 0.0
C144 C 0.73112 0.11827 0.34822 0.0
C145 C 0.74178 0.1502 0.28355 0.0
C146 C 0.71923 0.12765 0.30878 0.0
C147 C 0.82282 0.30944 0.30402 0.0
C148 C 0.80105 0.18966 0.27332 0.0
C149 C 0.93953 0.29958 0.21091 0.0
C150 C 0.95029 0.2991 0.25138 0.0
C151 C 0.8013 0.30897 0.19391 0.0
C152 C 0.79224 0.38519 0.20354 0.0
C153 C 0.78021 0.39129 0.16337 0.0
C154 C 0.8024 0.41084 0.1361 0.0
C155 C 0.83707 0.4257 0.14961 0.0
C156 C 0.82711 0.40006 0.21664 0.0
C157 C 0.84929 0.42028 0.18976 0.0
C158 C 0.74249 0.23937 0.19335 0.0
C159 C 0.76898 0.36042 0.23027 0.0
H160 H 0.81548 0.16258 0.34751 0.0
H161 H 0.71328 0.10092 0.36734 0.0
H162 H 0.73178 0.15772 0.25347 0.0
H163 H 0.69235 0.11772 0.29784 0.0
H164 H 0.75324 0.38061 0.1531 0.0
H165 H 0.85458 0.44131 0.1292 0.0
H166 H 0.83733 0.39553 0.24742 0.0
H167 H 0.87612 0.43148 0.20003 0.0
Tb168 Tb 0.76636 0.7555 0.29073 0.0
C169 C 0.83803 0.85324 0.15615 0.0
C170 C 0.792 0.86166 0.10662 0.0
C171 C 0.84704 0.90546 0.1115 0.0
C172 C 0.80471 0.8419 0.13891 0.0
C173 C 0.85998 0.88479 0.14205 0.0
C174 C 0.81304 0.89388 0.09376 0.0
C175 C 0.90656 0.8713 0.18573 0.0
N176 N 0.8496 0.83213 0.18474 0.0
C177 C 0.88378 0.84008 0.19824 0.0
C178 C 0.89452 0.89398 0.15793 0.0
Tb179 Tb 0.81035 0.78204 0.20531 0.0
N180 N 0.78565 0.81042 0.15175 0.0
C181 C 0.75439 0.79628 0.13108 0.0
C182 C 0.75913 0.84794 0.08721 0.0
C183 C 0.74049 0.8149 0.09907 0.0
H184 H 0.89345 0.82264 0.21937 0.0
H185 H 0.71535 0.80374 0.08365 0.0
H186 H 0.80365 0.90956 0.06928 0.0
H187 H 0.9334 0.87775 0.19736 0.0
H188 H 0.73936 0.77084 0.13962 0.0
H189 H 0.85934 0.7335 0.41466 0.0
H190 H 0.74837 0.86226 0.06232 0.0
H191 H 0.68376 0.71404 0.27098 0.0
H192 H 0.8369 0.76617 0.35708 0.0
H193 H 0.64275 0.66004 0.29409 0.0
H194 H 0.86338 0.92993 0.10048 0.0
H195 H 0.8247 0.67584 0.43741 0.0
H196 H 0.76871 0.62945 0.43067 0.0
H197 H 0.91226 0.91801 0.14795 0.0
H198 H 0.70943 0.60947 0.39802 0.0
N199 N 0.78996 0.7272 0.34524 0.0
C200 C 0.82121 0.74108 0.3661 0.0
C201 C 0.81465 0.69004 0.41174 0.0
C202 C 0.78183 0.67667 0.392 0.0
C203 C 0.83421 0.72259 0.39906 0.0
C204 C 0.77004 0.69623 0.3587 0.0
H205 H 0.66201 0.62099 0.34753 0.0
N206 N 0.72631 0.70578 0.31044 0.0
C207 C 0.66921 0.66673 0.3074 0.0
C208 C 0.7369 0.68514 0.34071 0.0
C209 C 0.69261 0.69743 0.29444 0.0
C210 C 0.68019 0.64471 0.33746 0.0
C211 C 0.71431 0.65398 0.35493 0.0
O212 O 0.7288 0.76873 0.30753 0.0
O213 O 0.77293 0.78781 0.23417 0.0
O214 O 0.82989 0.82371 0.23757 0.0
O215 O 0.81511 0.79568 0.29947 0.0
O216 O 0.72481 0.76701 0.2482 0.0
O217 O 0.78117 0.78582 0.33421 0.0
O218 O 0.84691 0.76536 0.19231 0.0
O219 O 0.80395 0.75007 0.26204 0.0
O220 O 0.75041 0.71275 0.2601 0.0
O221 O 0.76153 0.7417 0.19784 0.0
O222 O 0.85204 0.77061 0.24757 0.0
O223 O 0.79739 0.75568 0.15801 0.0
C224 C 0.74241 0.78701 0.22182 0.0
C225 C 0.73966 0.78149 0.37224 0.0
C226 C 0.7197 0.8035 0.4173 0.0
C227 C 0.72858 0.80563 0.38006 0.0
C228 C 0.72232 0.77671 0.44665 0.0
C229 C 0.74183 0.75492 0.40187 0.0
C230 C 0.73323 0.75262 0.43888 0.0
C231 C 0.8324 0.82172 0.27607 0.0
C232 C 0.75043 0.78562 0.33367 0.0
C233 C 0.72629 0.63362 0.38682 0.0
C234 C 0.76003 0.64496 0.40536 0.0
C235 C 0.83453 0.75095 0.2743 0.0
C236 C 0.84272 0.75958 0.12626 0.0
C237 C 0.84944 0.73427 0.11453 0.0
C238 C 0.86533 0.74054 0.08079 0.0
C239 C 0.87408 0.77278 0.05904 0.0
C240 C 0.85131 0.79123 0.10382 0.0
C241 C 0.86688 0.79773 0.07037 0.0
C242 C 0.74711 0.71429 0.22148 0.0
C243 C 0.82718 0.75256 0.16228 0.0
H244 H 0.72741 0.82639 0.35722 0.0
H245 H 0.7153 0.77398 0.4754 0.0
H246 H 0.75045 0.73617 0.39657 0.0
H247 H 0.73499 0.73205 0.46165 0.0
H248 H 0.84208 0.70974 0.13172 0.0
H249 H 0.88713 0.77909 0.0336 0.0
H250 H 0.84616 0.81092 0.11223 0.0
H251 H 0.87374 0.82233 0.05334 0.0
Tb252 Tb 0.30927 0.73608 0.27255 0.0
C253 C 0.25443 0.82577 0.13348 0.0
C254 C 0.30191 0.87379 0.1141 0.0
C255 C 0.25261 0.85376 0.06568 0.0
C256 C 0.28666 0.84733 0.14271 0.0
C257 C 0.23651 0.82918 0.09516 0.0
C258 C 0.28529 0.87613 0.07517 0.0
C259 C 0.1868 0.78691 0.11939 0.0
N260 N 0.23954 0.80319 0.16311 0.0
C261 C 0.20564 0.78468 0.15696 0.0
C262 C 0.20247 0.80888 0.08817 0.0
Tb263 Tb 0.27204 0.80086 0.22391 0.0
N264 N 0.30127 0.84462 0.18085 0.0
C265 C 0.32949 0.86981 0.193 0.0
C266 C 0.33223 0.8982 0.12601 0.0
C267 C 0.34561 0.8966 0.16582 0.0
H268 H 0.19333 0.76735 0.18074 0.0
H269 H 0.36844 0.91591 0.17562 0.0
H270 H 0.29682 0.89598 0.05265 0.0
H271 H 0.16027 0.7716 0.11453 0.0
H272 H 0.3403 0.86927 0.2236 0.0
H273 H 0.21181 0.62124 0.31927 0.0
H274 H 0.34471 0.91901 0.10503 0.0
H275 H 0.38828 0.76505 0.31691 0.0
H276 H 0.24148 0.66743 0.27195 0.0
H277 H 0.41957 0.76198 0.3843 0.0
H278 H 0.23945 0.85658 0.03592 0.0
H279 H 0.23298 0.61907 0.39047 0.0
H280 H 0.2791 0.64288 0.44414 0.0
H281 H 0.18778 0.81073 0.05915 0.0
H282 H 0.33648 0.68182 0.46213 0.0
N283 N 0.27899 0.69256 0.31528 0.0
C284 C 0.25125 0.66721 0.30267 0.0
C285 C 0.24618 0.63962 0.36971 0.0
C286 C 0.27604 0.6642 0.38228 0.0
C287 C 0.23426 0.64069 0.32956 0.0
C288 C 0.29227 0.69024 0.35387 0.0
H289 H 0.38968 0.72585 0.4397 0.0
N290 N 0.34058 0.73258 0.33412 0.0
C291 C 0.39271 0.74774 0.37903 0.0
C292 C 0.32448 0.71132 0.36375 0.0
C293 C 0.37488 0.74938 0.34084 0.0
C294 C 0.37572 0.72748 0.41024 0.0
C295 C 0.34141 0.70814 0.40262 0.0
O296 O 0.34928 0.72179 0.26396 0.0
O297 O 0.31141 0.7797 0.22885 0.0
O298 O 0.2616 0.76577 0.18313 0.0
O299 O 0.26368 0.71913 0.2291 0.0
O300 O 0.35598 0.77062 0.2494 0.0
O301 O 0.29746 0.69649 0.24186 0.0
O302 O 0.23126 0.81315 0.23387 0.0
O303 O 0.2703 0.75765 0.26834 0.0
O304 O 0.32262 0.77269 0.31246 0.0
O305 O 0.31655 0.81908 0.26787 0.0
O306 O 0.22554 0.76632 0.24763 0.0
O307 O 0.28344 0.8422 0.25113 0.0
C308 C 0.34264 0.79024 0.22483 0.0
C309 C 0.33373 0.66484 0.26102 0.0
C310 C 0.34565 0.61763 0.24894 0.0
C311 C 0.34226 0.64917 0.23575 0.0
C312 C 0.33932 0.60188 0.28743 0.0
C313 C 0.3288 0.64897 0.29955 0.0
C314 C 0.33122 0.61756 0.31249 0.0
C315 C 0.25413 0.73325 0.19324 0.0
C316 C 0.32875 0.69709 0.24667 0.0
C317 C 0.32413 0.68442 0.43196 0.0
C318 C 0.29145 0.66231 0.42174 0.0
C319 C 0.23912 0.74718 0.27273 0.0
C320 C 0.24335 0.8699 0.2347 0.0
C321 C 0.22892 0.88049 0.25939 0.0
C322 C 0.22174 0.91023 0.2479 0.0
C323 C 0.22962 0.92951 0.21135 0.0
C324 C 0.25059 0.88916 0.19806 0.0
C325 C 0.24386 0.91889 0.18656 0.0
C326 C 0.32757 0.80493 0.30289 0.0
C327 C 0.25159 0.83932 0.24864 0.0
H328 H 0.3468 0.6618 0.20624 0.0
H329 H 0.34065 0.57733 0.29836 0.0
H330 H 0.32289 0.66071 0.31962 0.0
H331 H 0.32684 0.6053 0.34213 0.0
H332 H 0.22361 0.86566 0.28784 0.0
H333 H 0.22411 0.95237 0.2016 0.0
H334 H 0.26153 0.88141 0.17847 0.0
H335 H 0.24957 0.93369 0.15829 0.0
Tb336 Tb 0.32588 0.73074 0.77378 0.0
C337 C 0.2085 0.75689 0.78769 0.0
C338 C 0.15775 0.73593 0.74216 0.0
C339 C 0.15312 0.73145 0.81089 0.0
C340 C 0.19348 0.75071 0.75051 0.0
C341 C 0.1884 0.74804 0.81829 0.0
C342 C 0.13778 0.72543 0.7728 0.0
C343 C 0.23889 0.77487 0.86025 0.0
N344 N 0.2427 0.77266 0.79352 0.0
C345 C 0.25766 0.78313 0.82898 0.0
C346 C 0.20421 0.75668 0.85514 0.0
Tb347 Tb 0.27217 0.78098 0.74128 0.0
N348 N 0.21371 0.76118 0.72195 0.0
C349 C 0.19895 0.76123 0.6833 0.0
C350 C 0.14306 0.73323 0.70312 0.0
C351 C 0.16373 0.74663 0.67343 0.0
H352 H 0.28404 0.79776 0.83426 0.0
H353 H 0.15258 0.7458 0.64292 0.0
H354 H 0.11039 0.71356 0.76712 0.0
H355 H 0.25126 0.78265 0.88833 0.0
H356 H 0.21458 0.77179 0.65987 0.0
H357 H 0.45574 0.80078 0.83063 0.0
H358 H 0.11575 0.72204 0.69546 0.0
H359 H 0.30494 0.68513 0.69937 0.0
H360 H 0.39733 0.76343 0.83601 0.0
H361 H 0.32418 0.69041 0.63716 0.0
H362 H 0.13738 0.724 0.83415 0.0
H363 H 0.47781 0.81596 0.7669 0.0
H364 H 0.46873 0.80719 0.69682 0.0
H365 H 0.18975 0.7503 0.87942 0.0
H366 H 0.4325 0.77699 0.6436 0.0
N367 N 0.3837 0.76055 0.77448 0.0
C368 C 0.4055 0.77107 0.80732 0.0
C369 C 0.45161 0.80013 0.76883 0.0
C370 C 0.43068 0.7862 0.73652 0.0
C371 C 0.43921 0.79175 0.80473 0.0
C372 C 0.39667 0.76583 0.74062 0.0
H373 H 0.37863 0.7331 0.62114 0.0
N374 N 0.34478 0.72814 0.71741 0.0
C375 C 0.33882 0.70774 0.65714 0.0
C376 C 0.37647 0.74896 0.71097 0.0
C377 C 0.32733 0.70563 0.6924 0.0
C378 C 0.36961 0.73167 0.64832 0.0
C379 C 0.38949 0.75188 0.67602 0.0
O380 O 0.30893 0.67877 0.78002 0.0
O381 O 0.27755 0.73567 0.77597 0.0
O382 O 0.31485 0.80405 0.78455 0.0
O383 O 0.34256 0.76603 0.81443 0.0
O384 O 0.30379 0.72138 0.82805 0.0
O385 O 0.35406 0.70486 0.81551 0.0
O386 O 0.29171 0.83077 0.74995 0.0
O387 O 0.32058 0.77611 0.73887 0.0
O388 O 0.28043 0.70532 0.73545 0.0
O389 O 0.25327 0.74313 0.70312 0.0
O390 O 0.29347 0.78938 0.6869 0.0
O391 O 0.25597 0.81616 0.69925 0.0
C392 C 0.27509 0.72517 0.81201 0.0
C393 C 0.31533 0.65764 0.84819 0.0
C394 C 0.31907 0.65068 0.91981 0.0
C395 C 0.33416 0.6639 0.88512 0.0
C396 C 0.28482 0.62999 0.91736 0.0
C397 C 0.28106 0.63675 0.84639 0.0
C398 C 0.26602 0.62302 0.8808 0.0
C399 C 0.33749 0.79428 0.81151 0.0
C400 C 0.33032 0.67647 0.81193 0.0
C401 C 0.42235 0.77395 0.67053 0.0
C402 C 0.44296 0.79112 0.7008 0.0
C403 C 0.32225 0.78551 0.70245 0.0
C404 C 0.30074 0.86644 0.68877 0.0
C405 C 0.28724 0.87508 0.64975 0.0
C406 C 0.30807 0.89804 0.62283 0.0
C407 C 0.343 0.91264 0.63556 0.0
C408 C 0.33568 0.88154 0.70117 0.0
C409 C 0.35661 0.90447 0.6746 0.0
C410 C 0.25779 0.71437 0.70783 0.0
C411 C 0.27795 0.84084 0.7152 0.0
H412 H 0.3608 0.6793 0.88681 0.0
H413 H 0.27265 0.61923 0.94363 0.0
H414 H 0.2656 0.63171 0.81838 0.0
H415 H 0.23954 0.60726 0.87907 0.0
H416 H 0.26004 0.86442 0.64064 0.0
H417 H 0.35958 0.93067 0.61555 0.0
H418 H 0.34693 0.87547 0.73114 0.0
H419 H 0.3835 0.916 0.68433 0.0
Tb420 Tb 0.27106 0.2522 0.79403 0.0
C421 C 0.33997 0.34826 0.65589 0.0
C422 C 0.29405 0.35558 0.60541 0.0
C423 C 0.34892 0.39966 0.60967 0.0
C424 C 0.30672 0.33645 0.63848 0.0
C425 C 0.36176 0.37978 0.64138 0.0
C426 C 0.31508 0.38755 0.59166 0.0
C427 C 0.40785 0.36839 0.68837 0.0
N428 N 0.35144 0.32806 0.68593 0.0
C429 C 0.38529 0.33721 0.7014 0.0
C430 C 0.39597 0.38992 0.65847 0.0
Tb431 Tb 0.3125 0.27782 0.7065 0.0
N432 N 0.2875 0.3053 0.65237 0.0
C433 C 0.25612 0.29083 0.63211 0.0
C434 C 0.26111 0.34158 0.58633 0.0
C435 C 0.24229 0.30887 0.59938 0.0
H436 H 0.39475 0.32085 0.72468 0.0
H437 H 0.21707 0.29748 0.58427 0.0
H438 H 0.30572 0.40272 0.5665 0.0
H439 H 0.4344 0.37576 0.70136 0.0
H440 H 0.24094 0.26561 0.64136 0.0
H441 H 0.36634 0.22826 0.91408 0.0
H442 H 0.25038 0.35544 0.56092 0.0
H443 H 0.18745 0.2133 0.78179 0.0
H444 H 0.34246 0.26193 0.85912 0.0
H445 H 0.14678 0.1589 0.80443 0.0
H446 H 0.36516 0.42405 0.59823 0.0
H447 H 0.33248 0.17001 0.93548 0.0
H448 H 0.27634 0.12367 0.92928 0.0
H449 H 0.41354 0.41397 0.64823 0.0
H450 H 0.2161 0.10467 0.89936 0.0
N451 N 0.29549 0.22306 0.84713 0.0
C452 C 0.32711 0.23662 0.86745 0.0
C453 C 0.32182 0.18467 0.91089 0.0
C454 C 0.28858 0.17162 0.89203 0.0
C455 C 0.34092 0.21754 0.899 0.0
C456 C 0.276 0.19182 0.86016 0.0
H457 H 0.1673 0.11789 0.85317 0.0
N458 N 0.23114 0.20284 0.81558 0.0
C459 C 0.17368 0.16476 0.81555 0.0
C460 C 0.24242 0.18127 0.84373 0.0
C461 C 0.1969 0.19561 0.80272 0.0
C462 C 0.18537 0.14164 0.84295 0.0
C463 C 0.22004 0.15005 0.8581 0.0
O464 O 0.23601 0.26999 0.80858 0.0
O465 O 0.27635 0.28386 0.73682 0.0
O466 O 0.33001 0.32025 0.73798 0.0
O467 O 0.32122 0.29069 0.80057 0.0
O468 O 0.22892 0.26412 0.75323 0.0
O469 O 0.28664 0.28032 0.84009 0.0
O470 O 0.34986 0.26576 0.68755 0.0
O471 O 0.30715 0.24579 0.76342 0.0
O472 O 0.24969 0.21033 0.76188 0.0
O473 O 0.26345 0.23781 0.6994 0.0
O474 O 0.35459 0.26554 0.7471 0.0
O475 O 0.29682 0.24655 0.66394 0.0
C476 C 0.24573 0.28326 0.72572 0.0
C477 C 0.2433 0.27782 0.87437 0.0
C478 C 0.22089 0.29769 0.91929 0.0
C479 C 0.23473 0.30283 0.88427 0.0
C480 C 0.21594 0.26687 0.94407 0.0
C481 C 0.23833 0.24756 0.89972 0.0
C482 C 0.22476 0.2422 0.9344 0.0
C483 C 0.33608 0.31771 0.77677 0.0
C484 C 0.25708 0.28363 0.83733 0.0
C485 C 0.23278 0.1289 0.88815 0.0
C486 C 0.26706 0.1397 0.90514 0.0
C487 C 0.33767 0.24589 0.77426 0.0
C488 C 0.33678 0.25127 0.62346 0.0
C489 C 0.34879 0.2277 0.61585 0.0
C490 C 0.35626 0.2291 0.5781 0.0
C491 C 0.35122 0.25455 0.54799 0.0
C492 C 0.3322 0.27653 0.59307 0.0
C493 C 0.33936 0.27808 0.55554 0.0
C494 C 0.24631 0.21209 0.72329 0.0
C495 C 0.32763 0.24778 0.66277 0.0
H496 H 0.23914 0.32632 0.86476 0.0
H497 H 0.20466 0.26144 0.97073 0.0
H498 H 0.24482 0.2281 0.89265 0.0
H499 H 0.22079 0.2187 0.95377 0.0
H500 H 0.35179 0.20792 0.6393 0.0
H501 H 0.35707 0.25669 0.5188 0.0
H502 H 0.32284 0.29482 0.59821 0.0
H503 H 0.33575 0.29763 0.53217 0.0
Tb504 Tb 0.80766 0.23405 0.77121 0.0
C505 C 0.75398 0.32411 0.63155 0.0
C506 C 0.80203 0.37185 0.61341 0.0
C507 C 0.75399 0.35176 0.56361 0.0
C508 C 0.78592 0.34552 0.64162 0.0
C509 C 0.737 0.32745 0.59271 0.0
C510 C 0.78652 0.37406 0.574 0.0
C511 C 0.68628 0.28628 0.61585 0.0
N512 N 0.73825 0.30203 0.66091 0.0
C513 C 0.70417 0.28442 0.654 0.0
C514 C 0.70295 0.30747 0.58488 0.0
Tb515 Tb 0.7697 0.29832 0.72238 0.0
N516 N 0.79937 0.34278 0.68013 0.0
C517 C 0.82718 0.36797 0.69295 0.0
C518 C 0.83199 0.39625 0.62614 0.0
C519 C 0.84408 0.39474 0.66627 0.0
H520 H 0.69096 0.26801 0.67769 0.0
H521 H 0.86661 0.41406 0.67671 0.0
H522 H 0.79872 0.39377 0.55176 0.0
H523 H 0.65962 0.27146 0.61042 0.0
H524 H 0.83712 0.36737 0.72367 0.0
H525 H 0.71179 0.1184 0.81884 0.0
H526 H 0.84512 0.41698 0.60553 0.0
H527 H 0.88593 0.26814 0.81523 0.0
H528 H 0.7403 0.16499 0.77094 0.0
H529 H 0.91831 0.26439 0.88191 0.0
H530 H 0.7416 0.3545 0.53347 0.0
H531 H 0.73438 0.116 0.88972 0.0
H532 H 0.78149 0.1396 0.94257 0.0
H533 H 0.68897 0.3092 0.55545 0.0
H534 H 0.83852 0.17938 0.95982 0.0
N535 N 0.77832 0.19021 0.81405 0.0
C536 C 0.7506 0.16469 0.80168 0.0
C537 C 0.74702 0.13676 0.86879 0.0
C538 C 0.77701 0.16142 0.88093 0.0
C539 C 0.73429 0.13796 0.82881 0.0
C540 C 0.79246 0.18781 0.85238 0.0
H541 H 0.89033 0.22537 0.93705 0.0
N542 N 0.83964 0.23208 0.83238 0.0
C543 C 0.89188 0.24889 0.87675 0.0
C544 C 0.82451 0.20957 0.86191 0.0
C545 C 0.87343 0.25084 0.83892 0.0
C546 C 0.87594 0.22698 0.90783 0.0
C547 C 0.84203 0.20646 0.90048 0.0
O548 O 0.84884 0.2215 0.76288 0.0
O549 O 0.80932 0.27743 0.72711 0.0
O550 O 0.75745 0.26222 0.68204 0.0
O551 O 0.76374 0.21582 0.7266 0.0
O552 O 0.85419 0.26904 0.74797 0.0
O553 O 0.7969 0.19314 0.74349 0.0
O554 O 0.72849 0.30908 0.73398 0.0
O555 O 0.76786 0.25461 0.76571 0.0
O556 O 0.81679 0.26866 0.8121 0.0
O557 O 0.81483 0.3155 0.76646 0.0
O558 O 0.72297 0.26301 0.74453 0.0
O559 O 0.78018 0.33856 0.7515 0.0
C560 C 0.84057 0.28822 0.72299 0.0
C561 C 0.83621 0.16462 0.76193 0.0
C562 C 0.8567 0.12316 0.74975 0.0
C563 C 0.85078 0.15349 0.73795 0.0
C564 C 0.84748 0.10382 0.78579 0.0
C565 C 0.82781 0.14536 0.79824 0.0
C566 C 0.83326 0.11503 0.80996 0.0
C567 C 0.75285 0.23002 0.69151 0.0
C568 C 0.82876 0.19557 0.74745 0.0
C569 C 0.82568 0.18196 0.92987 0.0
C570 C 0.79318 0.15939 0.92008 0.0
C571 C 0.73652 0.24363 0.76925 0.0
C572 C 0.73894 0.36497 0.73754 0.0
C573 C 0.7241 0.37437 0.76319 0.0
C574 C 0.71604 0.40375 0.75277 0.0
C575 C 0.72308 0.42351 0.71617 0.0
C576 C 0.7454 0.38487 0.70105 0.0
C577 C 0.73754 0.41402 0.69052 0.0
C578 C 0.82422 0.30118 0.80229 0.0
C579 C 0.74821 0.3348 0.74988 0.0
H580 H 0.85719 0.16833 0.70983 0.0
H581 H 0.852 0.08048 0.79565 0.0
H582 H 0.81692 0.15353 0.81741 0.0
H583 H 0.82657 0.10024 0.83794 0.0
H584 H 0.71934 0.35904 0.7915 0.0
H585 H 0.71686 0.44604 0.70705 0.0
H586 H 0.75661 0.37798 0.68083 0.0
H587 H 0.74262 0.42931 0.66233 0.0
Tb588 Tb 0.77898 0.74415 0.71135 0.0
C589 C 0.89015 0.81997 0.83128 0.0
C590 C 0.89954 0.77826 0.88547 0.0
C591 C 0.94579 0.82978 0.8714 0.0
C592 C 0.87819 0.78915 0.85325 0.0
C593 C 0.92388 0.841 0.84048 0.0
C594 C 0.93363 0.79842 0.89388 0.0
C595 C 0.91081 0.88347 0.79017 0.0
N596 N 0.86804 0.82995 0.80201 0.0
C597 C 0.87754 0.86175 0.78233 0.0
C598 C 0.93423 0.87294 0.81907 0.0
Tb599 Tb 0.8143 0.79225 0.79054 0.0
N600 N 0.84501 0.7707 0.84445 0.0
C601 C 0.83091 0.74197 0.86883 0.0
C602 C 0.88569 0.74795 0.909 0.0
C603 C 0.85108 0.72997 0.901 0.0
H604 H 0.85988 0.8703 0.75979 0.0
H605 H 0.83991 0.70681 0.91954 0.0
H606 H 0.9505 0.79036 0.91829 0.0
H607 H 0.91837 0.90833 0.77389 0.0
H608 H 0.80426 0.7276 0.8632 0.0
H609 H 0.75465 0.83061 0.58284 0.0
H610 H 0.90128 0.73871 0.93393 0.0
H611 H 0.7339 0.66547 0.73874 0.0
H612 H 0.78961 0.80927 0.63941 0.0
H613 H 0.67584 0.62719 0.72283 0.0
H614 H 0.9719 0.84545 0.87876 0.0
H615 H 0.69331 0.79921 0.56753 0.0
H616 H 0.64372 0.74742 0.58225 0.0
H617 H 0.95994 0.88987 0.8252 0.0
H618 H 0.6222 0.69172 0.62037 0.0
N619 N 0.74856 0.7663 0.65755 0.0
C620 C 0.763 0.79504 0.63339 0.0
C621 C 0.70856 0.78969 0.59265 0.0
C622 C 0.69439 0.75925 0.61584 0.0
C623 C 0.74318 0.80739 0.60111 0.0
C624 C 0.71541 0.74805 0.64823 0.0
H625 H 0.63424 0.64635 0.67233 0.0
N626 N 0.72544 0.70658 0.69835 0.0
C627 C 0.68319 0.65245 0.70769 0.0
C628 C 0.70339 0.71694 0.6694 0.0
C629 C 0.7162 0.67432 0.71659 0.0
C630 C 0.65974 0.66338 0.67929 0.0
C631 C 0.66989 0.69583 0.65922 0.0
O632 O 0.79161 0.70512 0.70045 0.0
O633 O 0.81511 0.75193 0.76521 0.0
O634 O 0.85556 0.80193 0.75687 0.0
O635 O 0.82232 0.7893 0.69725 0.0
O636 O 0.78966 0.70452 0.75629 0.0
O637 O 0.80269 0.75156 0.66149 0.0
O638 O 0.80115 0.83139 0.80016 0.0
O639 O 0.77775 0.78405 0.73701 0.0
O640 O 0.73794 0.73263 0.7464 0.0
O641 O 0.77149 0.74723 0.80533 0.0
O642 O 0.80353 0.83162 0.74512 0.0
O643 O 0.79218 0.78622 0.8413 0.0
C644 C 0.81252 0.72217 0.78005 0.0
C645 C 0.79299 0.70377 0.63415 0.0
C646 C 0.80609 0.67298 0.59274 0.0
C647 C 0.8158 0.69142 0.62402 0.0
C648 C 0.77304 0.66768 0.57156 0.0
C649 C 0.76041 0.69832 0.61238 0.0
C650 C 0.75058 0.68044 0.58121 0.0
C651 C 0.85178 0.80374 0.71827 0.0
C652 C 0.80356 0.72161 0.66807 0.0
C653 C 0.64814 0.70742 0.62843 0.0
C654 C 0.66039 0.73913 0.60675 0.0
C655 C 0.78027 0.81371 0.72191 0.0
C656 C 0.80107 0.83519 0.86596 0.0
C657 C 0.77771 0.84645 0.87695 0.0
C658 C 0.78788 0.86664 0.90661 0.0
C659 C 0.82205 0.87493 0.92505 0.0
C660 C 0.83467 0.84356 0.88523 0.0
C661 C 0.84502 0.86327 0.91462 0.0
C662 C 0.74206 0.732 0.78493 0.0
C663 C 0.79023 0.81582 0.83336 0.0
H664 H 0.84117 0.69642 0.64057 0.0
H665 H 0.76412 0.65315 0.54794 0.0
H666 H 0.74255 0.7077 0.61953 0.0
H667 H 0.72527 0.67612 0.56467 0.0
H668 H 0.75162 0.83929 0.86234 0.0
H669 H 0.83144 0.89099 0.94713 0.0
H670 H 0.85296 0.83513 0.87735 0.0
H671 H 0.87114 0.8699 0.9291 0.0
Co672 Co 0.07565 0.97905 0.45836 0.0
Co673 Co 0.09516 0.9863 0.53094 0.0
Co674 Co 1.0394 0.02123 0.49487 0.0
O675 O 0.07999 1.0123 0.48778 0.0
H676 H 0.09854 0.03246 0.48131 0.0
O677 O 0.99875 0.0301 0.50227 0.0
Co678 Co 1.00311 0.06049 0.53591 0.0
Co679 Co 0.98585 0.06014 0.4636 0.0
H680 H 0.97953 1.01001 0.50626 0.0
O681 O 0.14072 0.99436 0.54057 0.0
O682 O 0.10057 0.95764 0.50424 0.0
O683 O 0.06575 0.96287 0.57058 0.0
O684 O 1.025 0.98321 0.53839 0.0
O685 O 0.06953 0.04968 0.5339 0.0
O686 O 1.00473 0.08609 0.56835 0.0
O687 O 0.96419 0.03754 0.55777 0.0
O688 O 0.04514 0.08798 0.51892 0.0
O689 O 0.0535 0.05895 0.45072 0.0
O690 O 1.01669 0.08622 0.42675 0.0
O691 O 0.97721 0.08422 0.49359 0.0
O692 O 0.94056 0.05066 0.45105 0.0
C693 C 0.10316 0.97275 0.42129 0.0
C694 C 1.00815 0.963 0.4572 0.0
C695 C 1.0357 0.96368 0.56611 0.0
C696 C 0.13243 0.9719 0.51826 0.0
C697 C 0.97631 0.06306 0.57622 0.0
C698 C 0.07047 0.07867 0.53506 0.0
C699 C 0.04432 0.0815 0.42662 0.0
C700 C 0.94624 0.07008 0.47659 0.0
O701 O 0.07449 0.95049 0.42986 0.0
O702 O 0.11498 0.99983 0.43684 0.0
O703 O 1.00948 0.99252 0.45611 0.0
O704 O 1.033 0.95352 0.47522 0.0
Co705 Co 0.58491 0.96505 0.99553 0.0
Co706 Co 0.58846 0.97808 0.0635 0.0
Co707 Co 0.54148 0.018 0.9992 0.0
O708 O 0.58311 1.00283 0.01392 0.0
H709 H 0.60379 0.02148 0.0106 0.0
O710 O 0.49984 0.03312 0.98447 0.0
Co711 Co 0.49953 0.07235 0.00056 0.0
Co712 Co 0.49383 0.05606 0.93379 0.0
H713 H 0.47918 1.01474 0.9891 0.0
O714 O 0.63107 0.97623 0.09031 0.0
O715 O 0.59404 0.9413 0.05079 0.0
O716 O 0.54914 0.96368 0.08989 0.0
O717 O 0.51501 0.9843 0.042 0.0
O718 O 0.56417 0.0511 0.03574 0.0
O719 O 0.49602 0.10597 0.01722 0.0
O720 O 0.45444 0.0583 0.00558 0.0
O721 O 0.54719 0.09183 0.99911 0.0
O722 O 0.56776 0.05152 0.9564 0.0
O723 O 0.53279 0.06936 0.90689 0.0
O724 O 0.489 0.09401 0.9444 0.0
O725 O 0.45092 0.05752 0.9075 0.0
C726 C 0.62176 0.95257 0.97873 0.0
C727 C 0.5148 0.95461 0.97137 0.0
C728 C 0.5201 0.96633 0.07539 0.0
C729 C 0.62203 0.94899 0.07606 0.0
C730 C 0.46423 0.08718 0.01675 0.0
C731 C 0.56822 0.08187 0.0257 0.0
C732 C 0.56221 0.06802 0.92214 0.0
C733 C 0.46036 0.08548 0.92025 0.0
O734 O 0.59013 0.93313 0.97656 0.0
O735 O 0.63046 0.9803 0.9923 0.0
O736 O 0.51887 0.98536 0.96236 0.0
O737 O 0.537 0.94421 0.99528 0.0
Co738 Co 0.07474 0.4557 0.00125 0.0
Co739 Co 0.07906 0.47164 0.06756 0.0
Co740 Co 1.03845 0.51524 0.0008 0.0
O741 O 0.07692 0.49599 0.01739 0.0
H742 H 0.09875 0.51306 0.01439 0.0
O743 O 1.00014 0.53477 0.98392 0.0
Co744 Co 1.00367 0.5759 0.99909 0.0
Co745 Co 0.9977 0.55831 0.93287 0.0
H746 H 0.97827 0.51798 0.98767 0.0
O747 O 0.12084 0.47055 0.09592 0.0
O748 O 0.08448 0.43383 0.05782 0.0
O749 O 1.03869 0.45906 0.09169 0.0
O750 O 1.00924 0.48422 0.04289 0.0
O751 O 0.06353 0.54881 0.03672 0.0
O752 O 1.00342 0.61171 0.01401 0.0
O753 O 0.95891 0.56542 0.00383 0.0
O754 O 0.0517 0.59178 0.99829 0.0
O755 O 0.06748 0.54616 0.95883 0.0
O756 O 1.03791 0.56987 0.90849 0.0
O757 O 0.99472 0.59734 0.94248 0.0
O758 O 0.95613 0.56162 0.90492 0.0
C759 C 0.10841 0.43824 0.98602 0.0
C760 C 1.00671 0.45046 0.97501 0.0
C761 C 1.01126 0.46478 0.07588 0.0
C762 C 0.11258 0.44291 0.08277 0.0
C763 C 0.97105 0.59506 0.0133 0.0
C764 C 0.07099 0.58007 0.02569 0.0
C765 C 0.06547 0.56482 0.92528 0.0
C766 C 0.96622 0.58951 0.91801 0.0
O767 O 0.07625 0.42072 0.98535 0.0
O768 O 0.11969 0.46754 0.99634 0.0
O769 O 1.01356 0.48175 0.96488 0.0
O770 O 1.02643 0.43859 0.00172 0.0
Co771 Co 0.56857 0.47634 0.96074 0.0
Co772 Co 0.58922 0.48429 0.03278 0.0
Co773 Co 0.53706 0.52296 0.99807 0.0
O774 O 0.57526 0.51089 0.98896 0.0
H775 H 0.59443 0.53023 0.98184 0.0
O776 O 0.50004 0.53693 0.00727 0.0
Co777 Co 0.49368 0.5388 0.06051 0.0
Co778 Co 0.51854 0.58121 0.00596 0.0
H779 H 0.47934 0.53055 0.98891 0.0
O780 O 0.63443 0.49102 0.04229 0.0
O781 O 0.59294 0.45443 0.00684 0.0
O782 O 0.56021 0.46282 0.07355 0.0
O783 O 0.52133 0.48564 0.04188 0.0
O784 O 0.57125 0.5498 0.03615 0.0
O785 O 0.48354 0.53858 0.10643 0.0
O786 O 0.44841 0.53497 0.04893 0.0
O787 O 0.53956 0.54377 0.08154 0.0
O788 O 0.55101 0.56093 0.95409 0.0
O789 O 0.56157 0.60301 0.98537 0.0
O790 O 0.50796 0.58886 0.05018 0.0
O791 O 0.49001 0.60393 0.98552 0.0
C792 C 0.59436 0.46658 0.92388 0.0
C793 C 0.50239 0.46476 0.96 0.0
C794 C 0.53113 0.46577 0.06993 0.0
C795 C 0.62508 0.46814 0.02035 0.0
C796 C 0.45345 0.53571 0.08677 0.0
C797 C 0.56843 0.55136 0.07074 0.0
C798 C 0.56636 0.59129 0.95796 0.0
C799 C 0.49387 0.60695 0.02231 0.0
O800 O 0.56507 0.44576 0.93294 0.0
O801 O 0.60747 0.49423 0.93825 0.0
O802 O 0.50405 0.49447 0.95958 0.0
O803 O 0.52636 0.45448 0.97945 0.0
Co804 Co 0.10363 0.47868 0.53578 0.0
Co805 Co 0.07903 0.48285 0.46202 0.0
Co806 Co 0.04078 0.51746 0.49836 0.0
O807 O 0.05943 0.47968 0.50545 0.0
H808 H 0.04178 0.45837 0.50952 0.0
O809 O 1.02182 0.55488 0.49135 0.0
Co810 Co 0.97738 0.55539 0.46118 0.0
Co811 Co 1.00228 0.55166 0.53493 0.0
H812 H 1.03931 0.57625 0.48709 0.0
O813 O 0.08064 0.44629 0.44758 0.0
O814 O 0.12138 0.48032 0.48639 0.0
O815 O 0.08516 0.52229 0.42365 0.0
O816 O 0.07459 0.55035 0.462 0.0
O817 O 1.0077 0.50017 0.453 0.0
O818 O 0.93825 0.55977 0.43248 0.0
O819 O 0.98577 0.6006 0.45028 0.0
O820 O 0.96217 0.50797 0.46584 0.0
O821 O 1.00691 0.48458 0.53466 0.0
O822 O 0.9965 0.51235 0.57347 0.0
O823 O 0.95959 0.55346 0.5107 0.0
O824 O 0.99999 0.58807 0.5491 0.0
C825 C 0.12659 0.44282 0.56544 0.0
C826 C 0.10627 0.5415 0.54629 0.0
C827 C 0.08674 0.5494 0.43197 0.0
C828 C 0.11171 0.45631 0.46562 0.0
C829 C 0.95439 0.59128 0.43196 0.0
C830 C 0.97545 0.49189 0.45157 0.0
C831 C 0.99469 0.48532 0.56474 0.0
C832 C 0.96889 0.57753 0.53131 0.0
O833 O 0.14262 0.47436 0.56451 0.0
O834 O 0.09518 0.4333 0.54717 0.0
O835 O 0.0741 0.53501 0.54359 0.0
O836 O 0.11885 0.5257 0.53069 0.0
Co837 Co 0.60381 0.979 0.53718 0.0
Co838 Co 0.57921 0.98378 0.46421 0.0
Co839 Co 0.5389 1.01545 0.50113 0.0
O840 O 0.55921 0.97924 0.50747 0.0
H841 H 0.5421 0.95754 0.51109 0.0
O842 O 0.51864 0.05179 0.49471 0.0
Co843 Co 0.47436 0.0524 0.46414 0.0
Co844 Co 0.49772 0.04701 0.53729 0.0
H845 H 0.53585 0.07344 0.49152 0.0
O846 O 0.57571 0.9471 0.44774 0.0
O847 O 0.62007 0.97758 0.48739 0.0
O848 O 0.58711 0.02383 0.42697 0.0
O849 O 0.57008 0.04906 0.46279 0.0
O850 O 0.50386 0.99596 0.45769 0.0
O851 O 0.43542 0.05614 0.4354 0.0
O852 O 0.48287 0.09801 0.45029 0.0
O853 O 0.45874 1.00442 0.47107 0.0
O854 O 0.5079 0.98176 0.53972 0.0
O855 O 0.48901 1.00669 0.57399 0.0
O856 O 0.45748 0.05407 0.51332 0.0
O857 O 0.50149 0.08369 0.55401 0.0
C858 C 0.62732 0.94373 0.5678 0.0
C859 C 0.60622 0.04374 0.54443 0.0
C860 C 0.58511 0.04981 0.43442 0.0
C861 C 0.60691 0.9538 0.46569 0.0
C862 C 0.45119 0.08783 0.43294 0.0
C863 C 0.47156 0.98773 0.45696 0.0
C864 C 0.4921 0.98088 0.56748 0.0
C865 C 0.47069 0.07784 0.53502 0.0
O866 O 0.64309 0.97543 0.56527 0.0
O867 O 0.59553 0.9335 0.55079 0.0
O868 O 0.57397 0.03492 0.54449 0.0
O869 O 0.61919 0.02707 0.53045 0.0
H870 H 0.19738 0.24765 0.31908 0.0
H871 H 0.08738 0.06498 0.3945 0.0
H872 H 0.19553 0.16507 0.27106 0.0
H873 H 0.05447 0.1466 0.39526 0.0
H874 H 0.12976 0.10164 0.35255 0.0
H875 H 0.14753 0.21161 0.35125 0.0
C876 C 0.18614 0.22199 0.31501 0.0
C877 C 0.20002 0.20921 0.29205 0.0
C878 C 0.11301 0.11145 0.36151 0.0
C879 C 0.14389 0.16806 0.32893 0.0
C880 C 0.08895 0.09062 0.38555 0.0
C881 C 0.06755 0.10291 0.39838 0.0
C882 C 0.11624 0.14496 0.35099 0.0
C883 C 0.07048 0.13623 0.38582 0.0
C884 C 0.15773 0.20157 0.33309 0.0
C885 C 0.18493 0.17592 0.28767 0.0
N886 N 0.09483 0.15633 0.36322 0.0
N887 N 0.15785 0.15631 0.30636 0.0
H888 H 0.75303 0.06806 0.40214 0.0
H889 H 0.94346 0.12701 0.49363 0.0
H890 H 0.81219 0.16918 0.41498 0.0
H891 H 0.88209 0.02685 0.47866 0.0
H892 H 0.89106 0.13966 0.48912 0.0
H893 H 0.79254 0.04982 0.45486 0.0
C894 C 0.77363 0.0864 0.41706 0.0
C895 C 0.78032 0.12018 0.40311 0.0
C896 C 0.88907 0.11466 0.48792 0.0
C897 C 0.82642 0.09967 0.46213 0.0
C898 C 0.91898 0.10751 0.49048 0.0
C899 C 0.9168 0.07631 0.48475 0.0
C900 C 0.85714 0.09036 0.47951 0.0
C901 C 0.88467 0.05165 0.48159 0.0
C902 C 0.79646 0.07602 0.44699 0.0
C903 C 0.80707 0.14285 0.42392 0.0
N904 N 0.85607 0.05936 0.47818 0.0
N905 N 0.82992 0.13227 0.4515 0.0
H906 H 0.9006 0.83543 0.28458 0.0
H907 H 0.94663 0.97002 0.42413 0.0
H908 H 0.82351 0.86375 0.31526 0.0
H909 H 1.00764 0.90886 0.43059 0.0
H910 H 0.90388 0.93833 0.37626 0.0
H911 H 0.94385 0.87107 0.32842 0.0
C912 C 0.89309 0.85014 0.29952 0.0
C913 C 0.85888 0.84764 0.29567 0.0
C914 C 0.92661 0.93187 0.38831 0.0
C915 C 0.90757 0.88723 0.3467 0.0
C916 C 0.95096 0.94985 0.41562 0.0
C917 C 0.98079 0.94211 0.43128 0.0
C918 C 0.93244 0.9064 0.3761 0.0
C919 C 0.98506 0.91569 0.4193 0.0
C920 C 0.91756 0.86992 0.32504 0.0
C921 C 0.84992 0.86577 0.31707 0.0
N922 N 0.96128 0.89896 0.39213 0.0
N923 N 0.87419 0.88495 0.34173 0.0
H924 H 0.16815 0.87156 0.28692 0.0
H925 H 0.1643 1.01226 0.39442 0.0
H926 H 0.23721 0.97188 0.26723 0.0
H927 H 0.08548 0.91697 0.38962 0.0
H928 H 0.19452 0.99814 0.35195 0.0
H929 H 0.14083 0.88775 0.32951 0.0
C930 C 0.1777 0.89702 0.29178 0.0
C931 C 0.20507 0.92037 0.27363 0.0
C932 C 0.17054 0.98049 0.36023 0.0
C933 C 0.1736 0.93931 0.32224 0.0
C934 C 0.15333 0.98851 0.38442 0.0
C935 C 0.12226 0.96584 0.3955 0.0
C936 C 0.1566 0.94953 0.3475 0.0
C937 C 0.10928 0.93535 0.38187 0.0
C938 C 0.16194 0.90634 0.31592 0.0
C939 C 0.21599 0.95316 0.28048 0.0
N940 N 0.1265 0.92814 0.35876 0.0
N941 N 0.20028 0.96169 0.3044 0.0
H942 H 0.25865 0.86065 0.57194 0.0
H943 H 0.19635 1.01258 0.50739 0.0
H944 H 0.31961 0.96147 0.58454 0.0
H945 H 0.13074 0.91121 0.50831 0.0
H946 H 0.24535 0.99609 0.50852 0.0
H947 H 0.21785 0.88058 0.52272 0.0
C948 C 0.264 0.88705 0.5634 0.0
C949 C 0.2917 0.90943 0.58356 0.0
C950 C 0.22021 0.97745 0.50767 0.0
C951 C 0.24524 0.93226 0.52763 0.0
C952 C 0.19228 0.98683 0.50725 0.0
C953 C 0.15986 0.96291 0.50946 0.0
C954 C 0.21578 0.94378 0.5116 0.0
C955 C 0.15561 0.93018 0.50771 0.0
C956 C 0.24071 0.89839 0.5353 0.0
C957 C 0.29816 0.9433 0.57044 0.0
N958 N 0.18351 0.92133 0.51012 0.0
N959 N 0.27454 0.95368 0.54406 0.0
H960 H 0.17803 0.19801 0.71665 0.0
H961 H 0.13206 0.07124 0.56648 0.0
H962 H 0.25434 0.17062 0.68271 0.0
H963 H 0.0704 0.13022 0.56686 0.0
H964 H 0.17429 0.10012 0.61687 0.0
H965 H 0.13441 0.16403 0.67136 0.0
C966 C 0.18528 0.18376 0.70076 0.0
C967 C 0.21942 0.18615 0.70402 0.0
C968 C 0.15153 0.10673 0.6058 0.0
C969 C 0.17031 0.14852 0.65132 0.0
C970 C 0.12748 0.09037 0.577 0.0
C971 C 0.09762 0.0983 0.56246 0.0
C972 C 0.14544 0.13082 0.62062 0.0
C973 C 0.09303 0.12331 0.57715 0.0
C974 C 0.1606 0.16494 0.6744 0.0
C975 C 0.22801 0.16865 0.68142 0.0
N976 N 0.11658 0.13851 0.60569 0.0
N977 N 0.20357 0.15049 0.65594 0.0
H978 H 0.91378 0.16006 0.71645 0.0
H979 H 0.91118 0.02661 0.59431 0.0
H980 H 0.83852 0.06234 0.72713 0.0
H981 H 0.99934 0.11076 0.62218 0.0
H982 H 0.88093 0.03935 0.6381 0.0
H983 H 0.94204 0.14323 0.67549 0.0
C984 C 0.90314 0.13504 0.70997 0.0
C985 C 0.87377 0.11258 0.72505 0.0
C986 C 0.90699 0.05474 0.63467 0.0
C987 C 0.90611 0.09295 0.67828 0.0
C988 C 0.92424 0.04747 0.60982 0.0
C989 C 0.95775 0.06774 0.60439 0.0
C990 C 0.92343 0.08256 0.65367 0.0
C991 C 0.97345 0.09455 0.62506 0.0
C992 C 0.91939 0.12534 0.68681 0.0
C993 C 0.86128 0.0803 0.71617 0.0
N994 N 0.95611 0.10124 0.64846 0.0
N995 N 0.87744 0.07142 0.69309 0.0
H996 H 0.8498 0.82466 0.63927 0.0
H997 H 0.04743 0.9251 0.63754 0.0
H998 H 0.91947 0.83128 0.7481 0.0
H999 H 0.96687 0.94773 0.55196 0.0
H1000 H 1.00378 0.88445 0.67662 0.0
H1001 H 0.89596 0.86258 0.60414 0.0
C1002 C 0.87481 0.83401 0.6559 0.0
C1003 C 0.88056 0.82518 0.69687 0.0
C1004 C 0.99596 0.89856 0.64933 0.0
C1005 C 0.93381 0.86872 0.65647 0.0
C1006 C 1.02072 0.92161 0.62704 0.0
C1007 C 1.01081 0.93987 0.59146 0.0
C1008 C 0.96128 0.89347 0.63534 0.0
C1009 C 0.97586 0.93443 0.57923 0.0
C1010 C 0.90118 0.85581 0.63574 0.0
C1011 C 0.9138 0.83792 0.71657 0.0
N1012 N 0.95247 0.91162 0.60095 0.0
N1013 N 0.93932 0.85919 0.69614 0.0
H1014 H 0.37732 0.20863 0.0937 0.0
H1015 H 0.39382 0.06049 0.00975 0.0
H1016 H 0.28985 0.12941 0.05226 0.0
H1017 H 0.47898 0.1431 0.04771 0.0
H1018 H 0.35489 0.08387 0.02623 0.0
H1019 H 0.41459 0.18343 0.0785 0.0
C1020 C 0.36588 0.18576 0.08172 0.0
C1021 C 0.33028 0.17114 0.07446 0.0
C1022 C 0.38213 0.09676 0.031 0.0
C1023 C 0.37309 0.14216 0.05633 0.0
C1024 C 0.40435 0.08338 0.02171 0.0
C1025 C 0.43977 0.09977 0.02741 0.0
C1026 C 0.39547 0.12667 0.04621 0.0
C1027 C 0.45192 0.12951 0.04275 0.0
C1028 C 0.38724 0.17146 0.07274 0.0
C1029 C 0.31711 0.1418 0.05804 0.0
N1030 N 0.4299 0.1419 0.05157 0.0
N1031 N 0.33847 0.12828 0.04958 0.0
H1032 H 0.80616 0.33453 0.11648 0.0
H1033 H 1.00717 0.43271 0.15188 0.0
H1034 H 0.86652 0.33649 0.2311 0.0
H1035 H 0.94363 0.4509 0.04264 0.0
H1036 H 0.95632 0.39523 0.18033 0.0
H1037 H 0.85636 0.37447 0.08767 0.0
C1038 C 0.83012 0.34295 0.13551 0.0
C1039 C 0.83236 0.33121 0.17614 0.0
C1040 C 0.95338 0.40762 0.15025 0.0
C1041 C 0.88987 0.37738 0.1435 0.0
C1042 C 0.98249 0.42915 0.13392 0.0
C1043 C 0.97988 0.44524 0.09471 0.0
C1044 C 0.92113 0.40158 0.12724 0.0
C1045 C 0.947 0.43938 0.07305 0.0
C1046 C 0.8587 0.36589 0.11909 0.0
C1047 C 0.86378 0.34377 0.19955 0.0
N1048 N 0.91902 0.41786 0.08946 0.0
N1049 N 0.89125 0.36589 0.18291 0.0
H1050 H 0.77353 0.85535 0.20351 0.0
H1051 H 0.60459 0.88332 0.06783 0.0
H1052 H 0.67972 0.77625 0.17882 0.0
H1053 H 0.68551 0.96099 0.12099 0.0
H1054 H 0.63599 0.845 0.09891 0.0
H1055 H 0.7462 0.89539 0.16432 0.0
C1056 C 0.74746 0.84635 0.18925 0.0
C1057 C 0.72911 0.81224 0.19402 0.0
C1058 C 0.64699 0.87049 0.10363 0.0
C1059 C 0.69733 0.85803 0.14949 0.0
C1060 C 0.62904 0.89249 0.08571 0.0
C1061 C 0.64203 0.9256 0.09191 0.0
C1062 C 0.6786 0.88152 0.1277 0.0
C1063 C 0.67411 0.93574 0.11548 0.0
C1064 C 0.73172 0.86923 0.16713 0.0
C1065 C 0.69501 0.80222 0.17564 0.0
N1066 N 0.69112 0.91396 0.1324 0.0
N1067 N 0.6804 0.82478 0.15426 0.0
H1068 H 0.22885 0.66558 0.2062 0.0
H1069 H 0.09692 0.6479 0.0083 0.0
H1070 H 0.22786 0.74905 0.11525 0.0
H1071 H 0.11428 0.56522 0.09087 0.0
H1072 H 0.14453 0.6856 0.04586 0.0
H1073 H 0.18747 0.62905 0.1634 0.0
C1074 C 0.21985 0.67647 0.17733 0.0
C1075 C 0.23112 0.71088 0.16517 0.0
C1076 C 0.13806 0.65921 0.05556 0.0
C1077 C 0.18321 0.66847 0.11524 0.0
C1078 C 0.1108 0.63761 0.03418 0.0
C1079 C 0.10127 0.60322 0.04657 0.0
C1080 C 0.15584 0.64642 0.08979 0.0
C1081 C 0.12046 0.59146 0.08022 0.0
C1082 C 0.19613 0.65536 0.15268 0.0
C1083 C 0.21895 0.72293 0.12665 0.0
N1084 N 0.14655 0.61298 0.10074 0.0
N1085 N 0.19533 0.70182 0.10322 0.0
H1086 H 0.37412 0.77904 0.88235 0.0
H1087 H 0.46413 0.96743 0.91498 0.0
H1088 H 0.34975 0.86065 0.80485 0.0
H1089 H 0.49689 0.88714 0.98317 0.0
H1090 H 0.41717 0.92779 0.87962 0.0
H1091 H 0.41426 0.8175 0.92472 0.0
C1092 C 0.37727 0.80507 0.87414 0.0
C1093 C 0.35919 0.81676 0.83942 0.0
C1094 C 0.43453 0.91885 0.90247 0.0
C1095 C 0.40471 0.86087 0.88821 0.0
C1096 C 0.46137 0.94146 0.92271 0.0
C1097 C 0.48478 0.93066 0.9518 0.0
C1098 C 0.43101 0.88518 0.9114 0.0
C1099 C 0.47969 0.89666 0.96073 0.0
C1100 C 0.40007 0.827 0.8985 0.0
C1101 C 0.36343 0.85058 0.83106 0.0
N1102 N 0.45348 0.87517 0.94044 0.0
N1103 N 0.38598 0.8715 0.85511 0.0
H1104 H 0.22454 0.31184 0.99298 0.0
H1105 H 0.15223 0.46116 0.93049 0.0
H1106 H 0.19451 0.34373 0.86987 0.0
H1107 H 0.11601 0.38019 0.02266 0.0
H1108 H 0.18478 0.43069 0.91357 0.0
H1109 H 0.20248 0.35047 0.00984 0.0
C1110 C 0.21329 0.32675 0.9694 0.0
C1111 C 0.21081 0.32373 0.9298 0.0
C1112 C 0.17007 0.42 0.93786 0.0
C1113 C 0.18619 0.36854 0.94945 0.0
C1114 C 0.1518 0.43738 0.94766 0.0
C1115 C 0.13172 0.42314 0.97818 0.0
C1116 C 0.16893 0.38882 0.95963 0.0
C1117 C 0.13145 0.39206 0.99919 0.0
C1118 C 0.20086 0.34886 0.97922 0.0
C1119 C 0.19711 0.34501 0.90076 0.0
N1120 N 0.14994 0.37605 0.98976 0.0
N1121 N 0.18512 0.36637 0.91116 0.0
H1122 H 0.68165 0.19586 0.74129 0.0
H1123 H 0.63009 0.09538 0.95181 0.0
H1124 H 0.7421 0.22534 0.84982 0.0
H1125 H 0.56057 0.08976 0.84309 0.0
H1126 H 0.67562 0.13607 0.91549 0.0
H1127 H 0.64128 0.1502 0.77877 0.0
C1128 C 0.68669 0.19221 0.77316 0.0
C1129 C 0.71584 0.2135 0.79256 0.0
C1130 C 0.65043 0.12568 0.89967 0.0
C1131 C 0.66903 0.16195 0.8359 0.0
C1132 C 0.62452 0.10224 0.92027 0.0
C1133 C 0.59136 0.08914 0.9005 0.0
C1134 C 0.64321 0.13574 0.85896 0.0
C1135 C 0.5856 0.09926 0.85967 0.0
C1136 C 0.66353 0.16632 0.79457 0.0
C1137 C 0.72054 0.20863 0.83388 0.0
N1138 N 0.61114 0.12186 0.8404 0.0
N1139 N 0.69738 0.18324 0.85427 0.0
H1140 H 0.79698 0.66234 0.82506 0.0
H1141 H 0.98701 0.65849 0.90885 0.0
H1142 H 0.88432 0.74761 0.79718 0.0
H1143 H 0.89788 0.57274 0.89209 0.0
H1144 H 0.95162 0.69402 0.87948 0.0
H1145 H 0.83494 0.6325 0.862 0.0
C1146 C 0.82429 0.67507 0.82732 0.0
C1147 C 0.83723 0.70777 0.8082 0.0
C1148 C 0.93988 0.66742 0.88242 0.0
C1149 C 0.88162 0.673 0.85043 0.0
C1150 C 0.96004 0.64707 0.8994 0.0
C1151 C 0.94558 0.61235 0.90303 0.0
C1152 C 0.90478 0.65302 0.86955 0.0
C1153 C 0.91043 0.59921 0.8899 0.0
C1154 C 0.84606 0.65785 0.8483 0.0
C1155 C 0.87305 0.72267 0.81194 0.0
N1156 N 0.89149 0.61935 0.87411 0.0
N1157 N 0.89397 0.70518 0.8325 0.0
H1158 H 0.20105 0.28692 0.2022 0.0
H1159 H 0.18097 0.46385 0.10744 0.0
H1160 H 0.28463 0.37828 0.18506 0.0
H1161 H 0.09605 0.37401 0.09469 0.0
H1162 H 0.21796 0.43132 0.13739 0.0
H1163 H 0.16122 0.31585 0.16444 0.0
C1164 C 0.21111 0.31284 0.19 0.0
C1165 C 0.24649 0.33002 0.19637 0.0
C1166 C 0.19132 0.41845 0.12796 0.0
C1167 C 0.20086 0.36362 0.15419 0.0
C1168 C 0.17001 0.43716 0.11076 0.0
C1169 C 0.13511 0.42189 0.09826 0.0
C1170 C 0.17799 0.38369 0.13375 0.0
C1171 C 0.12276 0.38701 0.10356 0.0
C1172 C 0.18832 0.32943 0.16862 0.0
C1173 C 0.25774 0.36386 0.18073 0.0
N1174 N 0.14401 0.36913 0.12116 0.0
N1175 N 0.23525 0.37933 0.16075 0.0
H1176 H 0.21432 0.69185 0.77048 0.0
H1177 H 0.132 0.5807 0.96154 0.0
H1178 H 0.26439 0.70418 0.88857 0.0
H1179 H 0.07144 0.59562 0.84884 0.0
H1180 H 0.18302 0.61949 0.93372 0.0
H1181 H 0.16367 0.65123 0.79726 0.0
C1182 C 0.21447 0.68637 0.80204 0.0
C1183 C 0.24322 0.70224 0.82732 0.0
C1184 C 0.15857 0.61408 0.91506 0.0
C1185 C 0.18587 0.65453 0.8583 0.0
C1186 C 0.12945 0.59164 0.93079 0.0
C1187 C 0.09724 0.58472 0.90753 0.0
C1188 C 0.15568 0.62948 0.87559 0.0
C1189 C 0.09563 0.60015 0.86796 0.0
C1190 C 0.18564 0.66297 0.81733 0.0
C1191 C 0.24244 0.69311 0.86805 0.0
N1192 N 0.12435 0.62171 0.85329 0.0
N1193 N 0.2143 0.66987 0.88228 0.0
H1194 H 0.40098 0.25909 0.81577 0.0
H1195 H 0.39538 0.07117 0.87904 0.0
H1196 H 0.30839 0.17744 0.79606 0.0
H1197 H 0.47773 0.15232 0.92395 0.0
H1198 H 0.36332 0.10881 0.84869 0.0
H1199 H 0.42902 0.22045 0.85517 0.0
C1200 C 0.38629 0.23297 0.82034 0.0
C1201 C 0.35192 0.22177 0.80315 0.0
C1202 C 0.38829 0.11843 0.86535 0.0
C1203 C 0.3847 0.17662 0.8475 0.0
C1204 C 0.40681 0.09689 0.88276 0.0
C1205 C 0.43972 0.10835 0.90413 0.0
C1206 C 0.40267 0.15219 0.86856 0.0
C1207 C 0.45266 0.1421 0.90782 0.0
C1208 C 0.40245 0.21082 0.84281 0.0
C1209 C 0.33461 0.18741 0.80939 0.0
N1210 N 0.43439 0.1627 0.88996 0.0
N1211 N 0.35121 0.16615 0.83068 0.0
H1212 H 0.85228 0.36874 0.78952 0.0
H1213 H 0.98084 0.38238 0.9901 0.0
H1214 H 0.84796 0.28447 0.88085 0.0
H1215 H 0.96392 0.46644 0.91012 0.0
H1216 H 0.93347 0.34563 0.95097 0.0
H1217 H 0.89372 0.40429 0.83351 0.0
C1218 C 0.86006 0.3575 0.81875 0.0
C1219 C 0.84725 0.32314 0.83076 0.0
C1220 C 0.94001 0.37212 0.94222 0.0
C1221 C 0.89527 0.3643 0.88195 0.0
C1222 C 0.96712 0.39316 0.96448 0.0
C1223 C 0.97667 0.42767 0.95331 0.0
C1224 C 0.92249 0.38562 0.90829 0.0
C1225 C 0.95772 0.44009 0.9199 0.0
C1226 C 0.88382 0.37801 0.84405 0.0
C1227 C 0.85803 0.31056 0.86965 0.0
N1228 N 0.93184 0.41914 0.89849 0.0
N1229 N 0.88172 0.33104 0.8937 0.0
H1230 H 0.78637 0.88083 0.97912 0.0
H1231 H 0.61157 0.91656 0.921 0.0
H1232 H 0.73308 0.88241 0.86016 0.0
H1233 H 0.6894 0.96387 0.00978 0.0
H1234 H 0.65226 0.89643 0.90321 0.0
H1235 H 0.74792 0.90415 0.99568 0.0
C1236 C 0.76689 0.88619 0.95625 0.0
C1237 C 0.76348 0.87961 0.91785 0.0
C1238 C 0.66052 0.91137 0.92642 0.0
C1239 C 0.7184 0.90544 0.93752 0.0
C1240 C 0.63732 0.92283 0.93665 0.0
C1241 C 0.64721 0.94216 0.9667 0.0
C1242 C 0.69371 0.91848 0.94705 0.0
C1243 C 0.68088 0.94942 0.98609 0.0
C1244 C 0.74479 0.89939 0.96598 0.0
C1245 C 0.73671 0.88633 0.89026 0.0
N1246 N 0.70286 0.93726 0.97624 0.0
N1247 N 0.7152 0.89861 0.9007 0.0
H1248 H 0.86656 0.73173 0.00584 0.0
H1249 H 0.92126 0.57135 0.06184 0.0
H1250 H 0.88335 0.68841 0.12795 0.0
H1251 H 0.97078 0.65654 0.98113 0.0
H1252 H 0.88963 0.60322 0.07761 0.0
H1253 H 0.88688 0.69248 0.98758 0.0
C1254 C 0.87445 0.71413 0.02893 0.0
C1255 C 0.87385 0.71417 0.06878 0.0
C1256 C 0.90709 0.61457 0.05604 0.0
C1257 C 0.89599 0.66837 0.04739 0.0
C1258 C 0.92489 0.59645 0.04691 0.0
C1259 C 0.94854 0.61147 0.02017 0.0
C1260 C 0.91231 0.64735 0.0372 0.0
C1261 C 0.95271 0.64412 0.00185 0.0
C1262 C 0.88577 0.69159 0.01828 0.0
C1263 C 0.88315 0.68953 0.09689 0.0
N1264 N 0.93464 0.66091 0.01049 0.0
N1265 N 0.894 0.66774 0.08569 0.0
H1266 H 0.33605 0.80838 0.14412 0.0
H1267 H 0.52167 0.94613 0.15451 0.0
H1268 H 0.39863 0.83773 0.25172 0.0
H1269 H 0.45233 0.93755 0.04583 0.0
H1270 H 0.47617 0.90592 0.18972 0.0
H1271 H 0.37739 0.85419 0.10644 0.0
C1272 C 0.35805 0.82497 0.1597 0.0
C1273 C 0.36339 0.82015 0.20103 0.0
C1274 C 0.47062 0.91296 0.15823 0.0
C1275 C 0.4112 0.87165 0.15844 0.0
C1276 C 0.49668 0.93604 0.13806 0.0
C1277 C 0.49089 0.94537 0.09711 0.0
C1278 C 0.43837 0.89834 0.13743 0.0
C1279 C 0.45787 0.93132 0.07745 0.0
C1280 C 0.38175 0.8509 0.13828 0.0
C1281 C 0.39311 0.84125 0.21989 0.0
N1282 N 0.43296 0.9082 0.0977 0.0
N1283 N 0.41571 0.86601 0.19856 0.0
H1284 H 0.74444 0.18011 0.18308 0.0
H1285 H 0.58016 0.14817 0.01834 0.0
H1286 H 0.69037 0.24916 0.13698 0.0
H1287 H 0.6212 0.07161 0.08053 0.0
H1288 H 0.62514 0.1877 0.05563 0.0
H1289 H 0.70447 0.14252 0.13958 0.0
C1290 C 0.72422 0.18752 0.16389 0.0
C1291 C 0.72019 0.21764 0.16469 0.0
C1292 C 0.6244 0.16229 0.06103 0.0
C1293 C 0.67449 0.17472 0.11439 0.0
C1294 C 0.59874 0.13966 0.03967 0.0
C1295 C 0.59669 0.10639 0.04651 0.0
C1296 C 0.64836 0.15171 0.08939 0.0
C1297 C 0.62162 0.09694 0.07448 0.0
C1298 C 0.70133 0.16593 0.13908 0.0
C1299 C 0.69371 0.22586 0.13861 0.0
N1300 N 0.64637 0.11947 0.095 0.0
N1301 N 0.67183 0.20454 0.11464 0.0
H1302 H 0.67709 0.69253 0.75845 0.0
H1303 H 0.61416 0.65134 0.96728 0.0
H1304 H 0.74152 0.72728 0.86325 0.0
H1305 H 0.57242 0.58134 0.88583 0.0
H1306 H 0.65454 0.6869 0.92263 0.0
H1307 H 0.63208 0.6581 0.79883 0.0
C1308 C 0.68194 0.69279 0.78978 0.0
C1309 C 0.71351 0.71227 0.80749 0.0
C1310 C 0.63645 0.66379 0.91449 0.0
C1311 C 0.66194 0.67419 0.85324 0.0
C1312 C 0.61333 0.64353 0.93986 0.0
C1313 C 0.59003 0.61326 0.93032 0.0
C1314 C 0.63606 0.65396 0.87907 0.0
C1315 C 0.59018 0.6044 0.8944 0.0
C1316 C 0.65621 0.67331 0.81269 0.0
C1317 C 0.71788 0.71248 0.84813 0.0
N1318 N 0.61289 0.62474 0.8699 0.0
N1319 N 0.6924 0.69382 0.86952 0.0
H1320 H 0.32177 0.60542 0.98654 0.0
H1321 H 0.495 0.66651 0.97967 0.0
H1322 H 0.36596 0.70876 0.94074 0.0
H1323 H 0.46369 0.60261 0.08645 0.0
H1324 H 0.45361 0.69275 0.97855 0.0
H1325 H 0.37119 0.61008 0.03691 0.0
C1326 C 0.34114 0.62949 0.98814 0.0
C1327 C 0.34067 0.65633 0.95824 0.0
C1328 C 0.45614 0.67355 0.00302 0.0
C1329 C 0.39758 0.66162 0.01545 0.0
C1330 C 0.47977 0.65845 0.00349 0.0
C1331 C 0.48055 0.63058 0.03149 0.0
C1332 C 0.43202 0.65932 0.02935 0.0
C1333 C 0.46159 0.62221 0.0626 0.0
C1334 C 0.36945 0.63221 0.0172 0.0
C1335 C 0.36628 0.68701 0.96219 0.0
N1336 N 0.43654 0.63526 0.05968 0.0
N1337 N 0.39442 0.68859 0.98935 0.0
H1338 H 0.34567 0.38401 0.76932 0.0
H1339 H 0.49206 0.40089 0.95594 0.0
H1340 H 0.38907 0.30874 0.82842 0.0
H1341 H 0.45514 0.4815 0.89992 0.0
H1342 H 0.45459 0.36809 0.90716 0.0
H1343 H 0.38691 0.42219 0.81288 0.0
C1344 C 0.36441 0.37589 0.79083 0.0
C1345 C 0.36412 0.34334 0.79565 0.0
C1346 C 0.45448 0.39292 0.90532 0.0
C1347 C 0.41042 0.38606 0.84551 0.0
C1348 C 0.47588 0.41172 0.93343 0.0
C1349 C 0.47689 0.44412 0.93209 0.0
C1350 C 0.43353 0.40633 0.87536 0.0
C1351 C 0.45512 0.45659 0.90214 0.0
C1352 C 0.38761 0.39744 0.81586 0.0
C1353 C 0.3884 0.33362 0.82409 0.0
N1354 N 0.43429 0.43766 0.87484 0.0
N1355 N 0.41036 0.35476 0.84801 0.0
H1356 H 0.73095 0.46541 0.77147 0.0
H1357 H 0.57646 0.40826 0.89664 0.0
H1358 H 0.66406 0.36457 0.79508 0.0
H1359 H 0.65491 0.50416 0.89507 0.0
H1360 H 0.60698 0.39308 0.85665 0.0
H1361 H 0.70238 0.48121 0.81377 0.0
C1362 C 0.71023 0.44659 0.78551 0.0
C1363 C 0.69986 0.41358 0.77962 0.0
C1364 C 0.61761 0.41745 0.86502 0.0
C1365 C 0.66703 0.43155 0.82809 0.0
C1366 C 0.6001 0.42624 0.8878 0.0
C1367 C 0.61299 0.45767 0.89913 0.0
C1368 C 0.64827 0.44026 0.85303 0.0
C1369 C 0.64391 0.47973 0.88689 0.0
C1370 C 0.69406 0.45562 0.80982 0.0
C1371 C 0.67315 0.39022 0.79901 0.0
N1372 N 0.66042 0.47067 0.86435 0.0
N1373 N 0.65758 0.39968 0.82211 0.0
H1374 H 0.75774 0.36657 0.08961 0.0
H1375 H 0.68563 0.50924 0.99881 0.0
H1376 H 0.81256 0.47063 0.08838 0.0
H1377 H 0.62532 0.40603 0.01973 0.0
H1378 H 0.73589 0.49421 0.00139 0.0
H1379 H 0.71611 0.37988 0.03542 0.0
C1380 C 0.76173 0.39223 0.07683 0.0
C1381 C 0.78761 0.41765 0.09453 0.0
C1382 C 0.71156 0.47474 0.00442 0.0
C1383 C 0.74019 0.43294 0.03309 0.0
C1384 C 0.68293 0.48332 0.00311 0.0
C1385 C 0.65185 0.45875 0.01066 0.0
C1386 C 0.70921 0.44141 0.01473 0.0
C1387 C 0.64921 0.42562 0.0148 0.0
C1388 C 0.73793 0.39979 0.04597 0.0
C1389 C 0.79239 0.45033 0.07625 0.0
N1390 N 0.6779 0.41783 0.01807 0.0
N1391 N 0.76822 0.45712 0.04721 0.0
H1392 H 0.73947 0.70817 0.14441 0.0
H1393 H 0.57395 0.55195 0.1496 0.0
H1394 H 0.70516 0.65365 0.25481 0.0
H1395 H 0.63267 0.5876 0.05267 0.0
H1396 H 0.62179 0.58665 0.19006 0.0
H1397 H 0.70104 0.66291 0.11159 0.0
C1398 C 0.72393 0.68667 0.162 0.0
C1399 C 0.7251 0.68525 0.20254 0.0
C1400 C 0.6244 0.58638 0.16018 0.0
C1401 C 0.68037 0.63292 0.16444 0.0
C1402 C 0.59709 0.56666 0.137 0.0
C1403 C 0.59909 0.5673 0.09743 0.0
C1404 C 0.65367 0.60721 0.14349 0.0
C1405 C 0.62983 0.58652 0.08286 0.0
C1406 C 0.70198 0.66062 0.14306 0.0
C1407 C 0.70445 0.65629 0.22341 0.0
N1408 N 0.65567 0.60614 0.10568 0.0
N1409 N 0.68243 0.63142 0.20399 0.0
H1410 H 0.38818 0.58102 0.27209 0.0
H1411 H 0.39698 0.55567 0.05702 0.0
H1412 H 0.32949 0.61717 0.16829 0.0
H1413 H 0.45112 0.51992 0.16515 0.0
H1414 H 0.36527 0.57156 0.09616 0.0
H1415 H 0.40619 0.55373 0.23237 0.0
C1416 C 0.37866 0.58296 0.24093 0.0
C1417 C 0.35692 0.60133 0.22379 0.0
C1418 C 0.38387 0.55992 0.11108 0.0
C1419 C 0.37845 0.57035 0.17729 0.0
C1420 C 0.40156 0.55035 0.08884 0.0
C1421 C 0.42731 0.53712 0.10785 0.0
C1422 C 0.392 0.556 0.15235 0.0
C1423 C 0.43214 0.53079 0.14914 0.0
C1424 C 0.38919 0.56741 0.21807 0.0
C1425 C 0.34647 0.60356 0.18285 0.0
N1426 N 0.41513 0.5407 0.16984 0.0
N1427 N 0.35743 0.58837 0.16095 0.0
H1428 H 0.41379 0.32573 0.25177 0.0
H1429 H 0.46896 0.4693 0.07178 0.0
H1430 H 0.34471 0.34801 0.14986 0.0
H1431 H 0.53716 0.41573 0.13165 0.0
H1432 H 0.42624 0.43309 0.11272 0.0
H1433 H 0.46212 0.36591 0.21902 0.0
C1434 C 0.40881 0.33908 0.22267 0.0
C1435 C 0.37525 0.33333 0.20326 0.0
C1436 C 0.45058 0.42928 0.11701 0.0
C1437 C 0.4298 0.37929 0.16647 0.0
C1438 C 0.47512 0.44998 0.09363 0.0
C1439 C 0.50663 0.44522 0.09766 0.0
C1440 C 0.45738 0.40359 0.145 0.0
C1441 C 0.51309 0.42004 0.1272 0.0
C1442 C 0.43629 0.3618 0.20408 0.0
C1443 C 0.37009 0.35127 0.16571 0.0
N1444 N 0.48851 0.39992 0.14971 0.0
N1445 N 0.397 0.3735 0.1487 0.0
H1446 H 0.85486 0.65035 0.64282 0.0
H1447 H 0.90526 0.5744 0.48902 0.0
H1448 H 0.81186 0.66221 0.52002 0.0
H1449 H 0.97511 0.61217 0.58919 0.0
H1450 H 0.86513 0.59811 0.50229 0.0
H1451 H 0.89372 0.62774 0.62632 0.0
C1452 C 0.85363 0.64859 0.61232 0.0
C1453 C 0.82994 0.65871 0.58286 0.0
C1454 C 0.88934 0.60118 0.52116 0.0
C1455 C 0.87403 0.63146 0.56403 0.0
C1456 C 0.91222 0.58766 0.51365 0.0
C1457 C 0.94378 0.59146 0.53781 0.0
C1458 C 0.89774 0.61773 0.5537 0.0
C1459 C 0.95127 0.60875 0.56953 0.0
C1460 C 0.87576 0.63535 0.60301 0.0
C1461 C 0.82919 0.65447 0.54403 0.0
N1462 N 0.92838 0.62091 0.5767 0.0
N1463 N 0.85077 0.64105 0.53579 0.0
H1464 H 0.37843 0.82878 0.73993 0.0
H1465 H 0.46488 0.91958 0.54436 0.0
H1466 H 0.33536 0.79771 0.62702 0.0
H1467 H 0.47582 0.96877 0.64196 0.0
H1468 H 0.42752 0.86853 0.57918 0.0
H1469 H 0.42471 0.87351 0.70927 0.0
C1470 C 0.37916 0.83092 0.70885 0.0
C1471 C 0.35328 0.8092 0.68604 0.0
C1472 C 0.4385 0.89043 0.59311 0.0
C1473 C 0.40574 0.86084 0.65057 0.0
C1474 C 0.46003 0.9195 0.57341 0.0
C1475 C 0.47352 0.94858 0.59021 0.0
C1476 C 0.4309 0.89023 0.63022 0.0
C1477 C 0.46592 0.94703 0.62778 0.0
C1478 C 0.40543 0.8566 0.6913 0.0
C1479 C 0.35501 0.81374 0.64566 0.0
N1480 N 0.44519 0.91845 0.64645 0.0
N1481 N 0.38073 0.83902 0.62919 0.0
H1482 H 0.182 0.26877 0.68543 0.0
H1483 H 0.1936 0.45707 0.59949 0.0
H1484 H 0.27488 0.35111 0.70041 0.0
H1485 H 0.10255 0.37379 0.57887 0.0
H1486 H 0.22398 0.41909 0.6341 0.0
H1487 H 0.15359 0.30653 0.64427 0.0
C1488 C 0.19663 0.29485 0.67949 0.0
C1489 C 0.23117 0.30654 0.69588 0.0
C1490 C 0.1974 0.409 0.62202 0.0
C1491 C 0.19817 0.35061 0.64921 0.0
C1492 C 0.17981 0.43076 0.60219 0.0
C1493 C 0.14506 0.4189 0.58619 0.0
C1494 C 0.18039 0.37468 0.62644 0.0
C1495 C 0.12912 0.38435 0.59068 0.0
C1496 C 0.18028 0.31648 0.65603 0.0
C1497 C 0.24851 0.34076 0.68774 0.0
N1498 N 0.14677 0.36364 0.61043 0.0
N1499 N 0.23185 0.3615 0.6652 0.0
H1500 H 0.77425 0.18876 0.66444 0.0
H1501 H 0.58733 0.09038 0.56515 0.0
H1502 H 0.68644 0.21773 0.6559 0.0
H1503 H 0.67654 0.06661 0.56219 0.0
H1504 H 0.62373 0.13836 0.59585 0.0
H1505 H 0.73979 0.14548 0.62475 0.0
C1506 C 0.74785 0.18645 0.65347 0.0
C1507 C 0.73342 0.20748 0.66263 0.0
C1508 C 0.63545 0.1228 0.58835 0.0
C1509 C 0.69346 0.15741 0.61792 0.0
C1510 C 0.61461 0.09523 0.57085 0.0
C1511 C 0.62875 0.07406 0.56125 0.0
C1512 C 0.67086 0.12942 0.59676 0.0
C1513 C 0.6644 0.08205 0.56912 0.0
C1514 C 0.72815 0.16167 0.6309 0.0
C1515 C 0.69897 0.20303 0.6483 0.0
N1516 N 0.68415 0.10888 0.58666 0.0
N1517 N 0.68014 0.17839 0.62692 0.0
H1518 H 0.80402 0.33934 0.35169 0.0
H1519 H 0.99488 0.45202 0.41856 0.0
H1520 H 0.89281 0.33376 0.31628 0.0
H1521 H 0.90555 0.46462 0.4435 0.0
H1522 H 0.95811 0.40495 0.38665 0.0
H1523 H 0.84111 0.38132 0.39108 0.0
C1524 C 0.83132 0.34657 0.35253 0.0
C1525 C 0.84526 0.33271 0.33078 0.0
C1526 C 0.94654 0.41794 0.39918 0.0
C1527 C 0.88795 0.38121 0.37568 0.0
C1528 C 0.96752 0.44488 0.41744 0.0
C1529 C 0.95327 0.46255 0.43348 0.0
C1530 C 0.91101 0.40848 0.39693 0.0
C1531 C 0.91765 0.4519 0.43133 0.0
C1532 C 0.85251 0.37069 0.375 0.0
C1533 C 0.88089 0.34334 0.33296 0.0
N1534 N 0.89774 0.42562 0.41323 0.0
N1535 N 0.901 0.36707 0.35487 0.0
H1536 H 0.73335 0.83167 0.4845 0.0
H1537 H 0.59266 0.91876 0.40632 0.0
H1538 H 0.67582 0.83211 0.36793 0.0
H1539 H 0.66751 0.94569 0.50764 0.0
H1540 H 0.62222 0.88478 0.39491 0.0
H1541 H 0.70897 0.87077 0.4967 0.0
C1542 C 0.7157 0.84 0.46143 0.0
C1543 C 0.70667 0.82847 0.42503 0.0
C1544 C 0.63242 0.89809 0.41966 0.0
C1545 C 0.67883 0.87327 0.43889 0.0
C1546 C 0.6154 0.91754 0.42639 0.0
C1547 C 0.62725 0.93493 0.45843 0.0
C1548 C 0.6616 0.89536 0.44529 0.0
C1549 C 0.65722 0.93249 0.48287 0.0
C1550 C 0.70203 0.8625 0.46837 0.0
C1551 C 0.68396 0.84047 0.39621 0.0
N1552 N 0.67322 0.91274 0.47605 0.0
N1553 N 0.67075 0.86192 0.40387 0.0
H1554 H 0.24547 0.7326 0.35359 0.0
H1555 H 0.09468 0.55902 0.35482 0.0
H1556 H 0.18393 0.69751 0.24816 0.0
H1557 H 0.12468 0.61021 0.45468 0.0
H1558 H 0.13144 0.60774 0.31704 0.0
H1559 H 0.20587 0.68655 0.39316 0.0
C1560 C 0.224 0.71482 0.33891 0.0
C1561 C 0.21873 0.71786 0.2977 0.0
C1562 C 0.1298 0.60854 0.34709 0.0
C1563 C 0.17306 0.66586 0.3424 0.0
C1564 C 0.10878 0.58067 0.36873 0.0
C1565 C 0.10632 0.58049 0.40797 0.0
C1566 C 0.14929 0.63653 0.36481 0.0
C1567 C 0.12544 0.60935 0.42438 0.0
C1568 C 0.20116 0.68891 0.36138 0.0
C1569 C 0.18955 0.69527 0.27993 0.0
N1570 N 0.14641 0.63607 0.40289 0.0
N1571 N 0.16823 0.67 0.3023 0.0
H1572 H 0.37583 0.24993 0.29728 0.0
H1573 H 0.38294 0.07112 0.40751 0.0
H1574 H 0.28882 0.16177 0.31498 0.0
H1575 H 0.4738 0.15716 0.41044 0.0
H1576 H 0.34973 0.10593 0.37318 0.0
H1577 H 0.41317 0.21941 0.33825 0.0
C1578 C 0.36448 0.22444 0.31038 0.0
C1579 C 0.32888 0.20862 0.30323 0.0
C1580 C 0.3769 0.11754 0.38117 0.0
C1581 C 0.37162 0.17314 0.34902 0.0
C1582 C 0.39616 0.09745 0.40088 0.0
C1583 C 0.43163 0.11084 0.412 0.0
C1584 C 0.39272 0.15187 0.37159 0.0
C1585 C 0.44665 0.14548 0.40251 0.0
C1586 C 0.38586 0.20692 0.33352 0.0
C1587 C 0.31593 0.1752 0.31995 0.0
N1588 N 0.42723 0.16472 0.38269 0.0
N1589 N 0.33705 0.15883 0.3417 0.0
H1590 H 0.79537 0.87304 0.67587 0.0
H1591 H 0.60446 0.87457 0.59031 0.0
H1592 H 0.70841 0.78802 0.70565 0.0
H1593 H 0.69577 0.96019 0.59241 0.0
H1594 H 0.63947 0.83967 0.62498 0.0
H1595 H 0.75724 0.90176 0.63683 0.0
C1596 C 0.76809 0.86017 0.67376 0.0
C1597 C 0.75533 0.82783 0.69382 0.0
C1598 C 0.65169 0.86611 0.61777 0.0
C1599 C 0.71059 0.86137 0.64917 0.0
C1600 C 0.6317 0.8861 0.59789 0.0
C1601 C 0.64689 0.92068 0.58841 0.0
C1602 C 0.68727 0.88068 0.62777 0.0
C1603 C 0.68247 0.9339 0.59909 0.0
C1604 C 0.74617 0.87674 0.6515 0.0
C1605 C 0.71952 0.81272 0.69018 0.0
N1606 N 0.7011 0.9141 0.61781 0.0
N1607 N 0.69841 0.8296 0.6684 0.0
H1608 H 0.69971 0.20795 0.26655 0.0
H1609 H 0.62008 0.108 0.46302 0.0
H1610 H 0.75778 0.21745 0.38189 0.0
H1611 H 0.59717 0.06451 0.35781 0.0
H1612 H 0.66071 0.15787 0.43045 0.0
H1613 H 0.65199 0.16485 0.29693 0.0
C1614 C 0.70213 0.20149 0.2983 0.0
C1615 C 0.73259 0.21656 0.32184 0.0
C1616 C 0.64632 0.13756 0.41438 0.0
C1617 C 0.67827 0.16727 0.35662 0.0
C1618 C 0.62293 0.10925 0.43276 0.0
C1619 C 0.60513 0.08205 0.41306 0.0
C1620 C 0.65137 0.13902 0.37571 0.0
C1621 C 0.61035 0.08488 0.37408 0.0
C1622 C 0.67501 0.17678 0.31555 0.0
C1623 C 0.73464 0.2066 0.36277 0.0
N1624 N 0.63291 0.11282 0.35667 0.0
N1625 N 0.70785 0.18269 0.3789 0.0
H1626 H 0.80377 0.68305 0.29753 0.0
H1627 H 0.979 0.65997 0.4214 0.0
H1628 H 0.89805 0.76343 0.31506 0.0
H1629 H 0.88774 0.57814 0.39621 0.0
H1630 H 0.94834 0.6982 0.38706 0.0
H1631 H 0.83199 0.64436 0.33841 0.0
C1632 C 0.83015 0.69265 0.31059 0.0
C1633 C 0.84835 0.72672 0.30335 0.0
C1634 C 0.93496 0.67186 0.38907 0.0
C1635 C 0.88131 0.68239 0.34938 0.0
C1636 C 0.95257 0.64995 0.40874 0.0
C1637 C 0.93627 0.61555 0.41165 0.0
C1638 C 0.90053 0.65955 0.37209 0.0
C1639 C 0.9017 0.60434 0.39464 0.0
C1640 C 0.84643 0.67052 0.33365 0.0
C1641 C 0.88287 0.73748 0.32017 0.0
N1642 N 0.88517 0.62609 0.3757 0.0
N1643 N 0.89808 0.7156 0.34219 0.0
H1644 H 0.39358 0.81555 0.33915 0.0
H1645 H 0.40141 0.96658 0.43796 0.0
H1646 H 0.30761 0.84758 0.32945 0.0
H1647 H 0.48956 0.94144 0.43397 0.0
H1648 H 0.3653 0.91959 0.40461 0.0
H1649 H 0.4275 0.85734 0.38077 0.0
C1650 C 0.3815 0.83062 0.34682 0.0
C1651 C 0.34745 0.82741 0.33171 0.0
C1652 C 0.39254 0.92431 0.41118 0.0
C1653 C 0.38655 0.8765 0.37809 0.0
C1654 C 0.4132 0.95113 0.43033 0.0
C1655 C 0.44872 0.95829 0.43862 0.0
C1656 C 0.40738 0.90424 0.4004 0.0
C1657 C 0.4624 0.93721 0.42796 0.0
C1658 C 0.40106 0.85497 0.37006 0.0
C1659 C 0.33372 0.84905 0.34082 0.0
N1660 N 0.4418 0.91132 0.40942 0.0
N1661 N 0.35325 0.87263 0.36337 0.0
H1662 H 0.2654 0.36409 0.48621 0.0
H1663 H 0.10526 0.42202 0.40732 0.0
H1664 H 0.22991 0.38443 0.36194 0.0
H1665 H 0.1746 0.45781 0.5088 0.0
H1666 H 0.14545 0.39859 0.39557 0.0
H1667 H 0.22783 0.38998 0.49997 0.0
C1668 C 0.25004 0.37405 0.4617 0.0
C1669 C 0.25108 0.37174 0.42265 0.0
C1670 C 0.15185 0.41151 0.42046 0.0
C1671 C 0.2071 0.40044 0.4388 0.0
C1672 C 0.12885 0.42479 0.42739 0.0
C1673 C 0.13641 0.44184 0.4593 0.0
C1674 C 0.18251 0.41458 0.44599 0.0
C1675 C 0.16761 0.44476 0.484 0.0
C1676 C 0.22846 0.38869 0.46978 0.0
C1677 C 0.22968 0.38463 0.39255 0.0
N1678 N 0.18944 0.43097 0.47706 0.0
N1679 N 0.20846 0.39807 0.4013 0.0
H1680 H 0.34153 0.19858 0.51252 0.0
H1681 H 0.48681 0.11685 0.59079 0.0
H1682 H 0.40351 0.20431 0.6264 0.0
H1683 H 0.40949 0.08471 0.49322 0.0
H1684 H 0.45751 0.15169 0.60034 0.0
H1685 H 0.36694 0.15997 0.50106 0.0
C1686 C 0.36039 0.19173 0.53514 0.0
C1687 C 0.37029 0.20475 0.57063 0.0
C1688 C 0.44673 0.13707 0.57681 0.0
C1689 C 0.3993 0.16055 0.55762 0.0
C1690 C 0.46359 0.11708 0.57114 0.0
C1691 C 0.45089 0.09783 0.5408 0.0
C1692 C 0.41679 0.13844 0.55185 0.0
C1693 C 0.42039 0.09925 0.51677 0.0
C1694 C 0.37467 0.16951 0.52864 0.0
C1695 C 0.39462 0.19469 0.59889 0.0
N1696 N 0.40447 0.11945 0.5226 0.0
N1697 N 0.40831 0.17346 0.59167 0.0
H1698 H 0.89493 0.33743 0.74977 0.0
H1699 H 0.95613 0.42552 0.54008 0.0
H1700 H 0.83541 0.30485 0.64226 0.0
H1701 H 0.98565 0.47446 0.64178 0.0
H1702 H 0.91763 0.37696 0.5776 0.0
H1703 H 0.93411 0.38374 0.71127 0.0
C1704 C 0.88988 0.34042 0.71792 0.0
C1705 C 0.86108 0.31825 0.69907 0.0
C1706 C 0.93276 0.39829 0.59168 0.0
C1707 C 0.90684 0.37031 0.65465 0.0
C1708 C 0.95499 0.42586 0.57045 0.0
C1709 C 0.97434 0.45412 0.58785 0.0
C1710 C 0.93037 0.39871 0.63082 0.0
C1711 C 0.97131 0.45331 0.62711 0.0
C1712 C 0.91235 0.36671 0.69595 0.0
C1713 C 0.85655 0.32228 0.65778 0.0
N1714 N 0.94996 0.42615 0.64719 0.0
N1715 N 0.8792 0.34785 0.63688 0.0
H1716 H 0.21577 0.72438 0.63884 0.0
H1717 H 0.16964 0.54639 0.58616 0.0
H1718 H 0.24835 0.64839 0.71898 0.0
H1719 H 0.09566 0.59678 0.55567 0.0
H1720 H 0.20694 0.58946 0.62481 0.0
H1721 H 0.17835 0.68283 0.59832 0.0
C1722 C 0.2149 0.69904 0.64818 0.0
C1723 C 0.23511 0.68991 0.6826 0.0
C1724 C 0.18256 0.59104 0.60951 0.0
C1725 C 0.19352 0.64279 0.63558 0.0
C1726 C 0.16142 0.56668 0.58735 0.0
C1727 C 0.12954 0.56806 0.56797 0.0
C1728 C 0.17204 0.61727 0.61147 0.0
C1729 C 0.11997 0.59476 0.57054 0.0
C1730 C 0.19374 0.67546 0.62487 0.0
C1731 C 0.23354 0.65674 0.69254 0.0
N1732 N 0.14129 0.61853 0.59178 0.0
N1733 N 0.21333 0.63443 0.66896 0.0
loop_
_geom_bond_atom_site_label_1
_geom_bond_atom_site_label_2
_geom_bond_distance
_geom_bond_site_symmetry_2
_ccdc_geom_bond_type
Tb0 N31 2.660 . S
Tb0 N38 2.600 . S
Tb0 O44 2.546 . S
Tb0 O45 2.610 . S
Tb0 O47 2.320 . S
Tb0 O48 2.552 . S
Tb0 O49 2.413 . S
Tb0 O51 2.362 . S
Tb0 O52 2.421 . S
Tb0 C64 2.833 . S
C1 C4 1.432 . S
C1 C5 1.414 . S
C1 N8 1.359 . S
C2 C4 1.417 . S
C2 C6 1.432 . S
C2 C14 1.410 . S
C3 C5 1.444 . S
C3 C6 1.317 . S
C3 H26 0.929 . S
C4 C1 1.432 . S
C4 C2 1.417 . S
C4 N12 1.360 . S
C5 C1 1.414 . S
C5 C3 1.444 . S
C5 C10 1.385 . S
C6 C2 1.432 . S
C6 C3 1.317 . S
C6 H18 0.930 . S
C7 C9 1.392 . S
C7 C10 1.370 . S
C7 H19 0.931 . S
N8 C1 1.359 . S
N8 C9 1.327 . S
N8 Tb11 2.600 . S
C9 C7 1.392 . S
C9 N8 1.327 . S
C9 H16 0.930 . S
C10 C5 1.385 . S
C10 C7 1.370 . S
C10 H29 0.930 . S
Tb11 N8 2.600 . S
Tb11 N12 2.660 . S
Tb11 O45 2.362 . S
Tb11 O46 2.421 . S
Tb11 O50 2.546 . S
Tb11 O51 2.610 . S
Tb11 O53 2.320 . S
Tb11 O54 2.552 . S
Tb11 O55 2.413 . S
Tb11 C75 2.833 . S
N12 C4 1.360 . S
N12 Tb11 2.660 . S
N12 C13 1.305 . S
C13 N12 1.305 . S
C13 C15 1.407 . S
C13 H20 0.930 . S
C14 C2 1.410 . S
C14 C15 1.345 . S
C14 H22 0.930 . S
C15 C13 1.407 . S
C15 C14 1.345 . S
C15 H17 0.930 . S
H16 C9 0.930 . S
H17 C15 0.930 . S
H18 C6 0.930 . S
H19 C7 0.931 . S
H20 C13 0.930 . S
H21 C35 0.930 . S
H22 C14 0.930 . S
H23 C41 0.930 . S
H24 C32 0.930 . S
H25 C39 0.931 . S
H26 C3 0.929 . S
H27 C33 0.930 . S
H28 C66 0.930 . S
H29 C10 0.930 . S
H30 C65 0.929 . S
N31 Tb0 2.660 . S
N31 C32 1.305 . S
N31 C36 1.360 . S
C32 H24 0.930 . S
C32 N31 1.305 . S
C32 C35 1.407 . S
C33 H27 0.930 . S
C33 C34 1.410 . S
C33 C35 1.345 . S
C34 C33 1.410 . S
C34 C36 1.417 . S
C34 C66 1.432 . S
C35 H21 0.930 . S
C35 C32 1.407 . S
C35 C33 1.345 . S
C36 N31 1.360 . S
C36 C34 1.417 . S
C36 C40 1.432 . S
H37 C42 0.930 . S
N38 Tb0 2.600 . S
N38 C40 1.359 . S
N38 C41 1.327 . S
C39 H25 0.931 . S
C39 C41 1.392 . S
C39 C42 1.370 . S
C40 C36 1.432 . S
C40 N38 1.359 . S
C40 C43 1.414 . S
C41 H23 0.930 . S
C41 N38 1.327 . S
C41 C39 1.392 . S
C42 H37 0.930 . S
C42 C39 1.370 . S
C42 C43 1.385 . S
C43 C40 1.414 . S
C43 C42 1.385 . S
C43 C65 1.444 . S
O44 Tb0 2.546 . S
O44 C64 1.251 . S
O45 Tb0 2.610 . S
O45 Tb11 2.362 . S
O45 C56 1.283 . S
O46 Tb11 2.421 . S
O46 C63 1.262 . S
O47 Tb0 2.320 . S
O47 C63 1.260 . S
O48 Tb0 2.552 . S
O48 C56 1.243 . S
O49 Tb0 2.413 . S
O49 C64 1.256 . S
O50 Tb11 2.546 . S
O50 C75 1.251 . S
O51 Tb0 2.362 . S
O51 Tb11 2.610 . S
O51 C67 1.283 . S
O52 Tb0 2.421 . S
O52 C74 1.262 . S
O53 Tb11 2.320 . S
O53 C74 1.260 . S
O54 Tb11 2.552 . S
O54 C67 1.243 . S
O55 Tb11 2.413 . S
O55 C75 1.256 . S
C56 O45 1.283 . S
C56 O48 1.243 . S
C57 C59 1.382 . S
C57 C61 1.393 . S
C57 C64 1.500 . S
C58 C59 1.400 . S
C58 C60 1.384 . S
C59 C57 1.382 . S
C59 C58 1.400 . S
C59 H76 0.930 . S
C60 C58 1.384 . S
C60 C62 1.392 . S
C60 H77 0.931 . S
C61 C57 1.393 . S
C61 C62 1.401 . S
C61 H78 0.930 . S
C62 C60 1.392 . S
C62 C61 1.401 . S
C62 H79 0.930 . S
C63 O46 1.262 . S
C63 O47 1.260 . S
C64 Tb0 2.833 . S
C64 O44 1.251 . S
C64 O49 1.256 . S
C64 C57 1.500 . S
C65 H30 0.929 . S
C65 C43 1.444 . S
C65 C66 1.317 . S
C66 H28 0.930 . S
C66 C34 1.432 . S
C66 C65 1.317 . S
C67 O51 1.283 . S
C67 O54 1.243 . S
C68 C69 1.382 . S
C68 C72 1.393 . S
C68 C75 1.500 . S
C69 C68 1.382 . S
C69 C70 1.400 . S
C69 H80 0.930 . S
C70 C69 1.400 . S
C70 C71 1.384 . S
C71 C70 1.384 . S
C71 C73 1.392 . S
C71 H81 0.931 . S
C72 C68 1.393 . S
C72 C73 1.401 . S
C72 H82 0.930 . S
C73 C71 1.392 . S
C73 C72 1.401 . S
C73 H83 0.930 . S
C74 O52 1.262 . S
C74 O53 1.260 . S
C75 Tb11 2.833 . S
C75 O50 1.251 . S
C75 O55 1.256 . S
C75 C68 1.500 . S
H76 C59 0.930 . S
H77 C60 0.931 . S
H78 C61 0.930 . S
H79 C62 0.930 . S
H80 C69 0.930 . S
H81 C71 0.931 . S
H82 C72 0.930 . S
H83 C73 0.930 . S
Tb84 N115 2.660 . S
Tb84 N122 2.600 . S
Tb84 O128 2.546 . S
Tb84 O129 2.610 . S
Tb84 O131 2.320 . S
Tb84 O132 2.552 . S
Tb84 O133 2.413 . S
Tb84 O135 2.362 . S
Tb84 O136 2.421 . S
Tb84 C148 2.833 . S
C85 C88 1.432 . S
C85 C89 1.414 . S
C85 N92 1.359 . S
C86 C88 1.417 . S
C86 C90 1.432 . S
C86 C98 1.410 . S
C87 C89 1.444 . S
C87 C90 1.317 . S
C87 H110 0.929 . S
C88 C85 1.432 . S
C88 C86 1.417 . S
C88 N96 1.360 . S
C89 C85 1.414 . S
C89 C87 1.444 . S
C89 C94 1.385 . S
C90 C86 1.432 . S
C90 C87 1.317 . S
C90 H102 0.930 . S
C91 C93 1.392 . S
C91 C94 1.370 . S
C91 H103 0.931 . S
N92 C85 1.359 . S
N92 C93 1.327 . S
N92 Tb95 2.600 . S
C93 C91 1.392 . S
C93 N92 1.327 . S
C93 H100 0.930 . S
C94 C89 1.385 . S
C94 C91 1.370 . S
C94 H113 0.930 . S
Tb95 N92 2.600 . S
Tb95 N96 2.660 . S
Tb95 O129 2.362 . S
Tb95 O130 2.421 . S
Tb95 O134 2.546 . S
Tb95 O135 2.610 . S
Tb95 O137 2.320 . S
Tb95 O138 2.552 . S
Tb95 O139 2.413 . S
Tb95 C159 2.833 . S
N96 C88 1.360 . S
N96 Tb95 2.660 . S
N96 C97 1.305 . S
C97 N96 1.305 . S
C97 C99 1.407 . S
C97 H104 0.930 . S
C98 C86 1.410 . S
C98 C99 1.345 . S
C98 H106 0.930 . S
C99 C97 1.407 . S
C99 C98 1.345 . S
C99 H101 0.930 . S
H100 C93 0.930 . S
H101 C99 0.930 . S
H102 C90 0.930 . S
H103 C91 0.931 . S
H104 C97 0.930 . S
H105 C119 0.930 . S
H106 C98 0.930 . S
H107 C125 0.930 . S
H108 C116 0.930 . S
H109 C123 0.931 . S
H110 C87 0.929 . S
H111 C117 0.930 . S
H112 C150 0.930 . S
H113 C94 0.930 . S
H114 C149 0.929 . S
N115 Tb84 2.660 . S
N115 C116 1.305 . S
N115 C120 1.360 . S
C116 H108 0.930 . S
C116 N115 1.305 . S
C116 C119 1.407 . S
C117 H111 0.930 . S
C117 C118 1.410 . S
C117 C119 1.345 . S
C118 C117 1.410 . S
C118 C120 1.417 . S
C118 C150 1.432 . S
C119 H105 0.930 . S
C119 C116 1.407 . S
C119 C117 1.345 . S
C120 N115 1.360 . S
C120 C118 1.417 . S
C120 C124 1.432 . S
H121 C126 0.930 . S
N122 Tb84 2.600 . S
N122 C124 1.359 . S
N122 C125 1.327 . S
C123 H109 0.931 . S
C123 C125 1.392 . S
C123 C126 1.370 . S
C124 C120 1.432 . S
C124 N122 1.359 . S
C124 C127 1.414 . S
C125 H107 0.930 . S
C125 N122 1.327 . S
C125 C123 1.392 . S
C126 H121 0.930 . S
C126 C123 1.370 . S
C126 C127 1.385 . S
C127 C124 1.414 . S
C127 C126 1.385 . S
C127 C149 1.444 . S
O128 Tb84 2.546 . S
O128 C148 1.251 . S
O129 Tb84 2.610 . S
O129 Tb95 2.362 . S
O129 C140 1.283 . S
O130 Tb95 2.421 . S
O130 C147 1.262 . S
O131 Tb84 2.320 . S
O131 C147 1.260 . S
O132 Tb84 2.552 . S
O132 C140 1.243 . S
O133 Tb84 2.413 . S
O133 C148 1.256 . S
O134 Tb95 2.546 . S
O134 C159 1.251 . S
O135 Tb84 2.362 . S
O135 Tb95 2.610 . S
O135 C151 1.283 . S
O136 Tb84 2.421 . S
O136 C158 1.262 . S
O137 Tb95 2.320 . S
O137 C158 1.260 . S
O138 Tb95 2.552 . S
O138 C151 1.243 . S
O139 Tb95 2.413 . S
O139 C159 1.256 . S
C140 O129 1.283 . S
C140 O132 1.243 . S
C141 C143 1.382 . S
C141 C145 1.393 . S
C141 C148 1.500 . S
C142 C143 1.400 . S
C142 C144 1.384 . S
C143 C141 1.382 . S
C143 C142 1.400 . S
C143 H160 0.930 . S
C144 C142 1.384 . S
C144 C146 1.392 . S
C144 H161 0.931 . S
C145 C141 1.393 . S
C145 C146 1.401 . S
C145 H162 0.930 . S
C146 C144 1.392 . S
C146 C145 1.401 . S
C146 H163 0.930 . S
C147 O130 1.262 . S
C147 O131 1.260 . S
C148 Tb84 2.833 . S
C148 O128 1.251 . S
C148 O133 1.256 . S
C148 C141 1.500 . S
C149 H114 0.929 . S
C149 C127 1.444 . S
C149 C150 1.317 . S
C150 H112 0.930 . S
C150 C118 1.432 . S
C150 C149 1.317 . S
C151 O135 1.283 . S
C151 O138 1.243 . S
C152 C153 1.382 . S
C152 C156 1.393 . S
C152 C159 1.500 . S
C153 C152 1.382 . S
C153 C154 1.400 . S
C153 H164 0.930 . S
C154 C153 1.400 . S
C154 C155 1.384 . S
C155 C154 1.384 . S
C155 C157 1.392 . S
C155 H165 0.931 . S
C156 C152 1.393 . S
C156 C157 1.401 . S
C156 H166 0.930 . S
C157 C155 1.392 . S
C157 C156 1.401 . S
C157 H167 0.930 . S
C158 O136 1.262 . S
C158 O137 1.260 . S
C159 Tb95 2.833 . S
C159 O134 1.251 . S
C159 O139 1.256 . S
C159 C152 1.500 . S
H160 C143 0.930 . S
H161 C144 0.931 . S
H162 C145 0.930 . S
H163 C146 0.930 . S
H164 C153 0.930 . S
H165 C155 0.931 . S
H166 C156 0.930 . S
H167 C157 0.930 . S
Tb168 N199 2.660 . S
Tb168 N206 2.600 . S
Tb168 O212 2.546 . S
Tb168 O213 2.610 . S
Tb168 O215 2.320 . S
Tb168 O216 2.552 . S
Tb168 O217 2.413 . S
Tb168 O219 2.362 . S
Tb168 O220 2.421 . S
Tb168 C232 2.833 . S
C169 C172 1.432 . S
C169 C173 1.414 . S
C169 N176 1.359 . S
C170 C172 1.417 . S
C170 C174 1.432 . S
C170 C182 1.410 . S
C171 C173 1.444 . S
C171 C174 1.317 . S
C171 H194 0.929 . S
C172 C169 1.432 . S
C172 C170 1.417 . S
C172 N180 1.360 . S
C173 C169 1.414 . S
C173 C171 1.444 . S
C173 C178 1.385 . S
C174 C170 1.432 . S
C174 C171 1.317 . S
C174 H186 0.930 . S
C175 C177 1.392 . S
C175 C178 1.370 . S
C175 H187 0.931 . S
N176 C169 1.359 . S
N176 C177 1.327 . S
N176 Tb179 2.600 . S
C177 C175 1.392 . S
C177 N176 1.327 . S
C177 H184 0.930 . S
C178 C173 1.385 . S
C178 C175 1.370 . S
C178 H197 0.930 . S
Tb179 N176 2.600 . S
Tb179 N180 2.660 . S
Tb179 O213 2.362 . S
Tb179 O214 2.421 . S
Tb179 O218 2.546 . S
Tb179 O219 2.610 . S
Tb179 O221 2.320 . S
Tb179 O222 2.552 . S
Tb179 O223 2.413 . S
Tb179 C243 2.833 . S
N180 C172 1.360 . S
N180 Tb179 2.660 . S
N180 C181 1.305 . S
C181 N180 1.305 . S
C181 C183 1.407 . S
C181 H188 0.930 . S
C182 C170 1.410 . S
C182 C183 1.345 . S
C182 H190 0.930 . S
C183 C181 1.407 . S
C183 C182 1.345 . S
C183 H185 0.930 . S
H184 C177 0.930 . S
H185 C183 0.930 . S
H186 C174 0.930 . S
H187 C175 0.931 . S
H188 C181 0.930 . S
H189 C203 0.930 . S
H190 C182 0.930 . S
H191 C209 0.930 . S
H192 C200 0.930 . S
H193 C207 0.931 . S
H194 C171 0.929 . S
H195 C201 0.930 . S
H196 C234 0.930 . S
H197 C178 0.930 . S
H198 C233 0.929 . S
N199 Tb168 2.660 . S
N199 C200 1.305 . S
N199 C204 1.360 . S
C200 H192 0.930 . S
C200 N199 1.305 . S
C200 C203 1.407 . S
C201 H195 0.930 . S
C201 C202 1.410 . S
C201 C203 1.345 . S
C202 C201 1.410 . S
C202 C204 1.417 . S
C202 C234 1.432 . S
C203 H189 0.930 . S
C203 C200 1.407 . S
C203 C201 1.345 . S
C204 N199 1.360 . S
C204 C202 1.417 . S
C204 C208 1.432 . S
H205 C210 0.930 . S
N206 Tb168 2.600 . S
N206 C208 1.359 . S
N206 C209 1.327 . S
C207 H193 0.931 . S
C207 C209 1.392 . S
C207 C210 1.370 . S
C208 C204 1.432 . S
C208 N206 1.359 . S
C208 C211 1.414 . S
C209 H191 0.930 . S
C209 N206 1.327 . S
C209 C207 1.392 . S
C210 H205 0.930 . S
C210 C207 1.370 . S
C210 C211 1.385 . S
C211 C208 1.414 . S
C211 C210 1.385 . S
C211 C233 1.444 . S
O212 Tb168 2.546 . S
O212 C232 1.251 . S
O213 Tb168 2.610 . S
O213 Tb179 2.362 . S
O213 C224 1.283 . S
O214 Tb179 2.421 . S
O214 C231 1.262 . S
O215 Tb168 2.320 . S
O215 C231 1.260 . S
O216 Tb168 2.552 . S
O216 C224 1.243 . S
O217 Tb168 2.413 . S
O217 C232 1.256 . S
O218 Tb179 2.546 . S
O218 C243 1.251 . S
O219 Tb168 2.362 . S
O219 Tb179 2.610 . S
O219 C235 1.283 . S
O220 Tb168 2.421 . S
O220 C242 1.262 . S
O221 Tb179 2.320 . S
O221 C242 1.260 . S
O222 Tb179 2.552 . S
O222 C235 1.243 . S
O223 Tb179 2.413 . S
O223 C243 1.256 . S
C224 O213 1.283 . S
C224 O216 1.243 . S
C225 C227 1.382 . S
C225 C229 1.393 . S
C225 C232 1.500 . S
C226 C227 1.400 . S
C226 C228 1.384 . S
C227 C225 1.382 . S
C227 C226 1.400 . S
C227 H244 0.930 . S
C228 C226 1.384 . S
C228 C230 1.392 . S
C228 H245 0.931 . S
C229 C225 1.393 . S
C229 C230 1.401 . S
C229 H246 0.930 . S
C230 C228 1.392 . S
C230 C229 1.401 . S
C230 H247 0.930 . S
C231 O214 1.262 . S
C231 O215 1.260 . S
C232 Tb168 2.833 . S
C232 O212 1.251 . S
C232 O217 1.256 . S
C232 C225 1.500 . S
C233 H198 0.929 . S
C233 C211 1.444 . S
C233 C234 1.317 . S
C234 H196 0.930 . S
C234 C202 1.432 . S
C234 C233 1.317 . S
C235 O219 1.283 . S
C235 O222 1.243 . S
C236 C237 1.382 . S
C236 C240 1.393 . S
C236 C243 1.500 . S
C237 C236 1.382 . S
C237 C238 1.400 . S
C237 H248 0.930 . S
C238 C237 1.400 . S
C238 C239 1.384 . S
C239 C238 1.384 . S
C239 C241 1.392 . S
C239 H249 0.931 . S
C240 C236 1.393 . S
C240 C241 1.401 . S
C240 H250 0.930 . S
C241 C239 1.392 . S
C241 C240 1.401 . S
C241 H251 0.930 . S
C242 O220 1.262 . S
C242 O221 1.260 . S
C243 Tb179 2.833 . S
C243 O218 1.251 . S
C243 O223 1.256 . S
C243 C236 1.500 . S
H244 C227 0.930 . S
H245 C228 0.931 . S
H246 C229 0.930 . S
H247 C230 0.930 . S
H248 C237 0.930 . S
H249 C239 0.931 . S
H250 C240 0.930 . S
H251 C241 0.930 . S
Tb252 N283 2.660 . S
Tb252 N290 2.600 . S
Tb252 O296 2.546 . S
Tb252 O297 2.610 . S
Tb252 O299 2.320 . S
Tb252 O300 2.552 . S
Tb252 O301 2.413 . S
Tb252 O303 2.362 . S
Tb252 O304 2.421 . S
Tb252 C316 2.833 . S
C253 C256 1.432 . S
C253 C257 1.414 . S
C253 N260 1.359 . S
C254 C256 1.417 . S
C254 C258 1.432 . S
C254 C266 1.410 . S
C255 C257 1.444 . S
C255 C258 1.317 . S
C255 H278 0.929 . S
C256 C253 1.432 . S
C256 C254 1.417 . S
C256 N264 1.360 . S
C257 C253 1.414 . S
C257 C255 1.444 . S
C257 C262 1.385 . S
C258 C254 1.432 . S
C258 C255 1.317 . S
C258 H270 0.930 . S
C259 C261 1.392 . S
C259 C262 1.370 . S
C259 H271 0.931 . S
N260 C253 1.359 . S
N260 C261 1.327 . S
N260 Tb263 2.600 . S
C261 C259 1.392 . S
C261 N260 1.327 . S
C261 H268 0.930 . S
C262 C257 1.385 . S
C262 C259 1.370 . S
C262 H281 0.930 . S
Tb263 N260 2.600 . S
Tb263 N264 2.660 . S
Tb263 O297 2.362 . S
Tb263 O298 2.421 . S
Tb263 O302 2.546 . S
Tb263 O303 2.610 . S
Tb263 O305 2.320 . S
Tb263 O306 2.552 . S
Tb263 O307 2.413 . S
Tb263 C327 2.833 . S
N264 C256 1.360 . S
N264 Tb263 2.660 . S
N264 C265 1.305 . S
C265 N264 1.305 . S
C265 C267 1.407 . S
C265 H272 0.930 . S
C266 C254 1.410 . S
C266 C267 1.345 . S
C266 H274 0.930 . S
C267 C265 1.407 . S
C267 C266 1.345 . S
C267 H269 0.930 . S
H268 C261 0.930 . S
H269 C267 0.930 . S
H270 C258 0.930 . S
H271 C259 0.931 . S
H272 C265 0.930 . S
H273 C287 0.930 . S
H274 C266 0.930 . S
H275 C293 0.930 . S
H276 C284 0.930 . S
H277 C291 0.931 . S
H278 C255 0.929 . S
H279 C285 0.930 . S
H280 C318 0.930 . S
H281 C262 0.930 . S
H282 C317 0.929 . S
N283 Tb252 2.660 . S
N283 C284 1.305 . S
N283 C288 1.360 . S
C284 H276 0.930 . S
C284 N283 1.305 . S
C284 C287 1.407 . S
C285 H279 0.930 . S
C285 C286 1.410 . S
C285 C287 1.345 . S
C286 C285 1.410 . S
C286 C288 1.417 . S
C286 C318 1.432 . S
C287 H273 0.930 . S
C287 C284 1.407 . S
C287 C285 1.345 . S
C288 N283 1.360 . S
C288 C286 1.417 . S
C288 C292 1.432 . S
H289 C294 0.930 . S
N290 Tb252 2.600 . S
N290 C292 1.359 . S
N290 C293 1.327 . S
C291 H277 0.931 . S
C291 C293 1.392 . S
C291 C294 1.370 . S
C292 C288 1.432 . S
C292 N290 1.359 . S
C292 C295 1.414 . S
C293 H275 0.930 . S
C293 N290 1.327 . S
C293 C291 1.392 . S
C294 H289 0.930 . S
C294 C291 1.370 . S
C294 C295 1.385 . S
C295 C292 1.414 . S
C295 C294 1.385 . S
C295 C317 1.444 . S
O296 Tb252 2.546 . S
O296 C316 1.251 . S
O297 Tb252 2.610 . S
O297 Tb263 2.362 . S
O297 C308 1.283 . S
O298 Tb263 2.421 . S
O298 C315 1.262 . S
O299 Tb252 2.320 . S
O299 C315 1.260 . S
O300 Tb252 2.552 . S
O300 C308 1.243 . S
O301 Tb252 2.413 . S
O301 C316 1.256 . S
O302 Tb263 2.546 . S
O302 C327 1.251 . S
O303 Tb252 2.362 . S
O303 Tb263 2.610 . S
O303 C319 1.283 . S
O304 Tb252 2.421 . S
O304 C326 1.262 . S
O305 Tb263 2.320 . S
O305 C326 1.260 . S
O306 Tb263 2.552 . S
O306 C319 1.243 . S
O307 Tb263 2.413 . S
O307 C327 1.256 . S
C308 O297 1.283 . S
C308 O300 1.243 . S
C309 C311 1.382 . S
C309 C313 1.393 . S
C309 C316 1.500 . S
C310 C311 1.400 . S
C310 C312 1.384 . S
C311 C309 1.382 . S
C311 C310 1.400 . S
C311 H328 0.930 . S
C312 C310 1.384 . S
C312 C314 1.392 . S
C312 H329 0.931 . S
C313 C309 1.393 . S
C313 C314 1.401 . S
C313 H330 0.930 . S
C314 C312 1.392 . S
C314 C313 1.401 . S
C314 H331 0.930 . S
C315 O298 1.262 . S
C315 O299 1.260 . S
C316 Tb252 2.833 . S
C316 O296 1.251 . S
C316 O301 1.256 . S
C316 C309 1.500 . S
C317 H282 0.929 . S
C317 C295 1.444 . S
C317 C318 1.317 . S
C318 H280 0.930 . S
C318 C286 1.432 . S
C318 C317 1.317 . S
C319 O303 1.283 . S
C319 O306 1.243 . S
C320 C321 1.382 . S
C320 C324 1.393 . S
C320 C327 1.500 . S
C321 C320 1.382 . S
C321 C322 1.400 . S
C321 H332 0.930 . S
C322 C321 1.400 . S
C322 C323 1.384 . S
C323 C322 1.384 . S
C323 C325 1.392 . S
C323 H333 0.931 . S
C324 C320 1.393 . S
C324 C325 1.401 . S
C324 H334 0.930 . S
C325 C323 1.392 . S
C325 C324 1.401 . S
C325 H335 0.930 . S
C326 O304 1.262 . S
C326 O305 1.260 . S
C327 Tb263 2.833 . S
C327 O302 1.251 . S
C327 O307 1.256 . S
C327 C320 1.500 . S
H328 C311 0.930 . S
H329 C312 0.931 . S
H330 C313 0.930 . S
H331 C314 0.930 . S
H332 C321 0.930 . S
H333 C323 0.931 . S
H334 C324 0.930 . S
H335 C325 0.930 . S
Tb336 N367 2.660 . S
Tb336 N374 2.600 . S
Tb336 O380 2.546 . S
Tb336 O381 2.610 . S
Tb336 O383 2.320 . S
Tb336 O384 2.552 . S
Tb336 O385 2.413 . S
Tb336 O387 2.362 . S
Tb336 O388 2.421 . S
Tb336 C400 2.833 . S
C337 C340 1.432 . S
C337 C341 1.414 . S
C337 N344 1.359 . S
C338 C340 1.417 . S
C338 C342 1.432 . S
C338 C350 1.410 . S
C339 C341 1.444 . S
C339 C342 1.317 . S
C339 H362 0.929 . S
C340 C337 1.432 . S
C340 C338 1.417 . S
C340 N348 1.360 . S
C341 C337 1.414 . S
C341 C339 1.444 . S
C341 C346 1.385 . S
C342 C338 1.432 . S
C342 C339 1.317 . S
C342 H354 0.930 . S
C343 C345 1.392 . S
C343 C346 1.370 . S
C343 H355 0.931 . S
N344 C337 1.359 . S
N344 C345 1.327 . S
N344 Tb347 2.600 . S
C345 C343 1.392 . S
C345 N344 1.327 . S
C345 H352 0.930 . S
C346 C341 1.385 . S
C346 C343 1.370 . S
C346 H365 0.930 . S
Tb347 N344 2.600 . S
Tb347 N348 2.660 . S
Tb347 O381 2.362 . S
Tb347 O382 2.421 . S
Tb347 O386 2.546 . S
Tb347 O387 2.610 . S
Tb347 O389 2.320 . S
Tb347 O390 2.552 . S
Tb347 O391 2.413 . S
Tb347 C411 2.833 . S
N348 C340 1.360 . S
N348 Tb347 2.660 . S
N348 C349 1.305 . S
C349 N348 1.305 . S
C349 C351 1.407 . S
C349 H356 0.930 . S
C350 C338 1.410 . S
C350 C351 1.345 . S
C350 H358 0.930 . S
C351 C349 1.407 . S
C351 C350 1.345 . S
C351 H353 0.930 . S
H352 C345 0.930 . S
H353 C351 0.930 . S
H354 C342 0.930 . S
H355 C343 0.931 . S
H356 C349 0.930 . S
H357 C371 0.930 . S
H358 C350 0.930 . S
H359 C377 0.930 . S
H360 C368 0.930 . S
H361 C375 0.931 . S
H362 C339 0.929 . S
H363 C369 0.930 . S
H364 C402 0.930 . S
H365 C346 0.930 . S
H366 C401 0.929 . S
N367 Tb336 2.660 . S
N367 C368 1.305 . S
N367 C372 1.360 . S
C368 H360 0.930 . S
C368 N367 1.305 . S
C368 C371 1.407 . S
C369 H363 0.930 . S
C369 C370 1.410 . S
C369 C371 1.345 . S
C370 C369 1.410 . S
C370 C372 1.417 . S
C370 C402 1.432 . S
C371 H357 0.930 . S
C371 C368 1.407 . S
C371 C369 1.345 . S
C372 N367 1.360 . S
C372 C370 1.417 . S
C372 C376 1.432 . S
H373 C378 0.930 . S
N374 Tb336 2.600 . S
N374 C376 1.359 . S
N374 C377 1.327 . S
C375 H361 0.931 . S
C375 C377 1.392 . S
C375 C378 1.370 . S
C376 C372 1.432 . S
C376 N374 1.359 . S
C376 C379 1.414 . S
C377 H359 0.930 . S
C377 N374 1.327 . S
C377 C375 1.392 . S
C378 H373 0.930 . S
C378 C375 1.370 . S
C378 C379 1.385 . S
C379 C376 1.414 . S
C379 C378 1.385 . S
C379 C401 1.444 . S
O380 Tb336 2.546 . S
O380 C400 1.251 . S
O381 Tb336 2.610 . S
O381 Tb347 2.362 . S
O381 C392 1.283 . S
O382 Tb347 2.421 . S
O382 C399 1.262 . S
O383 Tb336 2.320 . S
O383 C399 1.260 . S
O384 Tb336 2.552 . S
O384 C392 1.243 . S
O385 Tb336 2.413 . S
O385 C400 1.256 . S
O386 Tb347 2.546 . S
O386 C411 1.251 . S
O387 Tb336 2.362 . S
O387 Tb347 2.610 . S
O387 C403 1.283 . S
O388 Tb336 2.421 . S
O388 C410 1.262 . S
O389 Tb347 2.320 . S
O389 C410 1.260 . S
O390 Tb347 2.552 . S
O390 C403 1.243 . S
O391 Tb347 2.413 . S
O391 C411 1.256 . S
C392 O381 1.283 . S
C392 O384 1.243 . S
C393 C395 1.382 . S
C393 C397 1.393 . S
C393 C400 1.500 . S
C394 C395 1.400 . S
C394 C396 1.384 . S
C395 C393 1.382 . S
C395 C394 1.400 . S
C395 H412 0.930 . S
C396 C394 1.384 . S
C396 C398 1.392 . S
C396 H413 0.931 . S
C397 C393 1.393 . S
C397 C398 1.401 . S
C397 H414 0.930 . S
C398 C396 1.392 . S
C398 C397 1.401 . S
C398 H415 0.930 . S
C399 O382 1.262 . S
C399 O383 1.260 . S
C400 Tb336 2.833 . S
C400 O380 1.251 . S
C400 O385 1.256 . S
C400 C393 1.500 . S
C401 H366 0.929 . S
C401 C379 1.444 . S
C401 C402 1.317 . S
C402 H364 0.930 . S
C402 C370 1.432 . S
C402 C401 1.317 . S
C403 O387 1.283 . S
C403 O390 1.243 . S
C404 C405 1.382 . S
C404 C408 1.393 . S
C404 C411 1.500 . S
C405 C404 1.382 . S
C405 C406 1.400 . S
C405 H416 0.930 . S
C406 C405 1.400 . S
C406 C407 1.384 . S
C407 C406 1.384 . S
C407 C409 1.392 . S
C407 H417 0.931 . S
C408 C404 1.393 . S
C408 C409 1.401 . S
C408 H418 0.930 . S
C409 C407 1.392 . S
C409 C408 1.401 . S
C409 H419 0.930 . S
C410 O388 1.262 . S
C410 O389 1.260 . S
C411 Tb347 2.833 . S
C411 O386 1.251 . S
C411 O391 1.256 . S
C411 C404 1.500 . S
H412 C395 0.930 . S
H413 C396 0.931 . S
H414 C397 0.930 . S
H415 C398 0.930 . S
H416 C405 0.930 . S
H417 C407 0.931 . S
H418 C408 0.930 . S
H419 C409 0.930 . S
Tb420 N451 2.660 . S
Tb420 N458 2.600 . S
Tb420 O464 2.546 . S
Tb420 O465 2.610 . S
Tb420 O467 2.320 . S
Tb420 O468 2.552 . S
Tb420 O469 2.413 . S
Tb420 O471 2.362 . S
Tb420 O472 2.421 . S
Tb420 C484 2.833 . S
C421 C424 1.432 . S
C421 C425 1.414 . S
C421 N428 1.359 . S
C422 C424 1.417 . S
C422 C426 1.432 . S
C422 C434 1.410 . S
C423 C425 1.444 . S
C423 C426 1.317 . S
C423 H446 0.929 . S
C424 C421 1.432 . S
C424 C422 1.417 . S
C424 N432 1.360 . S
C425 C421 1.414 . S
C425 C423 1.444 . S
C425 C430 1.385 . S
C426 C422 1.432 . S
C426 C423 1.317 . S
C426 H438 0.930 . S
C427 C429 1.392 . S
C427 C430 1.370 . S
C427 H439 0.931 . S
N428 C421 1.359 . S
N428 C429 1.327 . S
N428 Tb431 2.600 . S
C429 C427 1.392 . S
C429 N428 1.327 . S
C429 H436 0.930 . S
C430 C425 1.385 . S
C430 C427 1.370 . S
C430 H449 0.930 . S
Tb431 N428 2.600 . S
Tb431 N432 2.660 . S
Tb431 O465 2.362 . S
Tb431 O466 2.421 . S
Tb431 O470 2.546 . S
Tb431 O471 2.610 . S
Tb431 O473 2.320 . S
Tb431 O474 2.552 . S
Tb431 O475 2.413 . S
Tb431 C495 2.833 . S
N432 C424 1.360 . S
N432 Tb431 2.660 . S
N432 C433 1.305 . S
C433 N432 1.305 . S
C433 C435 1.407 . S
C433 H440 0.930 . S
C434 C422 1.410 . S
C434 C435 1.345 . S
C434 H442 0.930 . S
C435 C433 1.407 . S
C435 C434 1.345 . S
C435 H437 0.930 . S
H436 C429 0.930 . S
H437 C435 0.930 . S
H438 C426 0.930 . S
H439 C427 0.931 . S
H440 C433 0.930 . S
H441 C455 0.930 . S
H442 C434 0.930 . S
H443 C461 0.930 . S
H444 C452 0.930 . S
H445 C459 0.931 . S
H446 C423 0.929 . S
H447 C453 0.930 . S
H448 C486 0.930 . S
H449 C430 0.930 . S
H450 C485 0.929 . S
N451 Tb420 2.660 . S
N451 C452 1.305 . S
N451 C456 1.360 . S
C452 H444 0.930 . S
C452 N451 1.305 . S
C452 C455 1.407 . S
C453 H447 0.930 . S
C453 C454 1.410 . S
C453 C455 1.345 . S
C454 C453 1.410 . S
C454 C456 1.417 . S
C454 C486 1.432 . S
C455 H441 0.930 . S
C455 C452 1.407 . S
C455 C453 1.345 . S
C456 N451 1.360 . S
C456 C454 1.417 . S
C456 C460 1.432 . S
H457 C462 0.930 . S
N458 Tb420 2.600 . S
N458 C460 1.359 . S
N458 C461 1.327 . S
C459 H445 0.931 . S
C459 C461 1.392 . S
C459 C462 1.370 . S
C460 C456 1.432 . S
C460 N458 1.359 . S
C460 C463 1.414 . S
C461 H443 0.930 . S
C461 N458 1.327 . S
C461 C459 1.392 . S
C462 H457 0.930 . S
C462 C459 1.370 . S
C462 C463 1.385 . S
C463 C460 1.414 . S
C463 C462 1.385 . S
C463 C485 1.444 . S
O464 Tb420 2.546 . S
O464 C484 1.251 . S
O465 Tb420 2.610 . S
O465 Tb431 2.362 . S
O465 C476 1.283 . S
O466 Tb431 2.421 . S
O466 C483 1.262 . S
O467 Tb420 2.320 . S
O467 C483 1.260 . S
O468 Tb420 2.552 . S
O468 C476 1.243 . S
O469 Tb420 2.413 . S
O469 C484 1.256 . S
O470 Tb431 2.546 . S
O470 C495 1.251 . S
O471 Tb420 2.362 . S
O471 Tb431 2.610 . S
O471 C487 1.283 . S
O472 Tb420 2.421 . S
O472 C494 1.262 . S
O473 Tb431 2.320 . S
O473 C494 1.260 . S
O474 Tb431 2.552 . S
O474 C487 1.243 . S
O475 Tb431 2.413 . S
O475 C495 1.256 . S
C476 O465 1.283 . S
C476 O468 1.243 . S
C477 C479 1.382 . S
C477 C481 1.393 . S
C477 C484 1.500 . S
C478 C479 1.400 . S
C478 C480 1.384 . S
C479 C477 1.382 . S
C479 C478 1.400 . S
C479 H496 0.930 . S
C480 C478 1.384 . S
C480 C482 1.392 . S
C480 H497 0.931 . S
C481 C477 1.393 . S
C481 C482 1.401 . S
C481 H498 0.930 . S
C482 C480 1.392 . S
C482 C481 1.401 . S
C482 H499 0.930 . S
C483 O466 1.262 . S
C483 O467 1.260 . S
C484 Tb420 2.833 . S
C484 O464 1.251 . S
C484 O469 1.256 . S
C484 C477 1.500 . S
C485 H450 0.929 . S
C485 C463 1.444 . S
C485 C486 1.317 . S
C486 H448 0.930 . S
C486 C454 1.432 . S
C486 C485 1.317 . S
C487 O471 1.283 . S
C487 O474 1.243 . S
C488 C489 1.382 . S
C488 C492 1.393 . S
C488 C495 1.500 . S
C489 C488 1.382 . S
C489 C490 1.400 . S
C489 H500 0.930 . S
C490 C489 1.400 . S
C490 C491 1.384 . S
C491 C490 1.384 . S
C491 C493 1.392 . S
C491 H501 0.931 . S
C492 C488 1.393 . S
C492 C493 1.401 . S
C492 H502 0.930 . S
C493 C491 1.392 . S
C493 C492 1.401 . S
C493 H503 0.930 . S
C494 O472 1.262 . S
C494 O473 1.260 . S
C495 Tb431 2.833 . S
C495 O470 1.251 . S
C495 O475 1.256 . S
C495 C488 1.500 . S
H496 C479 0.930 . S
H497 C480 0.931 . S
H498 C481 0.930 . S
H499 C482 0.930 . S
H500 C489 0.930 . S
H501 C491 0.931 . S
H502 C492 0.930 . S
H503 C493 0.930 . S
Tb504 N535 2.660 . S
Tb504 N542 2.600 . S
Tb504 O548 2.546 . S
Tb504 O549 2.610 . S
Tb504 O551 2.320 . S
Tb504 O552 2.552 . S
Tb504 O553 2.413 . S
Tb504 O555 2.362 . S
Tb504 O556 2.421 . S
Tb504 C568 2.833 . S
C505 C508 1.432 . S
C505 C509 1.414 . S
C505 N512 1.359 . S
C506 C508 1.417 . S
C506 C510 1.432 . S
C506 C518 1.410 . S
C507 C509 1.444 . S
C507 C510 1.317 . S
C507 H530 0.929 . S
C508 C505 1.432 . S
C508 C506 1.417 . S
C508 N516 1.360 . S
C509 C505 1.414 . S
C509 C507 1.444 . S
C509 C514 1.385 . S
C510 C506 1.432 . S
C510 C507 1.317 . S
C510 H522 0.930 . S
C511 C513 1.392 . S
C511 C514 1.370 . S
C511 H523 0.931 . S
N512 C505 1.359 . S
N512 C513 1.327 . S
N512 Tb515 2.600 . S
C513 C511 1.392 . S
C513 N512 1.327 . S
C513 H520 0.930 . S
C514 C509 1.385 . S
C514 C511 1.370 . S
C514 H533 0.930 . S
Tb515 N512 2.600 . S
Tb515 N516 2.660 . S
Tb515 O549 2.362 . S
Tb515 O550 2.421 . S
Tb515 O554 2.546 . S
Tb515 O555 2.610 . S
Tb515 O557 2.320 . S
Tb515 O558 2.552 . S
Tb515 O559 2.413 . S
Tb515 C579 2.833 . S
N516 C508 1.360 . S
N516 Tb515 2.660 . S
N516 C517 1.305 . S
C517 N516 1.305 . S
C517 C519 1.407 . S
C517 H524 0.930 . S
C518 C506 1.410 . S
C518 C519 1.345 . S
C518 H526 0.930 . S
C519 C517 1.407 . S
C519 C518 1.345 . S
C519 H521 0.930 . S
H520 C513 0.930 . S
H521 C519 0.930 . S
H522 C510 0.930 . S
H523 C511 0.931 . S
H524 C517 0.930 . S
H525 C539 0.930 . S
H526 C518 0.930 . S
H527 C545 0.930 . S
H528 C536 0.930 . S
H529 C543 0.931 . S
H530 C507 0.929 . S
H531 C537 0.930 . S
H532 C570 0.930 . S
H533 C514 0.930 . S
H534 C569 0.929 . S
N535 Tb504 2.660 . S
N535 C536 1.305 . S
N535 C540 1.360 . S
C536 H528 0.930 . S
C536 N535 1.305 . S
C536 C539 1.407 . S
C537 H531 0.930 . S
C537 C538 1.410 . S
C537 C539 1.345 . S
C538 C537 1.410 . S
C538 C540 1.417 . S
C538 C570 1.432 . S
C539 H525 0.930 . S
C539 C536 1.407 . S
C539 C537 1.345 . S
C540 N535 1.360 . S
C540 C538 1.417 . S
C540 C544 1.432 . S
H541 C546 0.930 . S
N542 Tb504 2.600 . S
N542 C544 1.359 . S
N542 C545 1.327 . S
C543 H529 0.931 . S
C543 C545 1.392 . S
C543 C546 1.370 . S
C544 C540 1.432 . S
C544 N542 1.359 . S
C544 C547 1.414 . S
C545 H527 0.930 . S
C545 N542 1.327 . S
C545 C543 1.392 . S
C546 H541 0.930 . S
C546 C543 1.370 . S
C546 C547 1.385 . S
C547 C544 1.414 . S
C547 C546 1.385 . S
C547 C569 1.444 . S
O548 Tb504 2.546 . S
O548 C568 1.251 . S
O549 Tb504 2.610 . S
O549 Tb515 2.362 . S
O549 C560 1.283 . S
O550 Tb515 2.421 . S
O550 C567 1.262 . S
O551 Tb504 2.320 . S
O551 C567 1.260 . S
O552 Tb504 2.552 . S
O552 C560 1.243 . S
O553 Tb504 2.413 . S
O553 C568 1.256 . S
O554 Tb515 2.546 . S
O554 C579 1.251 . S
O555 Tb504 2.362 . S
O555 Tb515 2.610 . S
O555 C571 1.283 . S
O556 Tb504 2.421 . S
O556 C578 1.262 . S
O557 Tb515 2.320 . S
O557 C578 1.260 . S
O558 Tb515 2.552 . S
O558 C571 1.243 . S
O559 Tb515 2.413 . S
O559 C579 1.256 . S
C560 O549 1.283 . S
C560 O552 1.243 . S
C561 C563 1.382 . S
C561 C565 1.393 . S
C561 C568 1.500 . S
C562 C563 1.400 . S
C562 C564 1.384 . S
C563 C561 1.382 . S
C563 C562 1.400 . S
C563 H580 0.930 . S
C564 C562 1.384 . S
C564 C566 1.392 . S
C564 H581 0.931 . S
C565 C561 1.393 . S
C565 C566 1.401 . S
C565 H582 0.930 . S
C566 C564 1.392 . S
C566 C565 1.401 . S
C566 H583 0.930 . S
C567 O550 1.262 . S
C567 O551 1.260 . S
C568 Tb504 2.833 . S
C568 O548 1.251 . S
C568 O553 1.256 . S
C568 C561 1.500 . S
C569 H534 0.929 . S
C569 C547 1.444 . S
C569 C570 1.317 . S
C570 H532 0.930 . S
C570 C538 1.432 . S
C570 C569 1.317 . S
C571 O555 1.283 . S
C571 O558 1.243 . S
C572 C573 1.382 . S
C572 C576 1.393 . S
C572 C579 1.500 . S
C573 C572 1.382 . S
C573 C574 1.400 . S
C573 H584 0.930 . S
C574 C573 1.400 . S
C574 C575 1.384 . S
C575 C574 1.384 . S
C575 C577 1.392 . S
C575 H585 0.931 . S
C576 C572 1.393 . S
C576 C577 1.401 . S
C576 H586 0.930 . S
C577 C575 1.392 . S
C577 C576 1.401 . S
C577 H587 0.930 . S
C578 O556 1.262 . S
C578 O557 1.260 . S
C579 Tb515 2.833 . S
C579 O554 1.251 . S
C579 O559 1.256 . S
C579 C572 1.500 . S
H580 C563 0.930 . S
H581 C564 0.931 . S
H582 C565 0.930 . S
H583 C566 0.930 . S
H584 C573 0.930 . S
H585 C575 0.931 . S
H586 C576 0.930 . S
H587 C577 0.930 . S
Tb588 N619 2.660 . S
Tb588 N626 2.600 . S
Tb588 O632 2.546 . S
Tb588 O633 2.610 . S
Tb588 O635 2.320 . S
Tb588 O636 2.552 . S
Tb588 O637 2.413 . S
Tb588 O639 2.362 . S
Tb588 O640 2.421 . S
Tb588 C652 2.833 . S
C589 C592 1.432 . S
C589 C593 1.414 . S
C589 N596 1.359 . S
C590 C592 1.417 . S
C590 C594 1.432 . S
C590 C602 1.410 . S
C591 C593 1.444 . S
C591 C594 1.317 . S
C591 H614 0.929 . S
C592 C589 1.432 . S
C592 C590 1.417 . S
C592 N600 1.360 . S
C593 C589 1.414 . S
C593 C591 1.444 . S
C593 C598 1.385 . S
C594 C590 1.432 . S
C594 C591 1.317 . S
C594 H606 0.930 . S
C595 C597 1.392 . S
C595 C598 1.370 . S
C595 H607 0.931 . S
N596 C589 1.359 . S
N596 C597 1.327 . S
N596 Tb599 2.600 . S
C597 C595 1.392 . S
C597 N596 1.327 . S
C597 H604 0.930 . S
C598 C593 1.385 . S
C598 C595 1.370 . S
C598 H617 0.930 . S
Tb599 N596 2.600 . S
Tb599 N600 2.660 . S
Tb599 O633 2.362 . S
Tb599 O634 2.421 . S
Tb599 O638 2.546 . S
Tb599 O639 2.610 . S
Tb599 O641 2.320 . S
Tb599 O642 2.552 . S
Tb599 O643 2.413 . S
Tb599 C663 2.833 . S
N600 C592 1.360 . S
N600 Tb599 2.660 . S
N600 C601 1.305 . S
C601 N600 1.305 . S
C601 C603 1.407 . S
C601 H608 0.930 . S
C602 C590 1.410 . S
C602 C603 1.345 . S
C602 H610 0.930 . S
C603 C601 1.407 . S
C603 C602 1.345 . S
C603 H605 0.930 . S
H604 C597 0.930 . S
H605 C603 0.930 . S
H606 C594 0.930 . S
H607 C595 0.931 . S
H608 C601 0.930 . S
H609 C623 0.930 . S
H610 C602 0.930 . S
H611 C629 0.930 . S
H612 C620 0.930 . S
H613 C627 0.931 . S
H614 C591 0.929 . S
H615 C621 0.930 . S
H616 C654 0.930 . S
H617 C598 0.930 . S
H618 C653 0.929 . S
N619 Tb588 2.660 . S
N619 C620 1.305 . S
N619 C624 1.360 . S
C620 H612 0.930 . S
C620 N619 1.305 . S
C620 C623 1.407 . S
C621 H615 0.930 . S
C621 C622 1.410 . S
C621 C623 1.345 . S
C622 C621 1.410 . S
C622 C624 1.417 . S
C622 C654 1.432 . S
C623 H609 0.930 . S
C623 C620 1.407 . S
C623 C621 1.345 . S
C624 N619 1.360 . S
C624 C622 1.417 . S
C624 C628 1.432 . S
H625 C630 0.930 . S
N626 Tb588 2.600 . S
N626 C628 1.359 . S
N626 C629 1.327 . S
C627 H613 0.931 . S
C627 C629 1.392 . S
C627 C630 1.370 . S
C628 C624 1.432 . S
C628 N626 1.359 . S
C628 C631 1.414 . S
C629 H611 0.930 . S
C629 N626 1.327 . S
C629 C627 1.392 . S
C630 H625 0.930 . S
C630 C627 1.370 . S
C630 C631 1.385 . S
C631 C628 1.414 . S
C631 C630 1.385 . S
C631 C653 1.444 . S
O632 Tb588 2.546 . S
O632 C652 1.251 . S
O633 Tb588 2.610 . S
O633 Tb599 2.362 . S
O633 C644 1.283 . S
O634 Tb599 2.421 . S
O634 C651 1.262 . S
O635 Tb588 2.320 . S
O635 C651 1.260 . S
O636 Tb588 2.552 . S
O636 C644 1.243 . S
O637 Tb588 2.413 . S
O637 C652 1.256 . S
O638 Tb599 2.546 . S
O638 C663 1.251 . S
O639 Tb588 2.362 . S
O639 Tb599 2.610 . S
O639 C655 1.283 . S
O640 Tb588 2.421 . S
O640 C662 1.262 . S
O641 Tb599 2.320 . S
O641 C662 1.260 . S
O642 Tb599 2.552 . S
O642 C655 1.243 . S
O643 Tb599 2.413 . S
O643 C663 1.256 . S
C644 O633 1.283 . S
C644 O636 1.243 . S
C645 C647 1.382 . S
C645 C649 1.393 . S
C645 C652 1.500 . S
C646 C647 1.400 . S
C646 C648 1.384 . S
C647 C645 1.382 . S
C647 C646 1.400 . S
C647 H664 0.930 . S
C648 C646 1.384 . S
C648 C650 1.392 . S
C648 H665 0.931 . S
C649 C645 1.393 . S
C649 C650 1.401 . S
C649 H666 0.930 . S
C650 C648 1.392 . S
C650 C649 1.401 . S
C650 H667 0.930 . S
C651 O634 1.262 . S
C651 O635 1.260 . S
C652 Tb588 2.833 . S
C652 O632 1.251 . S
C652 O637 1.256 . S
C652 C645 1.500 . S
C653 H618 0.929 . S
C653 C631 1.444 . S
C653 C654 1.317 . S
C654 H616 0.930 . S
C654 C622 1.432 . S
C654 C653 1.317 . S
C655 O639 1.283 . S
C655 O642 1.243 . S
C656 C657 1.382 . S
C656 C660 1.393 . S
C656 C663 1.500 . S
C657 C656 1.382 . S
C657 C658 1.400 . S
C657 H668 0.930 . S
C658 C657 1.400 . S
C658 C659 1.384 . S
C659 C658 1.384 . S
C659 C661 1.392 . S
C659 H669 0.931 . S
C660 C656 1.393 . S
C660 C661 1.401 . S
C660 H670 0.930 . S
C661 C659 1.392 . S
C661 C660 1.401 . S
C661 H671 0.930 . S
C662 O640 1.262 . S
C662 O641 1.260 . S
C663 Tb599 2.833 . S
C663 O638 1.251 . S
C663 O643 1.256 . S
C663 C656 1.500 . S
H664 C647 0.930 . S
H665 C648 0.931 . S
H666 C649 0.930 . S
H667 C650 0.930 . S
H668 C657 0.930 . S
H669 C659 0.931 . S
H670 C660 0.930 . S
H671 C661 0.930 . S
Co672 O675 2.042 . S
Co672 O682 2.264 . S
Co672 O701 2.286 . S
Co672 O702 2.069 . S
Co672 O704 2.015 1_455 S
Co673 O675 2.122 . S
Co673 O681 2.073 . S
Co673 O682 2.327 . S
Co673 O683 1.976 1_455 S
Co674 O675 2.089 1_545 S
Co674 O677 2.085 1_455 S
Co674 O684 2.107 1_445 S
Co674 O685 2.147 . S
Co674 O689 2.115 . S
Co674 O703 2.140 1_445 S
O675 Co672 2.042 . S
O675 Co673 2.122 . S
O675 Co674 2.089 1_565 S
O675 H676 0.980 . S
H676 O675 0.980 . S
O677 Co674 2.085 1_655 S
O677 Co678 2.042 . S
O677 Co679 2.122 . S
O677 H680 0.980 . S
Co678 O677 2.042 . S
Co678 O686 2.286 . S
Co678 O687 2.069 . S
Co678 O688 2.015 1_655 S
Co678 O691 2.264 . S
Co679 O677 2.122 . S
Co679 O690 1.976 1_655 S
Co679 O691 2.327 . S
Co679 O692 2.073 . S
H680 O677 0.980 . S
O681 Co673 2.073 . S
O681 C696 1.245 . S
O682 Co672 2.264 . S
O682 Co673 2.327 . S
O682 C696 1.257 . S
O683 Co673 1.976 1_655 S
O683 C695 1.251 . S
O684 Co674 2.107 1_665 S
O684 C695 1.274 . S
O685 Co674 2.147 . S
O685 C698 1.246 . S
O686 Co678 2.286 . S
O686 C697 1.259 . S
O687 Co678 2.069 . S
O687 C697 1.289 . S
O688 Co678 2.015 1_455 S
O688 C698 1.257 . S
O689 Co674 2.115 . S
O689 C699 1.274 . S
O690 Co679 1.976 1_455 S
O690 C699 1.251 . S
O691 Co678 2.264 . S
O691 Co679 2.327 . S
O691 C700 1.257 . S
O692 Co679 2.073 . S
O692 C700 1.245 . S
C693 O701 1.259 . S
C693 O702 1.289 . S
C694 O703 1.246 . S
C694 O704 1.257 . S
C695 O683 1.251 . S
C695 O684 1.274 . S
C696 O681 1.245 . S
C696 O682 1.257 . S
C697 O686 1.259 . S
C697 O687 1.289 . S
C698 O685 1.246 . S
C698 O688 1.257 . S
C699 O689 1.274 . S
C699 O690 1.251 . S
C700 O691 1.257 . S
C700 O692 1.245 . S
O701 Co672 2.286 . S
O701 C693 1.259 . S
O702 Co672 2.069 . S
O702 C693 1.289 . S
O703 Co674 2.140 1_665 S
O703 C694 1.246 . S
O704 Co672 2.015 1_655 S
O704 C694 1.257 . S
Co705 O708 2.042 1_556 S
Co705 O715 2.264 1_556 S
Co705 O734 2.286 . S
Co705 O735 2.069 . S
Co705 O737 2.015 . S
Co706 O708 2.122 . S
Co706 O714 2.073 . S
Co706 O715 2.327 . S
Co706 O716 1.976 . S
Co707 O708 2.084 1_545 S
Co707 O710 2.090 1_554 S
Co707 O717 2.111 1_545 S
Co707 O718 2.146 . S
Co707 O722 2.112 1_554 S
Co707 O736 2.141 1_544 S
O708 Co705 2.042 1_554 S
O708 Co706 2.122 . S
O708 Co707 2.084 1_565 S
O708 H709 0.980 . S
H709 O708 0.980 . S
O710 Co707 2.090 1_556 S
O710 Co711 2.042 1_556 S
O710 Co712 2.122 . S
O710 H713 0.980 . S
Co711 O710 2.042 1_554 S
Co711 O719 2.286 . S
Co711 O720 2.069 . S
Co711 O721 2.015 . S
Co711 O724 2.264 1_554 S
Co712 O710 2.122 . S
Co712 O723 1.976 . S
Co712 O724 2.327 . S
Co712 O725 2.073 . S
H713 O710 0.980 . S
O714 Co706 2.073 . S
O714 C729 1.245 . S
O715 Co705 2.264 1_554 S
O715 Co706 2.327 . S
O715 C729 1.257 . S
O716 Co706 1.976 . S
O716 C728 1.251 . S
O717 Co707 2.111 1_565 S
O717 C728 1.274 . S
O718 Co707 2.146 . S
O718 C731 1.246 . S
O719 Co711 2.286 . S
O719 C730 1.259 . S
O720 Co711 2.069 . S
O720 C730 1.289 . S
O721 Co711 2.015 . S
O721 C731 1.257 . S
O722 Co707 2.112 1_556 S
O722 C732 1.274 . S
O723 Co712 1.976 . S
O723 C732 1.251 . S
O724 Co711 2.264 1_556 S
O724 Co712 2.327 . S
O724 C733 1.257 . S
O725 Co712 2.073 . S
O725 C733 1.245 . S
C726 O734 1.259 . S
C726 O735 1.289 . S
C727 O736 1.246 . S
C727 O737 1.257 . S
C728 O716 1.251 . S
C728 O717 1.274 . S
C729 O714 1.245 . S
C729 O715 1.257 . S
C730 O719 1.259 . S
C730 O720 1.289 . S
C731 O718 1.246 . S
C731 O721 1.257 . S
C732 O722 1.274 . S
C732 O723 1.251 . S
C733 O724 1.257 . S
C733 O725 1.245 . S
O734 Co705 2.286 . S
O734 C726 1.259 . S
O735 Co705 2.069 . S
O735 C726 1.289 . S
O736 Co707 2.141 1_566 S
O736 C727 1.246 . S
O737 Co705 2.015 . S
O737 C727 1.257 . S
Co738 O741 2.042 1_556 S
Co738 O748 2.264 1_556 S
Co738 O767 2.286 . S
Co738 O768 2.069 . S
Co738 O770 2.015 1_455 S
Co739 O741 2.122 . S
Co739 O747 2.073 . S
Co739 O748 2.327 . S
Co739 O749 1.976 1_455 S
Co740 O741 2.092 . S
Co740 O743 2.082 1_454 S
Co740 O750 2.108 1_455 S
Co740 O751 2.145 . S
Co740 O755 2.114 1_554 S
Co740 O769 2.142 1_454 S
O741 Co738 2.042 1_554 S
O741 Co739 2.122 . S
O741 Co740 2.092 . S
O741 H742 0.980 . S
H742 O741 0.980 . S
O743 Co740 2.082 1_656 S
O743 Co744 2.042 1_556 S
O743 Co745 2.122 . S
O743 H746 0.980 . S
Co744 O743 2.042 1_554 S
Co744 O752 2.286 . S
Co744 O753 2.069 . S
Co744 O754 2.015 1_655 S
Co744 O757 2.264 1_554 S
Co745 O743 2.122 . S
Co745 O756 1.976 1_655 S
Co745 O757 2.327 . S
Co745 O758 2.073 . S
H746 O743 0.980 . S
O747 Co739 2.073 . S
O747 C762 1.245 . S
O748 Co738 2.264 1_554 S
O748 Co739 2.327 . S
O748 C762 1.257 . S
O749 Co739 1.976 1_655 S
O749 C761 1.251 . S
O750 Co740 2.108 1_655 S
O750 C761 1.274 . S
O751 Co740 2.145 . S
O751 C764 1.246 . S
O752 Co744 2.286 . S
O752 C763 1.259 . S
O753 Co744 2.069 . S
O753 C763 1.289 . S
O754 Co744 2.015 1_455 S
O754 C764 1.257 . S
O755 Co740 2.114 1_556 S
O755 C765 1.274 . S
O756 Co745 1.976 1_455 S
O756 C765 1.251 . S
O757 Co744 2.264 1_556 S
O757 Co745 2.327 . S
O757 C766 1.257 . S
O758 Co745 2.073 . S
O758 C766 1.245 . S
C759 O767 1.259 . S
C759 O768 1.289 . S
C760 O769 1.246 . S
C760 O770 1.257 . S
C761 O749 1.251 . S
C761 O750 1.274 . S
C762 O747 1.245 . S
C762 O748 1.257 . S
C763 O752 1.259 . S
C763 O753 1.289 . S
C764 O751 1.246 . S
C764 O754 1.257 . S
C765 O755 1.274 . S
C765 O756 1.251 . S
C766 O757 1.257 . S
C766 O758 1.245 . S
O767 Co738 2.286 . S
O767 C759 1.259 . S
O768 Co738 2.069 . S
O768 C759 1.289 . S
O769 Co740 2.142 1_656 S
O769 C760 1.246 . S
O770 Co738 2.015 1_655 S
O770 C760 1.257 . S
Co771 O774 2.042 1_556 S
Co771 O781 2.264 1_556 S
Co771 O800 2.286 . S
Co771 O801 2.069 . S
Co771 O803 2.015 . S
Co772 O774 2.122 . S
Co772 O780 2.073 . S
Co772 O781 2.327 . S
Co772 O782 1.976 . S
Co773 O774 2.087 . S
Co773 O776 2.087 1_554 S
Co773 O783 2.111 . S
Co773 O784 2.143 . S
Co773 O788 2.111 1_554 S
Co773 O802 2.143 1_554 S
O774 Co771 2.042 1_554 S
O774 Co772 2.122 . S
O774 Co773 2.087 . S
O774 H775 0.980 . S
H775 O774 0.980 . S
O776 Co773 2.087 1_556 S
O776 Co777 2.042 1_556 S
O776 Co778 2.122 . S
O776 H779 0.980 . S
Co777 O776 2.042 1_554 S
Co777 O785 2.286 . S
Co777 O786 2.069 . S
Co777 O787 2.015 . S
Co777 O790 2.264 1_554 S
Co778 O776 2.122 . S
Co778 O789 1.976 . S
Co778 O790 2.327 . S
Co778 O791 2.073 . S
H779 O776 0.980 . S
O780 Co772 2.073 . S
O780 C795 1.245 . S
O781 Co771 2.264 1_554 S
O781 Co772 2.327 . S
O781 C795 1.257 . S
O782 Co772 1.976 . S
O782 C794 1.251 . S
O783 Co773 2.111 . S
O783 C794 1.274 . S
O784 Co773 2.143 . S
O784 C797 1.246 . S
O785 Co777 2.286 . S
O785 C796 1.259 . S
O786 Co777 2.069 . S
O786 C796 1.289 . S
O787 Co777 2.015 . S
O787 C797 1.257 . S
O788 Co773 2.111 1_556 S
O788 C798 1.274 . S
O789 Co778 1.976 . S
O789 C798 1.251 . S
O790 Co777 2.264 1_556 S
O790 Co778 2.327 . S
O790 C799 1.257 . S
O791 Co778 2.073 . S
O791 C799 1.245 . S
C792 O800 1.259 . S
C792 O801 1.289 . S
C793 O802 1.246 . S
C793 O803 1.257 . S
C794 O782 1.251 . S
C794 O783 1.274 . S
C795 O780 1.245 . S
C795 O781 1.257 . S
C796 O785 1.259 . S
C796 O786 1.289 . S
C797 O784 1.246 . S
C797 O787 1.257 . S
C798 O788 1.274 . S
C798 O789 1.251 . S
C799 O790 1.257 . S
C799 O791 1.245 . S
O800 Co771 2.286 . S
O800 C792 1.259 . S
O801 Co771 2.069 . S
O801 C792 1.289 . S
O802 Co773 2.143 1_556 S
O802 C793 1.246 . S
O803 Co771 2.015 . S
O803 C793 1.257 . S
Co804 O807 2.042 . S
Co804 O814 2.264 . S
Co804 O833 2.286 . S
Co804 O834 2.069 . S
Co804 O836 2.015 . S
Co805 O807 2.122 . S
Co805 O813 2.073 . S
Co805 O814 2.327 . S
Co805 O815 1.976 . S
Co806 O807 2.092 . S
Co806 O809 2.082 1_455 S
Co806 O816 2.113 . S
Co806 O817 2.141 1_455 S
Co806 O821 2.110 1_455 S
Co806 O835 2.146 . S
O807 Co804 2.042 . S
O807 Co805 2.122 . S
O807 Co806 2.092 . S
O807 H808 0.980 . S
H808 O807 0.980 . S
O809 Co806 2.082 1_655 S
O809 Co810 2.042 . S
O809 Co811 2.122 . S
O809 H812 0.980 . S
Co810 O809 2.042 . S
Co810 O818 2.286 . S
Co810 O819 2.069 . S
Co810 O820 2.015 . S
Co810 O823 2.264 . S
Co811 O809 2.122 . S
Co811 O822 1.976 . S
Co811 O823 2.327 . S
Co811 O824 2.073 . S
H812 O809 0.980 . S
O813 Co805 2.073 . S
O813 C828 1.245 . S
O814 Co804 2.264 . S
O814 Co805 2.327 . S
O814 C828 1.257 . S
O815 Co805 1.976 . S
O815 C827 1.251 . S
O816 Co806 2.113 . S
O816 C827 1.274 . S
O817 Co806 2.141 1_655 S
O817 C830 1.246 . S
O818 Co810 2.286 . S
O818 C829 1.259 . S
O819 Co810 2.069 . S
O819 C829 1.289 . S
O820 Co810 2.015 . S
O820 C830 1.257 . S
O821 Co806 2.110 1_655 S
O821 C831 1.274 . S
O822 Co811 1.976 . S
O822 C831 1.251 . S
O823 Co810 2.264 . S
O823 Co811 2.327 . S
O823 C832 1.257 . S
O824 Co811 2.073 . S
O824 C832 1.245 . S
C825 O833 1.259 . S
C825 O834 1.289 . S
C826 O835 1.246 . S
C826 O836 1.257 . S
C827 O815 1.251 . S
C827 O816 1.274 . S
C828 O813 1.245 . S
C828 O814 1.257 . S
C829 O818 1.259 . S
C829 O819 1.289 . S
C830 O817 1.246 . S
C830 O820 1.257 . S
C831 O821 1.274 . S
C831 O822 1.251 . S
C832 O823 1.257 . S
C832 O824 1.245 . S
O833 Co804 2.286 . S
O833 C825 1.259 . S
O834 Co804 2.069 . S
O834 C825 1.289 . S
O835 Co806 2.146 . S
O835 C826 1.246 . S
O836 Co804 2.015 . S
O836 C826 1.257 . S
Co837 O840 2.042 . S
Co837 O847 2.264 . S
Co837 O866 2.286 . S
Co837 O867 2.069 . S
Co837 O869 2.015 1_565 S
Co838 O840 2.122 . S
Co838 O846 2.073 . S
Co838 O847 2.327 . S
Co838 O848 1.976 1_565 S
Co839 O840 2.084 1_545 S
Co839 O842 2.090 . S
Co839 O849 2.113 . S
Co839 O850 2.142 1_545 S
Co839 O854 2.109 1_545 S
Co839 O868 2.145 . S
O840 Co837 2.042 . S
O840 Co838 2.122 . S
O840 Co839 2.084 1_565 S
O840 H841 0.980 . S
H841 O840 0.980 . S
O842 Co839 2.090 . S
O842 Co843 2.042 . S
O842 Co844 2.122 . S
O842 H845 0.980 . S
Co843 O842 2.042 . S
Co843 O851 2.286 . S
Co843 O852 2.069 . S
Co843 O853 2.015 1_545 S
Co843 O856 2.264 . S
Co844 O842 2.122 . S
Co844 O855 1.976 1_545 S
Co844 O856 2.327 . S
Co844 O857 2.073 . S
H845 O842 0.980 . S
O846 Co838 2.073 . S
O846 C861 1.245 . S
O847 Co837 2.264 . S
O847 Co838 2.327 . S
O847 C861 1.257 . S
O848 Co838 1.976 1_545 S
O848 C860 1.251 . S
O849 Co839 2.113 . S
O849 C860 1.274 . S
O850 Co839 2.142 1_565 S
O850 C863 1.246 . S
O851 Co843 2.286 . S
O851 C862 1.259 . S
O852 Co843 2.069 . S
O852 C862 1.289 . S
O853 Co843 2.015 1_565 S
O853 C863 1.257 . S
O854 Co839 2.109 1_565 S
O854 C864 1.274 . S
O855 Co844 1.976 1_565 S
O855 C864 1.251 . S
O856 Co843 2.264 . S
O856 Co844 2.327 . S
O856 C865 1.257 . S
O857 Co844 2.073 . S
O857 C865 1.245 . S
C858 O866 1.259 . S
C858 O867 1.289 . S
C859 O868 1.246 . S
C859 O869 1.257 . S
C860 O848 1.251 . S
C860 O849 1.274 . S
C861 O846 1.245 . S
C861 O847 1.257 . S
C862 O851 1.259 . S
C862 O852 1.289 . S
C863 O850 1.246 . S
C863 O853 1.257 . S
C864 O854 1.274 . S
C864 O855 1.251 . S
C865 O856 1.257 . S
C865 O857 1.245 . S
O866 Co837 2.286 . S
O866 C858 1.259 . S
O867 Co837 2.069 . S
O867 C858 1.289 . S
O868 Co839 2.145 . S
O868 C859 1.246 . S
O869 Co837 2.015 1_545 S
O869 C859 1.257 . S
H870 C876 0.930 . S
H871 C880 0.930 . S
H872 C885 0.929 . S
H873 C883 0.929 . S
H874 C878 0.929 . S
H875 C884 0.929 . S
C876 H870 0.930 . S
C876 C877 1.367 . S
C876 C884 1.378 . S
C877 C876 1.367 . S
C877 C885 1.433 . S
C878 H874 0.929 . S
C878 C880 1.378 . S
C878 C882 1.350 . S
C879 C882 1.463 . S
C879 C884 1.350 . S
C879 N887 1.427 . S
C880 H871 0.930 . S
C880 C878 1.378 . S
C880 C881 1.367 . S
C881 C880 1.367 . S
C881 C883 1.433 . S
C882 C878 1.350 . S
C882 C879 1.463 . S
C882 N886 1.427 . S
C883 H873 0.929 . S
C883 C881 1.433 . S
C883 N886 1.384 . S
C884 H875 0.929 . S
C884 C876 1.378 . S
C884 C879 1.350 . S
C885 H872 0.929 . S
C885 C877 1.433 . S
C885 N887 1.384 . S
N886 C882 1.427 . S
N886 C883 1.384 . S
N887 C879 1.427 . S
N887 C885 1.384 . S
H888 C894 0.930 . S
H889 C898 0.930 . S
H890 C903 0.929 . S
H891 C901 0.929 . S
H892 C896 0.929 . S
H893 C902 0.929 . S
C894 H888 0.930 . S
C894 C895 1.367 . S
C894 C902 1.378 . S
C895 C894 1.367 . S
C895 C903 1.433 . S
C896 H892 0.929 . S
C896 C898 1.378 . S
C896 C900 1.350 . S
C897 C900 1.463 . S
C897 C902 1.350 . S
C897 N905 1.427 . S
C898 H889 0.930 . S
C898 C896 1.378 . S
C898 C899 1.367 . S
C899 C898 1.367 . S
C899 C901 1.433 . S
C900 C896 1.350 . S
C900 C897 1.463 . S
C900 N904 1.427 . S
C901 H891 0.929 . S
C901 C899 1.433 . S
C901 N904 1.384 . S
C902 H893 0.929 . S
C902 C894 1.378 . S
C902 C897 1.350 . S
C903 H890 0.929 . S
C903 C895 1.433 . S
C903 N905 1.384 . S
N904 C900 1.427 . S
N904 C901 1.384 . S
N905 C897 1.427 . S
N905 C903 1.384 . S
H906 C912 0.930 . S
H907 C916 0.930 . S
H908 C921 0.929 . S
H909 C919 0.929 . S
H910 C914 0.929 . S
H911 C920 0.929 . S
C912 H906 0.930 . S
C912 C913 1.367 . S
C912 C920 1.378 . S
C913 C912 1.367 . S
C913 C921 1.433 . S
C914 H910 0.929 . S
C914 C916 1.378 . S
C914 C918 1.350 . S
C915 C918 1.463 . S
C915 C920 1.350 . S
C915 N923 1.427 . S
C916 H907 0.930 . S
C916 C914 1.378 . S
C916 C917 1.367 . S
C917 C916 1.367 . S
C917 C919 1.433 . S
C918 C914 1.350 . S
C918 C915 1.463 . S
C918 N922 1.427 . S
C919 H909 0.929 . S
C919 C917 1.433 . S
C919 N922 1.384 . S
C920 H911 0.929 . S
C920 C912 1.378 . S
C920 C915 1.350 . S
C921 H908 0.929 . S
C921 C913 1.433 . S
C921 N923 1.384 . S
N922 C918 1.427 . S
N922 C919 1.384 . S
N923 C915 1.427 . S
N923 C921 1.384 . S
H924 C930 0.930 . S
H925 C934 0.930 . S
H926 C939 0.929 . S
H927 C937 0.929 . S
H928 C932 0.929 . S
H929 C938 0.929 . S
C930 H924 0.930 . S
C930 C931 1.367 . S
C930 C938 1.378 . S
C931 C930 1.367 . S
C931 C939 1.433 . S
C932 H928 0.929 . S
C932 C934 1.378 . S
C932 C936 1.350 . S
C933 C936 1.463 . S
C933 C938 1.350 . S
C933 N941 1.427 . S
C934 H925 0.930 . S
C934 C932 1.378 . S
C934 C935 1.367 . S
C935 C934 1.367 . S
C935 C937 1.433 . S
C936 C932 1.350 . S
C936 C933 1.463 . S
C936 N940 1.427 . S
C937 H927 0.929 . S
C937 C935 1.433 . S
C937 N940 1.384 . S
C938 H929 0.929 . S
C938 C930 1.378 . S
C938 C933 1.350 . S
C939 H926 0.929 . S
C939 C931 1.433 . S
C939 N941 1.384 . S
N940 C936 1.427 . S
N940 C937 1.384 . S
N941 C933 1.427 . S
N941 C939 1.384 . S
H942 C948 0.930 . S
H943 C952 0.930 . S
H944 C957 0.929 . S
H945 C955 0.929 . S
H946 C950 0.929 . S
H947 C956 0.929 . S
C948 H942 0.930 . S
C948 C949 1.367 . S
C948 C956 1.378 . S
C949 C948 1.367 . S
C949 C957 1.433 . S
C950 H946 0.929 . S
C950 C952 1.378 . S
C950 C954 1.350 . S
C951 C954 1.463 . S
C951 C956 1.350 . S
C951 N959 1.427 . S
C952 H943 0.930 . S
C952 C950 1.378 . S
C952 C953 1.367 . S
C953 C952 1.367 . S
C953 C955 1.433 . S
C954 C950 1.350 . S
C954 C951 1.463 . S
C954 N958 1.427 . S
C955 H945 0.929 . S
C955 C953 1.433 . S
C955 N958 1.384 . S
C956 H947 0.929 . S
C956 C948 1.378 . S
C956 C951 1.350 . S
C957 H944 0.929 . S
C957 C949 1.433 . S
C957 N959 1.384 . S
N958 C954 1.427 . S
N958 C955 1.384 . S
N959 C951 1.427 . S
N959 C957 1.384 . S
H960 C966 0.930 . S
H961 C970 0.930 . S
H962 C975 0.929 . S
H963 C973 0.929 . S
H964 C968 0.929 . S
H965 C974 0.929 . S
C966 H960 0.930 . S
C966 C967 1.367 . S
C966 C974 1.378 . S
C967 C966 1.367 . S
C967 C975 1.433 . S
C968 H964 0.929 . S
C968 C970 1.378 . S
C968 C972 1.350 . S
C969 C972 1.463 . S
C969 C974 1.350 . S
C969 N977 1.427 . S
C970 H961 0.930 . S
C970 C968 1.378 . S
C970 C971 1.367 . S
C971 C970 1.367 . S
C971 C973 1.433 . S
C972 C968 1.350 . S
C972 C969 1.463 . S
C972 N976 1.427 . S
C973 H963 0.929 . S
C973 C971 1.433 . S
C973 N976 1.384 . S
C974 H965 0.929 . S
C974 C966 1.378 . S
C974 C969 1.350 . S
C975 H962 0.929 . S
C975 C967 1.433 . S
C975 N977 1.384 . S
N976 C972 1.427 . S
N976 C973 1.384 . S
N977 C969 1.427 . S
N977 C975 1.384 . S
H978 C984 0.930 . S
H979 C988 0.930 . S
H980 C993 0.929 . S
H981 C991 0.929 . S
H982 C986 0.929 . S
H983 C992 0.929 . S
C984 H978 0.930 . S
C984 C985 1.367 . S
C984 C992 1.378 . S
C985 C984 1.367 . S
C985 C993 1.433 . S
C986 H982 0.929 . S
C986 C988 1.378 . S
C986 C990 1.350 . S
C987 C990 1.463 . S
C987 C992 1.350 . S
C987 N995 1.427 . S
C988 H979 0.930 . S
C988 C986 1.378 . S
C988 C989 1.367 . S
C989 C988 1.367 . S
C989 C991 1.433 . S
C990 C986 1.350 . S
C990 C987 1.463 . S
C990 N994 1.427 . S
C991 H981 0.929 . S
C991 C989 1.433 . S
C991 N994 1.384 . S
C992 H983 0.929 . S
C992 C984 1.378 . S
C992 C987 1.350 . S
C993 H980 0.929 . S
C993 C985 1.433 . S
C993 N995 1.384 . S
N994 C990 1.427 . S
N994 C991 1.384 . S
N995 C987 1.427 . S
N995 C993 1.384 . S
H996 C1002 0.930 . S
H997 C1006 0.930 . S
H998 C1011 0.929 . S
H999 C1009 0.929 . S
H1000 C1004 0.929 . S
H1001 C1010 0.929 . S
C1002 H996 0.930 . S
C1002 C1003 1.367 . S
C1002 C1010 1.378 . S
C1003 C1002 1.367 . S
C1003 C1011 1.433 . S
C1004 H1000 0.929 . S
C1004 C1006 1.378 . S
C1004 C1008 1.350 . S
C1005 C1008 1.463 . S
C1005 C1010 1.350 . S
C1005 N1013 1.427 . S
C1006 H997 0.930 . S
C1006 C1004 1.378 . S
C1006 C1007 1.367 . S
C1007 C1006 1.367 . S
C1007 C1009 1.433 . S
C1008 C1004 1.350 . S
C1008 C1005 1.463 . S
C1008 N1012 1.427 . S
C1009 H999 0.929 . S
C1009 C1007 1.433 . S
C1009 N1012 1.384 . S
C1010 H1001 0.929 . S
C1010 C1002 1.378 . S
C1010 C1005 1.350 . S
C1011 H998 0.929 . S
C1011 C1003 1.433 . S
C1011 N1013 1.384 . S
N1012 C1008 1.427 . S
N1012 C1009 1.384 . S
N1013 C1005 1.427 . S
N1013 C1011 1.384 . S
H1014 C1020 0.930 . S
H1015 C1024 0.930 . S
H1016 C1029 0.929 . S
H1017 C1027 0.929 . S
H1018 C1022 0.929 . S
H1019 C1028 0.929 . S
C1020 H1014 0.930 . S
C1020 C1021 1.367 . S
C1020 C1028 1.378 . S
C1021 C1020 1.367 . S
C1021 C1029 1.433 . S
C1022 H1018 0.929 . S
C1022 C1024 1.378 . S
C1022 C1026 1.350 . S
C1023 C1026 1.463 . S
C1023 C1028 1.350 . S
C1023 N1031 1.427 . S
C1024 H1015 0.930 . S
C1024 C1022 1.378 . S
C1024 C1025 1.367 . S
C1025 C1024 1.367 . S
C1025 C1027 1.433 . S
C1026 C1022 1.350 . S
C1026 C1023 1.463 . S
C1026 N1030 1.427 . S
C1027 H1017 0.929 . S
C1027 C1025 1.433 . S
C1027 N1030 1.384 . S
C1028 H1019 0.929 . S
C1028 C1020 1.378 . S
C1028 C1023 1.350 . S
C1029 H1016 0.929 . S
C1029 C1021 1.433 . S
C1029 N1031 1.384 . S
N1030 C1026 1.427 . S
N1030 C1027 1.384 . S
N1031 C1023 1.427 . S
N1031 C1029 1.384 . S
H1032 C1038 0.930 . S
H1033 C1042 0.930 . S
H1034 C1047 0.929 . S
H1035 C1045 0.929 . S
H1036 C1040 0.929 . S
H1037 C1046 0.929 . S
C1038 H1032 0.930 . S
C1038 C1039 1.367 . S
C1038 C1046 1.378 . S
C1039 C1038 1.367 . S
C1039 C1047 1.433 . S
C1040 H1036 0.929 . S
C1040 C1042 1.378 . S
C1040 C1044 1.350 . S
C1041 C1044 1.463 . S
C1041 C1046 1.350 . S
C1041 N1049 1.427 . S
C1042 H1033 0.930 . S
C1042 C1040 1.378 . S
C1042 C1043 1.367 . S
C1043 C1042 1.367 . S
C1043 C1045 1.433 . S
C1044 C1040 1.350 . S
C1044 C1041 1.463 . S
C1044 N1048 1.427 . S
C1045 H1035 0.929 . S
C1045 C1043 1.433 . S
C1045 N1048 1.384 . S
C1046 H1037 0.929 . S
C1046 C1038 1.378 . S
C1046 C1041 1.350 . S
C1047 H1034 0.929 . S
C1047 C1039 1.433 . S
C1047 N1049 1.384 . S
N1048 C1044 1.427 . S
N1048 C1045 1.384 . S
N1049 C1041 1.427 . S
N1049 C1047 1.384 . S
H1050 C1056 0.930 . S
H1051 C1060 0.930 . S
H1052 C1065 0.929 . S
H1053 C1063 0.929 . S
H1054 C1058 0.929 . S
H1055 C1064 0.929 . S
C1056 H1050 0.930 . S
C1056 C1057 1.367 . S
C1056 C1064 1.378 . S
C1057 C1056 1.367 . S
C1057 C1065 1.433 . S
C1058 H1054 0.929 . S
C1058 C1060 1.378 . S
C1058 C1062 1.350 . S
C1059 C1062 1.463 . S
C1059 C1064 1.350 . S
C1059 N1067 1.427 . S
C1060 H1051 0.930 . S
C1060 C1058 1.378 . S
C1060 C1061 1.367 . S
C1061 C1060 1.367 . S
C1061 C1063 1.433 . S
C1062 C1058 1.350 . S
C1062 C1059 1.463 . S
C1062 N1066 1.427 . S
C1063 H1053 0.929 . S
C1063 C1061 1.433 . S
C1063 N1066 1.384 . S
C1064 H1055 0.929 . S
C1064 C1056 1.378 . S
C1064 C1059 1.350 . S
C1065 H1052 0.929 . S
C1065 C1057 1.433 . S
C1065 N1067 1.384 . S
N1066 C1062 1.427 . S
N1066 C1063 1.384 . S
N1067 C1059 1.427 . S
N1067 C1065 1.384 . S
H1068 C1074 0.930 . S
H1069 C1078 0.930 . S
H1070 C1083 0.929 . S
H1071 C1081 0.929 . S
H1072 C1076 0.929 . S
H1073 C1082 0.929 . S
C1074 H1068 0.930 . S
C1074 C1075 1.367 . S
C1074 C1082 1.378 . S
C1075 C1074 1.367 . S
C1075 C1083 1.433 . S
C1076 H1072 0.929 . S
C1076 C1078 1.378 . S
C1076 C1080 1.350 . S
C1077 C1080 1.463 . S
C1077 C1082 1.350 . S
C1077 N1085 1.427 . S
C1078 H1069 0.930 . S
C1078 C1076 1.378 . S
C1078 C1079 1.367 . S
C1079 C1078 1.367 . S
C1079 C1081 1.433 . S
C1080 C1076 1.350 . S
C1080 C1077 1.463 . S
C1080 N1084 1.427 . S
C1081 H1071 0.929 . S
C1081 C1079 1.433 . S
C1081 N1084 1.384 . S
C1082 H1073 0.929 . S
C1082 C1074 1.378 . S
C1082 C1077 1.350 . S
C1083 H1070 0.929 . S
C1083 C1075 1.433 . S
C1083 N1085 1.384 . S
N1084 C1080 1.427 . S
N1084 C1081 1.384 . S
N1085 C1077 1.427 . S
N1085 C1083 1.384 . S
H1086 C1092 0.930 . S
H1087 C1096 0.930 . S
H1088 C1101 0.929 . S
H1089 C1099 0.929 . S
H1090 C1094 0.929 . S
H1091 C1100 0.929 . S
C1092 H1086 0.930 . S
C1092 C1093 1.367 . S
C1092 C1100 1.378 . S
C1093 C1092 1.367 . S
C1093 C1101 1.433 . S
C1094 H1090 0.929 . S
C1094 C1096 1.378 . S
C1094 C1098 1.350 . S
C1095 C1098 1.463 . S
C1095 C1100 1.350 . S
C1095 N1103 1.427 . S
C1096 H1087 0.930 . S
C1096 C1094 1.378 . S
C1096 C1097 1.367 . S
C1097 C1096 1.367 . S
C1097 C1099 1.433 . S
C1098 C1094 1.350 . S
C1098 C1095 1.463 . S
C1098 N1102 1.427 . S
C1099 H1089 0.929 . S
C1099 C1097 1.433 . S
C1099 N1102 1.384 . S
C1100 H1091 0.929 . S
C1100 C1092 1.378 . S
C1100 C1095 1.350 . S
C1101 H1088 0.929 . S
C1101 C1093 1.433 . S
C1101 N1103 1.384 . S
N1102 C1098 1.427 . S
N1102 C1099 1.384 . S
N1103 C1095 1.427 . S
N1103 C1101 1.384 . S
H1104 C1110 0.930 . S
H1105 C1114 0.930 . S
H1106 C1119 0.929 . S
H1107 C1117 0.929 . S
H1108 C1112 0.929 . S
H1109 C1118 0.929 . S
C1110 H1104 0.930 . S
C1110 C1111 1.367 . S
C1110 C1118 1.378 . S
C1111 C1110 1.367 . S
C1111 C1119 1.433 . S
C1112 H1108 0.929 . S
C1112 C1114 1.378 . S
C1112 C1116 1.350 . S
C1113 C1116 1.463 . S
C1113 C1118 1.350 . S
C1113 N1121 1.427 . S
C1114 H1105 0.930 . S
C1114 C1112 1.378 . S
C1114 C1115 1.367 . S
C1115 C1114 1.367 . S
C1115 C1117 1.433 . S
C1116 C1112 1.350 . S
C1116 C1113 1.463 . S
C1116 N1120 1.427 . S
C1117 H1107 0.929 . S
C1117 C1115 1.433 . S
C1117 N1120 1.384 . S
C1118 H1109 0.929 . S
C1118 C1110 1.378 . S
C1118 C1113 1.350 . S
C1119 H1106 0.929 . S
C1119 C1111 1.433 . S
C1119 N1121 1.384 . S
N1120 C1116 1.427 . S
N1120 C1117 1.384 . S
N1121 C1113 1.427 . S
N1121 C1119 1.384 . S
H1122 C1128 0.930 . S
H1123 C1132 0.930 . S
H1124 C1137 0.929 . S
H1125 C1135 0.929 . S
H1126 C1130 0.929 . S
H1127 C1136 0.929 . S
C1128 H1122 0.930 . S
C1128 C1129 1.367 . S
C1128 C1136 1.378 . S
C1129 C1128 1.367 . S
C1129 C1137 1.433 . S
C1130 H1126 0.929 . S
C1130 C1132 1.378 . S
C1130 C1134 1.350 . S
C1131 C1134 1.463 . S
C1131 C1136 1.350 . S
C1131 N1139 1.427 . S
C1132 H1123 0.930 . S
C1132 C1130 1.378 . S
C1132 C1133 1.367 . S
C1133 C1132 1.367 . S
C1133 C1135 1.433 . S
C1134 C1130 1.350 . S
C1134 C1131 1.463 . S
C1134 N1138 1.427 . S
C1135 H1125 0.929 . S
C1135 C1133 1.433 . S
C1135 N1138 1.384 . S
C1136 H1127 0.929 . S
C1136 C1128 1.378 . S
C1136 C1131 1.350 . S
C1137 H1124 0.929 . S
C1137 C1129 1.433 . S
C1137 N1139 1.384 . S
N1138 C1134 1.427 . S
N1138 C1135 1.384 . S
N1139 C1131 1.427 . S
N1139 C1137 1.384 . S
H1140 C1146 0.930 . S
H1141 C1150 0.930 . S
H1142 C1155 0.929 . S
H1143 C1153 0.929 . S
H1144 C1148 0.929 . S
H1145 C1154 0.929 . S
C1146 H1140 0.930 . S
C1146 C1147 1.367 . S
C1146 C1154 1.378 . S
C1147 C1146 1.367 . S
C1147 C1155 1.433 . S
C1148 H1144 0.929 . S
C1148 C1150 1.378 . S
C1148 C1152 1.350 . S
C1149 C1152 1.463 . S
C1149 C1154 1.350 . S
C1149 N1157 1.427 . S
C1150 H1141 0.930 . S
C1150 C1148 1.378 . S
C1150 C1151 1.367 . S
C1151 C1150 1.367 . S
C1151 C1153 1.433 . S
C1152 C1148 1.350 . S
C1152 C1149 1.463 . S
C1152 N1156 1.427 . S
C1153 H1143 0.929 . S
C1153 C1151 1.433 . S
C1153 N1156 1.384 . S
C1154 H1145 0.929 . S
C1154 C1146 1.378 . S
C1154 C1149 1.350 . S
C1155 H1142 0.929 . S
C1155 C1147 1.433 . S
C1155 N1157 1.384 . S
N1156 C1152 1.427 . S
N1156 C1153 1.384 . S
N1157 C1149 1.427 . S
N1157 C1155 1.384 . S
H1158 C1164 0.930 . S
H1159 C1168 0.930 . S
H1160 C1173 0.929 . S
H1161 C1171 0.929 . S
H1162 C1166 0.929 . S
H1163 C1172 0.929 . S
C1164 H1158 0.930 . S
C1164 C1165 1.367 . S
C1164 C1172 1.378 . S
C1165 C1164 1.367 . S
C1165 C1173 1.433 . S
C1166 H1162 0.929 . S
C1166 C1168 1.378 . S
C1166 C1170 1.350 . S
C1167 C1170 1.463 . S
C1167 C1172 1.350 . S
C1167 N1175 1.427 . S
C1168 H1159 0.930 . S
C1168 C1166 1.378 . S
C1168 C1169 1.367 . S
C1169 C1168 1.367 . S
C1169 C1171 1.433 . S
C1170 C1166 1.350 . S
C1170 C1167 1.463 . S
C1170 N1174 1.427 . S
C1171 H1161 0.929 . S
C1171 C1169 1.433 . S
C1171 N1174 1.384 . S
C1172 H1163 0.929 . S
C1172 C1164 1.378 . S
C1172 C1167 1.350 . S
C1173 H1160 0.929 . S
C1173 C1165 1.433 . S
C1173 N1175 1.384 . S
N1174 C1170 1.427 . S
N1174 C1171 1.384 . S
N1175 C1167 1.427 . S
N1175 C1173 1.384 . S
H1176 C1182 0.930 . S
H1177 C1186 0.930 . S
H1178 C1191 0.929 . S
H1179 C1189 0.929 . S
H1180 C1184 0.929 . S
H1181 C1190 0.929 . S
C1182 H1176 0.930 . S
C1182 C1183 1.367 . S
C1182 C1190 1.378 . S
C1183 C1182 1.367 . S
C1183 C1191 1.433 . S
C1184 H1180 0.929 . S
C1184 C1186 1.378 . S
C1184 C1188 1.350 . S
C1185 C1188 1.463 . S
C1185 C1190 1.350 . S
C1185 N1193 1.427 . S
C1186 H1177 0.930 . S
C1186 C1184 1.378 . S
C1186 C1187 1.367 . S
C1187 C1186 1.367 . S
C1187 C1189 1.433 . S
C1188 C1184 1.350 . S
C1188 C1185 1.463 . S
C1188 N1192 1.427 . S
C1189 H1179 0.929 . S
C1189 C1187 1.433 . S
C1189 N1192 1.384 . S
C1190 H1181 0.929 . S
C1190 C1182 1.378 . S
C1190 C1185 1.350 . S
C1191 H1178 0.929 . S
C1191 C1183 1.433 . S
C1191 N1193 1.384 . S
N1192 C1188 1.427 . S
N1192 C1189 1.384 . S
N1193 C1185 1.427 . S
N1193 C1191 1.384 . S
H1194 C1200 0.930 . S
H1195 C1204 0.930 . S
H1196 C1209 0.929 . S
H1197 C1207 0.929 . S
H1198 C1202 0.929 . S
H1199 C1208 0.929 . S
C1200 H1194 0.930 . S
C1200 C1201 1.367 . S
C1200 C1208 1.378 . S
C1201 C1200 1.367 . S
C1201 C1209 1.433 . S
C1202 H1198 0.929 . S
C1202 C1204 1.378 . S
C1202 C1206 1.350 . S
C1203 C1206 1.463 . S
C1203 C1208 1.350 . S
C1203 N1211 1.427 . S
C1204 H1195 0.930 . S
C1204 C1202 1.378 . S
C1204 C1205 1.367 . S
C1205 C1204 1.367 . S
C1205 C1207 1.433 . S
C1206 C1202 1.350 . S
C1206 C1203 1.463 . S
C1206 N1210 1.427 . S
C1207 H1197 0.929 . S
C1207 C1205 1.433 . S
C1207 N1210 1.384 . S
C1208 H1199 0.929 . S
C1208 C1200 1.378 . S
C1208 C1203 1.350 . S
C1209 H1196 0.929 . S
C1209 C1201 1.433 . S
C1209 N1211 1.384 . S
N1210 C1206 1.427 . S
N1210 C1207 1.384 . S
N1211 C1203 1.427 . S
N1211 C1209 1.384 . S
H1212 C1218 0.930 . S
H1213 C1222 0.930 . S
H1214 C1227 0.929 . S
H1215 C1225 0.929 . S
H1216 C1220 0.929 . S
H1217 C1226 0.929 . S
C1218 H1212 0.930 . S
C1218 C1219 1.367 . S
C1218 C1226 1.378 . S
C1219 C1218 1.367 . S
C1219 C1227 1.433 . S
C1220 H1216 0.929 . S
C1220 C1222 1.378 . S
C1220 C1224 1.350 . S
C1221 C1224 1.463 . S
C1221 C1226 1.350 . S
C1221 N1229 1.427 . S
C1222 H1213 0.930 . S
C1222 C1220 1.378 . S
C1222 C1223 1.367 . S
C1223 C1222 1.367 . S
C1223 C1225 1.433 . S
C1224 C1220 1.350 . S
C1224 C1221 1.463 . S
C1224 N1228 1.427 . S
C1225 H1215 0.929 . S
C1225 C1223 1.433 . S
C1225 N1228 1.384 . S
C1226 H1217 0.929 . S
C1226 C1218 1.378 . S
C1226 C1221 1.350 . S
C1227 H1214 0.929 . S
C1227 C1219 1.433 . S
C1227 N1229 1.384 . S
N1228 C1224 1.427 . S
N1228 C1225 1.384 . S
N1229 C1221 1.427 . S
N1229 C1227 1.384 . S
H1230 C1236 0.930 . S
H1231 C1240 0.930 . S
H1232 C1245 0.929 . S
H1233 C1243 0.929 . S
H1234 C1238 0.929 . S
H1235 C1244 0.929 . S
C1236 H1230 0.930 . S
C1236 C1237 1.367 . S
C1236 C1244 1.378 . S
C1237 C1236 1.367 . S
C1237 C1245 1.433 . S
C1238 H1234 0.929 . S
C1238 C1240 1.378 . S
C1238 C1242 1.350 . S
C1239 C1242 1.463 . S
C1239 C1244 1.350 . S
C1239 N1247 1.427 . S
C1240 H1231 0.930 . S
C1240 C1238 1.378 . S
C1240 C1241 1.367 . S
C1241 C1240 1.367 . S
C1241 C1243 1.433 . S
C1242 C1238 1.350 . S
C1242 C1239 1.463 . S
C1242 N1246 1.427 . S
C1243 H1233 0.929 . S
C1243 C1241 1.433 . S
C1243 N1246 1.384 . S
C1244 H1235 0.929 . S
C1244 C1236 1.378 . S
C1244 C1239 1.350 . S
C1245 H1232 0.929 . S
C1245 C1237 1.433 . S
C1245 N1247 1.384 . S
N1246 C1242 1.427 . S
N1246 C1243 1.384 . S
N1247 C1239 1.427 . S
N1247 C1245 1.384 . S
H1248 C1254 0.930 . S
H1249 C1258 0.930 . S
H1250 C1263 0.929 . S
H1251 C1261 0.929 . S
H1252 C1256 0.929 . S
H1253 C1262 0.929 . S
C1254 H1248 0.930 . S
C1254 C1255 1.367 . S
C1254 C1262 1.378 . S
C1255 C1254 1.367 . S
C1255 C1263 1.433 . S
C1256 H1252 0.929 . S
C1256 C1258 1.378 . S
C1256 C1260 1.350 . S
C1257 C1260 1.463 . S
C1257 C1262 1.350 . S
C1257 N1265 1.427 . S
C1258 H1249 0.930 . S
C1258 C1256 1.378 . S
C1258 C1259 1.367 . S
C1259 C1258 1.367 . S
C1259 C1261 1.433 . S
C1260 C1256 1.350 . S
C1260 C1257 1.463 . S
C1260 N1264 1.427 . S
C1261 H1251 0.929 . S
C1261 C1259 1.433 . S
C1261 N1264 1.384 . S
C1262 H1253 0.929 . S
C1262 C1254 1.378 . S
C1262 C1257 1.350 . S
C1263 H1250 0.929 . S
C1263 C1255 1.433 . S
C1263 N1265 1.384 . S
N1264 C1260 1.427 . S
N1264 C1261 1.384 . S
N1265 C1257 1.427 . S
N1265 C1263 1.384 . S
H1266 C1272 0.930 . S
H1267 C1276 0.930 . S
H1268 C1281 0.929 . S
H1269 C1279 0.929 . S
H1270 C1274 0.929 . S
H1271 C1280 0.929 . S
C1272 H1266 0.930 . S
C1272 C1273 1.367 . S
C1272 C1280 1.378 . S
C1273 C1272 1.367 . S
C1273 C1281 1.433 . S
C1274 H1270 0.929 . S
C1274 C1276 1.378 . S
C1274 C1278 1.350 . S
C1275 C1278 1.463 . S
C1275 C1280 1.350 . S
C1275 N1283 1.427 . S
C1276 H1267 0.930 . S
C1276 C1274 1.378 . S
C1276 C1277 1.367 . S
C1277 C1276 1.367 . S
C1277 C1279 1.433 . S
C1278 C1274 1.350 . S
C1278 C1275 1.463 . S
C1278 N1282 1.427 . S
C1279 H1269 0.929 . S
C1279 C1277 1.433 . S
C1279 N1282 1.384 . S
C1280 H1271 0.929 . S
C1280 C1272 1.378 . S
C1280 C1275 1.350 . S
C1281 H1268 0.929 . S
C1281 C1273 1.433 . S
C1281 N1283 1.384 . S
N1282 C1278 1.427 . S
N1282 C1279 1.384 . S
N1283 C1275 1.427 . S
N1283 C1281 1.384 . S
H1284 C1290 0.930 . S
H1285 C1294 0.930 . S
H1286 C1299 0.929 . S
H1287 C1297 0.929 . S
H1288 C1292 0.929 . S
H1289 C1298 0.929 . S
C1290 H1284 0.930 . S
C1290 C1291 1.367 . S
C1290 C1298 1.378 . S
C1291 C1290 1.367 . S
C1291 C1299 1.433 . S
C1292 H1288 0.929 . S
C1292 C1294 1.378 . S
C1292 C1296 1.350 . S
C1293 C1296 1.463 . S
C1293 C1298 1.350 . S
C1293 N1301 1.427 . S
C1294 H1285 0.930 . S
C1294 C1292 1.378 . S
C1294 C1295 1.367 . S
C1295 C1294 1.367 . S
C1295 C1297 1.433 . S
C1296 C1292 1.350 . S
C1296 C1293 1.463 . S
C1296 N1300 1.427 . S
C1297 H1287 0.929 . S
C1297 C1295 1.433 . S
C1297 N1300 1.384 . S
C1298 H1289 0.929 . S
C1298 C1290 1.378 . S
C1298 C1293 1.350 . S
C1299 H1286 0.929 . S
C1299 C1291 1.433 . S
C1299 N1301 1.384 . S
N1300 C1296 1.427 . S
N1300 C1297 1.384 . S
N1301 C1293 1.427 . S
N1301 C1299 1.384 . S
H1302 C1308 0.930 . S
H1303 C1312 0.930 . S
H1304 C1317 0.929 . S
H1305 C1315 0.929 . S
H1306 C1310 0.929 . S
H1307 C1316 0.929 . S
C1308 H1302 0.930 . S
C1308 C1309 1.367 . S
C1308 C1316 1.378 . S
C1309 C1308 1.367 . S
C1309 C1317 1.433 . S
C1310 H1306 0.929 . S
C1310 C1312 1.378 . S
C1310 C1314 1.350 . S
C1311 C1314 1.463 . S
C1311 C1316 1.350 . S
C1311 N1319 1.427 . S
C1312 H1303 0.930 . S
C1312 C1310 1.378 . S
C1312 C1313 1.367 . S
C1313 C1312 1.367 . S
C1313 C1315 1.433 . S
C1314 C1310 1.350 . S
C1314 C1311 1.463 . S
C1314 N1318 1.427 . S
C1315 H1305 0.929 . S
C1315 C1313 1.433 . S
C1315 N1318 1.384 . S
C1316 H1307 0.929 . S
C1316 C1308 1.378 . S
C1316 C1311 1.350 . S
C1317 H1304 0.929 . S
C1317 C1309 1.433 . S
C1317 N1319 1.384 . S
N1318 C1314 1.427 . S
N1318 C1315 1.384 . S
N1319 C1311 1.427 . S
N1319 C1317 1.384 . S
H1320 C1326 0.930 . S
H1321 C1330 0.930 . S
H1322 C1335 0.929 . S
H1323 C1333 0.929 1_554 S
H1324 C1328 0.929 . S
H1325 C1334 0.929 . S
C1326 H1320 0.930 . S
C1326 C1327 1.367 . S
C1326 C1334 1.378 . S
C1327 C1326 1.367 . S
C1327 C1335 1.433 . S
C1328 H1324 0.929 . S
C1328 C1330 1.378 . S
C1328 C1332 1.350 . S
C1329 C1332 1.463 . S
C1329 C1334 1.350 . S
C1329 N1337 1.427 . S
C1330 H1321 0.930 . S
C1330 C1328 1.378 . S
C1330 C1331 1.367 . S
C1331 C1330 1.367 . S
C1331 C1333 1.433 . S
C1332 C1328 1.350 . S
C1332 C1329 1.463 . S
C1332 N1336 1.427 . S
C1333 H1323 0.929 1_556 S
C1333 C1331 1.433 . S
C1333 N1336 1.384 . S
C1334 H1325 0.929 . S
C1334 C1326 1.378 . S
C1334 C1329 1.350 . S
C1335 H1322 0.929 . S
C1335 C1327 1.433 . S
C1335 N1337 1.384 . S
N1336 C1332 1.427 . S
N1336 C1333 1.384 . S
N1337 C1329 1.427 . S
N1337 C1335 1.384 . S
H1338 C1344 0.930 . S
H1339 C1348 0.930 . S
H1340 C1353 0.929 . S
H1341 C1351 0.929 . S
H1342 C1346 0.929 . S
H1343 C1352 0.929 . S
C1344 H1338 0.930 . S
C1344 C1345 1.367 . S
C1344 C1352 1.378 . S
C1345 C1344 1.367 . S
C1345 C1353 1.433 . S
C1346 H1342 0.929 . S
C1346 C1348 1.378 . S
C1346 C1350 1.350 . S
C1347 C1350 1.463 . S
C1347 C1352 1.350 . S
C1347 N1355 1.427 . S
C1348 H1339 0.930 . S
C1348 C1346 1.378 . S
C1348 C1349 1.367 . S
C1349 C1348 1.367 . S
C1349 C1351 1.433 . S
C1350 C1346 1.350 . S
C1350 C1347 1.463 . S
C1350 N1354 1.427 . S
C1351 H1341 0.929 . S
C1351 C1349 1.433 . S
C1351 N1354 1.384 . S
C1352 H1343 0.929 . S
C1352 C1344 1.378 . S
C1352 C1347 1.350 . S
C1353 H1340 0.929 . S
C1353 C1345 1.433 . S
C1353 N1355 1.384 . S
N1354 C1350 1.427 . S
N1354 C1351 1.384 . S
N1355 C1347 1.427 . S
N1355 C1353 1.384 . S
H1356 C1362 0.930 . S
H1357 C1366 0.930 1_554 S
H1358 C1371 0.929 . S
H1359 C1369 0.929 . S
H1360 C1364 0.929 . S
H1361 C1370 0.929 . S
C1362 H1356 0.930 . S
C1362 C1363 1.367 . S
C1362 C1370 1.378 . S
C1363 C1362 1.367 . S
C1363 C1371 1.433 . S
C1364 H1360 0.929 . S
C1364 C1366 1.378 . S
C1364 C1368 1.350 . S
C1365 C1368 1.463 . S
C1365 C1370 1.350 . S
C1365 N1373 1.427 . S
C1366 H1357 0.930 1_556 S
C1366 C1364 1.378 . S
C1366 C1367 1.367 . S
C1367 C1366 1.367 . S
C1367 C1369 1.433 . S
C1368 C1364 1.350 . S
C1368 C1365 1.463 . S
C1368 N1372 1.427 . S
C1369 H1359 0.929 . S
C1369 C1367 1.433 . S
C1369 N1372 1.384 . S
C1370 H1361 0.929 . S
C1370 C1362 1.378 . S
C1370 C1365 1.350 . S
C1371 H1358 0.929 . S
C1371 C1363 1.433 . S
C1371 N1373 1.384 . S
N1372 C1368 1.427 . S
N1372 C1369 1.384 . S
N1373 C1365 1.427 . S
N1373 C1371 1.384 . S
H1374 C1380 0.930 . S
H1375 C1384 0.930 . S
H1376 C1389 0.929 . S
H1377 C1387 0.929 . S
H1378 C1382 0.929 . S
H1379 C1388 0.929 . S
C1380 H1374 0.930 . S
C1380 C1381 1.367 . S
C1380 C1388 1.378 . S
C1381 C1380 1.367 . S
C1381 C1389 1.433 . S
C1382 H1378 0.929 . S
C1382 C1384 1.378 . S
C1382 C1386 1.350 . S
C1383 C1386 1.463 . S
C1383 C1388 1.350 . S
C1383 N1391 1.427 . S
C1384 H1375 0.930 . S
C1384 C1382 1.378 . S
C1384 C1385 1.367 . S
C1385 C1384 1.367 . S
C1385 C1387 1.433 . S
C1386 C1382 1.350 . S
C1386 C1383 1.463 . S
C1386 N1390 1.427 . S
C1387 H1377 0.929 . S
C1387 C1385 1.433 . S
C1387 N1390 1.384 . S
C1388 H1379 0.929 . S
C1388 C1380 1.378 . S
C1388 C1383 1.350 . S
C1389 H1376 0.929 . S
C1389 C1381 1.433 . S
C1389 N1391 1.384 . S
N1390 C1386 1.427 . S
N1390 C1387 1.384 . S
N1391 C1383 1.427 . S
N1391 C1389 1.384 . S
H1392 C1398 0.930 . S
H1393 C1402 0.930 . S
H1394 C1407 0.929 . S
H1395 C1405 0.929 . S
H1396 C1400 0.929 . S
H1397 C1406 0.929 . S
C1398 H1392 0.930 . S
C1398 C1399 1.367 . S
C1398 C1406 1.378 . S
C1399 C1398 1.367 . S
C1399 C1407 1.433 . S
C1400 H1396 0.929 . S
C1400 C1402 1.378 . S
C1400 C1404 1.350 . S
C1401 C1404 1.463 . S
C1401 C1406 1.350 . S
C1401 N1409 1.427 . S
C1402 H1393 0.930 . S
C1402 C1400 1.378 . S
C1402 C1403 1.367 . S
C1403 C1402 1.367 . S
C1403 C1405 1.433 . S
C1404 C1400 1.350 . S
C1404 C1401 1.463 . S
C1404 N1408 1.427 . S
C1405 H1395 0.929 . S
C1405 C1403 1.433 . S
C1405 N1408 1.384 . S
C1406 H1397 0.929 . S
C1406 C1398 1.378 . S
C1406 C1401 1.350 . S
C1407 H1394 0.929 . S
C1407 C1399 1.433 . S
C1407 N1409 1.384 . S
N1408 C1404 1.427 . S
N1408 C1405 1.384 . S
N1409 C1401 1.427 . S
N1409 C1407 1.384 . S
H1410 C1416 0.930 . S
H1411 C1420 0.930 . S
H1412 C1425 0.929 . S
H1413 C1423 0.929 . S
H1414 C1418 0.929 . S
H1415 C1424 0.929 . S
C1416 H1410 0.930 . S
C1416 C1417 1.367 . S
C1416 C1424 1.378 . S
C1417 C1416 1.367 . S
C1417 C1425 1.433 . S
C1418 H1414 0.929 . S
C1418 C1420 1.378 . S
C1418 C1422 1.350 . S
C1419 C1422 1.463 . S
C1419 C1424 1.350 . S
C1419 N1427 1.427 . S
C1420 H1411 0.930 . S
C1420 C1418 1.378 . S
C1420 C1421 1.367 . S
C1421 C1420 1.367 . S
C1421 C1423 1.433 . S
C1422 C1418 1.350 . S
C1422 C1419 1.463 . S
C1422 N1426 1.427 . S
C1423 H1413 0.929 . S
C1423 C1421 1.433 . S
C1423 N1426 1.384 . S
C1424 H1415 0.929 . S
C1424 C1416 1.378 . S
C1424 C1419 1.350 . S
C1425 H1412 0.929 . S
C1425 C1417 1.433 . S
C1425 N1427 1.384 . S
N1426 C1422 1.427 . S
N1426 C1423 1.384 . S
N1427 C1419 1.427 . S
N1427 C1425 1.384 . S
H1428 C1434 0.930 . S
H1429 C1438 0.930 . S
H1430 C1443 0.929 . S
H1431 C1441 0.929 . S
H1432 C1436 0.929 . S
H1433 C1442 0.929 . S
C1434 H1428 0.930 . S
C1434 C1435 1.367 . S
C1434 C1442 1.378 . S
C1435 C1434 1.367 . S
C1435 C1443 1.433 . S
C1436 H1432 0.929 . S
C1436 C1438 1.378 . S
C1436 C1440 1.350 . S
C1437 C1440 1.463 . S
C1437 C1442 1.350 . S
C1437 N1445 1.427 . S
C1438 H1429 0.930 . S
C1438 C1436 1.378 . S
C1438 C1439 1.367 . S
C1439 C1438 1.367 . S
C1439 C1441 1.433 . S
C1440 C1436 1.350 . S
C1440 C1437 1.463 . S
C1440 N1444 1.427 . S
C1441 H1431 0.929 . S
C1441 C1439 1.433 . S
C1441 N1444 1.384 . S
C1442 H1433 0.929 . S
C1442 C1434 1.378 . S
C1442 C1437 1.350 . S
C1443 H1430 0.929 . S
C1443 C1435 1.433 . S
C1443 N1445 1.384 . S
N1444 C1440 1.427 . S
N1444 C1441 1.384 . S
N1445 C1437 1.427 . S
N1445 C1443 1.384 . S
H1446 C1452 0.930 . S
H1447 C1456 0.930 . S
H1448 C1461 0.929 . S
H1449 C1459 0.929 . S
H1450 C1454 0.929 . S
H1451 C1460 0.929 . S
C1452 H1446 0.930 . S
C1452 C1453 1.367 . S
C1452 C1460 1.378 . S
C1453 C1452 1.367 . S
C1453 C1461 1.433 . S
C1454 H1450 0.929 . S
C1454 C1456 1.378 . S
C1454 C1458 1.350 . S
C1455 C1458 1.463 . S
C1455 C1460 1.350 . S
C1455 N1463 1.427 . S
C1456 H1447 0.930 . S
C1456 C1454 1.378 . S
C1456 C1457 1.367 . S
C1457 C1456 1.367 . S
C1457 C1459 1.433 . S
C1458 C1454 1.350 . S
C1458 C1455 1.463 . S
C1458 N1462 1.427 . S
C1459 H1449 0.929 . S
C1459 C1457 1.433 . S
C1459 N1462 1.384 . S
C1460 H1451 0.929 . S
C1460 C1452 1.378 . S
C1460 C1455 1.350 . S
C1461 H1448 0.929 . S
C1461 C1453 1.433 . S
C1461 N1463 1.384 . S
N1462 C1458 1.427 . S
N1462 C1459 1.384 . S
N1463 C1455 1.427 . S
N1463 C1461 1.384 . S
H1464 C1470 0.930 . S
H1465 C1474 0.930 . S
H1466 C1479 0.929 . S
H1467 C1477 0.929 . S
H1468 C1472 0.929 . S
H1469 C1478 0.929 . S
C1470 H1464 0.930 . S
C1470 C1471 1.367 . S
C1470 C1478 1.378 . S
C1471 C1470 1.367 . S
C1471 C1479 1.433 . S
C1472 H1468 0.929 . S
C1472 C1474 1.378 . S
C1472 C1476 1.350 . S
C1473 C1476 1.463 . S
C1473 C1478 1.350 . S
C1473 N1481 1.427 . S
C1474 H1465 0.930 . S
C1474 C1472 1.378 . S
C1474 C1475 1.367 . S
C1475 C1474 1.367 . S
C1475 C1477 1.433 . S
C1476 C1472 1.350 . S
C1476 C1473 1.463 . S
C1476 N1480 1.427 . S
C1477 H1467 0.929 . S
C1477 C1475 1.433 . S
C1477 N1480 1.384 . S
C1478 H1469 0.929 . S
C1478 C1470 1.378 . S
C1478 C1473 1.350 . S
C1479 H1466 0.929 . S
C1479 C1471 1.433 . S
C1479 N1481 1.384 . S
N1480 C1476 1.427 . S
N1480 C1477 1.384 . S
N1481 C1473 1.427 . S
N1481 C1479 1.384 . S
H1482 C1488 0.930 . S
H1483 C1492 0.930 . S
H1484 C1497 0.929 . S
H1485 C1495 0.929 . S
H1486 C1490 0.929 . S
H1487 C1496 0.929 . S
C1488 H1482 0.930 . S
C1488 C1489 1.367 . S
C1488 C1496 1.378 . S
C1489 C1488 1.367 . S
C1489 C1497 1.433 . S
C1490 H1486 0.929 . S
C1490 C1492 1.378 . S
C1490 C1494 1.350 . S
C1491 C1494 1.463 . S
C1491 C1496 1.350 . S
C1491 N1499 1.427 . S
C1492 H1483 0.930 . S
C1492 C1490 1.378 . S
C1492 C1493 1.367 . S
C1493 C1492 1.367 . S
C1493 C1495 1.433 . S
C1494 C1490 1.350 . S
C1494 C1491 1.463 . S
C1494 N1498 1.427 . S
C1495 H1485 0.929 . S
C1495 C1493 1.433 . S
C1495 N1498 1.384 . S
C1496 H1487 0.929 . S
C1496 C1488 1.378 . S
C1496 C1491 1.350 . S
C1497 H1484 0.929 . S
C1497 C1489 1.433 . S
C1497 N1499 1.384 . S
N1498 C1494 1.427 . S
N1498 C1495 1.384 . S
N1499 C1491 1.427 . S
N1499 C1497 1.384 . S
H1500 C1506 0.930 . S
H1501 C1510 0.930 . S
H1502 C1515 0.929 . S
H1503 C1513 0.929 . S
H1504 C1508 0.929 . S
H1505 C1514 0.929 . S
C1506 H1500 0.930 . S
C1506 C1507 1.367 . S
C1506 C1514 1.378 . S
C1507 C1506 1.367 . S
C1507 C1515 1.433 . S
C1508 H1504 0.929 . S
C1508 C1510 1.378 . S
C1508 C1512 1.350 . S
C1509 C1512 1.463 . S
C1509 C1514 1.350 . S
C1509 N1517 1.427 . S
C1510 H1501 0.930 . S
C1510 C1508 1.378 . S
C1510 C1511 1.367 . S
C1511 C1510 1.367 . S
C1511 C1513 1.433 . S
C1512 C1508 1.350 . S
C1512 C1509 1.463 . S
C1512 N1516 1.427 . S
C1513 H1503 0.929 . S
C1513 C1511 1.433 . S
C1513 N1516 1.384 . S
C1514 H1505 0.929 . S
C1514 C1506 1.378 . S
C1514 C1509 1.350 . S
C1515 H1502 0.929 . S
C1515 C1507 1.433 . S
C1515 N1517 1.384 . S
N1516 C1512 1.427 . S
N1516 C1513 1.384 . S
N1517 C1509 1.427 . S
N1517 C1515 1.384 . S
H1518 C1524 0.930 . S
H1519 C1528 0.930 . S
H1520 C1533 0.929 . S
H1521 C1531 0.929 . S
H1522 C1526 0.929 . S
H1523 C1532 0.929 . S
C1524 H1518 0.930 . S
C1524 C1525 1.367 . S
C1524 C1532 1.378 . S
C1525 C1524 1.367 . S
C1525 C1533 1.433 . S
C1526 H1522 0.929 . S
C1526 C1528 1.378 . S
C1526 C1530 1.350 . S
C1527 C1530 1.463 . S
C1527 C1532 1.350 . S
C1527 N1535 1.427 . S
C1528 H1519 0.930 . S
C1528 C1526 1.378 . S
C1528 C1529 1.367 . S
C1529 C1528 1.367 . S
C1529 C1531 1.433 . S
C1530 C1526 1.350 . S
C1530 C1527 1.463 . S
C1530 N1534 1.427 . S
C1531 H1521 0.929 . S
C1531 C1529 1.433 . S
C1531 N1534 1.384 . S
C1532 H1523 0.929 . S
C1532 C1524 1.378 . S
C1532 C1527 1.350 . S
C1533 H1520 0.929 . S
C1533 C1525 1.433 . S
C1533 N1535 1.384 . S
N1534 C1530 1.427 . S
N1534 C1531 1.384 . S
N1535 C1527 1.427 . S
N1535 C1533 1.384 . S
H1536 C1542 0.930 . S
H1537 C1546 0.930 . S
H1538 C1551 0.929 . S
H1539 C1549 0.929 . S
H1540 C1544 0.929 . S
H1541 C1550 0.929 . S
C1542 H1536 0.930 . S
C1542 C1543 1.367 . S
C1542 C1550 1.378 . S
C1543 C1542 1.367 . S
C1543 C1551 1.433 . S
C1544 H1540 0.929 . S
C1544 C1546 1.378 . S
C1544 C1548 1.350 . S
C1545 C1548 1.463 . S
C1545 C1550 1.350 . S
C1545 N1553 1.427 . S
C1546 H1537 0.930 . S
C1546 C1544 1.378 . S
C1546 C1547 1.367 . S
C1547 C1546 1.367 . S
C1547 C1549 1.433 . S
C1548 C1544 1.350 . S
C1548 C1545 1.463 . S
C1548 N1552 1.427 . S
C1549 H1539 0.929 . S
C1549 C1547 1.433 . S
C1549 N1552 1.384 . S
C1550 H1541 0.929 . S
C1550 C1542 1.378 . S
C1550 C1545 1.350 . S
C1551 H1538 0.929 . S
C1551 C1543 1.433 . S
C1551 N1553 1.384 . S
N1552 C1548 1.427 . S
N1552 C1549 1.384 . S
N1553 C1545 1.427 . S
N1553 C1551 1.384 . S
H1554 C1560 0.930 . S
H1555 C1564 0.930 . S
H1556 C1569 0.929 . S
H1557 C1567 0.929 . S
H1558 C1562 0.929 . S
H1559 C1568 0.929 . S
C1560 H1554 0.930 . S
C1560 C1561 1.367 . S
C1560 C1568 1.378 . S
C1561 C1560 1.367 . S
C1561 C1569 1.433 . S
C1562 H1558 0.929 . S
C1562 C1564 1.378 . S
C1562 C1566 1.350 . S
C1563 C1566 1.463 . S
C1563 C1568 1.350 . S
C1563 N1571 1.427 . S
C1564 H1555 0.930 . S
C1564 C1562 1.378 . S
C1564 C1565 1.367 . S
C1565 C1564 1.367 . S
C1565 C1567 1.433 . S
C1566 C1562 1.350 . S
C1566 C1563 1.463 . S
C1566 N1570 1.427 . S
C1567 H1557 0.929 . S
C1567 C1565 1.433 . S
C1567 N1570 1.384 . S
C1568 H1559 0.929 . S
C1568 C1560 1.378 . S
C1568 C1563 1.350 . S
C1569 H1556 0.929 . S
C1569 C1561 1.433 . S
C1569 N1571 1.384 . S
N1570 C1566 1.427 . S
N1570 C1567 1.384 . S
N1571 C1563 1.427 . S
N1571 C1569 1.384 . S
H1572 C1578 0.930 . S
H1573 C1582 0.930 . S
H1574 C1587 0.929 . S
H1575 C1585 0.929 . S
H1576 C1580 0.929 . S
H1577 C1586 0.929 . S
C1578 H1572 0.930 . S
C1578 C1579 1.367 . S
C1578 C1586 1.378 . S
C1579 C1578 1.367 . S
C1579 C1587 1.433 . S
C1580 H1576 0.929 . S
C1580 C1582 1.378 . S
C1580 C1584 1.350 . S
C1581 C1584 1.463 . S
C1581 C1586 1.350 . S
C1581 N1589 1.427 . S
C1582 H1573 0.930 . S
C1582 C1580 1.378 . S
C1582 C1583 1.367 . S
C1583 C1582 1.367 . S
C1583 C1585 1.433 . S
C1584 C1580 1.350 . S
C1584 C1581 1.463 . S
C1584 N1588 1.427 . S
C1585 H1575 0.929 . S
C1585 C1583 1.433 . S
C1585 N1588 1.384 . S
C1586 H1577 0.929 . S
C1586 C1578 1.378 . S
C1586 C1581 1.350 . S
C1587 H1574 0.929 . S
C1587 C1579 1.433 . S
C1587 N1589 1.384 . S
N1588 C1584 1.427 . S
N1588 C1585 1.384 . S
N1589 C1581 1.427 . S
N1589 C1587 1.384 . S
H1590 C1596 0.930 . S
H1591 C1600 0.930 . S
H1592 C1605 0.929 . S
H1593 C1603 0.929 . S
H1594 C1598 0.929 . S
H1595 C1604 0.929 . S
C1596 H1590 0.930 . S
C1596 C1597 1.367 . S
C1596 C1604 1.378 . S
C1597 C1596 1.367 . S
C1597 C1605 1.433 . S
C1598 H1594 0.929 . S
C1598 C1600 1.378 . S
C1598 C1602 1.350 . S
C1599 C1602 1.463 . S
C1599 C1604 1.350 . S
C1599 N1607 1.427 . S
C1600 H1591 0.930 . S
C1600 C1598 1.378 . S
C1600 C1601 1.367 . S
C1601 C1600 1.367 . S
C1601 C1603 1.433 . S
C1602 C1598 1.350 . S
C1602 C1599 1.463 . S
C1602 N1606 1.427 . S
C1603 H1593 0.929 . S
C1603 C1601 1.433 . S
C1603 N1606 1.384 . S
C1604 H1595 0.929 . S
C1604 C1596 1.378 . S
C1604 C1599 1.350 . S
C1605 H1592 0.929 . S
C1605 C1597 1.433 . S
C1605 N1607 1.384 . S
N1606 C1602 1.427 . S
N1606 C1603 1.384 . S
N1607 C1599 1.427 . S
N1607 C1605 1.384 . S
H1608 C1614 0.930 . S
H1609 C1618 0.930 . S
H1610 C1623 0.929 . S
H1611 C1621 0.929 . S
H1612 C1616 0.929 . S
H1613 C1622 0.929 . S
C1614 H1608 0.930 . S
C1614 C1615 1.367 . S
C1614 C1622 1.378 . S
C1615 C1614 1.367 . S
C1615 C1623 1.433 . S
C1616 H1612 0.929 . S
C1616 C1618 1.378 . S
C1616 C1620 1.350 . S
C1617 C1620 1.463 . S
C1617 C1622 1.350 . S
C1617 N1625 1.427 . S
C1618 H1609 0.930 . S
C1618 C1616 1.378 . S
C1618 C1619 1.367 . S
C1619 C1618 1.367 . S
C1619 C1621 1.433 . S
C1620 C1616 1.350 . S
C1620 C1617 1.463 . S
C1620 N1624 1.427 . S
C1621 H1611 0.929 . S
C1621 C1619 1.433 . S
C1621 N1624 1.384 . S
C1622 H1613 0.929 . S
C1622 C1614 1.378 . S
C1622 C1617 1.350 . S
C1623 H1610 0.929 . S
C1623 C1615 1.433 . S
C1623 N1625 1.384 . S
N1624 C1620 1.427 . S
N1624 C1621 1.384 . S
N1625 C1617 1.427 . S
N1625 C1623 1.384 . S
H1626 C1632 0.930 . S
H1627 C1636 0.930 . S
H1628 C1641 0.929 . S
H1629 C1639 0.929 . S
H1630 C1634 0.929 . S
H1631 C1640 0.929 . S
C1632 H1626 0.930 . S
C1632 C1633 1.367 . S
C1632 C1640 1.378 . S
C1633 C1632 1.367 . S
C1633 C1641 1.433 . S
C1634 H1630 0.929 . S
C1634 C1636 1.378 . S
C1634 C1638 1.350 . S
C1635 C1638 1.463 . S
C1635 C1640 1.350 . S
C1635 N1643 1.427 . S
C1636 H1627 0.930 . S
C1636 C1634 1.378 . S
C1636 C1637 1.367 . S
C1637 C1636 1.367 . S
C1637 C1639 1.433 . S
C1638 C1634 1.350 . S
C1638 C1635 1.463 . S
C1638 N1642 1.427 . S
C1639 H1629 0.929 . S
C1639 C1637 1.433 . S
C1639 N1642 1.384 . S
C1640 H1631 0.929 . S
C1640 C1632 1.378 . S
C1640 C1635 1.350 . S
C1641 H1628 0.929 . S
C1641 C1633 1.433 . S
C1641 N1643 1.384 . S
N1642 C1638 1.427 . S
N1642 C1639 1.384 . S
N1643 C1635 1.427 . S
N1643 C1641 1.384 . S
H1644 C1650 0.930 . S
H1645 C1654 0.930 . S
H1646 C1659 0.929 . S
H1647 C1657 0.929 . S
H1648 C1652 0.929 . S
H1649 C1658 0.929 . S
C1650 H1644 0.930 . S
C1650 C1651 1.367 . S
C1650 C1658 1.378 . S
C1651 C1650 1.367 . S
C1651 C1659 1.433 . S
C1652 H1648 0.929 . S
C1652 C1654 1.378 . S
C1652 C1656 1.350 . S
C1653 C1656 1.463 . S
C1653 C1658 1.350 . S
C1653 N1661 1.427 . S
C1654 H1645 0.930 . S
C1654 C1652 1.378 . S
C1654 C1655 1.367 . S
C1655 C1654 1.367 . S
C1655 C1657 1.433 . S
C1656 C1652 1.350 . S
C1656 C1653 1.463 . S
C1656 N1660 1.427 . S
C1657 H1647 0.929 . S
C1657 C1655 1.433 . S
C1657 N1660 1.384 . S
C1658 H1649 0.929 . S
C1658 C1650 1.378 . S
C1658 C1653 1.350 . S
C1659 H1646 0.929 . S
C1659 C1651 1.433 . S
C1659 N1661 1.384 . S
N1660 C1656 1.427 . S
N1660 C1657 1.384 . S
N1661 C1653 1.427 . S
N1661 C1659 1.384 . S
H1662 C1668 0.930 . S
H1663 C1672 0.930 . S
H1664 C1677 0.929 . S
H1665 C1675 0.929 . S
H1666 C1670 0.929 . S
H1667 C1676 0.929 . S
C1668 H1662 0.930 . S
C1668 C1669 1.367 . S
C1668 C1676 1.378 . S
C1669 C1668 1.367 . S
C1669 C1677 1.433 . S
C1670 H1666 0.929 . S
C1670 C1672 1.378 . S
C1670 C1674 1.350 . S
C1671 C1674 1.463 . S
C1671 C1676 1.350 . S
C1671 N1679 1.427 . S
C1672 H1663 0.930 . S
C1672 C1670 1.378 . S
C1672 C1673 1.367 . S
C1673 C1672 1.367 . S
C1673 C1675 1.433 . S
C1674 C1670 1.350 . S
C1674 C1671 1.463 . S
C1674 N1678 1.427 . S
C1675 H1665 0.929 . S
C1675 C1673 1.433 . S
C1675 N1678 1.384 . S
C1676 H1667 0.929 . S
C1676 C1668 1.378 . S
C1676 C1671 1.350 . S
C1677 H1664 0.929 . S
C1677 C1669 1.433 . S
C1677 N1679 1.384 . S
N1678 C1674 1.427 . S
N1678 C1675 1.384 . S
N1679 C1671 1.427 . S
N1679 C1677 1.384 . S
H1680 C1686 0.930 . S
H1681 C1690 0.930 . S
H1682 C1695 0.929 . S
H1683 C1693 0.929 . S
H1684 C1688 0.929 . S
H1685 C1694 0.929 . S
C1686 H1680 0.930 . S
C1686 C1687 1.367 . S
C1686 C1694 1.378 . S
C1687 C1686 1.367 . S
C1687 C1695 1.433 . S
C1688 H1684 0.929 . S
C1688 C1690 1.378 . S
C1688 C1692 1.350 . S
C1689 C1692 1.463 . S
C1689 C1694 1.350 . S
C1689 N1697 1.427 . S
C1690 H1681 0.930 . S
C1690 C1688 1.378 . S
C1690 C1691 1.367 . S
C1691 C1690 1.367 . S
C1691 C1693 1.433 . S
C1692 C1688 1.350 . S
C1692 C1689 1.463 . S
C1692 N1696 1.427 . S
C1693 H1683 0.929 . S
C1693 C1691 1.433 . S
C1693 N1696 1.384 . S
C1694 H1685 0.929 . S
C1694 C1686 1.378 . S
C1694 C1689 1.350 . S
C1695 H1682 0.929 . S
C1695 C1687 1.433 . S
C1695 N1697 1.384 . S
N1696 C1692 1.427 . S
N1696 C1693 1.384 . S
N1697 C1689 1.427 . S
N1697 C1695 1.384 . S
H1698 C1704 0.930 . S
H1699 C1708 0.930 . S
H1700 C1713 0.929 . S
H1701 C1711 0.929 . S
H1702 C1706 0.929 . S
H1703 C1712 0.929 . S
C1704 H1698 0.930 . S
C1704 C1705 1.367 . S
C1704 C1712 1.378 . S
C1705 C1704 1.367 . S
C1705 C1713 1.433 . S
C1706 H1702 0.929 . S
C1706 C1708 1.378 . S
C1706 C1710 1.350 . S
C1707 C1710 1.463 . S
C1707 C1712 1.350 . S
C1707 N1715 1.427 . S
C1708 H1699 0.930 . S
C1708 C1706 1.378 . S
C1708 C1709 1.367 . S
C1709 C1708 1.367 . S
C1709 C1711 1.433 . S
C1710 C1706 1.350 . S
C1710 C1707 1.463 . S
C1710 N1714 1.427 . S
C1711 H1701 0.929 . S
C1711 C1709 1.433 . S
C1711 N1714 1.384 . S
C1712 H1703 0.929 . S
C1712 C1704 1.378 . S
C1712 C1707 1.350 . S
C1713 H1700 0.929 . S
C1713 C1705 1.433 . S
C1713 N1715 1.384 . S
N1714 C1710 1.427 . S
N1714 C1711 1.384 . S
N1715 C1707 1.427 . S
N1715 C1713 1.384 . S
H1716 C1722 0.930 . S
H1717 C1726 0.930 . S
H1718 C1731 0.929 . S
H1719 C1729 0.929 . S
H1720 C1724 0.929 . S
H1721 C1730 0.929 . S
C1722 H1716 0.930 . S
C1722 C1723 1.367 . S
C1722 C1730 1.378 . S
C1723 C1722 1.367 . S
C1723 C1731 1.433 . S
C1724 H1720 0.929 . S
C1724 C1726 1.378 . S
C1724 C1728 1.350 . S
C1725 C1728 1.463 . S
C1725 C1730 1.350 . S
C1725 N1733 1.427 . S
C1726 H1717 0.930 . S
C1726 C1724 1.378 . S
C1726 C1727 1.367 . S
C1727 C1726 1.367 . S
C1727 C1729 1.433 . S
C1728 C1724 1.350 . S
C1728 C1725 1.463 . S
C1728 N1732 1.427 . S
C1729 H1719 0.929 . S
C1729 C1727 1.433 . S
C1729 N1732 1.384 . S
C1730 H1721 0.929 . S
C1730 C1722 1.378 . S
C1730 C1725 1.350 . S
C1731 H1718 0.929 . S
C1731 C1723 1.433 . S
C1731 N1733 1.384 . S
N1732 C1728 1.427 . S
N1732 C1729 1.384 . S
N1733 C1725 1.427 . S
N1733 C1731 1.384 . S
C881 C699 1.294 . S
C877 C74 1.329 . S
C899 C700 0.413 . S
C895 C142 0.785 . S
C917 C694 1.261 . S
C913 C231 1.202 . S
C931 C322 1.125 . S
C935 C693 1.200 . S
C949 C406 0.787 . S
C953 C696 0.418 . S
C971 C698 1.262 . S
C967 C494 1.204 . S
C985 C562 1.133 . S
C989 C697 1.196 . S
C1003 C651 1.319 . S
C1007 C695 1.280 . S
C1025 C730 1.588 . S
C1021 C58 1.469 . S
C1039 C151 1.665 . S
C1043 C761 1.623 . S
C1061 C729 2.556 . S
C1057 C224 2.438 . S
C1079 C764 1.218 . S
C1075 C315 1.163 . S
C1093 C399 1.479 . S
C1097 C727 1.511 . S
C1115 C759 1.545 . S
C1111 C478 1.419 . S
C1129 C571 1.262 . S
C1133 C732 1.325 . S
C1147 C644 2.477 . S
C1151 C766 2.550 . S
C1165 C67 2.485 . S
C1169 C762 2.548 . S
C1183 C392 1.653 . S
C1187 C765 1.626 . S
C1205 C733 2.554 . S
C1201 C487 2.435 . S
C1223 C760 1.205 . S
C1219 C578 1.174 . S
C1237 C658 1.453 . S
C1241 C726 1.586 . S
C1255 C238 1.420 . S
C1259 C763 1.544 . S
C1277 C728 1.307 . S
C1273 C308 1.285 . S
C1291 C158 1.466 . S
C1295 C731 1.495 . S
C1309 C662 1.275 . S
C1313 C798 1.239 . S
C1327 C394 0.946 . S
C1331 C799 0.351 . S
C1349 C793 1.407 . S
C1345 C483 1.390 . S
C1367 C792 1.546 . S
C1363 C574 1.367 . S
C1381 C154 0.929 . S
C1385 C795 0.383 . S
C1403 C797 1.410 . S
C1399 C242 1.378 . S
C1417 C310 1.378 . S
C1421 C796 1.544 . S
C1435 C63 1.280 . S
C1439 C794 1.241 . S
C1453 C646 1.525 . S
C1457 C832 1.618 . S
C1475 C864 1.236 . S
C1471 C403 1.247 . S
C1489 C476 2.330 . S
C1493 C825 2.465 . S
C1507 C567 1.493 . S
C1511 C859 1.570 . S
C1529 C830 1.335 . S
C1525 C147 1.237 . S
C1543 C226 1.627 . S
C1547 C861 1.674 . S
C1565 C827 1.530 . S
C1561 C319 1.559 . S
C1583 C862 2.498 . S
C1579 C56 2.285 . S
C1601 C858 2.498 . S
C1597 C655 2.271 . S
C1615 C140 1.242 . S
C1619 C860 1.241 . S
C1633 C235 2.334 . S
C1637 C829 2.466 . S
C1655 C863 1.564 . S
C1651 C326 1.494 . S
C1669 C70 1.522 . S
C1673 C828 1.607 . S
C1687 C490 1.621 . S
C1691 C865 1.677 . S
C1709 C831 1.521 . S
C1705 C560 1.549 . S
C1727 C826 1.335 . S
C1723 C410 1.221 . S
