# Generated by pormake.
# Topology pto, (3,4)-cn, num edge types: 1
# Building blocks:
#     Node 0, Type 0, BuildingBlock: WUSLED_clean_sbu_0, # of connection points: 3
#     Node 1, Type 0, BuildingBlock: WUSLED_clean_sbu_0, # of connection points: 3
#     Node 2, Type 0, BuildingBlock: WUSLED_clean_sbu_0, # of connection points: 3
#     Node 3, Type 0, BuildingBlock: WUSLED_clean_sbu_0, # of connection points: 3
#     Node 4, Type 0, BuildingBlock: WUSLED_clean_sbu_0, # of connection points: 3
#     Node 5, Type 0, BuildingBlock: WUSLED_clean_sbu_0, # of connection points: 3
#     Node 6, Type 0, BuildingBlock: WUSLED_clean_sbu_0, # of connection points: 3
#     Node 7, Type 0, BuildingBlock: WUSLED_clean_sbu_0, # of connection points: 3
#     Node 8, Type 1, BuildingBlock: NAWXER_clean_sbu_0, # of connection points: 4
#     Node 9, Type 1, BuildingBlock: NAWXER_clean_sbu_0, # of connection points: 4
#     Node 10, Type 1, BuildingBlock: NAWXER_clean_sbu_0, # of connection points: 4
#     Node 11, Type 1, BuildingBlock: NAWXER_clean_sbu_0, # of connection points: 4
#     Node 12, Type 1, BuildingBlock: NAWXER_clean_sbu_0, # of connection points: 4
#     Node 13, Type 1, BuildingBlock: NAWXER_clean_sbu_0, # of connection points: 4
#     Edge 14, Type (0, 1), BuildingBlock: ZUJKAS_clean_linker_0, # of connection points: 2
#     Edge 15, Type (0, 1), BuildingBlock: ZUJKAS_clean_linker_0, # of connection points: 2
#     Edge 16, Type (0, 1), BuildingBlock: ZUJKAS_clean_linker_0, # of connection points: 2
#     Edge 17, Type (0, 1), BuildingBlock: ZUJKAS_clean_linker_0, # of connection points: 2
#     Edge 18, Type (0, 1), BuildingBlock: ZUJKAS_clean_linker_0, # of connection points: 2
#     Edge 19, Type (0, 1), BuildingBlock: ZUJKAS_clean_linker_0, # of connection points: 2
#     Edge 20, Type (0, 1), BuildingBlock: ZUJKAS_clean_linker_0, # of connection points: 2
#     Edge 21, Type (0, 1), BuildingBlock: ZUJKAS_clean_linker_0, # of connection points: 2
#     Edge 22, Type (0, 1), BuildingBlock: ZUJKAS_clean_linker_0, # of connection points: 2
#     Edge 23, Type (0, 1), BuildingBlock: ZUJKAS_clean_linker_0, # of connection points: 2
#     Edge 24, Type (0, 1), BuildingBlock: ZUJKAS_clean_linker_0, # of connection points: 2
#     Edge 25, Type (0, 1), BuildingBlock: ZUJKAS_clean_linker_0, # of connection points: 2
#     Edge 26, Type (0, 1), BuildingBlock: ZUJKAS_clean_linker_0, # of connection points: 2
#     Edge 27, Type (0, 1), BuildingBlock: ZUJKAS_clean_linker_0, # of connection points: 2
#     Edge 28, Type (0, 1), BuildingBlock: ZUJKAS_clean_linker_0, # of connection points: 2
#     Edge 29, Type (0, 1), BuildingBlock: ZUJKAS_clean_linker_0, # of connection points: 2
#     Edge 30, Type (0, 1), BuildingBlock: ZUJKAS_clean_linker_0, # of connection points: 2
#     Edge 31, Type (0, 1), BuildingBlock: ZUJKAS_clean_linker_0, # of connection points: 2
#     Edge 32, Type (0, 1), BuildingBlock: ZUJKAS_clean_linker_0, # of connection points: 2
#     Edge 33, Type (0, 1), BuildingBlock: ZUJKAS_clean_linker_0, # of connection points: 2
#     Edge 34, Type (0, 1), BuildingBlock: ZUJKAS_clean_linker_0, # of connection points: 2
#     Edge 35, Type (0, 1), BuildingBlock: ZUJKAS_clean_linker_0, # of connection points: 2
#     Edge 36, Type (0, 1), BuildingBlock: ZUJKAS_clean_linker_0, # of connection points: 2
#     Edge 37, Type (0, 1), BuildingBlock: ZUJKAS_clean_linker_0, # of connection points: 2
# Relax obj value: 0.000
# Max RMSD: 0.008
# Mean RMSD: 0.004
data_MOF--net-pto--node1-WUSLED_clean_sbu_0--node2-NAWXER_clean_sbu_0--edge1-ZUJKAS_clean_linker_0
_symmetry_space_group_name_H-M    P1
_symmetry_Int_Tables_number       1
_symmetry_cell_setting            triclinic
loop_
_symmetry_equiv_pos_as_xyz
'x, y, z'
_cell_length_a     69.511719
_cell_length_b     65.569484
_cell_length_c     61.462211
_cell_angle_alpha  89.390191
_cell_angle_beta   90.441399
_cell_angle_gamma 90.44186
loop_
_atom_site_label
_atom_site_type_symbol
_atom_site_fract_x
_atom_site_fract_y
_atom_site_fract_z
_atom_type_partial_charge
C0 C 0.27534 0.25126 0.31712 0.0
C1 C 0.28465 0.23432 0.3083 0.0
C2 C 0.28339 0.21667 0.34341 0.0
C3 C 0.28855 0.21714 0.32131 0.0
C4 C 0.27442 0.23384 0.35222 0.0
C5 C 0.27041 0.25092 0.33919 0.0
U6 U 0.28491 0.28971 0.27073 0.0
O7 O 0.2648 0.30284 0.24665 0.0
O8 O 0.28005 0.32281 0.26953 0.0
C9 C 0.26679 0.3214 0.25425 0.0
C10 C 0.27019 0.26919 0.30363 0.0
C11 C 0.24879 0.33235 0.25831 0.0
C12 C 0.22043 0.33866 0.28011 0.0
C13 C 0.23747 0.32792 0.2766 0.0
C14 C 0.22589 0.35826 0.24707 0.0
C15 C 0.21441 0.35395 0.26534 0.0
C16 C 0.24289 0.34756 0.24361 0.0
C17 C 0.33097 0.28539 0.23676 0.0
C18 C 0.33665 0.29817 0.20001 0.0
C19 C 0.36362 0.2893 0.22334 0.0
C20 C 0.3509 0.28385 0.23996 0.0
C21 C 0.35666 0.29635 0.20308 0.0
C22 C 0.32392 0.29283 0.21673 0.0
C23 C 0.31797 0.27863 0.25434 0.0
O24 O 0.28116 0.28543 0.30608 0.0
O25 O 0.26568 0.26561 0.2832 0.0
O26 O 0.30133 0.27077 0.24827 0.0
O27 O 0.31662 0.29097 0.27096 0.0
H28 H 0.28874 0.23428 0.29133 0.0
H29 H 0.29566 0.20425 0.31409 0.0
H30 H 0.27003 0.2339 0.3691 0.0
H31 H 0.2632 0.26381 0.34631 0.0
H32 H 0.21185 0.33482 0.29422 0.0
H33 H 0.24179 0.31615 0.2881 0.0
H34 H 0.22187 0.37012 0.23555 0.0
H35 H 0.25149 0.35123 0.22945 0.0
H36 H 0.33084 0.30375 0.18469 0.0
H37 H 0.37891 0.28746 0.22617 0.0
H38 H 0.35664 0.27812 0.25527 0.0
H39 H 0.30859 0.29431 0.21393 0.0
C40 C 0.27213 0.78463 0.72141 0.0
C41 C 0.28133 0.8025 0.72866 0.0
C42 C 0.27928 0.81737 0.69216 0.0
C43 C 0.28478 0.81876 0.71419 0.0
C44 C 0.27038 0.7993 0.68493 0.0
C45 C 0.26681 0.78314 0.69943 0.0
U46 U 0.28468 0.74927 0.76951 0.0
O47 O 0.26661 0.7375 0.79609 0.0
O48 O 0.27999 0.71615 0.77355 0.0
C49 C 0.26801 0.71847 0.78977 0.0
C50 C 0.26767 0.76752 0.73642 0.0
C51 C 0.24994 0.70654 0.7886 0.0
C52 C 0.21518 0.70408 0.78404 0.0
C53 C 0.23216 0.71575 0.78398 0.0
C54 C 0.23358 0.67385 0.79285 0.0
C55 C 0.21569 0.68299 0.78854 0.0
C56 C 0.2505 0.68552 0.79292 0.0
C57 C 0.33277 0.75608 0.79941 0.0
C58 C 0.34271 0.73437 0.82973 0.0
C59 C 0.36307 0.76253 0.81811 0.0
C60 C 0.34973 0.76753 0.80181 0.0
C61 C 0.3597 0.74596 0.83236 0.0
C62 C 0.32933 0.73942 0.81341 0.0
C63 C 0.31886 0.76184 0.78233 0.0
O64 O 0.27829 0.75117 0.73435 0.0
O65 O 0.26456 0.77229 0.75682 0.0
O66 O 0.30274 0.76981 0.7892 0.0
O67 O 0.3162 0.74842 0.76684 0.0
H68 H 0.28575 0.80397 0.74551 0.0
H69 H 0.29185 0.83237 0.72021 0.0
H70 H 0.26577 0.79782 0.66815 0.0
H71 H 0.25969 0.76951 0.69349 0.0
H72 H 0.20166 0.71154 0.78041 0.0
H73 H 0.23137 0.73195 0.78048 0.0
H74 H 0.23448 0.65771 0.79664 0.0
H75 H 0.26405 0.67814 0.79661 0.0
H76 H 0.33958 0.72164 0.84054 0.0
H77 H 0.37611 0.77159 0.81943 0.0
H78 H 0.35264 0.78038 0.79108 0.0
H79 H 0.31627 0.73043 0.81178 0.0
C80 C 0.73576 0.76171 0.24322 0.0
C81 C 0.73768 0.74408 0.23068 0.0
C82 C 0.70747 0.75153 0.2118 0.0
C83 C 0.72364 0.73902 0.21511 0.0
C84 C 0.70556 0.76901 0.2247 0.0
C85 C 0.71958 0.77403 0.24022 0.0
U86 U 0.78268 0.75225 0.27481 0.0
O87 O 0.80618 0.77376 0.28281 0.0
O88 O 0.79013 0.75836 0.30895 0.0
C89 C 0.80308 0.7723 0.30384 0.0
C90 C 0.7506 0.76772 0.25918 0.0
C91 C 0.80234 0.79173 0.3158 0.0
C92 C 0.78583 0.81573 0.33901 0.0
C93 C 0.78563 0.79799 0.32651 0.0
C94 C 0.81923 0.82155 0.32977 0.0
C95 C 0.8027 0.82765 0.34099 0.0
C96 C 0.81905 0.80377 0.31739 0.0
C97 C 0.81101 0.70322 0.26621 0.0
C98 C 0.84397 0.69805 0.27855 0.0
C99 C 0.82471 0.66925 0.26665 0.0
C100 C 0.80925 0.68226 0.26243 0.0
C101 C 0.84229 0.67699 0.27469 0.0
C102 C 0.82843 0.71105 0.27444 0.0
C103 C 0.79453 0.71659 0.26151 0.0
O104 O 0.75138 0.75666 0.27712 0.0
O105 O 0.76765 0.77192 0.25111 0.0
O106 O 0.79851 0.73383 0.25133 0.0
O107 O 0.78232 0.71872 0.27752 0.0
H108 H 0.75013 0.73439 0.23278 0.0
H109 H 0.72567 0.72557 0.20534 0.0
H110 H 0.69317 0.77881 0.22288 0.0
H111 H 0.71782 0.78765 0.24983 0.0
H112 H 0.77288 0.81978 0.34759 0.0
H113 H 0.77252 0.78901 0.32557 0.0
H114 H 0.83237 0.8305 0.33056 0.0
H115 H 0.83209 0.79926 0.30924 0.0
H116 H 0.85724 0.70445 0.28494 0.0
H117 H 0.82301 0.65316 0.26324 0.0
H118 H 0.79592 0.67594 0.2561 0.0
H119 H 0.83002 0.7272 0.27765 0.0
C120 C 0.77005 0.23205 0.74034 0.0
C121 C 0.78812 0.23228 0.73031 0.0
C122 C 0.7792 0.20227 0.70922 0.0
C123 C 0.79266 0.21753 0.71488 0.0
C124 C 0.76112 0.20218 0.71941 0.0
C125 C 0.75661 0.21692 0.7348 0.0
U126 U 0.78184 0.2799 0.77293 0.0
O127 O 0.76368 0.30612 0.78075 0.0
O128 O 0.77585 0.28725 0.80706 0.0
C129 C 0.76438 0.30239 0.80179 0.0
C130 C 0.76491 0.24756 0.75639 0.0
C131 C 0.74585 0.30279 0.81319 0.0
C132 C 0.71412 0.28868 0.82077 0.0
C133 C 0.73157 0.28796 0.80951 0.0
C134 C 0.72511 0.31906 0.83936 0.0
C135 C 0.71068 0.30425 0.83586 0.0
C136 C 0.74249 0.31831 0.82813 0.0
C137 C 0.83044 0.30661 0.76547 0.0
C138 C 0.84022 0.33604 0.78674 0.0
C139 C 0.86025 0.32454 0.75728 0.0
C140 C 0.84712 0.3088 0.75301 0.0
C141 C 0.85693 0.33842 0.77414 0.0
C142 C 0.82705 0.32029 0.7824 0.0
C143 C 0.81667 0.29017 0.76041 0.0
O144 O 0.77484 0.24713 0.77468 0.0
O145 O 0.76255 0.26611 0.74855 0.0
O146 O 0.80102 0.29589 0.74997 0.0
O147 O 0.81324 0.2771 0.7763 0.0
H148 H 0.79869 0.24388 0.73442 0.0
H149 H 0.80678 0.21795 0.70755 0.0
H150 H 0.75028 0.1909 0.71522 0.0
H151 H 0.74256 0.21656 0.74231 0.0
H152 H 0.70327 0.27715 0.81751 0.0
H153 H 0.73392 0.27587 0.79797 0.0
H154 H 0.72313 0.33105 0.85109 0.0
H155 H 0.7534 0.32984 0.83122 0.0
H156 H 0.83713 0.34658 0.79968 0.0
H157 H 0.87309 0.32575 0.74746 0.0
H158 H 0.84998 0.29834 0.73991 0.0
H159 H 0.81417 0.31886 0.79214 0.0
C160 C 0.80673 0.70967 0.7721 0.0
C161 C 0.81577 0.71072 0.75177 0.0
C162 C 0.83809 0.68398 0.76301 0.0
C163 C 0.83129 0.69797 0.74725 0.0
C164 C 0.82893 0.68307 0.78337 0.0
C165 C 0.81341 0.69578 0.78784 0.0
U166 U 0.77513 0.75538 0.75857 0.0
O167 O 0.74393 0.75967 0.7614 0.0
O168 O 0.76382 0.77939 0.77968 0.0
C169 C 0.74581 0.77435 0.77569 0.0
C170 C 0.79058 0.72316 0.77723 0.0
C171 C 0.7329 0.77343 0.79456 0.0
C172 C 0.71545 0.7547 0.82261 0.0
C173 C 0.72889 0.75511 0.80569 0.0
C174 C 0.71033 0.79096 0.81767 0.0
C175 C 0.7058 0.7726 0.82857 0.0
C176 C 0.72372 0.79134 0.80085 0.0
C177 C 0.78434 0.78705 0.70761 0.0
C178 C 0.76513 0.81703 0.69941 0.0
C179 C 0.79067 0.80725 0.67511 0.0
C180 C 0.79489 0.79056 0.68861 0.0
C181 C 0.77581 0.82077 0.68039 0.0
C182 C 0.76938 0.80032 0.71291 0.0
C183 C 0.78917 0.7697 0.7219 0.0
O184 O 0.79542 0.74195 0.78226 0.0
O185 O 0.77569 0.72216 0.76394 0.0
O186 O 0.77616 0.75507 0.7228 0.0
O187 O 0.79612 0.77459 0.74111 0.0
H188 H 0.81081 0.7214 0.73942 0.0
H189 H 0.83782 0.69896 0.73134 0.0
H190 H 0.83396 0.67277 0.79604 0.0
H191 H 0.80669 0.69486 0.80367 0.0
H192 H 0.71221 0.74028 0.83058 0.0
H193 H 0.73585 0.7411 0.80106 0.0
H194 H 0.70347 0.80508 0.8221 0.0
H195 H 0.72669 0.80565 0.79249 0.0
H196 H 0.75374 0.82723 0.70408 0.0
H197 H 0.79898 0.80949 0.66043 0.0
H198 H 0.80644 0.78042 0.68425 0.0
H199 H 0.7611 0.79782 0.72759 0.0
C200 C 0.72877 0.25597 0.21762 0.0
C201 C 0.72948 0.27086 0.20108 0.0
C202 C 0.7003 0.25667 0.18461 0.0
C203 C 0.71533 0.27122 0.1847 0.0
C204 C 0.6998 0.24178 0.20126 0.0
C205 C 0.71389 0.24146 0.21757 0.0
U206 U 0.77501 0.27419 0.24701 0.0
O207 O 0.77987 0.27738 0.28225 0.0
O208 O 0.79687 0.25559 0.26378 0.0
C209 C 0.79216 0.26226 0.2831 0.0
C210 C 0.74317 0.2553 0.23523 0.0
C211 C 0.78791 0.2463 0.29939 0.0
C212 C 0.76908 0.21694 0.31143 0.0
C213 C 0.7729 0.23224 0.29597 0.0
C214 C 0.79512 0.22976 0.334 0.0
C215 C 0.7802 0.21546 0.33061 0.0
C216 C 0.79893 0.24502 0.31851 0.0
C217 C 0.80628 0.31781 0.22463 0.0
C218 C 0.83487 0.33029 0.24344 0.0
C219 C 0.82573 0.34487 0.20851 0.0
C220 C 0.80981 0.33171 0.20764 0.0
C221 C 0.83846 0.34438 0.22644 0.0
C222 C 0.81891 0.31713 0.24253 0.0
C223 C 0.78939 0.30417 0.22337 0.0
O224 O 0.7604 0.24912 0.22981 0.0
O225 O 0.74351 0.27104 0.24829 0.0
O226 O 0.77626 0.30682 0.23835 0.0
O227 O 0.79313 0.28486 0.21991 0.0
H228 H 0.74092 0.28217 0.20087 0.0
H229 H 0.71626 0.28277 0.17202 0.0
H230 H 0.68829 0.23056 0.20192 0.0
H231 H 0.7131 0.22991 0.23028 0.0
H232 H 0.75764 0.20607 0.30816 0.0
H233 H 0.76422 0.23302 0.28126 0.0
H234 H 0.80377 0.22929 0.34872 0.0
H235 H 0.81051 0.25583 0.32146 0.0
H236 H 0.84422 0.32965 0.2576 0.0
H237 H 0.82818 0.35527 0.195 0.0
H238 H 0.80025 0.33238 0.19365 0.0
H239 H 0.81638 0.30647 0.25582 0.0
C240 C 0.24084 0.24105 0.71214 0.0
C241 C 0.22568 0.22682 0.71336 0.0
C242 C 0.24064 0.20591 0.68574 0.0
C243 C 0.2256 0.20942 0.7004 0.0
C244 C 0.25583 0.22018 0.68454 0.0
C245 C 0.25596 0.23753 0.6976 0.0
U246 U 0.26084 0.27562 0.75721 0.0
O247 O 0.26327 0.30907 0.75824 0.0
O248 O 0.24546 0.29278 0.78216 0.0
C249 C 0.25065 0.31056 0.77394 0.0
C250 C 0.24027 0.25965 0.7256 0.0
C251 C 0.23487 0.32496 0.76975 0.0
C252 C 0.2059 0.33479 0.74995 0.0
C253 C 0.22089 0.321 0.75371 0.0
C254 C 0.21878 0.35662 0.77817 0.0
C255 C 0.20462 0.35275 0.76219 0.0
C256 C 0.23375 0.34285 0.78189 0.0
C257 C 0.30665 0.25807 0.78795 0.0
C258 C 0.32075 0.27443 0.81969 0.0
C259 C 0.3365 0.24546 0.80366 0.0
C260 C 0.32195 0.2443 0.7879 0.0
C261 C 0.33605 0.26045 0.81986 0.0
C262 C 0.30614 0.27324 0.80387 0.0
C263 C 0.29132 0.25594 0.77147 0.0
O264 O 0.23629 0.25678 0.74629 0.0
O265 O 0.25393 0.27331 0.72236 0.0
O266 O 0.29179 0.26903 0.75514 0.0
O267 O 0.2739 0.25267 0.77897 0.0
H268 H 0.21381 0.22919 0.72436 0.0
H269 H 0.21381 0.19864 0.70199 0.0
H270 H 0.26751 0.21817 0.67321 0.0
H271 H 0.26783 0.24824 0.69612 0.0
H272 H 0.19515 0.33121 0.7377 0.0
H273 H 0.22153 0.30722 0.74418 0.0
H274 H 0.21843 0.37043 0.78766 0.0
H275 H 0.24447 0.34618 0.79427 0.0
H276 H 0.31986 0.28606 0.83202 0.0
H277 H 0.34821 0.23468 0.80302 0.0
H278 H 0.32261 0.23254 0.77568 0.0
H279 H 0.2944 0.284 0.80416 0.0
C280 C 0.21744 0.73124 0.24873 0.0
C281 C 0.21982 0.71243 0.2596 0.0
C282 C 0.19104 0.69869 0.24197 0.0
C283 C 0.20683 0.69635 0.25621 0.0
C284 C 0.18885 0.71736 0.23079 0.0
C285 C 0.20183 0.73347 0.23421 0.0
U286 U 0.26293 0.7648 0.2407 0.0
O287 O 0.26614 0.7982 0.24181 0.0
O288 O 0.28178 0.77892 0.26527 0.0
C289 C 0.27737 0.79757 0.2591 0.0
C290 C 0.23015 0.7489 0.25388 0.0
C291 C 0.2726 0.81168 0.27664 0.0
C292 C 0.25278 0.82195 0.30701 0.0
C293 C 0.25662 0.80841 0.2901 0.0
C294 C 0.28074 0.84213 0.29694 0.0
C295 C 0.26491 0.83889 0.31073 0.0
C296 C 0.28453 0.82864 0.2801 0.0
C297 C 0.30065 0.7522 0.19766 0.0
C298 C 0.33545 0.74861 0.19521 0.0
C299 C 0.31794 0.76561 0.16617 0.0
C300 C 0.30072 0.76232 0.17736 0.0
C301 C 0.33551 0.75868 0.17489 0.0
C302 C 0.31825 0.74538 0.20643 0.0
C303 C 0.28221 0.74807 0.20904 0.0
O304 O 0.24684 0.74476 0.2631 0.0
O305 O 0.23128 0.76357 0.23916 0.0
O306 O 0.26836 0.76131 0.20569 0.0
O307 O 0.28347 0.74194 0.22945 0.0
H308 H 0.23153 0.71019 0.27108 0.0
H309 H 0.20908 0.6821 0.26491 0.0
H310 H 0.17671 0.71979 0.21995 0.0
H311 H 0.19935 0.74784 0.22583 0.0
H312 H 0.24056 0.81894 0.31741 0.0
H313 H 0.24726 0.79534 0.28762 0.0
H314 H 0.29016 0.8552 0.29904 0.0
H315 H 0.29687 0.83144 0.2698 0.0
H316 H 0.34874 0.74324 0.20248 0.0
H317 H 0.31743 0.77314 0.1504 0.0
H318 H 0.2874 0.7675 0.16998 0.0
H319 H 0.31877 0.73738 0.22193 0.0
C320 C 0.99929 0.48434 0.24043 0.0
C321 C 0.04856 0.53838 0.24047 0.0
O322 O 1.00481 0.4894 0.25961 0.0
Zn323 Zn 0.02472 0.51041 0.27449 0.0
O324 O 1.00687 0.49312 0.22401 0.0
Zn325 Zn 0.02413 0.51118 0.23986 0.0
O326 O 0.04462 0.49049 0.25414 0.0
O327 O 0.04247 0.49252 0.28982 0.0
O328 O 0.04054 0.53023 0.22401 0.0
O329 O 0.04385 0.5323 0.25962 0.0
O330 O 1.00761 0.5277 0.29089 0.0
O331 O 1.00427 0.53123 0.25534 0.0
C332 C 0.05026 0.48483 0.27318 0.0
C333 C 0.99932 0.53613 0.27465 0.0
C334 C 1.00072 0.49578 0.78583 0.0
C335 C 0.05033 0.54947 0.78578 0.0
O336 O 1.00861 0.50393 0.80238 0.0
Zn337 Zn 0.02536 0.52276 0.78662 0.0
O338 O 1.00574 0.50168 0.76672 0.0
Zn339 Zn 0.0251 0.52316 0.7518 0.0
O340 O 0.04239 0.50538 0.73601 0.0
O341 O 0.04528 0.50254 0.77166 0.0
O342 O 0.04495 0.5441 0.76666 0.0
O343 O 0.04254 0.5411 0.8023 0.0
O344 O 1.00509 0.54323 0.77189 0.0
O345 O 1.00744 0.54121 0.73623 0.0
C346 C 0.05049 0.49727 0.75257 0.0
C347 C 0.99954 0.54888 0.75283 0.0
C348 C 0.28195 0.9852 0.53905 0.0
C349 C 0.2833 0.03987 0.48385 0.0
O350 O 0.26515 0.99059 0.5325 0.0
Zn351 Zn 0.25258 1.01185 0.50976 0.0
O352 O 0.2967 0.99395 0.531 0.0
Zn353 Zn 0.28319 1.01244 0.51133 0.0
O354 O 0.26901 0.03268 0.53324 0.0
O355 O 0.23768 0.02922 0.52846 0.0
O356 O 0.29766 0.03155 0.49322 0.0
O357 O 0.26625 0.03378 0.48862 0.0
O358 O 0.23939 0.99408 0.4894 0.0
O359 O 0.27099 0.99191 0.48785 0.0
C360 C 0.25179 0.03772 0.53814 0.0
C361 C 0.25428 0.98628 0.48108 0.0
C362 C 0.55875 0.734 0.04985 0.0
C363 C 0.50863 0.73166 0.99305 0.0
O364 O 0.55095 0.71813 0.0418 0.0
Zn365 Zn 0.53367 0.73198 0.02145 0.0
O366 O 0.55334 0.75164 0.04313 0.0
Zn367 Zn 0.53347 0.76458 0.02015 0.0
O368 O 0.51585 0.77958 0.03837 0.0
O369 O 0.51345 0.7462 0.04258 0.0
O370 O 0.51388 0.74974 0.99831 0.0
O371 O 0.51653 0.71643 1.0024 0.0
O372 O 0.55329 0.74567 0.99865 0.0
O373 O 0.55048 0.7791 1.00032 0.0
C374 C 0.50792 0.76419 0.04746 0.0
C375 C 0.55838 0.76355 0.99213 0.0
C376 C 0.76443 0.99581 0.54016 0.0
C377 C 0.76618 0.05118 0.48588 0.0
O378 O 0.75002 1.00426 0.53102 0.0
Zn379 Zn 0.76452 0.02363 0.51317 0.0
O380 O 0.78145 1.00203 0.53549 0.0
Zn381 Zn 0.7953 0.02413 0.51498 0.0
O382 O 0.80818 0.04184 0.53587 0.0
O383 O 0.77655 0.04384 0.53697 0.0
O384 O 0.78287 0.04561 0.4926 0.0
O385 O 0.75127 0.04239 0.49352 0.0
O386 O 0.77874 1.0037 0.4911 0.0
O387 O 0.8101 1.00666 0.49601 0.0
C388 C 0.79314 0.04949 0.54405 0.0
C389 C 0.79589 0.99848 0.48616 0.0
C390 C 0.54428 0.26976 0.02962 0.0
C391 C 0.49279 0.27133 0.97465 0.0
O392 O 0.53568 0.25456 0.02114 0.0
Zn393 Zn 0.51855 0.26998 1.00219 0.0
O394 O 0.5394 0.28788 0.02388 0.0
Zn395 Zn 0.51934 0.30249 1.00203 0.0
O396 O 0.50318 0.3175 0.02196 0.0
O397 O 0.49981 0.28413 0.02502 0.0
O398 O 0.49855 0.28917 0.98025 0.0
O399 O 0.50061 0.25573 0.98328 0.0
O400 O 0.53852 0.2836 0.97982 0.0
O401 O 0.53663 0.31704 0.98236 0.0
C402 C 0.49522 0.30211 0.03103 0.0
C403 C 0.54418 0.30144 0.97384 0.0
H404 H 0.20048 0.36902 0.30363 0.0
H405 H 0.17117 0.38887 0.30891 0.0
H406 H 0.15851 0.38537 0.24026 0.0
H407 H 0.18736 0.36508 0.23495 0.0
H408 H 0.16196 0.42636 0.29034 0.0
H409 H 0.10752 0.36826 0.26732 0.0
H410 H 0.1322 0.36186 0.27351 0.0
H411 H 0.12573 0.37176 0.24705 0.0
C412 C 0.19128 0.37218 0.28972 0.0
C413 C 0.19629 0.36543 0.26886 0.0
C414 C 0.17459 0.38363 0.29275 0.0
C415 C 0.16249 0.38837 0.27504 0.0
C416 C 0.16741 0.38158 0.25425 0.0
H417 H 0.06773 0.46401 0.24072 0.0
H418 H 0.09444 0.44023 0.24374 0.0
C419 C 0.18406 0.37018 0.2512 0.0
C420 C 0.1452 0.40123 0.27797 0.0
H421 H 0.09684 0.40293 0.26783 0.0
C422 C 0.14767 0.42115 0.28574 0.0
C423 C 0.12654 0.3944 0.27202 0.0
C424 C 0.12277 0.37283 0.26472 0.0
C425 C 0.13215 0.43474 0.28671 0.0
C426 C 0.11363 0.42812 0.27999 0.0
C427 C 0.11106 0.408 0.2729 0.0
C428 C 0.09704 0.44223 0.27873 0.0
C429 C 0.13582 0.45634 0.29396 0.0
C430 C 0.08941 0.45107 0.29748 0.0
C431 C 0.07403 0.46474 0.29583 0.0
C432 C 0.06603 0.46978 0.27538 0.0
C433 C 0.07355 0.46058 0.25672 0.0
C434 C 0.08882 0.44692 0.2584 0.0
H435 H 0.15143 0.46006 0.29479 0.0
H436 H 0.12872 0.46737 0.28272 0.0
H437 H 0.12969 0.4584 0.31039 0.0
H438 H 0.09536 0.44741 0.31338 0.0
H439 H 0.06856 0.47149 0.31053 0.0
H440 H 0.20963 0.64501 0.77163 0.0
H441 H 0.18041 0.62408 0.77338 0.0
H442 H 0.15191 0.67154 0.80859 0.0
H443 H 0.1811 0.69264 0.8068 0.0
H444 H 0.1612 0.60922 0.80901 0.0
H445 H 0.11363 0.6598 0.75993 0.0
H446 H 0.13941 0.66319 0.76095 0.0
H447 H 0.12477 0.67187 0.78294 0.0
C448 C 0.19716 0.651 0.77977 0.0
C449 C 0.19769 0.67053 0.78902 0.0
C450 C 0.18044 0.63903 0.78072 0.0
C451 C 0.16388 0.64631 0.7909 0.0
C452 C 0.16436 0.66576 0.80024 0.0
H453 H 0.06676 0.56434 0.82343 0.0
H454 H 0.09361 0.5887 0.82649 0.0
C455 C 0.18106 0.67781 0.7992 0.0
C456 C 0.14629 0.63329 0.79199 0.0
H457 H 0.09912 0.63072 0.77613 0.0
C458 C 0.1476 0.61394 0.8019 0.0
C459 C 0.12859 0.63941 0.78255 0.0
C460 C 0.12647 0.65961 0.77081 0.0
C461 C 0.13178 0.60046 0.80242 0.0
C462 C 0.11404 0.60665 0.79314 0.0
C463 C 0.11267 0.62608 0.78344 0.0
C464 C 0.09719 0.59261 0.79173 0.0
C465 C 0.13441 0.57944 0.81218 0.0
C466 C 0.0899 0.58719 0.77124 0.0
C467 C 0.07453 0.57346 0.76945 0.0
C468 C 0.06602 0.56483 0.78813 0.0
C469 C 0.07304 0.57061 0.80872 0.0
C470 C 0.08846 0.58444 0.81049 0.0
H471 H 0.14986 0.57554 0.81421 0.0
H472 H 0.12764 0.57881 0.82846 0.0
H473 H 0.1274 0.56769 0.80186 0.0
H474 H 0.09635 0.59332 0.75655 0.0
H475 H 0.06951 0.56944 0.75332 0.0
H476 H 0.84186 0.63907 0.29381 0.0
H477 H 0.86873 0.61547 0.29831 0.0
H478 H 0.90687 0.65966 0.26859 0.0
H479 H 0.8801 0.68338 0.26419 0.0
H480 H 0.88973 0.59878 0.26675 0.0
H481 H 0.93808 0.64244 0.32139 0.0
H482 H 0.91324 0.64927 0.31687 0.0
H483 H 0.93133 0.65668 0.29748 0.0
C484 C 0.856 0.6438 0.28833 0.0
C485 C 0.85884 0.66311 0.27863 0.0
C486 C 0.87136 0.63034 0.29101 0.0
C487 C 0.8899 0.63588 0.2841 0.0
C488 C 0.89282 0.65522 0.2746 0.0
H489 H 0.98036 0.55753 0.24297 0.0
H490 H 0.95388 0.58125 0.24706 0.0
C491 C 0.87748 0.66876 0.27202 0.0
C492 C 0.90582 0.62087 0.28533 0.0
H493 H 0.95211 0.61412 0.30305 0.0
C494 C 0.90329 0.60208 0.27489 0.0
C495 C 0.92344 0.62501 0.29619 0.0
C496 C 0.92665 0.64436 0.30881 0.0
C497 C 0.91808 0.58766 0.27436 0.0
C498 C 0.93605 0.59227 0.28417 0.0
C499 C 0.93839 0.61071 0.29532 0.0
C500 C 0.95276 0.57847 0.28212 0.0
C501 C 0.91432 0.56759 0.26324 0.0
C502 C 0.96141 0.56952 0.30058 0.0
C503 C 0.97673 0.55592 0.29832 0.0
C504 C 0.98371 0.55116 0.27756 0.0
C505 C 0.97529 0.56065 0.25921 0.0
C506 C 0.96006 0.57418 0.26149 0.0
H507 H 0.89869 0.56403 0.26227 0.0
H508 H 0.9199 0.56845 0.24639 0.0
H509 H 0.92169 0.55488 0.27191 0.0
H510 H 0.95607 0.57275 0.31668 0.0
H511 H 0.98293 0.54895 0.31279 0.0
H512 H 0.87016 0.35262 0.81344 0.0
H513 H 0.89315 0.38056 0.81985 0.0
H514 H 0.89826 0.39016 0.75062 0.0
H515 H 0.87506 0.3627 0.7441 0.0
H516 H 0.93163 0.38415 0.80512 0.0
H517 H 0.88667 0.44736 0.77339 0.0
H518 H 0.87679 0.42263 0.78046 0.0
H519 H 0.88854 0.42658 0.75476 0.0
C520 C 0.87601 0.36086 0.7996 0.0
C521 C 0.87074 0.35544 0.77825 0.0
C522 C 0.88921 0.37673 0.80329 0.0
C523 C 0.8972 0.38761 0.78573 0.0
C524 C 0.89202 0.38219 0.76443 0.0
H525 H 0.98147 0.47635 0.75324 0.0
H526 H 0.9563 0.4505 0.75626 0.0
C527 C 0.87891 0.36633 0.76073 0.0
C528 C 0.91139 0.40428 0.78942 0.0
H529 H 0.92037 0.45435 0.77721 0.0
C530 C 0.9291 0.3996 0.79935 0.0
C531 C 0.90799 0.42443 0.78198 0.0
C532 C 0.8889 0.43065 0.77224 0.0
C533 C 0.9439 0.41428 0.80093 0.0
C534 C 0.94077 0.43418 0.79261 0.0
C535 C 0.92278 0.43905 0.7835 0.0
C536 C 0.95639 0.44971 0.79144 0.0
C537 C 0.96308 0.40814 0.81048 0.0
C538 C 0.96483 0.45794 0.81028 0.0
C539 C 0.97936 0.47285 0.80863 0.0
C540 C 0.98562 0.47978 0.7881 0.0
C541 C 0.97707 0.47142 0.76934 0.0
C542 C 0.96262 0.45662 0.771 0.0
H543 H 0.96418 0.39136 0.81281 0.0
H544 H 0.97499 0.41341 0.79983 0.0
H545 H 0.96504 0.41544 0.82656 0.0
H546 H 0.96003 0.45302 0.82623 0.0
H547 H 0.98557 0.47902 0.8234 0.0
H548 H 0.27727 0.17669 0.3326 0.0
H549 H 0.28034 0.14653 0.35617 0.0
H550 H 0.30017 0.1845 0.40875 0.0
H551 H 0.29703 0.21474 0.38533 0.0
H552 H 0.31091 0.12939 0.37938 0.0
H553 H 0.2537 0.15537 0.43499 0.0
H554 H 0.25799 0.16731 0.40889 0.0
H555 H 0.27327 0.17314 0.43176 0.0
C556 C 0.28252 0.1786 0.3491 0.0
C557 C 0.28672 0.19816 0.35715 0.0
C558 C 0.28423 0.16134 0.36257 0.0
C559 C 0.29015 0.16329 0.38434 0.0
C560 C 0.29513 0.18268 0.39216 0.0
H561 H 0.31646 0.06099 0.47343 0.0
H562 H 0.3195 0.09068 0.44899 0.0
C563 C 0.29333 0.19995 0.37875 0.0
C564 C 0.2904 0.14513 0.39905 0.0
H565 H 0.27014 0.12534 0.44519 0.0
C566 C 0.30204 0.12849 0.39381 0.0
C567 C 0.27864 0.14389 0.41772 0.0
C568 C 0.26505 0.16078 0.42363 0.0
C569 C 0.30223 0.11065 0.40675 0.0
C570 C 0.29068 0.10956 0.4256 0.0
C571 C 0.27911 0.12624 0.43083 0.0
C572 C 0.28943 0.09092 0.43954 0.0
C573 C 0.31435 0.09291 0.3998 0.0
C574 C 0.27154 0.0813 0.44252 0.0
C575 C 0.26974 0.06453 0.45655 0.0
C576 C 0.28581 0.05694 0.46801 0.0
C577 C 0.30383 0.06637 0.46476 0.0
C578 C 0.3056 0.08328 0.45072 0.0
H579 H 0.31878 0.09438 0.38252 0.0
H580 H 0.32756 0.09231 0.41003 0.0
H581 H 0.30642 0.07827 0.40199 0.0
H582 H 0.25886 0.08691 0.43409 0.0
H583 H 0.25564 0.05765 0.45857 0.0
H584 H 0.37238 0.70828 0.84599 0.0
H585 H 0.39593 0.70067 0.87486 0.0
H586 H 0.40274 0.76497 0.88696 0.0
H587 H 0.37896 0.77266 0.8587 0.0
H588 H 0.43461 0.71358 0.87786 0.0
H589 H 0.39274 0.74129 0.94766 0.0
H590 H 0.38186 0.73606 0.92151 0.0
H591 H 0.39435 0.75981 0.92604 0.0
C592 C 0.37871 0.72077 0.85502 0.0
C593 C 0.37376 0.74109 0.85004 0.0
C594 C 0.39224 0.7164 0.8714 0.0
C595 C 0.40089 0.73223 0.88327 0.0
C596 C 0.396 0.75249 0.8783 0.0
H597 H 0.48947 0.76168 0.97129 0.0
H598 H 0.46317 0.75833 0.94524 0.0
C599 C 0.38255 0.75687 0.86194 0.0
C600 C 0.41552 0.72787 0.9004 0.0
H601 H 0.42682 0.73804 0.95336 0.0
C602 C 0.43281 0.71855 0.89449 0.0
C603 C 0.41307 0.73424 0.92212 0.0
C604 C 0.39442 0.74322 0.92979 0.0
C605 C 0.44819 0.71665 0.90939 0.0
C606 C 0.44607 0.72408 0.93075 0.0
C607 C 0.42844 0.73244 0.93693 0.0
C608 C 0.46251 0.72537 0.94624 0.0
C609 C 0.46692 0.70775 0.90192 0.0
C610 C 0.47096 0.70787 0.95547 0.0
C611 C 0.48615 0.70971 0.97054 0.0
C612 C 0.49306 0.72909 0.97659 0.0
C613 C 0.48458 0.7465 0.96709 0.0
C614 C 0.46947 0.74464 0.95217 0.0
H615 H 0.46697 0.70499 0.88412 0.0
H616 H 0.47908 0.71812 0.90605 0.0
H617 H 0.46941 0.69301 0.91049 0.0
H618 H 0.46563 0.69285 0.95126 0.0
H619 H 0.49231 0.69602 0.9776 0.0
H620 H 0.83211 0.84089 0.36755 0.0
H621 H 0.8326 0.87056 0.39132 0.0
H622 H 0.77494 0.88551 0.37084 0.0
H623 H 0.77443 0.85618 0.34658 0.0
H624 H 0.82587 0.91361 0.38046 0.0
H625 H 0.77281 0.88106 0.43867 0.0
H626 H 0.78558 0.86557 0.4195 0.0
H627 H 0.76554 0.88069 0.41054 0.0
C628 C 0.8196 0.85062 0.36782 0.0
C629 C 0.80319 0.84603 0.35513 0.0
C630 C 0.8199 0.86752 0.38153 0.0
C631 C 0.80374 0.88009 0.38302 0.0
C632 C 0.78746 0.87581 0.37018 0.0
H633 H 0.76884 0.98259 0.45878 0.0
H634 H 0.77224 0.95459 0.43342 0.0
C635 C 0.78717 0.85897 0.35637 0.0
C636 C 0.8038 0.89754 0.3982 0.0
H637 H 0.78187 0.91556 0.44354 0.0
C638 C 0.81634 0.91404 0.39433 0.0
C639 C 0.7914 0.89799 0.41631 0.0
C640 C 0.77816 0.88033 0.4217 0.0
C641 C 0.81636 0.93133 0.40772 0.0
C642 C 0.80377 0.93188 0.4257 0.0
C643 C 0.79148 0.91518 0.42973 0.0
C644 C 0.80247 0.94987 0.44017 0.0
C645 C 0.82937 0.94909 0.40206 0.0
C646 C 0.81841 0.95673 0.45236 0.0
C647 C 0.81655 0.97295 0.46689 0.0
C648 C 0.79864 0.98241 0.46965 0.0
C649 C 0.78283 0.97565 0.45716 0.0
C650 C 0.78474 0.95959 0.44262 0.0
H651 H 0.83444 0.94839 0.38499 0.0
H652 H 0.82191 0.96382 0.40439 0.0
H653 H 0.84219 0.9488 0.41293 0.0
H654 H 0.83216 0.94921 0.45108 0.0
H655 H 0.82896 0.97768 0.47637 0.0
H656 H 0.69051 0.27227 0.85394 0.0
H657 H 0.66117 0.27364 0.87559 0.0
H658 H 0.66047 0.33912 0.86847 0.0
H659 H 0.68939 0.33784 0.84617 0.0
H660 H 0.65665 0.29343 0.91461 0.0
H661 H 0.6052 0.32375 0.85297 0.0
H662 H 0.62826 0.31342 0.84575 0.0
H663 H 0.62668 0.33882 0.85626 0.0
C664 C 0.68392 0.28694 0.85659 0.0
C665 C 0.69234 0.30494 0.84825 0.0
C666 C 0.66721 0.28771 0.86911 0.0
C667 C 0.65848 0.30646 0.87345 0.0
C668 C 0.66673 0.32444 0.86502 0.0
H669 H 0.56129 0.33648 0.95768 0.0
H670 H 0.58903 0.33886 0.93319 0.0
C671 C 0.68343 0.32369 0.85249 0.0
C672 C 0.64133 0.30721 0.88772 0.0
H673 H 0.5941 0.32135 0.88935 0.0
C674 C 0.64297 0.2995 0.90905 0.0
C675 C 0.62351 0.31529 0.88053 0.0
C676 C 0.62067 0.32314 0.85757 0.0
C677 C 0.62732 0.29961 0.92334 0.0
C678 C 0.60945 0.3074 0.91606 0.0
C679 C 0.60784 0.31544 0.89488 0.0
C680 C 0.59208 0.30624 0.92992 0.0
C681 C 0.63004 0.29147 0.94621 0.0
C682 C 0.58437 0.28716 0.93574 0.0
C683 C 0.56859 0.28574 0.94958 0.0
C684 C 0.56009 0.30341 0.95794 0.0
C685 C 0.56751 0.32259 0.95159 0.0
C686 C 0.58334 0.32398 0.93761 0.0
H687 H 0.64549 0.29085 0.95093 0.0
H688 H 0.62234 0.30101 0.9581 0.0
H689 H 0.62405 0.27575 0.94726 0.0
H690 H 0.59072 0.27329 0.92971 0.0
H691 H 0.56324 0.27071 0.95398 0.0
H692 H 0.27275 0.85789 0.69929 0.0
H693 H 0.2758 0.88629 0.67333 0.0
H694 H 0.29592 0.8449 0.62459 0.0
H695 H 0.2927 0.8164 0.65038 0.0
H696 H 0.30613 0.90237 0.6503 0.0
H697 H 0.25064 0.87148 0.59395 0.0
H698 H 0.25444 0.86116 0.62095 0.0
H699 H 0.27022 0.85439 0.59916 0.0
C700 C 0.278 0.85486 0.68311 0.0
C701 C 0.28231 0.83484 0.67684 0.0
C702 C 0.2797 0.87111 0.66827 0.0
C703 C 0.28574 0.86769 0.64687 0.0
C704 C 0.29075 0.84784 0.64082 0.0
H705 H 0.31471 0.96546 0.55301 0.0
H706 H 0.31688 0.93707 0.57922 0.0
C707 C 0.28893 0.83157 0.6556 0.0
C708 C 0.28632 0.88482 0.63081 0.0
H709 H 0.26746 0.90099 0.58218 0.0
C710 C 0.2977 0.90208 0.63538 0.0
C711 C 0.27513 0.88454 0.61146 0.0
C712 C 0.26177 0.867 0.60613 0.0
C713 C 0.29819 0.91904 0.62116 0.0
C714 C 0.28726 0.91858 0.60164 0.0
C715 C 0.27596 0.90129 0.59706 0.0
C716 C 0.2864 0.93623 0.58624 0.0
C717 C 0.30992 0.93753 0.62751 0.0
C718 C 0.26856 0.94501 0.58117 0.0
C719 C 0.26725 0.96101 0.56607 0.0
C720 C 0.28378 0.96868 0.55564 0.0
C721 C 0.30172 0.96002 0.56086 0.0
C722 C 0.303 0.94385 0.57593 0.0
H723 H 0.3135 0.93743 0.64516 0.0
H724 H 0.32362 0.93764 0.61837 0.0
H725 H 0.30212 0.95181 0.62349 0.0
H726 H 0.25555 0.93941 0.58888 0.0
H727 H 0.2532 0.96731 0.56253 0.0
H728 H 0.6895 0.77809 0.18383 0.0
H729 H 0.66494 0.77054 0.15642 0.0
H730 H 0.66809 0.70656 0.17282 0.0
H731 H 0.69234 0.71406 0.20086 0.0
H732 H 0.66759 0.74535 0.12015 0.0
H733 H 0.6102 0.71816 0.17631 0.0
H734 H 0.63114 0.73204 0.18574 0.0
H735 H 0.63302 0.7056 0.17881 0.0
C736 C 0.68482 0.76243 0.18185 0.0
C737 C 0.69279 0.74672 0.19474 0.0
C738 C 0.67086 0.75812 0.16604 0.0
C739 C 0.66447 0.73803 0.16275 0.0
C740 C 0.67256 0.72222 0.17532 0.0
H741 H 0.57361 0.69961 0.06986 0.0
H742 H 0.59998 0.69809 0.09675 0.0
C743 C 0.68658 0.72652 0.19118 0.0
C744 C 0.64954 0.73386 0.1459 0.0
H745 H 0.60283 0.71837 0.13881 0.0
C746 C 0.65348 0.7393 0.12422 0.0
C747 C 0.63117 0.72583 0.15119 0.0
C748 C 0.62597 0.72018 0.17427 0.0
C749 C 0.63945 0.73741 0.10781 0.0
C750 C 0.62086 0.73016 0.11324 0.0
C751 C 0.6171 0.72393 0.13472 0.0
C752 C 0.60476 0.73072 0.09723 0.0
C753 C 0.64456 0.74343 0.0848 0.0
C754 C 0.5985 0.74955 0.08895 0.0
C755 C 0.58351 0.75048 0.07376 0.0
C756 C 0.57432 0.73257 0.06648 0.0
C757 C 0.58041 0.71367 0.07505 0.0
C758 C 0.59545 0.71277 0.09041 0.0
H759 H 0.66034 0.74301 0.08217 0.0
H760 H 0.63738 0.73322 0.07287 0.0
H761 H 0.63965 0.75924 0.08154 0.0
H762 H 0.60524 0.76361 0.09428 0.0
H763 H 0.5792 0.76532 0.06764 0.0
H764 H 0.79871 0.20764 0.67083 0.0
H765 H 0.80489 0.18224 0.64289 0.0
H766 H 0.77582 0.1364 0.68152 0.0
H767 H 0.77017 0.16147 0.70987 0.0
H768 H 0.80964 0.12226 0.66278 0.0
H769 H 0.76306 0.16115 0.60153 0.0
H770 H 0.78205 0.17668 0.61264 0.0
H771 H 0.76299 0.16772 0.62996 0.0
C772 C 0.79386 0.19209 0.67355 0.0
C773 C 0.78378 0.18668 0.69256 0.0
C774 C 0.79724 0.17764 0.65744 0.0
C775 C 0.79054 0.1575 0.65994 0.0
C776 C 0.78102 0.15188 0.67917 0.0
H777 H 0.76339 0.06658 0.56575 0.0
H778 H 0.76472 0.09264 0.59365 0.0
C779 C 0.77765 0.1663 0.69528 0.0
C780 C 0.79289 0.14234 0.64234 0.0
H781 H 0.77925 0.13174 0.59013 0.0
C782 C 0.8031 0.12436 0.64684 0.0
C783 C 0.78418 0.14503 0.62163 0.0
C784 C 0.77231 0.16359 0.61611 0.0
C785 C 0.80467 0.1089 0.63125 0.0
C786 C 0.79599 0.11163 0.61053 0.0
C787 C 0.78601 0.12973 0.60597 0.0
C788 C 0.79575 0.09533 0.59389 0.0
C789 C 0.81497 0.08947 0.63736 0.0
C790 C 0.8128 0.08809 0.58466 0.0
C791 C 0.81211 0.07301 0.56862 0.0
C792 C 0.79434 0.06503 0.56145 0.0
C793 C 0.77735 0.07235 0.57081 0.0
C794 C 0.77806 0.0873 0.58678 0.0
H795 H 0.81731 0.08805 0.65522 0.0
H796 H 0.80673 0.07593 0.63171 0.0
H797 H 0.82924 0.08937 0.62939 0.0
H798 H 0.82661 0.0943 0.58962 0.0
H799 H 0.82546 0.0678 0.56168 0.0
H800 H 0.35314 0.28613 0.16013 0.0
H801 H 0.37678 0.29122 0.13123 0.0
H802 H 0.41458 0.32215 0.17623 0.0
H803 H 0.39105 0.31703 0.20526 0.0
H804 H 0.39441 0.32573 0.113 0.0
H805 H 0.44787 0.27578 0.15439 0.0
H806 H 0.42313 0.27703 0.16288 0.0
H807 H 0.43987 0.29684 0.17033 0.0
C808 C 0.36636 0.29427 0.16382 0.0
C809 C 0.37028 0.30099 0.18507 0.0
C810 C 0.37989 0.29712 0.14729 0.0
C811 C 0.39759 0.30674 0.15165 0.0
C812 C 0.4012 0.31426 0.1726 0.0
H813 H 0.4823 0.33751 0.04969 0.0
H814 H 0.45879 0.34054 0.0791 0.0
C815 C 0.38774 0.31133 0.18917 0.0
C816 C 0.41252 0.3081 0.1345 0.0
H817 H 0.45755 0.29176 0.1217 0.0
C818 C 0.40826 0.31841 0.11491 0.0
C819 C 0.43052 0.29835 0.13696 0.0
C820 C 0.43563 0.28621 0.15717 0.0
C821 C 0.42146 0.31909 0.09766 0.0
C822 C 0.43947 0.3094 0.10019 0.0
C823 C 0.4438 0.29932 0.11987 0.0
C824 C 0.45347 0.30807 0.08211 0.0
C825 C 0.41575 0.3295 0.07661 0.0
C826 C 0.45851 0.28884 0.07428 0.0
C827 C 0.47195 0.28706 0.05768 0.0
C828 C 0.48077 0.30448 0.04849 0.0
C829 C 0.47572 0.3238 0.05633 0.0
C830 C 0.46221 0.32556 0.07306 0.0
H831 H 0.40006 0.33256 0.07578 0.0
H832 H 0.42352 0.3443 0.07521 0.0
H833 H 0.41973 0.32007 0.06246 0.0
H834 H 0.45198 0.27513 0.08103 0.0
H835 H 0.47543 0.27193 0.05209 0.0
H836 H 0.84295 0.64388 0.77493 0.0
H837 H 0.87105 0.62248 0.76929 0.0
H838 H 0.89885 0.67165 0.73424 0.0
H839 H 0.8711 0.69348 0.74057 0.0
H840 H 0.8888 0.60946 0.73182 0.0
H841 H 0.93851 0.6575 0.78101 0.0
H842 H 0.91277 0.66072 0.78133 0.0
H843 H 0.92664 0.67066 0.759 0.0
C844 C 0.8551 0.65026 0.7662 0.0
C845 C 0.85479 0.67053 0.75844 0.0
C846 C 0.8711 0.63791 0.76281 0.0
C847 C 0.88719 0.64554 0.75163 0.0
C848 C 0.88674 0.66554 0.74326 0.0
H849 H 0.98294 0.56465 0.7154 0.0
H850 H 0.95621 0.58887 0.71278 0.0
C851 C 0.87075 0.67794 0.7467 0.0
C852 C 0.90452 0.6326 0.74922 0.0
H853 H 0.95189 0.62897 0.76391 0.0
C854 C 0.90264 0.61376 0.7387 0.0
C855 C 0.92253 0.63817 0.75838 0.0
C856 C 0.92529 0.65777 0.77074 0.0
C857 C 0.91818 0.60022 0.73739 0.0
C858 C 0.93618 0.6058 0.74655 0.0
C859 C 0.93813 0.62479 0.75673 0.0
C860 C 0.95266 0.59148 0.7476 0.0
C861 C 0.91498 0.57971 0.727 0.0
C862 C 0.95986 0.58529 0.76798 0.0
C863 C 0.97513 0.57165 0.76951 0.0
C864 C 0.98368 0.56386 0.75068 0.0
C865 C 0.97665 0.57028 0.73021 0.0
C866 C 0.9613 0.58403 0.72869 0.0
H867 H 0.89944 0.57614 0.72477 0.0
H868 H 0.92184 0.57971 0.71076 0.0
H869 H 0.92162 0.5674 0.737 0.0
H870 H 0.95347 0.59084 0.78279 0.0
H871 H 0.98013 0.56712 0.78557 0.0
H872 H 0.87517 0.33626 0.24078 0.0
H873 H 0.90266 0.35977 0.24259 0.0
H874 H 0.86774 0.40785 0.21532 0.0
H875 H 0.84004 0.3847 0.21412 0.0
H876 H 0.92101 0.38161 0.20934 0.0
H877 H 0.89018 0.43383 0.27014 0.0
H878 H 0.88005 0.40895 0.26476 0.0
H879 H 0.87516 0.43 0.24662 0.0
C880 C 0.87325 0.3519 0.23541 0.0
C881 C 0.85532 0.35858 0.22741 0.0
C882 C 0.88904 0.36528 0.23629 0.0
C883 C 0.88721 0.38564 0.22934 0.0
C884 C 0.86942 0.3923 0.2211 0.0
H885 H 0.98107 0.47216 0.20277 0.0
H886 H 0.95425 0.44787 0.19932 0.0
C887 C 0.85364 0.37895 0.22021 0.0
C888 C 0.90392 0.39988 0.23061 0.0
H889 H 0.91924 0.44448 0.25342 0.0
C890 C 0.92065 0.39535 0.21899 0.0
C891 C 0.90351 0.41768 0.24341 0.0
C892 C 0.88634 0.42287 0.25712 0.0
C893 C 0.93691 0.40825 0.21965 0.0
C894 C 0.93632 0.42632 0.23202 0.0
C895 C 0.91963 0.43073 0.24377 0.0
C896 C 0.95303 0.44053 0.23371 0.0
C897 C 0.95472 0.40218 0.20751 0.0
C898 C 0.96111 0.44473 0.25418 0.0
C899 C 0.97629 0.45868 0.25622 0.0
C900 C 0.98376 0.46885 0.23781 0.0
C901 C 0.97577 0.46451 0.21725 0.0
C902 C 0.96049 0.45055 0.21524 0.0
H903 H 0.95454 0.3857 0.20346 0.0
H904 H 0.95551 0.41102 0.19205 0.0
H905 H 0.96791 0.40553 0.21719 0.0
H906 H 0.95559 0.43723 0.26867 0.0
H907 H 0.98206 0.4616 0.27232 0.0
H908 H 0.18419 0.37339 0.79275 0.0
H909 H 0.15834 0.3979 0.78678 0.0
H910 H 0.16259 0.38977 0.71748 0.0
H911 H 0.18864 0.36529 0.72328 0.0
H912 H 0.16008 0.43463 0.76286 0.0
H913 H 0.10472 0.3819 0.72884 0.0
H914 H 0.12581 0.37286 0.74319 0.0
H915 H 0.12771 0.38196 0.71563 0.0
C916 C 0.17972 0.37686 0.77621 0.0
C917 C 0.18854 0.36735 0.7585 0.0
C918 C 0.16486 0.39081 0.77284 0.0
C919 C 0.15838 0.39551 0.75171 0.0
C920 C 0.16709 0.38607 0.73395 0.0
H921 H 0.0661 0.48173 0.71509 0.0
H922 H 0.09283 0.45751 0.71246 0.0
C923 C 0.18199 0.37208 0.73731 0.0
C924 C 0.14292 0.41079 0.74846 0.0
H925 H 0.09632 0.41659 0.73139 0.0
C926 C 0.14618 0.4307 0.75587 0.0
C927 C 0.12484 0.4057 0.73914 0.0
C928 C 0.1204 0.38442 0.73136 0.0
C929 C 0.13176 0.44554 0.75463 0.0
C930 C 0.11346 0.44026 0.74608 0.0
C931 C 0.11037 0.42058 0.73793 0.0
C932 C 0.09699 0.45448 0.74726 0.0
C933 C 0.13618 0.46674 0.76269 0.0
C934 C 0.09025 0.46043 0.76765 0.0
C935 C 0.07507 0.47412 0.7692 0.0
C936 C 0.06617 0.48218 0.75038 0.0
C937 C 0.07267 0.47588 0.72989 0.0
C938 C 0.08792 0.46205 0.72836 0.0
H939 H 0.1519 0.46995 0.76281 0.0
H940 H 0.12889 0.47846 0.75247 0.0
H941 H 0.13092 0.46815 0.77961 0.0
H942 H 0.09679 0.45449 0.78244 0.0
H943 H 0.07043 0.47847 0.78527 0.0
H944 H 0.17307 0.68551 0.20461 0.0
H945 H 0.14818 0.65894 0.20124 0.0
H946 H 0.15144 0.64752 0.27036 0.0
H947 H 0.17591 0.67423 0.27396 0.0
H948 H 0.14975 0.61643 0.21377 0.0
H949 H 0.09375 0.65828 0.25858 0.0
H950 H 0.11496 0.67067 0.24775 0.0
H951 H 0.11632 0.65639 0.27284 0.0
C952 C 0.16839 0.67742 0.21911 0.0
C953 C 0.17646 0.68205 0.23957 0.0
C954 C 0.15426 0.66218 0.21713 0.0
C955 C 0.14779 0.65146 0.23559 0.0
C956 C 0.15603 0.65581 0.25595 0.0
H957 H 0.06921 0.55695 0.27262 0.0
H958 H 0.09298 0.58425 0.26914 0.0
C959 C 0.17018 0.67095 0.25793 0.0
C960 C 0.13244 0.63568 0.23375 0.0
H961 H 0.08769 0.62304 0.25229 0.0
C962 C 0.13608 0.61792 0.22196 0.0
C963 C 0.1146 0.63774 0.24439 0.0
C964 C 0.10954 0.65687 0.25644 0.0
C965 C 0.12268 0.60173 0.22138 0.0
C966 C 0.10506 0.60355 0.23257 0.0
C967 C 0.10122 0.62161 0.24378 0.0
C968 C 0.09086 0.58653 0.23407 0.0
C969 C 0.12782 0.58249 0.20958 0.0
C970 C 0.08164 0.57872 0.21548 0.0
C971 C 0.06798 0.56295 0.21739 0.0
C972 C 0.0632 0.55484 0.23797 0.0
C973 C 0.07248 0.56279 0.2565 0.0
C974 C 0.0861 0.57844 0.25457 0.0
H975 H 0.14342 0.58185 0.20586 0.0
H976 H 0.12384 0.56878 0.21936 0.0
H977 H 0.11972 0.58189 0.19397 0.0
H978 H 0.08482 0.58498 0.19952 0.0
H979 H 0.06105 0.55726 0.20281 0.0
H980 H 0.80172 0.84628 0.66053 0.0
H981 H 0.79514 0.87552 0.63677 0.0
H982 H 0.73417 0.86566 0.6445 0.0
H983 H 0.74062 0.83617 0.66822 0.0
H984 H 0.77401 0.87541 0.59735 0.0
H985 H 0.74141 0.92677 0.65825 0.0
H986 H 0.75529 0.90466 0.66606 0.0
H987 H 0.7311 0.90162 0.65614 0.0
C988 C 0.7869 0.85022 0.6571 0.0
C989 C 0.7717 0.83882 0.66625 0.0
C990 C 0.78316 0.86702 0.64361 0.0
C991 C 0.76418 0.87289 0.63905 0.0
C992 C 0.74893 0.86162 0.64814 0.0
H993 H 0.731 0.97636 0.55318 0.0
H994 H 0.72829 0.94594 0.57683 0.0
C995 C 0.75266 0.84477 0.66169 0.0
C996 C 0.76058 0.89044 0.62417 0.0
H997 H 0.74413 0.93945 0.62235 0.0
C998 C 0.76732 0.88934 0.60277 0.0
C999 C 0.7517 0.90855 0.63124 0.0
C1000 C 0.74455 0.91066 0.6542 0.0
C1001 C 0.76594 0.90604 0.58841 0.0
C1002 C 0.75783 0.92441 0.59573 0.0
C1003 C 0.75032 0.9253 0.61682 0.0
C1004 C 0.75894 0.94333 0.58241 0.0
C1005 C 0.77354 0.90404 0.56561 0.0
C1006 C 0.77698 0.95211 0.57821 0.0
C1007 C 0.77857 0.96936 0.5649 0.0
C1008 C 0.76212 0.9783 0.55544 0.0
C1009 C 0.74394 0.96982 0.56016 0.0
C1010 C 0.74236 0.95248 0.57364 0.0
H1011 H 0.77455 0.88782 0.56072 0.0
H1012 H 0.76423 0.91226 0.55371 0.0
H1013 H 0.78818 0.91087 0.56483 0.0
H1014 H 0.78992 0.94545 0.58509 0.0
H1015 H 0.79281 0.9755 0.56179 0.0
H1016 H 0.68215 0.29 0.16688 0.0
H1017 H 0.65609 0.2904 0.13986 0.0
H1018 H 0.65765 0.22479 0.1367 0.0
H1019 H 0.68381 0.22423 0.16353 0.0
H1020 H 0.65518 0.27484 0.09706 0.0
H1021 H 0.60086 0.23657 0.1497 0.0
H1022 H 0.62292 0.24732 0.16041 0.0
H1023 H 0.62312 0.22314 0.14694 0.0
C1024 C 0.67709 0.27566 0.16029 0.0
C1025 C 0.685 0.25707 0.1675 0.0
C1026 C 0.66212 0.27591 0.14493 0.0
C1027 C 0.6547 0.25761 0.13657 0.0
C1028 C 0.66284 0.23906 0.14333 0.0
H1029 H 0.56031 0.2339 0.04448 0.0
H1030 H 0.58755 0.23002 0.06983 0.0
C1031 C 0.67781 0.23878 0.15867 0.0
C1032 C 0.63855 0.25797 0.12063 0.0
H1033 H 0.59169 0.24327 0.11321 0.0
C1034 C 0.6413 0.26795 0.10058 0.0
C1035 C 0.62049 0.24885 0.12523 0.0
C1036 C 0.61653 0.23849 0.14679 0.0
C1037 C 0.62648 0.26904 0.08496 0.0
C1038 C 0.6083 0.26025 0.0897 0.0
C1039 C 0.60564 0.24997 0.10961 0.0
C1040 C 0.59165 0.26242 0.0746 0.0
C1041 C 0.63048 0.27943 0.06343 0.0
C1042 C 0.58468 0.28186 0.06928 0.0
C1043 C 0.5692 0.28412 0.05488 0.0
C1044 C 0.56021 0.26696 0.04556 0.0
C1045 C 0.56693 0.24743 0.0513 0.0
C1046 C 0.58249 0.24518 0.06577 0.0
H1047 H 0.64614 0.27999 0.05991 0.0
H1048 H 0.62297 0.27152 0.04988 0.0
H1049 H 0.62523 0.29535 0.06393 0.0
H1050 H 0.59122 0.29534 0.0763 0.0
H1051 H 0.56435 0.2994 0.05099 0.0
H1052 H 0.20969 0.18828 0.66499 0.0
H1053 H 0.20941 0.15819 0.64183 0.0
H1054 H 0.27078 0.15253 0.65028 0.0
H1055 H 0.2711 0.182 0.67423 0.0
H1056 H 0.22779 0.15242 0.60331 0.0
H1057 H 0.2525 0.0951 0.66399 0.0
H1058 H 0.24439 0.1201 0.67161 0.0
H1059 H 0.26846 0.11664 0.6618 0.0
C1060 C 0.22309 0.18043 0.66227 0.0
C1061 C 0.24041 0.18754 0.67163 0.0
C1062 C 0.22292 0.16331 0.64887 0.0
C1063 C 0.24001 0.15289 0.6446 0.0
C1064 C 0.25733 0.16004 0.65373 0.0
H1065 H 0.27913 0.05783 0.56188 0.0
H1066 H 0.27457 0.0852 0.58783 0.0
C1067 C 0.25752 0.17709 0.6672 0.0
C1068 C 0.23988 0.13503 0.62993 0.0
H1069 H 0.25322 0.08513 0.62671 0.0
C1070 C 0.23314 0.13763 0.60848 0.0
C1071 C 0.24681 0.11573 0.63673 0.0
C1072 C 0.25327 0.11162 0.65985 0.0
C1073 C 0.23384 0.12169 0.59342 0.0
C1074 C 0.24124 0.10256 0.60008 0.0
C1075 C 0.24759 0.09982 0.62164 0.0
C1076 C 0.24357 0.08554 0.58462 0.0
C1077 C 0.22735 0.12566 0.57028 0.0
C1078 C 0.2276 0.07641 0.5744 0.0
C1079 C 0.23014 0.06067 0.55946 0.0
C1080 C 0.24872 0.05378 0.55456 0.0
C1081 C 0.26462 0.06276 0.56518 0.0
C1082 C 0.26205 0.07842 0.58007 0.0
H1083 H 0.22576 0.14222 0.56673 0.0
H1084 H 0.2377 0.11919 0.55859 0.0
H1085 H 0.21318 0.11817 0.56755 0.0
H1086 H 0.21317 0.08145 0.57797 0.0
H1087 H 0.21759 0.05404 0.55165 0.0
H1088 H 0.348 0.79241 0.15201 0.0
H1089 H 0.37751 0.79606 0.1306 0.0
H1090 H 0.39377 0.73485 0.1487 0.0
H1091 H 0.36425 0.73092 0.16974 0.0
H1092 H 0.41767 0.79083 0.14446 0.0
H1093 H 0.39451 0.73609 0.08096 0.0
H1094 H 0.37783 0.74759 0.09949 0.0
H1095 H 0.3925 0.72662 0.10839 0.0
C1096 C 0.35782 0.77969 0.15134 0.0
C1097 C 0.35372 0.76134 0.16253 0.0
C1098 C 0.37472 0.78186 0.13922 0.0
C1099 C 0.3877 0.76565 0.13789 0.0
C1100 C 0.38383 0.74747 0.14933 0.0
H1101 H 0.49196 0.73489 0.07348 0.0
H1102 H 0.46331 0.73732 0.09585 0.0
C1103 C 0.36702 0.74531 0.1615 0.0
C1104 C 0.40519 0.76749 0.12432 0.0
H1105 H 0.42723 0.74662 0.08051 0.0
C1106 C 0.41975 0.78133 0.13035 0.0
C1107 C 0.40778 0.75512 0.10589 0.0
C1108 C 0.39228 0.74063 0.09811 0.0
C1109 C 0.43721 0.78249 0.11893 0.0
C1110 C 0.43997 0.76973 0.10081 0.0
C1111 C 0.42515 0.75632 0.09448 0.0
C1112 C 0.45835 0.76922 0.08864 0.0
C1113 C 0.4528 0.79678 0.12684 0.0
C1114 C 0.46531 0.78646 0.07731 0.0
C1115 C 0.48188 0.78516 0.06451 0.0
C1116 C 0.49161 0.76652 0.06265 0.0
C1117 C 0.48481 0.74947 0.07444 0.0
C1118 C 0.46839 0.75082 0.08726 0.0
H1119 H 0.45014 0.80198 0.14369 0.0
H1120 H 0.46709 0.78934 0.12637 0.0
H1121 H 0.45331 0.81043 0.11603 0.0
H1122 H 0.45762 0.80074 0.07781 0.0
H1123 H 0.48666 0.79853 0.05552 0.0
H1124 H 0.74531 0.20032 0.34441 0.0
H1125 H 0.73941 0.17315 0.37128 0.0
H1126 H 0.80054 0.16608 0.38055 0.0
H1127 H 0.80659 0.19293 0.35358 0.0
H1128 H 0.75203 0.13194 0.37145 0.0
H1129 H 0.78038 0.17409 0.44265 0.0
H1130 H 0.77421 0.18658 0.41723 0.0
H1131 H 0.79679 0.17359 0.42024 0.0
C1132 C 0.75751 0.1929 0.35206 0.0
C1133 C 0.77644 0.19894 0.34692 0.0
C1134 C 0.75409 0.17744 0.36748 0.0
C1135 C 0.76952 0.16785 0.37817 0.0
C1136 C 0.78841 0.17362 0.37286 0.0
H1137 H 0.79568 0.07193 0.46669 0.0
H1138 H 0.79393 0.10013 0.44072 0.0
C1139 C 0.79184 0.18901 0.35746 0.0
C1140 C 0.76605 0.15155 0.39464 0.0
H1141 H 0.77611 0.13813 0.4473 0.0
C1142 C 0.75703 0.13335 0.38813 0.0
C1143 C 0.77248 0.15351 0.41641 0.0
C1144 C 0.78134 0.17307 0.42465 0.0
C1145 C 0.75521 0.11664 0.40254 0.0
C1146 C 0.76237 0.11835 0.42406 0.0
C1147 C 0.77071 0.13683 0.43076 0.0
C1148 C 0.76285 0.10073 0.4394 0.0
C1149 C 0.74648 0.09699 0.39439 0.0
C1150 C 0.74589 0.09163 0.44733 0.0
C1151 C 0.74681 0.07535 0.4623 0.0
C1152 C 0.76473 0.06799 0.4696 0.0
C1153 C 0.78162 0.07716 0.46148 0.0
C1154 C 0.78067 0.09334 0.44662 0.0
H1155 H 0.74469 0.09708 0.37641 0.0
H1156 H 0.75556 0.08382 0.39923 0.0
H1157 H 0.7321 0.09473 0.40179 0.0
H1158 H 0.73197 0.09731 0.44219 0.0
H1159 H 0.73354 0.06869 0.46829 0.0
H1160 H 0.3532 0.22851 0.84138 0.0
H1161 H 0.37933 0.22981 0.86819 0.0
H1162 H 0.38009 0.29547 0.86363 0.0
H1163 H 0.35403 0.29432 0.83664 0.0
H1164 H 0.41618 0.24621 0.86319 0.0
H1165 H 0.37725 0.28497 0.9293 0.0
H1166 H 0.365 0.27357 0.9064 0.0
H1167 H 0.37636 0.29817 0.90357 0.0
C1168 C 0.35895 0.24325 0.846 0.0
C1169 C 0.35149 0.26132 0.83681 0.0
C1170 C 0.37384 0.24395 0.86142 0.0
C1171 C 0.38151 0.26273 0.86812 0.0
C1172 C 0.37411 0.28081 0.85905 0.0
H1173 H 0.47373 0.30187 0.95323 0.0
H1174 H 0.44711 0.29883 0.92733 0.0
C1175 C 0.3592 0.28013 0.84362 0.0
C1176 C 0.39769 0.26331 0.88406 0.0
H1177 H 0.41102 0.28142 0.93391 0.0
C1178 C 0.41503 0.25379 0.87872 0.0
C1179 C 0.39615 0.2732 0.90432 0.0
C1180 C 0.37764 0.28291 0.91139 0.0
C1181 C 0.43104 0.25434 0.89283 0.0
C1182 C 0.42955 0.26438 0.913 0.0
C1183 C 0.41215 0.27375 0.91842 0.0
C1184 C 0.44601 0.26587 0.9285 0.0
C1185 C 0.44957 0.24469 0.88574 0.0
C1186 C 0.45423 0.24831 0.93789 0.0
C1187 C 0.46956 0.24998 0.95273 0.0
C1188 C 0.47687 0.26925 0.95855 0.0
C1189 C 0.46853 0.28677 0.94912 0.0
C1190 C 0.45326 0.28508 0.93432 0.0
H1191 H 0.44975 0.24204 0.86792 0.0
H1192 H 0.46214 0.2544 0.89014 0.0
H1193 H 0.45122 0.22973 0.89411 0.0
H1194 H 0.44863 0.23333 0.93395 0.0
H1195 H 0.47554 0.23619 0.95978 0.0
H1196 H 0.23033 0.85407 0.32453 0.0
H1197 H 0.22505 0.87913 0.35324 0.0
H1198 H 0.286 0.88104 0.3666 0.0
H1199 H 0.29139 0.85593 0.33829 0.0
H1200 H 0.23596 0.8782 0.39917 0.0
H1201 H 0.27138 0.94121 0.35336 0.0
H1202 H 0.2633 0.91798 0.34055 0.0
H1203 H 0.28556 0.91849 0.35561 0.0
C1204 C 0.24258 0.85966 0.33375 0.0
C1205 C 0.26132 0.85318 0.32891 0.0
C1206 C 0.23954 0.87403 0.35007 0.0
C1207 C 0.25518 0.8822 0.36173 0.0
C1208 C 0.27378 0.87525 0.35745 0.0
H1209 H 0.28355 0.96633 0.4614 0.0
H1210 H 0.28145 0.94123 0.43253 0.0
C1211 C 0.27683 0.86093 0.34122 0.0
C1212 C 0.25231 0.8982 0.37825 0.0
H1213 H 0.26574 0.94684 0.39099 0.0
C1214 C 0.24222 0.89331 0.39733 0.0
C1215 C 0.26043 0.91792 0.3757 0.0
C1216 C 0.27063 0.92434 0.35512 0.0
C1217 C 0.24091 0.90732 0.41443 0.0
C1218 C 0.24966 0.92678 0.41217 0.0
C1219 C 0.25912 0.93188 0.39274 0.0
C1220 C 0.25039 0.94165 0.43021 0.0
C1221 C 0.23095 0.90088 0.43514 0.0
C1222 C 0.23358 0.95033 0.43851 0.0
C1223 C 0.23472 0.96476 0.45515 0.0
C1224 C 0.2527 0.97083 0.46368 0.0
C1225 C 0.26945 0.96207 0.45526 0.0
C1226 C 0.2683 0.94769 0.43872 0.0
H1227 H 0.2283 0.88416 0.43588 0.0
H1228 H 0.23962 0.90536 0.44959 0.0
H1229 H 0.21686 0.90865 0.43606 0.0
H1230 H 0.21963 0.94615 0.43191 0.0
H1231 H 0.22155 0.97127 0.4612 0.0
H1232 H 0.67117 0.79211 0.8279 0.0
H1233 H 0.64653 0.79207 0.85603 0.0
H1234 H 0.68102 0.75159 0.89563 0.0
H1235 H 0.70606 0.75198 0.86776 0.0
H1236 H 0.62589 0.75907 0.87274 0.0
H1237 H 0.66794 0.79778 0.93766 0.0
H1238 H 0.67534 0.79791 0.90955 0.0
H1239 H 0.6794 0.77582 0.92647 0.0
C1240 C 0.67367 0.7834 0.84272 0.0
C1241 C 0.6907 0.77219 0.84565 0.0
C1242 C 0.6595 0.7833 0.85872 0.0
C1243 C 0.66205 0.77209 0.87807 0.0
C1244 C 0.67891 0.76066 0.88099 0.0
H1245 H 0.5759 0.73306 0.97007 0.0
H1246 H 0.60064 0.73609 0.94229 0.0
C1247 C 0.69311 0.76072 0.86495 0.0
C1248 C 0.64677 0.77193 0.89483 0.0
H1249 H 0.63761 0.78374 0.94776 0.0
C1250 C 0.62844 0.76453 0.88912 0.0
C1251 C 0.65004 0.77933 0.9161 0.0
C1252 C 0.66918 0.78834 0.92283 0.0
C1253 C 0.6134 0.76389 0.90425 0.0
C1254 C 0.61685 0.77063 0.92573 0.0
C1255 C 0.63505 0.77847 0.93132 0.0
C1256 C 0.60188 0.76904 0.94275 0.0
C1257 C 0.59389 0.75614 0.89708 0.0
C1258 C 0.59461 0.78659 0.95259 0.0
C1259 C 0.5804 0.78494 0.96859 0.0
C1260 C 0.57336 0.76568 0.97515 0.0
C1261 C 0.5809 0.74816 0.96539 0.0
C1262 C 0.595 0.74984 0.94941 0.0
H1263 H 0.59225 0.75658 0.87908 0.0
H1264 H 0.59209 0.74007 0.9026 0.0
H1265 H 0.58222 0.76524 0.90434 0.0
H1266 H 0.59983 0.80156 0.94775 0.0
H1267 H 0.57497 0.79872 0.97583 0.0
loop_
_geom_bond_atom_site_label_1
_geom_bond_atom_site_label_2
_geom_bond_distance
_geom_bond_site_symmetry_2
_ccdc_geom_bond_type
C0 C1 1.264 . S
C0 C5 1.479 . S
C0 C10 1.465 . S
C1 C0 1.264 . S
C1 C3 1.339 . S
C1 H28 0.931 . S
C2 C3 1.395 . S
C2 C4 1.320 . S
C3 C1 1.339 . S
C3 C2 1.395 . S
C3 H29 0.929 . S
C4 C2 1.320 . S
C4 C5 1.405 . S
C4 H30 0.930 . S
C5 C0 1.479 . S
C5 C4 1.405 . S
C5 H31 0.931 . S
U6 O7 2.454 . S
U6 O8 2.458 . S
U6 C9 2.984 . S
U6 C10 2.847 . S
U6 C23 2.882 . S
U6 O24 2.441 . S
U6 O25 2.420 . S
U6 O26 2.455 . S
U6 O27 2.449 . S
O7 U6 2.454 . S
O7 C9 1.353 . S
O8 U6 2.458 . S
O8 C9 1.286 . S
C9 U6 2.984 . S
C9 O7 1.353 . S
C9 O8 1.286 . S
C9 C11 1.363 . S
C10 C0 1.465 . S
C10 U6 2.847 . S
C10 O24 1.249 . S
C10 O25 1.202 . S
C11 C9 1.363 . S
C11 C13 1.408 . S
C11 C16 1.342 . S
C12 C13 1.310 . S
C12 C15 1.461 . S
C12 H32 0.932 . S
C13 C11 1.408 . S
C13 C12 1.310 . S
C13 H33 0.930 . S
C14 C15 1.474 . S
C14 C16 1.285 . S
C14 H34 0.929 . S
C15 C12 1.461 . S
C15 C14 1.474 . S
C16 C11 1.342 . S
C16 C14 1.285 . S
C16 H35 0.930 . S
C17 C20 1.424 . S
C17 C22 1.245 . S
C17 C23 1.428 . S
C18 C21 1.260 . S
C18 C22 1.477 . S
C18 H36 0.932 . S
C19 C20 1.384 . S
C19 C21 1.479 . S
C19 H37 0.929 . S
C20 C17 1.424 . S
C20 C19 1.384 . S
C20 H38 0.928 . S
C21 C18 1.260 . S
C21 C19 1.479 . S
C22 C17 1.245 . S
C22 C18 1.477 . S
C22 H39 0.932 . S
C23 U6 2.882 . S
C23 C17 1.428 . S
C23 O26 1.301 . S
C23 O27 1.282 . S
O24 U6 2.441 . S
O24 C10 1.249 . S
O25 U6 2.420 . S
O25 C10 1.202 . S
O26 U6 2.455 . S
O26 C23 1.301 . S
O27 U6 2.449 . S
O27 C23 1.282 . S
H28 C1 0.931 . S
H29 C3 0.929 . S
H30 C4 0.930 . S
H31 C5 0.931 . S
H32 C12 0.932 . S
H33 C13 0.930 . S
H34 C14 0.929 . S
H35 C16 0.930 . S
H36 C18 0.932 . S
H37 C19 0.929 . S
H38 C20 0.928 . S
H39 C22 0.932 . S
C40 C41 1.264 . S
C40 C45 1.479 . S
C40 C50 1.465 . S
C41 C40 1.264 . S
C41 C43 1.339 . S
C41 H68 0.931 . S
C42 C43 1.395 . S
C42 C44 1.320 . S
C43 C41 1.339 . S
C43 C42 1.395 . S
C43 H69 0.929 . S
C44 C42 1.320 . S
C44 C45 1.405 . S
C44 H70 0.930 . S
C45 C40 1.479 . S
C45 C44 1.405 . S
C45 H71 0.931 . S
U46 O47 2.454 . S
U46 O48 2.458 . S
U46 C49 2.984 . S
U46 C50 2.847 . S
U46 C63 2.882 . S
U46 O64 2.441 . S
U46 O65 2.420 . S
U46 O66 2.455 . S
U46 O67 2.449 . S
O47 U46 2.454 . S
O47 C49 1.353 . S
O48 U46 2.458 . S
O48 C49 1.286 . S
C49 U46 2.984 . S
C49 O47 1.353 . S
C49 O48 1.286 . S
C49 C51 1.363 . S
C50 C40 1.465 . S
C50 U46 2.847 . S
C50 O64 1.249 . S
C50 O65 1.202 . S
C51 C49 1.363 . S
C51 C53 1.408 . S
C51 C56 1.342 . S
C52 C53 1.310 . S
C52 C55 1.461 . S
C52 H72 0.932 . S
C53 C51 1.408 . S
C53 C52 1.310 . S
C53 H73 0.930 . S
C54 C55 1.474 . S
C54 C56 1.285 . S
C54 H74 0.929 . S
C55 C52 1.461 . S
C55 C54 1.474 . S
C56 C51 1.342 . S
C56 C54 1.285 . S
C56 H75 0.930 . S
C57 C60 1.424 . S
C57 C62 1.245 . S
C57 C63 1.428 . S
C58 C61 1.260 . S
C58 C62 1.477 . S
C58 H76 0.932 . S
C59 C60 1.384 . S
C59 C61 1.479 . S
C59 H77 0.929 . S
C60 C57 1.424 . S
C60 C59 1.384 . S
C60 H78 0.928 . S
C61 C58 1.260 . S
C61 C59 1.479 . S
C62 C57 1.245 . S
C62 C58 1.477 . S
C62 H79 0.932 . S
C63 U46 2.882 . S
C63 C57 1.428 . S
C63 O66 1.301 . S
C63 O67 1.282 . S
O64 U46 2.441 . S
O64 C50 1.249 . S
O65 U46 2.420 . S
O65 C50 1.202 . S
O66 U46 2.455 . S
O66 C63 1.301 . S
O67 U46 2.449 . S
O67 C63 1.282 . S
H68 C41 0.931 . S
H69 C43 0.929 . S
H70 C44 0.930 . S
H71 C45 0.931 . S
H72 C52 0.932 . S
H73 C53 0.930 . S
H74 C54 0.929 . S
H75 C56 0.930 . S
H76 C58 0.932 . S
H77 C59 0.929 . S
H78 C60 0.928 . S
H79 C62 0.932 . S
C80 C81 1.264 . S
C80 C85 1.479 . S
C80 C90 1.465 . S
C81 C80 1.264 . S
C81 C83 1.339 . S
C81 H108 0.931 . S
C82 C83 1.395 . S
C82 C84 1.320 . S
C83 C81 1.339 . S
C83 C82 1.395 . S
C83 H109 0.929 . S
C84 C82 1.320 . S
C84 C85 1.405 . S
C84 H110 0.930 . S
C85 C80 1.479 . S
C85 C84 1.405 . S
C85 H111 0.931 . S
U86 O87 2.454 . S
U86 O88 2.458 . S
U86 C89 2.984 . S
U86 C90 2.847 . S
U86 C103 2.882 . S
U86 O104 2.441 . S
U86 O105 2.420 . S
U86 O106 2.455 . S
U86 O107 2.449 . S
O87 U86 2.454 . S
O87 C89 1.353 . S
O88 U86 2.458 . S
O88 C89 1.286 . S
C89 U86 2.984 . S
C89 O87 1.353 . S
C89 O88 1.286 . S
C89 C91 1.363 . S
C90 C80 1.465 . S
C90 U86 2.847 . S
C90 O104 1.249 . S
C90 O105 1.202 . S
C91 C89 1.363 . S
C91 C93 1.408 . S
C91 C96 1.342 . S
C92 C93 1.310 . S
C92 C95 1.461 . S
C92 H112 0.932 . S
C93 C91 1.408 . S
C93 C92 1.310 . S
C93 H113 0.930 . S
C94 C95 1.474 . S
C94 C96 1.285 . S
C94 H114 0.929 . S
C95 C92 1.461 . S
C95 C94 1.474 . S
C96 C91 1.342 . S
C96 C94 1.285 . S
C96 H115 0.930 . S
C97 C100 1.424 . S
C97 C102 1.245 . S
C97 C103 1.428 . S
C98 C101 1.260 . S
C98 C102 1.477 . S
C98 H116 0.932 . S
C99 C100 1.384 . S
C99 C101 1.479 . S
C99 H117 0.929 . S
C100 C97 1.424 . S
C100 C99 1.384 . S
C100 H118 0.928 . S
C101 C98 1.260 . S
C101 C99 1.479 . S
C102 C97 1.245 . S
C102 C98 1.477 . S
C102 H119 0.932 . S
C103 U86 2.882 . S
C103 C97 1.428 . S
C103 O106 1.301 . S
C103 O107 1.282 . S
O104 U86 2.441 . S
O104 C90 1.249 . S
O105 U86 2.420 . S
O105 C90 1.202 . S
O106 U86 2.455 . S
O106 C103 1.301 . S
O107 U86 2.449 . S
O107 C103 1.282 . S
H108 C81 0.931 . S
H109 C83 0.929 . S
H110 C84 0.930 . S
H111 C85 0.931 . S
H112 C92 0.932 . S
H113 C93 0.930 . S
H114 C94 0.929 . S
H115 C96 0.930 . S
H116 C98 0.932 . S
H117 C99 0.929 . S
H118 C100 0.928 . S
H119 C102 0.932 . S
C120 C121 1.264 . S
C120 C125 1.479 . S
C120 C130 1.465 . S
C121 C120 1.264 . S
C121 C123 1.339 . S
C121 H148 0.931 . S
C122 C123 1.395 . S
C122 C124 1.320 . S
C123 C121 1.339 . S
C123 C122 1.395 . S
C123 H149 0.929 . S
C124 C122 1.320 . S
C124 C125 1.405 . S
C124 H150 0.930 . S
C125 C120 1.479 . S
C125 C124 1.405 . S
C125 H151 0.931 . S
U126 O127 2.454 . S
U126 O128 2.458 . S
U126 C129 2.984 . S
U126 C130 2.847 . S
U126 C143 2.882 . S
U126 O144 2.441 . S
U126 O145 2.420 . S
U126 O146 2.455 . S
U126 O147 2.449 . S
O127 U126 2.454 . S
O127 C129 1.353 . S
O128 U126 2.458 . S
O128 C129 1.286 . S
C129 U126 2.984 . S
C129 O127 1.353 . S
C129 O128 1.286 . S
C129 C131 1.363 . S
C130 C120 1.465 . S
C130 U126 2.847 . S
C130 O144 1.249 . S
C130 O145 1.202 . S
C131 C129 1.363 . S
C131 C133 1.408 . S
C131 C136 1.342 . S
C132 C133 1.310 . S
C132 C135 1.461 . S
C132 H152 0.932 . S
C133 C131 1.408 . S
C133 C132 1.310 . S
C133 H153 0.930 . S
C134 C135 1.474 . S
C134 C136 1.285 . S
C134 H154 0.929 . S
C135 C132 1.461 . S
C135 C134 1.474 . S
C136 C131 1.342 . S
C136 C134 1.285 . S
C136 H155 0.930 . S
C137 C140 1.424 . S
C137 C142 1.245 . S
C137 C143 1.428 . S
C138 C141 1.260 . S
C138 C142 1.477 . S
C138 H156 0.932 . S
C139 C140 1.384 . S
C139 C141 1.479 . S
C139 H157 0.929 . S
C140 C137 1.424 . S
C140 C139 1.384 . S
C140 H158 0.928 . S
C141 C138 1.260 . S
C141 C139 1.479 . S
C142 C137 1.245 . S
C142 C138 1.477 . S
C142 H159 0.932 . S
C143 U126 2.882 . S
C143 C137 1.428 . S
C143 O146 1.301 . S
C143 O147 1.282 . S
O144 U126 2.441 . S
O144 C130 1.249 . S
O145 U126 2.420 . S
O145 C130 1.202 . S
O146 U126 2.455 . S
O146 C143 1.301 . S
O147 U126 2.449 . S
O147 C143 1.282 . S
H148 C121 0.931 . S
H149 C123 0.929 . S
H150 C124 0.930 . S
H151 C125 0.931 . S
H152 C132 0.932 . S
H153 C133 0.930 . S
H154 C134 0.929 . S
H155 C136 0.930 . S
H156 C138 0.932 . S
H157 C139 0.929 . S
H158 C140 0.928 . S
H159 C142 0.932 . S
C160 C161 1.264 . S
C160 C165 1.479 . S
C160 C170 1.465 . S
C161 C160 1.264 . S
C161 C163 1.339 . S
C161 H188 0.931 . S
C162 C163 1.395 . S
C162 C164 1.320 . S
C163 C161 1.339 . S
C163 C162 1.395 . S
C163 H189 0.929 . S
C164 C162 1.320 . S
C164 C165 1.405 . S
C164 H190 0.930 . S
C165 C160 1.479 . S
C165 C164 1.405 . S
C165 H191 0.931 . S
U166 O167 2.454 . S
U166 O168 2.458 . S
U166 C169 2.984 . S
U166 C170 2.847 . S
U166 C183 2.882 . S
U166 O184 2.441 . S
U166 O185 2.420 . S
U166 O186 2.455 . S
U166 O187 2.449 . S
O167 U166 2.454 . S
O167 C169 1.353 . S
O168 U166 2.458 . S
O168 C169 1.286 . S
C169 U166 2.984 . S
C169 O167 1.353 . S
C169 O168 1.286 . S
C169 C171 1.363 . S
C170 C160 1.465 . S
C170 U166 2.847 . S
C170 O184 1.249 . S
C170 O185 1.202 . S
C171 C169 1.363 . S
C171 C173 1.408 . S
C171 C176 1.342 . S
C172 C173 1.310 . S
C172 C175 1.461 . S
C172 H192 0.932 . S
C173 C171 1.408 . S
C173 C172 1.310 . S
C173 H193 0.930 . S
C174 C175 1.474 . S
C174 C176 1.285 . S
C174 H194 0.929 . S
C175 C172 1.461 . S
C175 C174 1.474 . S
C176 C171 1.342 . S
C176 C174 1.285 . S
C176 H195 0.930 . S
C177 C180 1.424 . S
C177 C182 1.245 . S
C177 C183 1.428 . S
C178 C181 1.260 . S
C178 C182 1.477 . S
C178 H196 0.932 . S
C179 C180 1.384 . S
C179 C181 1.479 . S
C179 H197 0.929 . S
C180 C177 1.424 . S
C180 C179 1.384 . S
C180 H198 0.928 . S
C181 C178 1.260 . S
C181 C179 1.479 . S
C182 C177 1.245 . S
C182 C178 1.477 . S
C182 H199 0.932 . S
C183 U166 2.882 . S
C183 C177 1.428 . S
C183 O186 1.301 . S
C183 O187 1.282 . S
O184 U166 2.441 . S
O184 C170 1.249 . S
O185 U166 2.420 . S
O185 C170 1.202 . S
O186 U166 2.455 . S
O186 C183 1.301 . S
O187 U166 2.449 . S
O187 C183 1.282 . S
H188 C161 0.931 . S
H189 C163 0.929 . S
H190 C164 0.930 . S
H191 C165 0.931 . S
H192 C172 0.932 . S
H193 C173 0.930 . S
H194 C174 0.929 . S
H195 C176 0.930 . S
H196 C178 0.932 . S
H197 C179 0.929 . S
H198 C180 0.928 . S
H199 C182 0.932 . S
C200 C201 1.264 . S
C200 C205 1.479 . S
C200 C210 1.465 . S
C201 C200 1.264 . S
C201 C203 1.339 . S
C201 H228 0.931 . S
C202 C203 1.395 . S
C202 C204 1.320 . S
C203 C201 1.339 . S
C203 C202 1.395 . S
C203 H229 0.929 . S
C204 C202 1.320 . S
C204 C205 1.405 . S
C204 H230 0.930 . S
C205 C200 1.479 . S
C205 C204 1.405 . S
C205 H231 0.931 . S
U206 O207 2.454 . S
U206 O208 2.458 . S
U206 C209 2.984 . S
U206 C210 2.847 . S
U206 C223 2.882 . S
U206 O224 2.441 . S
U206 O225 2.420 . S
U206 O226 2.455 . S
U206 O227 2.449 . S
O207 U206 2.454 . S
O207 C209 1.353 . S
O208 U206 2.458 . S
O208 C209 1.286 . S
C209 U206 2.984 . S
C209 O207 1.353 . S
C209 O208 1.286 . S
C209 C211 1.363 . S
C210 C200 1.465 . S
C210 U206 2.847 . S
C210 O224 1.249 . S
C210 O225 1.202 . S
C211 C209 1.363 . S
C211 C213 1.408 . S
C211 C216 1.342 . S
C212 C213 1.310 . S
C212 C215 1.461 . S
C212 H232 0.932 . S
C213 C211 1.408 . S
C213 C212 1.310 . S
C213 H233 0.930 . S
C214 C215 1.474 . S
C214 C216 1.285 . S
C214 H234 0.929 . S
C215 C212 1.461 . S
C215 C214 1.474 . S
C216 C211 1.342 . S
C216 C214 1.285 . S
C216 H235 0.930 . S
C217 C220 1.424 . S
C217 C222 1.245 . S
C217 C223 1.428 . S
C218 C221 1.260 . S
C218 C222 1.477 . S
C218 H236 0.932 . S
C219 C220 1.384 . S
C219 C221 1.479 . S
C219 H237 0.929 . S
C220 C217 1.424 . S
C220 C219 1.384 . S
C220 H238 0.928 . S
C221 C218 1.260 . S
C221 C219 1.479 . S
C222 C217 1.245 . S
C222 C218 1.477 . S
C222 H239 0.932 . S
C223 U206 2.882 . S
C223 C217 1.428 . S
C223 O226 1.301 . S
C223 O227 1.282 . S
O224 U206 2.441 . S
O224 C210 1.249 . S
O225 U206 2.420 . S
O225 C210 1.202 . S
O226 U206 2.455 . S
O226 C223 1.301 . S
O227 U206 2.449 . S
O227 C223 1.282 . S
H228 C201 0.931 . S
H229 C203 0.929 . S
H230 C204 0.930 . S
H231 C205 0.931 . S
H232 C212 0.932 . S
H233 C213 0.930 . S
H234 C214 0.929 . S
H235 C216 0.930 . S
H236 C218 0.932 . S
H237 C219 0.929 . S
H238 C220 0.928 . S
H239 C222 0.932 . S
C240 C241 1.264 . S
C240 C245 1.479 . S
C240 C250 1.465 . S
C241 C240 1.264 . S
C241 C243 1.339 . S
C241 H268 0.931 . S
C242 C243 1.395 . S
C242 C244 1.320 . S
C243 C241 1.339 . S
C243 C242 1.395 . S
C243 H269 0.929 . S
C244 C242 1.320 . S
C244 C245 1.405 . S
C244 H270 0.930 . S
C245 C240 1.479 . S
C245 C244 1.405 . S
C245 H271 0.931 . S
U246 O247 2.454 . S
U246 O248 2.458 . S
U246 C249 2.984 . S
U246 C250 2.847 . S
U246 C263 2.882 . S
U246 O264 2.441 . S
U246 O265 2.420 . S
U246 O266 2.455 . S
U246 O267 2.449 . S
O247 U246 2.454 . S
O247 C249 1.353 . S
O248 U246 2.458 . S
O248 C249 1.286 . S
C249 U246 2.984 . S
C249 O247 1.353 . S
C249 O248 1.286 . S
C249 C251 1.363 . S
C250 C240 1.465 . S
C250 U246 2.847 . S
C250 O264 1.249 . S
C250 O265 1.202 . S
C251 C249 1.363 . S
C251 C253 1.408 . S
C251 C256 1.342 . S
C252 C253 1.310 . S
C252 C255 1.461 . S
C252 H272 0.932 . S
C253 C251 1.408 . S
C253 C252 1.310 . S
C253 H273 0.930 . S
C254 C255 1.474 . S
C254 C256 1.285 . S
C254 H274 0.929 . S
C255 C252 1.461 . S
C255 C254 1.474 . S
C256 C251 1.342 . S
C256 C254 1.285 . S
C256 H275 0.930 . S
C257 C260 1.424 . S
C257 C262 1.245 . S
C257 C263 1.428 . S
C258 C261 1.260 . S
C258 C262 1.477 . S
C258 H276 0.932 . S
C259 C260 1.384 . S
C259 C261 1.479 . S
C259 H277 0.929 . S
C260 C257 1.424 . S
C260 C259 1.384 . S
C260 H278 0.928 . S
C261 C258 1.260 . S
C261 C259 1.479 . S
C262 C257 1.245 . S
C262 C258 1.477 . S
C262 H279 0.932 . S
C263 U246 2.882 . S
C263 C257 1.428 . S
C263 O266 1.301 . S
C263 O267 1.282 . S
O264 U246 2.441 . S
O264 C250 1.249 . S
O265 U246 2.420 . S
O265 C250 1.202 . S
O266 U246 2.455 . S
O266 C263 1.301 . S
O267 U246 2.449 . S
O267 C263 1.282 . S
H268 C241 0.931 . S
H269 C243 0.929 . S
H270 C244 0.930 . S
H271 C245 0.931 . S
H272 C252 0.932 . S
H273 C253 0.930 . S
H274 C254 0.929 . S
H275 C256 0.930 . S
H276 C258 0.932 . S
H277 C259 0.929 . S
H278 C260 0.928 . S
H279 C262 0.932 . S
C280 C281 1.264 . S
C280 C285 1.479 . S
C280 C290 1.465 . S
C281 C280 1.264 . S
C281 C283 1.339 . S
C281 H308 0.931 . S
C282 C283 1.395 . S
C282 C284 1.320 . S
C283 C281 1.339 . S
C283 C282 1.395 . S
C283 H309 0.929 . S
C284 C282 1.320 . S
C284 C285 1.405 . S
C284 H310 0.930 . S
C285 C280 1.479 . S
C285 C284 1.405 . S
C285 H311 0.931 . S
U286 O287 2.454 . S
U286 O288 2.458 . S
U286 C289 2.984 . S
U286 C290 2.847 . S
U286 C303 2.882 . S
U286 O304 2.441 . S
U286 O305 2.420 . S
U286 O306 2.455 . S
U286 O307 2.449 . S
O287 U286 2.454 . S
O287 C289 1.353 . S
O288 U286 2.458 . S
O288 C289 1.286 . S
C289 U286 2.984 . S
C289 O287 1.353 . S
C289 O288 1.286 . S
C289 C291 1.363 . S
C290 C280 1.465 . S
C290 U286 2.847 . S
C290 O304 1.249 . S
C290 O305 1.202 . S
C291 C289 1.363 . S
C291 C293 1.408 . S
C291 C296 1.342 . S
C292 C293 1.310 . S
C292 C295 1.461 . S
C292 H312 0.932 . S
C293 C291 1.408 . S
C293 C292 1.310 . S
C293 H313 0.930 . S
C294 C295 1.474 . S
C294 C296 1.285 . S
C294 H314 0.929 . S
C295 C292 1.461 . S
C295 C294 1.474 . S
C296 C291 1.342 . S
C296 C294 1.285 . S
C296 H315 0.930 . S
C297 C300 1.424 . S
C297 C302 1.245 . S
C297 C303 1.428 . S
C298 C301 1.260 . S
C298 C302 1.477 . S
C298 H316 0.932 . S
C299 C300 1.384 . S
C299 C301 1.479 . S
C299 H317 0.929 . S
C300 C297 1.424 . S
C300 C299 1.384 . S
C300 H318 0.928 . S
C301 C298 1.260 . S
C301 C299 1.479 . S
C302 C297 1.245 . S
C302 C298 1.477 . S
C302 H319 0.932 . S
C303 U286 2.882 . S
C303 C297 1.428 . S
C303 O306 1.301 . S
C303 O307 1.282 . S
O304 U286 2.441 . S
O304 C290 1.249 . S
O305 U286 2.420 . S
O305 C290 1.202 . S
O306 U286 2.455 . S
O306 C303 1.301 . S
O307 U286 2.449 . S
O307 C303 1.282 . S
H308 C281 0.931 . S
H309 C283 0.929 . S
H310 C284 0.930 . S
H311 C285 0.931 . S
H312 C292 0.932 . S
H313 C293 0.930 . S
H314 C294 0.929 . S
H315 C296 0.930 . S
H316 C298 0.932 . S
H317 C299 0.929 . S
H318 C300 0.928 . S
H319 C302 0.932 . S
C320 O322 1.247 . S
C320 O324 1.258 . S
C321 O328 1.247 . S
C321 O329 1.258 . S
O322 C320 1.247 . S
O322 Zn323 2.028 1_655 S
Zn323 O322 2.028 1_455 S
Zn323 O327 2.035 . S
Zn323 O329 2.035 . S
Zn323 O330 2.028 1_455 S
O324 C320 1.258 . S
O324 Zn325 2.035 1_655 S
Zn325 O324 2.035 1_455 S
Zn325 O326 2.028 . S
Zn325 O328 2.028 . S
Zn325 O331 2.035 1_455 S
O326 Zn325 2.028 . S
O326 C332 1.247 . S
O327 Zn323 2.035 . S
O327 C332 1.258 . S
O328 C321 1.247 . S
O328 Zn325 2.028 . S
O329 C321 1.258 . S
O329 Zn323 2.035 . S
O330 Zn323 2.028 1_655 S
O330 C333 1.247 . S
O331 Zn325 2.035 1_655 S
O331 C333 1.258 . S
C332 O326 1.247 . S
C332 O327 1.258 . S
C333 O330 1.247 . S
C333 O331 1.258 . S
C334 O336 1.247 . S
C334 O338 1.258 . S
C335 O342 1.247 . S
C335 O343 1.258 . S
O336 C334 1.247 . S
O336 Zn337 2.028 1_655 S
Zn337 O336 2.028 1_455 S
Zn337 O341 2.035 . S
Zn337 O343 2.035 . S
Zn337 O344 2.028 1_455 S
O338 C334 1.258 . S
O338 Zn339 2.035 1_655 S
Zn339 O338 2.035 1_455 S
Zn339 O340 2.028 . S
Zn339 O342 2.028 . S
Zn339 O345 2.035 1_455 S
O340 Zn339 2.028 . S
O340 C346 1.247 . S
O341 Zn337 2.035 . S
O341 C346 1.258 . S
O342 C335 1.247 . S
O342 Zn339 2.028 . S
O343 C335 1.258 . S
O343 Zn337 2.035 . S
O344 Zn337 2.028 1_655 S
O344 C347 1.247 . S
O345 Zn339 2.035 1_655 S
O345 C347 1.258 . S
C346 O340 1.247 . S
C346 O341 1.258 . S
C347 O344 1.247 . S
C347 O345 1.258 . S
C348 O350 1.247 . S
C348 O352 1.258 . S
C349 O356 1.247 . S
C349 O357 1.258 . S
O350 C348 1.247 . S
O350 Zn351 2.028 1_565 S
Zn351 O350 2.028 1_545 S
Zn351 O355 2.035 . S
Zn351 O357 2.035 . S
Zn351 O358 2.028 1_545 S
O352 C348 1.258 . S
O352 Zn353 2.035 1_565 S
Zn353 O352 2.035 1_545 S
Zn353 O354 2.028 . S
Zn353 O356 2.028 . S
Zn353 O359 2.035 1_545 S
O354 Zn353 2.028 . S
O354 C360 1.247 . S
O355 Zn351 2.035 . S
O355 C360 1.258 . S
O356 C349 1.247 . S
O356 Zn353 2.028 . S
O357 C349 1.258 . S
O357 Zn351 2.035 . S
O358 Zn351 2.028 1_565 S
O358 C361 1.247 . S
O359 Zn353 2.035 1_565 S
O359 C361 1.258 . S
C360 O354 1.247 . S
C360 O355 1.258 . S
C361 O358 1.247 . S
C361 O359 1.258 . S
C362 O364 1.247 . S
C362 O366 1.258 . S
C363 O370 1.247 . S
C363 O371 1.258 . S
O364 C362 1.247 . S
O364 Zn365 2.028 . S
Zn365 O364 2.028 . S
Zn365 O369 2.035 . S
Zn365 O371 2.035 1_554 S
Zn365 O372 2.028 1_554 S
O366 C362 1.258 . S
O366 Zn367 2.035 . S
Zn367 O366 2.035 . S
Zn367 O368 2.028 . S
Zn367 O370 2.028 1_554 S
Zn367 O373 2.035 1_554 S
O368 Zn367 2.028 . S
O368 C374 1.247 . S
O369 Zn365 2.035 . S
O369 C374 1.258 . S
O370 C363 1.247 . S
O370 Zn367 2.028 1_556 S
O371 C363 1.258 . S
O371 Zn365 2.035 1_556 S
O372 Zn365 2.028 1_556 S
O372 C375 1.247 . S
O373 Zn367 2.035 1_556 S
O373 C375 1.258 . S
C374 O368 1.247 . S
C374 O369 1.258 . S
C375 O372 1.247 . S
C375 O373 1.258 . S
C376 O378 1.247 . S
C376 O380 1.258 . S
C377 O384 1.247 . S
C377 O385 1.258 . S
O378 C376 1.247 . S
O378 Zn379 2.033 . S
Zn379 O378 2.033 . S
Zn379 O383 2.030 1_565 S
Zn379 O385 2.030 1_565 S
Zn379 O386 2.033 . S
O380 C376 1.258 . S
O380 Zn381 2.019 1_565 S
Zn381 O380 2.019 1_545 S
Zn381 O382 2.044 . S
Zn381 O384 2.044 . S
Zn381 O387 2.019 1_545 S
O382 Zn381 2.044 . S
O382 C388 1.247 . S
O383 Zn379 2.030 1_545 S
O383 C388 1.258 . S
O384 C377 1.247 . S
O384 Zn381 2.044 . S
O385 C377 1.258 . S
O385 Zn379 2.030 1_545 S
O386 Zn379 2.033 . S
O386 C389 1.247 . S
O387 Zn381 2.019 1_565 S
O387 C389 1.258 . S
C388 O382 1.247 . S
C388 O383 1.258 . S
C389 O386 1.247 . S
C389 O387 1.258 . S
C390 O392 1.247 . S
C390 O394 1.258 . S
C391 O398 1.247 . S
C391 O399 1.258 . S
O392 C390 1.247 . S
O392 Zn393 2.028 . S
Zn393 O392 2.028 . S
Zn393 O397 2.035 . S
Zn393 O399 2.035 1_554 S
Zn393 O400 2.028 1_554 S
O394 C390 1.258 . S
O394 Zn395 2.053 . S
Zn395 O394 2.053 . S
Zn395 O396 2.046 . S
Zn395 O398 2.010 1_554 S
Zn395 O401 2.017 1_554 S
O396 Zn395 2.046 . S
O396 C402 1.247 . S
O397 Zn393 2.035 . S
O397 C402 1.258 . S
O398 C391 1.247 . S
O398 Zn395 2.010 1_556 S
O399 C391 1.258 . S
O399 Zn393 2.035 1_556 S
O400 Zn393 2.028 1_556 S
O400 C403 1.247 . S
O401 Zn395 2.017 1_556 S
O401 C403 1.258 . S
C402 O396 1.247 . S
C402 O397 1.258 . S
C403 O400 1.247 . S
C403 O401 1.258 . S
H404 C412 0.929 . S
H405 C414 0.930 . S
H406 C416 0.930 . S
H407 C419 0.929 . S
H408 C422 0.930 . S
H409 C424 0.960 . S
H410 C424 0.960 . S
H411 C424 0.960 . S
C412 H404 0.929 . S
C412 C413 1.377 . S
C412 C414 1.384 . S
C413 C412 1.377 . S
C413 C419 1.390 . S
C414 H405 0.930 . S
C414 C412 1.384 . S
C414 C415 1.372 . S
C415 C414 1.372 . S
C415 C416 1.400 . S
C415 C420 1.490 . S
C416 H406 0.930 . S
C416 C415 1.400 . S
C416 C419 1.386 . S
H417 C433 0.930 . S
H418 C434 0.931 . S
C419 H407 0.929 . S
C419 C413 1.390 . S
C419 C416 1.386 . S
C420 C415 1.490 . S
C420 C422 1.395 . S
C420 C423 1.403 . S
H421 C427 0.930 . S
C422 H408 0.930 . S
C422 C420 1.395 . S
C422 C425 1.403 . S
C423 C420 1.403 . S
C423 C424 1.524 . S
C423 C427 1.400 . S
C424 H409 0.960 . S
C424 H410 0.960 . S
C424 H411 0.960 . S
C424 C423 1.524 . S
C425 C422 1.403 . S
C425 C426 1.392 . S
C425 C429 1.495 . S
C426 C425 1.392 . S
C426 C427 1.385 . S
C426 C428 1.478 . S
C427 H421 0.930 . S
C427 C423 1.400 . S
C427 C426 1.385 . S
C428 C426 1.478 . S
C428 C430 1.381 . S
C428 C434 1.383 . S
C429 C425 1.495 . S
C429 H435 0.959 . S
C429 H436 0.961 . S
C429 H437 0.960 . S
C430 C428 1.381 . S
C430 C431 1.394 . S
C430 H438 0.930 . S
C431 C430 1.394 . S
C431 C432 1.383 . S
C431 H439 0.929 . S
C432 C431 1.383 . S
C432 C433 1.377 . S
C433 H417 0.930 . S
C433 C432 1.377 . S
C433 C434 1.379 . S
C434 H418 0.931 . S
C434 C428 1.383 . S
C434 C433 1.379 . S
H435 C429 0.959 . S
H436 C429 0.961 . S
H437 C429 0.960 . S
H438 C430 0.930 . S
H439 C431 0.929 . S
H440 C448 0.929 . S
H441 C450 0.930 . S
H442 C452 0.930 . S
H443 C455 0.929 . S
H444 C458 0.930 . S
H445 C460 0.960 . S
H446 C460 0.960 . S
H447 C460 0.960 . S
C448 H440 0.929 . S
C448 C449 1.377 . S
C448 C450 1.384 . S
C449 C448 1.377 . S
C449 C455 1.390 . S
C450 H441 0.930 . S
C450 C448 1.384 . S
C450 C451 1.372 . S
C451 C450 1.372 . S
C451 C452 1.400 . S
C451 C456 1.490 . S
C452 H442 0.930 . S
C452 C451 1.400 . S
C452 C455 1.386 . S
H453 C469 0.930 . S
H454 C470 0.931 . S
C455 H443 0.929 . S
C455 C449 1.390 . S
C455 C452 1.386 . S
C456 C451 1.490 . S
C456 C458 1.395 . S
C456 C459 1.403 . S
H457 C463 0.930 . S
C458 H444 0.930 . S
C458 C456 1.395 . S
C458 C461 1.403 . S
C459 C456 1.403 . S
C459 C460 1.524 . S
C459 C463 1.400 . S
C460 H445 0.960 . S
C460 H446 0.960 . S
C460 H447 0.960 . S
C460 C459 1.524 . S
C461 C458 1.403 . S
C461 C462 1.392 . S
C461 C465 1.495 . S
C462 C461 1.392 . S
C462 C463 1.385 . S
C462 C464 1.478 . S
C463 H457 0.930 . S
C463 C459 1.400 . S
C463 C462 1.385 . S
C464 C462 1.478 . S
C464 C466 1.381 . S
C464 C470 1.383 . S
C465 C461 1.495 . S
C465 H471 0.959 . S
C465 H472 0.961 . S
C465 H473 0.960 . S
C466 C464 1.381 . S
C466 C467 1.394 . S
C466 H474 0.930 . S
C467 C466 1.394 . S
C467 C468 1.383 . S
C467 H475 0.929 . S
C468 C467 1.383 . S
C468 C469 1.377 . S
C469 H453 0.930 . S
C469 C468 1.377 . S
C469 C470 1.379 . S
C470 H454 0.931 . S
C470 C464 1.383 . S
C470 C469 1.379 . S
H471 C465 0.959 . S
H472 C465 0.961 . S
H473 C465 0.960 . S
H474 C466 0.930 . S
H475 C467 0.929 . S
H476 C484 0.929 . S
H477 C486 0.930 . S
H478 C488 0.930 . S
H479 C491 0.929 . S
H480 C494 0.930 . S
H481 C496 0.960 . S
H482 C496 0.960 . S
H483 C496 0.960 . S
C484 H476 0.929 . S
C484 C485 1.377 . S
C484 C486 1.384 . S
C485 C484 1.377 . S
C485 C491 1.390 . S
C486 H477 0.930 . S
C486 C484 1.384 . S
C486 C487 1.372 . S
C487 C486 1.372 . S
C487 C488 1.400 . S
C487 C492 1.490 . S
C488 H478 0.930 . S
C488 C487 1.400 . S
C488 C491 1.386 . S
H489 C505 0.930 . S
H490 C506 0.931 . S
C491 H479 0.929 . S
C491 C485 1.390 . S
C491 C488 1.386 . S
C492 C487 1.490 . S
C492 C494 1.395 . S
C492 C495 1.403 . S
H493 C499 0.930 . S
C494 H480 0.930 . S
C494 C492 1.395 . S
C494 C497 1.403 . S
C495 C492 1.403 . S
C495 C496 1.524 . S
C495 C499 1.400 . S
C496 H481 0.960 . S
C496 H482 0.960 . S
C496 H483 0.960 . S
C496 C495 1.524 . S
C497 C494 1.403 . S
C497 C498 1.392 . S
C497 C501 1.495 . S
C498 C497 1.392 . S
C498 C499 1.385 . S
C498 C500 1.478 . S
C499 H493 0.930 . S
C499 C495 1.400 . S
C499 C498 1.385 . S
C500 C498 1.478 . S
C500 C502 1.381 . S
C500 C506 1.383 . S
C501 C497 1.495 . S
C501 H507 0.959 . S
C501 H508 0.961 . S
C501 H509 0.960 . S
C502 C500 1.381 . S
C502 C503 1.394 . S
C502 H510 0.930 . S
C503 C502 1.394 . S
C503 C504 1.383 . S
C503 H511 0.929 . S
C504 C503 1.383 . S
C504 C505 1.377 . S
C505 H489 0.930 . S
C505 C504 1.377 . S
C505 C506 1.379 . S
C506 H490 0.931 . S
C506 C500 1.383 . S
C506 C505 1.379 . S
H507 C501 0.959 . S
H508 C501 0.961 . S
H509 C501 0.960 . S
H510 C502 0.930 . S
H511 C503 0.929 . S
H512 C520 0.929 . S
H513 C522 0.930 . S
H514 C524 0.930 . S
H515 C527 0.929 . S
H516 C530 0.930 . S
H517 C532 0.960 . S
H518 C532 0.960 . S
H519 C532 0.960 . S
C520 H512 0.929 . S
C520 C521 1.377 . S
C520 C522 1.384 . S
C521 C520 1.377 . S
C521 C527 1.390 . S
C522 H513 0.930 . S
C522 C520 1.384 . S
C522 C523 1.372 . S
C523 C522 1.372 . S
C523 C524 1.400 . S
C523 C528 1.490 . S
C524 H514 0.930 . S
C524 C523 1.400 . S
C524 C527 1.386 . S
H525 C541 0.930 . S
H526 C542 0.931 . S
C527 H515 0.929 . S
C527 C521 1.390 . S
C527 C524 1.386 . S
C528 C523 1.490 . S
C528 C530 1.395 . S
C528 C531 1.403 . S
H529 C535 0.930 . S
C530 H516 0.930 . S
C530 C528 1.395 . S
C530 C533 1.403 . S
C531 C528 1.403 . S
C531 C532 1.524 . S
C531 C535 1.400 . S
C532 H517 0.960 . S
C532 H518 0.960 . S
C532 H519 0.960 . S
C532 C531 1.524 . S
C533 C530 1.403 . S
C533 C534 1.392 . S
C533 C537 1.495 . S
C534 C533 1.392 . S
C534 C535 1.385 . S
C534 C536 1.478 . S
C535 H529 0.930 . S
C535 C531 1.400 . S
C535 C534 1.385 . S
C536 C534 1.478 . S
C536 C538 1.381 . S
C536 C542 1.383 . S
C537 C533 1.495 . S
C537 H543 0.959 . S
C537 H544 0.961 . S
C537 H545 0.960 . S
C538 C536 1.381 . S
C538 C539 1.394 . S
C538 H546 0.930 . S
C539 C538 1.394 . S
C539 C540 1.383 . S
C539 H547 0.929 . S
C540 C539 1.383 . S
C540 C541 1.377 . S
C541 H525 0.930 . S
C541 C540 1.377 . S
C541 C542 1.379 . S
C542 H526 0.931 . S
C542 C536 1.383 . S
C542 C541 1.379 . S
H543 C537 0.959 . S
H544 C537 0.961 . S
H545 C537 0.960 . S
H546 C538 0.930 . S
H547 C539 0.929 . S
H548 C556 0.929 . S
H549 C558 0.930 . S
H550 C560 0.930 . S
H551 C563 0.929 . S
H552 C566 0.930 . S
H553 C568 0.960 . S
H554 C568 0.960 . S
H555 C568 0.960 . S
C556 H548 0.929 . S
C556 C557 1.377 . S
C556 C558 1.384 . S
C557 C556 1.377 . S
C557 C563 1.390 . S
C558 H549 0.930 . S
C558 C556 1.384 . S
C558 C559 1.372 . S
C559 C558 1.372 . S
C559 C560 1.400 . S
C559 C564 1.490 . S
C560 H550 0.930 . S
C560 C559 1.400 . S
C560 C563 1.386 . S
H561 C577 0.930 . S
H562 C578 0.931 . S
C563 H551 0.929 . S
C563 C557 1.390 . S
C563 C560 1.386 . S
C564 C559 1.490 . S
C564 C566 1.395 . S
C564 C567 1.403 . S
H565 C571 0.930 . S
C566 H552 0.930 . S
C566 C564 1.395 . S
C566 C569 1.403 . S
C567 C564 1.403 . S
C567 C568 1.524 . S
C567 C571 1.400 . S
C568 H553 0.960 . S
C568 H554 0.960 . S
C568 H555 0.960 . S
C568 C567 1.524 . S
C569 C566 1.403 . S
C569 C570 1.392 . S
C569 C573 1.495 . S
C570 C569 1.392 . S
C570 C571 1.385 . S
C570 C572 1.478 . S
C571 H565 0.930 . S
C571 C567 1.400 . S
C571 C570 1.385 . S
C572 C570 1.478 . S
C572 C574 1.381 . S
C572 C578 1.383 . S
C573 C569 1.495 . S
C573 H579 0.959 . S
C573 H580 0.961 . S
C573 H581 0.960 . S
C574 C572 1.381 . S
C574 C575 1.394 . S
C574 H582 0.930 . S
C575 C574 1.394 . S
C575 C576 1.383 . S
C575 H583 0.929 . S
C576 C575 1.383 . S
C576 C577 1.377 . S
C577 H561 0.930 . S
C577 C576 1.377 . S
C577 C578 1.379 . S
C578 H562 0.931 . S
C578 C572 1.383 . S
C578 C577 1.379 . S
H579 C573 0.959 . S
H580 C573 0.961 . S
H581 C573 0.960 . S
H582 C574 0.930 . S
H583 C575 0.929 . S
H584 C592 0.929 . S
H585 C594 0.930 . S
H586 C596 0.930 . S
H587 C599 0.929 . S
H588 C602 0.930 . S
H589 C604 0.960 . S
H590 C604 0.960 . S
H591 C604 0.960 . S
C592 H584 0.929 . S
C592 C593 1.377 . S
C592 C594 1.384 . S
C593 C592 1.377 . S
C593 C599 1.390 . S
C594 H585 0.930 . S
C594 C592 1.384 . S
C594 C595 1.372 . S
C595 C594 1.372 . S
C595 C596 1.400 . S
C595 C600 1.490 . S
C596 H586 0.930 . S
C596 C595 1.400 . S
C596 C599 1.386 . S
H597 C613 0.930 . S
H598 C614 0.931 . S
C599 H587 0.929 . S
C599 C593 1.390 . S
C599 C596 1.386 . S
C600 C595 1.490 . S
C600 C602 1.395 . S
C600 C603 1.403 . S
H601 C607 0.930 . S
C602 H588 0.930 . S
C602 C600 1.395 . S
C602 C605 1.403 . S
C603 C600 1.403 . S
C603 C604 1.524 . S
C603 C607 1.400 . S
C604 H589 0.960 . S
C604 H590 0.960 . S
C604 H591 0.960 . S
C604 C603 1.524 . S
C605 C602 1.403 . S
C605 C606 1.392 . S
C605 C609 1.495 . S
C606 C605 1.392 . S
C606 C607 1.385 . S
C606 C608 1.478 . S
C607 H601 0.930 . S
C607 C603 1.400 . S
C607 C606 1.385 . S
C608 C606 1.478 . S
C608 C610 1.381 . S
C608 C614 1.383 . S
C609 C605 1.495 . S
C609 H615 0.959 . S
C609 H616 0.961 . S
C609 H617 0.960 . S
C610 C608 1.381 . S
C610 C611 1.394 . S
C610 H618 0.930 . S
C611 C610 1.394 . S
C611 C612 1.383 . S
C611 H619 0.929 . S
C612 C611 1.383 . S
C612 C613 1.377 . S
C613 H597 0.930 . S
C613 C612 1.377 . S
C613 C614 1.379 . S
C614 H598 0.931 . S
C614 C608 1.383 . S
C614 C613 1.379 . S
H615 C609 0.959 . S
H616 C609 0.961 . S
H617 C609 0.960 . S
H618 C610 0.930 . S
H619 C611 0.929 . S
H620 C628 0.929 . S
H621 C630 0.930 . S
H622 C632 0.930 . S
H623 C635 0.929 . S
H624 C638 0.930 . S
H625 C640 0.960 . S
H626 C640 0.960 . S
H627 C640 0.960 . S
C628 H620 0.929 . S
C628 C629 1.377 . S
C628 C630 1.384 . S
C629 C628 1.377 . S
C629 C635 1.390 . S
C630 H621 0.930 . S
C630 C628 1.384 . S
C630 C631 1.372 . S
C631 C630 1.372 . S
C631 C632 1.400 . S
C631 C636 1.490 . S
C632 H622 0.930 . S
C632 C631 1.400 . S
C632 C635 1.386 . S
H633 C649 0.930 . S
H634 C650 0.931 . S
C635 H623 0.929 . S
C635 C629 1.390 . S
C635 C632 1.386 . S
C636 C631 1.490 . S
C636 C638 1.395 . S
C636 C639 1.403 . S
H637 C643 0.930 . S
C638 H624 0.930 . S
C638 C636 1.395 . S
C638 C641 1.403 . S
C639 C636 1.403 . S
C639 C640 1.524 . S
C639 C643 1.400 . S
C640 H625 0.960 . S
C640 H626 0.960 . S
C640 H627 0.960 . S
C640 C639 1.524 . S
C641 C638 1.403 . S
C641 C642 1.392 . S
C641 C645 1.495 . S
C642 C641 1.392 . S
C642 C643 1.385 . S
C642 C644 1.478 . S
C643 H637 0.930 . S
C643 C639 1.400 . S
C643 C642 1.385 . S
C644 C642 1.478 . S
C644 C646 1.381 . S
C644 C650 1.383 . S
C645 C641 1.495 . S
C645 H651 0.959 . S
C645 H652 0.961 . S
C645 H653 0.960 . S
C646 C644 1.381 . S
C646 C647 1.394 . S
C646 H654 0.930 . S
C647 C646 1.394 . S
C647 C648 1.383 . S
C647 H655 0.929 . S
C648 C647 1.383 . S
C648 C649 1.377 . S
C649 H633 0.930 . S
C649 C648 1.377 . S
C649 C650 1.379 . S
C650 H634 0.931 . S
C650 C644 1.383 . S
C650 C649 1.379 . S
H651 C645 0.959 . S
H652 C645 0.961 . S
H653 C645 0.960 . S
H654 C646 0.930 . S
H655 C647 0.929 . S
H656 C664 0.929 . S
H657 C666 0.930 . S
H658 C668 0.930 . S
H659 C671 0.929 . S
H660 C674 0.930 . S
H661 C676 0.960 . S
H662 C676 0.960 . S
H663 C676 0.960 . S
C664 H656 0.929 . S
C664 C665 1.377 . S
C664 C666 1.384 . S
C665 C664 1.377 . S
C665 C671 1.390 . S
C666 H657 0.930 . S
C666 C664 1.384 . S
C666 C667 1.372 . S
C667 C666 1.372 . S
C667 C668 1.400 . S
C667 C672 1.490 . S
C668 H658 0.930 . S
C668 C667 1.400 . S
C668 C671 1.386 . S
H669 C685 0.930 . S
H670 C686 0.931 . S
C671 H659 0.929 . S
C671 C665 1.390 . S
C671 C668 1.386 . S
C672 C667 1.490 . S
C672 C674 1.395 . S
C672 C675 1.403 . S
H673 C679 0.930 . S
C674 H660 0.930 . S
C674 C672 1.395 . S
C674 C677 1.403 . S
C675 C672 1.403 . S
C675 C676 1.524 . S
C675 C679 1.400 . S
C676 H661 0.960 . S
C676 H662 0.960 . S
C676 H663 0.960 . S
C676 C675 1.524 . S
C677 C674 1.403 . S
C677 C678 1.392 . S
C677 C681 1.495 . S
C678 C677 1.392 . S
C678 C679 1.385 . S
C678 C680 1.478 . S
C679 H673 0.930 . S
C679 C675 1.400 . S
C679 C678 1.385 . S
C680 C678 1.478 . S
C680 C682 1.381 . S
C680 C686 1.383 . S
C681 C677 1.495 . S
C681 H687 0.959 . S
C681 H688 0.961 . S
C681 H689 0.960 . S
C682 C680 1.381 . S
C682 C683 1.394 . S
C682 H690 0.930 . S
C683 C682 1.394 . S
C683 C684 1.383 . S
C683 H691 0.929 . S
C684 C683 1.383 . S
C684 C685 1.377 . S
C685 H669 0.930 . S
C685 C684 1.377 . S
C685 C686 1.379 . S
C686 H670 0.931 . S
C686 C680 1.383 . S
C686 C685 1.379 . S
H687 C681 0.959 . S
H688 C681 0.961 . S
H689 C681 0.960 . S
H690 C682 0.930 . S
H691 C683 0.929 . S
H692 C700 0.929 . S
H693 C702 0.930 . S
H694 C704 0.930 . S
H695 C707 0.929 . S
H696 C710 0.930 . S
H697 C712 0.960 . S
H698 C712 0.960 . S
H699 C712 0.960 . S
C700 H692 0.929 . S
C700 C701 1.377 . S
C700 C702 1.384 . S
C701 C700 1.377 . S
C701 C707 1.390 . S
C702 H693 0.930 . S
C702 C700 1.384 . S
C702 C703 1.372 . S
C703 C702 1.372 . S
C703 C704 1.400 . S
C703 C708 1.490 . S
C704 H694 0.930 . S
C704 C703 1.400 . S
C704 C707 1.386 . S
H705 C721 0.930 . S
H706 C722 0.931 . S
C707 H695 0.929 . S
C707 C701 1.390 . S
C707 C704 1.386 . S
C708 C703 1.490 . S
C708 C710 1.395 . S
C708 C711 1.403 . S
H709 C715 0.930 . S
C710 H696 0.930 . S
C710 C708 1.395 . S
C710 C713 1.403 . S
C711 C708 1.403 . S
C711 C712 1.524 . S
C711 C715 1.400 . S
C712 H697 0.960 . S
C712 H698 0.960 . S
C712 H699 0.960 . S
C712 C711 1.524 . S
C713 C710 1.403 . S
C713 C714 1.392 . S
C713 C717 1.495 . S
C714 C713 1.392 . S
C714 C715 1.385 . S
C714 C716 1.478 . S
C715 H709 0.930 . S
C715 C711 1.400 . S
C715 C714 1.385 . S
C716 C714 1.478 . S
C716 C718 1.381 . S
C716 C722 1.383 . S
C717 C713 1.495 . S
C717 H723 0.959 . S
C717 H724 0.961 . S
C717 H725 0.960 . S
C718 C716 1.381 . S
C718 C719 1.394 . S
C718 H726 0.930 . S
C719 C718 1.394 . S
C719 C720 1.383 . S
C719 H727 0.929 . S
C720 C719 1.383 . S
C720 C721 1.377 . S
C721 H705 0.930 . S
C721 C720 1.377 . S
C721 C722 1.379 . S
C722 H706 0.931 . S
C722 C716 1.383 . S
C722 C721 1.379 . S
H723 C717 0.959 . S
H724 C717 0.961 . S
H725 C717 0.960 . S
H726 C718 0.930 . S
H727 C719 0.929 . S
H728 C736 0.929 . S
H729 C738 0.930 . S
H730 C740 0.930 . S
H731 C743 0.929 . S
H732 C746 0.930 . S
H733 C748 0.960 . S
H734 C748 0.960 . S
H735 C748 0.960 . S
C736 H728 0.929 . S
C736 C737 1.377 . S
C736 C738 1.384 . S
C737 C736 1.377 . S
C737 C743 1.390 . S
C738 H729 0.930 . S
C738 C736 1.384 . S
C738 C739 1.372 . S
C739 C738 1.372 . S
C739 C740 1.400 . S
C739 C744 1.490 . S
C740 H730 0.930 . S
C740 C739 1.400 . S
C740 C743 1.386 . S
H741 C757 0.930 . S
H742 C758 0.931 . S
C743 H731 0.929 . S
C743 C737 1.390 . S
C743 C740 1.386 . S
C744 C739 1.490 . S
C744 C746 1.395 . S
C744 C747 1.403 . S
H745 C751 0.930 . S
C746 H732 0.930 . S
C746 C744 1.395 . S
C746 C749 1.403 . S
C747 C744 1.403 . S
C747 C748 1.524 . S
C747 C751 1.400 . S
C748 H733 0.960 . S
C748 H734 0.960 . S
C748 H735 0.960 . S
C748 C747 1.524 . S
C749 C746 1.403 . S
C749 C750 1.392 . S
C749 C753 1.495 . S
C750 C749 1.392 . S
C750 C751 1.385 . S
C750 C752 1.478 . S
C751 H745 0.930 . S
C751 C747 1.400 . S
C751 C750 1.385 . S
C752 C750 1.478 . S
C752 C754 1.381 . S
C752 C758 1.383 . S
C753 C749 1.495 . S
C753 H759 0.959 . S
C753 H760 0.961 . S
C753 H761 0.960 . S
C754 C752 1.381 . S
C754 C755 1.394 . S
C754 H762 0.930 . S
C755 C754 1.394 . S
C755 C756 1.383 . S
C755 H763 0.929 . S
C756 C755 1.383 . S
C756 C757 1.377 . S
C757 H741 0.930 . S
C757 C756 1.377 . S
C757 C758 1.379 . S
C758 H742 0.931 . S
C758 C752 1.383 . S
C758 C757 1.379 . S
H759 C753 0.959 . S
H760 C753 0.961 . S
H761 C753 0.960 . S
H762 C754 0.930 . S
H763 C755 0.929 . S
H764 C772 0.929 . S
H765 C774 0.930 . S
H766 C776 0.930 . S
H767 C779 0.929 . S
H768 C782 0.930 . S
H769 C784 0.960 . S
H770 C784 0.960 . S
H771 C784 0.960 . S
C772 H764 0.929 . S
C772 C773 1.377 . S
C772 C774 1.384 . S
C773 C772 1.377 . S
C773 C779 1.390 . S
C774 H765 0.930 . S
C774 C772 1.384 . S
C774 C775 1.372 . S
C775 C774 1.372 . S
C775 C776 1.400 . S
C775 C780 1.490 . S
C776 H766 0.930 . S
C776 C775 1.400 . S
C776 C779 1.386 . S
H777 C793 0.930 . S
H778 C794 0.931 . S
C779 H767 0.929 . S
C779 C773 1.390 . S
C779 C776 1.386 . S
C780 C775 1.490 . S
C780 C782 1.395 . S
C780 C783 1.403 . S
H781 C787 0.930 . S
C782 H768 0.930 . S
C782 C780 1.395 . S
C782 C785 1.403 . S
C783 C780 1.403 . S
C783 C784 1.524 . S
C783 C787 1.400 . S
C784 H769 0.960 . S
C784 H770 0.960 . S
C784 H771 0.960 . S
C784 C783 1.524 . S
C785 C782 1.403 . S
C785 C786 1.392 . S
C785 C789 1.495 . S
C786 C785 1.392 . S
C786 C787 1.385 . S
C786 C788 1.478 . S
C787 H781 0.930 . S
C787 C783 1.400 . S
C787 C786 1.385 . S
C788 C786 1.478 . S
C788 C790 1.381 . S
C788 C794 1.383 . S
C789 C785 1.495 . S
C789 H795 0.959 . S
C789 H796 0.961 . S
C789 H797 0.960 . S
C790 C788 1.381 . S
C790 C791 1.394 . S
C790 H798 0.930 . S
C791 C790 1.394 . S
C791 C792 1.383 . S
C791 H799 0.929 . S
C792 C791 1.383 . S
C792 C793 1.377 . S
C793 H777 0.930 . S
C793 C792 1.377 . S
C793 C794 1.379 . S
C794 H778 0.931 . S
C794 C788 1.383 . S
C794 C793 1.379 . S
H795 C789 0.959 . S
H796 C789 0.961 . S
H797 C789 0.960 . S
H798 C790 0.930 . S
H799 C791 0.929 . S
H800 C808 0.929 . S
H801 C810 0.930 . S
H802 C812 0.930 . S
H803 C815 0.929 . S
H804 C818 0.930 . S
H805 C820 0.960 . S
H806 C820 0.960 . S
H807 C820 0.960 . S
C808 H800 0.929 . S
C808 C809 1.377 . S
C808 C810 1.384 . S
C809 C808 1.377 . S
C809 C815 1.390 . S
C810 H801 0.930 . S
C810 C808 1.384 . S
C810 C811 1.372 . S
C811 C810 1.372 . S
C811 C812 1.400 . S
C811 C816 1.490 . S
C812 H802 0.930 . S
C812 C811 1.400 . S
C812 C815 1.386 . S
H813 C829 0.930 . S
H814 C830 0.931 . S
C815 H803 0.929 . S
C815 C809 1.390 . S
C815 C812 1.386 . S
C816 C811 1.490 . S
C816 C818 1.395 . S
C816 C819 1.403 . S
H817 C823 0.930 . S
C818 H804 0.930 . S
C818 C816 1.395 . S
C818 C821 1.403 . S
C819 C816 1.403 . S
C819 C820 1.524 . S
C819 C823 1.400 . S
C820 H805 0.960 . S
C820 H806 0.960 . S
C820 H807 0.960 . S
C820 C819 1.524 . S
C821 C818 1.403 . S
C821 C822 1.392 . S
C821 C825 1.495 . S
C822 C821 1.392 . S
C822 C823 1.385 . S
C822 C824 1.478 . S
C823 H817 0.930 . S
C823 C819 1.400 . S
C823 C822 1.385 . S
C824 C822 1.478 . S
C824 C826 1.381 . S
C824 C830 1.383 . S
C825 C821 1.495 . S
C825 H831 0.959 . S
C825 H832 0.961 . S
C825 H833 0.960 . S
C826 C824 1.381 . S
C826 C827 1.394 . S
C826 H834 0.930 . S
C827 C826 1.394 . S
C827 C828 1.383 . S
C827 H835 0.929 . S
C828 C827 1.383 . S
C828 C829 1.377 . S
C829 H813 0.930 . S
C829 C828 1.377 . S
C829 C830 1.379 . S
C830 H814 0.931 . S
C830 C824 1.383 . S
C830 C829 1.379 . S
H831 C825 0.959 . S
H832 C825 0.961 . S
H833 C825 0.960 . S
H834 C826 0.930 . S
H835 C827 0.929 . S
H836 C844 0.929 . S
H837 C846 0.930 . S
H838 C848 0.930 . S
H839 C851 0.929 . S
H840 C854 0.930 . S
H841 C856 0.960 . S
H842 C856 0.960 . S
H843 C856 0.960 . S
C844 H836 0.929 . S
C844 C845 1.377 . S
C844 C846 1.384 . S
C845 C844 1.377 . S
C845 C851 1.390 . S
C846 H837 0.930 . S
C846 C844 1.384 . S
C846 C847 1.372 . S
C847 C846 1.372 . S
C847 C848 1.400 . S
C847 C852 1.490 . S
C848 H838 0.930 . S
C848 C847 1.400 . S
C848 C851 1.386 . S
H849 C865 0.930 . S
H850 C866 0.931 . S
C851 H839 0.929 . S
C851 C845 1.390 . S
C851 C848 1.386 . S
C852 C847 1.490 . S
C852 C854 1.395 . S
C852 C855 1.403 . S
H853 C859 0.930 . S
C854 H840 0.930 . S
C854 C852 1.395 . S
C854 C857 1.403 . S
C855 C852 1.403 . S
C855 C856 1.524 . S
C855 C859 1.400 . S
C856 H841 0.960 . S
C856 H842 0.960 . S
C856 H843 0.960 . S
C856 C855 1.524 . S
C857 C854 1.403 . S
C857 C858 1.392 . S
C857 C861 1.495 . S
C858 C857 1.392 . S
C858 C859 1.385 . S
C858 C860 1.478 . S
C859 H853 0.930 . S
C859 C855 1.400 . S
C859 C858 1.385 . S
C860 C858 1.478 . S
C860 C862 1.381 . S
C860 C866 1.383 . S
C861 C857 1.495 . S
C861 H867 0.959 . S
C861 H868 0.961 . S
C861 H869 0.960 . S
C862 C860 1.381 . S
C862 C863 1.394 . S
C862 H870 0.930 . S
C863 C862 1.394 . S
C863 C864 1.383 . S
C863 H871 0.929 . S
C864 C863 1.383 . S
C864 C865 1.377 . S
C865 H849 0.930 . S
C865 C864 1.377 . S
C865 C866 1.379 . S
C866 H850 0.931 . S
C866 C860 1.383 . S
C866 C865 1.379 . S
H867 C861 0.959 . S
H868 C861 0.961 . S
H869 C861 0.960 . S
H870 C862 0.930 . S
H871 C863 0.929 . S
H872 C880 0.929 . S
H873 C882 0.930 . S
H874 C884 0.930 . S
H875 C887 0.929 . S
H876 C890 0.930 . S
H877 C892 0.960 . S
H878 C892 0.960 . S
H879 C892 0.960 . S
C880 H872 0.929 . S
C880 C881 1.377 . S
C880 C882 1.384 . S
C881 C880 1.377 . S
C881 C887 1.390 . S
C882 H873 0.930 . S
C882 C880 1.384 . S
C882 C883 1.372 . S
C883 C882 1.372 . S
C883 C884 1.400 . S
C883 C888 1.490 . S
C884 H874 0.930 . S
C884 C883 1.400 . S
C884 C887 1.386 . S
H885 C901 0.930 . S
H886 C902 0.931 . S
C887 H875 0.929 . S
C887 C881 1.390 . S
C887 C884 1.386 . S
C888 C883 1.490 . S
C888 C890 1.395 . S
C888 C891 1.403 . S
H889 C895 0.930 . S
C890 H876 0.930 . S
C890 C888 1.395 . S
C890 C893 1.403 . S
C891 C888 1.403 . S
C891 C892 1.524 . S
C891 C895 1.400 . S
C892 H877 0.960 . S
C892 H878 0.960 . S
C892 H879 0.960 . S
C892 C891 1.524 . S
C893 C890 1.403 . S
C893 C894 1.392 . S
C893 C897 1.495 . S
C894 C893 1.392 . S
C894 C895 1.385 . S
C894 C896 1.478 . S
C895 H889 0.930 . S
C895 C891 1.400 . S
C895 C894 1.385 . S
C896 C894 1.478 . S
C896 C898 1.381 . S
C896 C902 1.383 . S
C897 C893 1.495 . S
C897 H903 0.959 . S
C897 H904 0.961 . S
C897 H905 0.960 . S
C898 C896 1.381 . S
C898 C899 1.394 . S
C898 H906 0.930 . S
C899 C898 1.394 . S
C899 C900 1.383 . S
C899 H907 0.929 . S
C900 C899 1.383 . S
C900 C901 1.377 . S
C901 H885 0.930 . S
C901 C900 1.377 . S
C901 C902 1.379 . S
C902 H886 0.931 . S
C902 C896 1.383 . S
C902 C901 1.379 . S
H903 C897 0.959 . S
H904 C897 0.961 . S
H905 C897 0.960 . S
H906 C898 0.930 . S
H907 C899 0.929 . S
H908 C916 0.929 . S
H909 C918 0.930 . S
H910 C920 0.930 . S
H911 C923 0.929 . S
H912 C926 0.930 . S
H913 C928 0.960 . S
H914 C928 0.960 . S
H915 C928 0.960 . S
C916 H908 0.929 . S
C916 C917 1.377 . S
C916 C918 1.384 . S
C917 C916 1.377 . S
C917 C923 1.390 . S
C918 H909 0.930 . S
C918 C916 1.384 . S
C918 C919 1.372 . S
C919 C918 1.372 . S
C919 C920 1.400 . S
C919 C924 1.490 . S
C920 H910 0.930 . S
C920 C919 1.400 . S
C920 C923 1.386 . S
H921 C937 0.930 . S
H922 C938 0.931 . S
C923 H911 0.929 . S
C923 C917 1.390 . S
C923 C920 1.386 . S
C924 C919 1.490 . S
C924 C926 1.395 . S
C924 C927 1.403 . S
H925 C931 0.930 . S
C926 H912 0.930 . S
C926 C924 1.395 . S
C926 C929 1.403 . S
C927 C924 1.403 . S
C927 C928 1.524 . S
C927 C931 1.400 . S
C928 H913 0.960 . S
C928 H914 0.960 . S
C928 H915 0.960 . S
C928 C927 1.524 . S
C929 C926 1.403 . S
C929 C930 1.392 . S
C929 C933 1.495 . S
C930 C929 1.392 . S
C930 C931 1.385 . S
C930 C932 1.478 . S
C931 H925 0.930 . S
C931 C927 1.400 . S
C931 C930 1.385 . S
C932 C930 1.478 . S
C932 C934 1.381 . S
C932 C938 1.383 . S
C933 C929 1.495 . S
C933 H939 0.959 . S
C933 H940 0.961 . S
C933 H941 0.960 . S
C934 C932 1.381 . S
C934 C935 1.394 . S
C934 H942 0.930 . S
C935 C934 1.394 . S
C935 C936 1.383 . S
C935 H943 0.929 . S
C936 C935 1.383 . S
C936 C937 1.377 . S
C937 H921 0.930 . S
C937 C936 1.377 . S
C937 C938 1.379 . S
C938 H922 0.931 . S
C938 C932 1.383 . S
C938 C937 1.379 . S
H939 C933 0.959 . S
H940 C933 0.961 . S
H941 C933 0.960 . S
H942 C934 0.930 . S
H943 C935 0.929 . S
H944 C952 0.929 . S
H945 C954 0.930 . S
H946 C956 0.930 . S
H947 C959 0.929 . S
H948 C962 0.930 . S
H949 C964 0.960 . S
H950 C964 0.960 . S
H951 C964 0.960 . S
C952 H944 0.929 . S
C952 C953 1.377 . S
C952 C954 1.384 . S
C953 C952 1.377 . S
C953 C959 1.390 . S
C954 H945 0.930 . S
C954 C952 1.384 . S
C954 C955 1.372 . S
C955 C954 1.372 . S
C955 C956 1.400 . S
C955 C960 1.490 . S
C956 H946 0.930 . S
C956 C955 1.400 . S
C956 C959 1.386 . S
H957 C973 0.930 . S
H958 C974 0.931 . S
C959 H947 0.929 . S
C959 C953 1.390 . S
C959 C956 1.386 . S
C960 C955 1.490 . S
C960 C962 1.395 . S
C960 C963 1.403 . S
H961 C967 0.930 . S
C962 H948 0.930 . S
C962 C960 1.395 . S
C962 C965 1.403 . S
C963 C960 1.403 . S
C963 C964 1.524 . S
C963 C967 1.400 . S
C964 H949 0.960 . S
C964 H950 0.960 . S
C964 H951 0.960 . S
C964 C963 1.524 . S
C965 C962 1.403 . S
C965 C966 1.392 . S
C965 C969 1.495 . S
C966 C965 1.392 . S
C966 C967 1.385 . S
C966 C968 1.478 . S
C967 H961 0.930 . S
C967 C963 1.400 . S
C967 C966 1.385 . S
C968 C966 1.478 . S
C968 C970 1.381 . S
C968 C974 1.383 . S
C969 C965 1.495 . S
C969 H975 0.959 . S
C969 H976 0.961 . S
C969 H977 0.960 . S
C970 C968 1.381 . S
C970 C971 1.394 . S
C970 H978 0.930 . S
C971 C970 1.394 . S
C971 C972 1.383 . S
C971 H979 0.929 . S
C972 C971 1.383 . S
C972 C973 1.377 . S
C973 H957 0.930 . S
C973 C972 1.377 . S
C973 C974 1.379 . S
C974 H958 0.931 . S
C974 C968 1.383 . S
C974 C973 1.379 . S
H975 C969 0.959 . S
H976 C969 0.961 . S
H977 C969 0.960 . S
H978 C970 0.930 . S
H979 C971 0.929 . S
H980 C988 0.929 . S
H981 C990 0.930 . S
H982 C992 0.930 . S
H983 C995 0.929 . S
H984 C998 0.930 . S
H985 C1000 0.960 . S
H986 C1000 0.960 . S
H987 C1000 0.960 . S
C988 H980 0.929 . S
C988 C989 1.377 . S
C988 C990 1.384 . S
C989 C988 1.377 . S
C989 C995 1.390 . S
C990 H981 0.930 . S
C990 C988 1.384 . S
C990 C991 1.372 . S
C991 C990 1.372 . S
C991 C992 1.400 . S
C991 C996 1.490 . S
C992 H982 0.930 . S
C992 C991 1.400 . S
C992 C995 1.386 . S
H993 C1009 0.930 . S
H994 C1010 0.931 . S
C995 H983 0.929 . S
C995 C989 1.390 . S
C995 C992 1.386 . S
C996 C991 1.490 . S
C996 C998 1.395 . S
C996 C999 1.403 . S
H997 C1003 0.930 . S
C998 H984 0.930 . S
C998 C996 1.395 . S
C998 C1001 1.403 . S
C999 C996 1.403 . S
C999 C1000 1.524 . S
C999 C1003 1.400 . S
C1000 H985 0.960 . S
C1000 H986 0.960 . S
C1000 H987 0.960 . S
C1000 C999 1.524 . S
C1001 C998 1.403 . S
C1001 C1002 1.392 . S
C1001 C1005 1.495 . S
C1002 C1001 1.392 . S
C1002 C1003 1.385 . S
C1002 C1004 1.478 . S
C1003 H997 0.930 . S
C1003 C999 1.400 . S
C1003 C1002 1.385 . S
C1004 C1002 1.478 . S
C1004 C1006 1.381 . S
C1004 C1010 1.383 . S
C1005 C1001 1.495 . S
C1005 H1011 0.959 . S
C1005 H1012 0.961 . S
C1005 H1013 0.960 . S
C1006 C1004 1.381 . S
C1006 C1007 1.394 . S
C1006 H1014 0.930 . S
C1007 C1006 1.394 . S
C1007 C1008 1.383 . S
C1007 H1015 0.929 . S
C1008 C1007 1.383 . S
C1008 C1009 1.377 . S
C1009 H993 0.930 . S
C1009 C1008 1.377 . S
C1009 C1010 1.379 . S
C1010 H994 0.931 . S
C1010 C1004 1.383 . S
C1010 C1009 1.379 . S
H1011 C1005 0.959 . S
H1012 C1005 0.961 . S
H1013 C1005 0.960 . S
H1014 C1006 0.930 . S
H1015 C1007 0.929 . S
H1016 C1024 0.929 . S
H1017 C1026 0.930 . S
H1018 C1028 0.930 . S
H1019 C1031 0.929 . S
H1020 C1034 0.930 . S
H1021 C1036 0.960 . S
H1022 C1036 0.960 . S
H1023 C1036 0.960 . S
C1024 H1016 0.929 . S
C1024 C1025 1.377 . S
C1024 C1026 1.384 . S
C1025 C1024 1.377 . S
C1025 C1031 1.390 . S
C1026 H1017 0.930 . S
C1026 C1024 1.384 . S
C1026 C1027 1.372 . S
C1027 C1026 1.372 . S
C1027 C1028 1.400 . S
C1027 C1032 1.490 . S
C1028 H1018 0.930 . S
C1028 C1027 1.400 . S
C1028 C1031 1.386 . S
H1029 C1045 0.930 . S
H1030 C1046 0.931 . S
C1031 H1019 0.929 . S
C1031 C1025 1.390 . S
C1031 C1028 1.386 . S
C1032 C1027 1.490 . S
C1032 C1034 1.395 . S
C1032 C1035 1.403 . S
H1033 C1039 0.930 . S
C1034 H1020 0.930 . S
C1034 C1032 1.395 . S
C1034 C1037 1.403 . S
C1035 C1032 1.403 . S
C1035 C1036 1.524 . S
C1035 C1039 1.400 . S
C1036 H1021 0.960 . S
C1036 H1022 0.960 . S
C1036 H1023 0.960 . S
C1036 C1035 1.524 . S
C1037 C1034 1.403 . S
C1037 C1038 1.392 . S
C1037 C1041 1.495 . S
C1038 C1037 1.392 . S
C1038 C1039 1.385 . S
C1038 C1040 1.478 . S
C1039 H1033 0.930 . S
C1039 C1035 1.400 . S
C1039 C1038 1.385 . S
C1040 C1038 1.478 . S
C1040 C1042 1.381 . S
C1040 C1046 1.383 . S
C1041 C1037 1.495 . S
C1041 H1047 0.959 . S
C1041 H1048 0.961 . S
C1041 H1049 0.960 . S
C1042 C1040 1.381 . S
C1042 C1043 1.394 . S
C1042 H1050 0.930 . S
C1043 C1042 1.394 . S
C1043 C1044 1.383 . S
C1043 H1051 0.929 . S
C1044 C1043 1.383 . S
C1044 C1045 1.377 . S
C1045 H1029 0.930 . S
C1045 C1044 1.377 . S
C1045 C1046 1.379 . S
C1046 H1030 0.931 . S
C1046 C1040 1.383 . S
C1046 C1045 1.379 . S
H1047 C1041 0.959 . S
H1048 C1041 0.961 . S
H1049 C1041 0.960 . S
H1050 C1042 0.930 . S
H1051 C1043 0.929 . S
H1052 C1060 0.929 . S
H1053 C1062 0.930 . S
H1054 C1064 0.930 . S
H1055 C1067 0.929 . S
H1056 C1070 0.930 . S
H1057 C1072 0.960 . S
H1058 C1072 0.960 . S
H1059 C1072 0.960 . S
C1060 H1052 0.929 . S
C1060 C1061 1.377 . S
C1060 C1062 1.384 . S
C1061 C1060 1.377 . S
C1061 C1067 1.390 . S
C1062 H1053 0.930 . S
C1062 C1060 1.384 . S
C1062 C1063 1.372 . S
C1063 C1062 1.372 . S
C1063 C1064 1.400 . S
C1063 C1068 1.490 . S
C1064 H1054 0.930 . S
C1064 C1063 1.400 . S
C1064 C1067 1.386 . S
H1065 C1081 0.930 . S
H1066 C1082 0.931 . S
C1067 H1055 0.929 . S
C1067 C1061 1.390 . S
C1067 C1064 1.386 . S
C1068 C1063 1.490 . S
C1068 C1070 1.395 . S
C1068 C1071 1.403 . S
H1069 C1075 0.930 . S
C1070 H1056 0.930 . S
C1070 C1068 1.395 . S
C1070 C1073 1.403 . S
C1071 C1068 1.403 . S
C1071 C1072 1.524 . S
C1071 C1075 1.400 . S
C1072 H1057 0.960 . S
C1072 H1058 0.960 . S
C1072 H1059 0.960 . S
C1072 C1071 1.524 . S
C1073 C1070 1.403 . S
C1073 C1074 1.392 . S
C1073 C1077 1.495 . S
C1074 C1073 1.392 . S
C1074 C1075 1.385 . S
C1074 C1076 1.478 . S
C1075 H1069 0.930 . S
C1075 C1071 1.400 . S
C1075 C1074 1.385 . S
C1076 C1074 1.478 . S
C1076 C1078 1.381 . S
C1076 C1082 1.383 . S
C1077 C1073 1.495 . S
C1077 H1083 0.959 . S
C1077 H1084 0.961 . S
C1077 H1085 0.960 . S
C1078 C1076 1.381 . S
C1078 C1079 1.394 . S
C1078 H1086 0.930 . S
C1079 C1078 1.394 . S
C1079 C1080 1.383 . S
C1079 H1087 0.929 . S
C1080 C1079 1.383 . S
C1080 C1081 1.377 . S
C1081 H1065 0.930 . S
C1081 C1080 1.377 . S
C1081 C1082 1.379 . S
C1082 H1066 0.931 . S
C1082 C1076 1.383 . S
C1082 C1081 1.379 . S
H1083 C1077 0.959 . S
H1084 C1077 0.961 . S
H1085 C1077 0.960 . S
H1086 C1078 0.930 . S
H1087 C1079 0.929 . S
H1088 C1096 0.929 . S
H1089 C1098 0.930 . S
H1090 C1100 0.930 . S
H1091 C1103 0.929 . S
H1092 C1106 0.930 . S
H1093 C1108 0.960 . S
H1094 C1108 0.960 . S
H1095 C1108 0.960 . S
C1096 H1088 0.929 . S
C1096 C1097 1.377 . S
C1096 C1098 1.384 . S
C1097 C1096 1.377 . S
C1097 C1103 1.390 . S
C1098 H1089 0.930 . S
C1098 C1096 1.384 . S
C1098 C1099 1.372 . S
C1099 C1098 1.372 . S
C1099 C1100 1.400 . S
C1099 C1104 1.490 . S
C1100 H1090 0.930 . S
C1100 C1099 1.400 . S
C1100 C1103 1.386 . S
H1101 C1117 0.930 . S
H1102 C1118 0.931 . S
C1103 H1091 0.929 . S
C1103 C1097 1.390 . S
C1103 C1100 1.386 . S
C1104 C1099 1.490 . S
C1104 C1106 1.395 . S
C1104 C1107 1.403 . S
H1105 C1111 0.930 . S
C1106 H1092 0.930 . S
C1106 C1104 1.395 . S
C1106 C1109 1.403 . S
C1107 C1104 1.403 . S
C1107 C1108 1.524 . S
C1107 C1111 1.400 . S
C1108 H1093 0.960 . S
C1108 H1094 0.960 . S
C1108 H1095 0.960 . S
C1108 C1107 1.524 . S
C1109 C1106 1.403 . S
C1109 C1110 1.392 . S
C1109 C1113 1.495 . S
C1110 C1109 1.392 . S
C1110 C1111 1.385 . S
C1110 C1112 1.478 . S
C1111 H1105 0.930 . S
C1111 C1107 1.400 . S
C1111 C1110 1.385 . S
C1112 C1110 1.478 . S
C1112 C1114 1.381 . S
C1112 C1118 1.383 . S
C1113 C1109 1.495 . S
C1113 H1119 0.959 . S
C1113 H1120 0.961 . S
C1113 H1121 0.960 . S
C1114 C1112 1.381 . S
C1114 C1115 1.394 . S
C1114 H1122 0.930 . S
C1115 C1114 1.394 . S
C1115 C1116 1.383 . S
C1115 H1123 0.929 . S
C1116 C1115 1.383 . S
C1116 C1117 1.377 . S
C1117 H1101 0.930 . S
C1117 C1116 1.377 . S
C1117 C1118 1.379 . S
C1118 H1102 0.931 . S
C1118 C1112 1.383 . S
C1118 C1117 1.379 . S
H1119 C1113 0.959 . S
H1120 C1113 0.961 . S
H1121 C1113 0.960 . S
H1122 C1114 0.930 . S
H1123 C1115 0.929 . S
H1124 C1132 0.929 . S
H1125 C1134 0.930 . S
H1126 C1136 0.930 . S
H1127 C1139 0.929 . S
H1128 C1142 0.930 . S
H1129 C1144 0.960 . S
H1130 C1144 0.960 . S
H1131 C1144 0.960 . S
C1132 H1124 0.929 . S
C1132 C1133 1.377 . S
C1132 C1134 1.384 . S
C1133 C1132 1.377 . S
C1133 C1139 1.390 . S
C1134 H1125 0.930 . S
C1134 C1132 1.384 . S
C1134 C1135 1.372 . S
C1135 C1134 1.372 . S
C1135 C1136 1.400 . S
C1135 C1140 1.490 . S
C1136 H1126 0.930 . S
C1136 C1135 1.400 . S
C1136 C1139 1.386 . S
H1137 C1153 0.930 . S
H1138 C1154 0.931 . S
C1139 H1127 0.929 . S
C1139 C1133 1.390 . S
C1139 C1136 1.386 . S
C1140 C1135 1.490 . S
C1140 C1142 1.395 . S
C1140 C1143 1.403 . S
H1141 C1147 0.930 . S
C1142 H1128 0.930 . S
C1142 C1140 1.395 . S
C1142 C1145 1.403 . S
C1143 C1140 1.403 . S
C1143 C1144 1.524 . S
C1143 C1147 1.400 . S
C1144 H1129 0.960 . S
C1144 H1130 0.960 . S
C1144 H1131 0.960 . S
C1144 C1143 1.524 . S
C1145 C1142 1.403 . S
C1145 C1146 1.392 . S
C1145 C1149 1.495 . S
C1146 C1145 1.392 . S
C1146 C1147 1.385 . S
C1146 C1148 1.478 . S
C1147 H1141 0.930 . S
C1147 C1143 1.400 . S
C1147 C1146 1.385 . S
C1148 C1146 1.478 . S
C1148 C1150 1.381 . S
C1148 C1154 1.383 . S
C1149 C1145 1.495 . S
C1149 H1155 0.959 . S
C1149 H1156 0.961 . S
C1149 H1157 0.960 . S
C1150 C1148 1.381 . S
C1150 C1151 1.394 . S
C1150 H1158 0.930 . S
C1151 C1150 1.394 . S
C1151 C1152 1.383 . S
C1151 H1159 0.929 . S
C1152 C1151 1.383 . S
C1152 C1153 1.377 . S
C1153 H1137 0.930 . S
C1153 C1152 1.377 . S
C1153 C1154 1.379 . S
C1154 H1138 0.931 . S
C1154 C1148 1.383 . S
C1154 C1153 1.379 . S
H1155 C1149 0.959 . S
H1156 C1149 0.961 . S
H1157 C1149 0.960 . S
H1158 C1150 0.930 . S
H1159 C1151 0.929 . S
H1160 C1168 0.929 . S
H1161 C1170 0.930 . S
H1162 C1172 0.930 . S
H1163 C1175 0.929 . S
H1164 C1178 0.930 . S
H1165 C1180 0.960 . S
H1166 C1180 0.960 . S
H1167 C1180 0.960 . S
C1168 H1160 0.929 . S
C1168 C1169 1.377 . S
C1168 C1170 1.384 . S
C1169 C1168 1.377 . S
C1169 C1175 1.390 . S
C1170 H1161 0.930 . S
C1170 C1168 1.384 . S
C1170 C1171 1.372 . S
C1171 C1170 1.372 . S
C1171 C1172 1.400 . S
C1171 C1176 1.490 . S
C1172 H1162 0.930 . S
C1172 C1171 1.400 . S
C1172 C1175 1.386 . S
H1173 C1189 0.930 . S
H1174 C1190 0.931 . S
C1175 H1163 0.929 . S
C1175 C1169 1.390 . S
C1175 C1172 1.386 . S
C1176 C1171 1.490 . S
C1176 C1178 1.395 . S
C1176 C1179 1.403 . S
H1177 C1183 0.930 . S
C1178 H1164 0.930 . S
C1178 C1176 1.395 . S
C1178 C1181 1.403 . S
C1179 C1176 1.403 . S
C1179 C1180 1.524 . S
C1179 C1183 1.400 . S
C1180 H1165 0.960 . S
C1180 H1166 0.960 . S
C1180 H1167 0.960 . S
C1180 C1179 1.524 . S
C1181 C1178 1.403 . S
C1181 C1182 1.392 . S
C1181 C1185 1.495 . S
C1182 C1181 1.392 . S
C1182 C1183 1.385 . S
C1182 C1184 1.478 . S
C1183 H1177 0.930 . S
C1183 C1179 1.400 . S
C1183 C1182 1.385 . S
C1184 C1182 1.478 . S
C1184 C1186 1.381 . S
C1184 C1190 1.383 . S
C1185 C1181 1.495 . S
C1185 H1191 0.959 . S
C1185 H1192 0.961 . S
C1185 H1193 0.960 . S
C1186 C1184 1.381 . S
C1186 C1187 1.394 . S
C1186 H1194 0.930 . S
C1187 C1186 1.394 . S
C1187 C1188 1.383 . S
C1187 H1195 0.929 . S
C1188 C1187 1.383 . S
C1188 C1189 1.377 . S
C1189 H1173 0.930 . S
C1189 C1188 1.377 . S
C1189 C1190 1.379 . S
C1190 H1174 0.931 . S
C1190 C1184 1.383 . S
C1190 C1189 1.379 . S
H1191 C1185 0.959 . S
H1192 C1185 0.961 . S
H1193 C1185 0.960 . S
H1194 C1186 0.930 . S
H1195 C1187 0.929 . S
H1196 C1204 0.929 . S
H1197 C1206 0.930 . S
H1198 C1208 0.930 . S
H1199 C1211 0.929 . S
H1200 C1214 0.930 . S
H1201 C1216 0.960 . S
H1202 C1216 0.960 . S
H1203 C1216 0.960 . S
C1204 H1196 0.929 . S
C1204 C1205 1.377 . S
C1204 C1206 1.384 . S
C1205 C1204 1.377 . S
C1205 C1211 1.390 . S
C1206 H1197 0.930 . S
C1206 C1204 1.384 . S
C1206 C1207 1.372 . S
C1207 C1206 1.372 . S
C1207 C1208 1.400 . S
C1207 C1212 1.490 . S
C1208 H1198 0.930 . S
C1208 C1207 1.400 . S
C1208 C1211 1.386 . S
H1209 C1225 0.930 . S
H1210 C1226 0.931 . S
C1211 H1199 0.929 . S
C1211 C1205 1.390 . S
C1211 C1208 1.386 . S
C1212 C1207 1.490 . S
C1212 C1214 1.395 . S
C1212 C1215 1.403 . S
H1213 C1219 0.930 . S
C1214 H1200 0.930 . S
C1214 C1212 1.395 . S
C1214 C1217 1.403 . S
C1215 C1212 1.403 . S
C1215 C1216 1.524 . S
C1215 C1219 1.400 . S
C1216 H1201 0.960 . S
C1216 H1202 0.960 . S
C1216 H1203 0.960 . S
C1216 C1215 1.524 . S
C1217 C1214 1.403 . S
C1217 C1218 1.392 . S
C1217 C1221 1.495 . S
C1218 C1217 1.392 . S
C1218 C1219 1.385 . S
C1218 C1220 1.478 . S
C1219 H1213 0.930 . S
C1219 C1215 1.400 . S
C1219 C1218 1.385 . S
C1220 C1218 1.478 . S
C1220 C1222 1.381 . S
C1220 C1226 1.383 . S
C1221 C1217 1.495 . S
C1221 H1227 0.959 . S
C1221 H1228 0.961 . S
C1221 H1229 0.960 . S
C1222 C1220 1.381 . S
C1222 C1223 1.394 . S
C1222 H1230 0.930 . S
C1223 C1222 1.394 . S
C1223 C1224 1.383 . S
C1223 H1231 0.929 . S
C1224 C1223 1.383 . S
C1224 C1225 1.377 . S
C1225 H1209 0.930 . S
C1225 C1224 1.377 . S
C1225 C1226 1.379 . S
C1226 H1210 0.931 . S
C1226 C1220 1.383 . S
C1226 C1225 1.379 . S
H1227 C1221 0.959 . S
H1228 C1221 0.961 . S
H1229 C1221 0.960 . S
H1230 C1222 0.930 . S
H1231 C1223 0.929 . S
H1232 C1240 0.929 . S
H1233 C1242 0.930 . S
H1234 C1244 0.930 . S
H1235 C1247 0.929 . S
H1236 C1250 0.930 . S
H1237 C1252 0.960 . S
H1238 C1252 0.960 . S
H1239 C1252 0.960 . S
C1240 H1232 0.929 . S
C1240 C1241 1.377 . S
C1240 C1242 1.384 . S
C1241 C1240 1.377 . S
C1241 C1247 1.390 . S
C1242 H1233 0.930 . S
C1242 C1240 1.384 . S
C1242 C1243 1.372 . S
C1243 C1242 1.372 . S
C1243 C1244 1.400 . S
C1243 C1248 1.490 . S
C1244 H1234 0.930 . S
C1244 C1243 1.400 . S
C1244 C1247 1.386 . S
H1245 C1261 0.930 . S
H1246 C1262 0.931 . S
C1247 H1235 0.929 . S
C1247 C1241 1.390 . S
C1247 C1244 1.386 . S
C1248 C1243 1.490 . S
C1248 C1250 1.395 . S
C1248 C1251 1.403 . S
H1249 C1255 0.930 . S
C1250 H1236 0.930 . S
C1250 C1248 1.395 . S
C1250 C1253 1.403 . S
C1251 C1248 1.403 . S
C1251 C1252 1.524 . S
C1251 C1255 1.400 . S
C1252 H1237 0.960 . S
C1252 H1238 0.960 . S
C1252 H1239 0.960 . S
C1252 C1251 1.524 . S
C1253 C1250 1.403 . S
C1253 C1254 1.392 . S
C1253 C1257 1.495 . S
C1254 C1253 1.392 . S
C1254 C1255 1.385 . S
C1254 C1256 1.478 . S
C1255 H1249 0.930 . S
C1255 C1251 1.400 . S
C1255 C1254 1.385 . S
C1256 C1254 1.478 . S
C1256 C1258 1.381 . S
C1256 C1262 1.383 . S
C1257 C1253 1.495 . S
C1257 H1263 0.959 . S
C1257 H1264 0.961 . S
C1257 H1265 0.960 . S
C1258 C1256 1.381 . S
C1258 C1259 1.394 . S
C1258 H1266 0.930 . S
C1259 C1258 1.394 . S
C1259 C1260 1.383 . S
C1259 H1267 0.929 . S
C1260 C1259 1.383 . S
C1260 C1261 1.377 . S
C1261 H1245 0.930 . S
C1261 C1260 1.377 . S
C1261 C1262 1.379 . S
C1262 H1246 0.931 . S
C1262 C1256 1.383 . S
C1262 C1261 1.379 . S
H1263 C1257 0.959 . S
H1264 C1257 0.961 . S
H1265 C1257 0.960 . S
H1266 C1258 0.930 . S
H1267 C1259 0.929 . S
C432 C332 1.522 . S
C413 C15 1.523 . S
C468 C335 1.475 . S
C449 C55 1.475 . S
C504 C333 1.542 . S
C485 C101 1.527 . S
C540 C334 1.492 . S
C521 C141 1.489 . S
C576 C349 1.495 . S
C557 C2 1.485 . S
C612 C363 1.496 . S
C593 C61 1.488 . S
C629 C95 1.520 . S
C648 C389 1.518 . S
C684 C403 1.499 . S
C665 C135 1.501 . S
C720 C348 1.482 . S
C701 C42 1.472 . S
C737 C82 1.508 . S
C756 C362 1.525 . S
C792 C388 1.510 . S
C773 C122 1.498 . S
C828 C402 1.530 . S
C809 C21 1.514 . S
C845 C162 1.484 . S
C864 C347 1.491 . S
C900 C320 1.534 . S
C881 C221 1.531 . S
C917 C255 1.478 . S
C936 C346 1.478 . S
C953 C282 1.506 . S
C972 C321 1.521 . S
C1008 C376 1.520 . S
C989 C181 1.515 . S
C1044 C390 1.521 . S
C1025 C202 1.510 . S
C1080 C360 1.489 . S
C1061 C242 1.485 . S
C1097 C301 1.514 . S
C1116 C374 1.518 . S
C1152 C377 1.513 . S
C1133 C215 1.522 . S
C1188 C391 1.499 . S
C1169 C261 1.504 . S
C1224 C361 1.499 . S
C1205 C295 1.501 . S
C1241 C175 1.499 . S
C1260 C375 1.490 . S
