# Generated by pormake.
# Topology iac, (4,6)-cn, num edge types: 1
# Building blocks:
#     Node 0, Type 0, BuildingBlock: AZAVOO_clean_sbu_0, # of connection points: 4
#     Node 1, Type 0, BuildingBlock: AZAVOO_clean_sbu_0, # of connection points: 4
#     Node 2, Type 0, BuildingBlock: AZAVOO_clean_sbu_0, # of connection points: 4
#     Node 3, Type 0, BuildingBlock: AZAVOO_clean_sbu_0, # of connection points: 4
#     Node 4, Type 0, BuildingBlock: AZAVOO_clean_sbu_0, # of connection points: 4
#     Node 5, Type 0, BuildingBlock: AZAVOO_clean_sbu_0, # of connection points: 4
#     Node 6, Type 0, BuildingBlock: AZAVOO_clean_sbu_0, # of connection points: 4
#     Node 7, Type 0, BuildingBlock: AZAVOO_clean_sbu_0, # of connection points: 4
#     Node 8, Type 0, BuildingBlock: AZAVOO_clean_sbu_0, # of connection points: 4
#     Node 9, Type 0, BuildingBlock: AZAVOO_clean_sbu_0, # of connection points: 4
#     Node 10, Type 0, BuildingBlock: AZAVOO_clean_sbu_0, # of connection points: 4
#     Node 11, Type 0, BuildingBlock: AZAVOO_clean_sbu_0, # of connection points: 4
#     Node 12, Type 0, BuildingBlock: AZAVOO_clean_sbu_0, # of connection points: 4
#     Node 13, Type 0, BuildingBlock: AZAVOO_clean_sbu_0, # of connection points: 4
#     Node 14, Type 0, BuildingBlock: AZAVOO_clean_sbu_0, # of connection points: 4
#     Node 15, Type 0, BuildingBlock: AZAVOO_clean_sbu_0, # of connection points: 4
#     Node 16, Type 0, BuildingBlock: AZAVOO_clean_sbu_0, # of connection points: 4
#     Node 17, Type 0, BuildingBlock: AZAVOO_clean_sbu_0, # of connection points: 4
#     Node 18, Type 0, BuildingBlock: AZAVOO_clean_sbu_0, # of connection points: 4
#     Node 19, Type 0, BuildingBlock: AZAVOO_clean_sbu_0, # of connection points: 4
#     Node 20, Type 0, BuildingBlock: AZAVOO_clean_sbu_0, # of connection points: 4
#     Node 21, Type 0, BuildingBlock: AZAVOO_clean_sbu_0, # of connection points: 4
#     Node 22, Type 0, BuildingBlock: AZAVOO_clean_sbu_0, # of connection points: 4
#     Node 23, Type 0, BuildingBlock: AZAVOO_clean_sbu_0, # of connection points: 4
#     Node 24, Type 1, BuildingBlock: FUNLAD_clean_sbu_0, # of connection points: 6
#     Node 25, Type 1, BuildingBlock: FUNLAD_clean_sbu_0, # of connection points: 6
#     Node 26, Type 1, BuildingBlock: FUNLAD_clean_sbu_0, # of connection points: 6
#     Node 27, Type 1, BuildingBlock: FUNLAD_clean_sbu_0, # of connection points: 6
#     Node 28, Type 1, BuildingBlock: FUNLAD_clean_sbu_0, # of connection points: 6
#     Node 29, Type 1, BuildingBlock: FUNLAD_clean_sbu_0, # of connection points: 6
#     Node 30, Type 1, BuildingBlock: FUNLAD_clean_sbu_0, # of connection points: 6
#     Node 31, Type 1, BuildingBlock: FUNLAD_clean_sbu_0, # of connection points: 6
#     Node 32, Type 1, BuildingBlock: FUNLAD_clean_sbu_0, # of connection points: 6
#     Node 33, Type 1, BuildingBlock: FUNLAD_clean_sbu_0, # of connection points: 6
#     Node 34, Type 1, BuildingBlock: FUNLAD_clean_sbu_0, # of connection points: 6
#     Node 35, Type 1, BuildingBlock: FUNLAD_clean_sbu_0, # of connection points: 6
#     Node 36, Type 1, BuildingBlock: FUNLAD_clean_sbu_0, # of connection points: 6
#     Node 37, Type 1, BuildingBlock: FUNLAD_clean_sbu_0, # of connection points: 6
#     Node 38, Type 1, BuildingBlock: FUNLAD_clean_sbu_0, # of connection points: 6
#     Node 39, Type 1, BuildingBlock: FUNLAD_clean_sbu_0, # of connection points: 6
#     Edge 40, Type (0, 1), BuildingBlock: UVAHIK_clean_linker_0, # of connection points: 2
#     Edge 41, Type (0, 1), BuildingBlock: UVAHIK_clean_linker_0, # of connection points: 2
#     Edge 42, Type (0, 1), BuildingBlock: UVAHIK_clean_linker_0, # of connection points: 2
#     Edge 43, Type (0, 1), BuildingBlock: UVAHIK_clean_linker_0, # of connection points: 2
#     Edge 44, Type (0, 1), BuildingBlock: UVAHIK_clean_linker_0, # of connection points: 2
#     Edge 45, Type (0, 1), BuildingBlock: UVAHIK_clean_linker_0, # of connection points: 2
#     Edge 46, Type (0, 1), BuildingBlock: UVAHIK_clean_linker_0, # of connection points: 2
#     Edge 47, Type (0, 1), BuildingBlock: UVAHIK_clean_linker_0, # of connection points: 2
#     Edge 48, Type (0, 1), BuildingBlock: UVAHIK_clean_linker_0, # of connection points: 2
#     Edge 49, Type (0, 1), BuildingBlock: UVAHIK_clean_linker_0, # of connection points: 2
#     Edge 50, Type (0, 1), BuildingBlock: UVAHIK_clean_linker_0, # of connection points: 2
#     Edge 51, Type (0, 1), BuildingBlock: UVAHIK_clean_linker_0, # of connection points: 2
#     Edge 52, Type (0, 1), BuildingBlock: UVAHIK_clean_linker_0, # of connection points: 2
#     Edge 53, Type (0, 1), BuildingBlock: UVAHIK_clean_linker_0, # of connection points: 2
#     Edge 54, Type (0, 1), BuildingBlock: UVAHIK_clean_linker_0, # of connection points: 2
#     Edge 55, Type (0, 1), BuildingBlock: UVAHIK_clean_linker_0, # of connection points: 2
#     Edge 56, Type (0, 1), BuildingBlock: UVAHIK_clean_linker_0, # of connection points: 2
#     Edge 57, Type (0, 1), BuildingBlock: UVAHIK_clean_linker_0, # of connection points: 2
#     Edge 58, Type (0, 1), BuildingBlock: UVAHIK_clean_linker_0, # of connection points: 2
#     Edge 59, Type (0, 1), BuildingBlock: UVAHIK_clean_linker_0, # of connection points: 2
#     Edge 60, Type (0, 1), BuildingBlock: UVAHIK_clean_linker_0, # of connection points: 2
#     Edge 61, Type (0, 1), BuildingBlock: UVAHIK_clean_linker_0, # of connection points: 2
#     Edge 62, Type (0, 1), BuildingBlock: UVAHIK_clean_linker_0, # of connection points: 2
#     Edge 63, Type (0, 1), BuildingBlock: UVAHIK_clean_linker_0, # of connection points: 2
#     Edge 64, Type (0, 1), BuildingBlock: UVAHIK_clean_linker_0, # of connection points: 2
#     Edge 65, Type (0, 1), BuildingBlock: UVAHIK_clean_linker_0, # of connection points: 2
#     Edge 66, Type (0, 1), BuildingBlock: UVAHIK_clean_linker_0, # of connection points: 2
#     Edge 67, Type (0, 1), BuildingBlock: UVAHIK_clean_linker_0, # of connection points: 2
#     Edge 68, Type (0, 1), BuildingBlock: UVAHIK_clean_linker_0, # of connection points: 2
#     Edge 69, Type (0, 1), BuildingBlock: UVAHIK_clean_linker_0, # of connection points: 2
#     Edge 70, Type (0, 1), BuildingBlock: UVAHIK_clean_linker_0, # of connection points: 2
#     Edge 71, Type (0, 1), BuildingBlock: UVAHIK_clean_linker_0, # of connection points: 2
#     Edge 72, Type (0, 1), BuildingBlock: UVAHIK_clean_linker_0, # of connection points: 2
#     Edge 73, Type (0, 1), BuildingBlock: UVAHIK_clean_linker_0, # of connection points: 2
#     Edge 74, Type (0, 1), BuildingBlock: UVAHIK_clean_linker_0, # of connection points: 2
#     Edge 75, Type (0, 1), BuildingBlock: UVAHIK_clean_linker_0, # of connection points: 2
#     Edge 76, Type (0, 1), BuildingBlock: UVAHIK_clean_linker_0, # of connection points: 2
#     Edge 77, Type (0, 1), BuildingBlock: UVAHIK_clean_linker_0, # of connection points: 2
#     Edge 78, Type (0, 1), BuildingBlock: UVAHIK_clean_linker_0, # of connection points: 2
#     Edge 79, Type (0, 1), BuildingBlock: UVAHIK_clean_linker_0, # of connection points: 2
#     Edge 80, Type (0, 1), BuildingBlock: UVAHIK_clean_linker_0, # of connection points: 2
#     Edge 81, Type (0, 1), BuildingBlock: UVAHIK_clean_linker_0, # of connection points: 2
#     Edge 82, Type (0, 1), BuildingBlock: UVAHIK_clean_linker_0, # of connection points: 2
#     Edge 83, Type (0, 1), BuildingBlock: UVAHIK_clean_linker_0, # of connection points: 2
#     Edge 84, Type (0, 1), BuildingBlock: UVAHIK_clean_linker_0, # of connection points: 2
#     Edge 85, Type (0, 1), BuildingBlock: UVAHIK_clean_linker_0, # of connection points: 2
#     Edge 86, Type (0, 1), BuildingBlock: UVAHIK_clean_linker_0, # of connection points: 2
#     Edge 87, Type (0, 1), BuildingBlock: UVAHIK_clean_linker_0, # of connection points: 2
#     Edge 88, Type (0, 1), BuildingBlock: UVAHIK_clean_linker_0, # of connection points: 2
#     Edge 89, Type (0, 1), BuildingBlock: UVAHIK_clean_linker_0, # of connection points: 2
#     Edge 90, Type (0, 1), BuildingBlock: UVAHIK_clean_linker_0, # of connection points: 2
#     Edge 91, Type (0, 1), BuildingBlock: UVAHIK_clean_linker_0, # of connection points: 2
#     Edge 92, Type (0, 1), BuildingBlock: UVAHIK_clean_linker_0, # of connection points: 2
#     Edge 93, Type (0, 1), BuildingBlock: UVAHIK_clean_linker_0, # of connection points: 2
#     Edge 94, Type (0, 1), BuildingBlock: UVAHIK_clean_linker_0, # of connection points: 2
#     Edge 95, Type (0, 1), BuildingBlock: UVAHIK_clean_linker_0, # of connection points: 2
#     Edge 96, Type (0, 1), BuildingBlock: UVAHIK_clean_linker_0, # of connection points: 2
#     Edge 97, Type (0, 1), BuildingBlock: UVAHIK_clean_linker_0, # of connection points: 2
#     Edge 98, Type (0, 1), BuildingBlock: UVAHIK_clean_linker_0, # of connection points: 2
#     Edge 99, Type (0, 1), BuildingBlock: UVAHIK_clean_linker_0, # of connection points: 2
#     Edge 100, Type (0, 1), BuildingBlock: UVAHIK_clean_linker_0, # of connection points: 2
#     Edge 101, Type (0, 1), BuildingBlock: UVAHIK_clean_linker_0, # of connection points: 2
#     Edge 102, Type (0, 1), BuildingBlock: UVAHIK_clean_linker_0, # of connection points: 2
#     Edge 103, Type (0, 1), BuildingBlock: UVAHIK_clean_linker_0, # of connection points: 2
#     Edge 104, Type (0, 1), BuildingBlock: UVAHIK_clean_linker_0, # of connection points: 2
#     Edge 105, Type (0, 1), BuildingBlock: UVAHIK_clean_linker_0, # of connection points: 2
#     Edge 106, Type (0, 1), BuildingBlock: UVAHIK_clean_linker_0, # of connection points: 2
#     Edge 107, Type (0, 1), BuildingBlock: UVAHIK_clean_linker_0, # of connection points: 2
#     Edge 108, Type (0, 1), BuildingBlock: UVAHIK_clean_linker_0, # of connection points: 2
#     Edge 109, Type (0, 1), BuildingBlock: UVAHIK_clean_linker_0, # of connection points: 2
#     Edge 110, Type (0, 1), BuildingBlock: UVAHIK_clean_linker_0, # of connection points: 2
#     Edge 111, Type (0, 1), BuildingBlock: UVAHIK_clean_linker_0, # of connection points: 2
#     Edge 112, Type (0, 1), BuildingBlock: UVAHIK_clean_linker_0, # of connection points: 2
#     Edge 113, Type (0, 1), BuildingBlock: UVAHIK_clean_linker_0, # of connection points: 2
#     Edge 114, Type (0, 1), BuildingBlock: UVAHIK_clean_linker_0, # of connection points: 2
#     Edge 115, Type (0, 1), BuildingBlock: UVAHIK_clean_linker_0, # of connection points: 2
#     Edge 116, Type (0, 1), BuildingBlock: UVAHIK_clean_linker_0, # of connection points: 2
#     Edge 117, Type (0, 1), BuildingBlock: UVAHIK_clean_linker_0, # of connection points: 2
#     Edge 118, Type (0, 1), BuildingBlock: UVAHIK_clean_linker_0, # of connection points: 2
#     Edge 119, Type (0, 1), BuildingBlock: UVAHIK_clean_linker_0, # of connection points: 2
#     Edge 120, Type (0, 1), BuildingBlock: UVAHIK_clean_linker_0, # of connection points: 2
#     Edge 121, Type (0, 1), BuildingBlock: UVAHIK_clean_linker_0, # of connection points: 2
#     Edge 122, Type (0, 1), BuildingBlock: UVAHIK_clean_linker_0, # of connection points: 2
#     Edge 123, Type (0, 1), BuildingBlock: UVAHIK_clean_linker_0, # of connection points: 2
#     Edge 124, Type (0, 1), BuildingBlock: UVAHIK_clean_linker_0, # of connection points: 2
#     Edge 125, Type (0, 1), BuildingBlock: UVAHIK_clean_linker_0, # of connection points: 2
#     Edge 126, Type (0, 1), BuildingBlock: UVAHIK_clean_linker_0, # of connection points: 2
#     Edge 127, Type (0, 1), BuildingBlock: UVAHIK_clean_linker_0, # of connection points: 2
#     Edge 128, Type (0, 1), BuildingBlock: UVAHIK_clean_linker_0, # of connection points: 2
#     Edge 129, Type (0, 1), BuildingBlock: UVAHIK_clean_linker_0, # of connection points: 2
#     Edge 130, Type (0, 1), BuildingBlock: UVAHIK_clean_linker_0, # of connection points: 2
#     Edge 131, Type (0, 1), BuildingBlock: UVAHIK_clean_linker_0, # of connection points: 2
#     Edge 132, Type (0, 1), BuildingBlock: UVAHIK_clean_linker_0, # of connection points: 2
#     Edge 133, Type (0, 1), BuildingBlock: UVAHIK_clean_linker_0, # of connection points: 2
#     Edge 134, Type (0, 1), BuildingBlock: UVAHIK_clean_linker_0, # of connection points: 2
#     Edge 135, Type (0, 1), BuildingBlock: UVAHIK_clean_linker_0, # of connection points: 2
# Relax obj value: 0.337
# Max RMSD: 0.265
# Mean RMSD: 0.185
data_MOF--net-iac--node1-AZAVOO_clean_sbu_0--node2-FUNLAD_clean_sbu_0--edge1-UVAHIK_clean_linker_0
_symmetry_space_group_name_H-M    P1
_symmetry_Int_Tables_number       1
_symmetry_cell_setting            triclinic
loop_
_symmetry_equiv_pos_as_xyz
'x, y, z'
_cell_length_a     71.537018
_cell_length_b     66.723927
_cell_length_c     73.300107
_cell_angle_alpha  92.219874
_cell_angle_beta   91.959311
_cell_angle_gamma 91.181188
loop_
_atom_site_label
_atom_site_type_symbol
_atom_site_fract_x
_atom_site_fract_y
_atom_site_fract_z
_atom_type_partial_charge
Mg0 Mg 0.97941 0.27046 0.20644 0.0
O1 O 0.97651 0.25228 0.17931 0.0
O2 O 0.94632 0.24767 0.17104 0.0
Mg3 Mg 0.93013 0.26514 0.19243 0.0
C4 C 0.96365 0.24504 0.16831 0.0
C5 C 0.01986 0.26049 0.19685 0.0
O6 O 0.01265 0.24228 0.19758 0.0
O7 O 0.97297 0.29826 0.19154 0.0
O8 O 0.94338 0.2939 0.18119 0.0
O9 O 0.978 0.24237 0.2213 0.0
O10 O 0.95323 0.25971 0.21267 0.0
C11 C 0.95877 0.30399 0.18242 0.0
C12 C 0.96001 0.24357 0.21928 0.0
O13 O 0.00994 0.27546 0.20092 0.0
Mg14 Mg 0.01459 0.75194 0.38067 0.0
O15 O 0.01235 0.78017 0.39967 0.0
O16 O 0.98615 0.77596 0.41503 0.0
Mg17 Mg 0.97151 0.74655 0.40569 0.0
C18 C 0.0008 0.78617 0.41155 0.0
C19 C 0.04907 0.77328 0.36456 0.0
O20 O 0.03578 0.78501 0.35877 0.0
O21 O 0.02294 0.73339 0.40486 0.0
O22 O -0.00411 0.72968 0.41895 0.0
O23 O -0.00162 0.76621 0.35847 0.0
O24 O 0.98573 0.74814 0.37966 0.0
C25 C 0.01333 0.72636 0.4176 0.0
C26 C 0.9835 0.75904 0.36565 0.0
O27 O 0.04493 0.75913 0.37491 0.0
Mg28 Mg 0.5161 0.75907 0.7001 0.0
O29 O 0.50624 0.7383 0.67632 0.0
O30 O 0.47528 0.73937 0.6718 0.0
Mg31 Mg 0.46575 0.76314 0.69277 0.0
C32 C 0.49122 0.73261 0.66762 0.0
C33 C 0.55386 0.73998 0.6869 0.0
O34 O 0.54623 0.72274 0.69103 0.0
O35 O 0.51257 0.78494 0.68184 0.0
O36 O 0.48175 0.78689 0.67666 0.0
O37 O 0.51091 0.7346 0.71919 0.0
O38 O 0.49015 0.7572 0.71118 0.0
C39 C 0.49852 0.79288 0.6741 0.0
C40 C 0.49402 0.74122 0.71976 0.0
O41 O 0.5454 0.75619 0.69013 0.0
Mg42 Mg 0.5043 0.25203 0.87529 0.0
O43 O 0.502 0.27904 0.8955 0.0
O44 O 0.47641 0.27329 0.91136 0.0
Mg45 Mg 0.46193 0.24409 0.90044 0.0
C46 C 0.49074 0.28409 0.90797 0.0
C47 C 0.53709 0.2573 0.85211 0.0
O48 O 0.52287 0.25154 0.8412 0.0
O49 O 0.5134 0.23219 0.89825 0.0
O50 O 0.48658 0.22582 0.91188 0.0
O51 O 0.48783 0.26745 0.85416 0.0
O52 O 0.47545 0.2476 0.87417 0.0
C53 C 0.50412 0.22325 0.91021 0.0
C54 C 0.47307 0.25922 0.86067 0.0
O55 O 0.53434 0.25992 0.86907 0.0
Mg56 Mg 0.1454 0.98041 0.27733 0.0
O57 O 0.15789 0.01223 0.27684 0.0
O58 O 0.17827 0.017 0.30046 0.0
Mg59 Mg 0.17903 0.98806 0.31596 0.0
C60 C 0.16964 0.02327 0.28634 0.0
C61 C 0.12259 -0.00126 0.24647 0.0
O62 O 0.12 0.01119 0.26044 0.0
O63 O 0.17238 0.96795 0.26666 0.0
O64 O 0.1917 0.97182 0.29122 0.0
O65 O 0.12325 0.99178 0.29499 0.0
O66 O 0.15037 0.98076 0.30552 0.0
C67 C 0.18833 0.96586 0.27462 0.0
C68 C 0.13487 0.9896 0.30865 0.0
O69 O 0.13302 0.98377 0.24868 0.0
Mg70 Mg 0.28194 0.89067 0.54731 0.0
O71 O 0.28701 0.87434 0.51961 0.0
O72 O 0.31576 0.8619 0.52204 0.0
Mg73 Mg 0.32881 0.87003 0.55019 0.0
C74 C 0.30053 0.8645 0.51293 0.0
C75 C 0.23998 0.89102 0.5544 0.0
O76 O 0.24715 0.88566 0.57017 0.0
O77 O 0.27789 0.86061 0.56005 0.0
O78 O 0.30694 0.84918 0.56278 0.0
O79 O 0.29398 0.91907 0.53754 0.0
O80 O 0.31043 0.89602 0.55134 0.0
C81 C 0.28936 0.84738 0.56511 0.0
C82 C 0.31011 0.91277 0.54313 0.0
O83 O 0.25076 0.89315 0.54114 0.0
Mg84 Mg 0.38735 0.01147 0.75303 0.0
O85 O 0.36934 0.98229 0.75071 0.0
O86 O 0.35315 0.98187 0.77635 0.0
Mg87 Mg 0.36123 0.00891 0.79493 0.0
C88 C 0.3573 0.9742 0.76081 0.0
C89 C 0.40394 0.99496 0.71732 0.0
O90 O 0.40718 0.98012 0.72819 0.0
O91 O 0.36158 0.02971 0.74745 0.0
O92 O 0.34654 0.02836 0.77367 0.0
O93 O 0.41058 -0.00447 0.76618 0.0
O94 O 0.38811 0.01028 0.78133 0.0
C95 C 0.3479 0.0343 0.75739 0.0
C96 C 0.40283 -0.00057 0.78157 0.0
O97 O 0.39432 0.00955 0.72304 0.0
Mg98 Mg 0.31299 0.07628 0.96999 0.0
O99 O 0.29812 0.08885 0.99547 0.0
O100 O 0.31661 0.11504 0.00508 0.0
Mg101 Mg 0.3431 0.11741 0.98905 0.0
C102 C 0.30177 0.1042 0.00613 0.0
C103 C 0.27117 0.05403 0.96171 0.0
O104 O 0.2616 0.04059 0.95144 0.0
O105 O 0.30379 0.10364 0.95497 0.0
O106 O 0.3236 0.1279 0.96585 0.0
O107 O 0.32882 0.05455 0.98637 0.0
O108 O 0.33844 0.08557 0.98197 0.0
C109 C 0.30992 0.12174 0.9553 0.0
C110 C 0.34116 0.06881 0.98969 0.0
O111 O 0.28805 0.05775 0.95797 0.0
Mg112 Mg 0.78159 0.3989 0.04853 0.0
O113 O 0.78321 0.37705 0.02361 0.0
O114 O 0.80913 0.35931 0.02786 0.0
Mg115 Mg 0.8242 0.37039 0.05445 0.0
C116 C 0.79444 0.36344 0.01846 0.0
C117 C 0.74088 0.40697 0.05626 0.0
O118 O 0.74861 0.4049 0.07258 0.0
O119 O 0.77355 0.37324 0.06606 0.0
O120 O 0.80009 0.3569 0.07072 0.0
O121 O 0.79723 0.42166 0.0337 0.0
O122 O 0.81048 0.39948 0.0515 0.0
C123 C 0.78266 0.35922 0.07331 0.0
C124 C 0.81229 0.4136 0.0401 0.0
O125 O 0.75094 0.40499 0.04236 0.0
Mg126 Mg 0.89155 0.52101 0.2475 0.0
O127 O 0.87382 0.49206 0.25102 0.0
O128 O 0.8648 0.49398 0.28 0.0
Mg129 Mg 0.87684 0.52209 0.29478 0.0
C130 C 0.86492 0.48502 0.2643 0.0
C131 C 0.89881 0.50214 0.20952 0.0
O132 O 0.90441 0.48788 0.22018 0.0
O133 O 0.86541 0.53954 0.24711 0.0
O134 O 0.85746 0.54046 0.27639 0.0
O135 O 0.91727 0.50542 0.25576 0.0
O136 O 0.8993 0.52166 0.27505 0.0
C137 C 0.85475 0.54523 0.25981 0.0
C138 C 0.91351 0.51043 0.27244 0.0
O139 O 0.89077 0.51718 0.21661 0.0
Mg140 Mg 0.78641 0.602 0.51817 0.0
O141 O 0.8108 0.62121 0.52949 0.0
O142 O 0.83482 0.62215 0.51088 0.0
Mg143 Mg 0.82506 0.60113 0.48655 0.0
C144 C 0.82718 0.62723 0.52578 0.0
C145 C 0.75297 0.61453 0.54563 0.0
O146 O 0.74766 0.62482 0.56012 0.0
O147 O 0.77893 0.62596 0.49789 0.0
O148 O 0.80213 0.62304 0.47833 0.0
O149 O 0.79947 0.57641 0.53185 0.0
O150 O 0.80533 0.58461 0.50361 0.0
C151 C 0.78685 0.63083 0.48331 0.0
C152 C 0.80944 0.57411 0.51753 0.0
O153 O 0.76956 0.6172 0.54043 0.0
Mg154 Mg 0.64531 0.4943 0.76232 0.0
O155 O 0.66587 0.52094 0.75904 0.0
O156 O 0.68542 0.52181 0.78356 0.0
Mg157 Mg 0.67744 0.49692 0.80237 0.0
C158 C 0.67988 0.52866 0.76831 0.0
C159 C 0.63203 0.51092 0.72431 0.0
O160 O 0.63746 0.52818 0.73216 0.0
O161 O 0.66821 0.47256 0.75488 0.0
O162 O 0.68623 0.47389 0.78042 0.0
O163 O 0.62587 0.51396 0.77744 0.0
O164 O 0.64889 0.49755 0.79052 0.0
C165 C 0.68233 0.4668 0.76426 0.0
C166 C 0.63549 0.51004 0.79211 0.0
O167 O 0.63429 0.49487 0.73283 0.0
Mg168 Mg 0.97428 0.8105 0.88159 0.0
O169 O 0.98102 0.83638 0.90223 0.0
O170 O 0.95717 0.83773 0.92112 0.0
Mg171 Mg 0.93424 0.81512 0.91101 0.0
C172 C 0.97323 0.84384 0.91628 0.0
C173 C 0.01164 0.82547 0.86591 0.0
O174 O 0.00246 0.84233 0.86618 0.0
O175 O 0.97988 0.78824 0.90375 0.0
O176 O 0.95344 0.78958 0.91922 0.0
O177 O 0.9599 0.83031 0.86194 0.0
O178 O 0.94593 0.8146 0.8838 0.0
C179 C 0.96933 0.78194 0.91613 0.0
C180 C 0.94467 0.82619 0.87023 0.0
O181 O 0.0042 0.81 0.87248 0.0
Mg182 Mg -0.00312 0.27642 0.65655 0.0
O183 O -0.00129 0.24497 0.64321 0.0
O184 O 0.97229 0.23841 0.62677 0.0
Mg185 Mg 0.95348 0.26554 0.63 0.0
C186 C 0.98845 0.23334 0.63268 0.0
C187 C 0.03479 0.27993 0.67867 0.0
O188 O 0.0232 0.28341 0.69189 0.0
O189 O 0.00127 0.29043 0.62939 0.0
O190 O 0.97399 0.28494 0.6141 0.0
O191 O 0.98396 0.26372 0.68085 0.0
O192 O 0.96788 0.2735 0.65658 0.0
C193 C 0.99059 0.29246 0.61532 0.0
C194 C 0.96797 0.26533 0.67225 0.0
O195 O 0.02822 0.27656 0.6625 0.0
Mg196 Mg 0.4667 0.28283 0.37942 0.0
O197 O 0.45929 0.31306 0.39228 0.0
O198 O 0.43193 0.31017 0.40574 0.0
Mg199 Mg 0.42062 0.27823 0.39922 0.0
C200 C 0.44643 0.32044 0.40192 0.0
C201 C 0.49884 0.30886 0.36601 0.0
O202 O 0.48425 0.31618 0.35741 0.0
O203 O 0.47288 0.27188 0.40791 0.0
O204 O 0.44411 0.26719 0.41829 0.0
O205 O 0.45248 0.28922 0.35286 0.0
O206 O 0.43865 0.27476 0.37557 0.0
C207 C 0.46191 0.26622 0.4202 0.0
C208 C 0.43748 0.2815 0.35936 0.0
O209 O 0.49642 0.29461 0.37677 0.0
Mg210 Mg 0.5026 0.77501 0.15983 0.0
O211 O 0.50425 0.74593 0.14218 0.0
O212 O 0.47878 0.74376 0.12366 0.0
Mg213 Mg 0.46114 0.77135 0.12936 0.0
C214 C 0.49421 0.73677 0.12961 0.0
C215 C 0.54224 0.78783 0.17458 0.0
O216 O 0.53384 0.80515 0.17536 0.0
O217 O 0.51023 0.79361 0.13586 0.0
O218 O 0.48411 0.79201 0.11822 0.0
O219 O 0.4871 0.75888 0.18068 0.0
O220 O 0.4735 0.77376 0.15742 0.0
C221 C 0.50086 0.79849 0.12166 0.0
C222 C 0.47193 0.76291 0.17151 0.0
O223 O 0.53311 0.77233 0.16849 0.0
Mg224 Mg 0.89005 0.0175 0.80701 0.0
O225 O 0.88198 0.98468 0.80893 0.0
O226 O 0.86852 0.97985 0.83543 0.0
Mg227 Mg 0.87087 0.00996 0.8517 0.0
C228 C 0.87379 0.97334 0.81987 0.0
C229 C 0.89813 0.02532 0.76642 0.0
O230 O 0.90222 0.0433 0.77359 0.0
O231 O 0.85954 0.02515 0.80364 0.0
O232 O 0.8488 0.02273 0.83179 0.0
O233 O 0.91845 0.01251 0.81883 0.0
O234 O 0.89402 0.02081 0.83502 0.0
C235 C 0.84647 0.0269 0.81498 0.0
C236 C 0.91148 0.01644 0.83463 0.0
O237 O 0.89244 0.01174 0.77665 0.0
Mg238 Mg 0.78357 0.11181 0.47667 0.0
O239 O 0.78152 0.12561 0.50538 0.0
O240 O 0.80603 0.1462 0.51187 0.0
Mg241 Mg 0.82479 0.14414 0.48716 0.0
C242 C 0.7906 0.13801 0.51615 0.0
C243 C 0.74867 0.08455 0.48196 0.0
O244 O 0.76201 0.07141 0.48339 0.0
O245 O 0.77609 0.1416 0.46451 0.0
O246 O 0.80219 0.16011 0.47039 0.0
O247 O 0.79949 0.08652 0.4879 0.0
O248 O 0.81265 0.11438 0.47851 0.0
C249 C 0.7856 0.15791 0.46346 0.0
C250 C 0.81447 0.09731 0.48592 0.0
O251 O 0.75294 0.10248 0.47825 0.0
Mg252 Mg 0.64263 0.99289 0.2996 0.0
O253 O 0.64984 0.02565 0.30641 0.0
O254 O 0.66037 0.02966 0.33532 0.0
Mg255 Mg 0.6586 -0.00155 0.34736 0.0
C256 C 0.65616 0.03676 0.31983 0.0
C257 C 0.63342 0.01399 0.26365 0.0
O258 O 0.62184 0.02314 0.27454 0.0
O259 O 0.6733 0.98573 0.29953 0.0
O260 O 0.68213 0.98681 0.32909 0.0
O261 O 0.61354 -0.00204 0.30774 0.0
O262 O 0.63635 0.98896 0.32671 0.0
C263 C 0.6856 0.98354 0.31225 0.0
C264 C 0.61931 0.99455 0.32426 0.0
O265 O 0.64339 2e-05 0.26972 0.0
Mg266 Mg 0.76904 0.872 0.02728 0.0
O267 O 0.76597 0.86809 -0.00371 0.0
O268 O 0.79452 0.87134 0.98513 0.0
Mg269 Mg 0.81558 0.87975 0.00865 0.0
C270 C 0.77692 0.86799 0.98291 0.0
C271 C 0.72472 0.85723 0.02403 0.0
O272 O 0.71202 0.84312 0.02622 0.0
O273 O 0.78352 0.84233 0.02874 0.0
O274 O 0.81281 0.84823 0.02043 0.0
O275 O 0.76519 0.9057 0.02667 0.0
O276 O 0.79219 0.89077 0.02472 0.0
C277 C 0.80024 0.83664 0.02657 0.0
C278 C 0.78304 0.90705 0.02468 0.0
O279 O 0.74133 0.85467 0.03008 0.0
Mg280 Mg 0.27902 0.61924 0.97251 0.0
O281 O 0.27755 0.6348 0.00051 0.0
O282 O 0.30258 0.65492 0.00596 0.0
Mg283 Mg 0.32122 0.65066 0.98132 0.0
C284 C 0.28696 0.64753 0.01065 0.0
C285 C 0.24455 0.59218 0.97804 0.0
O286 O 0.25809 0.57919 0.9778 0.0
O287 O 0.27205 0.64855 0.95898 0.0
O288 O 0.29897 0.66593 0.96369 0.0
O289 O 0.29453 0.59424 0.98485 0.0
O290 O 0.30819 0.62105 0.97399 0.0
C291 C 0.28226 0.6642 0.95696 0.0
C292 C 0.30971 0.6044 0.98215 0.0
O293 O 0.24835 0.61042 0.97502 0.0
Mg294 Mg 0.15955 0.4708 0.79816 0.0
O295 O 0.16562 0.5042 0.80118 0.0
O296 O 0.18011 0.51176 0.82804 0.0
Mg297 Mg 0.18236 0.482 0.8427 0.0
C298 C 0.17324 0.51692 0.81266 0.0
C299 C 0.14029 0.46464 0.76029 0.0
O300 O 0.13166 0.45085 0.76941 0.0
O301 O 0.19007 0.46582 0.79366 0.0
O302 O 0.20346 0.47033 0.82159 0.0
O303 O 0.13221 0.47534 0.81015 0.0
O304 O 0.1581 0.46911 0.82631 0.0
C305 C 0.20437 0.46586 0.80452 0.0
C306 C 0.14065 0.47372 0.82592 0.0
O307 O 0.15358 0.47487 0.76817 0.0
Mg308 Mg 0.25531 0.37505 0.52267 0.0
O309 O 0.25108 0.37484 0.49172 0.0
O310 O 0.27833 0.38332 0.47979 0.0
Mg311 Mg 0.29943 0.39164 0.50334 0.0
C312 C 0.26112 0.37783 0.47799 0.0
C313 C 0.21245 0.35736 0.52092 0.0
O314 O 0.20044 0.3422 0.52094 0.0
O315 O 0.27302 0.34752 0.52003 0.0
O316 O 0.30095 0.35852 0.51137 0.0
O317 O 0.24745 0.40765 0.52604 0.0
O318 O 0.27592 0.39706 0.52143 0.0
C319 C 0.29009 0.34451 0.51649 0.0
C320 C 0.2649 0.4118 0.52362 0.0
O321 O 0.22964 0.35428 0.52437 0.0
Mg322 Mg 0.3659 0.51103 0.29394 0.0
O323 O 0.35703 0.47847 0.28909 0.0
O324 O 0.34093 0.46831 0.31265 0.0
Mg325 Mg 0.34162 0.49466 0.33391 0.0
C326 C 0.34764 0.46509 0.29691 0.0
C327 C 0.3871 0.52193 0.26012 0.0
O328 O 0.39571 0.53318 0.27306 0.0
O329 O 0.3359 0.52017 0.28871 0.0
O330 O 0.32266 0.51307 0.31504 0.0
O331 O 0.39271 0.50286 0.30762 0.0
O332 O 0.36656 0.50833 0.32206 0.0
C333 C 0.32203 0.52057 0.29923 0.0
C334 C 0.38396 0.50373 0.3228 0.0
O335 O 0.37284 0.51156 0.26408 0.0
C336 C 0.01274 0.05547 0.00239 0.0
N337 N 0.98281 0.03583 0.04652 0.0
C338 C 0.96896 0.04624 0.03827 0.0
C339 C 0.9503 0.04014 0.03939 0.0
C340 C 0.94562 0.02337 0.04948 0.0
C341 C 0.9602 0.01347 0.05859 0.0
C342 C 0.97877 0.01984 0.05676 0.0
Zn343 Zn 0.00994 0.04401 0.04176 0.0
C344 C 0.03128 0.00977 0.027 0.0
N345 N 0.06546 0.06213 0.02906 0.0
C346 C 0.06906 0.07883 0.01955 0.0
C347 C 0.07959 0.05163 0.03676 0.0
C348 C 0.09814 0.05813 0.0355 0.0
C349 C 0.10224 0.07542 0.02597 0.0
C350 C 0.08748 0.08567 0.01768 0.0
Zn351 Zn 0.03847 0.05358 0.03376 0.0
O352 O 0.00203 0.04923 0.0145 0.0
C353 C 0.0163 0.08765 0.04807 0.0
O354 O 0.0299 0.05918 0.00648 0.0
H355 H 0.07647 0.03833 0.04417 0.0
H356 H 0.97239 0.05904 0.03031 0.0
H357 H 0.05762 0.08705 0.01368 0.0
O358 O 0.00419 0.07363 0.04911 0.0
O359 O 0.03245 0.0837 0.04234 0.0
H360 H 0.98998 0.01178 0.06325 0.0
O361 O 0.04661 0.04751 0.06098 0.0
O362 O 0.01843 0.03868 0.06898 0.0
O363 O 0.04378 0.02333 0.02515 0.0
O364 O 0.01591 0.0144 0.03407 0.0
C365 C 0.03573 0.04142 0.07304 0.0
H366 H 0.93978 0.04816 0.03182 0.0
H367 H 0.9574 0.00075 0.06689 0.0
H368 H 0.1092 0.04965 0.04182 0.0
H369 H 0.09014 0.09906 0.0102 0.0
C370 C 0.29129 0.73871 0.24544 0.0
N371 N 0.23885 0.73664 0.21848 0.0
C372 C 0.24851 0.74515 0.20501 0.0
C373 C 0.24462 0.73952 0.1868 0.0
C374 C 0.23054 0.72504 0.18222 0.0
C375 C 0.22007 0.71727 0.19635 0.0
C376 C 0.22453 0.72328 0.21452 0.0
Zn377 Zn 0.24895 0.74251 0.24455 0.0
C378 C 0.25207 0.70545 0.26536 0.0
N379 N 0.27344 0.75494 0.29768 0.0
C380 C 0.2881 0.76814 0.30052 0.0
C381 C 0.26394 0.74779 0.31191 0.0
C382 C 0.26842 0.75472 0.32976 0.0
C383 C 0.28284 0.76915 0.33303 0.0
C384 C 0.29308 0.77544 0.31817 0.0
Zn385 Zn 0.26314 0.74848 0.27173 0.0
O386 O 0.27646 0.73775 0.23536 0.0
C387 C 0.25999 0.78539 0.25038 0.0
O388 O 0.29014 0.74279 0.26243 0.0
H389 H 0.25224 0.73742 0.30935 0.0
H390 H 0.25994 0.75562 0.20841 0.0
H391 H 0.29545 0.77365 0.28901 0.0
O392 O 0.25165 0.77306 0.23912 0.0
O393 O 0.26643 0.7792 0.26548 0.0
H394 H 0.21706 0.71668 0.22547 0.0
O395 O 0.23613 0.75437 0.28069 0.0
O396 O 0.22164 0.74745 0.25426 0.0
O397 O 0.25958 0.71758 0.27744 0.0
O398 O 0.24644 0.71202 0.25015 0.0
C399 C 0.22104 0.7529 0.27105 0.0
H400 H 0.25339 0.74567 0.17654 0.0
H401 H 0.20895 0.70623 0.19347 0.0
H402 H 0.26001 0.74959 0.34073 0.0
H403 H 0.3045 0.78631 0.32011 0.0
C404 C 0.52034 0.02385 0.56596 0.0
N405 N 0.53571 0.97635 0.53176 0.0
C406 C 0.54741 0.97129 0.54576 0.0
C407 C 0.54835 0.95142 0.55081 0.0
C408 C 0.53709 0.93666 0.54139 0.0
C409 C 0.52642 0.94204 0.52597 0.0
C410 C 0.52594 0.96213 0.52136 0.0
Zn411 Zn 0.52953 0.00577 0.52959 0.0
C412 C 0.48799 0.01001 0.52487 0.0
N413 N 0.5145 0.06678 0.52655 0.0
C414 C 0.52385 0.08029 0.53809 0.0
C415 C 0.50191 0.07275 0.51367 0.0
C416 C 0.49864 0.09311 0.51174 0.0
C417 C 0.50858 0.10739 0.52306 0.0
C418 C 0.52117 0.1008 0.5365 0.0
Zn419 Zn 0.52073 0.03731 0.52802 0.0
O420 O 0.5264 0.00807 0.55816 0.0
C421 C 0.56249 0.03251 0.53242 0.0
O422 O 0.51729 0.03909 0.55655 0.0
H423 H 0.49473 0.06174 0.50459 0.0
H424 H 0.55494 0.98286 0.55392 0.0
H425 H 0.53372 0.07519 0.54831 0.0
O426 O 0.55795 0.01403 0.53248 0.0
O427 O 0.54971 0.0454 0.53121 0.0
H428 H 0.51675 0.96651 0.51025 0.0
O429 O 0.52393 0.03509 0.49941 0.0
O430 O 0.5321 0.00364 0.50108 0.0
O431 O 0.49187 0.02868 0.52461 0.0
O432 O 0.50117 -0.00227 0.52662 0.0
C433 C 0.52891 0.01882 0.49159 0.0
H434 H 0.55661 0.94803 0.56291 0.0
H435 H 0.51769 0.93105 0.51824 0.0
H436 H 0.48897 0.09766 0.50107 0.0
H437 H 0.529 0.11139 0.54553 0.0
C438 C 0.26014 0.21344 0.73751 0.0
N439 N 0.25057 0.25242 0.78155 0.0
C440 C 0.23508 0.2412 0.78492 0.0
C441 C 0.23108 0.23655 0.8028 0.0
C442 C 0.24332 0.24326 0.81728 0.0
C443 C 0.25832 0.2562 0.81345 0.0
C444 C 0.26165 0.26067 0.79542 0.0
Zn445 Zn 0.25963 0.2536 0.75555 0.0
C446 C 0.30086 0.24896 0.75524 0.0
N447 N 0.27999 0.25545 0.7017 0.0
C448 C 0.27127 0.24317 0.68868 0.0
C449 C 0.29505 0.26708 0.69778 0.0
C450 C 0.30181 0.26674 0.68011 0.0
C451 C 0.29309 0.25414 0.66637 0.0
C452 C 0.2777 0.24215 0.67093 0.0
Zn453 Zn 0.27053 0.25524 0.72763 0.0
O454 O 0.25518 0.22242 0.75207 0.0
C455 C 0.22906 0.2602 0.72858 0.0
O456 O 0.26708 0.22355 0.72497 0.0
H457 H 0.30183 0.27668 0.70837 0.0
H458 H 0.22643 0.23484 0.77368 0.0
H459 H 0.25933 0.23401 0.69206 0.0
O460 O 0.23249 0.25872 0.74558 0.0
O461 O 0.2424 0.25887 0.71756 0.0
H462 H 0.27386 0.26963 0.79244 0.0
O463 O 0.27399 0.28686 0.73083 0.0
O464 O 0.26466 0.28473 0.75895 0.0
O465 O 0.29852 0.2519 0.73829 0.0
O466 O 0.28678 0.24848 0.76526 0.0
C467 C 0.27077 0.29524 0.74625 0.0
H468 H 0.21911 0.22689 0.80512 0.0
H469 H 0.26829 0.26161 0.82405 0.0
H470 H 0.3135 0.27653 0.67721 0.0
H471 H 0.27067 0.23198 0.66093 0.0
C472 C 0.06481 0.99119 0.55054 0.0
N473 N 0.04803 0.02701 0.50805 0.0
C474 C 0.06432 0.03766 0.51128 0.0
C475 C 0.07408 0.04514 0.49679 0.0
C476 C 0.06707 0.04149 0.47883 0.0
C477 C 0.04973 0.03136 0.476 0.0
C478 C 0.04039 0.02423 0.49089 0.0
Zn479 Zn 0.03603 0.01341 0.52909 0.0
C480 C 0.02416 0.97091 0.51885 0.0
N481 N 0.01228 0.98445 0.5736 0.0
C482 C 0.02066 0.98779 0.5904 0.0
C483 C -0.0053 0.97632 0.57156 0.0
C484 C 0.98411 0.97317 0.58688 0.0
C485 C 0.99178 0.97851 0.60431 0.0
C486 C 0.01061 0.98485 0.60604 0.0
Zn487 Zn 0.02429 -0.00273 0.55206 0.0
O488 O 0.06234 0.00266 0.53729 0.0
C489 C 0.03584 0.03993 0.56216 0.0
O490 O 0.05095 0.98635 0.55996 0.0
H491 H 0.98832 0.97383 0.55805 0.0
H492 H 0.07011 0.03971 0.52506 0.0
H493 H 0.03464 0.99429 0.59168 0.0
O494 O 0.04046 0.03975 0.5456 0.0
O495 O 0.02908 0.02402 0.56854 0.0
H496 H 0.02741 0.01573 0.48868 0.0
O497 O -0.0022 0.0082 0.54371 0.0
O498 O 0.00961 0.02399 0.52094 0.0
O499 O 0.01941 0.97099 0.53541 0.0
O500 O 0.03139 0.98671 0.51263 0.0
C501 C -0.00443 0.01927 0.53012 0.0
H502 H 0.0873 0.05305 0.49958 0.0
H503 H 0.04392 0.02792 0.46237 0.0
H504 H 0.9696 0.96831 0.58501 0.0
H505 H 0.01706 0.98887 0.6193 0.0
C506 C 0.24223 0.74418 0.71571 0.0
N507 N 0.28363 0.7257 0.75289 0.0
C508 C 0.28573 0.7088 0.74222 0.0
C509 C 0.3026 0.6986 0.74281 0.0
C510 C 0.31724 0.70574 0.75472 0.0
C511 C 0.31462 0.72315 0.7656 0.0
C512 C 0.29769 0.733 0.76439 0.0
Zn513 Zn 0.2588 0.74013 0.75285 0.0
C514 C 0.26365 0.78396 0.75017 0.0
N515 N 0.20659 0.76944 0.75464 0.0
C516 C 0.19108 0.76125 0.74576 0.0
C517 C 0.20556 0.78606 0.76588 0.0
C518 C 0.1883 0.79444 0.76937 0.0
C519 C 0.17192 0.78556 0.76131 0.0
C520 C 0.17349 0.7691 0.74895 0.0
Zn521 Zn 0.23144 0.75517 0.7537 0.0
O522 O 0.25606 0.73683 0.72427 0.0
C523 C 0.22702 0.71123 0.75647 0.0
O524 O 0.22954 0.75282 0.72466 0.0
H525 H 0.21804 0.79223 0.77291 0.0
H526 H 0.27431 0.70319 0.73326 0.0
H527 H 0.19225 0.74807 0.73685 0.0
O528 O 0.24469 0.71255 0.75558 0.0
O529 O 0.21742 0.727 0.75559 0.0
H530 H 0.29578 0.74653 0.77267 0.0
O531 O 0.23356 0.75721 0.78266 0.0
O532 O 0.26126 0.74386 0.78156 0.0
O533 O 0.24603 0.78316 0.75201 0.0
O534 O 0.27278 0.76784 0.74999 0.0
C535 C 0.24824 0.75129 0.7908 0.0
H536 H 0.30418 0.68526 0.73415 0.0
H537 H 0.32574 0.72938 0.77464 0.0
H538 H 0.18771 0.80697 0.77917 0.0
H539 H 0.16119 0.76194 0.74233 0.0
C540 C 0.55529 0.97027 0.02309 0.0
N541 N 0.57737 0.02486 0.04476 0.0
C542 C 0.56905 0.01953 0.0603 0.0
C543 C 0.57814 0.02311 0.0772 0.0
C544 C 0.59601 0.03219 0.07815 0.0
C545 C 0.60386 0.03869 0.06206 0.0
C546 C 0.59423 0.03476 0.04533 0.0
Zn547 Zn 0.565 0.01437 0.02081 0.0
C548 C 0.59367 -0.00301 -0.00417 0.0
N549 N 0.53969 0.98925 0.97159 0.0
C550 C 0.52417 0.97749 0.97349 0.0
C551 C 0.54486 0.99512 0.95489 0.0
C552 C 0.53361 0.99003 0.93936 0.0
C553 C 0.51693 0.97888 0.94116 0.0
C554 C 0.51258 0.97206 0.9584 0.0
Zn555 Zn 0.55296 0.00039 0.99496 0.0
O556 O 0.56185 0.98548 0.03234 0.0
C557 C 0.52429 0.01756 0.02007 0.0
O558 O 0.55051 0.97214 0.00644 0.0
H559 H 0.55722 0.00453 0.95372 0.0
H560 H 0.55569 0.01162 0.05955 0.0
H561 H 0.52022 0.97306 0.98688 0.0
O562 O 0.53849 0.02275 0.03011 0.0
O563 O 0.52652 0.00808 0.00498 0.0
H564 H 0.60059 0.0388 0.03277 0.0
O565 O 0.55539 0.02919 0.98371 0.0
O566 O 0.56776 0.04275 0.00922 0.0
O567 O 0.57953 0.99252 0.98536 0.0
O568 O 0.59134 0.00608 0.01112 0.0
C569 C 0.56198 0.04454 0.99278 0.0
H570 H 0.57153 0.01816 0.08937 0.0
H571 H 0.61766 0.04573 0.06232 0.0
H572 H 0.53737 -0.0043 0.92631 0.0
H573 H 0.49998 0.96322 0.96031 0.0
C574 C 0.22171 0.22224 0.23806 0.0
N575 N 0.25388 0.23535 0.1937 0.0
C576 C 0.26062 0.21656 0.19537 0.0
C577 C 0.2622 0.2038 0.17999 0.0
C578 C 0.25659 0.21037 0.16273 0.0
C579 C 0.25061 0.23018 0.16127 0.0
C580 C 0.24943 0.24253 0.17701 0.0
Zn581 Zn 0.24596 0.25044 0.21692 0.0
C582 C 0.20854 0.26932 0.21104 0.0
N583 N 0.22585 0.27811 0.2657 0.0
C584 C 0.22637 0.26807 0.28151 0.0
C585 C 0.22153 0.29788 0.26557 0.0
C586 C 0.21847 0.30857 0.28192 0.0
C587 C 0.21959 0.29872 0.29847 0.0
C588 C 0.22312 0.27811 0.29812 0.0
Zn589 Zn 0.23415 0.26387 0.24223 0.0
O590 O 0.23181 0.22379 0.22424 0.0
C591 C 0.27162 0.2458 0.24854 0.0
O592 O 0.21969 0.23747 0.24866 0.0
H593 H 0.2211 0.30557 0.25285 0.0
H594 H 0.26376 0.21099 0.20877 0.0
H595 H 0.23002 0.25242 0.28135 0.0
O596 O 0.27056 0.242 0.23141 0.0
O597 O 0.25814 0.25429 0.25633 0.0
H598 H 0.24404 0.25748 0.17597 0.0
O599 O 0.2488 0.29003 0.23539 0.0
O600 O 0.26036 0.27714 0.21021 0.0
O601 O 0.21054 0.27338 0.22806 0.0
O602 O 0.2211 0.25962 0.20287 0.0
C603 C 0.25877 0.29189 0.22153 0.0
H604 H 0.26676 0.18859 0.18172 0.0
H605 H 0.2464 0.23589 0.14815 0.0
H606 H 0.21567 0.32445 0.28167 0.0
H607 H 0.22432 0.27005 0.31064 0.0
C608 C 0.55935 0.49325 0.03998 0.0
N609 N 0.54087 0.52651 -0.00373 0.0
C610 C 0.55735 0.53704 -0.00187 0.0
C611 C 0.56633 0.54352 0.98276 0.0
C612 C 0.55831 0.53901 0.96529 0.0
C613 C 0.54087 0.52888 0.96384 0.0
C614 C 0.53235 0.52274 0.97959 0.0
Zn615 Zn 0.5299 0.5146 0.01879 0.0
C616 C 0.51685 0.47175 0.01123 0.0
N617 N 0.50815 0.48889 0.06611 0.0
C618 C 0.51829 0.49159 0.08208 0.0
C619 C 0.49012 0.48195 0.06583 0.0
C620 C 0.48111 0.47915 0.08217 0.0
C621 C 0.49084 0.48335 0.09892 0.0
C622 C 0.50994 0.48868 0.09869 0.0
Zn623 Zn 0.51898 0.50007 0.04312 0.0
O624 O 0.55645 0.50393 0.02625 0.0
C625 C 0.53161 0.54298 0.0507 0.0
O626 O 0.54587 0.48919 0.05016 0.0
H627 H 0.48232 0.47985 0.05298 0.0
H628 H 0.56387 0.53988 0.01153 0.0
H629 H 0.53257 0.49722 0.08203 0.0
O630 O 0.53544 0.54193 0.0339 0.0
O631 O 0.52502 0.52753 0.05801 0.0
H632 H 0.51924 0.51434 0.97844 0.0
O633 O 0.49233 0.51108 0.03555 0.0
O634 O 0.50325 0.52513 0.01143 0.0
O635 O 0.51282 0.47292 0.028 0.0
O636 O 0.52406 0.48696 0.00396 0.0
C637 C 0.48963 0.52135 0.02151 0.0
H638 H 0.57964 0.55151 0.98451 0.0
H639 H 0.53429 0.52485 0.95064 0.0
H640 H 0.46637 0.47509 0.08163 0.0
H641 H 0.51812 0.49161 0.11125 0.0
C642 C 0.73268 0.26703 0.23216 0.0
N643 N 0.77375 0.23588 0.26078 0.0
C644 C 0.77096 0.22055 0.2481 0.0
C645 C 0.7846 0.20612 0.24568 0.0
C646 C 0.80107 0.20737 0.25662 0.0
C647 C 0.80364 0.22339 0.2695 0.0
C648 C 0.78978 0.23762 0.27128 0.0
Zn649 Zn 0.75255 0.25489 0.26595 0.0
C650 C 0.76375 0.29743 0.26767 0.0
N651 N 0.70664 0.29181 0.27838 0.0
C652 C 0.68923 0.2879 0.27091 0.0
C653 C 0.70976 0.30652 0.29157 0.0
C654 C 0.69486 0.3171 0.29861 0.0
C655 C 0.67657 0.31244 0.29204 0.0
C656 C 0.67389 0.29813 0.27756 0.0
Zn657 Zn 0.72812 0.27352 0.2722 0.0
O658 O 0.7463 0.25684 0.23796 0.0
C659 C 0.71737 0.23076 0.27077 0.0
O660 O 0.72221 0.2757 0.2436 0.0
H661 H 0.72372 0.30938 0.29733 0.0
H662 H 0.758 0.21932 0.24006 0.0
H663 H 0.6871 0.27611 0.26045 0.0
O664 O 0.73457 0.22988 0.26725 0.0
O665 O 0.71007 0.2478 0.27326 0.0
H666 H 0.79172 0.24993 0.28126 0.0
O667 O 0.73428 0.27113 0.30063 0.0
O668 O 0.75861 0.2532 0.29414 0.0
O669 O 0.74656 0.29879 0.27134 0.0
O670 O 0.77059 0.28023 0.26467 0.0
C671 C 0.74834 0.26134 0.30595 0.0
H672 H 0.78223 0.19402 0.23553 0.0
H673 H 0.81639 0.2251 0.27787 0.0
H674 H 0.69752 0.32819 0.30962 0.0
H675 H 0.66 0.29392 0.27223 0.0
C676 C 0.03092 0.46732 0.52147 0.0
N677 N 0.04526 0.51832 0.55364 0.0
C678 C 0.03294 0.51157 0.56585 0.0
C679 C 0.03758 0.5126 0.58447 0.0
C680 C 0.05525 0.52021 0.59058 0.0
C681 C 0.06716 0.52833 0.57777 0.0
C682 C 0.06181 0.52732 0.55927 0.0
Zn683 Zn 0.04012 0.5112 0.52669 0.0
C684 C 0.07487 0.49754 0.50868 0.0
N685 N 0.02984 0.49374 0.47091 0.0
C686 C 0.01406 0.48268 0.46644 0.0
C687 C 0.04143 0.50008 0.45787 0.0
C688 C 0.03697 0.49582 0.43942 0.0
C689 C 0.0204 0.48501 0.43439 0.0
C690 C 0.00904 0.47817 0.44821 0.0
Zn691 Zn 0.03513 0.50157 0.49765 0.0
O692 O 0.03557 0.48101 0.53337 0.0
C693 C 0.00019 0.51474 0.51552 0.0
O694 O 0.0291 0.47169 0.50481 0.0
H695 H 0.05394 0.5088 0.46178 0.0
H696 H 0.0199 0.50437 0.56111 0.0
H697 H 0.00505 0.4778 0.47703 0.0
O698 O 0.01122 0.51697 0.52943 0.0
O699 O 0.00665 0.50886 0.50036 0.0
H700 H 0.07136 0.53267 0.54933 0.0
O701 O 0.04128 0.53161 0.49087 0.0
O702 O 0.0447 0.54123 0.51982 0.0
O703 O 0.06348 0.49425 0.49518 0.0
O704 O 0.06891 0.50509 0.52351 0.0
C705 C 0.04454 0.54545 0.50306 0.0
H706 H 0.02775 0.5066 0.59388 0.0
H707 H 0.08097 0.53422 0.58178 0.0
H708 H 0.04623 0.50121 0.42921 0.0
H709 H -0.00404 0.47013 0.44501 0.0
C710 C 0.76437 0.72671 0.2601 0.0
N711 N 0.7498 0.76392 0.30419 0.0
C712 C 0.73743 0.74885 0.30749 0.0
C713 C 0.73368 0.7441 0.3254 0.0
C714 C 0.74256 0.75512 0.34012 0.0
C715 C 0.75407 0.77165 0.33622 0.0
C716 C 0.75766 0.77567 0.3181 0.0
Zn717 Zn 0.75941 0.76644 0.27838 0.0
C718 C 0.801 0.76658 0.27907 0.0
N719 N 0.78105 0.77085 0.22512 0.0
C720 C 0.77306 0.75882 0.21147 0.0
C721 C 0.79623 0.78275 0.22219 0.0
C722 C 0.80408 0.78271 0.205 0.0
C723 C 0.79624 0.77024 0.19072 0.0
C724 C 0.78047 0.75826 0.19411 0.0
Zn725 Zn 0.77081 0.76932 0.25068 0.0
O726 O 0.75921 0.73488 0.27495 0.0
C727 C 0.72912 0.76941 0.25012 0.0
O728 O 0.76977 0.73763 0.24742 0.0
H729 H 0.80243 0.79209 0.23327 0.0
H730 H 0.73127 0.73973 0.29625 0.0
H731 H 0.76101 0.74945 0.21408 0.0
O732 O 0.73179 0.76738 0.26719 0.0
O733 O 0.74312 0.77062 0.23995 0.0
H734 H 0.7675 0.78756 0.31521 0.0
O735 O 0.7717 0.80104 0.25426 0.0
O736 O 0.76023 0.79799 0.28147 0.0
O737 O 0.79845 0.76816 0.26196 0.0
O738 O 0.78695 0.76556 0.28913 0.0
C739 C 0.76629 0.80907 0.26914 0.0
H740 H 0.72485 0.7311 0.32758 0.0
H741 H 0.7609 0.78089 0.34704 0.0
H742 H 0.81631 0.79209 0.20298 0.0
H743 H 0.77379 0.74872 0.18341 0.0
C744 C 0.79093 0.23454 0.75346 0.0
N745 N 0.73971 0.22237 0.72583 0.0
C746 C 0.74847 0.2314 0.71208 0.0
C747 C 0.74542 0.22453 0.69406 0.0
C748 C 0.73309 0.20821 0.68994 0.0
C749 C 0.7236 0.19962 0.70434 0.0
C750 C 0.72717 0.20697 0.72231 0.0
Zn751 Zn 0.74843 0.23143 0.75173 0.0
C752 C 0.7563 0.1971 0.77511 0.0
N753 N 0.77026 0.25101 0.80447 0.0
C754 C 0.7818 0.26746 0.80672 0.0
C755 C 0.76315 0.24188 0.81909 0.0
C756 C 0.76711 0.24965 0.83679 0.0
C757 C 0.77822 0.26716 0.83941 0.0
C758 C 0.78587 0.27591 0.82417 0.0
Zn759 Zn 0.7612 0.24149 0.77876 0.0
O760 O 0.77654 0.23001 0.74338 0.0
C761 C 0.75299 0.27579 0.75526 0.0
O762 O 0.78892 0.2402 0.77 0.0
H763 H 0.75382 0.22898 0.81701 0.0
H764 H 0.75853 0.24349 0.71512 0.0
H765 H 0.78736 0.27445 0.79494 0.0
O766 O 0.74723 0.26163 0.74432 0.0
O767 O 0.75966 0.27167 0.77092 0.0
H768 H 0.7204 0.19997 0.73348 0.0
O769 O 0.73337 0.24276 0.78726 0.0
O770 O 0.72066 0.23313 0.76057 0.0
O771 O 0.76249 0.21117 0.78601 0.0
O772 O 0.74951 0.2013 0.75951 0.0
C773 C 0.71886 0.23871 0.7772 0.0
H774 H 0.75342 0.23139 0.68359 0.0
H775 H 0.71385 0.18712 0.70181 0.0
H776 H 0.76083 0.2426 0.84822 0.0
H777 H 0.79462 0.28936 0.82571 0.0
C778 C 0.75212 0.72501 0.73589 0.0
N779 N 0.79063 0.75464 0.70341 0.0
C780 C 0.80188 0.73848 0.70409 0.0
C781 C 0.81324 0.73361 0.68952 0.0
C782 C 0.81297 0.74546 0.67409 0.0
C783 C 0.8015 0.76229 0.67393 0.0
C784 C 0.79041 0.76664 0.68882 0.0
Zn785 Zn 0.77367 0.76107 0.72457 0.0
C786 C 0.73529 0.77207 0.71157 0.0
N787 N 0.73844 0.77482 0.76915 0.0
C788 C 0.73685 0.76086 0.7821 0.0
C789 C 0.7329 0.79398 0.77241 0.0
C790 C 0.72776 0.80032 0.78989 0.0
C791 C 0.72788 0.78665 0.80404 0.0
C792 C 0.73119 0.76639 0.79955 0.0
Zn793 Zn 0.75453 0.76811 0.74712 0.0
O794 O 0.76489 0.73012 0.7252 0.0
C795 C 0.79294 0.75854 0.76047 0.0
O796 O 0.74514 0.73824 0.74635 0.0
H797 H 0.73396 0.80486 0.76192 0.0
H798 H 0.80183 0.72917 0.71584 0.0
H799 H 0.74139 0.74571 0.77945 0.0
O800 O 0.79593 0.75666 0.74351 0.0
O801 O 0.77649 0.76183 0.76557 0.0
H802 H 0.78145 0.77949 0.68863 0.0
O803 O 0.76452 0.79772 0.74764 0.0
O804 O 0.78263 0.79183 0.72466 0.0
O805 O 0.73299 0.77479 0.7286 0.0
O806 O 0.75094 0.7661 0.70596 0.0
C807 C 0.77673 0.80386 0.73693 0.0
H808 H 0.82166 0.72033 0.69009 0.0
H809 H 0.80099 0.77191 0.66237 0.0
H810 H 0.7253 0.8161 0.79252 0.0
H811 H 0.7308 0.75511 0.80976 0.0
C812 C 0.48367 0.53815 0.49366 0.0
N813 N 0.46151 0.52569 0.54418 0.0
C814 C 0.44807 0.53823 0.53819 0.0
C815 C 0.42947 0.5352 0.54263 0.0
C816 C 0.42454 0.51933 0.55372 0.0
C817 C 0.43895 0.5074 0.56068 0.0
C818 C 0.45739 0.51072 0.55556 0.0
Zn819 Zn 0.48751 0.52885 0.53374 0.0
C820 C 0.50032 0.49145 0.51635 0.0
N821 N 0.54024 0.53744 0.50942 0.0
C822 C 0.54441 0.55335 0.49911 0.0
C823 C 0.55341 0.52386 0.5138 0.0
C824 C 0.57178 0.52642 0.50843 0.0
C825 C 0.57673 0.54308 0.49833 0.0
C826 C 0.56264 0.55643 0.49334 0.0
Zn827 Zn 0.5144 0.53419 0.5201 0.0
O828 O 0.4748 0.53412 0.50783 0.0
C829 C 0.50059 0.57166 0.53705 0.0
O830 O 0.50138 0.53989 0.49475 0.0
H831 H 0.54981 0.51133 0.52202 0.0
H832 H 0.45162 0.55017 0.52929 0.0
H833 H 0.5337 0.56393 0.49574 0.0
O834 O 0.48752 0.55954 0.54087 0.0
O835 O 0.51436 0.56525 0.52816 0.0
H836 H 0.4683 0.50097 0.56023 0.0
O837 O 0.52723 0.52839 0.54557 0.0
O838 O 0.5009 0.5232 0.55939 0.0
O839 O 0.51367 0.50308 0.51211 0.0
O840 O 0.48752 0.49827 0.52627 0.0
C841 C 0.51868 0.52436 0.55993 0.0
H842 H 0.41903 0.54467 0.53661 0.0
H843 H 0.43602 0.49528 0.56962 0.0
H844 H 0.58215 0.5159 0.51289 0.0
H845 H 0.56573 0.56935 0.48538 0.0
C846 C 0.01514 0.52538 0.05824 0.0
N847 N 0.03973 0.47359 0.03869 0.0
C848 C 0.04952 0.47327 0.0549 0.0
C849 C 0.04892 0.45623 0.0653 0.0
C850 C 0.03755 0.43967 0.05929 0.0
C851 C 0.02934 0.43967 0.04156 0.0
C852 C 0.03083 0.45681 0.03136 0.0
Zn853 Zn 0.03315 0.50079 0.02873 0.0
C854 C 0.99283 0.49995 0.01498 0.0
N855 N 0.01595 0.55743 0.01048 0.0
C856 C 0.02246 0.5741 0.02015 0.0
C857 C 0.00575 0.55881 0.99459 0.0
C858 C 0.0019 0.57757 0.98773 0.0
C859 C 0.00894 0.59494 -0.00281 0.0
C860 C 0.01924 0.59311 0.01362 0.0
Zn861 Zn 0.02292 0.5301 0.01966 0.0
O862 O 0.02342 0.50915 0.05458 0.0
C863 C 0.06345 0.53082 0.03274 0.0
O864 O 0.01333 0.53819 0.04596 0.0
H865 H 0.00084 0.54534 0.98707 0.0
H866 H 0.05649 0.48675 0.06055 0.0
H867 H 0.03041 0.57266 0.03282 0.0
O868 O 0.06012 0.51249 0.03574 0.0
O869 O 0.05031 0.54144 0.02658 0.0
H870 H 0.02336 0.45725 0.01831 0.0
O871 O 0.03237 0.52128 0.9933 0.0
O872 O 0.04259 0.49259 0.00304 0.0
O873 O -0.00424 0.51851 0.01275 0.0
O874 O 0.00601 0.48943 0.02116 0.0
C875 C 0.04046 0.50472 0.99025 0.0
H876 H 0.05616 0.4567 0.07852 0.0
H877 H 0.02046 0.42736 0.03616 0.0
H878 H -0.00603 0.57849 0.97495 0.0
H879 H 0.02471 0.60625 0.02134 0.0
C880 C 0.98798 0.22902 0.14908 0.0
C881 C 0.96904 0.23275 0.15217 0.0
C882 C 0.99298 0.21632 0.13454 0.0
C883 C 0.97388 0.17364 0.10691 0.0
H884 H 0.01734 0.18166 0.07759 0.0
C885 C 0.99276 0.11362 0.05413 0.0
C886 C 0.01156 0.10804 0.05442 0.0
C887 C 0.98755 0.13154 0.06269 0.0
C888 C 0.00521 0.17921 0.08572 0.0
H889 H 0.94057 0.22682 0.14184 0.0
H890 H 0.94935 0.20474 0.11649 0.0
H891 H 0.0081 0.2083 0.09917 0.0
H892 H 0.03987 0.11727 0.0628 0.0
H893 H 0.03071 0.14845 0.07841 0.0
H894 H 0.97122 0.14445 0.09415 0.0
C895 C 0.96029 0.21143 0.12548 0.0
C896 C -8e-05 0.19444 0.09804 0.0
C897 C 0.95528 0.22412 0.13999 0.0
C898 C 0.02526 0.12128 0.06241 0.0
C899 C 0.02001 0.13914 0.07128 0.0
C900 C 0.97917 0.15847 0.09472 0.0
C901 C 0.97916 0.20708 0.12283 0.0
C902 C 0.98425 0.19172 0.10883 0.0
C903 C 0.001 0.14408 0.07204 0.0
C904 C -0.00506 0.16099 0.08404 0.0
H905 H -0.00103 0.23551 0.15813 0.0
H906 H 0.00763 0.21311 0.13294 0.0
H907 H 0.96199 0.17091 0.11531 0.0
H908 H 0.98195 0.10381 0.04776 0.0
H909 H 0.97287 0.13518 0.06257 0.0
C910 C 0.08124 0.76001 0.36099 0.0
C911 C 0.06789 0.77446 0.35686 0.0
C912 C 0.09813 0.75951 0.35203 0.0
C913 C 0.13643 0.76686 0.3372 0.0
H914 H 0.13502 0.7753 0.28511 0.0
C915 C 0.20361 0.76753 0.29699 0.0
C916 C 0.20322 0.75753 0.27975 0.0
C917 C 0.18711 0.77116 0.30598 0.0
C918 C 0.13561 0.77277 0.29962 0.0
H919 H 0.06219 0.80031 0.34066 0.0
H920 H 0.09189 0.7997 0.32527 0.0
H921 H 0.10654 0.77884 0.30225 0.0
H922 H 0.18516 0.74392 0.25818 0.0
H923 H 0.15615 0.74986 0.27415 0.0
H924 H 0.16525 0.76004 0.33454 0.0
C925 C 0.08909 0.78846 0.33516 0.0
C926 C 0.11936 0.77508 0.3095 0.0
C927 C 0.07214 0.78892 0.3441 0.0
C928 C 0.18588 0.75166 0.27145 0.0
C929 C 0.16928 0.75515 0.28057 0.0
C930 C 0.15262 0.76447 0.32734 0.0
C931 C 0.10213 0.77353 0.33878 0.0
C932 C 0.11957 0.77205 0.3284 0.0
C933 C 0.16976 0.7647 0.29807 0.0
C934 C 0.15242 0.76738 0.30842 0.0
H935 H 0.07841 0.74861 0.37072 0.0
H936 H 0.10776 0.74767 0.35503 0.0
H937 H 0.13715 0.76461 0.35176 0.0
H938 H 0.21673 0.77251 0.30367 0.0
H939 H 0.18799 0.77898 0.31922 0.0
C940 C 0.5206 0.8145 0.65748 0.0
C941 C 0.50212 0.80818 0.66049 0.0
C942 C 0.52447 0.8272 0.6434 0.0
C943 C 0.50522 0.84377 0.59943 0.0
H944 H 0.54297 0.88611 0.6069 0.0
C945 C 0.51593 0.90922 0.55129 0.0
C946 C 0.53421 0.91691 0.54955 0.0
C947 C 0.51255 0.89336 0.56267 0.0
C948 C 0.53264 0.87411 0.60449 0.0
H949 H 0.47313 0.81081 0.65133 0.0
H950 H 0.47992 0.83343 0.62685 0.0
H951 H 0.53522 0.86521 0.63211 0.0
H952 H 0.56343 0.91272 0.55689 0.0
H953 H 0.55752 0.88491 0.57678 0.0
H954 H 0.50243 0.85308 0.57182 0.0
C955 C 0.49142 0.82817 0.63526 0.0
C956 C 0.52813 0.8622 0.61897 0.0
C957 C 0.48752 0.81539 0.64939 0.0
C958 C 0.54918 0.90731 0.55821 0.0
C959 C 0.54579 0.89146 0.56962 0.0
C960 C 0.5097 0.85578 0.58493 0.0
C961 C 0.50997 0.83401 0.632 0.0
C962 C 0.51437 0.8469 0.61662 0.0
C963 C 0.52738 0.88491 0.57255 0.0
C964 C 0.52346 0.87107 0.58733 0.0
H965 H 0.53223 0.80923 0.66571 0.0
H966 H 0.53893 0.83122 0.64113 0.0
H967 H 0.49476 0.8319 0.59713 0.0
H968 H 0.50405 0.91641 0.54499 0.0
H969 H 0.4982 0.88871 0.56473 0.0
C970 C 0.43881 0.25082 0.85745 0.0
C971 C 0.45455 0.26129 0.85148 0.0
C972 C 0.42212 0.25009 0.84694 0.0
C973 C 0.39711 0.27305 0.80791 0.0
H974 H 0.37201 0.22094 0.80318 0.0
C975 C 0.33547 0.25595 0.75608 0.0
C976 C 0.31967 0.24743 0.76389 0.0
C977 C 0.35268 0.25695 0.76581 0.0
C978 C 0.37886 0.23558 0.8044 0.0
H979 H 0.46483 0.2801 0.83033 0.0
H980 H 0.4359 0.2786 0.81195 0.0
H981 H 0.39978 0.2255 0.8232 0.0
H982 H 0.30962 0.23235 0.78748 0.0
H983 H 0.33956 0.23383 0.80423 0.0
H984 H 0.37616 0.28302 0.78895 0.0
C985 C 0.43632 0.27109 0.82478 0.0
C986 C 0.39467 0.23826 0.81599 0.0
C987 C 0.45295 0.2719 0.83532 0.0
C988 C 0.32156 0.23905 0.78113 0.0
C989 C 0.33873 0.23982 0.7907 0.0
C990 C 0.38134 0.27033 0.79622 0.0
C991 C 0.42086 0.25974 0.83022 0.0
C992 C 0.4039 0.25708 0.81802 0.0
C993 C 0.35436 0.24915 0.78334 0.0
C994 C 0.37198 0.25161 0.79448 0.0
H995 H 0.43957 0.24255 0.86986 0.0
H996 H 0.41032 0.24159 0.85173 0.0
H997 H 0.40378 0.28778 0.80928 0.0
H998 H 0.33437 0.2626 0.74285 0.0
H999 H 0.36459 0.26407 0.75978 0.0
C1000 C 0.01765 0.81959 0.41633 0.0
C1001 C 0.00445 0.80541 0.42198 0.0
C1002 C 0.02073 0.83777 0.4263 0.0
C1003 C 0.01616 0.86091 0.47213 0.0
H1004 H 0.0152 0.91151 0.44787 0.0
C1005 C 0.01164 0.93585 0.51295 0.0
C1006 C 0.02188 0.95244 0.50708 0.0
C1007 C 0.01006 0.91816 0.50213 0.0
C1008 C 0.01579 0.89752 0.45485 0.0
H1009 H 0.98428 0.79919 0.44264 0.0
H1010 H 0.98982 0.83065 0.45998 0.0
H1011 H 0.01231 0.88002 0.42974 0.0
H1012 H 0.03842 0.96351 0.48518 0.0
H1013 H 0.03604 0.9325 0.46651 0.0
H1014 H 0.01984 0.87818 0.49719 0.0
C1015 C -0.00223 0.82774 0.44788 0.0
C1016 C 0.01412 0.8795 0.44445 0.0
C1017 C -0.00547 0.80975 0.43784 0.0
C1018 C 0.03035 0.95102 0.49006 0.0
C1019 C 0.02891 0.93325 0.47931 0.0
C1020 C 0.01802 0.87887 0.48251 0.0
C1021 C 0.01088 0.84194 0.44223 0.0
C1022 C 0.01403 0.86104 0.45302 0.0
C1023 C 0.01884 0.91654 0.48525 0.0
C1024 C 0.01759 0.89743 0.47404 0.0
H1025 H 0.02549 0.81672 0.40415 0.0
H1026 H 0.03098 0.84846 0.4217 0.0
H1027 H 0.01642 0.84687 0.47907 0.0
H1028 H 0.00483 0.93651 0.52592 0.0
H1029 H 0.00185 0.90576 0.50698 0.0
C1030 C 0.46346 0.7408 0.73463 0.0
C1031 C 0.47913 0.73033 0.72889 0.0
C1032 C 0.44864 0.73071 0.74229 0.0
C1033 C 0.42275 0.70727 0.76537 0.0
H1034 H 0.39793 0.66754 0.73242 0.0
C1035 C 0.34536 0.69326 0.77161 0.0
C1036 C 0.33572 0.69622 0.75496 0.0
C1037 C 0.36427 0.68846 0.77191 0.0
C1038 C 0.40478 0.67839 0.74193 0.0
H1039 H 0.49187 0.70116 0.72688 0.0
H1040 H 0.46536 0.68321 0.73989 0.0
H1041 H 0.43031 0.67779 0.72743 0.0
H1042 H 0.3377 0.69475 0.72553 0.0
H1043 H 0.37074 0.68696 0.72596 0.0
H1044 H 0.397 0.70937 0.77893 0.0
C1045 C 0.46483 0.69932 0.73867 0.0
C1046 C 0.42337 0.6841 0.73917 0.0
C1047 C 0.47992 0.70956 0.73128 0.0
C1048 C 0.34481 0.69251 0.73855 0.0
C1049 C 0.36377 0.68792 0.73884 0.0
C1050 C 0.40425 0.7016 0.76813 0.0
C1051 C 0.44904 0.70986 0.74416 0.0
C1052 C 0.43209 0.69942 0.75027 0.0
C1053 C 0.37393 0.68682 0.75555 0.0
C1054 C 0.39471 0.68794 0.75582 0.0
H1055 H 0.46253 0.75683 0.733 0.0
H1056 H 0.43651 0.73916 0.74611 0.0
H1057 H 0.42929 0.71897 0.77423 0.0
H1058 H 0.33852 0.69568 0.78445 0.0
H1059 H 0.37159 0.68727 0.78499 0.0
C1060 C 0.50374 0.1976 0.93437 0.0
C1061 C 0.51368 0.20833 0.92154 0.0
C1062 C 0.51216 0.18204 0.94362 0.0
C1063 C 0.54909 0.14524 0.93799 0.0
H1064 H 0.5384 0.13349 0.98801 0.0
C1065 C 0.56561 0.08204 0.99549 0.0
C1066 C 0.5614 0.06453 0.98471 0.0
C1067 C 0.56289 0.10097 0.9884 0.0
C1068 C 0.54176 0.13668 0.97411 0.0
H1069 H 0.54062 0.21164 0.90908 0.0
H1070 H 0.55528 0.18456 0.92531 0.0
H1071 H 0.52793 0.16484 0.97545 0.0
H1072 H 0.55184 0.0532 0.95777 0.0
H1073 H 0.54709 0.08612 0.94546 0.0
H1074 H 0.56273 0.11699 0.93659 0.0
C1075 C 0.54088 0.18804 0.928 0.0
C1076 C 0.53558 0.15455 0.96686 0.0
C1077 C 0.53249 0.20364 0.91877 0.0
C1078 C 0.5552 0.06637 0.96646 0.0
C1079 C 0.55257 0.08527 0.95936 0.0
C1080 C 0.55522 0.12735 0.94523 0.0
C1081 C 0.5307 0.1768 0.94026 0.0
C1082 C 0.53888 0.15887 0.94861 0.0
C1083 C 0.55603 0.10278 0.97035 0.0
C1084 C 0.55133 0.1227 0.96327 0.0
H1085 H 0.48925 0.2008 0.93689 0.0
H1086 H 0.50385 0.17357 0.95285 0.0
H1087 H 0.55174 0.14801 0.92384 0.0
H1088 H 0.57044 0.08115 0.0096 0.0
H1089 H 0.5659 0.11419 -0.00287 0.0
C1090 C 0.04448 0.28212 0.18374 0.0
C1091 C 0.03899 0.26362 0.1906 0.0
C1092 C 0.06274 0.28527 0.17821 0.0
C1093 C 0.10773 0.25897 0.1703 0.0
H1094 H 0.12958 0.30981 0.18848 0.0
C1095 C 0.17784 0.28611 0.21053 0.0
C1096 C 0.19107 0.27467 0.20132 0.0
C1097 C 0.16015 0.28874 0.20266 0.0
C1098 C 0.12369 0.29558 0.18319 0.0
H1099 H 0.04802 0.23371 0.19655 0.0
H1100 H 0.08011 0.23946 0.18792 0.0
H1101 H 0.09588 0.3052 0.18719 0.0
H1102 H 0.19674 0.25842 0.17597 0.0
H1103 H 0.16567 0.2632 0.16204 0.0
H1104 H 0.13566 0.24872 0.16813 0.0
C1105 C 0.07026 0.25139 0.18616 0.0
C1106 C 0.1043 0.29298 0.18223 0.0
C1107 C 0.05191 0.24814 0.19136 0.0
C1108 C 0.18673 0.26714 0.18347 0.0
C1109 C 0.16894 0.26983 0.17553 0.0
C1110 C 0.12715 0.26146 0.17158 0.0
C1111 C 0.076 0.2701 0.17975 0.0
C1112 C 0.09611 0.27429 0.17665 0.0
C1113 C 0.15526 0.28009 0.18531 0.0
C1114 C 0.13533 0.27945 0.17898 0.0
H1115 H 0.03466 0.2942 0.18267 0.0
H1116 H 0.06653 0.29972 0.17301 0.0
H1117 H 0.10187 0.2446 0.16535 0.0
H1118 H 0.18081 0.29228 0.22424 0.0
H1119 H 0.14996 0.29649 0.21076 0.0
C1120 C 0.10232 0.01913 0.22627 0.0
C1121 C 0.11311 0.00201 0.22864 0.0
C1122 C 0.09314 0.02225 0.20957 0.0
C1123 C 0.06692 0.01985 0.17622 0.0
H1124 H 0.09313 0.00944 0.13153 0.0
C1125 C 0.03232 0.02798 0.10429 0.0
C1126 C 0.04349 0.03691 0.09132 0.0
C1127 C 0.04013 0.02285 0.12119 0.0
C1128 C 0.08565 0.01251 0.1439 0.0
H1129 H 0.12266 0.97465 0.21536 0.0
H1130 H 0.10644 0.98002 0.18617 0.0
H1131 H 0.10815 0.00217 0.16077 0.0
H1132 H 0.07152 0.04787 0.08605 0.0
H1133 H 0.08497 0.03927 0.1155 0.0
H1134 H 0.04467 0.03081 0.15935 0.0
C1135 C 0.10528 0.99115 0.1972 0.0
C1136 C 0.09417 0.00811 0.16064 0.0
C1137 C 0.11452 0.98804 0.21393 0.0
C1138 C 0.06252 0.04091 0.09569 0.0
C1139 C 0.07029 0.03583 0.11253 0.0
C1140 C 0.0584 0.02427 0.15947 0.0
C1141 C 0.09448 0.0083 0.19485 0.0
C1142 C 0.08499 0.01193 0.177 0.0
C1143 C 0.05925 0.02657 0.12541 0.0
C1144 C 0.06778 0.02088 0.14314 0.0
H1145 H 0.10101 0.03023 0.23731 0.0
H1146 H 0.08521 0.03579 0.20811 0.0
H1147 H 0.05938 0.02271 0.18859 0.0
H1148 H 0.01763 0.02465 0.10129 0.0
H1149 H 0.03129 0.01561 0.13079 0.0
C1150 C 0.31387 0.84584 0.48629 0.0
C1151 C 0.29858 0.85541 0.49416 0.0
C1152 C 0.31212 0.83664 0.46889 0.0
C1153 C 0.28337 0.83526 0.42609 0.0
H1154 H 0.3074 0.7843 0.41768 0.0
C1155 C 0.28949 0.79944 0.35377 0.0
C1156 C 0.28616 0.77863 0.35158 0.0
C1157 C 0.29119 0.80869 0.37119 0.0
C1158 C 0.30048 0.79844 0.41982 0.0
H1159 H 0.26946 0.86293 0.4897 0.0
H1160 H 0.26636 0.84663 0.45929 0.0
H1161 H 0.3092 0.80054 0.44804 0.0
H1162 H 0.28253 0.75115 0.36605 0.0
H1163 H 0.28518 0.76733 0.39646 0.0
H1164 H 0.27433 0.83294 0.39795 0.0
C1165 C 0.27977 0.84647 0.46659 0.0
C1166 C 0.30169 0.80787 0.43718 0.0
C1167 C 0.28153 0.85575 0.48405 0.0
C1168 C 0.28493 0.76723 0.36725 0.0
C1169 C 0.28662 0.77649 0.38468 0.0
C1170 C 0.28215 0.82582 0.40872 0.0
C1171 C 0.29503 0.83668 0.45888 0.0
C1172 C 0.29324 0.82645 0.4405 0.0
C1173 C 0.28958 0.79736 0.38685 0.0
C1174 C 0.29076 0.80733 0.40536 0.0
H1175 H 0.32727 0.84539 0.49357 0.0
H1176 H 0.32425 0.82959 0.46322 0.0
H1177 H 0.27682 0.84963 0.42815 0.0
H1178 H 0.29027 0.80873 0.34202 0.0
H1179 H 0.29374 0.82475 0.37238 0.0
C1180 C 0.41393 0.01432 0.69059 0.0
C1181 C 0.41447 -0.00337 0.70039 0.0
C1182 C 0.42613 0.01724 0.6764 0.0
C1183 C 0.45736 0.99123 0.64468 0.0
H1184 H 0.48289 0.0431 0.64457 0.0
C1185 C 0.51533 0.00545 0.59451 0.0
C1186 C 0.51359 0.0231 0.58477 0.0
C1187 C 0.50519 0.00279 0.61021 0.0
C1188 C 0.47581 0.02858 0.64436 0.0
H1189 H 0.42751 0.96768 0.7023 0.0
H1190 H 0.44872 0.97277 0.67751 0.0
H1191 H 0.45976 0.03678 0.6675 0.0
H1192 H 0.50107 0.05244 0.58472 0.0
H1193 H 0.48332 0.04774 0.612 0.0
H1194 H 0.47316 0.98308 0.62142 0.0
C1195 C 0.4389 0.98439 0.68082 0.0
C1196 C 0.46251 0.02499 0.65743 0.0
C1197 C 0.42675 0.98149 0.69505 0.0
C1198 C 0.50271 0.03866 0.59189 0.0
C1199 C 0.49253 0.03596 0.60757 0.0
C1200 C 0.47061 0.99484 0.63158 0.0
C1201 C 0.43904 0.0025 0.67165 0.0
C1202 C 0.45307 0.00631 0.65768 0.0
C1203 C 0.4931 0.01769 0.61649 0.0
C1204 C 0.47995 0.01358 0.63122 0.0
H1205 H 0.40459 0.02626 0.6943 0.0
H1206 H 0.42566 0.03119 0.66934 0.0
H1207 H 0.45019 0.97676 0.6444 0.0
H1208 H 0.52371 0.99322 0.58947 0.0
H1209 H 0.50628 0.98873 0.61705 0.0
C1210 C 0.28696 0.12977 0.93019 0.0
C1211 C 0.30026 0.13633 0.94378 0.0
C1212 C 0.27759 0.14358 0.91957 0.0
C1213 C 0.28199 0.19544 0.90432 0.0
H1214 H 0.23093 0.18507 0.88638 0.0
C1215 C 0.24832 0.24556 0.85149 0.0
C1216 C 0.24236 0.23444 0.83556 0.0
C1217 C 0.25151 0.23598 0.8679 0.0
C1218 C 0.24514 0.18823 0.89142 0.0
H1219 H 0.31381 0.16262 0.95717 0.0
H1220 H 0.29726 0.1867 0.93888 0.0
H1221 H 0.24482 0.16342 0.90905 0.0
H1222 H 0.23371 0.2047 0.82491 0.0
H1223 H 0.23881 0.18828 0.85347 0.0
H1224 H 0.28244 0.21996 0.88641 0.0
C1225 C 0.29434 0.17085 0.93615 0.0
C1226 C 0.25316 0.17577 0.90428 0.0
C1227 C 0.30382 0.15703 0.94666 0.0
C1228 C 0.23806 0.21387 0.83686 0.0
C1229 C 0.24105 0.20438 0.85329 0.0
C1230 C 0.27393 0.20798 0.8916 0.0
C1231 C 0.28118 0.1643 0.92241 0.0
C1232 C 0.27186 0.17889 0.91048 0.0
C1233 C 0.24855 0.21516 0.86875 0.0
C1234 C 0.25561 0.20417 0.88465 0.0
H1235 H 0.28388 0.11393 0.92761 0.0
H1236 H 0.26782 0.13796 0.90888 0.0
H1237 H 0.29649 0.19818 0.9086 0.0
H1238 H 0.25138 0.26149 0.85109 0.0
H1239 H 0.25705 0.24468 0.87972 0.0
C1240 C 0.11566 0.01097 0.32911 0.0
C1241 C 0.13137 -0.00101 0.32671 0.0
C1242 C 0.11243 0.02013 0.3461 0.0
C1243 C 0.12321 0.01439 0.39479 0.0
H1244 H 0.09994 0.06625 0.39968 0.0
C1245 C 0.09783 0.04115 0.4637 0.0
C1246 C 0.07873 0.04575 0.46306 0.0
C1247 C 0.108 0.04084 0.44781 0.0
C1248 C 0.10655 0.05181 0.39851 0.0
H1249 H 0.15601 0.98722 0.34026 0.0
H1250 H 0.15061 0.00358 0.36978 0.0
H1251 H 0.11077 0.05449 0.36992 0.0
H1252 H 0.05588 0.05576 0.44572 0.0
H1253 H 0.07352 0.05468 0.41786 0.0
H1254 H 0.1185 0.01133 0.42311 0.0
C1255 C 0.14069 0.00575 0.35857 0.0
C1256 C 0.11265 0.04504 0.3815 0.0
C1257 C 0.14386 -0.00353 0.34161 0.0
C1258 C 0.07049 0.05179 0.44655 0.0
C1259 C 0.08066 0.0514 0.43063 0.0
C1260 C 0.1172 0.02118 0.41175 0.0
C1261 C 0.12487 0.01756 0.36104 0.0
C1262 C 0.1206 0.02601 0.37938 0.0
C1263 C 0.09926 0.04502 0.43099 0.0
C1264 C 0.10839 0.03973 0.4137 0.0
H1265 H 0.10577 0.01321 0.31789 0.0
H1266 H 0.09991 0.02881 0.34763 0.0
H1267 H 0.129 -0.00046 0.3936 0.0
H1268 H 0.10462 0.03635 0.47617 0.0
H1269 H 0.12241 0.03616 0.44851 0.0
C1270 C 0.26408 0.83006 0.58176 0.0
C1271 C 0.28221 0.83 0.57494 0.0
C1272 C 0.25805 0.81484 0.59285 0.0
C1273 C 0.27807 0.77917 0.62454 0.0
H1274 H 0.22611 0.76295 0.62904 0.0
C1275 C 0.25667 0.73576 0.6859 0.0
C1276 C 0.24243 0.74514 0.6956 0.0
C1277 C 0.25954 0.74021 0.66774 0.0
C1278 C 0.24069 0.76725 0.62786 0.0
H1279 H 0.3077 0.81307 0.57327 0.0
H1280 H 0.29703 0.78625 0.59228 0.0
H1281 H 0.23535 0.7819 0.60278 0.0
H1282 H 0.21889 0.76499 0.69335 0.0
H1283 H 0.22406 0.77294 0.66175 0.0
H1284 H 0.28337 0.7652 0.64983 0.0
C1285 C 0.28765 0.79839 0.58949 0.0
C1286 C 0.24598 0.77816 0.61288 0.0
C1287 C 0.29376 0.81373 0.57854 0.0
C1288 C 0.23006 0.7576 0.68628 0.0
C1289 C 0.23296 0.76209 0.66812 0.0
C1290 C 0.27281 0.76821 0.6394 0.0
C1291 C 0.26994 0.79907 0.59724 0.0
C1292 C 0.26466 0.78476 0.61134 0.0
C1293 C 0.24826 0.75414 0.65894 0.0
C1294 C 0.25399 0.7626 0.64151 0.0
H1295 H 0.25479 0.84234 0.57922 0.0
H1296 H 0.24442 0.81603 0.59873 0.0
H1297 H 0.29251 0.78426 0.62404 0.0
H1298 H 0.26629 0.72585 0.69261 0.0
H1299 H 0.27121 0.73355 0.66089 0.0
C1300 C 0.40284 -0.00376 0.81554 0.0
C1301 C 0.41104 0.99204 0.79872 0.0
C1302 C 0.41183 0.99098 0.83184 0.0
C1303 C 0.4514 0.96157 0.85074 0.0
H1304 H 0.45239 0.00333 0.88906 0.0
C1305 C 0.50903 0.97096 0.90797 0.0
C1306 C 0.50322 0.97607 0.92563 0.0
C1307 C 0.49607 0.96982 0.89323 0.0
C1308 C 0.45204 0.99139 0.8786 0.0
H1309 H 0.43468 0.97832 0.78573 0.0
H1310 H 0.45054 0.96974 0.81403 0.0
H1311 H 0.4322 0.00659 0.86206 0.0
H1312 H 0.47932 0.9838 0.94174 0.0
H1313 H 0.45678 0.98175 0.91604 0.0
H1314 H 0.47198 0.94688 0.86712 0.0
C1315 C 0.43703 0.9767 0.81473 0.0
C1316 C 0.44039 0.9932 0.86314 0.0
C1317 C 0.42798 0.98178 0.79847 0.0
C1318 C 0.48419 0.97959 0.92832 0.0
C1319 C 0.4713 0.97859 0.91361 0.0
C1320 C 0.46321 0.95987 0.86616 0.0
C1321 C 0.42927 0.9816 0.83164 0.0
C1322 C 0.44012 0.97846 0.84889 0.0
C1323 C 0.47715 0.97398 0.89589 0.0
C1324 C 0.46379 0.97489 0.88012 0.0
H1325 H 0.38976 0.00405 0.81619 0.0
H1326 H 0.4053 0.99466 0.84462 0.0
H1327 H 0.4513 0.94978 0.84015 0.0
H1328 H 0.52359 0.96808 0.90553 0.0
H1329 H 0.50096 0.9664 0.87966 0.0
C1330 C 0.27857 0.09741 0.03036 0.0
C1331 C 0.28818 0.1109 0.01959 0.0
C1332 C 0.26829 0.10467 0.04511 0.0
C1333 C 0.24961 0.1516 0.06628 0.0
H1334 H 0.26777 0.13068 0.11202 0.0
C1335 C 0.24008 0.19515 0.13466 0.0
C1336 C 0.2559 0.19622 0.14659 0.0
C1337 C 0.23918 0.18154 0.11965 0.0
C1338 C 0.26254 0.13669 0.09937 0.0
H1339 H 0.29314 0.1423 0.01449 0.0
H1340 H 0.27534 0.15485 0.0398 0.0
H1341 H 0.27314 0.11217 0.08339 0.0
H1342 H 0.28315 0.18383 0.15222 0.0
H1343 H 0.28192 0.16054 0.12575 0.0
H1344 H 0.24032 0.17687 0.08196 0.0
C1345 C 0.27569 0.13877 0.03719 0.0
C1346 C 0.26532 0.12589 0.08298 0.0
C1347 C 0.28609 0.13158 0.02278 0.0
C1348 C 0.27074 0.18327 0.14331 0.0
C1349 C 0.26993 0.16978 0.12821 0.0
C1350 C 0.24692 0.16244 0.08262 0.0
C1351 C 0.2672 0.12547 0.04893 0.0
C1352 C 0.25964 0.13371 0.06621 0.0
C1353 C 0.25417 0.16879 0.11614 0.0
C1354 C 0.25405 0.15554 0.0993 0.0
H1355 H 0.27987 0.08137 0.02803 0.0
H1356 H 0.26176 0.09408 0.05388 0.0
H1357 H 0.24486 0.15787 0.05357 0.0
H1358 H 0.22825 0.20466 0.13707 0.0
H1359 H 0.22673 0.18101 0.11081 0.0
C1360 C 0.25209 0.05176 0.98893 0.0
C1361 C 0.26202 0.06378 0.97721 0.0
C1362 C 0.23922 0.06022 0.00062 0.0
C1363 C 0.20688 0.10145 -0.0005 0.0
H1364 H 0.1883 0.07387 0.04097 0.0
C1365 C 0.12901 0.08614 0.00732 0.0
C1366 C 0.12189 0.08236 0.02446 0.0
C1367 C 0.14803 0.09057 0.00562 0.0
C1368 C 0.19328 0.08222 0.02967 0.0
H1369 H 0.26733 0.09415 0.96912 0.0
H1370 H 0.24491 0.10922 0.9899 0.0
H1371 H 0.22072 0.07047 0.03304 0.0
H1372 H 0.12866 0.08161 0.05344 0.0
H1373 H 0.16178 0.09005 0.05064 0.0
H1374 H 0.17946 0.11318 -0.00392 0.0
C1375 C 0.24698 0.0932 0.99 0.0
C1376 C 0.21192 0.08006 0.025 0.0
C1377 C 0.25994 0.08464 0.97825 0.0
C1378 C 0.13391 0.08417 0.04002 0.0
C1379 C 0.15289 0.08894 0.03838 0.0
C1380 C 0.18832 0.10391 0.00437 0.0
C1381 C 0.23583 0.08093 0.00069 0.0
C1382 C 0.21859 0.08856 0.00915 0.0
C1383 C 0.16034 0.09165 0.02109 0.0
C1384 C 0.18096 0.09332 0.01882 0.0
H1385 H 0.25338 0.0356 0.98818 0.0
H1386 H 0.23081 0.05017 0.00839 0.0
H1387 H 0.21147 0.10835 0.98725 0.0
H1388 H 0.12005 0.08471 0.9951 0.0
H1389 H 0.15317 0.09213 0.99202 0.0
C1390 C 0.7141 0.42052 0.038 0.0
C1391 C 0.72118 0.41295 0.0544 0.0
C1392 C 0.69593 0.42776 0.03685 0.0
C1393 C 0.65875 0.44722 0.0662 0.0
H1394 H 0.62862 0.44181 0.02123 0.0
C1395 C 0.58195 0.47349 0.05866 0.0
C1396 C 0.57795 0.48452 0.0431 0.0
C1397 C 0.59916 0.46408 0.06074 0.0
C1398 C 0.63694 0.44349 0.03385 0.0
H1399 H 0.71451 0.40614 0.08216 0.0
H1400 H 0.68266 0.41821 0.07999 0.0
H1401 H 0.65877 0.42551 0.02326 0.0
H1402 H 0.58897 0.49464 0.0177 0.0
H1403 H 0.61881 0.47816 0.02133 0.0
H1404 H 0.63671 0.46509 0.07677 0.0
C1405 C 0.69129 0.41913 0.06818 0.0
C1406 C 0.65422 0.43422 0.03501 0.0
C1407 C 0.70951 0.41209 0.06939 0.0
C1408 C 0.59159 0.48625 0.02985 0.0
C1409 C 0.60863 0.4767 0.03184 0.0
C1410 C 0.64136 0.45632 0.06509 0.0
C1411 C 0.68438 0.42737 0.052 0.0
C1412 C 0.66547 0.43619 0.05112 0.0
C1413 C 0.61251 0.46536 0.04719 0.0
C1414 C 0.63043 0.45477 0.04882 0.0
H1415 H 0.72279 0.42146 0.02624 0.0
H1416 H 0.69117 0.43423 0.02423 0.0
H1417 H 0.66715 0.44933 0.07873 0.0
H1418 H 0.57172 0.47189 0.06909 0.0
H1419 H 0.60183 0.45539 0.07269 0.0
C1420 C 0.86009 0.4505 0.24962 0.0
C1421 C 0.85448 0.46572 0.26191 0.0
C1422 C 0.85121 0.43154 0.24916 0.0
C1423 C 0.82224 0.40002 0.27845 0.0
H1424 H 0.81172 0.36776 0.23402 0.0
C1425 C 0.76953 0.334 0.27452 0.0
C1426 C 0.77549 0.3158 0.26665 0.0
C1427 C 0.78039 0.35149 0.27344 0.0
C1428 C 0.81477 0.37658 0.24653 0.0
H1429 H 0.83444 0.47353 0.28241 0.0
H1430 H 0.81862 0.44102 0.28115 0.0
H1431 H 0.82805 0.40027 0.23245 0.0
H1432 H 0.79736 0.30168 0.25126 0.0
H1433 H 0.81624 0.33255 0.24911 0.0
H1434 H 0.80843 0.37669 0.29242 0.0
C1435 C 0.83032 0.44326 0.27239 0.0
C1436 C 0.82413 0.39514 0.24566 0.0
C1437 C 0.8393 0.46198 0.27302 0.0
C1438 C 0.79248 0.31548 0.25754 0.0
C1439 C 0.80321 0.33311 0.25621 0.0
C1440 C 0.81272 0.38167 0.27927 0.0
C1441 C 0.83646 0.4276 0.26086 0.0
C1442 C 0.82768 0.40725 0.2616 0.0
C1443 C 0.79729 0.35123 0.26425 0.0
C1444 C 0.80865 0.36992 0.26331 0.0
H1445 H 0.87178 0.453 0.24092 0.0
H1446 H 0.85631 0.41982 0.24012 0.0
H1447 H 0.82523 0.40862 0.29109 0.0
H1448 H 0.75651 0.33473 0.28162 0.0
H1449 H 0.77546 0.36532 0.27964 0.0
C1450 C 0.83549 0.55842 0.53521 0.0
C1451 C 0.82705 0.56294 0.51831 0.0
C1452 C 0.8534 0.55042 0.53604 0.0
C1453 C 0.89587 0.54973 0.53309 0.0
H1454 H 0.91202 0.50821 0.49904 0.0
C1455 C 0.97212 0.52246 0.53396 0.0
C1456 C 0.98 0.5187 0.51689 0.0
C1457 C 0.95297 0.52596 0.53515 0.0
C1458 C 0.90779 0.51996 0.50854 0.0
H1459 H 0.83027 0.56158 0.48899 0.0
H1460 H 0.86144 0.54746 0.49043 0.0
H1461 H 0.8791 0.51703 0.49925 0.0
H1462 H 0.97397 0.51575 0.48769 0.0
H1463 H 0.94081 0.52236 0.48971 0.0
H1464 H 0.92457 0.55322 0.54198 0.0
C1465 C 0.85427 0.55016 0.50303 0.0
C1466 C 0.88891 0.52493 0.5087 0.0
C1467 C 0.83646 0.55835 0.50222 0.0
C1468 C 0.96834 0.51852 0.50106 0.0
C1469 C 0.94926 0.52215 0.50224 0.0
C1470 C 0.91477 0.54489 0.53284 0.0
C1471 C 0.8631 0.54655 0.51997 0.0
C1472 C 0.88279 0.54002 0.52083 0.0
C1473 C 0.94131 0.52588 0.51929 0.0
C1474 C 0.92102 0.53012 0.52039 0.0
H1475 H 0.8286 0.56183 0.54786 0.0
H1476 H 0.8598 0.54759 0.54927 0.0
H1477 H 0.8916 0.56163 0.54242 0.0
H1478 H 0.9807 0.52256 0.54643 0.0
H1479 H 0.9473 0.52853 0.54852 0.0
C1480 C 0.18742 0.05597 0.28988 0.0
C1481 C 0.17311 0.04414 0.28101 0.0
C1482 C 0.19058 0.07573 0.28505 0.0
C1483 C 0.18224 0.11021 0.24767 0.0
H1484 H 0.19681 0.1506 0.28522 0.0
C1485 C 0.2171 0.18547 0.23133 0.0
C1486 C 0.21309 0.20266 0.24204 0.0
C1487 C 0.20998 0.16671 0.23568 0.0
C1488 C 0.19249 0.1396 0.27457 0.0
H1489 H 0.15079 0.04391 0.26016 0.0
H1490 H 0.15615 0.07853 0.25194 0.0
H1491 H 0.18836 0.11687 0.29388 0.0
H1492 H 0.19795 0.21378 0.26536 0.0
H1493 H 0.18523 0.18099 0.27278 0.0
H1494 H 0.18613 0.13305 0.22838 0.0
C1495 C 0.16511 0.07239 0.26244 0.0
C1496 C 0.18791 0.12018 0.27952 0.0
C1497 C 0.16201 0.05256 0.2672 0.0
C1498 C 0.20138 0.20078 0.25691 0.0
C1499 C 0.19417 0.18199 0.26121 0.0
C1500 C 0.18673 0.12968 0.24272 0.0
C1501 C 0.17944 0.0842 0.27132 0.0
C1502 C 0.18303 0.10517 0.26611 0.0
C1503 C 0.1986 0.1647 0.25078 0.0
C1504 C 0.19221 0.14451 0.25609 0.0
H1505 H 0.1963 0.04994 0.30051 0.0
H1506 H 0.20196 0.08429 0.29192 0.0
H1507 H 0.17866 0.09899 0.23698 0.0
H1508 H 0.22612 0.18639 0.2198 0.0
H1509 H 0.21391 0.15368 0.22752 0.0
C1510 C 0.3268 0.94295 0.53174 0.0
C1511 C 0.32749 0.92428 0.53999 0.0
C1512 C 0.34317 0.95431 0.52964 0.0
C1513 C 0.39191 0.95953 0.54812 0.0
H1514 H 0.40101 0.98773 0.50385 0.0
C1515 C 0.46501 0.98197 0.52778 0.0
C1516 C 0.46846 0.00232 0.52453 0.0
C1517 C 0.44682 0.97462 0.52921 0.0
C1518 C 0.39848 0.98014 0.51636 0.0
H1519 H 0.34596 0.90279 0.55223 0.0
H1520 H 0.37444 0.92215 0.54804 0.0
H1521 H 0.37094 0.97018 0.50722 0.0
H1522 H 0.45545 0.03075 0.51945 0.0
H1523 H 0.42325 0.01755 0.5216 0.0
H1524 H 0.41969 0.96875 0.5569 0.0
C1525 C 0.36124 0.92831 0.54358 0.0
C1526 C 0.38132 0.97011 0.51832 0.0
C1527 C 0.3449 0.91706 0.54579 0.0
C1528 C 0.4532 0.01502 0.52201 0.0
C1529 C 0.43485 0.00751 0.52321 0.0
C1530 C 0.40904 0.96931 0.54607 0.0
C1531 C 0.36057 0.94718 0.53571 0.0
C1532 C 0.37803 0.95931 0.53407 0.0
C1533 C 0.43162 0.98734 0.52721 0.0
C1534 C 0.41261 0.97933 0.53004 0.0
H1535 H 0.31357 0.94897 0.52718 0.0
H1536 H 0.34215 0.96884 0.52365 0.0
H1537 H 0.38966 0.95186 0.56064 0.0
H1538 H 0.4764 0.97172 0.52972 0.0
H1539 H 0.44463 0.95895 0.53207 0.0
C1540 C 0.84257 0.57447 0.2435 0.0
C1541 C 0.83958 0.55901 0.25552 0.0
C1542 C 0.82927 0.58925 0.24127 0.0
C1543 C 0.79853 0.61817 0.23498 0.0
H1544 H 0.77199 0.63299 0.27847 0.0
C1545 C 0.76413 0.69493 0.24094 0.0
C1546 C 0.76576 0.70477 0.25819 0.0
C1547 C 0.76759 0.67443 0.23899 0.0
C1548 C 0.77945 0.62926 0.26624 0.0
H1549 H 0.81987 0.54577 0.27355 0.0
H1550 H 0.79594 0.57067 0.26869 0.0
H1551 H 0.78935 0.60243 0.27754 0.0
H1552 H 0.77173 0.70102 0.28699 0.0
H1553 H 0.77904 0.66588 0.28359 0.0
H1554 H 0.79042 0.64611 0.2245 0.0
C1555 C 0.80894 0.57219 0.26169 0.0
C1556 C 0.78916 0.61133 0.26552 0.0
C1557 C 0.82256 0.55777 0.26438 0.0
C1558 C 0.77025 0.69372 0.27354 0.0
C1559 C 0.77428 0.67341 0.27154 0.0
C1560 C 0.78937 0.63644 0.23595 0.0
C1561 C 0.81236 0.58857 0.2506 0.0
C1562 C 0.79939 0.60583 0.25011 0.0
C1563 C 0.77338 0.6635 0.25418 0.0
C1564 C 0.78024 0.6426 0.25186 0.0
H1565 H 0.85568 0.57581 0.23661 0.0
H1566 H 0.8328 0.60169 0.23291 0.0
H1567 H 0.80557 0.6142 0.22256 0.0
H1568 H 0.76046 0.70315 0.22891 0.0
H1569 H 0.76616 0.66734 0.22547 0.0
C1570 C 0.70963 0.44422 0.76703 0.0
C1571 C 0.69399 0.45055 0.75682 0.0
C1572 C 0.71936 0.42734 0.76134 0.0
C1573 C 0.74131 0.39363 0.74472 0.0
H1574 H 0.70823 0.3482 0.73171 0.0
C1575 C 0.74153 0.30143 0.73375 0.0
C1576 C 0.75088 0.29687 0.75022 0.0
C1577 C 0.73766 0.32128 0.72992 0.0
C1578 C 0.71776 0.36077 0.73492 0.0
H1579 H 0.67713 0.44487 0.73191 0.0
H1580 H 0.69429 0.41539 0.72188 0.0
H1581 H 0.69576 0.38178 0.73288 0.0
H1582 H 0.76448 0.30962 0.77505 0.0
H1583 H 0.7576 0.34423 0.7684 0.0
H1584 H 0.76309 0.37232 0.74776 0.0
C1585 C 0.69878 0.42336 0.73447 0.0
C1586 C 0.71061 0.38007 0.73556 0.0
C1587 C 0.689 0.44029 0.74019 0.0
C1588 C 0.75716 0.31263 0.76229 0.0
C1589 C 0.75336 0.33249 0.75841 0.0
C1590 C 0.74844 0.37429 0.74418 0.0
C1591 C 0.71375 0.41639 0.74526 0.0
C1592 C 0.72216 0.39665 0.74107 0.0
C1593 C 0.74315 0.33697 0.74241 0.0
C1594 C 0.73659 0.35762 0.73985 0.0
H1595 H 0.71399 0.45182 0.77984 0.0
H1596 H 0.73065 0.42229 0.77012 0.0
H1597 H 0.75065 0.40615 0.74867 0.0
H1598 H 0.73664 0.28962 0.72409 0.0
H1599 H 0.72993 0.32433 0.7174 0.0
C1600 C 0.97687 0.86518 0.94506 0.0
C1601 C 0.98353 0.85935 0.92787 0.0
C1602 C 0.98688 0.87915 0.95639 0.0
C1603 C 0.02007 0.92119 0.95568 0.0
H1604 H 0.0238 0.91368 0.00788 0.0
C1605 C 0.04598 0.98544 0.00517 0.0
C1606 C 0.03334 0.98929 0.01908 0.0
C1607 C 0.04504 0.96716 0.99512 0.0
C1608 C 0.02295 0.91597 0.99333 0.0
H1609 H 0.00593 0.86381 0.90908 0.0
H1610 H 0.0233 0.88852 0.9289 0.0
H1611 H 0.01156 0.88642 0.98743 0.0
H1612 H 0.01094 0.97646 0.03442 0.0
H1613 H 0.00929 0.94479 0.01701 0.0
H1614 H 0.03057 0.95106 0.96162 0.0
C1615 C 0.01034 0.88213 0.93355 0.0
C1616 C 0.01591 0.90039 0.98164 0.0
C1617 C 0.00039 0.86798 0.92223 0.0
C1618 C 0.0208 0.97398 0.0237 0.0
C1619 C 0.01995 0.95574 0.01377 0.0
C1620 C 0.02704 0.93683 0.96739 0.0
C1621 C 0.00373 0.88774 0.9508 0.0
C1622 C 0.01383 0.90308 0.96277 0.0
C1623 C 0.03158 0.95237 -0.00105 0.0
C1624 C 0.02795 0.93461 0.98641 0.0
H1625 H 0.96397 0.85883 0.94987 0.0
H1626 H 0.98126 0.88347 0.96948 0.0
H1627 H 0.01855 0.92372 0.9412 0.0
H1628 H 0.0558 -0.00303 0.00132 0.0
H1629 H 0.05434 0.96489 0.98391 0.0
C1630 C 0.94999 0.25427 0.6989 0.0
C1631 C 0.95044 0.25831 0.68025 0.0
C1632 C 0.93308 0.24943 0.70687 0.0
C1633 C 0.88205 0.25485 0.69877 0.0
H1634 H 0.87831 0.2188 0.73881 0.0
C1635 C 0.81133 0.23142 0.72659 0.0
C1636 C 0.80966 0.23414 0.74557 0.0
C1637 C 0.82882 0.23251 0.71882 0.0
C1638 C 0.87923 0.22895 0.72768 0.0
H1639 H 0.93361 0.25943 0.65517 0.0
H1640 H 0.9044 0.2502 0.66876 0.0
H1641 H 0.90834 0.22357 0.72439 0.0
H1642 H 0.82512 0.23933 0.77137 0.0
H1643 H 0.85584 0.24102 0.75768 0.0
H1644 H 0.85291 0.25998 0.70189 0.0
C1645 C 0.91695 0.25146 0.67745 0.0
C1646 C 0.8964 0.23175 0.71945 0.0
C1647 C 0.93378 0.25659 0.66958 0.0
C1648 C 0.82595 0.23725 0.75669 0.0
C1649 C 0.84352 0.23811 0.74889 0.0
C1650 C 0.8649 0.25185 0.70682 0.0
C1651 C 0.91628 0.24828 0.69628 0.0
C1652 C 0.89803 0.24477 0.70489 0.0
C1653 C 0.84504 0.23613 0.72986 0.0
C1654 C 0.86332 0.23891 0.72135 0.0
H1655 H 0.96261 0.25554 0.70752 0.0
H1656 H 0.93311 0.2473 0.72144 0.0
H1657 H 0.88282 0.26539 0.68794 0.0
H1658 H 0.79907 0.22895 0.71763 0.0
H1659 H 0.82965 0.23072 0.70411 0.0
C1660 C 0.45797 0.24809 0.44905 0.0
C1661 C 0.46987 0.25715 0.43677 0.0
C1662 C 0.46532 0.23739 0.46349 0.0
C1663 C 0.5068 0.20854 0.47453 0.0
H1664 H 0.4799 0.19943 0.51861 0.0
C1665 C 0.52268 0.14129 0.51833 0.0
C1666 C 0.50667 0.12901 0.51999 0.0
C1667 C 0.52096 0.16105 0.51301 0.0
C1668 C 0.48767 0.20198 0.50646 0.0
H1669 H 0.4989 0.2634 0.43087 0.0
H1670 H 0.51175 0.24496 0.45633 0.0
H1671 H 0.47232 0.2282 0.50033 0.0
H1672 H 0.47637 0.12804 0.51863 0.0
H1673 H 0.47333 0.16262 0.50936 0.0
H1674 H 0.52173 0.18199 0.48036 0.0
C1675 C 0.4967 0.24574 0.45451 0.0
C1676 C 0.48331 0.21837 0.49595 0.0
C1677 C 0.48933 0.25634 0.43994 0.0
C1678 C 0.48892 0.13717 0.51729 0.0
C1679 C 0.48719 0.15699 0.51219 0.0
C1680 C 0.51131 0.19232 0.48515 0.0
C1681 C 0.48477 0.23562 0.46611 0.0
C1682 C 0.49224 0.22131 0.47942 0.0
C1683 C 0.50321 0.16892 0.50949 0.0
C1684 C 0.50125 0.18842 0.50078 0.0
H1685 H 0.44291 0.24847 0.4471 0.0
H1686 H 0.45566 0.22959 0.47194 0.0
H1687 H 0.51386 0.21016 0.46181 0.0
H1688 H 0.53654 0.1353 0.52024 0.0
H1689 H 0.5335 0.16997 0.51104 0.0
C1690 C 0.57177 0.80315 0.18881 0.0
C1691 C 0.56182 0.7862 0.18139 0.0
C1692 C 0.59004 0.80144 0.19585 0.0
C1693 C 0.63098 0.7687 0.19458 0.0
H1694 H 0.64512 0.79668 0.2405 0.0
C1695 C 0.69437 0.77019 0.25327 0.0
C1696 C 0.70996 0.77079 0.24213 0.0
C1697 C 0.67632 0.77199 0.24571 0.0
C1698 C 0.64134 0.78866 0.22773 0.0
H1699 H 0.56332 0.75418 0.17534 0.0
H1700 H 0.59512 0.75118 0.18774 0.0
H1701 H 0.61357 0.80001 0.22743 0.0
H1702 H 0.71881 0.77362 0.21429 0.0
H1703 H 0.68735 0.77691 0.20117 0.0
H1704 H 0.65862 0.75705 0.19505 0.0
C1705 C 0.58887 0.76584 0.18796 0.0
C1706 C 0.62335 0.79076 0.22014 0.0
C1707 C 0.57061 0.76755 0.18094 0.0
C1708 C 0.7071 0.77306 0.22326 0.0
C1709 C 0.68906 0.77484 0.21571 0.0
C1710 C 0.64897 0.76662 0.20216 0.0
C1711 C 0.59875 0.78274 0.19559 0.0
C1712 C 0.61796 0.78078 0.20349 0.0
C1713 C 0.67348 0.77439 0.22686 0.0
C1714 C 0.65434 0.77656 0.21883 0.0
H1715 H 0.56542 0.81775 0.1893 0.0
H1716 H 0.59738 0.81478 0.20142 0.0
H1717 H 0.6273 0.76096 0.18165 0.0
H1718 H 0.6961 0.76841 0.26786 0.0
H1719 H 0.66456 0.77134 0.25462 0.0
C1720 C 0.98384 0.19949 0.61693 0.0
C1721 C -0.00464 0.21322 0.62737 0.0
C1722 C 0.99018 0.18041 0.61215 0.0
C1723 C 0.00287 0.13747 0.61329 0.0
H1724 H 0.05249 0.1313 0.59439 0.0
C1725 C 0.02872 0.05989 0.59064 0.0
C1726 C 0.03627 0.059 0.57318 0.0
C1727 C 0.02633 0.07837 0.59979 0.0
C1728 C 0.03861 0.13279 0.59969 0.0
H1729 H 0.02271 0.21761 0.64089 0.0
H1730 H 0.03375 0.18425 0.63252 0.0
H1731 H 0.04247 0.16444 0.60496 0.0
H1732 H 0.04838 0.07673 0.55217 0.0
H1733 H 0.04409 0.10891 0.56807 0.0
H1734 H -0.0013 0.10604 0.60744 0.0
C1735 C 0.01983 0.18834 0.62798 0.0
C1736 C 0.03293 0.15172 0.60587 0.0
C1737 C 0.01345 0.20743 0.63283 0.0
C1738 C 0.04245 0.07688 0.56558 0.0
C1739 C 0.04009 0.09535 0.57475 0.0
C1740 C 0.00856 0.11856 0.60717 0.0
C1741 C 0.00822 0.1746 0.61766 0.0
C1742 C 0.01486 0.15432 0.61242 0.0
C1743 C 0.03148 0.09634 0.5917 0.0
C1744 C 0.02638 0.11605 0.60002 0.0
H1745 H 0.96985 0.20342 0.61244 0.0
H1746 H 0.98101 0.17028 0.60394 0.0
H1747 H 0.98895 0.13894 0.6185 0.0
H1748 H 0.02392 0.04637 0.59693 0.0
H1749 H 0.01995 0.07863 0.61299 0.0
C1750 C 0.53315 0.31173 0.37357 0.0
C1751 C 0.51788 0.31578 0.36187 0.0
C1752 C 0.55134 0.31667 0.36874 0.0
C1753 C 0.57899 0.34371 0.33436 0.0
H1754 H 0.61468 0.30224 0.34432 0.0
C1755 C 0.64396 0.32574 0.29212 0.0
C1756 C 0.6603 0.32036 0.30176 0.0
C1757 C 0.6277 0.33005 0.30144 0.0
C1758 C 0.60498 0.31414 0.34169 0.0
H1759 H 0.50952 0.32884 0.3363 0.0
H1760 H 0.54118 0.33659 0.32745 0.0
H1761 H 0.58404 0.30049 0.35733 0.0
H1762 H 0.67265 0.31623 0.32879 0.0
H1763 H 0.64433 0.3238 0.34496 0.0
H1764 H 0.59988 0.35656 0.31772 0.0
C1765 C 0.53924 0.33016 0.3406 0.0
C1766 C 0.58739 0.31321 0.34922 0.0
C1767 C 0.52105 0.32555 0.3456 0.0
C1768 C 0.66036 0.3205 0.32095 0.0
C1769 C 0.64412 0.32467 0.33023 0.0
C1770 C 0.59656 0.34446 0.32658 0.0
C1771 C 0.55466 0.32538 0.35192 0.0
C1772 C 0.57404 0.3278 0.34546 0.0
C1773 C 0.6275 0.32887 0.32053 0.0
C1774 C 0.60961 0.32954 0.33003 0.0
H1775 H 0.53108 0.30447 0.38633 0.0
H1776 H 0.56283 0.31323 0.37802 0.0
H1777 H 0.56919 0.3554 0.33141 0.0
H1778 H 0.64357 0.32591 0.27734 0.0
H1779 H 0.61503 0.33316 0.29363 0.0
C1780 C 0.50104 0.8162 0.0921 0.0
C1781 C 0.50911 0.81328 0.10951 0.0
C1782 C 0.50775 0.83144 0.08135 0.0
C1783 C 0.54729 0.86838 0.07737 0.0
H1784 H 0.50967 0.8977 0.05074 0.0
C1785 C 0.55939 0.94777 0.04954 0.0
C1786 C 0.55232 0.95085 0.03176 0.0
C1787 C 0.55558 0.92977 0.05801 0.0
C1788 C 0.52036 0.88953 0.05795 0.0
H1789 H 0.53094 0.82377 0.12908 0.0
H1790 H 0.54223 0.85069 0.11065 0.0
H1791 H 0.50038 0.86837 0.06719 0.0
H1792 H 0.53599 0.93732 0.00881 0.0
H1793 H 0.52918 0.90608 0.02371 0.0
H1794 H 0.56713 0.89022 0.06856 0.0
C1795 C 0.53099 0.84096 0.10505 0.0
C1796 C 0.51507 0.87262 0.06732 0.0
C1797 C 0.52444 0.82554 0.11569 0.0
C1798 C 0.54165 0.93544 0.02252 0.0
C1799 C 0.53767 0.91758 0.03106 0.0
C1800 C 0.55254 0.88548 0.06816 0.0
C1801 C 0.52253 0.84433 0.08786 0.0
C1802 C 0.52844 0.86182 0.07721 0.0
C1803 C 0.54443 0.91464 0.04895 0.0
C1804 C 0.53911 0.89622 0.05838 0.0
H1805 H 0.48934 0.80687 0.08685 0.0
H1806 H 0.50117 0.83324 0.06801 0.0
H1807 H 0.55803 0.8603 0.08459 0.0
H1808 H 0.56767 0.95935 0.057 0.0
H1809 H 0.56086 0.92794 0.07186 0.0
C1810 C 0.92445 0.83385 0.84325 0.0
C1811 C 0.92616 0.83047 0.86201 0.0
C1812 C 0.90727 0.83055 0.83388 0.0
C1813 C 0.86712 0.79674 0.83867 0.0
H1814 H 0.85174 0.81693 0.79174 0.0
C1815 C 0.80526 0.7641 0.79253 0.0
C1816 C 0.80869 0.76214 0.77377 0.0
C1817 C 0.81861 0.77324 0.80465 0.0
C1818 C 0.85598 0.81112 0.80481 0.0
H1819 H 0.91077 0.82434 0.88621 0.0
H1820 H 0.88067 0.81932 0.87 0.0
H1821 H 0.8748 0.83597 0.81114 0.0
H1822 H 0.82936 0.76677 0.75325 0.0
H1823 H 0.85267 0.78261 0.77448 0.0
H1824 H 0.84839 0.77183 0.83222 0.0
C1825 C 0.89272 0.82358 0.86235 0.0
C1826 C 0.8691 0.82205 0.81594 0.0
C1827 C 0.90994 0.82662 0.87167 0.0
C1828 C 0.8263 0.768 0.76762 0.0
C1829 C 0.83954 0.77735 0.7797 0.0
C1830 C 0.8539 0.78594 0.82762 0.0
C1831 C 0.8915 0.82409 0.84319 0.0
C1832 C 0.87518 0.81473 0.83281 0.0
C1833 C 0.83552 0.78071 0.79817 0.0
C1834 C 0.84859 0.79276 0.8104 0.0
H1835 H 0.93669 0.83695 0.83543 0.0
H1836 H 0.90688 0.83118 0.81913 0.0
H1837 H 0.87171 0.7904 0.85139 0.0
H1838 H 0.79181 0.75975 0.79767 0.0
H1839 H 0.81525 0.77555 0.81886 0.0
C1840 C 0.94302 0.0164 0.85053 0.0
C1841 C 0.92351 0.01818 0.85141 0.0
C1842 C 0.95464 0.02139 0.86583 0.0
C1843 C 0.95467 0.05316 0.90786 0.0
H1844 H -0.00328 0.02175 0.92391 0.0
C1845 C 0.98581 0.0585 0.98052 0.0
C1846 C 0.00518 0.05675 0.98355 0.0
C1847 C 0.97791 0.05655 0.96292 0.0
C1848 C 0.98526 0.03089 0.91936 0.0
H1849 H 0.90084 0.02542 0.86928 0.0
H1850 H 0.92103 0.03374 0.89596 0.0
H1851 H 0.97851 0.01106 0.89625 0.0
H1852 H 0.03162 0.05243 0.97052 0.0
H1853 H 0.01767 0.04885 0.93947 0.0
H1854 H 0.96106 0.0727 0.93115 0.0
C1855 C 0.92739 0.02895 0.88336 0.0
C1856 C 0.97479 0.02472 0.90359 0.0
C1857 C 0.9158 0.02397 0.86811 0.0
C1858 C 0.01665 0.05394 0.96852 0.0
C1859 C 0.00867 0.05173 0.95082 0.0
C1860 C 0.9651 0.05931 0.92356 0.0
C1861 C 0.94693 0.02828 0.88223 0.0
C1862 C 0.95909 0.03551 0.89799 0.0
C1863 C 0.98918 0.05264 0.94794 0.0
C1864 C 0.98019 0.04796 0.92974 0.0
H1865 H 0.94937 0.01199 0.83783 0.0
H1866 H 0.96965 0.0207 0.86459 0.0
H1867 H 0.94293 0.06208 0.90359 0.0
H1868 H 0.97664 0.0607 0.99186 0.0
H1869 H 0.96284 0.05711 0.96117 0.0
C1870 C 0.7704 0.13004 0.5422 0.0
C1871 C 0.78249 0.14352 0.53386 0.0
C1872 C 0.76213 0.1355 0.55861 0.0
C1873 C 0.74485 0.17724 0.58454 0.0
H1874 H 0.75738 0.14931 0.62855 0.0
C1875 C 0.73315 0.21175 0.65598 0.0
C1876 C 0.73166 0.19937 0.67097 0.0
C1877 C 0.73565 0.2035 0.63849 0.0
C1878 C 0.75326 0.157 0.61638 0.0
H1879 H 0.79525 0.17332 0.53599 0.0
H1880 H 0.78028 0.18306 0.56447 0.0
H1881 H 0.76941 0.13749 0.59946 0.0
H1882 H 0.72991 0.16841 0.67893 0.0
H1883 H 0.73306 0.15399 0.64825 0.0
H1884 H 0.72836 0.19651 0.60112 0.0
C1885 C 0.77747 0.16821 0.55836 0.0
C1886 C 0.76034 0.15029 0.59975 0.0
C1887 C 0.78611 0.16259 0.54219 0.0
C1888 C 0.73103 0.17845 0.66775 0.0
C1889 C 0.73318 0.17016 0.65014 0.0
C1890 C 0.7374 0.1837 0.60108 0.0
C1891 C 0.76544 0.1547 0.56666 0.0
C1892 C 0.75655 0.16066 0.58383 0.0
C1893 C 0.73631 0.18258 0.6354 0.0
C1894 C 0.74191 0.17401 0.61734 0.0
H1895 H 0.7674 0.11523 0.53608 0.0
H1896 H 0.75291 0.12488 0.56486 0.0
H1897 H 0.74159 0.18528 0.57231 0.0
H1898 H 0.73321 0.22793 0.65786 0.0
H1899 H 0.73808 0.21367 0.62763 0.0
C1900 C 0.61432 -0.00293 0.35784 0.0
C1901 C 0.60717 -0.00166 0.33985 0.0
C1902 C 0.60305 0.00124 0.37259 0.0
C1903 C 0.5789 0.0245 0.39927 0.0
H1904 H 0.53327 0.99328 0.40503 0.0
C1905 C 0.53458 0.03571 0.46239 0.0
C1906 C 0.53234 0.01795 0.47186 0.0
C1907 C 0.54034 0.03496 0.44438 0.0
C1908 C 0.54587 0.00224 0.40346 0.0
H1909 H 0.58238 0.00436 0.32321 0.0
H1910 H 0.56248 0.0111 0.3492 0.0
H1911 H 0.5507 0.98902 0.37692 0.0
H1912 H 0.53309 0.98546 0.46955 0.0
H1913 H 0.54295 0.9842 0.438 0.0
H1914 H 0.57443 0.03739 0.42588 0.0
C1915 C 0.57694 0.00721 0.35173 0.0
C1916 C 0.55575 -0.00013 0.38742 0.0
C1917 C 0.58833 0.00338 0.33693 0.0
C1918 C 0.53483 -0.0006 0.46263 0.0
C1919 C 0.54034 -0.00135 0.44454 0.0
C1920 C 0.5689 0.0271 0.41514 0.0
C1921 C 0.58431 0.00638 0.36966 0.0
C1922 C 0.57259 0.01062 0.38544 0.0
C1923 C 0.54366 0.01645 0.43545 0.0
C1924 C 0.55254 0.01566 0.41755 0.0
H1925 H 0.62862 0.9929 0.36063 0.0
H1926 H 0.60893 0.00021 0.38634 0.0
H1927 H 0.59182 0.033 0.39796 0.0
H1928 H 0.53272 0.05023 0.46914 0.0
H1929 H 0.54272 0.04888 0.43758 0.0
C1930 C 0.82472 0.81389 0.03885 0.0
C1931 C 0.80579 0.81762 0.03478 0.0
C1932 C 0.82962 0.79983 0.05176 0.0
C1933 C 0.80886 0.76416 0.0846 0.0
H1934 H 0.84144 0.79443 0.11942 0.0
C1935 C 0.80929 0.78826 0.16451 0.0
C1936 C 0.80404 0.77015 0.17221 0.0
C1937 C 0.81511 0.78847 0.14656 0.0
C1938 C 0.83237 0.78569 0.10985 0.0
H1939 H 0.77733 0.80722 0.03874 0.0
H1940 H 0.78569 0.78337 0.06136 0.0
H1941 H 0.84116 0.8026 0.08752 0.0
H1942 H 0.8018 0.73789 0.16747 0.0
H1943 H 0.81203 0.73824 0.13601 0.0
H1944 H 0.79875 0.74863 0.10737 0.0
C1945 C 0.79691 0.79114 0.05482 0.0
C1946 C 0.83243 0.79014 0.09141 0.0
C1947 C 0.79204 0.80506 0.04187 0.0
C1948 C 0.80546 0.75213 0.16179 0.0
C1949 C 0.81136 0.75232 0.14379 0.0
C1950 C 0.80864 0.75988 0.10311 0.0
C1951 C 0.81566 0.78935 0.06085 0.0
C1952 C 0.81988 0.78022 0.07871 0.0
C1953 C 0.81594 0.77055 0.13586 0.0
C1954 C 0.81965 0.77139 0.11606 0.0
H1955 H 0.83571 0.82304 0.03336 0.0
H1956 H 0.84425 0.79835 0.05566 0.0
H1957 H 0.79937 0.75586 0.07513 0.0
H1958 H 0.80812 0.80242 0.17209 0.0
H1959 H 0.81811 0.80285 0.14081 0.0
C1960 C 0.89729 0.00103 0.73954 0.0
C1961 C 0.902 0.02021 0.74716 0.0
C1962 C 0.90281 -0.00464 0.72203 0.0
C1963 C 0.92231 0.01523 0.67982 0.0
H1964 H 0.94609 0.96353 0.67618 0.0
C1965 C 0.98038 -0.00117 0.63062 0.0
C1966 C 0.97952 0.9808 0.62005 0.0
C1967 C 0.96791 0.0022 0.64449 0.0
C1968 C 0.93919 0.97783 0.67688 0.0
H1969 H 0.91539 0.04881 0.74208 0.0
H1970 H 0.92532 0.03885 0.71172 0.0
H1971 H 0.92881 0.97261 0.70332 0.0
H1972 H 0.96506 0.95205 0.6158 0.0
H1973 H 0.94329 0.95784 0.64063 0.0
H1974 H 0.93357 0.02079 0.65377 0.0
C1975 C 0.91714 0.02824 0.71913 0.0
C1976 C 0.92926 0.98305 0.69238 0.0
C1977 C 0.91156 0.03393 0.7366 0.0
C1978 C 0.96604 0.96604 0.62382 0.0
C1979 C 0.95364 0.96934 0.63795 0.0
C1980 C 0.93235 0.01007 0.66442 0.0
C1981 C 0.91318 0.00875 0.71181 0.0
C1982 C 0.92118 0.00205 0.69424 0.0
C1983 C 0.95434 0.98759 0.64821 0.0
C1984 C 0.94133 0.99158 0.66307 0.0
H1985 H 0.88976 0.99017 0.74727 0.0
H1986 H 0.89928 0.98036 0.71666 0.0
H1987 H 0.9159 0.02978 0.68066 0.0
H1988 H 0.99038 0.01064 0.62782 0.0
H1989 H 0.96891 0.01628 0.65238 0.0
C1990 C 0.78637 0.19351 0.4539 0.0
C1991 C 0.7779 0.17428 0.45263 0.0
C1992 C 0.78099 0.20817 0.44182 0.0
C1993 C 0.74601 0.21986 0.40488 0.0
H1994 H 0.78892 0.24567 0.38401 0.0
C1995 C 0.76806 0.24782 0.33114 0.0
C1996 C 0.75202 0.25804 0.32555 0.0
C1997 C 0.77065 0.24252 0.34924 0.0
C1998 C 0.77677 0.23866 0.38973 0.0
H1999 H 0.75632 0.15579 0.43843 0.0
H2000 H 0.74732 0.18109 0.41702 0.0
H2001 H 0.79319 0.22679 0.41143 0.0
H2002 H 0.72651 0.27158 0.33476 0.0
H2003 H 0.7311 0.26234 0.36655 0.0
H2004 H 0.72985 0.23063 0.38233 0.0
C2005 C 0.75789 0.18504 0.42754 0.0
C2006 C 0.77916 0.22803 0.40562 0.0
C2007 C 0.76314 0.17044 0.43976 0.0
C2008 C 0.73899 0.26364 0.33865 0.0
C2009 C 0.74157 0.25827 0.35682 0.0
C2010 C 0.74363 0.23043 0.38889 0.0
C2011 C 0.76716 0.20388 0.42805 0.0
C2012 C 0.76391 0.21795 0.41308 0.0
C2013 C 0.75726 0.24732 0.36222 0.0
C2014 C 0.75911 0.23937 0.38081 0.0
H2015 H 0.79759 0.19706 0.46387 0.0
H2016 H 0.78812 0.22267 0.44288 0.0
H2017 H 0.73391 0.21257 0.41043 0.0
H2018 H 0.77839 0.24331 0.32141 0.0
H2019 H 0.78276 0.23384 0.35284 0.0
C2020 C 0.65075 0.0145 0.23465 0.0
C2021 C 0.63517 0.0201 0.24466 0.0
C2022 C 0.65215 0.01975 0.2165 0.0
C2023 C 0.63016 0.05084 0.18051 0.0
H2024 H 0.64528 0.00714 0.14829 0.0
C2025 C 0.60749 0.01607 0.10623 0.0
C2026 C 0.60678 0.03318 0.09573 0.0
C2027 C 0.61629 0.0169 0.12345 0.0
C2028 C 0.64114 0.01956 0.1571 0.0
H2029 H 0.60911 0.0361 0.24375 0.0
H2030 H 0.61106 0.04447 0.21187 0.0
H2031 H 0.65002 0.00477 0.18103 0.0
H2032 H 0.61546 0.06438 0.09452 0.0
H2033 H 0.631 0.06592 0.12498 0.0
H2034 H 0.61987 0.06481 0.15649 0.0
C2035 C 0.62252 0.03653 0.2181 0.0
C2036 C 0.64405 0.01832 0.17591 0.0
C2037 C 0.62127 0.03153 0.23635 0.0
C2038 C 0.61578 0.051 0.10243 0.0
C2039 C 0.62457 0.05189 0.11983 0.0
C2040 C 0.62707 0.05197 0.16165 0.0
C2041 C 0.63785 0.03045 0.20786 0.0
C2042 C 0.63793 0.03359 0.1879 0.0
C2043 C 0.62467 0.03488 0.1306 0.0
C2044 C 0.63181 0.03593 0.14984 0.0
H2045 H 0.66186 0.00598 0.24082 0.0
H2046 H 0.66432 0.01515 0.20915 0.0
H2047 H 0.62571 0.0631 0.18933 0.0
H2048 H 0.60091 0.00204 0.10124 0.0
H2049 H 0.61582 0.0036 0.13145 0.0
C2050 C 0.77986 0.86614 0.94897 0.0
C2051 C 0.76909 0.86297 0.9643 0.0
C2052 C 0.77316 0.85986 0.93154 0.0
C2053 C 0.73091 0.84095 0.90447 0.0
H2054 H 0.76829 0.81531 0.87507 0.0
C2055 C 0.71813 0.81127 0.82894 0.0
C2056 C 0.72777 0.79394 0.82355 0.0
C2057 C 0.72098 0.81996 0.84656 0.0
C2058 C 0.7576 0.82222 0.88315 0.0
H2059 H 0.74243 0.85152 0.97325 0.0
H2060 H 0.731 0.83997 0.94287 0.0
H2061 H 0.77748 0.83087 0.90444 0.0
H2062 H 0.74727 0.7717 0.83314 0.0
H2063 H 0.75127 0.78608 0.86371 0.0
H2064 H 0.71091 0.83152 0.8832 0.0
C2065 C 0.7445 0.84762 0.94427 0.0
C2066 C 0.76295 0.83149 0.89991 0.0
C2067 C 0.75113 0.85412 0.96172 0.0
C2068 C 0.73932 0.78484 0.83663 0.0
C2069 C 0.74195 0.79334 0.85419 0.0
C2070 C 0.72551 0.83153 0.88764 0.0
C2071 C 0.75563 0.84999 0.92903 0.0
C2072 C 0.74971 0.84094 0.91083 0.0
C2073 C 0.73344 0.81142 0.85916 0.0
C2074 C 0.7388 0.82187 0.87689 0.0
H2075 H 0.79362 0.87322 0.95044 0.0
H2076 H 0.7819 0.86241 0.92004 0.0
H2077 H 0.72038 0.84824 0.91249 0.0
H2078 H 0.70886 0.81853 0.81939 0.0
H2079 H 0.71413 0.83386 0.84999 0.0
C2080 C 0.80809 0.92838 0.01236 0.0
C2081 C 0.79316 0.92638 0.02412 0.0
C2082 C 0.8209 0.94439 0.01492 0.0
C2083 C 0.84404 0.97071 0.0521 0.0
H2084 H 0.86634 0.00363 0.0158 0.0
C2085 C 0.92191 0.99495 0.05021 0.0
C2086 C 0.92585 0.01568 0.04954 0.0
C2087 C 0.90348 0.98757 0.04879 0.0
C2088 C 0.86007 0.99471 0.02611 0.0
H2089 H 0.77915 0.93993 0.04706 0.0
H2090 H 0.80203 0.96773 0.05196 0.0
H2091 H 0.83661 0.98551 0.00848 0.0
H2092 H 0.91304 0.04487 0.04767 0.0
H2093 H 0.88098 0.03165 0.0441 0.0
H2094 H 0.8682 0.97865 0.06921 0.0
C2095 C 0.80357 0.95711 0.04057 0.0
C2096 C 0.84315 0.98439 0.02194 0.0
C2097 C 0.79046 0.94135 0.0377 0.0
C2098 C 0.91073 0.0288 0.04779 0.0
C2099 C 0.89232 0.02132 0.04591 0.0
C2100 C 0.86115 0.98064 0.05611 0.0
C2101 C 0.81921 0.95836 0.02955 0.0
C2102 C 0.83517 0.97204 0.0348 0.0
C2103 C 0.88861 0.00065 0.04629 0.0
C2104 C 0.86943 0.99242 0.04303 0.0
H2105 H 0.81041 0.91699 0.0018 0.0
H2106 H 0.83291 0.94496 0.00632 0.0
H2107 H 0.83828 0.96103 0.06214 0.0
H2108 H 0.93303 0.98425 0.05115 0.0
H2109 H 0.90089 0.97152 0.04893 0.0
C2110 C 0.32964 0.58047 -0.00084 0.0
C2111 C 0.3282 0.59712 0.98807 0.0
C2112 C 0.34714 0.57273 0.00361 0.0
C2113 C 0.39399 0.56884 0.98607 0.0
H2114 H 0.40883 0.55503 0.03529 0.0
C2115 C 0.46874 0.54425 0.00444 0.0
C2116 C 0.47096 0.5294 0.01735 0.0
C2117 C 0.45125 0.55252 0.0011 0.0
C2118 C 0.4048 0.55852 0.02142 0.0
H2119 H 0.34392 0.61897 0.97326 0.0
H2120 H 0.37444 0.60534 0.98094 0.0
H2121 H 0.37834 0.56976 0.0295 0.0
H2122 H 0.45655 0.51124 0.03662 0.0
H2123 H 0.42591 0.52522 0.03039 0.0
H2124 H 0.42013 0.55724 0.97781 0.0
C2125 C 0.36204 0.59828 0.98614 0.0
C2126 C 0.38738 0.56703 0.01815 0.0
C2127 C 0.34459 0.60614 0.98185 0.0
C2128 C 0.45529 0.52275 0.02665 0.0
C2129 C 0.43775 0.53088 0.02318 0.0
C2130 C 0.4113 0.56013 0.98928 0.0
C2131 C 0.36346 0.58137 -0.00312 0.0
C2132 C 0.38188 0.57236 0.00046 0.0
C2133 C 0.43554 0.54597 0.01046 0.0
C2134 C 0.41697 0.55494 0.00701 0.0
H2135 H 0.31725 0.57322 0.00416 0.0
H2136 H 0.34787 0.55961 0.01185 0.0
H2137 H 0.38994 0.57252 0.97224 0.0
H2138 H 0.48058 0.54979 -0.00285 0.0
H2139 H 0.45014 0.56434 0.99144 0.0
C2140 C 0.18411 0.5527 0.8189 0.0
C2141 C 0.17481 0.53808 0.8074 0.0
C2142 C 0.18678 0.57224 0.81308 0.0
C2143 C 0.19146 0.59901 0.77092 0.0
H2144 H 0.18718 0.64691 0.80205 0.0
C2145 C 0.20001 0.69052 0.76671 0.0
C2146 C 0.21805 0.69166 0.75975 0.0
C2147 C 0.19247 0.67209 0.77166 0.0
C2148 C 0.18821 0.63367 0.79315 0.0
H2149 H 0.16023 0.53286 0.78107 0.0
H2150 H 0.16491 0.56681 0.77104 0.0
H2151 H 0.17773 0.61425 0.81327 0.0
H2152 H 0.24203 0.67437 0.75182 0.0
H2153 H 0.22876 0.64225 0.76019 0.0
H2154 H 0.20224 0.6183 0.75095 0.0
C2155 C 0.17034 0.56309 0.78444 0.0
C2156 C 0.183 0.615 0.79963 0.0
C2157 C 0.16763 0.54364 0.79025 0.0
C2158 C 0.2281 0.67397 0.75718 0.0
C2159 C 0.22048 0.65557 0.76189 0.0
C2160 C 0.19681 0.6176 0.76453 0.0
C2161 C 0.18024 0.57749 0.79564 0.0
C2162 C 0.18473 0.59748 0.78862 0.0
C2163 C 0.20273 0.65448 0.76944 0.0
C2164 C 0.19544 0.63508 0.77565 0.0
H2165 H 0.18977 0.54894 0.8322 0.0
H2166 H 0.19456 0.58303 0.82195 0.0
H2167 H 0.19312 0.58574 0.76219 0.0
H2168 H 0.19198 0.70394 0.76891 0.0
H2169 H 0.17869 0.6716 0.77734 0.0
C2170 C 0.20873 0.39324 0.53011 0.0
C2171 C 0.20564 0.37741 0.51717 0.0
C2172 C 0.19963 0.4114 0.52805 0.0
C2173 C 0.171 0.44078 0.49582 0.0
H2174 H 0.14389 0.4556 0.53902 0.0
C2175 C 0.09993 0.47879 0.49284 0.0
C2176 C 0.0944 0.49084 0.50776 0.0
C2177 C 0.11739 0.46982 0.49319 0.0
C2178 C 0.15166 0.45213 0.52692 0.0
H2179 H 0.19114 0.36793 0.49183 0.0
H2180 H 0.17519 0.39964 0.48814 0.0
H2181 H 0.16823 0.43093 0.54096 0.0
H2182 H 0.10343 0.50425 0.53411 0.0
H2183 H 0.1341 0.48895 0.53454 0.0
H2184 H 0.15396 0.46156 0.48164 0.0
C2185 C 0.18487 0.39829 0.49969 0.0
C2186 C 0.16564 0.43791 0.52804 0.0
C2187 C 0.19387 0.38012 0.50183 0.0
C2188 C 0.1072 0.49484 0.52249 0.0
C2189 C 0.12474 0.48599 0.52277 0.0
C2190 C 0.15709 0.45513 0.49471 0.0
C2191 C 0.18724 0.41393 0.51305 0.0
C2192 C 0.17503 0.4316 0.51239 0.0
C2193 C 0.12979 0.47282 0.50841 0.0
C2194 C 0.14681 0.46048 0.51012 0.0
H2195 H 0.21745 0.39122 0.54225 0.0
H2196 H 0.20176 0.4232 0.53853 0.0
H2197 H 0.17821 0.43638 0.48358 0.0
H2198 H 0.09042 0.47544 0.48125 0.0
H2199 H 0.12067 0.45961 0.48196 0.0
C2200 C 0.87614 0.9445 0.79731 0.0
C2201 C 0.86827 0.95281 0.81313 0.0
C2202 C 0.86869 0.92683 0.78892 0.0
C2203 C 0.83523 0.88428 0.79497 0.0
H2204 H 0.82828 0.88623 0.74231 0.0
C2205 C 0.77988 0.8357 0.75568 0.0
C2206 C 0.78633 0.82336 0.74134 0.0
C2207 C 0.7911 0.85137 0.7633 0.0
C2208 C 0.8303 0.88542 0.75697 0.0
H2209 H 0.8471 0.94842 0.83317 0.0
H2210 H 0.83386 0.91785 0.81838 0.0
H2211 H 0.84686 0.91249 0.75902 0.0
H2212 H 0.80898 0.81885 0.72276 0.0
H2213 H 0.82844 0.84682 0.73589 0.0
H2214 H 0.81801 0.85761 0.7929 0.0
C2215 C 0.84596 0.9248 0.81254 0.0
C2216 C 0.84103 0.90036 0.76657 0.0
C2217 C 0.85353 0.94239 0.82103 0.0
C2218 C 0.8036 0.82812 0.73376 0.0
C2219 C 0.81478 0.84402 0.74133 0.0
C2220 C 0.82436 0.8695 0.7854 0.0
C2221 C 0.85309 0.91714 0.79608 0.0
C2222 C 0.84336 0.90014 0.78573 0.0
C2223 C 0.80889 0.85522 0.75662 0.0
C2224 C 0.82152 0.87016 0.76638 0.0
H2225 H 0.88766 0.95205 0.79099 0.0
H2226 H 0.87482 0.92108 0.77651 0.0
H2227 H 0.83706 0.8834 0.80964 0.0
H2228 H 0.7666 0.83257 0.76177 0.0
H2229 H 0.7861 0.8601 0.77485 0.0
C2230 C 0.71541 0.09364 0.48721 0.0
C2231 C 0.7293 0.07905 0.48652 0.0
C2232 C 0.69751 0.08875 0.49295 0.0
C2233 C 0.66522 0.04593 0.49912 0.0
H2234 H 0.64132 0.08276 0.5328 0.0
C2235 C 0.59641 0.02427 0.5319 0.0
C2236 C 0.58238 0.0387 0.53148 0.0
C2237 C 0.61483 0.02949 0.52811 0.0
C2238 C 0.64776 0.0724 0.52331 0.0
H2239 H 0.73515 0.04779 0.49091 0.0
H2240 H 0.70398 0.03931 0.50095 0.0
H2241 H 0.6722 0.09125 0.52173 0.0
H2242 H 0.57689 0.07017 0.52775 0.0
H2243 H 0.60902 0.07924 0.52102 0.0
H2244 H 0.6408 0.02715 0.50055 0.0
C2245 C 0.70688 0.05449 0.49695 0.0
C2246 C 0.66541 0.07727 0.51693 0.0
C2247 C 0.72477 0.05938 0.49126 0.0
C2248 C 0.58737 0.0587 0.52818 0.0
C2249 C 0.6058 0.06391 0.52437 0.0
C2250 C 0.6476 0.04107 0.50548 0.0
C2251 C 0.69311 0.06917 0.49806 0.0
C2252 C 0.67432 0.0641 0.50474 0.0
C2253 C 0.61963 0.04925 0.5238 0.0
C2254 C 0.63866 0.05424 0.51764 0.0
H2255 H 0.71843 0.10894 0.48363 0.0
H2256 H 0.68712 0.10032 0.49339 0.0
H2257 H 0.67159 0.0356 0.48954 0.0
H2258 H 0.59307 0.00876 0.53452 0.0
H2259 H 0.62525 0.01794 0.52815 0.0
C2260 C 0.22548 0.45961 0.77863 0.0
C2261 C 0.2219 0.45813 0.79725 0.0
C2262 C 0.23943 0.44824 0.77069 0.0
C2263 C 0.27557 0.40964 0.78076 0.0
H2264 H 0.25161 0.3826 0.73811 0.0
C2265 C 0.27422 0.32528 0.76745 0.0
C2266 C 0.27378 0.31705 0.74951 0.0
C2267 C 0.27534 0.34599 0.77069 0.0
C2268 C 0.25887 0.39021 0.74969 0.0
H2269 H 0.23124 0.44523 0.82256 0.0
H2270 H 0.25493 0.42469 0.80867 0.0
H2271 H 0.24031 0.41466 0.74881 0.0
H2272 H 0.2753 0.32397 0.72092 0.0
H2273 H 0.27682 0.36039 0.72663 0.0
H2274 H 0.29308 0.38402 0.78236 0.0
C2275 C 0.24738 0.4349 0.80014 0.0
C2276 C 0.2524 0.40874 0.75587 0.0
C2277 C 0.23368 0.44661 0.80815 0.0
C2278 C 0.27547 0.32991 0.73489 0.0
C2279 C 0.27637 0.35072 0.73814 0.0
C2280 C 0.28192 0.39095 0.77466 0.0
C2281 C 0.24973 0.43477 0.78112 0.0
C2282 C 0.26004 0.41823 0.77202 0.0
C2283 C 0.27588 0.35895 0.75607 0.0
C2284 C 0.27301 0.38066 0.75958 0.0
H2285 H 0.2168 0.46872 0.77 0.0
H2286 H 0.24126 0.44902 0.75613 0.0
H2287 H 0.28211 0.41676 0.79295 0.0
H2288 H 0.27317 0.31574 0.77902 0.0
H2289 H 0.27466 0.35186 0.78464 0.0
C2290 C 0.29631 0.54337 0.30762 0.0
C2291 C 0.30583 0.5327 0.29405 0.0
C2292 C 0.28402 0.55844 0.3029 0.0
C2293 C 0.27728 0.59288 0.26509 0.0
H2294 H 0.24083 0.61565 0.29745 0.0
C2295 C 0.2468 0.67013 0.25352 0.0
C2296 C 0.25104 0.68369 0.26833 0.0
C2297 C 0.24807 0.64951 0.25563 0.0
C2298 C 0.25086 0.60932 0.28823 0.0
H2299 H 0.30836 0.5277 0.26488 0.0
H2300 H 0.28598 0.55313 0.25653 0.0
H2301 H 0.25172 0.58165 0.30197 0.0
H2302 H 0.25864 0.68623 0.29724 0.0
H2303 H 0.26066 0.65004 0.30094 0.0
H2304 H 0.27638 0.62058 0.25142 0.0
C2305 C 0.28872 0.55068 0.27088 0.0
C2306 C 0.25722 0.58992 0.29084 0.0
C2307 C 0.30142 0.53596 0.27562 0.0
C2308 C 0.25542 0.67616 0.28556 0.0
C2309 C 0.25644 0.65547 0.28771 0.0
C2310 C 0.27063 0.61203 0.26227 0.0
C2311 C 0.28065 0.56289 0.28447 0.0
C2312 C 0.27104 0.5817 0.2797 0.0
C2313 C 0.25331 0.64204 0.27264 0.0
C2314 C 0.25782 0.62065 0.27414 0.0
H2315 H 0.29947 0.5412 0.32196 0.0
H2316 H 0.2783 0.5675 0.31384 0.0
H2317 H 0.28817 0.58744 0.2564 0.0
H2318 H 0.24329 0.67544 0.24008 0.0
H2319 H 0.24555 0.63941 0.24383 0.0
C2320 C 0.47663 0.70937 0.64308 0.0
C2321 C 0.49267 0.71831 0.65181 0.0
C2322 C 0.47826 0.69599 0.62808 0.0
C2323 C 0.51233 0.66266 0.60629 0.0
H2324 H 0.47562 0.66041 0.56606 0.0
C2325 C 0.51683 0.60395 0.54737 0.0
C2326 C 0.50023 0.5925 0.54448 0.0
C2327 C 0.51675 0.62218 0.55746 0.0
C2328 C 0.48601 0.66094 0.57718 0.0
H2329 H 0.523 0.72056 0.65131 0.0
H2330 H 0.52575 0.69761 0.6251 0.0
H2331 H 0.47372 0.68647 0.59024 0.0
H2332 H 0.47033 0.59182 0.54856 0.0
H2333 H 0.47018 0.62354 0.566 0.0
H2334 H 0.52442 0.63696 0.59343 0.0
C2335 C 0.51194 0.70055 0.63004 0.0
C2336 C 0.48486 0.67575 0.59108 0.0
C2337 C 0.51033 0.71377 0.64507 0.0
C2338 C 0.48337 0.60026 0.55069 0.0
C2339 C 0.48326 0.61852 0.56058 0.0
C2340 C 0.51354 0.64795 0.59236 0.0
C2341 C 0.49595 0.69138 0.62143 0.0
C2342 C 0.49782 0.67656 0.60597 0.0
C2343 C 0.50003 0.62933 0.5646 0.0
C2344 C 0.5002 0.6467 0.57784 0.0
H2345 H 0.46282 0.71254 0.64794 0.0
H2346 H 0.46567 0.68895 0.62194 0.0
H2347 H 0.52239 0.66264 0.61767 0.0
H2348 H 0.53002 0.59833 0.54273 0.0
H2349 H 0.52985 0.63035 0.56022 0.0
C2350 C 0.55841 0.25594 0.82592 0.0
C2351 C 0.55601 0.25891 0.84477 0.0
C2352 C 0.57626 0.25566 0.8189 0.0
C2353 C 0.62485 0.24561 0.83249 0.0
H2354 H 0.63558 0.26772 0.7857 0.0
C2355 C 0.6987 0.24623 0.80361 0.0
C2356 C 0.7002 0.24108 0.78493 0.0
C2357 C 0.68124 0.24915 0.81103 0.0
C2358 C 0.63272 0.26131 0.79869 0.0
H2359 H 0.57046 0.26467 0.871 0.0
H2360 H 0.60179 0.26437 0.85867 0.0
H2361 H 0.60507 0.27293 0.7988 0.0
H2362 H 0.68452 0.23483 0.75943 0.0
H2363 H 0.65389 0.23984 0.77249 0.0
H2364 H 0.65246 0.23391 0.83233 0.0
C2365 C 0.58979 0.26197 0.84937 0.0
C2366 C 0.61528 0.26433 0.80622 0.0
C2367 C 0.57187 0.26227 0.85642 0.0
C2368 C 0.68382 0.23879 0.77386 0.0
C2369 C 0.66631 0.24179 0.7813 0.0
C2370 C 0.6423 0.24263 0.82498 0.0
C2371 C 0.59217 0.25836 0.83056 0.0
C2372 C 0.61111 0.25638 0.82314 0.0
C2373 C 0.66486 0.24703 0.79997 0.0
C2374 C 0.64637 0.25034 0.80795 0.0
H2375 H 0.54648 0.25334 0.81656 0.0
H2376 H 0.5776 0.25261 0.80439 0.0
H2377 H 0.62197 0.23899 0.84538 0.0
H2378 H 0.71104 0.24815 0.81254 0.0
H2379 H 0.68059 0.2534 0.82541 0.0
C2380 C 0.95622 0.31955 0.15222 0.0
C2381 C 0.96155 0.32118 0.17082 0.0
C2382 C 0.96339 0.33315 0.14007 0.0
C2383 C 0.00452 0.36756 0.13732 0.0
H2384 H 0.9803 0.38162 0.09158 0.0
C2385 C 0.02969 0.42975 0.09085 0.0
C2386 C 0.03187 0.42421 0.0723 0.0
C2387 C 0.02183 0.41636 0.10269 0.0
C2388 C 0.98722 0.37759 0.10426 0.0
H2389 H 0.97694 0.33913 0.19171 0.0
H2390 H 0.98837 0.36373 0.17083 0.0
H2391 H 0.96293 0.36208 0.11317 0.0
H2392 H 0.02819 0.39962 0.05207 0.0
H2393 H 0.01357 0.37658 0.07277 0.0
H2394 H 0.02851 0.38388 0.1286 0.0
C2395 C 0.9795 0.35144 0.16534 0.0
C2396 C 0.97732 0.36643 0.11663 0.0
C2397 C 0.97273 0.33757 0.17738 0.0
C2398 C 0.02645 0.40461 0.06612 0.0
C2399 C 0.01815 0.39137 0.07793 0.0
C2400 C 0.01424 0.37903 0.12512 0.0
C2401 C 0.97572 0.34883 0.14642 0.0
C2402 C 0.98583 0.3613 0.13336 0.0
C2403 C 0.01559 0.39729 0.09622 0.0
C2404 C 0.00568 0.3841 0.10852 0.0
H2405 H 0.94781 0.30683 0.14684 0.0
H2406 H 0.96021 0.33054 0.12563 0.0
H2407 H 0.0118 0.36343 0.14976 0.0
H2408 H 0.03313 0.44477 0.09617 0.0
H2409 H 0.01984 0.42125 0.11675 0.0
C2410 C 0.94866 0.75553 0.36603 0.0
C2411 C 0.96472 0.7626 0.35762 0.0
C2412 C 0.93104 0.75715 0.35755 0.0
C2413 C 0.90507 0.78213 0.32041 0.0
H2414 H 0.87133 0.73624 0.32359 0.0
C2415 C 0.83573 0.77132 0.27739 0.0
C2416 C 0.82004 0.76612 0.28738 0.0
C2417 C 0.85366 0.77131 0.28559 0.0
C2418 C 0.88058 0.74919 0.32267 0.0
H2419 H 0.97486 0.77738 0.33392 0.0
H2420 H 0.94413 0.77974 0.31888 0.0
H2421 H 0.90203 0.73607 0.33893 0.0
H2422 H 0.81083 0.75668 0.31369 0.0
H2423 H 0.84211 0.75645 0.32784 0.0
H2424 H 0.88354 0.79502 0.30381 0.0
C2425 C 0.9451 0.77328 0.33219 0.0
C2426 C 0.89812 0.74917 0.33154 0.0
C2427 C 0.96273 0.77185 0.34078 0.0
C2428 C 0.82263 0.76076 0.30563 0.0
C2429 C 0.84053 0.76053 0.31372 0.0
C2430 C 0.88754 0.78206 0.31138 0.0
C2431 C 0.92909 0.76563 0.34034 0.0
C2432 C 0.91052 0.76572 0.33068 0.0
C2433 C 0.8562 0.76585 0.3038 0.0
C2434 C 0.87509 0.76566 0.31259 0.0
H2435 H 0.94967 0.74836 0.37899 0.0
H2436 H 0.91895 0.7515 0.3644 0.0
H2437 H 0.9142 0.79519 0.3196 0.0
H2438 H 0.83414 0.77558 0.26332 0.0
H2439 H 0.86556 0.77536 0.27764 0.0
C2440 C 0.50688 0.3178 0.91297 0.0
C2441 C 0.49415 0.30319 0.91873 0.0
C2442 C 0.50957 0.33604 0.92289 0.0
C2443 C 0.50468 0.35986 0.9685 0.0
H2444 H 0.5038 0.4096 0.94288 0.0
C2445 C 0.50346 0.43673 0.00733 0.0
C2446 C 0.51374 0.45272 0.00037 0.0
C2447 C 0.50099 0.41859 -0.00276 0.0
C2448 C 0.50436 0.39587 0.95026 0.0
H2449 H 0.47451 0.29624 0.93965 0.0
H2450 H 0.47938 0.32793 0.95698 0.0
H2451 H 0.50039 0.37766 0.92563 0.0
H2452 H 0.52951 0.46216 0.97733 0.0
H2453 H 0.52564 0.43044 0.95997 0.0
H2454 H 0.50898 0.3779 0.99308 0.0
C2455 C 0.48725 0.32527 0.94479 0.0
C2456 C 0.50236 0.37757 0.94035 0.0
C2457 C 0.4844 0.30715 0.93478 0.0
C2458 C 0.52141 0.45019 0.98305 0.0
C2459 C 0.5191 0.43199 0.97304 0.0
C2460 C 0.50687 0.37814 0.9784 0.0
C2461 C 0.49978 0.33996 0.9389 0.0
C2462 C 0.50241 0.35937 0.94937 0.0
C2463 C 0.50889 0.41591 0.98001 0.0
C2464 C 0.50665 0.39641 0.96942 0.0
H2465 H 0.51461 0.31526 0.90067 0.0
H2466 H 0.51943 0.34703 0.91812 0.0
H2467 H 0.50501 0.34606 0.9758 0.0
H2468 H 0.49727 0.43823 0.02059 0.0
H2469 H 0.49275 0.40671 0.00292 0.0
C2470 C 0.95238 0.21393 0.23762 0.0
C2471 C 0.94787 0.2263 0.2231 0.0
C2472 C 0.94004 0.19849 0.24212 0.0
C2473 C 0.89684 0.1701 0.22644 0.0
H2474 H 0.87878 0.18679 0.27371 0.0
C2475 C 0.82308 0.18984 0.2362 0.0
C2476 C 0.81631 0.19312 0.25375 0.0
C2477 C 0.84021 0.18068 0.23389 0.0
C2478 C 0.8837 0.18113 0.26074 0.0
H2479 H 0.92806 0.23096 0.20075 0.0
H2480 H 0.90657 0.2043 0.20855 0.0
H2481 H 0.91035 0.1955 0.2661 0.0
H2482 H 0.82058 0.18691 0.28235 0.0
H2483 H 0.85036 0.17033 0.27832 0.0
H2484 H 0.86971 0.15686 0.22063 0.0
C2485 C 0.9195 0.20648 0.21657 0.0
C2486 C 0.90195 0.18622 0.25637 0.0
C2487 C 0.93161 0.22209 0.21233 0.0
C2488 C 0.82579 0.18493 0.26871 0.0
C2489 C 0.84282 0.17545 0.26638 0.0
C2490 C 0.87863 0.16473 0.2309 0.0
C2491 C 0.92329 0.19493 0.23184 0.0
C2492 C 0.90808 0.18224 0.23866 0.0
C2493 C 0.85086 0.17447 0.24912 0.0
C2494 C 0.87134 0.17183 0.24747 0.0
H2495 H 0.96499 0.21678 0.246 0.0
H2496 H 0.9432 0.18986 0.25401 0.0
H2497 H 0.90145 0.16648 0.2128 0.0
H2498 H 0.81599 0.19598 0.22443 0.0
H2499 H 0.84585 0.18038 0.22037 0.0
C2500 C 0.036 0.69948 0.42438 0.0
C2501 C 0.02213 0.71251 0.43035 0.0
C2502 C 0.04214 0.68414 0.4354 0.0
C2503 C 0.02535 0.65464 0.47372 0.0
H2504 H 0.073 0.62874 0.46841 0.0
C2505 C 0.04348 0.58233 0.51023 0.0
C2506 C 0.04697 0.56643 0.49776 0.0
C2507 C 0.04368 0.6021 0.50461 0.0
C2508 C 0.05971 0.63596 0.4701 0.0
H2509 H 0.00497 0.72094 0.45306 0.0
H2510 H 0.01644 0.69498 0.47276 0.0
H2511 H 0.06783 0.66103 0.45465 0.0
H2512 H 0.05447 0.55878 0.46997 0.0
H2513 H 0.05523 0.59344 0.46029 0.0
H2514 H 0.01738 0.62956 0.48928 0.0
C2515 C 0.02197 0.69586 0.45924 0.0
C2516 C 0.05665 0.65436 0.46212 0.0
C2517 C 0.01549 0.71087 0.44803 0.0
C2518 C 0.05164 0.57074 0.47984 0.0
C2519 C 0.0522 0.59054 0.47433 0.0
C2520 C 0.02858 0.63651 0.48199 0.0
C2521 C 0.03484 0.68177 0.45281 0.0
C2522 C 0.03922 0.6637 0.46339 0.0
C2523 C 0.04778 0.60632 0.48655 0.0
C2524 C 0.04559 0.62678 0.47988 0.0
H2525 H 0.04129 0.70036 0.41075 0.0
H2526 H 0.05186 0.67353 0.42978 0.0
H2527 H 0.01162 0.661 0.47475 0.0
H2528 H 0.03981 0.57945 0.52412 0.0
H2529 H 0.04023 0.61407 0.51425 0.0
C2530 C 0.57627 0.75647 0.66683 0.0
C2531 C 0.57225 0.74099 0.67861 0.0
C2532 C 0.59436 0.75942 0.66085 0.0
C2533 C 0.6428 0.73904 0.66321 0.0
H2534 H 0.65644 0.79531 0.67134 0.0
C2535 C 0.70336 0.78409 0.70432 0.0
C2536 C 0.71916 0.77372 0.69873 0.0
C2537 C 0.6867 0.78246 0.69396 0.0
C2538 C 0.65287 0.77957 0.66875 0.0
H2539 H 0.58347 0.71553 0.69236 0.0
H2540 H 0.61539 0.72124 0.68282 0.0
H2541 H 0.62375 0.7854 0.66755 0.0
H2542 H 0.73045 0.75482 0.67721 0.0
H2543 H 0.70106 0.75179 0.65909 0.0
H2544 H 0.67199 0.73319 0.66628 0.0
C2545 C 0.60455 0.73084 0.67769 0.0
C2546 C 0.63408 0.77383 0.66639 0.0
C2547 C 0.5863 0.72763 0.68334 0.0
C2548 C 0.71843 0.76293 0.68185 0.0
C2549 C 0.70163 0.76112 0.67153 0.0
C2550 C 0.66163 0.74479 0.66576 0.0
C2551 C 0.60893 0.74725 0.66693 0.0
C2552 C 0.62876 0.7534 0.66456 0.0
C2553 C 0.68544 0.77031 0.67784 0.0
C2554 C 0.66672 0.76502 0.66957 0.0
H2555 H 0.5655 0.76671 0.66265 0.0
H2556 H 0.59709 0.77183 0.65215 0.0
H2557 H 0.63922 0.72323 0.66135 0.0
H2558 H 0.70358 0.79263 0.7172 0.0
H2559 H 0.67446 0.78955 0.69935 0.0
C2560 C 0.6232 0.52616 0.69467 0.0
C2561 C 0.62147 0.51034 0.70664 0.0
C2562 C 0.61232 0.52613 0.67846 0.0
C2563 C 0.56757 0.51079 0.65873 0.0
H2564 H 0.59023 0.5141 0.61164 0.0
C2565 C 0.52287 0.51037 0.59112 0.0
C2566 C 0.52969 0.52186 0.57705 0.0
C2567 C 0.53397 0.50764 0.60692 0.0
C2568 C 0.58361 0.51352 0.62467 0.0
H2569 H 0.60701 0.48212 0.71109 0.0
H2570 H 0.58759 0.48247 0.68296 0.0
H2571 H 0.61009 0.51235 0.63918 0.0
H2572 H 0.55305 0.54016 0.56872 0.0
H2573 H 0.57186 0.53637 0.59639 0.0
H2574 H 0.54113 0.51296 0.64453 0.0
C2575 C 0.59756 0.49467 0.68606 0.0
C2576 C 0.59503 0.51235 0.6404 0.0
C2577 C 0.60874 0.49445 0.70205 0.0
C2578 C 0.54753 0.53096 0.57923 0.0
C2579 C 0.55841 0.52862 0.59509 0.0
C2580 C 0.55611 0.5124 0.64303 0.0
C2581 C 0.59924 0.51054 0.67419 0.0
C2582 C 0.58711 0.51107 0.65753 0.0
C2583 C 0.55195 0.51669 0.60908 0.0
C2584 C 0.56398 0.51397 0.62578 0.0
H2585 H 0.6329 0.53858 0.69788 0.0
H2586 H 0.61378 0.53854 0.66948 0.0
H2587 H 0.5612 0.50991 0.67188 0.0
H2588 H 0.50918 0.50313 0.58972 0.0
H2589 H 0.52856 0.49818 0.61727 0.0
C2590 C 0.78037 0.36144 0.98664 0.0
C2591 C 0.7909 0.35265 0.00064 0.0
C2592 C 0.77844 0.35195 0.96932 0.0
C2593 C 0.77981 0.30351 0.94465 0.0
H2594 H 0.79436 0.33411 0.90333 0.0
C2595 C 0.78596 0.26586 0.87296 0.0
C2596 C 0.7807 0.27697 0.85782 0.0
C2597 C 0.78739 0.27505 0.89043 0.0
C2598 C 0.78993 0.3254 0.91462 0.0
H2599 H 0.80703 0.3267 0.00768 0.0
H2600 H 0.80322 0.30992 0.97751 0.0
H2601 H 0.7951 0.35013 0.93379 0.0
H2602 H 0.77253 0.30623 0.84901 0.0
H2603 H 0.77436 0.32214 0.87947 0.0
H2604 H 0.77409 0.27894 0.92559 0.0
C2605 C 0.79666 0.32423 0.97993 0.0
C2606 C 0.79043 0.3346 0.93208 0.0
C2607 C 0.7989 0.33388 -0.00286 0.0
C2608 C 0.77691 0.29741 0.86044 0.0
C2609 C 0.77803 0.30653 0.87792 0.0
C2610 C 0.77899 0.29439 0.92714 0.0
C2611 C 0.78668 0.33333 0.96579 0.0
C2612 C 0.78546 0.32372 0.94725 0.0
C2613 C 0.78325 0.29548 0.89319 0.0
C2614 C 0.78413 0.30518 0.91188 0.0
H2615 H 0.77411 0.37593 0.98891 0.0
H2616 H 0.77057 0.35919 0.95863 0.0
H2617 H 0.77579 0.29486 0.95614 0.0
H2618 H 0.78905 0.25009 0.87125 0.0
H2619 H 0.79182 0.26613 0.90175 0.0
C2620 C 0.91832 0.4887 0.18443 0.0
C2621 C 0.90589 0.50317 0.19085 0.0
C2622 C 0.92814 0.49171 0.1686 0.0
C2623 C 0.94547 0.53315 0.14163 0.0
H2624 H 0.96128 0.48955 0.10966 0.0
C2625 C 0.9911 0.54174 0.07761 0.0
C2626 C 0.00498 0.52731 0.07541 0.0
C2627 C 0.97854 0.54042 0.09178 0.0
C2628 C 0.95705 0.50186 0.11856 0.0
H2629 H 0.89282 0.53134 0.18483 0.0
H2630 H 0.90966 0.53635 0.15694 0.0
H2631 H 0.93805 0.48304 0.13235 0.0
H2632 H 0.01762 0.50128 0.08727 0.0
H2633 H -0.00416 0.49911 0.11189 0.0
H2634 H 0.96454 0.55193 0.12765 0.0
C2635 C 0.91221 0.52296 0.16445 0.0
C2636 C 0.94374 0.49814 0.13154 0.0
C2637 C 0.90243 0.51998 0.18034 0.0
C2638 C 0.00697 0.51253 0.08845 0.0
C2639 C -0.00559 0.51116 0.10248 0.0
C2640 C 0.95869 0.5369 0.12849 0.0
C2641 C 0.92564 0.50919 0.15874 0.0
C2642 C 0.93806 0.51364 0.1435 0.0
C2643 C 0.97966 0.52462 0.10387 0.0
C2644 C 0.96489 0.52119 0.11712 0.0
H2645 H 0.92131 0.47556 0.19216 0.0
H2646 H 0.93845 0.48084 0.16471 0.0
H2647 H 0.9416 0.54539 0.15077 0.0
H2648 H 0.98919 0.55329 0.06778 0.0
H2649 H 0.96732 0.55104 0.09263 0.0
C2650 C 0.76587 0.66006 0.47822 0.0
C2651 C 0.77791 0.64542 0.4713 0.0
C2652 C 0.75785 0.67398 0.46661 0.0
C2653 C 0.74387 0.68107 0.41915 0.0
H2654 H 0.7566 0.73759 0.42714 0.0
C2655 C 0.72549 0.73788 0.36493 0.0
C2656 C 0.74159 0.74792 0.35908 0.0
C2657 C 0.72585 0.72805 0.38145 0.0
C2658 C 0.7527 0.72189 0.42489 0.0
H2659 H 0.79058 0.63356 0.44678 0.0
H2660 H 0.77624 0.65744 0.42658 0.0
H2661 H 0.76473 0.71387 0.45077 0.0
H2662 H 0.77039 0.75636 0.36681 0.0
H2663 H 0.77074 0.73981 0.39566 0.0
H2664 H 0.73252 0.68881 0.39305 0.0
C2665 C 0.77317 0.65828 0.44096 0.0
C2666 C 0.75726 0.70839 0.43841 0.0
C2667 C 0.78147 0.64473 0.45256 0.0
C2668 C 0.75759 0.74911 0.37085 0.0
C2669 C 0.75785 0.73954 0.38745 0.0
C2670 C 0.73905 0.69458 0.40579 0.0
C2671 C 0.76138 0.67308 0.44787 0.0
C2672 C 0.75345 0.68778 0.43534 0.0
C2673 C 0.74221 0.72835 0.39262 0.0
C2674 C 0.74398 0.71502 0.40827 0.0
H2675 H 0.76292 0.66096 0.49262 0.0
H2676 H 0.74883 0.68534 0.47221 0.0
H2677 H 0.74078 0.66523 0.41653 0.0
H2678 H 0.71277 0.73702 0.35647 0.0
H2679 H 0.71354 0.71967 0.38522 0.0
C2680 C 0.6424 0.51607 0.82558 0.0
C2681 C 0.63094 0.51916 0.81006 0.0
C2682 C 0.63705 0.52279 0.84284 0.0
C2683 C 0.60278 0.55419 0.86753 0.0
H2684 H 0.60975 0.51457 0.90435 0.0
C2685 C 0.55958 0.54911 0.93266 0.0
C2686 C 0.56884 0.54304 0.94869 0.0
C2687 C 0.56913 0.55019 0.91639 0.0
C2688 C 0.60798 0.52599 0.89436 0.0
H2689 H 0.60522 0.53248 0.80037 0.0
H2690 H 0.59556 0.54363 0.83057 0.0
H2691 H 0.62298 0.50913 0.87463 0.0
H2692 H 0.59559 0.53424 0.96037 0.0
H2693 H 0.61224 0.53648 0.93212 0.0
H2694 H 0.58703 0.5706 0.88729 0.0
C2695 C 0.60889 0.53639 0.82939 0.0
C2696 C 0.61561 0.52289 0.87728 0.0
C2697 C 0.61437 0.52987 0.81207 0.0
C2698 C 0.58806 0.53913 0.94833 0.0
C2699 C 0.59757 0.5402 0.9321 0.0
C2700 C 0.59501 0.55724 0.88466 0.0
C2701 C 0.61996 0.53248 0.84503 0.0
C2702 C 0.61298 0.53684 0.86359 0.0
C2703 C 0.58809 0.54515 0.91585 0.0
C2704 C 0.59742 0.54306 0.89817 0.0
H2705 H 0.65528 0.50799 0.82456 0.0
H2706 H 0.64611 0.51992 0.85455 0.0
H2707 H 0.60067 0.56534 0.85735 0.0
H2708 H 0.54483 0.55247 0.93257 0.0
H2709 H 0.56143 0.55397 0.90406 0.0
C2710 C 0.78192 0.32954 0.09335 0.0
C2711 C 0.77284 0.3459 0.08574 0.0
C2712 C 0.77306 0.318 0.10616 0.0
C2713 C 0.73882 0.32314 0.1414 0.0
H2714 H 0.74294 0.26546 0.14393 0.0
C2715 C 0.71731 0.28395 0.20576 0.0
C2716 C 0.7307 0.27069 0.21242 0.0
C2717 C 0.71784 0.29018 0.18777 0.0
C2718 C 0.74169 0.28158 0.14344 0.0
H2719 H 0.74694 0.36238 0.0851 0.0
H2720 H 0.73166 0.34234 0.10757 0.0
H2721 H 0.75331 0.28223 0.11688 0.0
H2722 H 0.75419 0.25235 0.20499 0.0
H2723 H 0.75542 0.26353 0.17404 0.0
H2724 H 0.72826 0.32284 0.16826 0.0
C2725 C 0.74566 0.33854 0.10366 0.0
C2726 C 0.7476 0.29115 0.12795 0.0
C2727 C 0.75444 0.34998 0.09075 0.0
C2728 C 0.74372 0.26269 0.20036 0.0
C2729 C 0.74434 0.269 0.18248 0.0
C2730 C 0.7331 0.31363 0.15695 0.0
C2731 C 0.75499 0.32265 0.11172 0.0
C2732 C 0.74661 0.31208 0.12697 0.0
C2733 C 0.73183 0.28336 0.17614 0.0
C2734 C 0.7349 0.29279 0.15839 0.0
H2735 H 0.79605 0.32591 0.08974 0.0
H2736 H 0.78066 0.30594 0.11229 0.0
H2737 H 0.73808 0.33933 0.14112 0.0
H2738 H 0.70697 0.29024 0.21466 0.0
H2739 H 0.70773 0.30092 0.18321 0.0
C2740 C 0.94114 0.4921 0.28439 0.0
C2741 C 0.92502 0.50317 0.28781 0.0
C2742 C 0.9527 0.48615 0.29883 0.0
C2743 C 0.98028 0.49042 0.33164 0.0
H2744 H 0.95977 0.46919 0.37542 0.0
C2745 C 0.01586 0.49826 0.40309 0.0
C2746 C 0.01401 0.48235 0.41497 0.0
C2747 C 0.00726 0.49704 0.3857 0.0
C2748 C 0.96576 0.47479 0.36318 0.0
H2749 H 0.90825 0.51637 0.30905 0.0
H2750 H 0.92831 0.50575 0.33425 0.0
H2751 H 0.93921 0.47391 0.34873 0.0
H2752 H 0.00297 0.45205 0.41734 0.0
H2753 H 0.98761 0.45015 0.38704 0.0
H2754 H 0.00672 0.49195 0.34634 0.0
C2755 C 0.93192 0.50162 0.32039 0.0
C2756 C 0.95396 0.47768 0.34801 0.0
C2757 C 0.92046 0.50775 0.30595 0.0
C2758 C 0.00432 0.46473 0.40866 0.0
C2759 C -0.00442 0.46359 0.39132 0.0
C2760 C 0.99205 0.48772 0.34689 0.0
C2761 C 0.94825 0.49097 0.31694 0.0
C2762 C 0.96105 0.48588 0.33224 0.0
C2763 C -0.00346 0.47996 0.3799 0.0
C2764 C 0.98482 0.48023 0.36291 0.0
H2765 H 0.94504 0.48833 0.27055 0.0
H2766 H 0.96517 0.47787 0.29584 0.0
H2767 H 0.98606 0.49688 0.31967 0.0
H2768 H 0.02301 0.51214 0.40756 0.0
H2769 H 0.00805 0.50997 0.37725 0.0
C2770 C 0.83471 0.63649 0.55821 0.0
C2771 C 0.83734 0.6401 0.53974 0.0
C2772 C 0.84144 0.65012 0.57181 0.0
C2773 C 0.84822 0.70355 0.57854 0.0
H2774 H 0.8596 0.68754 0.6279 0.0
C2775 C 0.81488 0.7398 0.64028 0.0
C2776 C 0.82352 0.7394 0.65775 0.0
C2777 C 0.8237 0.73177 0.62506 0.0
C2778 C 0.8569 0.69257 0.61421 0.0
H2779 H 0.85004 0.6601 0.52094 0.0
H2780 H 0.86166 0.68448 0.54495 0.0
H2781 H 0.86437 0.66419 0.60234 0.0
H2782 H 0.84879 0.73163 0.67278 0.0
H2783 H 0.86433 0.71767 0.64611 0.0
H2784 H 0.84016 0.73171 0.59046 0.0
C2785 C 0.85443 0.67096 0.54882 0.0
C2786 C 0.85949 0.67906 0.59954 0.0
C2787 C 0.84788 0.65703 0.53512 0.0
C2788 C 0.84166 0.73182 0.65952 0.0
C2789 C 0.85056 0.72387 0.64424 0.0
C2790 C 0.84578 0.71714 0.59322 0.0
C2791 C 0.85082 0.66786 0.56729 0.0
C2792 C 0.85407 0.68396 0.58168 0.0
C2793 C 0.84145 0.72321 0.6269 0.0
C2794 C 0.849 0.71136 0.61129 0.0
H2795 H 0.82674 0.62344 0.56212 0.0
H2796 H 0.83813 0.64735 0.58581 0.0
H2797 H 0.84397 0.70784 0.56494 0.0
H2798 H 0.80082 0.7453 0.63847 0.0
H2799 H 0.81605 0.7312 0.61204 0.0
C2800 C 0.72547 0.59129 0.54568 0.0
C2801 C 0.73957 0.60049 0.53588 0.0
C2802 C 0.71094 0.58038 0.53655 0.0
C2803 C 0.6846 0.55239 0.51395 0.0
H2804 H 0.65723 0.58508 0.48001 0.0
C2805 C 0.60403 0.56706 0.49643 0.0
C2806 C 0.59671 0.54733 0.49458 0.0
C2807 C 0.62326 0.57082 0.49578 0.0
C2808 C 0.66483 0.57565 0.48926 0.0
H2809 H 0.74995 0.60493 0.50891 0.0
H2810 H 0.72412 0.58615 0.49276 0.0
H2811 H 0.68905 0.59514 0.49029 0.0
H2812 H 0.60384 0.51627 0.48905 0.0
H2813 H 0.63752 0.52285 0.48834 0.0
H2814 H 0.66005 0.53356 0.51382 0.0
C2815 C 0.72454 0.58722 0.50755 0.0
C2816 C 0.68308 0.5813 0.49502 0.0
C2817 C 0.73934 0.59784 0.51677 0.0
C2818 C 0.60903 0.5316 0.49094 0.0
C2819 C 0.6283 0.53535 0.49044 0.0
C2820 C 0.66643 0.54665 0.50808 0.0
C2821 C 0.71002 0.57872 0.51738 0.0
C2822 C 0.69283 0.57017 0.508 0.0
C2823 C 0.63565 0.55494 0.49337 0.0
C2824 C 0.65608 0.55867 0.49626 0.0
H2825 H 0.72533 0.59307 0.56043 0.0
H2826 H 0.69985 0.57422 0.54448 0.0
H2827 H 0.69186 0.5435 0.52389 0.0
H2828 H 0.59505 0.57954 0.49949 0.0
H2829 H 0.6285 0.58605 0.49834 0.0
C2830 C 0.20835 0.89469 0.56752 0.0
C2831 C 0.22048 0.89787 0.55316 0.0
C2832 C 0.1909 0.90373 0.56773 0.0
C2833 C 0.16843 0.9485 0.55191 0.0
H2834 H 0.12172 0.92192 0.56303 0.0
C2835 C 0.0978 0.98622 0.54173 0.0
C2836 C 0.08331 0.98217 0.55361 0.0
C2837 C 0.11462 0.97613 0.54305 0.0
C2838 C 0.1347 0.92965 0.56023 0.0
H2839 H 0.22342 0.91214 0.52728 0.0
H2840 H 0.19301 0.92802 0.52774 0.0
H2841 H 0.15038 0.90265 0.56176 0.0
H2842 H 0.0754 0.96489 0.5767 0.0
H2843 H 0.1051 0.94756 0.57933 0.0
H2844 H 0.15306 0.97553 0.55068 0.0
C2845 C 0.19709 0.91865 0.53888 0.0
C2846 C 0.15106 0.91857 0.55938 0.0
C2847 C 0.21443 0.90944 0.53857 0.0
C2848 C 0.08629 0.96831 0.56732 0.0
C2849 C 0.10324 0.95826 0.56871 0.0
C2850 C 0.15218 0.9596 0.55296 0.0
C2851 C 0.18537 0.91627 0.55367 0.0
C2852 C 0.16801 0.92785 0.55494 0.0
C2853 C 0.11749 0.96184 0.55639 0.0
C2854 C 0.13504 0.95027 0.55685 0.0
H2855 H 0.21258 0.88578 0.57893 0.0
H2856 H 0.18212 0.90167 0.57929 0.0
H2857 H 0.18141 0.95611 0.54886 0.0
H2858 H 0.09598 -0.00325 0.53096 0.0
H2859 H 0.12512 0.97907 0.53314 0.0
C2860 C 0.32958 0.95107 0.76068 0.0
C2861 C 0.34759 0.95531 0.75459 0.0
C2862 C 0.32068 0.9327 0.75614 0.0
C2863 C 0.3307 0.88076 0.74749 0.0
H2864 H 0.27828 0.87603 0.73227 0.0
C2865 C 0.29185 0.80397 0.7419 0.0
C2866 C 0.27343 0.80338 0.74797 0.0
C2867 C 0.30113 0.8223 0.73972 0.0
C2868 C 0.29288 0.87708 0.73668 0.0
H2869 H 0.37027 0.94389 0.7386 0.0
H2870 H 0.35478 0.91126 0.73105 0.0
H2871 H 0.29413 0.90881 0.73315 0.0
H2872 H 0.2503 0.82154 0.75656 0.0
H2873 H 0.26666 0.8535 0.75343 0.0
H2874 H 0.32933 0.84934 0.75203 0.0
C2875 C 0.34757 0.92236 0.73919 0.0
C2876 C 0.30197 0.89582 0.73702 0.0
C2877 C 0.35637 0.94099 0.74344 0.0
C2878 C 0.26446 0.82151 0.75178 0.0
C2879 C 0.27382 0.83984 0.74982 0.0
C2880 C 0.32156 0.86205 0.74738 0.0
C2881 C 0.32971 0.91803 0.74565 0.0
C2882 C 0.32086 0.89788 0.74275 0.0
C2883 C 0.29228 0.84049 0.74377 0.0
C2884 C 0.30243 0.86003 0.74232 0.0
H2885 H 0.32243 0.96189 0.76918 0.0
H2886 H 0.307 0.92968 0.76144 0.0
H2887 H 0.34522 0.88201 0.75218 0.0
H2888 H 0.29909 0.79024 0.73867 0.0
H2889 H 0.31521 0.82219 0.73476 0.0
C2890 C 0.36358 0.04588 0.00449 0.0
C2891 C 0.35805 0.06552 0.00124 0.0
C2892 C 0.38077 0.04241 0.01322 0.0
C2893 C 0.41635 0.03717 0.03525 0.0
H2894 H 0.45681 0.07101 0.01918 0.0
C2895 C 0.50238 0.04082 0.03564 0.0
C2896 C 0.50534 0.02306 0.02531 0.0
C2897 C 0.48417 0.04721 0.03853 0.0
C2898 C 0.44564 0.06168 0.02412 0.0
H2899 H 0.36551 0.09698 0.00593 0.0
H2900 H 0.3952 0.09101 0.02182 0.0
H2901 H 0.42463 0.08059 0.01341 0.0
H2902 H 0.49182 -0.00258 0.01092 0.0
H2903 H 0.46006 0.00829 0.01645 0.0
H2904 H 0.43766 0.01739 0.04445 0.0
C2905 C 0.3866 0.07821 0.01701 0.0
C2906 C 0.42714 0.06717 0.02089 0.0
C2907 C 0.36951 0.08167 0.00796 0.0
C2908 C 0.48989 0.01122 0.01886 0.0
C2909 C 0.47176 0.01734 0.02213 0.0
C2910 C 0.43487 0.03149 0.03814 0.0
C2911 C 0.39274 0.05851 0.01922 0.0
C2912 C 0.41221 0.05463 0.02583 0.0
C2913 C 0.46875 0.03562 0.03158 0.0
C2914 C 0.44961 0.04342 0.0321 0.0
H2915 H 0.35507 0.0331 -0.00056 0.0
H2916 H 0.38503 0.02702 0.01433 0.0
H2917 H 0.40527 0.02742 0.03973 0.0
H2918 H 0.5141 0.05024 0.0407 0.0
H2919 H 0.48212 0.06141 0.04578 0.0
C2920 C 0.68226 0.55735 0.74714 0.0
C2921 C 0.68971 0.54662 0.76174 0.0
C2922 C 0.69078 0.57536 0.74226 0.0
C2923 C 0.7163 0.60987 0.73056 0.0
H2924 H 0.73032 0.6454 0.77213 0.0
C2925 C 0.75286 0.6886 0.72549 0.0
C2926 C 0.74553 0.70391 0.73668 0.0
C2927 C 0.74685 0.66862 0.72704 0.0
C2928 C 0.72647 0.63567 0.76037 0.0
H2929 H 0.71269 0.54575 0.78183 0.0
H2930 H 0.72752 0.57687 0.77321 0.0
H2931 H 0.7187 0.61168 0.77717 0.0
H2932 H 0.72577 0.71029 0.7579 0.0
H2933 H 0.71542 0.67573 0.76052 0.0
H2934 H 0.72372 0.63432 0.71381 0.0
C2935 C 0.71487 0.57165 0.76581 0.0
C2936 C 0.71999 0.61626 0.76325 0.0
C2937 C 0.70637 0.55376 0.77071 0.0
C2938 C 0.73184 0.69889 0.74915 0.0
C2939 C 0.72594 0.67905 0.75073 0.0
C2940 C 0.72291 0.62937 0.72766 0.0
C2941 C 0.70693 0.58292 0.75185 0.0
C2942 C 0.71469 0.60317 0.74841 0.0
C2943 C 0.73353 0.66366 0.73989 0.0
C2944 C 0.72778 0.64254 0.74258 0.0
H2945 H 0.66949 0.55225 0.73989 0.0
H2946 H 0.68427 0.58376 0.7315 0.0
H2947 H 0.71243 0.60007 0.71886 0.0
H2948 H 0.76338 0.692 0.71572 0.0
H2949 H 0.75296 0.65701 0.71855 0.0
C2950 C 0.84695 0.41655 0.04491 0.0
C2951 C 0.83085 0.42012 0.03417 0.0
C2952 C 0.86438 0.42399 0.03997 0.0
C2953 C 0.88571 0.46242 0.0112 0.0
H2954 H 0.93106 0.4351 0.02479 0.0
C2955 C 0.972 0.47006 0.00813 0.0
C2956 C 0.97404 0.49079 0.01187 0.0
C2957 C 0.9543 0.46082 0.00747 0.0
C2958 C 0.91859 0.44283 0.02052 0.0
H2959 H 0.82036 0.43342 0.00944 0.0
H2960 H 0.85084 0.44561 0.00033 0.0
H2961 H 0.901 0.41917 0.0294 0.0
H2962 H 0.95927 0.51826 0.01733 0.0
H2963 H 0.92845 0.50211 0.01708 0.0
H2964 H 0.90334 0.48572 0.00163 0.0
C2965 C 0.85002 0.43776 0.01294 0.0
C2966 C 0.90126 0.4338 0.02352 0.0
C2967 C 0.83255 0.43065 0.01808 0.0
C2968 C 0.95804 0.50226 0.01428 0.0
C2969 C 0.94035 0.49295 0.01404 0.0
C2970 C 0.90306 0.47128 0.00788 0.0
C2971 C 0.86614 0.43483 0.02398 0.0
C2972 C 0.88457 0.44365 0.01927 0.0
C2973 C 0.93828 0.47203 0.01102 0.0
C2974 C 0.91976 0.4618 0.01283 0.0
H2975 H 0.84602 0.40859 0.05745 0.0
H2976 H 0.87635 0.42172 0.04904 0.0
H2977 H 0.87322 0.47062 0.0079 0.0
H2978 H 0.98414 0.46091 0.00604 0.0
H2979 H 0.95327 0.4448 0.00456 0.0
C2980 C 0.33874 0.0634 0.73908 0.0
C2981 C 0.3336 0.04778 0.75024 0.0
C2982 C 0.32571 0.07762 0.734 0.0
C2983 C 0.29584 0.10489 0.7209 0.0
H2984 H 0.26065 0.11949 0.75787 0.0
C2985 C 0.26092 0.18114 0.71909 0.0
C2986 C 0.26008 0.19135 0.73613 0.0
C2987 C 0.26398 0.1605 0.71807 0.0
C2988 C 0.27049 0.11577 0.74743 0.0
H2989 H 0.31059 0.03372 0.76374 0.0
H2990 H 0.28746 0.05772 0.75392 0.0
H2991 H 0.27848 0.08944 0.76091 0.0
H2992 H 0.2608 0.18795 0.76542 0.0
H2993 H 0.26721 0.15256 0.76381 0.0
H2994 H 0.28941 0.13237 0.70854 0.0
C2995 C 0.30174 0.05974 0.74979 0.0
C2996 C 0.28053 0.09817 0.74898 0.0
C2997 C 0.31494 0.04586 0.75533 0.0
C2998 C 0.26131 0.18044 0.75208 0.0
C2999 C 0.26485 0.15998 0.7511 0.0
C3000 C 0.28624 0.12282 0.71968 0.0
C3001 C 0.30706 0.07621 0.73953 0.0
C3002 C 0.29391 0.09285 0.7361 0.0
C3003 C 0.26681 0.14978 0.73409 0.0
C3004 C 0.27396 0.12892 0.73333 0.0
H3005 H 0.35309 0.06526 0.73507 0.0
H3006 H 0.33063 0.09019 0.72646 0.0
H3007 H 0.30543 0.101 0.71029 0.0
H3008 H 0.25978 0.1892 0.70657 0.0
H3009 H 0.2648 0.15316 0.7047 0.0
C3010 C 0.19995 0.94776 0.24673 0.0
C3011 C 0.20279 0.95435 0.26508 0.0
C3012 C 0.21192 0.93385 0.23885 0.0
C3013 C 0.25514 0.90432 0.24811 0.0
H3014 H 0.22424 0.86078 0.22631 0.0
C3015 C 0.25459 0.8133 0.22924 0.0
C3016 C 0.26097 0.80688 0.24635 0.0
C3017 C 0.25284 0.8337 0.22621 0.0
C3018 C 0.23328 0.87287 0.23192 0.0
H3019 H 0.22148 0.95301 0.28896 0.0
H3020 H 0.24177 0.92839 0.27555 0.0
H3021 H 0.21128 0.89375 0.23003 0.0
H3022 H 0.27199 0.81679 0.2732 0.0
H3023 H 0.26856 0.8524 0.26806 0.0
H3024 H 0.27671 0.88273 0.25118 0.0
C3025 C 0.23056 0.93406 0.26704 0.0
C3026 C 0.22583 0.89191 0.23403 0.0
C3027 C 0.21874 0.9481 0.27484 0.0
C3028 C 0.26689 0.82128 0.25992 0.0
C3029 C 0.26508 0.8417 0.2569 0.0
C3030 C 0.26256 0.88517 0.24612 0.0
C3031 C 0.22682 0.9261 0.24922 0.0
C3032 C 0.23638 0.90767 0.24288 0.0
C3033 C 0.25737 0.84807 0.24025 0.0
C3034 C 0.25143 0.86909 0.23868 0.0
H3035 H 0.18799 0.95258 0.23871 0.0
H3036 H 0.20891 0.92839 0.22493 0.0
H3037 H 0.26379 0.91624 0.25462 0.0
H3038 H 0.25022 0.80257 0.21838 0.0
H3039 H 0.24712 0.83819 0.21316 0.0
C3040 C 0.43866 0.34697 0.42544 0.0
C3041 C 0.44997 0.34034 0.41119 0.0
C3042 C 0.4441 0.36369 0.43658 0.0
C3043 C 0.46692 0.38784 0.46569 0.0
H3044 H 0.48894 0.43657 0.44784 0.0
C3045 C 0.50952 0.46521 0.49321 0.0
C3046 C 0.49791 0.47128 0.5074 0.0
C3047 C 0.50484 0.44818 0.48216 0.0
C3048 C 0.48311 0.42291 0.45305 0.0
H3049 H 0.47518 0.34702 0.39667 0.0
H3050 H 0.48459 0.37614 0.41607 0.0
H3051 H 0.47693 0.41042 0.42612 0.0
H3052 H 0.47305 0.4634 0.52196 0.0
H3053 H 0.4649 0.43383 0.50271 0.0
H3054 H 0.47311 0.40028 0.49261 0.0
C3055 C 0.47155 0.36838 0.41867 0.0
C3056 C 0.47613 0.408 0.4406 0.0
C3057 C 0.46616 0.35164 0.40757 0.0
C3058 C 0.48228 0.45917 0.51112 0.0
C3059 C 0.47762 0.44217 0.50009 0.0
C3060 C 0.47394 0.40273 0.47814 0.0
C3061 C 0.4609 0.37419 0.43364 0.0
C3062 C 0.46788 0.39033 0.44678 0.0
C3063 C 0.4885 0.43685 0.48512 0.0
C3064 C 0.48206 0.42047 0.47197 0.0
H3065 H 0.42607 0.33869 0.42859 0.0
H3066 H 0.43541 0.36808 0.4478 0.0
H3067 H 0.46101 0.3742 0.47088 0.0
H3068 H 0.52169 0.47416 0.49002 0.0
H3069 H 0.51371 0.44422 0.47096 0.0
C3070 C 0.43744 0.75716 0.16595 0.0
C3071 C 0.45347 0.75575 0.17737 0.0
C3072 C 0.41982 0.75193 0.17215 0.0
C3073 C 0.39561 0.72708 0.20994 0.0
H3074 H 0.35535 0.76192 0.19576 0.0
C3075 C 0.32619 0.73579 0.24807 0.0
C3076 C 0.30969 0.73636 0.23713 0.0
C3077 C 0.34364 0.73526 0.24004 0.0
C3078 C 0.3664 0.75192 0.19968 0.0
H3079 H 0.46366 0.7473 0.20413 0.0
H3080 H 0.43294 0.73894 0.21522 0.0
H3081 H 0.38596 0.76639 0.18295 0.0
H3082 H 0.29855 0.73616 0.20918 0.0
H3083 H 0.329 0.73552 0.19528 0.0
H3084 H 0.37597 0.71326 0.22734 0.0
C3085 C 0.43392 0.74355 0.20128 0.0
C3086 C 0.38396 0.75439 0.19226 0.0
C3087 C 0.45158 0.74848 0.19496 0.0
C3088 C 0.31098 0.73578 0.21801 0.0
C3089 C 0.3284 0.73549 0.21003 0.0
C3090 C 0.37806 0.7248 0.21756 0.0
C3091 C 0.41777 0.74552 0.19006 0.0
C3092 C 0.39884 0.74206 0.19733 0.0
C3093 C 0.3449 0.73554 0.22097 0.0
C3094 C 0.36333 0.73724 0.21251 0.0
H3095 H 0.43841 0.76256 0.15229 0.0
H3096 H 0.40777 0.75319 0.16295 0.0
H3097 H 0.40662 0.7171 0.21396 0.0
H3098 H 0.32564 0.73616 0.26283 0.0
H3099 H 0.35617 0.73543 0.24877 0.0
C3100 C -0.0063 0.75823 0.92704 0.0
C3101 C 0.97506 0.76447 0.9266 0.0
C3102 C -0.0013 0.74101 0.93618 0.0
C3103 C 0.98086 0.70458 0.96925 0.0
H3104 H 0.01674 0.66932 0.94691 0.0
C3105 C 0.98778 0.62091 0.98495 0.0
C3106 C 0.0059 0.6149 0.98981 0.0
C3107 C 0.98493 0.63994 0.97822 0.0
C3108 C 0.00681 0.67914 0.95334 0.0
H3109 H 0.94707 0.7576 0.9354 0.0
H3110 H 0.95557 0.72737 0.95062 0.0
H3111 H 0.01025 0.70148 0.93356 0.0
H3112 H 0.03526 0.62366 0.99119 0.0
H3113 H 0.0303 0.65687 0.97892 0.0
H3114 H 0.97687 0.68164 0.98851 0.0
C3115 C 0.96652 0.736 0.9445 0.0
C3116 C 0.00316 0.69762 0.9458 0.0
C3117 C 0.9616 0.75332 0.93564 0.0
C3118 C 0.02115 0.62808 0.98763 0.0
C3119 C 0.01834 0.64695 0.98056 0.0
C3120 C 0.98428 0.68596 0.97657 0.0
C3121 C 0.98511 0.72954 0.94482 0.0
C3122 C 0.99 0.7105 0.95356 0.0
C3123 C 0.0002 0.65306 0.97592 0.0
C3124 C -0.00284 0.67305 0.96859 0.0
H3125 H 0.00441 0.7666 0.9203 0.0
H3126 H 0.01321 0.73669 0.93641 0.0
H3127 H 0.97098 0.71427 0.97587 0.0
H3128 H 0.97583 0.61099 0.98659 0.0
H3129 H 0.97083 0.64434 0.9746 0.0
C3130 C 0.06246 0.28229 0.70054 0.0
C3131 C 0.05521 0.27964 0.68254 0.0
C3132 C 0.08171 0.28164 0.70425 0.0
C3133 C 0.12528 0.26258 0.68522 0.0
H3134 H 0.14868 0.29844 0.72257 0.0
C3135 C 0.20499 0.26347 0.70314 0.0
C3136 C 0.20969 0.26364 0.72192 0.0
C3137 C 0.18655 0.26665 0.69711 0.0
C3138 C 0.14232 0.28828 0.71215 0.0
H3139 H 0.0625 0.27449 0.65427 0.0
H3140 H 0.09612 0.27359 0.66074 0.0
H3141 H 0.11564 0.30189 0.71429 0.0
H3142 H 0.19875 0.26738 0.74909 0.0
H3143 H 0.16676 0.27286 0.73859 0.0
H3144 H 0.152 0.24888 0.68322 0.0
C3145 C 0.0869 0.27589 0.67202 0.0
C3146 C 0.12339 0.29022 0.70744 0.0
C3147 C 0.06764 0.2765 0.66831 0.0
C3148 C 0.19563 0.26716 0.73452 0.0
C3149 C 0.1773 0.27046 0.72851 0.0
C3150 C 0.14426 0.26069 0.68989 0.0
C3151 C 0.09416 0.27838 0.69004 0.0
C3152 C 0.11457 0.27718 0.69413 0.0
C3153 C 0.17254 0.27022 0.70976 0.0
C3154 C 0.15288 0.2733 0.70362 0.0
H3155 H 0.05327 0.28467 0.71182 0.0
H3156 H 0.08681 0.2833 0.71832 0.0
H3157 H 0.11887 0.25216 0.67505 0.0
H3158 H 0.21552 0.2608 0.6931 0.0
H3159 H 0.18327 0.26649 0.68257 0.0
C3160 C 0.5182 0.7099 0.12648 0.0
C3161 C 0.50033 0.71713 0.12204 0.0
C3162 C 0.52363 0.69107 0.11973 0.0
C3163 C 0.53408 0.65546 0.09431 0.0
H3164 H 0.49809 0.61137 0.0962 0.0
C3165 C 0.53868 0.58002 0.05278 0.0
C3166 C 0.53283 0.56245 0.06114 0.0
C3167 C 0.5372 0.59877 0.06178 0.0
C3168 C 0.50839 0.62345 0.09575 0.0
H3169 H 0.47425 0.71021 0.10685 0.0
H3170 H 0.4837 0.67744 0.09522 0.0
H3171 H 0.49032 0.64443 0.10863 0.0
H3172 H 0.52193 0.55071 0.08596 0.0
H3173 H 0.51942 0.58339 0.10161 0.0
H3174 H 0.55207 0.63441 0.08121 0.0
C3175 C 0.49347 0.6863 0.10399 0.0
C3176 C 0.50385 0.64244 0.10269 0.0
C3177 C 0.48811 0.70515 0.11058 0.0
C3178 C 0.52644 0.56395 0.07906 0.0
C3179 C 0.5249 0.58268 0.08801 0.0
C3180 C 0.53858 0.63645 0.0872 0.0
C3181 C 0.51123 0.67899 0.10858 0.0
C3182 C 0.51655 0.65869 0.10189 0.0
C3183 C 0.52979 0.60033 0.07928 0.0
C3184 C 0.52572 0.62027 0.08776 0.0
H3185 H 0.52798 0.71874 0.13524 0.0
H3186 H 0.53737 0.68577 0.12355 0.0
H3187 H 0.54412 0.66773 0.09346 0.0
H3188 H 0.5437 0.57938 0.039 0.0
H3189 H 0.541 0.6121 0.05466 0.0
C3190 C 0.03604 0.80456 0.85142 0.0
C3191 C 0.02891 0.82361 0.85552 0.0
C3192 C 0.05091 0.80241 0.83973 0.0
C3193 C 0.09088 0.82802 0.82097 0.0
H3194 H 0.08479 0.78709 0.78204 0.0
C3195 C 0.14963 0.81234 0.77079 0.0
C3196 C 0.15339 0.79194 0.76754 0.0
C3197 C 0.1332 0.81805 0.77917 0.0
C3198 C 0.08677 0.7985 0.79288 0.0
H3199 H 0.03235 0.85546 0.85125 0.0
H3200 H 0.0587 0.85166 0.83104 0.0
H3201 H 0.05922 0.79343 0.80249 0.0
H3202 H 0.14267 0.76158 0.77013 0.0
H3203 H 0.11423 0.77144 0.78481 0.0
H3204 H 0.11869 0.83258 0.81189 0.0
C3205 C 0.05257 0.83843 0.83677 0.0
C3206 C 0.07213 0.80213 0.80457 0.0
C3207 C 0.03751 0.84057 0.84832 0.0
C3208 C 0.14005 0.77743 0.77214 0.0
C3209 C 0.1237 0.78312 0.78059 0.0
C3210 C 0.10565 0.82425 0.80939 0.0
C3211 C 0.05911 0.81928 0.83207 0.0
C3212 C 0.07417 0.81665 0.81892 0.0
C3213 C 0.12025 0.80347 0.78456 0.0
C3214 C 0.10388 0.80916 0.79543 0.0
H3215 H 0.02978 0.79118 0.85675 0.0
H3216 H 0.05591 0.78751 0.83656 0.0
H3217 H 0.09281 0.83926 0.83197 0.0
H3218 H 0.1596 0.82385 0.76722 0.0
H3219 H 0.1308 0.83387 0.78174 0.0
C3220 C 0.01334 0.31745 0.60366 0.0
C3221 C -0.00293 0.30544 0.60075 0.0
C3222 C 0.01822 0.33168 0.59111 0.0
C3223 C -0.00367 0.36215 0.55568 0.0
H3224 H 0.04765 0.38036 0.55056 0.0
C3225 C 0.01739 0.43254 0.51601 0.0
C3226 C 0.02803 0.44651 0.52707 0.0
C3227 C 0.01435 0.41302 0.52176 0.0
C3228 C 0.03327 0.37532 0.55177 0.0
H3229 H 0.97384 0.29804 0.5817 0.0
H3230 H 0.98267 0.32252 0.5595 0.0
H3231 H 0.04131 0.34912 0.56568 0.0
H3232 H 0.04424 0.45092 0.55252 0.0
H3233 H 0.03925 0.41678 0.56233 0.0
H3234 H 0.98841 0.38854 0.54181 0.0
C3235 C 0.99137 0.32133 0.57178 0.0
C3236 C 0.0296 0.35751 0.56051 0.0
C3237 C 0.98636 0.3072 0.58446 0.0
C3238 C 0.03591 0.44051 0.54375 0.0
C3239 C 0.03319 0.42095 0.5493 0.0
C3240 C 3e-05 0.37981 0.54668 0.0
C3241 C 0.00709 0.33412 0.57519 0.0
C3242 C 0.01107 0.35106 0.56316 0.0
C3243 C 0.02227 0.40708 0.53845 0.0
C3244 C 0.0185 0.38685 0.54518 0.0
H3245 H 0.02192 0.31655 0.61605 0.0
H3246 H 0.03026 0.34141 0.5944 0.0
H3247 H 0.98188 0.35783 0.55762 0.0
H3248 H 0.01114 0.4368 0.5031 0.0
H3249 H 0.00585 0.40255 0.5132 0.0
C3250 C 0.40353 0.27203 0.35581 0.0
C3251 C 0.41999 0.2792 0.34814 0.0
C3252 C 0.38755 0.26771 0.34481 0.0
C3253 C 0.37292 0.25243 0.29824 0.0
H3254 H 0.32413 0.2704 0.31241 0.0
C3255 C 0.30645 0.24504 0.25092 0.0
C3256 C 0.28913 0.24308 0.25917 0.0
C3257 C 0.32293 0.24721 0.26169 0.0
C3258 C 0.33759 0.26489 0.30841 0.0
H3259 H 0.43249 0.28784 0.32297 0.0
H3260 H 0.4045 0.28011 0.30372 0.0
H3261 H 0.35167 0.28012 0.33133 0.0
H3262 H 0.27546 0.23991 0.28487 0.0
H3263 H 0.30422 0.24271 0.3036 0.0
H3264 H 0.35884 0.23693 0.27545 0.0
C3265 C 0.40406 0.27784 0.31825 0.0
C3266 C 0.35336 0.27063 0.31919 0.0
C3267 C 0.42 0.28241 0.3293 0.0
C3268 C 0.28866 0.24162 0.2782 0.0
C3269 C 0.30511 0.24344 0.28892 0.0
C3270 C 0.35709 0.24649 0.28752 0.0
C3271 C 0.38778 0.27024 0.3259 0.0
C3272 C 0.37116 0.26448 0.3142 0.0
C3273 C 0.32234 0.24717 0.28087 0.0
C3274 C 0.33922 0.25266 0.29249 0.0
H3275 H 0.40307 0.26925 0.37022 0.0
H3276 H 0.37519 0.26176 0.35102 0.0
H3277 H 0.3865 0.2473 0.29423 0.0
H3278 H 0.30716 0.24636 0.23628 0.0
H3279 H 0.33593 0.25013 0.25503 0.0
C3280 C 0.41374 0.50178 0.34142 0.0
C3281 C 0.3941 0.50227 0.34057 0.0
C3282 C 0.42355 0.50453 0.35817 0.0
C3283 C 0.41751 0.52874 0.40341 0.0
H3284 H 0.46382 0.5027 0.41623 0.0
C3285 C 0.45393 0.53678 0.47479 0.0
C3286 C 0.47357 0.53809 0.47575 0.0
C3287 C 0.44438 0.53337 0.458 0.0
C3288 C 0.45102 0.51028 0.4127 0.0
H3289 H 0.36932 0.50445 0.35673 0.0
H3290 H 0.38641 0.50871 0.38594 0.0
H3291 H 0.44659 0.49241 0.38797 0.0
H3292 H 0.49857 0.53785 0.45979 0.0
H3293 H 0.48182 0.53202 0.43042 0.0
H3294 H 0.42189 0.54652 0.42817 0.0
C3295 C 0.39425 0.50678 0.37363 0.0
C3296 C 0.44113 0.50433 0.39657 0.0
C3297 C 0.38445 0.50413 0.35689 0.0
C3298 C 0.48343 0.53692 0.4595 0.0
C3299 C 0.47386 0.53338 0.44271 0.0
C3300 C 0.42736 0.53463 0.41954 0.0
C3301 C 0.41391 0.50773 0.37438 0.0
C3302 C 0.42423 0.51347 0.39176 0.0
C3303 C 0.45428 0.53112 0.44186 0.0
C3304 C 0.44421 0.52545 0.42436 0.0
H3305 H 0.42158 0.5004 0.32907 0.0
H3306 H 0.43869 0.50525 0.35826 0.0
H3307 H 0.40476 0.53642 0.39991 0.0
H3308 H 0.44593 0.53762 0.48707 0.0
H3309 H 0.42929 0.53161 0.45779 0.0
C3310 C 0.26616 0.64205 0.03678 0.0
C3311 C 0.27896 0.65441 0.02804 0.0
C3312 C 0.25787 0.64883 0.05278 0.0
C3313 C 0.24316 0.6934 0.0772 0.0
H3314 H 0.2505 0.66424 0.12149 0.0
C3315 C 0.23183 0.72904 0.14836 0.0
C3316 C 0.22846 0.71674 0.16311 0.0
C3317 C 0.23408 0.72065 0.13087 0.0
C3318 C 0.24781 0.67235 0.10921 0.0
H3319 H 0.293 0.68356 0.02908 0.0
H3320 H 0.27809 0.69558 0.05692 0.0
H3321 H 0.26266 0.65096 0.09299 0.0
H3322 H 0.22293 0.68604 0.17052 0.0
H3323 H 0.2256 0.67159 0.13983 0.0
H3324 H 0.228 0.71461 0.09312 0.0
C3325 C 0.27468 0.68061 0.05139 0.0
C3326 C 0.25497 0.66478 0.09292 0.0
C3327 C 0.2833 0.67368 0.0356 0.0
C3328 C 0.22555 0.69603 0.15955 0.0
C3329 C 0.22744 0.68767 0.14195 0.0
C3330 C 0.23562 0.70077 0.0934 0.0
C3331 C 0.26191 0.66823 0.06008 0.0
C3332 C 0.25306 0.67548 0.07691 0.0
C3333 C 0.2326 0.69976 0.12755 0.0
C3334 C 0.23824 0.69061 0.10975 0.0
H3335 H 0.26257 0.62711 0.03126 0.0
H3336 H 0.24808 0.63905 0.05931 0.0
H3337 H 0.24132 0.70173 0.06489 0.0
H3338 H 0.23366 0.74512 0.15049 0.0
H3339 H 0.23807 0.73055 0.12025 0.0
C3340 C 0.11386 0.48837 0.84223 0.0
C3341 C 0.13065 0.47782 0.84282 0.0
C3342 C 0.10386 0.49156 0.85804 0.0
C3343 C 0.09441 0.46982 0.90113 0.0
H3344 H 0.07858 0.5229 0.91651 0.0
C3345 C 0.06221 0.48539 0.97083 0.0
C3346 C 0.0487 0.50027 0.97243 0.0
C3347 C 0.07141 0.48231 0.95455 0.0
C3348 C 0.08256 0.50792 0.91224 0.0
H3349 H 0.15028 0.4625 0.86032 0.0
H3350 H 0.13247 0.46774 0.888 0.0
H3351 H 0.09674 0.51864 0.88912 0.0
H3352 H 0.03365 0.52306 0.95803 0.0
H3353 H 0.04919 0.51715 0.92927 0.0
H3354 H 0.07986 0.45888 0.92379 0.0
C3355 C 0.12719 0.47359 0.87528 0.0
C3356 C 0.09309 0.50555 0.89665 0.0
C3357 C 0.13739 0.4707 0.85952 0.0
C3358 C 0.04409 0.51156 0.95721 0.0
C3359 C 0.05312 0.50828 0.94079 0.0
C3360 C 0.08363 0.47212 0.91654 0.0
C3361 C 0.11033 0.48398 0.87462 0.0
C3362 C 0.09922 0.48651 0.89109 0.0
C3363 C 0.06712 0.49383 0.93937 0.0
C3364 C 0.07771 0.49123 0.92239 0.0
H3365 H 0.10839 0.4941 0.82954 0.0
H3366 H 0.09084 0.49954 0.85722 0.0
H3367 H 0.09877 0.45495 0.89689 0.0
H3368 H 0.06618 0.47655 0.98238 0.0
H3369 H 0.08232 0.47131 0.9541 0.0
C3370 C 0.31726 0.32366 0.52586 0.0
C3371 C 0.29804 0.32513 0.52161 0.0
C3372 C 0.32383 0.3078 0.53607 0.0
C3373 C 0.30791 0.26177 0.55975 0.0
H3374 H 0.33276 0.28922 0.60171 0.0
C3375 C 0.28626 0.25255 0.63254 0.0
C3376 C 0.29943 0.25418 0.64724 0.0
C3377 C 0.29186 0.25421 0.61462 0.0
C3378 C 0.32628 0.28101 0.59003 0.0
H3379 H 0.27113 0.30963 0.52223 0.0
H3380 H 0.28237 0.28242 0.54014 0.0
H3381 H 0.33314 0.30436 0.57225 0.0
H3382 H 0.32906 0.25767 0.6544 0.0
H3383 H 0.33874 0.26132 0.62301 0.0
H3384 H 0.29968 0.23929 0.57815 0.0
C3385 C 0.29252 0.29335 0.53578 0.0
C3386 C 0.32654 0.28968 0.57302 0.0
C3387 C 0.28598 0.30913 0.5256 0.0
C3388 C 0.31848 0.25676 0.64346 0.0
C3389 C 0.32407 0.25865 0.62549 0.0
C3390 C 0.30754 0.25318 0.57683 0.0
C3391 C 0.31128 0.29319 0.54216 0.0
C3392 C 0.31638 0.28077 0.55793 0.0
C3393 C 0.31075 0.25775 0.61092 0.0
C3394 C 0.31581 0.26332 0.59231 0.0
H3395 H 0.32698 0.33561 0.52276 0.0
H3396 H 0.33846 0.30785 0.54041 0.0
H3397 H 0.30035 0.25428 0.5483 0.0
H3398 H 0.27145 0.25092 0.63486 0.0
H3399 H 0.2812 0.2539 0.60375 0.0
C3400 C 0.38892 0.50362 0.22977 0.0
C3401 C 0.39563 0.51892 0.24217 0.0
C3402 C 0.39856 0.49898 0.21394 0.0
C3403 C 0.44593 0.50333 0.19614 0.0
H3404 H 0.42141 0.48941 0.14922 0.0
C3405 C 0.48516 0.50014 0.12928 0.0
C3406 C 0.48071 0.48455 0.11629 0.0
C3407 C 0.47478 0.50261 0.14491 0.0
C3408 C 0.42842 0.49298 0.16231 0.0
H3409 H 0.41709 0.54211 0.24718 0.0
H3410 H 0.43367 0.53431 0.21943 0.0
H3411 H 0.40256 0.49828 0.17542 0.0
H3412 H 0.462 0.45905 0.10985 0.0
H3413 H 0.44365 0.46359 0.13722 0.0
H3414 H 0.47176 0.49833 0.18302 0.0
C3415 C 0.42123 0.52554 0.22215 0.0
C3416 C 0.41764 0.49811 0.17729 0.0
C3417 C 0.41164 0.53012 0.23799 0.0
C3418 C 0.46571 0.47131 0.11949 0.0
C3419 C 0.4552 0.4739 0.13513 0.0
C3420 C 0.45666 0.49827 0.1812 0.0
C3421 C 0.41508 0.50959 0.21019 0.0
C3422 C 0.42631 0.50361 0.19431 0.0
C3423 C 0.45958 0.48968 0.14792 0.0
C3424 C 0.44805 0.49329 0.16408 0.0
H3425 H 0.37662 0.49468 0.23261 0.0
H3426 H 0.39349 0.48657 0.20504 0.0
H3427 H 0.45302 0.50699 0.20917 0.0
H3428 H 0.49625 0.51098 0.12709 0.0
H3429 H 0.47829 0.51513 0.15435 0.0
C3430 C 0.25822 0.67795 0.93522 0.0
C3431 C 0.27542 0.68014 0.94506 0.0
C3432 C 0.25345 0.69137 0.92169 0.0
C3433 C 0.27742 0.71889 0.88843 0.0
H3434 H 0.22999 0.74339 0.87705 0.0
C3435 C 0.267 0.75488 0.81993 0.0
C3436 C 0.24967 0.75123 0.81083 0.0
C3437 C 0.26915 0.75166 0.83856 0.0
C3438 C 0.24329 0.73652 0.87994 0.0
H3439 H 0.30026 0.69926 0.94955 0.0
H3440 H 0.29201 0.72231 0.92583 0.0
H3441 H 0.23474 0.72713 0.90618 0.0
H3442 H 0.22074 0.74228 0.81395 0.0
H3443 H 0.22465 0.73535 0.84622 0.0
H3444 H 0.28574 0.72665 0.86204 0.0
C3445 C 0.28233 0.71015 0.92851 0.0
C3446 C 0.24599 0.72734 0.89667 0.0
C3447 C 0.28703 0.69689 0.94206 0.0
C3448 C 0.23424 0.74529 0.82078 0.0
C3449 C 0.2365 0.74143 0.83932 0.0
C3450 C 0.27463 0.72764 0.87166 0.0
C3451 C 0.26585 0.70709 0.91776 0.0
C3452 C 0.26307 0.71836 0.90096 0.0
C3453 C 0.25417 0.74393 0.84833 0.0
C3454 C 0.25748 0.73645 0.86705 0.0
H3455 H 0.24889 0.66531 0.93727 0.0
H3456 H 0.24068 0.68867 0.91351 0.0
H3457 H 0.2906 0.71172 0.89127 0.0
H3458 H 0.27903 0.75972 0.81251 0.0
H3459 H 0.28279 0.7545 0.84511 0.0
C3460 C 0.13951 0.48774 0.73426 0.0
C3461 C 0.13295 0.47019 0.74217 0.0
C3462 C 0.13109 0.49432 0.71818 0.0
C3463 C 0.08666 0.48939 0.69118 0.0
H3464 H 0.11535 0.51291 0.65315 0.0
C3465 C 0.05754 0.49966 0.61837 0.0
C3466 C 0.06204 0.51748 0.60968 0.0
C3467 C 0.06538 0.49585 0.6355 0.0
C3468 C 0.10716 0.50666 0.66381 0.0
H3469 H 0.11303 0.44525 0.73897 0.0
H3470 H 0.09864 0.45644 0.71065 0.0
H3471 H 0.13151 0.50126 0.68049 0.0
H3472 H 0.07784 0.54561 0.61261 0.0
H3473 H 0.09191 0.53866 0.64253 0.0
H3474 H 0.06237 0.49434 0.67423 0.0
C3475 C 0.10996 0.46542 0.71714 0.0
C3476 C 0.11639 0.49994 0.67943 0.0
C3477 C 0.11831 0.45891 0.73328 0.0
C3478 C 0.07426 0.53164 0.6188 0.0
C3479 C 0.08228 0.5277 0.63591 0.0
C3480 C 0.07746 0.49599 0.67552 0.0
C3481 C 0.116 0.48341 0.70962 0.0
C3482 C 0.10626 0.49102 0.69319 0.0
C3483 C 0.07808 0.50965 0.64428 0.0
C3484 C 0.08764 0.50448 0.66161 0.0
H3485 H 0.15074 0.49682 0.74081 0.0
H3486 H 0.13599 0.50831 0.71282 0.0
H3487 H 0.0784 0.48303 0.70173 0.0
H3488 H 0.04858 0.48816 0.61163 0.0
H3489 H 0.06212 0.48168 0.64151 0.0
C3490 C 0.23573 0.36281 0.45703 0.0
C3491 C 0.25282 0.37359 0.45942 0.0
C3492 C 0.22877 0.35706 0.43953 0.0
C3493 C 0.23161 0.36695 0.39075 0.0
H3494 H 0.22139 0.30987 0.38334 0.0
C3495 C 0.22995 0.32749 0.31946 0.0
C3496 C 0.21876 0.31012 0.31615 0.0
C3497 C 0.23102 0.337 0.33678 0.0
C3498 C 0.22372 0.32592 0.38514 0.0
H3499 H 0.27543 0.38768 0.44525 0.0
H3500 H 0.26309 0.37781 0.41467 0.0
H3501 H 0.2286 0.32377 0.41396 0.0
H3502 H 0.19912 0.28966 0.32799 0.0
H3503 H 0.2004 0.30665 0.35812 0.0
H3504 H 0.2267 0.36918 0.36196 0.0
C3505 C 0.25519 0.37375 0.42638 0.0
C3506 C 0.22794 0.33385 0.40273 0.0
C3507 C 0.26231 0.37929 0.44389 0.0
C3508 C 0.208 0.30293 0.33026 0.0
C3509 C 0.20884 0.31262 0.34753 0.0
C3510 C 0.22711 0.35906 0.37315 0.0
C3511 C 0.23857 0.36222 0.42406 0.0
C3512 C 0.23227 0.35436 0.40565 0.0
C3513 C 0.22074 0.32949 0.35116 0.0
C3514 C 0.22348 0.33836 0.37006 0.0
H3515 H 0.22801 0.35823 0.46868 0.0
H3516 H 0.21585 0.3483 0.43809 0.0
H3517 H 0.23471 0.38286 0.39269 0.0
H3518 H 0.23858 0.33319 0.30887 0.0
H3519 H 0.24058 0.34971 0.33905 0.0
C3520 C 0.26901 0.44449 0.5408 0.0
C3521 C 0.27271 0.43233 0.52534 0.0
C3522 C 0.28076 0.46098 0.54575 0.0
C3523 C 0.32014 0.47538 0.55922 0.0
H3524 H 0.34304 0.51307 0.52727 0.0
C3525 C 0.39846 0.49406 0.55737 0.0
C3526 C 0.40442 0.51423 0.55642 0.0
C3527 C 0.37945 0.48893 0.55728 0.0
C3528 C 0.33656 0.50294 0.5365 0.0
H3529 H 0.29003 0.4289 0.50185 0.0
H3530 H 0.31013 0.45806 0.51008 0.0
H3531 H 0.31294 0.49681 0.51814 0.0
H3532 H 0.3947 0.5449 0.55602 0.0
H3533 H 0.36145 0.53564 0.55474 0.0
H3534 H 0.34454 0.48014 0.57678 0.0
C3535 C 0.2984 0.45481 0.51853 0.0
C3536 C 0.31941 0.49363 0.53126 0.0
C3537 C 0.28696 0.43808 0.51384 0.0
C3538 C 0.39075 0.52917 0.55626 0.0
C3539 C 0.37169 0.52395 0.55571 0.0
C3540 C 0.33744 0.48438 0.56427 0.0
C3541 C 0.29602 0.46575 0.53501 0.0
C3542 C 0.31136 0.47929 0.54231 0.0
C3543 C 0.36592 0.50377 0.55589 0.0
C3544 C 0.34606 0.49772 0.55266 0.0
H3545 H 0.25819 0.44017 0.54996 0.0
H3546 H 0.27867 0.46921 0.55852 0.0
H3547 H 0.31435 0.46419 0.56788 0.0
H3548 H 0.40837 0.48202 0.55719 0.0
H3549 H 0.37531 0.47321 0.5572 0.0
C3550 C 0.84935 0.10027 0.48665 0.0
C3551 C 0.83303 0.09036 0.49201 0.0
C3552 C 0.86694 0.09292 0.49128 0.0
C3553 C 0.89202 0.06148 0.52338 0.0
H3554 H 0.92719 0.05503 0.48457 0.0
C3555 C 0.96092 0.01939 0.53365 0.0
C3556 C 0.97689 0.027 0.52543 0.0
C3557 C 0.94332 0.02709 0.52962 0.0
C3558 C 0.91767 0.05699 0.49564 0.0
H3559 H 0.82232 0.06534 0.50685 0.0
H3560 H 0.85314 0.05264 0.51514 0.0
H3561 H 0.89669 0.06923 0.47804 0.0
H3562 H 0.98697 0.0487 0.50658 0.0
H3563 H 0.95637 0.0625 0.49991 0.0
H3564 H 0.91304 0.0496 0.54109 0.0
C3565 C 0.85227 0.06605 0.50732 0.0
C3566 C 0.90018 0.06508 0.49187 0.0
C3567 C 0.83465 0.07327 0.50252 0.0
C3568 C 0.9749 0.04242 0.51304 0.0
C3569 C 0.95732 0.05026 0.50915 0.0
C3570 C 0.9096 0.05357 0.52721 0.0
C3571 C 0.86856 0.07566 0.50153 0.0
C3572 C 0.88719 0.06736 0.50569 0.0
C3573 C 0.94131 0.04272 0.51741 0.0
C3574 C 0.92262 0.05118 0.51337 0.0
H3575 H 0.84856 0.11345 0.47851 0.0
H3576 H 0.8793 0.10072 0.48681 0.0
H3577 H 0.88231 0.06326 0.53432 0.0
H3578 H 0.96199 0.00742 0.54319 0.0
H3579 H 0.93127 0.02066 0.53598 0.0
C3580 C 0.66836 0.07103 0.33028 0.0
C3581 C 0.65888 0.05847 0.31702 0.0
C3582 C 0.6719 0.09122 0.32693 0.0
C3583 C 0.65885 0.13243 0.29675 0.0
H3584 H 0.71056 0.14976 0.30537 0.0
C3585 C 0.71537 0.19349 0.27025 0.0
C3586 C 0.70691 0.21197 0.27394 0.0
C3587 C 0.70737 0.17574 0.27601 0.0
C3588 C 0.69606 0.14513 0.30291 0.0
H3589 H 0.64495 0.05753 0.29017 0.0
H3590 H 0.65125 0.09257 0.28436 0.0
H3591 H 0.70016 0.11732 0.31581 0.0
H3592 H 0.68278 0.22617 0.28554 0.0
H3593 H 0.66861 0.19481 0.2955 0.0
H3594 H 0.65501 0.16018 0.28336 0.0
C3595 C 0.65584 0.08688 0.29737 0.0
C3596 C 0.69005 0.12667 0.30908 0.0
C3597 C 0.6524 0.06672 0.30066 0.0
C3598 C 0.68962 0.21216 0.28251 0.0
C3599 C 0.68154 0.19426 0.28823 0.0
C3600 C 0.66485 0.15104 0.29068 0.0
C3601 C 0.66591 0.09926 0.31032 0.0
C3602 C 0.67148 0.11993 0.30575 0.0
C3603 C 0.6907 0.17601 0.28554 0.0
C3604 C 0.68363 0.1573 0.29333 0.0
H3605 H 0.67345 0.06519 0.34306 0.0
H3606 H 0.67957 0.10048 0.33721 0.0
H3607 H 0.64441 0.12766 0.29414 0.0
H3608 H 0.72859 0.19277 0.26349 0.0
H3609 H 0.7145 0.1618 0.27339 0.0
C3610 C 0.72408 0.89442 0.0236 0.0
C3611 C 0.7192 0.87573 0.01528 0.0
C3612 C 0.71607 0.91187 0.01725 0.0
C3613 C 0.68433 0.93183 0.98079 0.0
H3614 H 0.66567 0.96308 0.02168 0.0
C3615 C 0.61446 0.97306 0.97952 0.0
C3616 C 0.61243 0.9897 0.99156 0.0
C3617 C 0.6316 0.96341 0.97868 0.0
C3618 C 0.67107 0.95494 0.01 0.0
H3619 H 0.70256 0.86037 0.99362 0.0
H3620 H 0.68805 0.89066 0.98282 0.0
H3621 H 0.68897 0.93815 0.02716 0.0
H3622 H 0.62718 0.01068 0.01057 0.0
H3623 H 0.65715 0.9942 0.00875 0.0
H3624 H 0.66547 0.9481 0.96379 0.0
C3625 C 0.69852 0.89212 0.99384 0.0
C3626 C 0.68453 0.94057 0.01316 0.0
C3627 C 0.70669 0.87473 0.00011 0.0
C3628 C 0.62825 -0.00233 0.00139 0.0
C3629 C 0.64541 0.98818 0.0004 0.0
C3630 C 0.67076 0.94625 0.97763 0.0
C3631 C 0.70263 0.91084 0.00274 0.0
C3632 C 0.69096 0.92842 -0.00132 0.0
C3633 C 0.64704 0.97037 0.98975 0.0
C3634 C 0.66362 0.95758 0.99228 0.0
H3635 H 0.73303 0.89537 0.03582 0.0
H3636 H 0.71966 0.92604 0.02435 0.0
H3637 H 0.68919 0.92293 0.96931 0.0
H3638 H 0.6025 0.9666 0.97175 0.0
H3639 H 0.63233 0.94968 0.97039 0.0
C3640 C 0.34586 0.44445 0.26766 0.0
C3641 C 0.34316 0.44597 0.2866 0.0
C3642 C 0.3399 0.42731 0.2574 0.0
C3643 C 0.32695 0.37418 0.25963 0.0
H3644 H 0.2919 0.38392 0.21951 0.0
C3645 C 0.26212 0.32882 0.22533 0.0
C3646 C 0.26999 0.31042 0.22033 0.0
C3647 C 0.27351 0.34581 0.22893 0.0
C3648 C 0.3019 0.38101 0.23047 0.0
H3649 H 0.33289 0.43022 0.30971 0.0
H3650 H 0.32275 0.40004 0.29172 0.0
H3651 H 0.30808 0.41227 0.23587 0.0
H3652 H 0.29572 0.29533 0.21437 0.0
H3653 H 0.31586 0.32513 0.22121 0.0
H3654 H 0.32037 0.34294 0.25453 0.0
C3655 C 0.32941 0.41226 0.2849 0.0
C3656 C 0.31115 0.39717 0.2398 0.0
C3657 C 0.33512 0.42956 0.29516 0.0
C3658 C 0.28934 0.30948 0.21792 0.0
C3659 C 0.30084 0.32641 0.22198 0.0
C3660 C 0.31794 0.35799 0.25007 0.0
C3661 C 0.33139 0.41118 0.26587 0.0
C3662 C 0.32339 0.39391 0.25476 0.0
C3663 C 0.29302 0.34454 0.22803 0.0
C3664 C 0.30499 0.36132 0.23572 0.0
H3665 H 0.352 0.45679 0.26059 0.0
H3666 H 0.34167 0.42678 0.24277 0.0
H3667 H 0.33639 0.37131 0.27106 0.0
H3668 H 0.24724 0.32978 0.22745 0.0
H3669 H 0.26718 0.35956 0.23373 0.0
C3670 C 0.22248 0.56641 0.98943 0.0
C3671 C 0.22577 0.58606 0.98389 0.0
C3672 C 0.2053 0.5609 -0.00359 0.0
C3673 C 0.1635 0.58227 0.01748 0.0
H3674 H 0.1417 0.52967 0.00481 0.0
C3675 C 0.0866 0.55881 0.02899 0.0
C3676 C 0.08288 0.53886 0.03351 0.0
C3677 C 0.10485 0.56527 0.02577 0.0
C3678 C 0.14775 0.54429 0.00873 0.0
H3679 H 0.21344 0.61524 0.98094 0.0
H3680 H 0.18323 0.60546 0.99275 0.0
H3681 H 0.17135 0.53946 0.99216 0.0
H3682 H 0.09557 0.51054 0.03968 0.0
H3683 H 0.12743 0.52189 0.03417 0.0
H3684 H 0.13952 0.58717 0.03372 0.0
C3685 C 0.1941 0.59443 0.99204 0.0
C3686 C 0.16474 0.54993 0.00144 0.0
C3687 C 0.21135 0.59998 0.98511 0.0
C3688 C 0.09794 0.52596 0.03612 0.0
C3689 C 0.11617 0.53241 0.03282 0.0
C3690 C 0.14641 0.57665 0.02471 0.0
C3691 C 0.19095 0.57487 -0.00208 0.0
C3692 C 0.17281 0.56899 0.00569 0.0
C3693 C 0.1197 0.55189 0.02696 0.0
C3694 C 0.13837 0.5576 0.02038 0.0
H3695 H 0.23332 0.55533 0.98877 0.0
H3696 H 0.20345 0.54579 0.00102 0.0
H3697 H 0.16948 0.59694 0.02126 0.0
H3698 H 0.07531 0.56915 0.02695 0.0
H3699 H 0.10712 0.58036 0.02125 0.0
C3700 C 0.71348 0.96321 0.32008 0.0
C3701 C 0.70345 0.97434 0.30732 0.0
C3702 C 0.72761 0.95051 0.31439 0.0
C3703 C 0.73789 0.92116 0.27286 0.0
H3704 H 0.77635 0.89982 0.30471 0.0
C3705 C 0.7686 0.84381 0.25739 0.0
C3706 C 0.76659 0.83109 0.27208 0.0
C3707 C 0.76709 0.86458 0.26008 0.0
C3708 C 0.76579 0.90575 0.29557 0.0
H3709 H 0.70191 0.98291 0.27908 0.0
H3710 H 0.72701 0.9613 0.26927 0.0
H3711 H 0.76312 0.93242 0.31239 0.0
H3712 H 0.76264 0.8302 0.30126 0.0
H3713 H 0.75997 0.86629 0.3059 0.0
H3714 H 0.74003 0.8942 0.25645 0.0
C3715 C 0.72349 0.96172 0.28352 0.0
C3716 C 0.75816 0.92437 0.29999 0.0
C3717 C 0.70916 0.97418 0.28916 0.0
C3718 C 0.76407 0.83959 0.28963 0.0
C3719 C 0.76276 0.8603 0.29234 0.0
C3720 C 0.74563 0.90268 0.26837 0.0
C3721 C 0.73218 0.94891 0.29586 0.0
C3722 C 0.74351 0.93187 0.28912 0.0
C3723 C 0.76379 0.87298 0.27753 0.0
C3724 C 0.75905 0.89439 0.2801 0.0
H3725 H 0.70945 0.96304 0.33418 0.0
H3726 H 0.73387 0.94083 0.32431 0.0
H3727 H 0.72649 0.92623 0.26423 0.0
H3728 H 0.77066 0.83769 0.24372 0.0
H3729 H 0.768 0.87403 0.24844 0.0
C3730 C 0.81374 0.03785 0.82065 0.0
C3731 C 0.82884 0.03625 0.80894 0.0
C3732 C 0.79861 0.04992 0.81627 0.0
C3733 C 0.78014 0.08978 0.81244 0.0
H3734 H 0.7681 0.10529 0.76309 0.0
C3735 C 0.76856 0.1711 0.79567 0.0
C3736 C 0.75763 0.176 0.78028 0.0
C3737 C 0.77117 0.1511 0.79977 0.0
C3738 C 0.77086 0.10101 0.777 0.0
H3739 H 0.8391 0.04466 0.78271 0.0
H3740 H 0.81336 0.06612 0.77546 0.0
H3741 H 0.78232 0.07315 0.768 0.0
H3742 H 0.73992 0.16385 0.75773 0.0
H3743 H 0.7441 0.12885 0.76516 0.0
H3744 H 0.76859 0.11757 0.82144 0.0
C3745 C 0.81282 0.05788 0.78787 0.0
C3746 C 0.77929 0.08263 0.77981 0.0
C3747 C 0.82778 0.04565 0.79213 0.0
C3748 C 0.74863 0.16051 0.76956 0.0
C3749 C 0.75106 0.14046 0.7738 0.0
C3750 C 0.77142 0.10797 0.80965 0.0
C3751 C 0.79839 0.06082 0.80021 0.0
C3752 C 0.785 0.07731 0.79749 0.0
C3753 C 0.7627 0.13549 0.78873 0.0
C3754 C 0.76764 0.11431 0.79186 0.0
H3755 H 0.81396 0.03051 0.83357 0.0
H3756 H 0.78751 0.05142 0.82588 0.0
H3757 H 0.78426 0.08629 0.82628 0.0
H3758 H 0.7757 0.18269 0.8042 0.0
H3759 H 0.78054 0.14794 0.81116 0.0
loop_
_geom_bond_atom_site_label_1
_geom_bond_atom_site_label_2
_geom_bond_distance
_geom_bond_site_symmetry_2
_ccdc_geom_bond_type
Mg0 O1 2.028 . S
Mg0 O7 1.986 . S
Mg0 O9 2.114 . S
Mg0 O10 2.251 . S
Mg0 O13 2.010 . S
O1 Mg0 2.028 . S
O1 C4 1.250 . S
O2 Mg3 2.028 . S
O2 C4 1.248 . S
Mg3 O2 2.028 . S
Mg3 O8 2.032 . S
Mg3 O10 2.079 . S
C4 O1 1.250 . S
C4 O2 1.248 . S
C5 O6 1.264 . S
C5 O13 1.249 . S
O6 C5 1.264 . S
O7 Mg0 1.986 . S
O7 C11 1.246 . S
O8 Mg3 2.032 . S
O8 C11 1.259 . S
O9 Mg0 2.114 . S
O9 C12 1.252 . S
O10 Mg0 2.251 . S
O10 Mg3 2.079 . S
O10 C12 1.273 . S
C11 O7 1.246 . S
C11 O8 1.259 . S
C12 O9 1.252 . S
C12 O10 1.273 . S
O13 Mg0 2.010 . S
O13 C5 1.249 . S
Mg14 O15 2.028 . S
Mg14 O21 1.986 . S
Mg14 O23 2.114 . S
Mg14 O24 2.251 1_455 S
Mg14 O27 2.010 . S
O15 Mg14 2.028 . S
O15 C18 1.250 . S
O16 Mg17 2.028 1_455 S
O16 C18 1.248 . S
Mg17 O16 2.028 1_655 S
Mg17 O22 2.032 1_655 S
Mg17 O24 2.079 . S
C18 O15 1.250 . S
C18 O16 1.248 . S
C19 O20 1.264 . S
C19 O27 1.249 . S
O20 C19 1.264 . S
O21 Mg14 1.986 . S
O21 C25 1.246 . S
O22 Mg17 2.032 1_455 S
O22 C25 1.259 . S
O23 Mg14 2.114 . S
O23 C26 1.252 1_455 S
O24 Mg14 2.251 1_655 S
O24 Mg17 2.079 . S
O24 C26 1.273 . S
C25 O21 1.246 . S
C25 O22 1.259 . S
C26 O23 1.252 1_655 S
C26 O24 1.273 . S
O27 Mg14 2.010 . S
O27 C19 1.249 . S
Mg28 O29 2.028 . S
Mg28 O35 1.986 . S
Mg28 O37 2.114 . S
Mg28 O38 2.251 . S
Mg28 O41 2.010 . S
O29 Mg28 2.028 . S
O29 C32 1.250 . S
O30 Mg31 2.028 . S
O30 C32 1.248 . S
Mg31 O30 2.028 . S
Mg31 O36 2.032 . S
Mg31 O38 2.079 . S
C32 O29 1.250 . S
C32 O30 1.248 . S
C33 O34 1.264 . S
C33 O41 1.249 . S
O34 C33 1.264 . S
O35 Mg28 1.986 . S
O35 C39 1.246 . S
O36 Mg31 2.032 . S
O36 C39 1.259 . S
O37 Mg28 2.114 . S
O37 C40 1.252 . S
O38 Mg28 2.251 . S
O38 Mg31 2.079 . S
O38 C40 1.273 . S
C39 O35 1.246 . S
C39 O36 1.259 . S
C40 O37 1.252 . S
C40 O38 1.273 . S
O41 Mg28 2.010 . S
O41 C33 1.249 . S
Mg42 O43 2.028 . S
Mg42 O49 1.986 . S
Mg42 O51 2.114 . S
Mg42 O52 2.251 . S
Mg42 O55 2.010 . S
O43 Mg42 2.028 . S
O43 C46 1.250 . S
O44 Mg45 2.028 . S
O44 C46 1.248 . S
Mg45 O44 2.028 . S
Mg45 O50 2.032 . S
Mg45 O52 2.079 . S
C46 O43 1.250 . S
C46 O44 1.248 . S
C47 O48 1.264 . S
C47 O55 1.249 . S
O48 C47 1.264 . S
O49 Mg42 1.986 . S
O49 C53 1.246 . S
O50 Mg45 2.032 . S
O50 C53 1.259 . S
O51 Mg42 2.114 . S
O51 C54 1.252 . S
O52 Mg42 2.251 . S
O52 Mg45 2.079 . S
O52 C54 1.273 . S
C53 O49 1.246 . S
C53 O50 1.259 . S
C54 O51 1.252 . S
C54 O52 1.273 . S
O55 Mg42 2.010 . S
O55 C47 1.249 . S
Mg56 O57 2.028 . S
Mg56 O63 1.986 1_545 S
Mg56 O65 2.114 . S
Mg56 O66 2.251 . S
Mg56 O69 2.010 . S
O57 Mg56 2.028 . S
O57 C60 1.250 . S
O58 Mg59 2.028 . S
O58 C60 1.248 . S
Mg59 O58 2.028 . S
Mg59 O64 2.032 1_545 S
Mg59 O66 2.079 . S
C60 O57 1.250 . S
C60 O58 1.248 . S
C61 O62 1.260 1_545 S
C61 O69 1.249 . S
O62 C61 1.260 1_565 S
O63 Mg56 1.986 1_565 S
O63 C67 1.246 . S
O64 Mg59 2.032 1_565 S
O64 C67 1.259 . S
O65 Mg56 2.114 . S
O65 C68 1.252 . S
O66 Mg56 2.251 . S
O66 Mg59 2.079 . S
O66 C68 1.273 . S
C67 O63 1.246 . S
C67 O64 1.259 . S
C68 O65 1.252 . S
C68 O66 1.273 . S
O69 Mg56 2.010 . S
O69 C61 1.249 . S
Mg70 O71 2.028 . S
Mg70 O77 1.986 . S
Mg70 O79 2.114 . S
Mg70 O80 2.251 . S
Mg70 O83 2.010 . S
O71 Mg70 2.028 . S
O71 C74 1.250 . S
O72 Mg73 2.028 . S
O72 C74 1.248 . S
Mg73 O72 2.028 . S
Mg73 O78 2.032 . S
Mg73 O80 2.079 . S
C74 O71 1.250 . S
C74 O72 1.248 . S
C75 O76 1.264 . S
C75 O83 1.249 . S
O76 C75 1.264 . S
O77 Mg70 1.986 . S
O77 C81 1.246 . S
O78 Mg73 2.032 . S
O78 C81 1.259 . S
O79 Mg70 2.114 . S
O79 C82 1.252 . S
O80 Mg70 2.251 . S
O80 Mg73 2.079 . S
O80 C82 1.273 . S
C81 O77 1.246 . S
C81 O78 1.259 . S
C82 O79 1.252 . S
C82 O80 1.273 . S
O83 Mg70 2.010 . S
O83 C75 1.249 . S
Mg84 O85 2.028 1_545 S
Mg84 O91 1.986 . S
Mg84 O93 2.114 . S
Mg84 O94 2.251 . S
Mg84 O97 2.010 . S
O85 Mg84 2.028 1_565 S
O85 C88 1.250 . S
O86 Mg87 2.028 1_565 S
O86 C88 1.248 . S
Mg87 O86 2.028 1_545 S
Mg87 O92 2.032 . S
Mg87 O94 2.079 . S
C88 O85 1.250 . S
C88 O86 1.248 . S
C89 O90 1.264 . S
C89 O97 1.249 . S
O90 C89 1.264 . S
O91 Mg84 1.986 . S
O91 C95 1.246 . S
O92 Mg87 2.032 . S
O92 C95 1.259 . S
O93 Mg84 2.114 . S
O93 C96 1.252 . S
O94 Mg84 2.251 . S
O94 Mg87 2.079 . S
O94 C96 1.273 . S
C95 O91 1.246 . S
C95 O92 1.259 . S
C96 O93 1.252 . S
C96 O94 1.273 . S
O97 Mg84 2.010 . S
O97 C89 1.249 . S
Mg98 O99 2.028 . S
Mg98 O105 1.986 1_554 S
Mg98 O107 2.114 . S
Mg98 O108 2.251 . S
Mg98 O111 2.010 . S
O99 Mg98 2.028 . S
O99 C102 1.250 . S
O100 Mg101 2.028 . S
O100 C102 1.248 . S
Mg101 O100 2.028 . S
Mg101 O106 2.063 . S
Mg101 O108 2.079 . S
C102 O99 1.250 . S
C102 O100 1.248 . S
C103 O104 1.264 . S
C103 O111 1.249 . S
O104 C103 1.264 . S
O105 Mg98 1.986 1_556 S
O105 C109 1.246 . S
O106 Mg101 2.063 . S
O106 C109 1.241 1_554 S
O107 Mg98 2.114 . S
O107 C110 1.252 . S
O108 Mg98 2.251 . S
O108 Mg101 2.079 . S
O108 C110 1.273 . S
C109 O105 1.246 . S
C109 O106 1.241 1_556 S
C110 O107 1.252 . S
C110 O108 1.273 . S
O111 Mg98 2.010 . S
O111 C103 1.249 . S
Mg112 O113 2.028 . S
Mg112 O119 1.986 . S
Mg112 O121 2.114 . S
Mg112 O122 2.251 . S
Mg112 O125 2.010 . S
O113 Mg112 2.028 . S
O113 C116 1.250 . S
O114 Mg115 2.028 . S
O114 C116 1.248 . S
Mg115 O114 2.028 . S
Mg115 O120 2.032 . S
Mg115 O122 2.079 . S
C116 O113 1.250 . S
C116 O114 1.248 . S
C117 O118 1.264 . S
C117 O125 1.249 . S
O118 C117 1.264 . S
O119 Mg112 1.986 . S
O119 C123 1.246 . S
O120 Mg115 2.032 . S
O120 C123 1.259 . S
O121 Mg112 2.114 . S
O121 C124 1.252 . S
O122 Mg112 2.251 . S
O122 Mg115 2.079 . S
O122 C124 1.273 . S
C123 O119 1.246 . S
C123 O120 1.259 . S
C124 O121 1.252 . S
C124 O122 1.273 . S
O125 Mg112 2.010 . S
O125 C117 1.249 . S
Mg126 O127 2.028 . S
Mg126 O133 1.986 . S
Mg126 O135 2.114 . S
Mg126 O136 2.251 . S
Mg126 O139 2.010 . S
O127 Mg126 2.028 . S
O127 C130 1.250 . S
O128 Mg129 2.028 . S
O128 C130 1.248 . S
Mg129 O128 2.028 . S
Mg129 O134 2.032 . S
Mg129 O136 2.079 . S
C130 O127 1.250 . S
C130 O128 1.248 . S
C131 O132 1.264 . S
C131 O139 1.249 . S
O132 C131 1.264 . S
O133 Mg126 1.986 . S
O133 C137 1.246 . S
O134 Mg129 2.032 . S
O134 C137 1.259 . S
O135 Mg126 2.114 . S
O135 C138 1.252 . S
O136 Mg126 2.251 . S
O136 Mg129 2.079 . S
O136 C138 1.273 . S
C137 O133 1.246 . S
C137 O134 1.259 . S
C138 O135 1.252 . S
C138 O136 1.273 . S
O139 Mg126 2.010 . S
O139 C131 1.249 . S
Mg140 O141 2.028 . S
Mg140 O147 1.986 . S
Mg140 O149 2.114 . S
Mg140 O150 2.251 . S
Mg140 O153 2.010 . S
O141 Mg140 2.028 . S
O141 C144 1.250 . S
O142 Mg143 2.028 . S
O142 C144 1.248 . S
Mg143 O142 2.028 . S
Mg143 O148 2.032 . S
Mg143 O150 2.079 . S
C144 O141 1.250 . S
C144 O142 1.248 . S
C145 O146 1.264 . S
C145 O153 1.249 . S
O146 C145 1.264 . S
O147 Mg140 1.986 . S
O147 C151 1.246 . S
O148 Mg143 2.032 . S
O148 C151 1.259 . S
O149 Mg140 2.114 . S
O149 C152 1.252 . S
O150 Mg140 2.251 . S
O150 Mg143 2.079 . S
O150 C152 1.273 . S
C151 O147 1.246 . S
C151 O148 1.259 . S
C152 O149 1.252 . S
C152 O150 1.273 . S
O153 Mg140 2.010 . S
O153 C145 1.249 . S
Mg154 O155 2.028 . S
Mg154 O161 1.986 . S
Mg154 O163 2.114 . S
Mg154 O164 2.251 . S
Mg154 O167 2.010 . S
O155 Mg154 2.028 . S
O155 C158 1.250 . S
O156 Mg157 2.028 . S
O156 C158 1.248 . S
Mg157 O156 2.028 . S
Mg157 O162 2.032 . S
Mg157 O164 2.079 . S
C158 O155 1.250 . S
C158 O156 1.248 . S
C159 O160 1.264 . S
C159 O167 1.249 . S
O160 C159 1.264 . S
O161 Mg154 1.986 . S
O161 C165 1.246 . S
O162 Mg157 2.032 . S
O162 C165 1.259 . S
O163 Mg154 2.114 . S
O163 C166 1.252 . S
O164 Mg154 2.251 . S
O164 Mg157 2.079 . S
O164 C166 1.273 . S
C165 O161 1.246 . S
C165 O162 1.259 . S
C166 O163 1.252 . S
C166 O164 1.273 . S
O167 Mg154 2.010 . S
O167 C159 1.249 . S
Mg168 O169 2.023 1_655 S
Mg168 O175 1.979 1_655 S
Mg168 O177 2.134 . S
Mg168 O178 2.288 . S
Mg168 O181 1.977 1_655 S
O169 Mg168 2.023 1_455 S
O169 C172 1.250 1_455 S
O170 Mg171 2.028 . S
O170 C172 1.248 . S
Mg171 O170 2.028 . S
Mg171 O176 2.032 . S
Mg171 O178 2.079 . S
C172 O169 1.250 1_655 S
C172 O170 1.248 . S
C173 O174 1.264 . S
C173 O181 1.249 . S
O174 C173 1.264 . S
O175 Mg168 1.979 1_455 S
O175 C179 1.246 1_455 S
O176 Mg171 2.032 . S
O176 C179 1.259 . S
O177 Mg168 2.134 . S
O177 C180 1.252 . S
O178 Mg168 2.288 . S
O178 Mg171 2.079 . S
O178 C180 1.273 . S
C179 O175 1.246 1_655 S
C179 O176 1.259 . S
C180 O177 1.252 . S
C180 O178 1.273 . S
O181 Mg168 1.977 1_455 S
O181 C173 1.249 . S
Mg182 O183 2.028 . S
Mg182 O189 1.986 . S
Mg182 O191 2.114 . S
Mg182 O192 2.251 1_455 S
Mg182 O195 2.010 . S
O183 Mg182 2.028 . S
O183 C186 1.250 . S
O184 Mg185 2.028 1_455 S
O184 C186 1.248 . S
Mg185 O184 2.028 1_655 S
Mg185 O190 2.032 1_655 S
Mg185 O192 2.079 . S
C186 O183 1.250 . S
C186 O184 1.248 . S
C187 O188 1.264 . S
C187 O195 1.249 . S
O188 C187 1.264 . S
O189 Mg182 1.986 . S
O189 C193 1.246 . S
O190 Mg185 2.032 1_455 S
O190 C193 1.259 . S
O191 Mg182 2.114 . S
O191 C194 1.252 1_455 S
O192 Mg182 2.251 1_655 S
O192 Mg185 2.079 . S
O192 C194 1.273 . S
C193 O189 1.246 . S
C193 O190 1.259 . S
C194 O191 1.252 1_655 S
C194 O192 1.273 . S
O195 Mg182 2.010 . S
O195 C187 1.249 . S
Mg196 O197 2.028 . S
Mg196 O203 1.986 . S
Mg196 O205 2.114 . S
Mg196 O206 2.251 . S
Mg196 O209 2.010 . S
O197 Mg196 2.028 . S
O197 C200 1.250 . S
O198 Mg199 2.028 . S
O198 C200 1.248 . S
Mg199 O198 2.028 . S
Mg199 O204 2.032 . S
Mg199 O206 2.079 . S
C200 O197 1.250 . S
C200 O198 1.248 . S
C201 O202 1.264 . S
C201 O209 1.249 . S
O202 C201 1.264 . S
O203 Mg196 1.986 . S
O203 C207 1.246 . S
O204 Mg199 2.032 . S
O204 C207 1.259 . S
O205 Mg196 2.114 . S
O205 C208 1.252 . S
O206 Mg196 2.251 . S
O206 Mg199 2.079 . S
O206 C208 1.273 . S
C207 O203 1.246 . S
C207 O204 1.259 . S
C208 O205 1.252 . S
C208 O206 1.273 . S
O209 Mg196 2.010 . S
O209 C201 1.249 . S
Mg210 O211 2.028 . S
Mg210 O217 1.986 . S
Mg210 O219 2.114 . S
Mg210 O220 2.251 . S
Mg210 O223 2.010 . S
O211 Mg210 2.028 . S
O211 C214 1.250 . S
O212 Mg213 2.028 . S
O212 C214 1.248 . S
Mg213 O212 2.028 . S
Mg213 O218 2.032 . S
Mg213 O220 2.079 . S
C214 O211 1.250 . S
C214 O212 1.248 . S
C215 O216 1.264 . S
C215 O223 1.249 . S
O216 C215 1.264 . S
O217 Mg210 1.986 . S
O217 C221 1.246 . S
O218 Mg213 2.032 . S
O218 C221 1.259 . S
O219 Mg210 2.114 . S
O219 C222 1.252 . S
O220 Mg210 2.251 . S
O220 Mg213 2.079 . S
O220 C222 1.273 . S
C221 O217 1.246 . S
C221 O218 1.259 . S
C222 O219 1.252 . S
C222 O220 1.273 . S
O223 Mg210 2.010 . S
O223 C215 1.249 . S
Mg224 O225 2.028 1_545 S
Mg224 O231 1.986 . S
Mg224 O233 2.114 . S
Mg224 O234 2.251 . S
Mg224 O237 2.010 . S
O225 Mg224 2.028 1_565 S
O225 C228 1.250 . S
O226 Mg227 2.028 1_565 S
O226 C228 1.248 . S
Mg227 O226 2.028 1_545 S
Mg227 O232 2.032 . S
Mg227 O234 2.079 . S
C228 O225 1.250 . S
C228 O226 1.248 . S
C229 O230 1.264 . S
C229 O237 1.249 . S
O230 C229 1.264 . S
O231 Mg224 1.986 . S
O231 C235 1.246 . S
O232 Mg227 2.032 . S
O232 C235 1.259 . S
O233 Mg224 2.114 . S
O233 C236 1.252 . S
O234 Mg224 2.251 . S
O234 Mg227 2.079 . S
O234 C236 1.273 . S
C235 O231 1.246 . S
C235 O232 1.259 . S
C236 O233 1.252 . S
C236 O234 1.273 . S
O237 Mg224 2.010 . S
O237 C229 1.249 . S
Mg238 O239 2.028 . S
Mg238 O245 1.986 . S
Mg238 O247 2.114 . S
Mg238 O248 2.251 . S
Mg238 O251 2.010 . S
O239 Mg238 2.028 . S
O239 C242 1.250 . S
O240 Mg241 2.028 . S
O240 C242 1.248 . S
Mg241 O240 2.028 . S
Mg241 O246 2.032 . S
Mg241 O248 2.079 . S
C242 O239 1.250 . S
C242 O240 1.248 . S
C243 O244 1.264 . S
C243 O251 1.249 . S
O244 C243 1.264 . S
O245 Mg238 1.986 . S
O245 C249 1.246 . S
O246 Mg241 2.032 . S
O246 C249 1.259 . S
O247 Mg238 2.114 . S
O247 C250 1.252 . S
O248 Mg238 2.251 . S
O248 Mg241 2.079 . S
O248 C250 1.273 . S
C249 O245 1.246 . S
C249 O246 1.259 . S
C250 O247 1.252 . S
C250 O248 1.273 . S
O251 Mg238 2.010 . S
O251 C243 1.249 . S
Mg252 O253 2.028 . S
Mg252 O259 1.986 1_545 S
Mg252 O261 2.114 . S
Mg252 O262 2.251 . S
Mg252 O265 2.010 . S
O253 Mg252 2.028 . S
O253 C256 1.250 . S
O254 Mg255 2.028 . S
O254 C256 1.248 . S
Mg255 O254 2.028 . S
Mg255 O260 2.032 1_545 S
Mg255 O262 2.079 . S
C256 O253 1.250 . S
C256 O254 1.248 . S
C257 O258 1.247 1_545 S
C257 O265 1.249 . S
O258 C257 1.247 1_565 S
O259 Mg252 1.986 1_565 S
O259 C263 1.246 . S
O260 Mg255 2.032 1_565 S
O260 C263 1.259 . S
O261 Mg252 2.114 . S
O261 C264 1.252 . S
O262 Mg252 2.251 . S
O262 Mg255 2.079 . S
O262 C264 1.273 . S
C263 O259 1.246 . S
C263 O260 1.259 . S
C264 O261 1.252 . S
C264 O262 1.273 . S
O265 Mg252 2.010 . S
O265 C257 1.249 . S
Mg266 O267 2.028 . S
Mg266 O273 1.986 . S
Mg266 O275 2.114 . S
Mg266 O276 2.251 . S
Mg266 O279 2.010 . S
O267 Mg266 2.028 . S
O267 C270 1.232 1_554 S
O268 Mg269 2.028 . S
O268 C270 1.237 1_554 S
Mg269 O268 2.028 . S
Mg269 O274 2.032 . S
Mg269 O276 2.079 . S
C270 O267 1.232 1_556 S
C270 O268 1.237 1_556 S
C271 O272 1.264 . S
C271 O279 1.249 . S
O272 C271 1.264 . S
O273 Mg266 1.986 . S
O273 C277 1.246 . S
O274 Mg269 2.032 . S
O274 C277 1.259 . S
O275 Mg266 2.114 . S
O275 C278 1.252 . S
O276 Mg266 2.251 . S
O276 Mg269 2.079 . S
O276 C278 1.273 . S
C277 O273 1.246 . S
C277 O274 1.259 . S
C278 O275 1.252 . S
C278 O276 1.273 . S
O279 Mg266 2.010 . S
O279 C271 1.249 . S
Mg280 O281 2.028 1_556 S
Mg280 O287 1.986 . S
Mg280 O289 2.114 1_556 S
Mg280 O290 2.251 . S
Mg280 O293 2.010 . S
O281 Mg280 2.028 1_554 S
O281 C284 1.250 . S
O282 Mg283 1.993 1_554 S
O282 C284 1.248 . S
Mg283 O282 1.993 1_556 S
Mg283 O288 2.065 . S
Mg283 O290 2.084 . S
C284 O281 1.250 . S
C284 O282 1.248 . S
C285 O286 1.264 . S
C285 O293 1.249 . S
O286 C285 1.264 . S
O287 Mg280 1.986 . S
O287 C291 1.246 . S
O288 Mg283 2.065 . S
O288 C291 1.259 . S
O289 Mg280 2.114 1_554 S
O289 C292 1.252 . S
O290 Mg280 2.251 . S
O290 Mg283 2.084 . S
O290 C292 1.273 1_556 S
C291 O287 1.246 . S
C291 O288 1.259 . S
C292 O289 1.252 . S
C292 O290 1.273 1_554 S
O293 Mg280 2.010 . S
O293 C285 1.249 . S
Mg294 O295 2.028 . S
Mg294 O301 1.986 . S
Mg294 O303 2.114 . S
Mg294 O304 2.251 . S
Mg294 O307 2.010 . S
O295 Mg294 2.028 . S
O295 C298 1.250 . S
O296 Mg297 2.028 . S
O296 C298 1.248 . S
Mg297 O296 2.028 . S
Mg297 O302 2.032 . S
Mg297 O304 2.079 . S
C298 O295 1.250 . S
C298 O296 1.248 . S
C299 O300 1.264 . S
C299 O307 1.249 . S
O300 C299 1.264 . S
O301 Mg294 1.986 . S
O301 C305 1.246 . S
O302 Mg297 2.032 . S
O302 C305 1.259 . S
O303 Mg294 2.114 . S
O303 C306 1.252 . S
O304 Mg294 2.251 . S
O304 Mg297 2.079 . S
O304 C306 1.273 . S
C305 O301 1.246 . S
C305 O302 1.259 . S
C306 O303 1.252 . S
C306 O304 1.273 . S
O307 Mg294 2.010 . S
O307 C299 1.249 . S
Mg308 O309 2.028 . S
Mg308 O315 1.986 . S
Mg308 O317 2.114 . S
Mg308 O318 2.251 . S
Mg308 O321 2.010 . S
O309 Mg308 2.028 . S
O309 C312 1.250 . S
O310 Mg311 2.028 . S
O310 C312 1.248 . S
Mg311 O310 2.028 . S
Mg311 O316 2.032 . S
Mg311 O318 2.079 . S
C312 O309 1.250 . S
C312 O310 1.248 . S
C313 O314 1.264 . S
C313 O321 1.249 . S
O314 C313 1.264 . S
O315 Mg308 1.986 . S
O315 C319 1.246 . S
O316 Mg311 2.032 . S
O316 C319 1.259 . S
O317 Mg308 2.114 . S
O317 C320 1.252 . S
O318 Mg308 2.251 . S
O318 Mg311 2.079 . S
O318 C320 1.273 . S
C319 O315 1.246 . S
C319 O316 1.259 . S
C320 O317 1.252 . S
C320 O318 1.273 . S
O321 Mg308 2.010 . S
O321 C313 1.249 . S
Mg322 O323 2.028 . S
Mg322 O329 1.986 . S
Mg322 O331 2.114 . S
Mg322 O332 2.251 . S
Mg322 O335 2.010 . S
O323 Mg322 2.028 . S
O323 C326 1.250 . S
O324 Mg325 2.028 . S
O324 C326 1.248 . S
Mg325 O324 2.028 . S
Mg325 O330 2.032 . S
Mg325 O332 2.079 . S
C326 O323 1.250 . S
C326 O324 1.248 . S
C327 O328 1.264 . S
C327 O335 1.249 . S
O328 C327 1.264 . S
O329 Mg322 1.986 . S
O329 C333 1.246 . S
O330 Mg325 2.032 . S
O330 C333 1.259 . S
O331 Mg322 2.114 . S
O331 C334 1.252 . S
O332 Mg322 2.251 . S
O332 Mg325 2.079 . S
O332 C334 1.273 . S
C333 O329 1.246 . S
C333 O330 1.259 . S
C334 O331 1.252 . S
C334 O332 1.273 . S
O335 Mg322 2.010 . S
O335 C327 1.249 . S
C336 O352 1.251 1_456 S
C336 O354 1.254 . S
N337 C338 1.316 1_565 S
N337 C342 1.336 . S
N337 Zn343 2.012 1_565 S
C338 N337 1.316 1_545 S
C338 C339 1.379 . S
C338 H356 0.952 . S
C339 C338 1.379 . S
C339 C340 1.390 1_545 S
C339 H366 0.949 . S
C340 C339 1.390 1_565 S
C340 C341 1.357 . S
C341 C340 1.357 . S
C341 C342 1.370 . S
C341 H367 0.950 . S
C342 N337 1.336 . S
C342 C341 1.370 . S
C342 H360 0.948 . S
Zn343 N337 2.012 1_545 S
Zn343 O352 2.039 . S
Zn343 O358 2.035 . S
Zn343 O362 2.028 1_655 S
Zn343 O364 2.024 1_645 S
C344 O363 1.246 . S
C344 O364 1.249 . S
N345 C346 1.275 1_554 S
N345 C347 1.333 . S
N345 Zn351 2.020 . S
C346 N345 1.275 1_556 S
C346 C350 1.385 . S
C346 H357 0.970 . S
C347 N345 1.333 . S
C347 C348 1.379 . S
C347 H355 0.952 . S
C348 C347 1.379 . S
C348 C349 1.390 . S
C348 H368 0.949 . S
C349 C348 1.390 . S
C349 C350 1.357 1_554 S
C350 C346 1.385 . S
C350 C349 1.357 1_556 S
C350 H369 0.950 . S
Zn351 N345 2.020 . S
Zn351 O354 2.025 1_554 S
Zn351 O359 2.024 . S
Zn351 O361 2.039 . S
Zn351 O363 2.034 1_545 S
O352 C336 1.251 1_654 S
O352 Zn343 2.039 . S
C353 O358 1.203 1_455 S
C353 O359 1.249 . S
O354 C336 1.254 . S
O354 Zn351 2.025 1_556 S
H355 C347 0.952 . S
H356 C338 0.952 . S
H357 C346 0.970 . S
O358 Zn343 2.035 . S
O358 C353 1.203 1_655 S
O359 Zn351 2.024 . S
O359 C353 1.249 . S
H360 C342 0.948 . S
O361 Zn351 2.039 . S
O361 C365 1.251 . S
O362 Zn343 2.028 1_455 S
O362 C365 1.256 . S
O363 C344 1.246 . S
O363 Zn351 2.034 1_565 S
O364 Zn343 2.024 1_465 S
O364 C344 1.249 . S
C365 O361 1.251 . S
C365 O362 1.256 . S
H366 C339 0.949 . S
H367 C341 0.950 . S
H368 C348 0.949 . S
H369 C350 0.950 . S
C370 O386 1.251 . S
C370 O388 1.254 . S
N371 C372 1.333 . S
N371 C376 1.307 . S
N371 Zn377 2.020 . S
C372 N371 1.333 . S
C372 C373 1.379 . S
C372 H390 0.952 . S
C373 C372 1.379 . S
C373 C374 1.390 . S
C373 H400 0.949 . S
C374 C373 1.390 . S
C374 C375 1.357 . S
C375 C374 1.357 . S
C375 C376 1.370 . S
C375 H401 0.950 . S
C376 N371 1.307 . S
C376 C375 1.370 . S
C376 H394 0.948 . S
Zn377 N371 2.020 . S
Zn377 O386 2.039 . S
Zn377 O392 2.034 . S
Zn377 O396 2.025 . S
Zn377 O398 2.024 . S
C378 O397 1.246 . S
C378 O398 1.249 . S
N379 C380 1.307 . S
N379 C381 1.333 . S
N379 Zn385 2.020 . S
C380 N379 1.307 . S
C380 C384 1.370 . S
C380 H391 0.948 . S
C381 N379 1.333 . S
C381 C382 1.379 . S
C381 H389 0.952 . S
C382 C381 1.379 . S
C382 C383 1.390 . S
C382 H402 0.949 . S
C383 C382 1.390 . S
C383 C384 1.357 . S
C384 C380 1.370 . S
C384 C383 1.357 . S
C384 H403 0.950 . S
Zn385 N379 2.020 . S
Zn385 O388 2.025 . S
Zn385 O393 2.024 . S
Zn385 O395 2.039 . S
Zn385 O397 2.034 . S
O386 C370 1.251 . S
O386 Zn377 2.039 . S
C387 O392 1.246 . S
C387 O393 1.249 . S
O388 C370 1.254 . S
O388 Zn385 2.025 . S
H389 C381 0.952 . S
H390 C372 0.952 . S
H391 C380 0.948 . S
O392 Zn377 2.034 . S
O392 C387 1.246 . S
O393 Zn385 2.024 . S
O393 C387 1.249 . S
H394 C376 0.948 . S
O395 Zn385 2.039 . S
O395 C399 1.251 . S
O396 Zn377 2.025 . S
O396 C399 1.254 . S
O397 C378 1.246 . S
O397 Zn385 2.034 . S
O398 Zn377 2.024 . S
O398 C378 1.249 . S
C399 O395 1.251 . S
C399 O396 1.254 . S
H400 C373 0.949 . S
H401 C375 0.950 . S
H402 C382 0.949 . S
H403 C384 0.950 . S
C404 O420 1.251 . S
C404 O422 1.254 . S
N405 C406 1.333 . S
N405 C410 1.307 . S
N405 Zn411 2.020 . S
C406 N405 1.333 . S
C406 C407 1.379 . S
C406 H424 0.952 . S
C407 C406 1.379 . S
C407 C408 1.390 . S
C407 H434 0.949 . S
C408 C407 1.390 . S
C408 C409 1.357 . S
C409 C408 1.357 . S
C409 C410 1.370 . S
C409 H435 0.950 . S
C410 N405 1.307 . S
C410 C409 1.370 . S
C410 H428 0.948 . S
Zn411 N405 2.020 . S
Zn411 O420 2.039 1_565 S
Zn411 O426 2.034 1_565 S
Zn411 O430 2.025 . S
Zn411 O432 2.024 . S
C412 O431 1.246 1_565 S
C412 O432 1.249 . S
N413 C414 1.307 . S
N413 C415 1.333 . S
N413 Zn419 2.020 . S
C414 N413 1.307 . S
C414 C418 1.370 . S
C414 H425 0.948 . S
C415 N413 1.333 . S
C415 C416 1.379 . S
C415 H423 0.952 . S
C416 C415 1.379 . S
C416 C417 1.390 . S
C416 H436 0.949 . S
C417 C416 1.390 . S
C417 C418 1.357 . S
C418 C414 1.370 . S
C418 C417 1.357 . S
C418 H437 0.950 . S
Zn419 N413 2.020 . S
Zn419 O422 2.025 . S
Zn419 O427 2.024 . S
Zn419 O429 2.039 . S
Zn419 O431 2.034 . S
O420 C404 1.251 . S
O420 Zn411 2.039 1_545 S
C421 O426 1.246 . S
C421 O427 1.249 . S
O422 C404 1.254 . S
O422 Zn419 2.025 . S
H423 C415 0.952 . S
H424 C406 0.952 . S
H425 C414 0.948 . S
O426 Zn411 2.034 1_545 S
O426 C421 1.246 . S
O427 Zn419 2.024 . S
O427 C421 1.249 . S
H428 C410 0.948 . S
O429 Zn419 2.039 . S
O429 C433 1.251 . S
O430 Zn411 2.025 . S
O430 C433 1.254 1_565 S
O431 C412 1.246 1_545 S
O431 Zn419 2.034 . S
O432 Zn411 2.024 . S
O432 C412 1.249 . S
C433 O429 1.251 . S
C433 O430 1.254 1_545 S
H434 C407 0.949 . S
H435 C409 0.950 . S
H436 C416 0.949 . S
H437 C418 0.950 . S
C438 O454 1.251 . S
C438 O456 1.254 . S
N439 C440 1.333 . S
N439 C444 1.307 . S
N439 Zn445 2.020 . S
C440 N439 1.333 . S
C440 C441 1.379 . S
C440 H458 0.952 . S
C441 C440 1.379 . S
C441 C442 1.390 . S
C441 H468 0.949 . S
C442 C441 1.390 . S
C442 C443 1.357 . S
C443 C442 1.357 . S
C443 C444 1.370 . S
C443 H469 0.950 . S
C444 N439 1.307 . S
C444 C443 1.370 . S
C444 H462 0.948 . S
Zn445 N439 2.020 . S
Zn445 O454 2.039 . S
Zn445 O460 2.034 . S
Zn445 O464 2.025 . S
Zn445 O466 2.024 . S
C446 O465 1.246 . S
C446 O466 1.249 . S
N447 C448 1.307 . S
N447 C449 1.333 . S
N447 Zn453 2.020 . S
C448 N447 1.307 . S
C448 C452 1.370 . S
C448 H459 0.948 . S
C449 N447 1.333 . S
C449 C450 1.379 . S
C449 H457 0.952 . S
C450 C449 1.379 . S
C450 C451 1.390 . S
C450 H470 0.949 . S
C451 C450 1.390 . S
C451 C452 1.357 . S
C452 C448 1.370 . S
C452 C451 1.357 . S
C452 H471 0.950 . S
Zn453 N447 2.020 . S
Zn453 O456 2.025 . S
Zn453 O461 2.024 . S
Zn453 O463 2.039 . S
Zn453 O465 2.034 . S
O454 C438 1.251 . S
O454 Zn445 2.039 . S
C455 O460 1.246 . S
C455 O461 1.249 . S
O456 C438 1.254 . S
O456 Zn453 2.025 . S
H457 C449 0.952 . S
H458 C440 0.952 . S
H459 C448 0.948 . S
O460 Zn445 2.034 . S
O460 C455 1.246 . S
O461 Zn453 2.024 . S
O461 C455 1.249 . S
H462 C444 0.948 . S
O463 Zn453 2.039 . S
O463 C467 1.251 . S
O464 Zn445 2.025 . S
O464 C467 1.254 . S
O465 C446 1.246 . S
O465 Zn453 2.034 . S
O466 Zn445 2.024 . S
O466 C446 1.249 . S
C467 O463 1.251 . S
C467 O464 1.254 . S
H468 C441 0.949 . S
H469 C443 0.950 . S
H470 C450 0.949 . S
H471 C452 0.950 . S
C472 O488 1.251 . S
C472 O490 1.254 . S
N473 C474 1.333 . S
N473 C478 1.307 . S
N473 Zn479 2.020 . S
C474 N473 1.333 . S
C474 C475 1.379 . S
C474 H492 0.952 . S
C475 C474 1.379 . S
C475 C476 1.390 . S
C475 H502 0.949 . S
C476 C475 1.390 . S
C476 C477 1.357 . S
C477 C476 1.357 . S
C477 C478 1.370 . S
C477 H503 0.950 . S
C478 N473 1.307 . S
C478 C477 1.370 . S
C478 H496 0.948 . S
Zn479 N473 2.020 . S
Zn479 O488 2.039 . S
Zn479 O494 2.034 . S
Zn479 O498 2.025 1_455 S
Zn479 O500 2.024 1_545 S
C480 O499 1.246 . S
C480 O500 1.249 . S
N481 C482 1.308 . S
N481 C483 1.332 1_445 S
N481 Zn487 2.021 . S
C482 N481 1.308 . S
C482 C486 1.355 1_545 S
C482 H493 0.967 . S
C483 N481 1.332 1_665 S
C483 C484 1.379 . S
C483 H491 0.952 . S
C484 C483 1.379 . S
C484 C485 1.390 . S
C484 H504 0.949 . S
C485 C484 1.390 . S
C485 C486 1.357 1_655 S
C486 C482 1.355 1_565 S
C486 C485 1.357 1_455 S
C486 H505 0.950 . S
Zn487 N481 2.021 . S
Zn487 O490 2.025 . S
Zn487 O495 2.024 . S
Zn487 O497 2.039 1_455 S
Zn487 O499 2.034 1_545 S
O488 C472 1.251 . S
O488 Zn479 2.039 . S
C489 O494 1.246 . S
C489 O495 1.249 . S
O490 C472 1.254 . S
O490 Zn487 2.025 . S
H491 C483 0.952 . S
H492 C474 0.952 . S
H493 C482 0.967 . S
O494 Zn479 2.034 . S
O494 C489 1.246 . S
O495 Zn487 2.024 . S
O495 C489 1.249 . S
H496 C478 0.948 . S
O497 Zn487 2.039 1_655 S
O497 C501 1.251 . S
O498 Zn479 2.025 1_655 S
O498 C501 1.254 . S
O499 C480 1.246 . S
O499 Zn487 2.034 1_565 S
O500 Zn479 2.024 1_565 S
O500 C480 1.249 . S
C501 O497 1.251 . S
C501 O498 1.254 . S
H502 C475 0.949 . S
H503 C477 0.950 . S
H504 C484 0.949 . S
H505 C486 0.950 . S
C506 O522 1.251 . S
C506 O524 1.254 . S
N507 C508 1.333 . S
N507 C512 1.307 . S
N507 Zn513 2.020 . S
C508 N507 1.333 . S
C508 C509 1.379 . S
C508 H526 0.952 . S
C509 C508 1.379 . S
C509 C510 1.390 . S
C509 H536 0.949 . S
C510 C509 1.390 . S
C510 C511 1.357 . S
C511 C510 1.357 . S
C511 C512 1.370 . S
C511 H537 0.950 . S
C512 N507 1.307 . S
C512 C511 1.370 . S
C512 H530 0.948 . S
Zn513 N507 2.020 . S
Zn513 O522 2.039 . S
Zn513 O528 2.034 . S
Zn513 O532 2.025 . S
Zn513 O534 2.024 . S
C514 O533 1.246 . S
C514 O534 1.249 . S
N515 C516 1.307 . S
N515 C517 1.333 . S
N515 Zn521 2.020 . S
C516 N515 1.307 . S
C516 C520 1.370 . S
C516 H527 0.948 . S
C517 N515 1.333 . S
C517 C518 1.379 . S
C517 H525 0.952 . S
C518 C517 1.379 . S
C518 C519 1.390 . S
C518 H538 0.949 . S
C519 C518 1.390 . S
C519 C520 1.357 . S
C520 C516 1.370 . S
C520 C519 1.357 . S
C520 H539 0.950 . S
Zn521 N515 2.020 . S
Zn521 O524 2.025 . S
Zn521 O529 2.024 . S
Zn521 O531 2.039 . S
Zn521 O533 2.034 . S
O522 C506 1.251 . S
O522 Zn513 2.039 . S
C523 O528 1.246 . S
C523 O529 1.249 . S
O524 C506 1.254 . S
O524 Zn521 2.025 . S
H525 C517 0.952 . S
H526 C508 0.952 . S
H527 C516 0.948 . S
O528 Zn513 2.034 . S
O528 C523 1.246 . S
O529 Zn521 2.024 . S
O529 C523 1.249 . S
H530 C512 0.948 . S
O531 Zn521 2.039 . S
O531 C535 1.251 . S
O532 Zn513 2.025 . S
O532 C535 1.254 . S
O533 C514 1.246 . S
O533 Zn521 2.034 . S
O534 Zn513 2.024 . S
O534 C514 1.249 . S
C535 O531 1.251 . S
C535 O532 1.254 . S
H536 C509 0.949 . S
H537 C511 0.950 . S
H538 C518 0.949 . S
H539 C520 0.950 . S
C540 O556 1.251 . S
C540 O558 1.254 . S
N541 C542 1.333 . S
N541 C546 1.307 . S
N541 Zn547 2.020 . S
C542 N541 1.333 . S
C542 C543 1.379 . S
C542 H560 0.952 . S
C543 C542 1.379 . S
C543 C544 1.390 . S
C543 H570 0.949 . S
C544 C543 1.390 . S
C544 C545 1.357 . S
C545 C544 1.357 . S
C545 C546 1.370 . S
C545 H571 0.950 . S
C546 N541 1.307 . S
C546 C545 1.370 . S
C546 H564 0.948 . S
Zn547 N541 2.020 . S
Zn547 O556 2.039 1_545 S
Zn547 O562 2.034 . S
Zn547 O566 2.025 . S
Zn547 O568 2.024 . S
C548 O567 1.246 . S
C548 O568 1.249 . S
N549 C550 1.307 . S
N549 C551 1.333 1_565 S
N549 Zn555 2.020 1_566 S
C550 N549 1.307 . S
C550 C554 1.370 . S
C550 H561 0.948 . S
C551 N549 1.333 1_545 S
C551 C552 1.379 . S
C551 H559 0.952 . S
C552 C551 1.379 . S
C552 C553 1.390 1_545 S
C552 H572 0.949 . S
C553 C552 1.390 1_565 S
C553 C554 1.357 . S
C554 C550 1.370 . S
C554 C553 1.357 . S
C554 H573 0.950 . S
Zn555 N549 2.020 1_544 S
Zn555 O558 2.025 1_545 S
Zn555 O563 2.024 . S
Zn555 O565 2.039 1_554 S
Zn555 O567 2.034 . S
O556 C540 1.251 . S
O556 Zn547 2.039 1_565 S
C557 O562 1.246 . S
C557 O563 1.249 . S
O558 C540 1.254 . S
O558 Zn555 2.025 1_565 S
H559 C551 0.952 . S
H560 C542 0.952 . S
H561 C550 0.948 . S
O562 Zn547 2.034 . S
O562 C557 1.246 . S
O563 Zn555 2.024 . S
O563 C557 1.249 . S
H564 C546 0.948 . S
O565 Zn555 2.039 1_556 S
O565 C569 1.251 1_556 S
O566 Zn547 2.025 . S
O566 C569 1.254 . S
O567 C548 1.246 . S
O567 Zn555 2.034 . S
O568 Zn547 2.024 . S
O568 C548 1.249 . S
C569 O565 1.251 1_554 S
C569 O566 1.254 . S
H570 C543 0.949 . S
H571 C545 0.950 . S
H572 C552 0.949 . S
H573 C554 0.950 . S
C574 O590 1.251 . S
C574 O592 1.254 . S
N575 C576 1.333 . S
N575 C580 1.307 . S
N575 Zn581 2.020 . S
C576 N575 1.333 . S
C576 C577 1.379 . S
C576 H594 0.952 . S
C577 C576 1.379 . S
C577 C578 1.390 . S
C577 H604 0.949 . S
C578 C577 1.390 . S
C578 C579 1.357 . S
C579 C578 1.357 . S
C579 C580 1.370 . S
C579 H605 0.950 . S
C580 N575 1.307 . S
C580 C579 1.370 . S
C580 H598 0.948 . S
Zn581 N575 2.020 . S
Zn581 O590 2.039 . S
Zn581 O596 2.034 . S
Zn581 O600 2.025 . S
Zn581 O602 2.024 . S
C582 O601 1.246 . S
C582 O602 1.249 . S
N583 C584 1.307 . S
N583 C585 1.333 . S
N583 Zn589 2.020 . S
C584 N583 1.307 . S
C584 C588 1.370 . S
C584 H595 0.948 . S
C585 N583 1.333 . S
C585 C586 1.379 . S
C585 H593 0.952 . S
C586 C585 1.379 . S
C586 C587 1.390 . S
C586 H606 0.949 . S
C587 C586 1.390 . S
C587 C588 1.357 . S
C588 C584 1.370 . S
C588 C587 1.357 . S
C588 H607 0.950 . S
Zn589 N583 2.020 . S
Zn589 O592 2.025 . S
Zn589 O597 2.024 . S
Zn589 O599 2.039 . S
Zn589 O601 2.034 . S
O590 C574 1.251 . S
O590 Zn581 2.039 . S
C591 O596 1.246 . S
C591 O597 1.249 . S
O592 C574 1.254 . S
O592 Zn589 2.025 . S
H593 C585 0.952 . S
H594 C576 0.952 . S
H595 C584 0.948 . S
O596 Zn581 2.034 . S
O596 C591 1.246 . S
O597 Zn589 2.024 . S
O597 C591 1.249 . S
H598 C580 0.948 . S
O599 Zn589 2.039 . S
O599 C603 1.251 . S
O600 Zn581 2.025 . S
O600 C603 1.254 . S
O601 C582 1.246 . S
O601 Zn589 2.034 . S
O602 Zn581 2.024 . S
O602 C582 1.249 . S
C603 O599 1.251 . S
C603 O600 1.254 . S
H604 C577 0.949 . S
H605 C579 0.950 . S
H606 C586 0.949 . S
H607 C588 0.950 . S
C608 O624 1.251 . S
C608 O626 1.254 . S
N609 C610 1.333 . S
N609 C614 1.307 . S
N609 Zn615 2.020 1_556 S
C610 N609 1.333 . S
C610 C611 1.379 . S
C610 H628 0.952 . S
C611 C610 1.379 . S
C611 C612 1.390 . S
C611 H638 0.949 . S
C612 C611 1.390 . S
C612 C613 1.357 . S
C613 C612 1.357 . S
C613 C614 1.370 . S
C613 H639 0.950 . S
C614 N609 1.307 . S
C614 C613 1.370 . S
C614 H632 0.948 . S
Zn615 N609 2.020 1_554 S
Zn615 O624 2.039 . S
Zn615 O630 2.034 . S
Zn615 O634 2.025 1_554 S
Zn615 O636 2.024 1_554 S
C616 O635 1.246 . S
C616 O636 1.249 1_554 S
N617 C618 1.307 . S
N617 C619 1.333 . S
N617 Zn623 2.020 . S
C618 N617 1.307 . S
C618 C622 1.370 . S
C618 H629 0.948 . S
C619 N617 1.333 . S
C619 C620 1.379 . S
C619 H627 0.952 . S
C620 C619 1.379 . S
C620 C621 1.390 . S
C620 H640 0.949 . S
C621 C620 1.390 . S
C621 C622 1.357 . S
C622 C618 1.370 . S
C622 C621 1.357 . S
C622 H641 0.950 . S
Zn623 N617 2.020 . S
Zn623 O626 2.025 . S
Zn623 O631 2.024 . S
Zn623 O633 2.039 . S
Zn623 O635 2.034 . S
O624 C608 1.251 . S
O624 Zn615 2.039 . S
C625 O630 1.246 . S
C625 O631 1.249 . S
O626 C608 1.254 . S
O626 Zn623 2.025 . S
H627 C619 0.952 . S
H628 C610 0.952 . S
H629 C618 0.948 . S
O630 Zn615 2.034 . S
O630 C625 1.246 . S
O631 Zn623 2.024 . S
O631 C625 1.249 . S
H632 C614 0.948 . S
O633 Zn623 2.039 . S
O633 C637 1.251 . S
O634 Zn615 2.025 1_556 S
O634 C637 1.244 1_556 S
O635 C616 1.246 . S
O635 Zn623 2.034 . S
O636 Zn615 2.024 1_556 S
O636 C616 1.249 1_556 S
C637 O633 1.251 . S
C637 O634 1.244 1_554 S
H638 C611 0.949 . S
H639 C613 0.950 . S
H640 C620 0.949 . S
H641 C622 0.950 . S
C642 O658 1.251 . S
C642 O660 1.254 . S
N643 C644 1.333 . S
N643 C648 1.307 . S
N643 Zn649 2.020 . S
C644 N643 1.333 . S
C644 C645 1.379 . S
C644 H662 0.952 . S
C645 C644 1.379 . S
C645 C646 1.390 . S
C645 H672 0.949 . S
C646 C645 1.390 . S
C646 C647 1.357 . S
C647 C646 1.357 . S
C647 C648 1.370 . S
C647 H673 0.950 . S
C648 N643 1.307 . S
C648 C647 1.370 . S
C648 H666 0.948 . S
Zn649 N643 2.020 . S
Zn649 O658 2.039 . S
Zn649 O664 2.034 . S
Zn649 O668 2.025 . S
Zn649 O670 2.024 . S
C650 O669 1.246 . S
C650 O670 1.249 . S
N651 C652 1.307 . S
N651 C653 1.333 . S
N651 Zn657 2.020 . S
C652 N651 1.307 . S
C652 C656 1.370 . S
C652 H663 0.948 . S
C653 N651 1.333 . S
C653 C654 1.379 . S
C653 H661 0.952 . S
C654 C653 1.379 . S
C654 C655 1.390 . S
C654 H674 0.949 . S
C655 C654 1.390 . S
C655 C656 1.357 . S
C656 C652 1.370 . S
C656 C655 1.357 . S
C656 H675 0.950 . S
Zn657 N651 2.020 . S
Zn657 O660 2.025 . S
Zn657 O665 2.024 . S
Zn657 O667 2.039 . S
Zn657 O669 2.034 . S
O658 C642 1.251 . S
O658 Zn649 2.039 . S
C659 O664 1.246 . S
C659 O665 1.249 . S
O660 C642 1.254 . S
O660 Zn657 2.025 . S
H661 C653 0.952 . S
H662 C644 0.952 . S
H663 C652 0.948 . S
O664 Zn649 2.034 . S
O664 C659 1.246 . S
O665 Zn657 2.024 . S
O665 C659 1.249 . S
H666 C648 0.948 . S
O667 Zn657 2.039 . S
O667 C671 1.251 . S
O668 Zn649 2.025 . S
O668 C671 1.254 . S
O669 C650 1.246 . S
O669 Zn657 2.034 . S
O670 Zn649 2.024 . S
O670 C650 1.249 . S
C671 O667 1.251 . S
C671 O668 1.254 . S
H672 C645 0.949 . S
H673 C647 0.950 . S
H674 C654 0.949 . S
H675 C656 0.950 . S
C676 O692 1.251 . S
C676 O694 1.254 . S
N677 C678 1.333 . S
N677 C682 1.307 . S
N677 Zn683 2.020 . S
C678 N677 1.333 . S
C678 C679 1.379 . S
C678 H696 0.952 . S
C679 C678 1.379 . S
C679 C680 1.390 . S
C679 H706 0.949 . S
C680 C679 1.390 . S
C680 C681 1.357 . S
C681 C680 1.357 . S
C681 C682 1.370 . S
C681 H707 0.950 . S
C682 N677 1.307 . S
C682 C681 1.370 . S
C682 H700 0.948 . S
Zn683 N677 2.020 . S
Zn683 O692 2.039 . S
Zn683 O698 2.034 1_455 S
Zn683 O702 2.025 . S
Zn683 O704 2.024 . S
C684 O703 1.246 . S
C684 O704 1.249 . S
N685 C686 1.333 . S
N685 C687 1.320 1_655 S
N685 Zn691 2.010 1_655 S
C686 N685 1.333 . S
C686 C690 1.370 . S
C686 H697 0.948 . S
C687 N685 1.320 1_455 S
C687 C688 1.389 . S
C687 H695 0.952 . S
C688 C687 1.389 . S
C688 C689 1.366 1_455 S
C688 H708 0.965 . S
C689 C688 1.366 1_655 S
C689 C690 1.357 . S
C690 C686 1.370 . S
C690 C689 1.357 . S
C690 H709 0.950 . S
Zn691 N685 2.010 1_455 S
Zn691 O694 2.025 . S
Zn691 O699 2.024 1_455 S
Zn691 O701 2.039 . S
Zn691 O703 2.034 . S
O692 C676 1.251 . S
O692 Zn683 2.039 . S
C693 O698 1.246 . S
C693 O699 1.249 . S
O694 C676 1.254 . S
O694 Zn691 2.025 . S
H695 C687 0.952 . S
H696 C678 0.952 . S
H697 C686 0.948 . S
O698 Zn683 2.034 1_655 S
O698 C693 1.246 . S
O699 Zn691 2.024 1_655 S
O699 C693 1.249 . S
H700 C682 0.948 . S
O701 Zn691 2.039 . S
O701 C705 1.251 . S
O702 Zn683 2.025 . S
O702 C705 1.254 . S
O703 C684 1.246 . S
O703 Zn691 2.034 . S
O704 Zn683 2.024 . S
O704 C684 1.249 . S
C705 O701 1.251 . S
C705 O702 1.254 . S
H706 C679 0.949 . S
H707 C681 0.950 . S
H708 C688 0.965 . S
H709 C690 0.950 . S
C710 O726 1.251 . S
C710 O728 1.254 . S
N711 C712 1.333 . S
N711 C716 1.307 . S
N711 Zn717 2.020 . S
C712 N711 1.333 . S
C712 C713 1.379 . S
C712 H730 0.952 . S
C713 C712 1.379 . S
C713 C714 1.390 . S
C713 H740 0.949 . S
C714 C713 1.390 . S
C714 C715 1.357 . S
C715 C714 1.357 . S
C715 C716 1.370 . S
C715 H741 0.950 . S
C716 N711 1.307 . S
C716 C715 1.370 . S
C716 H734 0.948 . S
Zn717 N711 2.020 . S
Zn717 O726 2.039 . S
Zn717 O732 2.034 . S
Zn717 O736 2.025 . S
Zn717 O738 2.024 . S
C718 O737 1.246 . S
C718 O738 1.249 . S
N719 C720 1.307 . S
N719 C721 1.333 . S
N719 Zn725 2.020 . S
C720 N719 1.307 . S
C720 C724 1.370 . S
C720 H731 0.948 . S
C721 N719 1.333 . S
C721 C722 1.379 . S
C721 H729 0.952 . S
C722 C721 1.379 . S
C722 C723 1.390 . S
C722 H742 0.949 . S
C723 C722 1.390 . S
C723 C724 1.357 . S
C724 C720 1.370 . S
C724 C723 1.357 . S
C724 H743 0.950 . S
Zn725 N719 2.020 . S
Zn725 O728 2.025 . S
Zn725 O733 2.024 . S
Zn725 O735 2.039 . S
Zn725 O737 2.034 . S
O726 C710 1.251 . S
O726 Zn717 2.039 . S
C727 O732 1.246 . S
C727 O733 1.249 . S
O728 C710 1.254 . S
O728 Zn725 2.025 . S
H729 C721 0.952 . S
H730 C712 0.952 . S
H731 C720 0.948 . S
O732 Zn717 2.034 . S
O732 C727 1.246 . S
O733 Zn725 2.024 . S
O733 C727 1.249 . S
H734 C716 0.948 . S
O735 Zn725 2.039 . S
O735 C739 1.251 . S
O736 Zn717 2.025 . S
O736 C739 1.254 . S
O737 C718 1.246 . S
O737 Zn725 2.034 . S
O738 Zn717 2.024 . S
O738 C718 1.249 . S
C739 O735 1.251 . S
C739 O736 1.254 . S
H740 C713 0.949 . S
H741 C715 0.950 . S
H742 C722 0.949 . S
H743 C724 0.950 . S
C744 O760 1.251 . S
C744 O762 1.254 . S
N745 C746 1.333 . S
N745 C750 1.307 . S
N745 Zn751 2.020 . S
C746 N745 1.333 . S
C746 C747 1.379 . S
C746 H764 0.952 . S
C747 C746 1.379 . S
C747 C748 1.390 . S
C747 H774 0.949 . S
C748 C747 1.390 . S
C748 C749 1.357 . S
C749 C748 1.357 . S
C749 C750 1.370 . S
C749 H775 0.950 . S
C750 N745 1.307 . S
C750 C749 1.370 . S
C750 H768 0.948 . S
Zn751 N745 2.020 . S
Zn751 O760 2.039 . S
Zn751 O766 2.034 . S
Zn751 O770 2.025 . S
Zn751 O772 2.024 . S
C752 O771 1.246 . S
C752 O772 1.249 . S
N753 C754 1.307 . S
N753 C755 1.333 . S
N753 Zn759 2.020 . S
C754 N753 1.307 . S
C754 C758 1.370 . S
C754 H765 0.948 . S
C755 N753 1.333 . S
C755 C756 1.379 . S
C755 H763 0.952 . S
C756 C755 1.379 . S
C756 C757 1.390 . S
C756 H776 0.949 . S
C757 C756 1.390 . S
C757 C758 1.357 . S
C758 C754 1.370 . S
C758 C757 1.357 . S
C758 H777 0.950 . S
Zn759 N753 2.020 . S
Zn759 O762 2.025 . S
Zn759 O767 2.024 . S
Zn759 O769 2.039 . S
Zn759 O771 2.034 . S
O760 C744 1.251 . S
O760 Zn751 2.039 . S
C761 O766 1.246 . S
C761 O767 1.249 . S
O762 C744 1.254 . S
O762 Zn759 2.025 . S
H763 C755 0.952 . S
H764 C746 0.952 . S
H765 C754 0.948 . S
O766 Zn751 2.034 . S
O766 C761 1.246 . S
O767 Zn759 2.024 . S
O767 C761 1.249 . S
H768 C750 0.948 . S
O769 Zn759 2.039 . S
O769 C773 1.251 . S
O770 Zn751 2.025 . S
O770 C773 1.254 . S
O771 C752 1.246 . S
O771 Zn759 2.034 . S
O772 Zn751 2.024 . S
O772 C752 1.249 . S
C773 O769 1.251 . S
C773 O770 1.254 . S
H774 C747 0.949 . S
H775 C749 0.950 . S
H776 C756 0.949 . S
H777 C758 0.950 . S
C778 O794 1.251 . S
C778 O796 1.254 . S
N779 C780 1.333 . S
N779 C784 1.307 . S
N779 Zn785 2.020 . S
C780 N779 1.333 . S
C780 C781 1.379 . S
C780 H798 0.952 . S
C781 C780 1.379 . S
C781 C782 1.390 . S
C781 H808 0.949 . S
C782 C781 1.390 . S
C782 C783 1.357 . S
C783 C782 1.357 . S
C783 C784 1.370 . S
C783 H809 0.950 . S
C784 N779 1.307 . S
C784 C783 1.370 . S
C784 H802 0.948 . S
Zn785 N779 2.020 . S
Zn785 O794 2.039 . S
Zn785 O800 2.034 . S
Zn785 O804 2.025 . S
Zn785 O806 2.024 . S
C786 O805 1.246 . S
C786 O806 1.249 . S
N787 C788 1.307 . S
N787 C789 1.333 . S
N787 Zn793 2.020 . S
C788 N787 1.307 . S
C788 C792 1.370 . S
C788 H799 0.948 . S
C789 N787 1.333 . S
C789 C790 1.379 . S
C789 H797 0.952 . S
C790 C789 1.379 . S
C790 C791 1.390 . S
C790 H810 0.949 . S
C791 C790 1.390 . S
C791 C792 1.357 . S
C792 C788 1.370 . S
C792 C791 1.357 . S
C792 H811 0.950 . S
Zn793 N787 2.020 . S
Zn793 O796 2.025 . S
Zn793 O801 2.024 . S
Zn793 O803 2.039 . S
Zn793 O805 2.034 . S
O794 C778 1.251 . S
O794 Zn785 2.039 . S
C795 O800 1.246 . S
C795 O801 1.249 . S
O796 C778 1.254 . S
O796 Zn793 2.025 . S
H797 C789 0.952 . S
H798 C780 0.952 . S
H799 C788 0.948 . S
O800 Zn785 2.034 . S
O800 C795 1.246 . S
O801 Zn793 2.024 . S
O801 C795 1.249 . S
H802 C784 0.948 . S
O803 Zn793 2.039 . S
O803 C807 1.251 . S
O804 Zn785 2.025 . S
O804 C807 1.254 . S
O805 C786 1.246 . S
O805 Zn793 2.034 . S
O806 Zn785 2.024 . S
O806 C786 1.249 . S
C807 O803 1.251 . S
C807 O804 1.254 . S
H808 C781 0.949 . S
H809 C783 0.950 . S
H810 C790 0.949 . S
H811 C792 0.950 . S
C812 O828 1.251 . S
C812 O830 1.254 . S
N813 C814 1.333 . S
N813 C818 1.307 . S
N813 Zn819 2.020 . S
C814 N813 1.333 . S
C814 C815 1.379 . S
C814 H832 0.952 . S
C815 C814 1.379 . S
C815 C816 1.390 . S
C815 H842 0.949 . S
C816 C815 1.390 . S
C816 C817 1.357 . S
C817 C816 1.357 . S
C817 C818 1.370 . S
C817 H843 0.950 . S
C818 N813 1.307 . S
C818 C817 1.370 . S
C818 H836 0.948 . S
Zn819 N813 2.020 . S
Zn819 O828 2.039 . S
Zn819 O834 2.034 . S
Zn819 O838 2.025 . S
Zn819 O840 2.024 . S
C820 O839 1.246 . S
C820 O840 1.249 . S
N821 C822 1.307 . S
N821 C823 1.333 . S
N821 Zn827 2.020 . S
C822 N821 1.307 . S
C822 C826 1.370 . S
C822 H833 0.948 . S
C823 N821 1.333 . S
C823 C824 1.379 . S
C823 H831 0.952 . S
C824 C823 1.379 . S
C824 C825 1.390 . S
C824 H844 0.949 . S
C825 C824 1.390 . S
C825 C826 1.357 . S
C826 C822 1.370 . S
C826 C825 1.357 . S
C826 H845 0.950 . S
Zn827 N821 2.020 . S
Zn827 O830 2.025 . S
Zn827 O835 2.024 . S
Zn827 O837 2.039 . S
Zn827 O839 2.034 . S
O828 C812 1.251 . S
O828 Zn819 2.039 . S
C829 O834 1.246 . S
C829 O835 1.249 . S
O830 C812 1.254 . S
O830 Zn827 2.025 . S
H831 C823 0.952 . S
H832 C814 0.952 . S
H833 C822 0.948 . S
O834 Zn819 2.034 . S
O834 C829 1.246 . S
O835 Zn827 2.024 . S
O835 C829 1.249 . S
H836 C818 0.948 . S
O837 Zn827 2.039 . S
O837 C841 1.251 . S
O838 Zn819 2.025 . S
O838 C841 1.254 . S
O839 C820 1.246 . S
O839 Zn827 2.034 . S
O840 Zn819 2.024 . S
O840 C820 1.249 . S
C841 O837 1.251 . S
C841 O838 1.254 . S
H842 C815 0.949 . S
H843 C817 0.950 . S
H844 C824 0.949 . S
H845 C826 0.950 . S
C846 O862 1.251 . S
C846 O864 1.254 . S
N847 C848 1.333 . S
N847 C852 1.307 . S
N847 Zn853 2.020 . S
C848 N847 1.333 . S
C848 C849 1.379 . S
C848 H866 0.952 . S
C849 C848 1.379 . S
C849 C850 1.390 . S
C849 H876 0.949 . S
C850 C849 1.390 . S
C850 C851 1.357 . S
C851 C850 1.357 . S
C851 C852 1.370 . S
C851 H877 0.950 . S
C852 N847 1.307 . S
C852 C851 1.370 . S
C852 H870 0.948 . S
Zn853 N847 2.020 . S
Zn853 O862 2.039 . S
Zn853 O868 2.034 . S
Zn853 O872 2.025 1_554 S
Zn853 O874 2.024 1_455 S
C854 O873 1.246 . S
C854 O874 1.249 . S
N855 C856 1.307 . S
N855 C857 1.333 1_554 S
N855 Zn861 2.020 . S
C856 N855 1.307 . S
C856 C860 1.370 . S
C856 H867 0.948 . S
C857 N855 1.333 1_556 S
C857 C858 1.379 1_455 S
C857 H865 0.952 . S
C858 C857 1.379 1_655 S
C858 C859 1.390 . S
C858 H878 0.949 . S
C859 C858 1.390 . S
C859 C860 1.357 1_656 S
C860 C856 1.370 . S
C860 C859 1.357 1_454 S
C860 H879 0.950 . S
Zn861 N855 2.020 . S
Zn861 O864 2.025 . S
Zn861 O869 2.024 . S
Zn861 O871 2.039 1_554 S
Zn861 O873 2.034 1_455 S
O862 C846 1.251 . S
O862 Zn853 2.039 . S
C863 O868 1.246 . S
C863 O869 1.249 . S
O864 C846 1.254 . S
O864 Zn861 2.025 . S
H865 C857 0.952 . S
H866 C848 0.952 . S
H867 C856 0.948 . S
O868 Zn853 2.034 . S
O868 C863 1.246 . S
O869 Zn861 2.024 . S
O869 C863 1.249 . S
H870 C852 0.948 . S
O871 Zn861 2.039 1_556 S
O871 C875 1.251 . S
O872 Zn853 2.025 1_556 S
O872 C875 1.254 . S
O873 C854 1.246 . S
O873 Zn861 2.034 1_655 S
O874 Zn853 2.024 1_655 S
O874 C854 1.249 . S
C875 O871 1.251 . S
C875 O872 1.254 . S
H876 C849 0.949 . S
H877 C851 0.950 . S
H878 C858 0.949 . S
H879 C860 0.950 . S
C880 C881 1.349 . S
C880 C882 1.327 . S
C880 H905 0.950 . S
C881 C880 1.349 . S
C881 C897 1.349 . S
C882 C880 1.327 . S
C882 C901 1.429 . S
C882 H906 0.950 . S
C883 C900 1.574 . S
C883 C902 1.368 . S
C883 H907 0.949 . S
H884 C888 0.949 . S
C885 C886 1.349 . S
C885 C887 1.327 . S
C885 H908 0.950 . S
C886 C885 1.349 . S
C886 C898 1.349 . S
C887 C885 1.327 . S
C887 C903 1.429 . S
C887 H909 0.950 . S
C888 H884 0.949 . S
C888 C896 1.574 . S
C888 C904 1.368 . S
H889 C897 0.950 . S
H890 C895 0.950 . S
H891 C896 0.949 . S
H892 C898 0.950 . S
H893 C899 0.950 . S
H894 C900 0.949 . S
C895 H890 0.950 . S
C895 C897 1.327 . S
C895 C901 1.429 . S
C896 C888 1.574 . S
C896 H891 0.949 . S
C896 C902 1.368 . S
C897 C881 1.349 . S
C897 H889 0.950 . S
C897 C895 1.327 . S
C898 C886 1.349 . S
C898 H892 0.950 . S
C898 C899 1.327 . S
C899 H893 0.950 . S
C899 C898 1.327 . S
C899 C903 1.429 . S
C900 C883 1.574 . S
C900 H894 0.949 . S
C900 C904 1.368 . S
C901 C882 1.429 . S
C901 C895 1.429 . S
C901 C902 1.523 . S
C902 C883 1.368 . S
C902 C896 1.368 . S
C902 C901 1.523 . S
C903 C887 1.429 . S
C903 C899 1.429 . S
C903 C904 1.523 . S
C904 C888 1.368 . S
C904 C900 1.368 . S
C904 C903 1.523 . S
H905 C880 0.950 . S
H906 C882 0.950 . S
H907 C883 0.949 . S
H908 C885 0.950 . S
H909 C887 0.950 . S
C910 C911 1.349 . S
C910 C912 1.327 . S
C910 H935 0.950 . S
C911 C910 1.349 . S
C911 C927 1.349 . S
C912 C910 1.327 . S
C912 C931 1.429 . S
C912 H936 0.950 . S
C913 C930 1.574 . S
C913 C932 1.368 . S
C913 H937 0.949 . S
H914 C918 0.949 . S
C915 C916 1.349 . S
C915 C917 1.327 . S
C915 H938 0.950 . S
C916 C915 1.349 . S
C916 C928 1.349 . S
C917 C915 1.327 . S
C917 C933 1.429 . S
C917 H939 0.950 . S
C918 H914 0.949 . S
C918 C926 1.574 . S
C918 C934 1.368 . S
H919 C927 0.950 . S
H920 C925 0.950 . S
H921 C926 0.949 . S
H922 C928 0.950 . S
H923 C929 0.950 . S
H924 C930 0.949 . S
C925 H920 0.950 . S
C925 C927 1.327 . S
C925 C931 1.429 . S
C926 C918 1.574 . S
C926 H921 0.949 . S
C926 C932 1.368 . S
C927 C911 1.349 . S
C927 H919 0.950 . S
C927 C925 1.327 . S
C928 C916 1.349 . S
C928 H922 0.950 . S
C928 C929 1.327 . S
C929 H923 0.950 . S
C929 C928 1.327 . S
C929 C933 1.429 . S
C930 C913 1.574 . S
C930 H924 0.949 . S
C930 C934 1.368 . S
C931 C912 1.429 . S
C931 C925 1.429 . S
C931 C932 1.523 . S
C932 C913 1.368 . S
C932 C926 1.368 . S
C932 C931 1.523 . S
C933 C917 1.429 . S
C933 C929 1.429 . S
C933 C934 1.523 . S
C934 C918 1.368 . S
C934 C930 1.368 . S
C934 C933 1.523 . S
H935 C910 0.950 . S
H936 C912 0.950 . S
H937 C913 0.949 . S
H938 C915 0.950 . S
H939 C917 0.950 . S
C940 C941 1.349 . S
C940 C942 1.327 . S
C940 H965 0.950 . S
C941 C940 1.349 . S
C941 C957 1.349 . S
C942 C940 1.327 . S
C942 C961 1.429 . S
C942 H966 0.950 . S
C943 C960 1.574 . S
C943 C962 1.368 . S
C943 H967 0.949 . S
H944 C948 0.949 . S
C945 C946 1.349 . S
C945 C947 1.327 . S
C945 H968 0.950 . S
C946 C945 1.349 . S
C946 C958 1.349 . S
C947 C945 1.327 . S
C947 C963 1.429 . S
C947 H969 0.950 . S
C948 H944 0.949 . S
C948 C956 1.574 . S
C948 C964 1.368 . S
H949 C957 0.950 . S
H950 C955 0.950 . S
H951 C956 0.949 . S
H952 C958 0.950 . S
H953 C959 0.950 . S
H954 C960 0.949 . S
C955 H950 0.950 . S
C955 C957 1.327 . S
C955 C961 1.429 . S
C956 C948 1.574 . S
C956 H951 0.949 . S
C956 C962 1.368 . S
C957 C941 1.349 . S
C957 H949 0.950 . S
C957 C955 1.327 . S
C958 C946 1.349 . S
C958 H952 0.950 . S
C958 C959 1.327 . S
C959 H953 0.950 . S
C959 C958 1.327 . S
C959 C963 1.429 . S
C960 C943 1.574 . S
C960 H954 0.949 . S
C960 C964 1.368 . S
C961 C942 1.429 . S
C961 C955 1.429 . S
C961 C962 1.523 . S
C962 C943 1.368 . S
C962 C956 1.368 . S
C962 C961 1.523 . S
C963 C947 1.429 . S
C963 C959 1.429 . S
C963 C964 1.523 . S
C964 C948 1.368 . S
C964 C960 1.368 . S
C964 C963 1.523 . S
H965 C940 0.950 . S
H966 C942 0.950 . S
H967 C943 0.949 . S
H968 C945 0.950 . S
H969 C947 0.950 . S
C970 C971 1.349 . S
C970 C972 1.327 . S
C970 H995 0.950 . S
C971 C970 1.349 . S
C971 C987 1.349 . S
C972 C970 1.327 . S
C972 C991 1.429 . S
C972 H996 0.950 . S
C973 C990 1.574 . S
C973 C992 1.368 . S
C973 H997 0.949 . S
H974 C978 0.949 . S
C975 C976 1.349 . S
C975 C977 1.327 . S
C975 H998 0.950 . S
C976 C975 1.349 . S
C976 C988 1.349 . S
C977 C975 1.327 . S
C977 C993 1.429 . S
C977 H999 0.950 . S
C978 H974 0.949 . S
C978 C986 1.574 . S
C978 C994 1.368 . S
H979 C987 0.950 . S
H980 C985 0.950 . S
H981 C986 0.949 . S
H982 C988 0.950 . S
H983 C989 0.950 . S
H984 C990 0.949 . S
C985 H980 0.950 . S
C985 C987 1.327 . S
C985 C991 1.429 . S
C986 C978 1.574 . S
C986 H981 0.949 . S
C986 C992 1.368 . S
C987 C971 1.349 . S
C987 H979 0.950 . S
C987 C985 1.327 . S
C988 C976 1.349 . S
C988 H982 0.950 . S
C988 C989 1.327 . S
C989 H983 0.950 . S
C989 C988 1.327 . S
C989 C993 1.429 . S
C990 C973 1.574 . S
C990 H984 0.949 . S
C990 C994 1.368 . S
C991 C972 1.429 . S
C991 C985 1.429 . S
C991 C992 1.523 . S
C992 C973 1.368 . S
C992 C986 1.368 . S
C992 C991 1.523 . S
C993 C977 1.429 . S
C993 C989 1.429 . S
C993 C994 1.523 . S
C994 C978 1.368 . S
C994 C990 1.368 . S
C994 C993 1.523 . S
H995 C970 0.950 . S
H996 C972 0.950 . S
H997 C973 0.949 . S
H998 C975 0.950 . S
H999 C977 0.950 . S
C1000 C1001 1.349 . S
C1000 C1002 1.327 . S
C1000 H1025 0.950 . S
C1001 C1000 1.349 . S
C1001 C1017 1.349 . S
C1002 C1000 1.327 . S
C1002 C1021 1.429 . S
C1002 H1026 0.950 . S
C1003 C1020 1.574 . S
C1003 C1022 1.368 . S
C1003 H1027 0.949 . S
H1004 C1008 0.949 1_655 S
C1005 C1006 1.349 . S
C1005 C1007 1.327 . S
C1005 H1028 0.950 . S
C1006 C1005 1.349 . S
C1006 C1018 1.349 . S
C1007 C1005 1.327 . S
C1007 C1023 1.429 . S
C1007 H1029 0.950 . S
C1008 H1004 0.949 1_455 S
C1008 C1016 1.574 . S
C1008 C1024 1.368 . S
H1009 C1017 0.950 . S
H1010 C1015 0.950 . S
H1011 C1016 0.932 1_655 S
H1012 C1018 0.950 1_655 S
H1013 C1019 0.950 1_655 S
H1014 C1020 0.949 . S
C1015 H1010 0.950 . S
C1015 C1017 1.327 . S
C1015 C1021 1.429 . S
C1016 C1008 1.574 . S
C1016 H1011 0.932 1_455 S
C1016 C1022 1.368 . S
C1017 C1001 1.349 . S
C1017 H1009 0.950 . S
C1017 C1015 1.327 . S
C1018 C1006 1.349 . S
C1018 H1012 0.950 1_455 S
C1018 C1019 1.327 . S
C1019 H1013 0.950 1_455 S
C1019 C1018 1.327 . S
C1019 C1023 1.429 . S
C1020 C1003 1.574 . S
C1020 H1014 0.949 . S
C1020 C1024 1.368 . S
C1021 C1002 1.429 . S
C1021 C1015 1.429 . S
C1021 C1022 1.523 . S
C1022 C1003 1.368 . S
C1022 C1016 1.368 . S
C1022 C1021 1.523 . S
C1023 C1007 1.429 . S
C1023 C1019 1.429 . S
C1023 C1024 1.523 . S
C1024 C1008 1.368 . S
C1024 C1020 1.368 . S
C1024 C1023 1.523 . S
H1025 C1000 0.950 . S
H1026 C1002 0.950 . S
H1027 C1003 0.949 . S
H1028 C1005 0.950 . S
H1029 C1007 0.950 . S
C1030 C1031 1.349 . S
C1030 C1032 1.327 . S
C1030 H1055 0.950 . S
C1031 C1030 1.349 . S
C1031 C1047 1.349 . S
C1032 C1030 1.327 . S
C1032 C1051 1.429 . S
C1032 H1056 0.950 . S
C1033 C1050 1.574 . S
C1033 C1052 1.368 . S
C1033 H1057 0.949 . S
H1034 C1038 0.949 . S
C1035 C1036 1.349 . S
C1035 C1037 1.327 . S
C1035 H1058 0.950 . S
C1036 C1035 1.349 . S
C1036 C1048 1.349 . S
C1037 C1035 1.327 . S
C1037 C1053 1.429 . S
C1037 H1059 0.950 . S
C1038 H1034 0.949 . S
C1038 C1046 1.574 . S
C1038 C1054 1.368 . S
H1039 C1047 0.950 . S
H1040 C1045 0.950 . S
H1041 C1046 0.949 . S
H1042 C1048 0.950 . S
H1043 C1049 0.950 . S
H1044 C1050 0.949 . S
C1045 H1040 0.950 . S
C1045 C1047 1.327 . S
C1045 C1051 1.429 . S
C1046 C1038 1.574 . S
C1046 H1041 0.949 . S
C1046 C1052 1.368 . S
C1047 C1031 1.349 . S
C1047 H1039 0.950 . S
C1047 C1045 1.327 . S
C1048 C1036 1.349 . S
C1048 H1042 0.950 . S
C1048 C1049 1.327 . S
C1049 H1043 0.950 . S
C1049 C1048 1.327 . S
C1049 C1053 1.429 . S
C1050 C1033 1.574 . S
C1050 H1044 0.949 . S
C1050 C1054 1.368 . S
C1051 C1032 1.429 . S
C1051 C1045 1.429 . S
C1051 C1052 1.523 . S
C1052 C1033 1.368 . S
C1052 C1046 1.368 . S
C1052 C1051 1.523 . S
C1053 C1037 1.429 . S
C1053 C1049 1.429 . S
C1053 C1054 1.523 . S
C1054 C1038 1.368 . S
C1054 C1050 1.368 . S
C1054 C1053 1.523 . S
H1055 C1030 0.950 . S
H1056 C1032 0.950 . S
H1057 C1033 0.949 . S
H1058 C1035 0.950 . S
H1059 C1037 0.950 . S
C1060 C1061 1.349 . S
C1060 C1062 1.327 . S
C1060 H1085 0.950 . S
C1061 C1060 1.349 . S
C1061 C1077 1.349 . S
C1062 C1060 1.327 . S
C1062 C1081 1.429 . S
C1062 H1086 0.950 . S
C1063 C1080 1.574 . S
C1063 C1082 1.368 . S
C1063 H1087 0.949 . S
H1064 C1068 0.949 . S
C1065 C1066 1.346 1_556 S
C1065 C1067 1.338 . S
C1065 H1088 0.942 1_556 S
C1066 C1065 1.346 1_554 S
C1066 C1078 1.349 1_554 S
C1067 C1065 1.338 . S
C1067 C1083 1.429 . S
C1067 H1089 0.950 . S
C1068 H1064 0.949 . S
C1068 C1076 1.574 . S
C1068 C1084 1.368 . S
H1069 C1077 0.950 . S
H1070 C1075 0.950 . S
H1071 C1076 0.949 . S
H1072 C1078 0.950 . S
H1073 C1079 0.950 . S
H1074 C1080 0.949 . S
C1075 H1070 0.950 . S
C1075 C1077 1.327 . S
C1075 C1081 1.429 . S
C1076 C1068 1.574 . S
C1076 H1071 0.949 . S
C1076 C1082 1.368 . S
C1077 C1061 1.349 . S
C1077 H1069 0.950 . S
C1077 C1075 1.327 . S
C1078 C1066 1.349 1_556 S
C1078 H1072 0.950 . S
C1078 C1079 1.327 . S
C1079 H1073 0.950 . S
C1079 C1078 1.327 . S
C1079 C1083 1.429 . S
C1080 C1063 1.574 . S
C1080 H1074 0.949 . S
C1080 C1084 1.368 . S
C1081 C1062 1.429 . S
C1081 C1075 1.429 . S
C1081 C1082 1.523 . S
C1082 C1063 1.368 . S
C1082 C1076 1.368 . S
C1082 C1081 1.523 . S
C1083 C1067 1.429 . S
C1083 C1079 1.429 . S
C1083 C1084 1.523 . S
C1084 C1068 1.368 . S
C1084 C1080 1.368 . S
C1084 C1083 1.523 . S
H1085 C1060 0.950 . S
H1086 C1062 0.950 . S
H1087 C1063 0.949 . S
H1088 C1065 0.942 1_554 S
H1089 C1067 0.950 . S
C1090 C1091 1.349 . S
C1090 C1092 1.327 . S
C1090 H1115 0.950 . S
C1091 C1090 1.349 . S
C1091 C1107 1.349 . S
C1092 C1090 1.327 . S
C1092 C1111 1.429 . S
C1092 H1116 0.950 . S
C1093 C1110 1.574 . S
C1093 C1112 1.368 . S
C1093 H1117 0.949 . S
H1094 C1098 0.949 . S
C1095 C1096 1.349 . S
C1095 C1097 1.327 . S
C1095 H1118 0.950 . S
C1096 C1095 1.349 . S
C1096 C1108 1.349 . S
C1097 C1095 1.327 . S
C1097 C1113 1.429 . S
C1097 H1119 0.950 . S
C1098 H1094 0.949 . S
C1098 C1106 1.574 . S
C1098 C1114 1.368 . S
H1099 C1107 0.950 . S
H1100 C1105 0.950 . S
H1101 C1106 0.949 . S
H1102 C1108 0.950 . S
H1103 C1109 0.950 . S
H1104 C1110 0.949 . S
C1105 H1100 0.950 . S
C1105 C1107 1.327 . S
C1105 C1111 1.429 . S
C1106 C1098 1.574 . S
C1106 H1101 0.949 . S
C1106 C1112 1.368 . S
C1107 C1091 1.349 . S
C1107 H1099 0.950 . S
C1107 C1105 1.327 . S
C1108 C1096 1.349 . S
C1108 H1102 0.950 . S
C1108 C1109 1.327 . S
C1109 H1103 0.950 . S
C1109 C1108 1.327 . S
C1109 C1113 1.429 . S
C1110 C1093 1.574 . S
C1110 H1104 0.949 . S
C1110 C1114 1.368 . S
C1111 C1092 1.429 . S
C1111 C1105 1.429 . S
C1111 C1112 1.523 . S
C1112 C1093 1.368 . S
C1112 C1106 1.368 . S
C1112 C1111 1.523 . S
C1113 C1097 1.429 . S
C1113 C1109 1.429 . S
C1113 C1114 1.523 . S
C1114 C1098 1.368 . S
C1114 C1110 1.368 . S
C1114 C1113 1.523 . S
H1115 C1090 0.950 . S
H1116 C1092 0.950 . S
H1117 C1093 0.949 . S
H1118 C1095 0.950 . S
H1119 C1097 0.950 . S
C1120 C1121 1.349 . S
C1120 C1122 1.327 . S
C1120 H1145 0.950 . S
C1121 C1120 1.349 . S
C1121 C1137 1.349 . S
C1122 C1120 1.327 . S
C1122 C1141 1.429 . S
C1122 H1146 0.950 . S
C1123 C1140 1.574 . S
C1123 C1142 1.368 1_565 S
C1123 H1147 0.949 . S
H1124 C1128 0.949 . S
C1125 C1126 1.349 1_565 S
C1125 C1127 1.327 . S
C1125 H1148 0.950 . S
C1126 C1125 1.349 1_545 S
C1126 C1138 1.349 . S
C1127 C1125 1.327 . S
C1127 C1143 1.429 1_565 S
C1127 H1149 0.950 . S
C1128 H1124 0.949 . S
C1128 C1136 1.574 . S
C1128 C1144 1.368 . S
H1129 C1137 0.950 1_565 S
H1130 C1135 0.950 1_565 S
H1131 C1136 0.949 . S
H1132 C1138 0.950 . S
H1133 C1139 0.950 . S
H1134 C1140 0.949 . S
C1135 H1130 0.950 1_545 S
C1135 C1137 1.327 . S
C1135 C1141 1.429 . S
C1136 C1128 1.574 . S
C1136 H1131 0.949 . S
C1136 C1142 1.368 . S
C1137 C1121 1.349 . S
C1137 H1129 0.950 1_545 S
C1137 C1135 1.327 . S
C1138 C1126 1.349 . S
C1138 H1132 0.950 . S
C1138 C1139 1.327 . S
C1139 H1133 0.950 . S
C1139 C1138 1.327 . S
C1139 C1143 1.429 . S
C1140 C1123 1.574 . S
C1140 H1134 0.949 . S
C1140 C1144 1.368 1_565 S
C1141 C1122 1.429 . S
C1141 C1135 1.429 . S
C1141 C1142 1.523 . S
C1142 C1123 1.368 1_545 S
C1142 C1136 1.368 . S
C1142 C1141 1.523 . S
C1143 C1127 1.429 1_545 S
C1143 C1139 1.429 . S
C1143 C1144 1.523 . S
C1144 C1128 1.368 . S
C1144 C1140 1.368 1_545 S
C1144 C1143 1.523 . S
H1145 C1120 0.950 . S
H1146 C1122 0.950 . S
H1147 C1123 0.949 . S
H1148 C1125 0.950 . S
H1149 C1127 0.950 . S
C1150 C1151 1.349 . S
C1150 C1152 1.327 . S
C1150 H1175 0.950 . S
C1151 C1150 1.349 . S
C1151 C1167 1.349 . S
C1152 C1150 1.327 . S
C1152 C1171 1.429 . S
C1152 H1176 0.950 . S
C1153 C1170 1.574 . S
C1153 C1172 1.368 . S
C1153 H1177 0.949 . S
H1154 C1158 0.949 . S
C1155 C1156 1.349 . S
C1155 C1157 1.327 . S
C1155 H1178 0.950 . S
C1156 C1155 1.349 . S
C1156 C1168 1.349 . S
C1157 C1155 1.327 . S
C1157 C1173 1.429 . S
C1157 H1179 0.950 . S
C1158 H1154 0.949 . S
C1158 C1166 1.574 . S
C1158 C1174 1.368 . S
H1159 C1167 0.950 . S
H1160 C1165 0.950 . S
H1161 C1166 0.949 . S
H1162 C1168 0.950 . S
H1163 C1169 0.950 . S
H1164 C1170 0.949 . S
C1165 H1160 0.950 . S
C1165 C1167 1.327 . S
C1165 C1171 1.429 . S
C1166 C1158 1.574 . S
C1166 H1161 0.949 . S
C1166 C1172 1.368 . S
C1167 C1151 1.349 . S
C1167 H1159 0.950 . S
C1167 C1165 1.327 . S
C1168 C1156 1.349 . S
C1168 H1162 0.950 . S
C1168 C1169 1.327 . S
C1169 H1163 0.950 . S
C1169 C1168 1.327 . S
C1169 C1173 1.429 . S
C1170 C1153 1.574 . S
C1170 H1164 0.949 . S
C1170 C1174 1.368 . S
C1171 C1152 1.429 . S
C1171 C1165 1.429 . S
C1171 C1172 1.523 . S
C1172 C1153 1.368 . S
C1172 C1166 1.368 . S
C1172 C1171 1.523 . S
C1173 C1157 1.429 . S
C1173 C1169 1.429 . S
C1173 C1174 1.523 . S
C1174 C1158 1.368 . S
C1174 C1170 1.368 . S
C1174 C1173 1.523 . S
H1175 C1150 0.950 . S
H1176 C1152 0.950 . S
H1177 C1153 0.949 . S
H1178 C1155 0.950 . S
H1179 C1157 0.950 . S
C1180 C1181 1.349 . S
C1180 C1182 1.327 . S
C1180 H1205 0.950 . S
C1181 C1180 1.349 . S
C1181 C1197 1.349 1_545 S
C1182 C1180 1.327 . S
C1182 C1201 1.429 . S
C1182 H1206 0.950 . S
C1183 C1200 1.573 1_565 S
C1183 C1202 1.368 1_565 S
C1183 H1207 0.949 . S
H1184 C1188 0.949 . S
C1185 C1186 1.349 . S
C1185 C1187 1.327 . S
C1185 H1208 0.950 1_545 S
C1186 C1185 1.349 . S
C1186 C1198 1.349 . S
C1187 C1185 1.327 . S
C1187 C1203 1.429 . S
C1187 H1209 0.950 1_545 S
C1188 H1184 0.949 . S
C1188 C1196 1.574 . S
C1188 C1204 1.368 . S
H1189 C1197 0.950 . S
H1190 C1195 0.950 . S
H1191 C1196 0.949 . S
H1192 C1198 0.950 . S
H1193 C1199 0.950 . S
H1194 C1200 0.942 1_565 S
C1195 H1190 0.950 . S
C1195 C1197 1.327 . S
C1195 C1201 1.429 1_565 S
C1196 C1188 1.574 . S
C1196 H1191 0.949 . S
C1196 C1202 1.368 . S
C1197 C1181 1.349 1_565 S
C1197 H1189 0.950 . S
C1197 C1195 1.327 . S
C1198 C1186 1.349 . S
C1198 H1192 0.950 . S
C1198 C1199 1.327 . S
C1199 H1193 0.950 . S
C1199 C1198 1.327 . S
C1199 C1203 1.429 . S
C1200 C1183 1.573 1_545 S
C1200 H1194 0.942 1_545 S
C1200 C1204 1.378 . S
C1201 C1182 1.429 . S
C1201 C1195 1.429 1_545 S
C1201 C1202 1.523 . S
C1202 C1183 1.368 1_545 S
C1202 C1196 1.368 . S
C1202 C1201 1.523 . S
C1203 C1187 1.429 . S
C1203 C1199 1.429 . S
C1203 C1204 1.523 . S
C1204 C1188 1.368 . S
C1204 C1200 1.378 . S
C1204 C1203 1.523 . S
H1205 C1180 0.950 . S
H1206 C1182 0.950 . S
H1207 C1183 0.949 . S
H1208 C1185 0.950 1_565 S
H1209 C1187 0.950 1_565 S
C1210 C1211 1.349 . S
C1210 C1212 1.327 . S
C1210 H1235 0.950 . S
C1211 C1210 1.349 . S
C1211 C1227 1.349 . S
C1212 C1210 1.327 . S
C1212 C1231 1.429 . S
C1212 H1236 0.950 . S
C1213 C1230 1.574 . S
C1213 C1232 1.368 . S
C1213 H1237 0.949 . S
H1214 C1218 0.949 . S
C1215 C1216 1.349 . S
C1215 C1217 1.327 . S
C1215 H1238 0.950 . S
C1216 C1215 1.349 . S
C1216 C1228 1.349 . S
C1217 C1215 1.327 . S
C1217 C1233 1.429 . S
C1217 H1239 0.950 . S
C1218 H1214 0.949 . S
C1218 C1226 1.574 . S
C1218 C1234 1.368 . S
H1219 C1227 0.950 . S
H1220 C1225 0.950 . S
H1221 C1226 0.949 . S
H1222 C1228 0.950 . S
H1223 C1229 0.950 . S
H1224 C1230 0.949 . S
C1225 H1220 0.950 . S
C1225 C1227 1.327 . S
C1225 C1231 1.429 . S
C1226 C1218 1.574 . S
C1226 H1221 0.949 . S
C1226 C1232 1.368 . S
C1227 C1211 1.349 . S
C1227 H1219 0.950 . S
C1227 C1225 1.327 . S
C1228 C1216 1.349 . S
C1228 H1222 0.950 . S
C1228 C1229 1.327 . S
C1229 H1223 0.950 . S
C1229 C1228 1.327 . S
C1229 C1233 1.429 . S
C1230 C1213 1.574 . S
C1230 H1224 0.949 . S
C1230 C1234 1.368 . S
C1231 C1212 1.429 . S
C1231 C1225 1.429 . S
C1231 C1232 1.523 . S
C1232 C1213 1.368 . S
C1232 C1226 1.368 . S
C1232 C1231 1.523 . S
C1233 C1217 1.429 . S
C1233 C1229 1.429 . S
C1233 C1234 1.523 . S
C1234 C1218 1.368 . S
C1234 C1230 1.368 . S
C1234 C1233 1.523 . S
H1235 C1210 0.950 . S
H1236 C1212 0.950 . S
H1237 C1213 0.949 . S
H1238 C1215 0.950 . S
H1239 C1217 0.950 . S
C1240 C1241 1.349 . S
C1240 C1242 1.327 . S
C1240 H1265 0.950 . S
C1241 C1240 1.349 . S
C1241 C1257 1.349 . S
C1242 C1240 1.327 . S
C1242 C1261 1.429 . S
C1242 H1266 0.950 . S
C1243 C1260 1.574 . S
C1243 C1262 1.368 . S
C1243 H1267 0.949 . S
H1244 C1248 0.949 . S
C1245 C1246 1.349 . S
C1245 C1247 1.327 . S
C1245 H1268 0.950 . S
C1246 C1245 1.349 . S
C1246 C1258 1.349 . S
C1247 C1245 1.327 . S
C1247 C1263 1.429 . S
C1247 H1269 0.950 . S
C1248 H1244 0.949 . S
C1248 C1256 1.574 . S
C1248 C1264 1.368 . S
H1249 C1257 0.950 1_565 S
H1250 C1255 0.970 . S
H1251 C1256 0.949 . S
H1252 C1258 0.950 . S
H1253 C1259 0.950 . S
H1254 C1260 0.949 . S
C1255 H1250 0.970 . S
C1255 C1257 1.327 . S
C1255 C1261 1.429 . S
C1256 C1248 1.574 . S
C1256 H1251 0.949 . S
C1256 C1262 1.368 . S
C1257 C1241 1.349 . S
C1257 H1249 0.950 1_545 S
C1257 C1255 1.327 . S
C1258 C1246 1.349 . S
C1258 H1252 0.950 . S
C1258 C1259 1.327 . S
C1259 H1253 0.950 . S
C1259 C1258 1.327 . S
C1259 C1263 1.429 . S
C1260 C1243 1.574 . S
C1260 H1254 0.949 . S
C1260 C1264 1.368 . S
C1261 C1242 1.429 . S
C1261 C1255 1.429 . S
C1261 C1262 1.523 . S
C1262 C1243 1.368 . S
C1262 C1256 1.368 . S
C1262 C1261 1.523 . S
C1263 C1247 1.429 . S
C1263 C1259 1.429 . S
C1263 C1264 1.523 . S
C1264 C1248 1.368 . S
C1264 C1260 1.368 . S
C1264 C1263 1.523 . S
H1265 C1240 0.950 . S
H1266 C1242 0.950 . S
H1267 C1243 0.949 . S
H1268 C1245 0.950 . S
H1269 C1247 0.950 . S
C1270 C1271 1.349 . S
C1270 C1272 1.327 . S
C1270 H1295 0.950 . S
C1271 C1270 1.349 . S
C1271 C1287 1.349 . S
C1272 C1270 1.327 . S
C1272 C1291 1.429 . S
C1272 H1296 0.950 . S
C1273 C1290 1.574 . S
C1273 C1292 1.368 . S
C1273 H1297 0.949 . S
H1274 C1278 0.949 . S
C1275 C1276 1.349 . S
C1275 C1277 1.327 . S
C1275 H1298 0.950 . S
C1276 C1275 1.349 . S
C1276 C1288 1.349 . S
C1277 C1275 1.327 . S
C1277 C1293 1.429 . S
C1277 H1299 0.950 . S
C1278 H1274 0.949 . S
C1278 C1286 1.574 . S
C1278 C1294 1.368 . S
H1279 C1287 0.950 . S
H1280 C1285 0.950 . S
H1281 C1286 0.949 . S
H1282 C1288 0.950 . S
H1283 C1289 0.950 . S
H1284 C1290 0.949 . S
C1285 H1280 0.950 . S
C1285 C1287 1.327 . S
C1285 C1291 1.429 . S
C1286 C1278 1.574 . S
C1286 H1281 0.949 . S
C1286 C1292 1.368 . S
C1287 C1271 1.349 . S
C1287 H1279 0.950 . S
C1287 C1285 1.327 . S
C1288 C1276 1.349 . S
C1288 H1282 0.950 . S
C1288 C1289 1.327 . S
C1289 H1283 0.950 . S
C1289 C1288 1.327 . S
C1289 C1293 1.429 . S
C1290 C1273 1.574 . S
C1290 H1284 0.949 . S
C1290 C1294 1.368 . S
C1291 C1272 1.429 . S
C1291 C1285 1.429 . S
C1291 C1292 1.523 . S
C1292 C1273 1.368 . S
C1292 C1286 1.368 . S
C1292 C1291 1.523 . S
C1293 C1277 1.429 . S
C1293 C1289 1.429 . S
C1293 C1294 1.523 . S
C1294 C1278 1.368 . S
C1294 C1290 1.368 . S
C1294 C1293 1.523 . S
H1295 C1270 0.950 . S
H1296 C1272 0.950 . S
H1297 C1273 0.949 . S
H1298 C1275 0.950 . S
H1299 C1277 0.950 . S
C1300 C1301 1.349 . S
C1300 C1302 1.327 . S
C1300 H1325 0.950 . S
C1301 C1300 1.349 . S
C1301 C1317 1.349 1_545 S
C1302 C1300 1.327 . S
C1302 C1321 1.429 . S
C1302 H1326 0.950 . S
C1303 C1320 1.574 . S
C1303 C1322 1.368 1_565 S
C1303 H1327 0.949 . S
H1304 C1308 0.949 . S
C1305 C1306 1.349 . S
C1305 C1307 1.327 . S
C1305 H1328 0.950 . S
C1306 C1305 1.349 . S
C1306 C1318 1.349 1_565 S
C1307 C1305 1.327 . S
C1307 C1323 1.429 . S
C1307 H1329 0.950 . S
C1308 H1304 0.949 . S
C1308 C1316 1.574 . S
C1308 C1324 1.368 1_545 S
H1309 C1317 0.950 . S
H1310 C1315 0.950 . S
H1311 C1316 0.949 . S
H1312 C1318 0.950 . S
H1313 C1319 0.950 . S
H1314 C1320 0.949 . S
C1315 H1310 0.950 . S
C1315 C1317 1.327 . S
C1315 C1321 1.429 1_565 S
C1316 C1308 1.574 . S
C1316 H1311 0.949 . S
C1316 C1322 1.368 . S
C1317 C1301 1.349 1_565 S
C1317 H1309 0.950 . S
C1317 C1315 1.327 . S
C1318 C1306 1.349 1_545 S
C1318 H1312 0.950 . S
C1318 C1319 1.327 . S
C1319 H1313 0.950 . S
C1319 C1318 1.327 . S
C1319 C1323 1.429 1_545 S
C1320 C1303 1.574 . S
C1320 H1314 0.949 . S
C1320 C1324 1.368 . S
C1321 C1302 1.429 . S
C1321 C1315 1.429 1_545 S
C1321 C1322 1.523 . S
C1322 C1303 1.368 1_545 S
C1322 C1316 1.368 . S
C1322 C1321 1.523 . S
C1323 C1307 1.429 . S
C1323 C1319 1.429 1_565 S
C1323 C1324 1.523 . S
C1324 C1308 1.368 1_565 S
C1324 C1320 1.368 . S
C1324 C1323 1.523 . S
H1325 C1300 0.950 . S
H1326 C1302 0.950 . S
H1327 C1303 0.949 . S
H1328 C1305 0.950 . S
H1329 C1307 0.950 . S
C1330 C1331 1.349 . S
C1330 C1332 1.327 . S
C1330 H1355 0.950 . S
C1331 C1330 1.349 . S
C1331 C1347 1.349 . S
C1332 C1330 1.327 . S
C1332 C1351 1.429 . S
C1332 H1356 0.950 . S
C1333 C1350 1.574 . S
C1333 C1352 1.368 . S
C1333 H1357 0.949 . S
H1334 C1338 0.949 . S
C1335 C1336 1.349 . S
C1335 C1337 1.327 . S
C1335 H1358 0.950 . S
C1336 C1335 1.349 . S
C1336 C1348 1.349 . S
C1337 C1335 1.327 . S
C1337 C1353 1.429 . S
C1337 H1359 0.950 . S
C1338 H1334 0.949 . S
C1338 C1346 1.574 . S
C1338 C1354 1.368 . S
H1339 C1347 0.950 . S
H1340 C1345 0.950 . S
H1341 C1346 0.949 . S
H1342 C1348 0.950 . S
H1343 C1349 0.950 . S
H1344 C1350 0.949 . S
C1345 H1340 0.950 . S
C1345 C1347 1.327 . S
C1345 C1351 1.429 . S
C1346 C1338 1.574 . S
C1346 H1341 0.949 . S
C1346 C1352 1.368 . S
C1347 C1331 1.349 . S
C1347 H1339 0.950 . S
C1347 C1345 1.327 . S
C1348 C1336 1.349 . S
C1348 H1342 0.950 . S
C1348 C1349 1.327 . S
C1349 H1343 0.950 . S
C1349 C1348 1.327 . S
C1349 C1353 1.429 . S
C1350 C1333 1.574 . S
C1350 H1344 0.949 . S
C1350 C1354 1.368 . S
C1351 C1332 1.429 . S
C1351 C1345 1.429 . S
C1351 C1352 1.523 . S
C1352 C1333 1.368 . S
C1352 C1346 1.368 . S
C1352 C1351 1.523 . S
C1353 C1337 1.429 . S
C1353 C1349 1.429 . S
C1353 C1354 1.523 . S
C1354 C1338 1.368 . S
C1354 C1350 1.368 . S
C1354 C1353 1.523 . S
H1355 C1330 0.950 . S
H1356 C1332 0.950 . S
H1357 C1333 0.949 . S
H1358 C1335 0.950 . S
H1359 C1337 0.950 . S
C1360 C1361 1.349 . S
C1360 C1362 1.327 . S
C1360 H1385 0.950 . S
C1361 C1360 1.349 . S
C1361 C1377 1.349 . S
C1362 C1360 1.327 . S
C1362 C1381 1.429 . S
C1362 H1386 0.950 . S
C1363 C1380 1.574 . S
C1363 C1382 1.368 1_556 S
C1363 H1387 0.949 . S
H1364 C1368 0.949 . S
C1365 C1366 1.337 1_556 S
C1365 C1367 1.327 . S
C1365 H1388 0.950 . S
C1366 C1365 1.337 1_554 S
C1366 C1378 1.363 . S
C1367 C1365 1.327 . S
C1367 C1383 1.429 1_556 S
C1367 H1389 0.950 . S
C1368 H1364 0.949 . S
C1368 C1376 1.574 . S
C1368 C1384 1.368 . S
H1369 C1377 0.950 1_556 S
H1370 C1375 0.950 1_556 S
H1371 C1376 0.949 . S
H1372 C1378 0.950 . S
H1373 C1379 0.950 . S
H1374 C1380 0.949 . S
C1375 H1370 0.950 1_554 S
C1375 C1377 1.327 . S
C1375 C1381 1.429 . S
C1376 C1368 1.574 . S
C1376 H1371 0.949 . S
C1376 C1382 1.368 . S
C1377 C1361 1.349 . S
C1377 H1369 0.950 1_554 S
C1377 C1375 1.327 . S
C1378 C1366 1.363 . S
C1378 H1372 0.950 . S
C1378 C1379 1.327 . S
C1379 H1373 0.950 . S
C1379 C1378 1.327 . S
C1379 C1383 1.429 . S
C1380 C1363 1.574 . S
C1380 H1374 0.949 . S
C1380 C1384 1.368 1_556 S
C1381 C1362 1.429 . S
C1381 C1375 1.429 . S
C1381 C1382 1.523 . S
C1382 C1363 1.368 1_554 S
C1382 C1376 1.368 . S
C1382 C1381 1.523 . S
C1383 C1367 1.429 1_554 S
C1383 C1379 1.429 . S
C1383 C1384 1.523 . S
C1384 C1368 1.368 . S
C1384 C1380 1.368 1_554 S
C1384 C1383 1.523 . S
H1385 C1360 0.950 . S
H1386 C1362 0.950 . S
H1387 C1363 0.949 . S
H1388 C1365 0.950 . S
H1389 C1367 0.950 . S
C1390 C1391 1.349 . S
C1390 C1392 1.327 . S
C1390 H1415 0.950 . S
C1391 C1390 1.349 . S
C1391 C1407 1.349 . S
C1392 C1390 1.327 . S
C1392 C1411 1.429 . S
C1392 H1416 0.950 . S
C1393 C1410 1.574 . S
C1393 C1412 1.368 . S
C1393 H1417 0.949 . S
H1394 C1398 0.949 . S
C1395 C1396 1.349 . S
C1395 C1397 1.327 . S
C1395 H1418 0.950 . S
C1396 C1395 1.349 . S
C1396 C1408 1.349 . S
C1397 C1395 1.327 . S
C1397 C1413 1.429 . S
C1397 H1419 0.950 . S
C1398 H1394 0.949 . S
C1398 C1406 1.574 . S
C1398 C1414 1.368 . S
H1399 C1407 0.950 . S
H1400 C1405 0.950 . S
H1401 C1406 0.949 . S
H1402 C1408 0.950 . S
H1403 C1409 0.950 . S
H1404 C1410 0.949 . S
C1405 H1400 0.950 . S
C1405 C1407 1.327 . S
C1405 C1411 1.429 . S
C1406 C1398 1.574 . S
C1406 H1401 0.949 . S
C1406 C1412 1.368 . S
C1407 C1391 1.349 . S
C1407 H1399 0.950 . S
C1407 C1405 1.327 . S
C1408 C1396 1.349 . S
C1408 H1402 0.950 . S
C1408 C1409 1.327 . S
C1409 H1403 0.950 . S
C1409 C1408 1.327 . S
C1409 C1413 1.429 . S
C1410 C1393 1.574 . S
C1410 H1404 0.949 . S
C1410 C1414 1.368 . S
C1411 C1392 1.429 . S
C1411 C1405 1.429 . S
C1411 C1412 1.523 . S
C1412 C1393 1.368 . S
C1412 C1406 1.368 . S
C1412 C1411 1.523 . S
C1413 C1397 1.429 . S
C1413 C1409 1.429 . S
C1413 C1414 1.523 . S
C1414 C1398 1.368 . S
C1414 C1410 1.368 . S
C1414 C1413 1.523 . S
H1415 C1390 0.950 . S
H1416 C1392 0.950 . S
H1417 C1393 0.949 . S
H1418 C1395 0.950 . S
H1419 C1397 0.950 . S
C1420 C1421 1.349 . S
C1420 C1422 1.327 . S
C1420 H1445 0.950 . S
C1421 C1420 1.349 . S
C1421 C1437 1.349 . S
C1422 C1420 1.327 . S
C1422 C1441 1.429 . S
C1422 H1446 0.950 . S
C1423 C1440 1.574 . S
C1423 C1442 1.368 . S
C1423 H1447 0.949 . S
H1424 C1428 0.949 . S
C1425 C1426 1.349 . S
C1425 C1427 1.327 . S
C1425 H1448 0.950 . S
C1426 C1425 1.349 . S
C1426 C1438 1.349 . S
C1427 C1425 1.327 . S
C1427 C1443 1.429 . S
C1427 H1449 0.950 . S
C1428 H1424 0.949 . S
C1428 C1436 1.574 . S
C1428 C1444 1.368 . S
H1429 C1437 0.950 . S
H1430 C1435 0.950 . S
H1431 C1436 0.949 . S
H1432 C1438 0.950 . S
H1433 C1439 0.950 . S
H1434 C1440 0.949 . S
C1435 H1430 0.950 . S
C1435 C1437 1.327 . S
C1435 C1441 1.429 . S
C1436 C1428 1.574 . S
C1436 H1431 0.949 . S
C1436 C1442 1.368 . S
C1437 C1421 1.349 . S
C1437 H1429 0.950 . S
C1437 C1435 1.327 . S
C1438 C1426 1.349 . S
C1438 H1432 0.950 . S
C1438 C1439 1.327 . S
C1439 H1433 0.950 . S
C1439 C1438 1.327 . S
C1439 C1443 1.429 . S
C1440 C1423 1.574 . S
C1440 H1434 0.949 . S
C1440 C1444 1.368 . S
C1441 C1422 1.429 . S
C1441 C1435 1.429 . S
C1441 C1442 1.523 . S
C1442 C1423 1.368 . S
C1442 C1436 1.368 . S
C1442 C1441 1.523 . S
C1443 C1427 1.429 . S
C1443 C1439 1.429 . S
C1443 C1444 1.523 . S
C1444 C1428 1.368 . S
C1444 C1440 1.368 . S
C1444 C1443 1.523 . S
H1445 C1420 0.950 . S
H1446 C1422 0.950 . S
H1447 C1423 0.949 . S
H1448 C1425 0.950 . S
H1449 C1427 0.950 . S
C1450 C1451 1.349 . S
C1450 C1452 1.327 . S
C1450 H1475 0.950 . S
C1451 C1450 1.349 . S
C1451 C1467 1.349 . S
C1452 C1450 1.327 . S
C1452 C1471 1.429 . S
C1452 H1476 0.950 . S
C1453 C1470 1.574 . S
C1453 C1472 1.368 . S
C1453 H1477 0.949 . S
H1454 C1458 0.949 . S
C1455 C1456 1.349 . S
C1455 C1457 1.327 . S
C1455 H1478 0.950 . S
C1456 C1455 1.349 . S
C1456 C1468 1.349 . S
C1457 C1455 1.327 . S
C1457 C1473 1.429 . S
C1457 H1479 0.950 . S
C1458 H1454 0.949 . S
C1458 C1466 1.574 . S
C1458 C1474 1.368 . S
H1459 C1467 0.950 . S
H1460 C1465 0.950 . S
H1461 C1466 0.949 . S
H1462 C1468 0.950 . S
H1463 C1469 0.950 . S
H1464 C1470 0.949 . S
C1465 H1460 0.950 . S
C1465 C1467 1.327 . S
C1465 C1471 1.429 . S
C1466 C1458 1.574 . S
C1466 H1461 0.949 . S
C1466 C1472 1.368 . S
C1467 C1451 1.349 . S
C1467 H1459 0.950 . S
C1467 C1465 1.327 . S
C1468 C1456 1.349 . S
C1468 H1462 0.950 . S
C1468 C1469 1.327 . S
C1469 H1463 0.950 . S
C1469 C1468 1.327 . S
C1469 C1473 1.429 . S
C1470 C1453 1.574 . S
C1470 H1464 0.949 . S
C1470 C1474 1.368 . S
C1471 C1452 1.429 . S
C1471 C1465 1.429 . S
C1471 C1472 1.523 . S
C1472 C1453 1.368 . S
C1472 C1466 1.368 . S
C1472 C1471 1.523 . S
C1473 C1457 1.429 . S
C1473 C1469 1.429 . S
C1473 C1474 1.523 . S
C1474 C1458 1.368 . S
C1474 C1470 1.368 . S
C1474 C1473 1.523 . S
H1475 C1450 0.950 . S
H1476 C1452 0.950 . S
H1477 C1453 0.949 . S
H1478 C1455 0.950 . S
H1479 C1457 0.950 . S
C1480 C1481 1.349 . S
C1480 C1482 1.327 . S
C1480 H1505 0.950 . S
C1481 C1480 1.349 . S
C1481 C1497 1.349 . S
C1482 C1480 1.327 . S
C1482 C1501 1.429 . S
C1482 H1506 0.950 . S
C1483 C1500 1.574 . S
C1483 C1502 1.368 . S
C1483 H1507 0.949 . S
H1484 C1488 0.949 . S
C1485 C1486 1.349 . S
C1485 C1487 1.327 . S
C1485 H1508 0.950 . S
C1486 C1485 1.349 . S
C1486 C1498 1.349 . S
C1487 C1485 1.327 . S
C1487 C1503 1.429 . S
C1487 H1509 0.950 . S
C1488 H1484 0.949 . S
C1488 C1496 1.574 . S
C1488 C1504 1.368 . S
H1489 C1497 0.950 . S
H1490 C1495 0.950 . S
H1491 C1496 0.949 . S
H1492 C1498 0.950 . S
H1493 C1499 0.950 . S
H1494 C1500 0.949 . S
C1495 H1490 0.950 . S
C1495 C1497 1.327 . S
C1495 C1501 1.429 . S
C1496 C1488 1.574 . S
C1496 H1491 0.949 . S
C1496 C1502 1.368 . S
C1497 C1481 1.349 . S
C1497 H1489 0.950 . S
C1497 C1495 1.327 . S
C1498 C1486 1.349 . S
C1498 H1492 0.950 . S
C1498 C1499 1.327 . S
C1499 H1493 0.950 . S
C1499 C1498 1.327 . S
C1499 C1503 1.429 . S
C1500 C1483 1.574 . S
C1500 H1494 0.949 . S
C1500 C1504 1.368 . S
C1501 C1482 1.429 . S
C1501 C1495 1.429 . S
C1501 C1502 1.523 . S
C1502 C1483 1.368 . S
C1502 C1496 1.368 . S
C1502 C1501 1.523 . S
C1503 C1487 1.429 . S
C1503 C1499 1.429 . S
C1503 C1504 1.523 . S
C1504 C1488 1.368 . S
C1504 C1500 1.368 . S
C1504 C1503 1.523 . S
H1505 C1480 0.950 . S
H1506 C1482 0.950 . S
H1507 C1483 0.949 . S
H1508 C1485 0.950 . S
H1509 C1487 0.950 . S
C1510 C1511 1.349 . S
C1510 C1512 1.327 . S
C1510 H1535 0.950 . S
C1511 C1510 1.349 . S
C1511 C1527 1.349 . S
C1512 C1510 1.327 . S
C1512 C1531 1.429 . S
C1512 H1536 0.950 . S
C1513 C1530 1.574 . S
C1513 C1532 1.368 . S
C1513 H1537 0.949 . S
H1514 C1518 0.949 . S
C1515 C1516 1.349 . S
C1515 C1517 1.327 . S
C1515 H1538 0.950 . S
C1516 C1515 1.349 . S
C1516 C1528 1.349 . S
C1517 C1515 1.327 . S
C1517 C1533 1.429 . S
C1517 H1539 0.950 . S
C1518 H1514 0.949 . S
C1518 C1526 1.574 . S
C1518 C1534 1.368 . S
H1519 C1527 0.950 . S
H1520 C1525 0.950 . S
H1521 C1526 0.949 . S
H1522 C1528 0.950 . S
H1523 C1529 0.950 . S
H1524 C1530 0.949 . S
C1525 H1520 0.950 . S
C1525 C1527 1.327 . S
C1525 C1531 1.429 . S
C1526 C1518 1.574 . S
C1526 H1521 0.949 . S
C1526 C1532 1.368 . S
C1527 C1511 1.349 . S
C1527 H1519 0.950 . S
C1527 C1525 1.327 . S
C1528 C1516 1.349 . S
C1528 H1522 0.950 . S
C1528 C1529 1.327 . S
C1529 H1523 0.950 . S
C1529 C1528 1.327 . S
C1529 C1533 1.429 . S
C1530 C1513 1.574 . S
C1530 H1524 0.949 . S
C1530 C1534 1.368 . S
C1531 C1512 1.429 . S
C1531 C1525 1.429 . S
C1531 C1532 1.523 . S
C1532 C1513 1.368 . S
C1532 C1526 1.368 . S
C1532 C1531 1.523 . S
C1533 C1517 1.429 . S
C1533 C1529 1.429 . S
C1533 C1534 1.523 . S
C1534 C1518 1.368 . S
C1534 C1530 1.368 . S
C1534 C1533 1.523 . S
H1535 C1510 0.950 . S
H1536 C1512 0.950 . S
H1537 C1513 0.949 . S
H1538 C1515 0.950 . S
H1539 C1517 0.950 . S
C1540 C1541 1.349 . S
C1540 C1542 1.327 . S
C1540 H1565 0.950 . S
C1541 C1540 1.349 . S
C1541 C1557 1.349 . S
C1542 C1540 1.327 . S
C1542 C1561 1.429 . S
C1542 H1566 0.950 . S
C1543 C1560 1.574 . S
C1543 C1562 1.368 . S
C1543 H1567 0.949 . S
H1544 C1548 0.949 . S
C1545 C1546 1.349 . S
C1545 C1547 1.327 . S
C1545 H1568 0.950 . S
C1546 C1545 1.349 . S
C1546 C1558 1.349 . S
C1547 C1545 1.327 . S
C1547 C1563 1.429 . S
C1547 H1569 0.950 . S
C1548 H1544 0.949 . S
C1548 C1556 1.574 . S
C1548 C1564 1.368 . S
H1549 C1557 0.950 . S
H1550 C1555 0.950 . S
H1551 C1556 0.949 . S
H1552 C1558 0.950 . S
H1553 C1559 0.950 . S
H1554 C1560 0.949 . S
C1555 H1550 0.950 . S
C1555 C1557 1.327 . S
C1555 C1561 1.429 . S
C1556 C1548 1.574 . S
C1556 H1551 0.949 . S
C1556 C1562 1.368 . S
C1557 C1541 1.349 . S
C1557 H1549 0.950 . S
C1557 C1555 1.327 . S
C1558 C1546 1.349 . S
C1558 H1552 0.950 . S
C1558 C1559 1.327 . S
C1559 H1553 0.950 . S
C1559 C1558 1.327 . S
C1559 C1563 1.429 . S
C1560 C1543 1.574 . S
C1560 H1554 0.949 . S
C1560 C1564 1.368 . S
C1561 C1542 1.429 . S
C1561 C1555 1.429 . S
C1561 C1562 1.523 . S
C1562 C1543 1.368 . S
C1562 C1556 1.368 . S
C1562 C1561 1.523 . S
C1563 C1547 1.429 . S
C1563 C1559 1.429 . S
C1563 C1564 1.523 . S
C1564 C1548 1.368 . S
C1564 C1560 1.368 . S
C1564 C1563 1.523 . S
H1565 C1540 0.950 . S
H1566 C1542 0.950 . S
H1567 C1543 0.949 . S
H1568 C1545 0.950 . S
H1569 C1547 0.950 . S
C1570 C1571 1.349 . S
C1570 C1572 1.327 . S
C1570 H1595 0.950 . S
C1571 C1570 1.349 . S
C1571 C1587 1.349 . S
C1572 C1570 1.327 . S
C1572 C1591 1.429 . S
C1572 H1596 0.950 . S
C1573 C1590 1.574 . S
C1573 C1592 1.368 . S
C1573 H1597 0.949 . S
H1574 C1578 0.949 . S
C1575 C1576 1.349 . S
C1575 C1577 1.327 . S
C1575 H1598 0.950 . S
C1576 C1575 1.349 . S
C1576 C1588 1.349 . S
C1577 C1575 1.327 . S
C1577 C1593 1.429 . S
C1577 H1599 0.950 . S
C1578 H1574 0.949 . S
C1578 C1586 1.574 . S
C1578 C1594 1.368 . S
H1579 C1587 0.950 . S
H1580 C1585 0.950 . S
H1581 C1586 0.949 . S
H1582 C1588 0.950 . S
H1583 C1589 0.950 . S
H1584 C1590 0.949 . S
C1585 H1580 0.950 . S
C1585 C1587 1.327 . S
C1585 C1591 1.429 . S
C1586 C1578 1.574 . S
C1586 H1581 0.949 . S
C1586 C1592 1.368 . S
C1587 C1571 1.349 . S
C1587 H1579 0.950 . S
C1587 C1585 1.327 . S
C1588 C1576 1.349 . S
C1588 H1582 0.950 . S
C1588 C1589 1.327 . S
C1589 H1583 0.950 . S
C1589 C1588 1.327 . S
C1589 C1593 1.429 . S
C1590 C1573 1.574 . S
C1590 H1584 0.949 . S
C1590 C1594 1.368 . S
C1591 C1572 1.429 . S
C1591 C1585 1.429 . S
C1591 C1592 1.523 . S
C1592 C1573 1.368 . S
C1592 C1586 1.368 . S
C1592 C1591 1.523 . S
C1593 C1577 1.429 . S
C1593 C1589 1.429 . S
C1593 C1594 1.523 . S
C1594 C1578 1.368 . S
C1594 C1590 1.368 . S
C1594 C1593 1.523 . S
H1595 C1570 0.950 . S
H1596 C1572 0.950 . S
H1597 C1573 0.949 . S
H1598 C1575 0.950 . S
H1599 C1577 0.950 . S
C1600 C1601 1.348 . S
C1600 C1602 1.327 . S
C1600 H1625 0.950 . S
C1601 C1600 1.348 . S
C1601 C1617 1.350 1_655 S
C1602 C1600 1.327 . S
C1602 C1621 1.429 1_655 S
C1602 H1626 0.950 . S
C1603 C1620 1.574 . S
C1603 C1622 1.368 . S
C1603 H1627 0.949 . S
H1604 C1608 0.949 . S
C1605 C1606 1.349 . S
C1605 C1607 1.327 1_554 S
C1605 H1628 0.950 . S
C1606 C1605 1.349 . S
C1606 C1618 1.349 1_554 S
C1607 C1605 1.327 1_556 S
C1607 C1623 1.429 . S
C1607 H1629 0.950 . S
C1608 H1604 0.949 . S
C1608 C1616 1.574 . S
C1608 C1624 1.368 1_655 S
H1609 C1617 0.950 . S
H1610 C1615 0.950 . S
H1611 C1616 0.949 . S
H1612 C1618 0.912 1_655 S
H1613 C1619 0.950 1_655 S
H1614 C1620 0.949 . S
C1615 H1610 0.950 . S
C1615 C1617 1.327 . S
C1615 C1621 1.429 . S
C1616 C1608 1.574 . S
C1616 H1611 0.949 . S
C1616 C1622 1.368 1_655 S
C1617 C1601 1.350 1_455 S
C1617 H1609 0.950 . S
C1617 C1615 1.327 . S
C1618 C1606 1.349 1_556 S
C1618 H1612 0.912 1_455 S
C1618 C1619 1.327 . S
C1619 H1613 0.950 1_455 S
C1619 C1618 1.327 . S
C1619 C1623 1.429 . S
C1620 C1603 1.574 . S
C1620 H1614 0.949 . S
C1620 C1624 1.368 . S
C1621 C1602 1.429 1_455 S
C1621 C1615 1.429 . S
C1621 C1622 1.523 . S
C1622 C1603 1.368 . S
C1622 C1616 1.368 1_455 S
C1622 C1621 1.523 . S
C1623 C1607 1.429 . S
C1623 C1619 1.429 . S
C1623 C1624 1.523 . S
C1624 C1608 1.368 1_455 S
C1624 C1620 1.368 . S
C1624 C1623 1.523 . S
H1625 C1600 0.950 . S
H1626 C1602 0.950 . S
H1627 C1603 0.949 . S
H1628 C1605 0.950 . S
H1629 C1607 0.950 . S
C1630 C1631 1.349 . S
C1630 C1632 1.327 . S
C1630 H1655 0.950 . S
C1631 C1630 1.349 . S
C1631 C1647 1.349 . S
C1632 C1630 1.327 . S
C1632 C1651 1.429 . S
C1632 H1656 0.950 . S
C1633 C1650 1.574 . S
C1633 C1652 1.368 . S
C1633 H1657 0.949 . S
H1634 C1638 0.949 . S
C1635 C1636 1.349 . S
C1635 C1637 1.327 . S
C1635 H1658 0.950 . S
C1636 C1635 1.349 . S
C1636 C1648 1.349 . S
C1637 C1635 1.327 . S
C1637 C1653 1.429 . S
C1637 H1659 0.950 . S
C1638 H1634 0.949 . S
C1638 C1646 1.574 . S
C1638 C1654 1.368 . S
H1639 C1647 0.950 . S
H1640 C1645 0.950 . S
H1641 C1646 0.949 . S
H1642 C1648 0.950 . S
H1643 C1649 0.950 . S
H1644 C1650 0.949 . S
C1645 H1640 0.950 . S
C1645 C1647 1.327 . S
C1645 C1651 1.429 . S
C1646 C1638 1.574 . S
C1646 H1641 0.949 . S
C1646 C1652 1.368 . S
C1647 C1631 1.349 . S
C1647 H1639 0.950 . S
C1647 C1645 1.327 . S
C1648 C1636 1.349 . S
C1648 H1642 0.950 . S
C1648 C1649 1.327 . S
C1649 H1643 0.950 . S
C1649 C1648 1.327 . S
C1649 C1653 1.429 . S
C1650 C1633 1.574 . S
C1650 H1644 0.949 . S
C1650 C1654 1.368 . S
C1651 C1632 1.429 . S
C1651 C1645 1.429 . S
C1651 C1652 1.523 . S
C1652 C1633 1.368 . S
C1652 C1646 1.368 . S
C1652 C1651 1.523 . S
C1653 C1637 1.429 . S
C1653 C1649 1.429 . S
C1653 C1654 1.523 . S
C1654 C1638 1.368 . S
C1654 C1650 1.368 . S
C1654 C1653 1.523 . S
H1655 C1630 0.950 . S
H1656 C1632 0.950 . S
H1657 C1633 0.949 . S
H1658 C1635 0.950 . S
H1659 C1637 0.950 . S
C1660 C1661 1.349 . S
C1660 C1662 1.327 . S
C1660 H1685 0.950 . S
C1661 C1660 1.349 . S
C1661 C1677 1.349 . S
C1662 C1660 1.327 . S
C1662 C1681 1.429 . S
C1662 H1686 0.950 . S
C1663 C1680 1.574 . S
C1663 C1682 1.368 . S
C1663 H1687 0.949 . S
H1664 C1668 0.949 . S
C1665 C1666 1.349 . S
C1665 C1667 1.327 . S
C1665 H1688 0.950 . S
C1666 C1665 1.349 . S
C1666 C1678 1.349 . S
C1667 C1665 1.327 . S
C1667 C1683 1.429 . S
C1667 H1689 0.950 . S
C1668 H1664 0.949 . S
C1668 C1676 1.574 . S
C1668 C1684 1.368 . S
H1669 C1677 0.950 . S
H1670 C1675 0.950 . S
H1671 C1676 0.949 . S
H1672 C1678 0.950 . S
H1673 C1679 0.950 . S
H1674 C1680 0.949 . S
C1675 H1670 0.950 . S
C1675 C1677 1.327 . S
C1675 C1681 1.429 . S
C1676 C1668 1.574 . S
C1676 H1671 0.949 . S
C1676 C1682 1.368 . S
C1677 C1661 1.349 . S
C1677 H1669 0.950 . S
C1677 C1675 1.327 . S
C1678 C1666 1.349 . S
C1678 H1672 0.950 . S
C1678 C1679 1.327 . S
C1679 H1673 0.950 . S
C1679 C1678 1.327 . S
C1679 C1683 1.429 . S
C1680 C1663 1.574 . S
C1680 H1674 0.949 . S
C1680 C1684 1.368 . S
C1681 C1662 1.429 . S
C1681 C1675 1.429 . S
C1681 C1682 1.523 . S
C1682 C1663 1.368 . S
C1682 C1676 1.368 . S
C1682 C1681 1.523 . S
C1683 C1667 1.429 . S
C1683 C1679 1.429 . S
C1683 C1684 1.523 . S
C1684 C1668 1.368 . S
C1684 C1680 1.368 . S
C1684 C1683 1.523 . S
H1685 C1660 0.950 . S
H1686 C1662 0.950 . S
H1687 C1663 0.949 . S
H1688 C1665 0.950 . S
H1689 C1667 0.950 . S
C1690 C1691 1.349 . S
C1690 C1692 1.327 . S
C1690 H1715 0.950 . S
C1691 C1690 1.349 . S
C1691 C1707 1.349 . S
C1692 C1690 1.327 . S
C1692 C1711 1.429 . S
C1692 H1716 0.950 . S
C1693 C1710 1.574 . S
C1693 C1712 1.368 . S
C1693 H1717 0.949 . S
H1694 C1698 0.949 . S
C1695 C1696 1.349 . S
C1695 C1697 1.327 . S
C1695 H1718 0.950 . S
C1696 C1695 1.349 . S
C1696 C1708 1.349 . S
C1697 C1695 1.327 . S
C1697 C1713 1.429 . S
C1697 H1719 0.950 . S
C1698 H1694 0.949 . S
C1698 C1706 1.574 . S
C1698 C1714 1.368 . S
H1699 C1707 0.950 . S
H1700 C1705 0.950 . S
H1701 C1706 0.949 . S
H1702 C1708 0.950 . S
H1703 C1709 0.950 . S
H1704 C1710 0.949 . S
C1705 H1700 0.950 . S
C1705 C1707 1.327 . S
C1705 C1711 1.429 . S
C1706 C1698 1.574 . S
C1706 H1701 0.949 . S
C1706 C1712 1.368 . S
C1707 C1691 1.349 . S
C1707 H1699 0.950 . S
C1707 C1705 1.327 . S
C1708 C1696 1.349 . S
C1708 H1702 0.950 . S
C1708 C1709 1.327 . S
C1709 H1703 0.950 . S
C1709 C1708 1.327 . S
C1709 C1713 1.429 . S
C1710 C1693 1.574 . S
C1710 H1704 0.949 . S
C1710 C1714 1.368 . S
C1711 C1692 1.429 . S
C1711 C1705 1.429 . S
C1711 C1712 1.523 . S
C1712 C1693 1.368 . S
C1712 C1706 1.368 . S
C1712 C1711 1.523 . S
C1713 C1697 1.429 . S
C1713 C1709 1.429 . S
C1713 C1714 1.523 . S
C1714 C1698 1.368 . S
C1714 C1710 1.368 . S
C1714 C1713 1.523 . S
H1715 C1690 0.950 . S
H1716 C1692 0.950 . S
H1717 C1693 0.949 . S
H1718 C1695 0.950 . S
H1719 C1697 0.950 . S
C1720 C1721 1.349 . S
C1720 C1722 1.327 . S
C1720 H1745 0.950 . S
C1721 C1720 1.349 . S
C1721 C1737 1.349 . S
C1722 C1720 1.327 . S
C1722 C1741 1.429 . S
C1722 H1746 0.950 . S
C1723 C1740 1.574 . S
C1723 C1742 1.368 . S
C1723 H1747 0.949 . S
H1724 C1728 0.949 . S
C1725 C1726 1.349 . S
C1725 C1727 1.327 . S
C1725 H1748 0.950 . S
C1726 C1725 1.349 . S
C1726 C1738 1.349 . S
C1727 C1725 1.327 . S
C1727 C1743 1.429 . S
C1727 H1749 0.950 . S
C1728 H1724 0.949 . S
C1728 C1736 1.574 . S
C1728 C1744 1.368 . S
H1729 C1737 0.950 . S
H1730 C1735 0.950 . S
H1731 C1736 0.949 . S
H1732 C1738 0.950 . S
H1733 C1739 0.950 . S
H1734 C1740 0.949 . S
C1735 H1730 0.950 . S
C1735 C1737 1.327 . S
C1735 C1741 1.429 . S
C1736 C1728 1.574 . S
C1736 H1731 0.949 . S
C1736 C1742 1.368 . S
C1737 C1721 1.349 . S
C1737 H1729 0.950 . S
C1737 C1735 1.327 . S
C1738 C1726 1.349 . S
C1738 H1732 0.950 . S
C1738 C1739 1.327 . S
C1739 H1733 0.950 . S
C1739 C1738 1.327 . S
C1739 C1743 1.429 . S
C1740 C1723 1.574 . S
C1740 H1734 0.949 . S
C1740 C1744 1.368 . S
C1741 C1722 1.429 . S
C1741 C1735 1.429 . S
C1741 C1742 1.523 . S
C1742 C1723 1.368 . S
C1742 C1736 1.368 . S
C1742 C1741 1.523 . S
C1743 C1727 1.429 . S
C1743 C1739 1.429 . S
C1743 C1744 1.523 . S
C1744 C1728 1.368 . S
C1744 C1740 1.368 . S
C1744 C1743 1.523 . S
H1745 C1720 0.950 . S
H1746 C1722 0.950 . S
H1747 C1723 0.949 . S
H1748 C1725 0.950 . S
H1749 C1727 0.950 . S
C1750 C1751 1.349 . S
C1750 C1752 1.327 . S
C1750 H1775 0.950 . S
C1751 C1750 1.349 . S
C1751 C1767 1.349 . S
C1752 C1750 1.327 . S
C1752 C1771 1.429 . S
C1752 H1776 0.950 . S
C1753 C1770 1.574 . S
C1753 C1772 1.368 . S
C1753 H1777 0.949 . S
H1754 C1758 0.949 . S
C1755 C1756 1.349 . S
C1755 C1757 1.327 . S
C1755 H1778 0.950 . S
C1756 C1755 1.349 . S
C1756 C1768 1.349 . S
C1757 C1755 1.327 . S
C1757 C1773 1.429 . S
C1757 H1779 0.950 . S
C1758 H1754 0.949 . S
C1758 C1766 1.574 . S
C1758 C1774 1.368 . S
H1759 C1767 0.950 . S
H1760 C1765 0.950 . S
H1761 C1766 0.949 . S
H1762 C1768 0.950 . S
H1763 C1769 0.950 . S
H1764 C1770 0.949 . S
C1765 H1760 0.950 . S
C1765 C1767 1.327 . S
C1765 C1771 1.429 . S
C1766 C1758 1.574 . S
C1766 H1761 0.949 . S
C1766 C1772 1.368 . S
C1767 C1751 1.349 . S
C1767 H1759 0.950 . S
C1767 C1765 1.327 . S
C1768 C1756 1.349 . S
C1768 H1762 0.950 . S
C1768 C1769 1.327 . S
C1769 H1763 0.950 . S
C1769 C1768 1.327 . S
C1769 C1773 1.429 . S
C1770 C1753 1.574 . S
C1770 H1764 0.949 . S
C1770 C1774 1.368 . S
C1771 C1752 1.429 . S
C1771 C1765 1.429 . S
C1771 C1772 1.523 . S
C1772 C1753 1.368 . S
C1772 C1766 1.368 . S
C1772 C1771 1.523 . S
C1773 C1757 1.429 . S
C1773 C1769 1.429 . S
C1773 C1774 1.523 . S
C1774 C1758 1.368 . S
C1774 C1770 1.368 . S
C1774 C1773 1.523 . S
H1775 C1750 0.950 . S
H1776 C1752 0.950 . S
H1777 C1753 0.949 . S
H1778 C1755 0.950 . S
H1779 C1757 0.950 . S
C1780 C1781 1.349 . S
C1780 C1782 1.327 . S
C1780 H1805 0.950 . S
C1781 C1780 1.349 . S
C1781 C1797 1.349 . S
C1782 C1780 1.327 . S
C1782 C1801 1.429 . S
C1782 H1806 0.950 . S
C1783 C1800 1.574 . S
C1783 C1802 1.368 . S
C1783 H1807 0.949 . S
H1784 C1788 0.949 . S
C1785 C1786 1.349 . S
C1785 C1787 1.327 . S
C1785 H1808 0.950 . S
C1786 C1785 1.349 . S
C1786 C1798 1.349 . S
C1787 C1785 1.327 . S
C1787 C1803 1.429 . S
C1787 H1809 0.950 . S
C1788 H1784 0.949 . S
C1788 C1796 1.574 . S
C1788 C1804 1.368 . S
H1789 C1797 0.950 . S
H1790 C1795 0.950 . S
H1791 C1796 0.949 . S
H1792 C1798 0.950 . S
H1793 C1799 0.950 . S
H1794 C1800 0.949 . S
C1795 H1790 0.950 . S
C1795 C1797 1.327 . S
C1795 C1801 1.429 . S
C1796 C1788 1.574 . S
C1796 H1791 0.949 . S
C1796 C1802 1.368 . S
C1797 C1781 1.349 . S
C1797 H1789 0.950 . S
C1797 C1795 1.327 . S
C1798 C1786 1.349 . S
C1798 H1792 0.950 . S
C1798 C1799 1.327 . S
C1799 H1793 0.950 . S
C1799 C1798 1.327 . S
C1799 C1803 1.429 . S
C1800 C1783 1.574 . S
C1800 H1794 0.949 . S
C1800 C1804 1.368 . S
C1801 C1782 1.429 . S
C1801 C1795 1.429 . S
C1801 C1802 1.523 . S
C1802 C1783 1.368 . S
C1802 C1796 1.368 . S
C1802 C1801 1.523 . S
C1803 C1787 1.429 . S
C1803 C1799 1.429 . S
C1803 C1804 1.523 . S
C1804 C1788 1.368 . S
C1804 C1800 1.368 . S
C1804 C1803 1.523 . S
H1805 C1780 0.950 . S
H1806 C1782 0.950 . S
H1807 C1783 0.949 . S
H1808 C1785 0.950 . S
H1809 C1787 0.950 . S
C1810 C1811 1.349 . S
C1810 C1812 1.327 . S
C1810 H1835 0.950 . S
C1811 C1810 1.349 . S
C1811 C1827 1.349 . S
C1812 C1810 1.327 . S
C1812 C1831 1.429 . S
C1812 H1836 0.950 . S
C1813 C1830 1.574 . S
C1813 C1832 1.368 . S
C1813 H1837 0.949 . S
H1814 C1818 0.949 . S
C1815 C1816 1.349 . S
C1815 C1817 1.327 . S
C1815 H1838 0.950 . S
C1816 C1815 1.349 . S
C1816 C1828 1.349 . S
C1817 C1815 1.327 . S
C1817 C1833 1.429 . S
C1817 H1839 0.950 . S
C1818 H1814 0.949 . S
C1818 C1826 1.574 . S
C1818 C1834 1.368 . S
H1819 C1827 0.950 . S
H1820 C1825 0.950 . S
H1821 C1826 0.949 . S
H1822 C1828 0.950 . S
H1823 C1829 0.950 . S
H1824 C1830 0.949 . S
C1825 H1820 0.950 . S
C1825 C1827 1.327 . S
C1825 C1831 1.429 . S
C1826 C1818 1.574 . S
C1826 H1821 0.949 . S
C1826 C1832 1.368 . S
C1827 C1811 1.349 . S
C1827 H1819 0.950 . S
C1827 C1825 1.327 . S
C1828 C1816 1.349 . S
C1828 H1822 0.950 . S
C1828 C1829 1.327 . S
C1829 H1823 0.950 . S
C1829 C1828 1.327 . S
C1829 C1833 1.429 . S
C1830 C1813 1.574 . S
C1830 H1824 0.949 . S
C1830 C1834 1.368 . S
C1831 C1812 1.429 . S
C1831 C1825 1.429 . S
C1831 C1832 1.523 . S
C1832 C1813 1.368 . S
C1832 C1826 1.368 . S
C1832 C1831 1.523 . S
C1833 C1817 1.429 . S
C1833 C1829 1.429 . S
C1833 C1834 1.523 . S
C1834 C1818 1.368 . S
C1834 C1830 1.368 . S
C1834 C1833 1.523 . S
H1835 C1810 0.950 . S
H1836 C1812 0.950 . S
H1837 C1813 0.949 . S
H1838 C1815 0.950 . S
H1839 C1817 0.950 . S
C1840 C1841 1.349 1_565 S
C1840 C1842 1.327 . S
C1840 H1865 0.950 . S
C1841 C1840 1.349 1_545 S
C1841 C1857 1.349 . S
C1842 C1840 1.327 . S
C1842 C1861 1.429 1_565 S
C1842 H1866 0.950 . S
C1843 C1860 1.574 . S
C1843 C1862 1.368 . S
C1843 H1867 0.949 . S
H1844 C1848 0.949 1_565 S
C1845 C1846 1.349 . S
C1845 C1847 1.327 . S
C1845 H1868 0.950 . S
C1846 C1845 1.349 . S
C1846 C1858 1.349 1_655 S
C1847 C1845 1.327 . S
C1847 C1863 1.429 . S
C1847 H1869 0.950 . S
C1848 H1844 0.949 1_545 S
C1848 C1856 1.576 . S
C1848 C1864 1.368 . S
H1849 C1857 0.950 . S
H1850 C1855 0.950 . S
H1851 C1856 0.928 1_565 S
H1852 C1858 0.950 . S
H1853 C1859 0.950 1_565 S
H1854 C1860 0.949 . S
C1855 H1850 0.950 . S
C1855 C1857 1.327 . S
C1855 C1861 1.429 . S
C1856 C1848 1.576 . S
C1856 H1851 0.928 1_545 S
C1856 C1862 1.390 . S
C1857 C1841 1.349 . S
C1857 H1849 0.950 . S
C1857 C1855 1.327 . S
C1858 C1846 1.349 1_455 S
C1858 H1852 0.950 . S
C1858 C1859 1.327 1_455 S
C1859 H1853 0.950 1_545 S
C1859 C1858 1.327 1_655 S
C1859 C1863 1.429 . S
C1860 C1843 1.574 . S
C1860 H1854 0.949 . S
C1860 C1864 1.368 . S
C1861 C1842 1.429 1_545 S
C1861 C1855 1.429 . S
C1861 C1862 1.523 . S
C1862 C1843 1.368 . S
C1862 C1856 1.390 . S
C1862 C1861 1.523 . S
C1863 C1847 1.429 . S
C1863 C1859 1.429 . S
C1863 C1864 1.523 . S
C1864 C1848 1.368 . S
C1864 C1860 1.368 . S
C1864 C1863 1.523 . S
H1865 C1840 0.950 . S
H1866 C1842 0.950 . S
H1867 C1843 0.949 . S
H1868 C1845 0.950 . S
H1869 C1847 0.950 . S
C1870 C1871 1.349 . S
C1870 C1872 1.327 . S
C1870 H1895 0.950 . S
C1871 C1870 1.349 . S
C1871 C1887 1.349 . S
C1872 C1870 1.327 . S
C1872 C1891 1.429 . S
C1872 H1896 0.950 . S
C1873 C1890 1.574 . S
C1873 C1892 1.368 . S
C1873 H1897 0.949 . S
H1874 C1878 0.949 . S
C1875 C1876 1.349 . S
C1875 C1877 1.327 . S
C1875 H1898 0.950 . S
C1876 C1875 1.349 . S
C1876 C1888 1.349 . S
C1877 C1875 1.327 . S
C1877 C1893 1.429 . S
C1877 H1899 0.950 . S
C1878 H1874 0.949 . S
C1878 C1886 1.574 . S
C1878 C1894 1.368 . S
H1879 C1887 0.950 . S
H1880 C1885 0.950 . S
H1881 C1886 0.949 . S
H1882 C1888 0.950 . S
H1883 C1889 0.950 . S
H1884 C1890 0.949 . S
C1885 H1880 0.950 . S
C1885 C1887 1.327 . S
C1885 C1891 1.429 . S
C1886 C1878 1.574 . S
C1886 H1881 0.949 . S
C1886 C1892 1.368 . S
C1887 C1871 1.349 . S
C1887 H1879 0.950 . S
C1887 C1885 1.327 . S
C1888 C1876 1.349 . S
C1888 H1882 0.950 . S
C1888 C1889 1.327 . S
C1889 H1883 0.950 . S
C1889 C1888 1.327 . S
C1889 C1893 1.429 . S
C1890 C1873 1.574 . S
C1890 H1884 0.949 . S
C1890 C1894 1.368 . S
C1891 C1872 1.429 . S
C1891 C1885 1.429 . S
C1891 C1892 1.523 . S
C1892 C1873 1.368 . S
C1892 C1886 1.368 . S
C1892 C1891 1.523 . S
C1893 C1877 1.429 . S
C1893 C1889 1.429 . S
C1893 C1894 1.523 . S
C1894 C1878 1.368 . S
C1894 C1890 1.368 . S
C1894 C1893 1.523 . S
H1895 C1870 0.950 . S
H1896 C1872 0.950 . S
H1897 C1873 0.949 . S
H1898 C1875 0.950 . S
H1899 C1877 0.950 . S
C1900 C1901 1.354 1_565 S
C1900 C1902 1.326 . S
C1900 H1925 0.945 . S
C1901 C1900 1.354 1_545 S
C1901 C1917 1.349 . S
C1902 C1900 1.326 . S
C1902 C1921 1.429 1_565 S
C1902 H1926 0.950 . S
C1903 C1920 1.574 . S
C1903 C1922 1.368 . S
C1903 H1927 0.949 . S
H1904 C1908 0.949 . S
C1905 C1906 1.349 . S
C1905 C1907 1.327 . S
C1905 H1928 0.950 . S
C1906 C1905 1.349 . S
C1906 C1918 1.349 1_545 S
C1907 C1905 1.327 . S
C1907 C1923 1.429 . S
C1907 H1929 0.950 . S
C1908 H1904 0.949 . S
C1908 C1916 1.574 . S
C1908 C1924 1.368 1_565 S
H1909 C1917 0.950 . S
H1910 C1915 0.950 . S
H1911 C1916 0.949 . S
H1912 C1918 0.950 . S
H1913 C1919 0.950 . S
H1914 C1920 0.949 . S
C1915 H1910 0.950 . S
C1915 C1917 1.327 . S
C1915 C1921 1.429 . S
C1916 C1908 1.574 . S
C1916 H1911 0.949 . S
C1916 C1922 1.368 1_565 S
C1917 C1901 1.349 . S
C1917 H1909 0.950 . S
C1917 C1915 1.327 . S
C1918 C1906 1.349 1_565 S
C1918 H1912 0.950 . S
C1918 C1919 1.327 . S
C1919 H1913 0.950 . S
C1919 C1918 1.327 . S
C1919 C1923 1.429 1_565 S
C1920 C1903 1.574 . S
C1920 H1914 0.949 . S
C1920 C1924 1.368 . S
C1921 C1902 1.429 1_545 S
C1921 C1915 1.429 . S
C1921 C1922 1.523 . S
C1922 C1903 1.368 . S
C1922 C1916 1.368 1_545 S
C1922 C1921 1.523 . S
C1923 C1907 1.429 . S
C1923 C1919 1.429 1_545 S
C1923 C1924 1.523 . S
C1924 C1908 1.368 1_545 S
C1924 C1920 1.368 . S
C1924 C1923 1.523 . S
H1925 C1900 0.945 . S
H1926 C1902 0.950 . S
H1927 C1903 0.949 . S
H1928 C1905 0.950 . S
H1929 C1907 0.950 . S
C1930 C1931 1.349 . S
C1930 C1932 1.327 . S
C1930 H1955 0.950 . S
C1931 C1930 1.349 . S
C1931 C1947 1.349 . S
C1932 C1930 1.327 . S
C1932 C1951 1.429 . S
C1932 H1956 0.950 . S
C1933 C1950 1.574 . S
C1933 C1952 1.368 . S
C1933 H1957 0.949 . S
H1934 C1938 0.949 . S
C1935 C1936 1.349 . S
C1935 C1937 1.327 . S
C1935 H1958 0.950 . S
C1936 C1935 1.349 . S
C1936 C1948 1.349 . S
C1937 C1935 1.327 . S
C1937 C1953 1.429 . S
C1937 H1959 0.950 . S
C1938 H1934 0.949 . S
C1938 C1946 1.574 . S
C1938 C1954 1.368 . S
H1939 C1947 0.950 . S
H1940 C1945 0.950 . S
H1941 C1946 0.949 . S
H1942 C1948 0.950 . S
H1943 C1949 0.950 . S
H1944 C1950 0.949 . S
C1945 H1940 0.950 . S
C1945 C1947 1.327 . S
C1945 C1951 1.429 . S
C1946 C1938 1.574 . S
C1946 H1941 0.949 . S
C1946 C1952 1.368 . S
C1947 C1931 1.349 . S
C1947 H1939 0.950 . S
C1947 C1945 1.327 . S
C1948 C1936 1.349 . S
C1948 H1942 0.950 . S
C1948 C1949 1.327 . S
C1949 H1943 0.950 . S
C1949 C1948 1.327 . S
C1949 C1953 1.429 . S
C1950 C1933 1.574 . S
C1950 H1944 0.949 . S
C1950 C1954 1.368 . S
C1951 C1932 1.429 . S
C1951 C1945 1.429 . S
C1951 C1952 1.523 . S
C1952 C1933 1.368 . S
C1952 C1946 1.368 . S
C1952 C1951 1.523 . S
C1953 C1937 1.429 . S
C1953 C1949 1.429 . S
C1953 C1954 1.523 . S
C1954 C1938 1.368 . S
C1954 C1950 1.368 . S
C1954 C1953 1.523 . S
H1955 C1930 0.950 . S
H1956 C1932 0.950 . S
H1957 C1933 0.949 . S
H1958 C1935 0.950 . S
H1959 C1937 0.950 . S
C1960 C1961 1.349 1_565 S
C1960 C1962 1.327 . S
C1960 H1985 0.950 . S
C1961 C1960 1.349 1_545 S
C1961 C1977 1.349 . S
C1962 C1960 1.327 . S
C1962 C1981 1.434 . S
C1962 H1986 0.950 . S
C1963 C1980 1.574 . S
C1963 C1982 1.368 1_545 S
C1963 H1987 0.949 . S
H1964 C1968 0.949 . S
C1965 C1966 1.335 1_545 S
C1965 C1967 1.329 . S
C1965 H1988 0.962 1_655 S
C1966 C1965 1.335 1_565 S
C1966 C1978 1.349 . S
C1967 C1965 1.329 . S
C1967 C1983 1.429 1_545 S
C1967 H1989 0.950 . S
C1968 H1964 0.949 . S
C1968 C1976 1.574 . S
C1968 C1984 1.368 . S
H1969 C1977 0.950 . S
H1970 C1975 0.950 . S
H1971 C1976 0.949 . S
H1972 C1978 0.950 . S
H1973 C1979 0.950 . S
H1974 C1980 0.949 . S
C1975 H1970 0.950 . S
C1975 C1977 1.327 . S
C1975 C1981 1.422 1_545 S
C1976 C1968 1.574 . S
C1976 H1971 0.949 . S
C1976 C1982 1.368 . S
C1977 C1961 1.349 . S
C1977 H1969 0.950 . S
C1977 C1975 1.327 . S
C1978 C1966 1.349 . S
C1978 H1972 0.950 . S
C1978 C1979 1.327 . S
C1979 H1973 0.950 . S
C1979 C1978 1.327 . S
C1979 C1983 1.429 . S
C1980 C1963 1.574 . S
C1980 H1974 0.949 . S
C1980 C1984 1.368 1_545 S
C1981 C1962 1.434 . S
C1981 C1975 1.422 1_565 S
C1981 C1982 1.524 . S
C1982 C1963 1.368 1_565 S
C1982 C1976 1.368 . S
C1982 C1981 1.524 . S
C1983 C1967 1.429 1_565 S
C1983 C1979 1.429 . S
C1983 C1984 1.523 . S
C1984 C1968 1.368 . S
C1984 C1980 1.368 1_565 S
C1984 C1983 1.523 . S
H1985 C1960 0.950 . S
H1986 C1962 0.950 . S
H1987 C1963 0.949 . S
H1988 C1965 0.962 1_455 S
H1989 C1967 0.950 . S
C1990 C1991 1.349 . S
C1990 C1992 1.327 . S
C1990 H2015 0.950 . S
C1991 C1990 1.349 . S
C1991 C2007 1.349 . S
C1992 C1990 1.327 . S
C1992 C2011 1.429 . S
C1992 H2016 0.950 . S
C1993 C2010 1.574 . S
C1993 C2012 1.368 . S
C1993 H2017 0.949 . S
H1994 C1998 0.949 . S
C1995 C1996 1.349 . S
C1995 C1997 1.327 . S
C1995 H2018 0.950 . S
C1996 C1995 1.349 . S
C1996 C2008 1.349 . S
C1997 C1995 1.327 . S
C1997 C2013 1.429 . S
C1997 H2019 0.950 . S
C1998 H1994 0.949 . S
C1998 C2006 1.574 . S
C1998 C2014 1.368 . S
H1999 C2007 0.950 . S
H2000 C2005 0.950 . S
H2001 C2006 0.949 . S
H2002 C2008 0.950 . S
H2003 C2009 0.950 . S
H2004 C2010 0.949 . S
C2005 H2000 0.950 . S
C2005 C2007 1.327 . S
C2005 C2011 1.429 . S
C2006 C1998 1.574 . S
C2006 H2001 0.949 . S
C2006 C2012 1.368 . S
C2007 C1991 1.349 . S
C2007 H1999 0.950 . S
C2007 C2005 1.327 . S
C2008 C1996 1.349 . S
C2008 H2002 0.950 . S
C2008 C2009 1.327 . S
C2009 H2003 0.950 . S
C2009 C2008 1.327 . S
C2009 C2013 1.429 . S
C2010 C1993 1.574 . S
C2010 H2004 0.949 . S
C2010 C2014 1.368 . S
C2011 C1992 1.429 . S
C2011 C2005 1.429 . S
C2011 C2012 1.523 . S
C2012 C1993 1.368 . S
C2012 C2006 1.368 . S
C2012 C2011 1.523 . S
C2013 C1997 1.429 . S
C2013 C2009 1.429 . S
C2013 C2014 1.523 . S
C2014 C1998 1.368 . S
C2014 C2010 1.368 . S
C2014 C2013 1.523 . S
H2015 C1990 0.950 . S
H2016 C1992 0.950 . S
H2017 C1993 0.949 . S
H2018 C1995 0.950 . S
H2019 C1997 0.950 . S
C2020 C2021 1.349 . S
C2020 C2022 1.327 . S
C2020 H2045 0.950 . S
C2021 C2020 1.349 . S
C2021 C2037 1.349 . S
C2022 C2020 1.327 . S
C2022 C2041 1.429 . S
C2022 H2046 0.950 . S
C2023 C2040 1.574 . S
C2023 C2042 1.368 . S
C2023 H2047 0.949 . S
H2024 C2028 0.949 . S
C2025 C2026 1.349 . S
C2025 C2027 1.327 . S
C2025 H2048 0.950 . S
C2026 C2025 1.349 . S
C2026 C2038 1.349 . S
C2027 C2025 1.327 . S
C2027 C2043 1.429 . S
C2027 H2049 0.950 . S
C2028 H2024 0.949 . S
C2028 C2036 1.574 . S
C2028 C2044 1.368 . S
H2029 C2037 0.950 1_565 S
H2030 C2035 0.940 1_565 S
H2031 C2036 0.949 . S
H2032 C2038 0.950 . S
H2033 C2039 0.950 . S
H2034 C2040 0.949 . S
C2035 H2030 0.940 1_545 S
C2035 C2037 1.327 . S
C2035 C2041 1.429 . S
C2036 C2028 1.574 . S
C2036 H2031 0.949 . S
C2036 C2042 1.368 . S
C2037 C2021 1.349 . S
C2037 H2029 0.950 1_545 S
C2037 C2035 1.327 . S
C2038 C2026 1.349 . S
C2038 H2032 0.950 . S
C2038 C2039 1.327 . S
C2039 H2033 0.950 . S
C2039 C2038 1.327 . S
C2039 C2043 1.429 . S
C2040 C2023 1.574 . S
C2040 H2034 0.949 . S
C2040 C2044 1.368 . S
C2041 C2022 1.429 . S
C2041 C2035 1.429 . S
C2041 C2042 1.523 . S
C2042 C2023 1.368 . S
C2042 C2036 1.368 . S
C2042 C2041 1.523 . S
C2043 C2027 1.429 . S
C2043 C2039 1.429 . S
C2043 C2044 1.523 . S
C2044 C2028 1.368 . S
C2044 C2040 1.368 . S
C2044 C2043 1.523 . S
H2045 C2020 0.950 . S
H2046 C2022 0.950 . S
H2047 C2023 0.949 . S
H2048 C2025 0.950 . S
H2049 C2027 0.950 . S
C2050 C2051 1.349 . S
C2050 C2052 1.327 . S
C2050 H2075 0.950 . S
C2051 C2050 1.349 . S
C2051 C2067 1.349 . S
C2052 C2050 1.327 . S
C2052 C2071 1.429 . S
C2052 H2076 0.950 . S
C2053 C2070 1.574 . S
C2053 C2072 1.368 . S
C2053 H2077 0.949 . S
H2054 C2058 0.949 . S
C2055 C2056 1.349 . S
C2055 C2057 1.327 . S
C2055 H2078 0.950 . S
C2056 C2055 1.349 . S
C2056 C2068 1.349 . S
C2057 C2055 1.327 . S
C2057 C2073 1.429 . S
C2057 H2079 0.950 . S
C2058 H2054 0.949 . S
C2058 C2066 1.574 . S
C2058 C2074 1.368 . S
H2059 C2067 0.950 . S
H2060 C2065 0.950 . S
H2061 C2066 0.949 . S
H2062 C2068 0.950 . S
H2063 C2069 0.950 . S
H2064 C2070 0.949 . S
C2065 H2060 0.950 . S
C2065 C2067 1.327 . S
C2065 C2071 1.429 . S
C2066 C2058 1.574 . S
C2066 H2061 0.949 . S
C2066 C2072 1.368 . S
C2067 C2051 1.349 . S
C2067 H2059 0.950 . S
C2067 C2065 1.327 . S
C2068 C2056 1.349 . S
C2068 H2062 0.950 . S
C2068 C2069 1.327 . S
C2069 H2063 0.950 . S
C2069 C2068 1.327 . S
C2069 C2073 1.429 . S
C2070 C2053 1.574 . S
C2070 H2064 0.949 . S
C2070 C2074 1.368 . S
C2071 C2052 1.429 . S
C2071 C2065 1.429 . S
C2071 C2072 1.523 . S
C2072 C2053 1.368 . S
C2072 C2066 1.368 . S
C2072 C2071 1.523 . S
C2073 C2057 1.429 . S
C2073 C2069 1.429 . S
C2073 C2074 1.523 . S
C2074 C2058 1.368 . S
C2074 C2070 1.368 . S
C2074 C2073 1.523 . S
H2075 C2050 0.950 . S
H2076 C2052 0.950 . S
H2077 C2053 0.949 . S
H2078 C2055 0.950 . S
H2079 C2057 0.950 . S
C2080 C2081 1.349 . S
C2080 C2082 1.327 . S
C2080 H2105 0.950 . S
C2081 C2080 1.349 . S
C2081 C2097 1.349 . S
C2082 C2080 1.327 . S
C2082 C2101 1.429 . S
C2082 H2106 0.950 . S
C2083 C2100 1.574 . S
C2083 C2102 1.368 . S
C2083 H2107 0.949 . S
H2084 C2088 0.949 . S
C2085 C2086 1.349 . S
C2085 C2087 1.327 . S
C2085 H2108 0.950 . S
C2086 C2085 1.349 . S
C2086 C2098 1.373 . S
C2087 C2085 1.327 . S
C2087 C2103 1.429 . S
C2087 H2109 0.950 . S
C2088 H2084 0.949 . S
C2088 C2096 1.574 . S
C2088 C2104 1.368 . S
H2089 C2097 0.950 . S
H2090 C2095 0.950 . S
H2091 C2096 0.949 . S
H2092 C2098 0.914 1_545 S
H2093 C2099 0.950 1_545 S
H2094 C2100 0.949 . S
C2095 H2090 0.950 . S
C2095 C2097 1.327 . S
C2095 C2101 1.429 . S
C2096 C2088 1.574 . S
C2096 H2091 0.949 . S
C2096 C2102 1.368 . S
C2097 C2081 1.349 . S
C2097 H2089 0.950 . S
C2097 C2095 1.327 . S
C2098 C2086 1.373 . S
C2098 H2092 0.914 1_565 S
C2098 C2099 1.340 . S
C2099 H2093 0.950 1_565 S
C2099 C2098 1.340 . S
C2099 C2103 1.429 . S
C2100 C2083 1.574 . S
C2100 H2094 0.949 . S
C2100 C2104 1.368 . S
C2101 C2082 1.429 . S
C2101 C2095 1.429 . S
C2101 C2102 1.523 . S
C2102 C2083 1.368 . S
C2102 C2096 1.368 . S
C2102 C2101 1.523 . S
C2103 C2087 1.429 . S
C2103 C2099 1.429 . S
C2103 C2104 1.523 . S
C2104 C2088 1.368 . S
C2104 C2100 1.368 . S
C2104 C2103 1.523 . S
H2105 C2080 0.950 . S
H2106 C2082 0.950 . S
H2107 C2083 0.949 . S
H2108 C2085 0.950 . S
H2109 C2087 0.950 . S
C2110 C2111 1.349 . S
C2110 C2112 1.327 . S
C2110 H2135 0.950 . S
C2111 C2110 1.349 . S
C2111 C2127 1.349 1_554 S
C2112 C2110 1.327 . S
C2112 C2131 1.429 . S
C2112 H2136 0.950 . S
C2113 C2130 1.574 . S
C2113 C2132 1.368 1_556 S
C2113 H2137 0.949 . S
H2114 C2118 0.949 . S
C2115 C2116 1.349 1_556 S
C2115 C2117 1.327 . S
C2115 H2138 0.950 . S
C2116 C2115 1.349 1_554 S
C2116 C2128 1.349 . S
C2117 C2115 1.327 . S
C2117 C2133 1.429 1_556 S
C2117 H2139 0.950 . S
C2118 H2114 0.949 . S
C2118 C2126 1.574 . S
C2118 C2134 1.368 . S
H2119 C2127 0.950 . S
H2120 C2125 0.950 . S
H2121 C2126 0.949 . S
H2122 C2128 0.950 . S
H2123 C2129 0.950 . S
H2124 C2130 0.949 . S
C2125 H2120 0.950 . S
C2125 C2127 1.327 . S
C2125 C2131 1.429 1_556 S
C2126 C2118 1.574 . S
C2126 H2121 0.949 . S
C2126 C2132 1.368 . S
C2127 C2111 1.349 1_556 S
C2127 H2119 0.950 . S
C2127 C2125 1.327 . S
C2128 C2116 1.349 . S
C2128 H2122 0.950 . S
C2128 C2129 1.327 . S
C2129 H2123 0.950 . S
C2129 C2128 1.327 . S
C2129 C2133 1.429 . S
C2130 C2113 1.574 . S
C2130 H2124 0.949 . S
C2130 C2134 1.368 1_556 S
C2131 C2112 1.429 . S
C2131 C2125 1.429 1_554 S
C2131 C2132 1.523 . S
C2132 C2113 1.368 1_554 S
C2132 C2126 1.368 . S
C2132 C2131 1.523 . S
C2133 C2117 1.429 1_554 S
C2133 C2129 1.429 . S
C2133 C2134 1.523 . S
C2134 C2118 1.368 . S
C2134 C2130 1.368 1_554 S
C2134 C2133 1.523 . S
H2135 C2110 0.950 . S
H2136 C2112 0.950 . S
H2137 C2113 0.949 . S
H2138 C2115 0.950 . S
H2139 C2117 0.950 . S
C2140 C2141 1.349 . S
C2140 C2142 1.327 . S
C2140 H2165 0.950 . S
C2141 C2140 1.349 . S
C2141 C2157 1.349 . S
C2142 C2140 1.327 . S
C2142 C2161 1.429 . S
C2142 H2166 0.950 . S
C2143 C2160 1.574 . S
C2143 C2162 1.368 . S
C2143 H2167 0.949 . S
H2144 C2148 0.949 . S
C2145 C2146 1.349 . S
C2145 C2147 1.327 . S
C2145 H2168 0.950 . S
C2146 C2145 1.349 . S
C2146 C2158 1.349 . S
C2147 C2145 1.327 . S
C2147 C2163 1.429 . S
C2147 H2169 0.950 . S
C2148 H2144 0.949 . S
C2148 C2156 1.574 . S
C2148 C2164 1.368 . S
H2149 C2157 0.950 . S
H2150 C2155 0.950 . S
H2151 C2156 0.949 . S
H2152 C2158 0.950 . S
H2153 C2159 0.950 . S
H2154 C2160 0.949 . S
C2155 H2150 0.950 . S
C2155 C2157 1.327 . S
C2155 C2161 1.429 . S
C2156 C2148 1.574 . S
C2156 H2151 0.949 . S
C2156 C2162 1.368 . S
C2157 C2141 1.349 . S
C2157 H2149 0.950 . S
C2157 C2155 1.327 . S
C2158 C2146 1.349 . S
C2158 H2152 0.950 . S
C2158 C2159 1.327 . S
C2159 H2153 0.950 . S
C2159 C2158 1.327 . S
C2159 C2163 1.429 . S
C2160 C2143 1.574 . S
C2160 H2154 0.949 . S
C2160 C2164 1.368 . S
C2161 C2142 1.429 . S
C2161 C2155 1.429 . S
C2161 C2162 1.523 . S
C2162 C2143 1.368 . S
C2162 C2156 1.368 . S
C2162 C2161 1.523 . S
C2163 C2147 1.429 . S
C2163 C2159 1.429 . S
C2163 C2164 1.523 . S
C2164 C2148 1.368 . S
C2164 C2160 1.368 . S
C2164 C2163 1.523 . S
H2165 C2140 0.950 . S
H2166 C2142 0.950 . S
H2167 C2143 0.949 . S
H2168 C2145 0.950 . S
H2169 C2147 0.950 . S
C2170 C2171 1.349 . S
C2170 C2172 1.327 . S
C2170 H2195 0.950 . S
C2171 C2170 1.349 . S
C2171 C2187 1.349 . S
C2172 C2170 1.327 . S
C2172 C2191 1.429 . S
C2172 H2196 0.950 . S
C2173 C2190 1.574 . S
C2173 C2192 1.368 . S
C2173 H2197 0.949 . S
H2174 C2178 0.949 . S
C2175 C2176 1.349 . S
C2175 C2177 1.327 . S
C2175 H2198 0.950 . S
C2176 C2175 1.349 . S
C2176 C2188 1.349 . S
C2177 C2175 1.327 . S
C2177 C2193 1.429 . S
C2177 H2199 0.950 . S
C2178 H2174 0.949 . S
C2178 C2186 1.574 . S
C2178 C2194 1.368 . S
H2179 C2187 0.950 . S
H2180 C2185 0.950 . S
H2181 C2186 0.949 . S
H2182 C2188 0.950 . S
H2183 C2189 0.950 . S
H2184 C2190 0.949 . S
C2185 H2180 0.950 . S
C2185 C2187 1.327 . S
C2185 C2191 1.429 . S
C2186 C2178 1.574 . S
C2186 H2181 0.949 . S
C2186 C2192 1.368 . S
C2187 C2171 1.349 . S
C2187 H2179 0.950 . S
C2187 C2185 1.327 . S
C2188 C2176 1.349 . S
C2188 H2182 0.950 . S
C2188 C2189 1.327 . S
C2189 H2183 0.950 . S
C2189 C2188 1.327 . S
C2189 C2193 1.429 . S
C2190 C2173 1.574 . S
C2190 H2184 0.949 . S
C2190 C2194 1.368 . S
C2191 C2172 1.429 . S
C2191 C2185 1.429 . S
C2191 C2192 1.523 . S
C2192 C2173 1.368 . S
C2192 C2186 1.368 . S
C2192 C2191 1.523 . S
C2193 C2177 1.429 . S
C2193 C2189 1.429 . S
C2193 C2194 1.523 . S
C2194 C2178 1.368 . S
C2194 C2190 1.368 . S
C2194 C2193 1.523 . S
H2195 C2170 0.950 . S
H2196 C2172 0.950 . S
H2197 C2173 0.949 . S
H2198 C2175 0.950 . S
H2199 C2177 0.950 . S
C2200 C2201 1.349 . S
C2200 C2202 1.327 . S
C2200 H2225 0.950 . S
C2201 C2200 1.349 . S
C2201 C2217 1.349 . S
C2202 C2200 1.327 . S
C2202 C2221 1.429 . S
C2202 H2226 0.950 . S
C2203 C2220 1.574 . S
C2203 C2222 1.368 . S
C2203 H2227 0.949 . S
H2204 C2208 0.949 . S
C2205 C2206 1.349 . S
C2205 C2207 1.327 . S
C2205 H2228 0.950 . S
C2206 C2205 1.349 . S
C2206 C2218 1.349 . S
C2207 C2205 1.327 . S
C2207 C2223 1.429 . S
C2207 H2229 0.950 . S
C2208 H2204 0.949 . S
C2208 C2216 1.574 . S
C2208 C2224 1.368 . S
H2209 C2217 0.950 . S
H2210 C2215 0.950 . S
H2211 C2216 0.949 . S
H2212 C2218 0.950 . S
H2213 C2219 0.950 . S
H2214 C2220 0.949 . S
C2215 H2210 0.950 . S
C2215 C2217 1.327 . S
C2215 C2221 1.429 . S
C2216 C2208 1.574 . S
C2216 H2211 0.949 . S
C2216 C2222 1.368 . S
C2217 C2201 1.349 . S
C2217 H2209 0.950 . S
C2217 C2215 1.327 . S
C2218 C2206 1.349 . S
C2218 H2212 0.950 . S
C2218 C2219 1.327 . S
C2219 H2213 0.950 . S
C2219 C2218 1.327 . S
C2219 C2223 1.429 . S
C2220 C2203 1.574 . S
C2220 H2214 0.949 . S
C2220 C2224 1.368 . S
C2221 C2202 1.429 . S
C2221 C2215 1.429 . S
C2221 C2222 1.523 . S
C2222 C2203 1.368 . S
C2222 C2216 1.368 . S
C2222 C2221 1.523 . S
C2223 C2207 1.429 . S
C2223 C2219 1.429 . S
C2223 C2224 1.523 . S
C2224 C2208 1.368 . S
C2224 C2220 1.368 . S
C2224 C2223 1.523 . S
H2225 C2200 0.950 . S
H2226 C2202 0.950 . S
H2227 C2203 0.949 . S
H2228 C2205 0.950 . S
H2229 C2207 0.950 . S
C2230 C2231 1.349 . S
C2230 C2232 1.327 . S
C2230 H2255 0.950 . S
C2231 C2230 1.349 . S
C2231 C2247 1.349 . S
C2232 C2230 1.327 . S
C2232 C2251 1.429 . S
C2232 H2256 0.950 . S
C2233 C2250 1.574 . S
C2233 C2252 1.368 . S
C2233 H2257 0.949 . S
H2234 C2238 0.949 . S
C2235 C2236 1.349 . S
C2235 C2237 1.327 . S
C2235 H2258 0.950 . S
C2236 C2235 1.349 . S
C2236 C2248 1.349 . S
C2237 C2235 1.327 . S
C2237 C2253 1.429 . S
C2237 H2259 0.950 . S
C2238 H2234 0.949 . S
C2238 C2246 1.574 . S
C2238 C2254 1.368 . S
H2239 C2247 0.950 . S
H2240 C2245 0.950 . S
H2241 C2246 0.949 . S
H2242 C2248 0.950 . S
H2243 C2249 0.950 . S
H2244 C2250 0.949 . S
C2245 H2240 0.950 . S
C2245 C2247 1.327 . S
C2245 C2251 1.429 . S
C2246 C2238 1.574 . S
C2246 H2241 0.949 . S
C2246 C2252 1.368 . S
C2247 C2231 1.349 . S
C2247 H2239 0.950 . S
C2247 C2245 1.327 . S
C2248 C2236 1.349 . S
C2248 H2242 0.950 . S
C2248 C2249 1.327 . S
C2249 H2243 0.950 . S
C2249 C2248 1.327 . S
C2249 C2253 1.429 . S
C2250 C2233 1.574 . S
C2250 H2244 0.949 . S
C2250 C2254 1.368 . S
C2251 C2232 1.429 . S
C2251 C2245 1.429 . S
C2251 C2252 1.523 . S
C2252 C2233 1.368 . S
C2252 C2246 1.368 . S
C2252 C2251 1.523 . S
C2253 C2237 1.429 . S
C2253 C2249 1.429 . S
C2253 C2254 1.523 . S
C2254 C2238 1.368 . S
C2254 C2250 1.368 . S
C2254 C2253 1.523 . S
H2255 C2230 0.950 . S
H2256 C2232 0.950 . S
H2257 C2233 0.949 . S
H2258 C2235 0.950 . S
H2259 C2237 0.950 . S
C2260 C2261 1.349 . S
C2260 C2262 1.327 . S
C2260 H2285 0.950 . S
C2261 C2260 1.349 . S
C2261 C2277 1.349 . S
C2262 C2260 1.327 . S
C2262 C2281 1.429 . S
C2262 H2286 0.950 . S
C2263 C2280 1.574 . S
C2263 C2282 1.368 . S
C2263 H2287 0.949 . S
H2264 C2268 0.949 . S
C2265 C2266 1.349 . S
C2265 C2267 1.327 . S
C2265 H2288 0.950 . S
C2266 C2265 1.349 . S
C2266 C2278 1.349 . S
C2267 C2265 1.327 . S
C2267 C2283 1.429 . S
C2267 H2289 0.950 . S
C2268 H2264 0.949 . S
C2268 C2276 1.574 . S
C2268 C2284 1.368 . S
H2269 C2277 0.950 . S
H2270 C2275 0.950 . S
H2271 C2276 0.949 . S
H2272 C2278 0.950 . S
H2273 C2279 0.950 . S
H2274 C2280 0.949 . S
C2275 H2270 0.950 . S
C2275 C2277 1.327 . S
C2275 C2281 1.429 . S
C2276 C2268 1.574 . S
C2276 H2271 0.949 . S
C2276 C2282 1.368 . S
C2277 C2261 1.349 . S
C2277 H2269 0.950 . S
C2277 C2275 1.327 . S
C2278 C2266 1.349 . S
C2278 H2272 0.950 . S
C2278 C2279 1.327 . S
C2279 H2273 0.950 . S
C2279 C2278 1.327 . S
C2279 C2283 1.429 . S
C2280 C2263 1.574 . S
C2280 H2274 0.949 . S
C2280 C2284 1.368 . S
C2281 C2262 1.429 . S
C2281 C2275 1.429 . S
C2281 C2282 1.523 . S
C2282 C2263 1.368 . S
C2282 C2276 1.368 . S
C2282 C2281 1.523 . S
C2283 C2267 1.429 . S
C2283 C2279 1.429 . S
C2283 C2284 1.523 . S
C2284 C2268 1.368 . S
C2284 C2280 1.368 . S
C2284 C2283 1.523 . S
H2285 C2260 0.950 . S
H2286 C2262 0.950 . S
H2287 C2263 0.949 . S
H2288 C2265 0.950 . S
H2289 C2267 0.950 . S
C2290 C2291 1.349 . S
C2290 C2292 1.327 . S
C2290 H2315 0.950 . S
C2291 C2290 1.349 . S
C2291 C2307 1.349 . S
C2292 C2290 1.327 . S
C2292 C2311 1.429 . S
C2292 H2316 0.950 . S
C2293 C2310 1.574 . S
C2293 C2312 1.368 . S
C2293 H2317 0.949 . S
H2294 C2298 0.949 . S
C2295 C2296 1.349 . S
C2295 C2297 1.327 . S
C2295 H2318 0.950 . S
C2296 C2295 1.349 . S
C2296 C2308 1.349 . S
C2297 C2295 1.327 . S
C2297 C2313 1.429 . S
C2297 H2319 0.950 . S
C2298 H2294 0.949 . S
C2298 C2306 1.574 . S
C2298 C2314 1.368 . S
H2299 C2307 0.950 . S
H2300 C2305 0.950 . S
H2301 C2306 0.949 . S
H2302 C2308 0.950 . S
H2303 C2309 0.950 . S
H2304 C2310 0.949 . S
C2305 H2300 0.950 . S
C2305 C2307 1.327 . S
C2305 C2311 1.429 . S
C2306 C2298 1.574 . S
C2306 H2301 0.949 . S
C2306 C2312 1.368 . S
C2307 C2291 1.349 . S
C2307 H2299 0.950 . S
C2307 C2305 1.327 . S
C2308 C2296 1.349 . S
C2308 H2302 0.950 . S
C2308 C2309 1.327 . S
C2309 H2303 0.950 . S
C2309 C2308 1.327 . S
C2309 C2313 1.429 . S
C2310 C2293 1.574 . S
C2310 H2304 0.949 . S
C2310 C2314 1.368 . S
C2311 C2292 1.429 . S
C2311 C2305 1.429 . S
C2311 C2312 1.523 . S
C2312 C2293 1.368 . S
C2312 C2306 1.368 . S
C2312 C2311 1.523 . S
C2313 C2297 1.429 . S
C2313 C2309 1.429 . S
C2313 C2314 1.523 . S
C2314 C2298 1.368 . S
C2314 C2310 1.368 . S
C2314 C2313 1.523 . S
H2315 C2290 0.950 . S
H2316 C2292 0.950 . S
H2317 C2293 0.949 . S
H2318 C2295 0.950 . S
H2319 C2297 0.950 . S
C2320 C2321 1.349 . S
C2320 C2322 1.327 . S
C2320 H2345 0.950 . S
C2321 C2320 1.349 . S
C2321 C2337 1.349 . S
C2322 C2320 1.327 . S
C2322 C2341 1.429 . S
C2322 H2346 0.950 . S
C2323 C2340 1.574 . S
C2323 C2342 1.368 . S
C2323 H2347 0.949 . S
H2324 C2328 0.949 . S
C2325 C2326 1.349 . S
C2325 C2327 1.327 . S
C2325 H2348 0.950 . S
C2326 C2325 1.349 . S
C2326 C2338 1.349 . S
C2327 C2325 1.327 . S
C2327 C2343 1.429 . S
C2327 H2349 0.950 . S
C2328 H2324 0.949 . S
C2328 C2336 1.574 . S
C2328 C2344 1.368 . S
H2329 C2337 0.950 . S
H2330 C2335 0.950 . S
H2331 C2336 0.949 . S
H2332 C2338 0.950 . S
H2333 C2339 0.950 . S
H2334 C2340 0.949 . S
C2335 H2330 0.950 . S
C2335 C2337 1.327 . S
C2335 C2341 1.429 . S
C2336 C2328 1.574 . S
C2336 H2331 0.949 . S
C2336 C2342 1.368 . S
C2337 C2321 1.349 . S
C2337 H2329 0.950 . S
C2337 C2335 1.327 . S
C2338 C2326 1.349 . S
C2338 H2332 0.950 . S
C2338 C2339 1.327 . S
C2339 H2333 0.950 . S
C2339 C2338 1.327 . S
C2339 C2343 1.429 . S
C2340 C2323 1.574 . S
C2340 H2334 0.949 . S
C2340 C2344 1.368 . S
C2341 C2322 1.429 . S
C2341 C2335 1.429 . S
C2341 C2342 1.523 . S
C2342 C2323 1.368 . S
C2342 C2336 1.368 . S
C2342 C2341 1.523 . S
C2343 C2327 1.429 . S
C2343 C2339 1.429 . S
C2343 C2344 1.523 . S
C2344 C2328 1.368 . S
C2344 C2340 1.368 . S
C2344 C2343 1.523 . S
H2345 C2320 0.950 . S
H2346 C2322 0.950 . S
H2347 C2323 0.949 . S
H2348 C2325 0.950 . S
H2349 C2327 0.950 . S
C2350 C2351 1.349 . S
C2350 C2352 1.327 . S
C2350 H2375 0.950 . S
C2351 C2350 1.349 . S
C2351 C2367 1.349 . S
C2352 C2350 1.327 . S
C2352 C2371 1.429 . S
C2352 H2376 0.950 . S
C2353 C2370 1.574 . S
C2353 C2372 1.368 . S
C2353 H2377 0.949 . S
H2354 C2358 0.949 . S
C2355 C2356 1.349 . S
C2355 C2357 1.327 . S
C2355 H2378 0.950 . S
C2356 C2355 1.349 . S
C2356 C2368 1.349 . S
C2357 C2355 1.327 . S
C2357 C2373 1.429 . S
C2357 H2379 0.950 . S
C2358 H2354 0.949 . S
C2358 C2366 1.574 . S
C2358 C2374 1.368 . S
H2359 C2367 0.950 . S
H2360 C2365 0.950 . S
H2361 C2366 0.949 . S
H2362 C2368 0.950 . S
H2363 C2369 0.950 . S
H2364 C2370 0.949 . S
C2365 H2360 0.950 . S
C2365 C2367 1.327 . S
C2365 C2371 1.429 . S
C2366 C2358 1.574 . S
C2366 H2361 0.949 . S
C2366 C2372 1.368 . S
C2367 C2351 1.349 . S
C2367 H2359 0.950 . S
C2367 C2365 1.327 . S
C2368 C2356 1.349 . S
C2368 H2362 0.950 . S
C2368 C2369 1.327 . S
C2369 H2363 0.950 . S
C2369 C2368 1.327 . S
C2369 C2373 1.429 . S
C2370 C2353 1.574 . S
C2370 H2364 0.949 . S
C2370 C2374 1.368 . S
C2371 C2352 1.429 . S
C2371 C2365 1.429 . S
C2371 C2372 1.523 . S
C2372 C2353 1.368 . S
C2372 C2366 1.368 . S
C2372 C2371 1.523 . S
C2373 C2357 1.429 . S
C2373 C2369 1.429 . S
C2373 C2374 1.523 . S
C2374 C2358 1.368 . S
C2374 C2370 1.368 . S
C2374 C2373 1.523 . S
H2375 C2350 0.950 . S
H2376 C2352 0.950 . S
H2377 C2353 0.949 . S
H2378 C2355 0.950 . S
H2379 C2357 0.950 . S
C2380 C2381 1.349 . S
C2380 C2382 1.327 . S
C2380 H2405 0.950 . S
C2381 C2380 1.349 . S
C2381 C2397 1.349 . S
C2382 C2380 1.327 . S
C2382 C2401 1.429 . S
C2382 H2406 0.950 . S
C2383 C2400 1.574 . S
C2383 C2402 1.368 . S
C2383 H2407 0.949 . S
H2384 C2388 0.949 . S
C2385 C2386 1.349 . S
C2385 C2387 1.327 . S
C2385 H2408 0.950 . S
C2386 C2385 1.349 . S
C2386 C2398 1.349 . S
C2387 C2385 1.327 . S
C2387 C2403 1.429 . S
C2387 H2409 0.950 . S
C2388 H2384 0.949 . S
C2388 C2396 1.574 . S
C2388 C2404 1.368 . S
H2389 C2397 0.950 . S
H2390 C2395 0.950 . S
H2391 C2396 0.949 . S
H2392 C2398 0.950 . S
H2393 C2399 0.950 . S
H2394 C2400 0.949 . S
C2395 H2390 0.950 . S
C2395 C2397 1.327 . S
C2395 C2401 1.429 . S
C2396 C2388 1.574 . S
C2396 H2391 0.949 . S
C2396 C2402 1.368 . S
C2397 C2381 1.349 . S
C2397 H2389 0.950 . S
C2397 C2395 1.327 . S
C2398 C2386 1.349 . S
C2398 H2392 0.950 . S
C2398 C2399 1.327 . S
C2399 H2393 0.950 . S
C2399 C2398 1.327 . S
C2399 C2403 1.429 . S
C2400 C2383 1.574 . S
C2400 H2394 0.949 . S
C2400 C2404 1.368 . S
C2401 C2382 1.429 . S
C2401 C2395 1.429 . S
C2401 C2402 1.523 . S
C2402 C2383 1.368 . S
C2402 C2396 1.368 . S
C2402 C2401 1.523 . S
C2403 C2387 1.429 . S
C2403 C2399 1.429 . S
C2403 C2404 1.523 . S
C2404 C2388 1.368 . S
C2404 C2400 1.368 . S
C2404 C2403 1.523 . S
H2405 C2380 0.950 . S
H2406 C2382 0.950 . S
H2407 C2383 0.949 . S
H2408 C2385 0.950 . S
H2409 C2387 0.950 . S
C2410 C2411 1.349 . S
C2410 C2412 1.327 . S
C2410 H2435 0.950 . S
C2411 C2410 1.349 . S
C2411 C2427 1.349 . S
C2412 C2410 1.327 . S
C2412 C2431 1.429 . S
C2412 H2436 0.950 . S
C2413 C2430 1.574 . S
C2413 C2432 1.368 . S
C2413 H2437 0.949 . S
H2414 C2418 0.949 . S
C2415 C2416 1.349 . S
C2415 C2417 1.327 . S
C2415 H2438 0.950 . S
C2416 C2415 1.349 . S
C2416 C2428 1.349 . S
C2417 C2415 1.327 . S
C2417 C2433 1.429 . S
C2417 H2439 0.950 . S
C2418 H2414 0.949 . S
C2418 C2426 1.574 . S
C2418 C2434 1.368 . S
H2419 C2427 0.950 . S
H2420 C2425 0.950 . S
H2421 C2426 0.949 . S
H2422 C2428 0.950 . S
H2423 C2429 0.950 . S
H2424 C2430 0.949 . S
C2425 H2420 0.950 . S
C2425 C2427 1.327 . S
C2425 C2431 1.429 . S
C2426 C2418 1.574 . S
C2426 H2421 0.949 . S
C2426 C2432 1.368 . S
C2427 C2411 1.349 . S
C2427 H2419 0.950 . S
C2427 C2425 1.327 . S
C2428 C2416 1.349 . S
C2428 H2422 0.950 . S
C2428 C2429 1.327 . S
C2429 H2423 0.950 . S
C2429 C2428 1.327 . S
C2429 C2433 1.429 . S
C2430 C2413 1.574 . S
C2430 H2424 0.949 . S
C2430 C2434 1.368 . S
C2431 C2412 1.429 . S
C2431 C2425 1.429 . S
C2431 C2432 1.523 . S
C2432 C2413 1.368 . S
C2432 C2426 1.368 . S
C2432 C2431 1.523 . S
C2433 C2417 1.429 . S
C2433 C2429 1.429 . S
C2433 C2434 1.523 . S
C2434 C2418 1.368 . S
C2434 C2430 1.368 . S
C2434 C2433 1.523 . S
H2435 C2410 0.950 . S
H2436 C2412 0.950 . S
H2437 C2413 0.949 . S
H2438 C2415 0.950 . S
H2439 C2417 0.950 . S
C2440 C2441 1.349 . S
C2440 C2442 1.327 . S
C2440 H2465 0.950 . S
C2441 C2440 1.349 . S
C2441 C2457 1.349 . S
C2442 C2440 1.327 . S
C2442 C2461 1.429 . S
C2442 H2466 0.950 . S
C2443 C2460 1.574 . S
C2443 C2462 1.368 . S
C2443 H2467 0.949 . S
H2444 C2448 0.949 . S
C2445 C2446 1.349 . S
C2445 C2447 1.327 . S
C2445 H2468 0.950 . S
C2446 C2445 1.349 . S
C2446 C2458 1.349 . S
C2447 C2445 1.327 . S
C2447 C2463 1.429 . S
C2447 H2469 0.950 . S
C2448 H2444 0.949 . S
C2448 C2456 1.574 . S
C2448 C2464 1.368 . S
H2449 C2457 0.950 . S
H2450 C2455 0.950 . S
H2451 C2456 0.949 . S
H2452 C2458 0.950 1_554 S
H2453 C2459 0.950 . S
H2454 C2460 0.949 . S
C2455 H2450 0.950 . S
C2455 C2457 1.327 . S
C2455 C2461 1.429 . S
C2456 C2448 1.574 . S
C2456 H2451 0.949 . S
C2456 C2462 1.368 . S
C2457 C2441 1.349 . S
C2457 H2449 0.950 . S
C2457 C2455 1.327 . S
C2458 C2446 1.349 . S
C2458 H2452 0.950 1_556 S
C2458 C2459 1.327 . S
C2459 H2453 0.950 . S
C2459 C2458 1.327 . S
C2459 C2463 1.429 . S
C2460 C2443 1.574 . S
C2460 H2454 0.949 . S
C2460 C2464 1.368 . S
C2461 C2442 1.429 . S
C2461 C2455 1.429 . S
C2461 C2462 1.523 . S
C2462 C2443 1.368 . S
C2462 C2456 1.368 . S
C2462 C2461 1.523 . S
C2463 C2447 1.429 . S
C2463 C2459 1.429 . S
C2463 C2464 1.523 . S
C2464 C2448 1.368 . S
C2464 C2460 1.368 . S
C2464 C2463 1.523 . S
H2465 C2440 0.950 . S
H2466 C2442 0.950 . S
H2467 C2443 0.949 . S
H2468 C2445 0.950 . S
H2469 C2447 0.950 . S
C2470 C2471 1.349 . S
C2470 C2472 1.327 1_455 S
C2470 H2495 0.950 . S
C2471 C2470 1.349 . S
C2471 C2487 1.349 1_455 S
C2472 C2470 1.327 1_655 S
C2472 C2491 1.429 . S
C2472 H2496 0.950 . S
C2473 C2490 1.574 . S
C2473 C2492 1.368 . S
C2473 H2497 0.949 . S
H2474 C2478 0.949 . S
C2475 C2476 1.349 . S
C2475 C2477 1.327 . S
C2475 H2498 0.950 . S
C2476 C2475 1.349 . S
C2476 C2488 1.349 . S
C2477 C2475 1.327 . S
C2477 C2493 1.429 . S
C2477 H2499 0.950 . S
C2478 H2474 0.949 . S
C2478 C2486 1.574 . S
C2478 C2494 1.368 . S
H2479 C2487 0.950 . S
H2480 C2485 0.950 . S
H2481 C2486 0.949 . S
H2482 C2488 0.950 . S
H2483 C2489 0.950 . S
H2484 C2490 0.949 . S
C2485 H2480 0.950 . S
C2485 C2487 1.327 . S
C2485 C2491 1.429 . S
C2486 C2478 1.574 . S
C2486 H2481 0.949 . S
C2486 C2492 1.368 . S
C2487 C2471 1.349 1_655 S
C2487 H2479 0.950 . S
C2487 C2485 1.327 . S
C2488 C2476 1.349 . S
C2488 H2482 0.950 . S
C2488 C2489 1.327 . S
C2489 H2483 0.950 . S
C2489 C2488 1.327 . S
C2489 C2493 1.429 . S
C2490 C2473 1.574 . S
C2490 H2484 0.949 . S
C2490 C2494 1.368 . S
C2491 C2472 1.429 . S
C2491 C2485 1.429 . S
C2491 C2492 1.523 . S
C2492 C2473 1.368 . S
C2492 C2486 1.368 . S
C2492 C2491 1.523 . S
C2493 C2477 1.429 . S
C2493 C2489 1.429 . S
C2493 C2494 1.523 . S
C2494 C2478 1.368 . S
C2494 C2490 1.368 . S
C2494 C2493 1.523 . S
H2495 C2470 0.950 . S
H2496 C2472 0.950 . S
H2497 C2473 0.949 . S
H2498 C2475 0.950 . S
H2499 C2477 0.950 . S
C2500 C2501 1.349 . S
C2500 C2502 1.327 . S
C2500 H2525 0.950 . S
C2501 C2500 1.349 . S
C2501 C2517 1.349 . S
C2502 C2500 1.327 . S
C2502 C2521 1.429 . S
C2502 H2526 0.950 . S
C2503 C2520 1.574 . S
C2503 C2522 1.368 . S
C2503 H2527 0.949 . S
H2504 C2508 0.949 . S
C2505 C2506 1.349 . S
C2505 C2507 1.327 . S
C2505 H2528 0.950 . S
C2506 C2505 1.349 . S
C2506 C2518 1.349 . S
C2507 C2505 1.327 . S
C2507 C2523 1.429 . S
C2507 H2529 0.950 . S
C2508 H2504 0.949 . S
C2508 C2516 1.574 . S
C2508 C2524 1.368 . S
H2509 C2517 0.950 . S
H2510 C2515 0.950 . S
H2511 C2516 0.949 . S
H2512 C2518 0.950 . S
H2513 C2519 0.950 . S
H2514 C2520 0.949 . S
C2515 H2510 0.950 . S
C2515 C2517 1.327 . S
C2515 C2521 1.429 . S
C2516 C2508 1.574 . S
C2516 H2511 0.949 . S
C2516 C2522 1.368 . S
C2517 C2501 1.349 . S
C2517 H2509 0.950 . S
C2517 C2515 1.327 . S
C2518 C2506 1.349 . S
C2518 H2512 0.950 . S
C2518 C2519 1.327 . S
C2519 H2513 0.950 . S
C2519 C2518 1.327 . S
C2519 C2523 1.429 . S
C2520 C2503 1.574 . S
C2520 H2514 0.949 . S
C2520 C2524 1.368 . S
C2521 C2502 1.429 . S
C2521 C2515 1.429 . S
C2521 C2522 1.523 . S
C2522 C2503 1.368 . S
C2522 C2516 1.368 . S
C2522 C2521 1.523 . S
C2523 C2507 1.429 . S
C2523 C2519 1.429 . S
C2523 C2524 1.523 . S
C2524 C2508 1.368 . S
C2524 C2520 1.368 . S
C2524 C2523 1.523 . S
H2525 C2500 0.950 . S
H2526 C2502 0.950 . S
H2527 C2503 0.949 . S
H2528 C2505 0.950 . S
H2529 C2507 0.950 . S
C2530 C2531 1.349 . S
C2530 C2532 1.327 . S
C2530 H2555 0.950 . S
C2531 C2530 1.349 . S
C2531 C2547 1.349 . S
C2532 C2530 1.327 . S
C2532 C2551 1.429 . S
C2532 H2556 0.950 . S
C2533 C2550 1.574 . S
C2533 C2552 1.368 . S
C2533 H2557 0.949 . S
H2534 C2538 0.949 . S
C2535 C2536 1.349 . S
C2535 C2537 1.327 . S
C2535 H2558 0.950 . S
C2536 C2535 1.349 . S
C2536 C2548 1.349 . S
C2537 C2535 1.327 . S
C2537 C2553 1.429 . S
C2537 H2559 0.950 . S
C2538 H2534 0.949 . S
C2538 C2546 1.574 . S
C2538 C2554 1.368 . S
H2539 C2547 0.950 . S
H2540 C2545 0.950 . S
H2541 C2546 0.949 . S
H2542 C2548 0.950 . S
H2543 C2549 0.950 . S
H2544 C2550 0.949 . S
C2545 H2540 0.950 . S
C2545 C2547 1.327 . S
C2545 C2551 1.429 . S
C2546 C2538 1.574 . S
C2546 H2541 0.949 . S
C2546 C2552 1.368 . S
C2547 C2531 1.349 . S
C2547 H2539 0.950 . S
C2547 C2545 1.327 . S
C2548 C2536 1.349 . S
C2548 H2542 0.950 . S
C2548 C2549 1.327 . S
C2549 H2543 0.950 . S
C2549 C2548 1.327 . S
C2549 C2553 1.429 . S
C2550 C2533 1.574 . S
C2550 H2544 0.949 . S
C2550 C2554 1.368 . S
C2551 C2532 1.429 . S
C2551 C2545 1.429 . S
C2551 C2552 1.523 . S
C2552 C2533 1.368 . S
C2552 C2546 1.368 . S
C2552 C2551 1.523 . S
C2553 C2537 1.429 . S
C2553 C2549 1.429 . S
C2553 C2554 1.523 . S
C2554 C2538 1.368 . S
C2554 C2550 1.368 . S
C2554 C2553 1.523 . S
H2555 C2530 0.950 . S
H2556 C2532 0.950 . S
H2557 C2533 0.949 . S
H2558 C2535 0.950 . S
H2559 C2537 0.950 . S
C2560 C2561 1.349 . S
C2560 C2562 1.327 . S
C2560 H2585 0.950 . S
C2561 C2560 1.349 . S
C2561 C2577 1.349 . S
C2562 C2560 1.327 . S
C2562 C2581 1.429 . S
C2562 H2586 0.950 . S
C2563 C2580 1.574 . S
C2563 C2582 1.368 . S
C2563 H2587 0.949 . S
H2564 C2568 0.949 . S
C2565 C2566 1.349 . S
C2565 C2567 1.327 . S
C2565 H2588 0.950 . S
C2566 C2565 1.349 . S
C2566 C2578 1.349 . S
C2567 C2565 1.327 . S
C2567 C2583 1.429 . S
C2567 H2589 0.950 . S
C2568 H2564 0.949 . S
C2568 C2576 1.574 . S
C2568 C2584 1.368 . S
H2569 C2577 0.950 . S
H2570 C2575 0.950 . S
H2571 C2576 0.949 . S
H2572 C2578 0.950 . S
H2573 C2579 0.950 . S
H2574 C2580 0.949 . S
C2575 H2570 0.950 . S
C2575 C2577 1.327 . S
C2575 C2581 1.429 . S
C2576 C2568 1.574 . S
C2576 H2571 0.949 . S
C2576 C2582 1.368 . S
C2577 C2561 1.349 . S
C2577 H2569 0.950 . S
C2577 C2575 1.327 . S
C2578 C2566 1.349 . S
C2578 H2572 0.950 . S
C2578 C2579 1.327 . S
C2579 H2573 0.950 . S
C2579 C2578 1.327 . S
C2579 C2583 1.429 . S
C2580 C2563 1.574 . S
C2580 H2574 0.949 . S
C2580 C2584 1.368 . S
C2581 C2562 1.429 . S
C2581 C2575 1.429 . S
C2581 C2582 1.523 . S
C2582 C2563 1.368 . S
C2582 C2576 1.368 . S
C2582 C2581 1.523 . S
C2583 C2567 1.429 . S
C2583 C2579 1.429 . S
C2583 C2584 1.523 . S
C2584 C2568 1.368 . S
C2584 C2580 1.368 . S
C2584 C2583 1.523 . S
H2585 C2560 0.950 . S
H2586 C2562 0.950 . S
H2587 C2563 0.949 . S
H2588 C2565 0.950 . S
H2589 C2567 0.950 . S
C2590 C2591 1.349 1_556 S
C2590 C2592 1.327 . S
C2590 H2615 0.950 . S
C2591 C2590 1.349 1_554 S
C2591 C2607 1.349 . S
C2592 C2590 1.327 . S
C2592 C2611 1.429 . S
C2592 H2616 0.950 . S
C2593 C2610 1.574 . S
C2593 C2612 1.368 . S
C2593 H2617 0.949 . S
H2594 C2598 0.949 . S
C2595 C2596 1.349 . S
C2595 C2597 1.327 . S
C2595 H2618 0.950 . S
C2596 C2595 1.349 . S
C2596 C2608 1.349 . S
C2597 C2595 1.327 . S
C2597 C2613 1.429 . S
C2597 H2619 0.950 . S
C2598 H2594 0.949 . S
C2598 C2606 1.574 . S
C2598 C2614 1.368 . S
H2599 C2607 0.950 . S
H2600 C2605 0.950 . S
H2601 C2606 0.949 . S
H2602 C2608 0.950 . S
H2603 C2609 0.950 . S
H2604 C2610 0.949 . S
C2605 H2600 0.950 . S
C2605 C2607 1.327 1_556 S
C2605 C2611 1.429 . S
C2606 C2598 1.574 . S
C2606 H2601 0.949 . S
C2606 C2612 1.368 . S
C2607 C2591 1.349 . S
C2607 H2599 0.950 . S
C2607 C2605 1.327 1_554 S
C2608 C2596 1.349 . S
C2608 H2602 0.950 . S
C2608 C2609 1.327 . S
C2609 H2603 0.950 . S
C2609 C2608 1.327 . S
C2609 C2613 1.429 . S
C2610 C2593 1.574 . S
C2610 H2604 0.949 . S
C2610 C2614 1.368 . S
C2611 C2592 1.429 . S
C2611 C2605 1.429 . S
C2611 C2612 1.523 . S
C2612 C2593 1.368 . S
C2612 C2606 1.368 . S
C2612 C2611 1.523 . S
C2613 C2597 1.429 . S
C2613 C2609 1.429 . S
C2613 C2614 1.523 . S
C2614 C2598 1.368 . S
C2614 C2610 1.368 . S
C2614 C2613 1.523 . S
H2615 C2590 0.950 . S
H2616 C2592 0.950 . S
H2617 C2593 0.949 . S
H2618 C2595 0.950 . S
H2619 C2597 0.950 . S
C2620 C2621 1.349 . S
C2620 C2622 1.327 . S
C2620 H2645 0.950 . S
C2621 C2620 1.349 . S
C2621 C2637 1.349 . S
C2622 C2620 1.327 . S
C2622 C2641 1.429 . S
C2622 H2646 0.950 . S
C2623 C2640 1.574 . S
C2623 C2642 1.368 . S
C2623 H2647 0.949 . S
H2624 C2628 0.949 . S
C2625 C2626 1.350 . S
C2625 C2627 1.327 1_455 S
C2625 H2648 0.950 . S
C2626 C2625 1.350 . S
C2626 C2638 1.340 1_455 S
C2627 C2625 1.327 1_655 S
C2627 C2643 1.429 . S
C2627 H2649 0.950 . S
C2628 H2624 0.949 . S
C2628 C2636 1.574 . S
C2628 C2644 1.368 . S
H2629 C2637 0.950 . S
H2630 C2635 0.950 . S
H2631 C2636 0.949 . S
H2632 C2638 0.950 . S
H2633 C2639 0.950 . S
H2634 C2640 0.949 . S
C2635 H2630 0.950 . S
C2635 C2637 1.327 . S
C2635 C2641 1.429 . S
C2636 C2628 1.574 . S
C2636 H2631 0.949 . S
C2636 C2642 1.368 . S
C2637 C2621 1.349 . S
C2637 H2629 0.950 . S
C2637 C2635 1.327 . S
C2638 C2626 1.340 1_655 S
C2638 H2632 0.950 . S
C2638 C2639 1.327 . S
C2639 H2633 0.950 . S
C2639 C2638 1.327 . S
C2639 C2643 1.429 . S
C2640 C2623 1.574 . S
C2640 H2634 0.949 . S
C2640 C2644 1.368 . S
C2641 C2622 1.429 . S
C2641 C2635 1.429 . S
C2641 C2642 1.523 . S
C2642 C2623 1.368 . S
C2642 C2636 1.368 . S
C2642 C2641 1.523 . S
C2643 C2627 1.429 . S
C2643 C2639 1.429 . S
C2643 C2644 1.523 . S
C2644 C2628 1.368 . S
C2644 C2640 1.368 . S
C2644 C2643 1.523 . S
H2645 C2620 0.950 . S
H2646 C2622 0.950 . S
H2647 C2623 0.949 . S
H2648 C2625 0.950 . S
H2649 C2627 0.950 . S
C2650 C2651 1.349 . S
C2650 C2652 1.327 . S
C2650 H2675 0.950 . S
C2651 C2650 1.349 . S
C2651 C2667 1.349 . S
C2652 C2650 1.327 . S
C2652 C2671 1.429 . S
C2652 H2676 0.950 . S
C2653 C2670 1.574 . S
C2653 C2672 1.368 . S
C2653 H2677 0.949 . S
H2654 C2658 0.949 . S
C2655 C2656 1.349 . S
C2655 C2657 1.327 . S
C2655 H2678 0.950 . S
C2656 C2655 1.349 . S
C2656 C2668 1.349 . S
C2657 C2655 1.327 . S
C2657 C2673 1.429 . S
C2657 H2679 0.950 . S
C2658 H2654 0.949 . S
C2658 C2666 1.574 . S
C2658 C2674 1.368 . S
H2659 C2667 0.950 . S
H2660 C2665 0.950 . S
H2661 C2666 0.949 . S
H2662 C2668 0.950 . S
H2663 C2669 0.950 . S
H2664 C2670 0.949 . S
C2665 H2660 0.950 . S
C2665 C2667 1.327 . S
C2665 C2671 1.429 . S
C2666 C2658 1.574 . S
C2666 H2661 0.949 . S
C2666 C2672 1.368 . S
C2667 C2651 1.349 . S
C2667 H2659 0.950 . S
C2667 C2665 1.327 . S
C2668 C2656 1.349 . S
C2668 H2662 0.950 . S
C2668 C2669 1.327 . S
C2669 H2663 0.950 . S
C2669 C2668 1.327 . S
C2669 C2673 1.429 . S
C2670 C2653 1.574 . S
C2670 H2664 0.949 . S
C2670 C2674 1.368 . S
C2671 C2652 1.429 . S
C2671 C2665 1.429 . S
C2671 C2672 1.523 . S
C2672 C2653 1.368 . S
C2672 C2666 1.368 . S
C2672 C2671 1.523 . S
C2673 C2657 1.429 . S
C2673 C2669 1.429 . S
C2673 C2674 1.523 . S
C2674 C2658 1.368 . S
C2674 C2670 1.368 . S
C2674 C2673 1.523 . S
H2675 C2650 0.950 . S
H2676 C2652 0.950 . S
H2677 C2653 0.949 . S
H2678 C2655 0.950 . S
H2679 C2657 0.950 . S
C2680 C2681 1.349 . S
C2680 C2682 1.327 . S
C2680 H2705 0.950 . S
C2681 C2680 1.349 . S
C2681 C2697 1.349 . S
C2682 C2680 1.327 . S
C2682 C2701 1.429 . S
C2682 H2706 0.950 . S
C2683 C2700 1.574 . S
C2683 C2702 1.368 . S
C2683 H2707 0.949 . S
H2684 C2688 0.949 . S
C2685 C2686 1.349 . S
C2685 C2687 1.327 . S
C2685 H2708 0.950 . S
C2686 C2685 1.349 . S
C2686 C2698 1.349 . S
C2687 C2685 1.327 . S
C2687 C2703 1.429 . S
C2687 H2709 0.950 . S
C2688 H2684 0.949 . S
C2688 C2696 1.574 . S
C2688 C2704 1.368 . S
H2689 C2697 0.950 . S
H2690 C2695 0.950 . S
H2691 C2696 0.949 . S
H2692 C2698 0.950 . S
H2693 C2699 0.950 . S
H2694 C2700 0.949 . S
C2695 H2690 0.950 . S
C2695 C2697 1.327 . S
C2695 C2701 1.429 . S
C2696 C2688 1.574 . S
C2696 H2691 0.949 . S
C2696 C2702 1.368 . S
C2697 C2681 1.349 . S
C2697 H2689 0.950 . S
C2697 C2695 1.327 . S
C2698 C2686 1.349 . S
C2698 H2692 0.950 . S
C2698 C2699 1.327 . S
C2699 H2693 0.950 . S
C2699 C2698 1.327 . S
C2699 C2703 1.429 . S
C2700 C2683 1.574 . S
C2700 H2694 0.949 . S
C2700 C2704 1.368 . S
C2701 C2682 1.429 . S
C2701 C2695 1.429 . S
C2701 C2702 1.523 . S
C2702 C2683 1.368 . S
C2702 C2696 1.368 . S
C2702 C2701 1.523 . S
C2703 C2687 1.429 . S
C2703 C2699 1.429 . S
C2703 C2704 1.523 . S
C2704 C2688 1.368 . S
C2704 C2700 1.368 . S
C2704 C2703 1.523 . S
H2705 C2680 0.950 . S
H2706 C2682 0.950 . S
H2707 C2683 0.949 . S
H2708 C2685 0.950 . S
H2709 C2687 0.950 . S
C2710 C2711 1.349 . S
C2710 C2712 1.327 . S
C2710 H2735 0.950 . S
C2711 C2710 1.349 . S
C2711 C2727 1.349 . S
C2712 C2710 1.327 . S
C2712 C2731 1.429 . S
C2712 H2736 0.950 . S
C2713 C2730 1.574 . S
C2713 C2732 1.368 . S
C2713 H2737 0.949 . S
H2714 C2718 0.949 . S
C2715 C2716 1.349 . S
C2715 C2717 1.327 . S
C2715 H2738 0.950 . S
C2716 C2715 1.349 . S
C2716 C2728 1.349 . S
C2717 C2715 1.327 . S
C2717 C2733 1.429 . S
C2717 H2739 0.950 . S
C2718 H2714 0.949 . S
C2718 C2726 1.574 . S
C2718 C2734 1.368 . S
H2719 C2727 0.950 . S
H2720 C2725 0.950 . S
H2721 C2726 0.949 . S
H2722 C2728 0.950 . S
H2723 C2729 0.950 . S
H2724 C2730 0.949 . S
C2725 H2720 0.950 . S
C2725 C2727 1.327 . S
C2725 C2731 1.429 . S
C2726 C2718 1.574 . S
C2726 H2721 0.949 . S
C2726 C2732 1.368 . S
C2727 C2711 1.349 . S
C2727 H2719 0.950 . S
C2727 C2725 1.327 . S
C2728 C2716 1.349 . S
C2728 H2722 0.950 . S
C2728 C2729 1.327 . S
C2729 H2723 0.950 . S
C2729 C2728 1.327 . S
C2729 C2733 1.429 . S
C2730 C2713 1.574 . S
C2730 H2724 0.949 . S
C2730 C2734 1.368 . S
C2731 C2712 1.429 . S
C2731 C2725 1.429 . S
C2731 C2732 1.523 . S
C2732 C2713 1.368 . S
C2732 C2726 1.368 . S
C2732 C2731 1.523 . S
C2733 C2717 1.429 . S
C2733 C2729 1.429 . S
C2733 C2734 1.523 . S
C2734 C2718 1.368 . S
C2734 C2730 1.368 . S
C2734 C2733 1.523 . S
H2735 C2710 0.950 . S
H2736 C2712 0.950 . S
H2737 C2713 0.949 . S
H2738 C2715 0.950 . S
H2739 C2717 0.950 . S
C2740 C2741 1.349 . S
C2740 C2742 1.327 . S
C2740 H2765 0.950 . S
C2741 C2740 1.349 . S
C2741 C2757 1.349 . S
C2742 C2740 1.327 . S
C2742 C2761 1.429 . S
C2742 H2766 0.950 . S
C2743 C2760 1.574 . S
C2743 C2762 1.368 . S
C2743 H2767 0.949 . S
H2744 C2748 0.949 . S
C2745 C2746 1.349 . S
C2745 C2747 1.327 . S
C2745 H2768 0.950 . S
C2746 C2745 1.349 . S
C2746 C2758 1.349 . S
C2747 C2745 1.327 . S
C2747 C2763 1.429 . S
C2747 H2769 0.950 . S
C2748 H2744 0.949 . S
C2748 C2756 1.574 . S
C2748 C2764 1.368 . S
H2749 C2757 0.950 . S
H2750 C2755 0.950 . S
H2751 C2756 0.949 . S
H2752 C2758 0.950 . S
H2753 C2759 0.950 . S
H2754 C2760 0.949 . S
C2755 H2750 0.950 . S
C2755 C2757 1.327 . S
C2755 C2761 1.429 . S
C2756 C2748 1.574 . S
C2756 H2751 0.949 . S
C2756 C2762 1.368 . S
C2757 C2741 1.349 . S
C2757 H2749 0.950 . S
C2757 C2755 1.327 . S
C2758 C2746 1.349 . S
C2758 H2752 0.950 . S
C2758 C2759 1.327 . S
C2759 H2753 0.950 . S
C2759 C2758 1.327 . S
C2759 C2763 1.429 . S
C2760 C2743 1.574 . S
C2760 H2754 0.949 . S
C2760 C2764 1.368 . S
C2761 C2742 1.429 . S
C2761 C2755 1.429 . S
C2761 C2762 1.523 . S
C2762 C2743 1.368 . S
C2762 C2756 1.368 . S
C2762 C2761 1.523 . S
C2763 C2747 1.429 . S
C2763 C2759 1.429 . S
C2763 C2764 1.523 . S
C2764 C2748 1.368 . S
C2764 C2760 1.368 . S
C2764 C2763 1.523 . S
H2765 C2740 0.950 . S
H2766 C2742 0.950 . S
H2767 C2743 0.949 . S
H2768 C2745 0.950 . S
H2769 C2747 0.950 . S
C2770 C2771 1.349 . S
C2770 C2772 1.327 . S
C2770 H2795 0.950 . S
C2771 C2770 1.349 . S
C2771 C2787 1.349 . S
C2772 C2770 1.327 . S
C2772 C2791 1.429 . S
C2772 H2796 0.950 . S
C2773 C2790 1.574 . S
C2773 C2792 1.368 . S
C2773 H2797 0.949 . S
H2774 C2778 0.949 . S
C2775 C2776 1.349 . S
C2775 C2777 1.327 . S
C2775 H2798 0.950 . S
C2776 C2775 1.349 . S
C2776 C2788 1.349 . S
C2777 C2775 1.327 . S
C2777 C2793 1.429 . S
C2777 H2799 0.950 . S
C2778 H2774 0.949 . S
C2778 C2786 1.574 . S
C2778 C2794 1.368 . S
H2779 C2787 0.950 . S
H2780 C2785 0.950 . S
H2781 C2786 0.949 . S
H2782 C2788 0.950 . S
H2783 C2789 0.950 . S
H2784 C2790 0.949 . S
C2785 H2780 0.950 . S
C2785 C2787 1.327 . S
C2785 C2791 1.429 . S
C2786 C2778 1.574 . S
C2786 H2781 0.949 . S
C2786 C2792 1.368 . S
C2787 C2771 1.349 . S
C2787 H2779 0.950 . S
C2787 C2785 1.327 . S
C2788 C2776 1.349 . S
C2788 H2782 0.950 . S
C2788 C2789 1.327 . S
C2789 H2783 0.950 . S
C2789 C2788 1.327 . S
C2789 C2793 1.429 . S
C2790 C2773 1.574 . S
C2790 H2784 0.949 . S
C2790 C2794 1.368 . S
C2791 C2772 1.429 . S
C2791 C2785 1.429 . S
C2791 C2792 1.523 . S
C2792 C2773 1.368 . S
C2792 C2786 1.368 . S
C2792 C2791 1.523 . S
C2793 C2777 1.429 . S
C2793 C2789 1.429 . S
C2793 C2794 1.523 . S
C2794 C2778 1.368 . S
C2794 C2790 1.368 . S
C2794 C2793 1.523 . S
H2795 C2770 0.950 . S
H2796 C2772 0.950 . S
H2797 C2773 0.949 . S
H2798 C2775 0.950 . S
H2799 C2777 0.950 . S
C2800 C2801 1.349 . S
C2800 C2802 1.327 . S
C2800 H2825 0.950 . S
C2801 C2800 1.349 . S
C2801 C2817 1.349 . S
C2802 C2800 1.327 . S
C2802 C2821 1.429 . S
C2802 H2826 0.950 . S
C2803 C2820 1.574 . S
C2803 C2822 1.368 . S
C2803 H2827 0.949 . S
H2804 C2808 0.949 . S
C2805 C2806 1.349 . S
C2805 C2807 1.327 . S
C2805 H2828 0.950 . S
C2806 C2805 1.349 . S
C2806 C2818 1.349 . S
C2807 C2805 1.327 . S
C2807 C2823 1.429 . S
C2807 H2829 0.950 . S
C2808 H2804 0.949 . S
C2808 C2816 1.574 . S
C2808 C2824 1.368 . S
H2809 C2817 0.950 . S
H2810 C2815 0.950 . S
H2811 C2816 0.949 . S
H2812 C2818 0.950 . S
H2813 C2819 0.950 . S
H2814 C2820 0.949 . S
C2815 H2810 0.950 . S
C2815 C2817 1.327 . S
C2815 C2821 1.429 . S
C2816 C2808 1.574 . S
C2816 H2811 0.949 . S
C2816 C2822 1.368 . S
C2817 C2801 1.349 . S
C2817 H2809 0.950 . S
C2817 C2815 1.327 . S
C2818 C2806 1.349 . S
C2818 H2812 0.950 . S
C2818 C2819 1.327 . S
C2819 H2813 0.950 . S
C2819 C2818 1.327 . S
C2819 C2823 1.429 . S
C2820 C2803 1.574 . S
C2820 H2814 0.949 . S
C2820 C2824 1.368 . S
C2821 C2802 1.429 . S
C2821 C2815 1.429 . S
C2821 C2822 1.523 . S
C2822 C2803 1.368 . S
C2822 C2816 1.368 . S
C2822 C2821 1.523 . S
C2823 C2807 1.429 . S
C2823 C2819 1.429 . S
C2823 C2824 1.523 . S
C2824 C2808 1.368 . S
C2824 C2820 1.368 . S
C2824 C2823 1.523 . S
H2825 C2800 0.950 . S
H2826 C2802 0.950 . S
H2827 C2803 0.949 . S
H2828 C2805 0.950 . S
H2829 C2807 0.950 . S
C2830 C2831 1.349 . S
C2830 C2832 1.327 . S
C2830 H2855 0.950 . S
C2831 C2830 1.349 . S
C2831 C2847 1.349 . S
C2832 C2830 1.327 . S
C2832 C2851 1.429 . S
C2832 H2856 0.950 . S
C2833 C2850 1.574 . S
C2833 C2852 1.368 . S
C2833 H2857 0.949 . S
H2834 C2838 0.949 . S
C2835 C2836 1.349 . S
C2835 C2837 1.327 . S
C2835 H2858 0.950 . S
C2836 C2835 1.349 . S
C2836 C2848 1.349 1_565 S
C2837 C2835 1.327 . S
C2837 C2853 1.429 . S
C2837 H2859 0.950 . S
C2838 H2834 0.949 . S
C2838 C2846 1.574 . S
C2838 C2854 1.368 . S
H2839 C2847 0.950 . S
H2840 C2845 0.950 . S
H2841 C2846 0.949 . S
H2842 C2848 0.950 . S
H2843 C2849 0.950 1_545 S
H2844 C2850 0.949 . S
C2845 H2840 0.950 . S
C2845 C2847 1.327 . S
C2845 C2851 1.429 . S
C2846 C2838 1.574 . S
C2846 H2841 0.949 . S
C2846 C2852 1.368 . S
C2847 C2831 1.349 . S
C2847 H2839 0.950 . S
C2847 C2845 1.327 . S
C2848 C2836 1.349 1_545 S
C2848 H2842 0.950 . S
C2848 C2849 1.327 1_545 S
C2849 H2843 0.950 1_565 S
C2849 C2848 1.327 1_565 S
C2849 C2853 1.429 . S
C2850 C2833 1.574 . S
C2850 H2844 0.949 . S
C2850 C2854 1.368 . S
C2851 C2832 1.429 . S
C2851 C2845 1.429 . S
C2851 C2852 1.523 . S
C2852 C2833 1.368 . S
C2852 C2846 1.368 . S
C2852 C2851 1.523 . S
C2853 C2837 1.429 . S
C2853 C2849 1.429 . S
C2853 C2854 1.523 . S
C2854 C2838 1.368 . S
C2854 C2850 1.368 . S
C2854 C2853 1.523 . S
H2855 C2830 0.950 . S
H2856 C2832 0.950 . S
H2857 C2833 0.949 . S
H2858 C2835 0.950 . S
H2859 C2837 0.950 . S
C2860 C2861 1.349 . S
C2860 C2862 1.327 . S
C2860 H2885 0.950 . S
C2861 C2860 1.349 . S
C2861 C2877 1.349 . S
C2862 C2860 1.327 . S
C2862 C2881 1.429 . S
C2862 H2886 0.950 . S
C2863 C2880 1.574 . S
C2863 C2882 1.368 . S
C2863 H2887 0.949 . S
H2864 C2868 0.949 . S
C2865 C2866 1.349 . S
C2865 C2867 1.327 . S
C2865 H2888 0.950 . S
C2866 C2865 1.349 . S
C2866 C2878 1.349 . S
C2867 C2865 1.327 . S
C2867 C2883 1.429 . S
C2867 H2889 0.950 . S
C2868 H2864 0.949 . S
C2868 C2876 1.574 . S
C2868 C2884 1.368 . S
H2869 C2877 0.950 . S
H2870 C2875 0.950 . S
H2871 C2876 0.949 . S
H2872 C2878 0.950 . S
H2873 C2879 0.950 . S
H2874 C2880 0.949 . S
C2875 H2870 0.950 . S
C2875 C2877 1.327 . S
C2875 C2881 1.429 . S
C2876 C2868 1.574 . S
C2876 H2871 0.949 . S
C2876 C2882 1.368 . S
C2877 C2861 1.349 . S
C2877 H2869 0.950 . S
C2877 C2875 1.327 . S
C2878 C2866 1.349 . S
C2878 H2872 0.950 . S
C2878 C2879 1.327 . S
C2879 H2873 0.950 . S
C2879 C2878 1.327 . S
C2879 C2883 1.429 . S
C2880 C2863 1.574 . S
C2880 H2874 0.949 . S
C2880 C2884 1.368 . S
C2881 C2862 1.429 . S
C2881 C2875 1.429 . S
C2881 C2882 1.523 . S
C2882 C2863 1.368 . S
C2882 C2876 1.368 . S
C2882 C2881 1.523 . S
C2883 C2867 1.429 . S
C2883 C2879 1.429 . S
C2883 C2884 1.523 . S
C2884 C2868 1.368 . S
C2884 C2880 1.368 . S
C2884 C2883 1.523 . S
H2885 C2860 0.950 . S
H2886 C2862 0.950 . S
H2887 C2863 0.949 . S
H2888 C2865 0.950 . S
H2889 C2867 0.950 . S
C2890 C2891 1.349 . S
C2890 C2892 1.327 . S
C2890 H2915 0.931 1_554 S
C2891 C2890 1.349 . S
C2891 C2907 1.349 . S
C2892 C2890 1.327 . S
C2892 C2911 1.429 . S
C2892 H2916 0.973 . S
C2893 C2910 1.574 . S
C2893 C2912 1.368 . S
C2893 H2917 0.949 . S
H2894 C2898 0.949 . S
C2895 C2896 1.349 . S
C2895 C2897 1.327 . S
C2895 H2918 0.950 . S
C2896 C2895 1.349 . S
C2896 C2908 1.349 . S
C2897 C2895 1.327 . S
C2897 C2913 1.429 . S
C2897 H2919 0.950 . S
C2898 H2894 0.949 . S
C2898 C2906 1.574 . S
C2898 C2914 1.368 . S
H2899 C2907 0.950 . S
H2900 C2905 0.950 . S
H2901 C2906 0.949 . S
H2902 C2908 0.950 . S
H2903 C2909 0.950 . S
H2904 C2910 0.949 . S
C2905 H2900 0.950 . S
C2905 C2907 1.327 . S
C2905 C2911 1.429 . S
C2906 C2898 1.574 . S
C2906 H2901 0.949 . S
C2906 C2912 1.368 . S
C2907 C2891 1.349 . S
C2907 H2899 0.950 . S
C2907 C2905 1.327 . S
C2908 C2896 1.349 . S
C2908 H2902 0.950 . S
C2908 C2909 1.327 . S
C2909 H2903 0.950 . S
C2909 C2908 1.327 . S
C2909 C2913 1.429 . S
C2910 C2893 1.574 . S
C2910 H2904 0.949 . S
C2910 C2914 1.368 . S
C2911 C2892 1.429 . S
C2911 C2905 1.429 . S
C2911 C2912 1.523 . S
C2912 C2893 1.368 . S
C2912 C2906 1.368 . S
C2912 C2911 1.523 . S
C2913 C2897 1.429 . S
C2913 C2909 1.429 . S
C2913 C2914 1.523 . S
C2914 C2898 1.368 . S
C2914 C2910 1.368 . S
C2914 C2913 1.523 . S
H2915 C2890 0.931 1_556 S
H2916 C2892 0.973 . S
H2917 C2893 0.949 . S
H2918 C2895 0.950 . S
H2919 C2897 0.950 . S
C2920 C2921 1.349 . S
C2920 C2922 1.327 . S
C2920 H2945 0.950 . S
C2921 C2920 1.349 . S
C2921 C2937 1.349 . S
C2922 C2920 1.327 . S
C2922 C2941 1.429 . S
C2922 H2946 0.950 . S
C2923 C2940 1.574 . S
C2923 C2942 1.368 . S
C2923 H2947 0.949 . S
H2924 C2928 0.949 . S
C2925 C2926 1.349 . S
C2925 C2927 1.327 . S
C2925 H2948 0.950 . S
C2926 C2925 1.349 . S
C2926 C2938 1.349 . S
C2927 C2925 1.327 . S
C2927 C2943 1.429 . S
C2927 H2949 0.950 . S
C2928 H2924 0.949 . S
C2928 C2936 1.574 . S
C2928 C2944 1.368 . S
H2929 C2937 0.950 . S
H2930 C2935 0.950 . S
H2931 C2936 0.949 . S
H2932 C2938 0.950 . S
H2933 C2939 0.950 . S
H2934 C2940 0.949 . S
C2935 H2930 0.950 . S
C2935 C2937 1.327 . S
C2935 C2941 1.429 . S
C2936 C2928 1.574 . S
C2936 H2931 0.949 . S
C2936 C2942 1.368 . S
C2937 C2921 1.349 . S
C2937 H2929 0.950 . S
C2937 C2935 1.327 . S
C2938 C2926 1.349 . S
C2938 H2932 0.950 . S
C2938 C2939 1.327 . S
C2939 H2933 0.950 . S
C2939 C2938 1.327 . S
C2939 C2943 1.429 . S
C2940 C2923 1.574 . S
C2940 H2934 0.949 . S
C2940 C2944 1.368 . S
C2941 C2922 1.429 . S
C2941 C2935 1.429 . S
C2941 C2942 1.523 . S
C2942 C2923 1.368 . S
C2942 C2936 1.368 . S
C2942 C2941 1.523 . S
C2943 C2927 1.429 . S
C2943 C2939 1.429 . S
C2943 C2944 1.523 . S
C2944 C2928 1.368 . S
C2944 C2940 1.368 . S
C2944 C2943 1.523 . S
H2945 C2920 0.950 . S
H2946 C2922 0.950 . S
H2947 C2923 0.949 . S
H2948 C2925 0.950 . S
H2949 C2927 0.950 . S
C2950 C2951 1.349 . S
C2950 C2952 1.327 . S
C2950 H2975 0.950 . S
C2951 C2950 1.349 . S
C2951 C2967 1.349 . S
C2952 C2950 1.327 . S
C2952 C2971 1.429 . S
C2952 H2976 0.950 . S
C2953 C2970 1.574 . S
C2953 C2972 1.368 . S
C2953 H2977 0.949 . S
H2954 C2958 0.949 . S
C2955 C2956 1.349 1_556 S
C2955 C2957 1.327 1_556 S
C2955 H2978 0.950 . S
C2956 C2955 1.349 1_554 S
C2956 C2968 1.349 . S
C2957 C2955 1.327 1_554 S
C2957 C2973 1.429 . S
C2957 H2979 0.950 1_554 S
C2958 H2954 0.949 . S
C2958 C2966 1.574 . S
C2958 C2974 1.368 . S
H2959 C2967 0.950 . S
H2960 C2965 0.950 . S
H2961 C2966 0.949 . S
H2962 C2968 0.950 . S
H2963 C2969 0.950 . S
H2964 C2970 0.949 1_556 S
C2965 H2960 0.950 . S
C2965 C2967 1.327 . S
C2965 C2971 1.429 . S
C2966 C2958 1.574 . S
C2966 H2961 0.949 . S
C2966 C2972 1.368 . S
C2967 C2951 1.349 . S
C2967 H2959 0.950 . S
C2967 C2965 1.327 . S
C2968 C2956 1.349 . S
C2968 H2962 0.950 . S
C2968 C2969 1.327 . S
C2969 H2963 0.950 . S
C2969 C2968 1.327 . S
C2969 C2973 1.429 . S
C2970 C2953 1.574 . S
C2970 H2964 0.949 1_554 S
C2970 C2974 1.368 . S
C2971 C2952 1.429 . S
C2971 C2965 1.429 . S
C2971 C2972 1.523 . S
C2972 C2953 1.368 . S
C2972 C2966 1.368 . S
C2972 C2971 1.523 . S
C2973 C2957 1.429 . S
C2973 C2969 1.429 . S
C2973 C2974 1.523 . S
C2974 C2958 1.368 . S
C2974 C2970 1.368 . S
C2974 C2973 1.523 . S
H2975 C2950 0.950 . S
H2976 C2952 0.950 . S
H2977 C2953 0.949 . S
H2978 C2955 0.950 . S
H2979 C2957 0.950 1_556 S
C2980 C2981 1.349 . S
C2980 C2982 1.327 . S
C2980 H3005 0.950 . S
C2981 C2980 1.349 . S
C2981 C2997 1.349 . S
C2982 C2980 1.327 . S
C2982 C3001 1.429 . S
C2982 H3006 0.950 . S
C2983 C3000 1.574 . S
C2983 C3002 1.368 . S
C2983 H3007 0.949 . S
H2984 C2988 0.949 . S
C2985 C2986 1.349 . S
C2985 C2987 1.327 . S
C2985 H3008 0.950 . S
C2986 C2985 1.349 . S
C2986 C2998 1.349 . S
C2987 C2985 1.327 . S
C2987 C3003 1.429 . S
C2987 H3009 0.950 . S
C2988 H2984 0.949 . S
C2988 C2996 1.574 . S
C2988 C3004 1.368 . S
H2989 C2997 0.950 . S
H2990 C2995 0.950 . S
H2991 C2996 0.949 . S
H2992 C2998 0.950 . S
H2993 C2999 0.950 . S
H2994 C3000 0.949 . S
C2995 H2990 0.950 . S
C2995 C2997 1.327 . S
C2995 C3001 1.429 . S
C2996 C2988 1.574 . S
C2996 H2991 0.949 . S
C2996 C3002 1.368 . S
C2997 C2981 1.349 . S
C2997 H2989 0.950 . S
C2997 C2995 1.327 . S
C2998 C2986 1.349 . S
C2998 H2992 0.950 . S
C2998 C2999 1.327 . S
C2999 H2993 0.950 . S
C2999 C2998 1.327 . S
C2999 C3003 1.429 . S
C3000 C2983 1.574 . S
C3000 H2994 0.949 . S
C3000 C3004 1.368 . S
C3001 C2982 1.429 . S
C3001 C2995 1.429 . S
C3001 C3002 1.523 . S
C3002 C2983 1.368 . S
C3002 C2996 1.368 . S
C3002 C3001 1.523 . S
C3003 C2987 1.429 . S
C3003 C2999 1.429 . S
C3003 C3004 1.523 . S
C3004 C2988 1.368 . S
C3004 C3000 1.368 . S
C3004 C3003 1.523 . S
H3005 C2980 0.950 . S
H3006 C2982 0.950 . S
H3007 C2983 0.949 . S
H3008 C2985 0.950 . S
H3009 C2987 0.950 . S
C3010 C3011 1.349 . S
C3010 C3012 1.327 . S
C3010 H3035 0.950 . S
C3011 C3010 1.349 . S
C3011 C3027 1.349 . S
C3012 C3010 1.327 . S
C3012 C3031 1.429 . S
C3012 H3036 0.950 . S
C3013 C3030 1.574 . S
C3013 C3032 1.368 . S
C3013 H3037 0.949 . S
H3014 C3018 0.949 . S
C3015 C3016 1.349 . S
C3015 C3017 1.327 . S
C3015 H3038 0.950 . S
C3016 C3015 1.349 . S
C3016 C3028 1.349 . S
C3017 C3015 1.327 . S
C3017 C3033 1.429 . S
C3017 H3039 0.950 . S
C3018 H3014 0.949 . S
C3018 C3026 1.574 . S
C3018 C3034 1.368 . S
H3019 C3027 0.950 . S
H3020 C3025 0.950 . S
H3021 C3026 0.949 . S
H3022 C3028 0.950 . S
H3023 C3029 0.950 . S
H3024 C3030 0.949 . S
C3025 H3020 0.950 . S
C3025 C3027 1.327 . S
C3025 C3031 1.429 . S
C3026 C3018 1.574 . S
C3026 H3021 0.949 . S
C3026 C3032 1.368 . S
C3027 C3011 1.349 . S
C3027 H3019 0.950 . S
C3027 C3025 1.327 . S
C3028 C3016 1.349 . S
C3028 H3022 0.950 . S
C3028 C3029 1.327 . S
C3029 H3023 0.950 . S
C3029 C3028 1.327 . S
C3029 C3033 1.429 . S
C3030 C3013 1.574 . S
C3030 H3024 0.949 . S
C3030 C3034 1.368 . S
C3031 C3012 1.429 . S
C3031 C3025 1.429 . S
C3031 C3032 1.523 . S
C3032 C3013 1.368 . S
C3032 C3026 1.368 . S
C3032 C3031 1.523 . S
C3033 C3017 1.429 . S
C3033 C3029 1.429 . S
C3033 C3034 1.523 . S
C3034 C3018 1.368 . S
C3034 C3030 1.368 . S
C3034 C3033 1.523 . S
H3035 C3010 0.950 . S
H3036 C3012 0.950 . S
H3037 C3013 0.949 . S
H3038 C3015 0.950 . S
H3039 C3017 0.950 . S
C3040 C3041 1.349 . S
C3040 C3042 1.327 . S
C3040 H3065 0.950 . S
C3041 C3040 1.349 . S
C3041 C3057 1.349 . S
C3042 C3040 1.327 . S
C3042 C3061 1.429 . S
C3042 H3066 0.950 . S
C3043 C3060 1.574 . S
C3043 C3062 1.368 . S
C3043 H3067 0.949 . S
H3044 C3048 0.949 . S
C3045 C3046 1.349 . S
C3045 C3047 1.327 . S
C3045 H3068 0.950 . S
C3046 C3045 1.349 . S
C3046 C3058 1.349 . S
C3047 C3045 1.327 . S
C3047 C3063 1.429 . S
C3047 H3069 0.950 . S
C3048 H3044 0.949 . S
C3048 C3056 1.574 . S
C3048 C3064 1.368 . S
H3049 C3057 0.950 . S
H3050 C3055 0.950 . S
H3051 C3056 0.949 . S
H3052 C3058 0.950 . S
H3053 C3059 0.950 . S
H3054 C3060 0.949 . S
C3055 H3050 0.950 . S
C3055 C3057 1.327 . S
C3055 C3061 1.429 . S
C3056 C3048 1.574 . S
C3056 H3051 0.949 . S
C3056 C3062 1.368 . S
C3057 C3041 1.349 . S
C3057 H3049 0.950 . S
C3057 C3055 1.327 . S
C3058 C3046 1.349 . S
C3058 H3052 0.950 . S
C3058 C3059 1.327 . S
C3059 H3053 0.950 . S
C3059 C3058 1.327 . S
C3059 C3063 1.429 . S
C3060 C3043 1.574 . S
C3060 H3054 0.949 . S
C3060 C3064 1.368 . S
C3061 C3042 1.429 . S
C3061 C3055 1.429 . S
C3061 C3062 1.523 . S
C3062 C3043 1.368 . S
C3062 C3056 1.368 . S
C3062 C3061 1.523 . S
C3063 C3047 1.429 . S
C3063 C3059 1.429 . S
C3063 C3064 1.523 . S
C3064 C3048 1.368 . S
C3064 C3060 1.368 . S
C3064 C3063 1.523 . S
H3065 C3040 0.950 . S
H3066 C3042 0.950 . S
H3067 C3043 0.949 . S
H3068 C3045 0.950 . S
H3069 C3047 0.950 . S
C3070 C3071 1.349 . S
C3070 C3072 1.327 . S
C3070 H3095 0.950 . S
C3071 C3070 1.349 . S
C3071 C3087 1.349 . S
C3072 C3070 1.327 . S
C3072 C3091 1.429 . S
C3072 H3096 0.950 . S
C3073 C3090 1.574 . S
C3073 C3092 1.368 . S
C3073 H3097 0.949 . S
H3074 C3078 0.949 . S
C3075 C3076 1.349 . S
C3075 C3077 1.327 . S
C3075 H3098 0.950 . S
C3076 C3075 1.349 . S
C3076 C3088 1.349 . S
C3077 C3075 1.327 . S
C3077 C3093 1.429 . S
C3077 H3099 0.950 . S
C3078 H3074 0.949 . S
C3078 C3086 1.574 . S
C3078 C3094 1.368 . S
H3079 C3087 0.950 . S
H3080 C3085 0.950 . S
H3081 C3086 0.949 . S
H3082 C3088 0.950 . S
H3083 C3089 0.950 . S
H3084 C3090 0.949 . S
C3085 H3080 0.950 . S
C3085 C3087 1.327 . S
C3085 C3091 1.429 . S
C3086 C3078 1.574 . S
C3086 H3081 0.949 . S
C3086 C3092 1.368 . S
C3087 C3071 1.349 . S
C3087 H3079 0.950 . S
C3087 C3085 1.327 . S
C3088 C3076 1.349 . S
C3088 H3082 0.950 . S
C3088 C3089 1.327 . S
C3089 H3083 0.950 . S
C3089 C3088 1.327 . S
C3089 C3093 1.429 . S
C3090 C3073 1.574 . S
C3090 H3084 0.949 . S
C3090 C3094 1.368 . S
C3091 C3072 1.429 . S
C3091 C3085 1.429 . S
C3091 C3092 1.523 . S
C3092 C3073 1.368 . S
C3092 C3086 1.368 . S
C3092 C3091 1.523 . S
C3093 C3077 1.429 . S
C3093 C3089 1.429 . S
C3093 C3094 1.523 . S
C3094 C3078 1.368 . S
C3094 C3090 1.368 . S
C3094 C3093 1.523 . S
H3095 C3070 0.950 . S
H3096 C3072 0.950 . S
H3097 C3073 0.949 . S
H3098 C3075 0.950 . S
H3099 C3077 0.950 . S
C3100 C3101 1.349 1_455 S
C3100 C3102 1.327 . S
C3100 H3125 0.950 . S
C3101 C3100 1.349 1_655 S
C3101 C3117 1.349 . S
C3102 C3100 1.327 . S
C3102 C3121 1.429 1_455 S
C3102 H3126 0.950 . S
C3103 C3120 1.574 . S
C3103 C3122 1.368 . S
C3103 H3127 0.949 . S
H3104 C3108 0.949 . S
C3105 C3106 1.349 . S
C3105 C3107 1.327 . S
C3105 H3128 0.950 1_556 S
C3106 C3105 1.349 . S
C3106 C3118 1.342 1_655 S
C3107 C3105 1.327 . S
C3107 C3123 1.429 . S
C3107 H3129 0.950 . S
C3108 H3104 0.949 . S
C3108 C3116 1.574 . S
C3108 C3124 1.368 1_455 S
H3109 C3117 0.950 . S
H3110 C3115 0.950 . S
H3111 C3116 0.949 . S
H3112 C3118 0.956 . S
H3113 C3119 0.950 . S
H3114 C3120 0.949 . S
C3115 H3110 0.950 . S
C3115 C3117 1.327 . S
C3115 C3121 1.429 . S
C3116 C3108 1.574 . S
C3116 H3111 0.949 . S
C3116 C3122 1.368 1_455 S
C3117 C3101 1.349 . S
C3117 H3109 0.950 . S
C3117 C3115 1.327 . S
C3118 C3106 1.342 1_455 S
C3118 H3112 0.956 . S
C3118 C3119 1.328 . S
C3119 H3113 0.950 . S
C3119 C3118 1.328 . S
C3119 C3123 1.429 1_455 S
C3120 C3103 1.574 . S
C3120 H3114 0.949 . S
C3120 C3124 1.368 . S
C3121 C3102 1.429 1_655 S
C3121 C3115 1.429 . S
C3121 C3122 1.523 . S
C3122 C3103 1.368 . S
C3122 C3116 1.368 1_655 S
C3122 C3121 1.523 . S
C3123 C3107 1.429 . S
C3123 C3119 1.429 1_655 S
C3123 C3124 1.523 . S
C3124 C3108 1.368 1_655 S
C3124 C3120 1.368 . S
C3124 C3123 1.523 . S
H3125 C3100 0.950 . S
H3126 C3102 0.950 . S
H3127 C3103 0.949 . S
H3128 C3105 0.950 1_554 S
H3129 C3107 0.950 . S
C3130 C3131 1.349 . S
C3130 C3132 1.327 . S
C3130 H3155 0.950 . S
C3131 C3130 1.349 . S
C3131 C3147 1.349 . S
C3132 C3130 1.327 . S
C3132 C3151 1.429 . S
C3132 H3156 0.950 . S
C3133 C3150 1.574 . S
C3133 C3152 1.368 . S
C3133 H3157 0.949 . S
H3134 C3138 0.949 . S
C3135 C3136 1.349 . S
C3135 C3137 1.327 . S
C3135 H3158 0.950 . S
C3136 C3135 1.349 . S
C3136 C3148 1.349 . S
C3137 C3135 1.327 . S
C3137 C3153 1.429 . S
C3137 H3159 0.950 . S
C3138 H3134 0.949 . S
C3138 C3146 1.574 . S
C3138 C3154 1.368 . S
H3139 C3147 0.950 . S
H3140 C3145 0.950 . S
H3141 C3146 0.949 . S
H3142 C3148 0.950 . S
H3143 C3149 0.950 . S
H3144 C3150 0.949 . S
C3145 H3140 0.950 . S
C3145 C3147 1.327 . S
C3145 C3151 1.429 . S
C3146 C3138 1.574 . S
C3146 H3141 0.949 . S
C3146 C3152 1.368 . S
C3147 C3131 1.349 . S
C3147 H3139 0.950 . S
C3147 C3145 1.327 . S
C3148 C3136 1.349 . S
C3148 H3142 0.950 . S
C3148 C3149 1.327 . S
C3149 H3143 0.950 . S
C3149 C3148 1.327 . S
C3149 C3153 1.429 . S
C3150 C3133 1.574 . S
C3150 H3144 0.949 . S
C3150 C3154 1.368 . S
C3151 C3132 1.429 . S
C3151 C3145 1.429 . S
C3151 C3152 1.523 . S
C3152 C3133 1.368 . S
C3152 C3146 1.368 . S
C3152 C3151 1.523 . S
C3153 C3137 1.429 . S
C3153 C3149 1.429 . S
C3153 C3154 1.523 . S
C3154 C3138 1.368 . S
C3154 C3150 1.368 . S
C3154 C3153 1.523 . S
H3155 C3130 0.950 . S
H3156 C3132 0.950 . S
H3157 C3133 0.949 . S
H3158 C3135 0.950 . S
H3159 C3137 0.950 . S
C3160 C3161 1.349 . S
C3160 C3162 1.327 . S
C3160 H3185 0.950 . S
C3161 C3160 1.349 . S
C3161 C3177 1.349 . S
C3162 C3160 1.327 . S
C3162 C3181 1.429 . S
C3162 H3186 0.950 . S
C3163 C3180 1.574 . S
C3163 C3182 1.368 . S
C3163 H3187 0.949 . S
H3164 C3168 0.949 . S
C3165 C3166 1.349 . S
C3165 C3167 1.327 . S
C3165 H3188 0.950 . S
C3166 C3165 1.349 . S
C3166 C3178 1.349 . S
C3167 C3165 1.327 . S
C3167 C3183 1.429 . S
C3167 H3189 0.950 . S
C3168 H3164 0.949 . S
C3168 C3176 1.574 . S
C3168 C3184 1.368 . S
H3169 C3177 0.950 . S
H3170 C3175 0.950 . S
H3171 C3176 0.949 . S
H3172 C3178 0.950 . S
H3173 C3179 0.950 . S
H3174 C3180 0.949 . S
C3175 H3170 0.950 . S
C3175 C3177 1.327 . S
C3175 C3181 1.429 . S
C3176 C3168 1.574 . S
C3176 H3171 0.949 . S
C3176 C3182 1.368 . S
C3177 C3161 1.349 . S
C3177 H3169 0.950 . S
C3177 C3175 1.327 . S
C3178 C3166 1.349 . S
C3178 H3172 0.950 . S
C3178 C3179 1.327 . S
C3179 H3173 0.950 . S
C3179 C3178 1.327 . S
C3179 C3183 1.429 . S
C3180 C3163 1.574 . S
C3180 H3174 0.949 . S
C3180 C3184 1.368 . S
C3181 C3162 1.429 . S
C3181 C3175 1.429 . S
C3181 C3182 1.523 . S
C3182 C3163 1.368 . S
C3182 C3176 1.368 . S
C3182 C3181 1.523 . S
C3183 C3167 1.429 . S
C3183 C3179 1.429 . S
C3183 C3184 1.523 . S
C3184 C3168 1.368 . S
C3184 C3180 1.368 . S
C3184 C3183 1.523 . S
H3185 C3160 0.950 . S
H3186 C3162 0.950 . S
H3187 C3163 0.949 . S
H3188 C3165 0.950 . S
H3189 C3167 0.950 . S
C3190 C3191 1.349 . S
C3190 C3192 1.327 . S
C3190 H3215 0.950 . S
C3191 C3190 1.349 . S
C3191 C3207 1.349 . S
C3192 C3190 1.327 . S
C3192 C3211 1.429 . S
C3192 H3216 0.950 . S
C3193 C3210 1.574 . S
C3193 C3212 1.368 . S
C3193 H3217 0.949 . S
H3194 C3198 0.949 . S
C3195 C3196 1.349 . S
C3195 C3197 1.327 . S
C3195 H3218 0.950 . S
C3196 C3195 1.349 . S
C3196 C3208 1.349 . S
C3197 C3195 1.327 . S
C3197 C3213 1.429 . S
C3197 H3219 0.950 . S
C3198 H3194 0.949 . S
C3198 C3206 1.574 . S
C3198 C3214 1.368 . S
H3199 C3207 0.950 . S
H3200 C3205 0.950 . S
H3201 C3206 0.949 . S
H3202 C3208 0.950 . S
H3203 C3209 0.950 . S
H3204 C3210 0.949 . S
C3205 H3200 0.950 . S
C3205 C3207 1.327 . S
C3205 C3211 1.429 . S
C3206 C3198 1.574 . S
C3206 H3201 0.949 . S
C3206 C3212 1.368 . S
C3207 C3191 1.349 . S
C3207 H3199 0.950 . S
C3207 C3205 1.327 . S
C3208 C3196 1.349 . S
C3208 H3202 0.950 . S
C3208 C3209 1.327 . S
C3209 H3203 0.950 . S
C3209 C3208 1.327 . S
C3209 C3213 1.429 . S
C3210 C3193 1.574 . S
C3210 H3204 0.949 . S
C3210 C3214 1.368 . S
C3211 C3192 1.429 . S
C3211 C3205 1.429 . S
C3211 C3212 1.523 . S
C3212 C3193 1.368 . S
C3212 C3206 1.368 . S
C3212 C3211 1.523 . S
C3213 C3197 1.429 . S
C3213 C3209 1.429 . S
C3213 C3214 1.523 . S
C3214 C3198 1.368 . S
C3214 C3210 1.368 . S
C3214 C3213 1.523 . S
H3215 C3190 0.950 . S
H3216 C3192 0.950 . S
H3217 C3193 0.949 . S
H3218 C3195 0.950 . S
H3219 C3197 0.950 . S
C3220 C3221 1.349 . S
C3220 C3222 1.327 . S
C3220 H3245 0.950 . S
C3221 C3220 1.349 . S
C3221 C3237 1.349 . S
C3222 C3220 1.327 . S
C3222 C3241 1.429 . S
C3222 H3246 0.950 . S
C3223 C3240 1.574 . S
C3223 C3242 1.368 . S
C3223 H3247 0.949 1_455 S
H3224 C3228 0.949 . S
C3225 C3226 1.349 1_655 S
C3225 C3227 1.331 . S
C3225 H3248 0.950 . S
C3226 C3225 1.349 1_455 S
C3226 C3238 1.349 . S
C3227 C3225 1.331 . S
C3227 C3243 1.402 1_655 S
C3227 H3249 0.976 . S
C3228 H3224 0.949 . S
C3228 C3236 1.574 . S
C3228 C3244 1.368 . S
H3229 C3237 0.974 . S
H3230 C3235 0.950 1_655 S
H3231 C3236 0.949 . S
H3232 C3238 0.950 . S
H3233 C3239 0.950 . S
H3234 C3240 0.949 1_655 S
C3235 H3230 0.950 1_455 S
C3235 C3237 1.327 . S
C3235 C3241 1.429 . S
C3236 C3228 1.574 . S
C3236 H3231 0.949 . S
C3236 C3242 1.368 . S
C3237 C3221 1.349 . S
C3237 H3229 0.974 . S
C3237 C3235 1.327 . S
C3238 C3226 1.349 . S
C3238 H3232 0.950 . S
C3238 C3239 1.327 . S
C3239 H3233 0.950 . S
C3239 C3238 1.327 . S
C3239 C3243 1.429 . S
C3240 C3223 1.574 . S
C3240 H3234 0.949 1_455 S
C3240 C3244 1.368 . S
C3241 C3222 1.429 . S
C3241 C3235 1.429 . S
C3241 C3242 1.523 . S
C3242 C3223 1.368 . S
C3242 C3236 1.368 . S
C3242 C3241 1.523 . S
C3243 C3227 1.402 1_455 S
C3243 C3239 1.429 . S
C3243 C3244 1.523 . S
C3244 C3228 1.368 . S
C3244 C3240 1.368 . S
C3244 C3243 1.523 . S
H3245 C3220 0.950 . S
H3246 C3222 0.950 . S
H3247 C3223 0.949 1_655 S
H3248 C3225 0.950 . S
H3249 C3227 0.976 . S
C3250 C3251 1.349 . S
C3250 C3252 1.327 . S
C3250 H3275 0.950 . S
C3251 C3250 1.349 . S
C3251 C3267 1.349 . S
C3252 C3250 1.327 . S
C3252 C3271 1.429 . S
C3252 H3276 0.950 . S
C3253 C3270 1.574 . S
C3253 C3272 1.368 . S
C3253 H3277 0.949 . S
H3254 C3258 0.949 . S
C3255 C3256 1.349 . S
C3255 C3257 1.327 . S
C3255 H3278 0.950 . S
C3256 C3255 1.349 . S
C3256 C3268 1.349 . S
C3257 C3255 1.327 . S
C3257 C3273 1.429 . S
C3257 H3279 0.950 . S
C3258 H3254 0.949 . S
C3258 C3266 1.574 . S
C3258 C3274 1.368 . S
H3259 C3267 0.950 . S
H3260 C3265 0.950 . S
H3261 C3266 0.949 . S
H3262 C3268 0.950 . S
H3263 C3269 0.950 . S
H3264 C3270 0.949 . S
C3265 H3260 0.950 . S
C3265 C3267 1.327 . S
C3265 C3271 1.429 . S
C3266 C3258 1.574 . S
C3266 H3261 0.949 . S
C3266 C3272 1.368 . S
C3267 C3251 1.349 . S
C3267 H3259 0.950 . S
C3267 C3265 1.327 . S
C3268 C3256 1.349 . S
C3268 H3262 0.950 . S
C3268 C3269 1.327 . S
C3269 H3263 0.950 . S
C3269 C3268 1.327 . S
C3269 C3273 1.429 . S
C3270 C3253 1.574 . S
C3270 H3264 0.949 . S
C3270 C3274 1.368 . S
C3271 C3252 1.429 . S
C3271 C3265 1.429 . S
C3271 C3272 1.523 . S
C3272 C3253 1.368 . S
C3272 C3266 1.368 . S
C3272 C3271 1.523 . S
C3273 C3257 1.429 . S
C3273 C3269 1.429 . S
C3273 C3274 1.523 . S
C3274 C3258 1.368 . S
C3274 C3270 1.368 . S
C3274 C3273 1.523 . S
H3275 C3250 0.950 . S
H3276 C3252 0.950 . S
H3277 C3253 0.949 . S
H3278 C3255 0.950 . S
H3279 C3257 0.950 . S
C3280 C3281 1.349 . S
C3280 C3282 1.327 . S
C3280 H3305 0.950 . S
C3281 C3280 1.349 . S
C3281 C3297 1.349 . S
C3282 C3280 1.327 . S
C3282 C3301 1.429 . S
C3282 H3306 0.950 . S
C3283 C3300 1.574 . S
C3283 C3302 1.368 . S
C3283 H3307 0.949 . S
H3284 C3288 0.949 . S
C3285 C3286 1.349 . S
C3285 C3287 1.327 . S
C3285 H3308 0.950 . S
C3286 C3285 1.349 . S
C3286 C3298 1.349 . S
C3287 C3285 1.327 . S
C3287 C3303 1.429 . S
C3287 H3309 0.950 . S
C3288 H3284 0.949 . S
C3288 C3296 1.574 . S
C3288 C3304 1.368 . S
H3289 C3297 0.950 . S
H3290 C3295 0.950 . S
H3291 C3296 0.949 . S
H3292 C3298 0.950 . S
H3293 C3299 0.950 . S
H3294 C3300 0.949 . S
C3295 H3290 0.950 . S
C3295 C3297 1.327 . S
C3295 C3301 1.429 . S
C3296 C3288 1.574 . S
C3296 H3291 0.949 . S
C3296 C3302 1.368 . S
C3297 C3281 1.349 . S
C3297 H3289 0.950 . S
C3297 C3295 1.327 . S
C3298 C3286 1.349 . S
C3298 H3292 0.950 . S
C3298 C3299 1.327 . S
C3299 H3293 0.950 . S
C3299 C3298 1.327 . S
C3299 C3303 1.429 . S
C3300 C3283 1.574 . S
C3300 H3294 0.949 . S
C3300 C3304 1.368 . S
C3301 C3282 1.429 . S
C3301 C3295 1.429 . S
C3301 C3302 1.523 . S
C3302 C3283 1.368 . S
C3302 C3296 1.368 . S
C3302 C3301 1.523 . S
C3303 C3287 1.429 . S
C3303 C3299 1.429 . S
C3303 C3304 1.523 . S
C3304 C3288 1.368 . S
C3304 C3300 1.368 . S
C3304 C3303 1.523 . S
H3305 C3280 0.950 . S
H3306 C3282 0.950 . S
H3307 C3283 0.949 . S
H3308 C3285 0.950 . S
H3309 C3287 0.950 . S
C3310 C3311 1.349 . S
C3310 C3312 1.327 . S
C3310 H3335 0.950 . S
C3311 C3310 1.349 . S
C3311 C3327 1.349 . S
C3312 C3310 1.327 . S
C3312 C3331 1.429 . S
C3312 H3336 0.950 . S
C3313 C3330 1.574 . S
C3313 C3332 1.368 . S
C3313 H3337 0.949 . S
H3314 C3318 0.949 . S
C3315 C3316 1.349 . S
C3315 C3317 1.327 . S
C3315 H3338 0.950 . S
C3316 C3315 1.349 . S
C3316 C3328 1.349 . S
C3317 C3315 1.327 . S
C3317 C3333 1.429 . S
C3317 H3339 0.950 . S
C3318 H3314 0.949 . S
C3318 C3326 1.574 . S
C3318 C3334 1.368 . S
H3319 C3327 0.950 . S
H3320 C3325 0.950 . S
H3321 C3326 0.949 . S
H3322 C3328 0.950 . S
H3323 C3329 0.950 . S
H3324 C3330 0.949 . S
C3325 H3320 0.950 . S
C3325 C3327 1.327 . S
C3325 C3331 1.429 . S
C3326 C3318 1.574 . S
C3326 H3321 0.949 . S
C3326 C3332 1.368 . S
C3327 C3311 1.349 . S
C3327 H3319 0.950 . S
C3327 C3325 1.327 . S
C3328 C3316 1.349 . S
C3328 H3322 0.950 . S
C3328 C3329 1.327 . S
C3329 H3323 0.950 . S
C3329 C3328 1.327 . S
C3329 C3333 1.429 . S
C3330 C3313 1.574 . S
C3330 H3324 0.949 . S
C3330 C3334 1.368 . S
C3331 C3312 1.429 . S
C3331 C3325 1.429 . S
C3331 C3332 1.523 . S
C3332 C3313 1.368 . S
C3332 C3326 1.368 . S
C3332 C3331 1.523 . S
C3333 C3317 1.429 . S
C3333 C3329 1.429 . S
C3333 C3334 1.523 . S
C3334 C3318 1.368 . S
C3334 C3330 1.368 . S
C3334 C3333 1.523 . S
H3335 C3310 0.950 . S
H3336 C3312 0.950 . S
H3337 C3313 0.949 . S
H3338 C3315 0.950 . S
H3339 C3317 0.950 . S
C3340 C3341 1.349 . S
C3340 C3342 1.327 . S
C3340 H3365 0.950 . S
C3341 C3340 1.349 . S
C3341 C3357 1.349 . S
C3342 C3340 1.327 . S
C3342 C3361 1.429 . S
C3342 H3366 0.950 . S
C3343 C3360 1.574 . S
C3343 C3362 1.368 . S
C3343 H3367 0.949 . S
H3344 C3348 0.949 . S
C3345 C3346 1.349 . S
C3345 C3347 1.327 . S
C3345 H3368 0.950 . S
C3346 C3345 1.349 . S
C3346 C3358 1.349 . S
C3347 C3345 1.327 . S
C3347 C3363 1.429 . S
C3347 H3369 0.950 . S
C3348 H3344 0.949 . S
C3348 C3356 1.574 . S
C3348 C3364 1.368 . S
H3349 C3357 0.950 . S
H3350 C3355 0.950 . S
H3351 C3356 0.949 . S
H3352 C3358 0.950 . S
H3353 C3359 0.950 . S
H3354 C3360 0.949 . S
C3355 H3350 0.950 . S
C3355 C3357 1.327 . S
C3355 C3361 1.429 . S
C3356 C3348 1.574 . S
C3356 H3351 0.949 . S
C3356 C3362 1.368 . S
C3357 C3341 1.349 . S
C3357 H3349 0.950 . S
C3357 C3355 1.327 . S
C3358 C3346 1.349 . S
C3358 H3352 0.950 . S
C3358 C3359 1.327 . S
C3359 H3353 0.950 . S
C3359 C3358 1.327 . S
C3359 C3363 1.429 . S
C3360 C3343 1.574 . S
C3360 H3354 0.949 . S
C3360 C3364 1.368 . S
C3361 C3342 1.429 . S
C3361 C3355 1.429 . S
C3361 C3362 1.523 . S
C3362 C3343 1.368 . S
C3362 C3356 1.368 . S
C3362 C3361 1.523 . S
C3363 C3347 1.429 . S
C3363 C3359 1.429 . S
C3363 C3364 1.523 . S
C3364 C3348 1.368 . S
C3364 C3360 1.368 . S
C3364 C3363 1.523 . S
H3365 C3340 0.950 . S
H3366 C3342 0.950 . S
H3367 C3343 0.949 . S
H3368 C3345 0.950 . S
H3369 C3347 0.950 . S
C3370 C3371 1.349 . S
C3370 C3372 1.327 . S
C3370 H3395 0.950 . S
C3371 C3370 1.349 . S
C3371 C3387 1.349 . S
C3372 C3370 1.327 . S
C3372 C3391 1.429 . S
C3372 H3396 0.950 . S
C3373 C3390 1.574 . S
C3373 C3392 1.368 . S
C3373 H3397 0.949 . S
H3374 C3378 0.949 . S
C3375 C3376 1.349 . S
C3375 C3377 1.327 . S
C3375 H3398 0.950 . S
C3376 C3375 1.349 . S
C3376 C3388 1.349 . S
C3377 C3375 1.327 . S
C3377 C3393 1.429 . S
C3377 H3399 0.950 . S
C3378 H3374 0.949 . S
C3378 C3386 1.574 . S
C3378 C3394 1.368 . S
H3379 C3387 0.950 . S
H3380 C3385 0.950 . S
H3381 C3386 0.949 . S
H3382 C3388 0.950 . S
H3383 C3389 0.950 . S
H3384 C3390 0.949 . S
C3385 H3380 0.950 . S
C3385 C3387 1.327 . S
C3385 C3391 1.429 . S
C3386 C3378 1.574 . S
C3386 H3381 0.949 . S
C3386 C3392 1.368 . S
C3387 C3371 1.349 . S
C3387 H3379 0.950 . S
C3387 C3385 1.327 . S
C3388 C3376 1.349 . S
C3388 H3382 0.950 . S
C3388 C3389 1.327 . S
C3389 H3383 0.950 . S
C3389 C3388 1.327 . S
C3389 C3393 1.429 . S
C3390 C3373 1.574 . S
C3390 H3384 0.949 . S
C3390 C3394 1.368 . S
C3391 C3372 1.429 . S
C3391 C3385 1.429 . S
C3391 C3392 1.523 . S
C3392 C3373 1.368 . S
C3392 C3386 1.368 . S
C3392 C3391 1.523 . S
C3393 C3377 1.429 . S
C3393 C3389 1.429 . S
C3393 C3394 1.523 . S
C3394 C3378 1.368 . S
C3394 C3390 1.368 . S
C3394 C3393 1.523 . S
H3395 C3370 0.950 . S
H3396 C3372 0.950 . S
H3397 C3373 0.949 . S
H3398 C3375 0.950 . S
H3399 C3377 0.950 . S
C3400 C3401 1.349 . S
C3400 C3402 1.327 . S
C3400 H3425 0.950 . S
C3401 C3400 1.349 . S
C3401 C3417 1.349 . S
C3402 C3400 1.327 . S
C3402 C3421 1.429 . S
C3402 H3426 0.950 . S
C3403 C3420 1.574 . S
C3403 C3422 1.368 . S
C3403 H3427 0.949 . S
H3404 C3408 0.949 . S
C3405 C3406 1.349 . S
C3405 C3407 1.327 . S
C3405 H3428 0.950 . S
C3406 C3405 1.349 . S
C3406 C3418 1.349 . S
C3407 C3405 1.327 . S
C3407 C3423 1.429 . S
C3407 H3429 0.950 . S
C3408 H3404 0.949 . S
C3408 C3416 1.574 . S
C3408 C3424 1.368 . S
H3409 C3417 0.950 . S
H3410 C3415 0.950 . S
H3411 C3416 0.949 . S
H3412 C3418 0.950 . S
H3413 C3419 0.950 . S
H3414 C3420 0.949 . S
C3415 H3410 0.950 . S
C3415 C3417 1.327 . S
C3415 C3421 1.429 . S
C3416 C3408 1.574 . S
C3416 H3411 0.949 . S
C3416 C3422 1.368 . S
C3417 C3401 1.349 . S
C3417 H3409 0.950 . S
C3417 C3415 1.327 . S
C3418 C3406 1.349 . S
C3418 H3412 0.950 . S
C3418 C3419 1.327 . S
C3419 H3413 0.950 . S
C3419 C3418 1.327 . S
C3419 C3423 1.429 . S
C3420 C3403 1.574 . S
C3420 H3414 0.949 . S
C3420 C3424 1.368 . S
C3421 C3402 1.429 . S
C3421 C3415 1.429 . S
C3421 C3422 1.523 . S
C3422 C3403 1.368 . S
C3422 C3416 1.368 . S
C3422 C3421 1.523 . S
C3423 C3407 1.429 . S
C3423 C3419 1.429 . S
C3423 C3424 1.523 . S
C3424 C3408 1.368 . S
C3424 C3420 1.368 . S
C3424 C3423 1.523 . S
H3425 C3400 0.950 . S
H3426 C3402 0.950 . S
H3427 C3403 0.949 . S
H3428 C3405 0.950 . S
H3429 C3407 0.950 . S
C3430 C3431 1.349 . S
C3430 C3432 1.327 . S
C3430 H3455 0.950 . S
C3431 C3430 1.349 . S
C3431 C3447 1.349 . S
C3432 C3430 1.327 . S
C3432 C3451 1.429 . S
C3432 H3456 0.950 . S
C3433 C3450 1.574 . S
C3433 C3452 1.368 . S
C3433 H3457 0.949 . S
H3434 C3438 0.949 . S
C3435 C3436 1.349 . S
C3435 C3437 1.327 . S
C3435 H3458 0.950 . S
C3436 C3435 1.349 . S
C3436 C3448 1.349 . S
C3437 C3435 1.327 . S
C3437 C3453 1.429 . S
C3437 H3459 0.950 . S
C3438 H3434 0.949 . S
C3438 C3446 1.574 . S
C3438 C3454 1.368 . S
H3439 C3447 0.950 . S
H3440 C3445 0.950 . S
H3441 C3446 0.949 . S
H3442 C3448 0.950 . S
H3443 C3449 0.950 . S
H3444 C3450 0.949 . S
C3445 H3440 0.950 . S
C3445 C3447 1.327 . S
C3445 C3451 1.429 . S
C3446 C3438 1.574 . S
C3446 H3441 0.949 . S
C3446 C3452 1.368 . S
C3447 C3431 1.349 . S
C3447 H3439 0.950 . S
C3447 C3445 1.327 . S
C3448 C3436 1.349 . S
C3448 H3442 0.950 . S
C3448 C3449 1.327 . S
C3449 H3443 0.950 . S
C3449 C3448 1.327 . S
C3449 C3453 1.429 . S
C3450 C3433 1.574 . S
C3450 H3444 0.949 . S
C3450 C3454 1.368 . S
C3451 C3432 1.429 . S
C3451 C3445 1.429 . S
C3451 C3452 1.523 . S
C3452 C3433 1.368 . S
C3452 C3446 1.368 . S
C3452 C3451 1.523 . S
C3453 C3437 1.429 . S
C3453 C3449 1.429 . S
C3453 C3454 1.523 . S
C3454 C3438 1.368 . S
C3454 C3450 1.368 . S
C3454 C3453 1.523 . S
H3455 C3430 0.950 . S
H3456 C3432 0.950 . S
H3457 C3433 0.949 . S
H3458 C3435 0.950 . S
H3459 C3437 0.950 . S
C3460 C3461 1.349 . S
C3460 C3462 1.327 . S
C3460 H3485 0.950 . S
C3461 C3460 1.349 . S
C3461 C3477 1.349 . S
C3462 C3460 1.327 . S
C3462 C3481 1.429 . S
C3462 H3486 0.950 . S
C3463 C3480 1.574 . S
C3463 C3482 1.368 . S
C3463 H3487 0.949 . S
H3464 C3468 0.949 . S
C3465 C3466 1.349 . S
C3465 C3467 1.327 . S
C3465 H3488 0.950 . S
C3466 C3465 1.349 . S
C3466 C3478 1.349 . S
C3467 C3465 1.327 . S
C3467 C3483 1.429 . S
C3467 H3489 0.950 . S
C3468 H3464 0.949 . S
C3468 C3476 1.574 . S
C3468 C3484 1.368 . S
H3469 C3477 0.950 . S
H3470 C3475 0.950 . S
H3471 C3476 0.949 . S
H3472 C3478 0.950 . S
H3473 C3479 0.950 . S
H3474 C3480 0.949 . S
C3475 H3470 0.950 . S
C3475 C3477 1.327 . S
C3475 C3481 1.429 . S
C3476 C3468 1.574 . S
C3476 H3471 0.949 . S
C3476 C3482 1.368 . S
C3477 C3461 1.349 . S
C3477 H3469 0.950 . S
C3477 C3475 1.327 . S
C3478 C3466 1.349 . S
C3478 H3472 0.950 . S
C3478 C3479 1.327 . S
C3479 H3473 0.950 . S
C3479 C3478 1.327 . S
C3479 C3483 1.429 . S
C3480 C3463 1.574 . S
C3480 H3474 0.949 . S
C3480 C3484 1.368 . S
C3481 C3462 1.429 . S
C3481 C3475 1.429 . S
C3481 C3482 1.523 . S
C3482 C3463 1.368 . S
C3482 C3476 1.368 . S
C3482 C3481 1.523 . S
C3483 C3467 1.429 . S
C3483 C3479 1.429 . S
C3483 C3484 1.523 . S
C3484 C3468 1.368 . S
C3484 C3480 1.368 . S
C3484 C3483 1.523 . S
H3485 C3460 0.950 . S
H3486 C3462 0.950 . S
H3487 C3463 0.949 . S
H3488 C3465 0.950 . S
H3489 C3467 0.950 . S
C3490 C3491 1.349 . S
C3490 C3492 1.327 . S
C3490 H3515 0.950 . S
C3491 C3490 1.349 . S
C3491 C3507 1.349 . S
C3492 C3490 1.327 . S
C3492 C3511 1.429 . S
C3492 H3516 0.950 . S
C3493 C3510 1.574 . S
C3493 C3512 1.368 . S
C3493 H3517 0.949 . S
H3494 C3498 0.949 . S
C3495 C3496 1.349 . S
C3495 C3497 1.327 . S
C3495 H3518 0.950 . S
C3496 C3495 1.349 . S
C3496 C3508 1.349 . S
C3497 C3495 1.327 . S
C3497 C3513 1.429 . S
C3497 H3519 0.950 . S
C3498 H3494 0.949 . S
C3498 C3506 1.574 . S
C3498 C3514 1.368 . S
H3499 C3507 0.950 . S
H3500 C3505 0.950 . S
H3501 C3506 0.949 . S
H3502 C3508 0.950 . S
H3503 C3509 0.950 . S
H3504 C3510 0.949 . S
C3505 H3500 0.950 . S
C3505 C3507 1.327 . S
C3505 C3511 1.429 . S
C3506 C3498 1.574 . S
C3506 H3501 0.949 . S
C3506 C3512 1.368 . S
C3507 C3491 1.349 . S
C3507 H3499 0.950 . S
C3507 C3505 1.327 . S
C3508 C3496 1.349 . S
C3508 H3502 0.950 . S
C3508 C3509 1.327 . S
C3509 H3503 0.950 . S
C3509 C3508 1.327 . S
C3509 C3513 1.429 . S
C3510 C3493 1.574 . S
C3510 H3504 0.949 . S
C3510 C3514 1.368 . S
C3511 C3492 1.429 . S
C3511 C3505 1.429 . S
C3511 C3512 1.523 . S
C3512 C3493 1.368 . S
C3512 C3506 1.368 . S
C3512 C3511 1.523 . S
C3513 C3497 1.429 . S
C3513 C3509 1.429 . S
C3513 C3514 1.523 . S
C3514 C3498 1.368 . S
C3514 C3510 1.368 . S
C3514 C3513 1.523 . S
H3515 C3490 0.950 . S
H3516 C3492 0.950 . S
H3517 C3493 0.949 . S
H3518 C3495 0.950 . S
H3519 C3497 0.950 . S
C3520 C3521 1.349 . S
C3520 C3522 1.327 . S
C3520 H3545 0.950 . S
C3521 C3520 1.349 . S
C3521 C3537 1.349 . S
C3522 C3520 1.327 . S
C3522 C3541 1.429 . S
C3522 H3546 0.950 . S
C3523 C3540 1.574 . S
C3523 C3542 1.368 . S
C3523 H3547 0.949 . S
H3524 C3528 0.949 . S
C3525 C3526 1.349 . S
C3525 C3527 1.327 . S
C3525 H3548 0.950 . S
C3526 C3525 1.349 . S
C3526 C3538 1.349 . S
C3527 C3525 1.327 . S
C3527 C3543 1.429 . S
C3527 H3549 0.950 . S
C3528 H3524 0.949 . S
C3528 C3536 1.574 . S
C3528 C3544 1.368 . S
H3529 C3537 0.950 . S
H3530 C3535 0.950 . S
H3531 C3536 0.949 . S
H3532 C3538 0.950 . S
H3533 C3539 0.950 . S
H3534 C3540 0.949 . S
C3535 H3530 0.950 . S
C3535 C3537 1.327 . S
C3535 C3541 1.429 . S
C3536 C3528 1.574 . S
C3536 H3531 0.949 . S
C3536 C3542 1.368 . S
C3537 C3521 1.349 . S
C3537 H3529 0.950 . S
C3537 C3535 1.327 . S
C3538 C3526 1.349 . S
C3538 H3532 0.950 . S
C3538 C3539 1.327 . S
C3539 H3533 0.950 . S
C3539 C3538 1.327 . S
C3539 C3543 1.429 . S
C3540 C3523 1.574 . S
C3540 H3534 0.949 . S
C3540 C3544 1.368 . S
C3541 C3522 1.429 . S
C3541 C3535 1.429 . S
C3541 C3542 1.523 . S
C3542 C3523 1.368 . S
C3542 C3536 1.368 . S
C3542 C3541 1.523 . S
C3543 C3527 1.429 . S
C3543 C3539 1.429 . S
C3543 C3544 1.523 . S
C3544 C3528 1.368 . S
C3544 C3540 1.368 . S
C3544 C3543 1.523 . S
H3545 C3520 0.950 . S
H3546 C3522 0.950 . S
H3547 C3523 0.949 . S
H3548 C3525 0.950 . S
H3549 C3527 0.950 . S
C3550 C3551 1.349 . S
C3550 C3552 1.327 . S
C3550 H3575 0.950 . S
C3551 C3550 1.349 . S
C3551 C3567 1.349 . S
C3552 C3550 1.327 . S
C3552 C3571 1.429 . S
C3552 H3576 0.950 . S
C3553 C3570 1.574 . S
C3553 C3572 1.368 . S
C3553 H3577 0.949 . S
H3554 C3558 0.949 . S
C3555 C3556 1.349 . S
C3555 C3557 1.327 . S
C3555 H3578 0.950 . S
C3556 C3555 1.349 . S
C3556 C3568 1.349 . S
C3557 C3555 1.327 . S
C3557 C3573 1.429 . S
C3557 H3579 0.950 . S
C3558 H3554 0.949 . S
C3558 C3566 1.574 . S
C3558 C3574 1.368 . S
H3559 C3567 0.950 . S
H3560 C3565 0.950 . S
H3561 C3566 0.949 . S
H3562 C3568 0.950 . S
H3563 C3569 0.950 . S
H3564 C3570 0.949 . S
C3565 H3560 0.950 . S
C3565 C3567 1.327 . S
C3565 C3571 1.429 . S
C3566 C3558 1.574 . S
C3566 H3561 0.949 . S
C3566 C3572 1.368 . S
C3567 C3551 1.349 . S
C3567 H3559 0.950 . S
C3567 C3565 1.327 . S
C3568 C3556 1.349 . S
C3568 H3562 0.950 . S
C3568 C3569 1.327 . S
C3569 H3563 0.950 . S
C3569 C3568 1.327 . S
C3569 C3573 1.429 . S
C3570 C3553 1.574 . S
C3570 H3564 0.949 . S
C3570 C3574 1.368 . S
C3571 C3552 1.429 . S
C3571 C3565 1.429 . S
C3571 C3572 1.523 . S
C3572 C3553 1.368 . S
C3572 C3566 1.368 . S
C3572 C3571 1.523 . S
C3573 C3557 1.429 . S
C3573 C3569 1.429 . S
C3573 C3574 1.523 . S
C3574 C3558 1.368 . S
C3574 C3570 1.368 . S
C3574 C3573 1.523 . S
H3575 C3550 0.950 . S
H3576 C3552 0.950 . S
H3577 C3553 0.949 . S
H3578 C3555 0.950 . S
H3579 C3557 0.950 . S
C3580 C3581 1.349 . S
C3580 C3582 1.327 . S
C3580 H3605 0.950 . S
C3581 C3580 1.349 . S
C3581 C3597 1.349 . S
C3582 C3580 1.327 . S
C3582 C3601 1.429 . S
C3582 H3606 0.950 . S
C3583 C3600 1.574 . S
C3583 C3602 1.368 . S
C3583 H3607 0.949 . S
H3584 C3588 0.949 . S
C3585 C3586 1.349 . S
C3585 C3587 1.327 . S
C3585 H3608 0.950 . S
C3586 C3585 1.349 . S
C3586 C3598 1.349 . S
C3587 C3585 1.327 . S
C3587 C3603 1.429 . S
C3587 H3609 0.950 . S
C3588 H3584 0.949 . S
C3588 C3596 1.574 . S
C3588 C3604 1.368 . S
H3589 C3597 0.950 . S
H3590 C3595 0.950 . S
H3591 C3596 0.949 . S
H3592 C3598 0.950 . S
H3593 C3599 0.950 . S
H3594 C3600 0.949 . S
C3595 H3590 0.950 . S
C3595 C3597 1.327 . S
C3595 C3601 1.429 . S
C3596 C3588 1.574 . S
C3596 H3591 0.949 . S
C3596 C3602 1.368 . S
C3597 C3581 1.349 . S
C3597 H3589 0.950 . S
C3597 C3595 1.327 . S
C3598 C3586 1.349 . S
C3598 H3592 0.950 . S
C3598 C3599 1.327 . S
C3599 H3593 0.950 . S
C3599 C3598 1.327 . S
C3599 C3603 1.429 . S
C3600 C3583 1.574 . S
C3600 H3594 0.949 . S
C3600 C3604 1.368 . S
C3601 C3582 1.429 . S
C3601 C3595 1.429 . S
C3601 C3602 1.523 . S
C3602 C3583 1.368 . S
C3602 C3596 1.368 . S
C3602 C3601 1.523 . S
C3603 C3587 1.429 . S
C3603 C3599 1.429 . S
C3603 C3604 1.523 . S
C3604 C3588 1.368 . S
C3604 C3600 1.368 . S
C3604 C3603 1.523 . S
H3605 C3580 0.950 . S
H3606 C3582 0.950 . S
H3607 C3583 0.949 . S
H3608 C3585 0.950 . S
H3609 C3587 0.950 . S
C3610 C3611 1.349 . S
C3610 C3612 1.327 . S
C3610 H3635 0.950 . S
C3611 C3610 1.349 . S
C3611 C3627 1.349 . S
C3612 C3610 1.327 . S
C3612 C3631 1.429 . S
C3612 H3636 0.950 . S
C3613 C3630 1.574 . S
C3613 C3632 1.368 . S
C3613 H3637 0.949 . S
H3614 C3618 0.949 1_545 S
C3615 C3616 1.349 . S
C3615 C3617 1.327 . S
C3615 H3638 0.950 . S
C3616 C3615 1.349 . S
C3616 C3628 1.349 1_565 S
C3617 C3615 1.327 . S
C3617 C3633 1.429 . S
C3617 H3639 0.950 . S
C3618 H3614 0.949 1_565 S
C3618 C3626 1.574 . S
C3618 C3634 1.368 . S
H3619 C3627 0.950 . S
H3620 C3625 0.950 . S
H3621 C3626 0.949 . S
H3622 C3628 0.950 . S
H3623 C3629 0.950 . S
H3624 C3630 0.949 . S
C3625 H3620 0.950 . S
C3625 C3627 1.327 . S
C3625 C3631 1.429 . S
C3626 C3618 1.574 . S
C3626 H3621 0.949 . S
C3626 C3632 1.368 . S
C3627 C3611 1.349 . S
C3627 H3619 0.950 . S
C3627 C3625 1.327 . S
C3628 C3616 1.349 1_545 S
C3628 H3622 0.950 . S
C3628 C3629 1.327 . S
C3629 H3623 0.950 . S
C3629 C3628 1.327 . S
C3629 C3633 1.429 1_545 S
C3630 C3613 1.574 . S
C3630 H3624 0.949 . S
C3630 C3634 1.368 . S
C3631 C3612 1.429 . S
C3631 C3625 1.429 . S
C3631 C3632 1.523 . S
C3632 C3613 1.368 . S
C3632 C3626 1.368 . S
C3632 C3631 1.523 . S
C3633 C3617 1.429 . S
C3633 C3629 1.429 1_565 S
C3633 C3634 1.523 . S
C3634 C3618 1.368 . S
C3634 C3630 1.368 . S
C3634 C3633 1.523 . S
H3635 C3610 0.950 . S
H3636 C3612 0.950 . S
H3637 C3613 0.949 . S
H3638 C3615 0.950 . S
H3639 C3617 0.950 . S
C3640 C3641 1.349 . S
C3640 C3642 1.327 . S
C3640 H3665 0.950 . S
C3641 C3640 1.349 . S
C3641 C3657 1.349 . S
C3642 C3640 1.327 . S
C3642 C3661 1.429 . S
C3642 H3666 0.950 . S
C3643 C3660 1.574 . S
C3643 C3662 1.368 . S
C3643 H3667 0.949 . S
H3644 C3648 0.949 . S
C3645 C3646 1.349 . S
C3645 C3647 1.327 . S
C3645 H3668 0.950 . S
C3646 C3645 1.349 . S
C3646 C3658 1.349 . S
C3647 C3645 1.327 . S
C3647 C3663 1.429 . S
C3647 H3669 0.950 . S
C3648 H3644 0.949 . S
C3648 C3656 1.574 . S
C3648 C3664 1.368 . S
H3649 C3657 0.950 . S
H3650 C3655 0.950 . S
H3651 C3656 0.949 . S
H3652 C3658 0.950 . S
H3653 C3659 0.950 . S
H3654 C3660 0.949 . S
C3655 H3650 0.950 . S
C3655 C3657 1.327 . S
C3655 C3661 1.429 . S
C3656 C3648 1.574 . S
C3656 H3651 0.949 . S
C3656 C3662 1.368 . S
C3657 C3641 1.349 . S
C3657 H3649 0.950 . S
C3657 C3655 1.327 . S
C3658 C3646 1.349 . S
C3658 H3652 0.950 . S
C3658 C3659 1.327 . S
C3659 H3653 0.950 . S
C3659 C3658 1.327 . S
C3659 C3663 1.429 . S
C3660 C3643 1.574 . S
C3660 H3654 0.949 . S
C3660 C3664 1.368 . S
C3661 C3642 1.429 . S
C3661 C3655 1.429 . S
C3661 C3662 1.523 . S
C3662 C3643 1.368 . S
C3662 C3656 1.368 . S
C3662 C3661 1.523 . S
C3663 C3647 1.429 . S
C3663 C3659 1.429 . S
C3663 C3664 1.523 . S
C3664 C3648 1.368 . S
C3664 C3660 1.368 . S
C3664 C3663 1.523 . S
H3665 C3640 0.950 . S
H3666 C3642 0.950 . S
H3667 C3643 0.949 . S
H3668 C3645 0.950 . S
H3669 C3647 0.950 . S
C3670 C3671 1.349 1_556 S
C3670 C3672 1.319 1_556 S
C3670 H3695 0.950 . S
C3671 C3670 1.349 1_554 S
C3671 C3687 1.349 . S
C3672 C3670 1.319 1_554 S
C3672 C3691 1.449 . S
C3672 H3696 0.939 1_554 S
C3673 C3690 1.574 . S
C3673 C3692 1.368 . S
C3673 H3697 0.949 . S
H3674 C3678 0.949 . S
C3675 C3676 1.349 . S
C3675 C3677 1.327 . S
C3675 H3698 0.950 . S
C3676 C3675 1.349 . S
C3676 C3688 1.349 . S
C3677 C3675 1.327 . S
C3677 C3693 1.429 . S
C3677 H3699 0.950 . S
C3678 H3674 0.949 . S
C3678 C3686 1.574 . S
C3678 C3694 1.368 . S
H3679 C3687 0.950 . S
H3680 C3685 0.950 . S
H3681 C3686 0.976 . S
H3682 C3688 0.950 . S
H3683 C3689 0.950 . S
H3684 C3690 0.949 . S
C3685 H3680 0.950 . S
C3685 C3687 1.327 . S
C3685 C3691 1.429 . S
C3686 C3678 1.574 . S
C3686 H3681 0.976 . S
C3686 C3692 1.368 . S
C3687 C3671 1.349 . S
C3687 H3679 0.950 . S
C3687 C3685 1.327 . S
C3688 C3676 1.349 . S
C3688 H3682 0.950 . S
C3688 C3689 1.327 . S
C3689 H3683 0.950 . S
C3689 C3688 1.327 . S
C3689 C3693 1.429 . S
C3690 C3673 1.574 . S
C3690 H3684 0.949 . S
C3690 C3694 1.368 . S
C3691 C3672 1.449 . S
C3691 C3685 1.429 . S
C3691 C3692 1.523 . S
C3692 C3673 1.368 . S
C3692 C3686 1.368 . S
C3692 C3691 1.523 . S
C3693 C3677 1.429 . S
C3693 C3689 1.429 . S
C3693 C3694 1.523 . S
C3694 C3678 1.368 . S
C3694 C3690 1.368 . S
C3694 C3693 1.523 . S
H3695 C3670 0.950 . S
H3696 C3672 0.939 1_556 S
H3697 C3673 0.949 . S
H3698 C3675 0.950 . S
H3699 C3677 0.950 . S
C3700 C3701 1.349 . S
C3700 C3702 1.327 . S
C3700 H3725 0.950 . S
C3701 C3700 1.349 . S
C3701 C3717 1.349 . S
C3702 C3700 1.327 . S
C3702 C3721 1.429 . S
C3702 H3726 0.950 . S
C3703 C3720 1.574 . S
C3703 C3722 1.368 . S
C3703 H3727 0.949 . S
H3704 C3708 0.949 . S
C3705 C3706 1.349 . S
C3705 C3707 1.327 . S
C3705 H3728 0.950 . S
C3706 C3705 1.349 . S
C3706 C3718 1.349 . S
C3707 C3705 1.327 . S
C3707 C3723 1.429 . S
C3707 H3729 0.950 . S
C3708 H3704 0.949 . S
C3708 C3716 1.574 . S
C3708 C3724 1.368 . S
H3709 C3717 0.950 . S
H3710 C3715 0.950 . S
H3711 C3716 0.949 . S
H3712 C3718 0.950 . S
H3713 C3719 0.950 . S
H3714 C3720 0.949 . S
C3715 H3710 0.950 . S
C3715 C3717 1.327 . S
C3715 C3721 1.429 . S
C3716 C3708 1.574 . S
C3716 H3711 0.949 . S
C3716 C3722 1.368 . S
C3717 C3701 1.349 . S
C3717 H3709 0.950 . S
C3717 C3715 1.327 . S
C3718 C3706 1.349 . S
C3718 H3712 0.950 . S
C3718 C3719 1.327 . S
C3719 H3713 0.950 . S
C3719 C3718 1.327 . S
C3719 C3723 1.429 . S
C3720 C3703 1.574 . S
C3720 H3714 0.949 . S
C3720 C3724 1.368 . S
C3721 C3702 1.429 . S
C3721 C3715 1.429 . S
C3721 C3722 1.523 . S
C3722 C3703 1.368 . S
C3722 C3716 1.368 . S
C3722 C3721 1.523 . S
C3723 C3707 1.429 . S
C3723 C3719 1.429 . S
C3723 C3724 1.523 . S
C3724 C3708 1.368 . S
C3724 C3720 1.368 . S
C3724 C3723 1.523 . S
H3725 C3700 0.950 . S
H3726 C3702 0.950 . S
H3727 C3703 0.949 . S
H3728 C3705 0.950 . S
H3729 C3707 0.950 . S
C3730 C3731 1.349 . S
C3730 C3732 1.327 . S
C3730 H3755 0.950 . S
C3731 C3730 1.349 . S
C3731 C3747 1.349 . S
C3732 C3730 1.327 . S
C3732 C3751 1.429 . S
C3732 H3756 0.950 . S
C3733 C3750 1.574 . S
C3733 C3752 1.368 . S
C3733 H3757 0.949 . S
H3734 C3738 0.949 . S
C3735 C3736 1.349 . S
C3735 C3737 1.327 . S
C3735 H3758 0.950 . S
C3736 C3735 1.349 . S
C3736 C3748 1.349 . S
C3737 C3735 1.327 . S
C3737 C3753 1.429 . S
C3737 H3759 0.950 . S
C3738 H3734 0.949 . S
C3738 C3746 1.574 . S
C3738 C3754 1.368 . S
H3739 C3747 0.950 . S
H3740 C3745 0.950 . S
H3741 C3746 0.949 . S
H3742 C3748 0.950 . S
H3743 C3749 0.950 . S
H3744 C3750 0.949 . S
C3745 H3740 0.950 . S
C3745 C3747 1.327 . S
C3745 C3751 1.429 . S
C3746 C3738 1.574 . S
C3746 H3741 0.949 . S
C3746 C3752 1.368 . S
C3747 C3731 1.349 . S
C3747 H3739 0.950 . S
C3747 C3745 1.327 . S
C3748 C3736 1.349 . S
C3748 H3742 0.950 . S
C3748 C3749 1.327 . S
C3749 H3743 0.950 . S
C3749 C3748 1.327 . S
C3749 C3753 1.429 . S
C3750 C3733 1.574 . S
C3750 H3744 0.949 . S
C3750 C3754 1.368 . S
C3751 C3732 1.429 . S
C3751 C3745 1.429 . S
C3751 C3752 1.523 . S
C3752 C3733 1.368 . S
C3752 C3746 1.368 . S
C3752 C3751 1.523 . S
C3753 C3737 1.429 . S
C3753 C3749 1.429 . S
C3753 C3754 1.523 . S
C3754 C3738 1.368 . S
C3754 C3750 1.368 . S
C3754 C3753 1.523 . S
H3755 C3730 0.950 . S
H3756 C3732 0.950 . S
H3757 C3733 0.949 . S
H3758 C3735 0.950 . S
H3759 C3737 0.950 . S
C886 C353 0.797 . S
C881 C4 0.791 . S
C911 C19 1.375 . S
C916 C399 1.645 . S
C941 C39 0.660 . S
C946 C408 0.659 . S
C976 C446 1.435 . S
C971 C54 1.451 . S
C1001 C18 1.361 . S
C1006 C480 1.388 . S
C1036 C510 0.647 . S
C1031 C40 0.645 . S
C1066 C569 1.353 . S
C1061 C53 1.349 . S
C1091 C5 0.737 . S
C1096 C582 0.690 . S
C1121 C61 0.885 . S
C1126 C365 1.023 . S
C1151 C74 1.023 . S
C1156 C383 1.046 . S
C1186 C404 1.290 . S
C1181 C89 1.063 . S
C1216 C442 0.527 . S
C1211 C109 0.498 . S
C1241 C68 1.043 . S
C1246 C476 1.032 . S
C1276 C506 1.398 . S
C1271 C81 1.403 . S
C1306 C553 0.970 . S
C1301 C96 0.978 . S
C1336 C578 0.567 . S
C1331 C102 0.578 . S
C1366 C349 0.386 . S
C1361 C103 0.707 . S
C1396 C608 1.413 . S
C1391 C117 1.229 . S
C1421 C130 1.182 . S
C1426 C650 1.223 . S
C1456 C693 0.407 . S
C1451 C152 0.388 . S
C1481 C60 1.152 . S
C1486 C574 1.179 . S
C1516 C412 1.216 . S
C1511 C82 1.222 . S
C1541 C137 1.088 . S
C1546 C710 1.101 . S
C1576 C761 1.329 . S
C1571 C165 1.317 . S
C1601 C172 0.830 . S
C1606 C344 0.834 . S
C1636 C744 1.755 . S
C1631 C194 1.765 . S
C1661 C207 0.657 . S
C1666 C417 0.655 . S
C1691 C215 1.323 . S
C1696 C727 1.530 . S
C1726 C489 1.476 . S
C1721 C186 1.469 . S
C1756 C655 0.649 . S
C1751 C201 0.709 . S
C1786 C540 1.395 . S
C1781 C221 1.387 . S
C1816 C795 0.698 . S
C1811 C180 0.703 . S
C1846 C336 1.087 1_655 S
C1841 C236 1.097 . S
C1871 C242 1.131 . S
C1876 C748 1.132 . S
C1906 C433 1.442 . S
C1901 C264 1.461 . S
C1931 C277 0.628 . S
C1936 C723 0.617 . S
C1961 C229 0.890 . S
C1966 C485 0.971 . S
C1991 C249 1.383 . S
C1996 C671 1.391 . S
C2026 C544 0.993 . S
C2021 C257 0.909 . S
C2051 C270 0.624 . S
C2056 C791 0.576 . S
C2081 C278 0.406 . S
C2086 C340 0.404 . S
C2111 C292 1.500 . S
C2116 C637 1.501 . S
C2141 C298 1.385 . S
C2146 C523 1.370 . S
C2171 C313 0.659 . S
C2176 C684 0.470 . S
C2206 C807 1.236 . S
C2201 C228 1.236 . S
C2236 C421 1.246 . S
C2231 C243 1.132 . S
C2266 C467 1.109 . S
C2261 C305 1.108 . S
C2296 C378 1.298 . S
C2291 C333 1.299 . S
C2321 C32 0.790 . S
C2326 C829 0.797 . S
C2356 C773 1.645 . S
C2351 C47 1.375 . S
C2386 C850 0.659 . S
C2381 C11 0.660 . S
C2411 C26 1.451 . S
C2416 C718 1.435 . S
C2441 C46 1.361 . S
C2446 C616 1.387 1_556 S
C2476 C646 0.647 . S
C2471 C12 0.645 . S
C2506 C705 1.353 . S
C2501 C25 1.349 . S
C2536 C786 0.690 . S
C2531 C33 0.737 . S
C2566 C841 1.024 . S
C2561 C159 0.885 . S
C2591 C116 1.023 . S
C2596 C757 1.046 . S
C2621 C131 1.063 . S
C2626 C846 1.297 . S
C2656 C714 0.528 . S
C2651 C151 0.498 . S
C2686 C612 1.032 . S
C2681 C166 1.043 . S
C2711 C123 1.403 . S
C2716 C642 1.398 . S
C2746 C689 0.970 . S
C2741 C138 0.978 . S
C2771 C144 0.578 . S
C2776 C782 0.567 . S
C2806 C825 0.379 . S
C2801 C145 0.707 . S
C2836 C472 1.413 1_565 S
C2831 C75 1.229 . S
C2866 C514 1.223 . S
C2861 C88 1.182 . S
C2891 C110 0.388 . S
C2896 C557 0.408 . S
C2926 C778 1.179 . S
C2921 C158 1.152 . S
C2951 C124 1.222 . S
C2956 C854 1.216 . S
C2986 C438 1.101 . S
C2981 C95 1.088 . S
C3016 C387 1.329 . S
C3011 C67 1.317 . S
C3041 C200 0.831 . S
C3046 C820 0.833 . S
C3076 C370 1.755 . S
C3071 C222 1.765 . S
C3106 C859 0.655 . S
C3101 C179 0.654 . S
C3131 C187 1.323 . S
C3136 C455 1.530 . S
C3161 C214 1.469 . S
C3166 C625 1.476 . S
C3191 C173 0.708 . S
C3196 C519 0.641 . S
C3221 C193 1.387 . S
C3226 C676 1.395 . S
C3251 C208 0.696 . S
C3256 C591 0.697 . S
C3286 C812 1.087 . S
C3281 C334 1.096 . S
C3311 C284 1.131 . S
C3316 C374 1.126 . S
C3346 C875 1.442 . S
C3341 C306 1.461 . S
C3371 C319 0.628 . S
C3376 C451 0.617 . S
C3401 C327 0.890 . S
C3406 C621 0.972 . S
C3436 C535 1.391 . S
C3431 C291 1.389 . S
C3461 C299 0.909 . S
C3466 C680 0.993 . S
C3496 C587 0.576 . S
C3491 C312 0.592 . S
C3526 C816 0.404 . S
C3521 C320 0.406 . S
C3556 C501 1.502 . S
C3551 C250 1.500 . S
C3581 C256 1.384 . S
C3586 C659 1.370 . S
C3616 C548 0.470 1_565 S
C3611 C271 0.659 . S
C3646 C603 1.236 . S
C3641 C326 1.236 . S
C3671 C285 1.131 1_554 S
C3676 C863 1.245 . S
C3706 C739 1.109 . S
C3701 C263 1.108 . S
C3736 C752 1.298 . S
C3731 C235 1.299 . S
