# Generated by pormake.
# Topology gar, (4,6)-cn, num edge types: 1
# Building blocks:
#     Node 0, Type 0, BuildingBlock: CEKHIL_clean_sbu_0, # of connection points: 4
#     Node 1, Type 0, BuildingBlock: CEKHIL_clean_sbu_0, # of connection points: 4
#     Node 2, Type 0, BuildingBlock: CEKHIL_clean_sbu_0, # of connection points: 4
#     Node 3, Type 0, BuildingBlock: CEKHIL_clean_sbu_0, # of connection points: 4
#     Node 4, Type 0, BuildingBlock: CEKHIL_clean_sbu_0, # of connection points: 4
#     Node 5, Type 0, BuildingBlock: CEKHIL_clean_sbu_0, # of connection points: 4
#     Node 6, Type 0, BuildingBlock: CEKHIL_clean_sbu_0, # of connection points: 4
#     Node 7, Type 0, BuildingBlock: CEKHIL_clean_sbu_0, # of connection points: 4
#     Node 8, Type 0, BuildingBlock: CEKHIL_clean_sbu_0, # of connection points: 4
#     Node 9, Type 0, BuildingBlock: CEKHIL_clean_sbu_0, # of connection points: 4
#     Node 10, Type 0, BuildingBlock: CEKHIL_clean_sbu_0, # of connection points: 4
#     Node 11, Type 0, BuildingBlock: CEKHIL_clean_sbu_0, # of connection points: 4
#     Node 12, Type 0, BuildingBlock: CEKHIL_clean_sbu_0, # of connection points: 4
#     Node 13, Type 0, BuildingBlock: CEKHIL_clean_sbu_0, # of connection points: 4
#     Node 14, Type 0, BuildingBlock: CEKHIL_clean_sbu_0, # of connection points: 4
#     Node 15, Type 0, BuildingBlock: CEKHIL_clean_sbu_0, # of connection points: 4
#     Node 16, Type 0, BuildingBlock: CEKHIL_clean_sbu_0, # of connection points: 4
#     Node 17, Type 0, BuildingBlock: CEKHIL_clean_sbu_0, # of connection points: 4
#     Node 18, Type 0, BuildingBlock: CEKHIL_clean_sbu_0, # of connection points: 4
#     Node 19, Type 0, BuildingBlock: CEKHIL_clean_sbu_0, # of connection points: 4
#     Node 20, Type 0, BuildingBlock: CEKHIL_clean_sbu_0, # of connection points: 4
#     Node 21, Type 0, BuildingBlock: CEKHIL_clean_sbu_0, # of connection points: 4
#     Node 22, Type 0, BuildingBlock: CEKHIL_clean_sbu_0, # of connection points: 4
#     Node 23, Type 0, BuildingBlock: CEKHIL_clean_sbu_0, # of connection points: 4
#     Node 24, Type 1, BuildingBlock: KUMJIN_clean_sbu_0, # of connection points: 6
#     Node 25, Type 1, BuildingBlock: KUMJIN_clean_sbu_0, # of connection points: 6
#     Node 26, Type 1, BuildingBlock: KUMJIN_clean_sbu_0, # of connection points: 6
#     Node 27, Type 1, BuildingBlock: KUMJIN_clean_sbu_0, # of connection points: 6
#     Node 28, Type 1, BuildingBlock: KUMJIN_clean_sbu_0, # of connection points: 6
#     Node 29, Type 1, BuildingBlock: KUMJIN_clean_sbu_0, # of connection points: 6
#     Node 30, Type 1, BuildingBlock: KUMJIN_clean_sbu_0, # of connection points: 6
#     Node 31, Type 1, BuildingBlock: KUMJIN_clean_sbu_0, # of connection points: 6
#     Node 32, Type 1, BuildingBlock: KUMJIN_clean_sbu_0, # of connection points: 6
#     Node 33, Type 1, BuildingBlock: KUMJIN_clean_sbu_0, # of connection points: 6
#     Node 34, Type 1, BuildingBlock: KUMJIN_clean_sbu_0, # of connection points: 6
#     Node 35, Type 1, BuildingBlock: KUMJIN_clean_sbu_0, # of connection points: 6
#     Node 36, Type 1, BuildingBlock: KUMJIN_clean_sbu_0, # of connection points: 6
#     Node 37, Type 1, BuildingBlock: KUMJIN_clean_sbu_0, # of connection points: 6
#     Node 38, Type 1, BuildingBlock: KUMJIN_clean_sbu_0, # of connection points: 6
#     Node 39, Type 1, BuildingBlock: KUMJIN_clean_sbu_0, # of connection points: 6
#     Edge 40, Type (0, 1), BuildingBlock: AJUNOK_clean_linker_0, # of connection points: 2
#     Edge 41, Type (0, 1), BuildingBlock: AJUNOK_clean_linker_0, # of connection points: 2
#     Edge 42, Type (0, 1), BuildingBlock: AJUNOK_clean_linker_0, # of connection points: 2
#     Edge 43, Type (0, 1), BuildingBlock: AJUNOK_clean_linker_0, # of connection points: 2
#     Edge 44, Type (0, 1), BuildingBlock: AJUNOK_clean_linker_0, # of connection points: 2
#     Edge 45, Type (0, 1), BuildingBlock: AJUNOK_clean_linker_0, # of connection points: 2
#     Edge 46, Type (0, 1), BuildingBlock: AJUNOK_clean_linker_0, # of connection points: 2
#     Edge 47, Type (0, 1), BuildingBlock: AJUNOK_clean_linker_0, # of connection points: 2
#     Edge 48, Type (0, 1), BuildingBlock: AJUNOK_clean_linker_0, # of connection points: 2
#     Edge 49, Type (0, 1), BuildingBlock: AJUNOK_clean_linker_0, # of connection points: 2
#     Edge 50, Type (0, 1), BuildingBlock: AJUNOK_clean_linker_0, # of connection points: 2
#     Edge 51, Type (0, 1), BuildingBlock: AJUNOK_clean_linker_0, # of connection points: 2
#     Edge 52, Type (0, 1), BuildingBlock: AJUNOK_clean_linker_0, # of connection points: 2
#     Edge 53, Type (0, 1), BuildingBlock: AJUNOK_clean_linker_0, # of connection points: 2
#     Edge 54, Type (0, 1), BuildingBlock: AJUNOK_clean_linker_0, # of connection points: 2
#     Edge 55, Type (0, 1), BuildingBlock: AJUNOK_clean_linker_0, # of connection points: 2
#     Edge 56, Type (0, 1), BuildingBlock: AJUNOK_clean_linker_0, # of connection points: 2
#     Edge 57, Type (0, 1), BuildingBlock: AJUNOK_clean_linker_0, # of connection points: 2
#     Edge 58, Type (0, 1), BuildingBlock: AJUNOK_clean_linker_0, # of connection points: 2
#     Edge 59, Type (0, 1), BuildingBlock: AJUNOK_clean_linker_0, # of connection points: 2
#     Edge 60, Type (0, 1), BuildingBlock: AJUNOK_clean_linker_0, # of connection points: 2
#     Edge 61, Type (0, 1), BuildingBlock: AJUNOK_clean_linker_0, # of connection points: 2
#     Edge 62, Type (0, 1), BuildingBlock: AJUNOK_clean_linker_0, # of connection points: 2
#     Edge 63, Type (0, 1), BuildingBlock: AJUNOK_clean_linker_0, # of connection points: 2
#     Edge 64, Type (0, 1), BuildingBlock: AJUNOK_clean_linker_0, # of connection points: 2
#     Edge 65, Type (0, 1), BuildingBlock: AJUNOK_clean_linker_0, # of connection points: 2
#     Edge 66, Type (0, 1), BuildingBlock: AJUNOK_clean_linker_0, # of connection points: 2
#     Edge 67, Type (0, 1), BuildingBlock: AJUNOK_clean_linker_0, # of connection points: 2
#     Edge 68, Type (0, 1), BuildingBlock: AJUNOK_clean_linker_0, # of connection points: 2
#     Edge 69, Type (0, 1), BuildingBlock: AJUNOK_clean_linker_0, # of connection points: 2
#     Edge 70, Type (0, 1), BuildingBlock: AJUNOK_clean_linker_0, # of connection points: 2
#     Edge 71, Type (0, 1), BuildingBlock: AJUNOK_clean_linker_0, # of connection points: 2
#     Edge 72, Type (0, 1), BuildingBlock: AJUNOK_clean_linker_0, # of connection points: 2
#     Edge 73, Type (0, 1), BuildingBlock: AJUNOK_clean_linker_0, # of connection points: 2
#     Edge 74, Type (0, 1), BuildingBlock: AJUNOK_clean_linker_0, # of connection points: 2
#     Edge 75, Type (0, 1), BuildingBlock: AJUNOK_clean_linker_0, # of connection points: 2
#     Edge 76, Type (0, 1), BuildingBlock: AJUNOK_clean_linker_0, # of connection points: 2
#     Edge 77, Type (0, 1), BuildingBlock: AJUNOK_clean_linker_0, # of connection points: 2
#     Edge 78, Type (0, 1), BuildingBlock: AJUNOK_clean_linker_0, # of connection points: 2
#     Edge 79, Type (0, 1), BuildingBlock: AJUNOK_clean_linker_0, # of connection points: 2
#     Edge 80, Type (0, 1), BuildingBlock: AJUNOK_clean_linker_0, # of connection points: 2
#     Edge 81, Type (0, 1), BuildingBlock: AJUNOK_clean_linker_0, # of connection points: 2
#     Edge 82, Type (0, 1), BuildingBlock: AJUNOK_clean_linker_0, # of connection points: 2
#     Edge 83, Type (0, 1), BuildingBlock: AJUNOK_clean_linker_0, # of connection points: 2
#     Edge 84, Type (0, 1), BuildingBlock: AJUNOK_clean_linker_0, # of connection points: 2
#     Edge 85, Type (0, 1), BuildingBlock: AJUNOK_clean_linker_0, # of connection points: 2
#     Edge 86, Type (0, 1), BuildingBlock: AJUNOK_clean_linker_0, # of connection points: 2
#     Edge 87, Type (0, 1), BuildingBlock: AJUNOK_clean_linker_0, # of connection points: 2
#     Edge 88, Type (0, 1), BuildingBlock: AJUNOK_clean_linker_0, # of connection points: 2
#     Edge 89, Type (0, 1), BuildingBlock: AJUNOK_clean_linker_0, # of connection points: 2
#     Edge 90, Type (0, 1), BuildingBlock: AJUNOK_clean_linker_0, # of connection points: 2
#     Edge 91, Type (0, 1), BuildingBlock: AJUNOK_clean_linker_0, # of connection points: 2
#     Edge 92, Type (0, 1), BuildingBlock: AJUNOK_clean_linker_0, # of connection points: 2
#     Edge 93, Type (0, 1), BuildingBlock: AJUNOK_clean_linker_0, # of connection points: 2
#     Edge 94, Type (0, 1), BuildingBlock: AJUNOK_clean_linker_0, # of connection points: 2
#     Edge 95, Type (0, 1), BuildingBlock: AJUNOK_clean_linker_0, # of connection points: 2
#     Edge 96, Type (0, 1), BuildingBlock: AJUNOK_clean_linker_0, # of connection points: 2
#     Edge 97, Type (0, 1), BuildingBlock: AJUNOK_clean_linker_0, # of connection points: 2
#     Edge 98, Type (0, 1), BuildingBlock: AJUNOK_clean_linker_0, # of connection points: 2
#     Edge 99, Type (0, 1), BuildingBlock: AJUNOK_clean_linker_0, # of connection points: 2
#     Edge 100, Type (0, 1), BuildingBlock: AJUNOK_clean_linker_0, # of connection points: 2
#     Edge 101, Type (0, 1), BuildingBlock: AJUNOK_clean_linker_0, # of connection points: 2
#     Edge 102, Type (0, 1), BuildingBlock: AJUNOK_clean_linker_0, # of connection points: 2
#     Edge 103, Type (0, 1), BuildingBlock: AJUNOK_clean_linker_0, # of connection points: 2
#     Edge 104, Type (0, 1), BuildingBlock: AJUNOK_clean_linker_0, # of connection points: 2
#     Edge 105, Type (0, 1), BuildingBlock: AJUNOK_clean_linker_0, # of connection points: 2
#     Edge 106, Type (0, 1), BuildingBlock: AJUNOK_clean_linker_0, # of connection points: 2
#     Edge 107, Type (0, 1), BuildingBlock: AJUNOK_clean_linker_0, # of connection points: 2
#     Edge 108, Type (0, 1), BuildingBlock: AJUNOK_clean_linker_0, # of connection points: 2
#     Edge 109, Type (0, 1), BuildingBlock: AJUNOK_clean_linker_0, # of connection points: 2
#     Edge 110, Type (0, 1), BuildingBlock: AJUNOK_clean_linker_0, # of connection points: 2
#     Edge 111, Type (0, 1), BuildingBlock: AJUNOK_clean_linker_0, # of connection points: 2
#     Edge 112, Type (0, 1), BuildingBlock: AJUNOK_clean_linker_0, # of connection points: 2
#     Edge 113, Type (0, 1), BuildingBlock: AJUNOK_clean_linker_0, # of connection points: 2
#     Edge 114, Type (0, 1), BuildingBlock: AJUNOK_clean_linker_0, # of connection points: 2
#     Edge 115, Type (0, 1), BuildingBlock: AJUNOK_clean_linker_0, # of connection points: 2
#     Edge 116, Type (0, 1), BuildingBlock: AJUNOK_clean_linker_0, # of connection points: 2
#     Edge 117, Type (0, 1), BuildingBlock: AJUNOK_clean_linker_0, # of connection points: 2
#     Edge 118, Type (0, 1), BuildingBlock: AJUNOK_clean_linker_0, # of connection points: 2
#     Edge 119, Type (0, 1), BuildingBlock: AJUNOK_clean_linker_0, # of connection points: 2
#     Edge 120, Type (0, 1), BuildingBlock: AJUNOK_clean_linker_0, # of connection points: 2
#     Edge 121, Type (0, 1), BuildingBlock: AJUNOK_clean_linker_0, # of connection points: 2
#     Edge 122, Type (0, 1), BuildingBlock: AJUNOK_clean_linker_0, # of connection points: 2
#     Edge 123, Type (0, 1), BuildingBlock: AJUNOK_clean_linker_0, # of connection points: 2
#     Edge 124, Type (0, 1), BuildingBlock: AJUNOK_clean_linker_0, # of connection points: 2
#     Edge 125, Type (0, 1), BuildingBlock: AJUNOK_clean_linker_0, # of connection points: 2
#     Edge 126, Type (0, 1), BuildingBlock: AJUNOK_clean_linker_0, # of connection points: 2
#     Edge 127, Type (0, 1), BuildingBlock: AJUNOK_clean_linker_0, # of connection points: 2
#     Edge 128, Type (0, 1), BuildingBlock: AJUNOK_clean_linker_0, # of connection points: 2
#     Edge 129, Type (0, 1), BuildingBlock: AJUNOK_clean_linker_0, # of connection points: 2
#     Edge 130, Type (0, 1), BuildingBlock: AJUNOK_clean_linker_0, # of connection points: 2
#     Edge 131, Type (0, 1), BuildingBlock: AJUNOK_clean_linker_0, # of connection points: 2
#     Edge 132, Type (0, 1), BuildingBlock: AJUNOK_clean_linker_0, # of connection points: 2
#     Edge 133, Type (0, 1), BuildingBlock: AJUNOK_clean_linker_0, # of connection points: 2
#     Edge 134, Type (0, 1), BuildingBlock: AJUNOK_clean_linker_0, # of connection points: 2
#     Edge 135, Type (0, 1), BuildingBlock: AJUNOK_clean_linker_0, # of connection points: 2
# Relax obj value: 0.143
# Max RMSD: 0.346
# Mean RMSD: 0.157
data_MOF--net-gar--node1-CEKHIL_clean_sbu_0--node2-KUMJIN_clean_sbu_0--edge1-AJUNOK_clean_linker_0
_symmetry_space_group_name_H-M    P1
_symmetry_Int_Tables_number       1
_symmetry_cell_setting            triclinic
loop_
_symmetry_equiv_pos_as_xyz
'x, y, z'
_cell_length_a     47.461502
_cell_length_b     41.529195
_cell_length_c     41.188393
_cell_angle_alpha  100.44817
_cell_angle_beta   94.320238
_cell_angle_gamma 101.82235
loop_
_atom_site_label
_atom_site_type_symbol
_atom_site_fract_x
_atom_site_fract_y
_atom_site_fract_z
_atom_type_partial_charge
Co0 Co 0.16672 0.36232 0.39438 0.0
O1 O 0.20775 0.36419 0.39627 0.0
O2 O 0.17626 0.34685 0.35075 0.0
C3 C 0.1674 0.41272 0.42664 0.0
O4 O 0.12413 0.35789 0.38103 0.0
Co5 Co 0.13255 0.36144 0.45546 0.0
O6 O 0.09803 0.36061 0.42424 0.0
C7 C 0.16168 0.31024 0.43335 0.0
C8 C 0.20278 0.35231 0.36431 0.0
C9 C 0.1001 0.35817 0.39323 0.0
O10 O 0.15913 0.31556 0.40365 0.0
O11 O 0.16248 0.33393 0.45802 0.0
O12 O 0.17293 0.41095 0.3959 0.0
O13 O 0.16555 0.3852 0.4374 0.0
Co14 Co 1.01532 0.76954 0.6757 0.0
O15 O 0.9748 0.76664 0.66973 0.0
O16 O 0.9995 0.76797 0.7179 0.0
C17 C 0.02567 0.81133 0.64738 0.0
O18 O 0.05765 0.77295 0.69079 0.0
Co19 Co 0.04944 0.75811 0.6135 0.0
O20 O 0.08354 0.76618 0.64736 0.0
C21 C 1.00818 0.70474 0.63125 0.0
C22 C 0.97524 0.76911 0.70158 0.0
C23 C 0.08153 0.77094 0.67853 0.0
O24 O 1.00997 0.71945 0.66188 0.0
O25 O 1.01326 0.72161 0.60848 0.0
O26 O 0.02244 0.81855 0.67874 0.0
O27 O 0.02158 0.77998 0.63458 0.0
Co28 Co 0.66841 0.8677 0.89603 0.0
O29 O 0.70866 0.86585 0.89759 0.0
O30 O 0.67644 0.84869 0.85259 0.0
C31 C 0.67417 0.92048 0.92456 0.0
O32 O 0.62633 0.8671 0.88333 0.0
Co33 Co 0.63599 0.87905 0.9585 0.0
O34 O 0.60268 0.88131 0.92712 0.0
C35 C 0.65382 0.8156 0.93739 0.0
C36 C 0.70309 0.8538 0.86576 0.0
C37 C 0.60381 0.87394 0.89591 0.0
O38 O 0.65773 0.82218 0.90845 0.0
O39 O 0.6499 0.83731 0.96192 0.0
O40 O 0.67799 0.91516 0.89326 0.0
O41 O 0.67028 0.89441 0.93791 0.0
Co42 Co 0.51173 0.26755 0.17454 0.0
O43 O 0.47074 0.26563 0.1731 0.0
O44 O 0.49927 0.26567 0.21809 0.0
C45 C 0.52081 0.30875 0.14425 0.0
O46 O 0.55484 0.26972 0.18589 0.0
Co47 Co 0.54348 0.25737 0.10882 0.0
O48 O 0.57749 0.25761 0.14022 0.0
C49 C 0.50416 0.20752 0.12834 0.0
C50 C 0.47358 0.26579 0.20475 0.0
C51 C 0.57716 0.264 0.17169 0.0
O52 O 0.50521 0.21703 0.15992 0.0
O53 O 0.50355 0.2302 0.11163 0.0
O54 O 0.5195 0.31698 0.1761 0.0
O55 O 0.51587 0.27731 0.13277 0.0
Co56 Co 0.13016 0.83639 0.12436 0.0
O57 O 0.08771 0.8301 0.11688 0.0
O58 O 0.11219 0.82817 0.16344 0.0
C59 C 0.13578 0.88755 0.10221 0.0
O60 O 0.17188 0.8426 0.14967 0.0
Co61 Co 0.16688 0.82999 0.08192 0.0
O62 O 0.20203 0.83266 0.11346 0.0
C63 C 0.13383 0.76535 0.08419 0.0
C64 C 0.08735 0.82689 0.14762 0.0
C65 C 0.19735 0.83836 0.14357 0.0
O66 O 0.12542 0.78394 0.10879 0.0
O67 O 0.15088 0.77993 0.06629 0.0
O68 O 0.13358 0.88568 0.13291 0.0
O69 O 0.13722 0.85862 0.08388 0.0
Co70 Co 0.54721 0.79063 0.44076 0.0
O71 O 0.58964 0.80076 0.44871 0.0
O72 O 0.56394 0.77523 0.401 0.0
C73 C 0.54393 0.846 0.46497 0.0
O74 O 0.50464 0.77885 0.41698 0.0
Co75 Co 0.50859 0.78453 0.48641 0.0
O76 O 0.47583 0.7893 0.45528 0.0
C77 C 0.53693 0.72878 0.47775 0.0
C78 C 0.58934 0.78736 0.41758 0.0
C79 C 0.47965 0.78332 0.42485 0.0
O80 O 0.54717 0.74388 0.45468 0.0
O81 O 0.52003 0.74196 0.49601 0.0
O82 O 0.54836 0.83654 0.4345 0.0
O83 O 0.54175 0.82185 0.48201 0.0
Co84 Co 0.62966 0.33428 0.62625 0.0
O85 O 0.58714 0.32688 0.62035 0.0
O86 O 0.61334 0.3267 0.66633 0.0
C87 C 0.63299 0.38386 0.60217 0.0
O88 O 0.67189 0.34166 0.65037 0.0
Co89 Co 0.66553 0.32801 0.58214 0.0
O90 O 0.70121 0.3312 0.61327 0.0
C91 C 0.63434 0.26343 0.58728 0.0
C92 C 0.58791 0.3241 0.65128 0.0
C93 C 0.69712 0.33717 0.64359 0.0
O94 O 0.6261 0.28209 0.61193 0.0
O95 O 0.65012 0.27771 0.56806 0.0
O96 O 0.63233 0.3835 0.63342 0.0
O97 O 0.63434 0.35459 0.58456 0.0
Co98 Co 0.04964 0.28935 0.9396 0.0
O99 O 0.0919 0.29861 0.94659 0.0
O100 O 0.06524 0.27389 0.89924 0.0
C101 C 0.04863 0.34525 0.96432 0.0
O102 O 1.00688 0.27927 0.91635 0.0
Co103 Co 1.01255 0.28416 0.9857 0.0
O104 O 0.9783 0.28725 0.95521 0.0
C105 C 0.043 0.23021 0.97952 0.0
C106 C 0.09088 0.28625 0.91511 0.0
C107 C 0.98182 0.28309 0.92461 0.0
O108 O 0.04907 0.24206 0.95305 0.0
O109 O 0.02844 0.2456 0.99936 0.0
O110 O 0.05198 0.33545 0.93361 0.0
O111 O 0.04588 0.32115 0.98138 0.0
Co112 Co 0.44625 0.05961 0.33865 0.0
O113 O 0.44549 0.10614 0.3437 0.0
O114 O 0.40842 0.06199 0.3257 0.0
C115 C 0.47109 0.06276 0.38613 0.0
O116 O 0.4365 1.01033 0.33068 0.0
Co117 Co 0.50095 0.02925 0.33858 0.0
O118 O 0.47352 0.98503 0.33275 0.0
C119 C 0.48302 0.06003 0.28344 0.0
C120 C 0.41809 0.09422 0.3328 0.0
C121 C 0.4465 0.98421 0.32912 0.0
O122 O 0.45743 0.05852 0.29239 0.0
O123 O 0.50389 0.05412 0.30132 0.0
O124 O 0.4435 0.06174 0.38573 0.0
O125 O 0.48272 0.0642 0.35916 0.0
Co126 Co 0.31813 0.20543 0.51446 0.0
O127 O 0.36041 0.21317 0.52105 0.0
O128 O 0.32991 0.16617 0.52366 0.0
C129 C 0.31764 0.2283 0.46687 0.0
O130 O 0.2742 0.18291 0.50819 0.0
Co131 Co 0.28265 0.25545 0.51814 0.0
O132 O 0.24639 0.21952 0.50566 0.0
C133 C 0.31125 0.24915 0.5815 0.0
C134 C 0.35653 0.1824 0.5255 0.0
C135 C 0.24885 0.18948 0.50475 0.0
O136 O 0.31772 0.22272 0.56463 0.0
O137 O 0.2987 0.26803 0.56694 0.0
O138 O 0.31945 0.19743 0.46613 0.0
O139 O 0.31635 0.24536 0.49637 0.0
Co140 Co 0.2136 1.02301 0.7911 0.0
O141 O 0.21242 0.97102 0.78601 0.0
O142 O 0.25055 1.00434 0.78136 0.0
C143 C 0.18916 0.03015 0.84456 0.0
O144 O 0.23484 0.07577 0.79598 0.0
Co145 Co 0.17149 0.06762 0.79624 0.0
O146 O 0.2033 0.10861 0.8031 0.0
C147 C 0.1752 0.03679 0.72618 0.0
C148 C 0.23986 0.97328 0.78232 0.0
C149 C 0.22917 0.10587 0.79968 0.0
O150 O 0.19547 1.02205 0.73853 0.0
O151 O 0.16276 0.05478 0.74649 0.0
O152 O 0.21565 0.02638 0.84272 0.0
O153 O 0.17793 0.02909 0.81461 0.0
Co154 Co 0.36142 0.96992 1.00132 0.0
O155 O 0.32146 0.96702 1.00633 0.0
O156 O 0.3549 1.01454 1.01117 0.0
C157 C 0.35429 0.92945 0.95666 0.0
O158 O 0.40454 0.98141 0.99777 0.0
Co159 Co 0.38764 0.90604 1.00195 0.0
O160 O 0.42149 0.93421 0.98784 0.0
C161 C 0.37097 0.94494 0.0622 0.0
C162 C 0.32824 0.99953 0.0127 0.0
C163 C 0.42502 0.96599 0.99147 0.0
O164 O 0.37006 0.97059 0.04941 0.0
O165 O 0.3726 0.91623 0.04567 0.0
O166 O 0.35321 0.95968 0.95287 0.0
O167 O 0.35711 0.9249 0.98637 0.0
Co168 Co 0.35685 0.40833 0.03773 0.0
O169 O 0.31499 0.39668 0.02943 0.0
O170 O 0.34056 0.44651 0.05477 0.0
C171 C 0.36349 0.38647 0.98335 0.0
O172 O 0.40024 0.43284 0.04836 0.0
Co173 Co 0.39229 0.35871 0.03594 0.0
O174 O 0.42728 0.39508 0.03761 0.0
C175 C 0.35942 0.36664 0.09286 0.0
C176 C 0.31527 0.42756 0.04275 0.0
C177 C 0.42517 0.42553 0.04484 0.0
O178 O 0.35441 0.39288 0.08276 0.0
O179 O 0.37285 0.3471 0.07569 0.0
O180 O 0.35918 0.41632 0.9929 0.0
O181 O 0.36195 0.36867 1.0065 0.0
Co182 Co 0.81465 0.14178 0.04068 0.0
O183 O 0.85568 0.14657 0.04719 0.0
O184 O 0.8232 0.10265 0.0545 0.0
C185 C 0.81707 0.15968 0.99272 0.0
O186 O 0.77077 0.12785 0.03722 0.0
Co187 Co 0.7854 0.20061 0.0264 0.0
O188 O 0.74923 0.1664 0.02022 0.0
C189 C 0.80643 0.19354 0.09498 0.0
C190 C 0.85023 0.11662 0.05361 0.0
C191 C 0.74824 0.13896 0.03012 0.0
O192 O 0.8144 0.16578 0.08662 0.0
O193 O 0.79669 0.21005 0.07505 0.0
O194 O 0.81499 0.12789 0.99246 0.0
O195 O 0.81675 0.17846 0.02077 0.0
Co196 Co 0.23062 0.56016 0.24901 0.0
O197 O 0.2318 0.51344 0.24005 0.0
O198 O 0.26665 0.55587 0.2343 0.0
C199 C 0.21019 0.55707 0.29595 0.0
O200 O 0.24127 0.61019 0.25727 0.0
Co201 Co 0.17973 0.59509 0.26371 0.0
O202 O 0.2084 0.63822 0.27547 0.0
C203 C 0.18424 0.55293 0.1985 0.0
C204 C 0.25875 0.52449 0.23554 0.0
C205 C 0.2338 0.6375 0.26806 0.0
O206 O 0.21183 0.55677 0.20398 0.0
O207 O 0.16851 0.56327 0.22024 0.0
O208 O 0.23826 0.56061 0.29687 0.0
O209 O 0.19675 0.55706 0.26802 0.0
Co210 Co 0.85675 0.90767 0.53686 0.0
O211 O 0.81512 0.89493 0.52743 0.0
O212 O 0.83977 0.94578 0.55125 0.0
C213 C 0.86357 0.88299 0.48383 0.0
O214 O 0.89995 0.93322 0.5479 0.0
Co215 Co 0.89383 0.85958 0.53784 0.0
O216 O 0.92818 0.89649 0.53904 0.0
C217 C 0.85839 0.86757 0.5929 0.0
C218 C 0.81489 0.92608 0.53871 0.0
C219 C 0.92526 0.92668 0.54528 0.0
O220 O 0.85353 0.89382 0.58262 0.0
O221 O 0.87289 0.84865 0.5767 0.0
O222 O 0.8596 0.91325 0.49103 0.0
O223 O 0.86241 0.8672 0.50844 0.0
Co224 Co 0.96594 0.09328 0.29231 0.0
O225 O 0.96886 0.14577 0.30032 0.0
O226 O 0.92942 0.11237 0.28154 0.0
C227 C 0.9918 0.08666 0.34616 0.0
O228 O 0.94351 0.04097 0.28316 0.0
Co229 Co 1.00695 0.04641 0.2865 0.0
O230 O 0.97436 1.00781 0.28899 0.0
C231 C 1.00244 0.07758 0.22758 0.0
C232 C 0.94144 0.14399 0.29107 0.0
C233 C 0.94837 1.0112 0.2848 0.0
O234 O 0.98139 0.09038 0.2419 0.0
O235 O 1.01612 0.06031 0.24311 0.0
O236 O 0.96621 0.09365 0.34302 0.0
O237 O 1.00195 0.08631 0.31771 0.0
Co238 Co 0.31353 0.64561 0.53849 0.0
O239 O 0.35455 0.6497 0.54277 0.0
O240 O 0.32232 0.60584 0.55069 0.0
C241 C 0.31299 0.66266 0.48978 0.0
O242 O 0.26951 0.63281 0.53668 0.0
Co243 Co 0.28821 0.70881 0.53137 0.0
O244 O 0.25111 0.67796 0.53241 0.0
C245 C 0.30181 0.69129 0.59714 0.0
C246 C 0.34915 0.6195 0.54836 0.0
C247 C 0.24841 0.64797 0.53679 0.0
O248 O 0.31459 0.66809 0.58537 0.0
O249 O 0.29102 0.70956 0.58001 0.0
O250 O 0.3116 0.63123 0.49026 0.0
O251 O 0.31558 0.68245 0.51815 0.0
Co252 Co 0.46585 0.59329 0.79171 0.0
O253 O 0.46806 0.64567 0.7999 0.0
O254 O 0.42943 0.61177 0.77884 0.0
C255 C 0.49142 0.58762 0.84658 0.0
O256 O 0.44426 0.54042 0.78249 0.0
Co257 Co 0.50897 0.54848 0.78849 0.0
O258 O 0.47666 0.50933 0.78926 0.0
C259 C 0.50357 0.5776 0.72815 0.0
C260 C 0.44093 0.64349 0.78905 0.0
C261 C 0.45025 0.51112 0.78432 0.0
O262 O 0.48184 0.58995 0.74134 0.0
O263 O 0.51816 0.5627 0.74555 0.0
O264 O 0.4657 0.5942 0.84286 0.0
O265 O 0.50167 0.5874 0.81829 0.0
Co266 Co 0.72704 0.05543 0.74238 0.0
O267 O 0.72057 1.00765 0.7322 0.0
O268 O 0.76163 0.04305 0.7289 0.0
C269 C 0.70644 0.05518 0.78941 0.0
O270 O 0.74304 0.10562 0.75135 0.0
Co271 Co 0.67964 0.09632 0.7565 0.0
O272 O 0.71156 0.13575 0.77053 0.0
C273 C 0.69303 0.0723 0.68896 0.0
C274 C 0.74818 1.01264 0.72968 0.0
C275 C 0.73657 0.13369 0.76257 0.0
O276 O 0.71138 0.05575 0.69719 0.0
O277 O 0.68516 0.09522 0.70886 0.0
O278 O 0.73374 0.05455 0.78934 0.0
O279 O 0.69284 0.0565 0.76173 0.0
Co280 Co 0.82024 0.70702 0.01239 0.0
O281 O 0.8625 0.71631 0.01801 0.0
O282 O 0.83387 0.66848 0.02191 0.0
C283 C 0.81807 0.72829 0.96385 0.0
O284 O 0.77631 0.68412 1.00739 0.0
Co285 Co 0.78549 0.75778 0.01675 0.0
O286 O 0.7493 0.72204 1.00806 0.0
C287 C 0.81474 0.75229 0.07963 0.0
C288 C 0.86004 0.68593 0.02303 0.0
C289 C 0.75122 0.69169 1.00616 0.0
O290 O 0.82115 0.72588 0.06254 0.0
O291 O 0.80144 0.77072 0.06539 0.0
O292 O 0.81977 0.69748 0.9638 0.0
O293 O 0.81782 0.74609 0.9933 0.0
Co294 Co 0.94165 0.55617 0.84247 0.0
O295 O 0.93826 0.59765 0.83061 0.0
O296 O 0.9025 0.55272 0.82909 0.0
C297 C 0.97102 0.57608 0.88894 0.0
O298 O 0.9356 0.51035 0.85252 0.0
Co299 Co 0.99747 0.53036 0.84618 0.0
O300 O 0.96968 0.48567 0.83282 0.0
C301 C 0.97361 0.54548 0.78524 0.0
C302 C 0.91129 0.58175 0.8216 0.0
C303 C 0.94342 0.48453 0.83791 0.0
O304 O 0.94851 0.53972 0.79533 0.0
O305 O 0.99685 0.54823 0.8043 0.0
O306 O 0.94337 0.57443 0.8897 0.0
O307 O 0.97985 0.56852 0.86038 0.0
Co308 Co 0.8608 0.47219 0.50327 0.0
O309 O 0.82139 0.47361 0.50782 0.0
O310 O 0.85904 0.51713 0.52299 0.0
C311 C 0.85227 0.44138 0.45259 0.0
O312 O 0.90396 0.47922 0.50128 0.0
Co313 Co 0.87949 0.40182 0.48862 0.0
O314 O 0.91837 0.43049 0.4871 0.0
C315 C 0.85982 0.42823 0.5487 0.0
C316 C 0.8312 0.5052 0.52084 0.0
C317 C 0.92359 0.46255 0.49469 0.0
O318 O 0.86587 0.45945 0.54748 0.0
O319 O 0.85082 0.40656 0.52194 0.0
O320 O 0.85497 0.47371 0.45582 0.0
O321 O 0.8531 0.42963 0.47908 0.0
Co322 Co 0.71341 0.52347 0.28888 0.0
O323 O 0.7119 0.47157 0.28568 0.0
O324 O 0.74988 0.50324 0.27846 0.0
C325 C 0.68914 0.53181 0.3426 0.0
O326 O 0.73495 0.57604 0.29349 0.0
Co327 Co 0.67204 0.56858 0.29316 0.0
O328 O 0.70404 0.60969 0.30114 0.0
C329 C 0.67403 0.53604 0.22337 0.0
C330 C 0.73901 0.47261 0.281 0.0
C331 C 0.72985 0.60647 0.29809 0.0
O332 O 0.69497 0.52219 0.23594 0.0
O333 O 0.66155 0.55396 0.24368 0.0
O334 O 0.71568 0.52815 0.34083 0.0
O335 O 0.67791 0.53019 0.31249 0.0
Eu336 Eu 0.05963 0.03277 1.01008 0.0
C337 C 0.14057 0.15974 0.08789 0.0
C338 C 0.15521 0.18947 0.04427 0.0
C339 C 0.1624 0.21979 0.10144 0.0
C340 C 0.14299 0.15941 0.05455 0.0
C341 C 0.14992 0.19015 0.11159 0.0
C342 C 0.16512 0.21943 0.06787 0.0
C343 C 0.13615 0.15967 0.15447 0.0
N344 N 0.12998 0.13037 0.09741 0.0
C345 C 0.12908 0.12997 0.1306 0.0
C346 C 0.14695 0.18991 0.14502 0.0
Eu347 Eu 0.12131 0.08031 0.05533 0.0
N348 N 0.13397 0.12986 0.03226 0.0
C349 C 0.13628 0.12933 0.99917 0.0
C350 C 0.15755 0.18863 1.01056 0.0
C351 C 0.14776 0.15846 0.98791 0.0
H352 H 0.12319 0.10653 0.13898 0.0
H353 H 0.14911 0.15754 0.96164 0.0
H354 H 0.17492 0.24249 0.0604 0.0
H355 H 0.13427 0.15899 0.18037 0.0
H356 H 0.1284 0.10693 0.98064 0.0
H357 H 0.03352 0.94801 0.09765 0.0
H358 H 0.16678 0.21112 1.00178 0.0
H359 H 0.05619 1.01148 0.92552 0.0
H360 H 0.05469 1.00031 0.08166 0.0
H361 H 0.04424 0.96103 0.8813 0.0
H362 H 0.17018 0.24311 0.11941 0.0
H363 H 1.01432 0.89671 0.05493 0.0
H364 H 1.00584 0.86869 0.99522 0.0
H365 H 0.15356 0.21279 0.16381 0.0
H366 H 1.01086 0.87173 0.93695 0.0
N367 N 0.04715 0.98083 0.02936 0.0
C368 C 0.04569 0.97903 0.06211 0.0
C369 C 0.0235 0.92001 0.0475 0.0
C370 C 0.02542 0.92137 0.01414 0.0
C371 C 0.03409 0.9489 0.07161 0.0
C372 C 0.03756 0.95245 1.00567 0.0
H373 H 0.02767 0.9053 0.89515 0.0
N374 N 0.05007 0.9847 0.96519 0.0
C375 C 0.04305 0.95873 0.90695 0.0
C376 C 0.03967 0.95432 0.9728 0.0
C377 C 0.05056 0.98723 0.93239 0.0
C378 C 0.03332 0.92744 0.91472 0.0
C379 C 0.0305 0.92502 0.94768 0.0
O380 O 0.02386 0.02893 0.97221 0.0
O381 O 0.07942 0.08833 0.03114 0.0
O382 O 0.0861 0.08441 0.09375 0.0
O383 O 0.04566 0.04741 0.0647 0.0
O384 O 0.0664 0.07498 0.98078 0.0
O385 O 1.01667 0.03733 0.02457 0.0
O386 O 0.15549 0.08322 0.09471 0.0
O387 O 0.10183 0.02446 0.03485 0.0
O388 O 0.09378 0.03244 0.97038 0.0
O389 O 0.13637 0.06037 1.00239 0.0
O390 O 0.11498 0.03904 0.08539 0.0
O391 O 0.16602 0.08283 0.04359 0.0
C392 C 0.07523 0.10046 1.00491 0.0
C393 C 0.97544 0.03284 0.98353 0.0
C394 C 0.92973 0.04638 0.99665 0.0
C395 C 0.95864 0.0466 1.00652 0.0
C396 C 0.91774 0.03274 0.96354 0.0
C397 C 0.96326 1.01932 0.95046 0.0
C398 C 0.9345 1.01931 0.94057 0.0
C399 C 0.05853 0.06808 0.09335 0.0
C400 C 1.00575 0.03312 0.99373 0.0
C401 C 1.01836 0.89428 0.956 0.0
C402 C 1.0155 0.89254 0.98914 0.0
C403 C 0.10628 1.01311 0.06169 0.0
C404 C 0.20559 0.08815 0.08654 0.0
C405 C 0.22248 0.06939 0.06815 0.0
C406 C 0.25188 0.07343 0.07917 0.0
C407 C 0.2641 0.09647 0.10874 0.0
C408 C 0.21787 0.11075 0.11615 0.0
C409 C 0.24709 0.1149 0.12715 0.0
C410 C 0.12252 0.04376 0.97248 0.0
C411 C 0.17529 0.08466 0.07459 0.0
H412 H 0.96799 0.05759 0.03196 0.0
H413 H 0.89557 0.03304 0.95535 0.0
H414 H 0.97594 1.00873 0.93226 0.0
H415 H 0.92525 1.00905 0.91504 0.0
H416 H 0.21258 0.05126 0.04575 0.0
H417 H 0.28685 0.10031 0.11746 0.0
H418 H 0.20496 0.12547 0.13048 0.0
H419 H 0.25647 0.13249 0.14992 0.0
Eu420 Eu 0.35156 0.79576 0.25268 0.0
C421 C 0.30753 0.89468 0.36954 0.0
C422 C 0.35063 0.92314 0.40717 0.0
C423 C 0.30519 0.93967 0.41569 0.0
C424 C 0.33636 0.8975 0.38003 0.0
C425 C 0.29157 0.91577 0.38735 0.0
C426 C 0.33474 0.94355 0.42541 0.0
C427 C 0.24943 0.88723 0.34891 0.0
N428 N 0.29499 0.87102 0.34222 0.0
C429 C 0.26604 0.86681 0.33237 0.0
C430 C 0.26223 0.9118 0.37662 0.0
Eu431 Eu 0.32033 0.82753 0.32616 0.0
N432 N 0.35083 0.8765 0.36245 0.0
C433 C 0.38032 0.88297 0.36863 0.0
C434 C 0.38058 0.92823 0.41453 0.0
C435 C 0.3956 0.90872 0.39444 0.0
H436 H 0.25481 0.84559 0.31391 0.0
H437 H 0.41898 0.91347 0.39881 0.0
H438 H 0.34522 0.96278 0.44675 0.0
H439 H 0.22645 0.88294 0.34111 0.0
H440 H 0.39235 0.86919 0.35304 0.0
H441 H 0.25469 0.70801 0.18372 0.0
H442 H 0.39239 0.94793 0.43479 0.0
H443 H 0.41922 0.78526 0.26356 0.0
H444 H 0.28149 0.75738 0.22434 0.0
H445 H 0.44835 0.7455 0.24108 0.0
H446 H 0.29315 0.95562 0.42994 0.0
H447 H 0.2803 0.66594 0.15702 0.0
H448 H 0.32698 0.64716 0.15085 0.0
H449 H 0.24916 0.92711 0.38991 0.0
H450 H 0.37952 0.65698 0.16695 0.0
N451 N 0.32243 0.74397 0.22168 0.0
C452 C 0.29324 0.73946 0.21329 0.0
C453 C 0.29225 0.68753 0.17529 0.0
C454 C 0.32203 0.69201 0.18407 0.0
C455 C 0.27776 0.71123 0.19023 0.0
C456 C 0.33659 0.72071 0.20781 0.0
H457 H 0.42483 0.6932 0.20098 0.0
N458 N 0.37899 0.75435 0.23915 0.0
C459 C 0.42511 0.73946 0.23435 0.0
C460 C 0.36589 0.72606 0.21693 0.0
C461 C 0.4084 0.76165 0.24749 0.0
C462 C 0.41178 0.71005 0.21167 0.0
C463 C 0.38185 0.70315 0.20246 0.0
O464 O 0.38849 0.81876 0.23046 0.0
O465 O 0.34541 0.84306 0.28573 0.0
O466 O 0.29147 0.83472 0.27956 0.0
O467 O 0.31127 0.81226 0.23277 0.0
O468 O 0.38711 0.83409 0.2822 0.0
O469 O 0.34502 0.8101 0.20433 0.0
O470 O 0.27642 0.80134 0.33186 0.0
O471 O 0.31761 0.78509 0.28417 0.0
O472 O 0.37809 0.78438 0.29838 0.0
O473 O 0.36388 0.81527 0.34555 0.0
O474 O 0.32179 0.77449 0.33093 0.0
O475 O 0.30809 0.82441 0.37532 0.0
C476 C 0.37223 0.856 0.29133 0.0
C477 C 0.38568 0.82869 0.17588 0.0
C478 C 0.39586 0.86768 0.13935 0.0
C479 C 0.38219 0.85772 0.16566 0.0
C480 C 0.41318 0.84777 0.12275 0.0
C481 C 0.40339 0.80903 0.16022 0.0
C482 C 0.41703 0.81858 0.13338 0.0
C483 C 0.29093 0.82617 0.24635 0.0
C484 C 0.37256 0.82252 0.20522 0.0
C485 C 0.3676 0.67467 0.17862 0.0
C486 C 0.33772 0.66911 0.16943 0.0
C487 C 0.31776 0.76184 0.29957 0.0
C488 C 0.26606 0.78715 0.38406 0.0
C489 C 0.27699 0.76062 0.39263 0.0
C490 C 0.26502 0.74416 0.41697 0.0
C491 C 0.24226 0.75501 0.43272 0.0
C492 C 0.24248 0.79646 0.39867 0.0
C493 C 0.23064 0.78042 0.42298 0.0
C494 C 0.38197 0.79761 0.33114 0.0
C495 C 0.28135 0.80907 0.36421 0.0
H496 H 0.36919 0.87321 0.17897 0.0
H497 H 0.42341 0.8545 0.10155 0.0
H498 H 0.40675 0.78679 0.16881 0.0
H499 H 0.43058 0.80345 0.1209 0.0
H500 H 0.29528 0.75361 0.38122 0.0
H501 H 0.23384 0.74457 0.45319 0.0
H502 H 0.23411 0.81725 0.3924 0.0
H503 H 0.21308 0.78846 0.4351 0.0
Eu504 Eu 0.62145 0.05308 0.51009 0.0
C505 C 0.52381 1.00281 0.58606 0.0
C506 C 0.49607 0.95698 0.54298 0.0
C507 C 0.49504 0.95326 0.60111 0.0
C508 C 0.51518 0.98882 0.5526 0.0
C509 C 0.51315 0.98552 0.61064 0.0
C510 C 0.48662 0.93899 0.56736 0.0
C511 C 0.53726 0.03432 0.65228 0.0
N512 N 0.54167 0.03387 0.59464 0.0
C513 C 0.5475 0.0504 0.62704 0.0
C514 C 0.52043 1.00154 0.64409 0.0
Eu515 Eu 0.55798 0.05838 0.55016 0.0
N516 N 0.52455 1.0068 0.5295 0.0
C517 C 0.51425 0.9955 0.49677 0.0
C518 C 0.48657 0.94447 0.50915 0.0
C519 C 0.49536 0.96407 0.48599 0.0
H520 H 0.56061 0.07571 0.63334 0.0
H521 H 0.4878 0.95489 0.45983 0.0
H522 H 0.47222 0.91434 0.56041 0.0
H523 H 0.54244 0.04718 0.67802 0.0
H524 H 0.52124 1.01042 0.47906 0.0
H525 H 0.69954 0.15297 0.59811 0.0
H526 H 0.47203 0.92006 0.50075 0.0
H527 H 0.6137 0.04306 0.42599 0.0
H528 H 0.66904 0.09679 0.57852 0.0
H529 H 0.62462 0.0771 0.38358 0.0
H530 H 0.48695 0.93942 0.61965 0.0
H531 H 0.70548 0.19374 0.56096 0.0
H532 H 0.69664 0.20533 0.50407 0.0
H533 H 0.51258 0.98914 0.6637 0.0
H534 H 0.67666 0.18451 0.44548 0.0
N535 N 0.65509 0.10549 0.53078 0.0
C536 C 0.67043 0.11409 0.56184 0.0
C537 C 0.69149 0.16903 0.55218 0.0
C538 C 0.67784 0.15923 0.51954 0.0
C539 C 0.68824 0.14609 0.57318 0.0
C540 C 0.65959 0.12682 0.50934 0.0
H541 H 0.65055 0.13661 0.40031 0.0
N542 N 0.63182 0.08337 0.46694 0.0
C543 C 0.63087 0.08835 0.40963 0.0
C544 C 0.6478 0.11534 0.47644 0.0
C545 C 0.62458 0.06923 0.43386 0.0
C546 C 0.64549 0.12192 0.41918 0.0
C547 C 0.65464 0.13567 0.45282 0.0
O548 O 0.63894 1.02032 0.47278 0.0
O549 O 0.57601 1.02191 0.51287 0.0
O550 O 0.58404 0.03304 0.58106 0.0
O551 O 0.62787 0.05433 0.5642 0.0
O552 O 0.61039 0.99914 0.51715 0.0
O553 O 0.6625 0.04003 0.5222 0.0
O554 O 0.54039 0.09907 0.57509 0.0
O555 O 0.59836 0.09115 0.53813 0.0
O556 O 0.58357 0.047 0.4716 0.0
O557 O 0.56564 0.08369 0.5069 0.0
O558 O 0.58918 0.10058 0.58701 0.0
O559 O 0.51533 0.06571 0.53137 0.0
C560 C 0.58274 0.99403 0.51643 0.0
C561 C 0.68819 1.01476 0.48114 0.0
C562 C 0.73034 0.99044 0.48682 0.0
C563 C 0.70421 0.99621 0.49746 0.0
C564 C 0.73998 1.0023 0.45889 0.0
C565 C 0.69802 0.02675 0.4534 0.0
C566 C 0.7238 1.02027 0.44221 0.0
C567 C 0.61216 0.03594 0.5818 0.0
C568 C 0.66106 1.02009 0.49353 0.0
C569 C 0.67151 0.16848 0.46323 0.0
C570 C 0.68293 0.18031 0.49658 0.0
C571 C 0.60568 0.11227 0.56604 0.0
C572 C 0.49026 0.09635 0.57027 0.0
C573 C 0.47025 0.11124 0.55474 0.0
C574 C 0.44726 0.12023 0.57138 0.0
C575 C 0.44476 0.1143 0.60373 0.0
C576 C 0.4869 0.09016 0.60232 0.0
C577 C 0.46434 0.09923 0.61894 0.0
C578 C 0.5663 0.06779 0.47681 0.0
C579 C 0.51657 0.09183 0.55487 0.0
H580 H 0.69622 0.98594 0.51822 0.0
H581 H 0.76 0.99769 0.45007 0.0
H582 H 0.68578 0.04086 0.44041 0.0
H583 H 0.73134 0.02931 0.42066 0.0
H584 H 0.47273 0.11601 0.52997 0.0
H585 H 0.42761 0.12147 0.61737 0.0
H586 H 0.50219 0.07925 0.61495 0.0
H587 H 0.46221 0.09493 0.64388 0.0
Eu588 Eu 0.30556 0.32063 0.78132 0.0
C589 C 0.40224 0.26786 0.84735 0.0
C590 C 0.42554 0.31646 0.88987 0.0
C591 C 0.42681 0.26062 0.89876 0.0
C592 C 0.40909 0.30228 0.85856 0.0
C593 C 0.41198 0.24675 0.86688 0.0
C594 C 0.43348 0.29543 0.91029 0.0
C595 C 0.39514 0.20029 0.82039 0.0
N596 N 0.38834 0.25519 0.81621 0.0
C597 C 0.386 0.2222 0.80198 0.0
C598 C 0.40773 0.2125 0.8532 0.0
Eu599 Eu 0.37302 0.29352 0.78628 0.0
N600 N 0.40184 0.32198 0.83782 0.0
C601 C 0.41279 0.35606 0.84604 0.0
C602 C 0.43479 0.35135 0.89912 0.0
C603 C 0.42895 0.37115 0.87675 0.0
H604 H 0.37646 0.21272 0.77645 0.0
H605 H 0.43668 0.39817 0.88322 0.0
H606 H 0.44582 0.3059 0.93446 0.0
H607 H 0.39261 0.17404 0.8092 0.0
H608 H 0.40866 0.37251 0.82993 0.0
H609 H 0.25096 0.21267 0.68199 0.0
H610 H 0.44737 0.36315 0.92291 0.0
H611 H 0.29944 0.39998 0.78977 0.0
H612 H 0.27953 0.24029 0.73455 0.0
H613 H 0.27991 0.4368 0.75726 0.0
H614 H 0.43415 0.24475 0.91423 0.0
H615 H 0.23352 0.24613 0.64428 0.0
H616 H 0.22905 0.30234 0.63381 0.0
H617 H 0.41505 0.19554 0.86734 0.0
H618 H 0.23718 0.36332 0.654 0.0
N619 N 0.27806 0.2903 0.72933 0.0
C620 C 0.27126 0.25591 0.71995 0.0
C621 C 0.24572 0.25871 0.66809 0.0
C622 C 0.25156 0.29363 0.67804 0.0
C623 C 0.25534 0.23977 0.68936 0.0
C624 C 0.26775 0.30888 0.70927 0.0
H625 H 0.2557 0.41351 0.70007 0.0
N626 N 0.2876 0.35688 0.75081 0.0
C627 C 0.27809 0.41061 0.74636 0.0
C628 C 0.27272 0.34318 0.72035 0.0
C629 C 0.28928 0.38978 0.76457 0.0
C630 C 0.26441 0.39737 0.71413 0.0
C631 C 0.26114 0.36317 0.7009 0.0
O632 O 0.28627 0.34388 0.82319 0.0
O633 O 0.3406 0.31247 0.81732 0.0
O634 O 0.33901 0.24707 0.79631 0.0
O635 O 0.29642 0.26539 0.78914 0.0
O636 O 0.32939 0.35909 0.82541 0.0
O637 O 0.2611 0.2991 0.79095 0.0
O638 O 0.392 0.27111 0.74379 0.0
O639 O 0.33902 0.30349 0.75073 0.0
O640 O 0.3389 0.36777 0.77251 0.0
O641 O 0.38174 0.34968 0.78008 0.0
O642 O 0.34942 0.25655 0.7407 0.0
O643 O 0.41827 0.31379 0.77788 0.0
C644 C 0.34487 0.34088 0.83748 0.0
C645 C 0.2357 0.33481 0.82406 0.0
C646 C 0.19055 0.33087 0.84944 0.0
C647 C 0.21402 0.31693 0.83977 0.0
C648 C 0.18903 0.36273 0.8435 0.0
C649 C 0.23363 0.36662 0.81836 0.0
C650 C 0.21044 0.38045 0.82805 0.0
C651 C 0.30998 0.24125 0.79422 0.0
C652 C 0.26187 0.3219 0.81741 0.0
C653 C 0.24593 0.3483 0.6694 0.0
C654 C 0.24124 0.3136 0.65794 0.0
C655 C 0.33531 0.27626 0.72899 0.0
C656 C 0.44227 0.27789 0.7426 0.0
C657 C 0.46416 0.29514 0.7266 0.0
C658 C 0.48644 0.27972 0.71534 0.0
C659 C 0.48639 0.24699 0.7198 0.0
C660 C 0.44296 0.24532 0.74704 0.0
C661 C 0.46483 0.22998 0.73559 0.0
C662 C 0.36795 0.37389 0.77542 0.0
C663 C 0.41692 0.29207 0.75042 0.0
H664 H 0.2155 0.29249 0.84465 0.0
H665 H 0.17114 0.37387 0.85084 0.0
H666 H 0.25026 0.38123 0.80721 0.0
H667 H 0.20918 0.4051 0.82379 0.0
H668 H 0.46381 0.32023 0.72282 0.0
H669 H 0.50332 0.2347 0.71127 0.0
H670 H 0.42616 0.23131 0.75854 0.0
H671 H 0.46499 0.20473 0.73881 0.0
Eu672 Eu 0.08101 0.09641 0.54995 0.0
C673 C 0.10608 0.99718 0.4362 0.0
C674 C 0.05836 0.97669 0.40452 0.0
C675 C 0.10089 0.9666 0.3788 0.0
C676 C 0.07614 0.99368 0.43434 0.0
C677 C 0.1186 0.9834 0.40831 0.0
C678 C 0.0709 0.96334 0.37689 0.0
C679 C 0.16517 1.00003 0.44159 0.0
N680 N 0.12268 1.01152 0.46577 0.0
C681 C 0.15189 1.01243 0.46879 0.0
C682 C 0.14847 0.98538 0.41125 0.0
Eu683 Eu 0.09602 1.02016 0.51226 0.0
N684 N 0.0642 1.00477 0.46206 0.0
C685 C 0.0347 0.99899 0.46152 0.0
C686 C 0.02827 0.97218 0.40368 0.0
C687 C 1.01642 0.98352 0.4323 0.0
H688 H 0.1648 1.0207 0.49278 0.0
H689 H 0.99314 0.9797 0.43211 0.0
H690 H 0.0575 0.94975 0.3541 0.0
H691 H 0.18813 1.00057 0.44441 0.0
H692 H 0.02492 1.00655 0.48343 0.0
H693 H 0.18677 0.14478 0.6223 0.0
H694 H 1.01399 0.95929 0.38129 0.0
H695 H 1.0128 0.09252 0.57499 0.0
H696 H 0.15302 0.11107 0.57463 0.0
H697 H 0.99169 0.11012 0.62555 0.0
H698 H 0.11015 0.95543 0.35745 0.0
H699 H 0.16807 0.16917 0.67328 0.0
H700 H 0.12573 0.17583 0.7042 0.0
H701 H 0.15873 0.97476 0.39051 0.0
H702 H 0.0731 0.16418 0.70582 0.0
N703 N 0.11505 0.1151 0.59791 0.0
C704 C 0.14431 0.1209 0.59659 0.0
C705 C 0.15301 0.15406 0.65235 0.0
C706 C 0.12307 0.14791 0.65384 0.0
C707 C 0.16365 0.14024 0.62369 0.0
C708 C 0.10425 0.12813 0.6258 0.0
H709 H 0.02332 0.13894 0.67724 0.0
N710 N 0.05658 0.10466 0.59853 0.0
C711 C 1.01493 0.11284 0.62643 0.0
C712 C 0.07438 0.12169 0.62657 0.0
C713 C 0.02713 0.1016 0.59791 0.0
C714 C 0.03286 0.1293 0.65547 0.0
C715 C 0.06291 0.13468 0.65562 0.0
O716 O 0.05988 0.13864 0.55807 0.0
O717 O 0.07272 0.06091 0.49871 0.0
O718 O 0.13734 0.06067 0.51266 0.0
O719 O 0.11966 0.1089 0.52101 0.0
O720 O 0.05206 0.09963 0.50377 0.0
O721 O 0.10509 0.14705 0.54942 0.0
O722 O 0.11371 0.97552 0.50171 0.0
O723 O 0.10495 0.05557 0.56439 0.0
O724 O 0.0393 0.05654 0.54872 0.0
O725 O 0.05538 1.00745 0.53732 0.0
O726 O 0.12413 1.01559 0.55791 0.0
O727 O 0.07035 0.97101 0.51625 0.0
C728 C 0.05629 0.07559 0.48135 0.0
C729 C 0.07811 0.18645 0.5359 0.0
C730 C 0.09317 0.2234 0.49772 0.0
C731 C 0.09694 0.19687 0.51318 0.0
C732 C 0.07035 0.23939 0.50504 0.0
C733 C 0.05563 0.20299 0.54316 0.0
C734 C 0.05174 0.22922 0.52769 0.0
C735 C 0.1401 0.09294 0.51224 0.0
C736 C 0.08279 0.16046 0.55442 0.0
C737 C 0.08163 0.15388 0.68352 0.0
C738 C 0.11159 0.16067 0.68256 0.0
C739 C 0.12025 0.03901 0.58124 0.0
C740 C 0.09553 0.92772 0.52391 0.0
C741 C 0.07897 0.91734 0.54868 0.0
C742 C 0.08165 0.88788 0.55966 0.0
C743 C 0.101 0.86914 0.54621 0.0
C744 C 0.11498 0.90873 0.51101 0.0
C745 C 0.11773 0.8797 0.52218 0.0
C746 C 0.03533 1.02376 0.54638 0.0
C747 C 0.09081 0.95546 0.50791 0.0
H748 H 0.11473 0.18484 0.50788 0.0
H749 H 0.06742 0.26037 0.4939 0.0
H750 H 0.04131 0.19591 0.5612 0.0
H751 H 0.03452 0.24203 0.53365 0.0
H752 H 0.0634 0.93118 0.55843 0.0
H753 H 0.10283 0.84602 0.55404 0.0
H754 H 0.12752 0.91587 0.49148 0.0
H755 H 0.1324 0.86495 0.51165 0.0
Eu756 Eu 0.37418 0.83167 0.77042 0.0
C757 C 0.30064 0.73618 0.84499 0.0
C758 C 0.3026 0.68137 0.81367 0.0
C759 C 0.29067 0.68694 0.87032 0.0
C760 C 0.30585 0.7164 0.81612 0.0
C761 C 0.29201 0.7213 0.87195 0.0
C762 C 0.29593 0.66702 0.84122 0.0
C763 C 0.28169 0.77386 0.89793 0.0
N764 N 0.30111 0.76912 0.84552 0.0
C765 C 0.29089 0.78772 0.871 0.0
C766 C 0.28302 0.7408 0.89886 0.0
Eu767 Eu 0.30961 0.7881 0.79555 0.0
N768 N 0.31134 0.73068 0.78945 0.0
C769 C 0.31225 0.711 0.75937 0.0
C770 C 0.30427 0.66138 0.78299 0.0
C771 C 0.30839 0.67621 0.75553 0.0
H772 H 0.28956 0.81327 0.87024 0.0
H773 H 0.30892 0.66096 0.73139 0.0
H774 H 0.29355 0.64026 0.83978 0.0
H775 H 0.27361 0.78872 0.91799 0.0
H776 H 0.31538 0.72172 0.73803 0.0
H777 H 0.36985 0.95615 0.83663 0.0
H778 H 0.30139 0.6344 0.77997 0.0
H779 H 0.37859 0.80489 0.68703 0.0
H780 H 0.36262 0.89481 0.82818 0.0
H781 H 0.38325 0.82856 0.63733 0.0
H782 H 0.28428 0.67522 0.89089 0.0
H783 H 0.3769 0.98406 0.78888 0.0
H784 H 0.38186 0.97941 0.72842 0.0
H785 H 0.27586 0.73015 0.91978 0.0
H786 H 0.38451 0.94461 0.67429 0.0
N787 N 0.36853 0.88784 0.77726 0.0
C788 C 0.3672 0.90667 0.80763 0.0
C789 C 0.37434 0.95707 0.78525 0.0
C790 C 0.37486 0.93768 0.7539 0.0
C791 C 0.37049 0.94145 0.81225 0.0
C792 C 0.37186 0.90259 0.75057 0.0
H793 H 0.38448 0.88865 0.64015 0.0
N794 N 0.37198 0.84946 0.71803 0.0
C795 C 0.37983 0.84399 0.66022 0.0
C796 C 0.37328 0.88285 0.72005 0.0
C797 C 0.37605 0.8303 0.68856 0.0
C798 C 0.38068 0.87792 0.66196 0.0
C799 C 0.37785 0.89792 0.69213 0.0
O800 O 0.41226 0.83631 0.74566 0.0
O801 O 0.35588 0.77989 0.78424 0.0
O802 O 0.33907 0.81259 0.84287 0.0
O803 O 0.37989 0.84351 0.82551 0.0
O804 O 0.39708 0.78801 0.77228 0.0
O805 O 0.41727 0.85717 0.79922 0.0
O806 O 0.26663 0.79302 0.80644 0.0
O807 O 0.32807 0.8397 0.78266 0.0
O808 O 0.3523 0.7903 0.72974 0.0
O809 O 0.30527 0.78378 0.74032 0.0
O810 O 0.29078 0.83554 0.8044 0.0
O811 O 0.27129 0.7551 0.76402 0.0
C812 C 0.37855 0.76527 0.78171 0.0
C813 C 0.46108 0.86018 0.76948 0.0
C814 C 0.51119 0.86761 0.79343 0.0
C815 C 0.4818 0.86669 0.79752 0.0
C816 C 0.51912 0.86124 0.76095 0.0
C817 C 0.47015 0.85649 0.73753 0.0
C818 C 0.49894 0.8568 0.73338 0.0
C819 C 0.36478 0.83351 0.84863 0.0
C820 C 0.42987 0.85095 0.77229 0.0
C821 C 0.38067 0.9327 0.69537 0.0
C822 C 0.37921 0.95252 0.72618 0.0
C823 C 0.30692 0.85594 0.78967 0.0
C824 C 0.22422 0.75229 0.78304 0.0
C825 C 0.2021 0.75753 0.76159 0.0
C826 C 0.17301 0.74704 0.76629 0.0
C827 C 0.16612 0.72995 0.79213 0.0
C828 C 0.21731 0.73535 0.80888 0.0
C829 C 0.18823 0.72389 0.81312 0.0
C830 C 0.32477 0.77875 0.72054 0.0
C831 C 0.25368 0.77005 0.78087 0.0
H832 H 0.47493 0.86972 0.82218 0.0
H833 H 0.54095 0.85917 0.75662 0.0
H834 H 0.45473 0.85161 0.71548 0.0
H835 H 0.50548 0.85248 0.70863 0.0
H836 H 0.2076 0.77156 0.74225 0.0
H837 H 0.14373 0.72138 0.79606 0.0
H838 H 0.23427 0.73186 0.82614 0.0
H839 H 0.18282 0.71096 0.83316 0.0
Eu840 Eu 0.59639 0.04351 0.0715 0.0
C841 C 0.51287 0.07017 0.96309 0.0
C842 C 0.49375 1.01549 0.92753 0.0
C843 C 0.46557 0.05832 0.9304 0.0
C844 C 0.51611 0.038 0.95024 0.0
C845 C 0.48787 0.08087 0.95244 0.0
C846 C 0.46845 0.02568 0.91809 0.0
C847 C 0.51043 0.13689 0.98188 0.0
N848 N 0.53482 0.09176 0.98418 0.0
C849 C 0.5347 0.12518 0.99127 0.0
C850 C 0.48658 0.11445 0.96288 0.0
Eu851 Eu 0.57778 0.07238 0.99405 0.0
N852 N 0.5411 0.02884 0.95937 0.0
C853 C 0.54459 0.99722 0.94661 0.0
C854 C 0.49751 0.9834 0.91452 0.0
C855 C 0.52299 0.97424 0.92415 0.0
H856 H 0.55397 0.14315 1.00256 0.0
H857 H 0.52598 0.9493 0.91442 0.0
H858 H 0.45117 1.00867 0.90072 0.0
H859 H 0.51063 0.16341 0.98823 0.0
H860 H 0.56342 0.98855 0.95394 0.0
H861 H 0.65185 0.16431 0.15323 0.0
H862 H 0.48085 0.96548 0.89708 0.0
H863 H 0.61635 0.96988 0.06178 0.0
H864 H 0.61362 0.12734 0.11353 0.0
H865 H 0.65752 0.947 0.07936 0.0
H866 H 0.44629 0.06613 0.9221 0.0
H867 H 0.69562 0.14541 0.16979 0.0
H868 H 0.72357 0.10058 0.16486 0.0
H869 H 0.46796 0.12365 0.95494 0.0
H870 H 0.72569 0.04209 0.14387 0.0
N871 N 0.63408 0.08538 0.1067 0.0
C872 C 0.63184 0.11736 0.12019 0.0
C873 C 0.67879 0.12854 0.15183 0.0
C874 C 0.68138 0.09614 0.13813 0.0
C875 C 0.65396 0.13915 0.14283 0.0
C876 C 0.65842 0.07471 0.11537 0.0
H877 H 0.70128 0.98486 0.11238 0.0
N878 N 0.63721 1.02087 0.08242 0.0
C879 C 0.65875 0.97375 0.08576 0.0
C880 C 0.66 0.04173 0.10291 0.0
C881 C 0.63549 0.98694 0.07576 0.0
C882 C 0.68339 0.9952 0.10431 0.0
C883 C 0.68399 0.02944 0.11384 0.0
O884 O 0.57529 0.99445 0.08049 0.0
O885 O 0.56608 0.03347 0.02414 0.0
O886 O 0.5639 0.10355 0.03935 0.0
O887 O 0.57487 0.08593 0.08913 0.0
O888 O 0.5478 0.03393 0.06892 0.0
O889 O 0.59359 0.03617 0.12203 0.0
O890 O 0.59493 0.1212 0.98181 0.0
O891 O 0.60839 0.08191 0.04098 0.0
O892 O 0.61505 1.01538 0.0276 0.0
O893 O 0.60135 0.03192 0.97824 0.0
O894 O 0.62622 0.08612 0.99663 0.0
O895 O 0.58006 0.07653 0.9425 0.0
C896 C 0.54277 0.0299 0.03721 0.0
C897 C 0.55306 0.99596 0.13011 0.0
C898 C 0.51683 1.01116 0.16516 0.0
C899 C 0.53921 1.02033 0.14598 0.0
C900 C 0.5084 0.97745 0.16822 0.0
C901 C 0.54394 0.96237 0.13288 0.0
C902 C 0.52164 0.95318 0.15182 0.0
C903 C 0.56424 0.10571 0.07209 0.0
C904 C 0.57841 1.00529 0.1127 0.0
C905 C 0.70712 0.05112 0.13545 0.0
C906 C 0.70584 0.08438 0.1475 0.0
C907 C 0.63167 0.08795 0.02803 0.0
C908 C 0.61387 0.12206 0.93016 0.0
C909 C 0.63054 0.10162 0.91327 0.0
C910 C 0.65001 0.11458 0.89242 0.0
C911 C 0.65282 0.14794 0.88853 0.0
C912 C 0.6168 0.15531 0.92594 0.0
C913 C 0.63624 0.16818 0.90524 0.0
C914 C 0.61482 1.0141 0.99498 0.0
C915 C 0.59142 0.1088 0.94989 0.0
H916 H 0.54653 0.0465 0.1446 0.0
H917 H 0.49207 0.97001 0.18409 0.0
H918 H 0.55457 0.94339 0.12103 0.0
H919 H 0.51504 0.92733 0.15445 0.0
H920 H 0.6279 0.0756 0.91556 0.0
H921 H 0.66716 0.15792 0.8717 0.0
H922 H 0.60358 0.17112 0.93817 0.0
H923 H 0.63803 0.19367 0.90164 0.0
Eu924 Eu 0.35755 0.34479 0.30107 0.0
C925 C 0.24848 0.23448 0.22761 0.0
C926 C 0.21924 0.22207 0.27144 0.0
C927 C 0.20129 0.19585 0.21418 0.0
C928 C 0.24544 0.23737 0.26096 0.0
C929 C 0.22618 0.21376 0.20371 0.0
C930 C 0.19746 0.20056 0.2479 0.0
C931 C 0.25544 0.22801 0.16099 0.0
N932 N 0.27372 0.25076 0.21871 0.0
C933 C 0.27726 0.24756 0.18556 0.0
C934 C 0.22993 0.21063 0.17009 0.0
Eu935 Eu 0.31376 0.2641 0.26168 0.0
N936 N 0.26796 0.25584 0.28316 0.0
C937 C 0.26393 0.26427 0.31574 0.0
C938 C 0.21582 0.22882 0.30522 0.0
C939 C 0.23797 0.25104 0.32736 0.0
H940 H 0.29779 0.25727 0.17754 0.0
H941 H 0.23519 0.25782 0.35336 0.0
H942 H 0.17767 0.1874 0.25549 0.0
H943 H 0.25893 0.22506 0.13505 0.0
H944 H 0.28037 0.28226 0.33247 0.0
H945 H 0.42791 0.34867 0.19985 0.0
H946 H 0.19594 0.21789 0.31425 0.0
H947 H 0.37915 0.34906 0.38336 0.0
H948 H 0.38403 0.32765 0.22334 0.0
H949 H 0.42096 0.37964 0.42237 0.0
H950 H 0.18498 0.17825 0.19641 0.0
H951 H 0.47112 0.3834 0.23655 0.0
H952 H 0.49433 0.41101 0.29411 0.0
H953 H 0.21349 0.19457 0.15103 0.0
H954 H 0.49163 0.42074 0.35396 0.0
N955 N 0.40077 0.35039 0.27374 0.0
C956 C 0.40201 0.34313 0.24011 0.0
C957 C 0.45172 0.37379 0.24722 0.0
C958 C 0.45094 0.3798 0.28156 0.0
C959 C 0.42735 0.3545 0.22646 0.0
C960 C 0.42526 0.36632 0.29427 0.0
H961 H 0.46491 0.40801 0.40216 0.0
N962 N 0.40001 0.3546 0.33958 0.0
C963 C 0.42253 0.37627 0.39593 0.0
C964 C 0.42468 0.36915 0.3282 0.0
C965 C 0.39894 0.35775 0.37323 0.0
C966 C 0.44737 0.39226 0.38445 0.0
C967 C 0.44894 0.3884 0.3503 0.0
O968 O 0.35075 0.37818 0.34572 0.0
O969 O 0.31308 0.31219 0.29491 0.0
O970 O 0.31993 0.29938 0.22347 0.0
O971 O 0.34659 0.35309 0.24884 0.0
O972 O 0.31588 0.35956 0.28597 0.0
O973 O 0.37361 0.39872 0.30772 0.0
O974 O 0.32493 0.23159 0.21911 0.0
O975 O 0.35828 0.29687 0.26815 0.0
O976 O 0.34946 0.31057 0.3406 0.0
O977 O 0.32054 0.2578 0.31574 0.0
O978 O 0.35564 0.25035 0.27887 0.0
O979 O 0.29905 0.21001 0.25448 0.0
C980 C 0.29797 0.33238 0.28821 0.0
C981 C 0.35065 0.43405 0.3427 0.0
C982 C 0.32602 0.473 0.32217 0.0
C983 C 0.3364 0.44369 0.31644 0.0
C984 C 0.32904 0.49225 0.35456 0.0
C985 C 0.35377 0.45327 0.37503 0.0
C986 C 0.34281 0.48225 0.38094 0.0
C987 C 0.33233 0.33102 0.22227 0.0
C988 C 0.36386 0.40518 0.33647 0.0
C989 C 0.47351 0.40435 0.33765 0.0
C990 C 0.47485 0.39931 0.30343 0.0
C991 C 0.37351 0.27732 0.27604 0.0
C992 C 0.32347 0.17536 0.22142 0.0
C993 C 0.34028 0.16909 0.24759 0.0
C994 C 0.35031 0.13974 0.24369 0.0
C995 C 0.34369 0.11625 0.21355 0.0
C996 C 0.3174 0.15266 0.19079 0.0
C997 C 0.32744 0.12296 0.18694 0.0
C998 C 0.33499 0.27979 0.34238 0.0
C999 C 0.31053 0.20426 0.22671 0.0
H1000 H 0.33421 0.42908 0.29135 0.0
H1001 H 0.32079 0.51493 0.35935 0.0
H1002 H 0.36498 0.44608 0.39553 0.0
H1003 H 0.34528 0.49716 0.40586 0.0
H1004 H 0.34472 0.18636 0.27145 0.0
H1005 H 0.35118 0.09305 0.21069 0.0
H1006 H 0.30468 0.15775 0.17018 0.0
H1007 H 0.32248 0.10508 0.16356 0.0
Eu1008 Eu 0.581 0.59584 0.05209 0.0
C1009 C 0.60456 0.49041 0.93692 0.0
C1010 C 0.55663 0.47152 0.90619 0.0
C1011 C 0.59828 0.45956 0.87961 0.0
C1012 C 0.57506 0.4881 0.93567 0.0
C1013 C 0.61649 0.47596 0.9089 0.0
C1014 C 0.5684 0.45733 0.87826 0.0
C1015 C 0.66336 0.4925 0.9415 0.0
N1016 N 0.62151 0.50565 0.96583 0.0
C1017 C 0.65049 0.50591 0.96867 0.0
C1018 C 0.64631 0.47757 0.9114 0.0
Eu1019 Eu 0.59763 0.52193 0.01297 0.0
N1020 N 0.5643 0.50169 0.96326 0.0
C1021 C 0.53505 0.49932 0.96266 0.0
C1022 C 0.52685 0.46948 0.90564 0.0
C1023 C 0.51605 0.4836 0.93399 0.0
H1024 H 0.66363 0.51576 0.99239 0.0
H1025 H 0.49303 0.48229 0.93388 0.0
H1026 H 0.55456 0.44442 0.85556 0.0
H1027 H 0.68633 0.49305 0.94403 0.0
H1028 H 0.52594 0.51016 0.98383 0.0
H1029 H 0.68463 0.63913 0.13217 0.0
H1030 H 0.51204 0.45707 0.88352 0.0
H1031 H 0.51278 0.5953 0.07294 0.0
H1032 H 0.65334 0.6155 0.08023 0.0
H1033 H 0.48917 0.60969 0.12273 0.0
H1034 H 0.60705 0.44819 0.85797 0.0
H1035 H 0.66345 0.65233 0.18451 0.0
H1036 H 0.61966 0.65595 0.21326 0.0
H1037 H 0.65624 0.46668 0.89051 0.0
H1038 H 0.56686 0.64794 0.21071 0.0
N1039 N 0.61362 0.61262 0.10206 0.0
C1040 C 0.64318 0.62043 0.10247 0.0
C1041 C 0.64929 0.64116 0.16161 0.0
C1042 C 0.61916 0.63492 0.16105 0.0
C1043 C 0.66132 0.63391 0.13216 0.0
C1044 C 0.60152 0.62019 0.13057 0.0
H1045 H 0.51837 0.6305 0.17747 0.0
N1046 N 0.55492 0.60278 0.09931 0.0
C1047 C 0.51222 0.6107 0.12504 0.0
C1048 C 0.5715 0.61517 0.12918 0.0
C1049 C 0.52568 0.60157 0.09691 0.0
C1050 C 0.52879 0.62254 0.15584 0.0
C1051 C 0.55876 0.62541 0.15819 0.0
O1052 O 0.56142 0.63921 0.06162 0.0
O1053 O 0.57404 0.56265 0.99974 0.0
O1054 O 0.63537 0.56209 1.00258 0.0
O1055 O 0.62349 0.60976 0.03069 0.0
O1056 O 0.55157 0.59933 1.0064 0.0
O1057 O 0.60572 0.64568 0.04997 0.0
O1058 O 0.62259 0.48435 0.02024 0.0
O1059 O 0.59892 0.55126 0.06682 0.0
O1060 O 0.53932 0.55558 0.04997 0.0
O1061 O 0.55579 0.50692 0.03564 0.0
O1062 O 0.63621 0.53671 0.05441 0.0
O1063 O 0.57544 0.47217 0.01964 0.0
C1064 C 0.55664 0.57681 0.98291 0.0
C1065 C 0.57876 0.6849 0.03618 0.0
C1066 C 0.59216 0.71992 0.99581 0.0
C1067 C 0.59718 0.69482 0.01276 0.0
C1068 C 0.5689 0.73529 1.00273 0.0
C1069 C 0.55572 0.7007 0.04273 0.0
C1070 C 0.55081 0.72566 0.02601 0.0
C1071 C 0.64122 0.59504 0.01333 0.0
C1072 C 0.58412 0.66004 0.05588 0.0
C1073 C 0.57632 0.63967 0.1884 0.0
C1074 C 0.60639 0.64429 0.18985 0.0
C1075 C 0.62428 0.54847 0.07982 0.0
C1076 C 0.60094 0.42926 0.02969 0.0
C1077 C 0.58279 0.41476 0.05105 0.0
C1078 C 0.58621 0.38463 0.05987 0.0
C1079 C 0.60773 0.36896 0.04703 0.0
C1080 C 0.62243 0.41345 0.01716 0.0
C1081 C 0.6257 0.38332 0.02574 0.0
C1082 C 0.5356 0.5226 0.04596 0.0
C1083 C 0.59972 0.46265 0.02369 0.0
H1084 H 0.61545 0.6835 1.00792 0.0
H1085 H 0.5652 0.75549 0.99078 0.0
H1086 H 0.54171 0.69404 0.0612 0.0
H1087 H 0.53321 0.73797 0.03151 0.0
H1088 H 0.56631 0.427 0.06108 0.0
H1089 H 0.61052 0.34553 0.05343 0.0
H1090 H 0.63688 0.4246 1.00106 0.0
H1091 H 0.64231 0.3712 0.01603 0.0
Eu1092 Eu 0.87087 0.33237 0.27341 0.0
C1093 C 0.79631 0.23026 0.34175 0.0
C1094 C 0.79919 0.17722 0.3077 0.0
C1095 C 0.78569 0.17889 0.36357 0.0
C1096 C 0.80262 0.21246 0.31252 0.0
C1097 C 0.78751 0.21358 0.36752 0.0
C1098 C 0.79117 0.16067 0.33356 0.0
C1099 C 0.77802 0.26534 0.39682 0.0
N1100 N 0.79664 0.26334 0.34406 0.0
C1101 C 0.78567 0.28021 0.36995 0.0
C1102 C 0.77936 0.23195 0.39583 0.0
Eu1103 Eu 0.808 0.28683 0.29705 0.0
N1104 N 0.81078 0.22927 0.28819 0.0
C1105 C 0.81623 0.21213 0.25856 0.0
C1106 C 0.80338 0.15953 0.2768 0.0
C1107 C 0.81196 0.17712 0.25211 0.0
H1108 H 0.78241 0.30512 0.36954 0.0
H1109 H 0.81592 0.16385 0.22834 0.0
H1110 H 0.78875 0.13373 0.33041 0.0
H1111 H 0.77027 0.27932 0.41778 0.0
H1112 H 0.82421 0.22518 0.23976 0.0
H1113 H 0.85698 0.456 0.33603 0.0
H1114 H 0.80051 0.13246 0.27195 0.0
H1115 H 0.89331 0.31184 0.19823 0.0
H1116 H 0.85899 0.39757 0.33132 0.0
H1117 H 0.90189 0.33598 0.14848 0.0
H1118 H 0.77902 0.16571 0.38311 0.0
H1119 H 0.86235 0.48275 0.28734 0.0
H1120 H 0.87169 0.47854 0.22818 0.0
H1121 H 0.7727 0.22015 0.41626 0.0
H1122 H 0.88307 0.44573 0.177 0.0
N1123 N 0.86579 0.38929 0.28005 0.0
C1124 C 0.86213 0.4082 0.30973 0.0
C1125 C 0.86334 0.45661 0.285 0.0
C1126 C 0.86798 0.4378 0.25494 0.0
C1127 C 0.86051 0.44172 0.31254 0.0
C1128 C 0.86907 0.40372 0.2531 0.0
H1129 H 0.89409 0.39274 0.14702 0.0
N1130 N 0.87789 0.35307 0.22363 0.0
C1131 C 0.8941 0.34997 0.1694 0.0
C1132 C 0.87521 0.3851 0.22411 0.0
C1133 C 0.88896 0.33631 0.19756 0.0
C1134 C 0.88962 0.38195 0.16866 0.0
C1135 C 0.88083 0.40029 0.19649 0.0
O1136 O 0.91351 0.32945 0.25993 0.0
O1137 O 0.85484 0.28019 0.28755 0.0
O1138 O 0.83679 0.30749 0.34537 0.0
O1139 O 0.87123 0.34621 0.32776 0.0
O1140 O 0.89378 0.28871 0.27128 0.0
O1141 O 0.90967 0.36508 0.30459 0.0
O1142 O 0.76539 0.29587 0.30663 0.0
O1143 O 0.82178 0.33572 0.27596 0.0
O1144 O 0.84665 0.30183 0.22592 0.0
O1145 O 0.80393 0.27484 0.24188 0.0
O1146 O 0.80024 0.33952 0.31715 0.0
O1147 O 0.76847 0.25589 0.26624 0.0
C1148 C 0.87794 0.26633 0.28399 0.0
C1149 C 0.95648 0.36898 0.28398 0.0
C1150 C 1.00761 0.37502 0.30199 0.0
C1151 C 0.97841 0.36476 0.30643 0.0
C1152 C 1.01477 0.39062 0.27522 0.0
C1153 C 0.96373 0.38436 0.25719 0.0
C1154 C 0.99288 0.39545 0.25308 0.0
C1155 C 0.85854 0.33398 0.35126 0.0
C1156 C 0.92691 0.35137 0.28597 0.0
C1157 C 0.87885 0.43376 0.19797 0.0
C1158 C 0.87243 0.45246 0.22712 0.0
C1159 C 0.80856 0.35627 0.29458 0.0
C1160 C 0.72139 0.25677 0.28365 0.0
C1161 C 0.70003 0.25929 0.25929 0.0
C1162 C 0.67055 0.24832 0.26226 0.0
C1163 C 0.66246 0.23418 0.28956 0.0
C1164 C 0.71313 0.24255 0.31084 0.0
C1165 C 0.6837 0.2312 0.31365 0.0
C1166 C 0.82102 0.2814 0.21942 0.0
C1167 C 0.75158 0.27292 0.28162 0.0
H1168 H 0.97269 0.35169 0.32638 0.0
H1169 H 0.03722 0.39899 0.27143 0.0
H1170 H 0.94695 0.3869 0.2391 0.0
H1171 H 0.99852 0.40716 0.23232 0.0
H1172 H 0.7063 0.27086 0.23857 0.0
H1173 H 0.63977 0.22599 0.29247 0.0
H1174 H 0.72929 0.2409 0.33011 0.0
H1175 H 0.67731 0.22064 0.33486 0.0
Eu1176 Eu 0.09723 0.54513 0.57223 0.0
C1177 C 1.0149 0.57433 0.45943 0.0
C1178 C 0.99618 0.52091 0.42119 0.0
C1179 C 0.97022 0.56563 0.42245 0.0
C1180 C 1.01753 0.54177 0.44629 0.0
C1181 C 0.99185 0.58687 0.44637 0.0
C1182 C 0.97225 0.53268 0.41011 0.0
C1183 C 1.01527 0.6421 0.47759 0.0
N1184 N 0.03614 0.59479 0.48242 0.0
C1185 C 0.03726 0.6286 0.49039 0.0
C1186 C 0.99212 0.62102 0.45606 0.0
Eu1187 Eu 0.07694 0.57277 0.49431 0.0
N1188 N 0.0417 0.53131 0.45611 0.0
C1189 C 0.04563 0.50046 0.44128 0.0
C1190 C 1.00003 0.48923 0.40671 0.0
C1191 C 0.02485 0.47903 0.41674 0.0
H1192 H 0.05523 0.64533 0.50685 0.0
H1193 H 0.02806 0.45458 0.40552 0.0
H1194 H 0.95574 0.51689 0.39097 0.0
H1195 H 1.0162 0.66876 0.4844 0.0
H1196 H 0.06407 0.49105 0.44852 0.0
H1197 H 0.15495 0.66554 0.65024 0.0
H1198 H 0.98431 0.47274 0.38719 0.0
H1199 H 0.11778 0.4707 0.55837 0.0
H1200 H 0.11518 0.62744 0.612 0.0
H1201 H 0.15914 0.44759 0.57428 0.0
H1202 H 0.95232 0.57483 0.41246 0.0
H1203 H 0.199 0.64637 0.66595 0.0
H1204 H 0.22544 0.60009 0.66267 0.0
H1205 H 0.9751 0.6316 0.4461 0.0
H1206 H 0.22671 0.54127 0.64181 0.0
N1207 N 0.13614 0.58626 0.60492 0.0
C1208 C 0.134 0.61819 0.61831 0.0
C1209 C 0.18159 0.62934 0.64878 0.0
C1210 C 0.18351 0.59647 0.63574 0.0
C1211 C 0.15671 0.64019 0.6401 0.0
C1212 C 0.16026 0.57518 0.61335 0.0
H1213 H 0.20242 0.48466 0.6089 0.0
N1214 N 0.13844 0.52161 0.58008 0.0
C1215 C 0.16037 0.47429 0.58136 0.0
C1216 C 0.16138 0.54207 0.60074 0.0
C1217 C 0.13715 0.48771 0.57187 0.0
C1218 C 0.18467 0.49528 0.60095 0.0
C1219 C 0.18525 0.52941 0.61138 0.0
O1220 O 0.08412 0.49973 0.59153 0.0
O1221 O 0.06701 0.53373 0.52476 0.0
O1222 O 0.05354 0.59541 0.53633 0.0
O1223 O 0.07411 0.58696 0.58674 0.0
O1224 O 0.04968 0.5207 0.56636 0.0
O1225 O 0.09088 0.54888 0.62464 0.0
O1226 O 0.09702 0.62307 0.48725 0.0
O1227 O 0.10748 0.58458 0.54212 0.0
O1228 O 0.11408 0.51621 0.52809 0.0
O1229 O 0.10085 0.53211 0.47804 0.0
O1230 O 0.12507 0.58504 0.4968 0.0
O1231 O 0.08033 0.58195 0.44453 0.0
C1232 C 0.04395 0.52126 0.53564 0.0
C1233 C 0.06184 0.50135 0.64096 0.0
C1234 C 0.02159 0.50337 0.6741 0.0
C1235 C 0.04049 0.51774 0.65316 0.0
C1236 C 0.02392 0.47216 0.68162 0.0
C1237 C 0.06374 0.4704 0.64896 0.0
C1238 C 0.04474 0.4558 0.66899 0.0
C1239 C 0.0564 0.5999 0.56926 0.0
C1240 C 0.08393 0.51618 0.62166 0.0
C1241 C 0.20836 0.55068 0.63335 0.0
C1242 C 0.20758 0.58414 0.64533 0.0
C1243 C 0.1306 0.5892 0.52844 0.0
C1244 C 0.11883 0.62525 0.43742 0.0
C1245 C 0.13362 0.60275 0.42012 0.0
C1246 C 0.15481 0.61423 0.40051 0.0
C1247 C 0.16139 0.64826 0.39839 0.0
C1248 C 0.12585 0.65928 0.43544 0.0
C1249 C 0.14716 0.67073 0.41608 0.0
C1250 C 0.11389 0.51447 0.49557 0.0
C1251 C 0.09415 0.61332 0.45487 0.0
H1252 H 0.03912 0.54177 0.64718 0.0
H1253 H 1.01042 0.46095 0.69852 0.0
H1254 H 0.08035 0.45773 0.64009 0.0
H1255 H 0.04665 0.43216 0.67548 0.0
H1256 H 0.1278 0.5762 0.42058 0.0
H1257 H 0.17694 0.65718 0.38224 0.0
H1258 H 0.11428 0.67679 0.44816 0.0
H1259 H 0.15208 0.69687 0.41404 0.0
Eu1260 Eu 0.80666 0.82054 0.28443 0.0
C1261 C 0.903 0.77156 0.34809 0.0
C1262 C 0.93131 0.82113 0.38565 0.0
C1263 C 0.92652 0.76682 0.40109 0.0
C1264 C 0.91285 0.80587 0.35587 0.0
C1265 C 0.91106 0.75146 0.36983 0.0
C1266 C 0.93665 0.80171 0.40902 0.0
C1267 C 0.89406 0.70306 0.32544 0.0
N1268 N 0.88941 0.75763 0.31713 0.0
C1269 C 0.88695 0.72416 0.30479 0.0
C1270 C 0.90541 0.71667 0.35847 0.0
Eu1271 Eu 0.87406 0.79397 0.28426 0.0
N1272 N 0.90817 0.82345 0.33204 0.0
C1273 C 0.92497 0.8552 0.33473 0.0
C1274 C 0.94594 0.85466 0.38976 0.0
C1275 C 0.94364 0.87131 0.36359 0.0
H1276 H 0.87861 0.71359 0.27906 0.0
H1277 H 0.9562 0.89664 0.3656 0.0
H1278 H 0.95024 0.81313 0.43226 0.0
H1279 H 0.89102 0.6764 0.31579 0.0
H1280 H 0.92506 0.86865 0.31477 0.0
H1281 H 0.75068 0.71044 0.1882 0.0
H1282 H 0.96048 0.86717 0.41206 0.0
H1283 H 0.80221 0.90083 0.29057 0.0
H1284 H 0.78282 0.73969 0.23781 0.0
H1285 H 0.77965 0.93591 0.25892 0.0
H1286 H 0.93242 0.75182 0.41837 0.0
H1287 H 0.72618 0.74191 0.15404 0.0
H1288 H 0.71731 0.7969 0.1449 0.0
H1289 H 0.91138 0.70038 0.37431 0.0
H1290 H 0.72581 0.8581 0.16344 0.0
N1291 N 0.77701 0.78882 0.23427 0.0
C1292 C 0.77206 0.75452 0.22457 0.0
C1293 C 0.74014 0.75524 0.17653 0.0
C1294 C 0.74468 0.79006 0.18648 0.0
C1295 C 0.75388 0.73743 0.19573 0.0
C1296 C 0.76323 0.80634 0.21597 0.0
H1297 H 0.74904 0.90998 0.20562 0.0
N1298 N 0.78626 0.85573 0.25444 0.0
C1299 C 0.77656 0.90926 0.24917 0.0
C1300 C 0.76832 0.84081 0.22612 0.0
C1301 C 0.78959 0.88934 0.26679 0.0
C1302 C 0.75922 0.89453 0.21919 0.0
C1303 C 0.75459 0.85988 0.20749 0.0
O1304 O 0.78665 0.84781 0.3233 0.0
O1305 O 0.84273 0.81106 0.31779 0.0
O1306 O 0.83993 0.74695 0.29298 0.0
O1307 O 0.79714 0.76566 0.2931 0.0
O1308 O 0.83216 0.85742 0.32924 0.0
O1309 O 0.76553 0.79687 0.30082 0.0
O1310 O 0.89312 0.76355 0.24735 0.0
O1311 O 0.83938 0.80564 0.2501 0.0
O1312 O 0.83902 0.8679 0.27513 0.0
O1313 O 0.88253 0.85122 0.28161 0.0
O1314 O 0.848 0.75812 0.23995 0.0
O1315 O 0.91382 0.81559 0.26355 0.0
C1316 C 0.84807 0.83861 0.33923 0.0
C1317 C 0.7361 0.83232 0.32687 0.0
C1318 C 0.68944 0.82483 0.34995 0.0
C1319 C 0.71553 0.81438 0.34419 0.0
C1320 C 0.68469 0.85359 0.3389 0.0
C1321 C 0.7303 0.86063 0.31588 0.0
C1322 C 0.70489 0.87123 0.32203 0.0
C1323 C 0.8113 0.7413 0.29484 0.0
C1324 C 0.76449 0.82331 0.32277 0.0
C1325 C 0.73637 0.84382 0.17811 0.0
C1326 C 0.73145 0.80899 0.16761 0.0
C1327 C 0.83552 0.77872 0.22773 0.0
C1328 C 0.94266 0.77802 0.23991 0.0
C1329 C 0.96259 0.79528 0.22162 0.0
C1330 C 0.98783 0.78382 0.21423 0.0
C1331 C 0.99271 0.75495 0.22482 0.0
C1332 C 0.94839 0.74948 0.25062 0.0
C1333 C 0.97315 0.73798 0.24291 0.0
C1334 C 0.86797 0.87485 0.27764 0.0
C1335 C 0.91454 0.78736 0.24432 0.0
H1336 H 0.71973 0.79253 0.35293 0.0
H1337 H 0.6651 0.86247 0.34334 0.0
H1338 H 0.74565 0.87508 0.30306 0.0
H1339 H 0.70085 0.89334 0.31375 0.0
H1340 H 0.95846 0.81729 0.21314 0.0
H1341 H 1.01195 0.74573 0.21933 0.0
H1342 H 0.93342 0.73554 0.26435 0.0
H1343 H 0.97717 0.71574 0.25092 0.0
Eu1344 Eu 0.85523 0.3005 0.74961 0.0
C1345 C 0.81217 0.39659 0.85314 0.0
C1346 C 0.85594 0.42851 0.88819 0.0
C1347 C 0.81338 0.45216 0.88598 0.0
C1348 C 0.84058 0.39891 0.86591 0.0
C1349 C 0.79813 0.42298 0.86383 0.0
C1350 C 0.84226 0.45501 0.89793 0.0
C1351 C 0.75363 0.38838 0.83363 0.0
N1352 N 0.79763 0.36794 0.832 0.0
C1353 C 0.76829 0.36296 0.82408 0.0
C1354 C 0.76871 0.41878 0.85322 0.0
Eu1355 Eu 0.82138 0.32234 0.82404 0.0
N1356 N 0.85309 0.37235 0.85704 0.0
C1357 C 0.88139 0.37489 0.86915 0.0
C1358 C 0.88462 0.43069 0.90045 0.0
C1359 C 0.89741 0.40385 0.8907 0.0
H1360 H 0.75564 0.33865 0.81182 0.0
H1361 H 0.91979 0.40544 0.89968 0.0
H1362 H 0.85374 0.47768 0.91512 0.0
H1363 H 0.73048 0.38402 0.82684 0.0
H1364 H 0.89282 0.35565 0.86181 0.0
H1365 H 0.75375 0.21587 0.68217 0.0
H1366 H 0.8971 0.45304 0.91735 0.0
H1367 H 0.92073 0.28225 0.75987 0.0
H1368 H 0.782 0.26348 0.72265 0.0
H1369 H 0.94669 0.24048 0.73605 0.0
H1370 H 0.80289 0.47251 0.8944 0.0
H1371 H 0.7775 0.1734 0.65286 0.0
H1372 H 0.82259 0.15247 0.6446 0.0
H1373 H 0.75718 0.43825 0.86123 0.0
H1374 H 0.87469 0.15856 0.65998 0.0
N1375 N 0.82303 0.251 0.71604 0.0
C1376 C 0.79356 0.24668 0.70956 0.0
C1377 C 0.79039 0.19485 0.67059 0.0
C1378 C 0.82013 0.19824 0.67815 0.0
C1379 C 0.77698 0.21885 0.68689 0.0
C1380 C 0.83595 0.22651 0.70177 0.0
H1381 H 0.92078 0.19071 0.69429 0.0
N1382 N 0.87919 0.25555 0.73545 0.0
C1383 C 0.92354 0.23642 0.72944 0.0
C1384 C 0.86492 0.22905 0.71155 0.0
C1385 C 0.9084 0.25976 0.74375 0.0
C1386 C 0.90892 0.20859 0.70571 0.0
C1387 C 0.8793 0.20461 0.69641 0.0
O1388 O 0.89897 0.32555 0.74381 0.0
O1389 O 0.85695 0.33851 0.79557 0.0
O1390 O 0.79209 0.32752 0.77619 0.0
O1391 O 0.81545 0.31665 0.72855 0.0
O1392 O 0.85482 0.35487 0.75113 0.0
O1393 O 0.86663 0.30701 0.70024 0.0
O1394 O 0.77876 0.29785 0.83497 0.0
O1395 O 0.8202 0.28332 0.77893 0.0
O1396 O 0.88393 0.29285 0.79617 0.0
O1397 O 0.86105 0.30468 0.8441 0.0
O1398 O 0.8216 0.26824 0.82393 0.0
O1399 O 0.81233 0.32457 0.87532 0.0
C1400 C 0.85797 0.36399 0.78301 0.0
C1401 C 0.91103 0.34526 0.69483 0.0
C1402 C 0.91605 0.38084 0.65394 0.0
C1403 C 0.89845 0.36174 0.67271 0.0
C1404 C 0.94619 0.38398 0.65784 0.0
C1405 C 0.94125 0.3488 0.69863 0.0
C1406 C 0.95871 0.36815 0.6803 0.0
C1407 C 0.79325 0.3254 0.74321 0.0
C1408 C 0.89367 0.32124 0.71165 0.0
C1409 C 0.86393 0.17733 0.67198 0.0
C1410 C 0.83433 0.17399 0.66309 0.0
C1411 C 0.81983 0.25824 0.79217 0.0
C1412 C 0.772 0.28767 0.88909 0.0
C1413 C 0.78483 0.26317 0.8993 0.0
C1414 C 0.77252 0.24538 0.92257 0.0
C1415 C 0.74709 0.25211 0.93513 0.0
C1416 C 0.74661 0.29408 0.90165 0.0
C1417 C 0.73418 0.27629 0.92456 0.0
C1418 C 0.88307 0.29554 0.82916 0.0
C1419 C 0.78536 0.30846 0.86696 0.0
H1420 H 0.87509 0.35845 0.6689 0.0
H1421 H 0.9599 0.39809 0.64298 0.0
H1422 H 0.95128 0.33576 0.71518 0.0
H1423 H 0.98191 0.3702 0.68293 0.0
H1424 H 0.80435 0.25816 0.88932 0.0
H1425 H 0.73745 0.23904 0.95347 0.0
H1426 H 0.73664 0.31322 0.89406 0.0
H1427 H 0.71473 0.28151 0.93444 0.0
Eu1428 Eu 0.85724 0.85035 0.80187 0.0
C1429 C 0.7474 0.73604 0.73117 0.0
C1430 C 0.71898 0.72813 0.77663 0.0
C1431 C 0.6978 0.70275 0.72009 0.0
C1432 C 0.74516 0.74159 0.76473 0.0
C1433 C 0.7238 0.71613 0.7084 0.0
C1434 C 0.6953 0.70895 0.75412 0.0
C1435 C 0.75474 0.71929 0.66483 0.0
N1436 N 0.77353 0.74714 0.72104 0.0
C1437 C 0.77764 0.73766 0.68859 0.0
C1438 C 0.72768 0.7083 0.67482 0.0
Eu1439 Eu 0.81417 0.76764 0.76236 0.0
N1440 N 0.76921 0.75792 0.78586 0.0
C1441 C 0.76805 0.7617 0.81939 0.0
C1442 C 0.71781 0.73278 0.81089 0.0
C1443 C 0.74248 0.74982 0.83236 0.0
H1444 H 0.79915 0.74168 0.68163 0.0
H1445 H 0.74205 0.75323 0.859 0.0
H1446 H 0.67529 0.69789 0.76285 0.0
H1447 H 0.75844 0.71186 0.6392 0.0
H1448 H 0.78663 0.77404 0.83671 0.0
H1449 H 0.92494 0.90071 0.71037 0.0
H1450 H 0.69822 0.7227 0.82099 0.0
H1451 H 0.88018 0.86442 0.88145 0.0
H1452 H 0.88113 0.88837 0.73616 0.0
H1453 H 0.92495 0.87586 0.91927 0.0
H1454 H 0.67984 0.68663 0.7032 0.0
H1455 H 0.97134 0.89609 0.73791 0.0
H1456 H 0.99877 0.89141 0.7896 0.0
H1457 H 0.71052 0.69223 0.65676 0.0
H1458 H 0.99905 0.88583 0.84744 0.0
N1459 N 0.89955 0.8672 0.77457 0.0
C1460 C 0.89989 0.88183 0.74712 0.0
C1461 C 0.95147 0.88797 0.74842 0.0
C1462 C 0.95198 0.87854 0.77922 0.0
C1463 C 0.92536 0.89064 0.73283 0.0
C1464 C 0.92541 0.86772 0.79185 0.0
H1465 H 0.97187 0.88159 0.89649 0.0
N1466 N 0.90022 0.85582 0.83732 0.0
C1467 C 0.9256 0.87072 0.89264 0.0
C1468 C 0.92577 0.86278 0.82441 0.0
C1469 C 0.90001 0.86262 0.87105 0.0
C1470 C 0.95198 0.87409 0.87965 0.0
C1471 C 0.95241 0.87118 0.84533 0.0
O1472 O 0.84373 0.88273 0.8434 0.0
O1473 O 0.81412 0.81558 0.79634 0.0
O1474 O 0.81099 0.80019 0.72269 0.0
O1475 O 0.84443 0.85037 0.74647 0.0
O1476 O 0.81464 0.86244 0.78577 0.0
O1477 O 0.87723 0.90338 0.8154 0.0
O1478 O 0.8302 0.72816 0.73325 0.0
O1479 O 0.85999 0.79857 0.77935 0.0
O1480 O 0.85043 0.81744 0.8426 0.0
O1481 O 0.83038 0.76285 0.81428 0.0
O1482 O 0.84948 0.77351 0.72957 0.0
O1483 O 0.80719 0.71771 0.77532 0.0
C1484 C 0.79811 0.83487 0.78972 0.0
C1485 C 0.85234 0.94066 0.84245 0.0
C1486 C 0.82751 0.97677 0.81739 0.0
C1487 C 0.835 0.94591 0.81592 0.0
C1488 C 0.83771 1.00281 0.84522 0.0
C1489 C 0.86268 0.96658 0.87029 0.0
C1490 C 0.85545 0.99771 0.87158 0.0
C1491 C 0.82727 0.82994 0.72055 0.0
C1492 C 0.86213 0.9095 0.83989 0.0
C1493 C 0.97855 0.87979 0.83201 0.0
C1494 C 0.97836 0.88296 0.79893 0.0
C1495 C 0.86985 0.79169 0.75178 0.0
C1496 C 0.8127 0.67135 0.73413 0.0
C1497 C 0.82463 0.65063 0.75104 0.0
C1498 C 0.83487 0.62434 0.73343 0.0
C1499 C 0.82733 0.61423 0.69895 0.0
C1500 C 0.80464 0.66152 0.69972 0.0
C1501 C 0.81124 0.63235 0.68242 0.0
C1502 C 0.84103 0.78471 0.84221 0.0
C1503 C 0.82047 0.70633 0.75076 0.0
H1504 H 0.82714 0.92605 0.79424 0.0
H1505 H 0.83158 0.02672 0.84669 0.0
H1506 H 0.87663 0.96287 0.89071 0.0
H1507 H 0.86344 1.01776 0.89304 0.0
H1508 H 0.83072 0.65855 0.77774 0.0
H1509 H 0.83512 0.5939 0.68475 0.0
H1510 H 0.79561 0.67755 0.68593 0.0
H1511 H 0.80613 0.6258 0.65589 0.0
Eu1512 Eu 0.55843 0.53636 0.50924 0.0
C1513 C 0.65064 0.65889 0.58512 0.0
C1514 C 0.67673 0.68115 0.54261 0.0
C1515 C 0.68212 0.71507 0.59807 0.0
C1516 C 0.65762 0.65484 0.55274 0.0
C1517 C 0.66212 0.68969 0.60769 0.0
C1518 C 0.68976 0.7106 0.56576 0.0
C1519 C 0.63548 0.66756 0.64912 0.0
N1520 N 0.63233 0.6332 0.5944 0.0
C1521 C 0.62618 0.6369 0.62684 0.0
C1522 C 0.65346 0.69414 0.63951 0.0
Eu1523 Eu 0.62344 0.58073 0.55504 0.0
N1524 N 0.64319 0.62703 0.53029 0.0
C1525 C 0.64446 0.62623 0.497 0.0
C1526 C 0.68043 0.67832 0.50897 0.0
C1527 C 0.66345 0.6513 0.48597 0.0
H1528 H 0.61577 0.61615 0.63716 0.0
H1529 H 0.66465 0.64995 0.45964 0.0
H1530 H 0.70462 0.73082 0.55844 0.0
H1531 H 0.62988 0.67013 0.67431 0.0
H1532 H 0.63053 0.60701 0.47837 0.0
H1533 H 0.53165 0.45328 0.59767 0.0
H1534 H 0.69476 0.698 0.50027 0.0
H1535 H 0.55396 0.51342 0.42534 0.0
H1536 H 0.55812 0.50307 0.57935 0.0
H1537 H 0.54005 0.46239 0.38141 0.0
H1538 H 0.69158 0.73845 0.61539 0.0
H1539 H 0.50272 0.40521 0.55635 0.0
H1540 H 0.48888 0.37732 0.49647 0.0
H1541 H 0.66143 0.71759 0.65726 0.0
H1542 H 0.49495 0.37807 0.43784 0.0
N1543 N 0.54277 0.48508 0.52846 0.0
C1544 C 0.54466 0.48306 0.56122 0.0
C1545 C 0.51385 0.42736 0.54826 0.0
C1546 C 0.51382 0.42826 0.51457 0.0
C1547 C 0.53008 0.45454 0.57165 0.0
C1548 C 0.52869 0.45783 0.5054 0.0
H1549 H 0.51798 0.40806 0.39584 0.0
N1550 N 0.54504 0.48777 0.46492 0.0
C1551 C 0.53766 0.46085 0.40704 0.0
C1552 C 0.5311 0.45868 0.47261 0.0
C1553 C 0.54662 0.48955 0.4322 0.0
C1554 C 0.52474 0.4305 0.41508 0.0
C1555 C 0.5199 0.42954 0.44788 0.0
O1556 O 0.5228 0.53616 0.47256 0.0
O1557 O 0.5819 0.5912 0.53117 0.0
O1558 O 0.58825 0.58007 0.59404 0.0
O1559 O 0.54479 0.55113 0.56379 0.0
O1560 O 0.56906 0.57942 0.48134 0.0
O1561 O 0.51858 0.5499 0.52482 0.0
O1562 O 0.65356 0.58569 0.59921 0.0
O1563 O 0.59652 0.52694 0.54034 0.0
O1564 O 0.59313 0.53359 0.46968 0.0
O1565 O 0.63657 0.56031 0.50117 0.0
O1566 O 0.6314 0.53573 0.57448 0.0
O1567 O 0.66865 0.5803 0.54936 0.0
C1568 C 0.57857 0.60484 0.50558 0.0
C1569 C 0.47514 0.53062 0.48784 0.0
C1570 C 0.42654 0.53826 0.49578 0.0
C1571 C 0.4566 0.5488 0.50382 0.0
C1572 C 0.41509 0.50922 0.47121 0.0
C1573 C 0.46352 0.50144 0.46358 0.0
C1574 C 0.43352 0.49088 0.45533 0.0
C1575 C 0.55952 0.56822 0.59311 0.0
C1576 C 0.50629 0.54522 0.49455 0.0
C1577 C 0.50426 0.40042 0.45662 0.0
C1578 C 0.5007 0.40002 0.48992 0.0
C1579 C 0.61167 0.51142 0.55777 0.0
C1580 C 0.70434 0.58477 0.59652 0.0
C1581 C 0.7249 0.57493 0.57641 0.0
C1582 C 0.75125 0.57066 0.59083 0.0
C1583 C 0.7568 0.57631 0.62562 0.0
C1584 C 0.71085 0.59195 0.63124 0.0
C1585 C 0.73703 0.58773 0.64567 0.0
C1586 C 0.62211 0.54425 0.47132 0.0
C1587 C 0.67501 0.5833 0.58145 0.0
H1588 H 0.46572 0.5721 0.52145 0.0
H1589 H 0.39191 0.50086 0.46415 0.0
H1590 H 0.47752 0.48733 0.45055 0.0
H1591 H 0.42455 0.46871 0.43627 0.0
H1592 H 0.72001 0.56935 0.54957 0.0
H1593 H 0.77614 0.57111 0.63727 0.0
H1594 H 0.6953 0.59963 0.64724 0.0
H1595 H 0.74162 0.59231 0.67246 0.0
Eu1596 Eu 0.12146 0.55741 1.00599 0.0
C1597 C 0.02462 0.50563 0.0939 0.0
C1598 C 0.98758 0.46248 0.05774 0.0
C1599 C 0.99413 0.46259 0.11677 0.0
C1600 C 1.01064 0.49113 0.0625 0.0
C1601 C 1.01587 0.49218 0.12159 0.0
C1602 C 0.98007 0.4477 0.08485 0.0
C1603 C 0.0484 0.54017 0.15703 0.0
N1604 N 0.04527 0.53437 0.09774 0.0
C1605 C 0.05641 0.55242 0.1288 0.0
C1606 C 0.02839 0.50962 0.15339 0.0
Eu1607 Eu 0.0581 0.554 0.04908 0.0
N1608 N 1.01806 0.5065 0.03703 0.0
C1609 C 1.00133 0.49615 1.00685 0.0
C1610 C 0.97193 0.45042 0.02621 0.0
C1611 C 0.97845 0.4678 1.00083 0.0
H1612 H 0.07197 0.576 0.13179 0.0
H1613 H 0.96578 0.45952 0.97666 0.0
H1614 H 0.96271 0.42549 0.08159 0.0
H1615 H 0.05767 0.55428 0.18157 0.0
H1616 H 1.00508 0.50969 0.98724 0.0
H1617 H 0.19439 0.6552 0.1014 0.0
H1618 H 0.95413 0.42854 0.02155 0.0
H1619 H 0.11138 0.55085 0.92372 0.0
H1620 H 0.15654 0.60461 0.08132 0.0
H1621 H 0.13318 0.57965 0.88099 0.0
H1622 H 0.98738 0.45166 0.13768 0.0
H1623 H 0.21709 0.68766 0.06188 0.0
H1624 H 0.22117 0.69383 1.00312 0.0
H1625 H 0.02212 0.50025 0.1753 0.0
H1626 H 0.20483 0.67334 0.94354 0.0
N1627 N 0.15618 0.60787 0.02996 0.0
C1628 C 0.16577 0.61804 0.06322 0.0
C1629 C 0.20011 0.66533 0.05265 0.0
C1630 C 0.19096 0.65445 0.01862 0.0
C1631 C 0.1874 0.64707 0.07501 0.0
C1632 C 0.1685 0.62539 1.00782 0.0
H1633 H 0.1721 0.63111 0.89796 0.0
N1634 N 0.13664 0.58682 0.96427 0.0
C1635 C 0.1403 0.5899 0.90709 0.0
C1636 C 0.15867 0.61439 0.97413 0.0
C1637 C 0.12786 0.57387 0.93127 0.0
C1638 C 0.16232 0.61888 0.91678 0.0
C1639 C 0.17186 0.63142 0.95057 0.0
O1640 O 0.13951 0.52465 0.96978 0.0
O1641 O 0.08531 0.52025 0.02207 0.0
O1642 O 0.08813 0.53085 0.07839 0.0
O1643 O 0.13108 0.55057 0.05759 0.0
O1644 O 0.09494 0.50725 0.97495 0.0
O1645 O 0.16404 0.54693 0.01889 0.0
O1646 O 0.04266 0.59692 0.07394 0.0
O1647 O 0.09458 0.59078 0.03327 0.0
O1648 O 0.09002 0.57832 0.97758 0.0
O1649 O 0.05176 0.54383 0.99366 0.0
O1650 O 0.08756 0.60047 0.08231 0.0
O1651 O 1.0195 0.56804 0.02739 0.0
C1652 C 0.07955 0.49576 0.99671 0.0
C1653 C 0.18626 0.51092 0.97941 0.0
C1654 C 0.22502 0.48249 0.99088 0.0
C1655 C 0.20343 0.49909 1.00209 0.0
C1656 C 0.22957 0.47844 0.95722 0.0
C1657 C 0.19121 0.50647 0.94588 0.0
C1658 C 0.21284 0.49046 0.93495 0.0
C1659 C 0.11667 0.53596 0.07888 0.0
C1660 C 0.16293 0.52763 0.98988 0.0
C1661 C 0.19443 0.66003 0.96131 0.0
C1662 C 0.20379 0.67164 0.99523 0.0
C1663 C 0.10165 0.61309 0.06024 0.0
C1664 C 0.99306 0.59739 0.0651 0.0
C1665 C 0.97513 0.61512 0.04999 0.0
C1666 C 0.95074 0.6226 0.06472 0.0
C1667 C 0.94446 0.61218 0.09443 0.0
C1668 C 0.986 0.58673 0.09453 0.0
C1669 C 0.96191 0.59424 0.10912 0.0
C1670 C 0.06256 0.56364 0.9742 0.0
C1671 C 0.02045 0.593 0.05194 0.0
H1672 H 0.1996 0.50196 0.02791 0.0
H1673 H 0.24623 0.46596 0.94818 0.0
H1674 H 0.17842 0.51558 0.92812 0.0
H1675 H 0.21662 0.48728 0.90909 0.0
H1676 H 0.98037 0.62351 0.02729 0.0
H1677 H 0.92587 0.6178 0.10617 0.0
H1678 H 0.99948 0.57323 0.10665 0.0
H1679 H 0.95685 0.58633 0.13204 0.0
C1680 C 0.06172 0.17488 0.96282 0.0
C1681 C 0.05259 0.19804 0.98732 0.0
C1682 C 0.06953 0.14479 0.96933 0.0
C1683 C 0.0697 0.13557 1.00105 0.0
H1684 H 0.06227 0.17959 0.93785 0.0
H1685 H 0.07541 0.12819 0.94878 0.0
S1686 S 0.04954 0.18747 0.07534 0.0
N1687 N 0.04534 0.20893 0.0459 0.0
N1688 N 0.0606 0.15395 0.05773 0.0
C1689 C 0.06156 0.15891 0.02613 0.0
C1690 C 0.05298 0.18933 0.01941 0.0
C1691 C 0.24978 0.83718 0.16451 0.0
C1692 C 0.22106 0.83801 0.17137 0.0
C1693 C 0.27168 0.83423 0.18881 0.0
C1694 C 0.26668 0.83176 0.22192 0.0
H1695 H 0.2555 0.83846 0.13975 0.0
H1696 H 0.29295 0.83361 0.18122 0.0
S1697 S 0.19468 0.82985 0.25296 0.0
N1698 N 0.18891 0.83495 0.21438 0.0
N1699 N 0.22908 0.82811 0.25881 0.0
C1700 C 0.23792 0.83221 0.22904 0.0
C1701 C 0.2156 0.83562 0.20432 0.0
C1702 C 0.55141 0.90762 0.45852 0.0
C1703 C 0.54914 0.88405 0.47985 0.0
C1704 C 0.55945 0.9431 0.4705 0.0
C1705 C 0.5655 0.95769 0.50474 0.0
H1706 H 0.54792 0.89857 0.43185 0.0
H1707 H 0.5624 0.95927 0.45256 0.0
S1708 S 0.56187 0.90873 0.5721 0.0
N1709 N 0.55266 0.87934 0.53786 0.0
N1710 N 0.56819 0.94509 0.55995 0.0
C1711 C 0.5626 0.93464 0.52645 0.0
C1712 C 0.55418 0.89839 0.51427 0.0
C1713 C 0.53346 0.31149 0.65186 0.0
C1714 C 0.56159 0.31745 0.6688 0.0
C1715 C 0.50865 0.30159 0.66765 0.0
C1716 C 0.51125 0.29756 0.70088 0.0
H1717 H 0.53061 0.31321 0.62594 0.0
H1718 H 0.48747 0.29544 0.65336 0.0
S1719 S 0.5792 0.31375 0.75743 0.0
N1720 N 0.58994 0.32145 0.72188 0.0
N1721 N 0.5435 0.30287 0.75086 0.0
C1722 C 0.53897 0.30539 0.71852 0.0
C1723 C 0.56408 0.31535 0.70268 0.0
C1724 C 0.02727 0.8268 0.59245 0.0
C1725 C 0.03532 0.8362 0.62701 0.0
C1726 C 0.04084 0.84551 0.5708 0.0
C1727 C 0.0628 0.87433 0.58302 0.0
H1728 H 1.01148 0.80371 0.58187 0.0
H1729 H 0.03538 0.83627 0.54425 0.0
S1730 S 0.08962 0.91163 0.67133 0.0
N1731 N 0.0647 0.87779 0.67263 0.0
N1732 N 0.09043 0.91315 0.63157 0.0
C1733 C 0.06955 0.88549 0.61753 0.0
C1734 C 0.05563 0.86639 0.63971 0.0
C1735 C 0.55076 0.8594 0.87473 0.0
C1736 C 0.57939 0.87557 0.87243 0.0
C1737 C 0.52828 0.85787 0.84977 0.0
C1738 C 0.5337 0.87342 0.82238 0.0
H1739 H 0.54602 0.84639 0.89491 0.0
H1740 H 0.50691 0.84323 0.85125 0.0
S1741 S 0.60444 0.92333 0.80823 0.0
N1742 N 0.61167 0.90875 0.84185 0.0
N1743 N 0.56922 0.90974 0.79765 0.0
C1744 C 0.56192 0.89197 0.82162 0.0
C1745 C 0.58482 0.89201 0.8459 0.0
C1746 C 0.51897 0.15209 0.12847 0.0
C1747 C 0.5195 0.18087 0.11465 0.0
C1748 C 0.53429 0.12771 0.11565 0.0
C1749 C 0.55207 0.13269 0.09025 0.0
H1750 H 0.50595 0.14789 0.14843 0.0
H1751 H 0.53174 0.10469 0.12507 0.0
S1752 S 0.56549 0.20581 0.0497 0.0
N1753 N 0.53875 0.21068 0.07195 0.0
N1754 N 0.57465 0.17174 0.05792 0.0
C1755 C 0.55521 0.1628 0.07913 0.0
C1756 C 0.53692 0.18499 0.08848 0.0
C1757 C 0.25517 0.35608 0.35881 0.0
C1758 C 0.22629 0.3458 0.34412 0.0
C1759 C 0.27796 0.35144 0.34026 0.0
C1760 C 0.27292 0.33664 0.30622 0.0
H1761 H 0.26032 0.36797 0.38486 0.0
H1762 H 0.29973 0.35929 0.3529 0.0
S1763 S 0.20143 0.30274 0.25624 0.0
N1764 N 0.19376 0.31771 0.29371 0.0
N1765 N 0.23717 0.31059 0.25863 0.0
C1766 C 0.24429 0.32593 0.29111 0.0
C1767 C 0.22084 0.33002 0.31015 0.0
C1768 C 0.0319 0.10528 0.1819 0.0
C1769 C 1.01172 0.07833 0.19082 0.0
C1770 C 0.04619 0.10225 0.15142 0.0
C1771 C 0.0418 0.072 0.12641 0.0
H1772 H 0.03783 0.12905 0.19942 0.0
H1773 H 0.0613 0.12425 0.14766 0.0
S1774 S 0.99405 0.99215 0.13787 0.0
N1775 N 0.99126 1.01899 0.17164 0.0
N1776 N 1.01526 1.01395 0.11579 0.0
C1777 C 0.02167 0.04509 0.13524 0.0
C1778 C 1.00785 0.04799 0.16651 0.0
C1779 C 0.32009 0.70109 0.45111 0.0
C1780 C 0.30236 0.67394 0.46083 0.0
C1781 C 0.30795 0.72246 0.43454 0.0
C1782 C 0.27766 0.71759 0.42789 0.0
H1783 H 0.34321 0.7076 0.45903 0.0
H1784 H 0.32227 0.74449 0.4296 0.0
S1785 S 0.22253 0.65139 0.45086 0.0
N1786 N 0.25372 0.64308 0.46283 0.0
N1787 N 0.23056 0.68321 0.43194 0.0
C1788 C 0.25996 0.68926 0.43587 0.0
C1789 C 0.27242 0.66731 0.45221 0.0
C1790 C 0.6423 0.05187 0.6665 0.0
C1791 C 0.67168 0.05538 0.66134 0.0
C1792 C 0.62069 0.03751 0.64052 0.0
C1793 C 0.62823 0.02737 0.60889 0.0
H1794 H 0.63591 0.06161 0.6904 0.0
H1795 H 0.59872 0.0387 0.64449 0.0
S1796 S 0.70077 1.01862 0.58642 0.0
N1797 N 0.7067 0.03909 0.62543 0.0
N1798 N 0.66531 1.01038 0.57617 0.0
C1799 C 0.65683 0.02423 0.60521 0.0
C1800 C 0.67902 0.03947 0.63152 0.0
C1801 C 0.35468 0.33827 0.93148 0.0
C1802 C 0.36339 0.37287 0.94648 0.0
C1803 C 0.35049 0.32702 0.89617 0.0
C1804 C 0.35481 0.34994 0.87447 0.0
H1805 H 0.34978 0.31989 0.947 0.0
H1806 H 0.34244 0.30049 0.88589 0.0
S1807 S 0.38092 0.44245 0.90063 0.0
N1808 N 0.37892 0.42915 0.93594 0.0
N1809 N 0.37034 0.40848 0.87109 0.0
C1810 C 0.36472 0.38419 0.88937 0.0
C1811 C 0.36928 0.39547 0.92479 0.0
C1812 C 0.03788 0.07713 0.38375 0.0
C1813 C 1.00809 0.07993 0.37955 0.0
C1814 C 0.05293 0.07283 0.41465 0.0
C1815 C 0.03958 0.07013 0.44448 0.0
H1816 H 0.05033 0.07932 0.36298 0.0
H1817 H 0.07582 0.07304 0.4154 0.0
S1818 S 0.96181 0.07385 0.44852 0.0
N1819 N 0.96634 0.07804 0.41003 0.0
N1820 N 0.99333 0.07027 0.4656 0.0
C1821 C 1.00975 0.07212 0.44012 0.0
C1822 C 0.99458 0.07664 0.40896 0.0
C1823 C 0.33276 0.71363 0.64856 0.0
C1824 C 0.30461 0.70291 0.63252 0.0
C1825 C 0.33878 0.73845 0.67697 0.0
C1826 C 0.31671 0.75289 0.69038 0.0
H1827 H 0.35068 0.70533 0.63738 0.0
H1828 H 0.36115 0.74664 0.68797 0.0
S1829 S 0.2379 0.72492 0.66221 0.0
N1830 N 0.25343 0.70221 0.63479 0.0
N1831 N 0.26464 0.74935 0.68926 0.0
C1832 C 0.2878 0.73924 0.67669 0.0
C1833 C 0.28174 0.71384 0.64751 0.0
C1834 C 0.66238 0.05533 0.81767 0.0
C1835 C 0.69282 0.06233 0.81972 0.0
C1836 C 0.64846 0.07012 0.84313 0.0
C1837 C 0.66465 0.09254 0.87107 0.0
H1838 H 0.64928 0.04013 0.79532 0.0
H1839 H 0.62504 0.06604 0.83979 0.0
S1840 S 0.74438 0.11398 0.88984 0.0
N1841 N 0.7384 0.08881 0.85318 0.0
N1842 N 0.71233 0.11771 0.90116 0.0
C1843 C 0.69493 0.09739 0.87456 0.0
C1844 C 0.70903 0.0818 0.84884 0.0
C1845 C 0.34664 0.32512 0.13081 0.0
C1846 C 0.34984 0.35831 0.12544 0.0
C1847 C 0.33953 0.3164 0.16132 0.0
C1848 C 0.33536 0.34034 0.18852 0.0
H1849 H 0.35011 0.30551 0.11132 0.0
H1850 H 0.33882 0.29084 0.16404 0.0
S1851 S 0.34022 0.43071 0.18814 0.0
N1852 N 0.34716 0.41518 0.15047 0.0
N1853 N 0.33445 0.39892 0.20761 0.0
C1854 C 0.33798 0.37353 0.18348 0.0
C1855 C 0.34488 0.38241 0.15213 0.0
C1856 C 0.30643 1.01982 0.06214 0.0
C1857 C 0.30813 1.01783 0.02808 0.0
C1858 C 0.2876 0.03726 0.07823 0.0
C1859 C 0.26984 0.05311 0.06065 0.0
H1860 H 0.31996 1.00805 0.07648 0.0
H1861 H 0.28705 0.0385 0.10468 0.0
S1862 S 0.26503 0.05221 0.97005 0.0
N1863 N 0.2897 0.03048 0.97651 0.0
N1864 N 0.25411 0.06391 1.00666 0.0
C1865 C 0.27058 0.04997 0.02608 0.0
C1866 C 0.28989 0.03217 1.00978 0.0
C1867 C 0.69939 0.67593 0.01809 0.0
C1868 C 0.72361 0.66548 1.00563 0.0
C1869 C 0.67342 0.65306 0.01963 0.0
C1870 C 0.66946 0.61797 1.00841 0.0
H1871 H 0.70059 0.70232 0.02765 0.0
H1872 H 0.65636 0.66347 0.03035 0.0
S1873 S 0.72568 0.5768 0.97179 0.0
N1874 N 0.74175 0.61712 0.98096 0.0
N1875 N 0.69277 0.57423 0.98316 0.0
C1876 C 0.69338 0.607 0.9952 0.0
C1877 C 0.72031 0.63055 0.99404 0.0
C1878 C 0.77226 0.42755 0.25701 0.0
C1879 C 0.75724 0.4429 0.28296 0.0
C1880 C 0.78861 0.40101 0.25968 0.0
C1881 C 0.79257 0.38714 0.28902 0.0
H1882 H 0.77112 0.43582 0.23359 0.0
H1883 H 0.79816 0.39122 0.23802 0.0
S1884 S 0.7623 0.42038 0.36666 0.0
N1885 N 0.75084 0.44184 0.34036 0.0
N1886 N 0.78068 0.39556 0.34579 0.0
C1887 C 0.77861 0.40344 0.31524 0.0
C1888 C 0.76167 0.42971 0.31227 0.0
C1889 C 0.97562 0.468 0.48479 0.0
C1890 C 0.95407 0.48135 0.50058 0.0
C1891 C 1.00509 0.4825 0.4948 0.0
C1892 C 1.01396 0.51167 0.51965 0.0
H1893 H 0.96974 0.4451 0.46599 0.0
H1894 H 0.02092 0.4692 0.48495 0.0
S1895 S 0.9663 0.55124 0.57386 0.0
N1896 N 0.94382 0.52271 0.54531 0.0
N1897 N 0.99901 0.54902 0.56408 0.0
C1898 C 0.99262 0.52456 0.53615 0.0
C1899 C 0.96271 0.50996 0.52622 0.0
C1900 C 0.36985 0.09902 0.31289 0.0
C1901 C 0.39939 0.1146 0.3217 0.0
C1902 C 0.35375 0.10779 0.28773 0.0
C1903 C 0.36651 0.1333 0.27207 0.0
H1904 H 0.36004 0.07741 0.32275 0.0
H1905 H 0.33173 0.09365 0.27946 0.0
S1906 S 0.43982 0.18859 0.29348 0.0
N1907 N 0.43879 0.16113 0.31804 0.0
N1908 N 0.40759 0.17897 0.27149 0.0
C1909 C 0.39444 0.15247 0.28412 0.0
C1910 C 0.41111 0.14304 0.30928 0.0
C1911 C 0.37398 0.13675 0.54667 0.0
C1912 C 0.3806 0.16632 0.53397 0.0
C1913 C 0.39567 0.12153 0.55728 0.0
C1914 C 0.42506 0.13499 0.55557 0.0
H1915 H 0.3518 0.12557 0.5494 0.0
H1916 H 0.38936 0.09926 0.5676 0.0
S1917 S 0.45404 0.20962 0.52039 0.0
N1918 N 0.41866 0.20687 0.51733 0.0
N1919 N 0.4597 0.17814 0.53756 0.0
C1920 C 0.43209 0.16354 0.54125 0.0
C1921 C 0.40982 0.17929 0.5305 0.0
C1922 C 0.74546 0.67149 0.30755 0.0
C1923 C 0.75305 0.63977 0.29892 0.0
C1924 C 0.76432 0.70296 0.30678 0.0
C1925 C 0.7928 0.706 0.29744 0.0
H1926 H 0.72412 0.67228 0.31482 0.0
H1927 H 0.75609 0.72543 0.3135 0.0
S1928 S 0.82469 0.63164 0.27133 0.0
N1929 N 0.79227 0.6145 0.28011 0.0
N1930 N 0.82713 0.67264 0.27848 0.0
C1931 C 0.80101 0.6746 0.28889 0.0
C1932 C 0.78158 0.64219 0.28967 0.0
C1933 C 0.92879 0.42247 0.81941 0.0
C1934 C 0.92101 0.45357 0.82633 0.0
C1935 C 0.90794 0.39336 0.80551 0.0
C1936 C 0.8789 0.3947 0.79777 0.0
H1937 H 0.95104 0.42061 0.82468 0.0
H1938 H 0.91454 0.36962 0.80088 0.0
S1939 S 0.84714 0.46924 0.81044 0.0
N1940 N 0.88174 0.48355 0.82478 0.0
N1941 N 0.84317 0.42851 0.79686 0.0
C1942 C 0.87076 0.42529 0.80403 0.0
C1943 C 0.89168 0.45485 0.81904 0.0
C1944 C 0.11356 0.94025 0.10844 0.0
C1945 C 0.12759 0.91801 0.08867 0.0
C1946 C 0.1062 0.96909 0.09852 0.0
C1947 C 0.11147 0.97831 0.06754 0.0
H1948 H 0.10827 0.9356 0.13253 0.0
H1949 H 0.09625 0.98483 0.11595 0.0
S1950 S 0.1505 0.93176 1.00661 0.0
N1951 N 0.1482 0.90964 0.03631 0.0
N1952 N 0.13417 0.9629 0.01791 0.0
C1953 C 0.12568 0.95658 0.04728 0.0
C1954 C 0.13356 0.927 0.0576 0.0
C1955 C 0.92771 0.2788 0.90577 0.0
C1956 C 0.95685 0.28374 0.89852 0.0
C1957 C 0.90446 0.28171 0.88316 0.0
C1958 C 0.90859 0.29004 0.85166 0.0
H1959 H 0.92269 0.27281 0.92949 0.0
H1960 H 0.88288 0.27767 0.89078 0.0
S1961 S 0.98089 0.30895 0.82105 0.0
N1962 N 0.98824 0.29877 0.85719 0.0
N1963 N 0.94551 0.30577 0.81618 0.0
C1964 C 0.93771 0.29549 0.84427 0.0
C1965 C 0.96137 0.29198 0.86711 0.0
C1966 C 0.61587 0.20407 0.5503 0.0
C1967 C 0.62717 0.22482 0.58186 0.0
C1968 C 0.60986 0.16814 0.54475 0.0
C1969 C 0.6154 0.1507 0.57027 0.0
H1970 H 0.6111 0.21572 0.52967 0.0
H1971 H 0.60028 0.15394 0.52033 0.0
S1972 S 0.64886 0.19252 0.65612 0.0
N1973 N 0.64596 0.22429 0.63804 0.0
N1974 N 0.63521 0.15803 0.62782 0.0
C1975 C 0.62759 0.17125 0.60153 0.0
C1976 C 0.63338 0.20768 0.60722 0.0
C1977 C 0.61335 0.78833 0.36578 0.0
C1978 C 0.616 0.78975 0.40031 0.0
C1979 C 0.63771 0.79666 0.3492 0.0
C1980 C 0.6659 0.80639 0.36622 0.0
H1981 H 0.59215 0.78285 0.35164 0.0
H1982 H 0.63432 0.79754 0.32309 0.0
S1983 S 0.6852 0.80537 0.45494 0.0
N1984 N 0.64939 0.79576 0.44988 0.0
N1985 N 0.69538 0.81086 0.41842 0.0
C1986 C 0.66916 0.80435 0.40001 0.0
C1987 C 0.64417 0.79628 0.41713 0.0
C1988 C 0.12173 0.26085 0.4266 0.0
C1989 C 0.15039 0.27676 0.43994 0.0
C1990 C 0.10371 0.24119 0.44442 0.0
C1991 C 0.114 0.23642 0.47571 0.0
H1992 H 0.11204 0.26714 0.40458 0.0
H1993 H 0.08103 0.23185 0.43487 0.0
S1994 S 0.18915 0.26694 0.51771 0.0
N1995 N 0.18961 0.28191 0.48319 0.0
N1996 N 0.15576 0.24506 0.51691 0.0
C1997 C 0.14354 0.24883 0.4873 0.0
C1998 C 0.16185 0.26869 0.46908 0.0
C1999 C 0.61195 0.23119 0.18938 0.0
C2000 C 0.60277 0.26168 0.193 0.0
C2001 C 0.63417 0.22705 0.21173 0.0
C2002 C 0.6482 0.25347 0.23792 0.0
H2003 H 0.60118 0.21007 0.16988 0.0
H2004 H 0.64018 0.20297 0.2088 0.0
S2005 S 0.63414 0.33907 0.25594 0.0
N2006 N 0.61037 0.31908 0.22352 0.0
N2007 N 0.65281 0.31166 0.26486 0.0
C2008 C 0.64003 0.28442 0.24091 0.0
C2009 C 0.61708 0.28843 0.2186 0.0
C2010 C 0.66686 0.95684 0.97599 0.0
C2011 C 0.66481 0.95026 0.94119 0.0
C2012 C 0.65131 0.97818 0.99299 0.0
C2013 C 0.6324 0.99316 0.97605 0.0
H2014 H 0.67973 0.9443 0.99023 0.0
H2015 H 0.65419 0.98261 0.01958 0.0
S2016 S 0.62391 0.98906 0.88474 0.0
N2017 N 0.6465 0.96462 0.89032 0.0
N2018 N 0.61586 1.0035 0.92207 0.0
C2019 C 0.63191 0.98878 0.94116 0.0
C2020 C 0.64849 0.96766 0.92383 0.0
C2021 C 0.94431 0.77234 0.74941 0.0
C2022 C 0.95064 0.77889 0.718 0.0
C2023 C 0.91924 0.77981 0.76275 0.0
C2024 C 0.90021 0.79427 0.7451 0.0
H2025 H 0.95793 0.76001 0.76289 0.0
H2026 H 0.91373 0.77219 0.7857 0.0
S2027 S 0.90976 0.82118 0.66489 0.0
N2028 N 0.93789 0.80503 0.67232 0.0
N2029 N 0.89089 0.81728 0.6965 0.0
C2030 C 0.90752 0.80268 0.71495 0.0
C2031 C 0.93276 0.79555 0.70166 0.0
C2032 C 0.14777 0.04852 0.88087 0.0
C2033 C 0.17236 0.03341 0.87756 0.0
C2034 C 0.13225 0.05146 0.9103 0.0
C2035 C 0.13955 0.03967 0.93984 0.0
H2036 H 0.14029 0.05869 0.86025 0.0
H2037 H 0.11421 0.06372 0.90989 0.0
S2038 S 0.19832 0.99252 0.94429 0.0
N2039 N 0.20033 1.00299 0.90753 0.0
N2040 N 0.17235 1.00862 0.96085 0.0
C2041 C 0.16347 1.02365 0.93655 0.0
C2042 C 0.17923 1.02054 0.90654 0.0
C2043 C 0.87354 0.43092 0.6091 0.0
C2044 C 0.87478 0.41704 0.57566 0.0
C2045 C 0.88705 0.41919 0.63467 0.0
C2046 C 0.9027 0.39398 0.62732 0.0
H2047 H 0.86159 0.45033 0.61543 0.0
H2048 H 0.88532 0.42983 0.66028 0.0
S2049 S 0.91409 0.35112 0.54392 0.0
N2050 N 0.89394 0.37761 0.53671 0.0
N2051 N 0.91954 0.35629 0.58476 0.0
C2052 C 0.90477 0.38064 0.59409 0.0
C2053 C 0.89075 0.39203 0.56821 0.0
C2054 C 0.50416 0.03453 0.4107 0.0
C2055 C 0.4894 0.06076 0.41456 0.0
C2056 C 0.53086 0.03817 0.42883 0.0
C2057 C 0.54259 0.0675 0.45252 0.0
H2058 H 0.4958 1.01183 0.39217 0.0
H2059 H 0.54162 1.01736 0.4254 0.0
S2060 S 0.51283 0.14399 0.4703 0.0
N2061 N 0.48865 0.11732 0.4418 0.0
N2062 N 0.53854 0.12397 0.47776 0.0
C2063 C 0.52792 0.0939 0.45669 0.0
C2064 C 0.50103 0.09031 0.43768 0.0
C2065 C 0.81142 0.78649 0.13739 0.0
C2066 C 0.82228 0.76134 0.11723 0.0
C2067 C 0.81732 0.79402 0.17268 0.0
C2068 C 0.83281 0.77547 0.18989 0.0
H2069 H 0.7981 0.80055 0.12586 0.0
H2070 H 0.8095 0.81438 0.18641 0.0
S2071 S 0.87371 0.71459 0.14866 0.0
N2072 N 0.85546 0.7241 0.11745 0.0
N2073 N 0.86451 0.73579 0.18254 0.0
C2074 C 0.8458 0.75228 0.16968 0.0
C2075 C 0.84083 0.74567 0.13391 0.0
C2076 C 0.15082 0.06334 0.68039 0.0
C2077 C 0.16387 0.03667 0.68803 0.0
C2078 C 0.1366 0.06432 0.6481 0.0
C2079 C 0.13445 0.03946 0.61877 0.0
H2080 H 0.15088 0.08429 0.70035 0.0
H2081 H 0.12645 0.08464 0.64692 0.0
S2082 S 0.15978 0.95997 0.62334 0.0
N2083 N 0.16942 0.98178 0.66169 0.0
N2084 N 0.14478 0.98386 0.60258 0.0
C2085 C 0.14668 1.01189 0.62622 0.0
C2086 C 0.16072 1.01053 0.65951 0.0
C2087 C 0.83279 0.38737 0.41829 0.0
C2088 C 0.85306 0.41794 0.42243 0.0
C2089 C 0.83785 0.35808 0.40008 0.0
C2090 C 0.86197 0.35855 0.38264 0.0
H2091 H 0.81368 0.38561 0.43134 0.0
H2092 H 0.82208 0.33529 0.39873 0.0
S2093 S 0.92451 0.43112 0.39071 0.0
N2094 N 0.90076 0.44634 0.41272 0.0
N2095 N 0.90937 0.39112 0.37566 0.0
C2096 C 0.88364 0.38857 0.38852 0.0
C2097 C 0.87893 0.41851 0.40816 0.0
C2098 C 0.51753 0.07187 0.24295 0.0
C2099 C 0.48849 0.06243 0.24914 0.0
C2100 C 0.52635 0.05907 0.21261 0.0
C2101 C 0.50625 0.03688 0.18761 0.0
H2102 H 0.53415 0.08546 0.26304 0.0
H2103 H 0.54938 0.06296 0.21055 0.0
S2104 S 0.42648 1.01623 0.18669 0.0
N2105 N 0.4387 0.03805 0.2246 0.0
N2106 N 0.45539 1.01483 0.16699 0.0
C2107 C 0.47661 0.03304 0.19114 0.0
C2108 C 0.4676 0.04581 0.22218 0.0
C2109 C 0.8193 0.72331 0.90137 0.0
C2110 C 0.82422 0.74365 0.93357 0.0
C2111 C 0.82568 0.73667 0.87275 0.0
C2112 C 0.83762 0.77128 0.87438 0.0
H2113 H 0.81011 0.69665 0.8981 0.0
H2114 H 0.82069 0.71943 0.84893 0.0
S2115 S 0.85717 0.83514 0.95324 0.0
N2116 N 0.84369 0.80004 0.9655 0.0
N2117 N 0.85503 0.82502 0.91236 0.0
C2118 C 0.84321 0.79168 0.90667 0.0
C2119 C 0.8367 0.77801 0.93588 0.0
C2120 C 0.90148 0.11387 0.04912 0.0
C2121 C 0.87286 0.09705 0.051 0.0
C2122 C 0.92094 0.09666 0.03382 0.0
C2123 C 0.91229 0.06218 0.02012 0.0
H2124 H 0.9081 0.14096 0.05671 0.0
H2125 H 0.94192 0.11088 0.03023 0.0
S2126 S 0.84274 1.00525 0.02616 0.0
N2127 N 0.839 0.04292 0.04379 0.0
N2128 N 0.87572 1.01073 0.01475 0.0
C2129 C 0.88518 0.04445 0.02552 0.0
C2130 C 0.86543 0.06186 0.04132 0.0
C2131 C 0.47966 0.44547 0.05663 0.0
C2132 C 0.45251 0.45275 0.04865 0.0
C2133 C 0.50597 0.46874 0.05709 0.0
C2134 C 0.50679 0.50072 0.04956 0.0
H2135 H 0.48072 0.42115 0.06207 0.0
H2136 H 0.52601 0.46121 0.06283 0.0
S2137 S 0.44202 0.53257 0.02618 0.0
N2138 N 0.42828 0.49479 0.03295 0.0
N2139 N 0.47758 0.5382 0.03342 0.0
C2140 C 0.47982 0.50877 0.04219 0.0
C2141 C 0.45284 0.48497 0.04184 0.0
C2142 C 0.39649 0.67113 0.769 0.0
C2143 C 0.42368 0.67412 0.78886 0.0
C2144 C 0.38125 0.69858 0.76772 0.0
C2145 C 0.3898 0.73186 0.78816 0.0
H2146 H 0.38721 0.64723 0.75252 0.0
H2147 H 0.36344 0.69383 0.74845 0.0
S2148 S 0.46079 0.7568 0.84283 0.0
N2149 N 0.45914 0.71672 0.82761 0.0
N2150 N 0.43083 0.76528 0.82685 0.0
C2151 C 0.41721 0.73512 0.80767 0.0
C2152 C 0.43339 0.70769 0.808 0.0
C2153 C 0.20966 0.59604 0.53375 0.0
C2154 C 0.21957 0.63101 0.54339 0.0
C2155 C 0.18037 0.58116 0.53386 0.0
C2156 C 0.16045 0.60081 0.54378 0.0
H2157 H 0.22394 0.5805 0.52364 0.0
H2158 H 0.1728 0.55463 0.52328 0.0
S2159 S 0.17677 0.69236 0.57693 0.0
N2160 N 0.20832 0.6839 0.56898 0.0
N2161 N 0.153 0.65612 0.56619 0.0
C2162 C 0.17068 0.63513 0.5564 0.0
C2163 C 0.20042 0.65019 0.55702 0.0
C2164 C 0.79371 0.99332 0.73801 0.0
C2165 C 0.76494 0.99208 0.74477 0.0
C2166 C 0.81402 0.98692 0.76111 0.0
C2167 C 0.80605 0.98009 0.79169 0.0
H2168 H 0.80101 1.00175 0.71604 0.0
H2169 H 0.83631 0.98921 0.75592 0.0
S2170 S 0.73341 0.97076 0.82024 0.0
N2171 N 0.72911 0.97959 0.78297 0.0
N2172 N 0.76788 0.9696 0.82674 0.0
C2173 C 0.77719 0.97649 0.79778 0.0
C2174 C 0.75635 0.98175 0.77403 0.0
C2175 C 0.78923 0.97357 0.54428 0.0
C2176 C 0.78906 0.93971 0.53129 0.0
C2177 C 0.76882 0.98943 0.53119 0.0
C2178 C 0.74775 0.97199 0.50464 0.0
H2179 H 0.80619 0.98845 0.56338 0.0
H2180 H 0.7705 1.01594 0.54064 0.0
S2181 S 0.73544 0.8824 0.46455 0.0
N2182 N 0.76362 0.88846 0.49274 0.0
N2183 N 0.72583 0.91876 0.46804 0.0
C2184 C 0.74586 0.93769 0.4932 0.0
C2185 C 0.76634 0.92137 0.50666 0.0
C2186 C 0.43682 0.44686 0.78113 0.0
C2187 C 0.42722 0.47712 0.78047 0.0
C2188 C 0.4178 0.41482 0.77875 0.0
C2189 C 0.38714 0.40965 0.77562 0.0
H2190 H 0.45983 0.44765 0.78372 0.0
H2191 H 0.42767 0.39367 0.77972 0.0
S2192 S 0.34897 0.47931 0.77158 0.0
N2193 N 0.38354 0.49859 0.77553 0.0
N2194 N 0.34824 0.43929 0.77133 0.0
C2195 C 0.3769 0.43952 0.77447 0.0
C2196 C 0.39653 0.47256 0.77682 0.0
C2197 C 0.24756 0.69932 0.27556 0.0
C2198 C 0.25609 0.66869 0.27275 0.0
C2199 C 0.26812 0.72943 0.28274 0.0
C2200 C 0.29774 0.72983 0.28788 0.0
H2201 H 0.22486 0.70012 0.27256 0.0
H2202 H 0.26068 0.75256 0.28469 0.0
S2203 S 0.33204 0.65712 0.27787 0.0
N2204 N 0.29682 0.64062 0.27128 0.0
N2205 N 0.33533 0.69823 0.28604 0.0
C2206 C 0.30694 0.69977 0.28332 0.0
C2207 C 0.28607 0.66884 0.27532 0.0
C2208 C 0.52889 0.6647 0.48044 0.0
C2209 C 0.54712 0.69736 0.48567 0.0
C2210 C 0.53886 0.63611 0.48827 0.0
C2211 C 0.56741 0.63795 0.50348 0.0
H2212 H 0.50672 0.66087 0.46939 0.0
H2213 H 0.52381 0.61193 0.48186 0.0
S2214 S 0.62259 0.71916 0.52651 0.0
N2215 N 0.59471 0.72989 0.50862 0.0
N2216 N 0.61226 0.67852 0.52564 0.0
C2217 C 0.58502 0.67121 0.51029 0.0
C2218 C 0.57525 0.69992 0.50103 0.0
C2219 C 0.75054 0.34089 0.66467 0.0
C2220 C 0.72121 0.33687 0.67095 0.0
C2221 C 0.77303 0.33808 0.68828 0.0
C2222 C 0.76804 0.33068 0.71996 0.0
H2223 H 0.75632 0.34607 0.64091 0.0
H2224 H 0.7948 0.34145 0.68123 0.0
S2225 S 0.69467 0.3143 0.74847 0.0
N2226 N 0.68848 0.32356 0.71162 0.0
N2227 N 0.72993 0.31692 0.7547 0.0
C2228 C 0.73866 0.32612 0.72649 0.0
C2229 C 0.7157 0.32951 0.70253 0.0
C2230 C 0.0393 0.40219 0.99404 0.0
C2231 C 0.0583 0.38297 0.97966 0.0
C2232 C 0.04684 0.4382 1.00217 0.0
C2233 C 0.07355 0.45744 0.9961 0.0
H2234 H 1.01783 0.38943 0.99769 0.0
H2235 H 0.03098 0.45076 1.01203 0.0
S2236 S 0.13324 0.41932 0.96419 0.0
N2237 N 0.10672 0.38644 0.96359 0.0
N2238 N 0.12052 0.45262 0.97854 0.0
C2239 C 0.09334 0.43811 0.9838 0.0
C2240 C 0.08581 0.40164 0.97564 0.0
C2241 C 0.03302 0.80748 0.14624 0.0
C2242 C 0.06051 0.82169 0.16442 0.0
C2243 C 1.00848 0.79761 0.16253 0.0
C2244 C 1.01067 0.8022 0.19743 0.0
H2245 H 0.03075 0.80215 0.11932 0.0
H2246 H 0.98815 0.7846 0.14773 0.0
S2247 S 0.07626 0.84319 0.25653 0.0
N2248 N 0.08731 0.8435 0.21951 0.0
N2249 N 0.04141 0.82511 0.24954 0.0
C2250 C 0.03739 0.81875 0.21576 0.0
C2251 C 0.06226 0.82849 0.19941 0.0
C2252 C 0.54993 0.36399 0.13522 0.0
C2253 C 0.53298 0.33153 0.1224 0.0
C2254 C 0.56623 0.38217 0.11452 0.0
C2255 C 0.5663 0.36805 0.08073 0.0
H2256 H 0.55175 0.37465 0.16151 0.0
H2257 H 0.57992 0.40662 0.12529 0.0
S2258 S 0.52281 0.2862 0.03397 0.0
N2259 N 0.51446 0.28824 0.07233 0.0
N2260 N 0.5464 0.3216 0.03477 0.0
C2261 C 0.54826 0.33667 0.06732 0.0
C2262 C 0.53119 0.31865 0.08783 0.0
C2263 C 0.0528 0.37418 0.38175 0.0
C2264 C 0.07472 0.35843 0.37015 0.0
C2265 C 0.03094 0.37906 0.35952 0.0
C2266 C 0.03032 0.36849 0.32497 0.0
H2267 H 0.05314 0.384 0.40804 0.0
H2268 H 1.01486 0.39205 0.36936 0.0
S2269 S 0.07987 0.32122 0.28226 0.0
N2270 N 0.09245 0.32885 0.32202 0.0
N2271 N 0.05139 0.33823 0.28043 0.0
C2272 C 0.05117 0.35118 0.31316 0.0
C2273 C 0.07333 0.34606 0.33571 0.0
C2274 C 0.03447 0.66048 0.63848 0.0
C2275 C 1.01122 0.66982 0.62222 0.0
C2276 C 0.048 0.63639 0.62167 0.0
C2277 C 0.03889 0.62116 0.58799 0.0
H2278 H 0.04427 0.67436 0.66296 0.0
H2279 H 0.06698 0.63156 0.63451 0.0
S2280 S 0.97304 0.62998 0.53849 0.0
N2281 N 0.97548 0.65688 0.5739 0.0
N2282 N 1.00077 0.61197 0.54196 0.0
C2283 C 1.01337 0.62746 0.57308 0.0
C2284 C 0.99939 0.65143 0.59046 0.0
C2285 C 0.75175 0.84147 0.86005 0.0
C2286 C 0.72635 0.84774 0.84526 0.0
C2287 C 0.77469 0.83708 0.84161 0.0
C2288 C 0.77273 0.83769 0.80748 0.0
H2289 H 0.75405 0.8402 0.88613 0.0
H2290 H 0.79423 0.83332 0.85429 0.0
S2291 S 0.71312 0.8589 0.75842 0.0
N2292 N 0.70202 0.85853 0.79545 0.0
N2293 N 0.74517 0.84915 0.76063 0.0
C2294 C 0.74803 0.84519 0.79264 0.0
C2295 C 0.72468 0.85012 0.8115 0.0
C2296 C 0.51812 0.60197 0.67217 0.0
C2297 C 0.51349 0.57588 0.69114 0.0
C2298 C 0.53227 0.59968 0.64142 0.0
C2299 C 0.54364 0.5714 0.62675 0.0
H2300 H 0.51157 0.62506 0.68154 0.0
H2301 H 0.5347 0.62092 0.62923 0.0
S2302 S 0.53866 0.49616 0.66562 0.0
N2303 N 0.52202 0.52007 0.6902 0.0
N2304 N 0.54918 0.51741 0.6369 0.0
C2305 C 0.5392 0.54568 0.64573 0.0
C2306 C 0.52435 0.54754 0.67611 0.0
C2307 C 0.78078 0.16623 0.95148 0.0
C2308 C 0.81004 0.17351 0.96404 0.0
C2309 C 0.7691 0.18907 0.93665 0.0
C2310 C 0.78631 0.22019 0.93437 0.0
H2311 H 0.76619 0.14439 0.95641 0.0
H2312 H 0.74606 0.18313 0.92856 0.0
S2313 S 0.86368 0.25298 0.9677 0.0
N2314 N 0.85577 0.21462 0.97523 0.0
N2315 N 0.83382 0.2581 0.94797 0.0
C2316 C 0.81587 0.22767 0.94646 0.0
C2317 C 0.82776 0.20414 0.96111 0.0
C2318 C 0.1388 0.52458 0.16339 0.0
C2319 C 0.16896 0.53723 0.16598 0.0
C2320 C 0.12163 0.52015 0.13349 0.0
C2321 C 0.13435 0.52813 0.10566 0.0
H2322 H 0.12808 0.52099 0.18521 0.0
H2323 H 0.09834 0.51335 0.1331 0.0
S2324 S 0.21338 0.54983 0.09755 0.0
N2325 N 0.2115 0.54951 0.13728 0.0
N2326 N 0.17948 0.53905 0.08019 0.0
C2327 C 0.16492 0.53462 0.10674 0.0
C2328 C 0.18232 0.5398 0.13735 0.0
C2329 C 0.88194 0.8798 0.42796 0.0
C2330 C 0.86193 0.86606 0.44801 0.0
C2331 C 0.87824 0.86892 0.39309 0.0
C2332 C 0.85511 0.84285 0.37626 0.0
H2333 H 0.89988 0.9005 0.43916 0.0
H2334 H 0.89277 0.88264 0.37907 0.0
S2335 S 0.79313 0.80341 0.41624 0.0
N2336 N 0.81549 0.82827 0.44775 0.0
N2337 N 0.8094 0.80704 0.38257 0.0
C2338 C 0.83455 0.82923 0.396 0.0
C2339 C 0.83788 0.84083 0.43165 0.0
C2340 C 0.49847 0.58909 0.91231 0.0
C2341 C 0.50792 0.58142 0.88026 0.0
C2342 C 0.51354 0.58543 0.94313 0.0
C2343 C 0.53973 0.57315 0.9461 0.0
H2344 H 0.47915 0.59905 0.91398 0.0
H2345 H 0.50438 0.5933 0.96574 0.0
S2346 S 0.57498 0.5478 0.87028 0.0
N2347 N 0.54634 0.55924 0.8546 0.0
N2348 N 0.57403 0.55345 0.91093 0.0
C2349 C 0.54937 0.56479 0.9141 0.0
C2350 C 0.5339 0.56855 0.88235 0.0
C2351 C 0.83186 0.24216 0.13432 0.0
C2352 C 0.81214 0.21123 0.12869 0.0
C2353 C 0.83216 0.26617 0.16231 0.0
C2354 C 0.81388 0.25952 0.18653 0.0
H2355 H 0.84603 0.24857 0.11587 0.0
H2356 H 0.84701 0.29 0.16484 0.0
S2357 S 0.75566 0.18282 0.18056 0.0
N2358 N 0.77168 0.17551 0.14662 0.0
N2359 N 0.77286 0.22053 0.20101 0.0
C2360 C 0.79303 0.22881 0.18044 0.0
C2361 C 0.79241 0.2044 0.15131 0.0
C2362 C 0.20895 0.57276 0.35714 0.0
C2363 C 0.19429 0.56165 0.32505 0.0
C2364 C 0.19484 0.58645 0.38307 0.0
C2365 C 0.16628 0.59035 0.37728 0.0
H2366 H 0.23172 0.5728 0.36184 0.0
H2367 H 0.20674 0.59483 0.40734 0.0
S2368 S 0.11634 0.55737 0.29964 0.0
N2369 N 0.14727 0.54772 0.29073 0.0
N2370 N 0.12231 0.57694 0.33896 0.0
C2371 C 0.15047 0.57581 0.34634 0.0
C2372 C 0.16419 0.56051 0.32031 0.0
C2373 C 0.84273 0.88186 0.65159 0.0
C2374 C 0.84696 0.85797 0.62424 0.0
C2375 C 0.83501 0.87264 0.68202 0.0
C2376 C 0.83038 0.83898 0.68646 0.0
H2377 H 0.84654 0.90811 0.65002 0.0
H2378 H 0.83332 0.89226 0.70256 0.0
S2379 S 0.83815 0.76657 0.62242 0.0
N2380 N 0.84484 0.79878 0.60377 0.0
N2381 N 0.83117 0.78214 0.65992 0.0
C2382 C 0.83348 0.81494 0.65872 0.0
C2383 C 0.84158 0.82423 0.6281 0.0
C2384 C 0.7813 0.51293 0.52749 0.0
C2385 C 0.81142 0.52541 0.53512 0.0
C2386 C 0.76183 0.52866 0.54455 0.0
C2387 C 0.77186 0.55745 0.56974 0.0
H2388 H 0.77265 0.49012 0.50908 0.0
H2389 H 0.73889 0.51725 0.53905 0.0
S2390 S 0.8484 0.60247 0.59601 0.0
N2391 N 0.85026 0.56966 0.56757 0.0
N2392 N 0.81352 0.6 0.59857 0.0
C2393 C 0.80179 0.5714 0.57592 0.0
C2394 C 0.82164 0.55524 0.5588 0.0
C2395 C 0.22152 0.13472 0.51873 0.0
C2396 C 0.22174 0.16201 0.50246 0.0
C2397 C 0.19546 0.11128 0.52033 0.0
C2398 C 0.16836 0.11399 0.50572 0.0
H2399 H 0.24147 0.13221 0.5316 0.0
H2400 H 0.1964 0.09184 0.53446 0.0
S2401 S 0.15775 0.17557 0.45359 0.0
N2402 N 0.19269 0.18669 0.4671 0.0
N2403 N 0.14438 0.14315 0.4701 0.0
C2404 C 0.16865 0.13972 0.48756 0.0
C2405 C 0.19504 0.16349 0.48593 0.0
C2406 C 0.25717 0.91548 0.75675 0.0
C2407 C 0.25879 0.9443 0.78286 0.0
C2408 C 0.27455 0.88989 0.75765 0.0
C2409 C 0.29593 0.8898 0.78456 0.0
H2410 H 0.2418 0.91214 0.73498 0.0
H2411 H 0.27005 0.86867 0.73696 0.0
S2412 S 0.30704 0.95624 0.86217 0.0
N2413 N 0.284 0.96879 0.83785 0.0
N2414 N 0.313 0.92113 0.84067 0.0
C2415 C 0.29662 0.91777 0.8113 0.0
C2416 C 0.2797 0.94441 0.81001 0.0
C2417 C 0.47757 0.96836 0.9901 0.0
C2418 C 0.45521 0.98573 0.9955 0.0
C2419 C 0.50623 0.98348 1.00275 0.0
C2420 C 0.51373 1.01685 0.0199 0.0
H2421 H 0.47278 0.94213 0.97791 0.0
H2422 H 0.52249 0.96856 1.00017 0.0
S2423 S 0.46482 0.07496 0.03797 0.0
N2424 N 0.44339 0.03955 0.01717 0.0
N2425 N 0.49772 0.06766 0.04084 0.0
C2426 C 0.49222 0.03523 0.02419 0.0
C2427 C 0.46288 1.01993 1.01138 0.0
C2428 C 0.89703 0.62596 0.79586 0.0
C2429 C 0.893 0.59211 0.79754 0.0
C2430 C 0.87937 0.63586 0.77288 0.0
C2431 C 0.8569 0.61217 0.75148 0.0
H2432 H 0.91337 0.64488 0.8128 0.0
H2433 H 0.88247 0.66245 0.77283 0.0
S2434 S 0.84215 0.51987 0.74157 0.0
N2435 N 0.86883 0.53421 0.77213 0.0
N2436 N 0.83443 0.55344 0.7301 0.0
C2437 C 0.85423 0.57809 0.75119 0.0
C2438 C 0.87249 0.5679 0.77422 0.0
C2439 C 0.88371 0.63701 0.01904 0.0
C2440 C 0.88552 0.67158 0.03016 0.0
C2441 C 0.90606 0.62179 0.02836 0.0
C2442 C 0.93091 0.64048 0.04942 0.0
H2443 H 0.86453 0.62141 1.00363 0.0
H2444 H 0.90329 0.59489 0.0203 0.0
S2445 S 0.94668 0.73178 0.08492 0.0
N2446 N 0.91483 0.72429 0.06242 0.0
N2447 N 0.95645 0.69539 0.08063 0.0
C2448 C 0.93349 0.67521 0.05988 0.0
C2449 C 0.91091 0.69086 0.05 0.0
C2450 C 0.28211 0.14608 0.80512 0.0
C2451 C 0.25134 0.1392 0.79752 0.0
C2452 C 0.30093 0.17821 0.80421 0.0
C2453 C 0.29044 0.20597 0.79584 0.0
H2454 H 0.29186 0.12667 0.81231 0.0
H2455 H 0.32402 0.1813 0.81045 0.0
S2456 S 0.21208 0.20105 0.77063 0.0
N2457 N 0.21237 0.16361 0.77845 0.0
N2458 N 0.24609 0.222 0.77842 0.0
C2459 C 0.2598 0.19887 0.78777 0.0
C2460 C 0.24096 0.16646 0.78816 0.0
C2461 C 0.43407 0.92702 0.2965 0.0
C2462 C 0.42547 0.95265 0.31738 0.0
C2463 C 0.41458 0.89701 0.28379 0.0
C2464 C 0.3862 0.89109 0.2928 0.0
H2465 H 0.45603 0.93001 0.29001 0.0
H2466 H 0.42275 0.8775 0.26875 0.0
S2467 S 0.34987 0.95553 0.33361 0.0
N2468 N 0.38458 0.97424 0.33826 0.0
N2469 N 0.3475 0.91695 0.31261 0.0
C2470 C 0.37578 0.91829 0.3084 0.0
C2471 C 0.39578 0.94921 0.32178 0.0
C2472 C 0.63572 0.44726 0.60696 0.0
C2473 C 0.62569 0.41434 0.58806 0.0
C2474 C 0.62923 0.47629 0.59683 0.0
C2475 C 0.61191 0.47593 0.56667 0.0
H2476 H 0.64934 0.45093 0.63024 0.0
H2477 H 0.6388 0.50005 0.61344 0.0
S2478 S 0.57772 0.39557 0.50774 0.0
N2479 N 0.59504 0.38288 0.53768 0.0
N2480 N 0.5845 0.43705 0.51787 0.0
C2481 C 0.60122 0.44286 0.54733 0.0
C2482 C 0.60764 0.41268 0.55808 0.0
C2483 C 0.43295 0.75841 0.38376 0.0
C2484 C 0.45609 0.78576 0.39867 0.0
C2485 C 0.40975 0.76209 0.3614 0.0
C2486 C 0.40834 0.79329 0.35278 0.0
H2487 H 0.43247 0.73403 0.38982 0.0
H2488 H 0.39242 0.74035 0.35132 0.0
S2489 S 0.46583 0.8718 0.3818 0.0
N2490 N 0.47674 0.84459 0.4016 0.0
N2491 N 0.43552 0.85094 0.35838 0.0
C2492 C 0.43239 0.82024 0.36631 0.0
C2493 C 0.45549 0.81663 0.38946 0.0
C2494 C 0.11776 0.70837 0.10231 0.0
C2495 C 0.12492 0.72646 0.077 0.0
C2496 C 0.11112 0.67251 0.09638 0.0
C2497 C 0.11038 0.65186 0.06456 0.0
H2498 H 0.1178 0.72207 0.12734 0.0
H2499 H 0.10624 0.66077 0.11734 0.0
S2500 S 0.12363 0.68587 0.98822 0.0
N2501 N 0.12939 0.71992 0.01785 0.0
N2502 N 0.11457 0.65365 1.0066 0.0
C2503 C 0.11623 0.6696 0.03869 0.0
C2504 C 0.12404 0.70624 0.04492 0.0
C2505 C 0.14506 0.30101 0.91463 0.0
C2506 C 0.11698 0.29104 0.8971 0.0
C2507 C 0.16951 0.31144 0.89856 0.0
C2508 C 0.16656 0.31244 0.86454 0.0
H2509 H 0.14804 0.30215 0.94118 0.0
H2510 H 0.19053 0.3206 0.91316 0.0
S2511 S 0.09861 0.28736 0.80694 0.0
N2512 N 0.08833 0.28114 0.84313 0.0
N2513 N 0.13413 0.30118 0.81358 0.0
C2514 C 0.139 0.30101 0.8465 0.0
C2515 C 0.11424 0.29013 0.86259 0.0
C2516 C 0.65759 0.77273 0.97081 0.0
C2517 C 0.6457 0.78072 0.94173 0.0
C2518 C 0.64126 0.74909 0.98637 0.0
C2519 C 0.61251 0.73318 0.9734 0.0
H2520 H 0.67812 0.78776 0.98373 0.0
H2521 H 0.64992 0.74629 1.01056 0.0
S2522 S 0.574 0.74008 0.89426 0.0
N2523 N 0.6057 0.76656 0.89761 0.0
N2524 N 0.57491 0.7223 0.92698 0.0
C2525 C 0.60204 0.73752 0.94205 0.0
C2526 C 0.61878 0.76122 0.92604 0.0
C2527 C 0.12787 0.75275 0.68859 0.0
C2528 C 0.10669 0.76928 0.70125 0.0
C2529 C 0.14925 0.74578 0.70984 0.0
C2530 C 0.15025 0.755 0.74452 0.0
H2531 H 0.12732 0.74388 0.66209 0.0
H2532 H 0.16471 0.73233 0.69905 0.0
S2533 S 0.10289 0.80329 0.79025 0.0
N2534 N 0.09014 0.7979 0.75076 0.0
N2535 N 0.13046 0.78464 0.79062 0.0
C2536 C 0.13021 0.77295 0.75755 0.0
C2537 C 0.10845 0.78019 0.73593 0.0
C2538 C 0.13634 0.43341 0.46816 0.0
C2539 C 0.15593 0.44045 0.44498 0.0
C2540 C 0.1226 0.45746 0.48374 0.0
C2541 C 0.12859 0.49006 0.47783 0.0
H2542 H 0.13085 0.40906 0.47434 0.0
H2543 H 0.10682 0.45026 0.50028 0.0
S2544 S 0.1828 0.52419 0.42559 0.0
N2545 N 0.18335 0.48392 0.4202 0.0
N2546 N 0.15821 0.53011 0.45104 0.0
C2547 C 0.14931 0.49847 0.45634 0.0
C2548 C 0.16295 0.4735 0.43971 0.0
C2549 C 0.42056 0.26054 0.20753 0.0
C2550 C 0.44868 0.26741 0.22441 0.0
C2551 C 0.39658 0.26346 0.2247 0.0
C2552 C 0.3996 0.27359 0.25949 0.0
H2553 H 0.41697 0.25313 0.18068 0.0
H2554 H 0.37557 0.25865 0.2104 0.0
S2555 S 0.46826 0.29569 0.31569 0.0
N2556 N 0.47815 0.28556 0.27823 0.0
N2557 N 0.43265 0.29069 0.31041 0.0
C2558 C 0.42738 0.28033 0.27688 0.0
C2559 C 0.45202 0.27739 0.25936 0.0
C2560 C 0.6851 0.53872 0.40907 0.0
C2561 C 0.67206 0.5351 0.37555 0.0
C2562 C 0.66957 0.5416 0.43863 0.0
C2563 C 0.63902 0.54052 0.43817 0.0
H2564 H 0.70808 0.53957 0.41285 0.0
H2565 H 0.68202 0.54451 0.46251 0.0
S2566 S 0.59317 0.53319 0.35793 0.0
N2567 N 0.62529 0.53189 0.34555 0.0
N2568 N 0.59736 0.53703 0.39871 0.0
C2569 C 0.62585 0.5372 0.4048 0.0
C2570 C 0.64169 0.5346 0.37479 0.0
C2571 C 0.35539 0.9288 0.11141 0.0
C2572 C 0.37698 0.9486 0.09771 0.0
C2573 C 0.36188 0.90293 0.12584 0.0
C2574 C 0.3905 0.89826 0.12917 0.0
H2575 H 0.33279 0.92858 0.1048 0.0
H2576 H 0.34403 0.88484 0.13164 0.0
S2577 S 0.45547 0.95262 0.10787 0.0
N2578 N 0.42833 0.96903 0.09668 0.0
N2579 N 0.44121 0.92099 0.12503 0.0
C2580 C 0.41287 0.92263 0.12185 0.0
C2581 C 0.40602 0.94898 0.1073 0.0
C2582 C 1.01121 0.60269 0.93187 0.0
C2583 C 0.98983 0.57399 0.91714 0.0
C2584 C 0.03706 0.59957 0.94825 0.0
C2585 C 0.04234 0.56765 0.94846 0.0
H2586 H 1.00829 0.62745 0.92971 0.0
H2587 H 0.05251 0.62195 0.96148 0.0
S2588 S 0.99413 0.48508 0.91188 0.0
N2589 N 0.9752 0.51302 0.90554 0.0
N2590 N 0.02593 0.50722 0.93066 0.0
C2591 C 0.02182 0.53898 0.93241 0.0
C2592 C 0.99474 0.54213 0.91866 0.0
C2593 C 0.32009 0.23195 0.63691 0.0
C2594 C 0.31752 0.2574 0.61917 0.0
C2595 C 0.32518 0.23862 0.67199 0.0
C2596 C 0.32836 0.27118 0.69156 0.0
H2597 H 0.31777 0.20636 0.62362 0.0
H2598 H 0.32663 0.21776 0.68398 0.0
S2599 S 0.32662 0.34778 0.65774 0.0
N2600 N 0.31998 0.31729 0.62437 0.0
N2601 N 0.33091 0.32976 0.68983 0.0
C2602 C 0.32675 0.29715 0.67422 0.0
C2603 C 0.32095 0.29027 0.63835 0.0
C2604 C 0.67765 0.53731 0.15743 0.0
C2605 C 0.66133 0.53425 0.18501 0.0
C2606 C 0.66564 0.54193 0.1251 0.0
C2607 C 0.63619 0.54462 0.11665 0.0
H2608 H 0.70045 0.53716 0.16092 0.0
H2609 H 0.68022 0.54393 0.10622 0.0
S2610 S 0.58237 0.537 0.17767 0.0
N2611 N 0.61217 0.5335 0.19891 0.0
N2612 N 0.5911 0.54196 0.14057 0.0
C2613 C 0.6196 0.54116 0.14366 0.0
C2614 C 0.63162 0.53626 0.17645 0.0
C2615 C 0.37897 0.91315 0.90771 0.0
C2616 C 0.36062 0.90391 0.93105 0.0
C2617 C 0.38651 0.88845 0.8845 0.0
C2618 C 0.37319 0.85433 0.88199 0.0
H2619 H 0.38756 0.93936 0.90744 0.0
H2620 H 0.40006 0.89649 0.86617 0.0
S2621 S 0.33767 0.8182 0.94799 0.0
N2622 N 0.33971 0.85893 0.95873 0.0
N2623 N 0.35188 0.81261 0.91254 0.0
C2624 C 0.35957 0.84494 0.90872 0.0
C2625 C 0.35311 0.86988 0.93345 0.0
C2626 C 0.96248 0.51501 0.72682 0.0
C2627 C 0.97677 0.54393 0.74995 0.0
C2628 C 0.97506 0.50435 0.69824 0.0
C2629 C 1.00236 0.52212 0.6926 0.0
H2630 H 0.94376 0.49832 0.73284 0.0
H2631 H 0.96527 0.47995 0.68284 0.0
S2632 S 0.04272 0.60526 0.74092 0.0
N2633 N 1.01471 0.59476 0.76129 0.0
N2634 N 0.03915 0.57435 0.70836 0.0
C2635 C 1.0139 0.55408 0.71261 0.0
C2636 C 1.00082 0.56507 0.7413 0.0
C2637 C 0.30249 0.25714 0.42128 0.0
C2638 C 0.32384 0.24465 0.43733 0.0
C2639 C 0.30678 0.26974 0.39187 0.0
C2640 C 0.33253 0.27021 0.37633 0.0
H2641 H 0.28193 0.2566 0.43119 0.0
H2642 H 0.28949 0.27948 0.38196 0.0
S2643 S 0.39792 0.2474 0.41253 0.0
N2644 N 0.37371 0.23845 0.4383 0.0
N2645 N 0.38153 0.26179 0.38318 0.0
C2646 C 0.35489 0.26007 0.3936 0.0
C2647 C 0.35056 0.24723 0.42375 0.0
C2648 C 0.36743 0.58654 0.50304 0.0
C2649 C 0.36892 0.59831 0.53737 0.0
C2650 C 0.38625 0.56727 0.48999 0.0
C2651 C 0.40727 0.55907 0.51088 0.0
H2652 H 0.35167 0.59252 0.486 0.0
H2653 H 0.38451 0.55906 0.46325 0.0
S2654 S 0.42153 0.58668 0.60273 0.0
N2655 N 0.39399 0.60291 0.59213 0.0
N2656 N 0.42953 0.56581 0.56777 0.0
C2657 C 0.40959 0.57165 0.54543 0.0
C2658 C 0.3903 0.5915 0.5587 0.0
C2659 C 0.97929 0.94833 0.55992 0.0
C2660 C 0.95224 0.95441 0.54936 0.0
C2661 C 1.00553 0.9717 0.56051 0.0
C2662 C 1.0064 1.00257 0.55048 0.0
H2663 H 0.98035 0.9248 0.56726 0.0
H2664 H 0.02553 0.96504 0.56821 0.0
S2665 S 0.94188 0.03131 0.52034 0.0
N2666 N 0.92809 0.99431 0.52886 0.0
N2667 N 0.97735 0.03798 0.52966 0.0
C2668 C 0.97949 1.0096 0.54072 0.0
C2669 C 0.95255 0.98568 0.54022 0.0
C2670 C 0.89424 0.17314 0.29426 0.0
C2671 C 0.92472 0.17506 0.29111 0.0
C2672 C 0.87925 0.20113 0.29428 0.0
C2673 C 0.89228 0.23397 0.2889 0.0
H2674 H 0.88147 0.14948 0.29766 0.0
H2675 H 0.85717 0.19667 0.29929 0.0
S2676 S 0.9727 0.25598 0.28351 0.0
N2677 N 0.96742 0.21614 0.28643 0.0
N2678 N 0.94065 0.26552 0.28417 0.0
C2679 C 0.92306 0.23612 0.28689 0.0
C2680 C 0.93846 0.20824 0.2883 0.0
C2681 C 0.70906 0.0884 0.02976 0.0
C2682 C 0.7204 0.12303 0.03952 0.0
C2683 C 0.67979 0.07519 0.03189 0.0
C2684 C 0.66144 0.09629 0.0437 0.0
H2685 H 0.72197 0.07207 0.01775 0.0
H2686 H 0.6709 0.04911 0.02081 0.0
S2687 S 0.68334 0.18722 0.07986 0.0
N2688 N 0.71341 0.1767 0.06865 0.0
N2689 N 0.65784 0.15233 0.0696 0.0
C2690 C 0.67366 0.13005 0.05738 0.0
C2691 C 0.70342 0.14332 0.05598 0.0
C2692 C 0.27259 0.47434 0.25039 0.0
C2693 C 0.28109 0.50764 0.24626 0.0
C2694 C 0.2883 0.46246 0.27391 0.0
C2695 C 0.31264 0.48376 0.294 0.0
H2696 H 0.25228 0.45848 0.23775 0.0
H2697 H 0.28017 0.43738 0.2781 0.0
S2698 S 0.34787 0.57007 0.28747 0.0
N2699 N 0.31907 0.55935 0.25949 0.0
N2700 N 0.34756 0.53708 0.30462 0.0
C2701 C 0.32328 0.51559 0.28747 0.0
C2702 C 0.30787 0.52742 0.26299 0.0
C2703 C 0.26364 0.42045 0.01971 0.0
C2704 C 0.28892 0.4414 0.03856 0.0
C2705 C 0.24135 0.43387 1.00705 0.0
C2706 C 0.24324 0.46868 0.01319 0.0
H2707 H 0.26193 0.39366 0.01241 0.0
H2708 H 0.22349 0.41711 0.99032 0.0
S2709 S 0.30146 0.53388 0.06696 0.0
N2710 N 0.31211 0.49844 0.06721 0.0
N2711 N 0.26994 0.52344 0.04339 0.0
C2712 C 0.26667 0.48959 0.03501 0.0
C2713 C 0.28958 0.47599 0.04778 0.0
C2714 C 0.91066 0.9575 0.25232 0.0
C2715 C 0.92392 0.97921 0.28288 0.0
C2716 C 0.89208 0.92486 0.25058 0.0
C2717 C 0.88557 0.91141 0.27925 0.0
H2718 H 0.91546 0.96528 0.22927 0.0
H2719 H 0.88339 0.9096 0.22631 0.0
S2720 S 0.91408 0.95721 0.36559 0.0
N2721 N 0.92852 0.98354 0.34258 0.0
N2722 N 0.89406 0.92411 0.33937 0.0
C2723 C 0.89834 0.93313 0.30979 0.0
C2724 C 0.91724 0.96612 0.31157 0.0
C2725 C 0.74983 0.19567 0.77157 0.0
C2726 C 0.75853 0.16498 0.76532 0.0
C2727 C 0.77011 0.22596 0.7778 0.0
C2728 C 0.79974 0.2266 0.77829 0.0
H2729 H 0.72724 0.19649 0.77258 0.0
H2730 H 0.76261 0.24905 0.78359 0.0
S2731 S 0.83373 0.15428 0.75714 0.0
N2732 N 0.79872 0.13746 0.75448 0.0
N2733 N 0.83709 0.19526 0.76846 0.0
C2734 C 0.80886 0.19661 0.76994 0.0
C2735 C 0.78811 0.1655 0.7627 0.0
loop_
_geom_bond_atom_site_label_1
_geom_bond_atom_site_label_2
_geom_bond_distance
_geom_bond_site_symmetry_2
_ccdc_geom_bond_type
Co0 O1 2.216 . S
Co0 O2 2.091 . S
Co0 O4 2.004 . S
Co0 O10 2.021 . S
Co0 O12 2.137 . S
Co0 O13 2.244 . S
O1 Co0 2.216 . S
O1 C8 1.247 . S
O2 Co0 2.091 . S
O2 C8 1.261 . S
C3 O12 1.247 . S
C3 O13 1.272 . S
O4 Co0 2.004 . S
O4 C9 1.259 . S
Co5 O6 2.061 . S
Co5 O11 2.052 . S
Co5 O13 2.135 . S
O6 Co5 2.061 . S
O6 C9 1.235 . S
C7 O10 1.238 . S
C7 O11 1.241 . S
C8 O1 1.247 . S
C8 O2 1.261 . S
C9 O4 1.259 . S
C9 O6 1.235 . S
O10 Co0 2.021 . S
O10 C7 1.238 . S
O11 Co5 2.052 . S
O11 C7 1.241 . S
O12 Co0 2.137 . S
O12 C3 1.247 . S
O13 Co0 2.244 . S
O13 C3 1.272 . S
O13 Co5 2.135 . S
Co14 O15 2.216 . S
Co14 O16 2.091 . S
Co14 O18 2.004 1_655 S
Co14 O24 2.021 . S
Co14 O26 2.137 . S
Co14 O27 2.244 1_655 S
O15 Co14 2.216 . S
O15 C22 1.247 . S
O16 Co14 2.091 . S
O16 C22 1.261 . S
C17 O26 1.247 1_455 S
C17 O27 1.272 . S
O18 Co14 2.004 1_455 S
O18 C23 1.259 . S
Co19 O20 2.061 . S
Co19 O25 2.052 . S
Co19 O27 2.135 . S
O20 Co19 2.061 . S
O20 C23 1.235 . S
C21 O24 1.238 . S
C21 O25 1.241 1_655 S
C22 O15 1.247 . S
C22 O16 1.261 . S
C23 O18 1.259 . S
C23 O20 1.235 . S
O24 Co14 2.021 . S
O24 C21 1.238 . S
O25 Co19 2.052 . S
O25 C21 1.241 1_455 S
O26 Co14 2.137 . S
O26 C17 1.247 1_655 S
O27 Co14 2.244 1_455 S
O27 C17 1.272 . S
O27 Co19 2.135 . S
Co28 O29 2.216 . S
Co28 O30 2.091 . S
Co28 O32 2.004 . S
Co28 O38 2.021 . S
Co28 O40 2.137 . S
Co28 O41 2.244 . S
O29 Co28 2.216 . S
O29 C36 1.247 . S
O30 Co28 2.091 . S
O30 C36 1.261 . S
C31 O40 1.247 . S
C31 O41 1.272 . S
O32 Co28 2.004 . S
O32 C37 1.259 . S
Co33 O34 2.061 . S
Co33 O39 2.052 . S
Co33 O41 2.135 . S
O34 Co33 2.061 . S
O34 C37 1.235 . S
C35 O38 1.238 . S
C35 O39 1.241 . S
C36 O29 1.247 . S
C36 O30 1.261 . S
C37 O32 1.259 . S
C37 O34 1.235 . S
O38 Co28 2.021 . S
O38 C35 1.238 . S
O39 Co33 2.052 . S
O39 C35 1.241 . S
O40 Co28 2.137 . S
O40 C31 1.247 . S
O41 Co28 2.244 . S
O41 C31 1.272 . S
O41 Co33 2.135 . S
Co42 O43 2.216 . S
Co42 O44 2.091 . S
Co42 O46 2.004 . S
Co42 O52 2.021 . S
Co42 O54 2.137 . S
Co42 O55 2.244 . S
O43 Co42 2.216 . S
O43 C50 1.247 . S
O44 Co42 2.091 . S
O44 C50 1.261 . S
C45 O54 1.247 . S
C45 O55 1.272 . S
O46 Co42 2.004 . S
O46 C51 1.259 . S
Co47 O48 2.061 . S
Co47 O53 2.052 . S
Co47 O55 2.135 . S
O48 Co47 2.061 . S
O48 C51 1.235 . S
C49 O52 1.238 . S
C49 O53 1.241 . S
C50 O43 1.247 . S
C50 O44 1.261 . S
C51 O46 1.259 . S
C51 O48 1.235 . S
O52 Co42 2.021 . S
O52 C49 1.238 . S
O53 Co47 2.052 . S
O53 C49 1.241 . S
O54 Co42 2.137 . S
O54 C45 1.247 . S
O55 Co42 2.244 . S
O55 C45 1.272 . S
O55 Co47 2.135 . S
Co56 O57 2.216 . S
Co56 O58 2.091 . S
Co56 O60 2.004 . S
Co56 O66 2.021 . S
Co56 O68 2.137 . S
Co56 O69 2.244 . S
O57 Co56 2.216 . S
O57 C64 1.247 . S
O58 Co56 2.091 . S
O58 C64 1.261 . S
C59 O68 1.247 . S
C59 O69 1.272 . S
O60 Co56 2.004 . S
O60 C65 1.259 . S
Co61 O62 2.061 . S
Co61 O67 2.052 . S
Co61 O69 2.135 . S
O62 Co61 2.061 . S
O62 C65 1.235 . S
C63 O66 1.238 . S
C63 O67 1.241 . S
C64 O57 1.247 . S
C64 O58 1.261 . S
C65 O60 1.259 . S
C65 O62 1.235 . S
O66 Co56 2.021 . S
O66 C63 1.238 . S
O67 Co61 2.052 . S
O67 C63 1.241 . S
O68 Co56 2.137 . S
O68 C59 1.247 . S
O69 Co56 2.244 . S
O69 C59 1.272 . S
O69 Co61 2.135 . S
Co70 O71 2.216 . S
Co70 O72 2.091 . S
Co70 O74 2.004 . S
Co70 O80 2.021 . S
Co70 O82 2.137 . S
Co70 O83 2.244 . S
O71 Co70 2.216 . S
O71 C78 1.247 . S
O72 Co70 2.091 . S
O72 C78 1.261 . S
C73 O82 1.247 . S
C73 O83 1.272 . S
O74 Co70 2.004 . S
O74 C79 1.259 . S
Co75 O76 2.061 . S
Co75 O81 2.052 . S
Co75 O83 2.135 . S
O76 Co75 2.061 . S
O76 C79 1.235 . S
C77 O80 1.238 . S
C77 O81 1.241 . S
C78 O71 1.247 . S
C78 O72 1.261 . S
C79 O74 1.259 . S
C79 O76 1.235 . S
O80 Co70 2.021 . S
O80 C77 1.238 . S
O81 Co75 2.052 . S
O81 C77 1.241 . S
O82 Co70 2.137 . S
O82 C73 1.247 . S
O83 Co70 2.244 . S
O83 C73 1.272 . S
O83 Co75 2.135 . S
Co84 O85 2.216 . S
Co84 O86 2.091 . S
Co84 O88 2.004 . S
Co84 O94 2.021 . S
Co84 O96 2.137 . S
Co84 O97 2.244 . S
O85 Co84 2.216 . S
O85 C92 1.247 . S
O86 Co84 2.091 . S
O86 C92 1.261 . S
C87 O96 1.247 . S
C87 O97 1.272 . S
O88 Co84 2.004 . S
O88 C93 1.259 . S
Co89 O90 2.061 . S
Co89 O95 2.052 . S
Co89 O97 2.135 . S
O90 Co89 2.061 . S
O90 C93 1.235 . S
C91 O94 1.238 . S
C91 O95 1.241 . S
C92 O85 1.247 . S
C92 O86 1.261 . S
C93 O88 1.259 . S
C93 O90 1.235 . S
O94 Co84 2.021 . S
O94 C91 1.238 . S
O95 Co89 2.052 . S
O95 C91 1.241 . S
O96 Co84 2.137 . S
O96 C87 1.247 . S
O97 Co84 2.244 . S
O97 C87 1.272 . S
O97 Co89 2.135 . S
Co98 O99 2.216 . S
Co98 O100 2.091 . S
Co98 O102 2.004 1_455 S
Co98 O108 2.021 . S
Co98 O110 2.137 . S
Co98 O111 2.244 . S
O99 Co98 2.216 . S
O99 C106 1.247 . S
O100 Co98 2.091 . S
O100 C106 1.261 . S
C101 O110 1.247 . S
C101 O111 1.272 . S
O102 Co98 2.004 1_655 S
O102 C107 1.259 . S
Co103 O104 2.061 . S
Co103 O109 2.052 1_655 S
Co103 O111 2.135 1_655 S
O104 Co103 2.061 . S
O104 C107 1.235 . S
C105 O108 1.238 . S
C105 O109 1.241 . S
C106 O99 1.247 . S
C106 O100 1.261 . S
C107 O102 1.259 . S
C107 O104 1.235 . S
O108 Co98 2.021 . S
O108 C105 1.238 . S
O109 Co103 2.052 1_455 S
O109 C105 1.241 . S
O110 Co98 2.137 . S
O110 C101 1.247 . S
O111 Co98 2.244 . S
O111 C101 1.272 . S
O111 Co103 2.135 1_455 S
Co112 O113 2.216 . S
Co112 O114 2.091 . S
Co112 O116 2.004 1_545 S
Co112 O122 2.021 . S
Co112 O124 2.137 . S
Co112 O125 2.244 . S
O113 Co112 2.216 . S
O113 C120 1.247 . S
O114 Co112 2.091 . S
O114 C120 1.261 . S
C115 O124 1.247 . S
C115 O125 1.272 . S
O116 Co112 2.004 1_565 S
O116 C121 1.259 . S
Co117 O118 2.061 . S
Co117 O123 2.052 . S
Co117 O125 2.135 1_565 S
O118 Co117 2.061 . S
O118 C121 1.235 . S
C119 O122 1.230 1_565 S
C119 O123 1.241 . S
C120 O113 1.247 . S
C120 O114 1.261 . S
C121 O116 1.259 . S
C121 O118 1.235 . S
O122 Co112 2.021 . S
O122 C119 1.230 1_545 S
O123 Co117 2.052 . S
O123 C119 1.241 . S
O124 Co112 2.137 . S
O124 C115 1.247 . S
O125 Co112 2.244 . S
O125 C115 1.272 . S
O125 Co117 2.135 1_545 S
Co126 O127 2.216 . S
Co126 O128 2.091 . S
Co126 O130 2.004 . S
Co126 O136 2.021 . S
Co126 O138 2.137 . S
Co126 O139 2.244 . S
O127 Co126 2.216 . S
O127 C134 1.247 . S
O128 Co126 2.091 . S
O128 C134 1.261 . S
C129 O138 1.247 . S
C129 O139 1.272 . S
O130 Co126 2.004 . S
O130 C135 1.259 . S
Co131 O132 2.061 . S
Co131 O137 2.052 . S
Co131 O139 2.135 . S
O132 Co131 2.061 . S
O132 C135 1.235 . S
C133 O136 1.238 . S
C133 O137 1.241 . S
C134 O127 1.247 . S
C134 O128 1.261 . S
C135 O130 1.259 . S
C135 O132 1.235 . S
O136 Co126 2.021 . S
O136 C133 1.238 . S
O137 Co131 2.052 . S
O137 C133 1.241 . S
O138 Co126 2.137 . S
O138 C129 1.247 . S
O139 Co126 2.244 . S
O139 C129 1.272 . S
O139 Co131 2.135 . S
Co140 O141 2.216 . S
Co140 O142 2.091 . S
Co140 O144 2.004 1_565 S
Co140 O150 2.021 . S
Co140 O152 2.137 . S
Co140 O153 2.244 1_565 S
O141 Co140 2.216 . S
O141 C148 1.247 . S
O142 Co140 2.091 . S
O142 C148 1.261 . S
C143 O152 1.247 1_545 S
C143 O153 1.272 . S
O144 Co140 2.004 1_545 S
O144 C149 1.259 . S
Co145 O146 2.061 . S
Co145 O151 2.052 . S
Co145 O153 2.135 . S
O146 Co145 2.061 . S
O146 C149 1.235 . S
C147 O150 1.238 . S
C147 O151 1.241 1_565 S
C148 O141 1.247 . S
C148 O142 1.261 . S
C149 O144 1.259 . S
C149 O146 1.235 . S
O150 Co140 2.021 . S
O150 C147 1.238 . S
O151 Co145 2.052 . S
O151 C147 1.241 1_545 S
O152 Co140 2.137 . S
O152 C143 1.247 1_565 S
O153 Co140 2.244 1_545 S
O153 C143 1.272 . S
O153 Co145 2.135 . S
Co154 O155 2.216 . S
Co154 O156 2.091 1_556 S
Co154 O158 2.004 1_556 S
Co154 O164 2.021 1_556 S
Co154 O166 2.137 . S
Co154 O167 2.244 . S
O155 Co154 2.216 . S
O155 C162 1.247 1_556 S
O156 Co154 2.091 1_554 S
O156 C162 1.261 . S
C157 O166 1.247 . S
C157 O167 1.272 . S
O158 Co154 2.004 1_554 S
O158 C163 1.259 . S
Co159 O160 2.061 1_556 S
Co159 O165 2.052 1_556 S
Co159 O167 2.135 . S
O160 Co159 2.061 1_554 S
O160 C163 1.235 . S
C161 O164 1.238 . S
C161 O165 1.241 . S
C162 O155 1.247 1_554 S
C162 O156 1.261 . S
C163 O158 1.259 . S
C163 O160 1.235 . S
O164 Co154 2.021 1_554 S
O164 C161 1.238 . S
O165 Co159 2.052 1_554 S
O165 C161 1.241 . S
O166 Co154 2.137 . S
O166 C157 1.247 . S
O167 Co154 2.244 . S
O167 C157 1.272 . S
O167 Co159 2.135 . S
Co168 O169 2.216 . S
Co168 O170 2.091 . S
Co168 O172 2.004 . S
Co168 O178 2.021 . S
Co168 O180 2.137 1_554 S
Co168 O181 2.244 . S
O169 Co168 2.216 . S
O169 C176 1.247 . S
O170 Co168 2.091 . S
O170 C176 1.261 . S
C171 O180 1.247 . S
C171 O181 1.272 1_556 S
O172 Co168 2.004 . S
O172 C177 1.259 . S
Co173 O174 2.061 . S
Co173 O179 2.052 . S
Co173 O181 2.135 . S
O174 Co173 2.061 . S
O174 C177 1.235 . S
C175 O178 1.238 . S
C175 O179 1.241 . S
C176 O169 1.247 . S
C176 O170 1.261 . S
C177 O172 1.259 . S
C177 O174 1.235 . S
O178 Co168 2.021 . S
O178 C175 1.238 . S
O179 Co173 2.052 . S
O179 C175 1.241 . S
O180 Co168 2.137 1_556 S
O180 C171 1.247 . S
O181 Co168 2.244 . S
O181 C171 1.272 1_554 S
O181 Co173 2.135 . S
Co182 O183 2.216 . S
Co182 O184 2.091 . S
Co182 O186 2.004 . S
Co182 O192 2.021 . S
Co182 O194 2.137 1_554 S
Co182 O195 2.244 . S
O183 Co182 2.216 . S
O183 C190 1.247 . S
O184 Co182 2.091 . S
O184 C190 1.261 . S
C185 O194 1.247 . S
C185 O195 1.272 1_556 S
O186 Co182 2.004 . S
O186 C191 1.259 . S
Co187 O188 2.061 . S
Co187 O193 2.052 . S
Co187 O195 2.135 . S
O188 Co187 2.061 . S
O188 C191 1.235 . S
C189 O192 1.238 . S
C189 O193 1.241 . S
C190 O183 1.247 . S
C190 O184 1.261 . S
C191 O186 1.259 . S
C191 O188 1.235 . S
O192 Co182 2.021 . S
O192 C189 1.238 . S
O193 Co187 2.052 . S
O193 C189 1.241 . S
O194 Co182 2.137 1_556 S
O194 C185 1.247 . S
O195 Co182 2.244 . S
O195 C185 1.272 1_554 S
O195 Co187 2.135 . S
Co196 O197 2.216 . S
Co196 O198 2.091 . S
Co196 O200 2.004 . S
Co196 O206 2.021 . S
Co196 O208 2.137 . S
Co196 O209 2.244 . S
O197 Co196 2.216 . S
O197 C204 1.247 . S
O198 Co196 2.091 . S
O198 C204 1.261 . S
C199 O208 1.247 . S
C199 O209 1.272 . S
O200 Co196 2.004 . S
O200 C205 1.259 . S
Co201 O202 2.061 . S
Co201 O207 2.052 . S
Co201 O209 2.135 . S
O202 Co201 2.061 . S
O202 C205 1.235 . S
C203 O206 1.238 . S
C203 O207 1.241 . S
C204 O197 1.247 . S
C204 O198 1.261 . S
C205 O200 1.259 . S
C205 O202 1.235 . S
O206 Co196 2.021 . S
O206 C203 1.238 . S
O207 Co201 2.052 . S
O207 C203 1.241 . S
O208 Co196 2.137 . S
O208 C199 1.247 . S
O209 Co196 2.244 . S
O209 C199 1.272 . S
O209 Co201 2.135 . S
Co210 O211 2.216 . S
Co210 O212 2.091 . S
Co210 O214 2.004 . S
Co210 O220 2.021 . S
Co210 O222 2.137 . S
Co210 O223 2.244 . S
O211 Co210 2.216 . S
O211 C218 1.247 . S
O212 Co210 2.091 . S
O212 C218 1.261 . S
C213 O222 1.247 . S
C213 O223 1.272 . S
O214 Co210 2.004 . S
O214 C219 1.259 . S
Co215 O216 2.061 . S
Co215 O221 2.052 . S
Co215 O223 2.135 . S
O216 Co215 2.061 . S
O216 C219 1.235 . S
C217 O220 1.238 . S
C217 O221 1.241 . S
C218 O211 1.247 . S
C218 O212 1.261 . S
C219 O214 1.259 . S
C219 O216 1.235 . S
O220 Co210 2.021 . S
O220 C217 1.238 . S
O221 Co215 2.052 . S
O221 C217 1.241 . S
O222 Co210 2.137 . S
O222 C213 1.247 . S
O223 Co210 2.244 . S
O223 C213 1.272 . S
O223 Co215 2.135 . S
Co224 O225 2.216 . S
Co224 O226 2.091 . S
Co224 O228 2.004 . S
Co224 O234 2.021 . S
Co224 O236 2.137 . S
Co224 O237 2.244 . S
O225 Co224 2.216 . S
O225 C232 1.247 . S
O226 Co224 2.091 . S
O226 C232 1.261 . S
C227 O236 1.247 . S
C227 O237 1.272 . S
O228 Co224 2.004 . S
O228 C233 1.260 1_545 S
Co229 O230 2.061 1_545 S
Co229 O235 2.052 . S
Co229 O237 2.135 . S
O230 Co229 2.061 1_565 S
O230 C233 1.235 . S
C231 O234 1.238 . S
C231 O235 1.241 . S
C232 O225 1.247 . S
C232 O226 1.261 . S
C233 O228 1.260 1_565 S
C233 O230 1.235 . S
O234 Co224 2.021 . S
O234 C231 1.238 . S
O235 Co229 2.052 . S
O235 C231 1.241 . S
O236 Co224 2.137 . S
O236 C227 1.247 . S
O237 Co224 2.244 . S
O237 C227 1.272 . S
O237 Co229 2.135 . S
Co238 O239 2.216 . S
Co238 O240 2.091 . S
Co238 O242 2.004 . S
Co238 O248 2.021 . S
Co238 O250 2.137 . S
Co238 O251 2.244 . S
O239 Co238 2.216 . S
O239 C246 1.247 . S
O240 Co238 2.091 . S
O240 C246 1.261 . S
C241 O250 1.247 . S
C241 O251 1.272 . S
O242 Co238 2.004 . S
O242 C247 1.259 . S
Co243 O244 2.061 . S
Co243 O249 2.052 . S
Co243 O251 2.135 . S
O244 Co243 2.061 . S
O244 C247 1.235 . S
C245 O248 1.238 . S
C245 O249 1.241 . S
C246 O239 1.247 . S
C246 O240 1.261 . S
C247 O242 1.259 . S
C247 O244 1.235 . S
O248 Co238 2.021 . S
O248 C245 1.238 . S
O249 Co243 2.052 . S
O249 C245 1.241 . S
O250 Co238 2.137 . S
O250 C241 1.247 . S
O251 Co238 2.244 . S
O251 C241 1.272 . S
O251 Co243 2.135 . S
Co252 O253 2.216 . S
Co252 O254 2.091 . S
Co252 O256 2.004 . S
Co252 O262 2.021 . S
Co252 O264 2.137 . S
Co252 O265 2.244 . S
O253 Co252 2.216 . S
O253 C260 1.247 . S
O254 Co252 2.091 . S
O254 C260 1.261 . S
C255 O264 1.247 . S
C255 O265 1.272 . S
O256 Co252 2.004 . S
O256 C261 1.259 . S
Co257 O258 2.061 . S
Co257 O263 2.052 . S
Co257 O265 2.135 . S
O258 Co257 2.061 . S
O258 C261 1.235 . S
C259 O262 1.238 . S
C259 O263 1.241 . S
C260 O253 1.247 . S
C260 O254 1.261 . S
C261 O256 1.259 . S
C261 O258 1.235 . S
O262 Co252 2.021 . S
O262 C259 1.238 . S
O263 Co257 2.052 . S
O263 C259 1.241 . S
O264 Co252 2.137 . S
O264 C255 1.247 . S
O265 Co252 2.244 . S
O265 C255 1.272 . S
O265 Co257 2.135 . S
Co266 O267 2.216 . S
Co266 O268 2.091 . S
Co266 O270 2.004 . S
Co266 O276 2.021 . S
Co266 O278 2.137 . S
Co266 O279 2.244 . S
O267 Co266 2.216 . S
O267 C274 1.247 . S
O268 Co266 2.091 . S
O268 C274 1.261 . S
C269 O278 1.247 . S
C269 O279 1.272 . S
O270 Co266 2.004 . S
O270 C275 1.259 . S
Co271 O272 2.061 . S
Co271 O277 2.052 . S
Co271 O279 2.135 . S
O272 Co271 2.061 . S
O272 C275 1.235 . S
C273 O276 1.238 . S
C273 O277 1.241 . S
C274 O267 1.247 . S
C274 O268 1.261 . S
C275 O270 1.259 . S
C275 O272 1.235 . S
O276 Co266 2.021 . S
O276 C273 1.238 . S
O277 Co271 2.052 . S
O277 C273 1.241 . S
O278 Co266 2.137 . S
O278 C269 1.247 . S
O279 Co266 2.244 . S
O279 C269 1.272 . S
O279 Co271 2.135 . S
Co280 O281 2.216 1_556 S
Co280 O282 2.091 . S
Co280 O284 2.004 . S
Co280 O290 2.021 1_556 S
Co280 O292 2.137 . S
Co280 O293 2.244 . S
O281 Co280 2.216 1_554 S
O281 C288 1.248 1_554 S
O282 Co280 2.091 . S
O282 C288 1.261 . S
C283 O292 1.247 . S
C283 O293 1.272 . S
O284 Co280 2.004 . S
O284 C289 1.259 . S
Co285 O286 2.062 1_554 S
Co285 O291 2.052 . S
Co285 O293 2.135 1_554 S
O286 Co285 2.062 1_556 S
O286 C289 1.235 . S
C287 O290 1.238 . S
C287 O291 1.241 . S
C288 O281 1.248 1_556 S
C288 O282 1.261 . S
C289 O284 1.259 . S
C289 O286 1.235 . S
O290 Co280 2.021 1_554 S
O290 C287 1.238 . S
O291 Co285 2.052 . S
O291 C287 1.241 . S
O292 Co280 2.137 . S
O292 C283 1.247 . S
O293 Co280 2.244 . S
O293 C283 1.272 . S
O293 Co285 2.135 1_556 S
Co294 O295 2.216 . S
Co294 O296 2.091 . S
Co294 O298 2.004 . S
Co294 O304 2.021 . S
Co294 O306 2.137 . S
Co294 O307 2.244 . S
O295 Co294 2.216 . S
O295 C302 1.247 . S
O296 Co294 2.091 . S
O296 C302 1.261 . S
C297 O306 1.247 . S
C297 O307 1.272 . S
O298 Co294 2.004 . S
O298 C303 1.259 . S
Co299 O300 2.061 . S
Co299 O305 2.052 . S
Co299 O307 2.135 . S
O300 Co299 2.061 . S
O300 C303 1.235 . S
C301 O304 1.238 . S
C301 O305 1.241 . S
C302 O295 1.247 . S
C302 O296 1.261 . S
C303 O298 1.259 . S
C303 O300 1.235 . S
O304 Co294 2.021 . S
O304 C301 1.238 . S
O305 Co299 2.052 . S
O305 C301 1.241 . S
O306 Co294 2.137 . S
O306 C297 1.247 . S
O307 Co294 2.244 . S
O307 C297 1.272 . S
O307 Co299 2.135 . S
Co308 O309 2.216 . S
Co308 O310 2.091 . S
Co308 O312 2.004 . S
Co308 O318 2.021 . S
Co308 O320 2.137 . S
Co308 O321 2.244 . S
O309 Co308 2.216 . S
O309 C316 1.247 . S
O310 Co308 2.091 . S
O310 C316 1.261 . S
C311 O320 1.247 . S
C311 O321 1.272 . S
O312 Co308 2.004 . S
O312 C317 1.259 . S
Co313 O314 2.061 . S
Co313 O319 2.052 . S
Co313 O321 2.135 . S
O314 Co313 2.061 . S
O314 C317 1.235 . S
C315 O318 1.238 . S
C315 O319 1.241 . S
C316 O309 1.247 . S
C316 O310 1.261 . S
C317 O312 1.259 . S
C317 O314 1.235 . S
O318 Co308 2.021 . S
O318 C315 1.238 . S
O319 Co313 2.052 . S
O319 C315 1.241 . S
O320 Co308 2.137 . S
O320 C311 1.247 . S
O321 Co308 2.244 . S
O321 C311 1.272 . S
O321 Co313 2.135 . S
Co322 O323 2.216 . S
Co322 O324 2.091 . S
Co322 O326 2.004 . S
Co322 O332 2.021 . S
Co322 O334 2.137 . S
Co322 O335 2.244 . S
O323 Co322 2.216 . S
O323 C330 1.247 . S
O324 Co322 2.091 . S
O324 C330 1.261 . S
C325 O334 1.247 . S
C325 O335 1.272 . S
O326 Co322 2.004 . S
O326 C331 1.259 . S
Co327 O328 2.061 . S
Co327 O333 2.052 . S
Co327 O335 2.135 . S
O328 Co327 2.061 . S
O328 C331 1.235 . S
C329 O332 1.238 . S
C329 O333 1.241 . S
C330 O323 1.247 . S
C330 O324 1.261 . S
C331 O326 1.259 . S
C331 O328 1.235 . S
O332 Co322 2.021 . S
O332 C329 1.238 . S
O333 Co327 2.052 . S
O333 C329 1.241 . S
O334 Co322 2.137 . S
O334 C325 1.247 . S
O335 Co322 2.244 . S
O335 C325 1.272 . S
O335 Co327 2.135 . S
Eu336 N367 2.674 1_545 S
Eu336 N374 2.595 1_544 S
Eu336 O380 2.539 1_454 S
Eu336 O381 2.616 . S
Eu336 O383 2.368 . S
Eu336 O384 2.555 1_554 S
Eu336 O385 2.426 1_455 S
Eu336 O387 2.400 . S
Eu336 O388 2.408 1_554 S
Eu336 C400 2.841 1_454 S
C337 C340 1.429 . S
C337 C341 1.411 . S
C337 N344 1.377 . S
C338 C340 1.420 . S
C338 C342 1.423 . S
C338 C350 1.392 1_554 S
C339 C341 1.420 . S
C339 C342 1.351 . S
C339 H362 0.931 . S
C340 C337 1.429 . S
C340 C338 1.420 . S
C340 N348 1.362 . S
C341 C337 1.411 . S
C341 C339 1.420 . S
C341 C346 1.395 . S
C342 C338 1.423 . S
C342 C339 1.351 . S
C342 H354 0.930 . S
C343 C345 1.400 . S
C343 C346 1.386 . S
C343 H355 0.930 . S
N344 C337 1.377 . S
N344 C345 1.321 . S
N344 Eu347 2.609 . S
C345 C343 1.400 . S
C345 N344 1.321 . S
C345 H352 0.930 . S
C346 C341 1.395 . S
C346 C343 1.386 . S
C346 H365 0.930 . S
Eu347 N344 2.609 . S
Eu347 N348 2.657 . S
Eu347 O381 2.380 . S
Eu347 O382 2.432 . S
Eu347 O386 2.558 . S
Eu347 O387 2.623 . S
Eu347 O389 2.339 1_554 S
Eu347 O390 2.563 1_545 S
Eu347 O391 2.419 . S
Eu347 C411 2.848 . S
N348 C340 1.362 . S
N348 Eu347 2.657 . S
N348 C349 1.334 1_554 S
C349 N348 1.334 1_556 S
C349 C351 1.413 . S
C349 H356 0.929 . S
C350 C338 1.392 1_556 S
C350 C351 1.367 . S
C350 H358 0.930 . S
C351 C349 1.413 . S
C351 C350 1.367 . S
C351 H353 0.930 . S
H352 C345 0.930 . S
H353 C351 0.930 . S
H354 C342 0.930 . S
H355 C343 0.930 . S
H356 C349 0.929 . S
H357 C371 0.930 . S
H358 C350 0.930 . S
H359 C377 0.930 . S
H360 C368 0.929 . S
H361 C375 0.930 . S
H362 C339 0.931 . S
H363 C369 0.930 . S
H364 C402 0.930 . S
H365 C346 0.930 . S
H366 C401 0.931 . S
N367 Eu336 2.674 1_565 S
N367 C368 1.334 . S
N367 C372 1.362 1_455 S
C368 H360 0.929 . S
C368 N367 1.334 . S
C368 C371 1.413 . S
C369 H363 0.930 . S
C369 C370 1.392 . S
C369 C371 1.367 1_655 S
C370 C369 1.392 . S
C370 C372 1.420 . S
C370 C402 1.423 1_554 S
C371 H357 0.930 . S
C371 C368 1.413 . S
C371 C369 1.367 1_455 S
C372 N367 1.362 1_655 S
C372 C370 1.420 . S
C372 C376 1.429 1_554 S
H373 C378 0.930 . S
N374 Eu336 2.595 1_566 S
N374 C376 1.377 1_455 S
N374 C377 1.321 . S
C375 H361 0.930 . S
C375 C377 1.400 1_655 S
C375 C378 1.386 . S
C376 C372 1.429 1_556 S
C376 N374 1.377 1_655 S
C376 C379 1.411 . S
C377 H359 0.930 . S
C377 N374 1.321 . S
C377 C375 1.400 1_455 S
C378 H373 0.930 . S
C378 C375 1.386 . S
C378 C379 1.395 . S
C379 C376 1.411 . S
C379 C378 1.395 . S
C379 C401 1.420 . S
O380 Eu336 2.539 1_656 S
O380 C400 1.257 . S
O381 Eu336 2.616 . S
O381 Eu347 2.380 . S
O381 C392 1.276 . S
O382 Eu347 2.432 . S
O382 C399 1.264 . S
O383 Eu336 2.368 . S
O383 C399 1.254 . S
O384 Eu336 2.555 1_556 S
O384 C392 1.235 1_556 S
O385 Eu336 2.426 1_655 S
O385 C400 1.249 1_554 S
O386 Eu347 2.558 . S
O386 C411 1.257 . S
O387 Eu336 2.400 . S
O387 Eu347 2.623 . S
O387 C403 1.263 1_545 S
O388 Eu336 2.408 1_556 S
O388 C410 1.264 . S
O389 Eu347 2.339 1_556 S
O389 C410 1.254 . S
O390 Eu347 2.563 1_565 S
O390 C403 1.235 . S
O391 Eu347 2.419 . S
O391 C411 1.249 . S
C392 O381 1.276 . S
C392 O384 1.235 1_554 S
C393 C395 1.393 . S
C393 C397 1.395 . S
C393 C400 1.492 . S
C394 C395 1.392 . S
C394 C396 1.386 . S
C395 C393 1.393 . S
C395 C394 1.392 . S
C395 H412 0.930 1_556 S
C396 C394 1.386 . S
C396 C398 1.395 . S
C396 H413 0.930 . S
C397 C393 1.395 . S
C397 C398 1.379 . S
C397 H414 0.930 1_545 S
C398 C396 1.395 . S
C398 C397 1.379 . S
C398 H415 0.929 1_545 S
C399 O382 1.264 . S
C399 O383 1.254 . S
C400 Eu336 2.841 1_656 S
C400 O380 1.257 . S
C400 O385 1.249 1_556 S
C400 C393 1.492 . S
C401 H366 0.931 . S
C401 C379 1.420 . S
C401 C402 1.351 . S
C402 H364 0.930 . S
C402 C370 1.423 1_556 S
C402 C401 1.351 . S
C403 O387 1.263 1_565 S
C403 O390 1.235 . S
C404 C405 1.393 . S
C404 C408 1.395 . S
C404 C411 1.492 . S
C405 C404 1.393 . S
C405 C406 1.392 . S
C405 H416 0.930 . S
C406 C405 1.392 . S
C406 C407 1.386 . S
C407 C406 1.386 . S
C407 C409 1.395 . S
C407 H417 0.930 . S
C408 C404 1.395 . S
C408 C409 1.379 . S
C408 H418 0.930 . S
C409 C407 1.395 . S
C409 C408 1.379 . S
C409 H419 0.930 . S
C410 O388 1.264 . S
C410 O389 1.254 . S
C411 Eu347 2.848 . S
C411 O386 1.257 . S
C411 O391 1.249 . S
C411 C404 1.492 . S
H412 C395 0.930 1_554 S
H413 C396 0.930 . S
H414 C397 0.930 1_565 S
H415 C398 0.929 1_565 S
H416 C405 0.930 . S
H417 C407 0.930 . S
H418 C408 0.930 . S
H419 C409 0.930 . S
Eu420 N451 2.657 . S
Eu420 N458 2.609 . S
Eu420 O464 2.558 . S
Eu420 O465 2.612 . S
Eu420 O467 2.339 . S
Eu420 O468 2.563 . S
Eu420 O469 2.419 . S
Eu420 O471 2.380 . S
Eu420 O472 2.432 . S
Eu420 C484 2.848 . S
C421 C424 1.429 . S
C421 C425 1.411 . S
C421 N428 1.377 . S
C422 C424 1.420 . S
C422 C426 1.423 . S
C422 C434 1.392 . S
C423 C425 1.420 . S
C423 C426 1.351 . S
C423 H446 0.931 . S
C424 C421 1.429 . S
C424 C422 1.420 . S
C424 N432 1.362 . S
C425 C421 1.411 . S
C425 C423 1.420 . S
C425 C430 1.395 . S
C426 C422 1.423 . S
C426 C423 1.351 . S
C426 H438 0.930 . S
C427 C429 1.400 . S
C427 C430 1.386 . S
C427 H439 0.930 . S
N428 C421 1.377 . S
N428 C429 1.321 . S
N428 Eu431 2.609 . S
C429 C427 1.400 . S
C429 N428 1.321 . S
C429 H436 0.930 . S
C430 C425 1.395 . S
C430 C427 1.386 . S
C430 H449 0.930 . S
Eu431 N428 2.609 . S
Eu431 N432 2.657 . S
Eu431 O465 2.380 . S
Eu431 O466 2.432 . S
Eu431 O470 2.558 . S
Eu431 O471 2.612 . S
Eu431 O473 2.339 . S
Eu431 O474 2.563 . S
Eu431 O475 2.419 . S
Eu431 C495 2.848 . S
N432 C424 1.362 . S
N432 Eu431 2.657 . S
N432 C433 1.334 . S
C433 N432 1.334 . S
C433 C435 1.413 . S
C433 H440 0.929 . S
C434 C422 1.392 . S
C434 C435 1.367 . S
C434 H442 0.930 . S
C435 C433 1.413 . S
C435 C434 1.367 . S
C435 H437 0.930 . S
H436 C429 0.930 . S
H437 C435 0.930 . S
H438 C426 0.930 . S
H439 C427 0.930 . S
H440 C433 0.929 . S
H441 C455 0.930 . S
H442 C434 0.930 . S
H443 C461 0.930 . S
H444 C452 0.929 . S
H445 C459 0.930 . S
H446 C423 0.931 . S
H447 C453 0.930 . S
H448 C486 0.930 . S
H449 C430 0.930 . S
H450 C485 0.931 . S
N451 Eu420 2.657 . S
N451 C452 1.334 . S
N451 C456 1.362 . S
C452 H444 0.929 . S
C452 N451 1.334 . S
C452 C455 1.413 . S
C453 H447 0.930 . S
C453 C454 1.392 . S
C453 C455 1.367 . S
C454 C453 1.392 . S
C454 C456 1.420 . S
C454 C486 1.423 . S
C455 H441 0.930 . S
C455 C452 1.413 . S
C455 C453 1.367 . S
C456 N451 1.362 . S
C456 C454 1.420 . S
C456 C460 1.429 . S
H457 C462 0.930 . S
N458 Eu420 2.609 . S
N458 C460 1.377 . S
N458 C461 1.321 . S
C459 H445 0.930 . S
C459 C461 1.400 . S
C459 C462 1.386 . S
C460 C456 1.429 . S
C460 N458 1.377 . S
C460 C463 1.411 . S
C461 H443 0.930 . S
C461 N458 1.321 . S
C461 C459 1.400 . S
C462 H457 0.930 . S
C462 C459 1.386 . S
C462 C463 1.395 . S
C463 C460 1.411 . S
C463 C462 1.395 . S
C463 C485 1.420 . S
O464 Eu420 2.558 . S
O464 C484 1.257 . S
O465 Eu420 2.612 . S
O465 Eu431 2.380 . S
O465 C476 1.276 . S
O466 Eu431 2.432 . S
O466 C483 1.264 . S
O467 Eu420 2.339 . S
O467 C483 1.254 . S
O468 Eu420 2.563 . S
O468 C476 1.235 . S
O469 Eu420 2.419 . S
O469 C484 1.249 . S
O470 Eu431 2.558 . S
O470 C495 1.257 . S
O471 Eu420 2.380 . S
O471 Eu431 2.612 . S
O471 C487 1.276 . S
O472 Eu420 2.432 . S
O472 C494 1.264 . S
O473 Eu431 2.339 . S
O473 C494 1.254 . S
O474 Eu431 2.563 . S
O474 C487 1.235 . S
O475 Eu431 2.419 . S
O475 C495 1.249 . S
C476 O465 1.276 . S
C476 O468 1.235 . S
C477 C479 1.393 . S
C477 C481 1.395 . S
C477 C484 1.492 . S
C478 C479 1.392 . S
C478 C480 1.386 . S
C479 C477 1.393 . S
C479 C478 1.392 . S
C479 H496 0.930 . S
C480 C478 1.386 . S
C480 C482 1.395 . S
C480 H497 0.930 . S
C481 C477 1.395 . S
C481 C482 1.379 . S
C481 H498 0.930 . S
C482 C480 1.395 . S
C482 C481 1.379 . S
C482 H499 0.930 . S
C483 O466 1.264 . S
C483 O467 1.254 . S
C484 Eu420 2.848 . S
C484 O464 1.257 . S
C484 O469 1.249 . S
C484 C477 1.492 . S
C485 H450 0.931 . S
C485 C463 1.420 . S
C485 C486 1.351 . S
C486 H448 0.930 . S
C486 C454 1.423 . S
C486 C485 1.351 . S
C487 O471 1.276 . S
C487 O474 1.235 . S
C488 C489 1.393 . S
C488 C492 1.395 . S
C488 C495 1.492 . S
C489 C488 1.393 . S
C489 C490 1.392 . S
C489 H500 0.930 . S
C490 C489 1.392 . S
C490 C491 1.386 . S
C491 C490 1.386 . S
C491 C493 1.395 . S
C491 H501 0.930 . S
C492 C488 1.395 . S
C492 C493 1.379 . S
C492 H502 0.930 . S
C493 C491 1.395 . S
C493 C492 1.379 . S
C493 H503 0.930 . S
C494 O472 1.264 . S
C494 O473 1.254 . S
C495 Eu431 2.848 . S
C495 O470 1.257 . S
C495 O475 1.249 . S
C495 C488 1.492 . S
H496 C479 0.930 . S
H497 C480 0.930 . S
H498 C481 0.930 . S
H499 C482 0.930 . S
H500 C489 0.930 . S
H501 C491 0.930 . S
H502 C492 0.930 . S
H503 C493 0.930 . S
Eu504 N535 2.657 . S
Eu504 N542 2.609 . S
Eu504 O548 2.558 . S
Eu504 O549 2.612 1_545 S
Eu504 O551 2.339 . S
Eu504 O552 2.563 1_545 S
Eu504 O553 2.419 . S
Eu504 O555 2.380 . S
Eu504 O556 2.432 . S
Eu504 C568 2.848 . S
C505 C508 1.429 . S
C505 C509 1.411 . S
C505 N512 1.377 . S
C506 C508 1.420 . S
C506 C510 1.423 . S
C506 C518 1.392 . S
C507 C509 1.420 . S
C507 C510 1.351 . S
C507 H530 0.931 . S
C508 C505 1.429 . S
C508 C506 1.420 . S
C508 N516 1.362 . S
C509 C505 1.411 . S
C509 C507 1.420 . S
C509 C514 1.395 . S
C510 C506 1.423 . S
C510 C507 1.351 . S
C510 H522 0.930 . S
C511 C513 1.400 1_565 S
C511 C514 1.386 . S
C511 H523 0.930 1_565 S
N512 C505 1.377 . S
N512 C513 1.321 1_565 S
N512 Eu515 2.609 1_565 S
C513 C511 1.400 1_545 S
C513 N512 1.321 1_545 S
C513 H520 0.930 . S
C514 C509 1.395 . S
C514 C511 1.386 . S
C514 H533 0.930 . S
Eu515 N512 2.609 1_545 S
Eu515 N516 2.657 1_545 S
Eu515 O549 2.380 1_545 S
Eu515 O550 2.432 . S
Eu515 O554 2.558 . S
Eu515 O555 2.612 . S
Eu515 O557 2.339 . S
Eu515 O558 2.563 . S
Eu515 O559 2.419 . S
Eu515 C579 2.848 . S
N516 C508 1.362 . S
N516 Eu515 2.657 1_565 S
N516 C517 1.334 . S
C517 N516 1.334 . S
C517 C519 1.413 . S
C517 H524 0.929 . S
C518 C506 1.392 . S
C518 C519 1.367 . S
C518 H526 0.930 . S
C519 C517 1.413 . S
C519 C518 1.367 . S
C519 H521 0.930 . S
H520 C513 0.930 . S
H521 C519 0.930 . S
H522 C510 0.930 . S
H523 C511 0.930 1_545 S
H524 C517 0.929 . S
H525 C539 0.930 . S
H526 C518 0.930 . S
H527 C545 0.930 . S
H528 C536 0.929 . S
H529 C543 0.930 . S
H530 C507 0.931 . S
H531 C537 0.930 . S
H532 C570 0.930 . S
H533 C514 0.930 . S
H534 C569 0.931 . S
N535 Eu504 2.657 . S
N535 C536 1.334 . S
N535 C540 1.362 . S
C536 H528 0.929 . S
C536 N535 1.334 . S
C536 C539 1.413 . S
C537 H531 0.930 . S
C537 C538 1.392 . S
C537 C539 1.367 . S
C538 C537 1.392 . S
C538 C540 1.420 . S
C538 C570 1.423 . S
C539 H525 0.930 . S
C539 C536 1.413 . S
C539 C537 1.367 . S
C540 N535 1.362 . S
C540 C538 1.420 . S
C540 C544 1.429 . S
H541 C546 0.930 . S
N542 Eu504 2.609 . S
N542 C544 1.377 . S
N542 C545 1.321 . S
C543 H529 0.930 . S
C543 C545 1.400 . S
C543 C546 1.386 . S
C544 C540 1.429 . S
C544 N542 1.377 . S
C544 C547 1.411 . S
C545 H527 0.930 . S
C545 N542 1.321 . S
C545 C543 1.400 . S
C546 H541 0.930 . S
C546 C543 1.386 . S
C546 C547 1.395 . S
C547 C544 1.411 . S
C547 C546 1.395 . S
C547 C569 1.420 . S
O548 Eu504 2.558 . S
O548 C568 1.257 . S
O549 Eu504 2.612 1_565 S
O549 Eu515 2.380 1_565 S
O549 C560 1.276 . S
O550 Eu515 2.432 . S
O550 C567 1.264 . S
O551 Eu504 2.339 . S
O551 C567 1.254 . S
O552 Eu504 2.563 1_565 S
O552 C560 1.235 . S
O553 Eu504 2.419 . S
O553 C568 1.249 . S
O554 Eu515 2.558 . S
O554 C579 1.257 . S
O555 Eu504 2.380 . S
O555 Eu515 2.612 . S
O555 C571 1.276 . S
O556 Eu504 2.432 . S
O556 C578 1.264 . S
O557 Eu515 2.339 . S
O557 C578 1.254 . S
O558 Eu515 2.563 . S
O558 C571 1.235 . S
O559 Eu515 2.419 . S
O559 C579 1.249 . S
C560 O549 1.276 . S
C560 O552 1.235 . S
C561 C563 1.393 . S
C561 C565 1.395 . S
C561 C568 1.492 1_565 S
C562 C563 1.392 . S
C562 C564 1.386 . S
C563 C561 1.393 . S
C563 C562 1.392 . S
C563 H580 0.930 . S
C564 C562 1.386 . S
C564 C566 1.395 . S
C564 H581 0.930 . S
C565 C561 1.395 . S
C565 C566 1.379 . S
C565 H582 0.930 . S
C566 C564 1.395 . S
C566 C565 1.379 . S
C566 H583 0.930 . S
C567 O550 1.264 . S
C567 O551 1.254 . S
C568 Eu504 2.848 . S
C568 O548 1.257 . S
C568 O553 1.249 . S
C568 C561 1.492 1_545 S
C569 H534 0.931 . S
C569 C547 1.420 . S
C569 C570 1.351 . S
C570 H532 0.930 . S
C570 C538 1.423 . S
C570 C569 1.351 . S
C571 O555 1.276 . S
C571 O558 1.235 . S
C572 C573 1.393 . S
C572 C576 1.395 . S
C572 C579 1.492 . S
C573 C572 1.393 . S
C573 C574 1.392 . S
C573 H584 0.930 . S
C574 C573 1.392 . S
C574 C575 1.386 . S
C575 C574 1.386 . S
C575 C577 1.395 . S
C575 H585 0.930 . S
C576 C572 1.395 . S
C576 C577 1.379 . S
C576 H586 0.930 . S
C577 C575 1.395 . S
C577 C576 1.379 . S
C577 H587 0.930 . S
C578 O556 1.264 . S
C578 O557 1.254 . S
C579 Eu515 2.848 . S
C579 O554 1.257 . S
C579 O559 1.249 . S
C579 C572 1.492 . S
H580 C563 0.930 . S
H581 C564 0.930 . S
H582 C565 0.930 . S
H583 C566 0.930 . S
H584 C573 0.930 . S
H585 C575 0.930 . S
H586 C576 0.930 . S
H587 C577 0.930 . S
Eu588 N619 2.657 . S
Eu588 N626 2.609 . S
Eu588 O632 2.558 . S
Eu588 O633 2.612 . S
Eu588 O635 2.339 . S
Eu588 O636 2.563 . S
Eu588 O637 2.419 . S
Eu588 O639 2.380 . S
Eu588 O640 2.432 . S
Eu588 C652 2.848 . S
C589 C592 1.429 . S
C589 C593 1.411 . S
C589 N596 1.377 . S
C590 C592 1.420 . S
C590 C594 1.423 . S
C590 C602 1.392 . S
C591 C593 1.420 . S
C591 C594 1.351 . S
C591 H614 0.931 . S
C592 C589 1.429 . S
C592 C590 1.420 . S
C592 N600 1.362 . S
C593 C589 1.411 . S
C593 C591 1.420 . S
C593 C598 1.395 . S
C594 C590 1.423 . S
C594 C591 1.351 . S
C594 H606 0.930 . S
C595 C597 1.400 . S
C595 C598 1.386 . S
C595 H607 0.930 . S
N596 C589 1.377 . S
N596 C597 1.321 . S
N596 Eu599 2.609 . S
C597 C595 1.400 . S
C597 N596 1.321 . S
C597 H604 0.930 . S
C598 C593 1.395 . S
C598 C595 1.386 . S
C598 H617 0.930 . S
Eu599 N596 2.609 . S
Eu599 N600 2.657 . S
Eu599 O633 2.380 . S
Eu599 O634 2.432 . S
Eu599 O638 2.558 . S
Eu599 O639 2.612 . S
Eu599 O641 2.339 . S
Eu599 O642 2.563 . S
Eu599 O643 2.419 . S
Eu599 C663 2.848 . S
N600 C592 1.362 . S
N600 Eu599 2.657 . S
N600 C601 1.334 . S
C601 N600 1.334 . S
C601 C603 1.413 . S
C601 H608 0.929 . S
C602 C590 1.392 . S
C602 C603 1.367 . S
C602 H610 0.930 . S
C603 C601 1.413 . S
C603 C602 1.367 . S
C603 H605 0.930 . S
H604 C597 0.930 . S
H605 C603 0.930 . S
H606 C594 0.930 . S
H607 C595 0.930 . S
H608 C601 0.929 . S
H609 C623 0.930 . S
H610 C602 0.930 . S
H611 C629 0.930 . S
H612 C620 0.929 . S
H613 C627 0.930 . S
H614 C591 0.931 . S
H615 C621 0.930 . S
H616 C654 0.930 . S
H617 C598 0.930 . S
H618 C653 0.931 . S
N619 Eu588 2.657 . S
N619 C620 1.334 . S
N619 C624 1.362 . S
C620 H612 0.929 . S
C620 N619 1.334 . S
C620 C623 1.413 . S
C621 H615 0.930 . S
C621 C622 1.392 . S
C621 C623 1.367 . S
C622 C621 1.392 . S
C622 C624 1.420 . S
C622 C654 1.423 . S
C623 H609 0.930 . S
C623 C620 1.413 . S
C623 C621 1.367 . S
C624 N619 1.362 . S
C624 C622 1.420 . S
C624 C628 1.429 . S
H625 C630 0.930 . S
N626 Eu588 2.609 . S
N626 C628 1.377 . S
N626 C629 1.321 . S
C627 H613 0.930 . S
C627 C629 1.400 . S
C627 C630 1.386 . S
C628 C624 1.429 . S
C628 N626 1.377 . S
C628 C631 1.411 . S
C629 H611 0.930 . S
C629 N626 1.321 . S
C629 C627 1.400 . S
C630 H625 0.930 . S
C630 C627 1.386 . S
C630 C631 1.395 . S
C631 C628 1.411 . S
C631 C630 1.395 . S
C631 C653 1.420 . S
O632 Eu588 2.558 . S
O632 C652 1.257 . S
O633 Eu588 2.612 . S
O633 Eu599 2.380 . S
O633 C644 1.276 . S
O634 Eu599 2.432 . S
O634 C651 1.264 . S
O635 Eu588 2.339 . S
O635 C651 1.254 . S
O636 Eu588 2.563 . S
O636 C644 1.235 . S
O637 Eu588 2.419 . S
O637 C652 1.249 . S
O638 Eu599 2.558 . S
O638 C663 1.257 . S
O639 Eu588 2.380 . S
O639 Eu599 2.612 . S
O639 C655 1.276 . S
O640 Eu588 2.432 . S
O640 C662 1.264 . S
O641 Eu599 2.339 . S
O641 C662 1.254 . S
O642 Eu599 2.563 . S
O642 C655 1.235 . S
O643 Eu599 2.419 . S
O643 C663 1.249 . S
C644 O633 1.276 . S
C644 O636 1.235 . S
C645 C647 1.393 . S
C645 C649 1.395 . S
C645 C652 1.492 . S
C646 C647 1.392 . S
C646 C648 1.386 . S
C647 C645 1.393 . S
C647 C646 1.392 . S
C647 H664 0.930 . S
C648 C646 1.386 . S
C648 C650 1.395 . S
C648 H665 0.930 . S
C649 C645 1.395 . S
C649 C650 1.379 . S
C649 H666 0.930 . S
C650 C648 1.395 . S
C650 C649 1.379 . S
C650 H667 0.930 . S
C651 O634 1.264 . S
C651 O635 1.254 . S
C652 Eu588 2.848 . S
C652 O632 1.257 . S
C652 O637 1.249 . S
C652 C645 1.492 . S
C653 H618 0.931 . S
C653 C631 1.420 . S
C653 C654 1.351 . S
C654 H616 0.930 . S
C654 C622 1.423 . S
C654 C653 1.351 . S
C655 O639 1.276 . S
C655 O642 1.235 . S
C656 C657 1.393 . S
C656 C660 1.395 . S
C656 C663 1.492 . S
C657 C656 1.393 . S
C657 C658 1.392 . S
C657 H668 0.930 . S
C658 C657 1.392 . S
C658 C659 1.386 . S
C659 C658 1.386 . S
C659 C661 1.395 . S
C659 H669 0.930 . S
C660 C656 1.395 . S
C660 C661 1.379 . S
C660 H670 0.930 . S
C661 C659 1.395 . S
C661 C660 1.379 . S
C661 H671 0.930 . S
C662 O640 1.264 . S
C662 O641 1.254 . S
C663 Eu599 2.848 . S
C663 O638 1.257 . S
C663 O643 1.249 . S
C663 C656 1.492 . S
H664 C647 0.930 . S
H665 C648 0.930 . S
H666 C649 0.930 . S
H667 C650 0.930 . S
H668 C657 0.930 . S
H669 C659 0.930 . S
H670 C660 0.930 . S
H671 C661 0.930 . S
Eu672 N703 2.657 . S
Eu672 N710 2.609 . S
Eu672 O716 2.558 . S
Eu672 O717 2.612 . S
Eu672 O719 2.339 . S
Eu672 O720 2.563 . S
Eu672 O721 2.419 . S
Eu672 O723 2.380 . S
Eu672 O724 2.432 . S
Eu672 C736 2.848 . S
C673 C676 1.429 . S
C673 C677 1.411 . S
C673 N680 1.377 . S
C674 C676 1.420 . S
C674 C678 1.423 . S
C674 C686 1.392 . S
C675 C677 1.420 . S
C675 C678 1.351 . S
C675 H698 0.931 . S
C676 C673 1.429 . S
C676 C674 1.420 . S
C676 N684 1.362 . S
C677 C673 1.411 . S
C677 C675 1.420 . S
C677 C682 1.395 . S
C678 C674 1.423 . S
C678 C675 1.351 . S
C678 H690 0.930 . S
C679 C681 1.400 . S
C679 C682 1.386 . S
C679 H691 0.930 . S
N680 C673 1.377 . S
N680 C681 1.321 . S
N680 Eu683 2.609 . S
C681 C679 1.400 . S
C681 N680 1.321 . S
C681 H688 0.930 . S
C682 C677 1.395 . S
C682 C679 1.386 . S
C682 H701 0.930 . S
Eu683 N680 2.609 . S
Eu683 N684 2.657 . S
Eu683 O717 2.380 1_565 S
Eu683 O718 2.432 1_565 S
Eu683 O722 2.558 . S
Eu683 O723 2.612 1_565 S
Eu683 O725 2.339 . S
Eu683 O726 2.563 . S
Eu683 O727 2.419 . S
Eu683 C747 2.848 . S
N684 C676 1.362 . S
N684 Eu683 2.657 . S
N684 C685 1.334 . S
C685 N684 1.334 . S
C685 C687 1.413 1_455 S
C685 H692 0.929 . S
C686 C674 1.392 . S
C686 C687 1.367 1_455 S
C686 H694 0.930 1_455 S
C687 C685 1.413 1_655 S
C687 C686 1.367 1_655 S
C687 H689 0.930 . S
H688 C681 0.930 . S
H689 C687 0.930 . S
H690 C678 0.930 . S
H691 C679 0.930 . S
H692 C685 0.929 . S
H693 C707 0.930 . S
H694 C686 0.930 1_655 S
H695 C713 0.930 . S
H696 C704 0.929 . S
H697 C711 0.930 1_655 S
H698 C675 0.931 . S
H699 C705 0.930 . S
H700 C738 0.930 . S
H701 C682 0.930 . S
H702 C737 0.931 . S
N703 Eu672 2.657 . S
N703 C704 1.334 . S
N703 C708 1.362 . S
C704 H696 0.929 . S
C704 N703 1.334 . S
C704 C707 1.413 . S
C705 H699 0.930 . S
C705 C706 1.392 . S
C705 C707 1.367 . S
C706 C705 1.392 . S
C706 C708 1.420 . S
C706 C738 1.423 . S
C707 H693 0.930 . S
C707 C704 1.413 . S
C707 C705 1.367 . S
C708 N703 1.362 . S
C708 C706 1.420 . S
C708 C712 1.429 . S
H709 C714 0.930 . S
N710 Eu672 2.609 . S
N710 C712 1.377 . S
N710 C713 1.321 . S
C711 H697 0.930 1_455 S
C711 C713 1.400 . S
C711 C714 1.386 . S
C712 C708 1.429 . S
C712 N710 1.377 . S
C712 C715 1.411 . S
C713 H695 0.930 . S
C713 N710 1.321 . S
C713 C711 1.400 . S
C714 H709 0.930 . S
C714 C711 1.386 . S
C714 C715 1.395 . S
C715 C712 1.411 . S
C715 C714 1.395 . S
C715 C737 1.420 . S
O716 Eu672 2.558 . S
O716 C736 1.257 . S
O717 Eu672 2.612 . S
O717 Eu683 2.380 1_545 S
O717 C728 1.276 . S
O718 Eu683 2.432 1_545 S
O718 C735 1.264 . S
O719 Eu672 2.339 . S
O719 C735 1.254 . S
O720 Eu672 2.563 . S
O720 C728 1.235 . S
O721 Eu672 2.419 . S
O721 C736 1.249 . S
O722 Eu683 2.558 . S
O722 C747 1.257 . S
O723 Eu672 2.380 . S
O723 Eu683 2.612 1_545 S
O723 C739 1.276 . S
O724 Eu672 2.432 . S
O724 C746 1.264 . S
O725 Eu683 2.339 . S
O725 C746 1.254 1_565 S
O726 Eu683 2.563 . S
O726 C739 1.235 1_565 S
O727 Eu683 2.419 . S
O727 C747 1.249 . S
C728 O717 1.276 . S
C728 O720 1.235 . S
C729 C731 1.393 . S
C729 C733 1.395 . S
C729 C736 1.492 . S
C730 C731 1.392 . S
C730 C732 1.386 . S
C731 C729 1.393 . S
C731 C730 1.392 . S
C731 H748 0.930 . S
C732 C730 1.386 . S
C732 C734 1.395 . S
C732 H749 0.930 . S
C733 C729 1.395 . S
C733 C734 1.379 . S
C733 H750 0.930 . S
C734 C732 1.395 . S
C734 C733 1.379 . S
C734 H751 0.930 . S
C735 O718 1.264 . S
C735 O719 1.254 . S
C736 Eu672 2.848 . S
C736 O716 1.257 . S
C736 O721 1.249 . S
C736 C729 1.492 . S
C737 H702 0.931 . S
C737 C715 1.420 . S
C737 C738 1.351 . S
C738 H700 0.930 . S
C738 C706 1.423 . S
C738 C737 1.351 . S
C739 O723 1.276 . S
C739 O726 1.235 1_545 S
C740 C741 1.393 . S
C740 C744 1.395 . S
C740 C747 1.492 . S
C741 C740 1.393 . S
C741 C742 1.392 . S
C741 H752 0.930 . S
C742 C741 1.392 . S
C742 C743 1.386 . S
C743 C742 1.386 . S
C743 C745 1.395 . S
C743 H753 0.930 . S
C744 C740 1.395 . S
C744 C745 1.379 . S
C744 H754 0.930 . S
C745 C743 1.395 . S
C745 C744 1.379 . S
C745 H755 0.930 . S
C746 O724 1.264 . S
C746 O725 1.254 1_545 S
C747 Eu683 2.848 . S
C747 O722 1.257 . S
C747 O727 1.249 . S
C747 C740 1.492 . S
H748 C731 0.930 . S
H749 C732 0.930 . S
H750 C733 0.930 . S
H751 C734 0.930 . S
H752 C741 0.930 . S
H753 C743 0.930 . S
H754 C744 0.930 . S
H755 C745 0.930 . S
Eu756 N787 2.657 . S
Eu756 N794 2.609 . S
Eu756 O800 2.558 . S
Eu756 O801 2.612 . S
Eu756 O803 2.339 . S
Eu756 O804 2.563 . S
Eu756 O805 2.419 . S
Eu756 O807 2.380 . S
Eu756 O808 2.432 . S
Eu756 C820 2.848 . S
C757 C760 1.429 . S
C757 C761 1.411 . S
C757 N764 1.377 . S
C758 C760 1.420 . S
C758 C762 1.423 . S
C758 C770 1.392 . S
C759 C761 1.420 . S
C759 C762 1.351 . S
C759 H782 0.931 . S
C760 C757 1.429 . S
C760 C758 1.420 . S
C760 N768 1.362 . S
C761 C757 1.411 . S
C761 C759 1.420 . S
C761 C766 1.395 . S
C762 C758 1.423 . S
C762 C759 1.351 . S
C762 H774 0.930 . S
C763 C765 1.400 . S
C763 C766 1.386 . S
C763 H775 0.930 . S
N764 C757 1.377 . S
N764 C765 1.321 . S
N764 Eu767 2.609 . S
C765 C763 1.400 . S
C765 N764 1.321 . S
C765 H772 0.930 . S
C766 C761 1.395 . S
C766 C763 1.386 . S
C766 H785 0.930 . S
Eu767 N764 2.609 . S
Eu767 N768 2.657 . S
Eu767 O801 2.380 . S
Eu767 O802 2.432 . S
Eu767 O806 2.558 . S
Eu767 O807 2.612 . S
Eu767 O809 2.339 . S
Eu767 O810 2.563 . S
Eu767 O811 2.419 . S
Eu767 C831 2.848 . S
N768 C760 1.362 . S
N768 Eu767 2.657 . S
N768 C769 1.334 . S
C769 N768 1.334 . S
C769 C771 1.413 . S
C769 H776 0.929 . S
C770 C758 1.392 . S
C770 C771 1.367 . S
C770 H778 0.930 . S
C771 C769 1.413 . S
C771 C770 1.367 . S
C771 H773 0.930 . S
H772 C765 0.930 . S
H773 C771 0.930 . S
H774 C762 0.930 . S
H775 C763 0.930 . S
H776 C769 0.929 . S
H777 C791 0.930 . S
H778 C770 0.930 . S
H779 C797 0.930 . S
H780 C788 0.929 . S
H781 C795 0.930 . S
H782 C759 0.931 . S
H783 C789 0.930 . S
H784 C822 0.930 . S
H785 C766 0.930 . S
H786 C821 0.931 . S
N787 Eu756 2.657 . S
N787 C788 1.334 . S
N787 C792 1.362 . S
C788 H780 0.929 . S
C788 N787 1.334 . S
C788 C791 1.413 . S
C789 H783 0.930 . S
C789 C790 1.392 . S
C789 C791 1.367 . S
C790 C789 1.392 . S
C790 C792 1.420 . S
C790 C822 1.423 . S
C791 H777 0.930 . S
C791 C788 1.413 . S
C791 C789 1.367 . S
C792 N787 1.362 . S
C792 C790 1.420 . S
C792 C796 1.429 . S
H793 C798 0.930 . S
N794 Eu756 2.609 . S
N794 C796 1.377 . S
N794 C797 1.321 . S
C795 H781 0.930 . S
C795 C797 1.400 . S
C795 C798 1.386 . S
C796 C792 1.429 . S
C796 N794 1.377 . S
C796 C799 1.411 . S
C797 H779 0.930 . S
C797 N794 1.321 . S
C797 C795 1.400 . S
C798 H793 0.930 . S
C798 C795 1.386 . S
C798 C799 1.395 . S
C799 C796 1.411 . S
C799 C798 1.395 . S
C799 C821 1.420 . S
O800 Eu756 2.558 . S
O800 C820 1.257 . S
O801 Eu756 2.612 . S
O801 Eu767 2.380 . S
O801 C812 1.276 . S
O802 Eu767 2.432 . S
O802 C819 1.264 . S
O803 Eu756 2.339 . S
O803 C819 1.254 . S
O804 Eu756 2.563 . S
O804 C812 1.235 . S
O805 Eu756 2.419 . S
O805 C820 1.249 . S
O806 Eu767 2.558 . S
O806 C831 1.257 . S
O807 Eu756 2.380 . S
O807 Eu767 2.612 . S
O807 C823 1.276 . S
O808 Eu756 2.432 . S
O808 C830 1.264 . S
O809 Eu767 2.339 . S
O809 C830 1.254 . S
O810 Eu767 2.563 . S
O810 C823 1.235 . S
O811 Eu767 2.419 . S
O811 C831 1.249 . S
C812 O801 1.276 . S
C812 O804 1.235 . S
C813 C815 1.393 . S
C813 C817 1.395 . S
C813 C820 1.492 . S
C814 C815 1.392 . S
C814 C816 1.386 . S
C815 C813 1.393 . S
C815 C814 1.392 . S
C815 H832 0.930 . S
C816 C814 1.386 . S
C816 C818 1.395 . S
C816 H833 0.930 . S
C817 C813 1.395 . S
C817 C818 1.379 . S
C817 H834 0.930 . S
C818 C816 1.395 . S
C818 C817 1.379 . S
C818 H835 0.930 . S
C819 O802 1.264 . S
C819 O803 1.254 . S
C820 Eu756 2.848 . S
C820 O800 1.257 . S
C820 O805 1.249 . S
C820 C813 1.492 . S
C821 H786 0.931 . S
C821 C799 1.420 . S
C821 C822 1.351 . S
C822 H784 0.930 . S
C822 C790 1.423 . S
C822 C821 1.351 . S
C823 O807 1.276 . S
C823 O810 1.235 . S
C824 C825 1.393 . S
C824 C828 1.395 . S
C824 C831 1.492 . S
C825 C824 1.393 . S
C825 C826 1.392 . S
C825 H836 0.930 . S
C826 C825 1.392 . S
C826 C827 1.386 . S
C827 C826 1.386 . S
C827 C829 1.395 . S
C827 H837 0.930 . S
C828 C824 1.395 . S
C828 C829 1.379 . S
C828 H838 0.930 . S
C829 C827 1.395 . S
C829 C828 1.379 . S
C829 H839 0.930 . S
C830 O808 1.264 . S
C830 O809 1.254 . S
C831 Eu767 2.848 . S
C831 O806 1.257 . S
C831 O811 1.249 . S
C831 C824 1.492 . S
H832 C815 0.930 . S
H833 C816 0.930 . S
H834 C817 0.930 . S
H835 C818 0.930 . S
H836 C825 0.930 . S
H837 C827 0.930 . S
H838 C828 0.930 . S
H839 C829 0.930 . S
Eu840 N871 2.657 . S
Eu840 N878 2.609 1_545 S
Eu840 O884 2.558 1_545 S
Eu840 O885 2.612 . S
Eu840 O887 2.339 . S
Eu840 O888 2.563 1_545 S
Eu840 O889 2.419 . S
Eu840 O891 2.380 . S
Eu840 O892 2.432 1_545 S
Eu840 C904 2.848 1_545 S
C841 C844 1.429 . S
C841 C845 1.411 . S
C841 N848 1.377 . S
C842 C844 1.417 1_565 S
C842 C846 1.415 1_565 S
C842 C854 1.403 . S
C843 C845 1.420 . S
C843 C846 1.351 . S
C843 H866 0.931 . S
C844 C841 1.429 . S
C844 C842 1.417 1_545 S
C844 N852 1.362 . S
C845 C841 1.411 . S
C845 C843 1.420 . S
C845 C850 1.395 . S
C846 C842 1.415 1_545 S
C846 C843 1.351 . S
C846 H858 0.926 1_545 S
C847 C849 1.400 . S
C847 C850 1.386 . S
C847 H859 0.930 . S
N848 C841 1.377 . S
N848 C849 1.321 . S
N848 Eu851 2.609 . S
C849 C847 1.400 . S
C849 N848 1.321 . S
C849 H856 0.930 . S
C850 C845 1.395 . S
C850 C847 1.386 . S
C850 H869 0.930 . S
Eu851 N848 2.609 . S
Eu851 N852 2.657 . S
Eu851 O885 2.380 1_556 S
Eu851 O886 2.432 1_556 S
Eu851 O890 2.558 . S
Eu851 O891 2.612 1_556 S
Eu851 O893 2.319 1_545 S
Eu851 O894 2.563 . S
Eu851 O895 2.419 . S
Eu851 C915 2.848 . S
N852 C844 1.362 . S
N852 Eu851 2.657 . S
N852 C853 1.334 1_545 S
C853 N852 1.334 1_565 S
C853 C855 1.413 . S
C853 H860 0.929 . S
C854 C842 1.403 . S
C854 C855 1.367 . S
C854 H862 0.930 . S
C855 C853 1.413 . S
C855 C854 1.367 . S
C855 H857 0.930 . S
H856 C849 0.930 . S
H857 C855 0.930 . S
H858 C846 0.926 1_565 S
H859 C847 0.930 . S
H860 C853 0.929 . S
H861 C875 0.930 . S
H862 C854 0.930 . S
H863 C881 0.930 . S
H864 C872 0.929 . S
H865 C879 0.930 . S
H866 C843 0.931 . S
H867 C873 0.930 . S
H868 C906 0.930 . S
H869 C850 0.930 . S
H870 C905 0.931 . S
N871 Eu840 2.657 . S
N871 C872 1.334 . S
N871 C876 1.362 . S
C872 H864 0.929 . S
C872 N871 1.334 . S
C872 C875 1.413 . S
C873 H867 0.930 . S
C873 C874 1.392 . S
C873 C875 1.367 . S
C874 C873 1.392 . S
C874 C876 1.420 . S
C874 C906 1.423 . S
C875 H861 0.930 . S
C875 C872 1.413 . S
C875 C873 1.367 . S
C876 N871 1.362 . S
C876 C874 1.420 . S
C876 C880 1.429 . S
H877 C882 0.930 . S
N878 Eu840 2.609 1_565 S
N878 C880 1.377 1_565 S
N878 C881 1.321 . S
C879 H865 0.930 . S
C879 C881 1.400 . S
C879 C882 1.386 . S
C880 C876 1.429 . S
C880 N878 1.377 1_545 S
C880 C883 1.411 . S
C881 H863 0.930 . S
C881 N878 1.321 . S
C881 C879 1.400 . S
C882 H877 0.930 . S
C882 C879 1.386 . S
C882 C883 1.395 1_565 S
C883 C880 1.411 . S
C883 C882 1.395 1_545 S
C883 C905 1.420 . S
O884 Eu840 2.558 1_565 S
O884 C904 1.257 . S
O885 Eu840 2.612 . S
O885 Eu851 2.380 1_554 S
O885 C896 1.276 . S
O886 Eu851 2.432 1_554 S
O886 C903 1.264 . S
O887 Eu840 2.339 . S
O887 C903 1.254 . S
O888 Eu840 2.563 1_565 S
O888 C896 1.235 1_565 S
O889 Eu840 2.419 . S
O889 C904 1.249 1_545 S
O890 Eu851 2.558 . S
O890 C915 1.257 . S
O891 Eu840 2.380 . S
O891 Eu851 2.612 1_554 S
O891 C907 1.276 . S
O892 Eu840 2.432 1_565 S
O892 C914 1.264 1_554 S
O893 Eu851 2.319 1_565 S
O893 C914 1.271 . S
O894 Eu851 2.563 . S
O894 C907 1.235 1_556 S
O895 Eu851 2.419 . S
O895 C915 1.249 . S
C896 O885 1.276 . S
C896 O888 1.235 1_545 S
C897 C899 1.393 1_565 S
C897 C901 1.395 . S
C897 C904 1.492 . S
C898 C899 1.392 1_565 S
C898 C900 1.386 . S
C899 C897 1.393 1_545 S
C899 C898 1.392 1_545 S
C899 H916 0.930 . S
C900 C898 1.386 . S
C900 C902 1.395 . S
C900 H917 0.930 . S
C901 C897 1.395 . S
C901 C902 1.379 . S
C901 H918 0.930 . S
C902 C900 1.395 . S
C902 C901 1.379 . S
C902 H919 0.930 . S
C903 O886 1.264 . S
C903 O887 1.254 . S
C904 Eu840 2.848 1_565 S
C904 O884 1.257 . S
C904 O889 1.249 1_565 S
C904 C897 1.492 . S
C905 H870 0.931 . S
C905 C883 1.420 . S
C905 C906 1.351 . S
C906 H868 0.930 . S
C906 C874 1.423 . S
C906 C905 1.351 . S
C907 O891 1.276 . S
C907 O894 1.235 1_554 S
C908 C909 1.393 . S
C908 C912 1.395 . S
C908 C915 1.492 . S
C909 C908 1.393 . S
C909 C910 1.392 . S
C909 H920 0.930 . S
C910 C909 1.392 . S
C910 C911 1.386 . S
C911 C910 1.386 . S
C911 C913 1.395 . S
C911 H921 0.930 . S
C912 C908 1.395 . S
C912 C913 1.379 . S
C912 H922 0.930 . S
C913 C911 1.395 . S
C913 C912 1.379 . S
C913 H923 0.930 . S
C914 O892 1.264 1_556 S
C914 O893 1.271 . S
C915 Eu851 2.848 . S
C915 O890 1.257 . S
C915 O895 1.249 . S
C915 C908 1.492 . S
H916 C899 0.930 . S
H917 C900 0.930 . S
H918 C901 0.930 . S
H919 C902 0.930 . S
H920 C909 0.930 . S
H921 C911 0.930 . S
H922 C912 0.930 . S
H923 C913 0.930 . S
Eu924 N955 2.657 . S
Eu924 N962 2.609 . S
Eu924 O968 2.558 . S
Eu924 O969 2.612 . S
Eu924 O971 2.339 . S
Eu924 O972 2.563 . S
Eu924 O973 2.419 . S
Eu924 O975 2.380 . S
Eu924 O976 2.432 . S
Eu924 C988 2.848 . S
C925 C928 1.429 . S
C925 C929 1.411 . S
C925 N932 1.377 . S
C926 C928 1.420 . S
C926 C930 1.423 . S
C926 C938 1.392 . S
C927 C929 1.420 . S
C927 C930 1.351 . S
C927 H950 0.931 . S
C928 C925 1.429 . S
C928 C926 1.420 . S
C928 N936 1.362 . S
C929 C925 1.411 . S
C929 C927 1.420 . S
C929 C934 1.395 . S
C930 C926 1.423 . S
C930 C927 1.351 . S
C930 H942 0.930 . S
C931 C933 1.400 . S
C931 C934 1.386 . S
C931 H943 0.930 . S
N932 C925 1.377 . S
N932 C933 1.321 . S
N932 Eu935 2.609 . S
C933 C931 1.400 . S
C933 N932 1.321 . S
C933 H940 0.930 . S
C934 C929 1.395 . S
C934 C931 1.386 . S
C934 H953 0.930 . S
Eu935 N932 2.609 . S
Eu935 N936 2.657 . S
Eu935 O969 2.380 . S
Eu935 O970 2.432 . S
Eu935 O974 2.558 . S
Eu935 O975 2.612 . S
Eu935 O977 2.339 . S
Eu935 O978 2.563 . S
Eu935 O979 2.419 . S
Eu935 C999 2.848 . S
N936 C928 1.362 . S
N936 Eu935 2.657 . S
N936 C937 1.334 . S
C937 N936 1.334 . S
C937 C939 1.413 . S
C937 H944 0.929 . S
C938 C926 1.392 . S
C938 C939 1.367 . S
C938 H946 0.930 . S
C939 C937 1.413 . S
C939 C938 1.367 . S
C939 H941 0.930 . S
H940 C933 0.930 . S
H941 C939 0.930 . S
H942 C930 0.930 . S
H943 C931 0.930 . S
H944 C937 0.929 . S
H945 C959 0.930 . S
H946 C938 0.930 . S
H947 C965 0.930 . S
H948 C956 0.929 . S
H949 C963 0.930 . S
H950 C927 0.931 . S
H951 C957 0.930 . S
H952 C990 0.930 . S
H953 C934 0.930 . S
H954 C989 0.931 . S
N955 Eu924 2.657 . S
N955 C956 1.334 . S
N955 C960 1.362 . S
C956 H948 0.929 . S
C956 N955 1.334 . S
C956 C959 1.413 . S
C957 H951 0.930 . S
C957 C958 1.392 . S
C957 C959 1.367 . S
C958 C957 1.392 . S
C958 C960 1.420 . S
C958 C990 1.423 . S
C959 H945 0.930 . S
C959 C956 1.413 . S
C959 C957 1.367 . S
C960 N955 1.362 . S
C960 C958 1.420 . S
C960 C964 1.429 . S
H961 C966 0.930 . S
N962 Eu924 2.609 . S
N962 C964 1.377 . S
N962 C965 1.321 . S
C963 H949 0.930 . S
C963 C965 1.400 . S
C963 C966 1.386 . S
C964 C960 1.429 . S
C964 N962 1.377 . S
C964 C967 1.411 . S
C965 H947 0.930 . S
C965 N962 1.321 . S
C965 C963 1.400 . S
C966 H961 0.930 . S
C966 C963 1.386 . S
C966 C967 1.395 . S
C967 C964 1.411 . S
C967 C966 1.395 . S
C967 C989 1.420 . S
O968 Eu924 2.558 . S
O968 C988 1.257 . S
O969 Eu924 2.612 . S
O969 Eu935 2.380 . S
O969 C980 1.276 . S
O970 Eu935 2.432 . S
O970 C987 1.264 . S
O971 Eu924 2.339 . S
O971 C987 1.254 . S
O972 Eu924 2.563 . S
O972 C980 1.235 . S
O973 Eu924 2.419 . S
O973 C988 1.249 . S
O974 Eu935 2.558 . S
O974 C999 1.257 . S
O975 Eu924 2.380 . S
O975 Eu935 2.612 . S
O975 C991 1.276 . S
O976 Eu924 2.432 . S
O976 C998 1.264 . S
O977 Eu935 2.339 . S
O977 C998 1.254 . S
O978 Eu935 2.563 . S
O978 C991 1.235 . S
O979 Eu935 2.419 . S
O979 C999 1.249 . S
C980 O969 1.276 . S
C980 O972 1.235 . S
C981 C983 1.393 . S
C981 C985 1.395 . S
C981 C988 1.492 . S
C982 C983 1.392 . S
C982 C984 1.386 . S
C983 C981 1.393 . S
C983 C982 1.392 . S
C983 H1000 0.930 . S
C984 C982 1.386 . S
C984 C986 1.395 . S
C984 H1001 0.930 . S
C985 C981 1.395 . S
C985 C986 1.379 . S
C985 H1002 0.930 . S
C986 C984 1.395 . S
C986 C985 1.379 . S
C986 H1003 0.930 . S
C987 O970 1.264 . S
C987 O971 1.254 . S
C988 Eu924 2.848 . S
C988 O968 1.257 . S
C988 O973 1.249 . S
C988 C981 1.492 . S
C989 H954 0.931 . S
C989 C967 1.420 . S
C989 C990 1.351 . S
C990 H952 0.930 . S
C990 C958 1.423 . S
C990 C989 1.351 . S
C991 O975 1.276 . S
C991 O978 1.235 . S
C992 C993 1.393 . S
C992 C996 1.395 . S
C992 C999 1.492 . S
C993 C992 1.393 . S
C993 C994 1.392 . S
C993 H1004 0.930 . S
C994 C993 1.392 . S
C994 C995 1.386 . S
C995 C994 1.386 . S
C995 C997 1.395 . S
C995 H1005 0.930 . S
C996 C992 1.395 . S
C996 C997 1.379 . S
C996 H1006 0.930 . S
C997 C995 1.395 . S
C997 C996 1.379 . S
C997 H1007 0.930 . S
C998 O976 1.264 . S
C998 O977 1.254 . S
C999 Eu935 2.848 . S
C999 O974 1.257 . S
C999 O979 1.249 . S
C999 C992 1.492 . S
H1000 C983 0.930 . S
H1001 C984 0.930 . S
H1002 C985 0.930 . S
H1003 C986 0.930 . S
H1004 C993 0.930 . S
H1005 C995 0.930 . S
H1006 C996 0.930 . S
H1007 C997 0.930 . S
Eu1008 N1039 2.657 . S
Eu1008 N1046 2.609 . S
Eu1008 O1052 2.558 . S
Eu1008 O1053 2.612 1_554 S
Eu1008 O1055 2.339 . S
Eu1008 O1056 2.563 1_554 S
Eu1008 O1057 2.419 . S
Eu1008 O1059 2.380 . S
Eu1008 O1060 2.432 . S
Eu1008 C1072 2.848 . S
C1009 C1012 1.429 . S
C1009 C1013 1.411 . S
C1009 N1016 1.377 . S
C1010 C1012 1.420 . S
C1010 C1014 1.423 . S
C1010 C1022 1.392 . S
C1011 C1013 1.420 . S
C1011 C1014 1.351 . S
C1011 H1034 0.931 . S
C1012 C1009 1.429 . S
C1012 C1010 1.420 . S
C1012 N1020 1.362 . S
C1013 C1009 1.411 . S
C1013 C1011 1.420 . S
C1013 C1018 1.395 . S
C1014 C1010 1.423 . S
C1014 C1011 1.351 . S
C1014 H1026 0.930 . S
C1015 C1017 1.400 . S
C1015 C1018 1.386 . S
C1015 H1027 0.930 . S
N1016 C1009 1.377 . S
N1016 C1017 1.321 . S
N1016 Eu1019 2.609 1_556 S
C1017 C1015 1.400 . S
C1017 N1016 1.321 . S
C1017 H1024 0.930 . S
C1018 C1013 1.395 . S
C1018 C1015 1.386 . S
C1018 H1037 0.930 . S
Eu1019 N1016 2.609 1_554 S
Eu1019 N1020 2.657 1_554 S
Eu1019 O1053 2.380 1_554 S
Eu1019 O1054 2.432 . S
Eu1019 O1058 2.558 . S
Eu1019 O1059 2.612 . S
Eu1019 O1061 2.339 . S
Eu1019 O1062 2.563 . S
Eu1019 O1063 2.419 . S
Eu1019 C1083 2.848 . S
N1020 C1012 1.362 . S
N1020 Eu1019 2.657 1_556 S
N1020 C1021 1.334 . S
C1021 N1020 1.334 . S
C1021 C1023 1.413 . S
C1021 H1028 0.929 . S
C1022 C1010 1.392 . S
C1022 C1023 1.367 . S
C1022 H1030 0.930 . S
C1023 C1021 1.413 . S
C1023 C1022 1.367 . S
C1023 H1025 0.930 . S
H1024 C1017 0.930 . S
H1025 C1023 0.930 . S
H1026 C1014 0.930 . S
H1027 C1015 0.930 . S
H1028 C1021 0.929 . S
H1029 C1043 0.930 . S
H1030 C1022 0.930 . S
H1031 C1049 0.930 . S
H1032 C1040 0.929 . S
H1033 C1047 0.930 . S
H1034 C1011 0.931 . S
H1035 C1041 0.930 . S
H1036 C1074 0.930 . S
H1037 C1018 0.930 . S
H1038 C1073 0.931 . S
N1039 Eu1008 2.657 . S
N1039 C1040 1.334 . S
N1039 C1044 1.362 . S
C1040 H1032 0.929 . S
C1040 N1039 1.334 . S
C1040 C1043 1.413 . S
C1041 H1035 0.930 . S
C1041 C1042 1.392 . S
C1041 C1043 1.367 . S
C1042 C1041 1.392 . S
C1042 C1044 1.420 . S
C1042 C1074 1.423 . S
C1043 H1029 0.930 . S
C1043 C1040 1.413 . S
C1043 C1041 1.367 . S
C1044 N1039 1.362 . S
C1044 C1042 1.420 . S
C1044 C1048 1.429 . S
H1045 C1050 0.930 . S
N1046 Eu1008 2.609 . S
N1046 C1048 1.377 . S
N1046 C1049 1.321 . S
C1047 H1033 0.930 . S
C1047 C1049 1.400 . S
C1047 C1050 1.386 . S
C1048 C1044 1.429 . S
C1048 N1046 1.377 . S
C1048 C1051 1.411 . S
C1049 H1031 0.930 . S
C1049 N1046 1.321 . S
C1049 C1047 1.400 . S
C1050 H1045 0.930 . S
C1050 C1047 1.386 . S
C1050 C1051 1.395 . S
C1051 C1048 1.411 . S
C1051 C1050 1.395 . S
C1051 C1073 1.420 . S
O1052 Eu1008 2.558 . S
O1052 C1072 1.257 . S
O1053 Eu1008 2.612 1_556 S
O1053 Eu1019 2.380 1_556 S
O1053 C1064 1.276 . S
O1054 Eu1019 2.432 . S
O1054 C1071 1.264 . S
O1055 Eu1008 2.339 . S
O1055 C1071 1.254 . S
O1056 Eu1008 2.563 1_556 S
O1056 C1064 1.235 . S
O1057 Eu1008 2.419 . S
O1057 C1072 1.249 . S
O1058 Eu1019 2.558 . S
O1058 C1083 1.257 . S
O1059 Eu1008 2.380 . S
O1059 Eu1019 2.612 . S
O1059 C1075 1.276 . S
O1060 Eu1008 2.432 . S
O1060 C1082 1.264 . S
O1061 Eu1019 2.339 . S
O1061 C1082 1.254 . S
O1062 Eu1019 2.563 . S
O1062 C1075 1.235 . S
O1063 Eu1019 2.419 . S
O1063 C1083 1.249 . S
C1064 O1053 1.276 . S
C1064 O1056 1.235 . S
C1065 C1067 1.393 . S
C1065 C1069 1.395 . S
C1065 C1072 1.492 . S
C1066 C1067 1.392 1_556 S
C1066 C1068 1.386 1_556 S
C1067 C1065 1.393 . S
C1067 C1066 1.392 1_554 S
C1067 H1084 0.930 1_554 S
C1068 C1066 1.386 1_554 S
C1068 C1070 1.395 . S
C1068 H1085 0.930 . S
C1069 C1065 1.395 . S
C1069 C1070 1.379 . S
C1069 H1086 0.930 . S
C1070 C1068 1.395 . S
C1070 C1069 1.379 . S
C1070 H1087 0.930 . S
C1071 O1054 1.264 . S
C1071 O1055 1.254 . S
C1072 Eu1008 2.848 . S
C1072 O1052 1.257 . S
C1072 O1057 1.249 . S
C1072 C1065 1.492 . S
C1073 H1038 0.931 . S
C1073 C1051 1.420 . S
C1073 C1074 1.351 . S
C1074 H1036 0.930 . S
C1074 C1042 1.423 . S
C1074 C1073 1.351 . S
C1075 O1059 1.276 . S
C1075 O1062 1.235 . S
C1076 C1077 1.393 . S
C1076 C1080 1.395 . S
C1076 C1083 1.492 . S
C1077 C1076 1.393 . S
C1077 C1078 1.392 . S
C1077 H1088 0.930 . S
C1078 C1077 1.392 . S
C1078 C1079 1.386 . S
C1079 C1078 1.386 . S
C1079 C1081 1.395 . S
C1079 H1089 0.930 . S
C1080 C1076 1.395 . S
C1080 C1081 1.379 . S
C1080 H1090 0.930 1_554 S
C1081 C1079 1.395 . S
C1081 C1080 1.379 . S
C1081 H1091 0.930 . S
C1082 O1060 1.264 . S
C1082 O1061 1.254 . S
C1083 Eu1019 2.848 . S
C1083 O1058 1.257 . S
C1083 O1063 1.249 . S
C1083 C1076 1.492 . S
H1084 C1067 0.930 1_556 S
H1085 C1068 0.930 . S
H1086 C1069 0.930 . S
H1087 C1070 0.930 . S
H1088 C1077 0.930 . S
H1089 C1079 0.930 . S
H1090 C1080 0.930 1_556 S
H1091 C1081 0.930 . S
Eu1092 N1123 2.657 . S
Eu1092 N1130 2.609 . S
Eu1092 O1136 2.558 . S
Eu1092 O1137 2.612 . S
Eu1092 O1139 2.339 . S
Eu1092 O1140 2.563 . S
Eu1092 O1141 2.419 . S
Eu1092 O1143 2.380 . S
Eu1092 O1144 2.432 . S
Eu1092 C1156 2.848 . S
C1093 C1096 1.429 . S
C1093 C1097 1.411 . S
C1093 N1100 1.377 . S
C1094 C1096 1.420 . S
C1094 C1098 1.423 . S
C1094 C1106 1.392 . S
C1095 C1097 1.420 . S
C1095 C1098 1.351 . S
C1095 H1118 0.931 . S
C1096 C1093 1.429 . S
C1096 C1094 1.420 . S
C1096 N1104 1.362 . S
C1097 C1093 1.411 . S
C1097 C1095 1.420 . S
C1097 C1102 1.395 . S
C1098 C1094 1.423 . S
C1098 C1095 1.351 . S
C1098 H1110 0.930 . S
C1099 C1101 1.400 . S
C1099 C1102 1.386 . S
C1099 H1111 0.930 . S
N1100 C1093 1.377 . S
N1100 C1101 1.321 . S
N1100 Eu1103 2.609 . S
C1101 C1099 1.400 . S
C1101 N1100 1.321 . S
C1101 H1108 0.930 . S
C1102 C1097 1.395 . S
C1102 C1099 1.386 . S
C1102 H1121 0.930 . S
Eu1103 N1100 2.609 . S
Eu1103 N1104 2.657 . S
Eu1103 O1137 2.380 . S
Eu1103 O1138 2.432 . S
Eu1103 O1142 2.558 . S
Eu1103 O1143 2.612 . S
Eu1103 O1145 2.339 . S
Eu1103 O1146 2.563 . S
Eu1103 O1147 2.419 . S
Eu1103 C1167 2.848 . S
N1104 C1096 1.362 . S
N1104 Eu1103 2.657 . S
N1104 C1105 1.334 . S
C1105 N1104 1.334 . S
C1105 C1107 1.413 . S
C1105 H1112 0.929 . S
C1106 C1094 1.392 . S
C1106 C1107 1.367 . S
C1106 H1114 0.930 . S
C1107 C1105 1.413 . S
C1107 C1106 1.367 . S
C1107 H1109 0.930 . S
H1108 C1101 0.930 . S
H1109 C1107 0.930 . S
H1110 C1098 0.930 . S
H1111 C1099 0.930 . S
H1112 C1105 0.929 . S
H1113 C1127 0.930 . S
H1114 C1106 0.930 . S
H1115 C1133 0.930 . S
H1116 C1124 0.929 . S
H1117 C1131 0.930 . S
H1118 C1095 0.931 . S
H1119 C1125 0.930 . S
H1120 C1158 0.930 . S
H1121 C1102 0.930 . S
H1122 C1157 0.931 . S
N1123 Eu1092 2.657 . S
N1123 C1124 1.334 . S
N1123 C1128 1.362 . S
C1124 H1116 0.929 . S
C1124 N1123 1.334 . S
C1124 C1127 1.413 . S
C1125 H1119 0.930 . S
C1125 C1126 1.392 . S
C1125 C1127 1.367 . S
C1126 C1125 1.392 . S
C1126 C1128 1.420 . S
C1126 C1158 1.423 . S
C1127 H1113 0.930 . S
C1127 C1124 1.413 . S
C1127 C1125 1.367 . S
C1128 N1123 1.362 . S
C1128 C1126 1.420 . S
C1128 C1132 1.429 . S
H1129 C1134 0.930 . S
N1130 Eu1092 2.609 . S
N1130 C1132 1.377 . S
N1130 C1133 1.321 . S
C1131 H1117 0.930 . S
C1131 C1133 1.400 . S
C1131 C1134 1.386 . S
C1132 C1128 1.429 . S
C1132 N1130 1.377 . S
C1132 C1135 1.411 . S
C1133 H1115 0.930 . S
C1133 N1130 1.321 . S
C1133 C1131 1.400 . S
C1134 H1129 0.930 . S
C1134 C1131 1.386 . S
C1134 C1135 1.395 . S
C1135 C1132 1.411 . S
C1135 C1134 1.395 . S
C1135 C1157 1.420 . S
O1136 Eu1092 2.558 . S
O1136 C1156 1.257 . S
O1137 Eu1092 2.612 . S
O1137 Eu1103 2.380 . S
O1137 C1148 1.276 . S
O1138 Eu1103 2.432 . S
O1138 C1155 1.264 . S
O1139 Eu1092 2.339 . S
O1139 C1155 1.254 . S
O1140 Eu1092 2.563 . S
O1140 C1148 1.235 . S
O1141 Eu1092 2.419 . S
O1141 C1156 1.249 . S
O1142 Eu1103 2.558 . S
O1142 C1167 1.257 . S
O1143 Eu1092 2.380 . S
O1143 Eu1103 2.612 . S
O1143 C1159 1.276 . S
O1144 Eu1092 2.432 . S
O1144 C1166 1.264 . S
O1145 Eu1103 2.339 . S
O1145 C1166 1.254 . S
O1146 Eu1103 2.563 . S
O1146 C1159 1.235 . S
O1147 Eu1103 2.419 . S
O1147 C1167 1.249 . S
C1148 O1137 1.276 . S
C1148 O1140 1.235 . S
C1149 C1151 1.393 . S
C1149 C1153 1.395 . S
C1149 C1156 1.492 . S
C1150 C1151 1.392 . S
C1150 C1152 1.386 1_655 S
C1151 C1149 1.393 . S
C1151 C1150 1.392 . S
C1151 H1168 0.930 . S
C1152 C1150 1.386 1_455 S
C1152 C1154 1.395 1_455 S
C1152 H1169 0.930 . S
C1153 C1149 1.395 . S
C1153 C1154 1.379 . S
C1153 H1170 0.930 . S
C1154 C1152 1.395 1_655 S
C1154 C1153 1.379 . S
C1154 H1171 0.930 1_655 S
C1155 O1138 1.264 . S
C1155 O1139 1.254 . S
C1156 Eu1092 2.848 . S
C1156 O1136 1.257 . S
C1156 O1141 1.249 . S
C1156 C1149 1.492 . S
C1157 H1122 0.931 . S
C1157 C1135 1.420 . S
C1157 C1158 1.351 . S
C1158 H1120 0.930 . S
C1158 C1126 1.423 . S
C1158 C1157 1.351 . S
C1159 O1143 1.276 . S
C1159 O1146 1.235 . S
C1160 C1161 1.393 . S
C1160 C1164 1.395 . S
C1160 C1167 1.492 . S
C1161 C1160 1.393 . S
C1161 C1162 1.392 . S
C1161 H1172 0.930 . S
C1162 C1161 1.392 . S
C1162 C1163 1.386 . S
C1163 C1162 1.386 . S
C1163 C1165 1.395 . S
C1163 H1173 0.930 . S
C1164 C1160 1.395 . S
C1164 C1165 1.379 . S
C1164 H1174 0.930 . S
C1165 C1163 1.395 . S
C1165 C1164 1.379 . S
C1165 H1175 0.930 . S
C1166 O1144 1.264 . S
C1166 O1145 1.254 . S
C1167 Eu1103 2.848 . S
C1167 O1142 1.257 . S
C1167 O1147 1.249 . S
C1167 C1160 1.492 . S
H1168 C1151 0.930 . S
H1169 C1152 0.930 . S
H1170 C1153 0.930 . S
H1171 C1154 0.930 1_455 S
H1172 C1161 0.930 . S
H1173 C1163 0.930 . S
H1174 C1164 0.930 . S
H1175 C1165 0.930 . S
Eu1176 N1207 2.657 . S
Eu1176 N1214 2.609 . S
Eu1176 O1220 2.558 . S
Eu1176 O1221 2.612 . S
Eu1176 O1223 2.339 . S
Eu1176 O1224 2.563 . S
Eu1176 O1225 2.419 . S
Eu1176 O1227 2.380 . S
Eu1176 O1228 2.432 . S
Eu1176 C1240 2.848 . S
C1177 C1180 1.429 1_455 S
C1177 C1181 1.411 1_455 S
C1177 N1184 1.377 . S
C1178 C1180 1.420 . S
C1178 C1182 1.423 . S
C1178 C1190 1.392 . S
C1179 C1181 1.420 . S
C1179 C1182 1.351 . S
C1179 H1202 0.931 . S
C1180 C1177 1.429 1_655 S
C1180 C1178 1.420 . S
C1180 N1188 1.362 1_655 S
C1181 C1177 1.411 1_655 S
C1181 C1179 1.420 . S
C1181 C1186 1.395 . S
C1182 C1178 1.423 . S
C1182 C1179 1.351 . S
C1182 H1194 0.930 . S
C1183 C1185 1.400 . S
C1183 C1186 1.386 1_455 S
C1183 H1195 0.930 . S
N1184 C1177 1.377 . S
N1184 C1185 1.321 . S
N1184 Eu1187 2.609 . S
C1185 C1183 1.400 . S
C1185 N1184 1.321 . S
C1185 H1192 0.930 . S
C1186 C1181 1.395 . S
C1186 C1183 1.386 1_655 S
C1186 H1205 0.930 . S
Eu1187 N1184 2.609 . S
Eu1187 N1188 2.657 . S
Eu1187 O1221 2.380 . S
Eu1187 O1222 2.432 . S
Eu1187 O1226 2.558 . S
Eu1187 O1227 2.612 . S
Eu1187 O1229 2.339 . S
Eu1187 O1230 2.563 . S
Eu1187 O1231 2.419 . S
Eu1187 C1251 2.848 . S
N1188 C1180 1.362 1_455 S
N1188 Eu1187 2.657 . S
N1188 C1189 1.334 . S
C1189 N1188 1.334 . S
C1189 C1191 1.413 1_455 S
C1189 H1196 0.929 . S
C1190 C1178 1.392 . S
C1190 C1191 1.367 . S
C1190 H1198 0.930 . S
C1191 C1189 1.413 1_655 S
C1191 C1190 1.367 . S
C1191 H1193 0.930 . S
H1192 C1185 0.930 . S
H1193 C1191 0.930 . S
H1194 C1182 0.930 . S
H1195 C1183 0.930 . S
H1196 C1189 0.929 . S
H1197 C1211 0.930 . S
H1198 C1190 0.930 . S
H1199 C1217 0.930 . S
H1200 C1208 0.929 . S
H1201 C1215 0.930 . S
H1202 C1179 0.931 . S
H1203 C1209 0.930 . S
H1204 C1242 0.930 . S
H1205 C1186 0.930 . S
H1206 C1241 0.931 . S
N1207 Eu1176 2.657 . S
N1207 C1208 1.334 . S
N1207 C1212 1.362 . S
C1208 H1200 0.929 . S
C1208 N1207 1.334 . S
C1208 C1211 1.413 . S
C1209 H1203 0.930 . S
C1209 C1210 1.392 . S
C1209 C1211 1.367 . S
C1210 C1209 1.392 . S
C1210 C1212 1.420 . S
C1210 C1242 1.423 . S
C1211 H1197 0.930 . S
C1211 C1208 1.413 . S
C1211 C1209 1.367 . S
C1212 N1207 1.362 . S
C1212 C1210 1.420 . S
C1212 C1216 1.429 . S
H1213 C1218 0.930 . S
N1214 Eu1176 2.609 . S
N1214 C1216 1.377 . S
N1214 C1217 1.321 . S
C1215 H1201 0.930 . S
C1215 C1217 1.400 . S
C1215 C1218 1.386 . S
C1216 C1212 1.429 . S
C1216 N1214 1.377 . S
C1216 C1219 1.411 . S
C1217 H1199 0.930 . S
C1217 N1214 1.321 . S
C1217 C1215 1.400 . S
C1218 H1213 0.930 . S
C1218 C1215 1.386 . S
C1218 C1219 1.395 . S
C1219 C1216 1.411 . S
C1219 C1218 1.395 . S
C1219 C1241 1.420 . S
O1220 Eu1176 2.558 . S
O1220 C1240 1.257 . S
O1221 Eu1176 2.612 . S
O1221 Eu1187 2.380 . S
O1221 C1232 1.276 . S
O1222 Eu1187 2.432 . S
O1222 C1239 1.264 . S
O1223 Eu1176 2.339 . S
O1223 C1239 1.254 . S
O1224 Eu1176 2.563 . S
O1224 C1232 1.235 . S
O1225 Eu1176 2.419 . S
O1225 C1240 1.249 . S
O1226 Eu1187 2.558 . S
O1226 C1251 1.257 . S
O1227 Eu1176 2.380 . S
O1227 Eu1187 2.612 . S
O1227 C1243 1.276 . S
O1228 Eu1176 2.432 . S
O1228 C1250 1.264 . S
O1229 Eu1187 2.339 . S
O1229 C1250 1.254 . S
O1230 Eu1187 2.563 . S
O1230 C1243 1.235 . S
O1231 Eu1187 2.419 . S
O1231 C1251 1.249 . S
C1232 O1221 1.276 . S
C1232 O1224 1.235 . S
C1233 C1235 1.393 . S
C1233 C1237 1.395 . S
C1233 C1240 1.492 . S
C1234 C1235 1.392 . S
C1234 C1236 1.386 . S
C1235 C1233 1.393 . S
C1235 C1234 1.392 . S
C1235 H1252 0.930 . S
C1236 C1234 1.386 . S
C1236 C1238 1.395 . S
C1236 H1253 0.930 1_455 S
C1237 C1233 1.395 . S
C1237 C1238 1.379 . S
C1237 H1254 0.930 . S
C1238 C1236 1.395 . S
C1238 C1237 1.379 . S
C1238 H1255 0.930 . S
C1239 O1222 1.264 . S
C1239 O1223 1.254 . S
C1240 Eu1176 2.848 . S
C1240 O1220 1.257 . S
C1240 O1225 1.249 . S
C1240 C1233 1.492 . S
C1241 H1206 0.931 . S
C1241 C1219 1.420 . S
C1241 C1242 1.351 . S
C1242 H1204 0.930 . S
C1242 C1210 1.423 . S
C1242 C1241 1.351 . S
C1243 O1227 1.276 . S
C1243 O1230 1.235 . S
C1244 C1245 1.393 . S
C1244 C1248 1.395 . S
C1244 C1251 1.492 . S
C1245 C1244 1.393 . S
C1245 C1246 1.392 . S
C1245 H1256 0.930 . S
C1246 C1245 1.392 . S
C1246 C1247 1.386 . S
C1247 C1246 1.386 . S
C1247 C1249 1.395 . S
C1247 H1257 0.930 . S
C1248 C1244 1.395 . S
C1248 C1249 1.379 . S
C1248 H1258 0.930 . S
C1249 C1247 1.395 . S
C1249 C1248 1.379 . S
C1249 H1259 0.930 . S
C1250 O1228 1.264 . S
C1250 O1229 1.254 . S
C1251 Eu1187 2.848 . S
C1251 O1226 1.257 . S
C1251 O1231 1.249 . S
C1251 C1244 1.492 . S
H1252 C1235 0.930 . S
H1253 C1236 0.930 1_655 S
H1254 C1237 0.930 . S
H1255 C1238 0.930 . S
H1256 C1245 0.930 . S
H1257 C1247 0.930 . S
H1258 C1248 0.930 . S
H1259 C1249 0.930 . S
Eu1260 N1291 2.657 . S
Eu1260 N1298 2.609 . S
Eu1260 O1304 2.558 . S
Eu1260 O1305 2.612 . S
Eu1260 O1307 2.339 . S
Eu1260 O1308 2.563 . S
Eu1260 O1309 2.419 . S
Eu1260 O1311 2.380 . S
Eu1260 O1312 2.432 . S
Eu1260 C1324 2.848 . S
C1261 C1264 1.429 . S
C1261 C1265 1.411 . S
C1261 N1268 1.377 . S
C1262 C1264 1.420 . S
C1262 C1266 1.423 . S
C1262 C1274 1.392 . S
C1263 C1265 1.420 . S
C1263 C1266 1.351 . S
C1263 H1286 0.931 . S
C1264 C1261 1.429 . S
C1264 C1262 1.420 . S
C1264 N1272 1.362 . S
C1265 C1261 1.411 . S
C1265 C1263 1.420 . S
C1265 C1270 1.395 . S
C1266 C1262 1.423 . S
C1266 C1263 1.351 . S
C1266 H1278 0.930 . S
C1267 C1269 1.400 . S
C1267 C1270 1.386 . S
C1267 H1279 0.930 . S
N1268 C1261 1.377 . S
N1268 C1269 1.321 . S
N1268 Eu1271 2.609 . S
C1269 C1267 1.400 . S
C1269 N1268 1.321 . S
C1269 H1276 0.930 . S
C1270 C1265 1.395 . S
C1270 C1267 1.386 . S
C1270 H1289 0.930 . S
Eu1271 N1268 2.609 . S
Eu1271 N1272 2.657 . S
Eu1271 O1305 2.380 . S
Eu1271 O1306 2.432 . S
Eu1271 O1310 2.558 . S
Eu1271 O1311 2.612 . S
Eu1271 O1313 2.339 . S
Eu1271 O1314 2.563 . S
Eu1271 O1315 2.419 . S
Eu1271 C1335 2.848 . S
N1272 C1264 1.362 . S
N1272 Eu1271 2.657 . S
N1272 C1273 1.334 . S
C1273 N1272 1.334 . S
C1273 C1275 1.413 . S
C1273 H1280 0.929 . S
C1274 C1262 1.392 . S
C1274 C1275 1.367 . S
C1274 H1282 0.930 . S
C1275 C1273 1.413 . S
C1275 C1274 1.367 . S
C1275 H1277 0.930 . S
H1276 C1269 0.930 . S
H1277 C1275 0.930 . S
H1278 C1266 0.930 . S
H1279 C1267 0.930 . S
H1280 C1273 0.929 . S
H1281 C1295 0.930 . S
H1282 C1274 0.930 . S
H1283 C1301 0.930 . S
H1284 C1292 0.929 . S
H1285 C1299 0.930 . S
H1286 C1263 0.931 . S
H1287 C1293 0.930 . S
H1288 C1326 0.930 . S
H1289 C1270 0.930 . S
H1290 C1325 0.931 . S
N1291 Eu1260 2.657 . S
N1291 C1292 1.334 . S
N1291 C1296 1.362 . S
C1292 H1284 0.929 . S
C1292 N1291 1.334 . S
C1292 C1295 1.413 . S
C1293 H1287 0.930 . S
C1293 C1294 1.392 . S
C1293 C1295 1.367 . S
C1294 C1293 1.392 . S
C1294 C1296 1.420 . S
C1294 C1326 1.423 . S
C1295 H1281 0.930 . S
C1295 C1292 1.413 . S
C1295 C1293 1.367 . S
C1296 N1291 1.362 . S
C1296 C1294 1.420 . S
C1296 C1300 1.429 . S
H1297 C1302 0.930 . S
N1298 Eu1260 2.609 . S
N1298 C1300 1.377 . S
N1298 C1301 1.321 . S
C1299 H1285 0.930 . S
C1299 C1301 1.400 . S
C1299 C1302 1.386 . S
C1300 C1296 1.429 . S
C1300 N1298 1.377 . S
C1300 C1303 1.411 . S
C1301 H1283 0.930 . S
C1301 N1298 1.321 . S
C1301 C1299 1.400 . S
C1302 H1297 0.930 . S
C1302 C1299 1.386 . S
C1302 C1303 1.395 . S
C1303 C1300 1.411 . S
C1303 C1302 1.395 . S
C1303 C1325 1.420 . S
O1304 Eu1260 2.558 . S
O1304 C1324 1.257 . S
O1305 Eu1260 2.612 . S
O1305 Eu1271 2.380 . S
O1305 C1316 1.276 . S
O1306 Eu1271 2.432 . S
O1306 C1323 1.264 . S
O1307 Eu1260 2.339 . S
O1307 C1323 1.254 . S
O1308 Eu1260 2.563 . S
O1308 C1316 1.235 . S
O1309 Eu1260 2.419 . S
O1309 C1324 1.249 . S
O1310 Eu1271 2.558 . S
O1310 C1335 1.257 . S
O1311 Eu1260 2.380 . S
O1311 Eu1271 2.612 . S
O1311 C1327 1.276 . S
O1312 Eu1260 2.432 . S
O1312 C1334 1.264 . S
O1313 Eu1271 2.339 . S
O1313 C1334 1.254 . S
O1314 Eu1271 2.563 . S
O1314 C1327 1.235 . S
O1315 Eu1271 2.419 . S
O1315 C1335 1.249 . S
C1316 O1305 1.276 . S
C1316 O1308 1.235 . S
C1317 C1319 1.393 . S
C1317 C1321 1.395 . S
C1317 C1324 1.492 . S
C1318 C1319 1.392 . S
C1318 C1320 1.386 . S
C1319 C1317 1.393 . S
C1319 C1318 1.392 . S
C1319 H1336 0.930 . S
C1320 C1318 1.386 . S
C1320 C1322 1.395 . S
C1320 H1337 0.930 . S
C1321 C1317 1.395 . S
C1321 C1322 1.379 . S
C1321 H1338 0.930 . S
C1322 C1320 1.395 . S
C1322 C1321 1.379 . S
C1322 H1339 0.930 . S
C1323 O1306 1.264 . S
C1323 O1307 1.254 . S
C1324 Eu1260 2.848 . S
C1324 O1304 1.257 . S
C1324 O1309 1.249 . S
C1324 C1317 1.492 . S
C1325 H1290 0.931 . S
C1325 C1303 1.420 . S
C1325 C1326 1.351 . S
C1326 H1288 0.930 . S
C1326 C1294 1.423 . S
C1326 C1325 1.351 . S
C1327 O1311 1.276 . S
C1327 O1314 1.235 . S
C1328 C1329 1.393 . S
C1328 C1332 1.395 . S
C1328 C1335 1.492 . S
C1329 C1328 1.393 . S
C1329 C1330 1.392 . S
C1329 H1340 0.930 . S
C1330 C1329 1.392 . S
C1330 C1331 1.386 . S
C1331 C1330 1.386 . S
C1331 C1333 1.395 . S
C1331 H1341 0.930 . S
C1332 C1328 1.395 . S
C1332 C1333 1.379 . S
C1332 H1342 0.930 . S
C1333 C1331 1.395 . S
C1333 C1332 1.379 . S
C1333 H1343 0.930 . S
C1334 O1312 1.264 . S
C1334 O1313 1.254 . S
C1335 Eu1271 2.848 . S
C1335 O1310 1.257 . S
C1335 O1315 1.249 . S
C1335 C1328 1.492 . S
H1336 C1319 0.930 . S
H1337 C1320 0.930 . S
H1338 C1321 0.930 . S
H1339 C1322 0.930 . S
H1340 C1329 0.930 . S
H1341 C1331 0.930 . S
H1342 C1332 0.930 . S
H1343 C1333 0.930 . S
Eu1344 N1375 2.657 . S
Eu1344 N1382 2.609 . S
Eu1344 O1388 2.558 . S
Eu1344 O1389 2.612 . S
Eu1344 O1391 2.339 . S
Eu1344 O1392 2.563 . S
Eu1344 O1393 2.419 . S
Eu1344 O1395 2.380 . S
Eu1344 O1396 2.432 . S
Eu1344 C1408 2.848 . S
C1345 C1348 1.429 . S
C1345 C1349 1.411 . S
C1345 N1352 1.377 . S
C1346 C1348 1.420 . S
C1346 C1350 1.423 . S
C1346 C1358 1.392 . S
C1347 C1349 1.420 . S
C1347 C1350 1.351 . S
C1347 H1370 0.931 . S
C1348 C1345 1.429 . S
C1348 C1346 1.420 . S
C1348 N1356 1.362 . S
C1349 C1345 1.411 . S
C1349 C1347 1.420 . S
C1349 C1354 1.395 . S
C1350 C1346 1.423 . S
C1350 C1347 1.351 . S
C1350 H1362 0.930 . S
C1351 C1353 1.400 . S
C1351 C1354 1.386 . S
C1351 H1363 0.930 . S
N1352 C1345 1.377 . S
N1352 C1353 1.321 . S
N1352 Eu1355 2.609 . S
C1353 C1351 1.400 . S
C1353 N1352 1.321 . S
C1353 H1360 0.930 . S
C1354 C1349 1.395 . S
C1354 C1351 1.386 . S
C1354 H1373 0.930 . S
Eu1355 N1352 2.609 . S
Eu1355 N1356 2.657 . S
Eu1355 O1389 2.380 . S
Eu1355 O1390 2.432 . S
Eu1355 O1394 2.558 . S
Eu1355 O1395 2.612 . S
Eu1355 O1397 2.339 . S
Eu1355 O1398 2.563 . S
Eu1355 O1399 2.419 . S
Eu1355 C1419 2.848 . S
N1356 C1348 1.362 . S
N1356 Eu1355 2.657 . S
N1356 C1357 1.334 . S
C1357 N1356 1.334 . S
C1357 C1359 1.413 . S
C1357 H1364 0.929 . S
C1358 C1346 1.392 . S
C1358 C1359 1.367 . S
C1358 H1366 0.930 . S
C1359 C1357 1.413 . S
C1359 C1358 1.367 . S
C1359 H1361 0.930 . S
H1360 C1353 0.930 . S
H1361 C1359 0.930 . S
H1362 C1350 0.930 . S
H1363 C1351 0.930 . S
H1364 C1357 0.929 . S
H1365 C1379 0.930 . S
H1366 C1358 0.930 . S
H1367 C1385 0.930 . S
H1368 C1376 0.929 . S
H1369 C1383 0.930 . S
H1370 C1347 0.931 . S
H1371 C1377 0.930 . S
H1372 C1410 0.930 . S
H1373 C1354 0.930 . S
H1374 C1409 0.931 . S
N1375 Eu1344 2.657 . S
N1375 C1376 1.334 . S
N1375 C1380 1.362 . S
C1376 H1368 0.929 . S
C1376 N1375 1.334 . S
C1376 C1379 1.413 . S
C1377 H1371 0.930 . S
C1377 C1378 1.392 . S
C1377 C1379 1.367 . S
C1378 C1377 1.392 . S
C1378 C1380 1.420 . S
C1378 C1410 1.423 . S
C1379 H1365 0.930 . S
C1379 C1376 1.413 . S
C1379 C1377 1.367 . S
C1380 N1375 1.362 . S
C1380 C1378 1.420 . S
C1380 C1384 1.429 . S
H1381 C1386 0.930 . S
N1382 Eu1344 2.609 . S
N1382 C1384 1.377 . S
N1382 C1385 1.321 . S
C1383 H1369 0.930 . S
C1383 C1385 1.400 . S
C1383 C1386 1.386 . S
C1384 C1380 1.429 . S
C1384 N1382 1.377 . S
C1384 C1387 1.411 . S
C1385 H1367 0.930 . S
C1385 N1382 1.321 . S
C1385 C1383 1.400 . S
C1386 H1381 0.930 . S
C1386 C1383 1.386 . S
C1386 C1387 1.395 . S
C1387 C1384 1.411 . S
C1387 C1386 1.395 . S
C1387 C1409 1.420 . S
O1388 Eu1344 2.558 . S
O1388 C1408 1.257 . S
O1389 Eu1344 2.612 . S
O1389 Eu1355 2.380 . S
O1389 C1400 1.276 . S
O1390 Eu1355 2.432 . S
O1390 C1407 1.264 . S
O1391 Eu1344 2.339 . S
O1391 C1407 1.254 . S
O1392 Eu1344 2.563 . S
O1392 C1400 1.235 . S
O1393 Eu1344 2.419 . S
O1393 C1408 1.249 . S
O1394 Eu1355 2.558 . S
O1394 C1419 1.257 . S
O1395 Eu1344 2.380 . S
O1395 Eu1355 2.612 . S
O1395 C1411 1.276 . S
O1396 Eu1344 2.432 . S
O1396 C1418 1.264 . S
O1397 Eu1355 2.339 . S
O1397 C1418 1.254 . S
O1398 Eu1355 2.563 . S
O1398 C1411 1.235 . S
O1399 Eu1355 2.419 . S
O1399 C1419 1.249 . S
C1400 O1389 1.276 . S
C1400 O1392 1.235 . S
C1401 C1403 1.393 . S
C1401 C1405 1.395 . S
C1401 C1408 1.492 . S
C1402 C1403 1.392 . S
C1402 C1404 1.386 . S
C1403 C1401 1.393 . S
C1403 C1402 1.392 . S
C1403 H1420 0.930 . S
C1404 C1402 1.386 . S
C1404 C1406 1.395 . S
C1404 H1421 0.930 . S
C1405 C1401 1.395 . S
C1405 C1406 1.379 . S
C1405 H1422 0.930 . S
C1406 C1404 1.395 . S
C1406 C1405 1.379 . S
C1406 H1423 0.930 . S
C1407 O1390 1.264 . S
C1407 O1391 1.254 . S
C1408 Eu1344 2.848 . S
C1408 O1388 1.257 . S
C1408 O1393 1.249 . S
C1408 C1401 1.492 . S
C1409 H1374 0.931 . S
C1409 C1387 1.420 . S
C1409 C1410 1.351 . S
C1410 H1372 0.930 . S
C1410 C1378 1.423 . S
C1410 C1409 1.351 . S
C1411 O1395 1.276 . S
C1411 O1398 1.235 . S
C1412 C1413 1.393 . S
C1412 C1416 1.395 . S
C1412 C1419 1.492 . S
C1413 C1412 1.393 . S
C1413 C1414 1.392 . S
C1413 H1424 0.930 . S
C1414 C1413 1.392 . S
C1414 C1415 1.386 . S
C1415 C1414 1.386 . S
C1415 C1417 1.395 . S
C1415 H1425 0.930 . S
C1416 C1412 1.395 . S
C1416 C1417 1.379 . S
C1416 H1426 0.930 . S
C1417 C1415 1.395 . S
C1417 C1416 1.379 . S
C1417 H1427 0.930 . S
C1418 O1396 1.264 . S
C1418 O1397 1.254 . S
C1419 Eu1355 2.848 . S
C1419 O1394 1.257 . S
C1419 O1399 1.249 . S
C1419 C1412 1.492 . S
H1420 C1403 0.930 . S
H1421 C1404 0.930 . S
H1422 C1405 0.930 . S
H1423 C1406 0.930 . S
H1424 C1413 0.930 . S
H1425 C1415 0.930 . S
H1426 C1416 0.930 . S
H1427 C1417 0.930 . S
Eu1428 N1459 2.657 . S
Eu1428 N1466 2.609 . S
Eu1428 O1472 2.558 . S
Eu1428 O1473 2.612 . S
Eu1428 O1475 2.339 . S
Eu1428 O1476 2.563 . S
Eu1428 O1477 2.419 . S
Eu1428 O1479 2.380 . S
Eu1428 O1480 2.432 . S
Eu1428 C1492 2.848 . S
C1429 C1432 1.429 . S
C1429 C1433 1.411 . S
C1429 N1436 1.377 . S
C1430 C1432 1.420 . S
C1430 C1434 1.423 . S
C1430 C1442 1.392 . S
C1431 C1433 1.420 . S
C1431 C1434 1.351 . S
C1431 H1454 0.931 . S
C1432 C1429 1.429 . S
C1432 C1430 1.420 . S
C1432 N1440 1.362 . S
C1433 C1429 1.411 . S
C1433 C1431 1.420 . S
C1433 C1438 1.395 . S
C1434 C1430 1.423 . S
C1434 C1431 1.351 . S
C1434 H1446 0.930 . S
C1435 C1437 1.400 . S
C1435 C1438 1.386 . S
C1435 H1447 0.930 . S
N1436 C1429 1.377 . S
N1436 C1437 1.321 . S
N1436 Eu1439 2.609 . S
C1437 C1435 1.400 . S
C1437 N1436 1.321 . S
C1437 H1444 0.930 . S
C1438 C1433 1.395 . S
C1438 C1435 1.386 . S
C1438 H1457 0.930 . S
Eu1439 N1436 2.609 . S
Eu1439 N1440 2.657 . S
Eu1439 O1473 2.380 . S
Eu1439 O1474 2.432 . S
Eu1439 O1478 2.558 . S
Eu1439 O1479 2.612 . S
Eu1439 O1481 2.339 . S
Eu1439 O1482 2.563 . S
Eu1439 O1483 2.419 . S
Eu1439 C1503 2.848 . S
N1440 C1432 1.362 . S
N1440 Eu1439 2.657 . S
N1440 C1441 1.334 . S
C1441 N1440 1.334 . S
C1441 C1443 1.413 . S
C1441 H1448 0.929 . S
C1442 C1430 1.392 . S
C1442 C1443 1.367 . S
C1442 H1450 0.930 . S
C1443 C1441 1.413 . S
C1443 C1442 1.367 . S
C1443 H1445 0.930 . S
H1444 C1437 0.930 . S
H1445 C1443 0.930 . S
H1446 C1434 0.930 . S
H1447 C1435 0.930 . S
H1448 C1441 0.929 . S
H1449 C1463 0.930 . S
H1450 C1442 0.930 . S
H1451 C1469 0.930 . S
H1452 C1460 0.929 . S
H1453 C1467 0.930 . S
H1454 C1431 0.931 . S
H1455 C1461 0.930 . S
H1456 C1494 0.930 . S
H1457 C1438 0.930 . S
H1458 C1493 0.931 . S
N1459 Eu1428 2.657 . S
N1459 C1460 1.334 . S
N1459 C1464 1.362 . S
C1460 H1452 0.929 . S
C1460 N1459 1.334 . S
C1460 C1463 1.413 . S
C1461 H1455 0.930 . S
C1461 C1462 1.392 . S
C1461 C1463 1.367 . S
C1462 C1461 1.392 . S
C1462 C1464 1.420 . S
C1462 C1494 1.423 . S
C1463 H1449 0.930 . S
C1463 C1460 1.413 . S
C1463 C1461 1.367 . S
C1464 N1459 1.362 . S
C1464 C1462 1.420 . S
C1464 C1468 1.429 . S
H1465 C1470 0.930 . S
N1466 Eu1428 2.609 . S
N1466 C1468 1.377 . S
N1466 C1469 1.321 . S
C1467 H1453 0.930 . S
C1467 C1469 1.400 . S
C1467 C1470 1.386 . S
C1468 C1464 1.429 . S
C1468 N1466 1.377 . S
C1468 C1471 1.411 . S
C1469 H1451 0.930 . S
C1469 N1466 1.321 . S
C1469 C1467 1.400 . S
C1470 H1465 0.930 . S
C1470 C1467 1.386 . S
C1470 C1471 1.395 . S
C1471 C1468 1.411 . S
C1471 C1470 1.395 . S
C1471 C1493 1.420 . S
O1472 Eu1428 2.558 . S
O1472 C1492 1.257 . S
O1473 Eu1428 2.612 . S
O1473 Eu1439 2.380 . S
O1473 C1484 1.276 . S
O1474 Eu1439 2.432 . S
O1474 C1491 1.264 . S
O1475 Eu1428 2.339 . S
O1475 C1491 1.254 . S
O1476 Eu1428 2.563 . S
O1476 C1484 1.235 . S
O1477 Eu1428 2.419 . S
O1477 C1492 1.249 . S
O1478 Eu1439 2.558 . S
O1478 C1503 1.257 . S
O1479 Eu1428 2.380 . S
O1479 Eu1439 2.612 . S
O1479 C1495 1.276 . S
O1480 Eu1428 2.432 . S
O1480 C1502 1.264 . S
O1481 Eu1439 2.339 . S
O1481 C1502 1.254 . S
O1482 Eu1439 2.563 . S
O1482 C1495 1.235 . S
O1483 Eu1439 2.419 . S
O1483 C1503 1.249 . S
C1484 O1473 1.276 . S
C1484 O1476 1.235 . S
C1485 C1487 1.393 . S
C1485 C1489 1.395 . S
C1485 C1492 1.492 . S
C1486 C1487 1.392 . S
C1486 C1488 1.386 . S
C1487 C1485 1.393 . S
C1487 C1486 1.392 . S
C1487 H1504 0.930 . S
C1488 C1486 1.386 . S
C1488 C1490 1.395 . S
C1488 H1505 0.930 1_565 S
C1489 C1485 1.395 . S
C1489 C1490 1.379 . S
C1489 H1506 0.930 . S
C1490 C1488 1.395 . S
C1490 C1489 1.379 . S
C1490 H1507 0.930 . S
C1491 O1474 1.264 . S
C1491 O1475 1.254 . S
C1492 Eu1428 2.848 . S
C1492 O1472 1.257 . S
C1492 O1477 1.249 . S
C1492 C1485 1.492 . S
C1493 H1458 0.931 . S
C1493 C1471 1.420 . S
C1493 C1494 1.351 . S
C1494 H1456 0.930 . S
C1494 C1462 1.423 . S
C1494 C1493 1.351 . S
C1495 O1479 1.276 . S
C1495 O1482 1.235 . S
C1496 C1497 1.393 . S
C1496 C1500 1.395 . S
C1496 C1503 1.492 . S
C1497 C1496 1.393 . S
C1497 C1498 1.392 . S
C1497 H1508 0.930 . S
C1498 C1497 1.392 . S
C1498 C1499 1.386 . S
C1499 C1498 1.386 . S
C1499 C1501 1.395 . S
C1499 H1509 0.930 . S
C1500 C1496 1.395 . S
C1500 C1501 1.379 . S
C1500 H1510 0.930 . S
C1501 C1499 1.395 . S
C1501 C1500 1.379 . S
C1501 H1511 0.930 . S
C1502 O1480 1.264 . S
C1502 O1481 1.254 . S
C1503 Eu1439 2.848 . S
C1503 O1478 1.257 . S
C1503 O1483 1.249 . S
C1503 C1496 1.492 . S
H1504 C1487 0.930 . S
H1505 C1488 0.930 1_545 S
H1506 C1489 0.930 . S
H1507 C1490 0.930 . S
H1508 C1497 0.930 . S
H1509 C1499 0.930 . S
H1510 C1500 0.930 . S
H1511 C1501 0.930 . S
Eu1512 N1543 2.657 . S
Eu1512 N1550 2.609 . S
Eu1512 O1556 2.558 . S
Eu1512 O1557 2.612 . S
Eu1512 O1559 2.339 . S
Eu1512 O1560 2.563 . S
Eu1512 O1561 2.419 . S
Eu1512 O1563 2.380 . S
Eu1512 O1564 2.432 . S
Eu1512 C1576 2.848 . S
C1513 C1516 1.429 . S
C1513 C1517 1.411 . S
C1513 N1520 1.377 . S
C1514 C1516 1.420 . S
C1514 C1518 1.423 . S
C1514 C1526 1.392 . S
C1515 C1517 1.420 . S
C1515 C1518 1.351 . S
C1515 H1538 0.931 . S
C1516 C1513 1.429 . S
C1516 C1514 1.420 . S
C1516 N1524 1.362 . S
C1517 C1513 1.411 . S
C1517 C1515 1.420 . S
C1517 C1522 1.395 . S
C1518 C1514 1.423 . S
C1518 C1515 1.351 . S
C1518 H1530 0.930 . S
C1519 C1521 1.400 . S
C1519 C1522 1.386 . S
C1519 H1531 0.930 . S
N1520 C1513 1.377 . S
N1520 C1521 1.321 . S
N1520 Eu1523 2.609 . S
C1521 C1519 1.400 . S
C1521 N1520 1.321 . S
C1521 H1528 0.930 . S
C1522 C1517 1.395 . S
C1522 C1519 1.386 . S
C1522 H1541 0.930 . S
Eu1523 N1520 2.609 . S
Eu1523 N1524 2.657 . S
Eu1523 O1557 2.380 . S
Eu1523 O1558 2.432 . S
Eu1523 O1562 2.558 . S
Eu1523 O1563 2.612 . S
Eu1523 O1565 2.339 . S
Eu1523 O1566 2.563 . S
Eu1523 O1567 2.419 . S
Eu1523 C1587 2.848 . S
N1524 C1516 1.362 . S
N1524 Eu1523 2.657 . S
N1524 C1525 1.334 . S
C1525 N1524 1.334 . S
C1525 C1527 1.413 . S
C1525 H1532 0.929 . S
C1526 C1514 1.392 . S
C1526 C1527 1.367 . S
C1526 H1534 0.930 . S
C1527 C1525 1.413 . S
C1527 C1526 1.367 . S
C1527 H1529 0.930 . S
H1528 C1521 0.930 . S
H1529 C1527 0.930 . S
H1530 C1518 0.930 . S
H1531 C1519 0.930 . S
H1532 C1525 0.929 . S
H1533 C1547 0.930 . S
H1534 C1526 0.930 . S
H1535 C1553 0.930 . S
H1536 C1544 0.929 . S
H1537 C1551 0.930 . S
H1538 C1515 0.931 . S
H1539 C1545 0.930 . S
H1540 C1578 0.930 . S
H1541 C1522 0.930 . S
H1542 C1577 0.931 . S
N1543 Eu1512 2.657 . S
N1543 C1544 1.334 . S
N1543 C1548 1.362 . S
C1544 H1536 0.929 . S
C1544 N1543 1.334 . S
C1544 C1547 1.413 . S
C1545 H1539 0.930 . S
C1545 C1546 1.392 . S
C1545 C1547 1.367 . S
C1546 C1545 1.392 . S
C1546 C1548 1.420 . S
C1546 C1578 1.423 . S
C1547 H1533 0.930 . S
C1547 C1544 1.413 . S
C1547 C1545 1.367 . S
C1548 N1543 1.362 . S
C1548 C1546 1.420 . S
C1548 C1552 1.429 . S
H1549 C1554 0.930 . S
N1550 Eu1512 2.609 . S
N1550 C1552 1.377 . S
N1550 C1553 1.321 . S
C1551 H1537 0.930 . S
C1551 C1553 1.400 . S
C1551 C1554 1.386 . S
C1552 C1548 1.429 . S
C1552 N1550 1.377 . S
C1552 C1555 1.411 . S
C1553 H1535 0.930 . S
C1553 N1550 1.321 . S
C1553 C1551 1.400 . S
C1554 H1549 0.930 . S
C1554 C1551 1.386 . S
C1554 C1555 1.395 . S
C1555 C1552 1.411 . S
C1555 C1554 1.395 . S
C1555 C1577 1.420 . S
O1556 Eu1512 2.558 . S
O1556 C1576 1.257 . S
O1557 Eu1512 2.612 . S
O1557 Eu1523 2.380 . S
O1557 C1568 1.276 . S
O1558 Eu1523 2.432 . S
O1558 C1575 1.264 . S
O1559 Eu1512 2.339 . S
O1559 C1575 1.254 . S
O1560 Eu1512 2.563 . S
O1560 C1568 1.235 . S
O1561 Eu1512 2.419 . S
O1561 C1576 1.249 . S
O1562 Eu1523 2.558 . S
O1562 C1587 1.257 . S
O1563 Eu1512 2.380 . S
O1563 Eu1523 2.612 . S
O1563 C1579 1.276 . S
O1564 Eu1512 2.432 . S
O1564 C1586 1.264 . S
O1565 Eu1523 2.339 . S
O1565 C1586 1.254 . S
O1566 Eu1523 2.563 . S
O1566 C1579 1.235 . S
O1567 Eu1523 2.419 . S
O1567 C1587 1.249 . S
C1568 O1557 1.276 . S
C1568 O1560 1.235 . S
C1569 C1571 1.393 . S
C1569 C1573 1.395 . S
C1569 C1576 1.492 . S
C1570 C1571 1.392 . S
C1570 C1572 1.386 . S
C1571 C1569 1.393 . S
C1571 C1570 1.392 . S
C1571 H1588 0.930 . S
C1572 C1570 1.386 . S
C1572 C1574 1.395 . S
C1572 H1589 0.930 . S
C1573 C1569 1.395 . S
C1573 C1574 1.379 . S
C1573 H1590 0.930 . S
C1574 C1572 1.395 . S
C1574 C1573 1.379 . S
C1574 H1591 0.930 . S
C1575 O1558 1.264 . S
C1575 O1559 1.254 . S
C1576 Eu1512 2.848 . S
C1576 O1556 1.257 . S
C1576 O1561 1.249 . S
C1576 C1569 1.492 . S
C1577 H1542 0.931 . S
C1577 C1555 1.420 . S
C1577 C1578 1.351 . S
C1578 H1540 0.930 . S
C1578 C1546 1.423 . S
C1578 C1577 1.351 . S
C1579 O1563 1.276 . S
C1579 O1566 1.235 . S
C1580 C1581 1.393 . S
C1580 C1584 1.395 . S
C1580 C1587 1.492 . S
C1581 C1580 1.393 . S
C1581 C1582 1.392 . S
C1581 H1592 0.930 . S
C1582 C1581 1.392 . S
C1582 C1583 1.386 . S
C1583 C1582 1.386 . S
C1583 C1585 1.395 . S
C1583 H1593 0.930 . S
C1584 C1580 1.395 . S
C1584 C1585 1.379 . S
C1584 H1594 0.930 . S
C1585 C1583 1.395 . S
C1585 C1584 1.379 . S
C1585 H1595 0.930 . S
C1586 O1564 1.264 . S
C1586 O1565 1.254 . S
C1587 Eu1523 2.848 . S
C1587 O1562 1.257 . S
C1587 O1567 1.249 . S
C1587 C1580 1.492 . S
H1588 C1571 0.930 . S
H1589 C1572 0.930 . S
H1590 C1573 0.930 . S
H1591 C1574 0.930 . S
H1592 C1581 0.930 . S
H1593 C1583 0.930 . S
H1594 C1584 0.930 . S
H1595 C1585 0.930 . S
Eu1596 N1627 2.661 . S
Eu1596 N1634 2.583 1_554 S
Eu1596 O1640 2.538 1_554 S
Eu1596 O1641 2.630 . S
Eu1596 O1643 2.370 . S
Eu1596 O1644 2.569 1_554 S
Eu1596 O1645 2.424 . S
Eu1596 O1647 2.389 . S
Eu1596 O1648 2.412 1_554 S
Eu1596 C1660 2.839 1_554 S
C1597 C1600 1.429 . S
C1597 C1601 1.411 . S
C1597 N1604 1.377 1_655 S
C1598 C1600 1.420 . S
C1598 C1602 1.423 . S
C1598 C1610 1.392 1_554 S
C1599 C1601 1.420 . S
C1599 C1602 1.351 . S
C1599 H1622 0.931 . S
C1600 C1597 1.429 . S
C1600 C1598 1.420 . S
C1600 N1608 1.362 . S
C1601 C1597 1.411 . S
C1601 C1599 1.420 . S
C1601 C1606 1.395 . S
C1602 C1598 1.423 . S
C1602 C1599 1.351 . S
C1602 H1614 0.930 . S
C1603 C1605 1.400 . S
C1603 C1606 1.386 1_455 S
C1603 H1615 0.930 . S
N1604 C1597 1.377 1_455 S
N1604 C1605 1.321 . S
N1604 Eu1607 2.609 . S
C1605 C1603 1.400 . S
C1605 N1604 1.321 . S
C1605 H1612 0.930 . S
C1606 C1601 1.395 . S
C1606 C1603 1.386 1_655 S
C1606 H1625 0.930 . S
Eu1607 N1604 2.609 . S
Eu1607 N1608 2.657 1_455 S
Eu1607 O1641 2.380 . S
Eu1607 O1642 2.432 . S
Eu1607 O1646 2.558 . S
Eu1607 O1647 2.612 . S
Eu1607 O1649 2.339 1_554 S
Eu1607 O1650 2.563 . S
Eu1607 O1651 2.419 1_455 S
Eu1607 C1671 2.848 1_455 S
N1608 C1600 1.362 . S
N1608 Eu1607 2.657 1_655 S
N1608 C1609 1.334 1_554 S
C1609 N1608 1.334 1_556 S
C1609 C1611 1.413 . S
C1609 H1616 0.929 . S
C1610 C1598 1.392 1_556 S
C1610 C1611 1.367 . S
C1610 H1618 0.930 . S
C1611 C1609 1.413 . S
C1611 C1610 1.367 . S
C1611 H1613 0.930 . S
H1612 C1605 0.930 . S
H1613 C1611 0.930 . S
H1614 C1602 0.930 . S
H1615 C1603 0.930 . S
H1616 C1609 0.929 . S
H1617 C1631 0.930 . S
H1618 C1610 0.930 . S
H1619 C1637 0.930 . S
H1620 C1628 0.929 . S
H1621 C1635 0.930 . S
H1622 C1599 0.931 . S
H1623 C1629 0.930 . S
H1624 C1662 0.931 . S
H1625 C1606 0.930 . S
H1626 C1661 0.931 . S
N1627 Eu1596 2.661 . S
N1627 C1628 1.334 . S
N1627 C1632 1.362 . S
C1628 H1620 0.929 . S
C1628 N1627 1.334 . S
C1628 C1631 1.413 . S
C1629 H1623 0.930 . S
C1629 C1630 1.392 . S
C1629 C1631 1.367 . S
C1630 C1629 1.392 . S
C1630 C1632 1.420 . S
C1630 C1662 1.423 1_554 S
C1631 H1617 0.930 . S
C1631 C1628 1.413 . S
C1631 C1629 1.367 . S
C1632 N1627 1.362 . S
C1632 C1630 1.420 . S
C1632 C1636 1.429 1_554 S
H1633 C1638 0.930 . S
N1634 Eu1596 2.583 1_556 S
N1634 C1636 1.377 . S
N1634 C1637 1.321 . S
C1635 H1621 0.930 . S
C1635 C1637 1.400 . S
C1635 C1638 1.386 . S
C1636 C1632 1.429 1_556 S
C1636 N1634 1.377 . S
C1636 C1639 1.411 . S
C1637 H1619 0.930 . S
C1637 N1634 1.321 . S
C1637 C1635 1.400 . S
C1638 H1633 0.930 . S
C1638 C1635 1.386 . S
C1638 C1639 1.395 . S
C1639 C1636 1.411 . S
C1639 C1638 1.395 . S
C1639 C1661 1.420 . S
O1640 Eu1596 2.538 1_556 S
O1640 C1660 1.257 . S
O1641 Eu1596 2.630 . S
O1641 Eu1607 2.380 . S
O1641 C1652 1.276 . S
O1642 Eu1607 2.432 . S
O1642 C1659 1.264 . S
O1643 Eu1596 2.370 . S
O1643 C1659 1.254 . S
O1644 Eu1596 2.569 1_556 S
O1644 C1652 1.235 1_556 S
O1645 Eu1596 2.424 . S
O1645 C1660 1.249 1_554 S
O1646 Eu1607 2.558 . S
O1646 C1671 1.257 1_455 S
O1647 Eu1596 2.389 . S
O1647 Eu1607 2.612 . S
O1647 C1663 1.276 . S
O1648 Eu1596 2.412 1_556 S
O1648 C1670 1.264 . S
O1649 Eu1607 2.339 1_556 S
O1649 C1670 1.254 . S
O1650 Eu1607 2.563 . S
O1650 C1663 1.235 . S
O1651 Eu1607 2.419 1_655 S
O1651 C1671 1.249 . S
C1652 O1641 1.276 . S
C1652 O1644 1.235 1_554 S
C1653 C1655 1.393 . S
C1653 C1657 1.395 . S
C1653 C1660 1.492 . S
C1654 C1655 1.392 . S
C1654 C1656 1.386 . S
C1655 C1653 1.393 . S
C1655 C1654 1.392 . S
C1655 H1672 0.930 1_556 S
C1656 C1654 1.386 . S
C1656 C1658 1.395 . S
C1656 H1673 0.930 . S
C1657 C1653 1.395 . S
C1657 C1658 1.379 . S
C1657 H1674 0.930 . S
C1658 C1656 1.395 . S
C1658 C1657 1.379 . S
C1658 H1675 0.930 . S
C1659 O1642 1.264 . S
C1659 O1643 1.254 . S
C1660 Eu1596 2.839 1_556 S
C1660 O1640 1.257 . S
C1660 O1645 1.249 1_556 S
C1660 C1653 1.492 . S
C1661 H1626 0.931 . S
C1661 C1639 1.420 . S
C1661 C1662 1.351 . S
C1662 H1624 0.931 . S
C1662 C1630 1.423 1_556 S
C1662 C1661 1.351 . S
C1663 O1647 1.276 . S
C1663 O1650 1.235 . S
C1664 C1665 1.393 . S
C1664 C1668 1.395 . S
C1664 C1671 1.492 . S
C1665 C1664 1.393 . S
C1665 C1666 1.392 . S
C1665 H1676 0.930 . S
C1666 C1665 1.392 . S
C1666 C1667 1.386 . S
C1667 C1666 1.386 . S
C1667 C1669 1.395 . S
C1667 H1677 0.930 . S
C1668 C1664 1.395 . S
C1668 C1669 1.379 . S
C1668 H1678 0.930 . S
C1669 C1667 1.395 . S
C1669 C1668 1.379 . S
C1669 H1679 0.930 . S
C1670 O1648 1.264 . S
C1670 O1649 1.254 . S
C1671 Eu1607 2.848 1_655 S
C1671 O1646 1.257 1_655 S
C1671 O1651 1.249 . S
C1671 C1664 1.492 . S
H1672 C1655 0.930 1_554 S
H1673 C1656 0.930 . S
H1674 C1657 0.930 . S
H1675 C1658 0.930 . S
H1676 C1665 0.930 . S
H1677 C1667 0.930 . S
H1678 C1668 0.930 . S
H1679 C1669 0.930 . S
C1680 C1681 1.369 . S
C1680 C1682 1.419 . S
C1680 H1684 0.930 . S
C1681 C1680 1.369 . S
C1681 C1690 1.429 1_556 S
C1682 C1680 1.419 . S
C1682 C1683 1.363 1_556 S
C1682 H1685 0.929 . S
C1683 C1682 1.363 1_554 S
C1683 C1689 1.428 . S
H1684 C1680 0.930 . S
H1685 C1682 0.929 . S
S1686 N1687 1.613 . S
S1686 N1688 1.610 . S
N1687 S1686 1.613 . S
N1687 C1690 1.350 . S
N1688 S1686 1.610 . S
N1688 C1689 1.351 . S
C1689 C1683 1.428 . S
C1689 N1688 1.351 . S
C1689 C1690 1.434 . S
C1690 C1681 1.429 1_554 S
C1690 N1687 1.350 . S
C1690 C1689 1.434 . S
C1691 C1692 1.369 . S
C1691 C1693 1.419 . S
C1691 H1695 0.930 . S
C1692 C1691 1.369 . S
C1692 C1701 1.429 . S
C1693 C1691 1.419 . S
C1693 C1694 1.363 . S
C1693 H1696 0.929 . S
C1694 C1693 1.363 . S
C1694 C1700 1.428 . S
H1695 C1691 0.930 . S
H1696 C1693 0.929 . S
S1697 N1698 1.613 . S
S1697 N1699 1.610 . S
N1698 S1697 1.613 . S
N1698 C1701 1.350 . S
N1699 S1697 1.610 . S
N1699 C1700 1.351 . S
C1700 C1694 1.428 . S
C1700 N1699 1.351 . S
C1700 C1701 1.434 . S
C1701 C1692 1.429 . S
C1701 N1698 1.350 . S
C1701 C1700 1.434 . S
C1702 C1703 1.369 . S
C1702 C1704 1.419 . S
C1702 H1706 0.930 . S
C1703 C1702 1.369 . S
C1703 C1712 1.429 . S
C1704 C1702 1.419 . S
C1704 C1705 1.363 . S
C1704 H1707 0.929 . S
C1705 C1704 1.363 . S
C1705 C1711 1.428 . S
H1706 C1702 0.930 . S
H1707 C1704 0.929 . S
S1708 N1709 1.613 . S
S1708 N1710 1.610 . S
N1709 S1708 1.613 . S
N1709 C1712 1.350 . S
N1710 S1708 1.610 . S
N1710 C1711 1.351 . S
C1711 C1705 1.428 . S
C1711 N1710 1.351 . S
C1711 C1712 1.434 . S
C1712 C1703 1.429 . S
C1712 N1709 1.350 . S
C1712 C1711 1.434 . S
C1713 C1714 1.369 . S
C1713 C1715 1.419 . S
C1713 H1717 0.930 . S
C1714 C1713 1.369 . S
C1714 C1723 1.429 . S
C1715 C1713 1.419 . S
C1715 C1716 1.363 . S
C1715 H1718 0.929 . S
C1716 C1715 1.363 . S
C1716 C1722 1.428 . S
H1717 C1713 0.930 . S
H1718 C1715 0.929 . S
S1719 N1720 1.613 . S
S1719 N1721 1.610 . S
N1720 S1719 1.613 . S
N1720 C1723 1.350 . S
N1721 S1719 1.610 . S
N1721 C1722 1.351 . S
C1722 C1716 1.428 . S
C1722 N1721 1.351 . S
C1722 C1723 1.434 . S
C1723 C1714 1.429 . S
C1723 N1720 1.350 . S
C1723 C1722 1.434 . S
C1724 C1725 1.369 . S
C1724 C1726 1.419 . S
C1724 H1728 0.930 1_455 S
C1725 C1724 1.369 . S
C1725 C1734 1.429 . S
C1726 C1724 1.419 . S
C1726 C1727 1.363 . S
C1726 H1729 0.929 . S
C1727 C1726 1.363 . S
C1727 C1733 1.428 . S
H1728 C1724 0.930 1_655 S
H1729 C1726 0.929 . S
S1730 N1731 1.613 . S
S1730 N1732 1.610 . S
N1731 S1730 1.613 . S
N1731 C1734 1.350 . S
N1732 S1730 1.610 . S
N1732 C1733 1.351 . S
C1733 C1727 1.428 . S
C1733 N1732 1.351 . S
C1733 C1734 1.434 . S
C1734 C1725 1.429 . S
C1734 N1731 1.350 . S
C1734 C1733 1.434 . S
C1735 C1736 1.369 . S
C1735 C1737 1.419 . S
C1735 H1739 0.930 . S
C1736 C1735 1.369 . S
C1736 C1745 1.429 . S
C1737 C1735 1.419 . S
C1737 C1738 1.363 . S
C1737 H1740 0.929 . S
C1738 C1737 1.363 . S
C1738 C1744 1.428 . S
H1739 C1735 0.930 . S
H1740 C1737 0.929 . S
S1741 N1742 1.613 . S
S1741 N1743 1.610 . S
N1742 S1741 1.613 . S
N1742 C1745 1.350 . S
N1743 S1741 1.610 . S
N1743 C1744 1.351 . S
C1744 C1738 1.428 . S
C1744 N1743 1.351 . S
C1744 C1745 1.434 . S
C1745 C1736 1.429 . S
C1745 N1742 1.350 . S
C1745 C1744 1.434 . S
C1746 C1747 1.369 . S
C1746 C1748 1.419 . S
C1746 H1750 0.930 . S
C1747 C1746 1.369 . S
C1747 C1756 1.429 . S
C1748 C1746 1.419 . S
C1748 C1749 1.363 . S
C1748 H1751 0.929 . S
C1749 C1748 1.363 . S
C1749 C1755 1.428 . S
H1750 C1746 0.930 . S
H1751 C1748 0.929 . S
S1752 N1753 1.613 . S
S1752 N1754 1.610 . S
N1753 S1752 1.613 . S
N1753 C1756 1.350 . S
N1754 S1752 1.610 . S
N1754 C1755 1.351 . S
C1755 C1749 1.428 . S
C1755 N1754 1.351 . S
C1755 C1756 1.434 . S
C1756 C1747 1.429 . S
C1756 N1753 1.350 . S
C1756 C1755 1.434 . S
C1757 C1758 1.369 . S
C1757 C1759 1.419 . S
C1757 H1761 0.930 . S
C1758 C1757 1.369 . S
C1758 C1767 1.429 . S
C1759 C1757 1.419 . S
C1759 C1760 1.363 . S
C1759 H1762 0.929 . S
C1760 C1759 1.363 . S
C1760 C1766 1.428 . S
H1761 C1757 0.930 . S
H1762 C1759 0.929 . S
S1763 N1764 1.613 . S
S1763 N1765 1.610 . S
N1764 S1763 1.613 . S
N1764 C1767 1.350 . S
N1765 S1763 1.610 . S
N1765 C1766 1.351 . S
C1766 C1760 1.428 . S
C1766 N1765 1.351 . S
C1766 C1767 1.434 . S
C1767 C1758 1.429 . S
C1767 N1764 1.350 . S
C1767 C1766 1.434 . S
C1768 C1769 1.369 1_455 S
C1768 C1770 1.419 . S
C1768 H1772 0.930 . S
C1769 C1768 1.369 1_655 S
C1769 C1778 1.421 1_655 S
C1770 C1768 1.419 . S
C1770 C1771 1.363 . S
C1770 H1773 0.929 . S
C1771 C1770 1.363 . S
C1771 C1777 1.428 . S
H1772 C1768 0.930 . S
H1773 C1770 0.929 . S
S1774 N1775 1.613 1_565 S
S1774 N1776 1.610 1_665 S
N1775 S1774 1.613 1_545 S
N1775 C1778 1.346 1_655 S
N1776 S1774 1.610 1_445 S
N1776 C1777 1.351 . S
C1777 C1771 1.428 . S
C1777 N1776 1.351 . S
C1777 C1778 1.448 . S
C1778 C1769 1.421 1_455 S
C1778 N1775 1.346 1_455 S
C1778 C1777 1.448 . S
C1779 C1780 1.369 . S
C1779 C1781 1.419 . S
C1779 H1783 0.930 . S
C1780 C1779 1.369 . S
C1780 C1789 1.429 . S
C1781 C1779 1.419 . S
C1781 C1782 1.363 . S
C1781 H1784 0.929 . S
C1782 C1781 1.363 . S
C1782 C1788 1.428 . S
H1783 C1779 0.930 . S
H1784 C1781 0.929 . S
S1785 N1786 1.613 . S
S1785 N1787 1.610 . S
N1786 S1785 1.613 . S
N1786 C1789 1.350 . S
N1787 S1785 1.610 . S
N1787 C1788 1.351 . S
C1788 C1782 1.428 . S
C1788 N1787 1.351 . S
C1788 C1789 1.434 . S
C1789 C1780 1.429 . S
C1789 N1786 1.350 . S
C1789 C1788 1.434 . S
C1790 C1791 1.369 . S
C1790 C1792 1.419 . S
C1790 H1794 0.930 . S
C1791 C1790 1.369 . S
C1791 C1800 1.429 . S
C1792 C1790 1.419 . S
C1792 C1793 1.363 . S
C1792 H1795 0.929 . S
C1793 C1792 1.363 . S
C1793 C1799 1.428 . S
H1794 C1790 0.930 . S
H1795 C1792 0.929 . S
S1796 N1797 1.613 . S
S1796 N1798 1.610 . S
N1797 S1796 1.613 . S
N1797 C1800 1.350 . S
N1798 S1796 1.610 . S
N1798 C1799 1.351 . S
C1799 C1793 1.428 . S
C1799 N1798 1.351 . S
C1799 C1800 1.434 . S
C1800 C1791 1.429 . S
C1800 N1797 1.350 . S
C1800 C1799 1.434 . S
C1801 C1802 1.369 . S
C1801 C1803 1.419 . S
C1801 H1805 0.930 . S
C1802 C1801 1.369 . S
C1802 C1811 1.429 . S
C1803 C1801 1.419 . S
C1803 C1804 1.363 . S
C1803 H1806 0.929 . S
C1804 C1803 1.363 . S
C1804 C1810 1.428 . S
H1805 C1801 0.930 . S
H1806 C1803 0.929 . S
S1807 N1808 1.613 . S
S1807 N1809 1.610 . S
N1808 S1807 1.613 . S
N1808 C1811 1.350 . S
N1809 S1807 1.610 . S
N1809 C1810 1.351 . S
C1810 C1804 1.428 . S
C1810 N1809 1.351 . S
C1810 C1811 1.434 . S
C1811 C1802 1.429 . S
C1811 N1808 1.350 . S
C1811 C1810 1.434 . S
C1812 C1813 1.369 . S
C1812 C1814 1.419 . S
C1812 H1816 0.930 . S
C1813 C1812 1.369 . S
C1813 C1822 1.429 1_455 S
C1814 C1812 1.419 . S
C1814 C1815 1.363 . S
C1814 H1817 0.929 . S
C1815 C1814 1.363 . S
C1815 C1821 1.428 . S
H1816 C1812 0.930 . S
H1817 C1814 0.929 . S
S1818 N1819 1.613 . S
S1818 N1820 1.610 . S
N1819 S1818 1.613 . S
N1819 C1822 1.350 . S
N1820 S1818 1.610 . S
N1820 C1821 1.351 1_655 S
C1821 C1815 1.428 . S
C1821 N1820 1.351 1_455 S
C1821 C1822 1.434 1_455 S
C1822 C1813 1.429 1_655 S
C1822 N1819 1.350 . S
C1822 C1821 1.434 1_655 S
C1823 C1824 1.369 . S
C1823 C1825 1.419 . S
C1823 H1827 0.930 . S
C1824 C1823 1.369 . S
C1824 C1833 1.429 . S
C1825 C1823 1.419 . S
C1825 C1826 1.363 . S
C1825 H1828 0.929 . S
C1826 C1825 1.363 . S
C1826 C1832 1.428 . S
H1827 C1823 0.930 . S
H1828 C1825 0.929 . S
S1829 N1830 1.613 . S
S1829 N1831 1.610 . S
N1830 S1829 1.613 . S
N1830 C1833 1.350 . S
N1831 S1829 1.610 . S
N1831 C1832 1.351 . S
C1832 C1826 1.428 . S
C1832 N1831 1.351 . S
C1832 C1833 1.434 . S
C1833 C1824 1.429 . S
C1833 N1830 1.350 . S
C1833 C1832 1.434 . S
C1834 C1835 1.369 . S
C1834 C1836 1.419 . S
C1834 H1838 0.930 . S
C1835 C1834 1.369 . S
C1835 C1844 1.429 . S
C1836 C1834 1.419 . S
C1836 C1837 1.363 . S
C1836 H1839 0.929 . S
C1837 C1836 1.363 . S
C1837 C1843 1.428 . S
H1838 C1834 0.930 . S
H1839 C1836 0.929 . S
S1840 N1841 1.613 . S
S1840 N1842 1.610 . S
N1841 S1840 1.613 . S
N1841 C1844 1.350 . S
N1842 S1840 1.610 . S
N1842 C1843 1.351 . S
C1843 C1837 1.428 . S
C1843 N1842 1.351 . S
C1843 C1844 1.434 . S
C1844 C1835 1.429 . S
C1844 N1841 1.350 . S
C1844 C1843 1.434 . S
C1845 C1846 1.369 . S
C1845 C1847 1.419 . S
C1845 H1849 0.930 . S
C1846 C1845 1.369 . S
C1846 C1855 1.429 . S
C1847 C1845 1.419 . S
C1847 C1848 1.363 . S
C1847 H1850 0.929 . S
C1848 C1847 1.363 . S
C1848 C1854 1.428 . S
H1849 C1845 0.930 . S
H1850 C1847 0.929 . S
S1851 N1852 1.613 . S
S1851 N1853 1.610 . S
N1852 S1851 1.613 . S
N1852 C1855 1.350 . S
N1853 S1851 1.610 . S
N1853 C1854 1.351 . S
C1854 C1848 1.428 . S
C1854 N1853 1.351 . S
C1854 C1855 1.434 . S
C1855 C1846 1.429 . S
C1855 N1852 1.350 . S
C1855 C1854 1.434 . S
C1856 C1857 1.369 . S
C1856 C1858 1.427 . S
C1856 H1860 0.930 . S
C1857 C1856 1.369 . S
C1857 C1866 1.429 1_554 S
C1858 C1856 1.427 . S
C1858 C1859 1.355 1_565 S
C1858 H1861 0.929 1_565 S
C1859 C1858 1.355 1_545 S
C1859 C1865 1.411 1_544 S
H1860 C1856 0.930 . S
H1861 C1858 0.929 1_545 S
S1862 N1863 1.613 . S
S1862 N1864 1.610 1_565 S
N1863 S1862 1.613 . S
N1863 C1866 1.350 . S
N1864 S1862 1.610 1_545 S
N1864 C1865 1.358 1_545 S
C1865 C1859 1.411 1_566 S
C1865 N1864 1.358 1_565 S
C1865 C1866 1.446 . S
C1866 C1857 1.429 1_556 S
C1866 N1863 1.350 . S
C1866 C1865 1.446 . S
C1867 C1868 1.369 1_554 S
C1867 C1869 1.419 . S
C1867 H1871 0.930 . S
C1868 C1867 1.369 1_556 S
C1868 C1877 1.429 . S
C1869 C1867 1.419 . S
C1869 C1870 1.363 1_554 S
C1869 H1872 0.929 . S
C1870 C1869 1.363 1_556 S
C1870 C1876 1.428 . S
H1871 C1867 0.930 . S
H1872 C1869 0.929 . S
S1873 N1874 1.613 . S
S1873 N1875 1.610 . S
N1874 S1873 1.613 . S
N1874 C1877 1.350 . S
N1875 S1873 1.610 . S
N1875 C1876 1.351 . S
C1876 C1870 1.428 . S
C1876 N1875 1.351 . S
C1876 C1877 1.434 . S
C1877 C1868 1.429 . S
C1877 N1874 1.350 . S
C1877 C1876 1.434 . S
C1878 C1879 1.369 . S
C1878 C1880 1.419 . S
C1878 H1882 0.930 . S
C1879 C1878 1.369 . S
C1879 C1888 1.429 . S
C1880 C1878 1.419 . S
C1880 C1881 1.363 . S
C1880 H1883 0.929 . S
C1881 C1880 1.363 . S
C1881 C1887 1.428 . S
H1882 C1878 0.930 . S
H1883 C1880 0.929 . S
S1884 N1885 1.613 . S
S1884 N1886 1.610 . S
N1885 S1884 1.613 . S
N1885 C1888 1.350 . S
N1886 S1884 1.610 . S
N1886 C1887 1.351 . S
C1887 C1881 1.428 . S
C1887 N1886 1.351 . S
C1887 C1888 1.434 . S
C1888 C1879 1.429 . S
C1888 N1885 1.350 . S
C1888 C1887 1.434 . S
C1889 C1890 1.369 . S
C1889 C1891 1.419 . S
C1889 H1893 0.930 . S
C1890 C1889 1.369 . S
C1890 C1899 1.429 . S
C1891 C1889 1.419 . S
C1891 C1892 1.362 1_655 S
C1891 H1894 0.929 . S
C1892 C1891 1.362 1_455 S
C1892 C1898 1.424 1_455 S
H1893 C1889 0.930 . S
H1894 C1891 0.929 . S
S1895 N1896 1.613 . S
S1895 N1897 1.610 . S
N1896 S1895 1.613 . S
N1896 C1899 1.350 . S
N1897 S1895 1.610 . S
N1897 C1898 1.351 . S
C1898 C1892 1.424 1_655 S
C1898 N1897 1.351 . S
C1898 C1899 1.434 . S
C1899 C1890 1.429 . S
C1899 N1896 1.350 . S
C1899 C1898 1.434 . S
C1900 C1901 1.369 . S
C1900 C1902 1.419 . S
C1900 H1904 0.930 . S
C1901 C1900 1.369 . S
C1901 C1910 1.429 . S
C1902 C1900 1.419 . S
C1902 C1903 1.363 . S
C1902 H1905 0.929 . S
C1903 C1902 1.363 . S
C1903 C1909 1.428 . S
H1904 C1900 0.930 . S
H1905 C1902 0.929 . S
S1906 N1907 1.613 . S
S1906 N1908 1.610 . S
N1907 S1906 1.613 . S
N1907 C1910 1.350 . S
N1908 S1906 1.610 . S
N1908 C1909 1.351 . S
C1909 C1903 1.428 . S
C1909 N1908 1.351 . S
C1909 C1910 1.434 . S
C1910 C1901 1.429 . S
C1910 N1907 1.350 . S
C1910 C1909 1.434 . S
C1911 C1912 1.369 . S
C1911 C1913 1.419 . S
C1911 H1915 0.930 . S
C1912 C1911 1.369 . S
C1912 C1921 1.429 . S
C1913 C1911 1.419 . S
C1913 C1914 1.363 . S
C1913 H1916 0.929 . S
C1914 C1913 1.363 . S
C1914 C1920 1.428 . S
H1915 C1911 0.930 . S
H1916 C1913 0.929 . S
S1917 N1918 1.613 . S
S1917 N1919 1.610 . S
N1918 S1917 1.613 . S
N1918 C1921 1.350 . S
N1919 S1917 1.610 . S
N1919 C1920 1.351 . S
C1920 C1914 1.428 . S
C1920 N1919 1.351 . S
C1920 C1921 1.434 . S
C1921 C1912 1.429 . S
C1921 N1918 1.350 . S
C1921 C1920 1.434 . S
C1922 C1923 1.369 . S
C1922 C1924 1.419 . S
C1922 H1926 0.930 . S
C1923 C1922 1.369 . S
C1923 C1932 1.429 . S
C1924 C1922 1.419 . S
C1924 C1925 1.363 . S
C1924 H1927 0.929 . S
C1925 C1924 1.363 . S
C1925 C1931 1.428 . S
H1926 C1922 0.930 . S
H1927 C1924 0.929 . S
S1928 N1929 1.613 . S
S1928 N1930 1.610 . S
N1929 S1928 1.613 . S
N1929 C1932 1.350 . S
N1930 S1928 1.610 . S
N1930 C1931 1.351 . S
C1931 C1925 1.428 . S
C1931 N1930 1.351 . S
C1931 C1932 1.434 . S
C1932 C1923 1.429 . S
C1932 N1929 1.350 . S
C1932 C1931 1.434 . S
C1933 C1934 1.369 . S
C1933 C1935 1.419 . S
C1933 H1937 0.930 . S
C1934 C1933 1.369 . S
C1934 C1943 1.429 . S
C1935 C1933 1.419 . S
C1935 C1936 1.363 . S
C1935 H1938 0.929 . S
C1936 C1935 1.363 . S
C1936 C1942 1.428 . S
H1937 C1933 0.930 . S
H1938 C1935 0.929 . S
S1939 N1940 1.613 . S
S1939 N1941 1.610 . S
N1940 S1939 1.613 . S
N1940 C1943 1.350 . S
N1941 S1939 1.610 . S
N1941 C1942 1.351 . S
C1942 C1936 1.428 . S
C1942 N1941 1.351 . S
C1942 C1943 1.434 . S
C1943 C1934 1.429 . S
C1943 N1940 1.350 . S
C1943 C1942 1.434 . S
C1944 C1945 1.369 . S
C1944 C1946 1.419 . S
C1944 H1948 0.930 . S
C1945 C1944 1.369 . S
C1945 C1954 1.429 . S
C1946 C1944 1.419 . S
C1946 C1947 1.363 . S
C1946 H1949 0.929 . S
C1947 C1946 1.363 . S
C1947 C1953 1.428 . S
H1948 C1944 0.930 . S
H1949 C1946 0.929 . S
S1950 N1951 1.613 . S
S1950 N1952 1.610 . S
N1951 S1950 1.613 . S
N1951 C1954 1.350 . S
N1952 S1950 1.610 . S
N1952 C1953 1.351 . S
C1953 C1947 1.428 . S
C1953 N1952 1.351 . S
C1953 C1954 1.434 . S
C1954 C1945 1.429 . S
C1954 N1951 1.350 . S
C1954 C1953 1.434 . S
C1955 C1956 1.369 . S
C1955 C1957 1.419 . S
C1955 H1959 0.930 . S
C1956 C1955 1.369 . S
C1956 C1965 1.429 . S
C1957 C1955 1.419 . S
C1957 C1958 1.363 . S
C1957 H1960 0.929 . S
C1958 C1957 1.363 . S
C1958 C1964 1.428 . S
H1959 C1955 0.930 . S
H1960 C1957 0.929 . S
S1961 N1962 1.613 . S
S1961 N1963 1.610 . S
N1962 S1961 1.613 . S
N1962 C1965 1.350 . S
N1963 S1961 1.610 . S
N1963 C1964 1.351 . S
C1964 C1958 1.428 . S
C1964 N1963 1.351 . S
C1964 C1965 1.434 . S
C1965 C1956 1.429 . S
C1965 N1962 1.350 . S
C1965 C1964 1.434 . S
C1966 C1967 1.369 . S
C1966 C1968 1.419 . S
C1966 H1970 0.930 . S
C1967 C1966 1.369 . S
C1967 C1976 1.429 . S
C1968 C1966 1.419 . S
C1968 C1969 1.363 . S
C1968 H1971 0.929 . S
C1969 C1968 1.363 . S
C1969 C1975 1.428 . S
H1970 C1966 0.930 . S
H1971 C1968 0.929 . S
S1972 N1973 1.613 . S
S1972 N1974 1.610 . S
N1973 S1972 1.613 . S
N1973 C1976 1.350 . S
N1974 S1972 1.610 . S
N1974 C1975 1.351 . S
C1975 C1969 1.428 . S
C1975 N1974 1.351 . S
C1975 C1976 1.434 . S
C1976 C1967 1.429 . S
C1976 N1973 1.350 . S
C1976 C1975 1.434 . S
C1977 C1978 1.369 . S
C1977 C1979 1.419 . S
C1977 H1981 0.930 . S
C1978 C1977 1.369 . S
C1978 C1987 1.429 . S
C1979 C1977 1.419 . S
C1979 C1980 1.363 . S
C1979 H1982 0.929 . S
C1980 C1979 1.363 . S
C1980 C1986 1.428 . S
H1981 C1977 0.930 . S
H1982 C1979 0.929 . S
S1983 N1984 1.613 . S
S1983 N1985 1.610 . S
N1984 S1983 1.613 . S
N1984 C1987 1.350 . S
N1985 S1983 1.610 . S
N1985 C1986 1.351 . S
C1986 C1980 1.428 . S
C1986 N1985 1.351 . S
C1986 C1987 1.434 . S
C1987 C1978 1.429 . S
C1987 N1984 1.350 . S
C1987 C1986 1.434 . S
C1988 C1989 1.369 . S
C1988 C1990 1.419 . S
C1988 H1992 0.930 . S
C1989 C1988 1.369 . S
C1989 C1998 1.429 . S
C1990 C1988 1.419 . S
C1990 C1991 1.363 . S
C1990 H1993 0.929 . S
C1991 C1990 1.363 . S
C1991 C1997 1.428 . S
H1992 C1988 0.930 . S
H1993 C1990 0.929 . S
S1994 N1995 1.613 . S
S1994 N1996 1.610 . S
N1995 S1994 1.613 . S
N1995 C1998 1.350 . S
N1996 S1994 1.610 . S
N1996 C1997 1.351 . S
C1997 C1991 1.428 . S
C1997 N1996 1.351 . S
C1997 C1998 1.434 . S
C1998 C1989 1.429 . S
C1998 N1995 1.350 . S
C1998 C1997 1.434 . S
C1999 C2000 1.369 . S
C1999 C2001 1.419 . S
C1999 H2003 0.930 . S
C2000 C1999 1.369 . S
C2000 C2009 1.429 . S
C2001 C1999 1.419 . S
C2001 C2002 1.363 . S
C2001 H2004 0.929 . S
C2002 C2001 1.363 . S
C2002 C2008 1.428 . S
H2003 C1999 0.930 . S
H2004 C2001 0.929 . S
S2005 N2006 1.613 . S
S2005 N2007 1.610 . S
N2006 S2005 1.613 . S
N2006 C2009 1.350 . S
N2007 S2005 1.610 . S
N2007 C2008 1.351 . S
C2008 C2002 1.428 . S
C2008 N2007 1.351 . S
C2008 C2009 1.434 . S
C2009 C2000 1.429 . S
C2009 N2006 1.350 . S
C2009 C2008 1.434 . S
C2010 C2011 1.369 . S
C2010 C2012 1.419 . S
C2010 H2014 0.930 . S
C2011 C2010 1.369 . S
C2011 C2020 1.429 . S
C2012 C2010 1.419 . S
C2012 C2013 1.363 . S
C2012 H2015 0.929 1_556 S
C2013 C2012 1.363 . S
C2013 C2019 1.428 . S
H2014 C2010 0.930 . S
H2015 C2012 0.929 1_554 S
S2016 N2017 1.613 . S
S2016 N2018 1.610 . S
N2017 S2016 1.613 . S
N2017 C2020 1.350 . S
N2018 S2016 1.610 . S
N2018 C2019 1.351 . S
C2019 C2013 1.428 . S
C2019 N2018 1.351 . S
C2019 C2020 1.434 . S
C2020 C2011 1.429 . S
C2020 N2017 1.350 . S
C2020 C2019 1.434 . S
C2021 C2022 1.369 . S
C2021 C2023 1.419 . S
C2021 H2025 0.930 . S
C2022 C2021 1.369 . S
C2022 C2031 1.429 . S
C2023 C2021 1.419 . S
C2023 C2024 1.363 . S
C2023 H2026 0.929 . S
C2024 C2023 1.363 . S
C2024 C2030 1.428 . S
H2025 C2021 0.930 . S
H2026 C2023 0.929 . S
S2027 N2028 1.613 . S
S2027 N2029 1.610 . S
N2028 S2027 1.613 . S
N2028 C2031 1.350 . S
N2029 S2027 1.610 . S
N2029 C2030 1.351 . S
C2030 C2024 1.428 . S
C2030 N2029 1.351 . S
C2030 C2031 1.434 . S
C2031 C2022 1.429 . S
C2031 N2028 1.350 . S
C2031 C2030 1.434 . S
C2032 C2033 1.369 . S
C2032 C2034 1.419 . S
C2032 H2036 0.930 . S
C2033 C2032 1.369 . S
C2033 C2042 1.429 1_545 S
C2034 C2032 1.419 . S
C2034 C2035 1.363 . S
C2034 H2037 0.929 . S
C2035 C2034 1.363 . S
C2035 C2041 1.428 1_545 S
H2036 C2032 0.930 . S
H2037 C2034 0.929 . S
S2038 N2039 1.613 . S
S2038 N2040 1.610 . S
N2039 S2038 1.613 . S
N2039 C2042 1.350 . S
N2040 S2038 1.610 . S
N2040 C2041 1.351 . S
C2041 C2035 1.428 1_565 S
C2041 N2040 1.351 . S
C2041 C2042 1.434 . S
C2042 C2033 1.429 1_565 S
C2042 N2039 1.350 . S
C2042 C2041 1.434 . S
C2043 C2044 1.369 . S
C2043 C2045 1.419 . S
C2043 H2047 0.930 . S
C2044 C2043 1.369 . S
C2044 C2053 1.429 . S
C2045 C2043 1.419 . S
C2045 C2046 1.363 . S
C2045 H2048 0.929 . S
C2046 C2045 1.363 . S
C2046 C2052 1.428 . S
H2047 C2043 0.930 . S
H2048 C2045 0.929 . S
S2049 N2050 1.613 . S
S2049 N2051 1.610 . S
N2050 S2049 1.613 . S
N2050 C2053 1.350 . S
N2051 S2049 1.610 . S
N2051 C2052 1.351 . S
C2052 C2046 1.428 . S
C2052 N2051 1.351 . S
C2052 C2053 1.434 . S
C2053 C2044 1.429 . S
C2053 N2050 1.350 . S
C2053 C2052 1.434 . S
C2054 C2055 1.369 1_565 S
C2054 C2056 1.419 1_565 S
C2054 H2058 0.930 . S
C2055 C2054 1.369 1_545 S
C2055 C2064 1.429 . S
C2056 C2054 1.419 1_545 S
C2056 C2057 1.363 . S
C2056 H2059 0.929 1_545 S
C2057 C2056 1.363 . S
C2057 C2063 1.428 . S
H2058 C2054 0.930 . S
H2059 C2056 0.929 1_565 S
S2060 N2061 1.613 . S
S2060 N2062 1.610 . S
N2061 S2060 1.613 . S
N2061 C2064 1.350 . S
N2062 S2060 1.610 . S
N2062 C2063 1.351 . S
C2063 C2057 1.428 . S
C2063 N2062 1.351 . S
C2063 C2064 1.434 . S
C2064 C2055 1.429 . S
C2064 N2061 1.350 . S
C2064 C2063 1.434 . S
C2065 C2066 1.369 . S
C2065 C2067 1.419 . S
C2065 H2069 0.930 . S
C2066 C2065 1.369 . S
C2066 C2075 1.429 . S
C2067 C2065 1.419 . S
C2067 C2068 1.363 . S
C2067 H2070 0.929 . S
C2068 C2067 1.363 . S
C2068 C2074 1.428 . S
H2069 C2065 0.930 . S
H2070 C2067 0.929 . S
S2071 N2072 1.613 . S
S2071 N2073 1.610 . S
N2072 S2071 1.613 . S
N2072 C2075 1.350 . S
N2073 S2071 1.610 . S
N2073 C2074 1.351 . S
C2074 C2068 1.428 . S
C2074 N2073 1.351 . S
C2074 C2075 1.434 . S
C2075 C2066 1.429 . S
C2075 N2072 1.350 . S
C2075 C2074 1.434 . S
C2076 C2077 1.369 1_545 S
C2076 C2078 1.419 . S
C2076 H2080 0.930 . S
C2077 C2076 1.369 1_565 S
C2077 C2086 1.429 . S
C2078 C2076 1.419 . S
C2078 C2079 1.363 . S
C2078 H2081 0.929 . S
C2079 C2078 1.363 . S
C2079 C2085 1.428 1_545 S
H2080 C2076 0.930 . S
H2081 C2078 0.929 . S
S2082 N2083 1.613 . S
S2082 N2084 1.610 . S
N2083 S2082 1.613 . S
N2083 C2086 1.350 . S
N2084 S2082 1.610 . S
N2084 C2085 1.351 . S
C2085 C2079 1.428 1_565 S
C2085 N2084 1.351 . S
C2085 C2086 1.434 . S
C2086 C2077 1.429 . S
C2086 N2083 1.350 . S
C2086 C2085 1.434 . S
C2087 C2088 1.369 . S
C2087 C2089 1.419 . S
C2087 H2091 0.930 . S
C2088 C2087 1.369 . S
C2088 C2097 1.429 . S
C2089 C2087 1.419 . S
C2089 C2090 1.363 . S
C2089 H2092 0.929 . S
C2090 C2089 1.363 . S
C2090 C2096 1.428 . S
H2091 C2087 0.930 . S
H2092 C2089 0.929 . S
S2093 N2094 1.613 . S
S2093 N2095 1.610 . S
N2094 S2093 1.613 . S
N2094 C2097 1.350 . S
N2095 S2093 1.610 . S
N2095 C2096 1.351 . S
C2096 C2090 1.428 . S
C2096 N2095 1.351 . S
C2096 C2097 1.434 . S
C2097 C2088 1.429 . S
C2097 N2094 1.350 . S
C2097 C2096 1.434 . S
C2098 C2099 1.369 1_545 S
C2098 C2100 1.419 . S
C2098 H2102 0.930 . S
C2099 C2098 1.369 1_565 S
C2099 C2108 1.429 . S
C2100 C2098 1.419 . S
C2100 C2101 1.363 . S
C2100 H2103 0.929 . S
C2101 C2100 1.363 . S
C2101 C2107 1.428 1_545 S
H2102 C2098 0.930 . S
H2103 C2100 0.929 . S
S2104 N2105 1.613 . S
S2104 N2106 1.610 . S
N2105 S2104 1.613 . S
N2105 C2108 1.350 . S
N2106 S2104 1.610 . S
N2106 C2107 1.351 . S
C2107 C2101 1.428 1_565 S
C2107 N2106 1.351 . S
C2107 C2108 1.434 . S
C2108 C2099 1.429 . S
C2108 N2105 1.350 . S
C2108 C2107 1.434 . S
C2109 C2110 1.369 . S
C2109 C2111 1.419 . S
C2109 H2113 0.930 . S
C2110 C2109 1.369 . S
C2110 C2119 1.429 . S
C2111 C2109 1.419 . S
C2111 C2112 1.363 . S
C2111 H2114 0.929 . S
C2112 C2111 1.363 . S
C2112 C2118 1.428 . S
H2113 C2109 0.930 . S
H2114 C2111 0.929 . S
S2115 N2116 1.613 . S
S2115 N2117 1.610 . S
N2116 S2115 1.613 . S
N2116 C2119 1.350 . S
N2117 S2115 1.610 . S
N2117 C2118 1.351 . S
C2118 C2112 1.428 . S
C2118 N2117 1.351 . S
C2118 C2119 1.434 . S
C2119 C2110 1.429 . S
C2119 N2116 1.350 . S
C2119 C2118 1.434 . S
C2120 C2121 1.369 . S
C2120 C2122 1.419 . S
C2120 H2124 0.930 . S
C2121 C2120 1.369 . S
C2121 C2130 1.429 . S
C2122 C2120 1.419 . S
C2122 C2123 1.363 . S
C2122 H2125 0.929 . S
C2123 C2122 1.363 . S
C2123 C2129 1.428 . S
H2124 C2120 0.930 . S
H2125 C2122 0.929 . S
S2126 N2127 1.613 1_565 S
S2126 N2128 1.610 1_564 S
N2127 S2126 1.613 1_545 S
N2127 C2130 1.350 . S
N2128 S2126 1.610 1_546 S
N2128 C2129 1.351 1_556 S
C2129 C2123 1.428 . S
C2129 N2128 1.351 1_554 S
C2129 C2130 1.434 . S
C2130 C2121 1.429 . S
C2130 N2127 1.350 . S
C2130 C2129 1.434 . S
C2131 C2132 1.369 . S
C2131 C2133 1.419 . S
C2131 H2135 0.930 . S
C2132 C2131 1.369 . S
C2132 C2141 1.429 . S
C2133 C2131 1.419 . S
C2133 C2134 1.363 . S
C2133 H2136 0.929 . S
C2134 C2133 1.363 . S
C2134 C2140 1.428 . S
H2135 C2131 0.930 . S
H2136 C2133 0.929 . S
S2137 N2138 1.613 . S
S2137 N2139 1.610 . S
N2138 S2137 1.613 . S
N2138 C2141 1.350 . S
N2139 S2137 1.610 . S
N2139 C2140 1.351 . S
C2140 C2134 1.428 . S
C2140 N2139 1.351 . S
C2140 C2141 1.434 . S
C2141 C2132 1.429 . S
C2141 N2138 1.350 . S
C2141 C2140 1.434 . S
C2142 C2143 1.369 . S
C2142 C2144 1.419 . S
C2142 H2146 0.930 . S
C2143 C2142 1.369 . S
C2143 C2152 1.429 . S
C2144 C2142 1.419 . S
C2144 C2145 1.363 . S
C2144 H2147 0.929 . S
C2145 C2144 1.363 . S
C2145 C2151 1.428 . S
H2146 C2142 0.930 . S
H2147 C2144 0.929 . S
S2148 N2149 1.613 . S
S2148 N2150 1.610 . S
N2149 S2148 1.613 . S
N2149 C2152 1.350 . S
N2150 S2148 1.610 . S
N2150 C2151 1.351 . S
C2151 C2145 1.428 . S
C2151 N2150 1.351 . S
C2151 C2152 1.434 . S
C2152 C2143 1.429 . S
C2152 N2149 1.350 . S
C2152 C2151 1.434 . S
C2153 C2154 1.369 . S
C2153 C2155 1.419 . S
C2153 H2157 0.930 . S
C2154 C2153 1.369 . S
C2154 C2163 1.429 . S
C2155 C2153 1.419 . S
C2155 C2156 1.363 . S
C2155 H2158 0.929 . S
C2156 C2155 1.363 . S
C2156 C2162 1.428 . S
H2157 C2153 0.930 . S
H2158 C2155 0.929 . S
S2159 N2160 1.613 . S
S2159 N2161 1.610 . S
N2160 S2159 1.613 . S
N2160 C2163 1.350 . S
N2161 S2159 1.610 . S
N2161 C2162 1.351 . S
C2162 C2156 1.428 . S
C2162 N2161 1.351 . S
C2162 C2163 1.434 . S
C2163 C2154 1.429 . S
C2163 N2160 1.350 . S
C2163 C2162 1.434 . S
C2164 C2165 1.369 . S
C2164 C2166 1.419 . S
C2164 H2168 0.930 . S
C2165 C2164 1.369 . S
C2165 C2174 1.429 . S
C2166 C2164 1.419 . S
C2166 C2167 1.363 . S
C2166 H2169 0.929 . S
C2167 C2166 1.363 . S
C2167 C2173 1.428 . S
H2168 C2164 0.930 . S
H2169 C2166 0.929 . S
S2170 N2171 1.613 . S
S2170 N2172 1.610 . S
N2171 S2170 1.613 . S
N2171 C2174 1.350 . S
N2172 S2170 1.610 . S
N2172 C2173 1.351 . S
C2173 C2167 1.428 . S
C2173 N2172 1.351 . S
C2173 C2174 1.434 . S
C2174 C2165 1.429 . S
C2174 N2171 1.350 . S
C2174 C2173 1.434 . S
C2175 C2176 1.369 . S
C2175 C2177 1.419 . S
C2175 H2179 0.930 . S
C2176 C2175 1.369 . S
C2176 C2185 1.429 . S
C2177 C2175 1.419 . S
C2177 C2178 1.363 . S
C2177 H2180 0.929 . S
C2178 C2177 1.363 . S
C2178 C2184 1.428 . S
H2179 C2175 0.930 . S
H2180 C2177 0.929 . S
S2181 N2182 1.613 . S
S2181 N2183 1.610 . S
N2182 S2181 1.613 . S
N2182 C2185 1.350 . S
N2183 S2181 1.610 . S
N2183 C2184 1.351 . S
C2184 C2178 1.428 . S
C2184 N2183 1.351 . S
C2184 C2185 1.434 . S
C2185 C2176 1.429 . S
C2185 N2182 1.350 . S
C2185 C2184 1.434 . S
C2186 C2187 1.369 . S
C2186 C2188 1.419 . S
C2186 H2190 0.930 . S
C2187 C2186 1.369 . S
C2187 C2196 1.429 . S
C2188 C2186 1.419 . S
C2188 C2189 1.363 . S
C2188 H2191 0.929 . S
C2189 C2188 1.363 . S
C2189 C2195 1.428 . S
H2190 C2186 0.930 . S
H2191 C2188 0.929 . S
S2192 N2193 1.613 . S
S2192 N2194 1.610 . S
N2193 S2192 1.613 . S
N2193 C2196 1.350 . S
N2194 S2192 1.610 . S
N2194 C2195 1.351 . S
C2195 C2189 1.428 . S
C2195 N2194 1.351 . S
C2195 C2196 1.434 . S
C2196 C2187 1.429 . S
C2196 N2193 1.350 . S
C2196 C2195 1.434 . S
C2197 C2198 1.369 . S
C2197 C2199 1.419 . S
C2197 H2201 0.930 . S
C2198 C2197 1.369 . S
C2198 C2207 1.429 . S
C2199 C2197 1.419 . S
C2199 C2200 1.363 . S
C2199 H2202 0.929 . S
C2200 C2199 1.363 . S
C2200 C2206 1.428 . S
H2201 C2197 0.930 . S
H2202 C2199 0.929 . S
S2203 N2204 1.613 . S
S2203 N2205 1.610 . S
N2204 S2203 1.613 . S
N2204 C2207 1.350 . S
N2205 S2203 1.610 . S
N2205 C2206 1.351 . S
C2206 C2200 1.428 . S
C2206 N2205 1.351 . S
C2206 C2207 1.434 . S
C2207 C2198 1.429 . S
C2207 N2204 1.350 . S
C2207 C2206 1.434 . S
C2208 C2209 1.369 . S
C2208 C2210 1.419 . S
C2208 H2212 0.930 . S
C2209 C2208 1.369 . S
C2209 C2218 1.429 . S
C2210 C2208 1.419 . S
C2210 C2211 1.363 . S
C2210 H2213 0.929 . S
C2211 C2210 1.363 . S
C2211 C2217 1.428 . S
H2212 C2208 0.930 . S
H2213 C2210 0.929 . S
S2214 N2215 1.613 . S
S2214 N2216 1.610 . S
N2215 S2214 1.613 . S
N2215 C2218 1.350 . S
N2216 S2214 1.610 . S
N2216 C2217 1.351 . S
C2217 C2211 1.428 . S
C2217 N2216 1.351 . S
C2217 C2218 1.434 . S
C2218 C2209 1.429 . S
C2218 N2215 1.350 . S
C2218 C2217 1.434 . S
C2219 C2220 1.369 . S
C2219 C2221 1.419 . S
C2219 H2223 0.930 . S
C2220 C2219 1.369 . S
C2220 C2229 1.429 . S
C2221 C2219 1.419 . S
C2221 C2222 1.363 . S
C2221 H2224 0.929 . S
C2222 C2221 1.363 . S
C2222 C2228 1.428 . S
H2223 C2219 0.930 . S
H2224 C2221 0.929 . S
S2225 N2226 1.613 . S
S2225 N2227 1.610 . S
N2226 S2225 1.613 . S
N2226 C2229 1.350 . S
N2227 S2225 1.610 . S
N2227 C2228 1.351 . S
C2228 C2222 1.428 . S
C2228 N2227 1.351 . S
C2228 C2229 1.434 . S
C2229 C2220 1.429 . S
C2229 N2226 1.350 . S
C2229 C2228 1.434 . S
C2230 C2231 1.369 1_554 S
C2230 C2232 1.419 . S
C2230 H2234 0.930 . S
C2231 C2230 1.369 1_556 S
C2231 C2240 1.429 . S
C2232 C2230 1.419 . S
C2232 C2233 1.363 . S
C2232 H2235 0.929 . S
C2233 C2232 1.363 . S
C2233 C2239 1.428 1_554 S
H2234 C2230 0.930 . S
H2235 C2232 0.929 . S
S2236 N2237 1.613 . S
S2236 N2238 1.610 . S
N2237 S2236 1.613 . S
N2237 C2240 1.350 . S
N2238 S2236 1.610 . S
N2238 C2239 1.351 . S
C2239 C2233 1.428 1_556 S
C2239 N2238 1.351 . S
C2239 C2240 1.434 . S
C2240 C2231 1.429 . S
C2240 N2237 1.350 . S
C2240 C2239 1.434 . S
C2241 C2242 1.369 . S
C2241 C2243 1.419 1_455 S
C2241 H2245 0.925 1_455 S
C2242 C2241 1.369 . S
C2242 C2251 1.429 . S
C2243 C2241 1.419 1_655 S
C2243 C2244 1.363 . S
C2243 H2246 0.929 . S
C2244 C2243 1.363 . S
C2244 C2250 1.428 1_655 S
H2245 C2241 0.925 1_655 S
H2246 C2243 0.929 . S
S2247 N2248 1.613 . S
S2247 N2249 1.610 . S
N2248 S2247 1.613 . S
N2248 C2251 1.350 . S
N2249 S2247 1.610 . S
N2249 C2250 1.351 . S
C2250 C2244 1.428 1_455 S
C2250 N2249 1.351 . S
C2250 C2251 1.434 . S
C2251 C2242 1.429 . S
C2251 N2248 1.350 . S
C2251 C2250 1.434 . S
C2252 C2253 1.369 . S
C2252 C2254 1.419 . S
C2252 H2256 0.930 . S
C2253 C2252 1.369 . S
C2253 C2262 1.429 . S
C2254 C2252 1.419 . S
C2254 C2255 1.363 . S
C2254 H2257 0.929 . S
C2255 C2254 1.363 . S
C2255 C2261 1.428 . S
H2256 C2252 0.930 . S
H2257 C2254 0.929 . S
S2258 N2259 1.613 . S
S2258 N2260 1.610 . S
N2259 S2258 1.613 . S
N2259 C2262 1.350 . S
N2260 S2258 1.610 . S
N2260 C2261 1.351 . S
C2261 C2255 1.428 . S
C2261 N2260 1.351 . S
C2261 C2262 1.434 . S
C2262 C2253 1.429 . S
C2262 N2259 1.350 . S
C2262 C2261 1.434 . S
C2263 C2264 1.369 . S
C2263 C2265 1.419 . S
C2263 H2267 0.930 . S
C2264 C2263 1.369 . S
C2264 C2273 1.429 . S
C2265 C2263 1.419 . S
C2265 C2266 1.363 . S
C2265 H2268 0.929 . S
C2266 C2265 1.363 . S
C2266 C2272 1.428 . S
H2267 C2263 0.930 . S
H2268 C2265 0.929 . S
S2269 N2270 1.613 . S
S2269 N2271 1.610 . S
N2270 S2269 1.613 . S
N2270 C2273 1.350 . S
N2271 S2269 1.610 . S
N2271 C2272 1.351 . S
C2272 C2266 1.428 . S
C2272 N2271 1.351 . S
C2272 C2273 1.434 . S
C2273 C2264 1.429 . S
C2273 N2270 1.350 . S
C2273 C2272 1.434 . S
C2274 C2275 1.369 1_455 S
C2274 C2276 1.419 . S
C2274 H2278 0.930 . S
C2275 C2274 1.369 1_655 S
C2275 C2284 1.429 1_655 S
C2276 C2274 1.419 . S
C2276 C2277 1.363 . S
C2276 H2279 0.929 . S
C2277 C2276 1.363 . S
C2277 C2283 1.428 . S
H2278 C2274 0.930 . S
H2279 C2276 0.929 . S
S2280 N2281 1.625 . S
S2280 N2282 1.589 1_655 S
N2281 S2280 1.625 . S
N2281 C2284 1.350 1_655 S
N2282 S2280 1.589 1_455 S
N2282 C2283 1.351 . S
C2283 C2277 1.428 . S
C2283 N2282 1.351 . S
C2283 C2284 1.434 . S
C2284 C2275 1.429 1_455 S
C2284 N2281 1.350 1_455 S
C2284 C2283 1.434 . S
C2285 C2286 1.369 . S
C2285 C2287 1.419 . S
C2285 H2289 0.930 . S
C2286 C2285 1.369 . S
C2286 C2295 1.429 . S
C2287 C2285 1.419 . S
C2287 C2288 1.363 . S
C2287 H2290 0.929 . S
C2288 C2287 1.363 . S
C2288 C2294 1.428 . S
H2289 C2285 0.930 . S
H2290 C2287 0.929 . S
S2291 N2292 1.613 . S
S2291 N2293 1.610 . S
N2292 S2291 1.613 . S
N2292 C2295 1.350 . S
N2293 S2291 1.610 . S
N2293 C2294 1.351 . S
C2294 C2288 1.428 . S
C2294 N2293 1.351 . S
C2294 C2295 1.434 . S
C2295 C2286 1.429 . S
C2295 N2292 1.350 . S
C2295 C2294 1.434 . S
C2296 C2297 1.369 . S
C2296 C2298 1.419 . S
C2296 H2300 0.930 . S
C2297 C2296 1.369 . S
C2297 C2306 1.429 . S
C2298 C2296 1.419 . S
C2298 C2299 1.363 . S
C2298 H2301 0.929 . S
C2299 C2298 1.363 . S
C2299 C2305 1.428 . S
H2300 C2296 0.930 . S
H2301 C2298 0.929 . S
S2302 N2303 1.613 . S
S2302 N2304 1.610 . S
N2303 S2302 1.613 . S
N2303 C2306 1.350 . S
N2304 S2302 1.610 . S
N2304 C2305 1.351 . S
C2305 C2299 1.428 . S
C2305 N2304 1.351 . S
C2305 C2306 1.434 . S
C2306 C2297 1.429 . S
C2306 N2303 1.350 . S
C2306 C2305 1.434 . S
C2307 C2308 1.369 . S
C2307 C2309 1.419 . S
C2307 H2311 0.930 . S
C2308 C2307 1.369 . S
C2308 C2317 1.429 . S
C2309 C2307 1.419 . S
C2309 C2310 1.363 . S
C2309 H2312 0.929 . S
C2310 C2309 1.363 . S
C2310 C2316 1.428 . S
H2311 C2307 0.930 . S
H2312 C2309 0.929 . S
S2313 N2314 1.613 . S
S2313 N2315 1.610 1_554 S
N2314 S2313 1.613 . S
N2314 C2317 1.350 1_554 S
N2315 S2313 1.610 1_556 S
N2315 C2316 1.351 . S
C2316 C2310 1.428 . S
C2316 N2315 1.351 . S
C2316 C2317 1.434 . S
C2317 C2308 1.429 . S
C2317 N2314 1.350 1_556 S
C2317 C2316 1.434 . S
C2318 C2319 1.369 . S
C2318 C2320 1.419 . S
C2318 H2322 0.930 . S
C2319 C2318 1.369 . S
C2319 C2328 1.429 . S
C2320 C2318 1.419 . S
C2320 C2321 1.363 . S
C2320 H2323 0.929 . S
C2321 C2320 1.363 . S
C2321 C2327 1.428 . S
H2322 C2318 0.930 . S
H2323 C2320 0.929 . S
S2324 N2325 1.613 . S
S2324 N2326 1.610 . S
N2325 S2324 1.613 . S
N2325 C2328 1.350 . S
N2326 S2324 1.610 . S
N2326 C2327 1.351 . S
C2327 C2321 1.428 . S
C2327 N2326 1.351 . S
C2327 C2328 1.434 . S
C2328 C2319 1.429 . S
C2328 N2325 1.350 . S
C2328 C2327 1.434 . S
C2329 C2330 1.369 . S
C2329 C2331 1.419 . S
C2329 H2333 0.930 . S
C2330 C2329 1.369 . S
C2330 C2339 1.429 . S
C2331 C2329 1.419 . S
C2331 C2332 1.363 . S
C2331 H2334 0.929 . S
C2332 C2331 1.363 . S
C2332 C2338 1.428 . S
H2333 C2329 0.930 . S
H2334 C2331 0.929 . S
S2335 N2336 1.613 . S
S2335 N2337 1.610 . S
N2336 S2335 1.613 . S
N2336 C2339 1.350 . S
N2337 S2335 1.610 . S
N2337 C2338 1.351 . S
C2338 C2332 1.428 . S
C2338 N2337 1.351 . S
C2338 C2339 1.434 . S
C2339 C2330 1.429 . S
C2339 N2336 1.350 . S
C2339 C2338 1.434 . S
C2340 C2341 1.369 . S
C2340 C2342 1.419 . S
C2340 H2344 0.930 . S
C2341 C2340 1.369 . S
C2341 C2350 1.429 . S
C2342 C2340 1.419 . S
C2342 C2343 1.363 . S
C2342 H2345 0.929 . S
C2343 C2342 1.363 . S
C2343 C2349 1.428 . S
H2344 C2340 0.930 . S
H2345 C2342 0.929 . S
S2346 N2347 1.613 . S
S2346 N2348 1.610 . S
N2347 S2346 1.613 . S
N2347 C2350 1.350 . S
N2348 S2346 1.610 . S
N2348 C2349 1.351 . S
C2349 C2343 1.428 . S
C2349 N2348 1.351 . S
C2349 C2350 1.434 . S
C2350 C2341 1.429 . S
C2350 N2347 1.350 . S
C2350 C2349 1.434 . S
C2351 C2352 1.369 . S
C2351 C2353 1.419 . S
C2351 H2355 0.930 . S
C2352 C2351 1.369 . S
C2352 C2361 1.429 . S
C2353 C2351 1.419 . S
C2353 C2354 1.363 . S
C2353 H2356 0.929 . S
C2354 C2353 1.363 . S
C2354 C2360 1.428 . S
H2355 C2351 0.930 . S
H2356 C2353 0.929 . S
S2357 N2358 1.613 . S
S2357 N2359 1.610 . S
N2358 S2357 1.613 . S
N2358 C2361 1.350 . S
N2359 S2357 1.610 . S
N2359 C2360 1.351 . S
C2360 C2354 1.428 . S
C2360 N2359 1.351 . S
C2360 C2361 1.434 . S
C2361 C2352 1.429 . S
C2361 N2358 1.350 . S
C2361 C2360 1.434 . S
C2362 C2363 1.369 . S
C2362 C2364 1.419 . S
C2362 H2366 0.930 . S
C2363 C2362 1.369 . S
C2363 C2372 1.429 . S
C2364 C2362 1.419 . S
C2364 C2365 1.363 . S
C2364 H2367 0.929 . S
C2365 C2364 1.363 . S
C2365 C2371 1.428 . S
H2366 C2362 0.930 . S
H2367 C2364 0.929 . S
S2368 N2369 1.613 . S
S2368 N2370 1.610 . S
N2369 S2368 1.613 . S
N2369 C2372 1.350 . S
N2370 S2368 1.610 . S
N2370 C2371 1.351 . S
C2371 C2365 1.428 . S
C2371 N2370 1.351 . S
C2371 C2372 1.434 . S
C2372 C2363 1.429 . S
C2372 N2369 1.350 . S
C2372 C2371 1.434 . S
C2373 C2374 1.369 . S
C2373 C2375 1.419 . S
C2373 H2377 0.930 . S
C2374 C2373 1.369 . S
C2374 C2383 1.429 . S
C2375 C2373 1.419 . S
C2375 C2376 1.363 . S
C2375 H2378 0.929 . S
C2376 C2375 1.363 . S
C2376 C2382 1.428 . S
H2377 C2373 0.930 . S
H2378 C2375 0.929 . S
S2379 N2380 1.613 . S
S2379 N2381 1.610 . S
N2380 S2379 1.613 . S
N2380 C2383 1.350 . S
N2381 S2379 1.610 . S
N2381 C2382 1.351 . S
C2382 C2376 1.428 . S
C2382 N2381 1.351 . S
C2382 C2383 1.434 . S
C2383 C2374 1.429 . S
C2383 N2380 1.350 . S
C2383 C2382 1.434 . S
C2384 C2385 1.369 . S
C2384 C2386 1.419 . S
C2384 H2388 0.930 . S
C2385 C2384 1.369 . S
C2385 C2394 1.429 . S
C2386 C2384 1.419 . S
C2386 C2387 1.363 . S
C2386 H2389 0.929 . S
C2387 C2386 1.363 . S
C2387 C2393 1.428 . S
H2388 C2384 0.930 . S
H2389 C2386 0.929 . S
S2390 N2391 1.613 . S
S2390 N2392 1.610 . S
N2391 S2390 1.613 . S
N2391 C2394 1.350 . S
N2392 S2390 1.610 . S
N2392 C2393 1.351 . S
C2393 C2387 1.428 . S
C2393 N2392 1.351 . S
C2393 C2394 1.434 . S
C2394 C2385 1.429 . S
C2394 N2391 1.350 . S
C2394 C2393 1.434 . S
C2395 C2396 1.369 . S
C2395 C2397 1.419 . S
C2395 H2399 0.930 . S
C2396 C2395 1.369 . S
C2396 C2405 1.429 . S
C2397 C2395 1.419 . S
C2397 C2398 1.363 . S
C2397 H2400 0.929 . S
C2398 C2397 1.363 . S
C2398 C2404 1.428 . S
H2399 C2395 0.930 . S
H2400 C2397 0.929 . S
S2401 N2402 1.613 . S
S2401 N2403 1.610 . S
N2402 S2401 1.613 . S
N2402 C2405 1.350 . S
N2403 S2401 1.610 . S
N2403 C2404 1.351 . S
C2404 C2398 1.428 . S
C2404 N2403 1.351 . S
C2404 C2405 1.434 . S
C2405 C2396 1.429 . S
C2405 N2402 1.350 . S
C2405 C2404 1.434 . S
C2406 C2407 1.369 . S
C2406 C2408 1.419 . S
C2406 H2410 0.930 . S
C2407 C2406 1.369 . S
C2407 C2416 1.429 . S
C2408 C2406 1.419 . S
C2408 C2409 1.363 . S
C2408 H2411 0.929 . S
C2409 C2408 1.363 . S
C2409 C2415 1.428 . S
H2410 C2406 0.930 . S
H2411 C2408 0.929 . S
S2412 N2413 1.613 . S
S2412 N2414 1.610 . S
N2413 S2412 1.613 . S
N2413 C2416 1.350 . S
N2414 S2412 1.610 . S
N2414 C2415 1.351 . S
C2415 C2409 1.428 . S
C2415 N2414 1.351 . S
C2415 C2416 1.434 . S
C2416 C2407 1.429 . S
C2416 N2413 1.350 . S
C2416 C2415 1.434 . S
C2417 C2418 1.363 1_556 S
C2417 C2419 1.422 1_556 S
C2417 H2421 0.934 . S
C2418 C2417 1.363 1_554 S
C2418 C2427 1.429 1_565 S
C2419 C2417 1.422 1_554 S
C2419 C2420 1.363 1_565 S
C2419 H2422 0.929 1_554 S
C2420 C2419 1.363 1_545 S
C2420 C2426 1.428 . S
H2421 C2417 0.934 . S
H2422 C2419 0.929 1_556 S
S2423 N2424 1.613 . S
S2423 N2425 1.610 . S
N2424 S2423 1.613 . S
N2424 C2427 1.350 . S
N2425 S2423 1.610 . S
N2425 C2426 1.351 . S
C2426 C2420 1.428 . S
C2426 N2425 1.351 . S
C2426 C2427 1.434 . S
C2427 C2418 1.429 1_545 S
C2427 N2424 1.350 . S
C2427 C2426 1.434 . S
C2428 C2429 1.369 . S
C2428 C2430 1.419 . S
C2428 H2432 0.930 . S
C2429 C2428 1.369 . S
C2429 C2438 1.429 . S
C2430 C2428 1.419 . S
C2430 C2431 1.363 . S
C2430 H2433 0.929 . S
C2431 C2430 1.363 . S
C2431 C2437 1.428 . S
H2432 C2428 0.930 . S
H2433 C2430 0.929 . S
S2434 N2435 1.613 . S
S2434 N2436 1.610 . S
N2435 S2434 1.613 . S
N2435 C2438 1.350 . S
N2436 S2434 1.610 . S
N2436 C2437 1.351 . S
C2437 C2431 1.428 . S
C2437 N2436 1.351 . S
C2437 C2438 1.434 . S
C2438 C2429 1.429 . S
C2438 N2435 1.350 . S
C2438 C2437 1.434 . S
C2439 C2440 1.369 1_556 S
C2439 C2441 1.419 1_556 S
C2439 H2443 0.930 . S
C2440 C2439 1.369 1_554 S
C2440 C2449 1.429 . S
C2441 C2439 1.419 1_554 S
C2441 C2442 1.363 . S
C2441 H2444 0.929 . S
C2442 C2441 1.363 . S
C2442 C2448 1.428 . S
H2443 C2439 0.930 . S
H2444 C2441 0.929 . S
S2445 N2446 1.613 . S
S2445 N2447 1.610 . S
N2446 S2445 1.613 . S
N2446 C2449 1.350 . S
N2447 S2445 1.610 . S
N2447 C2448 1.351 . S
C2448 C2442 1.428 . S
C2448 N2447 1.351 . S
C2448 C2449 1.434 . S
C2449 C2440 1.429 . S
C2449 N2446 1.350 . S
C2449 C2448 1.434 . S
C2450 C2451 1.369 . S
C2450 C2452 1.419 . S
C2450 H2454 0.930 . S
C2451 C2450 1.369 . S
C2451 C2460 1.429 . S
C2452 C2450 1.419 . S
C2452 C2453 1.363 . S
C2452 H2455 0.929 . S
C2453 C2452 1.363 . S
C2453 C2459 1.428 . S
H2454 C2450 0.930 . S
H2455 C2452 0.929 . S
S2456 N2457 1.613 . S
S2456 N2458 1.610 . S
N2457 S2456 1.613 . S
N2457 C2460 1.350 . S
N2458 S2456 1.610 . S
N2458 C2459 1.351 . S
C2459 C2453 1.428 . S
C2459 N2458 1.351 . S
C2459 C2460 1.434 . S
C2460 C2451 1.429 . S
C2460 N2457 1.350 . S
C2460 C2459 1.434 . S
C2461 C2462 1.369 . S
C2461 C2463 1.419 . S
C2461 H2465 0.930 . S
C2462 C2461 1.369 . S
C2462 C2471 1.429 . S
C2463 C2461 1.419 . S
C2463 C2464 1.363 . S
C2463 H2466 0.929 . S
C2464 C2463 1.363 . S
C2464 C2470 1.428 . S
H2465 C2461 0.930 . S
H2466 C2463 0.929 . S
S2467 N2468 1.613 . S
S2467 N2469 1.610 . S
N2468 S2467 1.613 . S
N2468 C2471 1.350 . S
N2469 S2467 1.610 . S
N2469 C2470 1.351 . S
C2470 C2464 1.428 . S
C2470 N2469 1.351 . S
C2470 C2471 1.434 . S
C2471 C2462 1.429 . S
C2471 N2468 1.350 . S
C2471 C2470 1.434 . S
C2472 C2473 1.369 . S
C2472 C2474 1.419 . S
C2472 H2476 0.930 . S
C2473 C2472 1.369 . S
C2473 C2482 1.429 . S
C2474 C2472 1.419 . S
C2474 C2475 1.363 . S
C2474 H2477 0.929 . S
C2475 C2474 1.363 . S
C2475 C2481 1.428 . S
H2476 C2472 0.930 . S
H2477 C2474 0.929 . S
S2478 N2479 1.613 . S
S2478 N2480 1.610 . S
N2479 S2478 1.613 . S
N2479 C2482 1.350 . S
N2480 S2478 1.610 . S
N2480 C2481 1.351 . S
C2481 C2475 1.428 . S
C2481 N2480 1.351 . S
C2481 C2482 1.434 . S
C2482 C2473 1.429 . S
C2482 N2479 1.350 . S
C2482 C2481 1.434 . S
C2483 C2484 1.369 . S
C2483 C2485 1.419 . S
C2483 H2487 0.930 . S
C2484 C2483 1.369 . S
C2484 C2493 1.429 . S
C2485 C2483 1.419 . S
C2485 C2486 1.363 . S
C2485 H2488 0.929 . S
C2486 C2485 1.363 . S
C2486 C2492 1.428 . S
H2487 C2483 0.930 . S
H2488 C2485 0.929 . S
S2489 N2490 1.613 . S
S2489 N2491 1.610 . S
N2490 S2489 1.613 . S
N2490 C2493 1.350 . S
N2491 S2489 1.610 . S
N2491 C2492 1.351 . S
C2492 C2486 1.428 . S
C2492 N2491 1.351 . S
C2492 C2493 1.434 . S
C2493 C2484 1.429 . S
C2493 N2490 1.350 . S
C2493 C2492 1.434 . S
C2494 C2495 1.369 . S
C2494 C2496 1.419 . S
C2494 H2498 0.930 . S
C2495 C2494 1.369 . S
C2495 C2504 1.429 . S
C2496 C2494 1.419 . S
C2496 C2497 1.363 . S
C2496 H2499 0.929 . S
C2497 C2496 1.363 . S
C2497 C2503 1.428 . S
H2498 C2494 0.930 . S
H2499 C2496 0.929 . S
S2500 N2501 1.613 . S
S2500 N2502 1.610 . S
N2501 S2500 1.613 . S
N2501 C2504 1.350 . S
N2502 S2500 1.610 . S
N2502 C2503 1.351 . S
C2503 C2497 1.428 . S
C2503 N2502 1.351 . S
C2503 C2504 1.434 . S
C2504 C2495 1.429 . S
C2504 N2501 1.350 . S
C2504 C2503 1.434 . S
C2505 C2506 1.369 . S
C2505 C2507 1.419 . S
C2505 H2509 0.930 . S
C2506 C2505 1.369 . S
C2506 C2515 1.429 . S
C2507 C2505 1.419 . S
C2507 C2508 1.363 . S
C2507 H2510 0.929 . S
C2508 C2507 1.363 . S
C2508 C2514 1.428 . S
H2509 C2505 0.930 . S
H2510 C2507 0.929 . S
S2511 N2512 1.613 . S
S2511 N2513 1.610 . S
N2512 S2511 1.613 . S
N2512 C2515 1.350 . S
N2513 S2511 1.610 . S
N2513 C2514 1.351 . S
C2514 C2508 1.428 . S
C2514 N2513 1.351 . S
C2514 C2515 1.434 . S
C2515 C2506 1.429 . S
C2515 N2512 1.350 . S
C2515 C2514 1.434 . S
C2516 C2517 1.369 . S
C2516 C2518 1.419 . S
C2516 H2520 0.930 . S
C2517 C2516 1.369 . S
C2517 C2526 1.429 . S
C2518 C2516 1.419 . S
C2518 C2519 1.363 . S
C2518 H2521 0.922 1_556 S
C2519 C2518 1.363 . S
C2519 C2525 1.428 . S
H2520 C2516 0.930 . S
H2521 C2518 0.922 1_554 S
S2522 N2523 1.613 . S
S2522 N2524 1.610 . S
N2523 S2522 1.613 . S
N2523 C2526 1.350 . S
N2524 S2522 1.610 . S
N2524 C2525 1.351 . S
C2525 C2519 1.428 . S
C2525 N2524 1.351 . S
C2525 C2526 1.434 . S
C2526 C2517 1.429 . S
C2526 N2523 1.350 . S
C2526 C2525 1.434 . S
C2527 C2528 1.369 . S
C2527 C2529 1.419 . S
C2527 H2531 0.930 . S
C2528 C2527 1.369 . S
C2528 C2537 1.429 . S
C2529 C2527 1.419 . S
C2529 C2530 1.363 . S
C2529 H2532 0.929 . S
C2530 C2529 1.363 . S
C2530 C2536 1.428 . S
H2531 C2527 0.930 . S
H2532 C2529 0.929 . S
S2533 N2534 1.613 . S
S2533 N2535 1.610 . S
N2534 S2533 1.613 . S
N2534 C2537 1.350 . S
N2535 S2533 1.610 . S
N2535 C2536 1.351 . S
C2536 C2530 1.428 . S
C2536 N2535 1.351 . S
C2536 C2537 1.434 . S
C2537 C2528 1.429 . S
C2537 N2534 1.350 . S
C2537 C2536 1.434 . S
C2538 C2539 1.369 . S
C2538 C2540 1.419 . S
C2538 H2542 0.930 . S
C2539 C2538 1.369 . S
C2539 C2548 1.429 . S
C2540 C2538 1.419 . S
C2540 C2541 1.363 . S
C2540 H2543 0.929 . S
C2541 C2540 1.363 . S
C2541 C2547 1.428 . S
H2542 C2538 0.930 . S
H2543 C2540 0.929 . S
S2544 N2545 1.613 . S
S2544 N2546 1.610 . S
N2545 S2544 1.613 . S
N2545 C2548 1.350 . S
N2546 S2544 1.610 . S
N2546 C2547 1.351 . S
C2547 C2541 1.428 . S
C2547 N2546 1.351 . S
C2547 C2548 1.434 . S
C2548 C2539 1.429 . S
C2548 N2545 1.350 . S
C2548 C2547 1.434 . S
C2549 C2550 1.369 . S
C2549 C2551 1.419 . S
C2549 H2553 0.930 . S
C2550 C2549 1.369 . S
C2550 C2559 1.429 . S
C2551 C2549 1.419 . S
C2551 C2552 1.363 . S
C2551 H2554 0.929 . S
C2552 C2551 1.363 . S
C2552 C2558 1.428 . S
H2553 C2549 0.930 . S
H2554 C2551 0.929 . S
S2555 N2556 1.613 . S
S2555 N2557 1.610 . S
N2556 S2555 1.613 . S
N2556 C2559 1.350 . S
N2557 S2555 1.610 . S
N2557 C2558 1.351 . S
C2558 C2552 1.428 . S
C2558 N2557 1.351 . S
C2558 C2559 1.434 . S
C2559 C2550 1.429 . S
C2559 N2556 1.350 . S
C2559 C2558 1.434 . S
C2560 C2561 1.369 . S
C2560 C2562 1.419 . S
C2560 H2564 0.930 . S
C2561 C2560 1.369 . S
C2561 C2570 1.429 . S
C2562 C2560 1.419 . S
C2562 C2563 1.363 . S
C2562 H2565 0.929 . S
C2563 C2562 1.363 . S
C2563 C2569 1.428 . S
H2564 C2560 0.930 . S
H2565 C2562 0.929 . S
S2566 N2567 1.613 . S
S2566 N2568 1.610 . S
N2567 S2566 1.613 . S
N2567 C2570 1.350 . S
N2568 S2566 1.610 . S
N2568 C2569 1.351 . S
C2569 C2563 1.428 . S
C2569 N2568 1.351 . S
C2569 C2570 1.434 . S
C2570 C2561 1.429 . S
C2570 N2567 1.350 . S
C2570 C2569 1.434 . S
C2571 C2572 1.369 . S
C2571 C2573 1.419 . S
C2571 H2575 0.930 . S
C2572 C2571 1.369 . S
C2572 C2581 1.429 . S
C2573 C2571 1.419 . S
C2573 C2574 1.363 . S
C2573 H2576 0.929 . S
C2574 C2573 1.363 . S
C2574 C2580 1.428 . S
H2575 C2571 0.930 . S
H2576 C2573 0.929 . S
S2577 N2578 1.613 . S
S2577 N2579 1.610 . S
N2578 S2577 1.613 . S
N2578 C2581 1.350 . S
N2579 S2577 1.610 . S
N2579 C2580 1.351 . S
C2580 C2574 1.428 . S
C2580 N2579 1.351 . S
C2580 C2581 1.434 . S
C2581 C2572 1.429 . S
C2581 N2578 1.350 . S
C2581 C2580 1.434 . S
C2582 C2583 1.369 . S
C2582 C2584 1.419 1_655 S
C2582 H2586 0.930 . S
C2583 C2582 1.369 . S
C2583 C2592 1.429 . S
C2584 C2582 1.419 1_455 S
C2584 C2585 1.363 . S
C2584 H2587 0.929 . S
C2585 C2584 1.363 . S
C2585 C2591 1.436 . S
H2586 C2582 0.930 . S
H2587 C2584 0.929 . S
S2588 N2589 1.613 . S
S2588 N2590 1.610 1_655 S
N2589 S2588 1.613 . S
N2589 C2592 1.350 . S
N2590 S2588 1.610 1_455 S
N2590 C2591 1.354 . S
C2591 C2585 1.436 . S
C2591 N2590 1.354 . S
C2591 C2592 1.422 1_455 S
C2592 C2583 1.429 . S
C2592 N2589 1.350 . S
C2592 C2591 1.422 1_655 S
C2593 C2594 1.369 . S
C2593 C2595 1.419 . S
C2593 H2597 0.930 . S
C2594 C2593 1.369 . S
C2594 C2603 1.429 . S
C2595 C2593 1.419 . S
C2595 C2596 1.363 . S
C2595 H2598 0.929 . S
C2596 C2595 1.363 . S
C2596 C2602 1.428 . S
H2597 C2593 0.930 . S
H2598 C2595 0.929 . S
S2599 N2600 1.613 . S
S2599 N2601 1.610 . S
N2600 S2599 1.613 . S
N2600 C2603 1.350 . S
N2601 S2599 1.610 . S
N2601 C2602 1.351 . S
C2602 C2596 1.428 . S
C2602 N2601 1.351 . S
C2602 C2603 1.434 . S
C2603 C2594 1.429 . S
C2603 N2600 1.350 . S
C2603 C2602 1.434 . S
C2604 C2605 1.369 . S
C2604 C2606 1.419 . S
C2604 H2608 0.930 . S
C2605 C2604 1.369 . S
C2605 C2614 1.429 . S
C2606 C2604 1.419 . S
C2606 C2607 1.363 . S
C2606 H2609 0.929 . S
C2607 C2606 1.363 . S
C2607 C2613 1.428 . S
H2608 C2604 0.930 . S
H2609 C2606 0.929 . S
S2610 N2611 1.613 . S
S2610 N2612 1.610 . S
N2611 S2610 1.613 . S
N2611 C2614 1.350 . S
N2612 S2610 1.610 . S
N2612 C2613 1.351 . S
C2613 C2607 1.428 . S
C2613 N2612 1.351 . S
C2613 C2614 1.434 . S
C2614 C2605 1.429 . S
C2614 N2611 1.350 . S
C2614 C2613 1.434 . S
C2615 C2616 1.369 . S
C2615 C2617 1.419 . S
C2615 H2619 0.930 . S
C2616 C2615 1.369 . S
C2616 C2625 1.429 . S
C2617 C2615 1.419 . S
C2617 C2618 1.363 . S
C2617 H2620 0.929 . S
C2618 C2617 1.363 . S
C2618 C2624 1.428 . S
H2619 C2615 0.930 . S
H2620 C2617 0.929 . S
S2621 N2622 1.613 . S
S2621 N2623 1.610 . S
N2622 S2621 1.613 . S
N2622 C2625 1.350 . S
N2623 S2621 1.610 . S
N2623 C2624 1.351 . S
C2624 C2618 1.428 . S
C2624 N2623 1.351 . S
C2624 C2625 1.434 . S
C2625 C2616 1.429 . S
C2625 N2622 1.350 . S
C2625 C2624 1.434 . S
C2626 C2627 1.369 . S
C2626 C2628 1.419 . S
C2626 H2630 0.930 . S
C2627 C2626 1.369 . S
C2627 C2636 1.429 . S
C2628 C2626 1.419 . S
C2628 C2629 1.363 . S
C2628 H2631 0.929 . S
C2629 C2628 1.363 . S
C2629 C2635 1.428 . S
H2630 C2626 0.930 . S
H2631 C2628 0.929 . S
S2632 N2633 1.613 1_455 S
S2632 N2634 1.610 . S
N2633 S2632 1.613 1_655 S
N2633 C2636 1.350 . S
N2634 S2632 1.610 . S
N2634 C2635 1.351 1_455 S
C2635 C2629 1.428 . S
C2635 N2634 1.351 1_655 S
C2635 C2636 1.434 . S
C2636 C2627 1.429 . S
C2636 N2633 1.350 . S
C2636 C2635 1.434 . S
C2637 C2638 1.369 . S
C2637 C2639 1.419 . S
C2637 H2641 0.930 . S
C2638 C2637 1.369 . S
C2638 C2647 1.429 . S
C2639 C2637 1.419 . S
C2639 C2640 1.363 . S
C2639 H2642 0.929 . S
C2640 C2639 1.363 . S
C2640 C2646 1.428 . S
H2641 C2637 0.930 . S
H2642 C2639 0.929 . S
S2643 N2644 1.613 . S
S2643 N2645 1.610 . S
N2644 S2643 1.613 . S
N2644 C2647 1.350 . S
N2645 S2643 1.610 . S
N2645 C2646 1.351 . S
C2646 C2640 1.428 . S
C2646 N2645 1.351 . S
C2646 C2647 1.434 . S
C2647 C2638 1.429 . S
C2647 N2644 1.350 . S
C2647 C2646 1.434 . S
C2648 C2649 1.369 . S
C2648 C2650 1.419 . S
C2648 H2652 0.930 . S
C2649 C2648 1.369 . S
C2649 C2658 1.429 . S
C2650 C2648 1.419 . S
C2650 C2651 1.363 . S
C2650 H2653 0.929 . S
C2651 C2650 1.363 . S
C2651 C2657 1.428 . S
H2652 C2648 0.930 . S
H2653 C2650 0.929 . S
S2654 N2655 1.613 . S
S2654 N2656 1.610 . S
N2655 S2654 1.613 . S
N2655 C2658 1.350 . S
N2656 S2654 1.610 . S
N2656 C2657 1.351 . S
C2657 C2651 1.428 . S
C2657 N2656 1.351 . S
C2657 C2658 1.434 . S
C2658 C2649 1.429 . S
C2658 N2655 1.350 . S
C2658 C2657 1.434 . S
C2659 C2660 1.369 . S
C2659 C2661 1.419 . S
C2659 H2663 0.930 . S
C2660 C2659 1.369 . S
C2660 C2669 1.429 . S
C2661 C2659 1.419 . S
C2661 C2662 1.363 . S
C2661 H2664 0.929 . S
C2662 C2661 1.363 . S
C2662 C2668 1.428 . S
H2663 C2659 0.930 . S
H2664 C2661 0.929 . S
S2665 N2666 1.613 . S
S2665 N2667 1.610 1_565 S
N2666 S2665 1.613 . S
N2666 C2669 1.350 . S
N2667 S2665 1.610 1_545 S
N2667 C2668 1.351 1_545 S
C2668 C2662 1.428 . S
C2668 N2667 1.351 1_565 S
C2668 C2669 1.434 . S
C2669 C2660 1.429 . S
C2669 N2666 1.350 . S
C2669 C2668 1.434 . S
C2670 C2671 1.369 . S
C2670 C2672 1.419 . S
C2670 H2674 0.930 . S
C2671 C2670 1.369 . S
C2671 C2680 1.429 . S
C2672 C2670 1.419 . S
C2672 C2673 1.363 . S
C2672 H2675 0.929 . S
C2673 C2672 1.363 . S
C2673 C2679 1.428 . S
H2674 C2670 0.930 . S
H2675 C2672 0.929 . S
S2676 N2677 1.613 . S
S2676 N2678 1.610 . S
N2677 S2676 1.613 . S
N2677 C2680 1.350 . S
N2678 S2676 1.610 . S
N2678 C2679 1.351 . S
C2679 C2673 1.428 . S
C2679 N2678 1.351 . S
C2679 C2680 1.434 . S
C2680 C2671 1.429 . S
C2680 N2677 1.350 . S
C2680 C2679 1.434 . S
C2681 C2682 1.369 . S
C2681 C2683 1.419 . S
C2681 H2685 0.930 . S
C2682 C2681 1.369 . S
C2682 C2691 1.429 . S
C2683 C2681 1.419 . S
C2683 C2684 1.363 . S
C2683 H2686 0.919 1_554 S
C2684 C2683 1.363 . S
C2684 C2690 1.428 . S
H2685 C2681 0.930 . S
H2686 C2683 0.919 1_556 S
S2687 N2688 1.613 . S
S2687 N2689 1.610 . S
N2688 S2687 1.613 . S
N2688 C2691 1.350 . S
N2689 S2687 1.610 . S
N2689 C2690 1.351 . S
C2690 C2684 1.428 . S
C2690 N2689 1.351 . S
C2690 C2691 1.434 . S
C2691 C2682 1.429 . S
C2691 N2688 1.350 . S
C2691 C2690 1.434 . S
C2692 C2693 1.369 . S
C2692 C2694 1.419 . S
C2692 H2696 0.930 . S
C2693 C2692 1.369 . S
C2693 C2702 1.429 . S
C2694 C2692 1.419 . S
C2694 C2695 1.363 . S
C2694 H2697 0.929 . S
C2695 C2694 1.363 . S
C2695 C2701 1.428 . S
H2696 C2692 0.930 . S
H2697 C2694 0.929 . S
S2698 N2699 1.613 . S
S2698 N2700 1.610 . S
N2699 S2698 1.613 . S
N2699 C2702 1.350 . S
N2700 S2698 1.610 . S
N2700 C2701 1.351 . S
C2701 C2695 1.428 . S
C2701 N2700 1.351 . S
C2701 C2702 1.434 . S
C2702 C2693 1.429 . S
C2702 N2699 1.350 . S
C2702 C2701 1.434 . S
C2703 C2704 1.369 . S
C2703 C2705 1.419 . S
C2703 H2707 0.930 . S
C2704 C2703 1.369 . S
C2704 C2713 1.429 . S
C2705 C2703 1.419 . S
C2705 C2706 1.363 . S
C2705 H2708 0.929 1_554 S
C2706 C2705 1.363 . S
C2706 C2712 1.428 . S
H2707 C2703 0.930 . S
H2708 C2705 0.929 1_556 S
S2709 N2710 1.613 . S
S2709 N2711 1.610 . S
N2710 S2709 1.613 . S
N2710 C2713 1.350 . S
N2711 S2709 1.610 . S
N2711 C2712 1.351 . S
C2712 C2706 1.428 . S
C2712 N2711 1.351 . S
C2712 C2713 1.434 . S
C2713 C2704 1.429 . S
C2713 N2710 1.350 . S
C2713 C2712 1.434 . S
C2714 C2715 1.369 . S
C2714 C2716 1.419 . S
C2714 H2718 0.930 . S
C2715 C2714 1.369 . S
C2715 C2724 1.429 . S
C2716 C2714 1.419 . S
C2716 C2717 1.363 . S
C2716 H2719 0.929 . S
C2717 C2716 1.363 . S
C2717 C2723 1.428 . S
H2718 C2714 0.930 . S
H2719 C2716 0.929 . S
S2720 N2721 1.613 . S
S2720 N2722 1.610 . S
N2721 S2720 1.613 . S
N2721 C2724 1.350 . S
N2722 S2720 1.610 . S
N2722 C2723 1.351 . S
C2723 C2717 1.428 . S
C2723 N2722 1.351 . S
C2723 C2724 1.434 . S
C2724 C2715 1.429 . S
C2724 N2721 1.350 . S
C2724 C2723 1.434 . S
C2725 C2726 1.369 . S
C2725 C2727 1.419 . S
C2725 H2729 0.930 . S
C2726 C2725 1.369 . S
C2726 C2735 1.429 . S
C2727 C2725 1.419 . S
C2727 C2728 1.363 . S
C2727 H2730 0.929 . S
C2728 C2727 1.363 . S
C2728 C2734 1.428 . S
H2729 C2725 0.930 . S
H2730 C2727 0.929 . S
S2731 N2732 1.613 . S
S2731 N2733 1.610 . S
N2732 S2731 1.613 . S
N2732 C2735 1.350 . S
N2733 S2731 1.610 . S
N2733 C2734 1.351 . S
C2734 C2728 1.428 . S
C2734 N2733 1.351 . S
C2734 C2735 1.434 . S
C2735 C2726 1.429 . S
C2735 N2732 1.350 . S
C2735 C2734 1.434 . S
C1681 C105 2.076 . S
C1683 C392 1.905 . S
C1692 C65 2.286 . S
C1694 C483 2.219 . S
C1703 C73 1.719 . S
C1705 C560 1.655 . S
C1716 C658 1.371 . S
C1714 C92 1.462 . S
C1725 C17 1.637 . S
C1727 C742 1.657 . S
C1738 C814 1.033 . S
C1736 C37 1.081 . S
C1749 C903 1.317 . S
C1747 C49 1.068 . S
C1758 C8 1.788 . S
C1760 C980 1.546 . S
C1771 C399 2.110 . S
C1769 C231 2.169 . S
C1780 C241 0.897 . S
C1782 C490 0.874 . S
C1793 C567 1.260 . S
C1791 C273 1.259 . S
C1804 C644 1.620 . S
C1802 C171 1.705 . S
C1813 C227 2.232 1_455 S
C1815 C728 2.025 . S
C1826 C830 1.238 . S
C1824 C245 1.301 . S
C1837 C910 0.850 . S
C1835 C269 0.877 . S
C1848 C987 1.686 . S
C1846 C175 1.884 . S
C1859 C406 1.458 . S
C1857 C162 1.487 . S
C1868 C289 1.958 . S
C1870 C1071 1.882 1_556 S
C1881 C1159 2.286 . S
C1879 C330 2.486 . S
C1892 C1232 0.704 . S
C1890 C317 0.696 . S
C1901 C120 1.389 . S
C1903 C994 1.537 . S
C1912 C134 1.558 . S
C1914 C574 1.582 . S
C1923 C331 2.156 . S
C1925 C1323 2.077 . S
C1936 C1400 0.807 . S
C1934 C303 0.827 . S
C1947 C403 1.919 . S
C1945 C59 2.051 . S
C1958 C1418 2.242 . S
C1956 C107 2.292 . S
C1967 C91 1.776 . S
C1969 C571 1.698 . S
C1978 C78 1.485 . S
C1980 C1318 1.398 . S
C1991 C730 1.660 . S
C1989 C7 1.514 . S
C2000 C51 1.103 . S
C2002 C1162 1.042 . S
C2013 C914 1.366 . S
C2011 C31 1.269 . S
C2024 C1495 1.548 . S
C2022 C22 1.745 . S
C2035 C410 2.138 . S
C2033 C143 2.244 . S
C2046 C1402 0.869 . S
C2044 C315 0.867 . S
C2055 C115 1.333 . S
C2057 C578 1.274 . S
C2066 C287 1.734 . S
C2068 C1327 1.652 . S
C2077 C147 2.119 . S
C2079 C739 2.055 . S
C2090 C1155 1.244 . S
C2088 C311 1.386 . S
C2099 C119 0.889 . S
C2101 C898 0.857 1_545 S
C2110 C283 1.878 . S
C2112 C1502 1.711 . S
C2121 C190 1.474 . S
C2123 C394 1.453 1_554 S
C2132 C177 1.972 . S
C2134 C1082 1.901 . S
C2143 C260 2.502 . S
C2145 C812 2.312 . S
C2154 C247 0.739 . S
C2156 C1243 0.745 . S
C2167 C1486 1.455 . S
C2165 C274 1.278 1_565 S
C2176 C218 1.523 . S
C2178 C562 1.565 . S
C2189 C662 2.102 . S
C2187 C261 2.180 . S
C2200 C487 0.814 . S
C2198 C205 0.834 . S
C2209 C77 2.078 . S
C2211 C1568 1.904 . S
C2222 C1407 2.219 . S
C2220 C93 2.285 . S
C2231 C101 1.715 . S
C2233 C1652 1.649 . S
C2242 C64 1.461 . S
C2244 C1330 1.372 . S
C2253 C45 1.631 . S
C2255 C1078 1.657 . S
C2266 C1150 1.030 1_455 S
C2264 C9 1.085 . S
C2277 C1239 1.318 . S
C2275 C21 1.075 . S
C2288 C1484 1.543 . S
C2286 C36 1.791 . S
C2299 C1575 2.110 . S
C2297 C259 2.169 . S
C2308 C185 0.889 . S
C2310 C1414 0.878 . S
C2321 C1659 1.259 . S
C2319 C203 1.258 . S
C2332 C1316 1.622 . S
C2330 C213 1.708 . S
C2343 C1064 2.032 . S
C2341 C255 2.229 . S
C2352 C189 1.308 . S
C2354 C1166 1.231 . S
C2365 C1246 0.839 . S
C2363 C199 0.875 . S
C2374 C217 1.881 . S
C2376 C1491 1.687 . S
C2387 C1582 1.453 . S
C2385 C316 1.484 . S
C2396 C135 1.957 . S
C2398 C735 1.881 . S
C2409 C823 2.288 . S
C2407 C148 2.485 . S
C2420 C896 0.703 . S
C2418 C163 0.695 . S
C2431 C1498 1.539 . S
C2429 C302 1.375 . S
C2440 C288 1.555 1_554 S
C2442 C1666 1.578 . S
C2453 C651 2.075 . S
C2451 C149 2.154 . S
C2464 C476 0.800 . S
C2462 C121 0.832 . S
C2473 C87 2.047 . S
C2475 C1579 1.925 . S
C2486 C494 2.241 . S
C2484 C79 2.292 . S
C2495 C63 1.776 . S
C2497 C1663 1.701 . S
C2506 C106 1.482 . S
C2508 C646 1.396 . S
C2517 C35 1.504 . S
C2519 C1066 1.657 . S
C2530 C826 1.037 . S
C2528 C23 1.101 . S
C2539 C3 1.275 . S
C2541 C1250 1.367 . S
C2550 C50 1.743 . S
C2552 C991 1.550 . S
C2563 C1586 2.134 . S
C2561 C325 2.245 . S
C2572 C161 0.875 . S
C2574 C478 0.870 . S
C2585 C1670 1.264 . S
C2583 C297 1.337 . S
C2594 C133 1.732 . S
C2596 C655 1.661 . S
C2605 C329 2.115 . S
C2607 C1075 2.060 . S
C2618 C819 1.252 . S
C2616 C157 1.379 . S
C2627 C301 0.886 . S
C2629 C1234 0.861 1_655 S
C2640 C998 1.711 . S
C2638 C129 1.876 . S
C2651 C1570 1.459 . S
C2649 C246 1.477 . S
C2662 C746 1.901 1_665 S
C2660 C219 1.972 . S
C2671 C232 2.504 . S
C2673 C1148 2.309 . S
C2684 C907 0.747 . S
C2682 C191 0.741 . S
C2693 C204 1.278 . S
C2695 C982 1.456 . S
C2704 C176 1.525 . S
C2706 C1654 1.566 1_554 S
C2717 C1334 2.100 . S
C2715 C233 2.177 . S
C2728 C1411 0.818 . S
C2726 C275 0.837 . S
