# Generated by pormake.
# Topology dag, (6,3)-cn, num edge types: 1
# Building blocks:
#     Node 0, Type 0, BuildingBlock: IZENUY_clean_sbu_0, # of connection points: 6
#     Node 1, Type 0, BuildingBlock: IZENUY_clean_sbu_0, # of connection points: 6
#     Node 2, Type 0, BuildingBlock: IZENUY_clean_sbu_0, # of connection points: 6
#     Node 3, Type 0, BuildingBlock: IZENUY_clean_sbu_0, # of connection points: 6
#     Node 4, Type 1, BuildingBlock: OLANEW_clean_sbu_2, # of connection points: 3
#     Node 5, Type 1, BuildingBlock: OLANEW_clean_sbu_2, # of connection points: 3
#     Node 6, Type 1, BuildingBlock: OLANEW_clean_sbu_2, # of connection points: 3
#     Node 7, Type 1, BuildingBlock: OLANEW_clean_sbu_2, # of connection points: 3
#     Node 8, Type 1, BuildingBlock: OLANEW_clean_sbu_2, # of connection points: 3
#     Node 9, Type 1, BuildingBlock: OLANEW_clean_sbu_2, # of connection points: 3
#     Node 10, Type 1, BuildingBlock: OLANEW_clean_sbu_2, # of connection points: 3
#     Node 11, Type 1, BuildingBlock: OLANEW_clean_sbu_2, # of connection points: 3
#     Edge 12, Type (0, 1), BuildingBlock: UVAHIK_clean_linker_0, # of connection points: 2
#     Edge 13, Type (0, 1), BuildingBlock: UVAHIK_clean_linker_0, # of connection points: 2
#     Edge 14, Type (0, 1), BuildingBlock: UVAHIK_clean_linker_0, # of connection points: 2
#     Edge 15, Type (0, 1), BuildingBlock: UVAHIK_clean_linker_0, # of connection points: 2
#     Edge 16, Type (0, 1), BuildingBlock: UVAHIK_clean_linker_0, # of connection points: 2
#     Edge 17, Type (0, 1), BuildingBlock: UVAHIK_clean_linker_0, # of connection points: 2
#     Edge 18, Type (0, 1), BuildingBlock: UVAHIK_clean_linker_0, # of connection points: 2
#     Edge 19, Type (0, 1), BuildingBlock: UVAHIK_clean_linker_0, # of connection points: 2
#     Edge 20, Type (0, 1), BuildingBlock: UVAHIK_clean_linker_0, # of connection points: 2
#     Edge 21, Type (0, 1), BuildingBlock: UVAHIK_clean_linker_0, # of connection points: 2
#     Edge 22, Type (0, 1), BuildingBlock: UVAHIK_clean_linker_0, # of connection points: 2
#     Edge 23, Type (0, 1), BuildingBlock: UVAHIK_clean_linker_0, # of connection points: 2
#     Edge 24, Type (0, 1), BuildingBlock: UVAHIK_clean_linker_0, # of connection points: 2
#     Edge 25, Type (0, 1), BuildingBlock: UVAHIK_clean_linker_0, # of connection points: 2
#     Edge 26, Type (0, 1), BuildingBlock: UVAHIK_clean_linker_0, # of connection points: 2
#     Edge 27, Type (0, 1), BuildingBlock: UVAHIK_clean_linker_0, # of connection points: 2
#     Edge 28, Type (0, 1), BuildingBlock: UVAHIK_clean_linker_0, # of connection points: 2
#     Edge 29, Type (0, 1), BuildingBlock: UVAHIK_clean_linker_0, # of connection points: 2
#     Edge 30, Type (0, 1), BuildingBlock: UVAHIK_clean_linker_0, # of connection points: 2
#     Edge 31, Type (0, 1), BuildingBlock: UVAHIK_clean_linker_0, # of connection points: 2
#     Edge 32, Type (0, 1), BuildingBlock: UVAHIK_clean_linker_0, # of connection points: 2
#     Edge 33, Type (0, 1), BuildingBlock: UVAHIK_clean_linker_0, # of connection points: 2
#     Edge 34, Type (0, 1), BuildingBlock: UVAHIK_clean_linker_0, # of connection points: 2
#     Edge 35, Type (0, 1), BuildingBlock: UVAHIK_clean_linker_0, # of connection points: 2
# Relax obj value: 0.127
# Max RMSD: 0.149
# Mean RMSD: 0.112
data_MOF--net-dag--node1-IZENUY_clean_sbu_0--node2-OLANEW_clean_sbu_2--edge1-UVAHIK_clean_linker_0
_symmetry_space_group_name_H-M    P1
_symmetry_Int_Tables_number       1
_symmetry_cell_setting            triclinic
loop_
_symmetry_equiv_pos_as_xyz
'x, y, z'
_cell_length_a     55.037476
_cell_length_b     51.634763
_cell_length_c     47.233065
_cell_angle_alpha  92.153272
_cell_angle_beta   94.180842
_cell_angle_gamma 91.198208
loop_
_atom_site_label
_atom_site_type_symbol
_atom_site_fract_x
_atom_site_fract_y
_atom_site_fract_z
_atom_type_partial_charge
Fe0 Fe 0.15586 0.88852 0.03544 0.0
Fe1 Fe 0.10194 0.90262 0.02571 0.0
O2 O 0.12521 0.87929 0.02483 0.0
Fe3 Fe 0.11827 0.8467 0.01317 0.0
O4 O 0.13016 0.83427 0.04679 0.0
O5 O 0.16446 0.85684 0.04866 0.0
O6 O 0.14796 0.89722 0.07099 0.0
C7 C 0.13175 0.91306 0.07699 0.0
C8 C 0.16199 0.85828 0.98797 0.0
O9 O 0.11563 0.91979 0.05819 0.0
C10 C 0.08963 0.8731 0.97427 0.0
O11 O 0.15342 0.92206 0.0248 0.0
O12 O 0.11731 0.92392 0.00245 0.0
O13 O 0.14723 0.84194 0.99704 0.0
O14 O 0.16537 0.88037 0.0002 0.0
C15 C 0.07794 0.86005 0.04452 0.0
O16 O 0.08436 0.88927 0.99364 0.0
O17 O 0.10587 0.85656 0.9788 0.0
C18 C 0.13875 0.9328 0.00739 0.0
O19 O 0.08436 0.88352 0.04882 0.0
O20 O 0.08809 0.8456 0.02694 0.0
C21 C 0.15161 0.83862 0.05736 0.0
Fe22 Fe 0.69377 0.62631 0.46065 0.0
Fe23 Fe 0.65655 0.66926 0.45107 0.0
O24 O 0.66316 0.6364 0.45722 0.0
Fe25 Fe 0.63908 0.61361 0.45974 0.0
O26 O 0.64984 0.60623 0.4957 0.0
O27 O 0.68818 0.6016 0.48657 0.0
O28 O 0.70093 0.64863 0.4906 0.0
C29 C 0.69843 0.67279 0.49018 0.0
C30 C 0.67263 0.58538 0.42901 0.0
O31 O 0.68421 0.68262 0.47136 0.0
C32 C 0.62001 0.64141 0.41589 0.0
O33 O 0.70473 0.64933 0.43541 0.0
O34 O 0.6715 0.66784 0.41812 0.0
O35 O 0.65499 0.58617 0.4447 0.0
O36 O 0.68884 0.60309 0.43085 0.0
C37 C 0.62272 0.6585 0.48836 0.0
O38 O 0.62772 0.66197 0.42951 0.0
O39 O 0.62684 0.61953 0.42394 0.0
C40 C 0.69315 0.66101 0.41573 0.0
O41 O 0.64092 0.67256 0.48365 0.0
O42 O 0.61863 0.63691 0.47512 0.0
C43 C 0.67103 0.59875 0.5028 0.0
Fe44 Fe 0.86458 0.17457 0.05294 0.0
Fe45 Fe 0.88159 0.11969 0.03943 0.0
O46 O 0.85818 0.14259 0.03882 0.0
Fe47 Fe 0.82853 0.13341 0.02411 0.0
O48 O 0.82172 0.1655 0.01022 0.0
O49 O 0.85585 0.18829 0.01914 0.0
O50 O 0.89624 0.17573 0.04261 0.0
C51 C 0.90634 0.16248 0.02379 0.0
C52 C 0.81757 0.16285 0.07068 0.0
O53 O 0.89952 0.1394 0.01759 0.0
C54 C 0.84383 0.08952 0.0546 0.0
O55 O 0.87377 0.163 0.08791 0.0
O56 O 0.89755 0.13289 0.07222 0.0
O57 O 0.81542 0.14121 0.05735 0.0
O58 O 0.8341 0.17911 0.06555 0.0
C59 C 0.85641 0.10924 0.986 0.0
O60 O 0.86497 0.09865 0.06125 0.0
O61 O 0.83013 0.09966 0.03548 0.0
C62 C 0.88981 0.14629 0.09245 0.0
O63 O 0.87007 0.10209 0.00677 0.0
O64 O 0.83958 0.12492 0.98968 0.0
C65 C 0.83563 0.1844 0.00514 0.0
Fe66 Fe 0.35189 0.39806 0.53955 0.0
Fe67 Fe 0.29992 0.37906 0.54914 0.0
O68 O 0.33151 0.37316 0.54811 0.0
Fe69 Fe 0.34286 0.34221 0.55571 0.0
O70 O 0.36211 0.35536 0.58592 0.0
O71 O 0.37755 0.38709 0.56269 0.0
O72 O 0.34392 0.41838 0.56931 0.0
C73 C 0.32267 0.42551 0.5735 0.0
C74 C 0.37046 0.35727 0.51061 0.0
O75 O 0.30419 0.41327 0.56164 0.0
C76 C 0.30132 0.32852 0.5233 0.0
O77 O 0.32992 0.41346 0.51503 0.0
O78 O 0.29734 0.38781 0.51211 0.0
O79 O 0.36786 0.34385 0.5321 0.0
O80 O 0.36128 0.37937 0.50908 0.0
C81 C 0.30719 0.34915 0.59533 0.0
O82 O 0.29019 0.34585 0.5367 0.0
O83 O 0.32425 0.32743 0.52604 0.0
C84 C 0.31053 0.40473 0.50166 0.0
O85 O 0.30027 0.37069 0.58629 0.0
O86 O 0.32004 0.33461 0.58064 0.0
C87 C 0.3779 0.3732 0.58426 0.0
O88 O 0.16122 0.01895 0.37913 0.0
Cd89 Cd 0.16104 0.03659 0.42782 0.0
O90 O 0.13343 0.04735 0.36872 0.0
Cd91 Cd 0.10728 0.06936 0.34277 0.0
O92 O 0.07711 0.08784 0.31948 0.0
C93 C 0.05965 0.07339 0.30862 0.0
O94 O 0.06065 0.04824 0.31174 0.0
C95 C 0.14646 0.02872 0.36077 0.0
C96 C 0.18403 0.08522 0.43555 0.0
O97 O 0.19557 0.06451 0.44117 0.0
O98 O 0.16164 0.08293 0.42604 0.0
O99 O 0.29499 0.69976 0.68705 0.0
Cd100 Cd 0.29955 0.74689 0.69387 0.0
O101 O 0.33437 0.70163 0.68466 0.0
Cd102 Cd 0.37113 0.69049 0.67539 0.0
O103 O 0.40761 0.69045 0.66023 0.0
C104 C 0.40909 0.68872 0.63353 0.0
O105 O 0.38891 0.68619 0.61689 0.0
C106 C 0.31468 0.68813 0.68326 0.0
C107 C 0.27836 0.76748 0.74124 0.0
O108 O 0.2663 0.76513 0.71697 0.0
O109 O 0.30038 0.75973 0.74317 0.0
O110 O 0.85833 0.70364 0.09371 0.0
Cd111 Cd 0.82018 0.67895 0.09564 0.0
O112 O 0.84298 0.73446 0.11961 0.0
Cd113 Cd 0.84243 0.77447 0.13612 0.0
O114 O 0.83888 0.81643 0.13852 0.0
C115 C 0.81992 0.8259 0.12633 0.0
O116 O 0.80308 0.81005 0.11389 0.0
C117 C 0.86043 0.72599 0.10595 0.0
C118 C 0.803 0.67978 0.14973 0.0
O119 O 0.81601 0.66114 0.14116 0.0
O120 O 0.79825 0.69811 0.13278 0.0
O121 O 0.73154 0.39744 0.70801 0.0
Cd122 Cd 0.73134 0.3521 0.72114 0.0
O123 O 0.6962 0.39914 0.72613 0.0
Cd124 Cd 0.6607 0.41364 0.73617 0.0
O125 O 0.62109 0.41335 0.73565 0.0
C126 C 0.6107 0.39169 0.72828 0.0
O127 O 0.62431 0.3718 0.72265 0.0
C128 C 0.71233 0.40983 0.71215 0.0
C129 C 0.75328 0.33953 0.77362 0.0
O130 O 0.7653 0.33918 0.75136 0.0
O131 O 0.73115 0.34692 0.77126 0.0
O132 O 0.6362 0.32326 0.30763 0.0
Cd133 Cd 0.61598 0.28084 0.29885 0.0
O134 O 0.65054 0.31477 0.35085 0.0
Cd135 Cd 0.62472 0.28231 0.35203 0.0
O136 O 0.5869 0.27686 0.36199 0.0
C137 C 0.57219 0.29315 0.35135 0.0
O138 O 0.58035 0.31005 0.33398 0.0
C139 C 0.64955 0.32969 0.33 0.0
C140 C 0.64277 0.25247 0.26125 0.0
O141 O 0.62513 0.26651 0.2522 0.0
O142 O 0.64728 0.25126 0.28817 0.0
O143 O 0.26227 0.1734 0.91916 0.0
Cd144 Cd 0.2855 0.21333 0.9125 0.0
O145 O 0.22762 0.19239 0.90944 0.0
Cd146 Cd 0.18815 0.19586 0.90884 0.0
O147 O 0.14926 0.19713 0.91427 0.0
C148 C 0.14088 0.2156 0.92887 0.0
O149 O 0.15589 0.23401 0.93994 0.0
C150 C 0.23913 0.17228 0.91664 0.0
C151 C 0.27696 0.23469 0.85949 0.0
O152 O 0.2924 0.21669 0.86346 0.0
O153 O 0.26514 0.24234 0.88054 0.0
O154 O 0.37281 0.65048 0.27214 0.0
Cd155 Cd 0.32846 0.64324 0.26972 0.0
O156 O 0.37967 0.61232 0.25243 0.0
Cd157 Cd 0.3415 0.5993 0.24946 0.0
O158 O 0.31494 0.57189 0.26436 0.0
C159 C 0.30548 0.57708 0.2876 0.0
O160 O 0.3102 0.59985 0.30041 0.0
C161 C 0.38771 0.63393 0.26353 0.0
C162 C 0.3005 0.67446 0.23358 0.0
O163 O 0.30824 0.68267 0.25864 0.0
O164 O 0.30649 0.6517 0.22528 0.0
O165 O 0.96606 0.84414 0.68002 0.0
Cd166 Cd 0.94882 0.83864 0.63084 0.0
O167 O 0.93454 0.86531 0.6936 0.0
Cd168 Cd 0.9156 0.89003 0.72291 0.0
O169 O 0.90068 0.92001 0.74987 0.0
C170 C 0.91561 0.934 0.76588 0.0
O171 O 0.93901 0.92944 0.7658 0.0
C172 C 0.95555 0.85625 0.69942 0.0
C173 C 0.90242 0.81552 0.62241 0.0
O174 O 0.92154 0.80179 0.6249 0.0
O175 O 0.90517 0.84025 0.62476 0.0
C176 C 0.11359 0.9406 0.11466 0.0
C177 C 0.13278 0.92538 0.10594 0.0
C178 C 0.11461 0.95205 0.14207 0.0
C179 C 0.14661 0.9476 0.21381 0.0
H180 H 0.1217 0.0165 0.22607 0.0
C181 C 0.1647 0.0058 0.32016 0.0
C182 C 0.14472 0.01828 0.33102 0.0
C183 C 0.16301 0.9949 0.29253 0.0
C184 C 0.12856 0.99717 0.22298 0.0
H185 H 0.16824 0.9105 0.11921 0.0
H186 H 0.17029 0.93092 0.16652 0.0
H187 H 0.1192 0.99666 0.17818 0.0
H188 H 0.10688 0.02775 0.32179 0.0
H189 H 0.10417 0.00962 0.27322 0.0
H190 H 0.15631 0.94834 0.25856 0.0
C191 C 0.15416 0.93357 0.1525 0.0
C192 C 0.12706 0.98574 0.19556 0.0
C193 C 0.15305 0.92198 0.12522 0.0
C194 C 0.12295 0.01946 0.31368 0.0
C195 C 0.12131 0.00876 0.28593 0.0
C196 C 0.14829 0.95911 0.24114 0.0
C197 C 0.13492 0.94869 0.16136 0.0
C198 C 0.13613 0.96081 0.19059 0.0
C199 C 0.14128 0.99623 0.27512 0.0
C200 C 0.13934 0.98404 0.24603 0.0
H201 H 0.09763 0.94349 0.10041 0.0
H202 H 0.0993 0.96323 0.14825 0.0
H203 H 0.15331 0.92818 0.21096 0.0
H204 H 0.18171 0.00445 0.33304 0.0
H205 H 0.17878 0.98554 0.28472 0.0
C206 C 0.60875 0.68361 0.5306 0.0
C207 C 0.6034 0.66898 0.50516 0.0
C208 C 0.58984 0.69164 0.54705 0.0
C209 C 0.52467 0.7048 0.54272 0.0
H210 H 0.52262 0.67694 0.61763 0.0
C211 C 0.43443 0.68659 0.59178 0.0
C212 C 0.433 0.69042 0.62118 0.0
C213 C 0.4568 0.68859 0.57982 0.0
C214 C 0.52307 0.68539 0.59703 0.0
H215 H 0.57436 0.65228 0.4762 0.0
H216 H 0.54158 0.66683 0.50432 0.0
H217 H 0.55993 0.67394 0.59267 0.0
H218 H 0.45396 0.69947 0.66116 0.0
H219 H 0.4931 0.70327 0.64016 0.0
H220 H 0.48783 0.71583 0.54657 0.0
C221 C 0.56022 0.67184 0.51183 0.0
C222 C 0.54445 0.68368 0.5828 0.0
C223 C 0.57899 0.66336 0.49587 0.0
C224 C 0.45448 0.6963 0.63841 0.0
C225 C 0.47691 0.69842 0.6264 0.0
C226 C 0.50344 0.70676 0.557 0.0
C227 C 0.56543 0.68575 0.5377 0.0
C228 C 0.54509 0.69256 0.55514 0.0
C229 C 0.47831 0.69466 0.59693 0.0
C230 C 0.50206 0.69618 0.58386 0.0
H231 H 0.62748 0.68809 0.53816 0.0
H232 H 0.59422 0.70231 0.56701 0.0
H233 H 0.52484 0.71199 0.52148 0.0
H234 H 0.41827 0.68188 0.57791 0.0
H235 H 0.45724 0.68494 0.55714 0.0
C236 C 0.85196 0.05308 0.08719 0.0
C237 C 0.83644 0.06475 0.06666 0.0
C238 C 0.84613 0.02871 0.09694 0.0
C239 C 0.81111 0.96941 0.07424 0.0
H240 H 0.8281 0.94993 0.15157 0.0
C241 C 0.79761 0.86459 0.10868 0.0
C242 C 0.81773 0.85428 0.1241 0.0
C243 C 0.79649 0.8912 0.10451 0.0
C244 C 0.82332 0.95508 0.12989 0.0
H245 H 0.802 0.06043 0.0413 0.0
H246 H 0.79172 0.01788 0.05856 0.0
H247 H 0.83179 0.99528 0.13927 0.0
H248 H 0.85203 0.86396 0.14814 0.0
H249 H 0.85016 0.91033 0.14068 0.0
H250 H 0.80315 0.92919 0.06469 0.0
C251 C 0.80862 0.02747 0.06673 0.0
C252 C 0.82543 0.98103 0.12284 0.0
C253 C 0.81446 0.0519 0.05695 0.0
C254 C 0.83628 0.87127 0.13612 0.0
C255 C 0.83514 0.89788 0.132 0.0
C256 C 0.80895 0.94349 0.08131 0.0
C257 C 0.8246 0.01541 0.08648 0.0
C258 C 0.81979 0.98842 0.0948 0.0
C259 C 0.81543 0.90808 0.11574 0.0
C260 C 0.81545 0.93596 0.10908 0.0
H261 H 0.86899 0.06246 0.09527 0.0
H262 H 0.85899 0.01988 0.1119 0.0
H263 H 0.80696 0.97435 0.05237 0.0
H264 H 0.78293 0.85206 0.09927 0.0
H265 H 0.78091 0.89852 0.09221 0.0
C266 C 0.39911 0.36269 0.6313 0.0
C267 C 0.39853 0.37641 0.60611 0.0
C268 C 0.41907 0.36557 0.65141 0.0
C269 C 0.47054 0.36183 0.67926 0.0
H270 H 0.50707 0.42702 0.68774 0.0
C271 C 0.5731 0.36695 0.70963 0.0
C272 C 0.58388 0.38934 0.72341 0.0
C273 C 0.5481 0.36556 0.70219 0.0
C274 C 0.49695 0.40875 0.68623 0.0
H275 H 0.41833 0.40418 0.58253 0.0
H276 H 0.45311 0.40858 0.61688 0.0
H277 H 0.46702 0.42539 0.66258 0.0
H278 H 0.57667 0.42724 0.74187 0.0
H279 H 0.53282 0.42458 0.72957 0.0
H280 H 0.50041 0.34526 0.70319 0.0
C281 C 0.43802 0.39607 0.62161 0.0
C282 C 0.47407 0.40774 0.67136 0.0
C283 C 0.4181 0.39333 0.6017 0.0
C284 C 0.56893 0.40983 0.73095 0.0
C285 C 0.54381 0.40833 0.72378 0.0
C286 C 0.49332 0.36291 0.69446 0.0
C287 C 0.43885 0.38218 0.64668 0.0
C288 C 0.46102 0.38407 0.66671 0.0
C289 C 0.53317 0.38644 0.70865 0.0
C290 C 0.50723 0.38617 0.6972 0.0
H291 H 0.38421 0.34966 0.63544 0.0
H292 H 0.41901 0.35477 0.67062 0.0
H293 H 0.46102 0.34326 0.67614 0.0
H294 H 0.5841 0.3508 0.70351 0.0
H295 H 0.54074 0.34855 0.69017 0.0
C296 C 0.69795 0.55499 0.40119 0.0
C297 C 0.67524 0.56198 0.41059 0.0
C298 C 0.70032 0.5315 0.38589 0.0
C299 C 0.66444 0.47952 0.34465 0.0
H300 H 0.71381 0.43349 0.3749 0.0
C301 C 0.67255 0.36486 0.35928 0.0
C302 C 0.66173 0.3556 0.33287 0.0
C303 C 0.68029 0.39076 0.36329 0.0
C304 C 0.70003 0.44616 0.36607 0.0
H305 H 0.63705 0.55056 0.41016 0.0
H306 H 0.64115 0.50994 0.38358 0.0
H307 H 0.71459 0.47894 0.39145 0.0
H308 H 0.65256 0.36568 0.28926 0.0
H309 H 0.6664 0.41078 0.29617 0.0
H310 H 0.6489 0.44665 0.32067 0.0
C311 C 0.65714 0.52245 0.38792 0.0
C312 C 0.70063 0.47225 0.37533 0.0
C313 C 0.65483 0.54564 0.4034 0.0
C314 C 0.66051 0.37229 0.30999 0.0
C315 C 0.66837 0.39817 0.31397 0.0
C316 C 0.66384 0.45353 0.3354 0.0
C317 C 0.67994 0.51491 0.37935 0.0
C318 C 0.68229 0.48892 0.36548 0.0
C319 C 0.6775 0.40794 0.34093 0.0
C320 C 0.68112 0.43632 0.34674 0.0
H321 H 0.714 0.56722 0.40641 0.0
H322 H 0.71809 0.52618 0.37944 0.0
H323 H 0.65025 0.49203 0.33643 0.0
H324 H 0.67385 0.3525 0.37734 0.0
H325 H 0.68703 0.39764 0.38441 0.0
C326 C 0.93884 0.19694 0.0207 0.0
C327 C 0.92802 0.17303 0.01096 0.0
C328 C 0.96009 0.20603 0.00946 0.0
C329 C 0.99843 0.19686 0.94864 0.0
H330 H 0.05125 0.22059 0.00284 0.0
C331 C 0.09899 0.19539 0.92347 0.0
C332 C 0.11486 0.21544 0.93482 0.0
C333 C 0.07483 0.19421 0.93057 0.0
C334 C 0.03658 0.21449 0.98734 0.0
H335 H 0.93055 0.14039 0.98103 0.0
H336 H 0.96759 0.1561 0.96175 0.0
H337 H 0.01111 0.21156 0.01926 0.0
H338 H 0.11755 0.25051 0.96177 0.0
H339 H 0.07526 0.24847 0.97408 0.0
H340 H 0.0241 0.19914 0.91684 0.0
C341 C 0.95962 0.16794 0.9779 0.0
C342 C 0.01356 0.20931 0.99676 0.0
C343 C 0.93848 0.15882 0.98916 0.0
C344 C 0.10583 0.23472 0.95279 0.0
C345 C 0.08164 0.23351 0.95994 0.0
C346 C 0.02144 0.20204 0.93922 0.0
C347 C 0.97084 0.19148 0.98814 0.0
C348 C 0.99438 0.1999 0.97761 0.0
C349 C 0.06596 0.21305 0.94919 0.0
C350 C 0.0409 0.21038 0.95857 0.0
H351 H 0.93116 0.20843 0.03735 0.0
H352 H 0.9682 0.22437 0.01758 0.0
H353 H 0.98389 0.19006 0.9333 0.0
H354 H 0.10535 0.18023 0.90955 0.0
H355 H 0.06332 0.178 0.92222 0.0
C356 C 0.27836 0.4166 0.46394 0.0
C357 C 0.30297 0.41602 0.47421 0.0
C358 C 0.27169 0.42922 0.43884 0.0
C359 C 0.29677 0.45397 0.37421 0.0
H360 H 0.25024 0.50893 0.37977 0.0
C361 C 0.28694 0.56083 0.33057 0.0
C362 C 0.29349 0.55624 0.30265 0.0
C363 C 0.28025 0.54023 0.34695 0.0
C364 C 0.26311 0.49351 0.37776 0.0
H365 H 0.3399 0.42701 0.46566 0.0
H366 H 0.32837 0.44862 0.42213 0.0
H367 H 0.25467 0.47762 0.41728 0.0
H368 H 0.29577 0.52672 0.26908 0.0
H369 H 0.28378 0.49082 0.29758 0.0
H370 H 0.30651 0.47064 0.33586 0.0
C371 C 0.31418 0.43949 0.43331 0.0
C372 C 0.26547 0.47544 0.3991 0.0
C373 C 0.32077 0.42732 0.45843 0.0
C374 C 0.29115 0.53089 0.29066 0.0
C375 C 0.28438 0.51029 0.30703 0.0
C376 C 0.29441 0.47194 0.35291 0.0
C377 C 0.28958 0.4409 0.42339 0.0
C378 C 0.28307 0.45617 0.39809 0.0
C379 C 0.27984 0.51459 0.33573 0.0
C380 C 0.27825 0.49256 0.35499 0.0
H381 H 0.26427 0.40804 0.47571 0.0
H382 H 0.25259 0.43004 0.43163 0.0
H383 H 0.31028 0.43911 0.37273 0.0
H384 H 0.28837 0.58014 0.34042 0.0
H385 H 0.27705 0.54431 0.36901 0.0
C386 C 0.07615 0.85073 0.92757 0.0
C387 C 0.07544 0.87245 0.9463 0.0
C388 C 0.06269 0.8499 0.90129 0.0
C389 C 0.04413 0.85786 0.84073 0.0
H390 H 0.98091 0.88948 0.83185 0.0
C391 C 0.99387 0.86414 0.73029 0.0
C392 C 0.96844 0.86058 0.72785 0.0
C393 C 0.00653 0.86719 0.75696 0.0
C394 C 0.99843 0.88032 0.83397 0.0
H395 H 0.06016 0.91051 0.9519 0.0
H396 H 0.0373 0.90947 0.90564 0.0
H397 H 0.00326 0.89075 0.87835 0.0
H398 H 0.93634 0.85689 0.75143 0.0
H399 H 0.95843 0.86163 0.79814 0.0
H400 H 0.03892 0.84633 0.79682 0.0
C401 C 0.04775 0.89272 0.91154 0.0
C402 C 0.01145 0.88138 0.86062 0.0
C403 C 0.061 0.89341 0.93804 0.0
C404 C 0.95587 0.86022 0.75266 0.0
C405 C 0.9686 0.86292 0.77944 0.0
C406 C 0.03103 0.85654 0.81423 0.0
C407 C 0.04841 0.87095 0.89278 0.0
C408 C 0.03449 0.87014 0.86438 0.0
C409 C 0.99416 0.86621 0.78197 0.0
C410 C 0.00802 0.8678 0.8104 0.0
H411 H 0.0869 0.83413 0.93334 0.0
H412 H 0.0633 0.83255 0.88779 0.0
H413 H 0.06196 0.84933 0.84254 0.0
H414 H 0.00401 0.86469 0.7115 0.0
H415 H 0.0261 0.8703 0.75791 0.0
C416 C 0.88282 0.08906 0.95142 0.0
C417 C 0.8596 0.0973 0.9577 0.0
C418 C 0.88617 0.07579 0.92585 0.0
C419 C 0.85505 0.03142 0.8739 0.0
H420 H 0.9122 0.0436 0.83237 0.0
C421 C 0.88203 0.96116 0.78337 0.0
C422 C 0.90691 0.95531 0.78409 0.0
C423 C 0.87396 0.98133 0.80067 0.0
C424 C 0.8962 0.03988 0.84378 0.0
H425 H 0.82173 0.09882 0.94187 0.0
H426 H 0.82753 0.07482 0.89697 0.0
H427 H 0.90182 0.07502 0.86915 0.0
H428 H 0.9428 0.96607 0.80354 0.0
H429 H 0.92875 0.0008 0.83395 0.0
H430 H 0.85006 0.99567 0.84952 0.0
C431 C 0.84311 0.0789 0.91194 0.0
C432 C 0.89019 0.05795 0.8647 0.0
C433 C 0.83982 0.09268 0.93748 0.0
C434 C 0.92353 0.97011 0.80237 0.0
C435 C 0.91548 0.9902 0.81965 0.0
C436 C 0.86114 0.01323 0.85304 0.0
C437 C 0.86632 0.07015 0.90606 0.0
C438 C 0.86998 0.05353 0.88054 0.0
C439 C 0.89061 0.99607 0.81904 0.0
C440 C 0.88222 0.01689 0.83836 0.0
H441 H 0.89844 0.09255 0.96653 0.0
H442 H 0.9042 0.06904 0.92207 0.0
H443 H 0.83949 0.02743 0.88597 0.0
H444 H 0.86876 0.95018 0.76942 0.0
H445 H 0.85472 0.98548 0.79954 0.0
C446 C 0.39097 0.36307 0.46535 0.0
C447 C 0.38707 0.34834 0.48911 0.0
C448 C 0.40788 0.35531 0.44619 0.0
C449 C 0.4449 0.29942 0.42409 0.0
H450 H 0.48826 0.35331 0.40049 0.0
C451 C 0.53951 0.27998 0.38272 0.0
C452 C 0.54737 0.29554 0.36121 0.0
C453 C 0.51732 0.28461 0.39446 0.0
C454 C 0.47607 0.33805 0.40646 0.0
H455 H 0.39734 0.31343 0.5108 0.0
H456 H 0.42703 0.30027 0.47783 0.0
H457 H 0.45419 0.36503 0.42797 0.0
H458 H 0.5374 0.32717 0.33401 0.0
H459 H 0.49871 0.33509 0.35436 0.0
H460 H 0.46739 0.2724 0.40322 0.0
C461 C 0.41683 0.3176 0.4737 0.0
C462 C 0.45649 0.34477 0.42221 0.0
C463 C 0.3999 0.32529 0.49277 0.0
C464 C 0.53201 0.31496 0.35073 0.0
C465 C 0.50988 0.31961 0.36248 0.0
C466 C 0.46458 0.29268 0.40841 0.0
C467 C 0.42129 0.33268 0.45038 0.0
C468 C 0.44083 0.32554 0.43155 0.0
C469 C 0.50256 0.3049 0.38494 0.0
C470 C 0.48055 0.31191 0.3997 0.0
H471 H 0.38123 0.3808 0.46175 0.0
H472 H 0.41059 0.36716 0.4282 0.0
H473 H 0.43297 0.28414 0.43055 0.0
H474 H 0.55089 0.26484 0.39125 0.0
H475 H 0.51226 0.27304 0.41186 0.0
C476 C 0.13093 0.97101 0.9763 0.0
C477 C 0.14642 0.95762 0.99545 0.0
C478 C 0.13835 0.995 0.96635 0.0
C479 C 0.18058 0.04993 0.98652 0.0
H480 H 0.17575 0.06563 0.90671 0.0
C481 C 0.23708 0.13254 0.94482 0.0
C482 C 0.22617 0.14837 0.9242 0.0
C483 C 0.22509 0.11015 0.9527 0.0
C484 C 0.17689 0.0617 0.92912 0.0
H485 H 0.18211 0.95876 0.01849 0.0
H486 H 0.19477 1.00018 0.00134 0.0
H487 H 0.15833 0.02477 0.92181 0.0
H488 H 0.19478 0.15211 0.89428 0.0
H489 H 0.1734 0.11326 0.90866 0.0
H490 H 0.19923 0.08651 0.99401 0.0
C491 C 0.17683 0.9924 0.99425 0.0
C492 C 0.16692 0.03831 0.93774 0.0
C493 C 0.16956 0.96852 0.00396 0.0
C494 C 0.20324 0.14088 0.91102 0.0
C495 C 0.19119 0.11837 0.9189 0.0
C496 C 0.19042 0.07323 0.97797 0.0
C497 C 0.16126 0.00609 0.97563 0.0
C498 C 0.16921 0.03194 0.96647 0.0
C499 C 0.20189 0.10289 0.94007 0.0
C500 C 0.18924 0.07915 0.94911 0.0
H501 H 0.11304 0.96311 0.96923 0.0
H502 H 0.12599 0.00514 0.95197 0.0
H503 H 0.18216 0.04581 0.00889 0.0
H504 H 0.25484 0.13764 0.95517 0.0
H505 H 0.23413 0.09838 0.96859 0.0
C506 C 0.59317 0.62086 0.37567 0.0
C507 C 0.59984 0.64269 0.39343 0.0
C508 C 0.57268 0.62122 0.35636 0.0
C509 C 0.52657 0.66488 0.32236 0.0
H510 H 0.48609 0.60231 0.31766 0.0
C511 C 0.42357 0.66057 0.28525 0.0
C512 C 0.41436 0.63823 0.26979 0.0
C513 C 0.44811 0.66246 0.29544 0.0
C514 C 0.49734 0.61982 0.31832 0.0
H515 H 0.59062 0.68233 0.40412 0.0
H516 H 0.55458 0.68274 0.37111 0.0
H517 H 0.52531 0.60285 0.34475 0.0
H518 H 0.42424 0.60117 0.2512 0.0
H519 H 0.46692 0.60456 0.26888 0.0
H520 H 0.49787 0.68204 0.29671 0.0
C521 C 0.5654 0.66547 0.37161 0.0
C522 C 0.51993 0.62013 0.33385 0.0
C523 C 0.58605 0.66519 0.3907 0.0
C524 C 0.43061 0.61858 0.26323 0.0
C525 C 0.45507 0.62043 0.2735 0.0
C526 C 0.50381 0.66462 0.30697 0.0
C527 C 0.55816 0.64332 0.35454 0.0
C528 C 0.53481 0.64272 0.33631 0.0
C529 C 0.46394 0.64201 0.29046 0.0
C530 C 0.48887 0.64211 0.30496 0.0
H531 H 0.60356 0.6033 0.377 0.0
H532 H 0.56803 0.604 0.34313 0.0
H533 H 0.53766 0.68251 0.32339 0.0
H534 H 0.41161 0.6761 0.29066 0.0
H535 H 0.45435 0.67931 0.30853 0.0
C536 C 0.33991 0.46317 0.6041 0.0
C537 C 0.31965 0.45041 0.58943 0.0
C538 C 0.33768 0.48765 0.61715 0.0
C539 C 0.30033 0.54553 0.61217 0.0
H540 H 0.33466 0.56562 0.68454 0.0
C541 C 0.29249 0.64802 0.66322 0.0
C542 C 0.31408 0.66001 0.67554 0.0
C543 C 0.29187 0.62175 0.65482 0.0
C544 C 0.32514 0.5604 0.66418 0.0
H545 H 0.28094 0.45312 0.57786 0.0
H546 H 0.27707 0.49592 0.60072 0.0
H547 H 0.33559 0.52075 0.66653 0.0
H548 H 0.35147 0.65323 0.69054 0.0
H549 H 0.35076 0.60774 0.67488 0.0
H550 H 0.29031 0.58519 0.60942 0.0
C551 C 0.29474 0.487 0.60184 0.0
C552 C 0.32562 0.53466 0.65391 0.0
C553 C 0.29693 0.46241 0.5889 0.0
C554 C 0.33483 0.64491 0.68014 0.0
C555 C 0.33425 0.61863 0.67166 0.0
C556 C 0.29992 0.57127 0.62238 0.0
C557 C 0.31517 0.50005 0.61578 0.0
C558 C 0.31339 0.52697 0.62767 0.0
C559 C 0.31283 0.60677 0.65861 0.0
C560 C 0.31248 0.5791 0.64841 0.0
H561 H 0.35768 0.45447 0.60505 0.0
H562 H 0.35383 0.49724 0.62749 0.0
H563 H 0.29104 0.54035 0.59167 0.0
H564 H 0.27609 0.65904 0.65962 0.0
H565 H 0.27493 0.61317 0.64535 0.0
C566 C 0.05458 0.82298 0.06251 0.0
C567 C 0.05648 0.84962 0.05775 0.0
C568 C 0.03334 0.81236 0.07226 0.0
C569 C 0.96867 0.81999 0.06651 0.0
H570 H 0.96745 0.77264 0.12831 0.0
C571 C 0.89297 0.74243 0.07673 0.0
C572 C 0.88226 0.74239 0.1028 0.0
C573 C 0.91356 0.75802 0.07351 0.0
C574 C 0.96754 0.78598 0.11116 0.0
H575 H 0.03792 0.88616 0.06003 0.0
H576 H 0.0003 0.86733 0.0763 0.0
H577 H 0.00549 0.79585 0.11996 0.0
H578 H 0.88505 0.75782 0.14624 0.0
H579 H 0.92162 0.78468 0.14078 0.0
H580 H 0.93105 0.80919 0.05685 0.0
C581 C 0.01546 0.85484 0.07282 0.0
C582 C 0.98923 0.79915 0.10635 0.0
C583 C 0.03697 0.86559 0.06367 0.0
C584 C 0.89275 0.75787 0.12578 0.0
C585 C 0.91369 0.77305 0.12273 0.0
C586 C 0.94713 0.80642 0.07095 0.0
C587 C 0.0134 0.82809 0.07688 0.0
C588 C 0.99002 0.8161 0.08383 0.0
C589 C 0.92416 0.77336 0.09651 0.0
C590 C 0.94645 0.78912 0.09313 0.0
H591 H 0.06938 0.81024 0.05821 0.0
H592 H 0.03212 0.79165 0.07505 0.0
H593 H 0.9689 0.83278 0.04885 0.0
H594 H 0.88523 0.73062 0.05872 0.0
H595 H 0.92148 0.75776 0.05316 0.0
C596 C 0.65608 0.57352 0.54285 0.0
C597 C 0.67551 0.58402 0.52892 0.0
C598 C 0.66058 0.55809 0.56632 0.0
C599 C 0.70884 0.51756 0.59912 0.0
H600 H 0.6668 0.51586 0.66147 0.0
C601 C 0.72822 0.45016 0.69161 0.0
C602 C 0.70823 0.4348 0.69836 0.0
C603 C 0.72478 0.47162 0.6747 0.0
C604 C 0.67868 0.51613 0.64417 0.0
H605 H 0.71489 0.58773 0.52967 0.0
H606 H 0.72271 0.56148 0.57089 0.0
H607 H 0.65981 0.54747 0.62465 0.0
H608 H 0.66894 0.42995 0.69231 0.0
H609 H 0.66288 0.46768 0.66356 0.0
H610 H 0.72758 0.48616 0.61844 0.0
C611 C 0.70398 0.56442 0.56323 0.0
C612 C 0.67463 0.53416 0.62301 0.0
C613 C 0.6995 0.5796 0.53964 0.0
C614 C 0.68465 0.44191 0.68864 0.0
C615 C 0.68119 0.46345 0.67183 0.0
C616 C 0.71298 0.49972 0.62033 0.0
C617 C 0.68461 0.55302 0.57656 0.0
C618 C 0.68953 0.53493 0.60005 0.0
C619 C 0.70126 0.47814 0.66408 0.0
C620 C 0.69782 0.49861 0.64295 0.0
H621 H 0.63738 0.57655 0.53512 0.0
H622 H 0.64519 0.54944 0.57583 0.0
H623 H 0.72039 0.51714 0.58152 0.0
H624 H 0.74662 0.44511 0.6987 0.0
H625 H 0.74059 0.48273 0.66933 0.0
C626 C 0.90781 0.11792 0.12907 0.0
C627 C 0.90108 0.14287 0.12124 0.0
C628 C 0.92058 0.11421 0.15507 0.0
C629 C 0.96597 0.14496 0.20359 0.0
H630 H 0.95176 0.08772 0.25111 0.0
C631 C 0.03615 0.11152 0.29113 0.0
C632 C 0.03867 0.08454 0.29233 0.0
C633 C 0.01654 0.12187 0.2751 0.0
C634 C 0.95606 0.10373 0.23803 0.0
H635 H 0.90177 0.18348 0.13457 0.0
H636 H 0.92514 0.17705 0.18016 0.0
H637 H 0.92134 0.10042 0.21438 0.0
H638 H 0.02248 0.04727 0.27785 0.0
H639 H 0.98885 0.06517 0.24942 0.0
H640 H 0.00126 0.14726 0.22583 0.0
C641 C 0.92009 0.16041 0.16617 0.0
C642 C 0.93855 0.11112 0.21719 0.0
C643 C 0.90672 0.16406 0.14026 0.0
C644 C 0.02104 0.06814 0.27748 0.0
C645 C 0.00158 0.07845 0.26135 0.0
C646 C 0.98363 0.13739 0.22425 0.0
C647 C 0.92731 0.13544 0.17361 0.0
C648 C 0.94363 0.13127 0.19923 0.0
C649 C 0.99911 0.10544 0.25983 0.0
C650 C 0.97917 0.11611 0.24108 0.0
H651 H 0.90353 0.10126 0.11479 0.0
H652 H 0.92615 0.09482 0.16013 0.0
H653 H 0.97041 0.16041 0.18981 0.0
H654 H 0.04935 0.12468 0.30249 0.0
H655 H 0.01508 0.14273 0.27464 0.0
C656 C 0.15657 0.79429 0.07693 0.0
C657 C 0.1632 0.82076 0.07771 0.0
C658 C 0.16944 0.77724 0.09456 0.0
C659 C 0.2079 0.77384 0.16067 0.0
H660 H 0.2384 0.7156 0.12447 0.0
C661 C 0.28282 0.71721 0.22118 0.0
C662 C 0.28445 0.69049 0.21521 0.0
C663 C 0.26697 0.73223 0.20452 0.0
C664 C 0.22969 0.73144 0.13511 0.0
H665 H 0.18764 0.85034 0.09829 0.0
H666 H 0.20954 0.82074 0.12959 0.0
H667 H 0.21104 0.74275 0.09619 0.0
H668 H 0.27065 0.65849 0.18717 0.0
H669 H 0.24235 0.6844 0.15877 0.0
H670 H 0.22596 0.76251 0.19966 0.0
C671 C 0.19468 0.81312 0.11514 0.0
C672 C 0.21406 0.74702 0.11883 0.0
C673 C 0.18223 0.83001 0.09716 0.0
C674 C 0.26995 0.6791 0.19216 0.0
C675 C 0.25378 0.69403 0.17577 0.0
C676 C 0.22318 0.75804 0.17706 0.0
C677 C 0.1887 0.78652 0.1137 0.0
C678 C 0.20333 0.76859 0.13139 0.0
C679 C 0.25199 0.72082 0.18177 0.0
C680 C 0.23466 0.73685 0.16446 0.0
H681 H 0.14205 0.78664 0.06205 0.0
H682 H 0.16446 0.7568 0.09315 0.0
H683 H 0.19967 0.79026 0.17089 0.0
H684 H 0.29389 0.72659 0.23868 0.0
H685 H 0.26666 0.75285 0.20945 0.0
C686 C 0.71385 0.71691 0.50868 0.0
C687 C 0.71494 0.68975 0.50938 0.0
C688 C 0.73092 0.7327 0.52508 0.0
C689 C 0.77935 0.73147 0.58476 0.0
H690 H 0.80688 0.78946 0.54709 0.0
C691 C 0.87495 0.77614 0.61579 0.0
C692 C 0.87808 0.8032 0.61534 0.0
C693 C 0.85255 0.76424 0.60667 0.0
C694 C 0.79914 0.77359 0.5581 0.0
H695 H 0.73439 0.65798 0.52874 0.0
H696 H 0.76425 0.6853 0.55661 0.0
H697 H 0.77195 0.76524 0.52414 0.0
H698 H 0.85993 0.83906 0.60576 0.0
H699 H 0.82084 0.81819 0.58957 0.0
H700 H 0.80731 0.73928 0.61817 0.0
C701 C 0.75005 0.69455 0.54382 0.0
C702 C 0.77904 0.75971 0.54498 0.0
C703 C 0.73296 0.67881 0.52759 0.0
C704 C 0.85811 0.81817 0.60636 0.0
C705 C 0.83577 0.80623 0.59694 0.0
C706 C 0.79958 0.74522 0.59775 0.0
C707 C 0.7495 0.72169 0.54249 0.0
C708 C 0.76915 0.73816 0.55789 0.0
C709 C 0.83286 0.77911 0.59665 0.0
C710 C 0.80993 0.76615 0.58434 0.0
H711 H 0.70011 0.726 0.49505 0.0
H712 H 0.72969 0.75353 0.52387 0.0
H713 H 0.77192 0.71533 0.59561 0.0
H714 H 0.88995 0.76406 0.62262 0.0
H715 H 0.85094 0.74329 0.60644 0.0
C716 C 0.78091 0.15248 0.09724 0.0
C717 C 0.79923 0.17026 0.09078 0.0
C718 C 0.76329 0.15976 0.11569 0.0
C719 C 0.73382 0.21743 0.14419 0.0
H720 H 0.7138 0.17172 0.20197 0.0
C721 C 0.65414 0.2422 0.21179 0.0
C722 C 0.65833 0.23928 0.24119 0.0
C723 C 0.67013 0.23181 0.19297 0.0
C724 C 0.71925 0.1847 0.18597 0.0
H725 H 0.81362 0.20949 0.09913 0.0
H726 H 0.78297 0.22208 0.13132 0.0
H727 H 0.74488 0.15788 0.17055 0.0
H728 H 0.68211 0.22233 0.27381 0.0
H729 H 0.71009 0.20429 0.24093 0.0
H730 H 0.70863 0.24445 0.15985 0.0
C731 C 0.78205 0.20262 0.12182 0.0
C732 C 0.73688 0.1767 0.16784 0.0
C733 C 0.79971 0.19534 0.10349 0.0
C734 C 0.67837 0.22494 0.25128 0.0
C735 C 0.69435 0.21449 0.23243 0.0
C736 C 0.71615 0.22537 0.16219 0.0
C737 C 0.76356 0.18498 0.12799 0.0
C738 C 0.74447 0.19307 0.14689 0.0
C739 C 0.69064 0.21823 0.20312 0.0
C740 C 0.70874 0.20916 0.18337 0.0
H741 H 0.78004 0.13297 0.08789 0.0
H742 H 0.74917 0.14579 0.11989 0.0
H743 H 0.73908 0.23036 0.12805 0.0
H744 H 0.6388 0.25303 0.2033 0.0
H745 H 0.66658 0.23466 0.17046 0.0
C746 C 0.30404 0.31377 0.62947 0.0
C747 C 0.29858 0.33921 0.62198 0.0
C748 C 0.29643 0.30391 0.65446 0.0
C749 C 0.27967 0.32293 0.72558 0.0
H750 H 0.2592 0.25057 0.72577 0.0
C751 C 0.26132 0.27032 0.82885 0.0
C752 C 0.27364 0.24685 0.83165 0.0
C753 C 0.25974 0.28261 0.80288 0.0
C754 C 0.26484 0.27081 0.72605 0.0
H755 H 0.28079 0.3743 0.63512 0.0
H756 H 0.26745 0.3569 0.67925 0.0
H757 H 0.2644 0.27086 0.68077 0.0
H758 H 0.29332 0.21751 0.80924 0.0
H759 H 0.29037 0.23877 0.76401 0.0
H760 H 0.28065 0.32258 0.77104 0.0
C761 C 0.27768 0.34469 0.66551 0.0
C762 C 0.26784 0.28243 0.70031 0.0
C763 C 0.28524 0.3546 0.64024 0.0
C764 C 0.28373 0.23558 0.80779 0.0
C765 C 0.28191 0.24768 0.78183 0.0
C766 C 0.27655 0.31129 0.75142 0.0
C767 C 0.28316 0.31917 0.6728 0.0
C768 C 0.27609 0.30837 0.69981 0.0
C769 C 0.27014 0.27145 0.77915 0.0
C770 C 0.26986 0.28488 0.7519 0.0
H771 H 0.31435 0.30132 0.61605 0.0
H772 H 0.30143 0.28438 0.65969 0.0
H773 H 0.28616 0.34289 0.72591 0.0
H774 H 0.25339 0.2795 0.84688 0.0
H775 H 0.25047 0.30086 0.80136 0.0
C776 C 0.73089 0.66672 0.38984 0.0
C777 C 0.70537 0.66698 0.38981 0.0
C778 C 0.74237 0.67062 0.36488 0.0
C779 C 0.76141 0.66211 0.30706 0.0
H780 H 0.73397 0.70595 0.24867 0.0
C781 C 0.79306 0.65708 0.19345 0.0
C782 C 0.79335 0.67986 0.17813 0.0
C783 C 0.78315 0.65687 0.21985 0.0
C784 C 0.74214 0.69388 0.26486 0.0
H785 H 0.67187 0.67173 0.36363 0.0
H786 H 0.69175 0.6776 0.31989 0.0
H787 H 0.71576 0.70464 0.29393 0.0
H788 H 0.78406 0.72045 0.17876 0.0
H789 H 0.7676 0.72038 0.22527 0.0
H790 H 0.78835 0.65211 0.27846 0.0
C791 C 0.70304 0.67515 0.3393 0.0
C792 C 0.73141 0.69282 0.29074 0.0
C793 C 0.69159 0.67166 0.36438 0.0
C794 C 0.78392 0.70254 0.18998 0.0
C795 C 0.77433 0.70243 0.21659 0.0
C796 C 0.77232 0.66345 0.28135 0.0
C797 C 0.7286 0.67443 0.33913 0.0
C798 C 0.74073 0.67669 0.31209 0.0
C799 C 0.77363 0.67953 0.2318 0.0
C800 C 0.76267 0.6791 0.25974 0.0
H801 H 0.74202 0.66339 0.40917 0.0
H802 H 0.76208 0.67053 0.36579 0.0
H803 H 0.76897 0.64917 0.32274 0.0
H804 H 0.80003 0.63924 0.18478 0.0
H805 H 0.78254 0.63873 0.23058 0.0
C806 C 0.80678 0.19747 0.96496 0.0
C807 C 0.82739 0.20313 0.98368 0.0
C808 C 0.79923 0.21494 0.9444 0.0
C809 C 0.8215 0.27059 0.9054 0.0
H810 H 0.75265 0.27775 0.88432 0.0
C811 C 0.78602 0.3164 0.80139 0.0
C812 C 0.76396 0.32963 0.80066 0.0
C813 C 0.7946 0.3041 0.82586 0.0
C814 C 0.77195 0.27636 0.89019 0.0
H815 H 0.85605 0.23181 0.9957 0.0
H816 H 0.84254 0.26251 0.96031 0.0
H817 H 0.76541 0.25048 0.92323 0.0
H818 H 0.73428 0.34161 0.82558 0.0
H819 H 0.7496 0.32078 0.86858 0.0
H820 H 0.82802 0.29692 0.87273 0.0
C821 C 0.83248 0.24434 0.9611 0.0
C822 C 0.77929 0.26034 0.91226 0.0
C823 C 0.84016 0.22677 0.98151 0.0
C824 C 0.75126 0.33139 0.82539 0.0
C825 C 0.75995 0.31927 0.84997 0.0
C826 C 0.81416 0.28678 0.88346 0.0
C827 C 0.81198 0.2386 0.94219 0.0
C828 C 0.80416 0.25692 0.91987 0.0
C829 C 0.78143 0.30493 0.8503 0.0
C830 C 0.78929 0.28957 0.87528 0.0
H831 H 0.79664 0.17936 0.9659 0.0
H832 H 0.78363 0.20963 0.92988 0.0
H833 H 0.84082 0.2683 0.91049 0.0
H834 H 0.79621 0.31461 0.78267 0.0
H835 H 0.81104 0.29301 0.82515 0.0
C836 C 0.29831 0.29119 0.48785 0.0
C837 C 0.28745 0.30666 0.50828 0.0
C838 C 0.2863 0.26887 0.47582 0.0
C839 C 0.26614 0.21412 0.46945 0.0
H840 H 0.19576 0.20695 0.46004 0.0
C841 C 0.21808 0.1139 0.45736 0.0
C842 C 0.19605 0.11105 0.44048 0.0
C843 C 0.22902 0.13838 0.46298 0.0
C844 C 0.21546 0.20862 0.4621 0.0
H845 H 0.25521 0.31131 0.53156 0.0
H846 H 0.23464 0.27194 0.51148 0.0
H847 H 0.21455 0.24922 0.47256 0.0
H848 H 0.16849 0.13153 0.41562 0.0
H849 H 0.188 0.17417 0.42452 0.0
H850 H 0.26712 0.17377 0.45802 0.0
C851 C 0.25214 0.27728 0.50406 0.0
C852 C 0.22626 0.23288 0.46974 0.0
C853 C 0.26398 0.29985 0.51572 0.0
C854 C 0.18539 0.13314 0.42889 0.0
C855 C 0.19652 0.15762 0.43416 0.0
C856 C 0.25537 0.18998 0.46142 0.0
C857 C 0.26332 0.26121 0.48432 0.0
C858 C 0.25175 0.23589 0.47396 0.0
C859 C 0.2184 0.16061 0.45148 0.0
C860 C 0.22987 0.18677 0.45812 0.0
H861 H 0.31628 0.29613 0.48146 0.0
H862 H 0.29525 0.25743 0.46015 0.0
H863 H 0.2858 0.21545 0.47283 0.0
H864 H 0.22665 0.09726 0.46678 0.0
H865 H 0.24556 0.13987 0.47688 0.0
C866 C 0.19115 0.86838 0.95097 0.0
C867 C 0.17601 0.85053 0.96355 0.0
C868 C 0.20307 0.86102 0.92681 0.0
C869 C 0.23585 0.83498 0.88464 0.0
H870 H 0.19886 0.79153 0.82735 0.0
C871 C 0.28018 0.78055 0.79302 0.0
C872 C 0.2672 0.77894 0.76623 0.0
C873 C 0.26951 0.79117 0.81665 0.0
C874 C 0.20939 0.80388 0.84295 0.0
H875 H 0.16211 0.81075 0.96103 0.0
H876 H 0.18299 0.798 0.91946 0.0
H877 H 0.17953 0.80696 0.86926 0.0
H878 H 0.23302 0.78768 0.74313 0.0
H879 H 0.21452 0.80639 0.78426 0.0
H880 H 0.26568 0.83204 0.85803 0.0
C881 C 0.18534 0.81779 0.92783 0.0
C882 C 0.19839 0.81247 0.86717 0.0
C883 C 0.17348 0.8251 0.95184 0.0
C884 C 0.24345 0.78846 0.76351 0.0
C885 C 0.23281 0.7991 0.78711 0.0
C886 C 0.2469 0.82634 0.86035 0.0
C887 C 0.19999 0.83571 0.91478 0.0
C888 C 0.21156 0.82786 0.88844 0.0
C889 C 0.24564 0.80041 0.814 0.0
C890 C 0.23382 0.81053 0.83933 0.0
H891 H 0.19343 0.88814 0.95942 0.0
H892 H 0.21417 0.87529 0.91713 0.0
H893 H 0.2465 0.84672 0.90071 0.0
H894 H 0.29853 0.7734 0.79583 0.0
H895 H 0.27978 0.79159 0.83712 0.0
loop_
_geom_bond_atom_site_label_1
_geom_bond_atom_site_label_2
_geom_bond_distance
_geom_bond_site_symmetry_2
_ccdc_geom_bond_type
Fe0 O2 1.918 1_554 S
Fe0 O5 1.997 . S
Fe0 O6 2.002 . S
Fe0 O11 1.976 1_554 S
Fe0 O14 1.996 1_554 S
Fe1 O2 1.918 1_554 S
Fe1 O9 1.997 . S
Fe1 O12 1.996 1_554 S
Fe1 O16 1.976 1_554 S
Fe1 O19 2.002 . S
O2 Fe0 1.918 1_556 S
O2 Fe1 1.918 1_556 S
O2 Fe3 1.918 . S
Fe3 O2 1.918 . S
Fe3 O4 2.002 1_556 S
Fe3 O13 1.976 . S
Fe3 O17 1.996 . S
Fe3 O20 1.997 1_556 S
O4 Fe3 2.002 1_554 S
O4 C21 1.295 . S
O5 Fe0 1.997 . S
O5 C21 1.235 . S
O6 Fe0 2.002 . S
O6 C7 1.295 . S
C7 O6 1.295 . S
C7 O9 1.235 . S
C8 O13 1.287 . S
C8 O14 1.255 . S
O9 Fe1 1.997 . S
O9 C7 1.235 . S
C10 O16 1.287 . S
C10 O17 1.255 . S
O11 Fe0 1.976 1_556 S
O11 C18 1.287 . S
O12 Fe1 1.996 1_556 S
O12 C18 1.255 . S
O13 Fe3 1.976 . S
O13 C8 1.287 . S
O14 Fe0 1.996 1_556 S
O14 C8 1.255 . S
C15 O19 1.295 . S
C15 O20 1.235 . S
O16 Fe1 1.976 1_556 S
O16 C10 1.287 . S
O17 Fe3 1.996 . S
O17 C10 1.255 . S
C18 O11 1.287 . S
C18 O12 1.255 . S
O19 Fe1 2.002 . S
O19 C15 1.295 . S
O20 Fe3 1.997 1_554 S
O20 C15 1.235 . S
C21 O4 1.295 . S
C21 O5 1.235 . S
Fe22 O24 1.918 . S
Fe22 O27 1.997 . S
Fe22 O28 2.002 . S
Fe22 O33 1.976 . S
Fe22 O36 1.996 . S
Fe23 O24 1.918 . S
Fe23 O31 1.997 . S
Fe23 O34 1.996 . S
Fe23 O38 1.976 . S
Fe23 O41 2.002 . S
O24 Fe22 1.918 . S
O24 Fe23 1.918 . S
O24 Fe25 1.918 . S
Fe25 O24 1.918 . S
Fe25 O26 2.002 . S
Fe25 O35 1.976 . S
Fe25 O39 1.996 . S
Fe25 O42 1.997 . S
O26 Fe25 2.002 . S
O26 C43 1.295 . S
O27 Fe22 1.997 . S
O27 C43 1.235 . S
O28 Fe22 2.002 . S
O28 C29 1.295 . S
C29 O28 1.295 . S
C29 O31 1.235 . S
C30 O35 1.287 . S
C30 O36 1.255 . S
O31 Fe23 1.997 . S
O31 C29 1.235 . S
C32 O38 1.287 . S
C32 O39 1.255 . S
O33 Fe22 1.976 . S
O33 C40 1.287 . S
O34 Fe23 1.996 . S
O34 C40 1.255 . S
O35 Fe25 1.976 . S
O35 C30 1.287 . S
O36 Fe22 1.996 . S
O36 C30 1.255 . S
C37 O41 1.295 . S
C37 O42 1.235 . S
O38 Fe23 1.976 . S
O38 C32 1.287 . S
O39 Fe25 1.996 . S
O39 C32 1.255 . S
C40 O33 1.287 . S
C40 O34 1.255 . S
O41 Fe23 2.002 . S
O41 C37 1.295 . S
O42 Fe25 1.997 . S
O42 C37 1.235 . S
C43 O26 1.295 . S
C43 O27 1.235 . S
Fe44 O46 1.918 . S
Fe44 O49 1.997 . S
Fe44 O50 2.002 . S
Fe44 O55 1.976 . S
Fe44 O58 1.996 . S
Fe45 O46 1.918 . S
Fe45 O53 1.997 . S
Fe45 O56 1.996 . S
Fe45 O60 1.976 . S
Fe45 O63 2.002 1_554 S
O46 Fe44 1.918 . S
O46 Fe45 1.918 . S
O46 Fe47 1.918 . S
Fe47 O46 1.918 . S
Fe47 O48 2.002 1_554 S
Fe47 O57 1.976 . S
Fe47 O61 1.996 . S
Fe47 O64 1.997 1_554 S
O48 Fe47 2.002 1_556 S
O48 C65 1.295 . S
O49 Fe44 1.997 . S
O49 C65 1.235 1_554 S
O50 Fe44 2.002 . S
O50 C51 1.295 . S
C51 O50 1.295 . S
C51 O53 1.235 . S
C52 O57 1.287 . S
C52 O58 1.255 . S
O53 Fe45 1.997 . S
O53 C51 1.235 . S
C54 O60 1.287 . S
C54 O61 1.255 . S
O55 Fe44 1.976 . S
O55 C62 1.287 . S
O56 Fe45 1.996 . S
O56 C62 1.255 . S
O57 Fe47 1.976 . S
O57 C52 1.287 . S
O58 Fe44 1.996 . S
O58 C52 1.255 . S
C59 O63 1.295 . S
C59 O64 1.235 . S
O60 Fe45 1.976 . S
O60 C54 1.287 . S
O61 Fe47 1.996 . S
O61 C54 1.255 . S
C62 O55 1.287 . S
C62 O56 1.255 . S
O63 Fe45 2.002 1_556 S
O63 C59 1.295 . S
O64 Fe47 1.997 1_556 S
O64 C59 1.235 . S
C65 O48 1.295 . S
C65 O49 1.235 1_556 S
Fe66 O68 1.918 . S
Fe66 O71 1.997 . S
Fe66 O72 2.002 . S
Fe66 O77 1.976 . S
Fe66 O80 1.996 . S
Fe67 O68 1.918 . S
Fe67 O75 1.997 . S
Fe67 O78 1.996 . S
Fe67 O82 1.976 . S
Fe67 O85 2.002 . S
O68 Fe66 1.918 . S
O68 Fe67 1.918 . S
O68 Fe69 1.918 . S
Fe69 O68 1.918 . S
Fe69 O70 2.002 . S
Fe69 O79 1.976 . S
Fe69 O83 1.996 . S
Fe69 O86 1.997 . S
O70 Fe69 2.002 . S
O70 C87 1.295 . S
O71 Fe66 1.997 . S
O71 C87 1.235 . S
O72 Fe66 2.002 . S
O72 C73 1.295 . S
C73 O72 1.295 . S
C73 O75 1.235 . S
C74 O79 1.287 . S
C74 O80 1.255 . S
O75 Fe67 1.997 . S
O75 C73 1.235 . S
C76 O82 1.287 . S
C76 O83 1.255 . S
O77 Fe66 1.976 . S
O77 C84 1.287 . S
O78 Fe67 1.996 . S
O78 C84 1.255 . S
O79 Fe69 1.976 . S
O79 C74 1.287 . S
O80 Fe66 1.996 . S
O80 C74 1.255 . S
C81 O85 1.295 . S
C81 O86 1.235 . S
O82 Fe67 1.976 . S
O82 C76 1.287 . S
O83 Fe69 1.996 . S
O83 C76 1.255 . S
C84 O77 1.287 . S
C84 O78 1.255 . S
O85 Fe67 2.002 . S
O85 C81 1.295 . S
O86 Fe69 1.997 . S
O86 C81 1.235 . S
C87 O70 1.295 . S
C87 O71 1.235 . S
O88 Cd89 2.300 . S
O88 C95 1.275 . S
Cd89 O88 2.300 . S
Cd89 O97 2.381 . S
Cd89 O98 2.378 . S
O90 Cd91 2.385 . S
O90 C95 1.255 . S
Cd91 O90 2.385 . S
Cd91 O92 2.317 . S
O92 Cd91 2.317 . S
O92 C93 1.232 . S
C93 O92 1.232 . S
C93 O94 1.218 . S
O94 C93 1.218 . S
C95 O88 1.275 . S
C95 O90 1.255 . S
C96 O97 1.258 . S
C96 O98 1.256 . S
O97 Cd89 2.381 . S
O97 C96 1.258 . S
O98 Cd89 2.378 . S
O98 C96 1.256 . S
O99 Cd100 2.300 . S
O99 C106 1.275 . S
Cd100 O99 2.300 . S
Cd100 O108 2.381 . S
Cd100 O109 2.378 . S
O101 Cd102 2.385 . S
O101 C106 1.255 . S
Cd102 O101 2.385 . S
Cd102 O103 2.317 . S
O103 Cd102 2.317 . S
O103 C104 1.232 . S
C104 O103 1.232 . S
C104 O105 1.218 . S
O105 C104 1.218 . S
C106 O99 1.275 . S
C106 O101 1.255 . S
C107 O108 1.258 . S
C107 O109 1.256 . S
O108 Cd100 2.381 . S
O108 C107 1.258 . S
O109 Cd100 2.378 . S
O109 C107 1.256 . S
O110 Cd111 2.300 . S
O110 C117 1.275 . S
Cd111 O110 2.300 . S
Cd111 O119 2.381 . S
Cd111 O120 2.378 . S
O112 Cd113 2.385 . S
O112 C117 1.255 . S
Cd113 O112 2.385 . S
Cd113 O114 2.317 . S
O114 Cd113 2.317 . S
O114 C115 1.232 . S
C115 O114 1.232 . S
C115 O116 1.218 . S
O116 C115 1.218 . S
C117 O110 1.275 . S
C117 O112 1.255 . S
C118 O119 1.258 . S
C118 O120 1.256 . S
O119 Cd111 2.381 . S
O119 C118 1.258 . S
O120 Cd111 2.378 . S
O120 C118 1.256 . S
O121 Cd122 2.300 . S
O121 C128 1.275 . S
Cd122 O121 2.300 . S
Cd122 O130 2.381 . S
Cd122 O131 2.378 . S
O123 Cd124 2.385 . S
O123 C128 1.255 . S
Cd124 O123 2.385 . S
Cd124 O125 2.317 . S
O125 Cd124 2.317 . S
O125 C126 1.232 . S
C126 O125 1.232 . S
C126 O127 1.218 . S
O127 C126 1.218 . S
C128 O121 1.275 . S
C128 O123 1.255 . S
C129 O130 1.258 . S
C129 O131 1.256 . S
O130 Cd122 2.381 . S
O130 C129 1.258 . S
O131 Cd122 2.378 . S
O131 C129 1.256 . S
O132 Cd133 2.300 . S
O132 C139 1.275 . S
Cd133 O132 2.300 . S
Cd133 O141 2.381 . S
Cd133 O142 2.378 . S
O134 Cd135 2.385 . S
O134 C139 1.255 . S
Cd135 O134 2.385 . S
Cd135 O136 2.317 . S
O136 Cd135 2.317 . S
O136 C137 1.232 . S
C137 O136 1.232 . S
C137 O138 1.218 . S
O138 C137 1.218 . S
C139 O132 1.275 . S
C139 O134 1.255 . S
C140 O141 1.258 . S
C140 O142 1.256 . S
O141 Cd133 2.381 . S
O141 C140 1.258 . S
O142 Cd133 2.378 . S
O142 C140 1.256 . S
O143 Cd144 2.300 . S
O143 C150 1.275 . S
Cd144 O143 2.300 . S
Cd144 O152 2.381 . S
Cd144 O153 2.378 . S
O145 Cd146 2.385 . S
O145 C150 1.255 . S
Cd146 O145 2.385 . S
Cd146 O147 2.317 . S
O147 Cd146 2.317 . S
O147 C148 1.232 . S
C148 O147 1.232 . S
C148 O149 1.218 . S
O149 C148 1.218 . S
C150 O143 1.275 . S
C150 O145 1.255 . S
C151 O152 1.258 . S
C151 O153 1.256 . S
O152 Cd144 2.381 . S
O152 C151 1.258 . S
O153 Cd144 2.378 . S
O153 C151 1.256 . S
O154 Cd155 2.300 . S
O154 C161 1.275 . S
Cd155 O154 2.300 . S
Cd155 O163 2.381 . S
Cd155 O164 2.378 . S
O156 Cd157 2.385 . S
O156 C161 1.255 . S
Cd157 O156 2.385 . S
Cd157 O158 2.317 . S
O158 Cd157 2.317 . S
O158 C159 1.232 . S
C159 O158 1.232 . S
C159 O160 1.218 . S
O160 C159 1.218 . S
C161 O154 1.275 . S
C161 O156 1.255 . S
C162 O163 1.258 . S
C162 O164 1.256 . S
O163 Cd155 2.381 . S
O163 C162 1.258 . S
O164 Cd155 2.378 . S
O164 C162 1.256 . S
O165 Cd166 2.300 . S
O165 C172 1.275 . S
Cd166 O165 2.300 . S
Cd166 O174 2.381 . S
Cd166 O175 2.378 . S
O167 Cd168 2.385 . S
O167 C172 1.255 . S
Cd168 O167 2.385 . S
Cd168 O169 2.317 . S
O169 Cd168 2.317 . S
O169 C170 1.232 . S
C170 O169 1.232 . S
C170 O171 1.218 . S
O171 C170 1.218 . S
C172 O165 1.275 . S
C172 O167 1.255 . S
C173 O174 1.258 . S
C173 O175 1.256 . S
O174 Cd166 2.381 . S
O174 C173 1.258 . S
O175 Cd166 2.378 . S
O175 C173 1.256 . S
C176 C177 1.349 . S
C176 C178 1.327 . S
C176 H201 0.950 . S
C177 C176 1.349 . S
C177 C193 1.349 . S
C178 C176 1.327 . S
C178 C197 1.429 . S
C178 H202 0.950 . S
C179 C196 1.574 . S
C179 C198 1.368 . S
C179 H203 0.949 . S
H180 C184 0.949 . S
C181 C182 1.349 . S
C181 C183 1.327 . S
C181 H204 0.950 . S
C182 C181 1.349 . S
C182 C194 1.349 . S
C183 C181 1.327 . S
C183 C199 1.429 . S
C183 H205 0.950 1_545 S
C184 H180 0.949 . S
C184 C192 1.574 1_545 S
C184 C200 1.346 1_545 S
H185 C193 0.950 . S
H186 C191 0.950 . S
H187 C192 0.949 1_545 S
H188 C194 0.950 . S
H189 C195 0.950 . S
H190 C196 0.949 . S
C191 H186 0.950 . S
C191 C193 1.327 . S
C191 C197 1.429 . S
C192 C184 1.574 1_565 S
C192 H187 0.949 1_565 S
C192 C198 1.368 . S
C193 C177 1.349 . S
C193 H185 0.950 . S
C193 C191 1.327 . S
C194 C182 1.349 . S
C194 H188 0.950 . S
C194 C195 1.327 . S
C195 H189 0.950 . S
C195 C194 1.327 . S
C195 C199 1.429 . S
C196 C179 1.574 . S
C196 H190 0.949 . S
C196 C200 1.409 . S
C197 C178 1.429 . S
C197 C191 1.429 . S
C197 C198 1.523 . S
C198 C179 1.368 . S
C198 C192 1.368 . S
C198 C197 1.523 . S
C199 C183 1.429 . S
C199 C195 1.429 . S
C199 C200 1.501 1_545 S
C200 C184 1.346 1_565 S
C200 C196 1.409 . S
C200 C199 1.501 1_565 S
H201 C176 0.950 . S
H202 C178 0.950 . S
H203 C179 0.949 . S
H204 C181 0.950 . S
H205 C183 0.950 1_565 S
C206 C207 1.349 . S
C206 C208 1.327 . S
C206 H231 0.950 . S
C207 C206 1.349 . S
C207 C223 1.349 . S
C208 C206 1.327 . S
C208 C227 1.429 . S
C208 H232 0.950 . S
C209 C226 1.574 . S
C209 C228 1.368 . S
C209 H233 0.949 . S
H210 C214 0.949 . S
C211 C212 1.349 . S
C211 C213 1.327 . S
C211 H234 0.950 . S
C212 C211 1.349 . S
C212 C224 1.349 . S
C213 C211 1.327 . S
C213 C229 1.429 . S
C213 H235 0.950 . S
C214 H210 0.949 . S
C214 C222 1.574 . S
C214 C230 1.368 . S
H215 C223 0.950 . S
H216 C221 0.950 . S
H217 C222 0.949 . S
H218 C224 0.950 . S
H219 C225 0.950 . S
H220 C226 0.949 . S
C221 H216 0.950 . S
C221 C223 1.327 . S
C221 C227 1.429 . S
C222 C214 1.574 . S
C222 H217 0.949 . S
C222 C228 1.368 . S
C223 C207 1.349 . S
C223 H215 0.950 . S
C223 C221 1.327 . S
C224 C212 1.349 . S
C224 H218 0.950 . S
C224 C225 1.327 . S
C225 H219 0.950 . S
C225 C224 1.327 . S
C225 C229 1.429 . S
C226 C209 1.574 . S
C226 H220 0.949 . S
C226 C230 1.368 . S
C227 C208 1.429 . S
C227 C221 1.429 . S
C227 C228 1.523 . S
C228 C209 1.368 . S
C228 C222 1.368 . S
C228 C227 1.523 . S
C229 C213 1.429 . S
C229 C225 1.429 . S
C229 C230 1.523 . S
C230 C214 1.368 . S
C230 C226 1.368 . S
C230 C229 1.523 . S
H231 C206 0.950 . S
H232 C208 0.950 . S
H233 C209 0.949 . S
H234 C211 0.950 . S
H235 C213 0.950 . S
C236 C237 1.349 . S
C236 C238 1.327 . S
C236 H261 0.950 . S
C237 C236 1.349 . S
C237 C253 1.349 . S
C238 C236 1.327 . S
C238 C257 1.429 . S
C238 H262 0.950 . S
C239 C256 1.574 . S
C239 C258 1.368 . S
C239 H263 0.949 . S
H240 C244 0.949 . S
C241 C242 1.349 . S
C241 C243 1.327 . S
C241 H264 0.950 . S
C242 C241 1.349 . S
C242 C254 1.349 . S
C243 C241 1.327 . S
C243 C259 1.429 . S
C243 H265 0.950 . S
C244 H240 0.949 . S
C244 C252 1.574 . S
C244 C260 1.368 . S
H245 C253 0.950 . S
H246 C251 0.950 . S
H247 C252 0.949 . S
H248 C254 0.950 . S
H249 C255 0.950 . S
H250 C256 0.949 . S
C251 H246 0.950 . S
C251 C253 1.327 . S
C251 C257 1.429 . S
C252 C244 1.574 . S
C252 H247 0.949 . S
C252 C258 1.368 . S
C253 C237 1.349 . S
C253 H245 0.950 . S
C253 C251 1.327 . S
C254 C242 1.349 . S
C254 H248 0.950 . S
C254 C255 1.327 . S
C255 H249 0.950 . S
C255 C254 1.327 . S
C255 C259 1.429 . S
C256 C239 1.574 . S
C256 H250 0.949 . S
C256 C260 1.368 . S
C257 C238 1.429 . S
C257 C251 1.429 . S
C257 C258 1.523 1_545 S
C258 C239 1.368 . S
C258 C252 1.368 . S
C258 C257 1.523 1_565 S
C259 C243 1.429 . S
C259 C255 1.429 . S
C259 C260 1.523 . S
C260 C244 1.368 . S
C260 C256 1.368 . S
C260 C259 1.523 . S
H261 C236 0.950 . S
H262 C238 0.950 . S
H263 C239 0.949 . S
H264 C241 0.950 . S
H265 C243 0.950 . S
C266 C267 1.349 . S
C266 C268 1.327 . S
C266 H291 0.950 . S
C267 C266 1.349 . S
C267 C283 1.349 . S
C268 C266 1.327 . S
C268 C287 1.429 . S
C268 H292 0.950 . S
C269 C286 1.574 . S
C269 C288 1.368 . S
C269 H293 0.949 . S
H270 C274 0.949 . S
C271 C272 1.349 . S
C271 C273 1.327 . S
C271 H294 0.950 . S
C272 C271 1.349 . S
C272 C284 1.349 . S
C273 C271 1.327 . S
C273 C289 1.429 . S
C273 H295 0.950 . S
C274 H270 0.949 . S
C274 C282 1.574 . S
C274 C290 1.368 . S
H275 C283 0.950 . S
H276 C281 0.950 . S
H277 C282 0.949 . S
H278 C284 0.950 . S
H279 C285 0.950 . S
H280 C286 0.949 . S
C281 H276 0.950 . S
C281 C283 1.327 . S
C281 C287 1.429 . S
C282 C274 1.574 . S
C282 H277 0.949 . S
C282 C288 1.368 . S
C283 C267 1.349 . S
C283 H275 0.950 . S
C283 C281 1.327 . S
C284 C272 1.349 . S
C284 H278 0.950 . S
C284 C285 1.327 . S
C285 H279 0.950 . S
C285 C284 1.327 . S
C285 C289 1.429 . S
C286 C269 1.574 . S
C286 H280 0.949 . S
C286 C290 1.368 . S
C287 C268 1.429 . S
C287 C281 1.429 . S
C287 C288 1.523 . S
C288 C269 1.368 . S
C288 C282 1.368 . S
C288 C287 1.523 . S
C289 C273 1.429 . S
C289 C285 1.429 . S
C289 C290 1.523 . S
C290 C274 1.368 . S
C290 C286 1.368 . S
C290 C289 1.523 . S
H291 C266 0.950 . S
H292 C268 0.950 . S
H293 C269 0.949 . S
H294 C271 0.950 . S
H295 C273 0.950 . S
C296 C297 1.349 . S
C296 C298 1.327 . S
C296 H321 0.950 . S
C297 C296 1.349 . S
C297 C313 1.349 . S
C298 C296 1.327 . S
C298 C317 1.429 . S
C298 H322 0.950 . S
C299 C316 1.574 . S
C299 C318 1.368 . S
C299 H323 0.949 . S
H300 C304 0.949 . S
C301 C302 1.349 . S
C301 C303 1.327 . S
C301 H324 0.950 . S
C302 C301 1.349 . S
C302 C314 1.349 . S
C303 C301 1.327 . S
C303 C319 1.429 . S
C303 H325 0.950 . S
C304 H300 0.949 . S
C304 C312 1.574 . S
C304 C320 1.368 . S
H305 C313 0.950 . S
H306 C311 0.950 . S
H307 C312 0.949 . S
H308 C314 0.950 . S
H309 C315 0.950 . S
H310 C316 0.949 . S
C311 H306 0.950 . S
C311 C313 1.327 . S
C311 C317 1.429 . S
C312 C304 1.574 . S
C312 H307 0.949 . S
C312 C318 1.368 . S
C313 C297 1.349 . S
C313 H305 0.950 . S
C313 C311 1.327 . S
C314 C302 1.349 . S
C314 H308 0.950 . S
C314 C315 1.327 . S
C315 H309 0.950 . S
C315 C314 1.327 . S
C315 C319 1.429 . S
C316 C299 1.574 . S
C316 H310 0.949 . S
C316 C320 1.368 . S
C317 C298 1.429 . S
C317 C311 1.429 . S
C317 C318 1.523 . S
C318 C299 1.368 . S
C318 C312 1.368 . S
C318 C317 1.523 . S
C319 C303 1.429 . S
C319 C315 1.429 . S
C319 C320 1.523 . S
C320 C304 1.368 . S
C320 C316 1.368 . S
C320 C319 1.523 . S
H321 C296 0.950 . S
H322 C298 0.950 . S
H323 C299 0.949 . S
H324 C301 0.950 . S
H325 C303 0.950 . S
C326 C327 1.349 . S
C326 C328 1.327 . S
C326 H351 0.950 . S
C327 C326 1.349 . S
C327 C343 1.349 . S
C328 C326 1.327 . S
C328 C347 1.429 . S
C328 H352 0.950 . S
C329 C346 1.574 . S
C329 C348 1.368 1_455 S
C329 H353 0.949 . S
H330 C334 0.949 . S
C331 C332 1.349 . S
C331 C333 1.327 . S
C331 H354 0.950 . S
C332 C331 1.349 . S
C332 C344 1.349 . S
C333 C331 1.327 . S
C333 C349 1.429 . S
C333 H355 0.950 . S
C334 H330 0.949 . S
C334 C342 1.574 1_455 S
C334 C350 1.368 . S
H335 C343 0.950 . S
H336 C341 0.950 . S
H337 C342 0.949 . S
H338 C344 0.950 . S
H339 C345 0.950 . S
H340 C346 0.949 . S
C341 H336 0.950 . S
C341 C343 1.327 . S
C341 C347 1.429 . S
C342 C334 1.574 1_655 S
C342 H337 0.949 . S
C342 C348 1.368 . S
C343 C327 1.349 . S
C343 H335 0.950 . S
C343 C341 1.327 . S
C344 C332 1.349 . S
C344 H338 0.950 . S
C344 C345 1.327 . S
C345 H339 0.950 . S
C345 C344 1.327 . S
C345 C349 1.429 . S
C346 C329 1.574 . S
C346 H340 0.949 . S
C346 C350 1.368 . S
C347 C328 1.429 . S
C347 C341 1.429 . S
C347 C348 1.523 . S
C348 C329 1.368 1_655 S
C348 C342 1.368 . S
C348 C347 1.523 . S
C349 C333 1.429 . S
C349 C345 1.429 . S
C349 C350 1.523 . S
C350 C334 1.368 . S
C350 C346 1.368 . S
C350 C349 1.523 . S
H351 C326 0.950 . S
H352 C328 0.950 . S
H353 C329 0.949 . S
H354 C331 0.950 . S
H355 C333 0.950 . S
C356 C357 1.349 . S
C356 C358 1.327 . S
C356 H381 0.950 . S
C357 C356 1.349 . S
C357 C373 1.349 . S
C358 C356 1.327 . S
C358 C377 1.429 . S
C358 H382 0.950 . S
C359 C376 1.574 . S
C359 C378 1.368 . S
C359 H383 0.949 . S
H360 C364 0.949 . S
C361 C362 1.349 . S
C361 C363 1.327 . S
C361 H384 0.950 . S
C362 C361 1.349 . S
C362 C374 1.349 . S
C363 C361 1.327 . S
C363 C379 1.429 . S
C363 H385 0.950 . S
C364 H360 0.949 . S
C364 C372 1.574 . S
C364 C380 1.368 . S
H365 C373 0.950 . S
H366 C371 0.950 . S
H367 C372 0.949 . S
H368 C374 0.950 . S
H369 C375 0.950 . S
H370 C376 0.949 . S
C371 H366 0.950 . S
C371 C373 1.327 . S
C371 C377 1.429 . S
C372 C364 1.574 . S
C372 H367 0.949 . S
C372 C378 1.368 . S
C373 C357 1.349 . S
C373 H365 0.950 . S
C373 C371 1.327 . S
C374 C362 1.349 . S
C374 H368 0.950 . S
C374 C375 1.327 . S
C375 H369 0.950 . S
C375 C374 1.327 . S
C375 C379 1.429 . S
C376 C359 1.574 . S
C376 H370 0.949 . S
C376 C380 1.368 . S
C377 C358 1.429 . S
C377 C371 1.429 . S
C377 C378 1.523 . S
C378 C359 1.368 . S
C378 C372 1.368 . S
C378 C377 1.523 . S
C379 C363 1.429 . S
C379 C375 1.429 . S
C379 C380 1.523 . S
C380 C364 1.368 . S
C380 C376 1.368 . S
C380 C379 1.523 . S
H381 C356 0.950 . S
H382 C358 0.950 . S
H383 C359 0.949 . S
H384 C361 0.950 . S
H385 C363 0.950 . S
C386 C387 1.349 . S
C386 C388 1.327 . S
C386 H411 0.950 . S
C387 C386 1.349 . S
C387 C403 1.349 . S
C388 C386 1.327 . S
C388 C407 1.429 . S
C388 H412 0.950 . S
C389 C406 1.574 . S
C389 C408 1.368 . S
C389 H413 0.949 . S
H390 C394 0.949 . S
C391 C392 1.349 . S
C391 C393 1.327 . S
C391 H414 0.950 . S
C392 C391 1.349 . S
C392 C404 1.349 . S
C393 C391 1.327 . S
C393 C409 1.429 . S
C393 H415 0.950 . S
C394 H390 0.949 . S
C394 C402 1.574 1_655 S
C394 C410 1.368 . S
H395 C403 0.950 . S
H396 C401 0.950 . S
H397 C402 0.949 . S
H398 C404 0.950 . S
H399 C405 0.950 . S
H400 C406 0.949 . S
C401 H396 0.950 . S
C401 C403 1.327 . S
C401 C407 1.429 . S
C402 C394 1.574 1_455 S
C402 H397 0.949 . S
C402 C408 1.368 . S
C403 C387 1.349 . S
C403 H395 0.950 . S
C403 C401 1.327 . S
C404 C392 1.349 . S
C404 H398 0.950 . S
C404 C405 1.327 . S
C405 H399 0.950 . S
C405 C404 1.327 . S
C405 C409 1.429 . S
C406 C389 1.574 . S
C406 H400 0.949 . S
C406 C410 1.368 1_455 S
C407 C388 1.429 . S
C407 C401 1.429 . S
C407 C408 1.523 . S
C408 C389 1.368 . S
C408 C402 1.368 . S
C408 C407 1.523 . S
C409 C393 1.429 . S
C409 C405 1.429 . S
C409 C410 1.523 . S
C410 C394 1.368 . S
C410 C406 1.368 1_655 S
C410 C409 1.523 . S
H411 C386 0.950 . S
H412 C388 0.950 . S
H413 C389 0.949 . S
H414 C391 0.950 . S
H415 C393 0.950 . S
C416 C417 1.349 . S
C416 C418 1.327 . S
C416 H441 0.950 . S
C417 C416 1.349 . S
C417 C433 1.349 . S
C418 C416 1.327 . S
C418 C437 1.429 . S
C418 H442 0.950 . S
C419 C436 1.574 . S
C419 C438 1.368 . S
C419 H443 0.949 . S
H420 C424 0.949 . S
C421 C422 1.349 . S
C421 C423 1.327 . S
C421 H444 0.950 . S
C422 C421 1.349 . S
C422 C434 1.349 . S
C423 C421 1.327 . S
C423 C439 1.429 . S
C423 H445 0.950 . S
C424 H420 0.949 . S
C424 C432 1.574 . S
C424 C440 1.368 . S
H425 C433 0.950 . S
H426 C431 0.950 . S
H427 C432 0.949 . S
H428 C434 0.950 . S
H429 C435 0.950 . S
H430 C436 0.949 1_565 S
C431 H426 0.950 . S
C431 C433 1.327 . S
C431 C437 1.429 . S
C432 C424 1.574 . S
C432 H427 0.949 . S
C432 C438 1.368 . S
C433 C417 1.349 . S
C433 H425 0.950 . S
C433 C431 1.327 . S
C434 C422 1.349 . S
C434 H428 0.950 . S
C434 C435 1.327 1_565 S
C435 H429 0.950 . S
C435 C434 1.327 1_545 S
C435 C439 1.429 1_545 S
C436 C419 1.574 . S
C436 H430 0.949 1_545 S
C436 C440 1.368 . S
C437 C418 1.429 . S
C437 C431 1.429 . S
C437 C438 1.523 . S
C438 C419 1.368 . S
C438 C432 1.368 . S
C438 C437 1.523 . S
C439 C423 1.429 . S
C439 C435 1.429 1_565 S
C439 C440 1.523 1_565 S
C440 C424 1.368 . S
C440 C436 1.368 . S
C440 C439 1.523 1_545 S
H441 C416 0.950 . S
H442 C418 0.950 . S
H443 C419 0.949 . S
H444 C421 0.950 . S
H445 C423 0.950 . S
C446 C447 1.349 . S
C446 C448 1.327 . S
C446 H471 0.950 . S
C447 C446 1.349 . S
C447 C463 1.349 . S
C448 C446 1.327 . S
C448 C467 1.429 . S
C448 H472 0.950 . S
C449 C466 1.574 . S
C449 C468 1.368 . S
C449 H473 0.949 . S
H450 C454 0.949 . S
C451 C452 1.349 . S
C451 C453 1.327 . S
C451 H474 0.950 . S
C452 C451 1.349 . S
C452 C464 1.349 . S
C453 C451 1.327 . S
C453 C469 1.429 . S
C453 H475 0.950 . S
C454 H450 0.949 . S
C454 C462 1.574 . S
C454 C470 1.368 . S
H455 C463 0.950 . S
H456 C461 0.950 . S
H457 C462 0.949 . S
H458 C464 0.950 . S
H459 C465 0.950 . S
H460 C466 0.949 . S
C461 H456 0.950 . S
C461 C463 1.327 . S
C461 C467 1.429 . S
C462 C454 1.574 . S
C462 H457 0.949 . S
C462 C468 1.368 . S
C463 C447 1.349 . S
C463 H455 0.950 . S
C463 C461 1.327 . S
C464 C452 1.349 . S
C464 H458 0.950 . S
C464 C465 1.327 . S
C465 H459 0.950 . S
C465 C464 1.327 . S
C465 C469 1.429 . S
C466 C449 1.574 . S
C466 H460 0.949 . S
C466 C470 1.368 . S
C467 C448 1.429 . S
C467 C461 1.429 . S
C467 C468 1.523 . S
C468 C449 1.368 . S
C468 C462 1.368 . S
C468 C467 1.523 . S
C469 C453 1.429 . S
C469 C465 1.429 . S
C469 C470 1.523 . S
C470 C454 1.368 . S
C470 C466 1.368 . S
C470 C469 1.523 . S
H471 C446 0.950 . S
H472 C448 0.950 . S
H473 C449 0.949 . S
H474 C451 0.950 . S
H475 C453 0.950 . S
C476 C477 1.349 . S
C476 C478 1.327 . S
C476 H501 0.950 . S
C477 C476 1.349 . S
C477 C493 1.349 . S
C478 C476 1.327 . S
C478 C497 1.429 1_565 S
C478 H502 0.950 . S
C479 C496 1.574 . S
C479 C498 1.368 . S
C479 H503 0.949 . S
H480 C484 0.949 . S
C481 C482 1.349 . S
C481 C483 1.327 . S
C481 H504 0.950 . S
C482 C481 1.349 . S
C482 C494 1.349 . S
C483 C481 1.327 . S
C483 C499 1.429 . S
C483 H505 0.950 . S
C484 H480 0.949 . S
C484 C492 1.574 . S
C484 C500 1.368 . S
H485 C493 0.950 1_554 S
H486 C491 0.950 1_545 S
H487 C492 0.949 . S
H488 C494 0.950 . S
H489 C495 0.950 . S
H490 C496 0.949 . S
C491 H486 0.950 1_565 S
C491 C493 1.327 . S
C491 C497 1.429 1_565 S
C492 C484 1.574 . S
C492 H487 0.949 . S
C492 C498 1.368 . S
C493 C477 1.349 . S
C493 H485 0.950 1_556 S
C493 C491 1.327 . S
C494 C482 1.349 . S
C494 H488 0.950 . S
C494 C495 1.327 . S
C495 H489 0.950 . S
C495 C494 1.327 . S
C495 C499 1.429 . S
C496 C479 1.574 . S
C496 H490 0.949 . S
C496 C500 1.368 . S
C497 C478 1.429 1_545 S
C497 C491 1.429 1_545 S
C497 C498 1.523 . S
C498 C479 1.368 . S
C498 C492 1.368 . S
C498 C497 1.523 . S
C499 C483 1.429 . S
C499 C495 1.429 . S
C499 C500 1.523 . S
C500 C484 1.368 . S
C500 C496 1.368 . S
C500 C499 1.523 . S
H501 C476 0.950 . S
H502 C478 0.950 . S
H503 C479 0.949 . S
H504 C481 0.950 . S
H505 C483 0.950 . S
C506 C507 1.349 . S
C506 C508 1.327 . S
C506 H531 0.950 . S
C507 C506 1.349 . S
C507 C523 1.349 . S
C508 C506 1.327 . S
C508 C527 1.429 . S
C508 H532 0.950 . S
C509 C526 1.574 . S
C509 C528 1.368 . S
C509 H533 0.949 . S
H510 C514 0.949 . S
C511 C512 1.349 . S
C511 C513 1.327 . S
C511 H534 0.950 . S
C512 C511 1.349 . S
C512 C524 1.349 . S
C513 C511 1.327 . S
C513 C529 1.429 . S
C513 H535 0.950 . S
C514 H510 0.949 . S
C514 C522 1.574 . S
C514 C530 1.368 . S
H515 C523 0.950 . S
H516 C521 0.950 . S
H517 C522 0.949 . S
H518 C524 0.950 . S
H519 C525 0.950 . S
H520 C526 0.949 . S
C521 H516 0.950 . S
C521 C523 1.327 . S
C521 C527 1.429 . S
C522 C514 1.574 . S
C522 H517 0.949 . S
C522 C528 1.368 . S
C523 C507 1.349 . S
C523 H515 0.950 . S
C523 C521 1.327 . S
C524 C512 1.349 . S
C524 H518 0.950 . S
C524 C525 1.327 . S
C525 H519 0.950 . S
C525 C524 1.327 . S
C525 C529 1.429 . S
C526 C509 1.574 . S
C526 H520 0.949 . S
C526 C530 1.368 . S
C527 C508 1.429 . S
C527 C521 1.429 . S
C527 C528 1.523 . S
C528 C509 1.368 . S
C528 C522 1.368 . S
C528 C527 1.523 . S
C529 C513 1.429 . S
C529 C525 1.429 . S
C529 C530 1.523 . S
C530 C514 1.368 . S
C530 C526 1.368 . S
C530 C529 1.523 . S
H531 C506 0.950 . S
H532 C508 0.950 . S
H533 C509 0.949 . S
H534 C511 0.950 . S
H535 C513 0.950 . S
C536 C537 1.349 . S
C536 C538 1.327 . S
C536 H561 0.950 . S
C537 C536 1.349 . S
C537 C553 1.349 . S
C538 C536 1.327 . S
C538 C557 1.429 . S
C538 H562 0.950 . S
C539 C556 1.574 . S
C539 C558 1.368 . S
C539 H563 0.949 . S
H540 C544 0.949 . S
C541 C542 1.349 . S
C541 C543 1.327 . S
C541 H564 0.950 . S
C542 C541 1.349 . S
C542 C554 1.349 . S
C543 C541 1.327 . S
C543 C559 1.429 . S
C543 H565 0.950 . S
C544 H540 0.949 . S
C544 C552 1.574 . S
C544 C560 1.368 . S
H545 C553 0.950 . S
H546 C551 0.950 . S
H547 C552 0.949 . S
H548 C554 0.950 . S
H549 C555 0.950 . S
H550 C556 0.949 . S
C551 H546 0.950 . S
C551 C553 1.327 . S
C551 C557 1.429 . S
C552 C544 1.574 . S
C552 H547 0.949 . S
C552 C558 1.368 . S
C553 C537 1.349 . S
C553 H545 0.950 . S
C553 C551 1.327 . S
C554 C542 1.349 . S
C554 H548 0.950 . S
C554 C555 1.327 . S
C555 H549 0.950 . S
C555 C554 1.327 . S
C555 C559 1.429 . S
C556 C539 1.574 . S
C556 H550 0.949 . S
C556 C560 1.368 . S
C557 C538 1.429 . S
C557 C551 1.429 . S
C557 C558 1.523 . S
C558 C539 1.368 . S
C558 C552 1.368 . S
C558 C557 1.523 . S
C559 C543 1.429 . S
C559 C555 1.429 . S
C559 C560 1.523 . S
C560 C544 1.368 . S
C560 C556 1.368 . S
C560 C559 1.523 . S
H561 C536 0.950 . S
H562 C538 0.950 . S
H563 C539 0.949 . S
H564 C541 0.950 . S
H565 C543 0.950 . S
C566 C567 1.349 . S
C566 C568 1.327 . S
C566 H591 0.950 . S
C567 C566 1.349 . S
C567 C583 1.349 . S
C568 C566 1.327 . S
C568 C587 1.429 . S
C568 H592 0.950 . S
C569 C586 1.574 . S
C569 C588 1.368 . S
C569 H593 0.949 . S
H570 C574 0.949 . S
C571 C572 1.349 . S
C571 C573 1.327 . S
C571 H594 0.950 . S
C572 C571 1.349 . S
C572 C584 1.349 . S
C573 C571 1.327 . S
C573 C589 1.429 . S
C573 H595 0.950 . S
C574 H570 0.949 . S
C574 C582 1.574 . S
C574 C590 1.368 . S
H575 C583 0.950 . S
H576 C581 0.950 . S
H577 C582 0.949 1_455 S
H578 C584 0.950 . S
H579 C585 0.950 . S
H580 C586 0.949 . S
C581 H576 0.950 . S
C581 C583 1.327 . S
C581 C587 1.429 . S
C582 C574 1.574 . S
C582 H577 0.949 1_655 S
C582 C588 1.368 . S
C583 C567 1.349 . S
C583 H575 0.950 . S
C583 C581 1.327 . S
C584 C572 1.349 . S
C584 H578 0.950 . S
C584 C585 1.327 . S
C585 H579 0.950 . S
C585 C584 1.327 . S
C585 C589 1.429 . S
C586 C569 1.574 . S
C586 H580 0.949 . S
C586 C590 1.368 . S
C587 C568 1.429 . S
C587 C581 1.429 . S
C587 C588 1.523 1_455 S
C588 C569 1.368 . S
C588 C582 1.368 . S
C588 C587 1.523 1_655 S
C589 C573 1.429 . S
C589 C585 1.429 . S
C589 C590 1.523 . S
C590 C574 1.368 . S
C590 C586 1.368 . S
C590 C589 1.523 . S
H591 C566 0.950 . S
H592 C568 0.950 . S
H593 C569 0.949 . S
H594 C571 0.950 . S
H595 C573 0.950 . S
C596 C597 1.349 . S
C596 C598 1.327 . S
C596 H621 0.950 . S
C597 C596 1.349 . S
C597 C613 1.349 . S
C598 C596 1.327 . S
C598 C617 1.429 . S
C598 H622 0.950 . S
C599 C616 1.574 . S
C599 C618 1.368 . S
C599 H623 0.949 . S
H600 C604 0.949 . S
C601 C602 1.349 . S
C601 C603 1.327 . S
C601 H624 0.950 . S
C602 C601 1.349 . S
C602 C614 1.349 . S
C603 C601 1.327 . S
C603 C619 1.429 . S
C603 H625 0.950 . S
C604 H600 0.949 . S
C604 C612 1.574 . S
C604 C620 1.368 . S
H605 C613 0.950 . S
H606 C611 0.950 . S
H607 C612 0.949 . S
H608 C614 0.950 . S
H609 C615 0.950 . S
H610 C616 0.949 . S
C611 H606 0.950 . S
C611 C613 1.327 . S
C611 C617 1.429 . S
C612 C604 1.574 . S
C612 H607 0.949 . S
C612 C618 1.368 . S
C613 C597 1.349 . S
C613 H605 0.950 . S
C613 C611 1.327 . S
C614 C602 1.349 . S
C614 H608 0.950 . S
C614 C615 1.327 . S
C615 H609 0.950 . S
C615 C614 1.327 . S
C615 C619 1.429 . S
C616 C599 1.574 . S
C616 H610 0.949 . S
C616 C620 1.368 . S
C617 C598 1.429 . S
C617 C611 1.429 . S
C617 C618 1.523 . S
C618 C599 1.368 . S
C618 C612 1.368 . S
C618 C617 1.523 . S
C619 C603 1.429 . S
C619 C615 1.429 . S
C619 C620 1.523 . S
C620 C604 1.368 . S
C620 C616 1.368 . S
C620 C619 1.523 . S
H621 C596 0.950 . S
H622 C598 0.950 . S
H623 C599 0.949 . S
H624 C601 0.950 . S
H625 C603 0.950 . S
C626 C627 1.349 . S
C626 C628 1.327 . S
C626 H651 0.950 . S
C627 C626 1.349 . S
C627 C643 1.349 . S
C628 C626 1.327 . S
C628 C647 1.429 . S
C628 H652 0.950 . S
C629 C646 1.574 1_655 S
C629 C648 1.368 . S
C629 H653 0.949 . S
H630 C634 0.949 . S
C631 C632 1.349 . S
C631 C633 1.327 . S
C631 H654 0.950 . S
C632 C631 1.349 . S
C632 C644 1.349 . S
C633 C631 1.327 . S
C633 C649 1.429 . S
C633 H655 0.950 . S
C634 H630 0.949 . S
C634 C642 1.574 . S
C634 C650 1.369 . S
H635 C643 0.950 . S
H636 C641 0.950 . S
H637 C642 0.949 . S
H638 C644 0.950 . S
H639 C645 0.928 1_655 S
H640 C646 0.949 . S
C641 H636 0.950 . S
C641 C643 1.327 . S
C641 C647 1.429 . S
C642 C634 1.574 . S
C642 H637 0.949 . S
C642 C648 1.368 . S
C643 C627 1.349 . S
C643 H635 0.950 . S
C643 C641 1.327 . S
C644 C632 1.349 . S
C644 H638 0.950 . S
C644 C645 1.327 . S
C645 H639 0.928 1_455 S
C645 C644 1.327 . S
C645 C649 1.429 . S
C646 C629 1.574 1_455 S
C646 H640 0.949 . S
C646 C650 1.368 1_455 S
C647 C628 1.429 . S
C647 C641 1.429 . S
C647 C648 1.523 . S
C648 C629 1.368 . S
C648 C642 1.368 . S
C648 C647 1.523 . S
C649 C633 1.429 . S
C649 C645 1.429 . S
C649 C650 1.522 1_455 S
C650 C634 1.369 . S
C650 C646 1.368 1_655 S
C650 C649 1.522 1_655 S
H651 C626 0.950 . S
H652 C628 0.950 . S
H653 C629 0.949 . S
H654 C631 0.950 . S
H655 C633 0.950 . S
C656 C657 1.349 . S
C656 C658 1.327 . S
C656 H681 0.950 . S
C657 C656 1.349 . S
C657 C673 1.349 . S
C658 C656 1.327 . S
C658 C677 1.429 . S
C658 H682 0.950 . S
C659 C676 1.574 . S
C659 C678 1.368 . S
C659 H683 0.949 . S
H660 C664 0.949 . S
C661 C662 1.349 . S
C661 C663 1.327 . S
C661 H684 0.950 . S
C662 C661 1.349 . S
C662 C674 1.349 . S
C663 C661 1.327 . S
C663 C679 1.429 . S
C663 H685 0.950 . S
C664 H660 0.949 . S
C664 C672 1.574 . S
C664 C680 1.368 . S
H665 C673 0.950 . S
H666 C671 0.950 . S
H667 C672 0.949 . S
H668 C674 0.950 . S
H669 C675 0.950 . S
H670 C676 0.949 . S
C671 H666 0.950 . S
C671 C673 1.327 . S
C671 C677 1.429 . S
C672 C664 1.574 . S
C672 H667 0.949 . S
C672 C678 1.368 . S
C673 C657 1.349 . S
C673 H665 0.950 . S
C673 C671 1.327 . S
C674 C662 1.349 . S
C674 H668 0.950 . S
C674 C675 1.327 . S
C675 H669 0.950 . S
C675 C674 1.327 . S
C675 C679 1.429 . S
C676 C659 1.574 . S
C676 H670 0.949 . S
C676 C680 1.368 . S
C677 C658 1.429 . S
C677 C671 1.429 . S
C677 C678 1.523 . S
C678 C659 1.368 . S
C678 C672 1.368 . S
C678 C677 1.523 . S
C679 C663 1.429 . S
C679 C675 1.429 . S
C679 C680 1.523 . S
C680 C664 1.368 . S
C680 C676 1.368 . S
C680 C679 1.523 . S
H681 C656 0.950 . S
H682 C658 0.950 . S
H683 C659 0.949 . S
H684 C661 0.950 . S
H685 C663 0.950 . S
C686 C687 1.349 . S
C686 C688 1.327 . S
C686 H711 0.950 . S
C687 C686 1.349 . S
C687 C703 1.349 . S
C688 C686 1.327 . S
C688 C707 1.429 . S
C688 H712 0.950 . S
C689 C706 1.574 . S
C689 C708 1.368 . S
C689 H713 0.949 . S
H690 C694 0.949 . S
C691 C692 1.349 . S
C691 C693 1.327 . S
C691 H714 0.950 . S
C692 C691 1.349 . S
C692 C704 1.349 . S
C693 C691 1.327 . S
C693 C709 1.429 . S
C693 H715 0.950 . S
C694 H690 0.949 . S
C694 C702 1.574 . S
C694 C710 1.368 . S
H695 C703 0.950 . S
H696 C701 0.950 . S
H697 C702 0.949 . S
H698 C704 0.950 . S
H699 C705 0.950 . S
H700 C706 0.949 . S
C701 H696 0.950 . S
C701 C703 1.327 . S
C701 C707 1.429 . S
C702 C694 1.574 . S
C702 H697 0.949 . S
C702 C708 1.368 . S
C703 C687 1.349 . S
C703 H695 0.950 . S
C703 C701 1.327 . S
C704 C692 1.349 . S
C704 H698 0.950 . S
C704 C705 1.327 . S
C705 H699 0.950 . S
C705 C704 1.327 . S
C705 C709 1.429 . S
C706 C689 1.574 . S
C706 H700 0.949 . S
C706 C710 1.368 . S
C707 C688 1.429 . S
C707 C701 1.429 . S
C707 C708 1.523 . S
C708 C689 1.368 . S
C708 C702 1.368 . S
C708 C707 1.523 . S
C709 C693 1.429 . S
C709 C705 1.429 . S
C709 C710 1.523 . S
C710 C694 1.368 . S
C710 C706 1.368 . S
C710 C709 1.523 . S
H711 C686 0.950 . S
H712 C688 0.950 . S
H713 C689 0.949 . S
H714 C691 0.950 . S
H715 C693 0.950 . S
C716 C717 1.349 . S
C716 C718 1.327 . S
C716 H741 0.950 . S
C717 C716 1.349 . S
C717 C733 1.349 . S
C718 C716 1.327 . S
C718 C737 1.429 . S
C718 H742 0.950 . S
C719 C736 1.574 . S
C719 C738 1.368 . S
C719 H743 0.949 . S
H720 C724 0.949 . S
C721 C722 1.349 . S
C721 C723 1.327 . S
C721 H744 0.950 . S
C722 C721 1.349 . S
C722 C734 1.349 . S
C723 C721 1.327 . S
C723 C739 1.429 . S
C723 H745 0.950 . S
C724 H720 0.949 . S
C724 C732 1.574 . S
C724 C740 1.368 . S
H725 C733 0.950 . S
H726 C731 0.950 . S
H727 C732 0.949 . S
H728 C734 0.950 . S
H729 C735 0.950 . S
H730 C736 0.949 . S
C731 H726 0.950 . S
C731 C733 1.327 . S
C731 C737 1.429 . S
C732 C724 1.574 . S
C732 H727 0.949 . S
C732 C738 1.368 . S
C733 C717 1.349 . S
C733 H725 0.950 . S
C733 C731 1.327 . S
C734 C722 1.349 . S
C734 H728 0.950 . S
C734 C735 1.327 . S
C735 H729 0.950 . S
C735 C734 1.327 . S
C735 C739 1.429 . S
C736 C719 1.574 . S
C736 H730 0.949 . S
C736 C740 1.368 . S
C737 C718 1.429 . S
C737 C731 1.429 . S
C737 C738 1.523 . S
C738 C719 1.368 . S
C738 C732 1.368 . S
C738 C737 1.523 . S
C739 C723 1.429 . S
C739 C735 1.429 . S
C739 C740 1.523 . S
C740 C724 1.368 . S
C740 C736 1.368 . S
C740 C739 1.523 . S
H741 C716 0.950 . S
H742 C718 0.950 . S
H743 C719 0.949 . S
H744 C721 0.950 . S
H745 C723 0.950 . S
C746 C747 1.349 . S
C746 C748 1.327 . S
C746 H771 0.950 . S
C747 C746 1.349 . S
C747 C763 1.349 . S
C748 C746 1.327 . S
C748 C767 1.429 . S
C748 H772 0.950 . S
C749 C766 1.574 . S
C749 C768 1.368 . S
C749 H773 0.949 . S
H750 C754 0.949 . S
C751 C752 1.349 . S
C751 C753 1.327 . S
C751 H774 0.950 . S
C752 C751 1.349 . S
C752 C764 1.349 . S
C753 C751 1.327 . S
C753 C769 1.429 . S
C753 H775 0.950 . S
C754 H750 0.949 . S
C754 C762 1.574 . S
C754 C770 1.368 . S
H755 C763 0.950 . S
H756 C761 0.950 . S
H757 C762 0.949 . S
H758 C764 0.950 . S
H759 C765 0.950 . S
H760 C766 0.949 . S
C761 H756 0.950 . S
C761 C763 1.327 . S
C761 C767 1.429 . S
C762 C754 1.574 . S
C762 H757 0.949 . S
C762 C768 1.368 . S
C763 C747 1.349 . S
C763 H755 0.950 . S
C763 C761 1.327 . S
C764 C752 1.349 . S
C764 H758 0.950 . S
C764 C765 1.327 . S
C765 H759 0.950 . S
C765 C764 1.327 . S
C765 C769 1.429 . S
C766 C749 1.574 . S
C766 H760 0.949 . S
C766 C770 1.368 . S
C767 C748 1.429 . S
C767 C761 1.429 . S
C767 C768 1.523 . S
C768 C749 1.368 . S
C768 C762 1.368 . S
C768 C767 1.523 . S
C769 C753 1.429 . S
C769 C765 1.429 . S
C769 C770 1.523 . S
C770 C754 1.368 . S
C770 C766 1.368 . S
C770 C769 1.523 . S
H771 C746 0.950 . S
H772 C748 0.950 . S
H773 C749 0.949 . S
H774 C751 0.950 . S
H775 C753 0.950 . S
C776 C777 1.349 . S
C776 C778 1.327 . S
C776 H801 0.950 . S
C777 C776 1.349 . S
C777 C793 1.349 . S
C778 C776 1.327 . S
C778 C797 1.429 . S
C778 H802 0.950 . S
C779 C796 1.574 . S
C779 C798 1.368 . S
C779 H803 0.949 . S
H780 C784 0.949 . S
C781 C782 1.349 . S
C781 C783 1.327 . S
C781 H804 0.950 . S
C782 C781 1.349 . S
C782 C794 1.349 . S
C783 C781 1.327 . S
C783 C799 1.429 . S
C783 H805 0.950 . S
C784 H780 0.949 . S
C784 C792 1.574 . S
C784 C800 1.368 . S
H785 C793 0.950 . S
H786 C791 0.950 . S
H787 C792 0.949 . S
H788 C794 0.950 . S
H789 C795 0.950 . S
H790 C796 0.949 . S
C791 H786 0.950 . S
C791 C793 1.327 . S
C791 C797 1.429 . S
C792 C784 1.574 . S
C792 H787 0.949 . S
C792 C798 1.368 . S
C793 C777 1.349 . S
C793 H785 0.950 . S
C793 C791 1.327 . S
C794 C782 1.349 . S
C794 H788 0.950 . S
C794 C795 1.327 . S
C795 H789 0.950 . S
C795 C794 1.327 . S
C795 C799 1.429 . S
C796 C779 1.574 . S
C796 H790 0.949 . S
C796 C800 1.368 . S
C797 C778 1.429 . S
C797 C791 1.429 . S
C797 C798 1.523 . S
C798 C779 1.368 . S
C798 C792 1.368 . S
C798 C797 1.523 . S
C799 C783 1.429 . S
C799 C795 1.429 . S
C799 C800 1.523 . S
C800 C784 1.368 . S
C800 C796 1.368 . S
C800 C799 1.523 . S
H801 C776 0.950 . S
H802 C778 0.950 . S
H803 C779 0.949 . S
H804 C781 0.950 . S
H805 C783 0.950 . S
C806 C807 1.349 . S
C806 C808 1.327 . S
C806 H831 0.950 . S
C807 C806 1.349 . S
C807 C823 1.349 . S
C808 C806 1.327 . S
C808 C827 1.429 . S
C808 H832 0.950 . S
C809 C826 1.574 . S
C809 C828 1.368 . S
C809 H833 0.949 . S
H810 C814 0.949 . S
C811 C812 1.349 . S
C811 C813 1.327 . S
C811 H834 0.950 . S
C812 C811 1.349 . S
C812 C824 1.349 . S
C813 C811 1.327 . S
C813 C829 1.429 . S
C813 H835 0.950 . S
C814 H810 0.949 . S
C814 C822 1.574 . S
C814 C830 1.368 . S
H815 C823 0.950 . S
H816 C821 0.950 . S
H817 C822 0.949 . S
H818 C824 0.950 . S
H819 C825 0.950 . S
H820 C826 0.949 . S
C821 H816 0.950 . S
C821 C823 1.327 . S
C821 C827 1.429 . S
C822 C814 1.574 . S
C822 H817 0.949 . S
C822 C828 1.368 . S
C823 C807 1.349 . S
C823 H815 0.950 . S
C823 C821 1.327 . S
C824 C812 1.349 . S
C824 H818 0.950 . S
C824 C825 1.327 . S
C825 H819 0.950 . S
C825 C824 1.327 . S
C825 C829 1.429 . S
C826 C809 1.574 . S
C826 H820 0.949 . S
C826 C830 1.368 . S
C827 C808 1.429 . S
C827 C821 1.429 . S
C827 C828 1.523 . S
C828 C809 1.368 . S
C828 C822 1.368 . S
C828 C827 1.523 . S
C829 C813 1.429 . S
C829 C825 1.429 . S
C829 C830 1.523 . S
C830 C814 1.368 . S
C830 C826 1.368 . S
C830 C829 1.523 . S
H831 C806 0.950 . S
H832 C808 0.950 . S
H833 C809 0.949 . S
H834 C811 0.950 . S
H835 C813 0.950 . S
C836 C837 1.349 . S
C836 C838 1.327 . S
C836 H861 0.950 . S
C837 C836 1.349 . S
C837 C853 1.349 . S
C838 C836 1.327 . S
C838 C857 1.429 . S
C838 H862 0.950 . S
C839 C856 1.574 . S
C839 C858 1.368 . S
C839 H863 0.949 . S
H840 C844 0.949 . S
C841 C842 1.349 . S
C841 C843 1.327 . S
C841 H864 0.950 . S
C842 C841 1.349 . S
C842 C854 1.349 . S
C843 C841 1.327 . S
C843 C859 1.429 . S
C843 H865 0.950 . S
C844 H840 0.949 . S
C844 C852 1.574 . S
C844 C860 1.368 . S
H845 C853 0.950 . S
H846 C851 0.950 . S
H847 C852 0.949 . S
H848 C854 0.950 . S
H849 C855 0.950 . S
H850 C856 0.949 . S
C851 H846 0.950 . S
C851 C853 1.327 . S
C851 C857 1.429 . S
C852 C844 1.574 . S
C852 H847 0.949 . S
C852 C858 1.368 . S
C853 C837 1.349 . S
C853 H845 0.950 . S
C853 C851 1.327 . S
C854 C842 1.349 . S
C854 H848 0.950 . S
C854 C855 1.327 . S
C855 H849 0.950 . S
C855 C854 1.327 . S
C855 C859 1.429 . S
C856 C839 1.574 . S
C856 H850 0.949 . S
C856 C860 1.368 . S
C857 C838 1.429 . S
C857 C851 1.429 . S
C857 C858 1.523 . S
C858 C839 1.368 . S
C858 C852 1.368 . S
C858 C857 1.523 . S
C859 C843 1.429 . S
C859 C855 1.429 . S
C859 C860 1.523 . S
C860 C844 1.368 . S
C860 C856 1.368 . S
C860 C859 1.523 . S
H861 C836 0.950 . S
H862 C838 0.950 . S
H863 C839 0.949 . S
H864 C841 0.950 . S
H865 C843 0.950 . S
C866 C867 1.349 . S
C866 C868 1.327 . S
C866 H891 0.950 . S
C867 C866 1.349 . S
C867 C883 1.349 . S
C868 C866 1.327 . S
C868 C887 1.429 . S
C868 H892 0.950 . S
C869 C886 1.574 . S
C869 C888 1.368 . S
C869 H893 0.949 . S
H870 C874 0.949 . S
C871 C872 1.349 . S
C871 C873 1.327 . S
C871 H894 0.950 . S
C872 C871 1.349 . S
C872 C884 1.349 . S
C873 C871 1.327 . S
C873 C889 1.429 . S
C873 H895 0.950 . S
C874 H870 0.949 . S
C874 C882 1.574 . S
C874 C890 1.368 . S
H875 C883 0.950 . S
H876 C881 0.950 . S
H877 C882 0.949 . S
H878 C884 0.950 . S
H879 C885 0.950 . S
H880 C886 0.949 . S
C881 H876 0.950 . S
C881 C883 1.327 . S
C881 C887 1.429 . S
C882 C874 1.574 . S
C882 H877 0.949 . S
C882 C888 1.368 . S
C883 C867 1.349 . S
C883 H875 0.950 . S
C883 C881 1.327 . S
C884 C872 1.349 . S
C884 H878 0.950 . S
C884 C885 1.327 . S
C885 H879 0.950 . S
C885 C884 1.327 . S
C885 C889 1.429 . S
C886 C869 1.574 . S
C886 H880 0.949 . S
C886 C890 1.368 . S
C887 C868 1.429 . S
C887 C881 1.429 . S
C887 C888 1.523 . S
C888 C869 1.368 . S
C888 C882 1.368 . S
C888 C887 1.523 . S
C889 C873 1.429 . S
C889 C885 1.429 . S
C889 C890 1.523 . S
C890 C874 1.368 . S
C890 C886 1.368 . S
C890 C889 1.523 . S
H891 C866 0.950 . S
H892 C868 0.950 . S
H893 C869 0.949 . S
H894 C871 0.950 . S
H895 C873 0.950 . S
C177 C7 1.467 . S
C182 C95 1.399 . S
C207 C37 1.331 . S
C212 C104 1.058 . S
C237 C54 1.193 . S
C242 C115 0.945 . S
C272 C126 0.972 . S
C267 C87 1.049 . S
C302 C139 1.209 . S
C297 C30 1.212 . S
C327 C51 1.148 1_556 S
C332 C148 0.891 . S
C357 C84 0.953 . S
C362 C159 0.876 . S
C387 C10 1.562 . S
C392 C172 1.483 . S
C417 C59 1.109 . S
C422 C170 0.876 . S
C452 C137 1.043 . S
C447 C74 1.219 . S
C482 C150 1.524 . S
C477 C18 1.593 . S
C507 C32 1.615 . S
C512 C161 1.618 . S
C542 C106 1.359 . S
C537 C73 1.372 . S
C567 C15 1.606 . S
C572 C117 1.551 . S
C602 C128 1.351 . S
C597 C43 1.343 . S
C632 C93 0.862 . S
C627 C62 1.087 . S
C662 C162 1.379 . S
C657 C21 1.368 . S
C692 C173 1.434 . S
C687 C29 1.472 . S
C717 C52 1.227 . S
C722 C140 1.218 . S
C752 C151 1.387 . S
C747 C81 1.440 . S
C782 C118 1.501 . S
C777 C40 1.561 . S
C807 C65 1.241 . S
C812 C129 1.242 . S
C842 C96 1.308 . S
C837 C76 1.354 . S
C872 C107 1.386 . S
C867 C8 1.416 . S
