# Generated by pormake.
# Topology ocu, (6,8)-cn, num edge types: 1
# Building blocks:
#     Node 0, Type 0, BuildingBlock: KUMBOL_clean_sbu_0, # of connection points: 6
#     Node 1, Type 0, BuildingBlock: KUMBOL_clean_sbu_0, # of connection points: 6
#     Node 2, Type 0, BuildingBlock: KUMBOL_clean_sbu_0, # of connection points: 6
#     Node 3, Type 0, BuildingBlock: KUMBOL_clean_sbu_0, # of connection points: 6
#     Node 4, Type 0, BuildingBlock: KUMBOL_clean_sbu_0, # of connection points: 6
#     Node 5, Type 0, BuildingBlock: KUMBOL_clean_sbu_0, # of connection points: 6
#     Node 6, Type 0, BuildingBlock: KUMBOL_clean_sbu_0, # of connection points: 6
#     Node 7, Type 0, BuildingBlock: KUMBOL_clean_sbu_0, # of connection points: 6
#     Node 8, Type 1, BuildingBlock: TAGTUT_clean_sbu_1, # of connection points: 8
#     Node 9, Type 1, BuildingBlock: TAGTUT_clean_sbu_1, # of connection points: 8
#     Node 10, Type 1, BuildingBlock: TAGTUT_clean_sbu_1, # of connection points: 8
#     Node 11, Type 1, BuildingBlock: TAGTUT_clean_sbu_1, # of connection points: 8
#     Node 12, Type 1, BuildingBlock: TAGTUT_clean_sbu_1, # of connection points: 8
#     Node 13, Type 1, BuildingBlock: TAGTUT_clean_sbu_1, # of connection points: 8
#     Edge 14, Type (0, 1), BuildingBlock: EZIPEK_clean_linker_0, # of connection points: 2
#     Edge 15, Type (0, 1), BuildingBlock: EZIPEK_clean_linker_0, # of connection points: 2
#     Edge 16, Type (0, 1), BuildingBlock: EZIPEK_clean_linker_0, # of connection points: 2
#     Edge 17, Type (0, 1), BuildingBlock: EZIPEK_clean_linker_0, # of connection points: 2
#     Edge 18, Type (0, 1), BuildingBlock: EZIPEK_clean_linker_0, # of connection points: 2
#     Edge 19, Type (0, 1), BuildingBlock: EZIPEK_clean_linker_0, # of connection points: 2
#     Edge 20, Type (0, 1), BuildingBlock: EZIPEK_clean_linker_0, # of connection points: 2
#     Edge 21, Type (0, 1), BuildingBlock: EZIPEK_clean_linker_0, # of connection points: 2
#     Edge 22, Type (0, 1), BuildingBlock: EZIPEK_clean_linker_0, # of connection points: 2
#     Edge 23, Type (0, 1), BuildingBlock: EZIPEK_clean_linker_0, # of connection points: 2
#     Edge 24, Type (0, 1), BuildingBlock: EZIPEK_clean_linker_0, # of connection points: 2
#     Edge 25, Type (0, 1), BuildingBlock: EZIPEK_clean_linker_0, # of connection points: 2
#     Edge 26, Type (0, 1), BuildingBlock: EZIPEK_clean_linker_0, # of connection points: 2
#     Edge 27, Type (0, 1), BuildingBlock: EZIPEK_clean_linker_0, # of connection points: 2
#     Edge 28, Type (0, 1), BuildingBlock: EZIPEK_clean_linker_0, # of connection points: 2
#     Edge 29, Type (0, 1), BuildingBlock: EZIPEK_clean_linker_0, # of connection points: 2
#     Edge 30, Type (0, 1), BuildingBlock: EZIPEK_clean_linker_0, # of connection points: 2
#     Edge 31, Type (0, 1), BuildingBlock: EZIPEK_clean_linker_0, # of connection points: 2
#     Edge 32, Type (0, 1), BuildingBlock: EZIPEK_clean_linker_0, # of connection points: 2
#     Edge 33, Type (0, 1), BuildingBlock: EZIPEK_clean_linker_0, # of connection points: 2
#     Edge 34, Type (0, 1), BuildingBlock: EZIPEK_clean_linker_0, # of connection points: 2
#     Edge 35, Type (0, 1), BuildingBlock: EZIPEK_clean_linker_0, # of connection points: 2
#     Edge 36, Type (0, 1), BuildingBlock: EZIPEK_clean_linker_0, # of connection points: 2
#     Edge 37, Type (0, 1), BuildingBlock: EZIPEK_clean_linker_0, # of connection points: 2
#     Edge 38, Type (0, 1), BuildingBlock: EZIPEK_clean_linker_0, # of connection points: 2
#     Edge 39, Type (0, 1), BuildingBlock: EZIPEK_clean_linker_0, # of connection points: 2
#     Edge 40, Type (0, 1), BuildingBlock: EZIPEK_clean_linker_0, # of connection points: 2
#     Edge 41, Type (0, 1), BuildingBlock: EZIPEK_clean_linker_0, # of connection points: 2
#     Edge 42, Type (0, 1), BuildingBlock: EZIPEK_clean_linker_0, # of connection points: 2
#     Edge 43, Type (0, 1), BuildingBlock: EZIPEK_clean_linker_0, # of connection points: 2
#     Edge 44, Type (0, 1), BuildingBlock: EZIPEK_clean_linker_0, # of connection points: 2
#     Edge 45, Type (0, 1), BuildingBlock: EZIPEK_clean_linker_0, # of connection points: 2
#     Edge 46, Type (0, 1), BuildingBlock: EZIPEK_clean_linker_0, # of connection points: 2
#     Edge 47, Type (0, 1), BuildingBlock: EZIPEK_clean_linker_0, # of connection points: 2
#     Edge 48, Type (0, 1), BuildingBlock: EZIPEK_clean_linker_0, # of connection points: 2
#     Edge 49, Type (0, 1), BuildingBlock: EZIPEK_clean_linker_0, # of connection points: 2
#     Edge 50, Type (0, 1), BuildingBlock: EZIPEK_clean_linker_0, # of connection points: 2
#     Edge 51, Type (0, 1), BuildingBlock: EZIPEK_clean_linker_0, # of connection points: 2
#     Edge 52, Type (0, 1), BuildingBlock: EZIPEK_clean_linker_0, # of connection points: 2
#     Edge 53, Type (0, 1), BuildingBlock: EZIPEK_clean_linker_0, # of connection points: 2
#     Edge 54, Type (0, 1), BuildingBlock: EZIPEK_clean_linker_0, # of connection points: 2
#     Edge 55, Type (0, 1), BuildingBlock: EZIPEK_clean_linker_0, # of connection points: 2
#     Edge 56, Type (0, 1), BuildingBlock: EZIPEK_clean_linker_0, # of connection points: 2
#     Edge 57, Type (0, 1), BuildingBlock: EZIPEK_clean_linker_0, # of connection points: 2
#     Edge 58, Type (0, 1), BuildingBlock: EZIPEK_clean_linker_0, # of connection points: 2
#     Edge 59, Type (0, 1), BuildingBlock: EZIPEK_clean_linker_0, # of connection points: 2
#     Edge 60, Type (0, 1), BuildingBlock: EZIPEK_clean_linker_0, # of connection points: 2
#     Edge 61, Type (0, 1), BuildingBlock: EZIPEK_clean_linker_0, # of connection points: 2
# Relax obj value: 0.139
# Max RMSD: 0.271
# Mean RMSD: 0.145
data_MOF--net-ocu--node1-KUMBOL_clean_sbu_0--node2-TAGTUT_clean_sbu_1--edge1-EZIPEK_clean_linker_0
_symmetry_space_group_name_H-M    P1
_symmetry_Int_Tables_number       1
_symmetry_cell_setting            triclinic
loop_
_symmetry_equiv_pos_as_xyz
'x, y, z'
_cell_length_a     32.353505
_cell_length_b     29.242649
_cell_length_c     32.807538
_cell_angle_alpha  83.658328
_cell_angle_beta   97.836512
_cell_angle_gamma 121.23623
loop_
_atom_site_label
_atom_site_type_symbol
_atom_site_fract_x
_atom_site_fract_y
_atom_site_fract_z
_atom_type_partial_charge
Gd0 Gd 0.30643 0.33764 0.31944 0.0
Gd1 Gd 0.24755 0.22643 0.26118 0.0
C2 C 0.14044 0.2238 0.15547 0.0
C3 C 0.07021 0.13608 0.16712 0.0
C4 C 0.14019 0.17082 0.21854 0.0
C5 C 0.16418 0.2175 0.19337 0.0
C6 C 0.09422 0.1286 0.20388 0.0
C7 C 0.09283 0.1839 0.14346 0.0
C8 C 0.16636 0.26791 0.12888 0.0
C9 C 0.21557 0.30285 0.1388 0.0
N10 N 0.21226 0.25305 0.20303 0.0
C11 C 0.2382 0.29439 0.1757 0.0
H12 H 0.27645 0.32157 0.18197 0.0
C13 C 0.14506 0.11396 0.27432 0.0
N14 N 0.16413 0.16335 0.25395 0.0
C15 C 0.1006 0.07103 0.25999 0.0
C16 C 0.07544 0.07829 0.22448 0.0
H17 H 0.16558 0.10732 0.3008 0.0
H18 H 0.07433 0.18818 0.11447 0.0
H19 H 0.25943 0.22273 0.3835 0.0
H20 H 0.14927 0.27391 0.09965 0.0
H21 H 0.23636 0.33604 0.11776 0.0
H22 H 0.03473 0.10425 0.15586 0.0
H23 H 0.41675 0.44378 0.29175 0.0
H24 H 0.34592 0.26652 0.49847 0.0
H25 H 0.2738 0.20093 0.45625 0.0
H26 H 0.48396 0.43641 0.46696 0.0
H27 H 0.08655 0.03192 0.27559 0.0
H28 H 0.04298 0.04385 0.21185 0.0
H29 H 0.4236 0.35476 0.50234 0.0
H30 H 0.49402 0.5062 0.32764 0.0
N31 N 0.32178 0.30156 0.38382 0.0
C32 C 0.33963 0.27667 0.46636 0.0
C33 C 0.29895 0.23956 0.44264 0.0
C34 C 0.37284 0.32549 0.44793 0.0
C35 C 0.36321 0.33669 0.40586 0.0
C36 C 0.29064 0.25254 0.40125 0.0
N37 N 0.38932 0.39026 0.34434 0.0
C38 C 0.39815 0.38192 0.38547 0.0
C39 C 0.46792 0.47073 0.34406 0.0
C40 C 0.47663 0.46306 0.38625 0.0
C41 C 0.42403 0.43401 0.3235 0.0
C42 C 0.44229 0.41792 0.40734 0.0
H43 H 0.50944 0.49274 0.40254 0.0
O44 O 0.33673 0.42276 0.32796 0.0
O45 O 0.24868 0.30566 0.26399 0.0
O46 O 0.31418 0.28555 0.22941 0.0
O47 O 0.35715 0.35619 0.27264 0.0
O48 O 0.27375 0.38144 0.27466 0.0
O49 O 0.27618 0.36114 0.3609 0.0
O50 O 0.23481 0.14649 0.25461 0.0
O51 O 0.30919 0.25867 0.31595 0.0
O52 O 0.2354 0.28414 0.34531 0.0
O53 O 0.19475 0.20939 0.30673 0.0
O54 O 0.28622 0.1858 0.29979 0.0
O55 O 0.24457 0.20174 0.20147 0.0
C56 C 0.23919 0.34477 0.25184 0.0
C57 C 0.45053 0.40858 0.4497 0.0
C58 C 0.41603 0.3623 0.4699 0.0
C59 C 0.30786 0.41212 0.35623 0.0
C60 C 0.32754 0.44035 0.3947 0.0
C61 C 0.37695 0.47675 0.40499 0.0
C62 C 0.29419 0.42953 0.42216 0.0
C63 C 0.30915 0.45222 0.46038 0.0
C64 C 0.39246 0.4988 0.44391 0.0
C65 C 0.35857 0.48637 0.47185 0.0
C66 C 0.3509 0.33364 0.23834 0.0
C67 C 0.3207 0.21997 0.32445 0.0
C68 C 0.23025 0.15252 0.21464 0.0
C69 C 0.24098 0.12329 0.19011 0.0
C70 C 0.20284 0.08071 0.16796 0.0
C71 C 0.28816 0.14674 0.18046 0.0
C72 C 0.29777 0.12912 0.14762 0.0
C73 C 0.21248 0.06302 0.13465 0.0
C74 C 0.2601 0.08713 0.12436 0.0
C75 C 0.1967 0.23799 0.33589 0.0
H76 H 0.40327 0.48807 0.38328 0.0
H77 H 0.25565 0.40401 0.41327 0.0
H78 H 0.43065 0.52614 0.45213 0.0
H79 H 0.37051 0.5045 0.50145 0.0
H80 H 0.16559 0.06378 0.17467 0.0
H81 H 0.31689 0.18186 0.19621 0.0
H82 H 0.18301 0.03172 0.11625 0.0
H83 H 0.26743 0.07444 0.09778 0.0
Gd84 Gd 0.7481 0.31041 0.30122 0.0
Gd85 Gd 0.80815 0.24224 0.28066 0.0
C86 C 0.94651 0.34003 0.2148 0.0
C87 C 0.92601 0.28955 0.15393 0.0
C88 C 0.86542 0.26349 0.20201 0.0
C89 C 0.89947 0.30439 0.22721 0.0
C90 C 0.87888 0.25518 0.16547 0.0
C91 C 0.95931 0.33244 0.17808 0.0
C92 C 0.97941 0.38257 0.23951 0.0
C93 C 0.96575 0.38789 0.27626 0.0
N94 N 0.88664 0.3099 0.26338 0.0
C95 C 0.91951 0.35061 0.288 0.0
H96 H 0.91075 0.35513 0.31666 0.0
C97 C 0.78701 0.18771 0.19078 0.0
N98 N 0.81956 0.23141 0.21331 0.0
C99 C 0.79876 0.17806 0.15458 0.0
C100 C 0.84481 0.21216 0.14166 0.0
H101 H 0.75223 0.1586 0.2014 0.0
H102 H 0.99486 0.35963 0.16798 0.0
H103 H 0.65021 0.18902 0.26897 0.0
H104 H 1.01545 0.41134 0.23062 0.0
H105 H 0.99099 0.42043 0.29587 0.0
H106 H 0.93682 0.28389 0.12594 0.0
H107 H 0.80274 0.38917 0.38428 0.0
H108 H 0.53448 0.14972 0.33992 0.0
H109 H 0.5659 0.13059 0.28356 0.0
H110 H 0.6072 0.28198 0.44109 0.0
H111 H 0.77257 0.14353 0.13718 0.0
H112 H 0.85402 0.20429 0.11372 0.0
H113 H 0.54985 0.20743 0.3973 0.0
H114 H 0.77737 0.40893 0.4434 0.0
N115 N 0.66828 0.24325 0.31595 0.0
C116 C 0.57202 0.17603 0.33361 0.0
C117 C 0.58956 0.16525 0.30171 0.0
C118 C 0.60341 0.21981 0.35769 0.0
C119 C 0.65226 0.2524 0.34871 0.0
C120 C 0.63777 0.1994 0.29314 0.0
N121 N 0.73264 0.32191 0.3668 0.0
C122 C 0.68513 0.29332 0.37442 0.0
C123 C 0.7512 0.37569 0.42476 0.0
C124 C 0.70284 0.34613 0.4332 0.0
C125 C 0.76551 0.36334 0.39135 0.0
C126 C 0.66918 0.30434 0.40812 0.0
H127 H 0.69179 0.35617 0.45896 0.0
O128 O 0.78339 0.39586 0.30848 0.0
O129 O 0.81438 0.32165 0.27623 0.0
O130 O 0.84648 0.27688 0.34241 0.0
O131 O 0.807 0.32208 0.35307 0.0
O132 O 0.7777 0.35599 0.24237 0.0
O133 O 0.70504 0.34746 0.29025 0.0
O134 O 0.77674 0.15715 0.27557 0.0
O135 O 0.74249 0.23172 0.30542 0.0
O136 O 0.70791 0.27438 0.2402 0.0
O137 O 0.74737 0.22912 0.22971 0.0
O138 O 0.77789 0.19661 0.33986 0.0
O139 O 0.85505 0.20948 0.29044 0.0
C140 C 0.81342 0.34827 0.24312 0.0
C141 C 0.62011 0.27373 0.41563 0.0
C142 C 0.58743 0.23133 0.3907 0.0
C143 C 0.74194 0.39405 0.30129 0.0
C144 C 0.74121 0.44145 0.28487 0.0
C145 C 0.75684 0.48273 0.31112 0.0
C146 C 0.71705 0.44132 0.24651 0.0
C147 C 0.70658 0.48205 0.23344 0.0
C148 C 0.74767 0.52369 0.29896 0.0
C149 C 0.72235 0.52335 0.26103 0.0
C150 C 0.83903 0.30674 0.36468 0.0
C151 C 0.74235 0.20494 0.33852 0.0
C152 C 0.81923 0.16136 0.28166 0.0
C153 C 0.82192 0.11681 0.30256 0.0
C154 C 0.8174 0.07777 0.2785 0.0
C155 C 0.83467 0.1164 0.34486 0.0
C156 C 0.84439 0.0771 0.36407 0.0
C157 C 0.82754 0.03918 0.29647 0.0
C158 C 0.8414 0.03899 0.33847 0.0
C159 C 0.71482 0.24399 0.21797 0.0
H160 H 0.77368 0.48164 0.34183 0.0
H161 H 0.7025 0.40593 0.22925 0.0
H162 H 0.75882 0.555 0.31955 0.0
H163 H 0.71408 0.55468 0.25575 0.0
H164 H 0.80822 0.07871 0.24551 0.0
H165 H 0.83979 0.14918 0.36124 0.0
H166 H 0.82624 0.01032 0.27766 0.0
H167 H 0.85182 0.00995 0.34957 0.0
Gd168 Gd 0.7503 0.71284 0.31613 0.0
Gd169 Gd 0.79572 0.83526 0.26481 0.0
C170 C 0.86772 0.88386 0.14645 0.0
C171 C 0.93518 0.97324 0.16053 0.0
C172 C 0.88663 0.91573 0.21572 0.0
C173 C 0.85752 0.87601 0.18803 0.0
C174 C 0.92493 0.96538 0.20181 0.0
C175 C 0.90692 0.93243 0.13302 0.0
C176 C 0.83805 0.84276 0.11946 0.0
C177 C 0.79952 0.79512 0.1341 0.0
N178 N 0.81895 0.82993 0.20156 0.0
C179 C 0.78996 0.78964 0.17516 0.0
H180 H 0.75938 0.75279 0.18542 0.0
C181 C 0.90031 0.94838 0.28208 0.0
N182 N 0.87499 0.90759 0.25525 0.0
C183 C 0.93844 0.99797 0.26963 0.0
C184 C 0.95001 0.00684 0.22912 0.0
H185 H 0.88822 0.94454 0.3121 0.0
H186 H 0.91521 0.93915 0.10123 0.0
H187 H 0.78845 0.79829 0.39313 0.0
H188 H 0.84491 0.84715 0.08743 0.0
H189 H 0.77696 0.76266 0.1137 0.0
H190 H 0.96453 0.01101 0.14942 0.0
H191 H 0.66224 0.60013 0.27185 0.0
H192 H 0.69783 0.71159 0.48978 0.0
H193 H 0.76832 0.79332 0.46342 0.0
H194 H 0.58338 0.54322 0.43337 0.0
H195 H 0.95703 0.03027 0.29067 0.0
H196 H 0.97678 0.04667 0.21879 0.0
H197 H 0.62913 0.61865 0.47814 0.0
H198 H 0.59354 0.51481 0.29503 0.0
N199 N 0.72629 0.72297 0.37711 0.0
C200 C 0.70531 0.71442 0.4581 0.0
C201 C 0.74524 0.7605 0.44345 0.0
C202 C 0.67591 0.67218 0.43197 0.0
C203 C 0.68671 0.67789 0.39074 0.0
C204 C 0.75603 0.7635 0.40316 0.0
N205 N 0.67147 0.64103 0.32535 0.0
C206 C 0.6586 0.63593 0.36422 0.0
C207 C 0.6107 0.54884 0.31439 0.0
C208 C 0.59735 0.54304 0.35402 0.0
C209 C 0.6487 0.59779 0.30087 0.0
C210 C 0.62105 0.58663 0.37948 0.0
H211 H 0.57039 0.5039 0.36526 0.0
O212 O 0.74329 0.63405 0.32448 0.0
O213 O 0.79908 0.75704 0.26209 0.0
O214 O 0.7237 0.779 0.23127 0.0
O215 O 0.68953 0.6972 0.26646 0.0
O216 O 0.77664 0.67974 0.27181 0.0
O217 O 0.77855 0.69107 0.37327 0.0
O218 O 0.80822 0.91621 0.25669 0.0
O219 O 0.74753 0.7916 0.31875 0.0
O220 O 0.82469 0.76426 0.34685 0.0
O221 O 0.85266 0.84886 0.31745 0.0
O222 O 0.77183 0.86915 0.31012 0.0
O223 O 0.75321 0.85298 0.21628 0.0
C224 C 0.80683 0.71981 0.24974 0.0
C225 C 0.61075 0.58107 0.42059 0.0
C226 C 0.63741 0.62394 0.44644 0.0
C227 C 0.7607 0.64225 0.36284 0.0
C228 C 0.77945 0.61037 0.38517 0.0
C229 C 0.74757 0.56335 0.40664 0.0
C230 C 0.82839 0.62661 0.38623 0.0
C231 C 0.84579 0.59633 0.4098 0.0
C232 C 0.7648 0.53255 0.4295 0.0
C233 C 0.81387 0.54898 0.43116 0.0
C234 C 0.68837 0.72893 0.23522 0.0
C235 C 0.74056 0.82936 0.3314 0.0
C236 C 0.7765 0.90325 0.22493 0.0
C237 C 0.76506 0.94125 0.20242 0.0
C238 C 0.80168 0.99177 0.18886 0.0
C239 C 0.71659 0.92643 0.19434 0.0
C240 C 0.70403 0.96099 0.17142 0.0
C241 C 0.78912 0.02696 0.1663 0.0
C242 C 0.74021 0.01154 0.15735 0.0
C243 C 0.85677 0.81552 0.34564 0.0
H244 H 0.70948 0.55067 0.40576 0.0
H245 H 0.85282 0.66251 0.36902 0.0
H246 H 0.74022 0.49617 0.44605 0.0
H247 H 0.82704 0.52498 0.44919 0.0
H248 H 0.83959 0.00363 0.19543 0.0
H249 H 0.68838 0.88779 0.20562 0.0
H250 H 0.81718 0.06596 0.15566 0.0
H251 H 0.73055 0.03863 0.13949 0.0
Gd252 Gd 0.23806 0.80756 0.28938 0.0
Gd253 Gd 0.30853 0.75005 0.29062 0.0
C254 C 0.25126 0.5823 0.34865 0.0
C255 C 0.31992 0.59493 0.39641 0.0
C256 C 0.31756 0.67218 0.3632 0.0
C257 C 0.27394 0.63839 0.34142 0.0
C258 C 0.34006 0.65047 0.3922 0.0
C259 C 0.27511 0.56081 0.37546 0.0
C260 C 0.20663 0.54925 0.32695 0.0
C261 C 0.18609 0.5722 0.29823 0.0
N262 N 0.25488 0.66002 0.31175 0.0
C263 C 0.21094 0.62771 0.29088 0.0
H264 H 0.19368 0.64455 0.26951 0.0
C265 C 0.38595 0.75893 0.37185 0.0
N266 N 0.34077 0.72545 0.35275 0.0
C267 C 0.40737 0.7397 0.40332 0.0
C268 C 0.38461 0.68508 0.41325 0.0
H269 H 0.40783 0.80009 0.36134 0.0
H270 H 0.25964 0.51788 0.37964 0.0
H271 H 0.34057 0.92201 0.31897 0.0
H272 H 0.18791 0.50612 0.33199 0.0
H273 H 0.15119 0.54724 0.28156 0.0
H274 H 0.3395 0.57807 0.41503 0.0
H275 H 0.13206 0.75049 0.22967 0.0
H276 H 0.34684 0.04999 0.24111 0.0
H277 H 0.38424 0.0164 0.29715 0.0
H278 H 0.19698 0.96666 0.1551 0.0
H279 H 0.44293 0.76671 0.41808 0.0
H280 H 0.40269 0.6698 0.43592 0.0
H281 H 0.27613 0.03192 0.19018 0.0
H282 H 0.08895 0.77879 0.17432 0.0
N283 N 0.28352 0.89914 0.27102 0.0
C284 C 0.32841 0.00784 0.24948 0.0
C285 C 0.34997 0.98891 0.28078 0.0
C286 C 0.28284 0.97231 0.23024 0.0
C287 C 0.2608 0.91739 0.24188 0.0
C288 C 0.32605 0.9345 0.29206 0.0
N289 N 0.19549 0.82811 0.23403 0.0
C290 C 0.21595 0.8809 0.22253 0.0
C291 C 0.12492 0.80772 0.18714 0.0
C292 C 0.1467 0.86129 0.17318 0.0
C293 C 0.14964 0.79179 0.21811 0.0
C294 C 0.19237 0.89867 0.19126 0.0
H295 H 0.12746 0.87361 0.14918 0.0
O296 O 0.16974 0.79271 0.30697 0.0
O297 O 0.25089 0.74628 0.32689 0.0
O298 O 0.25792 0.7177 0.23542 0.0
O299 O 0.21527 0.76215 0.23139 0.0
O300 O 0.17953 0.7241 0.30748 0.0
O301 O 0.23882 0.85608 0.33466 0.0
O302 O 0.3738 0.74814 0.28751 0.0
O303 O 0.2947 0.81152 0.25248 0.0
O304 O 0.29307 0.82991 0.34478 0.0
O305 O 0.35379 0.82162 0.32445 0.0
O306 O 0.36498 0.83495 0.27049 0.0
O307 O 0.31567 0.71707 0.23804 0.0
C308 C 0.20631 0.70961 0.33141 0.0
C309 C 0.21454 0.95314 0.17951 0.0
C310 C 0.25931 0.98995 0.1993 0.0
C311 C 0.19161 0.83341 0.33072 0.0
C312 C 0.17379 0.87045 0.32697 0.0
C313 C 0.1533 0.88215 0.28973 0.0
C314 C 0.1769 0.8942 0.36248 0.0
C315 C 0.15894 0.92855 0.36077 0.0
C316 C 0.14071 0.92138 0.28727 0.0
C317 C 0.14341 0.94472 0.32298 0.0
C318 C 0.22606 0.72936 0.21718 0.0
C319 C 0.33827 0.84869 0.24573 0.0
C320 C 0.35644 0.72132 0.25434 0.0
C321 C 0.35952 0.67362 0.25437 0.0
C322 C 0.36929 0.64879 0.29046 0.0
C323 C 0.35659 0.65546 0.21635 0.0
C324 C 0.36636 0.61504 0.21404 0.0
C325 C 0.37424 0.60452 0.28816 0.0
C326 C 0.37352 0.58792 0.24973 0.0
C327 C 0.33722 0.83818 0.34927 0.0
H328 H 0.14511 0.85999 0.26308 0.0
H329 H 0.18918 0.88234 0.39202 0.0
H330 H 0.12596 0.93108 0.25826 0.0
H331 H 0.12933 0.9714 0.32177 0.0
H332 H 0.3754 0.66482 0.32 0.0
H333 H 0.35192 0.6766 0.18834 0.0
H334 H 0.38175 0.58543 0.31599 0.0
H335 H 0.38194 0.55693 0.24777 0.0
Gd336 Gd 0.24865 0.82234 0.78596 0.0
Gd337 Gd 0.31904 0.76148 0.80143 0.0
C338 C 0.43489 0.79719 0.71784 0.0
C339 C 0.40267 0.71137 0.68801 0.0
C340 C 0.35566 0.72255 0.73392 0.0
C341 C 0.3921 0.77603 0.73773 0.0
C342 C 0.36076 0.68985 0.70882 0.0
C343 C 0.43981 0.76468 0.69285 0.0
C344 C 0.47204 0.85012 0.72437 0.0
C345 C 0.46657 0.88032 0.7509 0.0
N346 N 0.387 0.80642 0.76299 0.0
C347 C 0.42406 0.85749 0.7706 0.0
H348 H 0.42119 0.88113 0.79172 0.0
C349 C 0.28339 0.64801 0.75683 0.0
N350 N 0.31674 0.70186 0.75645 0.0
C351 C 0.28578 0.61489 0.73084 0.0
C352 C 0.32447 0.63587 0.70659 0.0
H353 H 0.25433 0.63088 0.77672 0.0
H354 H 0.47244 0.78027 0.6774 0.0
H355 H 0.14304 0.71901 0.72578 0.0
H356 H 0.50537 0.86775 0.7096 0.0
H357 H 0.49536 0.92103 0.75664 0.0
H358 H 0.40729 0.68667 0.66891 0.0
H359 H 0.28057 0.90145 0.86332 0.0
H360 H 0.01835 0.69687 0.77031 0.0
H361 H 0.05876 0.67374 0.72477 0.0
H362 H 0.075 0.80901 0.88349 0.0
H363 H 0.25827 0.57297 0.7302 0.0
H364 H 0.3268 0.60966 0.68728 0.0
H365 H 0.02501 0.7478 0.82847 0.0
H366 H 0.24526 0.91834 0.91703 0.0
N367 N 0.1599 0.7693 0.77707 0.0
C368 C 0.05765 0.71745 0.77244 0.0
C369 C 0.08007 0.70477 0.74642 0.0
C370 C 0.08608 0.75451 0.80227 0.0
C371 C 0.13742 0.77879 0.80495 0.0
C372 C 0.13048 0.73164 0.74816 0.0
N373 N 0.21421 0.83638 0.83897 0.0
C374 C 0.16518 0.81199 0.83711 0.0
C375 C 0.22221 0.88723 0.89561 0.0
C376 C 0.17209 0.86028 0.89574 0.0
C377 C 0.24246 0.87589 0.8662 0.0
C378 C 0.1429 0.82354 0.86558 0.0
H379 H 0.15627 0.87012 0.91792 0.0
O380 O 0.30378 0.90711 0.78613 0.0
O381 O 0.32115 0.83398 0.76951 0.0
O382 O 0.35485 0.83841 0.8331 0.0
O383 O 0.28137 0.81617 0.84864 0.0
O384 O 0.27835 0.84217 0.72153 0.0
O385 O 0.22839 0.88262 0.78061 0.0
O386 O 0.34019 0.74915 0.86494 0.0
O387 O 0.25521 0.75854 0.82667 0.0
O388 O 0.22169 0.77038 0.73281 0.0
O389 O 0.26102 0.72195 0.75031 0.0
O390 O 0.25193 0.68805 0.83008 0.0
O391 O 0.38177 0.75231 0.81839 0.0
C392 C 0.31979 0.84503 0.73019 0.0
C393 C 0.09245 0.80034 0.86205 0.0
C394 C 0.06411 0.76601 0.83046 0.0
C395 C 0.27225 0.92212 0.77656 0.0
C396 C 0.27523 0.95102 0.73736 0.0
C397 C 0.29418 0.00622 0.7335 0.0
C398 C 0.24789 0.91898 0.70439 0.0
C399 C 0.23438 0.93884 0.66887 0.0
C400 C 0.2843 0.02847 0.6962 0.0
C401 C 0.25404 0.9951 0.66412 0.0
C402 C 0.32834 0.84402 0.85621 0.0
C403 C 0.22742 0.70918 0.83889 0.0
C404 C 0.37005 0.73605 0.85524 0.0
C405 C 0.35694 0.68121 0.86589 0.0
C406 C 0.35147 0.64666 0.83637 0.0
C407 C 0.34119 0.66114 0.90432 0.0
C408 C 0.32085 0.60673 0.91501 0.0
C409 C 0.32497 0.59167 0.84427 0.0
C410 C 0.30816 0.57145 0.8829 0.0
C411 C 0.22938 0.73152 0.72738 0.0
H412 H 0.31425 0.03122 0.75943 0.0
H413 H 0.22952 0.87623 0.70883 0.0
H414 H 0.2978 0.07106 0.69293 0.0
H415 H 0.24463 0.01353 0.63704 0.0
H416 H 0.36539 0.66176 0.80663 0.0
H417 H 0.34775 0.68922 0.92684 0.0
H418 H 0.31839 0.56477 0.8208 0.0
H419 H 0.28979 0.52852 0.88834 0.0
Gd420 Gd 0.31955 0.30096 0.75083 0.0
Gd421 Gd 0.23121 0.24972 0.8253 0.0
C422 C 0.22972 0.12934 0.92706 0.0
C423 C 0.15389 0.04869 0.9075 0.0
C424 C 0.1785 0.13195 0.86671 0.0
C425 C 0.22085 0.15747 0.8925 0.0
C426 C 0.14393 0.07777 0.87472 0.0
C427 C 0.19671 0.07449 0.9337 0.0
C428 C 0.27037 0.15759 0.95486 0.0
C429 C 0.2997 0.21283 0.94886 0.0
N430 N 0.25137 0.2107 0.88574 0.0
C431 C 0.28922 0.239 0.91445 0.0
H432 H 0.31216 0.28178 0.91131 0.0
C433 C 0.12371 0.14145 0.81602 0.0
N434 N 0.16926 0.16117 0.83575 0.0
C435 C 0.08846 0.08783 0.82256 0.0
C436 C 0.09946 0.05517 0.85067 0.0
H437 H 0.11584 0.16637 0.79334 0.0
H438 H 0.20312 0.05214 0.95984 0.0
H439 H 0.23321 0.26359 0.66848 0.0
H440 H 0.27842 0.13751 0.98179 0.0
H441 H 0.33042 0.23545 0.97071 0.0
H442 H 0.12782 0.00683 0.91388 0.0
H443 H 0.43418 0.38905 0.78199 0.0
H444 H 0.26447 0.40311 0.59215 0.0
H445 H 0.21281 0.30593 0.60735 0.0
H446 H 0.41829 0.53771 0.65209 0.0
H447 H 0.05376 0.07135 0.80445 0.0
H448 H 0.07272 0.0131 0.8548 0.0
H449 H 0.3409 0.4894 0.60929 0.0
H450 H 0.49638 0.48211 0.76481 0.0
N451 N 0.29615 0.33601 0.68982 0.0
C452 C 0.27391 0.38465 0.61939 0.0
C453 C 0.24476 0.32984 0.62779 0.0
C454 C 0.31592 0.41461 0.64537 0.0
C455 C 0.32639 0.38883 0.68074 0.0
C456 C 0.25674 0.30592 0.66295 0.0
N457 N 0.37991 0.38979 0.73783 0.0
C458 C 0.36969 0.41637 0.70525 0.0
C459 C 0.46101 0.46437 0.74766 0.0
C460 C 0.44963 0.49417 0.71684 0.0
C461 C 0.42568 0.41169 0.7575 0.0
C462 C 0.404 0.46981 0.69443 0.0
H463 H 0.47667 0.53536 0.70966 0.0
O464 O 0.38381 0.2958 0.75119 0.0
O465 O 0.30592 0.26861 0.81691 0.0
O466 O 0.3031 0.31724 0.84674 0.0
O467 O 0.34151 0.37052 0.7917 0.0
O468 O 0.33625 0.24 0.78434 0.0
O469 O 0.32971 0.27102 0.69756 0.0
O470 O 0.17038 0.26147 0.82673 0.0
O471 O 0.24487 0.28232 0.75933 0.0
O472 O 0.25382 0.22753 0.72812 0.0
O473 O 0.20627 0.18127 0.78195 0.0
O474 O 0.21746 0.31341 0.79325 0.0
O475 O 0.22363 0.27929 0.87992 0.0
C476 C 0.32156 0.23626 0.81933 0.0
C477 C 0.39259 0.49641 0.66054 0.0
C478 C 0.34856 0.46889 0.63613 0.0
C479 C 0.3698 0.27434 0.71534 0.0
C480 C 0.40688 0.2824 0.68999 0.0
C481 C 0.44993 0.33189 0.68642 0.0
C482 C 0.40039 0.23753 0.67205 0.0
C483 C 0.43671 0.24195 0.65038 0.0
C484 C 0.48637 0.33632 0.66492 0.0
C485 C 0.47991 0.29155 0.64705 0.0
C486 C 0.32904 0.3652 0.82951 0.0
C487 C 0.23109 0.31628 0.75789 0.0
C488 C 0.18548 0.28097 0.86324 0.0
C489 C 0.14934 0.27268 0.89003 0.0
C490 C 0.11096 0.22146 0.89977 0.0
C491 C 0.15316 0.31788 0.90534 0.0
C492 C 0.11933 0.31202 0.9311 0.0
C493 C 0.07671 0.21553 0.92489 0.0
C494 C 0.08086 0.2605 0.94058 0.0
C495 C 0.22005 0.18315 0.74511 0.0
H496 H 0.45566 0.36661 0.70071 0.0
H497 H 0.36758 0.1989 0.67563 0.0
H498 H 0.51988 0.37434 0.66251 0.0
H499 H 0.50869 0.29539 0.63088 0.0
H500 H 0.10743 0.18636 0.88789 0.0
H501 H 0.18242 0.35765 0.89732 0.0
H502 H 0.04687 0.17599 0.93223 0.0
H503 H 0.05401 0.2552 0.95999 0.0
Gd504 Gd 0.75888 0.31616 0.77302 0.0
Gd505 Gd 0.79997 0.22724 0.81111 0.0
C506 C 0.70596 0.1062 0.90728 0.0
C507 C 0.76175 0.13084 0.96937 0.0
C508 C 0.78951 0.17781 0.90383 0.0
C509 C 0.74345 0.14653 0.88456 0.0
C510 C 0.79958 0.16904 0.94619 0.0
C511 C 0.71493 0.09978 0.95 0.0
C512 C 0.66182 0.07081 0.88595 0.0
C513 C 0.65745 0.07326 0.84298 0.0
N514 N 0.73645 0.15231 0.84306 0.0
C515 C 0.6956 0.11429 0.8219 0.0
H516 H 0.69205 0.11576 0.78886 0.0
C517 C 0.87265 0.24066 0.89712 0.0
N518 N 0.8251 0.21492 0.88065 0.0
C519 C 0.88436 0.23322 0.93895 0.0
C520 C 0.84757 0.1979 0.96376 0.0
H521 H 0.90113 0.26915 0.87828 0.0
H522 H 0.68666 0.06899 0.96793 0.0
H523 H 0.87018 0.42541 0.79502 0.0
H524 H 0.63187 0.04003 0.9023 0.0
H525 H 0.62445 0.04416 0.82609 0.0
H526 H 0.76864 0.12386 1.00204 0.0
H527 H 0.66112 0.25668 0.70522 0.0
H528 H 0.89031 0.54631 0.70323 0.0
H529 H 0.91808 0.51743 0.76883 0.0
H530 H 0.75191 0.45996 0.60569 0.0
H531 H 0.92171 0.25503 0.95208 0.0
H532 H 0.85675 0.19226 0.99619 0.0
H533 H 0.8296 0.52417 0.64179 0.0
H534 H 0.62902 0.27917 0.63826 0.0
N535 N 0.81135 0.40359 0.74826 0.0
C536 C 0.86658 0.50749 0.71663 0.0
C537 C 0.88297 0.49066 0.75324 0.0
C538 C 0.82207 0.47224 0.69589 0.0
C539 C 0.79398 0.4203 0.7134 0.0
C540 C 0.85526 0.43802 0.76821 0.0
N541 N 0.72642 0.33263 0.70867 0.0
C542 C 0.75109 0.38324 0.6923 0.0
C543 C 0.66364 0.30867 0.65288 0.0
C544 C 0.69042 0.35946 0.63404 0.0
C545 C 0.68197 0.29605 0.69067 0.0
C546 C 0.73457 0.39755 0.65382 0.0
H547 H 0.67655 0.36901 0.60444 0.0
O548 O 0.69144 0.31115 0.78037 0.0
O549 O 0.74598 0.25002 0.82006 0.0
O550 O 0.74973 0.19615 0.75028 0.0
O551 O 0.75015 0.27072 0.71697 0.0
O552 O 0.68683 0.24123 0.78215 0.0
O553 O 0.76084 0.37487 0.80878 0.0
O554 O 0.86151 0.21618 0.81319 0.0
O555 O 0.81224 0.29282 0.76319 0.0
O556 O 0.81431 0.35159 0.83027 0.0
O557 O 0.82063 0.28147 0.86355 0.0
O558 O 0.87293 0.29854 0.79444 0.0
O559 O 0.78955 0.15681 0.78464 0.0
C560 C 0.69975 0.22181 0.81513 0.0
C561 C 0.76306 0.44884 0.63593 0.0
C562 C 0.80693 0.4858 0.65676 0.0
C563 C 0.71374 0.35331 0.80245 0.0
C564 C 0.69486 0.38865 0.79837 0.0
C565 C 0.67887 0.40467 0.76068 0.0
C566 C 0.68906 0.4025 0.83517 0.0
C567 C 0.66644 0.43164 0.83533 0.0
C568 C 0.6569 0.43521 0.76061 0.0
C569 C 0.6503 0.44851 0.798 0.0
C570 C 0.74044 0.22071 0.71649 0.0
C571 C 0.85823 0.32031 0.76413 0.0
C572 C 0.83471 0.17071 0.79561 0.0
C573 C 0.85441 0.13869 0.78685 0.0
C574 C 0.8854 0.13031 0.81675 0.0
C575 C 0.84878 0.12432 0.74645 0.0
C576 C 0.87514 0.10271 0.73571 0.0
C577 C 0.90907 0.10522 0.80663 0.0
C578 C 0.90389 0.09121 0.76618 0.0
C579 C 0.82763 0.32997 0.86345 0.0
H580 H 0.68238 0.39282 0.73185 0.0
H581 H 0.70001 0.38811 0.86421 0.0
H582 H 0.64384 0.44727 0.73174 0.0
H583 H 0.63144 0.47013 0.79795 0.0
H584 H 0.89179 0.14382 0.84766 0.0
H585 H 0.82824 0.13524 0.72261 0.0
H586 H 0.93292 0.09877 0.82982 0.0
H587 H 0.92526 0.07551 0.75782 0.0
Gd588 Gd 0.81175 0.8516 0.82369 0.0
Gd589 Gd 0.76487 0.73529 0.7603 0.0
C590 C 0.65766 0.70491 0.64507 0.0
C591 C 0.58458 0.62553 0.66643 0.0
C592 C 0.65777 0.66562 0.71402 0.0
C593 C 0.68155 0.70544 0.68466 0.0
C594 C 0.60982 0.62367 0.70437 0.0
C595 C 0.60844 0.66638 0.63687 0.0
C596 C 0.68485 0.74002 0.61386 0.0
C597 C 0.73502 0.77132 0.62158 0.0
N598 N 0.72976 0.73994 0.6928 0.0
C599 C 0.757 0.7698 0.66103 0.0
H600 H 0.79603 0.79253 0.66522 0.0
C601 C 0.66516 0.61869 0.77533 0.0
N602 N 0.68364 0.66392 0.74977 0.0
C603 C 0.61777 0.57624 0.76717 0.0
C604 C 0.58993 0.57905 0.7317 0.0
H605 H 0.68705 0.61608 0.80247 0.0
H606 H 0.58944 0.66578 0.60687 0.0
H607 H 0.7837 0.79722 0.91852 0.0
H608 H 0.66799 0.74061 0.58307 0.0
H609 H 0.75697 0.79618 0.59705 0.0
H610 H 0.54747 0.59404 0.65881 0.0
H611 H 0.89188 0.97893 0.79135 0.0
H612 H 0.91082 0.82113 0.993 0.0
H613 H 0.82149 0.77517 0.98182 0.0
H614 H 0.02972 0.98048 0.92811 0.0
H615 H 0.60308 0.541 0.7878 0.0
H616 H 0.5543 0.54526 0.72428 0.0
H617 H 0.98935 0.89906 0.97242 0.0
H618 H 0.97182 0.05248 0.81268 0.0
N619 N 0.84807 0.83912 0.88835 0.0
C620 C 0.8937 0.82675 0.96366 0.0
C621 C 0.84334 0.80046 0.95738 0.0
C622 C 0.92094 0.86565 0.93426 0.0
C623 C 0.89674 0.87098 0.89623 0.0
C624 C 0.82147 0.81013 0.92037 0.0
N625 N 0.89486 0.92102 0.83544 0.0
C626 C 0.9206 0.91469 0.86975 0.0
C627 C 0.95858 0.01341 0.82809 0.0
C628 C 0.9853 0.00656 0.86241 0.0
C629 C 0.91344 0.9705 0.81518 0.0
C630 C 0.96755 0.95653 0.8828 0.0
H631 H 0.01803 0.04103 0.87472 0.0
O632 O 0.81892 0.928 0.82599 0.0
O633 O 0.76712 0.81245 0.76418 0.0
O634 O 0.82596 0.81116 0.73374 0.0
O635 O 0.87133 0.8712 0.7853 0.0
O636 O 0.77484 0.88334 0.77192 0.0
O637 O 0.77601 0.86413 0.86989 0.0
O638 O 0.76848 0.66398 0.75902 0.0
O639 O 0.80884 0.7722 0.82079 0.0
O640 O 0.74555 0.78134 0.84888 0.0
O641 O 0.70512 0.7162 0.7999 0.0
O642 O 0.795 0.69811 0.81081 0.0
O643 O 0.81343 0.73484 0.72115 0.0
C644 C 0.75433 0.84555 0.74638 0.0
C645 C 0.99316 0.94921 0.91849 0.0
C646 C 0.97018 0.90294 0.94372 0.0
C647 C 0.79597 0.91488 0.85861 0.0
C648 C 0.77592 0.94716 0.86629 0.0
C649 C 0.80551 0.0031 0.86177 0.0
C650 C 0.73134 0.92447 0.88258 0.0
C651 C 0.71736 0.95811 0.89522 0.0
C652 C 0.79082 0.03628 0.87369 0.0
C653 C 0.74701 0.01379 0.89066 0.0
C654 C 0.86549 0.85398 0.74845 0.0
C655 C 0.81762 0.73478 0.837 0.0
C656 C 0.79787 0.68429 0.73005 0.0
C657 C 0.78611 0.65067 0.69568 0.0
C658 C 0.74048 0.60402 0.68906 0.0
C659 C 0.82374 0.66217 0.6725 0.0
C660 C 0.81851 0.62384 0.64714 0.0
C661 C 0.73359 0.56819 0.6605 0.0
C662 C 0.77254 0.57768 0.63996 0.0
C663 C 0.70802 0.73603 0.83515 0.0
H664 H 0.84079 0.02091 0.85046 0.0
H665 H 0.70869 0.88141 0.88712 0.0
H666 H 0.8138 0.07931 0.87114 0.0
H667 H 0.73672 0.03969 0.90126 0.0
H668 H 0.71069 0.59464 0.70651 0.0
H669 H 0.85886 0.69836 0.67756 0.0
H670 H 0.69859 0.53211 0.65539 0.0
H671 H 0.76696 0.54868 0.61889 0.0
C672 C 0.92311 0.1064 0.57271 0.0
C673 C 1.00099 0.1282 0.4784 0.0
C674 C 0.94691 0.92177 0.49639 0.0
Mg675 Mg 0.0285 0.15224 0.5509 0.0
O676 O 0.99529 0.07261 0.54426 0.0
Mg677 Mg 0.9264 0.01379 0.51959 0.0
Mg678 Mg 0.03146 0.03581 0.53777 0.0
O679 O 0.06934 0.00186 0.53371 0.0
Mg680 Mg 0.03242 0.92697 0.55697 0.0
Mg681 Mg 0.13764 0.06273 0.5603 0.0
C682 C 0.10273 0.128 0.60366 0.0
C683 C 0.1142 0.11355 0.4756 0.0
O684 O 0.90575 0.06008 0.55808 0.0
O685 O 0.96273 0.14799 0.56273 0.0
O686 O 0.99533 0.09066 0.50549 0.0
O687 O 0.03732 0.17466 0.48553 0.0
O688 O 0.08264 0.15628 0.60052 0.0
O689 O 0.09349 0.09528 0.57646 0.0
C690 C 0.95721 0.96401 0.60425 0.0
O691 O 1.0005 0.98504 0.59527 0.0
O692 O 0.92586 0.97015 0.58056 0.0
O693 O 0.09192 0.98776 0.51487 0.0
O694 O 0.07417 0.90464 0.52953 0.0
O695 O 0.12654 0.01295 0.62188 0.0
C696 C 0.09848 0.94867 0.50926 0.0
O697 O 0.05612 0.93832 0.61968 0.0
O698 O 0.96094 0.89717 0.52429 0.0
C699 C 0.10212 0.9623 0.62605 0.0
O700 O 0.96442 0.97247 0.49681 0.0
O701 O 0.06924 0.08815 0.48186 0.0
O702 O 0.14672 0.11169 0.50121 0.0
C703 C 0.43874 0.17523 0.06222 0.0
C704 C 0.43143 0.16301 0.93998 0.0
C705 C 0.40719 0.96564 0.98142 0.0
Mg706 Mg 0.51258 0.1795 0.01191 0.0
O707 O 0.47917 0.10948 0.03585 0.0
Mg708 Mg 0.40798 0.06457 0.01724 0.0
Mg709 Mg 0.50431 0.06346 0.02473 0.0
O710 O 0.52729 0.01793 0.00948 0.0
Mg711 Mg 0.49195 0.94334 0.014 0.0
Mg712 Mg 0.59503 0.05761 0.03278 0.0
C713 C 0.6021 0.16727 0.06127 0.0
C714 C 0.58404 0.12688 0.95451 0.0
O715 O 0.40755 0.12678 0.05229 0.0
O716 O 0.48152 0.20322 0.05074 0.0
O717 O 0.40608 0.11817 0.95923 0.0
O718 O 0.47711 0.19204 0.95111 0.0
O719 O 0.58499 0.19561 0.0414 0.0
O720 O 0.57689 0.11553 0.06156 0.0
C721 C 0.425 0.99282 0.09678 0.0
O722 O 0.46711 0.00767 0.08538 0.0
O723 O 0.39882 0.0092 0.07526 0.0
O724 O 0.60419 -0.00038 0.99751 0.0
O725 O 0.53226 0.92763 0.97793 0.0
O726 O 0.57707 0.99911 0.08876 0.0
C727 C 0.57833 0.95623 0.97794 0.0
O728 O 0.50914 0.92138 0.07437 0.0
O729 O 0.42244 0.93259 0.98981 0.0
C730 C 0.54568 0.95072 0.09866 0.0
O731 O 0.43303 0.01474 0.98927 0.0
O732 O 0.54277 0.11631 0.96513 0.0
O733 O 0.60977 0.1105 0.97644 0.0
C734 C 0.89808 0.65089 0.12162 0.0
C735 C 0.91372 0.66153 0.9823 0.0
C736 C 0.92444 0.45058 0.01434 0.0
Mg737 Mg 0.98421 0.67404 0.0675 0.0
O738 O 0.97366 0.6046 0.05265 0.0
Mg739 Mg 0.89973 0.55453 0.05137 0.0
Mg740 Mg 1.01012 0.55587 0.05332 0.0
O741 O 0.04392 0.5064 0.06297 0.0
Mg742 Mg 0.01811 0.43051 0.07231 0.0
Mg743 Mg 0.11666 0.55252 0.07925 0.0
C744 C 0.07691 0.64602 0.10424 0.0
C745 C 0.10159 0.61174 0.98576 0.0
O746 O 0.87598 0.60694 0.10023 0.0
O747 O 0.94348 0.68175 0.11677 0.0
O748 O 0.89312 0.61016 0.99085 0.0
O749 O 0.95061 0.69364 0.00647 0.0
O750 O 0.04558 0.66104 0.09423 0.0
O751 O 0.07659 0.60775 0.08774 0.0
C752 C 0.93667 0.49947 0.12817 0.0
O753 O 0.97651 0.5144 0.11365 0.0
O754 O 0.90494 0.50915 0.10926 0.0
O755 O 0.12742 0.49764 0.03846 0.0
O756 O 0.05477 0.42357 0.02658 0.0
O757 O 0.13157 0.48677 0.13375 0.0
C758 C 0.09939 0.45352 0.02001 0.0
O759 O 0.06682 0.40606 0.12526 0.0
O760 O 0.95145 0.43059 0.03118 0.0
C761 C 0.1112 0.43491 0.1427 0.0
O762 O 0.93488 0.49931 0.02091 0.0
O763 O 0.05662 0.59819 0.98925 0.0
O764 O 0.12507 0.60167 0.01657 0.0
C765 C 0.43231 0.60637 0.06397 0.0
C766 C 0.46529 0.61164 0.95283 0.0
C767 C 0.44195 0.42442 0.97395 0.0
Mg768 Mg 0.52252 0.63624 0.02391 0.0
O769 O 0.49173 0.56144 0.04481 0.0
Mg770 Mg 0.43004 0.51165 0.01253 0.0
Mg771 Mg 0.52374 0.5253 0.03151 0.0
O772 O 0.55436 0.48888 0.01568 0.0
Mg773 Mg 0.52308 0.41336 0.02661 0.0
Mg774 Mg 0.61822 0.53752 0.04278 0.0
C775 C 0.60679 0.63289 0.07911 0.0
C776 C 0.59846 0.604 0.96643 0.0
O777 O 0.4109 0.56087 0.04739 0.0
O778 O 0.47489 0.64441 0.05631 0.0
O779 O 0.46831 0.57085 0.96233 0.0
O780 O 0.50501 0.65451 0.9596 0.0
O781 O 0.59472 0.66065 0.05253 0.0
O782 O 0.5895 0.58242 0.07511 0.0
C783 C 0.44127 0.44484 0.09167 0.0
O784 O 0.4858 0.46579 0.08471 0.0
O785 O 0.41158 0.45464 0.06806 0.0
O786 O 0.63677 0.48978 0.00571 0.0
O787 O 0.577 0.40325 0.00595 0.0
O788 O 0.59871 0.47875 0.09709 0.0
C789 C 0.61677 0.44195 0.99366 0.0
O790 O 0.52692 0.40197 0.09182 0.0
O791 O 0.45812 0.39254 0.98392 0.0
C792 C 0.5653 0.43518 0.11273 0.0
O793 O 0.46155 0.46945 0.98999 0.0
O794 O 0.55631 0.58507 0.97754 0.0
O795 O 0.62843 0.59215 0.98694 0.0
C796 C 0.95878 0.59307 0.5855 0.0
C797 C 1.00217 0.59162 0.47167 0.0
C798 C 0.96531 0.39086 0.51487 0.0
Mg799 Mg 0.05344 0.61102 0.55675 0.0
O800 O 0.02338 0.53794 0.57146 0.0
Mg801 Mg 0.95693 0.49021 0.54487 0.0
Mg802 Mg 0.0548 0.4989 0.55884 0.0
O803 O 0.08607 0.45983 0.54766 0.0
Mg804 Mg 0.05791 0.38552 0.5583 0.0
Mg805 Mg 0.15513 0.50998 0.56735 0.0
C806 C 0.14634 0.60618 0.59812 0.0
C807 C 0.13127 0.57491 0.4859 0.0
O808 O 0.93672 0.54471 0.57361 0.0
O809 O 1.00414 0.62603 0.58252 0.0
O810 O 0.97063 0.54599 0.48655 0.0
O811 O 0.04214 0.62199 0.49211 0.0
O812 O 0.1253 0.63283 0.58475 0.0
O813 O 0.12485 0.55531 0.5959 0.0
C814 C 0.97603 0.42811 0.62739 0.0
O815 O 0.01951 0.44489 0.61857 0.0
O816 O 0.94737 0.43925 0.6035 0.0
O817 O 0.16781 0.45941 0.53207 0.0
O818 O 0.10031 0.38001 0.51693 0.0
O819 O 0.15537 0.45027 0.62337 0.0
C820 C 0.14484 0.41539 0.51346 0.0
O821 O 0.08775 0.37009 0.61958 0.0
O822 O 0.9841 0.36223 0.52964 0.0
C823 C 0.13069 0.40096 0.63645 0.0
O824 O 0.98629 0.44104 0.52149 0.0
O825 O 0.08841 0.55485 0.49765 0.0
O826 O 0.16198 0.56518 0.50774 0.0
C827 C 0.46164 0.10513 0.56043 0.0
C828 C 0.44458 0.12338 0.43889 0.0
C829 C 0.46782 0.89913 0.48955 0.0
Mg830 Mg 0.54046 0.12759 0.50616 0.0
O831 O 0.51384 0.05132 0.51531 0.0
Mg832 Mg 0.44047 0.00446 0.50092 0.0
Mg833 Mg 0.5472 0.00168 0.52698 0.0
O834 O 0.58277 0.9533 0.52833 0.0
Mg835 Mg 0.56772 0.88107 0.51957 0.0
Mg836 Mg 0.65675 0.00268 0.52715 0.0
C837 C 0.63604 0.10982 0.56251 0.0
C838 C 0.61624 0.05229 0.44912 0.0
O839 O 0.43397 0.05917 0.54459 0.0
O840 O 0.50527 0.13635 0.55172 0.0
O841 O 0.42369 0.07179 0.44938 0.0
O842 O 0.49007 0.15174 0.45444 0.0
O843 O 0.60961 0.1311 0.54676 0.0
O844 O 0.62433 0.06109 0.55489 0.0
C845 C 0.45761 0.94784 0.59507 0.0
O846 O 0.50285 0.96231 0.59151 0.0
O847 O 0.43296 0.95761 0.5651 0.0
O848 O 0.676 0.94589 0.48048 0.0
O849 O 0.60719 0.87014 0.46913 0.0
O850 O 0.66722 0.95172 0.58933 0.0
C851 C 0.6521 0.90028 0.46135 0.0
O852 O 0.60529 0.86755 0.58158 0.0
O853 O 0.4962 0.87903 0.4957 0.0
C854 C 0.64526 0.90158 0.60206 0.0
O855 O 0.47817 0.9451 0.50043 0.0
O856 O 0.57682 0.03776 0.46432 0.0
O857 O 0.64889 0.04419 0.46811 0.0
C858 C 0.16938 0.2363 0.40394 0.0
C859 C 0.15958 0.21212 0.36619 0.0
C860 C 0.11428 0.12413 0.39939 0.0
C861 C 0.12937 0.14757 0.43807 0.0
N862 N 0.17633 0.22628 0.47794 0.0
N863 N 0.09641 0.13938 0.32729 0.0
C864 C 0.15787 0.20381 0.44067 0.0
C865 C 0.12392 0.15769 0.36344 0.0
N866 N 0.18564 0.28958 0.40401 0.0
N867 N 0.09557 0.07064 0.39679 0.0
H868 H 0.10057 0.16549 0.30164 0.0
H869 H 0.06665 0.1005 0.32484 0.0
H870 H 0.09262 0.04551 0.42282 0.0
H871 H 0.08866 0.05319 0.36868 0.0
H872 H 0.19014 0.309 0.43046 0.0
H873 H 0.18771 0.31204 0.3765 0.0
H874 H 0.2049 0.26554 0.48032 0.0
H875 H 0.16644 0.20493 0.50602 0.0
C876 C 0.88797 0.12938 0.42884 0.0
C877 C 0.86584 0.08099 0.40815 0.0
C878 C 0.93018 0.06578 0.43485 0.0
C879 C 0.95794 0.118 0.45007 0.0
N880 N 0.95982 0.19886 0.46557 0.0
N881 N 0.8485 0.99127 0.42354 0.0
C882 C 0.93599 0.14995 0.44855 0.0
C883 C 0.88092 0.0449 0.42262 0.0
N884 N 0.8601 0.14975 0.43555 0.0
N885 N 0.95121 0.0371 0.42976 0.0
H886 H 0.81166 0.97648 0.41459 0.0
H887 H 0.85816 0.96327 0.43587 0.0
H888 H 0.98859 0.05297 0.43507 0.0
H889 H 0.93167 0.00061 0.4155 0.0
H890 H 0.87194 0.18161 0.45426 0.0
H891 H 0.82293 0.1298 0.42617 0.0
H892 H 0.94748 0.22576 0.46033 0.0
H893 H 0.99295 0.21447 0.48331 0.0
C894 C 0.87953 0.81041 0.42175 0.0
C895 C 0.892 0.83795 0.38309 0.0
C896 C 0.95112 0.9186 0.41982 0.0
C897 C 0.92669 0.89458 0.45643 0.0
N898 N 0.86498 0.81541 0.49073 0.0
N899 N 0.95308 0.91205 0.34646 0.0
C900 C 0.88988 0.83978 0.45687 0.0
C901 C 0.93159 0.89096 0.38228 0.0
N902 N 0.8625 0.75693 0.42566 0.0
N903 N 0.99458 0.96551 0.42154 0.0
H904 H 0.94312 0.88857 0.32109 0.0
H905 H 0.98052 0.95146 0.34149 0.0
H906 H 1.01494 0.98204 0.44898 0.0
H907 H 1.01207 0.9867 0.39578 0.0
H908 H 0.85433 0.73504 0.45369 0.0
H909 H 0.86487 0.7374 0.40216 0.0
H910 H 0.83615 0.7759 0.49124 0.0
H911 H 0.87006 0.83607 0.51667 0.0
C912 C 0.09583 0.89802 0.40816 0.0
C913 C 0.144 0.93498 0.39848 0.0
C914 C 0.16051 0.98516 0.45865 0.0
C915 C 0.11301 0.94701 0.46945 0.0
N916 N 0.03073 0.87902 0.44769 0.0
N917 N 0.22545 0.00544 0.41793 0.0
C918 C 0.07924 0.90647 0.44243 0.0
C919 C 0.17739 0.97627 0.42466 0.0
N920 N 0.06676 0.85342 0.38575 0.0
N921 N 0.18825 0.03163 0.47886 0.0
H922 H 0.23889 0.00039 0.39268 0.0
H923 H 0.25254 0.03116 0.43918 0.0
H924 H 0.17543 0.04247 0.50107 0.0
H925 H 0.22153 0.06276 0.46996 0.0
H926 H 0.03397 0.82151 0.39492 0.0
H927 H 0.077 0.84564 0.35977 0.0
H928 H 1.00389 0.85312 0.4264 0.0
H929 H 1.01641 0.88682 0.47079 0.0
C930 C 0.18838 0.91713 0.60288 0.0
C931 C 0.1925 0.89833 0.64242 0.0
C932 C 0.11671 0.88883 0.65562 0.0
C933 C 0.1267 0.93142 0.62537 0.0
N934 N 0.1804 0.98621 0.57044 0.0
N935 N 0.13761 0.82173 0.68194 0.0
C936 C 0.16236 0.9436 0.59715 0.0
C937 C 0.14865 0.86879 0.66105 0.0
N938 N 0.22028 0.92435 0.57629 0.0
N939 N 0.08046 0.87081 0.68091 0.0
H940 H 0.16067 0.8065 0.68319 0.0
H941 H 0.10409 0.79628 0.6934 0.0
H942 H 0.05612 0.88435 0.6785 0.0
H943 H 0.07618 0.84399 0.70598 0.0
H944 H 0.22115 0.94266 0.54696 0.0
H945 H 0.24394 0.90977 0.58401 0.0
H946 H 0.17274 0.01635 0.5692 0.0
H947 H 0.17274 0.01635 0.5692 0.0
C948 C 0.21064 0.14599 0.67807 0.0
C949 C 0.19091 0.13992 0.71546 0.0
C950 C 0.11109 0.1064 0.67927 0.0
C951 C 0.13317 0.12823 0.64166 0.0
N952 N 0.20381 0.16282 0.60419 0.0
N953 N 0.12225 0.07544 0.74923 0.0
C954 C 0.18275 0.14473 0.6404 0.0
C955 C 0.14068 0.10869 0.71591 0.0
N956 N 0.25639 0.15448 0.6795 0.0
N957 N 0.06233 0.08413 0.68018 0.0
H958 H 0.14544 0.07429 0.77432 0.0
H959 H 0.0858 0.04551 0.74944 0.0
H960 H 0.03922 0.07907 0.65354 0.0
H961 H 0.04562 0.07281 0.70753 0.0
H962 H 0.27247 0.15586 0.65362 0.0
H963 H 0.27606 0.15516 0.70774 0.0
H964 H 0.24082 0.17959 0.60223 0.0
H965 H 0.18464 0.16423 0.5763 0.0
C966 C 0.92962 0.14528 0.68043 0.0
C967 C 0.88338 0.10619 0.69225 0.0
C968 C 0.85842 0.07532 0.62195 0.0
C969 C 0.90763 0.10779 0.61286 0.0
N970 N 0.99178 0.15443 0.64344 0.0
N971 N 0.80395 0.02999 0.67592 0.0
C972 C 0.94398 0.1383 0.6445 0.0
C973 C 0.84751 0.06998 0.66345 0.0
N974 N 0.96088 0.18761 0.70429 0.0
N975 N 0.8224 0.05054 0.59123 0.0
H976 H 0.79499 0.02567 0.70603 0.0
H977 H 0.7784 0.99908 0.65725 0.0
H978 H 0.82898 0.0558 0.56033 0.0
H979 H 0.78565 0.02921 0.59589 0.0
H980 H 0.9937 0.21889 0.69442 0.0
H981 H 0.95198 0.19406 0.73164 0.0
H982 H 0.01811 0.17383 0.66758 0.0
H983 H 1.00361 0.14006 0.62286 0.0
C984 C 0.90418 0.93843 0.70413 0.0
C985 C 0.90038 0.88885 0.7184 0.0
C986 C 0.93968 0.89067 0.65919 0.0
C987 C 0.94454 0.94089 0.64593 0.0
N988 N 0.94271 0.01878 0.66104 0.0
N989 N 0.92526 0.82475 0.71575 0.0
C990 C 0.93138 0.96714 0.67066 0.0
C991 C 0.92209 0.86748 0.69805 0.0
N992 N 0.8767 0.95492 0.71862 0.0
N993 N 0.94843 0.86347 0.63362 0.0
H994 H 0.91299 0.80759 0.74451 0.0
H995 H 0.94409 0.80991 0.70393 0.0
H996 H 0.96039 0.87899 0.60461 0.0
H997 H 0.94027 0.82409 0.63984 0.0
H998 H 0.87395 0.98765 0.70605 0.0
H999 H 0.8513 0.93164 0.7394 0.0
H1000 H 0.9396 0.04168 0.68129 0.0
H1001 H 0.95915 0.0402 0.63464 0.0
C1002 C 0.3513 0.19412 0.09668 0.0
C1003 C 0.34571 0.16155 0.13325 0.0
C1004 C 0.42521 0.17335 0.13266 0.0
C1005 C 0.42578 0.19616 0.0925 0.0
N1006 N 0.40466 0.24891 0.04363 0.0
N1007 N 0.38397 0.13964 0.19466 0.0
C1008 C 0.39413 0.21445 0.07738 0.0
C1009 C 0.38524 0.1582 0.15455 0.0
N1010 N 0.31521 0.20368 0.08015 0.0
N1011 N 0.45975 0.16053 0.14716 0.0
H1012 H 0.35464 0.1277 0.21145 0.0
H1013 H 0.41361 0.14047 0.21235 0.0
H1014 H 0.48978 0.17258 0.13103 0.0
H1015 H 0.4578 0.13678 0.17377 0.0
H1016 H 0.31532 0.22287 0.05147 0.0
H1017 H 0.28454 0.19175 0.09526 0.0
H1018 H 0.38467 0.26689 0.03196 0.0
H1019 H 0.4368 0.26317 0.03002 0.0
C1020 C 0.8882 0.43814 0.23041 0.0
C1021 C 0.85475 0.38482 0.21803 0.0
C1022 C 0.89419 0.40654 0.15443 0.0
C1023 C 0.92141 0.46091 0.16365 0.0
N1024 N 0.94358 0.53063 0.209 0.0
N1025 N 0.81852 0.32492 0.16166 0.0
C1026 C 0.91899 0.47729 0.20168 0.0
C1027 C 0.85578 0.3707 0.17825 0.0
N1028 N 0.88896 0.45203 0.26888 0.0
N1029 N 0.90374 0.38975 0.12161 0.0
H1030 H 0.78923 0.29806 0.1776 0.0
H1031 H 0.81495 0.3159 0.13106 0.0
H1032 H 0.93351 0.41525 0.10514 0.0
H1033 H 0.88582 0.34986 0.11389 0.0
H1034 H 0.91588 0.48802 0.28149 0.0
H1035 H 0.86364 0.42597 0.2889 0.0
H1036 H 0.93854 0.54628 0.23364 0.0
H1037 H 0.9675 0.55965 0.18886 0.0
C1038 C 0.62387 0.90394 0.13246 0.0
C1039 C 0.6524 0.94315 0.16211 0.0
C1040 C 0.58501 0.95608 0.16808 0.0
C1041 C 0.56105 0.92517 0.13334 0.0
N1042 N 0.54322 0.84803 0.09865 0.0
N1043 N 0.656 0.99266 0.21797 0.0
C1044 C 0.57525 0.89064 0.12185 0.0
C1045 C 0.6313 0.96425 0.18368 0.0
N1046 N 0.64399 0.88243 0.11271 0.0
N1047 N 0.56467 0.9808 0.18309 0.0
H1048 H 0.68997 0.9987 0.22994 0.0
H1049 H 0.64196 0.0076 0.23595 0.0
H1050 H 0.53054 0.97413 0.17078 0.0
H1051 H 0.58078 0.007 0.20699 0.0
H1052 H 0.62561 0.85645 0.08876 0.0
H1053 H 0.6805 0.89376 0.11802 0.0
H1054 H 0.55081 0.81998 0.09033 0.0
H1055 H 0.50706 0.83783 0.09178 0.0
C1056 C 0.19554 0.73984 0.14843 0.0
C1057 C 0.20172 0.70561 0.17864 0.0
C1058 C 0.11956 0.63542 0.16612 0.0
C1059 C 0.11234 0.67078 0.13747 0.0
N1060 N 0.13856 0.76031 0.10836 0.0
N1061 N 0.18006 0.61497 0.19724 0.0
C1062 C 0.14874 0.72444 0.13068 0.0
C1063 C 0.16688 0.65121 0.18192 0.0
N1064 N 0.23524 0.78534 0.13575 0.0
N1065 N 0.08125 0.58711 0.17744 0.0
H1066 H 0.21644 0.62684 0.20554 0.0
H1067 H 0.15589 0.57372 0.19749 0.0
H1068 H 0.04559 0.57615 0.1667 0.0
H1069 H 0.08486 0.56134 0.20033 0.0
H1070 H 0.23372 0.81063 0.11135 0.0
H1071 H 0.27005 0.79404 0.14773 0.0
H1072 H 0.164 0.80105 0.10557 0.0
H1073 H 0.10358 0.75096 0.09684 0.0
C1074 C 0.37781 0.93623 0.8799 0.0
C1075 C 0.3477 0.88059 0.88921 0.0
C1076 C 0.33047 0.89873 0.95353 0.0
C1077 C 0.36864 0.95113 0.94859 0.0
N1078 N 0.4146 0.02618 0.9034 0.0
N1079 N 0.29742 0.80765 0.9358 0.0
C1080 C 0.3865 0.97211 0.9098 0.0
C1081 C 0.32397 0.86134 0.9262 0.0
N1082 N 0.39794 0.95444 0.84313 0.0
N1083 N 0.30485 0.88481 0.98698 0.0
H1084 H 0.29521 0.77925 0.9177 0.0
H1085 H 0.28144 0.79157 0.9633 0.0
H1086 H 0.31267 0.91344 0.00786 0.0
H1087 H 0.27433 0.8473 0.99187 0.0
H1088 H 0.42235 0.99423 0.83541 0.0
H1089 H 0.39151 0.92982 0.81969 0.0
H1090 H 0.42862 0.04562 0.87581 0.0
H1091 H 0.42123 0.05238 0.92577 0.0
C1092 C 0.08913 0.37573 0.93103 0.0
C1093 C 0.12296 0.35978 0.94733 0.0
C1094 C 0.15726 0.42857 0.99869 0.0
C1095 C 0.11671 0.4353 0.98867 0.0
N1096 N 0.05209 0.42829 0.93891 0.0
N1097 N 0.19121 0.37217 0.99525 0.0
C1098 C 0.08538 0.41316 0.95239 0.0
C1099 C 0.15823 0.38723 0.98031 0.0
N1100 N 0.06067 0.35462 0.89537 0.0
N1101 N 0.19522 0.4624 0.0248 0.0
H1102 H 0.19374 0.34289 0.9822 0.0
H1103 H 0.21423 0.38625 0.0221 0.0
H1104 H 0.19785 0.49631 0.03504 0.0
H1105 H 0.22689 0.4611 0.03233 0.0
H1106 H 0.03526 0.36418 0.88103 0.0
H1107 H 0.06395 0.32849 0.87865 0.0
H1108 H 0.02528 0.41167 0.91469 0.0
H1109 H 0.05203 0.45916 0.95209 0.0
C1110 C 0.67902 0.23002 0.88618 0.0
C1111 C 0.66626 0.20096 0.84985 0.0
C1112 C 0.58724 0.13512 0.87756 0.0
C1113 C 0.60535 0.15876 0.9163 0.0
N1114 N 0.66863 0.22909 0.95795 0.0
N1115 N 0.60162 0.13174 0.80749 0.0
C1116 C 0.6511 0.20644 0.9205 0.0
C1117 C 0.618 0.15557 0.84439 0.0
N1118 N 0.71489 0.28235 0.88687 0.0
N1119 N 0.54066 0.09282 0.87281 0.0
H1120 H 0.62048 0.14846 0.78167 0.0
H1121 H 0.56986 0.09531 0.80206 0.0
H1122 H 0.51809 0.07722 0.89666 0.0
H1123 H 0.5229 0.0748 0.84518 0.0
H1124 H 0.72094 0.30761 0.90988 0.0
H1125 H 0.73549 0.30207 0.86256 0.0
H1126 H 0.70439 0.25957 0.96462 0.0
H1127 H 0.64781 0.21577 0.98297 0.0
C1128 C 0.81696 0.67284 0.90142 0.0
C1129 C 0.84311 0.72286 0.878 0.0
C1130 C 0.91846 0.72997 0.91924 0.0
C1131 C 0.89063 0.68421 0.94611 0.0
N1132 N 0.81023 0.62493 0.9676 0.0
N1133 N 0.92206 0.79632 0.86431 0.0
C1134 C 0.83917 0.65965 0.93843 0.0
C1135 C 0.89488 0.7509 0.88745 0.0
N1136 N 0.7704 0.63553 0.88811 0.0
N1137 N 0.96759 0.75167 0.92218 0.0
H1138 H 0.90654 0.80988 0.83965 0.0
H1139 H 0.95902 0.82258 0.87107 0.0
H1140 H 0.98545 0.73628 0.94266 0.0
H1141 H 0.99043 0.78178 0.90222 0.0
H1142 H 0.75228 0.59689 0.90142 0.0
H1143 H 0.74999 0.64147 0.86309 0.0
H1144 H 0.77289 0.60974 0.96534 0.0
H1145 H 0.82384 0.61695 0.99639 0.0
C1146 C 0.15338 0.34408 0.22757 0.0
C1147 C 0.20188 0.3585 0.21927 0.0
C1148 C 0.1879 0.4171 0.15938 0.0
C1149 C 0.14192 0.40762 0.17003 0.0
N1150 N 0.08563 0.36197 0.22126 0.0
N1151 N 0.26549 0.42035 0.17733 0.0
C1152 C 0.12616 0.37039 0.20587 0.0
C1153 C 0.21855 0.39848 0.18533 0.0
N1154 N 0.13246 0.30423 0.25697 0.0
N1155 N 0.20204 0.44196 0.12205 0.0
H1156 H 0.28698 0.4056 0.19201 0.0
H1157 H 0.28325 0.45404 0.15779 0.0
H1158 H 0.18239 0.4563 0.10293 0.0
H1159 H 0.23039 0.44382 0.10876 0.0
H1160 H 0.09639 0.28649 0.263 0.0
H1161 H 0.15053 0.28571 0.27287 0.0
H1162 H 0.07339 0.34101 0.24897 0.0
H1163 H 0.06687 0.38075 0.20778 0.0
C1164 C 0.14566 0.67746 0.87417 0.0
C1165 C 0.19384 0.68601 0.87641 0.0
C1166 C 0.16936 0.62791 0.94129 0.0
C1167 C 0.12941 0.6349 0.94542 0.0
N1168 N 0.08308 0.67359 0.91084 0.0
N1169 N 0.25025 0.66854 0.92163 0.0
C1170 C 0.11909 0.6627 0.91067 0.0
C1171 C 0.20523 0.66141 0.91306 0.0
N1172 N 0.12096 0.67252 0.83668 0.0
N1173 N 0.17065 0.58491 0.96065 0.0
H1174 H 0.27769 0.69397 0.90356 0.0
H1175 H 0.26095 0.65444 0.94921 0.0
H1176 H 0.1406 0.55352 0.97396 0.0
H1177 H 0.19705 0.57589 0.95655 0.0
H1178 H 0.0839 0.65906 0.83334 0.0
H1179 H 0.13589 0.67257 0.81049 0.0
H1180 H 0.07541 0.69466 0.88631 0.0
H1181 H 0.06385 0.66506 0.93634 0.0
C1182 C 0.33147 0.16381 0.85971 0.0
C1183 C 0.34458 0.21837 0.85611 0.0
C1184 C 0.41231 0.23685 0.9103 0.0
C1185 C 0.40403 0.18391 0.90896 0.0
N1186 N 0.35875 0.10048 0.87457 0.0
N1187 N 0.40459 0.30907 0.87337 0.0
C1188 C 0.36404 0.14828 0.88175 0.0
C1189 C 0.38698 0.25551 0.88016 0.0
N1190 N 0.28764 0.12638 0.84155 0.0
N1191 N 0.4425 0.26899 0.94137 0.0
H1192 H 0.3887 0.32455 0.85085 0.0
H1193 H 0.43733 0.33819 0.88756 0.0
H1194 H 0.46046 0.25728 0.96501 0.0
H1195 H 0.44543 0.3052 0.94624 0.0
H1196 H 0.27345 0.0853 0.84654 0.0
H1197 H 0.26328 0.13641 0.82499 0.0
H1198 H 0.33339 0.07482 0.85237 0.0
H1199 H 0.38409 0.0901 0.887 0.0
C1200 C 0.8955 0.41179 0.9012 0.0
C1201 C 0.85148 0.36146 0.90254 0.0
C1202 C 0.85273 0.37262 0.97708 0.0
C1203 C 0.89497 0.42413 0.97493 0.0
N1204 N 0.9549 0.49504 0.93348 0.0
N1205 N 0.79697 0.28769 0.9461 0.0
C1206 C 0.91551 0.44444 0.93643 0.0
C1207 C 0.83245 0.34018 0.94169 0.0
N1208 N 0.92152 0.42539 0.86788 0.0
N1209 N 0.83083 0.35536 0.01299 0.0
H1210 H 0.77947 0.26253 0.92173 0.0
H1211 H 0.78718 0.26746 0.97451 0.0
H1212 H 0.84468 0.37817 0.03908 0.0
H1213 H 0.79692 0.32115 0.01599 0.0
H1214 H 0.95627 0.45851 0.86602 0.0
H1215 H 0.91098 0.39963 0.84403 0.0
H1216 H 0.96799 0.51491 0.90565 0.0
H1217 H 0.97263 0.51918 0.9585 0.0
C1218 C 0.67637 0.93094 0.95897 0.0
C1219 C 0.6729 0.93632 0.91557 0.0
C1220 C 0.59529 0.93186 0.91364 0.0
C1221 C 0.60406 0.93777 0.95699 0.0
N1222 N 0.64862 0.93663 0.02196 0.0
N1223 N 0.62885 0.93595 0.8504 0.0
C1224 C 0.64281 0.93421 0.98003 0.0
C1225 C 0.63146 0.93339 0.89251 0.0
N1226 N 0.71224 0.92355 0.97975 0.0
N1227 N 0.55403 0.92761 0.89257 0.0
H1228 H 0.65407 0.93467 0.83452 0.0
H1229 H 0.60298 0.94077 0.83105 0.0
H1230 H 0.5282 0.93027 0.9062 0.0
H1231 H 0.54364 0.91843 0.86174 0.0
H1232 H 0.71456 0.91486 0.01131 0.0
H1233 H 0.73774 0.92168 0.9648 0.0
H1234 H 0.68017 0.94346 0.03999 0.0
H1235 H 0.62203 0.93349 0.03877 0.0
C1236 C 0.8633 0.73996 0.18383 0.0
C1237 C 0.83498 0.70663 0.21703 0.0
C1238 C 0.85498 0.63849 0.19174 0.0
C1239 C 0.87342 0.66808 0.15373 0.0
N1240 N 0.8898 0.74978 0.1151 0.0
N1241 N 0.83242 0.63385 0.26141 0.0
C1242 C 0.87565 0.7193 0.15061 0.0
C1243 C 0.8381 0.65785 0.22278 0.0
N1244 N 0.88754 0.79354 0.18818 0.0
N1245 N 0.85566 0.59198 0.19947 0.0
H1246 H 0.83161 0.65172 0.28677 0.0
H1247 H 0.83646 0.60117 0.27053 0.0
H1248 H 0.87064 0.57951 0.18014 0.0
H1249 H 0.83988 0.56431 0.22354 0.0
H1250 H 0.91326 0.82077 0.16853 0.0
H1251 H 0.88751 0.80875 0.21548 0.0
H1252 H 0.88852 0.78481 0.10899 0.0
H1253 H 0.89848 0.73728 0.09063 0.0
C1254 C 0.39834 0.8834 0.18675 0.0
C1255 C 0.35764 0.87952 0.20388 0.0
C1256 C 0.36616 0.95312 0.15382 0.0
C1257 C 0.40395 0.95487 0.13476 0.0
N1258 N 0.43426 0.89863 0.12282 0.0
N1259 N 0.28929 0.88783 0.17721 0.0
C1260 C 0.4148 0.9141 0.14867 0.0
C1261 C 0.3376 0.90827 0.18032 0.0
N1262 N 0.41959 0.8551 0.20386 0.0
N1263 N 0.3563 0.99344 0.14685 0.0
H1264 H 0.26696 0.8513 0.1919 0.0
H1265 H 0.27229 0.90356 0.15586 0.0
H1266 H 0.37981 0.0306 0.13325 0.0
H1267 H 0.32776 0.99182 0.15946 0.0
H1268 H 0.45283 0.86317 0.1955 0.0
H1269 H 0.40434 0.82334 0.22514 0.0
H1270 H 0.43958 0.86625 0.12964 0.0
H1271 H 0.43644 0.91206 0.09201 0.0
C1272 C 0.68648 0.26496 0.14492 0.0
C1273 C 0.68697 0.22692 0.17613 0.0
C1274 C 0.6559 0.16147 0.12247 0.0
C1275 C 0.6438 0.19392 0.09446 0.0
N1276 N 0.65923 0.28339 0.07597 0.0
N1277 N 0.66263 0.13437 0.19365 0.0
C1278 C 0.66272 0.2478 0.10474 0.0
C1279 C 0.66905 0.1739 0.16452 0.0
N1280 N 0.71139 0.31817 0.15227 0.0
N1281 N 0.65802 0.12073 0.10839 0.0
H1282 H 0.66828 0.1408 0.22494 0.0
H1283 H 0.64706 0.09451 0.18651 0.0
H1284 H 0.656 0.11685 0.0769 0.0
H1285 H 0.66968 0.09764 0.12721 0.0
H1286 H 0.72037 0.3481 0.12898 0.0
H1287 H 0.72638 0.33314 0.18106 0.0
H1288 H 0.66237 0.31887 0.08341 0.0
H1289 H 0.65477 0.27795 0.04445 0.0
C1290 C 0.69383 0.69911 0.90665 0.0
C1291 C 0.67348 0.70146 0.86625 0.0
C1292 C 0.59359 0.63931 0.89146 0.0
C1293 C 0.61688 0.64519 0.93244 0.0
N1294 N 0.68704 0.70182 0.97748 0.0
N1295 N 0.60064 0.67756 0.82082 0.0
C1296 C 0.66588 0.684 0.9392 0.0
C1297 C 0.62201 0.67288 0.85857 0.0
N1298 N 0.73779 0.7035 0.91384 0.0
N1299 N 0.54602 0.60111 0.88363 0.0
H1300 H 0.62083 0.70137 0.79666 0.0
H1301 H 0.56326 0.66093 0.81464 0.0
H1302 H 0.52442 0.57695 0.90685 0.0
H1303 H 0.52885 0.59195 0.85394 0.0
H1304 H 0.75087 0.69471 0.94272 0.0
H1305 H 0.75944 0.71407 0.89018 0.0
H1306 H 0.7238 0.73074 0.98262 0.0
H1307 H 0.6665 0.69088 1.00246 0.0
C1308 C 0.3656 0.63312 0.98223 0.0
C1309 C 0.3271 0.591 0.95958 0.0
C1310 C 0.37534 0.55366 0.95439 0.0
C1311 C 0.41837 0.60563 0.96025 0.0
N1312 N 0.45162 0.69618 0.98556 0.0
N1313 N 0.2904 0.49615 0.96353 0.0
C1314 C 0.41345 0.64626 0.97665 0.0
C1315 C 0.33081 0.54553 0.96373 0.0
N1316 N 0.35609 0.66195 0.00522 0.0
N1317 N 0.37448 0.51488 0.93421 0.0
H1318 H 0.25595 0.49086 0.96372 0.0
H1319 H 0.25595 0.49086 0.96372 0.0
H1320 H 0.40239 0.52103 0.91769 0.0
H1321 H 0.34222 0.47889 0.92909 0.0
H1322 H 0.38268 0.69145 0.02452 0.0
H1323 H 0.3204 0.6524 0.00668 0.0
H1324 H 0.4466 0.72651 0.99321 0.0
H1325 H 0.48796 0.70921 0.98455 0.0
C1326 C 0.40678 0.4394 0.86059 0.0
C1327 C 0.35637 0.40729 0.85985 0.0
C1328 C 0.36158 0.39858 0.93488 0.0
C1329 C 0.41188 0.4188 0.93495 0.0
N1330 N 0.48471 0.46686 0.89879 0.0
N1331 N 0.28825 0.38707 0.89422 0.0
C1332 C 0.43543 0.44245 0.8981 0.0
C1333 C 0.33461 0.39724 0.8967 0.0
N1334 N 0.42615 0.47141 0.82689 0.0
N1335 N 0.33974 0.37999 0.97072 0.0
H1336 H 0.26995 0.38833 0.86566 0.0
H1337 H 0.27031 0.38263 0.91972 0.0
H1338 H 0.35903 0.38131 0.99921 0.0
H1339 H 0.30235 0.36091 0.9719 0.0
H1340 H 0.46274 0.50063 0.82645 0.0
H1341 H 0.40361 0.47238 0.80117 0.0
H1342 H 0.50275 0.47896 0.87215 0.0
H1343 H 0.50749 0.4732 0.92594 0.0
C1344 C 0.69172 0.46554 0.90639 0.0
C1345 C 0.65417 0.43644 0.87535 0.0
C1346 C 0.59313 0.4128 0.92126 0.0
C1347 C 0.63014 0.43636 0.95425 0.0
N1348 N 0.71475 0.47825 0.9797 0.0
N1349 N 0.57107 0.36599 0.85907 0.0
C1350 C 0.67968 0.46071 0.94729 0.0
C1351 C 0.6055 0.40477 0.88456 0.0
N1352 N 0.73852 0.49757 0.8966 0.0
N1353 N 0.54702 0.40237 0.92288 0.0
H1354 H 0.57862 0.35738 0.83194 0.0
H1355 H 0.53613 0.33873 0.86742 0.0
H1356 H 0.53628 0.41357 0.94655 0.0
H1357 H 0.52131 0.38978 0.89741 0.0
H1358 H 0.76712 0.52239 0.91725 0.0
H1359 H 0.74818 0.50263 0.86665 0.0
H1360 H 0.75126 0.49279 0.97703 0.0
H1361 H 0.70664 0.4737 0.01012 0.0
C1362 C 0.64064 0.49534 0.19446 0.0
C1363 C 0.67077 0.47339 0.19633 0.0
C1364 C 0.60696 0.39992 0.15523 0.0
C1365 C 0.57743 0.42193 0.15481 0.0
N1366 N 0.55839 0.47693 0.18745 0.0
N1367 N 0.69047 0.42411 0.15632 0.0
C1368 C 0.59116 0.46338 0.18097 0.0
C1369 C 0.65623 0.43061 0.17044 0.0
N1370 N 0.66076 0.54922 0.1958 0.0
N1371 N 0.5889 0.35257 0.13721 0.0
H1372 H 0.72748 0.44991 0.16424 0.0
H1373 H 0.68211 0.39746 0.13371 0.0
H1374 H 0.55274 0.33133 0.12478 0.0
H1375 H 0.60847 0.33318 0.138 0.0
H1376 H 0.64006 0.5675 0.19179 0.0
H1377 H 0.69802 0.57531 0.19418 0.0
H1378 H 0.56677 0.50567 0.2083 0.0
H1379 H 0.52243 0.45553 0.17469 0.0
C1380 C 0.66285 0.7364 0.16035 0.0
C1381 C 0.65273 0.7057 0.19771 0.0
C1382 C 0.5986 0.62675 0.15676 0.0
C1383 C 0.62376 0.65561 0.12118 0.0
N1384 N 0.68276 0.74161 0.0916 0.0
N1385 N 0.59464 0.62454 0.23081 0.0
C1386 C 0.65694 0.7116 0.12381 0.0
C1387 C 0.61589 0.65116 0.1959 0.0
N1388 N 0.67361 0.788 0.15921 0.0
N1389 N 0.55607 0.57886 0.15285 0.0
H1390 H 0.60049 0.64495 0.25714 0.0
H1391 H 0.57129 0.58331 0.2336 0.0
H1392 H 0.53923 0.56134 0.12494 0.0
H1393 H 0.53392 0.55922 0.17664 0.0
H1394 H 0.67887 0.81148 0.13195 0.0
H1395 H 0.66927 0.8032 0.18458 0.0
H1396 H 0.70819 0.78243 0.09328 0.0
H1397 H 0.68269 0.72473 0.06528 0.0
C1398 C 0.34671 0.58649 0.14209 0.0
C1399 C 0.38155 0.61218 0.17527 0.0
C1400 C 0.44733 0.6313 0.13663 0.0
C1401 C 0.41361 0.60931 0.10139 0.0
N1402 N 0.33049 0.56705 0.07011 0.0
N1403 N 0.46453 0.67642 0.19887 0.0
C1404 C 0.36294 0.58736 0.10384 0.0
C1405 C 0.43168 0.64038 0.17081 0.0
N1406 N 0.29838 0.56132 0.14751 0.0
N1407 N 0.49303 0.63873 0.13957 0.0
H1408 H 0.45484 0.6847 0.22497 0.0
H1409 H 0.50095 0.7021 0.19377 0.0
H1410 H 0.50498 0.62521 0.11837 0.0
H1411 H 0.51667 0.65087 0.16637 0.0
H1412 H 0.2705 0.54091 0.12497 0.0
H1413 H 0.28565 0.55948 0.17555 0.0
H1414 H 0.29445 0.55706 0.06811 0.0
H1415 H 0.33971 0.56166 0.04289 0.0
C1416 C 0.39969 0.34217 0.18168 0.0
C1417 C 0.3836 0.36648 0.20571 0.0
C1418 C 0.41934 0.44752 0.16023 0.0
C1419 C 0.4262 0.419 0.13235 0.0
N1420 N 0.42122 0.33872 0.11457 0.0
N1421 N 0.37512 0.44299 0.21492 0.0
C1422 C 0.41653 0.36638 0.14269 0.0
C1423 C 0.39353 0.4198 0.19485 0.0
N1424 N 0.39958 0.29657 0.19653 0.0
N1425 N 0.43678 0.50121 0.1532 0.0
H1426 H 0.35335 0.42492 0.23897 0.0
H1427 H 0.37654 0.47874 0.20469 0.0
H1428 H 0.45346 0.52261 0.12688 0.0
H1429 H 0.43903 0.52568 0.17523 0.0
H1430 H 0.41451 0.27924 0.18208 0.0
H1431 H 0.38913 0.27924 0.22569 0.0
H1432 H 0.41127 0.29879 0.11936 0.0
H1433 H 0.43195 0.35478 0.08524 0.0
C1434 C 0.90241 0.63518 0.65656 0.0
C1435 C 0.86143 0.62977 0.6301 0.0
C1436 C 0.89016 0.61064 0.57271 0.0
C1437 C 0.92927 0.61257 0.59956 0.0
N1438 N 0.98126 0.64343 0.66274 0.0
N1439 N 0.82716 0.63333 0.56089 0.0
C1440 C 0.93866 0.63123 0.63981 0.0
C1441 C 0.85882 0.62416 0.5874 0.0
N1442 N 0.90476 0.63872 0.69824 0.0
N1443 N 0.88269 0.5955 0.53318 0.0
H1444 H 0.8051 0.64533 0.5709 0.0
H1445 H 0.82641 0.6347 0.52896 0.0
H1446 H 0.90739 0.59047 0.51972 0.0
H1447 H 0.85109 0.58612 0.51417 0.0
H1448 H 0.93225 0.63929 0.71918 0.0
H1449 H 0.87657 0.63407 0.71342 0.0
H1450 H 0.99293 0.66602 0.68865 0.0
H1451 H 1.00684 0.63585 0.65404 0.0
C1452 C 0.39254 0.9285 0.6945 0.0
C1453 C 0.361 0.87142 0.69906 0.0
C1454 C 0.40053 0.86521 0.63979 0.0
C1455 C 0.43075 0.92167 0.63488 0.0
N1456 N 0.45632 0.00731 0.6591 0.0
N1457 N 0.33029 0.78797 0.66738 0.0
C1458 C 0.42649 0.9531 0.6627 0.0
C1459 C 0.36389 0.84094 0.66902 0.0
N1460 N 0.38874 0.95977 0.71987 0.0
N1461 N 0.40784 0.83409 0.61697 0.0
H1462 H 0.30665 0.76836 0.68988 0.0
H1463 H 0.32523 0.76404 0.64378 0.0
H1464 H 0.43449 0.85047 0.59636 0.0
H1465 H 0.3912 0.79267 0.62111 0.0
H1466 H 0.40444 0.00106 0.71622 0.0
H1467 H 0.36862 0.94367 0.74505 0.0
H1468 H 0.45838 0.03445 0.67835 0.0
H1469 H 0.48163 0.02527 0.63737 0.0
C1470 C 0.16684 0.30192 0.69729 0.0
C1471 C 0.20986 0.33698 0.72167 0.0
C1472 C 0.195 0.41057 0.69641 0.0
C1473 C 0.1561 0.37754 0.66736 0.0
N1474 N 0.11784 0.29335 0.63296 0.0
N1475 N 0.26983 0.42803 0.73713 0.0
C1476 C 0.14542 0.32352 0.66577 0.0
C1477 C 0.22561 0.39237 0.71849 0.0
N1478 N 0.14557 0.24783 0.70429 0.0
N1479 N 0.20073 0.45786 0.70577 0.0
H1480 H 0.29284 0.41615 0.75375 0.0
H1481 H 0.28545 0.46937 0.73237 0.0
H1482 H 0.17565 0.46932 0.69459 0.0
H1483 H 0.22561 0.48094 0.72936 0.0
H1484 H 0.11154 0.22085 0.69027 0.0
H1485 H 0.15993 0.23028 0.72653 0.0
H1486 H 0.11225 0.25545 0.62962 0.0
H1487 H 0.10673 0.30838 0.6063 0.0
C1488 C 0.73626 0.21322 0.63815 0.0
C1489 C 0.71678 0.19062 0.67674 0.0
C1490 C 0.65228 0.10992 0.64076 0.0
C1491 C 0.66824 0.135 0.60152 0.0
N1492 N 0.72247 0.2146 0.56319 0.0
N1493 N 0.64824 0.12271 0.71122 0.0
C1494 C 0.70933 0.18797 0.6004 0.0
C1495 C 0.67302 0.14005 0.67706 0.0
N1496 N 0.78157 0.25759 0.63759 0.0
N1497 N 0.61593 0.05755 0.64389 0.0
H1498 H 0.66022 0.14592 0.73665 0.0
H1499 H 0.61338 0.08944 0.7124 0.0
H1500 H 0.5958 0.03429 0.61889 0.0
H1501 H 0.60796 0.03572 0.67196 0.0
H1502 H 0.79964 0.27383 0.61106 0.0
H1503 H 0.80324 0.27459 0.6645 0.0
H1504 H 0.74803 0.25528 0.56012 0.0
H1505 H 0.70556 0.19655 0.53524 0.0
C1506 C 0.85965 0.29679 0.44168 0.0
C1507 C 0.87035 0.32797 0.40396 0.0
C1508 C 0.94506 0.39801 0.43894 0.0
C1509 C 0.93041 0.37084 0.47767 0.0
N1510 N 0.86934 0.29772 0.51641 0.0
N1511 N 0.91816 0.41382 0.36963 0.0
C1512 C 0.88616 0.32123 0.47923 0.0
C1513 C 0.91134 0.3805 0.40366 0.0
N1514 N 0.82606 0.24343 0.44162 0.0
N1515 N 0.99182 0.43865 0.43521 0.0
H1516 H 0.8908 0.405 0.34599 0.0
H1517 H 0.94918 0.45099 0.3658 0.0
H1518 H 0.0191 0.45076 0.45943 0.0
H1519 H 1.00531 0.45586 0.40695 0.0
H1520 H 0.81908 0.21811 0.46798 0.0
H1521 H 0.80885 0.22359 0.41449 0.0
H1522 H 0.83495 0.26412 0.51925 0.0
H1523 H 0.88807 0.31498 0.54425 0.0
C1524 C 0.67889 0.80813 0.39322 0.0
C1525 C 0.71373 0.84367 0.36461 0.0
C1526 C 0.70268 0.91564 0.39526 0.0
C1527 C 0.67472 0.88136 0.42836 0.0
N1528 N 0.64284 0.79167 0.45845 0.0
N1529 N 0.72975 0.92643 0.32693 0.0
C1530 C 0.66489 0.82688 0.42674 0.0
C1531 C 0.71829 0.89658 0.36317 0.0
N1532 N 0.6521 0.75567 0.38431 0.0
N1533 N 0.71308 0.96741 0.39279 0.0
H1534 H 0.7285 0.91064 0.2996 0.0
H1535 H 0.73071 0.96262 0.32109 0.0
H1536 H 0.69785 0.98105 0.41076 0.0
H1537 H 0.73879 0.99763 0.37466 0.0
H1538 H 0.62243 0.72758 0.40006 0.0
H1539 H 0.65552 0.74286 0.35715 0.0
H1540 H 0.63839 0.75354 0.46174 0.0
H1541 H 0.63361 0.80263 0.48342 0.0
C1542 C 0.1471 0.62075 0.36968 0.0
C1543 C 0.18568 0.67543 0.37142 0.0
C1544 C 0.17909 0.66645 0.44748 0.0
C1545 C 0.14669 0.61014 0.44607 0.0
N1546 N 0.1046 0.53309 0.40456 0.0
N1547 N 0.21533 0.753 0.41085 0.0
C1548 C 0.1319 0.58736 0.40675 0.0
C1549 C 0.19576 0.69909 0.41024 0.0
N1550 N 0.12104 0.6016 0.3329 0.0
N1551 N 0.19419 0.68926 0.48478 0.0
H1552 H 0.22378 0.7773 0.38421 0.0
H1553 H 0.21855 0.77279 0.43666 0.0
H1554 H 0.17875 0.66812 0.51161 0.0
H1555 H 0.22322 0.72809 0.48925 0.0
H1556 H 0.08929 0.56432 0.33033 0.0
H1557 H 0.12779 0.62512 0.30561 0.0
H1558 H 0.09744 0.51357 0.3775 0.0
H1559 H 0.09299 0.50757 0.43062 0.0
C1560 C 0.35747 0.15218 0.34516 0.0
C1561 C 0.35714 0.20026 0.35396 0.0
C1562 C 0.41848 0.20141 0.41588 0.0
C1563 C 0.41504 0.15077 0.40898 0.0
N1564 N 0.37106 0.07679 0.36444 0.0
N1565 N 0.41312 0.28035 0.38826 0.0
C1566 C 0.38115 0.12628 0.37317 0.0
C1567 C 0.39445 0.22692 0.38733 0.0
N1568 N 0.34141 0.13464 0.30604 0.0
N1569 N 0.44326 0.22534 0.45169 0.0
H1570 H 0.40313 0.30011 0.36417 0.0
H1571 H 0.44311 0.30506 0.40795 0.0
H1572 H 0.45976 0.20925 0.47315 0.0
H1573 H 0.44287 0.25767 0.46181 0.0
H1574 H 0.34417 0.10433 0.29514 0.0
H1575 H 0.33417 0.15658 0.28202 0.0
H1576 H 0.34142 0.05194 0.34452 0.0
H1577 H 0.39035 0.05914 0.37901 0.0
C1578 C 0.74193 0.8721 0.66781 0.0
C1579 C 0.72179 0.84759 0.70621 0.0
C1580 C 0.65098 0.85976 0.67712 0.0
C1581 C 0.67052 0.8816 0.63822 0.0
N1582 N 0.73111 0.89629 0.59512 0.0
N1583 N 0.65215 0.81296 0.74391 0.0
C1584 C 0.71495 0.88411 0.63343 0.0
C1585 C 0.67471 0.83992 0.70946 0.0
N1586 N 0.78832 0.88578 0.66417 0.0
N1587 N 0.61055 0.8602 0.6841 0.0
H1588 H 0.66815 0.79848 0.76744 0.0
H1589 H 0.61644 0.80095 0.7477 0.0
H1590 H 0.59266 0.87371 0.66166 0.0
H1591 H 0.59679 0.85111 0.71265 0.0
H1592 H 0.80862 0.91082 0.64049 0.0
H1593 H 0.80652 0.87252 0.68602 0.0
H1594 H 0.75961 0.89266 0.58787 0.0
H1595 H 0.71315 0.90521 0.56949 0.0
C1596 C 0.66884 0.11413 0.34857 0.0
C1597 C 0.69925 0.16761 0.36124 0.0
C1598 C 0.65241 0.14408 0.42041 0.0
C1599 C 0.63036 0.08944 0.41282 0.0
N1600 N 0.6201 0.02099 0.3711 0.0
N1601 N 0.72609 0.22855 0.41613 0.0
C1602 C 0.63851 0.07393 0.37682 0.0
C1603 C 0.69252 0.18152 0.39891 0.0
N1604 N 0.67 0.10145 0.31017 0.0
N1605 N 0.63705 0.15985 0.44987 0.0
H1606 H 0.75655 0.25657 0.40188 0.0
H1607 H 0.72543 0.23767 0.44579 0.0
H1608 H 0.60679 0.133 0.46539 0.0
H1609 H 0.65088 0.19992 0.45534 0.0
H1610 H 0.64552 0.06424 0.29804 0.0
H1611 H 0.6927 0.12992 0.28931 0.0
H1612 H 0.62963 0.0075 0.34791 0.0
H1613 H 0.59776 0.99079 0.39145 0.0
C1614 C 0.91008 0.58322 0.39039 0.0
C1615 C 0.89734 0.6129 0.41159 0.0
C1616 C 0.97873 0.65795 0.44666 0.0
C1617 C 0.98391 0.61525 0.4371 0.0
N1618 N 0.96033 0.54386 0.39347 0.0
N1619 N 0.92055 0.68238 0.45831 0.0
C1620 C 0.95217 0.58117 0.4057 0.0
C1621 C 0.93241 0.65269 0.43847 0.0
N1622 N 0.88123 0.55636 0.35667 0.0
N1623 N 1.01716 0.70176 0.46486 0.0
H1624 H 0.88625 0.67809 0.45376 0.0
H1625 H 0.94348 0.7081 0.48144 0.0
H1626 H 0.05188 0.70703 0.46907 0.0
H1627 H 1.01576 0.73523 0.47071 0.0
H1628 H 0.88962 0.53595 0.33833 0.0
H1629 H 0.85134 0.55973 0.34464 0.0
H1630 H 0.93529 0.51401 0.37398 0.0
H1631 H 0.99171 0.54267 0.40423 0.0
C1632 C 0.41569 0.90033 0.3832 0.0
C1633 C 0.36751 0.85766 0.38665 0.0
C1634 C 0.38496 0.84237 0.45931 0.0
C1635 C 0.43343 0.88131 0.45475 0.0
N1636 N 0.49861 0.93898 0.4118 0.0
N1637 N 0.31375 0.77476 0.42323 0.0
C1638 C 0.45001 0.9082 0.41658 0.0
C1639 C 0.35341 0.82517 0.42352 0.0
N1640 N 0.42926 0.93142 0.3476 0.0
N1641 N 0.36954 0.82068 0.49722 0.0
H1642 H 0.29342 0.75706 0.39621 0.0
H1643 H 0.30528 0.74803 0.44884 0.0
H1644 H 0.39301 0.83125 0.52419 0.0
H1645 H 0.33295 0.79514 0.50179 0.0
H1646 H 0.46192 0.96771 0.34599 0.0
H1647 H 0.4074 0.92257 0.3199 0.0
H1648 H 0.51235 0.95487 0.38343 0.0
H1649 H 0.52554 0.94416 0.43536 0.0
C1650 C 0.23836 0.39078 0.49882 0.0
C1651 C 0.27027 0.44364 0.48397 0.0
C1652 C 0.20354 0.45869 0.46552 0.0
C1653 C 0.17285 0.40961 0.48567 0.0
N1654 N 0.15497 0.32223 0.51116 0.0
N1655 N 0.28515 0.53302 0.47418 0.0
C1656 C 0.18836 0.37311 0.49897 0.0
C1657 C 0.25353 0.4794 0.4731 0.0
N1658 N 0.25703 0.3594 0.51438 0.0
N1659 N 0.18496 0.48859 0.44576 0.0
H1660 H 0.32201 0.54853 0.48328 0.0
H1661 H 0.27375 0.56083 0.47067 0.0
H1662 H 0.14754 0.47332 0.44214 0.0
H1663 H 0.20617 0.52597 0.43133 0.0
H1664 H 0.23761 0.32331 0.53089 0.0
H1665 H 0.29385 0.37278 0.51418 0.0
H1666 H 0.16309 0.29255 0.52109 0.0
H1667 H 0.11799 0.30915 0.50874 0.0
C1668 C 0.40277 0.17504 0.595 0.0
C1669 C 0.43121 0.1943 0.63284 0.0
C1670 C 0.47068 0.14361 0.62785 0.0
C1671 C 0.44362 0.12532 0.58908 0.0
N1672 N 0.37537 0.11287 0.5407 0.0
N1673 N 0.47737 0.18159 0.69211 0.0
C1674 C 0.40624 0.13675 0.57462 0.0
C1675 C 0.45999 0.17308 0.65161 0.0
N1676 N 0.37494 0.19592 0.57729 0.0
N1677 N 0.50874 0.13599 0.6409 0.0
H1678 H 0.46969 0.203 0.71021 0.0
H1679 H 0.49478 0.16278 0.70863 0.0
H1680 H 0.51799 0.11422 0.62492 0.0
H1681 H 0.53323 0.15434 0.66626 0.0
H1682 H 0.35822 0.18888 0.54736 0.0
H1683 H 0.3707 0.22304 0.59175 0.0
H1684 H 0.34451 0.11541 0.53142 0.0
H1685 H 0.37799 0.08688 0.52343 0.0
C1686 C 0.91269 0.32067 0.71208 0.0
C1687 C 0.8874 0.34325 0.72632 0.0
C1688 C 0.9363 0.42499 0.687 0.0
C1689 C 0.95838 0.40279 0.6686 0.0
N1690 N 0.96477 0.32584 0.6617 0.0
N1691 N 0.85247 0.38826 0.68553 0.0
C1692 C 0.94646 0.34953 0.68108 0.0
C1693 C 0.89273 0.38971 0.70462 0.0
N1694 N 0.90023 0.26965 0.72451 0.0
N1695 N 0.95099 0.47784 0.68048 0.0
H1696 H 0.81838 0.35456 0.68893 0.0
H1697 H 0.85454 0.41649 0.66209 0.0
H1698 H 0.98283 0.50502 0.66681 0.0
H1699 H 0.93259 0.49394 0.69101 0.0
H1700 H 0.91966 0.25189 0.71942 0.0
H1701 H 0.86785 0.24443 0.7376 0.0
H1702 H 0.95457 0.2857 0.66627 0.0
H1703 H 0.98974 0.34677 0.63987 0.0
C1704 C 0.21779 0.72115 0.65171 0.0
C1705 C 0.20518 0.69808 0.69176 0.0
C1706 C 0.1803 0.61046 0.66855 0.0
C1707 C 0.18845 0.63299 0.62827 0.0
N1708 N 0.23787 0.70951 0.58642 0.0
N1709 N 0.16565 0.61969 0.73669 0.0
C1710 C 0.21589 0.68872 0.62191 0.0
C1711 C 0.18397 0.6422 0.69978 0.0
N1712 N 0.22958 0.77276 0.64163 0.0
N1713 N 0.16931 0.55891 0.67644 0.0
H1714 H 0.16645 0.64248 0.75946 0.0
H1715 H 0.14589 0.57855 0.74315 0.0
H1716 H 0.17 0.53723 0.65362 0.0
H1717 H 0.16523 0.54053 0.70584 0.0
H1718 H 0.23688 0.79023 0.61207 0.0
H1719 H 0.22593 0.7957 0.66126 0.0
H1720 H 0.26079 0.75038 0.58034 0.0
H1721 H 0.23701 0.68433 0.56567 0.0
loop_
_geom_bond_atom_site_label_1
_geom_bond_atom_site_label_2
_geom_bond_distance
_geom_bond_site_symmetry_2
_ccdc_geom_bond_type
Gd0 N31 2.661 . S
Gd0 N37 2.601 . S
Gd0 O44 2.545 . S
Gd0 O45 2.606 . S
Gd0 O47 2.429 . S
Gd0 O48 2.545 . S
Gd0 O49 2.412 . S
Gd0 O51 2.362 . S
Gd0 O52 2.324 . S
Gd0 C59 2.828 . S
Gd1 N10 2.661 . S
Gd1 N14 2.601 . S
Gd1 O45 2.362 . S
Gd1 O46 2.324 . S
Gd1 O50 2.545 . S
Gd1 O51 2.606 . S
Gd1 O53 2.429 . S
Gd1 O54 2.545 . S
Gd1 O55 2.412 . S
Gd1 C68 2.828 . S
C2 C5 1.417 . S
C2 C7 1.431 . S
C2 C8 1.412 . S
C3 C6 1.437 . S
C3 C7 1.317 . S
C3 H22 0.929 . S
C4 C5 1.426 . S
C4 C6 1.413 . S
C4 N14 1.359 . S
C5 C2 1.417 . S
C5 C4 1.426 . S
C5 N10 1.350 . S
C6 C3 1.437 . S
C6 C4 1.413 . S
C6 C16 1.391 . S
C7 C2 1.431 . S
C7 C3 1.317 . S
C7 H18 0.930 . S
C8 C2 1.412 . S
C8 C9 1.355 . S
C8 H20 0.930 . S
C9 C8 1.355 . S
C9 C11 1.402 . S
C9 H21 0.930 . S
N10 Gd1 2.661 . S
N10 C5 1.350 . S
N10 C11 1.307 . S
C11 C9 1.402 . S
C11 N10 1.307 . S
C11 H12 0.930 . S
H12 C11 0.930 . S
C13 N14 1.334 . S
C13 C15 1.394 . S
C13 H17 0.930 . S
N14 Gd1 2.601 . S
N14 C4 1.359 . S
N14 C13 1.334 . S
C15 C13 1.394 . S
C15 C16 1.359 . S
C15 H27 0.930 . S
C16 C6 1.391 . S
C16 C15 1.359 . S
C16 H28 0.929 . S
H17 C13 0.930 . S
H18 C7 0.930 . S
H19 C36 0.930 . S
H20 C8 0.930 . S
H21 C9 0.930 . S
H22 C3 0.929 . S
H23 C41 0.930 . S
H24 C32 0.930 . S
H25 C33 0.930 . S
H26 C57 0.929 . S
H27 C15 0.930 . S
H28 C16 0.929 . S
H29 C58 0.930 . S
H30 C39 0.930 . S
N31 Gd0 2.661 . S
N31 C35 1.350 . S
N31 C36 1.307 . S
C32 H24 0.930 . S
C32 C33 1.355 . S
C32 C34 1.412 . S
C33 H25 0.930 . S
C33 C32 1.355 . S
C33 C36 1.402 . S
C34 C32 1.412 . S
C34 C35 1.417 . S
C34 C58 1.431 . S
C35 N31 1.350 . S
C35 C34 1.417 . S
C35 C38 1.426 . S
C36 H19 0.930 . S
C36 N31 1.307 . S
C36 C33 1.402 . S
N37 Gd0 2.601 . S
N37 C38 1.359 . S
N37 C41 1.334 . S
C38 C35 1.426 . S
C38 N37 1.359 . S
C38 C42 1.413 . S
C39 H30 0.930 . S
C39 C40 1.359 . S
C39 C41 1.394 . S
C40 C39 1.359 . S
C40 C42 1.391 . S
C40 H43 0.929 . S
C41 H23 0.930 . S
C41 N37 1.334 . S
C41 C39 1.394 . S
C42 C38 1.413 . S
C42 C40 1.391 . S
C42 C57 1.437 . S
H43 C40 0.929 . S
O44 Gd0 2.545 . S
O44 C59 1.258 . S
O45 Gd0 2.606 . S
O45 Gd1 2.362 . S
O45 C56 1.284 . S
O46 Gd1 2.324 . S
O46 C66 1.254 . S
O47 Gd0 2.429 . S
O47 C66 1.268 . S
O48 Gd0 2.545 . S
O48 C56 1.250 . S
O49 Gd0 2.412 . S
O49 C59 1.252 . S
O50 Gd1 2.545 . S
O50 C68 1.258 . S
O51 Gd0 2.362 . S
O51 Gd1 2.606 . S
O51 C67 1.284 . S
O52 Gd0 2.324 . S
O52 C75 1.254 . S
O53 Gd1 2.429 . S
O53 C75 1.268 . S
O54 Gd1 2.545 . S
O54 C67 1.250 . S
O55 Gd1 2.412 . S
O55 C68 1.252 . S
C56 O45 1.284 . S
C56 O48 1.250 . S
C57 H26 0.929 . S
C57 C42 1.437 . S
C57 C58 1.317 . S
C58 H29 0.930 . S
C58 C34 1.431 . S
C58 C57 1.317 . S
C59 Gd0 2.828 . S
C59 O44 1.258 . S
C59 O49 1.252 . S
C59 C60 1.497 . S
C60 C59 1.497 . S
C60 C61 1.395 . S
C60 C62 1.380 . S
C61 C60 1.395 . S
C61 C64 1.398 . S
C61 H76 0.930 . S
C62 C60 1.380 . S
C62 C63 1.391 . S
C62 H77 0.930 . S
C63 C62 1.391 . S
C63 C65 1.387 . S
C64 C61 1.398 . S
C64 C65 1.380 . S
C64 H78 0.930 . S
C65 C63 1.387 . S
C65 C64 1.380 . S
C65 H79 0.930 . S
C66 O46 1.254 . S
C66 O47 1.268 . S
C67 O51 1.284 . S
C67 O54 1.250 . S
C68 Gd1 2.828 . S
C68 O50 1.258 . S
C68 O55 1.252 . S
C68 C69 1.497 . S
C69 C68 1.497 . S
C69 C70 1.395 . S
C69 C71 1.380 . S
C70 C69 1.395 . S
C70 C73 1.398 . S
C70 H80 0.930 . S
C71 C69 1.380 . S
C71 C72 1.391 . S
C71 H81 0.930 . S
C72 C71 1.391 . S
C72 C74 1.387 . S
C73 C70 1.398 . S
C73 C74 1.380 . S
C73 H82 0.930 1_545 S
C74 C72 1.387 . S
C74 C73 1.380 . S
C74 H83 0.930 . S
C75 O52 1.254 . S
C75 O53 1.268 . S
H76 C61 0.930 . S
H77 C62 0.930 . S
H78 C64 0.930 . S
H79 C65 0.930 . S
H80 C70 0.930 . S
H81 C71 0.930 . S
H82 C73 0.930 1_565 S
H83 C74 0.930 . S
Gd84 N115 2.661 . S
Gd84 N121 2.601 . S
Gd84 O128 2.545 . S
Gd84 O129 2.606 . S
Gd84 O131 2.429 . S
Gd84 O132 2.545 . S
Gd84 O133 2.412 . S
Gd84 O135 2.362 . S
Gd84 O136 2.324 . S
Gd84 C143 2.828 . S
Gd85 N94 2.661 . S
Gd85 N98 2.601 . S
Gd85 O129 2.362 . S
Gd85 O130 2.324 . S
Gd85 O134 2.545 . S
Gd85 O135 2.606 . S
Gd85 O137 2.429 . S
Gd85 O138 2.545 . S
Gd85 O139 2.412 . S
Gd85 C152 2.828 . S
C86 C89 1.417 . S
C86 C91 1.431 . S
C86 C92 1.412 . S
C87 C90 1.437 . S
C87 C91 1.317 . S
C87 H106 0.929 . S
C88 C89 1.426 . S
C88 C90 1.413 . S
C88 N98 1.359 . S
C89 C86 1.417 . S
C89 C88 1.426 . S
C89 N94 1.350 . S
C90 C87 1.437 . S
C90 C88 1.413 . S
C90 C100 1.391 . S
C91 C86 1.431 . S
C91 C87 1.317 . S
C91 H102 0.930 . S
C92 C86 1.412 . S
C92 C93 1.355 . S
C92 H104 0.930 1_655 S
C93 C92 1.355 . S
C93 C95 1.402 . S
C93 H105 0.930 . S
N94 Gd85 2.661 . S
N94 C89 1.350 . S
N94 C95 1.307 . S
C95 C93 1.402 . S
C95 N94 1.307 . S
C95 H96 0.930 . S
H96 C95 0.930 . S
C97 N98 1.334 . S
C97 C99 1.394 . S
C97 H101 0.930 . S
N98 Gd85 2.601 . S
N98 C88 1.359 . S
N98 C97 1.334 . S
C99 C97 1.394 . S
C99 C100 1.359 . S
C99 H111 0.930 . S
C100 C90 1.391 . S
C100 C99 1.359 . S
C100 H112 0.929 . S
H101 C97 0.930 . S
H102 C91 0.930 . S
H103 C120 0.930 . S
H104 C92 0.930 1_455 S
H105 C93 0.930 . S
H106 C87 0.929 . S
H107 C125 0.930 . S
H108 C116 0.930 . S
H109 C117 0.930 . S
H110 C141 0.929 . S
H111 C99 0.930 . S
H112 C100 0.929 . S
H113 C142 0.930 . S
H114 C123 0.930 . S
N115 Gd84 2.661 . S
N115 C119 1.350 . S
N115 C120 1.307 . S
C116 H108 0.930 . S
C116 C117 1.355 . S
C116 C118 1.412 . S
C117 H109 0.930 . S
C117 C116 1.355 . S
C117 C120 1.402 . S
C118 C116 1.412 . S
C118 C119 1.417 . S
C118 C142 1.431 . S
C119 N115 1.350 . S
C119 C118 1.417 . S
C119 C122 1.426 . S
C120 H103 0.930 . S
C120 N115 1.307 . S
C120 C117 1.402 . S
N121 Gd84 2.601 . S
N121 C122 1.359 . S
N121 C125 1.334 . S
C122 C119 1.426 . S
C122 N121 1.359 . S
C122 C126 1.413 . S
C123 H114 0.930 . S
C123 C124 1.359 . S
C123 C125 1.394 . S
C124 C123 1.359 . S
C124 C126 1.391 . S
C124 H127 0.929 . S
C125 H107 0.930 . S
C125 N121 1.334 . S
C125 C123 1.394 . S
C126 C122 1.413 . S
C126 C124 1.391 . S
C126 C141 1.437 . S
H127 C124 0.929 . S
O128 Gd84 2.545 . S
O128 C143 1.258 . S
O129 Gd84 2.606 . S
O129 Gd85 2.362 . S
O129 C140 1.284 . S
O130 Gd85 2.324 . S
O130 C150 1.254 . S
O131 Gd84 2.429 . S
O131 C150 1.268 . S
O132 Gd84 2.545 . S
O132 C140 1.250 . S
O133 Gd84 2.412 . S
O133 C143 1.252 . S
O134 Gd85 2.545 . S
O134 C152 1.258 . S
O135 Gd84 2.362 . S
O135 Gd85 2.606 . S
O135 C151 1.284 . S
O136 Gd84 2.324 . S
O136 C159 1.254 . S
O137 Gd85 2.429 . S
O137 C159 1.268 . S
O138 Gd85 2.545 . S
O138 C151 1.250 . S
O139 Gd85 2.412 . S
O139 C152 1.252 . S
C140 O129 1.284 . S
C140 O132 1.250 . S
C141 H110 0.929 . S
C141 C126 1.437 . S
C141 C142 1.317 . S
C142 H113 0.930 . S
C142 C118 1.431 . S
C142 C141 1.317 . S
C143 Gd84 2.828 . S
C143 O128 1.258 . S
C143 O133 1.252 . S
C143 C144 1.497 . S
C144 C143 1.497 . S
C144 C145 1.395 . S
C144 C146 1.380 . S
C145 C144 1.395 . S
C145 C148 1.398 . S
C145 H160 0.930 . S
C146 C144 1.380 . S
C146 C147 1.391 . S
C146 H161 0.930 . S
C147 C146 1.391 . S
C147 C149 1.387 . S
C148 C145 1.398 . S
C148 C149 1.380 . S
C148 H162 0.930 . S
C149 C147 1.387 . S
C149 C148 1.380 . S
C149 H163 0.930 . S
C150 O130 1.254 . S
C150 O131 1.268 . S
C151 O135 1.284 . S
C151 O138 1.250 . S
C152 Gd85 2.828 . S
C152 O134 1.258 . S
C152 O139 1.252 . S
C152 C153 1.497 . S
C153 C152 1.497 . S
C153 C154 1.395 . S
C153 C155 1.380 . S
C154 C153 1.395 . S
C154 C157 1.398 . S
C154 H164 0.930 . S
C155 C153 1.380 . S
C155 C156 1.391 . S
C155 H165 0.930 . S
C156 C155 1.391 . S
C156 C158 1.387 . S
C157 C154 1.398 . S
C157 C158 1.380 . S
C157 H166 0.930 . S
C158 C156 1.387 . S
C158 C157 1.380 . S
C158 H167 0.930 . S
C159 O136 1.254 . S
C159 O137 1.268 . S
H160 C145 0.930 . S
H161 C146 0.930 . S
H162 C148 0.930 . S
H163 C149 0.930 . S
H164 C154 0.930 . S
H165 C155 0.930 . S
H166 C157 0.930 . S
H167 C158 0.930 . S
Gd168 N199 2.661 . S
Gd168 N205 2.601 . S
Gd168 O212 2.545 . S
Gd168 O213 2.606 . S
Gd168 O215 2.429 . S
Gd168 O216 2.545 . S
Gd168 O217 2.412 . S
Gd168 O219 2.362 . S
Gd168 O220 2.324 . S
Gd168 C227 2.828 . S
Gd169 N178 2.661 . S
Gd169 N182 2.601 . S
Gd169 O213 2.362 . S
Gd169 O214 2.324 . S
Gd169 O218 2.545 . S
Gd169 O219 2.606 . S
Gd169 O221 2.429 . S
Gd169 O222 2.545 . S
Gd169 O223 2.412 . S
Gd169 C236 2.828 . S
C170 C173 1.417 . S
C170 C175 1.431 . S
C170 C176 1.412 . S
C171 C174 1.437 . S
C171 C175 1.317 . S
C171 H190 0.929 . S
C172 C173 1.426 . S
C172 C174 1.413 . S
C172 N182 1.359 . S
C173 C170 1.417 . S
C173 C172 1.426 . S
C173 N178 1.350 . S
C174 C171 1.437 . S
C174 C172 1.413 . S
C174 C184 1.377 1_565 S
C175 C170 1.431 . S
C175 C171 1.317 . S
C175 H186 0.930 . S
C176 C170 1.412 . S
C176 C177 1.355 . S
C176 H188 0.930 . S
C177 C176 1.355 . S
C177 C179 1.402 . S
C177 H189 0.930 . S
N178 Gd169 2.661 . S
N178 C173 1.350 . S
N178 C179 1.307 . S
C179 C177 1.402 . S
C179 N178 1.307 . S
C179 H180 0.930 . S
H180 C179 0.930 . S
C181 N182 1.334 . S
C181 C183 1.394 1_565 S
C181 H185 0.930 . S
N182 Gd169 2.601 . S
N182 C172 1.359 . S
N182 C181 1.334 . S
C183 C181 1.394 1_545 S
C183 C184 1.367 . S
C183 H195 0.930 . S
C184 C174 1.377 1_545 S
C184 C183 1.367 . S
C184 H196 0.936 . S
H185 C181 0.930 . S
H186 C175 0.930 . S
H187 C204 0.930 . S
H188 C176 0.930 . S
H189 C177 0.930 . S
H190 C171 0.929 . S
H191 C209 0.930 . S
H192 C200 0.930 . S
H193 C201 0.930 . S
H194 C225 0.929 . S
H195 C183 0.930 . S
H196 C184 0.936 . S
H197 C226 0.930 . S
H198 C207 0.930 . S
N199 Gd168 2.661 . S
N199 C203 1.350 . S
N199 C204 1.307 . S
C200 H192 0.930 . S
C200 C201 1.355 . S
C200 C202 1.412 . S
C201 H193 0.930 . S
C201 C200 1.355 . S
C201 C204 1.402 . S
C202 C200 1.412 . S
C202 C203 1.417 . S
C202 C226 1.431 . S
C203 N199 1.350 . S
C203 C202 1.417 . S
C203 C206 1.426 . S
C204 H187 0.930 . S
C204 N199 1.307 . S
C204 C201 1.402 . S
N205 Gd168 2.601 . S
N205 C206 1.359 . S
N205 C209 1.334 . S
C206 C203 1.426 . S
C206 N205 1.359 . S
C206 C210 1.413 . S
C207 H198 0.930 . S
C207 C208 1.359 . S
C207 C209 1.394 . S
C208 C207 1.359 . S
C208 C210 1.391 . S
C208 H211 0.929 . S
C209 H191 0.930 . S
C209 N205 1.334 . S
C209 C207 1.394 . S
C210 C206 1.413 . S
C210 C208 1.391 . S
C210 C225 1.437 . S
H211 C208 0.929 . S
O212 Gd168 2.545 . S
O212 C227 1.258 . S
O213 Gd168 2.606 . S
O213 Gd169 2.362 . S
O213 C224 1.284 . S
O214 Gd169 2.324 . S
O214 C234 1.254 . S
O215 Gd168 2.429 . S
O215 C234 1.268 . S
O216 Gd168 2.545 . S
O216 C224 1.250 . S
O217 Gd168 2.412 . S
O217 C227 1.252 . S
O218 Gd169 2.545 . S
O218 C236 1.258 . S
O219 Gd168 2.362 . S
O219 Gd169 2.606 . S
O219 C235 1.284 . S
O220 Gd168 2.324 . S
O220 C243 1.254 . S
O221 Gd169 2.429 . S
O221 C243 1.268 . S
O222 Gd169 2.545 . S
O222 C235 1.250 . S
O223 Gd169 2.412 . S
O223 C236 1.252 . S
C224 O213 1.284 . S
C224 O216 1.250 . S
C225 H194 0.929 . S
C225 C210 1.437 . S
C225 C226 1.317 . S
C226 H197 0.930 . S
C226 C202 1.431 . S
C226 C225 1.317 . S
C227 Gd168 2.828 . S
C227 O212 1.258 . S
C227 O217 1.252 . S
C227 C228 1.497 . S
C228 C227 1.497 . S
C228 C229 1.395 . S
C228 C230 1.380 . S
C229 C228 1.395 . S
C229 C232 1.398 . S
C229 H244 0.930 . S
C230 C228 1.380 . S
C230 C231 1.391 . S
C230 H245 0.930 . S
C231 C230 1.391 . S
C231 C233 1.387 . S
C232 C229 1.398 . S
C232 C233 1.380 . S
C232 H246 0.930 . S
C233 C231 1.387 . S
C233 C232 1.380 . S
C233 H247 0.930 . S
C234 O214 1.254 . S
C234 O215 1.268 . S
C235 O219 1.284 . S
C235 O222 1.250 . S
C236 Gd169 2.828 . S
C236 O218 1.258 . S
C236 O223 1.252 . S
C236 C237 1.497 . S
C237 C236 1.497 . S
C237 C238 1.395 1_565 S
C237 C239 1.380 . S
C238 C237 1.395 1_545 S
C238 C241 1.398 . S
C238 H248 0.930 . S
C239 C237 1.380 . S
C239 C240 1.391 . S
C239 H249 0.930 . S
C240 C239 1.391 . S
C240 C242 1.387 1_565 S
C241 C238 1.398 . S
C241 C242 1.380 . S
C241 H250 0.930 . S
C242 C240 1.387 1_545 S
C242 C241 1.380 . S
C242 H251 0.930 . S
C243 O220 1.254 . S
C243 O221 1.268 . S
H244 C229 0.930 . S
H245 C230 0.930 . S
H246 C232 0.930 . S
H247 C233 0.930 . S
H248 C238 0.930 . S
H249 C239 0.930 . S
H250 C241 0.930 . S
H251 C242 0.930 . S
Gd252 N283 2.661 . S
Gd252 N289 2.601 . S
Gd252 O296 2.545 . S
Gd252 O297 2.606 . S
Gd252 O299 2.429 . S
Gd252 O300 2.545 . S
Gd252 O301 2.412 . S
Gd252 O303 2.362 . S
Gd252 O304 2.324 . S
Gd252 C311 2.828 . S
Gd253 N262 2.661 . S
Gd253 N266 2.601 . S
Gd253 O297 2.362 . S
Gd253 O298 2.324 . S
Gd253 O302 2.545 . S
Gd253 O303 2.606 . S
Gd253 O305 2.429 . S
Gd253 O306 2.545 . S
Gd253 O307 2.412 . S
Gd253 C320 2.828 . S
C254 C257 1.417 . S
C254 C259 1.431 . S
C254 C260 1.412 . S
C255 C258 1.437 . S
C255 C259 1.317 . S
C255 H274 0.929 . S
C256 C257 1.426 . S
C256 C258 1.413 . S
C256 N266 1.359 . S
C257 C254 1.417 . S
C257 C256 1.426 . S
C257 N262 1.350 . S
C258 C255 1.437 . S
C258 C256 1.413 . S
C258 C268 1.391 . S
C259 C254 1.431 . S
C259 C255 1.317 . S
C259 H270 0.930 . S
C260 C254 1.412 . S
C260 C261 1.355 . S
C260 H272 0.930 . S
C261 C260 1.355 . S
C261 C263 1.402 . S
C261 H273 0.930 . S
N262 Gd253 2.661 . S
N262 C257 1.350 . S
N262 C263 1.307 . S
C263 C261 1.402 . S
C263 N262 1.307 . S
C263 H264 0.930 . S
H264 C263 0.930 . S
C265 N266 1.334 . S
C265 C267 1.394 . S
C265 H269 0.930 . S
N266 Gd253 2.601 . S
N266 C256 1.359 . S
N266 C265 1.334 . S
C267 C265 1.394 . S
C267 C268 1.359 . S
C267 H279 0.930 . S
C268 C258 1.391 . S
C268 C267 1.359 . S
C268 H280 0.929 . S
H269 C265 0.930 . S
H270 C259 0.930 . S
H271 C288 0.930 . S
H272 C260 0.930 . S
H273 C261 0.930 . S
H274 C255 0.929 . S
H275 C293 0.930 . S
H276 C284 0.930 . S
H277 C285 0.929 1_545 S
H278 C309 0.929 . S
H279 C267 0.930 . S
H280 C268 0.929 . S
H281 C310 0.930 . S
H282 C291 0.930 . S
N283 Gd252 2.661 . S
N283 C287 1.350 . S
N283 C288 1.307 . S
C284 H276 0.930 . S
C284 C285 1.345 1_545 S
C284 C286 1.412 1_545 S
C285 H277 0.929 1_565 S
C285 C284 1.345 1_565 S
C285 C288 1.413 . S
C286 C284 1.412 1_565 S
C286 C287 1.417 . S
C286 C310 1.431 1_565 S
C287 N283 1.350 . S
C287 C286 1.417 . S
C287 C290 1.426 . S
C288 H271 0.930 . S
C288 N283 1.307 . S
C288 C285 1.413 . S
N289 Gd252 2.601 . S
N289 C290 1.359 . S
N289 C293 1.334 . S
C290 C287 1.426 . S
C290 N289 1.359 . S
C290 C294 1.413 . S
C291 H282 0.930 . S
C291 C292 1.359 . S
C291 C293 1.394 . S
C292 C291 1.359 . S
C292 C294 1.391 . S
C292 H295 0.929 . S
C293 H275 0.930 . S
C293 N289 1.334 . S
C293 C291 1.394 . S
C294 C290 1.413 . S
C294 C292 1.391 . S
C294 C309 1.437 . S
H295 C292 0.929 . S
O296 Gd252 2.545 . S
O296 C311 1.258 . S
O297 Gd252 2.606 . S
O297 Gd253 2.362 . S
O297 C308 1.284 . S
O298 Gd253 2.324 . S
O298 C318 1.254 . S
O299 Gd252 2.429 . S
O299 C318 1.268 . S
O300 Gd252 2.545 . S
O300 C308 1.250 . S
O301 Gd252 2.412 . S
O301 C311 1.252 . S
O302 Gd253 2.545 . S
O302 C320 1.258 . S
O303 Gd252 2.362 . S
O303 Gd253 2.606 . S
O303 C319 1.284 . S
O304 Gd252 2.324 . S
O304 C327 1.254 . S
O305 Gd253 2.429 . S
O305 C327 1.268 . S
O306 Gd253 2.545 . S
O306 C319 1.250 . S
O307 Gd253 2.412 . S
O307 C320 1.252 . S
C308 O297 1.284 . S
C308 O300 1.250 . S
C309 H278 0.929 . S
C309 C294 1.437 . S
C309 C310 1.317 1_565 S
C310 H281 0.930 . S
C310 C286 1.431 1_545 S
C310 C309 1.317 1_545 S
C311 Gd252 2.828 . S
C311 O296 1.258 . S
C311 O301 1.252 . S
C311 C312 1.497 . S
C312 C311 1.497 . S
C312 C313 1.395 . S
C312 C314 1.380 . S
C313 C312 1.395 . S
C313 C316 1.398 . S
C313 H328 0.930 . S
C314 C312 1.380 . S
C314 C315 1.391 . S
C314 H329 0.930 . S
C315 C314 1.391 . S
C315 C317 1.387 . S
C316 C313 1.398 . S
C316 C317 1.380 . S
C316 H330 0.930 . S
C317 C315 1.387 . S
C317 C316 1.380 . S
C317 H331 0.930 . S
C318 O298 1.254 . S
C318 O299 1.268 . S
C319 O303 1.284 . S
C319 O306 1.250 . S
C320 Gd253 2.828 . S
C320 O302 1.258 . S
C320 O307 1.252 . S
C320 C321 1.497 . S
C321 C320 1.497 . S
C321 C322 1.395 . S
C321 C323 1.380 . S
C322 C321 1.395 . S
C322 C325 1.398 . S
C322 H332 0.930 . S
C323 C321 1.380 . S
C323 C324 1.391 . S
C323 H333 0.930 . S
C324 C323 1.391 . S
C324 C326 1.387 . S
C325 C322 1.398 . S
C325 C326 1.380 . S
C325 H334 0.930 . S
C326 C324 1.387 . S
C326 C325 1.380 . S
C326 H335 0.930 . S
C327 O304 1.254 . S
C327 O305 1.268 . S
H328 C313 0.930 . S
H329 C314 0.930 . S
H330 C316 0.930 . S
H331 C317 0.930 . S
H332 C322 0.930 . S
H333 C323 0.930 . S
H334 C325 0.930 . S
H335 C326 0.930 . S
Gd336 N367 2.661 . S
Gd336 N373 2.601 . S
Gd336 O380 2.545 . S
Gd336 O381 2.606 . S
Gd336 O383 2.429 . S
Gd336 O384 2.545 . S
Gd336 O385 2.412 . S
Gd336 O387 2.362 . S
Gd336 O388 2.324 . S
Gd336 C395 2.828 . S
Gd337 N346 2.661 . S
Gd337 N350 2.601 . S
Gd337 O381 2.362 . S
Gd337 O382 2.324 . S
Gd337 O386 2.545 . S
Gd337 O387 2.606 . S
Gd337 O389 2.429 . S
Gd337 O390 2.545 . S
Gd337 O391 2.412 . S
Gd337 C404 2.828 . S
C338 C341 1.417 . S
C338 C343 1.431 . S
C338 C344 1.412 . S
C339 C342 1.437 . S
C339 C343 1.317 . S
C339 H358 0.929 . S
C340 C341 1.426 . S
C340 C342 1.413 . S
C340 N350 1.359 . S
C341 C338 1.417 . S
C341 C340 1.426 . S
C341 N346 1.350 . S
C342 C339 1.437 . S
C342 C340 1.413 . S
C342 C352 1.391 . S
C343 C338 1.431 . S
C343 C339 1.317 . S
C343 H354 0.930 . S
C344 C338 1.412 . S
C344 C345 1.355 . S
C344 H356 0.930 . S
C345 C344 1.355 . S
C345 C347 1.402 . S
C345 H357 0.930 . S
N346 Gd337 2.661 . S
N346 C341 1.350 . S
N346 C347 1.307 . S
C347 C345 1.402 . S
C347 N346 1.307 . S
C347 H348 0.930 . S
H348 C347 0.930 . S
C349 N350 1.334 . S
C349 C351 1.394 . S
C349 H353 0.930 . S
N350 Gd337 2.601 . S
N350 C340 1.359 . S
N350 C349 1.334 . S
C351 C349 1.394 . S
C351 C352 1.359 . S
C351 H363 0.930 . S
C352 C342 1.391 . S
C352 C351 1.359 . S
C352 H364 0.929 . S
H353 C349 0.930 . S
H354 C343 0.930 . S
H355 C372 0.930 . S
H356 C344 0.930 . S
H357 C345 0.930 . S
H358 C339 0.929 . S
H359 C377 0.930 . S
H360 C368 0.930 . S
H361 C369 0.930 . S
H362 C393 0.929 . S
H363 C351 0.930 . S
H364 C352 0.929 . S
H365 C394 0.930 . S
H366 C375 0.930 . S
N367 Gd336 2.661 . S
N367 C371 1.350 . S
N367 C372 1.307 . S
C368 H360 0.930 . S
C368 C369 1.355 . S
C368 C370 1.412 . S
C369 H361 0.930 . S
C369 C368 1.355 . S
C369 C372 1.402 . S
C370 C368 1.412 . S
C370 C371 1.417 . S
C370 C394 1.431 . S
C371 N367 1.350 . S
C371 C370 1.417 . S
C371 C374 1.426 . S
C372 H355 0.930 . S
C372 N367 1.307 . S
C372 C369 1.402 . S
N373 Gd336 2.601 . S
N373 C374 1.359 . S
N373 C377 1.334 . S
C374 C371 1.426 . S
C374 N373 1.359 . S
C374 C378 1.413 . S
C375 H366 0.930 . S
C375 C376 1.359 . S
C375 C377 1.394 . S
C376 C375 1.359 . S
C376 C378 1.391 . S
C376 H379 0.929 . S
C377 H359 0.930 . S
C377 N373 1.334 . S
C377 C375 1.394 . S
C378 C374 1.413 . S
C378 C376 1.391 . S
C378 C393 1.437 . S
H379 C376 0.929 . S
O380 Gd336 2.545 . S
O380 C395 1.258 . S
O381 Gd336 2.606 . S
O381 Gd337 2.362 . S
O381 C392 1.284 . S
O382 Gd337 2.324 . S
O382 C402 1.254 . S
O383 Gd336 2.429 . S
O383 C402 1.268 . S
O384 Gd336 2.545 . S
O384 C392 1.250 . S
O385 Gd336 2.412 . S
O385 C395 1.252 . S
O386 Gd337 2.545 . S
O386 C404 1.258 . S
O387 Gd336 2.362 . S
O387 Gd337 2.606 . S
O387 C403 1.284 . S
O388 Gd336 2.324 . S
O388 C411 1.254 . S
O389 Gd337 2.429 . S
O389 C411 1.268 . S
O390 Gd337 2.545 . S
O390 C403 1.250 . S
O391 Gd337 2.412 . S
O391 C404 1.252 . S
C392 O381 1.284 . S
C392 O384 1.250 . S
C393 H362 0.929 . S
C393 C378 1.437 . S
C393 C394 1.317 . S
C394 H365 0.930 . S
C394 C370 1.431 . S
C394 C393 1.317 . S
C395 Gd336 2.828 . S
C395 O380 1.258 . S
C395 O385 1.252 . S
C395 C396 1.497 . S
C396 C395 1.497 . S
C396 C397 1.395 . S
C396 C398 1.380 . S
C397 C396 1.395 . S
C397 C400 1.398 . S
C397 H412 0.930 . S
C398 C396 1.380 . S
C398 C399 1.391 . S
C398 H413 0.930 . S
C399 C398 1.391 . S
C399 C401 1.387 . S
C400 C397 1.398 . S
C400 C401 1.380 . S
C400 H414 0.930 1_565 S
C401 C399 1.387 . S
C401 C400 1.380 . S
C401 H415 0.930 . S
C402 O382 1.254 . S
C402 O383 1.268 . S
C403 O387 1.284 . S
C403 O390 1.250 . S
C404 Gd337 2.828 . S
C404 O386 1.258 . S
C404 O391 1.252 . S
C404 C405 1.497 . S
C405 C404 1.497 . S
C405 C406 1.395 . S
C405 C407 1.380 . S
C406 C405 1.395 . S
C406 C409 1.398 . S
C406 H416 0.930 . S
C407 C405 1.380 . S
C407 C408 1.391 . S
C407 H417 0.930 . S
C408 C407 1.391 . S
C408 C410 1.387 . S
C409 C406 1.398 . S
C409 C410 1.380 . S
C409 H418 0.930 . S
C410 C408 1.387 . S
C410 C409 1.380 . S
C410 H419 0.930 . S
C411 O388 1.254 . S
C411 O389 1.268 . S
H412 C397 0.930 . S
H413 C398 0.930 . S
H414 C400 0.930 1_545 S
H415 C401 0.930 . S
H416 C406 0.930 . S
H417 C407 0.930 . S
H418 C409 0.930 . S
H419 C410 0.930 . S
Gd420 N451 2.661 . S
Gd420 N457 2.601 . S
Gd420 O464 2.545 . S
Gd420 O465 2.606 . S
Gd420 O467 2.429 . S
Gd420 O468 2.545 . S
Gd420 O469 2.412 . S
Gd420 O471 2.362 . S
Gd420 O472 2.324 . S
Gd420 C479 2.828 . S
Gd421 N430 2.661 . S
Gd421 N434 2.601 . S
Gd421 O465 2.362 . S
Gd421 O466 2.324 . S
Gd421 O470 2.545 . S
Gd421 O471 2.606 . S
Gd421 O473 2.429 . S
Gd421 O474 2.545 . S
Gd421 O475 2.412 . S
Gd421 C488 2.828 . S
C422 C425 1.417 . S
C422 C427 1.431 . S
C422 C428 1.412 . S
C423 C426 1.437 . S
C423 C427 1.317 . S
C423 H442 0.929 . S
C424 C425 1.426 . S
C424 C426 1.413 . S
C424 N434 1.359 . S
C425 C422 1.417 . S
C425 C424 1.426 . S
C425 N430 1.350 . S
C426 C423 1.437 . S
C426 C424 1.413 . S
C426 C436 1.391 . S
C427 C422 1.431 . S
C427 C423 1.317 . S
C427 H438 0.930 . S
C428 C422 1.412 . S
C428 C429 1.355 . S
C428 H440 0.930 . S
C429 C428 1.355 . S
C429 C431 1.402 . S
C429 H441 0.930 . S
N430 Gd421 2.661 . S
N430 C425 1.350 . S
N430 C431 1.307 . S
C431 C429 1.402 . S
C431 N430 1.307 . S
C431 H432 0.930 . S
H432 C431 0.930 . S
C433 N434 1.334 . S
C433 C435 1.394 . S
C433 H437 0.930 . S
N434 Gd421 2.601 . S
N434 C424 1.359 . S
N434 C433 1.334 . S
C435 C433 1.394 . S
C435 C436 1.359 . S
C435 H447 0.930 . S
C436 C426 1.391 . S
C436 C435 1.359 . S
C436 H448 0.929 . S
H437 C433 0.930 . S
H438 C427 0.930 . S
H439 C456 0.930 . S
H440 C428 0.930 . S
H441 C429 0.930 . S
H442 C423 0.929 . S
H443 C461 0.930 . S
H444 C452 0.930 . S
H445 C453 0.930 . S
H446 C477 0.929 . S
H447 C435 0.930 . S
H448 C436 0.929 . S
H449 C478 0.930 . S
H450 C459 0.930 . S
N451 Gd420 2.661 . S
N451 C455 1.350 . S
N451 C456 1.307 . S
C452 H444 0.930 . S
C452 C453 1.355 . S
C452 C454 1.412 . S
C453 H445 0.930 . S
C453 C452 1.355 . S
C453 C456 1.402 . S
C454 C452 1.412 . S
C454 C455 1.417 . S
C454 C478 1.431 . S
C455 N451 1.350 . S
C455 C454 1.417 . S
C455 C458 1.426 . S
C456 H439 0.930 . S
C456 N451 1.307 . S
C456 C453 1.402 . S
N457 Gd420 2.601 . S
N457 C458 1.359 . S
N457 C461 1.334 . S
C458 C455 1.426 . S
C458 N457 1.359 . S
C458 C462 1.413 . S
C459 H450 0.930 . S
C459 C460 1.359 . S
C459 C461 1.394 . S
C460 C459 1.359 . S
C460 C462 1.391 . S
C460 H463 0.929 . S
C461 H443 0.930 . S
C461 N457 1.334 . S
C461 C459 1.394 . S
C462 C458 1.413 . S
C462 C460 1.391 . S
C462 C477 1.437 . S
H463 C460 0.929 . S
O464 Gd420 2.545 . S
O464 C479 1.258 . S
O465 Gd420 2.606 . S
O465 Gd421 2.362 . S
O465 C476 1.284 . S
O466 Gd421 2.324 . S
O466 C486 1.254 . S
O467 Gd420 2.429 . S
O467 C486 1.268 . S
O468 Gd420 2.545 . S
O468 C476 1.250 . S
O469 Gd420 2.412 . S
O469 C479 1.252 . S
O470 Gd421 2.545 . S
O470 C488 1.258 . S
O471 Gd420 2.362 . S
O471 Gd421 2.606 . S
O471 C487 1.284 . S
O472 Gd420 2.324 . S
O472 C495 1.254 . S
O473 Gd421 2.429 . S
O473 C495 1.268 . S
O474 Gd421 2.545 . S
O474 C487 1.250 . S
O475 Gd421 2.412 . S
O475 C488 1.252 . S
C476 O465 1.284 . S
C476 O468 1.250 . S
C477 H446 0.929 . S
C477 C462 1.437 . S
C477 C478 1.317 . S
C478 H449 0.930 . S
C478 C454 1.431 . S
C478 C477 1.317 . S
C479 Gd420 2.828 . S
C479 O464 1.258 . S
C479 O469 1.252 . S
C479 C480 1.497 . S
C480 C479 1.497 . S
C480 C481 1.395 . S
C480 C482 1.380 . S
C481 C480 1.395 . S
C481 C484 1.398 . S
C481 H496 0.930 . S
C482 C480 1.380 . S
C482 C483 1.391 . S
C482 H497 0.930 . S
C483 C482 1.391 . S
C483 C485 1.387 . S
C484 C481 1.398 . S
C484 C485 1.380 . S
C484 H498 0.930 . S
C485 C483 1.387 . S
C485 C484 1.380 . S
C485 H499 0.930 . S
C486 O466 1.254 . S
C486 O467 1.268 . S
C487 O471 1.284 . S
C487 O474 1.250 . S
C488 Gd421 2.828 . S
C488 O470 1.258 . S
C488 O475 1.252 . S
C488 C489 1.497 . S
C489 C488 1.497 . S
C489 C490 1.395 . S
C489 C491 1.380 . S
C490 C489 1.395 . S
C490 C493 1.398 . S
C490 H500 0.930 . S
C491 C489 1.380 . S
C491 C492 1.391 . S
C491 H501 0.930 . S
C492 C491 1.391 . S
C492 C494 1.387 . S
C493 C490 1.398 . S
C493 C494 1.380 . S
C493 H502 0.944 . S
C494 C492 1.387 . S
C494 C493 1.380 . S
C494 H503 0.930 . S
C495 O472 1.254 . S
C495 O473 1.268 . S
H496 C481 0.930 . S
H497 C482 0.930 . S
H498 C484 0.930 . S
H499 C485 0.930 . S
H500 C490 0.930 . S
H501 C491 0.930 . S
H502 C493 0.944 . S
H503 C494 0.930 . S
Gd504 N535 2.661 . S
Gd504 N541 2.601 . S
Gd504 O548 2.545 . S
Gd504 O549 2.606 . S
Gd504 O551 2.429 . S
Gd504 O552 2.545 . S
Gd504 O553 2.412 . S
Gd504 O555 2.362 . S
Gd504 O556 2.324 . S
Gd504 C563 2.828 . S
Gd505 N514 2.661 . S
Gd505 N518 2.601 . S
Gd505 O549 2.362 . S
Gd505 O550 2.324 . S
Gd505 O554 2.545 . S
Gd505 O555 2.606 . S
Gd505 O557 2.429 . S
Gd505 O558 2.545 . S
Gd505 O559 2.412 . S
Gd505 C572 2.828 . S
C506 C509 1.417 . S
C506 C511 1.431 . S
C506 C512 1.412 . S
C507 C510 1.437 . S
C507 C511 1.317 . S
C507 H526 0.929 . S
C508 C509 1.426 . S
C508 C510 1.413 . S
C508 N518 1.359 . S
C509 C506 1.417 . S
C509 C508 1.426 . S
C509 N514 1.350 . S
C510 C507 1.437 . S
C510 C508 1.413 . S
C510 C520 1.391 . S
C511 C506 1.431 . S
C511 C507 1.317 . S
C511 H522 0.930 . S
C512 C506 1.412 . S
C512 C513 1.355 . S
C512 H524 0.930 . S
C513 C512 1.355 . S
C513 C515 1.402 . S
C513 H525 0.930 . S
N514 Gd505 2.661 . S
N514 C509 1.350 . S
N514 C515 1.307 . S
C515 C513 1.402 . S
C515 N514 1.307 . S
C515 H516 0.930 . S
H516 C515 0.930 . S
C517 N518 1.334 . S
C517 C519 1.394 . S
C517 H521 0.930 . S
N518 Gd505 2.601 . S
N518 C508 1.359 . S
N518 C517 1.334 . S
C519 C517 1.394 . S
C519 C520 1.359 . S
C519 H531 0.930 . S
C520 C510 1.391 . S
C520 C519 1.359 . S
C520 H532 0.929 . S
H521 C517 0.930 . S
H522 C511 0.930 . S
H523 C540 0.930 . S
H524 C512 0.930 . S
H525 C513 0.930 . S
H526 C507 0.929 . S
H527 C545 0.930 . S
H528 C536 0.930 . S
H529 C537 0.930 . S
H530 C561 0.929 . S
H531 C519 0.930 . S
H532 C520 0.929 . S
H533 C562 0.930 . S
H534 C543 0.930 . S
N535 Gd504 2.661 . S
N535 C539 1.350 . S
N535 C540 1.307 . S
C536 H528 0.930 . S
C536 C537 1.355 . S
C536 C538 1.412 . S
C537 H529 0.930 . S
C537 C536 1.355 . S
C537 C540 1.402 . S
C538 C536 1.412 . S
C538 C539 1.417 . S
C538 C562 1.431 . S
C539 N535 1.350 . S
C539 C538 1.417 . S
C539 C542 1.426 . S
C540 H523 0.930 . S
C540 N535 1.307 . S
C540 C537 1.402 . S
N541 Gd504 2.601 . S
N541 C542 1.359 . S
N541 C545 1.334 . S
C542 C539 1.426 . S
C542 N541 1.359 . S
C542 C546 1.413 . S
C543 H534 0.930 . S
C543 C544 1.359 . S
C543 C545 1.394 . S
C544 C543 1.359 . S
C544 C546 1.391 . S
C544 H547 0.929 . S
C545 H527 0.930 . S
C545 N541 1.334 . S
C545 C543 1.394 . S
C546 C542 1.413 . S
C546 C544 1.391 . S
C546 C561 1.437 . S
H547 C544 0.929 . S
O548 Gd504 2.545 . S
O548 C563 1.258 . S
O549 Gd504 2.606 . S
O549 Gd505 2.362 . S
O549 C560 1.284 . S
O550 Gd505 2.324 . S
O550 C570 1.254 . S
O551 Gd504 2.429 . S
O551 C570 1.268 . S
O552 Gd504 2.545 . S
O552 C560 1.250 . S
O553 Gd504 2.412 . S
O553 C563 1.252 . S
O554 Gd505 2.545 . S
O554 C572 1.258 . S
O555 Gd504 2.362 . S
O555 Gd505 2.606 . S
O555 C571 1.284 . S
O556 Gd504 2.324 . S
O556 C579 1.254 . S
O557 Gd505 2.429 . S
O557 C579 1.268 . S
O558 Gd505 2.545 . S
O558 C571 1.250 . S
O559 Gd505 2.412 . S
O559 C572 1.252 . S
C560 O549 1.284 . S
C560 O552 1.250 . S
C561 H530 0.929 . S
C561 C546 1.437 . S
C561 C562 1.317 . S
C562 H533 0.930 . S
C562 C538 1.431 . S
C562 C561 1.317 . S
C563 Gd504 2.828 . S
C563 O548 1.258 . S
C563 O553 1.252 . S
C563 C564 1.497 . S
C564 C563 1.497 . S
C564 C565 1.395 . S
C564 C566 1.380 . S
C565 C564 1.395 . S
C565 C568 1.398 . S
C565 H580 0.930 . S
C566 C564 1.380 . S
C566 C567 1.391 . S
C566 H581 0.930 . S
C567 C566 1.391 . S
C567 C569 1.387 . S
C568 C565 1.398 . S
C568 C569 1.380 . S
C568 H582 0.930 . S
C569 C567 1.387 . S
C569 C568 1.380 . S
C569 H583 0.930 . S
C570 O550 1.254 . S
C570 O551 1.268 . S
C571 O555 1.284 . S
C571 O558 1.250 . S
C572 Gd505 2.828 . S
C572 O554 1.258 . S
C572 O559 1.252 . S
C572 C573 1.497 . S
C573 C572 1.497 . S
C573 C574 1.395 . S
C573 C575 1.380 . S
C574 C573 1.395 . S
C574 C577 1.398 . S
C574 H584 0.930 . S
C575 C573 1.380 . S
C575 C576 1.391 . S
C575 H585 0.930 . S
C576 C575 1.391 . S
C576 C578 1.387 . S
C577 C574 1.398 . S
C577 C578 1.380 . S
C577 H586 0.930 . S
C578 C576 1.387 . S
C578 C577 1.380 . S
C578 H587 0.930 . S
C579 O556 1.254 . S
C579 O557 1.268 . S
H580 C565 0.930 . S
H581 C566 0.930 . S
H582 C568 0.930 . S
H583 C569 0.930 . S
H584 C574 0.930 . S
H585 C575 0.930 . S
H586 C577 0.930 . S
H587 C578 0.930 . S
Gd588 N619 2.661 . S
Gd588 N625 2.601 . S
Gd588 O632 2.545 . S
Gd588 O633 2.606 . S
Gd588 O635 2.429 . S
Gd588 O636 2.545 . S
Gd588 O637 2.412 . S
Gd588 O639 2.362 . S
Gd588 O640 2.324 . S
Gd588 C647 2.828 . S
Gd589 N598 2.661 . S
Gd589 N602 2.601 . S
Gd589 O633 2.362 . S
Gd589 O634 2.324 . S
Gd589 O638 2.545 . S
Gd589 O639 2.606 . S
Gd589 O641 2.429 . S
Gd589 O642 2.545 . S
Gd589 O643 2.412 . S
Gd589 C656 2.828 . S
C590 C593 1.417 . S
C590 C595 1.431 . S
C590 C596 1.412 . S
C591 C594 1.437 . S
C591 C595 1.317 . S
C591 H610 0.929 . S
C592 C593 1.426 . S
C592 C594 1.413 . S
C592 N602 1.359 . S
C593 C590 1.417 . S
C593 C592 1.426 . S
C593 N598 1.350 . S
C594 C591 1.437 . S
C594 C592 1.413 . S
C594 C604 1.391 . S
C595 C590 1.431 . S
C595 C591 1.317 . S
C595 H606 0.930 . S
C596 C590 1.412 . S
C596 C597 1.355 . S
C596 H608 0.930 . S
C597 C596 1.355 . S
C597 C599 1.402 . S
C597 H609 0.930 . S
N598 Gd589 2.661 . S
N598 C593 1.350 . S
N598 C599 1.307 . S
C599 C597 1.402 . S
C599 N598 1.307 . S
C599 H600 0.930 . S
H600 C599 0.930 . S
C601 N602 1.334 . S
C601 C603 1.394 . S
C601 H605 0.930 . S
N602 Gd589 2.601 . S
N602 C592 1.359 . S
N602 C601 1.334 . S
C603 C601 1.394 . S
C603 C604 1.359 . S
C603 H615 0.930 . S
C604 C594 1.391 . S
C604 C603 1.359 . S
C604 H616 0.929 . S
H605 C601 0.930 . S
H606 C595 0.930 . S
H607 C624 0.930 . S
H608 C596 0.930 . S
H609 C597 0.930 . S
H610 C591 0.929 . S
H611 C629 0.930 . S
H612 C620 0.930 . S
H613 C621 0.930 . S
H614 C645 0.929 . S
H615 C603 0.930 . S
H616 C604 0.929 . S
H617 C646 0.930 . S
H618 C627 0.944 . S
N619 Gd588 2.661 . S
N619 C623 1.350 . S
N619 C624 1.307 . S
C620 H612 0.930 . S
C620 C621 1.355 . S
C620 C622 1.412 . S
C621 H613 0.930 . S
C621 C620 1.355 . S
C621 C624 1.402 . S
C622 C620 1.412 . S
C622 C623 1.417 . S
C622 C646 1.431 . S
C623 N619 1.350 . S
C623 C622 1.417 . S
C623 C626 1.426 . S
C624 H607 0.930 . S
C624 N619 1.307 . S
C624 C621 1.402 . S
N625 Gd588 2.601 . S
N625 C626 1.359 . S
N625 C629 1.334 . S
C626 C623 1.426 . S
C626 N625 1.359 . S
C626 C630 1.413 . S
C627 H618 0.944 . S
C627 C628 1.353 1_545 S
C627 C629 1.387 1_545 S
C628 C627 1.353 1_565 S
C628 C630 1.391 . S
C628 H631 0.929 1_565 S
C629 H611 0.930 . S
C629 N625 1.334 . S
C629 C627 1.387 1_565 S
C630 C626 1.413 . S
C630 C628 1.391 . S
C630 C645 1.437 . S
H631 C628 0.929 1_545 S
O632 Gd588 2.545 . S
O632 C647 1.258 . S
O633 Gd588 2.606 . S
O633 Gd589 2.362 . S
O633 C644 1.284 . S
O634 Gd589 2.324 . S
O634 C654 1.254 . S
O635 Gd588 2.429 . S
O635 C654 1.268 . S
O636 Gd588 2.545 . S
O636 C644 1.250 . S
O637 Gd588 2.412 . S
O637 C647 1.252 . S
O638 Gd589 2.545 . S
O638 C656 1.258 . S
O639 Gd588 2.362 . S
O639 Gd589 2.606 . S
O639 C655 1.284 . S
O640 Gd588 2.324 . S
O640 C663 1.254 . S
O641 Gd589 2.429 . S
O641 C663 1.268 . S
O642 Gd589 2.545 . S
O642 C655 1.250 . S
O643 Gd589 2.412 . S
O643 C656 1.252 . S
C644 O633 1.284 . S
C644 O636 1.250 . S
C645 H614 0.929 . S
C645 C630 1.437 . S
C645 C646 1.317 . S
C646 H617 0.930 . S
C646 C622 1.431 . S
C646 C645 1.317 . S
C647 Gd588 2.828 . S
C647 O632 1.258 . S
C647 O637 1.252 . S
C647 C648 1.497 . S
C648 C647 1.497 . S
C648 C649 1.395 1_565 S
C648 C650 1.380 . S
C649 C648 1.395 1_545 S
C649 C652 1.398 . S
C649 H664 0.930 . S
C650 C648 1.380 . S
C650 C651 1.391 . S
C650 H665 0.930 . S
C651 C650 1.391 . S
C651 C653 1.387 1_565 S
C652 C649 1.398 . S
C652 C653 1.380 . S
C652 H666 0.930 . S
C653 C651 1.387 1_545 S
C653 C652 1.380 . S
C653 H667 0.930 . S
C654 O634 1.254 . S
C654 O635 1.268 . S
C655 O639 1.284 . S
C655 O642 1.250 . S
C656 Gd589 2.828 . S
C656 O638 1.258 . S
C656 O643 1.252 . S
C656 C657 1.497 . S
C657 C656 1.497 . S
C657 C658 1.395 . S
C657 C659 1.380 . S
C658 C657 1.395 . S
C658 C661 1.398 . S
C658 H668 0.930 . S
C659 C657 1.380 . S
C659 C660 1.391 . S
C659 H669 0.930 . S
C660 C659 1.391 . S
C660 C662 1.387 . S
C661 C658 1.398 . S
C661 C662 1.380 . S
C661 H670 0.930 . S
C662 C660 1.387 . S
C662 C661 1.380 . S
C662 H671 0.930 . S
C663 O640 1.254 . S
C663 O641 1.268 . S
H664 C649 0.930 . S
H665 C650 0.930 . S
H666 C652 0.930 . S
H667 C653 0.930 . S
H668 C658 0.930 . S
H669 C659 0.930 . S
H670 C661 0.930 . S
H671 C662 0.930 . S
C672 O684 1.241 . S
C672 O685 1.280 . S
C673 O686 1.277 . S
C673 O687 1.245 . S
C674 O698 1.247 . S
C674 O700 1.289 . S
Mg675 O676 1.926 1_455 S
Mg675 O685 1.984 1_455 S
Mg675 O687 1.988 1_455 S
Mg675 O688 2.061 . S
O676 Mg675 1.926 1_655 S
O676 Mg677 1.986 . S
O676 Mg678 1.917 1_655 S
Mg677 O676 1.986 . S
Mg677 O684 2.042 . S
Mg677 O686 2.041 . S
Mg677 O692 2.038 1_545 S
Mg677 O700 2.238 1_545 S
Mg678 O676 1.917 1_455 S
Mg678 O679 1.917 1_545 S
Mg678 O689 2.106 . S
Mg678 O691 2.079 1_445 S
Mg678 O700 2.106 1_445 S
Mg678 O701 2.079 . S
O679 Mg678 1.917 1_565 S
O679 Mg680 1.926 . S
O679 Mg681 1.986 1_565 S
Mg680 O679 1.926 . S
Mg680 O694 1.984 . S
Mg680 O697 1.988 . S
Mg680 O698 2.061 1_455 S
Mg681 O679 1.986 1_545 S
Mg681 O689 2.238 . S
Mg681 O693 2.042 1_545 S
Mg681 O695 2.041 1_545 S
Mg681 O702 2.038 . S
C682 O688 1.247 . S
C682 O689 1.289 . S
C683 O701 1.245 . S
C683 O702 1.274 . S
O684 C672 1.241 . S
O684 Mg677 2.042 . S
O685 C672 1.280 . S
O685 Mg675 1.984 1_655 S
O686 C673 1.277 . S
O686 Mg677 2.041 . S
O687 C673 1.245 . S
O687 Mg675 1.988 1_655 S
O688 Mg675 2.061 . S
O688 C682 1.247 . S
O689 Mg678 2.106 . S
O689 Mg681 2.238 . S
O689 C682 1.289 . S
C690 O691 1.245 . S
C690 O692 1.274 . S
O691 Mg678 2.079 1_665 S
O691 C690 1.245 . S
O692 Mg677 2.038 1_565 S
O692 C690 1.274 . S
O693 Mg681 2.042 1_565 S
O693 C696 1.241 . S
O694 Mg680 1.984 . S
O694 C696 1.280 . S
O695 Mg681 2.041 1_565 S
O695 C699 1.277 . S
C696 O693 1.241 . S
C696 O694 1.280 . S
O697 Mg680 1.988 . S
O697 C699 1.245 . S
O698 C674 1.247 . S
O698 Mg680 2.061 1_655 S
C699 O695 1.277 . S
C699 O697 1.245 . S
O700 C674 1.289 . S
O700 Mg677 2.238 1_565 S
O700 Mg678 2.106 1_665 S
O701 Mg678 2.079 . S
O701 C683 1.245 . S
O702 Mg681 2.038 . S
O702 C683 1.274 . S
C703 O715 1.241 . S
C703 O716 1.280 . S
C704 O717 1.277 . S
C704 O718 1.245 . S
C705 O729 1.247 . S
C705 O731 1.289 . S
Mg706 O707 1.926 . S
Mg706 O716 1.984 . S
Mg706 O718 1.988 1_554 S
Mg706 O719 2.061 . S
O707 Mg706 1.926 . S
O707 Mg708 1.983 1_554 S
O707 Mg709 1.917 . S
Mg708 O707 1.983 1_556 S
Mg708 O715 2.030 1_556 S
Mg708 O717 2.054 . S
Mg708 O723 2.026 1_546 S
Mg708 O731 2.248 1_545 S
Mg709 O707 1.917 . S
Mg709 O710 1.917 1_554 S
Mg709 O720 2.106 . S
Mg709 O722 2.079 1_545 S
Mg709 O731 2.106 1_544 S
Mg709 O732 2.079 1_554 S
O710 Mg709 1.917 1_556 S
O710 Mg711 1.926 1_545 S
O710 Mg712 1.986 1_556 S
Mg711 O710 1.926 1_565 S
Mg711 O725 1.984 . S
Mg711 O728 1.988 1_556 S
Mg711 O729 2.061 . S
Mg712 O710 1.986 1_554 S
Mg712 O720 2.238 . S
Mg712 O724 2.042 1_554 S
Mg712 O726 2.053 . S
Mg712 O733 2.038 1_554 S
C713 O719 1.247 . S
C713 O720 1.289 . S
C714 O732 1.245 . S
C714 O733 1.274 . S
O715 C703 1.241 . S
O715 Mg708 2.030 1_554 S
O716 C703 1.280 . S
O716 Mg706 1.984 . S
O717 C704 1.277 . S
O717 Mg708 2.054 . S
O718 C704 1.245 . S
O718 Mg706 1.988 1_556 S
O719 Mg706 2.061 . S
O719 C713 1.247 . S
O720 Mg709 2.106 . S
O720 Mg712 2.238 . S
O720 C713 1.289 . S
C721 O722 1.245 . S
C721 O723 1.274 . S
O722 Mg709 2.079 1_565 S
O722 C721 1.245 . S
O723 Mg708 2.026 1_564 S
O723 C721 1.274 . S
O724 Mg712 2.042 1_556 S
O724 C727 1.241 1_545 S
O725 Mg711 1.984 . S
O725 C727 1.280 . S
O726 Mg712 2.053 . S
O726 C730 1.264 1_545 S
C727 O724 1.241 1_565 S
C727 O725 1.280 . S
O728 Mg711 1.988 1_554 S
O728 C730 1.245 . S
O729 C705 1.247 . S
O729 Mg711 2.061 . S
C730 O726 1.264 1_565 S
C730 O728 1.245 . S
O731 C705 1.289 . S
O731 Mg708 2.248 1_565 S
O731 Mg709 2.106 1_566 S
O732 Mg709 2.079 1_556 S
O732 C714 1.245 . S
O733 Mg712 2.038 1_556 S
O733 C714 1.274 . S
C734 O746 1.241 . S
C734 O747 1.280 . S
C735 O748 1.277 1_556 S
C735 O749 1.245 1_556 S
C736 O760 1.246 1_556 S
C736 O762 1.285 1_556 S
Mg737 O738 1.926 1_455 S
Mg737 O747 1.984 1_455 S
Mg737 O749 1.988 1_455 S
Mg737 O750 2.061 . S
O738 Mg737 1.926 1_655 S
O738 Mg739 1.986 . S
O738 Mg740 1.917 1_655 S
Mg739 O738 1.986 . S
Mg739 O746 2.042 . S
Mg739 O748 2.041 . S
Mg739 O754 2.038 . S
Mg739 O762 2.238 . S
Mg740 O738 1.917 1_455 S
Mg740 O741 1.917 . S
Mg740 O751 2.106 . S
Mg740 O753 2.079 1_455 S
Mg740 O762 2.106 1_455 S
Mg740 O763 2.079 . S
O741 Mg740 1.917 . S
O741 Mg742 1.926 1_455 S
O741 Mg743 1.986 . S
Mg742 O741 1.926 1_655 S
Mg742 O756 1.985 1_655 S
Mg742 O759 1.988 1_655 S
Mg742 O760 2.061 . S
Mg743 O741 1.986 . S
Mg743 O751 2.238 . S
Mg743 O755 2.042 . S
Mg743 O757 2.041 . S
Mg743 O764 2.038 . S
C744 O750 1.247 . S
C744 O751 1.289 . S
C745 O763 1.245 1_556 S
C745 O764 1.274 1_556 S
O746 C734 1.241 . S
O746 Mg739 2.042 . S
O747 C734 1.280 . S
O747 Mg737 1.984 1_655 S
O748 C735 1.277 1_554 S
O748 Mg739 2.041 . S
O749 C735 1.245 1_554 S
O749 Mg737 1.988 1_655 S
O750 Mg737 2.061 . S
O750 C744 1.247 . S
O751 Mg740 2.106 . S
O751 Mg743 2.238 . S
O751 C744 1.289 . S
C752 O753 1.245 . S
C752 O754 1.274 . S
O753 Mg740 2.079 1_655 S
O753 C752 1.245 . S
O754 Mg739 2.038 . S
O754 C752 1.274 . S
O755 Mg743 2.042 . S
O755 C758 1.241 . S
O756 Mg742 1.985 1_455 S
O756 C758 1.280 . S
O757 Mg743 2.041 . S
O757 C761 1.277 . S
C758 O755 1.241 . S
C758 O756 1.280 . S
O759 Mg742 1.988 1_455 S
O759 C761 1.245 . S
O760 C736 1.246 1_554 S
O760 Mg742 2.061 . S
C761 O757 1.277 . S
C761 O759 1.245 . S
O762 C736 1.285 1_554 S
O762 Mg739 2.238 . S
O762 Mg740 2.106 1_655 S
O763 Mg740 2.079 . S
O763 C745 1.245 1_554 S
O764 Mg743 2.038 . S
O764 C745 1.274 1_554 S
C765 O777 1.241 . S
C765 O778 1.280 . S
C766 O779 1.277 . S
C766 O780 1.245 . S
C767 O791 1.247 . S
C767 O793 1.289 . S
Mg768 O769 1.926 . S
Mg768 O778 1.984 . S
Mg768 O780 1.988 1_554 S
Mg768 O781 2.061 . S
O769 Mg768 1.926 . S
O769 Mg770 1.986 . S
O769 Mg771 1.917 . S
Mg770 O769 1.986 . S
Mg770 O777 2.042 . S
Mg770 O779 2.041 1_554 S
Mg770 O785 2.038 . S
Mg770 O793 2.238 1_554 S
Mg771 O769 1.917 . S
Mg771 O772 1.917 . S
Mg771 O782 2.106 . S
Mg771 O784 2.079 . S
Mg771 O793 2.106 1_554 S
Mg771 O794 2.079 1_554 S
O772 Mg771 1.917 . S
O772 Mg773 1.926 . S
O772 Mg774 1.986 . S
Mg773 O772 1.926 . S
Mg773 O787 1.984 1_554 S
Mg773 O790 1.988 . S
Mg773 O791 2.061 1_554 S
Mg774 O772 1.986 . S
Mg774 O782 2.238 . S
Mg774 O786 2.044 1_554 S
Mg774 O788 2.041 . S
Mg774 O795 2.038 1_554 S
C775 O781 1.247 . S
C775 O782 1.289 . S
C776 O794 1.245 . S
C776 O795 1.274 . S
O777 C765 1.241 . S
O777 Mg770 2.042 . S
O778 C765 1.280 . S
O778 Mg768 1.984 . S
O779 C766 1.277 . S
O779 Mg770 2.041 1_556 S
O780 C766 1.245 . S
O780 Mg768 1.988 1_556 S
O781 Mg768 2.061 . S
O781 C775 1.247 . S
O782 Mg771 2.106 . S
O782 Mg774 2.238 . S
O782 C775 1.289 . S
C783 O784 1.245 . S
C783 O785 1.274 . S
O784 Mg771 2.079 . S
O784 C783 1.245 . S
O785 Mg770 2.038 . S
O785 C783 1.274 . S
O786 Mg774 2.044 1_556 S
O786 C789 1.239 . S
O787 Mg773 1.984 1_556 S
O787 C789 1.280 . S
O788 Mg774 2.041 . S
O788 C792 1.277 . S
C789 O786 1.239 . S
C789 O787 1.280 . S
O790 Mg773 1.988 . S
O790 C792 1.245 . S
O791 C767 1.247 . S
O791 Mg773 2.061 1_556 S
C792 O788 1.277 . S
C792 O790 1.245 . S
O793 C767 1.289 . S
O793 Mg770 2.238 1_556 S
O793 Mg771 2.106 1_556 S
O794 Mg771 2.079 1_556 S
O794 C776 1.245 . S
O795 Mg774 2.038 1_556 S
O795 C776 1.274 . S
C796 O808 1.241 . S
C796 O809 1.280 . S
C797 O810 1.277 . S
C797 O811 1.245 1_655 S
C798 O822 1.247 . S
C798 O824 1.289 . S
Mg799 O800 1.926 . S
Mg799 O809 1.984 1_455 S
Mg799 O811 1.988 . S
Mg799 O812 2.061 . S
O800 Mg799 1.926 . S
O800 Mg801 1.986 1_455 S
O800 Mg802 1.917 . S
Mg801 O800 1.986 1_655 S
Mg801 O808 2.042 . S
Mg801 O810 2.041 . S
Mg801 O816 2.038 . S
Mg801 O824 2.238 . S
Mg802 O800 1.917 . S
Mg802 O803 1.917 . S
Mg802 O813 2.106 . S
Mg802 O815 2.079 . S
Mg802 O824 2.106 1_455 S
Mg802 O825 2.079 . S
O803 Mg802 1.917 . S
O803 Mg804 1.926 . S
O803 Mg805 1.986 . S
Mg804 O803 1.926 . S
Mg804 O818 1.984 . S
Mg804 O821 1.988 . S
Mg804 O822 2.061 1_455 S
Mg805 O803 1.986 . S
Mg805 O813 2.238 . S
Mg805 O817 2.042 . S
Mg805 O819 2.041 . S
Mg805 O826 2.038 . S
C806 O812 1.247 . S
C806 O813 1.289 . S
C807 O825 1.245 . S
C807 O826 1.274 . S
O808 C796 1.241 . S
O808 Mg801 2.042 . S
O809 C796 1.280 . S
O809 Mg799 1.984 1_655 S
O810 C797 1.277 . S
O810 Mg801 2.041 . S
O811 C797 1.245 1_455 S
O811 Mg799 1.988 . S
O812 Mg799 2.061 . S
O812 C806 1.247 . S
O813 Mg802 2.106 . S
O813 Mg805 2.238 . S
O813 C806 1.289 . S
C814 O815 1.245 1_655 S
C814 O816 1.274 . S
O815 Mg802 2.079 . S
O815 C814 1.245 1_455 S
O816 Mg801 2.038 . S
O816 C814 1.274 . S
O817 Mg805 2.042 . S
O817 C820 1.241 . S
O818 Mg804 1.984 . S
O818 C820 1.280 . S
O819 Mg805 2.041 . S
O819 C823 1.277 . S
C820 O817 1.241 . S
C820 O818 1.280 . S
O821 Mg804 1.988 . S
O821 C823 1.245 . S
O822 C798 1.247 . S
O822 Mg804 2.061 1_655 S
C823 O819 1.277 . S
C823 O821 1.245 . S
O824 C798 1.289 . S
O824 Mg801 2.238 . S
O824 Mg802 2.106 1_655 S
O825 Mg802 2.079 . S
O825 C807 1.245 . S
O826 Mg805 2.038 . S
O826 C807 1.274 . S
C827 O839 1.241 . S
C827 O840 1.280 . S
C828 O841 1.277 . S
C828 O842 1.245 . S
C829 O853 1.247 . S
C829 O855 1.289 . S
Mg830 O831 1.926 . S
Mg830 O840 1.984 . S
Mg830 O842 1.988 . S
Mg830 O843 2.061 . S
O831 Mg830 1.926 . S
O831 Mg832 1.986 1_545 S
O831 Mg833 1.917 . S
Mg832 O831 1.986 1_565 S
Mg832 O839 2.042 1_565 S
Mg832 O841 2.041 1_565 S
Mg832 O847 2.038 . S
Mg832 O855 2.238 . S
Mg833 O831 1.917 . S
Mg833 O834 1.917 1_545 S
Mg833 O844 2.106 . S
Mg833 O846 2.079 1_545 S
Mg833 O855 2.106 1_545 S
Mg833 O856 2.079 . S
O834 Mg833 1.917 1_565 S
O834 Mg835 1.926 . S
O834 Mg836 1.986 1_565 S
Mg835 O834 1.926 . S
Mg835 O849 1.984 . S
Mg835 O852 1.988 . S
Mg835 O853 2.061 . S
Mg836 O834 1.986 1_545 S
Mg836 O844 2.238 . S
Mg836 O848 2.042 1_545 S
Mg836 O850 2.041 1_545 S
Mg836 O857 2.038 . S
C837 O843 1.247 . S
C837 O844 1.289 . S
C838 O856 1.245 . S
C838 O857 1.274 . S
O839 C827 1.241 . S
O839 Mg832 2.042 1_545 S
O840 C827 1.280 . S
O840 Mg830 1.984 . S
O841 C828 1.277 . S
O841 Mg832 2.041 1_545 S
O842 C828 1.245 . S
O842 Mg830 1.988 . S
O843 Mg830 2.061 . S
O843 C837 1.247 . S
O844 Mg833 2.106 . S
O844 Mg836 2.238 . S
O844 C837 1.289 . S
C845 O846 1.245 . S
C845 O847 1.274 . S
O846 Mg833 2.079 1_565 S
O846 C845 1.245 . S
O847 Mg832 2.038 . S
O847 C845 1.274 . S
O848 Mg836 2.042 1_565 S
O848 C851 1.241 . S
O849 Mg835 1.984 . S
O849 C851 1.280 . S
O850 Mg836 2.041 1_565 S
O850 C854 1.277 . S
C851 O848 1.241 . S
C851 O849 1.280 . S
O852 Mg835 1.988 . S
O852 C854 1.245 . S
O853 C829 1.247 . S
O853 Mg835 2.061 . S
C854 O850 1.277 . S
C854 O852 1.245 . S
O855 C829 1.289 . S
O855 Mg832 2.238 . S
O855 Mg833 2.106 1_565 S
O856 Mg833 2.079 . S
O856 C838 1.245 . S
O857 Mg836 2.038 . S
O857 C838 1.274 . S
C858 C859 1.363 . S
C858 C864 1.379 . S
C858 N866 1.356 . S
C859 C858 1.363 . S
C859 C865 1.363 . S
C860 C861 1.363 . S
C860 C865 1.379 . S
C860 N867 1.356 . S
C861 C860 1.363 . S
C861 C864 1.363 . S
N862 C864 1.356 . S
N862 H874 0.984 . S
N862 H875 0.985 . S
N863 C865 1.356 . S
N863 H868 0.984 . S
N863 H869 0.985 . S
C864 C858 1.379 . S
C864 C861 1.363 . S
C864 N862 1.356 . S
C865 C859 1.363 . S
C865 C860 1.379 . S
C865 N863 1.356 . S
N866 C858 1.356 . S
N866 H872 0.984 . S
N866 H873 0.984 . S
N867 C860 1.356 . S
N867 H870 0.984 . S
N867 H871 0.985 . S
H868 N863 0.984 . S
H869 N863 0.985 . S
H870 N867 0.984 . S
H871 N867 0.985 . S
H872 N866 0.984 . S
H873 N866 0.984 . S
H874 N862 0.984 . S
H875 N862 0.985 . S
C876 C877 1.363 . S
C876 C882 1.379 . S
C876 N884 1.356 . S
C877 C876 1.363 . S
C877 C883 1.363 . S
C878 C879 1.363 . S
C878 C883 1.379 . S
C878 N885 1.356 . S
C879 C878 1.363 . S
C879 C882 1.363 . S
N880 C882 1.356 . S
N880 H892 0.984 . S
N880 H893 0.985 1_655 S
N881 C883 1.356 . S
N881 H886 0.984 . S
N881 H887 0.985 . S
C882 C876 1.379 . S
C882 C879 1.363 . S
C882 N880 1.356 . S
C883 C877 1.363 . S
C883 C878 1.379 . S
C883 N881 1.356 . S
N884 C876 1.356 . S
N884 H890 0.984 . S
N884 H891 0.984 . S
N885 C878 1.356 . S
N885 H888 0.984 . S
N885 H889 0.985 . S
H886 N881 0.984 . S
H887 N881 0.985 . S
H888 N885 0.984 . S
H889 N885 0.985 . S
H890 N884 0.984 . S
H891 N884 0.984 . S
H892 N880 0.984 . S
H893 N880 0.985 1_455 S
C894 C895 1.363 . S
C894 C900 1.379 . S
C894 N902 1.356 . S
C895 C894 1.363 . S
C895 C901 1.363 . S
C896 C897 1.363 . S
C896 C901 1.379 . S
C896 N903 1.356 . S
C897 C896 1.363 . S
C897 C900 1.363 . S
N898 C900 1.356 . S
N898 H910 0.984 . S
N898 H911 0.985 . S
N899 C901 1.356 . S
N899 H904 0.984 . S
N899 H905 0.985 . S
C900 C894 1.379 . S
C900 C897 1.363 . S
C900 N898 1.356 . S
C901 C895 1.363 . S
C901 C896 1.379 . S
C901 N899 1.356 . S
N902 C894 1.356 . S
N902 H908 0.984 . S
N902 H909 0.984 . S
N903 C896 1.356 . S
N903 H906 0.984 . S
N903 H907 0.985 1_655 S
H904 N899 0.984 . S
H905 N899 0.985 . S
H906 N903 0.984 . S
H907 N903 0.985 1_455 S
H908 N902 0.984 . S
H909 N902 0.984 . S
H910 N898 0.984 . S
H911 N898 0.985 . S
C912 C913 1.363 . S
C912 C918 1.379 . S
C912 N920 1.356 . S
C913 C912 1.363 . S
C913 C919 1.363 . S
C914 C915 1.363 . S
C914 C919 1.379 . S
C914 N921 1.356 . S
C915 C914 1.363 . S
C915 C918 1.363 . S
N916 C918 1.356 . S
N916 H928 0.984 . S
N916 H929 0.985 . S
N917 C919 1.356 . S
N917 H922 0.984 . S
N917 H923 0.985 . S
C918 C912 1.379 . S
C918 C915 1.363 . S
C918 N916 1.356 . S
C919 C913 1.363 . S
C919 C914 1.379 . S
C919 N917 1.356 . S
N920 C912 1.356 . S
N920 H926 0.984 . S
N920 H927 0.984 . S
N921 C914 1.356 . S
N921 H924 0.984 . S
N921 H925 0.985 . S
H922 N917 0.984 . S
H923 N917 0.985 . S
H924 N921 0.984 . S
H925 N921 0.985 . S
H926 N920 0.984 . S
H927 N920 0.984 . S
H928 N916 0.984 . S
H929 N916 0.985 . S
C930 C931 1.363 . S
C930 C936 1.379 . S
C930 N938 1.356 . S
C931 C930 1.363 . S
C931 C937 1.363 . S
C932 C933 1.363 . S
C932 C937 1.379 . S
C932 N939 1.356 . S
C933 C932 1.363 . S
C933 C936 1.363 . S
N934 C936 1.356 . S
N934 H946 0.984 1_565 S
N934 H947 0.985 . S
N935 C937 1.356 . S
N935 H940 0.984 . S
N935 H941 0.985 . S
C936 C930 1.379 . S
C936 C933 1.363 . S
C936 N934 1.356 . S
C937 C931 1.363 . S
C937 C932 1.379 . S
C937 N935 1.356 . S
N938 C930 1.356 . S
N938 H944 0.984 1_565 S
N938 H945 0.984 . S
N939 C932 1.356 . S
N939 H942 0.984 . S
N939 H943 0.985 . S
H940 N935 0.984 . S
H941 N935 0.985 . S
H942 N939 0.984 . S
H943 N939 0.985 . S
H944 N938 0.984 1_545 S
H945 N938 0.984 . S
H946 N934 0.984 1_545 S
H947 N934 0.985 . S
C948 C949 1.363 . S
C948 C954 1.379 . S
C948 N956 1.356 . S
C949 C948 1.363 . S
C949 C955 1.363 . S
C950 C951 1.363 . S
C950 C955 1.379 . S
C950 N957 1.356 . S
C951 C950 1.363 . S
C951 C954 1.363 . S
N952 C954 1.356 . S
N952 H964 0.984 . S
N952 H965 0.985 . S
N953 C955 1.356 . S
N953 H958 0.984 . S
N953 H959 0.985 . S
C954 C948 1.379 . S
C954 C951 1.363 . S
C954 N952 1.356 . S
C955 C949 1.363 . S
C955 C950 1.379 . S
C955 N953 1.356 . S
N956 C948 1.356 . S
N956 H962 0.984 . S
N956 H963 0.984 . S
N957 C950 1.356 . S
N957 H960 0.984 . S
N957 H961 0.985 . S
H958 N953 0.984 . S
H959 N953 0.985 . S
H960 N957 0.984 . S
H961 N957 0.985 . S
H962 N956 0.984 . S
H963 N956 0.984 . S
H964 N952 0.984 . S
H965 N952 0.985 . S
C966 C967 1.363 . S
C966 C972 1.379 . S
C966 N974 1.356 . S
C967 C966 1.363 . S
C967 C973 1.363 . S
C968 C969 1.363 . S
C968 C973 1.379 . S
C968 N975 1.356 . S
C969 C968 1.363 . S
C969 C972 1.363 . S
N970 C972 1.356 . S
N970 H982 0.984 1_655 S
N970 H983 0.985 . S
N971 C973 1.356 . S
N971 H976 0.984 . S
N971 H977 0.985 . S
C972 C966 1.379 . S
C972 C969 1.363 . S
C972 N970 1.356 . S
C973 C967 1.363 . S
C973 C968 1.379 . S
C973 N971 1.356 . S
N974 C966 1.356 . S
N974 H980 0.984 . S
N974 H981 0.984 . S
N975 C968 1.356 . S
N975 H978 0.984 . S
N975 H979 0.985 1_545 S
H976 N971 0.984 . S
H977 N971 0.985 . S
H978 N975 0.984 . S
H979 N975 0.985 1_565 S
H980 N974 0.984 . S
H981 N974 0.984 . S
H982 N970 0.984 1_455 S
H983 N970 0.985 . S
C984 C985 1.363 . S
C984 C990 1.379 . S
C984 N992 1.356 . S
C985 C984 1.363 . S
C985 C991 1.363 . S
C986 C987 1.363 . S
C986 C991 1.379 . S
C986 N993 1.356 . S
C987 C986 1.363 . S
C987 C990 1.363 . S
N988 C990 1.356 . S
N988 H1000 0.984 . S
N988 H1001 0.985 . S
N989 C991 1.356 . S
N989 H994 0.984 . S
N989 H995 0.985 . S
C990 C984 1.379 . S
C990 C987 1.363 . S
C990 N988 1.356 . S
C991 C985 1.363 . S
C991 C986 1.379 . S
C991 N989 1.356 . S
N992 C984 1.356 . S
N992 H998 0.984 . S
N992 H999 0.984 . S
N993 C986 1.356 . S
N993 H996 0.984 . S
N993 H997 0.985 . S
H994 N989 0.984 . S
H995 N989 0.985 . S
H996 N993 0.984 . S
H997 N993 0.985 . S
H998 N992 0.984 . S
H999 N992 0.984 . S
H1000 N988 0.984 . S
H1001 N988 0.985 . S
C1002 C1003 1.363 . S
C1002 C1008 1.379 . S
C1002 N1010 1.356 . S
C1003 C1002 1.363 . S
C1003 C1009 1.363 . S
C1004 C1005 1.363 . S
C1004 C1009 1.379 . S
C1004 N1011 1.356 . S
C1005 C1004 1.363 . S
C1005 C1008 1.363 . S
N1006 C1008 1.356 . S
N1006 H1018 0.984 . S
N1006 H1019 0.985 . S
N1007 C1009 1.356 . S
N1007 H1012 0.984 . S
N1007 H1013 0.985 . S
C1008 C1002 1.379 . S
C1008 C1005 1.363 . S
C1008 N1006 1.356 . S
C1009 C1003 1.363 . S
C1009 C1004 1.379 . S
C1009 N1007 1.356 . S
N1010 C1002 1.356 . S
N1010 H1016 0.984 . S
N1010 H1017 0.984 . S
N1011 C1004 1.356 . S
N1011 H1014 0.984 . S
N1011 H1015 0.985 . S
H1012 N1007 0.984 . S
H1013 N1007 0.985 . S
H1014 N1011 0.984 . S
H1015 N1011 0.985 . S
H1016 N1010 0.984 . S
H1017 N1010 0.984 . S
H1018 N1006 0.984 . S
H1019 N1006 0.985 . S
C1020 C1021 1.363 . S
C1020 C1026 1.379 . S
C1020 N1028 1.356 . S
C1021 C1020 1.363 . S
C1021 C1027 1.363 . S
C1022 C1023 1.363 . S
C1022 C1027 1.379 . S
C1022 N1029 1.356 . S
C1023 C1022 1.363 . S
C1023 C1026 1.363 . S
N1024 C1026 1.356 . S
N1024 H1036 0.984 . S
N1024 H1037 0.985 . S
N1025 C1027 1.356 . S
N1025 H1030 0.984 . S
N1025 H1031 0.985 . S
C1026 C1020 1.379 . S
C1026 C1023 1.363 . S
C1026 N1024 1.356 . S
C1027 C1021 1.363 . S
C1027 C1022 1.379 . S
C1027 N1025 1.356 . S
N1028 C1020 1.356 . S
N1028 H1034 0.984 . S
N1028 H1035 0.984 . S
N1029 C1022 1.356 . S
N1029 H1032 0.984 . S
N1029 H1033 0.985 . S
H1030 N1025 0.984 . S
H1031 N1025 0.985 . S
H1032 N1029 0.984 . S
H1033 N1029 0.985 . S
H1034 N1028 0.984 . S
H1035 N1028 0.984 . S
H1036 N1024 0.984 . S
H1037 N1024 0.985 . S
C1038 C1039 1.363 . S
C1038 C1044 1.379 . S
C1038 N1046 1.356 . S
C1039 C1038 1.363 . S
C1039 C1045 1.363 . S
C1040 C1041 1.363 . S
C1040 C1045 1.379 . S
C1040 N1047 1.356 . S
C1041 C1040 1.363 . S
C1041 C1044 1.363 . S
N1042 C1044 1.356 . S
N1042 H1054 0.984 . S
N1042 H1055 0.985 . S
N1043 C1045 1.353 1_545 S
N1043 H1048 0.967 1_545 S
N1043 H1049 1.006 . S
C1044 C1038 1.379 . S
C1044 C1041 1.363 . S
C1044 N1042 1.356 . S
C1045 C1039 1.363 . S
C1045 C1040 1.379 . S
C1045 N1043 1.353 1_565 S
N1046 C1038 1.356 . S
N1046 H1052 0.984 . S
N1046 H1053 0.984 . S
N1047 C1040 1.356 . S
N1047 H1050 0.984 . S
N1047 H1051 0.985 1_565 S
H1048 N1043 0.967 1_565 S
H1049 N1043 1.006 . S
H1050 N1047 0.984 . S
H1051 N1047 0.985 1_545 S
H1052 N1046 0.984 . S
H1053 N1046 0.984 . S
H1054 N1042 0.984 . S
H1055 N1042 0.985 . S
C1056 C1057 1.363 . S
C1056 C1062 1.379 . S
C1056 N1064 1.356 . S
C1057 C1056 1.363 . S
C1057 C1063 1.363 . S
C1058 C1059 1.363 . S
C1058 C1063 1.379 . S
C1058 N1065 1.356 . S
C1059 C1058 1.363 . S
C1059 C1062 1.363 . S
N1060 C1062 1.356 . S
N1060 H1072 0.984 . S
N1060 H1073 0.985 . S
N1061 C1063 1.356 . S
N1061 H1066 0.984 . S
N1061 H1067 0.985 . S
C1062 C1056 1.379 . S
C1062 C1059 1.363 . S
C1062 N1060 1.356 . S
C1063 C1057 1.363 . S
C1063 C1058 1.379 . S
C1063 N1061 1.356 . S
N1064 C1056 1.356 . S
N1064 H1070 0.984 . S
N1064 H1071 0.984 . S
N1065 C1058 1.356 . S
N1065 H1068 0.984 . S
N1065 H1069 0.985 . S
H1066 N1061 0.984 . S
H1067 N1061 0.985 . S
H1068 N1065 0.984 . S
H1069 N1065 0.985 . S
H1070 N1064 0.984 . S
H1071 N1064 0.984 . S
H1072 N1060 0.984 . S
H1073 N1060 0.985 . S
C1074 C1075 1.363 . S
C1074 C1080 1.379 . S
C1074 N1082 1.356 . S
C1075 C1074 1.363 . S
C1075 C1081 1.363 . S
C1076 C1077 1.363 . S
C1076 C1081 1.379 . S
C1076 N1083 1.356 . S
C1077 C1076 1.363 . S
C1077 C1080 1.363 . S
N1078 C1080 1.356 . S
N1078 H1090 0.984 1_565 S
N1078 H1091 0.985 1_565 S
N1079 C1081 1.356 . S
N1079 H1084 0.984 . S
N1079 H1085 0.985 . S
C1080 C1074 1.379 . S
C1080 C1077 1.363 . S
C1080 N1078 1.356 . S
C1081 C1075 1.363 . S
C1081 C1076 1.379 . S
C1081 N1079 1.356 . S
N1082 C1074 1.356 . S
N1082 H1088 0.984 . S
N1082 H1089 0.984 . S
N1083 C1076 1.356 . S
N1083 H1086 0.984 . S
N1083 H1087 0.985 . S
H1084 N1079 0.984 . S
H1085 N1079 0.985 . S
H1086 N1083 0.984 . S
H1087 N1083 0.985 . S
H1088 N1082 0.984 . S
H1089 N1082 0.984 . S
H1090 N1078 0.984 1_545 S
H1091 N1078 0.985 1_545 S
C1092 C1093 1.363 . S
C1092 C1098 1.379 . S
C1092 N1100 1.356 . S
C1093 C1092 1.363 . S
C1093 C1099 1.363 . S
C1094 C1095 1.363 . S
C1094 C1099 1.379 . S
C1094 N1101 1.356 . S
C1095 C1094 1.363 . S
C1095 C1098 1.363 . S
N1096 C1098 1.356 . S
N1096 H1108 0.984 1_455 S
N1096 H1109 0.985 . S
N1097 C1099 1.356 . S
N1097 H1102 0.984 . S
N1097 H1103 0.985 . S
C1098 C1092 1.379 . S
C1098 C1095 1.363 . S
C1098 N1096 1.356 . S
C1099 C1093 1.363 . S
C1099 C1094 1.379 . S
C1099 N1097 1.356 . S
N1100 C1092 1.356 . S
N1100 H1106 0.984 . S
N1100 H1107 0.984 . S
N1101 C1094 1.356 . S
N1101 H1104 0.984 1_556 S
N1101 H1105 0.985 . S
H1102 N1097 0.984 . S
H1103 N1097 0.985 . S
H1104 N1101 0.984 1_554 S
H1105 N1101 0.985 . S
H1106 N1100 0.984 . S
H1107 N1100 0.984 . S
H1108 N1096 0.984 1_655 S
H1109 N1096 0.985 . S
C1110 C1111 1.363 . S
C1110 C1116 1.379 . S
C1110 N1118 1.356 . S
C1111 C1110 1.363 . S
C1111 C1117 1.363 . S
C1112 C1113 1.363 . S
C1112 C1117 1.379 . S
C1112 N1119 1.356 . S
C1113 C1112 1.363 . S
C1113 C1116 1.363 . S
N1114 C1116 1.356 . S
N1114 H1126 0.984 . S
N1114 H1127 0.985 . S
N1115 C1117 1.356 . S
N1115 H1120 0.984 . S
N1115 H1121 0.985 . S
C1116 C1110 1.379 . S
C1116 C1113 1.363 . S
C1116 N1114 1.356 . S
C1117 C1111 1.363 . S
C1117 C1112 1.379 . S
C1117 N1115 1.356 . S
N1118 C1110 1.356 . S
N1118 H1124 0.984 . S
N1118 H1125 0.984 . S
N1119 C1112 1.356 . S
N1119 H1122 0.984 . S
N1119 H1123 0.985 . S
H1120 N1115 0.984 . S
H1121 N1115 0.985 . S
H1122 N1119 0.984 . S
H1123 N1119 0.985 . S
H1124 N1118 0.984 . S
H1125 N1118 0.984 . S
H1126 N1114 0.984 . S
H1127 N1114 0.985 . S
C1128 C1129 1.363 . S
C1128 C1134 1.379 . S
C1128 N1136 1.356 . S
C1129 C1128 1.363 . S
C1129 C1135 1.363 . S
C1130 C1131 1.363 . S
C1130 C1135 1.379 . S
C1130 N1137 1.356 . S
C1131 C1130 1.363 . S
C1131 C1134 1.363 . S
N1132 C1134 1.356 . S
N1132 H1144 0.984 . S
N1132 H1145 0.985 . S
N1133 C1135 1.356 . S
N1133 H1138 0.984 . S
N1133 H1139 0.985 . S
C1134 C1128 1.379 . S
C1134 C1131 1.363 . S
C1134 N1132 1.356 . S
C1135 C1129 1.363 . S
C1135 C1130 1.379 . S
C1135 N1133 1.356 . S
N1136 C1128 1.356 . S
N1136 H1142 0.984 . S
N1136 H1143 0.984 . S
N1137 C1130 1.356 . S
N1137 H1140 0.984 . S
N1137 H1141 0.985 1_655 S
H1138 N1133 0.984 . S
H1139 N1133 0.985 . S
H1140 N1137 0.984 . S
H1141 N1137 0.985 1_455 S
H1142 N1136 0.984 . S
H1143 N1136 0.984 . S
H1144 N1132 0.984 . S
H1145 N1132 0.985 . S
C1146 C1147 1.363 . S
C1146 C1152 1.379 . S
C1146 N1154 1.356 . S
C1147 C1146 1.363 . S
C1147 C1153 1.363 . S
C1148 C1149 1.363 . S
C1148 C1153 1.379 . S
C1148 N1155 1.356 . S
C1149 C1148 1.363 . S
C1149 C1152 1.363 . S
N1150 C1152 1.356 . S
N1150 H1162 0.984 . S
N1150 H1163 0.985 . S
N1151 C1153 1.356 . S
N1151 H1156 0.984 . S
N1151 H1157 0.985 . S
C1152 C1146 1.379 . S
C1152 C1149 1.363 . S
C1152 N1150 1.356 . S
C1153 C1147 1.363 . S
C1153 C1148 1.379 . S
C1153 N1151 1.356 . S
N1154 C1146 1.356 . S
N1154 H1160 0.984 . S
N1154 H1161 0.984 . S
N1155 C1148 1.356 . S
N1155 H1158 0.984 . S
N1155 H1159 0.985 . S
H1156 N1151 0.984 . S
H1157 N1151 0.985 . S
H1158 N1155 0.984 . S
H1159 N1155 0.985 . S
H1160 N1154 0.984 . S
H1161 N1154 0.984 . S
H1162 N1150 0.984 . S
H1163 N1150 0.985 . S
C1164 C1165 1.363 . S
C1164 C1170 1.379 . S
C1164 N1172 1.356 . S
C1165 C1164 1.363 . S
C1165 C1171 1.363 . S
C1166 C1167 1.363 . S
C1166 C1171 1.379 . S
C1166 N1173 1.356 . S
C1167 C1166 1.363 . S
C1167 C1170 1.363 . S
N1168 C1170 1.356 . S
N1168 H1180 0.984 . S
N1168 H1181 0.985 . S
N1169 C1171 1.356 . S
N1169 H1174 0.984 . S
N1169 H1175 0.985 . S
C1170 C1164 1.379 . S
C1170 C1167 1.363 . S
C1170 N1168 1.356 . S
C1171 C1165 1.363 . S
C1171 C1166 1.379 . S
C1171 N1169 1.356 . S
N1172 C1164 1.356 . S
N1172 H1178 0.984 . S
N1172 H1179 0.984 . S
N1173 C1166 1.356 . S
N1173 H1176 0.984 1_556 S
N1173 H1177 0.983 1_556 S
H1174 N1169 0.984 . S
H1175 N1169 0.985 . S
H1176 N1173 0.984 1_554 S
H1177 N1173 0.983 1_554 S
H1178 N1172 0.984 . S
H1179 N1172 0.984 . S
H1180 N1168 0.984 . S
H1181 N1168 0.985 . S
C1182 C1183 1.363 . S
C1182 C1188 1.379 . S
C1182 N1190 1.356 . S
C1183 C1182 1.363 . S
C1183 C1189 1.363 . S
C1184 C1185 1.363 . S
C1184 C1189 1.379 . S
C1184 N1191 1.356 . S
C1185 C1184 1.363 . S
C1185 C1188 1.363 . S
N1186 C1188 1.356 . S
N1186 H1198 0.984 . S
N1186 H1199 0.985 . S
N1187 C1189 1.356 . S
N1187 H1192 0.984 . S
N1187 H1193 0.985 . S
C1188 C1182 1.379 . S
C1188 C1185 1.363 . S
C1188 N1186 1.356 . S
C1189 C1183 1.363 . S
C1189 C1184 1.379 . S
C1189 N1187 1.356 . S
N1190 C1182 1.356 . S
N1190 H1196 0.984 . S
N1190 H1197 0.984 . S
N1191 C1184 1.356 . S
N1191 H1194 0.984 . S
N1191 H1195 0.985 . S
H1192 N1187 0.984 . S
H1193 N1187 0.985 . S
H1194 N1191 0.984 . S
H1195 N1191 0.985 . S
H1196 N1190 0.984 . S
H1197 N1190 0.984 . S
H1198 N1186 0.984 . S
H1199 N1186 0.985 . S
C1200 C1201 1.363 . S
C1200 C1206 1.379 . S
C1200 N1208 1.356 . S
C1201 C1200 1.363 . S
C1201 C1207 1.363 . S
C1202 C1203 1.363 . S
C1202 C1207 1.379 . S
C1202 N1209 1.356 1_556 S
C1203 C1202 1.363 . S
C1203 C1206 1.363 . S
N1204 C1206 1.356 . S
N1204 H1216 0.984 . S
N1204 H1217 0.985 . S
N1205 C1207 1.356 . S
N1205 H1210 0.984 . S
N1205 H1211 0.985 . S
C1206 C1200 1.379 . S
C1206 C1203 1.363 . S
C1206 N1204 1.356 . S
C1207 C1201 1.363 . S
C1207 C1202 1.379 . S
C1207 N1205 1.356 . S
N1208 C1200 1.356 . S
N1208 H1214 0.984 . S
N1208 H1215 0.984 . S
N1209 C1202 1.356 1_554 S
N1209 H1212 0.984 . S
N1209 H1213 0.985 . S
H1210 N1205 0.984 . S
H1211 N1205 0.985 . S
H1212 N1209 0.984 . S
H1213 N1209 0.985 . S
H1214 N1208 0.984 . S
H1215 N1208 0.984 . S
H1216 N1204 0.984 . S
H1217 N1204 0.985 . S
C1218 C1219 1.363 . S
C1218 C1224 1.379 . S
C1218 N1226 1.356 . S
C1219 C1218 1.363 . S
C1219 C1225 1.363 . S
C1220 C1221 1.363 . S
C1220 C1225 1.379 . S
C1220 N1227 1.356 . S
C1221 C1220 1.363 . S
C1221 C1224 1.363 . S
N1222 C1224 1.356 . S
N1222 H1234 0.984 1_556 S
N1222 H1235 0.985 . S
N1223 C1225 1.356 . S
N1223 H1228 0.984 . S
N1223 H1229 0.985 . S
C1224 C1218 1.379 . S
C1224 C1221 1.363 . S
C1224 N1222 1.356 . S
C1225 C1219 1.363 . S
C1225 C1220 1.379 . S
C1225 N1223 1.356 . S
N1226 C1218 1.356 . S
N1226 H1232 0.984 . S
N1226 H1233 0.984 . S
N1227 C1220 1.356 . S
N1227 H1230 0.984 . S
N1227 H1231 0.985 . S
H1228 N1223 0.984 . S
H1229 N1223 0.985 . S
H1230 N1227 0.984 . S
H1231 N1227 0.985 . S
H1232 N1226 0.984 . S
H1233 N1226 0.984 . S
H1234 N1222 0.984 1_554 S
H1235 N1222 0.985 . S
C1236 C1237 1.363 . S
C1236 C1242 1.379 . S
C1236 N1244 1.356 . S
C1237 C1236 1.363 . S
C1237 C1243 1.363 . S
C1238 C1239 1.363 . S
C1238 C1243 1.379 . S
C1238 N1245 1.356 . S
C1239 C1238 1.363 . S
C1239 C1242 1.363 . S
N1240 C1242 1.356 . S
N1240 H1252 0.984 . S
N1240 H1253 0.985 . S
N1241 C1243 1.356 . S
N1241 H1246 0.984 . S
N1241 H1247 0.985 . S
C1242 C1236 1.379 . S
C1242 C1239 1.363 . S
C1242 N1240 1.356 . S
C1243 C1237 1.363 . S
C1243 C1238 1.379 . S
C1243 N1241 1.356 . S
N1244 C1236 1.356 . S
N1244 H1250 0.984 . S
N1244 H1251 0.984 . S
N1245 C1238 1.356 . S
N1245 H1248 0.984 . S
N1245 H1249 0.985 . S
H1246 N1241 0.984 . S
H1247 N1241 0.985 . S
H1248 N1245 0.984 . S
H1249 N1245 0.985 . S
H1250 N1244 0.984 . S
H1251 N1244 0.984 . S
H1252 N1240 0.984 . S
H1253 N1240 0.985 . S
C1254 C1255 1.363 . S
C1254 C1260 1.379 . S
C1254 N1262 1.356 . S
C1255 C1254 1.363 . S
C1255 C1261 1.363 . S
C1256 C1257 1.363 . S
C1256 C1261 1.379 . S
C1256 N1263 1.356 . S
C1257 C1256 1.363 . S
C1257 C1260 1.363 . S
N1258 C1260 1.356 . S
N1258 H1270 0.984 . S
N1258 H1271 0.985 . S
N1259 C1261 1.356 . S
N1259 H1264 0.984 . S
N1259 H1265 0.985 . S
C1260 C1254 1.379 . S
C1260 C1257 1.363 . S
C1260 N1258 1.356 . S
C1261 C1255 1.363 . S
C1261 C1256 1.379 . S
C1261 N1259 1.356 . S
N1262 C1254 1.356 . S
N1262 H1268 0.984 . S
N1262 H1269 0.984 . S
N1263 C1256 1.356 . S
N1263 H1266 0.984 . S
N1263 H1267 0.985 . S
H1264 N1259 0.984 . S
H1265 N1259 0.985 . S
H1266 N1263 0.984 . S
H1267 N1263 0.985 . S
H1268 N1262 0.984 . S
H1269 N1262 0.984 . S
H1270 N1258 0.984 . S
H1271 N1258 0.985 . S
C1272 C1273 1.363 . S
C1272 C1278 1.379 . S
C1272 N1280 1.356 . S
C1273 C1272 1.363 . S
C1273 C1279 1.363 . S
C1274 C1275 1.363 . S
C1274 C1279 1.379 . S
C1274 N1281 1.356 . S
C1275 C1274 1.363 . S
C1275 C1278 1.363 . S
N1276 C1278 1.356 . S
N1276 H1288 0.984 . S
N1276 H1289 0.985 . S
N1277 C1279 1.356 . S
N1277 H1282 0.984 . S
N1277 H1283 0.985 . S
C1278 C1272 1.379 . S
C1278 C1275 1.363 . S
C1278 N1276 1.356 . S
C1279 C1273 1.363 . S
C1279 C1274 1.379 . S
C1279 N1277 1.356 . S
N1280 C1272 1.356 . S
N1280 H1286 0.984 . S
N1280 H1287 0.984 . S
N1281 C1274 1.356 . S
N1281 H1284 0.984 . S
N1281 H1285 0.985 . S
H1282 N1277 0.984 . S
H1283 N1277 0.985 . S
H1284 N1281 0.984 . S
H1285 N1281 0.985 . S
H1286 N1280 0.984 . S
H1287 N1280 0.984 . S
H1288 N1276 0.984 . S
H1289 N1276 0.985 . S
C1290 C1291 1.363 . S
C1290 C1296 1.379 . S
C1290 N1298 1.356 . S
C1291 C1290 1.363 . S
C1291 C1297 1.363 . S
C1292 C1293 1.363 . S
C1292 C1297 1.379 . S
C1292 N1299 1.356 . S
C1293 C1292 1.363 . S
C1293 C1296 1.363 . S
N1294 C1296 1.356 . S
N1294 H1306 0.984 . S
N1294 H1307 0.985 . S
N1295 C1297 1.356 . S
N1295 H1300 0.984 . S
N1295 H1301 0.985 . S
C1296 C1290 1.379 . S
C1296 C1293 1.363 . S
C1296 N1294 1.356 . S
C1297 C1291 1.363 . S
C1297 C1292 1.379 . S
C1297 N1295 1.356 . S
N1298 C1290 1.356 . S
N1298 H1304 0.984 . S
N1298 H1305 0.984 . S
N1299 C1292 1.356 . S
N1299 H1302 0.984 . S
N1299 H1303 0.985 . S
H1300 N1295 0.984 . S
H1301 N1295 0.985 . S
H1302 N1299 0.984 . S
H1303 N1299 0.985 . S
H1304 N1298 0.984 . S
H1305 N1298 0.984 . S
H1306 N1294 0.984 . S
H1307 N1294 0.985 . S
C1308 C1309 1.363 . S
C1308 C1314 1.379 . S
C1308 N1316 1.356 1_556 S
C1309 C1308 1.363 . S
C1309 C1315 1.363 . S
C1310 C1311 1.363 . S
C1310 C1315 1.379 . S
C1310 N1317 1.356 . S
C1311 C1310 1.363 . S
C1311 C1314 1.363 . S
N1312 C1314 1.356 1_554 S
N1312 H1324 0.984 . S
N1312 H1325 0.985 1_554 S
N1313 C1315 1.356 . S
N1313 H1318 0.984 . S
N1313 H1319 0.985 . S
C1314 C1308 1.379 . S
C1314 C1311 1.363 . S
C1314 N1312 1.356 1_556 S
C1315 C1309 1.363 . S
C1315 C1310 1.379 . S
C1315 N1313 1.356 . S
N1316 C1308 1.356 1_554 S
N1316 H1322 0.984 . S
N1316 H1323 0.984 . S
N1317 C1310 1.356 . S
N1317 H1320 0.984 . S
N1317 H1321 0.985 . S
H1318 N1313 0.984 . S
H1319 N1313 0.985 . S
H1320 N1317 0.984 . S
H1321 N1317 0.985 . S
H1322 N1316 0.984 . S
H1323 N1316 0.984 . S
H1324 N1312 0.984 . S
H1325 N1312 0.985 1_556 S
C1326 C1327 1.363 . S
C1326 C1332 1.379 . S
C1326 N1334 1.356 . S
C1327 C1326 1.363 . S
C1327 C1333 1.363 . S
C1328 C1329 1.363 . S
C1328 C1333 1.379 . S
C1328 N1335 1.356 . S
C1329 C1328 1.363 . S
C1329 C1332 1.363 . S
N1330 C1332 1.356 . S
N1330 H1342 0.984 . S
N1330 H1343 0.985 . S
N1331 C1333 1.356 . S
N1331 H1336 0.984 . S
N1331 H1337 0.985 . S
C1332 C1326 1.379 . S
C1332 C1329 1.363 . S
C1332 N1330 1.356 . S
C1333 C1327 1.363 . S
C1333 C1328 1.379 . S
C1333 N1331 1.356 . S
N1334 C1326 1.356 . S
N1334 H1340 0.984 . S
N1334 H1341 0.984 . S
N1335 C1328 1.356 . S
N1335 H1338 0.984 . S
N1335 H1339 0.985 . S
H1336 N1331 0.984 . S
H1337 N1331 0.985 . S
H1338 N1335 0.984 . S
H1339 N1335 0.985 . S
H1340 N1334 0.984 . S
H1341 N1334 0.984 . S
H1342 N1330 0.984 . S
H1343 N1330 0.985 . S
C1344 C1345 1.363 . S
C1344 C1350 1.379 . S
C1344 N1352 1.356 . S
C1345 C1344 1.363 . S
C1345 C1351 1.363 . S
C1346 C1347 1.363 . S
C1346 C1351 1.379 . S
C1346 N1353 1.356 . S
C1347 C1346 1.363 . S
C1347 C1350 1.363 . S
N1348 C1350 1.356 . S
N1348 H1360 0.984 . S
N1348 H1361 0.985 . S
N1349 C1351 1.356 . S
N1349 H1354 0.984 . S
N1349 H1355 0.985 . S
C1350 C1344 1.379 . S
C1350 C1347 1.363 . S
C1350 N1348 1.356 . S
C1351 C1345 1.363 . S
C1351 C1346 1.379 . S
C1351 N1349 1.356 . S
N1352 C1344 1.356 . S
N1352 H1358 0.984 . S
N1352 H1359 0.984 . S
N1353 C1346 1.356 . S
N1353 H1356 0.984 . S
N1353 H1357 0.985 . S
H1354 N1349 0.984 . S
H1355 N1349 0.985 . S
H1356 N1353 0.984 . S
H1357 N1353 0.985 . S
H1358 N1352 0.984 . S
H1359 N1352 0.984 . S
H1360 N1348 0.984 . S
H1361 N1348 0.985 . S
C1362 C1363 1.363 . S
C1362 C1368 1.379 . S
C1362 N1370 1.356 . S
C1363 C1362 1.363 . S
C1363 C1369 1.363 . S
C1364 C1365 1.363 . S
C1364 C1369 1.379 . S
C1364 N1371 1.356 . S
C1365 C1364 1.363 . S
C1365 C1368 1.363 . S
N1366 C1368 1.356 . S
N1366 H1378 0.984 . S
N1366 H1379 0.985 . S
N1367 C1369 1.356 . S
N1367 H1372 0.984 . S
N1367 H1373 0.985 . S
C1368 C1362 1.379 . S
C1368 C1365 1.363 . S
C1368 N1366 1.356 . S
C1369 C1363 1.363 . S
C1369 C1364 1.379 . S
C1369 N1367 1.356 . S
N1370 C1362 1.356 . S
N1370 H1376 0.984 . S
N1370 H1377 0.984 . S
N1371 C1364 1.356 . S
N1371 H1374 0.984 . S
N1371 H1375 0.985 . S
H1372 N1367 0.984 . S
H1373 N1367 0.985 . S
H1374 N1371 0.984 . S
H1375 N1371 0.985 . S
H1376 N1370 0.984 . S
H1377 N1370 0.984 . S
H1378 N1366 0.984 . S
H1379 N1366 0.985 . S
C1380 C1381 1.363 . S
C1380 C1386 1.379 . S
C1380 N1388 1.356 . S
C1381 C1380 1.363 . S
C1381 C1387 1.363 . S
C1382 C1383 1.363 . S
C1382 C1387 1.379 . S
C1382 N1389 1.356 . S
C1383 C1382 1.363 . S
C1383 C1386 1.363 . S
N1384 C1386 1.356 . S
N1384 H1396 0.984 . S
N1384 H1397 0.985 . S
N1385 C1387 1.356 . S
N1385 H1390 0.984 . S
N1385 H1391 0.985 . S
C1386 C1380 1.379 . S
C1386 C1383 1.363 . S
C1386 N1384 1.356 . S
C1387 C1381 1.363 . S
C1387 C1382 1.379 . S
C1387 N1385 1.356 . S
N1388 C1380 1.356 . S
N1388 H1394 0.984 . S
N1388 H1395 0.984 . S
N1389 C1382 1.356 . S
N1389 H1392 0.984 . S
N1389 H1393 0.985 . S
H1390 N1385 0.984 . S
H1391 N1385 0.985 . S
H1392 N1389 0.984 . S
H1393 N1389 0.985 . S
H1394 N1388 0.984 . S
H1395 N1388 0.984 . S
H1396 N1384 0.984 . S
H1397 N1384 0.985 . S
C1398 C1399 1.363 . S
C1398 C1404 1.379 . S
C1398 N1406 1.356 . S
C1399 C1398 1.363 . S
C1399 C1405 1.363 . S
C1400 C1401 1.363 . S
C1400 C1405 1.379 . S
C1400 N1407 1.356 . S
C1401 C1400 1.363 . S
C1401 C1404 1.363 . S
N1402 C1404 1.356 . S
N1402 H1414 0.984 . S
N1402 H1415 0.985 . S
N1403 C1405 1.356 . S
N1403 H1408 0.984 . S
N1403 H1409 0.985 . S
C1404 C1398 1.379 . S
C1404 C1401 1.363 . S
C1404 N1402 1.356 . S
C1405 C1399 1.363 . S
C1405 C1400 1.379 . S
C1405 N1403 1.356 . S
N1406 C1398 1.356 . S
N1406 H1412 0.984 . S
N1406 H1413 0.984 . S
N1407 C1400 1.356 . S
N1407 H1410 0.984 . S
N1407 H1411 0.985 . S
H1408 N1403 0.984 . S
H1409 N1403 0.985 . S
H1410 N1407 0.984 . S
H1411 N1407 0.985 . S
H1412 N1406 0.984 . S
H1413 N1406 0.984 . S
H1414 N1402 0.984 . S
H1415 N1402 0.985 . S
C1416 C1417 1.363 . S
C1416 C1422 1.379 . S
C1416 N1424 1.356 . S
C1417 C1416 1.363 . S
C1417 C1423 1.363 . S
C1418 C1419 1.363 . S
C1418 C1423 1.379 . S
C1418 N1425 1.356 . S
C1419 C1418 1.363 . S
C1419 C1422 1.363 . S
N1420 C1422 1.356 . S
N1420 H1432 0.984 . S
N1420 H1433 0.985 . S
N1421 C1423 1.356 . S
N1421 H1426 0.984 . S
N1421 H1427 0.985 . S
C1422 C1416 1.379 . S
C1422 C1419 1.363 . S
C1422 N1420 1.356 . S
C1423 C1417 1.363 . S
C1423 C1418 1.379 . S
C1423 N1421 1.356 . S
N1424 C1416 1.356 . S
N1424 H1430 0.984 . S
N1424 H1431 0.984 . S
N1425 C1418 1.356 . S
N1425 H1428 0.984 . S
N1425 H1429 0.985 . S
H1426 N1421 0.984 . S
H1427 N1421 0.985 . S
H1428 N1425 0.984 . S
H1429 N1425 0.985 . S
H1430 N1424 0.984 . S
H1431 N1424 0.984 . S
H1432 N1420 0.984 . S
H1433 N1420 0.985 . S
C1434 C1435 1.363 . S
C1434 C1440 1.379 . S
C1434 N1442 1.356 . S
C1435 C1434 1.363 . S
C1435 C1441 1.363 . S
C1436 C1437 1.363 . S
C1436 C1441 1.379 . S
C1436 N1443 1.356 . S
C1437 C1436 1.363 . S
C1437 C1440 1.363 . S
N1438 C1440 1.356 . S
N1438 H1450 0.984 . S
N1438 H1451 0.985 . S
N1439 C1441 1.356 . S
N1439 H1444 0.984 . S
N1439 H1445 0.985 . S
C1440 C1434 1.379 . S
C1440 C1437 1.363 . S
C1440 N1438 1.356 . S
C1441 C1435 1.363 . S
C1441 C1436 1.379 . S
C1441 N1439 1.356 . S
N1442 C1434 1.356 . S
N1442 H1448 0.984 . S
N1442 H1449 0.984 . S
N1443 C1436 1.356 . S
N1443 H1446 0.984 . S
N1443 H1447 0.985 . S
H1444 N1439 0.984 . S
H1445 N1439 0.985 . S
H1446 N1443 0.984 . S
H1447 N1443 0.985 . S
H1448 N1442 0.984 . S
H1449 N1442 0.984 . S
H1450 N1438 0.984 . S
H1451 N1438 0.985 . S
C1452 C1453 1.363 . S
C1452 C1458 1.379 . S
C1452 N1460 1.356 . S
C1453 C1452 1.363 . S
C1453 C1459 1.363 . S
C1454 C1455 1.363 . S
C1454 C1459 1.379 . S
C1454 N1461 1.356 . S
C1455 C1454 1.363 . S
C1455 C1458 1.363 . S
N1456 C1458 1.356 . S
N1456 H1468 0.984 . S
N1456 H1469 0.985 . S
N1457 C1459 1.356 . S
N1457 H1462 0.984 . S
N1457 H1463 0.985 . S
C1458 C1452 1.379 . S
C1458 C1455 1.363 . S
C1458 N1456 1.356 . S
C1459 C1453 1.363 . S
C1459 C1454 1.379 . S
C1459 N1457 1.356 . S
N1460 C1452 1.356 . S
N1460 H1466 0.984 . S
N1460 H1467 0.984 . S
N1461 C1454 1.356 . S
N1461 H1464 0.984 . S
N1461 H1465 0.985 . S
H1462 N1457 0.984 . S
H1463 N1457 0.985 . S
H1464 N1461 0.984 . S
H1465 N1461 0.985 . S
H1466 N1460 0.984 . S
H1467 N1460 0.984 . S
H1468 N1456 0.984 . S
H1469 N1456 0.985 . S
C1470 C1471 1.363 . S
C1470 C1476 1.379 . S
C1470 N1478 1.356 . S
C1471 C1470 1.363 . S
C1471 C1477 1.363 . S
C1472 C1473 1.363 . S
C1472 C1477 1.379 . S
C1472 N1479 1.356 . S
C1473 C1472 1.363 . S
C1473 C1476 1.363 . S
N1474 C1476 1.356 . S
N1474 H1486 0.984 . S
N1474 H1487 0.985 . S
N1475 C1477 1.356 . S
N1475 H1480 0.984 . S
N1475 H1481 0.985 . S
C1476 C1470 1.379 . S
C1476 C1473 1.363 . S
C1476 N1474 1.356 . S
C1477 C1471 1.363 . S
C1477 C1472 1.379 . S
C1477 N1475 1.356 . S
N1478 C1470 1.356 . S
N1478 H1484 0.984 . S
N1478 H1485 0.984 . S
N1479 C1472 1.356 . S
N1479 H1482 0.984 . S
N1479 H1483 0.985 . S
H1480 N1475 0.984 . S
H1481 N1475 0.985 . S
H1482 N1479 0.984 . S
H1483 N1479 0.985 . S
H1484 N1478 0.984 . S
H1485 N1478 0.984 . S
H1486 N1474 0.984 . S
H1487 N1474 0.985 . S
C1488 C1489 1.363 . S
C1488 C1494 1.379 . S
C1488 N1496 1.356 . S
C1489 C1488 1.363 . S
C1489 C1495 1.363 . S
C1490 C1491 1.363 . S
C1490 C1495 1.379 . S
C1490 N1497 1.356 . S
C1491 C1490 1.363 . S
C1491 C1494 1.363 . S
N1492 C1494 1.356 . S
N1492 H1504 0.984 . S
N1492 H1505 0.985 . S
N1493 C1495 1.356 . S
N1493 H1498 0.984 . S
N1493 H1499 0.985 . S
C1494 C1488 1.379 . S
C1494 C1491 1.363 . S
C1494 N1492 1.356 . S
C1495 C1489 1.363 . S
C1495 C1490 1.379 . S
C1495 N1493 1.356 . S
N1496 C1488 1.356 . S
N1496 H1502 0.984 . S
N1496 H1503 0.984 . S
N1497 C1490 1.356 . S
N1497 H1500 0.984 . S
N1497 H1501 0.985 . S
H1498 N1493 0.984 . S
H1499 N1493 0.985 . S
H1500 N1497 0.984 . S
H1501 N1497 0.985 . S
H1502 N1496 0.984 . S
H1503 N1496 0.984 . S
H1504 N1492 0.984 . S
H1505 N1492 0.985 . S
C1506 C1507 1.363 . S
C1506 C1512 1.379 . S
C1506 N1514 1.356 . S
C1507 C1506 1.363 . S
C1507 C1513 1.363 . S
C1508 C1509 1.363 . S
C1508 C1513 1.379 . S
C1508 N1515 1.356 . S
C1509 C1508 1.363 . S
C1509 C1512 1.363 . S
N1510 C1512 1.356 . S
N1510 H1522 0.984 . S
N1510 H1523 0.985 . S
N1511 C1513 1.356 . S
N1511 H1516 0.984 . S
N1511 H1517 0.985 . S
C1512 C1506 1.379 . S
C1512 C1509 1.363 . S
C1512 N1510 1.356 . S
C1513 C1507 1.363 . S
C1513 C1508 1.379 . S
C1513 N1511 1.356 . S
N1514 C1506 1.356 . S
N1514 H1520 0.984 . S
N1514 H1521 0.984 . S
N1515 C1508 1.356 . S
N1515 H1518 0.984 . S
N1515 H1519 0.983 . S
H1516 N1511 0.984 . S
H1517 N1511 0.985 . S
H1518 N1515 0.984 . S
H1519 N1515 0.983 . S
H1520 N1514 0.984 . S
H1521 N1514 0.984 . S
H1522 N1510 0.984 . S
H1523 N1510 0.985 . S
C1524 C1525 1.363 . S
C1524 C1530 1.379 . S
C1524 N1532 1.356 . S
C1525 C1524 1.363 . S
C1525 C1531 1.363 . S
C1526 C1527 1.363 . S
C1526 C1531 1.379 . S
C1526 N1533 1.356 . S
C1527 C1526 1.363 . S
C1527 C1530 1.363 . S
N1528 C1530 1.356 . S
N1528 H1540 0.984 . S
N1528 H1541 0.985 . S
N1529 C1531 1.356 . S
N1529 H1534 0.984 . S
N1529 H1535 0.985 . S
C1530 C1524 1.379 . S
C1530 C1527 1.363 . S
C1530 N1528 1.356 . S
C1531 C1525 1.363 . S
C1531 C1526 1.379 . S
C1531 N1529 1.356 . S
N1532 C1524 1.356 . S
N1532 H1538 0.984 . S
N1532 H1539 0.984 . S
N1533 C1526 1.356 . S
N1533 H1536 0.984 . S
N1533 H1537 0.985 . S
H1534 N1529 0.984 . S
H1535 N1529 0.985 . S
H1536 N1533 0.984 . S
H1537 N1533 0.985 . S
H1538 N1532 0.984 . S
H1539 N1532 0.984 . S
H1540 N1528 0.984 . S
H1541 N1528 0.985 . S
C1542 C1543 1.363 . S
C1542 C1548 1.379 . S
C1542 N1550 1.356 . S
C1543 C1542 1.363 . S
C1543 C1549 1.363 . S
C1544 C1545 1.363 . S
C1544 C1549 1.379 . S
C1544 N1551 1.356 . S
C1545 C1544 1.363 . S
C1545 C1548 1.363 . S
N1546 C1548 1.356 . S
N1546 H1558 0.984 . S
N1546 H1559 0.985 . S
N1547 C1549 1.356 . S
N1547 H1552 0.984 . S
N1547 H1553 0.985 . S
C1548 C1542 1.379 . S
C1548 C1545 1.363 . S
C1548 N1546 1.356 . S
C1549 C1543 1.363 . S
C1549 C1544 1.379 . S
C1549 N1547 1.356 . S
N1550 C1542 1.356 . S
N1550 H1556 0.984 . S
N1550 H1557 0.984 . S
N1551 C1544 1.356 . S
N1551 H1554 0.984 . S
N1551 H1555 0.985 . S
H1552 N1547 0.984 . S
H1553 N1547 0.985 . S
H1554 N1551 0.984 . S
H1555 N1551 0.985 . S
H1556 N1550 0.984 . S
H1557 N1550 0.984 . S
H1558 N1546 0.984 . S
H1559 N1546 0.985 . S
C1560 C1561 1.363 . S
C1560 C1566 1.379 . S
C1560 N1568 1.356 . S
C1561 C1560 1.363 . S
C1561 C1567 1.363 . S
C1562 C1563 1.363 . S
C1562 C1567 1.379 . S
C1562 N1569 1.356 . S
C1563 C1562 1.363 . S
C1563 C1566 1.363 . S
N1564 C1566 1.356 . S
N1564 H1576 0.984 . S
N1564 H1577 0.985 . S
N1565 C1567 1.356 . S
N1565 H1570 0.984 . S
N1565 H1571 0.985 . S
C1566 C1560 1.379 . S
C1566 C1563 1.363 . S
C1566 N1564 1.356 . S
C1567 C1561 1.363 . S
C1567 C1562 1.379 . S
C1567 N1565 1.356 . S
N1568 C1560 1.356 . S
N1568 H1574 0.984 . S
N1568 H1575 0.984 . S
N1569 C1562 1.356 . S
N1569 H1572 0.984 . S
N1569 H1573 0.985 . S
H1570 N1565 0.984 . S
H1571 N1565 0.985 . S
H1572 N1569 0.984 . S
H1573 N1569 0.985 . S
H1574 N1568 0.984 . S
H1575 N1568 0.984 . S
H1576 N1564 0.984 . S
H1577 N1564 0.985 . S
C1578 C1579 1.363 . S
C1578 C1584 1.379 . S
C1578 N1586 1.356 . S
C1579 C1578 1.363 . S
C1579 C1585 1.363 . S
C1580 C1581 1.363 . S
C1580 C1585 1.379 . S
C1580 N1587 1.356 . S
C1581 C1580 1.363 . S
C1581 C1584 1.363 . S
N1582 C1584 1.356 . S
N1582 H1594 0.984 . S
N1582 H1595 0.985 . S
N1583 C1585 1.356 . S
N1583 H1588 0.984 . S
N1583 H1589 0.985 . S
C1584 C1578 1.379 . S
C1584 C1581 1.363 . S
C1584 N1582 1.356 . S
C1585 C1579 1.363 . S
C1585 C1580 1.379 . S
C1585 N1583 1.356 . S
N1586 C1578 1.356 . S
N1586 H1592 0.984 . S
N1586 H1593 0.984 . S
N1587 C1580 1.356 . S
N1587 H1590 0.984 . S
N1587 H1591 0.985 . S
H1588 N1583 0.984 . S
H1589 N1583 0.985 . S
H1590 N1587 0.984 . S
H1591 N1587 0.985 . S
H1592 N1586 0.984 . S
H1593 N1586 0.984 . S
H1594 N1582 0.984 . S
H1595 N1582 0.985 . S
C1596 C1597 1.363 . S
C1596 C1602 1.379 . S
C1596 N1604 1.356 . S
C1597 C1596 1.363 . S
C1597 C1603 1.363 . S
C1598 C1599 1.363 . S
C1598 C1603 1.379 . S
C1598 N1605 1.356 . S
C1599 C1598 1.363 . S
C1599 C1602 1.363 . S
N1600 C1602 1.356 . S
N1600 H1612 0.984 . S
N1600 H1613 0.985 . S
N1601 C1603 1.356 . S
N1601 H1606 0.984 . S
N1601 H1607 0.985 . S
C1602 C1596 1.379 . S
C1602 C1599 1.363 . S
C1602 N1600 1.356 . S
C1603 C1597 1.363 . S
C1603 C1598 1.379 . S
C1603 N1601 1.356 . S
N1604 C1596 1.356 . S
N1604 H1610 0.984 . S
N1604 H1611 0.984 . S
N1605 C1598 1.356 . S
N1605 H1608 0.984 . S
N1605 H1609 0.985 . S
H1606 N1601 0.984 . S
H1607 N1601 0.985 . S
H1608 N1605 0.984 . S
H1609 N1605 0.985 . S
H1610 N1604 0.984 . S
H1611 N1604 0.984 . S
H1612 N1600 0.984 . S
H1613 N1600 0.985 . S
C1614 C1615 1.363 . S
C1614 C1620 1.379 . S
C1614 N1622 1.356 . S
C1615 C1614 1.363 . S
C1615 C1621 1.363 . S
C1616 C1617 1.363 . S
C1616 C1621 1.379 . S
C1616 N1623 1.361 . S
C1617 C1616 1.363 . S
C1617 C1620 1.363 . S
N1618 C1620 1.356 . S
N1618 H1630 0.984 . S
N1618 H1631 0.985 . S
N1619 C1621 1.356 . S
N1619 H1624 0.984 . S
N1619 H1625 0.985 . S
C1620 C1614 1.379 . S
C1620 C1617 1.363 . S
C1620 N1618 1.356 . S
C1621 C1615 1.363 . S
C1621 C1616 1.379 . S
C1621 N1619 1.356 . S
N1622 C1614 1.356 . S
N1622 H1628 0.984 . S
N1622 H1629 0.984 . S
N1623 C1616 1.361 . S
N1623 H1626 0.977 1_655 S
N1623 H1627 0.987 1_655 S
H1624 N1619 0.984 . S
H1625 N1619 0.985 . S
H1626 N1623 0.977 1_455 S
H1627 N1623 0.987 1_455 S
H1628 N1622 0.984 . S
H1629 N1622 0.984 . S
H1630 N1618 0.984 . S
H1631 N1618 0.985 . S
C1632 C1633 1.363 . S
C1632 C1638 1.379 . S
C1632 N1640 1.356 . S
C1633 C1632 1.363 . S
C1633 C1639 1.363 . S
C1634 C1635 1.363 . S
C1634 C1639 1.379 . S
C1634 N1641 1.356 . S
C1635 C1634 1.363 . S
C1635 C1638 1.363 . S
N1636 C1638 1.356 . S
N1636 H1648 0.984 . S
N1636 H1649 0.985 . S
N1637 C1639 1.356 . S
N1637 H1642 0.984 . S
N1637 H1643 0.985 . S
C1638 C1632 1.379 . S
C1638 C1635 1.363 . S
C1638 N1636 1.356 . S
C1639 C1633 1.363 . S
C1639 C1634 1.379 . S
C1639 N1637 1.356 . S
N1640 C1632 1.356 . S
N1640 H1646 0.984 . S
N1640 H1647 0.984 . S
N1641 C1634 1.356 . S
N1641 H1644 0.984 . S
N1641 H1645 0.985 . S
H1642 N1637 0.984 . S
H1643 N1637 0.985 . S
H1644 N1641 0.984 . S
H1645 N1641 0.985 . S
H1646 N1640 0.984 . S
H1647 N1640 0.984 . S
H1648 N1636 0.984 . S
H1649 N1636 0.985 . S
C1650 C1651 1.363 . S
C1650 C1656 1.379 . S
C1650 N1658 1.356 . S
C1651 C1650 1.363 . S
C1651 C1657 1.363 . S
C1652 C1653 1.363 . S
C1652 C1657 1.379 . S
C1652 N1659 1.356 . S
C1653 C1652 1.363 . S
C1653 C1656 1.363 . S
N1654 C1656 1.356 . S
N1654 H1666 0.984 . S
N1654 H1667 0.985 . S
N1655 C1657 1.356 . S
N1655 H1660 0.984 . S
N1655 H1661 0.985 . S
C1656 C1650 1.379 . S
C1656 C1653 1.363 . S
C1656 N1654 1.356 . S
C1657 C1651 1.363 . S
C1657 C1652 1.379 . S
C1657 N1655 1.356 . S
N1658 C1650 1.356 . S
N1658 H1664 0.984 . S
N1658 H1665 0.984 . S
N1659 C1652 1.356 . S
N1659 H1662 0.984 . S
N1659 H1663 0.985 . S
H1660 N1655 0.984 . S
H1661 N1655 0.985 . S
H1662 N1659 0.984 . S
H1663 N1659 0.985 . S
H1664 N1658 0.984 . S
H1665 N1658 0.984 . S
H1666 N1654 0.984 . S
H1667 N1654 0.985 . S
C1668 C1669 1.363 . S
C1668 C1674 1.379 . S
C1668 N1676 1.356 . S
C1669 C1668 1.363 . S
C1669 C1675 1.363 . S
C1670 C1671 1.363 . S
C1670 C1675 1.379 . S
C1670 N1677 1.356 . S
C1671 C1670 1.363 . S
C1671 C1674 1.363 . S
N1672 C1674 1.356 . S
N1672 H1684 0.984 . S
N1672 H1685 0.985 . S
N1673 C1675 1.356 . S
N1673 H1678 0.984 . S
N1673 H1679 0.985 . S
C1674 C1668 1.379 . S
C1674 C1671 1.363 . S
C1674 N1672 1.356 . S
C1675 C1669 1.363 . S
C1675 C1670 1.379 . S
C1675 N1673 1.356 . S
N1676 C1668 1.356 . S
N1676 H1682 0.984 . S
N1676 H1683 0.984 . S
N1677 C1670 1.356 . S
N1677 H1680 0.984 . S
N1677 H1681 0.985 . S
H1678 N1673 0.984 . S
H1679 N1673 0.985 . S
H1680 N1677 0.984 . S
H1681 N1677 0.985 . S
H1682 N1676 0.984 . S
H1683 N1676 0.984 . S
H1684 N1672 0.984 . S
H1685 N1672 0.985 . S
C1686 C1687 1.363 . S
C1686 C1692 1.379 . S
C1686 N1694 1.356 . S
C1687 C1686 1.363 . S
C1687 C1693 1.363 . S
C1688 C1689 1.363 . S
C1688 C1693 1.379 . S
C1688 N1695 1.356 . S
C1689 C1688 1.363 . S
C1689 C1692 1.363 . S
N1690 C1692 1.356 . S
N1690 H1702 0.984 . S
N1690 H1703 0.985 . S
N1691 C1693 1.356 . S
N1691 H1696 0.984 . S
N1691 H1697 0.985 . S
C1692 C1686 1.379 . S
C1692 C1689 1.363 . S
C1692 N1690 1.356 . S
C1693 C1687 1.363 . S
C1693 C1688 1.379 . S
C1693 N1691 1.356 . S
N1694 C1686 1.356 . S
N1694 H1700 0.984 . S
N1694 H1701 0.984 . S
N1695 C1688 1.356 . S
N1695 H1698 0.984 . S
N1695 H1699 0.985 . S
H1696 N1691 0.984 . S
H1697 N1691 0.985 . S
H1698 N1695 0.984 . S
H1699 N1695 0.985 . S
H1700 N1694 0.984 . S
H1701 N1694 0.984 . S
H1702 N1690 0.984 . S
H1703 N1690 0.985 . S
C1704 C1705 1.363 . S
C1704 C1710 1.379 . S
C1704 N1712 1.356 . S
C1705 C1704 1.363 . S
C1705 C1711 1.363 . S
C1706 C1707 1.363 . S
C1706 C1711 1.379 . S
C1706 N1713 1.356 . S
C1707 C1706 1.363 . S
C1707 C1710 1.363 . S
N1708 C1710 1.356 . S
N1708 H1720 0.984 . S
N1708 H1721 0.985 . S
N1709 C1711 1.356 . S
N1709 H1714 0.984 . S
N1709 H1715 0.985 . S
C1710 C1704 1.379 . S
C1710 C1707 1.363 . S
C1710 N1708 1.356 . S
C1711 C1705 1.363 . S
C1711 C1706 1.379 . S
C1711 N1709 1.356 . S
N1712 C1704 1.356 . S
N1712 H1718 0.984 . S
N1712 H1719 0.984 . S
N1713 C1706 1.356 . S
N1713 H1716 0.984 . S
N1713 H1717 0.985 . S
H1714 N1709 0.984 . S
H1715 N1709 0.985 . S
H1716 N1713 0.984 . S
H1717 N1713 0.985 . S
H1718 N1712 0.984 . S
H1719 N1712 0.984 . S
H1720 N1708 0.984 . S
H1721 N1708 0.985 . S
C861 C683 1.656 . S
C859 C75 1.533 . S
C879 C673 0.731 . S
C877 C156 0.738 . S
C897 C674 1.393 . S
C895 C243 1.273 . S
C913 C315 0.765 . S
C915 C696 0.776 . S
C931 C399 0.811 . S
C933 C699 0.731 . S
C951 C682 1.416 . S
C949 C495 1.283 . S
C967 C576 1.098 . S
C969 C672 1.147 . S
C985 C654 1.536 . S
C987 C690 1.627 . S
C1005 C703 0.948 . S
C1003 C72 0.931 . S
C1021 C140 1.426 . S
C1023 C752 1.409 . S
C1041 C730 1.106 . S
C1039 C240 1.185 . S
C1059 C744 0.908 . S
C1057 C318 0.895 . S
C1075 C402 0.878 . S
C1077 C705 0.864 . S
C1095 C758 1.562 1_556 S
C1093 C492 1.626 . S
C1111 C560 1.416 . S
C1113 C714 1.428 . S
C1129 C655 2.750 . S
C1131 C735 2.868 . S
C1147 C56 3.045 . S
C1149 C761 3.117 . S
C1165 C403 1.956 . S
C1167 C745 1.881 . S
C1185 C704 2.366 . S
C1183 C476 2.230 . S
C1203 C736 1.624 . S
C1201 C579 1.638 . S
C1219 C651 1.237 . S
C1221 C727 1.205 . S
C1237 C224 2.975 . S
C1239 C734 3.115 . S
C1257 C721 1.876 . S
C1255 C319 1.830 . S
C1273 C159 1.698 . S
C1275 C713 1.718 . S
C1291 C663 1.536 . S
C1293 C776 1.627 . S
C1309 C408 0.811 . S
C1311 C766 0.731 . S
C1329 C767 1.416 . S
C1327 C486 1.283 . S
C1347 C789 1.147 . S
C1345 C567 1.098 . S
C1363 C147 0.738 . S
C1365 C792 0.731 . S
C1383 C775 1.393 . S
C1381 C234 1.273 . S
C1399 C324 0.765 . S
C1401 C765 0.776 . S
C1417 C66 1.533 . S
C1419 C783 1.656 . S
C1435 C660 1.237 . S
C1437 C796 1.206 . S
C1455 C845 1.881 . S
C1453 C392 1.956 . S
C1471 C487 2.230 . S
C1473 C823 2.366 . S
C1489 C570 1.638 . S
C1491 C837 1.619 . S
C1509 C798 1.718 . S
C1507 C150 1.697 . S
C1525 C235 2.975 . S
C1527 C851 3.115 . S
C1545 C807 1.876 . S
C1543 C308 1.830 . S
C1563 C828 3.117 . S
C1561 C67 3.045 . S
C1581 C854 2.868 . S
C1579 C644 2.750 . S
C1597 C151 1.426 . S
C1599 C838 1.409 . S
C1615 C231 1.185 . S
C1617 C797 1.106 . S
C1635 C829 0.908 . S
C1633 C327 0.895 . S
C1651 C63 0.931 . S
C1653 C820 0.948 . S
C1669 C483 1.625 . S
C1671 C827 1.562 . S
C1689 C814 1.428 . S
C1687 C571 1.416 . S
C1707 C806 0.864 . S
C1705 C411 0.878 . S
