# Generated by pormake.
# Topology gar, (4,6)-cn, num edge types: 1
# Building blocks:
#     Node 0, Type 0, BuildingBlock: GALJAG_clean_sbu_0, # of connection points: 4
#     Node 1, Type 0, BuildingBlock: GALJAG_clean_sbu_0, # of connection points: 4
#     Node 2, Type 0, BuildingBlock: GALJAG_clean_sbu_0, # of connection points: 4
#     Node 3, Type 0, BuildingBlock: GALJAG_clean_sbu_0, # of connection points: 4
#     Node 4, Type 0, BuildingBlock: GALJAG_clean_sbu_0, # of connection points: 4
#     Node 5, Type 0, BuildingBlock: GALJAG_clean_sbu_0, # of connection points: 4
#     Node 6, Type 0, BuildingBlock: GALJAG_clean_sbu_0, # of connection points: 4
#     Node 7, Type 0, BuildingBlock: GALJAG_clean_sbu_0, # of connection points: 4
#     Node 8, Type 0, BuildingBlock: GALJAG_clean_sbu_0, # of connection points: 4
#     Node 9, Type 0, BuildingBlock: GALJAG_clean_sbu_0, # of connection points: 4
#     Node 10, Type 0, BuildingBlock: GALJAG_clean_sbu_0, # of connection points: 4
#     Node 11, Type 0, BuildingBlock: GALJAG_clean_sbu_0, # of connection points: 4
#     Node 12, Type 0, BuildingBlock: GALJAG_clean_sbu_0, # of connection points: 4
#     Node 13, Type 0, BuildingBlock: GALJAG_clean_sbu_0, # of connection points: 4
#     Node 14, Type 0, BuildingBlock: GALJAG_clean_sbu_0, # of connection points: 4
#     Node 15, Type 0, BuildingBlock: GALJAG_clean_sbu_0, # of connection points: 4
#     Node 16, Type 0, BuildingBlock: GALJAG_clean_sbu_0, # of connection points: 4
#     Node 17, Type 0, BuildingBlock: GALJAG_clean_sbu_0, # of connection points: 4
#     Node 18, Type 0, BuildingBlock: GALJAG_clean_sbu_0, # of connection points: 4
#     Node 19, Type 0, BuildingBlock: GALJAG_clean_sbu_0, # of connection points: 4
#     Node 20, Type 0, BuildingBlock: GALJAG_clean_sbu_0, # of connection points: 4
#     Node 21, Type 0, BuildingBlock: GALJAG_clean_sbu_0, # of connection points: 4
#     Node 22, Type 0, BuildingBlock: GALJAG_clean_sbu_0, # of connection points: 4
#     Node 23, Type 0, BuildingBlock: GALJAG_clean_sbu_0, # of connection points: 4
#     Node 24, Type 1, BuildingBlock: BETDEL_clean_sbu_0, # of connection points: 6
#     Node 25, Type 1, BuildingBlock: BETDEL_clean_sbu_0, # of connection points: 6
#     Node 26, Type 1, BuildingBlock: BETDEL_clean_sbu_0, # of connection points: 6
#     Node 27, Type 1, BuildingBlock: BETDEL_clean_sbu_0, # of connection points: 6
#     Node 28, Type 1, BuildingBlock: BETDEL_clean_sbu_0, # of connection points: 6
#     Node 29, Type 1, BuildingBlock: BETDEL_clean_sbu_0, # of connection points: 6
#     Node 30, Type 1, BuildingBlock: BETDEL_clean_sbu_0, # of connection points: 6
#     Node 31, Type 1, BuildingBlock: BETDEL_clean_sbu_0, # of connection points: 6
#     Node 32, Type 1, BuildingBlock: BETDEL_clean_sbu_0, # of connection points: 6
#     Node 33, Type 1, BuildingBlock: BETDEL_clean_sbu_0, # of connection points: 6
#     Node 34, Type 1, BuildingBlock: BETDEL_clean_sbu_0, # of connection points: 6
#     Node 35, Type 1, BuildingBlock: BETDEL_clean_sbu_0, # of connection points: 6
#     Node 36, Type 1, BuildingBlock: BETDEL_clean_sbu_0, # of connection points: 6
#     Node 37, Type 1, BuildingBlock: BETDEL_clean_sbu_0, # of connection points: 6
#     Node 38, Type 1, BuildingBlock: BETDEL_clean_sbu_0, # of connection points: 6
#     Node 39, Type 1, BuildingBlock: BETDEL_clean_sbu_0, # of connection points: 6
#     Edge 40, Type (0, 1), BuildingBlock: EZIPEK_clean_linker_0, # of connection points: 2
#     Edge 41, Type (0, 1), BuildingBlock: EZIPEK_clean_linker_0, # of connection points: 2
#     Edge 42, Type (0, 1), BuildingBlock: EZIPEK_clean_linker_0, # of connection points: 2
#     Edge 43, Type (0, 1), BuildingBlock: EZIPEK_clean_linker_0, # of connection points: 2
#     Edge 44, Type (0, 1), BuildingBlock: EZIPEK_clean_linker_0, # of connection points: 2
#     Edge 45, Type (0, 1), BuildingBlock: EZIPEK_clean_linker_0, # of connection points: 2
#     Edge 46, Type (0, 1), BuildingBlock: EZIPEK_clean_linker_0, # of connection points: 2
#     Edge 47, Type (0, 1), BuildingBlock: EZIPEK_clean_linker_0, # of connection points: 2
#     Edge 48, Type (0, 1), BuildingBlock: EZIPEK_clean_linker_0, # of connection points: 2
#     Edge 49, Type (0, 1), BuildingBlock: EZIPEK_clean_linker_0, # of connection points: 2
#     Edge 50, Type (0, 1), BuildingBlock: EZIPEK_clean_linker_0, # of connection points: 2
#     Edge 51, Type (0, 1), BuildingBlock: EZIPEK_clean_linker_0, # of connection points: 2
#     Edge 52, Type (0, 1), BuildingBlock: EZIPEK_clean_linker_0, # of connection points: 2
#     Edge 53, Type (0, 1), BuildingBlock: EZIPEK_clean_linker_0, # of connection points: 2
#     Edge 54, Type (0, 1), BuildingBlock: EZIPEK_clean_linker_0, # of connection points: 2
#     Edge 55, Type (0, 1), BuildingBlock: EZIPEK_clean_linker_0, # of connection points: 2
#     Edge 56, Type (0, 1), BuildingBlock: EZIPEK_clean_linker_0, # of connection points: 2
#     Edge 57, Type (0, 1), BuildingBlock: EZIPEK_clean_linker_0, # of connection points: 2
#     Edge 58, Type (0, 1), BuildingBlock: EZIPEK_clean_linker_0, # of connection points: 2
#     Edge 59, Type (0, 1), BuildingBlock: EZIPEK_clean_linker_0, # of connection points: 2
#     Edge 60, Type (0, 1), BuildingBlock: EZIPEK_clean_linker_0, # of connection points: 2
#     Edge 61, Type (0, 1), BuildingBlock: EZIPEK_clean_linker_0, # of connection points: 2
#     Edge 62, Type (0, 1), BuildingBlock: EZIPEK_clean_linker_0, # of connection points: 2
#     Edge 63, Type (0, 1), BuildingBlock: EZIPEK_clean_linker_0, # of connection points: 2
#     Edge 64, Type (0, 1), BuildingBlock: EZIPEK_clean_linker_0, # of connection points: 2
#     Edge 65, Type (0, 1), BuildingBlock: EZIPEK_clean_linker_0, # of connection points: 2
#     Edge 66, Type (0, 1), BuildingBlock: EZIPEK_clean_linker_0, # of connection points: 2
#     Edge 67, Type (0, 1), BuildingBlock: EZIPEK_clean_linker_0, # of connection points: 2
#     Edge 68, Type (0, 1), BuildingBlock: EZIPEK_clean_linker_0, # of connection points: 2
#     Edge 69, Type (0, 1), BuildingBlock: EZIPEK_clean_linker_0, # of connection points: 2
#     Edge 70, Type (0, 1), BuildingBlock: EZIPEK_clean_linker_0, # of connection points: 2
#     Edge 71, Type (0, 1), BuildingBlock: EZIPEK_clean_linker_0, # of connection points: 2
#     Edge 72, Type (0, 1), BuildingBlock: EZIPEK_clean_linker_0, # of connection points: 2
#     Edge 73, Type (0, 1), BuildingBlock: EZIPEK_clean_linker_0, # of connection points: 2
#     Edge 74, Type (0, 1), BuildingBlock: EZIPEK_clean_linker_0, # of connection points: 2
#     Edge 75, Type (0, 1), BuildingBlock: EZIPEK_clean_linker_0, # of connection points: 2
#     Edge 76, Type (0, 1), BuildingBlock: EZIPEK_clean_linker_0, # of connection points: 2
#     Edge 77, Type (0, 1), BuildingBlock: EZIPEK_clean_linker_0, # of connection points: 2
#     Edge 78, Type (0, 1), BuildingBlock: EZIPEK_clean_linker_0, # of connection points: 2
#     Edge 79, Type (0, 1), BuildingBlock: EZIPEK_clean_linker_0, # of connection points: 2
#     Edge 80, Type (0, 1), BuildingBlock: EZIPEK_clean_linker_0, # of connection points: 2
#     Edge 81, Type (0, 1), BuildingBlock: EZIPEK_clean_linker_0, # of connection points: 2
#     Edge 82, Type (0, 1), BuildingBlock: EZIPEK_clean_linker_0, # of connection points: 2
#     Edge 83, Type (0, 1), BuildingBlock: EZIPEK_clean_linker_0, # of connection points: 2
#     Edge 84, Type (0, 1), BuildingBlock: EZIPEK_clean_linker_0, # of connection points: 2
#     Edge 85, Type (0, 1), BuildingBlock: EZIPEK_clean_linker_0, # of connection points: 2
#     Edge 86, Type (0, 1), BuildingBlock: EZIPEK_clean_linker_0, # of connection points: 2
#     Edge 87, Type (0, 1), BuildingBlock: EZIPEK_clean_linker_0, # of connection points: 2
#     Edge 88, Type (0, 1), BuildingBlock: EZIPEK_clean_linker_0, # of connection points: 2
#     Edge 89, Type (0, 1), BuildingBlock: EZIPEK_clean_linker_0, # of connection points: 2
#     Edge 90, Type (0, 1), BuildingBlock: EZIPEK_clean_linker_0, # of connection points: 2
#     Edge 91, Type (0, 1), BuildingBlock: EZIPEK_clean_linker_0, # of connection points: 2
#     Edge 92, Type (0, 1), BuildingBlock: EZIPEK_clean_linker_0, # of connection points: 2
#     Edge 93, Type (0, 1), BuildingBlock: EZIPEK_clean_linker_0, # of connection points: 2
#     Edge 94, Type (0, 1), BuildingBlock: EZIPEK_clean_linker_0, # of connection points: 2
#     Edge 95, Type (0, 1), BuildingBlock: EZIPEK_clean_linker_0, # of connection points: 2
#     Edge 96, Type (0, 1), BuildingBlock: EZIPEK_clean_linker_0, # of connection points: 2
#     Edge 97, Type (0, 1), BuildingBlock: EZIPEK_clean_linker_0, # of connection points: 2
#     Edge 98, Type (0, 1), BuildingBlock: EZIPEK_clean_linker_0, # of connection points: 2
#     Edge 99, Type (0, 1), BuildingBlock: EZIPEK_clean_linker_0, # of connection points: 2
#     Edge 100, Type (0, 1), BuildingBlock: EZIPEK_clean_linker_0, # of connection points: 2
#     Edge 101, Type (0, 1), BuildingBlock: EZIPEK_clean_linker_0, # of connection points: 2
#     Edge 102, Type (0, 1), BuildingBlock: EZIPEK_clean_linker_0, # of connection points: 2
#     Edge 103, Type (0, 1), BuildingBlock: EZIPEK_clean_linker_0, # of connection points: 2
#     Edge 104, Type (0, 1), BuildingBlock: EZIPEK_clean_linker_0, # of connection points: 2
#     Edge 105, Type (0, 1), BuildingBlock: EZIPEK_clean_linker_0, # of connection points: 2
#     Edge 106, Type (0, 1), BuildingBlock: EZIPEK_clean_linker_0, # of connection points: 2
#     Edge 107, Type (0, 1), BuildingBlock: EZIPEK_clean_linker_0, # of connection points: 2
#     Edge 108, Type (0, 1), BuildingBlock: EZIPEK_clean_linker_0, # of connection points: 2
#     Edge 109, Type (0, 1), BuildingBlock: EZIPEK_clean_linker_0, # of connection points: 2
#     Edge 110, Type (0, 1), BuildingBlock: EZIPEK_clean_linker_0, # of connection points: 2
#     Edge 111, Type (0, 1), BuildingBlock: EZIPEK_clean_linker_0, # of connection points: 2
#     Edge 112, Type (0, 1), BuildingBlock: EZIPEK_clean_linker_0, # of connection points: 2
#     Edge 113, Type (0, 1), BuildingBlock: EZIPEK_clean_linker_0, # of connection points: 2
#     Edge 114, Type (0, 1), BuildingBlock: EZIPEK_clean_linker_0, # of connection points: 2
#     Edge 115, Type (0, 1), BuildingBlock: EZIPEK_clean_linker_0, # of connection points: 2
#     Edge 116, Type (0, 1), BuildingBlock: EZIPEK_clean_linker_0, # of connection points: 2
#     Edge 117, Type (0, 1), BuildingBlock: EZIPEK_clean_linker_0, # of connection points: 2
#     Edge 118, Type (0, 1), BuildingBlock: EZIPEK_clean_linker_0, # of connection points: 2
#     Edge 119, Type (0, 1), BuildingBlock: EZIPEK_clean_linker_0, # of connection points: 2
#     Edge 120, Type (0, 1), BuildingBlock: EZIPEK_clean_linker_0, # of connection points: 2
#     Edge 121, Type (0, 1), BuildingBlock: EZIPEK_clean_linker_0, # of connection points: 2
#     Edge 122, Type (0, 1), BuildingBlock: EZIPEK_clean_linker_0, # of connection points: 2
#     Edge 123, Type (0, 1), BuildingBlock: EZIPEK_clean_linker_0, # of connection points: 2
#     Edge 124, Type (0, 1), BuildingBlock: EZIPEK_clean_linker_0, # of connection points: 2
#     Edge 125, Type (0, 1), BuildingBlock: EZIPEK_clean_linker_0, # of connection points: 2
#     Edge 126, Type (0, 1), BuildingBlock: EZIPEK_clean_linker_0, # of connection points: 2
#     Edge 127, Type (0, 1), BuildingBlock: EZIPEK_clean_linker_0, # of connection points: 2
#     Edge 128, Type (0, 1), BuildingBlock: EZIPEK_clean_linker_0, # of connection points: 2
#     Edge 129, Type (0, 1), BuildingBlock: EZIPEK_clean_linker_0, # of connection points: 2
#     Edge 130, Type (0, 1), BuildingBlock: EZIPEK_clean_linker_0, # of connection points: 2
#     Edge 131, Type (0, 1), BuildingBlock: EZIPEK_clean_linker_0, # of connection points: 2
#     Edge 132, Type (0, 1), BuildingBlock: EZIPEK_clean_linker_0, # of connection points: 2
#     Edge 133, Type (0, 1), BuildingBlock: EZIPEK_clean_linker_0, # of connection points: 2
#     Edge 134, Type (0, 1), BuildingBlock: EZIPEK_clean_linker_0, # of connection points: 2
#     Edge 135, Type (0, 1), BuildingBlock: EZIPEK_clean_linker_0, # of connection points: 2
# Relax obj value: 0.170
# Max RMSD: 0.279
# Mean RMSD: 0.168
data_MOF--net-gar--node1-GALJAG_clean_sbu_0--node2-BETDEL_clean_sbu_0--edge1-EZIPEK_clean_linker_0
_symmetry_space_group_name_H-M    P1
_symmetry_Int_Tables_number       1
_symmetry_cell_setting            triclinic
loop_
_symmetry_equiv_pos_as_xyz
'x, y, z'
_cell_length_a     41.736498
_cell_length_b     39.062182
_cell_length_c     40.500093
_cell_angle_alpha  95.522663
_cell_angle_beta   92.31786
_cell_angle_gamma 100.75139
loop_
_atom_site_label
_atom_site_type_symbol
_atom_site_fract_x
_atom_site_fract_y
_atom_site_fract_z
_atom_type_partial_charge
In0 In 0.05115 0.28003 0.40622 0.0
O1 O 0.076 0.25468 0.36352 0.0
O2 O 0.10587 0.29445 0.3965 0.0
C3 C 0.99691 0.28685 0.3708 0.0
C4 C 0.04134 0.22287 0.44089 0.0
C5 C 0.05648 0.34215 0.44397 0.0
O6 O 0.02516 0.29429 0.36047 0.0
O7 O 0.99557 0.27467 0.39859 0.0
O8 O 0.05837 0.31407 0.45629 0.0
O9 O 0.0536 0.33934 0.41271 0.0
C10 C 0.10399 0.27287 0.37093 0.0
O11 O 0.05565 0.25287 0.45353 0.0
O12 O 0.03153 0.22158 0.41079 0.0
In13 In 0.99626 0.76691 0.62927 0.0
O14 O 0.98439 0.79466 0.58405 0.0
O15 O 0.01615 0.82473 0.62289 0.0
C16 C 0.99572 0.70979 0.5856 0.0
C17 C 0.04854 0.75713 0.66598 0.0
C18 C 0.94628 0.77178 0.66999 0.0
O19 O 0.01775 0.73686 0.58764 0.0
O20 O 0.97299 0.71148 0.60501 0.0
O21 O 0.9758 0.77758 0.6805 0.0
O22 O 0.94193 0.76396 0.63896 0.0
C23 C 1.00199 0.82382 0.59459 0.0
O24 O 0.02177 0.73556 0.66312 0.0
O25 O 0.04877 0.7843 0.6513 0.0
In26 In 0.53926 0.77661 0.90592 0.0
O27 O 0.56188 0.75117 0.86127 0.0
O28 O 0.59339 0.78978 0.89417 0.0
C29 C 0.48446 0.78282 0.87083 0.0
C30 C 0.53337 0.71994 0.94047 0.0
C31 C 0.54327 0.83766 0.94497 0.0
O32 O 0.51245 0.78987 0.85977 0.0
O33 O 0.48382 0.77161 0.89902 0.0
O34 O 0.53695 0.8083 0.95615 0.0
O35 O 0.5495 0.83636 0.91474 0.0
C36 C 0.59036 0.76864 0.86812 0.0
O37 O 0.51463 0.72128 0.91555 0.0
O38 O 0.55544 0.74677 0.94771 0.0
In39 In 0.50808 0.27237 0.13295 0.0
O40 O 0.52081 0.24722 0.08346 0.0
O41 O 0.49294 0.21405 0.11469 0.0
C42 C 0.50843 0.32929 0.09973 0.0
C43 C 0.45886 0.27572 0.17416 0.0
C44 C 0.56218 0.2634 0.16716 0.0
O45 O 0.48793 0.30112 0.09286 0.0
O46 O 0.5286 0.32926 0.12392 0.0
O47 O 0.53485 0.24342 0.16794 0.0
O48 O 0.56214 0.28894 0.15019 0.0
C49 C 0.50737 0.21656 0.08803 0.0
O50 O 0.48851 0.28525 0.18396 0.0
O51 O 0.45421 0.26533 0.14359 0.0
In52 In 0.05465 0.78823 0.15631 0.0
O53 O 0.03606 0.73002 0.14027 0.0
O54 O 0.07829 0.75508 0.11807 0.0
C55 C 0.0471 0.84 0.11831 0.0
C56 C 1.0003 0.78499 0.19095 0.0
C57 C 0.10965 0.79606 0.19641 0.0
O58 O 0.04656 0.809 0.10611 0.0
O59 O 0.05205 0.84519 0.14943 0.0
O60 O 0.08425 0.77368 0.19942 0.0
O61 O 0.10754 0.81505 0.17321 0.0
C62 C 0.05789 0.72722 0.12008 0.0
O63 O 0.02799 0.80114 0.20291 0.0
O64 O 1.0 0.77029 0.16178 0.0
In65 In 0.50271 0.7582 0.38732 0.0
O66 O 0.5306 0.74367 0.34246 0.0
O67 O 0.55712 0.77762 0.38285 0.0
C68 C 0.45027 0.753 0.34461 0.0
C69 C 0.50811 0.70637 0.42587 0.0
C70 C 0.49806 0.81878 0.42276 0.0
O71 O 0.47748 0.77228 0.34132 0.0
O72 O 0.44953 0.73512 0.36903 0.0
O73 O 0.47591 0.7918 0.42137 0.0
O74 O 0.52266 0.81522 0.40656 0.0
C75 C 0.5577 0.76144 0.35439 0.0
O76 O 0.50572 0.73666 0.43785 0.0
O77 O 0.5068 0.70198 0.39459 0.0
In78 In 0.55199 0.29186 0.65849 0.0
O79 O 0.56616 0.25853 0.61404 0.0
O80 O 0.544 0.23198 0.65316 0.0
C81 C 0.54557 0.34494 0.62199 0.0
C82 C 0.49637 0.28745 0.69137 0.0
C83 C 0.60821 0.30115 0.69652 0.0
O84 O 0.5334 0.31342 0.61253 0.0
O85 O 0.56121 0.3501 0.6499 0.0
O86 O 0.58043 0.29394 0.70803 0.0
O87 O 0.60785 0.30483 0.6659 0.0
C88 C 0.55596 0.22968 0.62512 0.0
O89 O 0.52373 0.30346 0.70428 0.0
O90 O 0.49707 0.27366 0.66199 0.0
In91 In 0.99948 0.25402 0.88678 0.0
O92 O 1.0015 0.2314 0.93697 0.0
O93 O 0.01003 0.20002 0.89377 0.0
C94 C 0.99469 0.31446 0.92261 0.0
C95 C 0.05348 0.25904 0.85218 0.0
C96 C 0.94495 0.24494 0.84621 0.0
O97 O 0.97516 0.2861 0.925 0.0
O98 O 0.01698 0.31221 0.9028 0.0
O99 O 0.96872 0.26996 0.8459 0.0
O100 O 0.94841 0.22352 0.86689 0.0
C101 C 0.00856 0.20299 0.92489 0.0
O102 O 0.02574 0.24372 0.83965 0.0
O103 O 0.054 0.27222 0.88198 0.0
In104 In 0.42528 0.05464 0.28732 0.0
O105 O 0.46214 0.09374 0.26254 0.0
O106 O 0.45141 0.04027 0.24203 0.0
C107 C 0.46331 0.0614 0.34388 0.0
C108 C 0.37589 0.0862 0.27074 0.0
C109 C 0.38758 0.99191 0.29132 0.0
O110 O 0.46334 0.03762 0.32056 0.0
O111 O 0.44454 0.08243 0.33862 0.0
O112 O 0.38486 0.01867 0.31019 0.0
O113 O 0.40978 0.9964 0.27105 0.0
C114 C 0.46687 0.07086 0.24002 0.0
O115 O 0.38384 0.06166 0.25235 0.0
O116 O 0.3936 0.09596 0.2973 0.0
In117 In 0.26726 0.1521 0.49937 0.0
O118 O 0.25615 0.19682 0.53614 0.0
O119 O 0.27472 0.1559 0.55621 0.0
C120 C 0.27645 0.18769 0.44411 0.0
C121 C 0.31965 0.12052 0.50522 0.0
C122 C 0.20711 0.11039 0.49312 0.0
O123 O 0.28331 0.20214 0.47339 0.0
O124 O 0.26505 0.15526 0.44237 0.0
O125 O 0.23292 0.09865 0.48876 0.0
O126 O 0.21126 0.14322 0.49925 0.0
C127 C 0.26451 0.18412 0.56191 0.0
O128 O 0.29057 0.10391 0.50206 0.0
O129 O 0.32265 0.15326 0.50457 0.0
In130 In 0.15345 0.01028 0.79542 0.0
O131 O 0.10991 0.0239 0.76655 0.0
O132 O 0.14704 0.00694 0.73855 0.0
C133 C 0.11808 0.99931 0.84999 0.0
C134 C 0.18527 0.95527 0.7897 0.0
C135 C 0.19238 0.07476 0.79922 0.0
O136 O 0.10748 0.98572 0.82117 0.0
O137 O 0.14663 0.01735 0.85138 0.0
O138 O 0.20245 0.04687 0.79093 0.0
O139 O 0.16302 0.07026 0.8068 0.0
C140 C 0.12052 0.01795 0.73831 0.0
O141 O 0.19677 0.9839 0.80699 0.0
O142 O 0.15731 0.95388 0.77585 0.0
In143 In 0.26617 0.8998 0.99928 0.0
O144 O 0.24414 0.85311 0.02632 0.0
O145 O 0.28558 0.88884 0.04933 0.0
C146 C 0.25262 0.85261 0.94517 0.0
C147 C 0.22802 0.94739 0.01368 0.0
C148 C 0.32631 0.93495 0.99162 0.0
O149 O 0.23157 0.85671 0.96593 0.0
O150 O 0.27986 0.87292 0.95107 0.0
O151 O 0.30115 0.94623 0.98274 0.0
O152 O 0.3211 0.90588 0.00352 0.0
C153 C 0.26454 0.86147 0.05088 0.0
O154 O 0.2476 0.93947 0.03477 0.0
O155 O 0.22776 0.93167 0.9849 0.0
In156 In 0.27704 0.38787 0.03595 0.0
O157 O 0.25414 0.33949 0.06282 0.0
O158 O 0.28785 0.37968 0.09083 0.0
C159 C 0.28052 0.35715 0.97296 0.0
C160 C 0.22475 0.42098 0.03276 0.0
C161 C 0.33738 0.42969 0.04054 0.0
O162 O 0.27934 0.34008 0.99802 0.0
O163 O 0.27998 0.38922 0.97974 0.0
O164 O 0.31149 0.44126 0.0453 0.0
O165 O 0.33329 0.39678 0.03438 0.0
C166 C 0.26898 0.35045 0.09066 0.0
O167 O 0.25115 0.43434 0.04916 0.0
O168 O 0.22417 0.39056 0.01886 0.0
In169 In 0.79525 0.15088 0.03255 0.0
O170 O 0.81052 0.1053 1.00155 0.0
O171 O 0.83748 0.12415 0.04732 0.0
C172 C 0.73368 0.11794 0.03653 0.0
C173 C 0.80462 0.19788 0.08717 0.0
C174 C 0.79902 0.18862 0.98043 0.0
O175 O 0.75767 0.10485 0.04564 0.0
O176 O 0.74074 0.14768 0.02608 0.0
O177 O 0.82269 0.19121 1.00144 0.0
O178 O 0.77394 0.16656 0.98516 0.0
C179 C 0.83362 0.10264 0.02149 0.0
O180 O 0.82066 0.20242 0.0618 0.0
O181 O 0.78513 0.16895 0.08591 0.0
In182 In 0.14551 0.50522 0.23666 0.0
O183 O 0.187 0.48056 0.21681 0.0
O184 O 0.17235 0.4709 0.26527 0.0
C185 C 0.18309 0.5691 0.24291 0.0
C186 C 0.105 0.49663 0.18174 0.0
C187 C 0.10652 0.49693 0.28738 0.0
O188 O 0.19297 0.54243 0.23038 0.0
O189 O 0.15413 0.56366 0.25197 0.0
O190 O 0.10458 0.47364 0.26315 0.0
O191 O 0.12812 0.52397 0.28617 0.0
C192 C 0.19182 0.46659 0.24291 0.0
O193 O 0.11129 0.47097 0.19564 0.0
O194 O 0.1201 0.52608 0.19458 0.0
In195 In 0.77542 0.88889 0.53933 0.0
O196 O 0.75662 0.83812 0.56448 0.0
O197 O 0.77834 0.88366 0.59558 0.0
C198 C 0.78041 0.85666 0.47696 0.0
C199 C 0.72413 0.9226 0.53831 0.0
C200 C 0.83408 0.93381 0.5418 0.0
O201 O 0.79551 0.84993 0.50245 0.0
O202 O 0.76202 0.87835 0.48305 0.0
O203 O 0.80727 0.94301 0.53574 0.0
O204 O 0.83148 0.90222 0.5474 0.0
C205 C 0.76491 0.8518 0.59383 0.0
O206 O 0.7518 0.93663 0.55196 0.0
O207 O 0.72188 0.89119 0.526 0.0
In208 In 0.89151 0.03551 0.23523 0.0
O209 O 0.94225 0.05241 0.21551 0.0
O210 O 0.90243 0.03607 0.17982 0.0
C211 C 0.92539 0.02722 0.29129 0.0
C212 C 0.85901 0.08992 0.23934 0.0
C213 C 0.85095 0.97242 0.23384 0.0
O214 O 0.92478 0.00755 0.26462 0.0
O215 O 0.90998 0.05195 0.28951 0.0
O216 O 0.84876 0.99817 0.25433 0.0
O217 O 0.87213 0.97893 0.21284 0.0
C218 C 0.93282 0.04649 0.18521 0.0
O219 O 0.8483 0.06164 0.22115 0.0
O220 O 0.88617 0.09102 0.25462 0.0
In221 In 0.29934 0.64781 0.53216 0.0
O222 O 0.31316 0.60141 0.50167 0.0
O223 O 0.34319 0.62297 0.54519 0.0
C224 C 0.23604 0.61652 0.53207 0.0
C225 C 0.30514 0.69008 0.58968 0.0
C226 C 0.30863 0.68705 0.4816 0.0
O227 O 0.25894 0.60037 0.53722 0.0
O228 O 0.24507 0.64824 0.52762 0.0
O229 O 0.33145 0.68688 0.50303 0.0
O230 O 0.28209 0.66668 0.48505 0.0
C231 C 0.33745 0.59981 0.52055 0.0
O232 O 0.30885 0.70156 0.56188 0.0
O233 O 0.3008 0.65713 0.58888 0.0
In234 In 0.38632 0.53015 0.73408 0.0
O235 O 0.34414 0.55732 0.71959 0.0
O236 O 0.37918 0.58418 0.75729 0.0
C237 C 0.34786 0.46567 0.73003 0.0
C238 C 0.42537 0.5415 0.68206 0.0
C239 C 0.41706 0.52317 0.79267 0.0
O240 O 0.33631 0.4932 0.7293 0.0
O241 O 0.37856 0.47044 0.73098 0.0
O242 O 0.42981 0.51937 0.76519 0.0
O243 O 0.38939 0.53169 0.79089 0.0
C244 C 0.35294 0.58388 0.7405 0.0
O245 O 0.43225 0.55774 0.71062 0.0
O246 O 0.39845 0.52022 0.67917 0.0
In247 In 0.64458 0.00763 0.74703 0.0
O248 O 0.67976 0.99381 0.78542 0.0
O249 O 0.67751 0.96765 0.73654 0.0
C250 C 0.68177 0.07039 0.74385 0.0
C251 C 0.60562 0.99747 0.69068 0.0
C252 C 0.60009 0.99893 0.79308 0.0
O253 O 0.68851 0.04298 0.72877 0.0
O254 O 0.65613 0.0662 0.75969 0.0
O255 O 0.60119 0.97548 0.76973 0.0
O256 O 0.62113 0.02662 0.79303 0.0
C257 C 0.69007 0.97179 0.76593 0.0
O258 O 0.6131 0.97212 0.70441 0.0
O259 O 0.61894 0.02727 0.70443 0.0
In260 In 0.76344 0.64945 0.00306 0.0
O261 O 0.78845 0.60265 0.0081 0.0
O262 O 0.81919 0.65178 0.00485 0.0
C263 C 0.70406 0.60567 0.99515 0.0
C264 C 0.76253 0.68224 0.06584 0.0
C265 C 0.77085 0.68537 0.94758 0.0
O266 O 0.72993 0.59664 0.98576 0.0
O267 O 0.7076 0.63712 0.00761 0.0
O268 O 0.77654 0.70014 0.97687 0.0
O269 O 0.76093 0.6527 0.94604 0.0
C270 C 0.81719 0.61955 0.00765 0.0
O271 O 0.75708 0.69648 0.04002 0.0
O272 O 0.76846 0.65182 0.06017 0.0
In273 In 0.921 0.5597 0.78418 0.0
O274 O 0.87597 0.56336 0.75284 0.0
O275 O 0.89121 0.60316 0.79312 0.0
C276 C 0.88512 0.496 0.78821 0.0
C277 C 0.96232 0.57521 0.73656 0.0
C278 C 0.96096 0.56528 0.83915 0.0
O279 O 0.88716 0.52042 0.81142 0.0
O280 O 0.9016 0.50363 0.7636 0.0
O281 O 0.96375 0.54591 0.81314 0.0
O282 O 0.93852 0.58287 0.83737 0.0
C283 C 0.87046 0.59037 0.76938 0.0
O284 O 0.95517 0.59901 0.75674 0.0
O285 O 0.94914 0.54438 0.7409 0.0
In286 In 0.76484 0.40762 0.49878 0.0
O287 O 0.74326 0.36002 0.52463 0.0
O288 O 0.77998 0.39964 0.55112 0.0
C289 C 0.75492 0.36045 0.44438 0.0
C290 C 0.72642 0.45576 0.51012 0.0
C291 C 0.82702 0.44029 0.49523 0.0
O292 O 0.73814 0.38414 0.44846 0.0
O293 O 0.77637 0.36094 0.46721 0.0
O294 O 0.80611 0.4375 0.47122 0.0
O295 O 0.81654 0.42719 0.52088 0.0
C296 C 0.76121 0.3703 0.55086 0.0
O297 O 0.75394 0.46293 0.49822 0.0
O298 O 0.7178 0.42427 0.5156 0.0
In299 In 0.65828 0.51375 0.29712 0.0
O300 O 0.70668 0.49383 0.29757 0.0
O301 O 0.66337 0.45611 0.28461 0.0
C302 C 0.69414 0.57937 0.30309 0.0
C303 C 0.628 0.51973 0.23785 0.0
C304 C 0.62239 0.50383 0.3519 0.0
O305 O 0.70554 0.55356 0.31154 0.0
O306 O 0.6644 0.57256 0.29335 0.0
O307 O 0.61328 0.48753 0.32371 0.0
O308 O 0.64975 0.52415 0.35268 0.0
C309 C 0.69417 0.46222 0.28876 0.0
O310 O 0.61516 0.52409 0.26521 0.0
O311 O 0.65536 0.51053 0.24002 0.0
Dy312 Dy 0.99373 0.00941 0.01033 0.0
C313 C 0.12859 0.02696 0.03345 0.0
C314 C 0.93001 0.01607 0.00953 0.0
Dy315 Dy 0.06595 0.03642 0.03511 0.0
O316 O 0.94283 0.99933 0.98558 0.0
O317 O 0.95141 0.02671 0.03413 0.0
O318 O 0.00954 0.97889 0.96537 0.0
O319 O 0.03953 0.02452 0.98717 0.0
C320 C 0.03862 0.99859 0.96581 0.0
C321 C 0.02267 0.04929 0.07914 0.0
O322 O 0.05827 0.0835 0.00989 0.0
O323 O 1.00191 0.06601 1.00096 0.0
O324 O 0.11941 0.05182 0.05261 0.0
O325 O 0.10396 0.00813 0.01569 0.0
O326 O 0.0521 0.0682 0.07987 0.0
O327 O 0.02052 0.02254 0.05842 0.0
O328 O 0.99974 0.96141 0.03384 0.0
O329 O 0.05523 0.98076 0.04891 0.0
C330 C 0.02924 0.08928 0.99988 0.0
C331 C 0.02804 0.95648 0.04681 0.0
Dy332 Dy 0.28447 0.78165 0.2341 0.0
C333 C 0.29401 0.7649 0.37195 0.0
C334 C 0.27405 0.79797 0.17172 0.0
Dy335 Dy 0.27977 0.78049 0.30993 0.0
O336 O 0.29021 0.77407 0.17925 0.0
O337 O 0.26319 0.81244 0.19812 0.0
O338 O 0.32682 0.75339 0.23407 0.0
O339 O 0.31906 0.78627 0.27604 0.0
C340 C 0.33541 0.764 0.26518 0.0
C341 C 0.22704 0.79462 0.27747 0.0
O342 O 0.29994 0.83724 0.31098 0.0
O343 O 0.30459 0.838 0.25381 0.0
O344 O 0.26558 0.75535 0.35603 0.0
O345 O 0.31398 0.7847 0.35487 0.0
O346 O 0.23466 0.8052 0.30886 0.0
O347 O 0.24538 0.77422 0.26747 0.0
O348 O 0.25424 0.72866 0.23679 0.0
O349 O 0.27403 0.7238 0.28996 0.0
C350 C 0.30872 0.85364 0.28477 0.0
C351 C 0.25821 0.70963 0.26148 0.0
Dy352 Dy 0.55916 0.02112 0.51927 0.0
C353 C 0.42935 0.05122 0.52579 0.0
C354 C 0.61638 0.99696 0.52625 0.0
Dy355 Dy 0.48506 0.02396 0.53071 0.0
O356 O 0.61019 0.01734 0.50408 0.0
O357 O 0.59178 0.99083 0.54477 0.0
O358 O 0.55761 0.05238 0.47521 0.0
O359 O 0.51527 0.0213 0.48855 0.0
C360 C 0.52583 0.04461 0.47017 0.0
C361 C 0.51724 1.0001 0.57909 0.0
O362 O 0.47863 0.97145 0.50036 0.0
O363 O 0.5335 0.96596 0.50255 0.0
O364 O 0.43082 0.02112 0.53665 0.0
O365 O 0.45798 0.06604 0.51771 0.0
O366 O 0.48544 0.99321 0.57508 0.0
O367 O 0.52847 0.02341 0.56106 0.0
O368 O 0.5669 0.07415 0.54819 0.0
O369 O 0.51175 0.07852 0.54873 0.0
C370 C 0.50204 0.95305 0.4952 0.0
C371 C 0.54333 0.09198 0.55489 0.0
Dy372 Dy 0.23599 0.27186 0.76608 0.0
C373 C 0.37211 0.27564 0.75264 0.0
C374 C 0.17286 0.26396 0.7836 0.0
Dy375 Dy 0.30804 0.2683 0.76796 0.0
O376 O 0.18993 0.29269 0.77498 0.0
O377 O 0.18982 0.23924 0.78129 0.0
O378 O 0.24449 0.31487 0.73275 0.0
O379 O 0.28117 0.3111 0.76862 0.0
C380 C 0.27449 0.32694 0.74417 0.0
C381 C 0.26908 0.21291 0.78884 0.0
O382 O 0.30799 0.29766 0.81854 0.0
O383 O 0.2516 0.28523 0.82053 0.0
O384 O 0.35589 0.24928 0.76596 0.0
O385 O 0.35369 0.29844 0.74894 0.0
O386 O 0.2989 0.22464 0.80084 0.0
O387 O 0.26305 0.2294 0.76476 0.0
O388 O 0.23462 0.24422 0.71509 0.0
O389 O 0.29121 0.25201 0.71352 0.0
C390 C 0.28112 0.2975 0.83503 0.0
C391 C 0.26128 0.24222 0.69891 0.0
Dy392 Dy 0.01321 0.00913 0.47928 0.0
C393 C 0.0601 0.04204 0.61375 0.0
C394 C 0.98333 0.00368 0.41721 0.0
Dy395 Dy 0.02856 0.0354 0.55232 0.0
O396 O 0.00683 0.98762 0.42499 0.0
O397 O 0.97546 0.02126 0.44342 0.0
O398 O 0.06457 0.00178 0.47252 0.0
O399 O 0.05574 0.04134 0.50736 0.0
C400 C 0.07766 0.02599 0.49602 0.0
C401 C 0.96345 0.01769 0.53367 0.0
O402 O 0.03565 0.08836 0.53352 0.0
O403 O 0.01206 0.06712 0.48085 0.0
O404 O 0.03341 0.05361 0.60743 0.0
O405 O 0.06969 0.02788 0.58657 0.0
O406 O 0.97602 0.04102 0.55824 0.0
O407 O 0.98631 0.00321 0.52366 0.0
O408 O 0.00571 0.95656 0.50032 0.0
O409 O 0.03101 0.97835 0.55203 0.0
C410 C 0.02451 0.09359 0.5036 0.0
C411 C 0.01773 0.95169 0.53008 0.0
Dy412 Dy 0.30182 0.78565 0.77686 0.0
C413 C 0.16969 0.73848 0.72842 0.0
C414 C 0.36239 0.80043 0.80888 0.0
Dy415 Dy 0.23057 0.74905 0.75959 0.0
O416 O 0.35582 0.80824 0.77916 0.0
O417 O 0.33579 0.78562 0.8213 0.0
O418 O 0.30752 0.7979 0.72392 0.0
O419 O 0.27536 0.75391 0.73371 0.0
C420 C 0.285 0.77195 0.71067 0.0
C421 C 0.24672 0.76173 0.82498 0.0
O422 O 0.25536 0.70206 0.75067 0.0
O423 O 0.30448 0.72868 0.77901 0.0
O424 O 0.1782 0.71968 0.751 0.0
O425 O 0.19449 0.76181 0.72224 0.0
O426 O 0.22499 0.73503 0.81183 0.0
O427 O 0.25654 0.7806 0.80259 0.0
O428 O 0.28045 0.83439 0.78247 0.0
O429 O 0.22871 0.80691 0.76033 0.0
C430 C 0.28486 0.70049 0.76371 0.0
C431 C 0.25009 0.8356 0.77213 0.0
Dy432 Dy 0.5252 0.03099 0.05168 0.0
C433 C 0.53471 0.01032 0.90985 0.0
C434 C 0.51925 0.05626 0.11539 0.0
Dy435 Dy 0.53297 0.0321 0.97552 0.0
O436 O 0.51524 0.02317 0.10467 0.0
O437 O 0.52754 0.07553 0.0916 0.0
O438 O 0.5223 0.97251 0.04796 0.0
O439 O 0.54689 0.00168 0.01328 0.0
C440 C 0.53531 0.97089 0.01923 0.0
C441 C 0.52345 0.09195 0.00634 0.0
O442 O 0.47961 0.00852 0.97675 0.0
O443 O 0.47304 0.01304 0.03386 0.0
O444 O 0.52589 0.98994 0.93264 0.0
O445 O 0.54318 0.0425 0.92329 0.0
O446 O 0.53733 0.09016 0.97821 0.0
O447 O 0.5109 0.0616 0.01322 0.0
O448 O 0.57822 0.05389 0.05254 0.0
O449 O 0.58555 0.0482 0.99556 0.0
C450 C 0.4614 0.00385 0.00269 0.0
C451 C 0.59684 0.05776 0.02701 0.0
Dy452 Dy 0.28915 0.31205 0.28155 0.0
C453 C 0.2757 0.16174 0.24927 0.0
C454 C 0.27629 0.37493 0.26943 0.0
Dy455 Dy 0.27055 0.23084 0.25557 0.0
O456 O 0.25917 0.34472 0.25758 0.0
O457 O 0.3014 0.37124 0.28836 0.0
O458 O 0.30075 0.3068 0.33605 0.0
O459 O 0.28573 0.26322 0.30151 0.0
C460 C 0.29285 0.27248 0.33209 0.0
C461 C 0.26102 0.27646 0.21093 0.0
O462 O 0.22437 0.23558 0.27992 0.0
O463 O 0.23657 0.29626 0.29431 0.0
O464 O 0.27798 0.182 0.22545 0.0
O465 O 0.26907 0.17944 0.2761 0.0
O466 O 0.24378 0.24473 0.21016 0.0
O467 O 0.28318 0.2798 0.23384 0.0
O468 O 0.3371 0.30485 0.26193 0.0
O469 O 0.3255 0.24361 0.25461 0.0
C470 C 0.21695 0.26512 0.29367 0.0
C471 C 0.34539 0.2742 0.25298 0.0
Dy472 Dy 0.50993 0.50849 0.97982 0.0
C473 C 0.57073 0.54616 0.11241 0.0
C474 C 0.48225 0.50333 0.91657 0.0
Dy475 Dy 0.53307 0.53682 0.05441 0.0
O476 O 0.50738 0.5263 0.92888 0.0
O477 O 0.47255 0.48202 0.93853 0.0
O478 O 0.55936 0.49444 0.97254 0.0
O479 O 0.55545 0.53714 0.00611 0.0
C480 C 0.57529 0.51921 0.99416 0.0
C481 C 0.46645 0.51788 0.04765 0.0
O482 O 0.53826 0.58777 0.03169 0.0
O483 O 0.50312 0.56463 0.98545 0.0
O484 O 0.54924 0.56519 0.10547 0.0
O485 O 0.57197 0.52314 0.08748 0.0
O486 O 0.48298 0.53032 0.07548 0.0
O487 O 0.48732 0.51711 0.02608 0.0
O488 O 0.50053 0.45783 0.00267 0.0
O489 O 0.53327 0.47919 0.05099 0.0
C490 C 0.52103 0.59165 0.00438 0.0
C491 C 0.51528 0.45317 0.03112 0.0
Dy492 Dy 0.81878 0.29919 0.27206 0.0
C493 C 0.68671 0.24957 0.22541 0.0
C494 C 0.87891 0.30775 0.30422 0.0
Dy495 Dy 0.74865 0.26358 0.25442 0.0
O496 O 0.87081 0.32883 0.28362 0.0
O497 O 0.85438 0.28288 0.30733 0.0
O498 O 0.82534 0.31555 0.221 0.0
O499 O 0.79379 0.26862 0.22729 0.0
C500 C 0.80475 0.28892 0.20615 0.0
C501 C 0.76525 0.27725 0.32112 0.0
O502 O 0.77072 0.21565 0.24452 0.0
O503 O 0.81955 0.24138 0.27351 0.0
O504 O 0.69573 0.23582 0.25142 0.0
O505 O 0.71157 0.26991 0.21508 0.0
O506 O 0.74285 0.25129 0.30783 0.0
O507 O 0.77451 0.29505 0.29794 0.0
O508 O 0.79401 0.34599 0.2822 0.0
O509 O 0.74653 0.32041 0.25087 0.0
C510 C 0.79961 0.21341 0.25812 0.0
C511 C 0.7654 0.3482 0.26754 0.0
Dy512 Dy 0.02964 0.52978 0.55314 0.0
C513 C 0.04327 0.50948 0.40747 0.0
C514 C 0.02082 0.55542 0.61586 0.0
Dy515 Dy 0.03283 0.52945 0.47118 0.0
O516 O 0.01052 0.52307 0.60342 0.0
O517 O 0.03685 0.57357 0.59447 0.0
O518 O 0.04205 0.47531 0.55441 0.0
O519 O 0.04195 0.49911 0.51099 0.0
C520 C 0.04582 0.47137 0.52246 0.0
C521 C 0.0157 0.58738 0.50233 0.0
O522 O 0.98136 0.5028 0.47554 0.0
O523 O 0.97723 0.51277 0.53347 0.0
O524 O 0.02396 0.49029 0.42587 0.0
O525 O 0.05592 0.53974 0.42359 0.0
O526 O 0.01899 0.58367 0.47035 0.0
O527 O 0.02142 0.56024 0.51348 0.0
O528 O 0.08153 0.55548 0.54811 0.0
O529 O 0.08529 0.542 0.4906 0.0
C530 C 0.96452 0.5013 0.50272 0.0
C531 C 0.09832 0.55482 0.52086 0.0
Dy532 Dy 0.74202 0.77686 0.27077 0.0
C533 C 0.87758 0.7777 0.25394 0.0
C534 C 0.67893 0.76767 0.28866 0.0
Dy535 Dy 0.81449 0.7704 0.27215 0.0
O536 O 0.69406 0.795 0.27584 0.0
O537 O 0.69781 0.74494 0.29038 0.0
O538 O 0.75216 0.82285 0.24114 0.0
O539 O 0.7884 0.81386 0.27445 0.0
C540 C 0.78285 0.83212 0.25147 0.0
C541 C 0.77361 0.7152 0.29075 0.0
O542 O 0.81482 0.79844 0.32351 0.0
O543 O 0.75832 0.79159 0.32508 0.0
O544 O 0.86532 0.75842 0.27653 0.0
O545 O 0.8557 0.79351 0.24198 0.0
O546 O 0.80428 0.72353 0.30098 0.0
O547 O 0.76814 0.73371 0.26812 0.0
O548 O 0.74145 0.75036 0.21881 0.0
O549 O 0.79767 0.75276 0.2183 0.0
C550 C 0.78813 0.80052 0.33975 0.0
C551 C 0.76796 0.74564 0.20312 0.0
Dy552 Dy 0.78521 0.28382 0.72961 0.0
C553 C 0.78802 0.26596 0.86815 0.0
C554 C 0.7751 0.30145 0.6676 0.0
Dy555 Dy 0.77762 0.28379 0.80611 0.0
O556 O 0.79258 0.27853 0.67481 0.0
O557 O 0.76307 0.31415 0.69402 0.0
O558 O 0.83015 0.25883 0.73249 0.0
O559 O 0.81698 0.28798 0.77338 0.0
C560 C 0.8356 0.2675 0.7644 0.0
C561 C 0.72902 0.30248 0.77188 0.0
O562 O 0.80367 0.33928 0.80564 0.0
O563 O 0.80179 0.34066 0.74794 0.0
O564 O 0.75948 0.2672 0.8547 0.0
O565 O 0.81075 0.27622 0.84843 0.0
O566 O 0.73686 0.3138 0.80312 0.0
O567 O 0.74493 0.27919 0.76241 0.0
O568 O 0.75665 0.22999 0.72932 0.0
O569 O 0.76328 0.22661 0.78628 0.0
C570 C 0.80914 0.35593 0.77869 0.0
C571 C 0.75372 0.21213 0.75554 0.0
Dy572 Dy 0.77892 0.80737 0.78614 0.0
C573 C 0.7673 0.66264 0.75069 0.0
C574 C 0.76839 0.87374 0.78863 0.0
Dy575 Dy 0.76183 0.73173 0.75785 0.0
O576 O 0.79185 0.86467 0.80609 0.0
O577 O 0.75127 0.847 0.77051 0.0
O578 O 0.80571 0.79479 0.83164 0.0
O579 O 0.76648 0.75845 0.80812 0.0
C580 C 0.78912 0.76279 0.83065 0.0
C581 C 0.75186 0.77787 0.71385 0.0
O582 O 0.71286 0.73337 0.7779 0.0
O583 O 0.72551 0.79264 0.79713 0.0
O584 O 0.76717 0.68248 0.7267 0.0
O585 O 0.76257 0.6806 0.77807 0.0
O586 O 0.73473 0.74614 0.71322 0.0
O587 O 0.77478 0.78092 0.73595 0.0
O588 O 0.82489 0.80376 0.75986 0.0
O589 O 0.8169 0.74365 0.75788 0.0
C590 C 0.70479 0.76208 0.79274 0.0
C591 C 0.83526 0.77398 0.75289 0.0
Dy592 Dy 0.49319 0.51016 0.50862 0.0
C593 C 0.62734 0.5337 0.53397 0.0
C594 C 0.42713 0.50769 0.50611 0.0
Dy595 Dy 0.56403 0.54058 0.53594 0.0
O596 O 0.44453 0.50445 0.48038 0.0
O597 O 0.44617 0.5108 0.53276 0.0
O598 O 0.51178 0.48044 0.46493 0.0
O599 O 0.53934 0.52762 0.48697 0.0
C600 C 0.54009 0.50178 0.46589 0.0
C601 C 0.51819 0.55105 0.57817 0.0
O602 O 0.5547 0.58671 0.51056 0.0
O603 O 0.49846 0.56755 0.50295 0.0
O604 O 0.61731 0.55737 0.55399 0.0
O605 O 0.6032 0.51494 0.51544 0.0
O606 O 0.5472 0.57117 0.58004 0.0
O607 O 0.51796 0.52469 0.55745 0.0
O608 O 0.50152 0.46231 0.53098 0.0
O609 O 0.55513 0.48559 0.55125 0.0
C610 C 0.52519 0.59149 0.50112 0.0
C611 C 0.52924 0.45967 0.54686 0.0
Dy612 Dy 0.05864 0.51886 0.01111 0.0
C613 C 0.92934 0.55193 0.01853 0.0
C614 C 0.11542 0.49346 0.01828 0.0
Dy615 Dy 0.98479 0.52422 0.02278 0.0
O616 O 0.10777 0.51003 0.99353 0.0
O617 O 0.09256 0.49187 0.03916 0.0
O618 O 0.0577 0.5506 0.96736 0.0
O619 O 0.01482 0.52023 0.98069 0.0
C620 C 0.02588 0.54352 0.96248 0.0
C621 C 0.01627 0.49978 0.07114 0.0
O622 O 0.97697 0.47095 0.99364 0.0
O623 O 0.03141 0.46382 0.9961 0.0
O624 O 0.93111 0.52255 0.03063 0.0
O625 O 0.95753 0.56579 0.00858 0.0
O626 O 0.98447 0.49377 0.06734 0.0
O627 O 0.02801 0.52255 0.0528 0.0
O628 O 0.06771 0.57252 0.03913 0.0
O629 O 0.01291 0.57831 0.04115 0.0
C630 C 0.99976 0.45163 0.98906 0.0
C631 C 0.04474 0.59099 0.04662 0.0
C632 C 0.03492 0.18208 0.97477 0.0
C633 C 0.01408 0.17468 0.94518 0.0
C634 C 0.01036 0.11208 0.94866 0.0
C635 C 0.02682 0.11924 0.98066 0.0
N636 N 0.05088 0.16141 0.02648 0.0
N637 N 0.97529 0.13219 0.90913 0.0
C638 C 0.0381 0.15438 0.99443 0.0
C639 C 0.99988 0.13955 0.93358 0.0
N640 N 0.05288 0.21497 0.98332 0.0
N641 N 0.00569 0.07924 0.932 0.0
H642 H 0.96515 0.15151 0.89885 0.0
H643 H 0.96235 0.10688 0.90194 0.0
H644 H 0.01459 0.05865 0.94129 0.0
H645 H 0.99643 0.07363 0.90738 0.0
H646 H 0.07072 0.22079 0.00284 0.0
H647 H 0.05245 0.23566 0.96899 0.0
H648 H 0.05628 0.18662 0.03889 0.0
H649 H 0.05353 0.14178 0.04152 0.0
C650 C 0.15606 0.82834 0.23655 0.0
C651 C 0.14031 0.79724 0.21678 0.0
C652 C 0.17674 0.76431 0.243 0.0
C653 C 0.19547 0.79586 0.25945 0.0
N654 N 0.20459 0.85888 0.26975 0.0
N655 N 0.14139 0.7377 0.1952 0.0
C656 C 0.18554 0.82823 0.25574 0.0
C657 C 0.15236 0.76584 0.21823 0.0
N658 N 0.14228 0.8575 0.23802 0.0
N659 N 0.18083 0.7327 0.2524 0.0
H660 H 0.12472 0.73836 0.17549 0.0
H661 H 0.15169 0.71529 0.19348 0.0
H662 H 0.19601 0.73069 0.27285 0.0
H663 H 0.16599 0.70899 0.24292 0.0
H664 H 0.15069 0.87971 0.25464 0.0
H665 H 0.12076 0.8585 0.22445 0.0
H666 H 0.20075 0.88348 0.26466 0.0
H667 H 0.22559 0.85973 0.28487 0.0
C668 C 0.49673 0.88253 0.42318 0.0
C669 C 0.49492 0.85262 0.44084 0.0
C670 C 0.48755 0.88792 0.49246 0.0
C671 C 0.49415 0.91837 0.47571 0.0
N672 N 0.506 0.94583 0.42563 0.0
N673 N 0.49135 0.82677 0.49273 0.0
C674 C 0.49868 0.91597 0.44112 0.0
C675 C 0.49057 0.85512 0.47556 0.0
N676 N 0.49572 0.87886 0.3892 0.0
N677 N 0.47844 0.89052 0.5245 0.0
H678 H 0.49416 0.80246 0.48144 0.0
H679 H 0.49188 0.82796 0.51854 0.0
H680 H 0.47606 0.91434 0.53728 0.0
H681 H 0.47039 0.86896 0.5373 0.0
H682 H 0.49301 0.89893 0.37479 0.0
H683 H 0.49488 0.85493 0.37507 0.0
H684 H 0.51386 0.94628 0.40158 0.0
H685 H 0.50582 0.97065 0.4375 0.0
C686 C 0.45681 0.31401 0.72678 0.0
C687 C 0.46578 0.28413 0.70943 0.0
C688 C 0.41271 0.24885 0.71935 0.0
C689 C 0.40505 0.27776 0.73946 0.0
N690 N 0.42324 0.33556 0.76838 0.0
N691 N 0.45568 0.22109 0.69758 0.0
C692 C 0.42816 0.30968 0.74502 0.0
C693 C 0.44478 0.25092 0.70826 0.0
N694 N 0.47452 0.34678 0.72456 0.0
N695 N 0.38907 0.22018 0.70894 0.0
H696 H 0.47951 0.22119 0.6907 0.0
H697 H 0.44225 0.19605 0.69923 0.0
H698 H 0.36472 0.21802 0.71465 0.0
H699 H 0.39289 0.20018 0.69145 0.0
H700 H 0.4669 0.36961 0.73371 0.0
H701 H 0.49514 0.35151 0.71082 0.0
H702 H 0.44081 0.35797 0.77574 0.0
H703 H 0.40305 0.33298 0.78294 0.0
C704 C 0.02167 0.85745 0.54661 0.0
C705 C 0.00425 0.85522 0.57607 0.0
C706 C 0.98975 0.91235 0.5698 0.0
C707 C 0.01045 0.91664 0.54283 0.0
N708 N 0.04778 0.89456 0.5065 0.0
N709 N 0.9736 0.88146 0.61737 0.0
C710 C 0.02659 0.88934 0.53119 0.0
C711 C 0.98887 0.88296 0.58813 0.0
N712 N 0.03366 0.82915 0.53352 0.0
N713 N 0.96985 0.9358 0.57711 0.0
H714 H 0.97036 0.85948 0.63049 0.0
H715 H 0.9659 0.9028 0.6298 0.0
H716 H 0.96927 0.95723 0.56391 0.0
H717 H 0.9516 0.93223 0.59391 0.0
H718 H 0.04353 0.82757 0.51035 0.0
H719 H 0.03193 0.80612 0.54495 0.0
H720 H 0.06325 0.87752 0.49929 0.0
H721 H 0.05131 0.91723 0.49436 0.0
C722 C 0.43957 0.81711 0.86598 0.0
C723 C 0.45476 0.78936 0.85311 0.0
C724 C 0.41056 0.77069 0.80971 0.0
C725 C 0.39541 0.79851 0.82246 0.0
N726 N 0.39655 0.85079 0.85937 0.0
N727 N 0.45833 0.74347 0.80994 0.0
C728 C 0.41024 0.82248 0.84971 0.0
C729 C 0.44143 0.76742 0.82398 0.0
N730 N 0.45334 0.83829 0.89376 0.0
N731 N 0.3946 0.74629 0.78508 0.0
H732 H 0.48018 0.73907 0.82056 0.0
H733 H 0.45198 0.72954 0.78666 0.0
H734 H 0.37237 0.74809 0.77338 0.0
H735 H 0.40214 0.72298 0.77753 0.0
H736 H 0.44204 0.85642 0.90693 0.0
H737 H 0.47623 0.83713 0.9044 0.0
H738 H 0.40723 0.87112 0.87717 0.0
H739 H 0.37505 0.8552 0.84792 0.0
C740 C 0.54297 0.18075 0.05763 0.0
C741 C 0.51108 0.18566 0.06535 0.0
C742 C 0.48718 0.1312 0.03051 0.0
C743 C 0.51906 0.12521 0.02481 0.0
N744 N 0.57654 0.14971 0.02334 0.0
N745 N 0.45263 0.16529 0.06052 0.0
C746 C 0.54671 0.15164 0.03537 0.0
C747 C 0.48311 0.16078 0.05219 0.0
N748 N 0.56995 0.20227 0.0736 0.0
N749 N 0.46105 0.11065 0.01238 0.0
H750 H 0.44818 0.18813 0.07352 0.0
H751 H 0.43181 0.14578 0.05584 0.0
H752 H 0.46348 0.09029 0.99458 0.0
H753 H 0.43742 0.11566 0.01242 0.0
H754 H 0.59345 0.19697 0.07252 0.0
H755 H 0.56895 0.22373 0.0906 0.0
H756 H 0.59622 0.17073 0.02597 0.0
H757 H 0.58145 0.12797 0.00894 0.0
C758 C 0.14069 0.29344 0.32635 0.0
C759 C 0.13212 0.26973 0.35038 0.0
C760 C 0.17818 0.24118 0.33634 0.0
C761 C 0.18589 0.26386 0.311 0.0
N762 N 0.16951 0.30547 0.27667 0.0
N763 N 0.13847 0.21713 0.37434 0.0
C764 C 0.1657 0.28829 0.30455 0.0
C765 C 0.14946 0.24226 0.35399 0.0
N766 N 0.12514 0.32113 0.32456 0.0
N767 N 0.19912 0.22008 0.3451 0.0
H768 H 0.11846 0.21794 0.38884 0.0
H769 H 0.14759 0.19412 0.37501 0.0
H770 H 0.22067 0.21844 0.33357 0.0
H771 H 0.19674 0.20631 0.36591 0.0
H772 H 0.13281 0.34159 0.31027 0.0
H773 H 0.10592 0.32507 0.33926 0.0
H774 H 0.15366 0.32113 0.26885 0.0
H775 H 0.18654 0.30114 0.25934 0.0
C776 C 0.97874 0.02497 0.15663 0.0
C777 C 0.95613 0.04807 0.15823 0.0
C778 C 0.97728 0.07241 0.10778 0.0
C779 C 1.00094 0.05054 0.10731 0.0
N780 N 0.02854 0.01111 0.13462 0.0
N781 N 0.93626 0.09684 0.13829 0.0
C782 C 1.00295 0.02835 0.13277 0.0
C783 C 0.95597 0.07259 0.13452 0.0
N784 N 0.97608 0.99862 0.17689 0.0
N785 N 0.97486 0.09254 0.08232 0.0
H786 H 0.92036 0.09761 0.15745 0.0
H787 H 0.93718 0.11772 0.12401 0.0
H788 H 0.99117 0.09442 0.06344 0.0
H789 H 0.95576 0.10577 0.07875 0.0
H790 H 0.9894 0.97858 0.17445 0.0
H791 H 0.95843 0.99481 0.19437 0.0
H792 H 0.03343 0.99757 0.15458 0.0
H793 H 0.04662 0.01266 0.11749 0.0
C794 C 0.29069 0.73769 0.45915 0.0
C795 C 0.31087 0.71224 0.45664 0.0
C796 C 0.32737 0.7293 0.40239 0.0
C797 C 0.30319 0.75071 0.40269 0.0
N798 N 0.26229 0.77637 0.43103 0.0
N799 N 0.34846 0.68294 0.42682 0.0
C800 C 0.28514 0.75542 0.43113 0.0
C801 C 0.32981 0.70831 0.42884 0.0
N802 N 0.27747 0.74534 0.48871 0.0
N803 N 0.34746 0.72832 0.37659 0.0
H804 H 0.35146 0.66783 0.44617 0.0
H805 H 0.35958 0.67541 0.40549 0.0
H806 H 0.34517 0.74094 0.35542 0.0
H807 H 0.36798 0.71674 0.37696 0.0
H808 H 0.26496 0.76582 0.49331 0.0
H809 H 0.28158 0.73313 0.50987 0.0
H810 H 0.24528 0.77733 0.44903 0.0
H811 H 0.25941 0.79199 0.41204 0.0
C812 C 0.58023 0.97097 0.63389 0.0
C813 C 0.57982 0.99343 0.66353 0.0
C814 C 0.5356 0.01771 0.63875 0.0
C815 C 0.53545 0.9947 0.60952 0.0
N816 N 0.55054 0.94284 0.58269 0.0
N817 N 0.54953 0.0287 0.69772 0.0
C818 C 0.55544 0.96907 0.60825 0.0
C819 C 0.55518 0.01398 0.66704 0.0
N820 N 0.60516 0.9531 0.62932 0.0
N821 N 0.51784 0.04383 0.63931 0.0
H822 H 0.56192 0.02453 0.71936 0.0
H823 H 0.52999 0.04135 0.70212 0.0
H824 H 0.50238 0.04698 0.61941 0.0
H825 H 0.52037 0.06395 0.65865 0.0
H826 H 0.60844 0.93934 0.60676 0.0
H827 H 0.62425 0.95447 0.64709 0.0
H828 H 0.56239 0.92158 0.5819 0.0
H829 H 0.53241 0.94089 0.56373 0.0
C830 C 0.30379 0.31935 0.92882 0.0
C831 C 0.28098 0.34101 0.93793 0.0
C832 C 0.26337 0.33883 0.87905 0.0
C833 C 0.28301 0.31368 0.87032 0.0
N834 N 0.31768 0.27523 0.88841 0.0
N835 N 0.23345 0.36402 0.92184 0.0
C836 C 0.30215 0.30263 0.89562 0.0
C837 C 0.25921 0.34871 0.91307 0.0
N838 N 0.32792 0.31584 0.95134 0.0
N839 N 0.24959 0.35447 0.85485 0.0
H840 H 0.22829 0.37003 0.94646 0.0
H841 H 0.21507 0.36699 0.90477 0.0
H842 H 0.25325 0.34919 0.82974 0.0
H843 H 0.23775 0.37546 0.85995 0.0
H844 H 0.34715 0.30335 0.94505 0.0
H845 H 0.3306 0.32832 0.9755 0.0
H846 H 0.32903 0.26364 0.90657 0.0
H847 H 0.31667 0.26195 0.86469 0.0
C848 C 0.92044 0.00938 0.34906 0.0
C849 C 0.94057 0.01981 0.32292 0.0
C850 C 0.98945 0.01781 0.358 0.0
C851 C 0.96914 0.0053 0.38332 0.0
N852 N 0.91553 0.98137 0.39996 0.0
N853 N 0.99371 0.0286 0.30019 0.0
C854 C 0.93468 0.99887 0.37796 0.0
C855 C 0.97489 0.022 0.32657 0.0
N856 N 0.88773 0.00971 0.34653 0.0
N857 N 0.02243 0.02808 0.36457 0.0
H858 H 0.98443 0.03427 0.27748 0.0
H859 H 0.01815 0.02623 0.30012 0.0
H860 H 0.03422 0.02612 0.38728 0.0
H861 H 0.03792 0.04133 0.34849 0.0
H862 H 0.87272 0.00656 0.36638 0.0
H863 H 0.87573 0.01541 0.32528 0.0
H864 H 0.89043 0.97259 0.39579 0.0
H865 H 0.92524 0.97228 0.4208 0.0
C866 C 0.26862 0.70377 0.63433 0.0
C867 C 0.29853 0.71274 0.61907 0.0
C868 C 0.31016 0.76844 0.65479 0.0
C869 C 0.28501 0.7554 0.67551 0.0
N870 N 0.23805 0.71025 0.68248 0.0
N871 N 0.34926 0.75336 0.61601 0.0
C872 C 0.26358 0.72299 0.66448 0.0
C873 C 0.3197 0.74513 0.6295 0.0
N874 N 0.24393 0.67844 0.619 0.0
N875 N 0.32377 0.80326 0.65797 0.0
H876 H 0.35734 0.73668 0.59787 0.0
H877 H 0.36686 0.77519 0.6251 0.0
H878 H 0.3144 0.82167 0.67314 0.0
H879 H 0.34075 0.81436 0.64197 0.0
H880 H 0.22036 0.67364 0.62728 0.0
H881 H 0.24553 0.66494 0.59587 0.0
H882 H 0.22575 0.68424 0.67911 0.0
H883 H 0.22951 0.72557 0.70104 0.0
C884 C 0.55541 0.02131 0.822 0.0
C885 C 0.57513 0.99544 0.81794 0.0
C886 C 0.55155 0.96856 0.86579 0.0
C887 C 0.53909 0.9993 0.87453 0.0
N888 N 0.52045 0.04984 0.85754 0.0
N889 N 0.59145 0.94325 0.83507 0.0
C890 C 0.53796 0.02389 0.85121 0.0
C891 C 0.57251 0.96818 0.83909 0.0
N892 N 0.55334 0.04301 0.79777 0.0
N893 N 0.54294 0.9397 0.88238 0.0
H894 H 0.60659 0.9414 0.81545 0.0
H895 H 0.59373 0.92567 0.8524 0.0
H896 H 0.52516 0.93799 0.89976 0.0
H897 H 0.54976 0.91578 0.87563 0.0
H898 H 0.53791 0.06106 0.79786 0.0
H899 H 0.56571 0.04139 0.77601 0.0
H900 H 0.52136 0.0713 0.84404 0.0
H901 H 0.50456 0.0496 0.87682 0.0
C902 C 0.23475 0.31844 0.13348 0.0
C903 C 0.26573 0.3305 0.12077 0.0
C904 C 0.29218 0.3166 0.17158 0.0
C905 C 0.26186 0.29889 0.18203 0.0
N906 N 0.20324 0.28402 0.17227 0.0
N907 N 0.32388 0.3325 0.12489 0.0
C908 C 0.23283 0.29984 0.16254 0.0
C909 C 0.29435 0.32667 0.13886 0.0
N910 N 0.2073 0.32651 0.11909 0.0
N911 N 0.31835 0.32737 0.1937 0.0
H912 H 0.32651 0.33894 0.10061 0.0
H913 H 0.34498 0.32695 0.13614 0.0
H914 H 0.31499 0.33044 0.21893 0.0
H915 H 0.34081 0.34106 0.18747 0.0
H916 H 0.18457 0.32202 0.12925 0.0
H917 H 0.2077 0.34054 0.09844 0.0
H918 H 0.18184 0.27952 0.15705 0.0
H919 H 0.20019 0.27463 0.19539 0.0
C920 C 0.206 1.00136 0.00382 0.0
C921 C 0.20627 0.97241 0.02245 0.0
C922 C 0.1647 0.9912 0.05727 0.0
C923 C 0.16045 0.01597 0.03503 0.0
N924 N 0.17599 0.04495 0.98679 0.0
N925 N 0.18314 0.93722 0.06483 0.0
C926 C 0.18109 0.02144 0.00839 0.0
C927 C 0.18533 0.96695 0.04908 0.0
N928 N 0.22997 0.01013 0.98243 0.0
N929 N 0.1482 0.9903 0.08573 0.0
H930 H 0.19665 0.91786 0.05878 0.0
H931 H 0.16566 0.92998 0.08177 0.0
H932 H 0.13265 0.00763 0.09202 0.0
H933 H 0.15236 0.97492 0.10449 0.0
H934 H 0.23273 0.03278 0.97037 0.0
H935 H 0.249 0.99646 0.97906 0.0
H936 H 0.18724 0.047 0.96439 0.0
H937 H 0.15924 0.06148 0.99084 0.0
C938 C 0.66173 0.56473 0.02225 0.0
C939 C 0.67238 0.58051 0.99346 0.0
C940 C 0.62157 0.55032 0.96223 0.0
C941 C 0.61046 0.5354 0.99154 0.0
N942 N 0.62462 0.51832 0.04466 0.0
N943 N 0.66651 0.58252 0.93438 0.0
C944 C 0.63195 0.53973 0.0202 0.0
C945 C 0.65361 0.57128 0.96285 0.0
N946 N 0.68007 0.57368 0.05161 0.0
N947 N 0.6013 0.54562 0.93413 0.0
H948 H 0.68919 0.5991 0.93421 0.0
H949 H 0.65605 0.5736 0.91062 0.0
H950 H 0.57812 0.52996 0.93185 0.0
H951 H 0.60644 0.55895 0.91336 0.0
H952 H 0.67192 0.56618 0.07426 0.0
H953 H 0.7029 0.59027 0.05365 0.0
H954 H 0.64032 0.51791 0.0652 0.0
H955 H 0.60419 0.49808 0.0423 0.0
C956 C 0.70873 0.40625 0.30483 0.0
C957 C 0.71416 0.43431 0.28477 0.0
C958 C 0.75853 0.40966 0.25876 0.0
C959 C 0.75016 0.37943 0.27572 0.0
N960 N 0.71487 0.34726 0.31278 0.0
N961 N 0.7421 0.46154 0.24024 0.0
C962 C 0.72463 0.37732 0.29822 0.0
C963 C 0.73876 0.43593 0.2613 0.0
N964 N 0.68938 0.40788 0.33119 0.0
N965 N 0.7853 0.41314 0.24013 0.0
H966 H 0.72789 0.48088 0.241 0.0
H967 H 0.75707 0.46212 0.22028 0.0
H968 H 0.79965 0.39398 0.23723 0.0
H969 H 0.79481 0.43599 0.22978 0.0
H970 H 0.68751 0.3903 0.34911 0.0
H971 H 0.6776 0.42878 0.33715 0.0
H972 H 0.69381 0.34243 0.32588 0.0
H973 H 0.72639 0.32587 0.30979 0.0
C974 C 0.88293 0.44078 0.47515 0.0
C975 C 0.86141 0.45777 0.49394 0.0
C976 C 0.90655 0.50605 0.51345 0.0
C977 C 0.92889 0.4868 0.49846 0.0
N978 N 0.93862 0.43337 0.4684 0.0
N979 N 0.85228 0.50522 0.53285 0.0
C980 C 0.91717 0.45365 0.47985 0.0
C981 C 0.87311 0.49 0.51367 0.0
N982 N 0.87073 0.41213 0.45304 0.0
N983 N 0.91696 0.54027 0.52607 0.0
H984 H 0.82716 0.49564 0.53196 0.0
H985 H 0.86015 0.52618 0.55103 0.0
H986 H 0.94102 0.55344 0.5256 0.0
H987 H 0.90122 0.55675 0.53403 0.0
H988 H 0.8848 0.40113 0.43582 0.0
H989 H 0.84594 0.40093 0.44995 0.0
H990 H 0.93148 0.40741 0.45822 0.0
H991 H 0.96388 0.44112 0.47167 0.0
C992 C 0.32092 0.09805 0.28565 0.0
C993 C 0.34614 0.10005 0.26291 0.0
C994 C 0.31222 0.12403 0.22393 0.0
C995 C 0.29181 0.13079 0.2498 0.0
N996 N 0.27096 0.11658 0.3023 0.0
N997 N 0.36629 0.11598 0.21022 0.0
C998 C 0.29421 0.11507 0.27972 0.0
C999 C 0.34173 0.11278 0.2317 0.0
N1000 N 0.32191 0.07878 0.31202 0.0
N1001 N 0.30301 0.12768 0.19195 0.0
H1002 H 0.38874 0.10896 0.21525 0.0
H1003 H 0.36542 0.12858 0.18875 0.0
H1004 H 0.28007 0.13293 0.18556 0.0
H1005 H 0.31598 0.12086 0.17167 0.0
H1006 H 0.3031 0.0739 0.32802 0.0
H1007 H 0.34051 0.06504 0.31647 0.0
H1008 H 0.27343 0.11057 0.32664 0.0
H1009 H 0.24886 0.12399 0.29625 0.0
C1010 C 0.3508 0.07254 0.48949 0.0
C1011 C 0.34779 0.10275 0.5108 0.0
C1012 C 0.39843 0.09893 0.54222 0.0
C1013 C 0.39982 0.06712 0.52264 0.0
N1014 N 0.37426 0.02024 0.48146 0.0
N1015 N 0.36483 0.13998 0.56204 0.0
C1016 C 0.3749 0.05274 0.49762 0.0
C1017 C 0.37061 0.1148 0.53838 0.0
N1018 N 0.3319 0.06385 0.46044 0.0
N1019 N 0.4237 0.11407 0.56459 0.0
H1020 H 0.34421 0.15141 0.56105 0.0
H1021 H 0.37876 0.1471 0.58442 0.0
H1022 H 0.44339 0.10214 0.57 0.0
H1023 H 0.42609 0.13941 0.57636 0.0
H1024 H 0.33531 0.04437 0.44224 0.0
H1025 H 0.31497 0.07848 0.45282 0.0
H1026 H 0.35486 0.00687 0.46542 0.0
H1027 H 0.39175 0.00521 0.48632 0.0
C1028 C 0.71072 0.64355 0.32207 0.0
C1029 C 0.71493 0.61403 0.30062 0.0
C1030 C 0.75602 0.65132 0.27127 0.0
C1031 C 0.75331 0.68043 0.2941 0.0
N1032 N 0.73106 0.70429 0.3432 0.0
N1033 N 0.74249 0.58846 0.25602 0.0
C1034 C 0.73144 0.67655 0.32004 0.0
C1035 C 0.73793 0.61752 0.27561 0.0
N1036 N 0.6866 0.64006 0.34409 0.0
N1037 N 0.77526 0.65621 0.24489 0.0
H1038 H 0.72816 0.56365 0.25657 0.0
H1039 H 0.76154 0.5883 0.24025 0.0
H1040 H 0.78992 0.68019 0.24155 0.0
H1041 H 0.77528 0.63727 0.22499 0.0
H1042 H 0.67949 0.66114 0.3576 0.0
H1043 H 0.67217 0.61598 0.34756 0.0
H1044 H 0.71866 0.70247 0.36494 0.0
H1045 H 0.74489 0.72909 0.34166 0.0
C1046 C 0.88069 0.43156 0.78012 0.0
C1047 C 0.8659 0.46045 0.78963 0.0
C1048 C 0.8147 0.42017 0.79692 0.0
C1049 C 0.82835 0.39199 0.78258 0.0
N1050 N 0.87266 0.3727 0.7534 0.0
N1051 N 0.81706 0.48292 0.80227 0.0
C1052 C 0.86079 0.39817 0.77195 0.0
C1053 C 0.83246 0.45506 0.79713 0.0
N1054 N 0.91396 0.43571 0.7801 0.0
N1055 N 0.78459 0.41376 0.80965 0.0
H1056 H 0.82874 0.50881 0.80148 0.0
H1057 H 0.79194 0.48022 0.80431 0.0
H1058 H 0.77007 0.38878 0.80817 0.0
H1059 H 0.775 0.43286 0.82361 0.0
H1060 H 0.92601 0.41468 0.77644 0.0
H1061 H 0.92959 0.45955 0.78767 0.0
H1062 H 0.89491 0.37766 0.74225 0.0
H1063 H 0.85947 0.34749 0.74656 0.0
C1064 C 0.0616 0.87866 0.07278 0.0
C1065 C 0.0405 0.86779 0.09796 0.0
C1066 C 0.00984 0.91421 0.0888 0.0
C1067 C 0.02977 0.92384 0.06226 0.0
N1068 N 0.06978 0.91036 0.02424 0.0
N1069 N 0.98997 0.86939 0.1244 0.0
C1070 C 0.0542 0.90452 0.05281 0.0
C1071 C 0.01321 0.88381 0.10429 0.0
N1072 N 0.08954 0.86552 0.06895 0.0
N1073 N 0.98898 0.93502 0.10059 0.0
H1074 H 0.99124 0.84673 0.13567 0.0
H1075 H 0.96787 0.87777 0.12722 0.0
H1076 H 0.98584 0.95779 0.09051 0.0
H1077 H 0.97684 0.93141 0.12232 0.0
H1078 H 0.10776 0.87544 0.05369 0.0
H1079 H 0.0959 0.84664 0.08315 0.0
H1080 H 0.08558 0.89488 0.01434 0.0
H1081 H 0.06444 0.92854 0.00861 0.0
C1082 C 0.90228 0.22234 0.79933 0.0
C1083 C 0.91358 0.24544 0.82825 0.0
C1084 C 0.87683 0.28378 0.81376 0.0
C1085 C 0.86283 0.25954 0.786 0.0
N1086 N 0.8584 0.2012 0.75722 0.0
N1087 N 0.90404 0.29137 0.86842 0.0
C1088 C 0.87439 0.22739 0.78013 0.0
C1089 C 0.89804 0.27366 0.83734 0.0
N1090 N 0.91869 0.19626 0.78969 0.0
N1091 N 0.87263 0.31769 0.81638 0.0
H1092 H 0.91942 0.28434 0.88647 0.0
H1093 H 0.89093 0.31028 0.87723 0.0
H1094 H 0.8616 0.32815 0.7975 0.0
H1095 H 0.88457 0.33674 0.83487 0.0
H1096 H 0.91406 0.18118 0.76675 0.0
H1097 H 0.9384 0.19126 0.80391 0.0
H1098 H 0.86399 0.17622 0.75454 0.0
H1099 H 0.83744 0.20292 0.74321 0.0
C1100 C 0.53803 0.18714 0.57455 0.0
C1101 C 0.55596 0.1956 0.6057 0.0
C1102 C 0.56794 0.13629 0.60296 0.0
C1103 C 0.55149 0.12848 0.57095 0.0
N1104 N 0.52739 0.14875 0.52316 0.0
N1105 N 0.5941 0.18141 0.64608 0.0
C1106 C 0.53866 0.15472 0.55577 0.0
C1107 C 0.57283 0.17112 0.61886 0.0
N1108 N 0.51879 0.20908 0.56373 0.0
N1109 N 0.57723 0.11019 0.61907 0.0
H1110 H 0.59863 0.20691 0.65792 0.0
H1111 H 0.60953 0.16578 0.6549 0.0
H1112 H 0.57398 0.08428 0.60856 0.0
H1113 H 0.58577 0.11363 0.64392 0.0
H1114 H 0.50224 0.20227 0.54315 0.0
H1115 H 0.517 0.23285 0.57692 0.0
H1116 H 0.52099 0.16814 0.50971 0.0
H1117 H 0.52735 0.12523 0.50861 0.0
C1118 C 0.59052 0.77324 0.30451 0.0
C1119 C 0.58826 0.76223 0.3369 0.0
C1120 C 0.64611 0.75841 0.33864 0.0
C1121 C 0.64757 0.76569 0.30496 0.0
N1122 N 0.61979 0.77444 0.25397 0.0
N1123 N 0.61181 0.73651 0.38162 0.0
C1124 C 0.61938 0.77157 0.28733 0.0
C1125 C 0.61544 0.7525 0.35305 0.0
N1126 N 0.56576 0.78668 0.2907 0.0
N1127 N 0.67414 0.75914 0.35761 0.0
H1128 H 0.58953 0.73084 0.39264 0.0
H1129 H 0.63008 0.72558 0.39243 0.0
H1130 H 0.6974 0.76554 0.34887 0.0
H1131 H 0.67451 0.75739 0.38313 0.0
H1132 H 0.56755 0.79854 0.26872 0.0
H1133 H 0.54448 0.78892 0.30268 0.0
H1134 H 0.59897 0.77505 0.23913 0.0
H1135 H 0.64037 0.77303 0.24051 0.0
C1136 C 0.00506 0.17207 0.46331 0.0
C1137 C 0.03696 0.19143 0.45981 0.0
C1138 C 0.06082 0.14926 0.48992 0.0
C1139 C 0.0289 0.1297 0.49299 0.0
N1140 N 0.9707 0.12565 0.48892 0.0
N1141 N 0.09518 0.20098 0.47262 0.0
C1142 C 1.00104 0.14205 0.4814 0.0
C1143 C 0.06478 0.18096 0.47432 0.0
N1144 N 0.97853 0.1824 0.44928 0.0
N1145 N 0.08753 0.13644 0.50005 0.0
H1146 H 0.09995 0.2218 0.45815 0.0
H1147 H 0.11579 0.19803 0.48655 0.0
H1148 H 0.08602 0.11417 0.51249 0.0
H1149 H 0.11138 0.14653 0.49466 0.0
H1150 H 0.95509 0.16724 0.44695 0.0
H1151 H 0.98 0.20586 0.43864 0.0
H1152 H 0.94928 0.13476 0.4841 0.0
H1153 H 0.96712 0.10418 0.50275 0.0
C1154 C 0.60344 0.22567 0.17898 0.0
C1155 C 0.59202 0.25772 0.18537 0.0
C1156 C 0.64088 0.28234 0.22173 0.0
C1157 C 0.65257 0.25063 0.21485 0.0
N1158 N 0.64275 0.18985 0.19331 0.0
N1159 N 0.59526 0.31264 0.21916 0.0
C1160 C 0.633 0.22147 0.19562 0.0
C1161 C 0.60947 0.28499 0.20856 0.0
N1162 N 0.58702 0.19996 0.15578 0.0
N1163 N 0.66 0.31006 0.24077 0.0
H1164 H 0.57183 0.31488 0.21085 0.0
H1165 H 0.60519 0.33171 0.23844 0.0
H1166 H 0.68155 0.30806 0.2537 0.0
H1167 H 0.65522 0.33538 0.24288 0.0
H1168 H 0.59615 0.17802 0.1469 0.0
H1169 H 0.56492 0.20135 0.14363 0.0
H1170 H 0.62819 0.16656 0.18252 0.0
H1171 H 0.66462 0.18631 0.20465 0.0
C1172 C 0.5669 0.90017 0.96476 0.0
C1173 C 0.54112 0.87107 0.96479 0.0
C1174 C 0.5102 0.90765 0.99871 0.0
C1175 C 0.53551 0.93756 0.99713 0.0
N1176 N 0.58145 0.96257 0.96618 0.0
N1177 N 0.485 0.84877 0.97564 0.0
C1178 C 0.56195 0.93406 0.97652 0.0
C1179 C 0.51195 0.87511 0.98031 0.0
N1180 N 0.59663 0.89546 0.95421 0.0
N1181 N 0.48363 0.91031 0.01676 0.0
H1182 H 0.48476 0.82463 0.96218 0.0
H1183 H 0.46183 0.8518 0.98251 0.0
H1184 H 0.47685 0.93404 0.02429 0.0
H1185 H 0.46794 0.88865 0.02393 0.0
H1186 H 0.61732 0.91536 0.95702 0.0
H1187 H 0.60154 0.87089 0.94611 0.0
H1188 H 0.59889 0.96066 0.94873 0.0
H1189 H 0.57725 0.98779 0.97061 0.0
C1190 C 0.91979 0.79971 0.71849 0.0
C1191 C 0.91869 0.77224 0.69239 0.0
C1192 C 0.86199 0.74924 0.70365 0.0
C1193 C 0.86443 0.7735 0.73265 0.0
N1194 N 0.89854 0.81792 0.77088 0.0
N1195 N 0.89128 0.71494 0.6675 0.0
C1196 C 0.89421 0.79764 0.74105 0.0
C1197 C 0.89059 0.74519 0.6872 0.0
N1198 N 0.94422 0.82861 0.7209 0.0
N1199 N 0.83222 0.73155 0.69024 0.0
H1200 H 0.91228 0.70975 0.65651 0.0
H1201 H 0.87212 0.69334 0.66552 0.0
H1202 H 0.81015 0.73619 0.69904 0.0
H1203 H 0.82941 0.71577 0.66764 0.0
H1204 H 0.94434 0.85077 0.73747 0.0
H1205 H 0.96251 0.8321 0.70409 0.0
H1206 H 0.92089 0.83352 0.7796 0.0
H1207 H 0.88077 0.81644 0.78834 0.0
C1208 C 0.09577 0.02914 0.89892 0.0
C1209 C 0.09766 0.9976 0.8795 0.0
C1210 C 0.06259 0.96484 0.91821 0.0
C1211 C 0.06256 0.99673 0.93869 0.0
N1212 N 0.09426 0.05509 0.95456 0.0
N1213 N 0.08774 0.9345 0.87382 0.0
C1214 C 0.08345 0.02777 0.93087 0.0
C1215 C 0.08222 0.96509 0.88987 0.0
N1216 N 0.10523 0.06073 0.88684 0.0
N1217 N 0.04493 0.93408 0.92641 0.0
H1218 H 0.10229 0.93374 0.85354 0.0
H1219 H 0.08015 0.91003 0.88209 0.0
H1220 H 0.03526 0.93148 0.94955 0.0
H1221 H 0.03984 0.91111 0.91022 0.0
H1222 H 0.1014 0.08419 0.8992 0.0
H1223 H 0.11324 0.06311 0.86295 0.0
H1224 H 0.11068 0.07752 0.95007 0.0
H1225 H 0.09254 0.05224 0.97958 0.0
C1226 C 0.7358 0.33742 0.59644 0.0
C1227 C 0.76326 0.34805 0.57786 0.0
C1228 C 0.79854 0.32585 0.61683 0.0
C1229 C 0.77087 0.31377 0.63474 0.0
N1230 N 0.7122 0.30023 0.63725 0.0
N1231 N 0.81822 0.34337 0.5645 0.0
C1232 C 0.73913 0.31708 0.62314 0.0
C1233 C 0.79383 0.33932 0.58618 0.0
N1234 N 0.70707 0.3481 0.58966 0.0
N1235 N 0.82946 0.32694 0.62997 0.0
H1236 H 0.81542 0.35249 0.54137 0.0
H1237 H 0.83987 0.33417 0.56793 0.0
H1238 H 0.8345 0.31865 0.65295 0.0
H1239 H 0.85034 0.33933 0.61947 0.0
H1240 H 0.68741 0.34451 0.60483 0.0
H1241 H 0.70371 0.36302 0.57024 0.0
H1242 H 0.68836 0.2992 0.62796 0.0
H1243 H 0.71373 0.28425 0.65624 0.0
C1244 C 0.50713 0.08349 0.38959 0.0
C1245 C 0.47824 0.05976 0.37728 0.0
C1246 C 0.47565 0.03299 0.42944 0.0
C1247 C 0.50682 0.05361 0.4407 0.0
N1248 N 0.54548 0.10714 0.43654 0.0
N1249 N 0.43645 0.00954 0.38365 0.0
C1250 C 0.5208 0.08134 0.42211 0.0
C1251 C 0.46308 0.0338 0.39662 0.0
N1252 N 0.52222 0.10701 0.36954 0.0
N1253 N 0.45624 0.01519 0.45085 0.0
H1254 H 0.42405 0.01108 0.36119 0.0
H1255 H 0.42792 0.98645 0.39411 0.0
H1256 H 0.46129 0.01887 0.47617 0.0
H1257 H 0.43249 0.00171 0.44464 0.0
H1258 H 0.54537 0.12233 0.37503 0.0
H1259 H 0.5124 0.10958 0.34599 0.0
H1260 H 0.55507 0.12958 0.42563 0.0
H1261 H 0.55393 0.10844 0.46124 0.0
C1262 C 0.78556 0.73074 0.11117 0.0
C1263 C 0.76239 0.69981 0.10032 0.0
C1264 C 0.74347 0.69797 0.15709 0.0
C1265 C 0.7648 0.73049 0.16739 0.0
N1266 N 0.80217 0.78089 0.15236 0.0
N1267 N 0.71479 0.65802 0.11118 0.0
C1268 C 0.78468 0.74774 0.14385 0.0
C1269 C 0.74003 0.68463 0.12279 0.0
N1270 N 0.80949 0.74303 0.09084 0.0
N1271 N 0.72786 0.6787 0.1802 0.0
H1272 H 0.71116 0.64805 0.08621 0.0
H1273 H 0.69572 0.6483 0.12557 0.0
H1274 H 0.73027 0.68681 0.2056 0.0
H1275 H 0.71503 0.6531 0.17458 0.0
H1276 H 0.82939 0.7629 0.09871 0.0
H1277 H 0.81112 0.73139 0.06685 0.0
H1278 H 0.81397 0.79637 0.13528 0.0
H1279 H 0.80261 0.79425 0.17595 0.0
C1280 C 0.10577 0.05952 0.69917 0.0
C1281 C 0.10369 0.02457 0.70727 0.0
C1282 C 0.06826 0.00251 0.65705 0.0
C1283 C 0.07298 0.03697 0.64725 0.0
N1284 N 0.0977 0.09808 0.65708 0.0
N1285 N 0.0859 0.9624 0.69291 0.0
C1286 C 0.09191 0.06553 0.66795 0.0
C1287 C 0.08579 0.99594 0.68588 0.0
N1288 N 0.12107 0.08691 0.72132 0.0
N1289 N 0.04598 0.97631 0.63942 0.0
H1290 H 0.09722 0.95655 0.71455 0.0
H1291 H 0.07667 0.94034 0.67637 0.0
H1292 H 0.032 0.98039 0.61876 0.0
H1293 H 0.03896 0.9514 0.64694 0.0
H1294 H 0.1205 0.11303 0.7187 0.0
H1295 H 0.13294 0.08351 0.74359 0.0
H1296 H 0.11427 0.11934 0.66899 0.0
H1297 H 0.08718 0.10341 0.6348 0.0
C1298 C 0.77562 0.35202 0.3887 0.0
C1299 C 0.75479 0.33834 0.41271 0.0
C1300 C 0.7446 0.28032 0.38013 0.0
C1301 C 0.76596 0.29446 0.35617 0.0
N1302 N 0.8132 0.33856 0.34869 0.0
N1303 N 0.72283 0.28883 0.43475 0.0
C1304 C 0.78482 0.32882 0.36368 0.0
C1305 C 0.74016 0.3022 0.40944 0.0
N1306 N 0.78709 0.38729 0.38983 0.0
N1307 N 0.72942 0.24596 0.37548 0.0
H1308 H 0.71821 0.30458 0.45566 0.0
H1309 H 0.71414 0.26224 0.43585 0.0
H1310 H 0.73688 0.2278 0.35839 0.0
H1311 H 0.71009 0.23523 0.38905 0.0
H1312 H 0.79981 0.39864 0.37074 0.0
H1313 H 0.78121 0.40547 0.40804 0.0
H1314 H 0.82243 0.32093 0.33282 0.0
H1315 H 0.82943 0.36216 0.35545 0.0
C1316 C 0.51383 0.05903 0.20793 0.0
C1317 C 0.48846 0.07825 0.21258 0.0
C1318 C 0.48908 0.09096 0.15468 0.0
C1319 C 0.51279 0.06944 0.1494 0.0
N1320 N 0.55502 0.04268 0.17217 0.0
N1321 N 0.45987 0.12197 0.19451 0.0
C1322 C 0.5276 0.05666 0.17653 0.0
C1323 C 0.47904 0.09775 0.18739 0.0
N1324 N 0.52389 0.04218 0.23336 0.0
N1325 N 0.47415 0.10248 0.12834 0.0
H1326 H 0.45184 0.12725 0.21814 0.0
H1327 H 0.45469 0.13934 0.178 0.0
H1328 H 0.48029 0.09808 0.10386 0.0
H1329 H 0.45392 0.11445 0.1303 0.0
H1330 H 0.53925 0.02408 0.23059 0.0
H1331 H 0.51586 0.04566 0.25733 0.0
H1332 H 0.56862 0.03535 0.19147 0.0
H1333 H 0.56596 0.04147 0.14947 0.0
C1334 C 0.75817 0.73244 0.91304 0.0
C1335 C 0.77548 0.70496 0.9174 0.0
C1336 C 0.80027 0.71396 0.86373 0.0
C1337 C 0.7853 0.74346 0.86097 0.0
N1338 N 0.75249 0.78322 0.88471 0.0
N1339 N 0.81651 0.67252 0.8991 0.0
C1340 C 0.76508 0.75346 0.88623 0.0
C1341 C 0.79735 0.69637 0.89321 0.0
N1342 N 0.73374 0.73725 0.93349 0.0
N1343 N 0.81695 0.70238 0.8379 0.0
H1344 H 0.81551 0.65948 0.92043 0.0
H1345 H 0.83533 0.6677 0.8843 0.0
H1346 H 0.8208 0.71545 0.81672 0.0
H1347 H 0.82498 0.67863 0.83637 0.0
H1348 H 0.7176 0.75398 0.92942 0.0
H1349 H 0.72748 0.72206 0.95291 0.0
H1350 H 0.74084 0.79424 0.90412 0.0
H1351 H 0.75556 0.79846 0.8649 0.0
C1352 C 0.87465 0.07826 0.98724 0.0
C1353 C 0.85479 0.07644 0.01492 0.0
C1354 C 0.87735 0.02633 0.03121 0.0
C1355 C 0.90032 0.03148 0.00649 0.0
N1356 N 0.92335 0.06487 0.96287 0.0
N1357 N 0.83633 0.04872 0.06326 0.0
C1358 C 0.89925 0.05759 0.98451 0.0
C1359 C 0.85578 0.05032 0.03685 0.0
N1360 N 0.87059 0.10032 0.9638 0.0
N1361 N 0.8761 0.99811 0.04897 0.0
H1362 H 0.8185 0.06399 0.06676 0.0
H1363 H 0.83862 0.03335 0.08251 0.0
H1364 H 0.89141 0.98001 0.04485 0.0
H1365 H 0.85835 0.9908 0.0656 0.0
H1366 H 0.88119 0.09936 0.94097 0.0
H1367 H 0.85489 0.11809 0.96598 0.0
H1368 H 0.92675 0.08706 0.95013 0.0
H1369 H 0.94156 0.05027 0.95909 0.0
C1370 C 0.38593 0.45982 0.01211 0.0
C1371 C 0.36992 0.45345 0.04184 0.0
C1372 C 0.41222 0.49833 0.07317 0.0
C1373 C 0.43058 0.50126 0.04437 0.0
N1374 N 0.42641 0.49854 0.98487 0.0
N1375 N 0.3694 0.46379 0.10139 0.0
C1376 C 0.41518 0.48571 0.01325 0.0
C1377 C 0.38342 0.47208 0.07254 0.0
N1378 N 0.37351 0.44079 0.98279 0.0
N1379 N 0.42036 0.52279 0.1001 0.0
H1380 H 0.34832 0.44476 0.10198 0.0
H1381 H 0.38031 0.47341 0.12487 0.0
H1382 H 0.43772 0.54561 0.09953 0.0
H1383 H 0.4065 0.52359 0.12088 0.0
H1384 H 0.38612 0.4411 0.96112 0.0
H1385 H 0.35153 0.42272 0.98063 0.0
H1386 H 0.41435 0.4911 0.96155 0.0
H1387 H 0.44513 0.52037 0.98535 0.0
C1388 C 0.30375 0.60755 0.76022 0.0
C1389 C 0.3341 0.61277 0.74479 0.0
C1390 C 0.32812 0.67268 0.73632 0.0
C1391 C 0.29983 0.66902 0.7552 0.0
N1392 N 0.26187 0.63393 0.78735 0.0
N1393 N 0.37688 0.65121 0.7208 0.0
C1394 C 0.28772 0.63655 0.76747 0.0
C1395 C 0.34677 0.64563 0.73368 0.0
N1396 N 0.29034 0.57488 0.76808 0.0
N1397 N 0.33641 0.70145 0.71949 0.0
H1398 H 0.39048 0.63155 0.71644 0.0
H1399 H 0.38937 0.67588 0.71644 0.0
H1400 H 0.32333 0.72167 0.72029 0.0
H1401 H 0.3543 0.70384 0.70222 0.0
H1402 H 0.26676 0.56829 0.77596 0.0
H1403 H 0.30205 0.55355 0.76473 0.0
H1404 H 0.25399 0.61242 0.80026 0.0
H1405 H 0.24947 0.65445 0.79276 0.0
C1406 C 0.18735 0.57897 0.55394 0.0
C1407 C 0.20119 0.59932 0.52905 0.0
C1408 C 0.1471 0.59377 0.50136 0.0
C1409 C 0.13374 0.57003 0.52394 0.0
N1410 N 0.14318 0.53375 0.56713 0.0
N1411 N 0.19534 0.61756 0.4741 0.0
C1412 C 0.15441 0.5608 0.549 0.0
C1413 C 0.18141 0.60426 0.50128 0.0
N1414 N 0.20504 0.57806 0.58287 0.0
N1415 N 0.12722 0.60766 0.48086 0.0
H1416 H 0.22053 0.62378 0.4721 0.0
H1417 H 0.18195 0.61847 0.45202 0.0
H1418 H 0.10182 0.60205 0.48069 0.0
H1419 H 0.13606 0.62778 0.46656 0.0
H1420 H 0.19487 0.5665 0.60314 0.0
H1421 H 0.22894 0.59178 0.58793 0.0
H1422 H 0.1583 0.52388 0.58338 0.0
H1423 H 0.11968 0.5187 0.56341 0.0
C1424 C 0.71059 0.93285 0.80459 0.0
C1425 C 0.71527 0.95249 0.77676 0.0
C1426 C 0.76412 0.92857 0.76424 0.0
C1427 C 0.75846 0.90799 0.79103 0.0
N1428 N 0.73363 0.89794 0.84243 0.0
N1429 N 0.75156 0.97732 0.73667 0.0
C1430 C 0.73433 0.91309 0.81338 0.0
C1431 C 0.74374 0.95302 0.75863 0.0
N1432 N 0.68239 0.93071 0.82096 0.0
N1433 N 0.78817 0.92352 0.74345 0.0
H1434 H 0.73759 0.99625 0.73276 0.0
H1435 H 0.77338 0.98087 0.72473 0.0
H1436 H 0.80473 0.90746 0.74859 0.0
H1437 H 0.79097 0.93416 0.7209 0.0
H1438 H 0.6761 0.91366 0.8389 0.0
H1439 H 0.66378 0.94377 0.81483 0.0
H1440 H 0.71833 0.90289 0.86127 0.0
H1441 H 0.75083 0.88311 0.84894 0.0
C1442 C 0.68544 0.95873 0.56388 0.0
C1443 C 0.69704 0.94236 0.53513 0.0
C1444 C 0.65506 0.96089 0.50038 0.0
C1445 C 0.64549 0.98006 0.52871 0.0
N1446 N 0.65595 0.00272 0.58648 0.0
N1447 N 0.69771 0.93485 0.47529 0.0
C1448 C 0.66195 0.98054 0.56022 0.0
C1449 C 0.68324 0.94545 0.50316 0.0
N1450 N 0.69579 0.95231 0.59473 0.0
N1451 N 0.63633 0.9556 0.4712 0.0
H1452 H 0.71882 0.92422 0.47609 0.0
H1453 H 0.69073 0.93993 0.45153 0.0
H1454 H 0.61493 0.96533 0.46811 0.0
H1455 H 0.64023 0.93854 0.45101 0.0
H1456 H 0.68552 0.96036 0.61647 0.0
H1457 H 0.71253 0.93608 0.59846 0.0
H1458 H 0.66945 0.00674 0.60919 0.0
H1459 H 0.63956 0.01969 0.58464 0.0
C1460 C 0.30418 0.42576 0.75672 0.0
C1461 C 0.32732 0.43062 0.73198 0.0
C1462 C 0.31708 0.36716 0.71627 0.0
C1463 C 0.29205 0.36264 0.73908 0.0
N1464 N 0.25662 0.38875 0.7753 0.0
N1465 N 0.35049 0.40687 0.68332 0.0
C1466 C 0.28392 0.39231 0.75745 0.0
C1467 C 0.33228 0.40156 0.71034 0.0
N1468 N 0.30282 0.45233 0.7809 0.0
N1469 N 0.32686 0.33866 0.70068 0.0
H1470 H 0.36114 0.43176 0.67754 0.0
H1471 H 0.35225 0.387 0.66479 0.0
H1472 H 0.31593 0.31318 0.704 0.0
H1473 H 0.34745 0.34028 0.68678 0.0
H1474 H 0.28889 0.4489 0.80153 0.0
H1475 H 0.31807 0.47687 0.78242 0.0
H1476 H 0.24773 0.41004 0.78633 0.0
H1477 H 0.24108 0.36475 0.77649 0.0
C1478 C 0.22171 0.61834 0.22181 0.0
C1479 C 0.20443 0.60394 0.24826 0.0
C1480 C 0.22205 0.65894 0.28367 0.0
C1481 C 0.24167 0.67246 0.25819 0.0
N1482 N 0.26694 0.66113 0.20668 0.0
N1483 N 0.1966 0.60681 0.30716 0.0
C1484 C 0.24361 0.65095 0.22834 0.0
C1485 C 0.20722 0.62306 0.28009 0.0
N1486 N 0.21616 0.6019 0.1902 0.0
N1487 N 0.21571 0.68037 0.31034 0.0
H1488 H 0.18674 0.58011 0.30587 0.0
H1489 H 0.20106 0.61898 0.3314 0.0
H1490 H 0.22426 0.70729 0.31365 0.0
H1491 H 0.19873 0.67193 0.32744 0.0
H1492 H 0.22574 0.61328 0.16959 0.0
H1493 H 0.19945 0.57853 0.18401 0.0
H1494 H 0.27123 0.64488 0.18604 0.0
H1495 H 0.28437 0.6842 0.21132 0.0
C1496 C 0.49405 0.64362 0.43693 0.0
C1497 C 0.51195 0.67788 0.4466 0.0
C1498 C 0.5362 0.65646 0.49501 0.0
C1499 C 0.52174 0.62162 0.48248 0.0
N1500 N 0.49509 0.58212 0.43537 0.0
N1501 N 0.55589 0.71533 0.48128 0.0
C1502 C 0.50299 0.61516 0.45167 0.0
C1503 C 0.53464 0.68402 0.47475 0.0
N1504 N 0.46773 0.63814 0.41456 0.0
N1505 N 0.55057 0.66347 0.52644 0.0
H1506 H 0.55695 0.73565 0.46623 0.0
H1507 H 0.57486 0.71971 0.49963 0.0
H1508 H 0.55153 0.64406 0.54222 0.0
H1509 H 0.55863 0.68886 0.53787 0.0
H1510 H 0.45231 0.61378 0.40915 0.0
H1511 H 0.45898 0.6585 0.40457 0.0
H1512 H 0.4838 0.57696 0.41151 0.0
H1513 H 0.5034 0.56069 0.44365 0.0
C1514 C 0.64237 0.27401 0.73502 0.0
C1515 C 0.63881 0.30273 0.71706 0.0
C1516 C 0.69456 0.33245 0.73621 0.0
C1517 C 0.69728 0.30446 0.75533 0.0
N1518 N 0.67142 0.25308 0.77953 0.0
N1519 N 0.65888 0.36208 0.70532 0.0
C1520 C 0.67038 0.27669 0.75684 0.0
C1521 C 0.66423 0.33276 0.71888 0.0
N1522 N 0.61998 0.24332 0.72983 0.0
N1523 N 0.72109 0.35846 0.7343 0.0
H1524 H 0.63677 0.36357 0.69312 0.0
H1525 H 0.6752 0.38596 0.70859 0.0
H1526 H 0.74294 0.36011 0.74831 0.0
H1527 H 0.72212 0.37721 0.71757 0.0
H1528 H 0.62322 0.22038 0.73953 0.0
H1529 H 0.59959 0.23953 0.71325 0.0
H1530 H 0.65123 0.23451 0.78425 0.0
H1531 H 0.69169 0.25395 0.79574 0.0
C1532 C 0.98804 0.37648 0.92042 0.0
C1533 C 0.9905 0.34848 0.93967 0.0
C1534 C 0.98682 0.38682 0.99041 0.0
C1535 C 0.99076 0.41589 0.97165 0.0
N1536 N 0.99651 0.43931 0.91879 0.0
N1537 N 0.99443 0.32721 0.99349 0.0
C1538 C 0.99144 0.41096 0.93657 0.0
C1539 C 0.98999 0.35349 0.97484 0.0
N1540 N 0.98145 0.36991 0.88681 0.0
N1541 N 0.97976 0.39114 0.023 0.0
H1542 H 0.99739 0.30259 0.98313 0.0
H1543 H 0.99786 0.33069 0.01929 0.0
H1544 H 0.97639 0.41519 0.03451 0.0
H1545 H 0.97392 0.37042 0.03743 0.0
H1546 H 0.97628 0.38874 0.87193 0.0
H1547 H 0.97775 0.34476 0.87426 0.0
H1548 H 1.00115 0.43765 0.89366 0.0
H1549 H 0.9981 0.46489 0.92967 0.0
C1550 C 0.95954 0.81444 0.22107 0.0
C1551 C 0.97029 0.78322 0.20964 0.0
C1552 C 0.92025 0.74804 0.22753 0.0
C1553 C 0.91053 0.7792 0.241 0.0
N1554 N 0.92408 0.84148 0.2569 0.0
N1555 N 0.96465 0.72054 0.20865 0.0
C1556 C 0.93114 0.81226 0.23963 0.0
C1557 C 0.95176 0.75007 0.21488 0.0
N1558 N 0.97547 0.84609 0.21287 0.0
N1559 N 0.89879 0.71671 0.22498 0.0
H1560 H 0.98787 0.72101 0.19986 0.0
H1561 H 0.95373 0.69615 0.21529 0.0
H1562 H 0.87521 0.71393 0.23323 0.0
H1563 H 0.90328 0.69396 0.21189 0.0
H1564 H 0.96649 0.86917 0.21716 0.0
H1565 H 0.99625 0.84893 0.19919 0.0
H1566 H 0.93981 0.86576 0.25958 0.0
H1567 H 0.90395 0.84065 0.27142 0.0
C1568 C 0.53772 0.37149 0.06271 0.0
C1569 C 0.5094 0.3595 0.07979 0.0
C1570 C 0.48193 0.4028 0.05603 0.0
C1571 C 0.51165 0.41773 0.04268 0.0
N1572 N 0.56835 0.41754 0.03394 0.0
N1573 N 0.45561 0.36584 0.09585 0.0
C1574 C 0.53968 0.40232 0.04615 0.0
C1575 C 0.48161 0.37544 0.07698 0.0
N1576 N 0.56219 0.35256 0.06111 0.0
N1577 N 0.45406 0.41497 0.04892 0.0
H1578 H 0.45468 0.34646 0.11198 0.0
H1579 H 0.43617 0.37902 0.09782 0.0
H1580 H 0.45353 0.43524 0.03412 0.0
H1581 H 0.43094 0.40306 0.05508 0.0
H1582 H 0.5819 0.35781 0.04623 0.0
H1583 H 0.56146 0.32957 0.07242 0.0
H1584 H 0.59075 0.41066 0.03947 0.0
H1585 H 0.56998 0.4383 0.0193 0.0
C1586 C 0.95223 0.32139 0.36542 0.0
C1587 C 0.96789 0.29404 0.3524 0.0
C1588 C 0.92815 0.28029 0.30445 0.0
C1589 C 0.9122 0.30716 0.31775 0.0
N1590 N 0.91091 0.35688 0.35711 0.0
N1591 N 0.97423 0.25064 0.30783 0.0
C1592 C 0.92495 0.32894 0.34708 0.0
C1593 C 0.95698 0.27458 0.32126 0.0
N1594 N 0.96335 0.33985 0.39543 0.0
N1595 N 0.91499 0.25957 0.27616 0.0
H1596 H 0.99418 0.24402 0.32032 0.0
H1597 H 0.96995 0.23837 0.28368 0.0
H1598 H 0.8955 0.26484 0.2618 0.0
H1599 H 0.92244 0.2366 0.26728 0.0
H1600 H 0.9514 0.35769 0.40815 0.0
H1601 H 0.98429 0.33645 0.40864 0.0
H1602 H 0.92 0.37559 0.37691 0.0
H1603 H 0.891 0.36282 0.34395 0.0
C1604 C 0.02708 0.66273 0.57065 0.0
C1605 C 0.99897 0.67731 0.56491 0.0
C1606 C 0.98055 0.63184 0.51824 0.0
C1607 C 0.01023 0.61945 0.52244 0.0
N1608 N 0.06544 0.6302 0.54626 0.0
N1609 N 0.95065 0.67885 0.53091 0.0
C1610 C 0.03452 0.63685 0.5469 0.0
C1611 C 0.97601 0.66264 0.53811 0.0
N1612 N 0.04607 0.67256 0.59952 0.0
N1613 N 0.95653 0.61384 0.49579 0.0
H1614 H 0.94651 0.70115 0.54511 0.0
H1615 H 0.93508 0.67176 0.50962 0.0
H1616 H 0.95939 0.59185 0.48027 0.0
H1617 H 0.933 0.61911 0.49413 0.0
H1618 H 0.06498 0.66013 0.60636 0.0
H1619 H 0.04059 0.69032 0.61832 0.0
H1620 H 0.08494 0.64438 0.56174 0.0
H1621 H 0.07232 0.61359 0.52738 0.0
C1622 C 0.62101 0.77933 0.81661 0.0
C1623 C 0.61826 0.76447 0.84729 0.0
C1624 C 0.669 0.74215 0.83858 0.0
C1625 C 0.67333 0.75976 0.8094 0.0
N1626 N 0.65491 0.79665 0.77129 0.0
N1627 N 0.63983 0.73339 0.88884 0.0
C1628 C 0.64963 0.77867 0.79855 0.0
C1629 C 0.64227 0.74619 0.85856 0.0
N1630 N 0.59611 0.79389 0.80467 0.0
N1631 N 0.69047 0.72154 0.84726 0.0
H1632 H 0.61979 0.73416 0.90329 0.0
H1633 H 0.65827 0.72365 0.9007 0.0
H1634 H 0.71123 0.71915 0.83451 0.0
H1635 H 0.68692 0.70495 0.86594 0.0
H1636 H 0.59472 0.80182 0.78094 0.0
H1637 H 0.57548 0.79615 0.8178 0.0
H1638 H 0.64099 0.81454 0.76428 0.0
H1639 H 0.67439 0.7949 0.75627 0.0
C1640 C 0.44565 0.56578 0.62951 0.0
C1641 C 0.4489 0.54421 0.65525 0.0
C1642 C 0.49943 0.53054 0.63249 0.0
C1643 C 0.49525 0.55045 0.60561 0.0
N1644 N 0.46372 0.58539 0.57693 0.0
N1645 N 0.4756 0.50175 0.67874 0.0
C1646 C 0.46815 0.56765 0.60371 0.0
C1647 C 0.47495 0.52547 0.65607 0.0
N1648 N 0.42151 0.58515 0.63029 0.0
N1649 N 0.52724 0.51707 0.63589 0.0
H1650 H 0.4584 0.49761 0.69664 0.0
H1651 H 0.49149 0.48412 0.67824 0.0
H1652 H 0.5454 0.51958 0.61886 0.0
H1653 H 0.5336 0.50559 0.65673 0.0
H1654 H 0.4194 0.60405 0.61433 0.0
H1655 H 0.4043 0.5837 0.64834 0.0
H1656 H 0.44253 0.59465 0.57141 0.0
H1657 H 0.481 0.58961 0.55919 0.0
C1658 C 0.77996 0.23752 0.95488 0.0
C1659 C 0.79948 0.21137 0.95345 0.0
C1660 C 0.81125 0.22079 0.89615 0.0
C1661 C 0.7932 0.24838 0.89802 0.0
N1662 N 0.76589 0.28771 0.93086 0.0
N1663 N 0.83971 0.18366 0.92615 0.0
C1664 C 0.77907 0.2581 0.92789 0.0
C1665 C 0.81731 0.20504 0.92528 0.0
N1666 N 0.76213 0.24251 0.98193 0.0
N1667 N 0.8204 0.20761 0.86618 0.0
H1668 H 0.84413 0.17089 0.94681 0.0
H1669 H 0.85597 0.18119 0.90761 0.0
H1670 H 0.81462 0.21634 0.8436 0.0
H1671 H 0.83063 0.18523 0.86309 0.0
H1672 H 0.74434 0.258 0.98269 0.0
H1673 H 0.7639 0.22969 0.00318 0.0
H1674 H 0.75811 0.29815 0.95307 0.0
H1675 H 0.76542 0.30376 0.91176 0.0
C1676 C 0.07889 0.47029 0.12561 0.0
C1677 C 0.07915 0.49328 0.15498 0.0
C1678 C 0.03501 0.51786 0.13057 0.0
C1679 C 0.03429 0.49434 0.10156 0.0
N1680 N 0.0485 0.44188 0.07504 0.0
N1681 N 0.0506 0.53046 0.1892 0.0
C1682 C 0.05389 0.46839 0.10032 0.0
C1683 C 0.0551 0.51453 0.15864 0.0
N1684 N 0.10352 0.452 0.12084 0.0
N1685 N 0.01741 0.54412 0.13103 0.0
H1686 H 0.06374 0.52719 0.21073 0.0
H1687 H 0.03142 0.54359 0.19383 0.0
H1688 H 1.00162 0.54697 0.1113 0.0
H1689 H 0.02032 0.5646 0.15005 0.0
H1690 H 0.10632 0.43787 0.09833 0.0
H1691 H 0.12285 0.45332 0.13833 0.0
H1692 H 0.05963 0.4201 0.07473 0.0
H1693 H 0.03064 0.44027 0.05595 0.0
C1694 C 0.78224 0.80559 0.43364 0.0
C1695 C 0.78542 0.84229 0.44227 0.0
C1696 C 0.79279 0.85191 0.38353 0.0
C1697 C 0.79104 0.81546 0.37531 0.0
N1698 N 0.79235 0.75894 0.39358 0.0
N1699 N 0.80224 0.90084 0.42663 0.0
C1700 C 0.78841 0.79273 0.40075 0.0
C1701 C 0.79314 0.86561 0.41753 0.0
N1702 N 0.77157 0.78279 0.4562 0.0
N1703 N 0.79339 0.87343 0.35878 0.0
H1704 H 0.80386 0.91196 0.45123 0.0
H1705 H 0.81144 0.91871 0.41025 0.0
H1706 H 0.79444 0.86462 0.33377 0.0
H1707 H 0.79069 0.89946 0.3628 0.0
H1708 H 0.76538 0.75576 0.4502 0.0
H1709 H 0.76595 0.79094 0.48018 0.0
H1710 H 0.79368 0.74185 0.41158 0.0
H1711 H 0.79767 0.74914 0.36996 0.0
C1712 C 0.4401 0.54511 0.85065 0.0
C1713 C 0.43307 0.51742 0.82457 0.0
C1714 C 0.45843 0.47975 0.85877 0.0
C1715 C 0.46348 0.50676 0.88551 0.0
N1716 N 0.45186 0.56178 0.90961 0.0
N1717 N 0.42982 0.45624 0.80574 0.0
C1718 C 0.45223 0.5385 0.88222 0.0
C1719 C 0.44067 0.48409 0.82913 0.0
N1720 N 0.43647 0.57816 0.84495 0.0
N1721 N 0.47157 0.45049 0.86125 0.0
H1722 H 0.41642 0.45821 0.78395 0.0
H1723 H 0.43155 0.43056 0.80918 0.0
H1724 H 0.4842 0.44623 0.88276 0.0
H1725 H 0.47203 0.4317 0.8413 0.0
H1726 H 0.44473 0.60015 0.86191 0.0
H1727 H 0.42803 0.58427 0.82205 0.0
H1728 H 0.44095 0.58367 0.90935 0.0
H1729 H 0.45926 0.5573 0.93344 0.0
C1730 C 0.77846 0.24096 0.12103 0.0
C1731 C 0.8063 0.22572 0.11497 0.0
C1732 C 0.83718 0.26445 0.16125 0.0
C1733 C 0.80765 0.27459 0.1712 0.0
N1734 N 0.752 0.27836 0.15809 0.0
N1735 N 0.86191 0.22153 0.12931 0.0
C1736 C 0.77883 0.26465 0.15013 0.0
C1737 C 0.83578 0.2375 0.13471 0.0
N1738 N 0.75219 0.2335 0.09842 0.0
N1739 N 0.86658 0.2805 0.17677 0.0
H1740 H 0.86181 0.20156 0.11023 0.0
H1741 H 0.88287 0.22604 0.14514 0.0
H1742 H 0.86932 0.30045 0.19613 0.0
H1743 H 0.88895 0.2766 0.16823 0.0
H1744 H 0.73185 0.24526 0.09995 0.0
H1745 H 0.75153 0.21695 0.07649 0.0
H1746 H 0.72881 0.26967 0.14653 0.0
H1747 H 0.75326 0.29894 0.17686 0.0
C1748 C 0.08541 0.46937 0.33757 0.0
C1749 C 0.08396 0.49414 0.31443 0.0
C1750 C 0.04759 0.52251 0.34882 0.0
C1751 C 0.0508 0.49928 0.37304 0.0
N1752 N 0.06427 0.4446 0.38677 0.0
N1753 N 0.05744 0.53776 0.29294 0.0
C1754 C 0.06665 0.47048 0.36605 0.0
C1755 C 0.06296 0.51865 0.31846 0.0
N1756 N 0.10639 0.44645 0.33352 0.0
N1757 N 0.03038 0.54871 0.35535 0.0
H1758 H 0.06831 0.53526 0.27032 0.0
H1759 H 0.04024 0.55391 0.29292 0.0
H1760 H 0.01631 0.55017 0.37599 0.0
H1761 H 0.03056 0.56943 0.34098 0.0
H1762 H 0.11171 0.43074 0.35155 0.0
H1763 H 0.12023 0.44459 0.31279 0.0
H1764 H 0.07241 0.42122 0.38112 0.0
H1765 H 0.05146 0.44482 0.40827 0.0
C1766 C 0.78683 0.836 0.64801 0.0
C1767 C 0.76036 0.83228 0.62411 0.0
C1768 C 0.72589 0.79523 0.66052 0.0
C1769 C 0.75244 0.80045 0.68505 0.0
N1770 N 0.80151 0.84128 0.70637 0.0
N1771 N 0.70247 0.8141 0.61085 0.0
C1772 C 0.78105 0.82525 0.68009 0.0
C1773 C 0.72925 0.81322 0.63111 0.0
N1774 N 0.81789 0.84928 0.64012 0.0
N1775 N 0.69691 0.77427 0.6658 0.0
H1776 H 0.70371 0.82755 0.58979 0.0
H1777 H 0.67859 0.80406 0.61626 0.0
H1778 H 0.69098 0.76657 0.68906 0.0
H1779 H 0.67867 0.76472 0.64712 0.0
H1780 H 0.8383 0.84945 0.65592 0.0
H1781 H 0.82357 0.85628 0.61653 0.0
H1782 H 0.82176 0.86087 0.70404 0.0
H1783 H 0.79478 0.84 0.73065 0.0
C1784 C 0.69678 0.48776 0.55168 0.0
C1785 C 0.70633 0.4825 0.51859 0.0
C1786 C 0.67493 0.52577 0.50215 0.0
C1787 C 0.66036 0.52536 0.53306 0.0
N1788 N 0.6569 0.50632 0.58781 0.0
N1789 N 0.70354 0.49539 0.46147 0.0
C1790 C 0.67162 0.50706 0.55831 0.0
C1791 C 0.69571 0.50175 0.49365 0.0
N1792 N 0.71212 0.47475 0.57677 0.0
N1793 N 0.66835 0.549 0.48088 0.0
H1794 H 0.71822 0.47756 0.45399 0.0
H1795 H 0.69342 0.50573 0.44165 0.0
H1796 H 0.65368 0.56724 0.48732 0.0
H1797 H 0.6799 0.55266 0.45883 0.0
H1798 H 0.70831 0.48041 0.6018 0.0
H1799 H 0.73104 0.46101 0.57283 0.0
H1800 H 0.66089 0.48965 0.60548 0.0
H1801 H 0.63942 0.52138 0.59398 0.0
C1802 C 0.15054 0.0881 0.46716 0.0
C1803 C 0.17453 0.08723 0.4927 0.0
C1804 C 0.13633 0.04222 0.51739 0.0
C1805 C 0.11143 0.04565 0.49383 0.0
N1806 N 0.09347 0.07359 0.44759 0.0
N1807 N 0.18994 0.06644 0.54412 0.0
C1808 C 0.11821 0.06891 0.4689 0.0
C1809 C 0.16743 0.0649 0.51826 0.0
N1810 N 0.159 0.10647 0.4407 0.0
N1811 N 0.1304 0.01674 0.53848 0.0
H1812 H 0.21316 0.08217 0.54541 0.0
H1813 H 0.18495 0.05409 0.5655 0.0
H1814 H 0.10784 0.99988 0.53851 0.0
H1815 H 0.14837 0.01034 0.55402 0.0
H1816 H 0.1438 0.10522 0.41943 0.0
H1817 H 0.1824 0.12094 0.43872 0.0
H1818 H 0.09579 0.09329 0.43179 0.0
H1819 H 0.06965 0.05946 0.44723 0.0
C1820 C 0.20962 0.91223 0.75267 0.0
C1821 C 0.20378 0.92601 0.78518 0.0
C1822 C 0.23557 0.88604 0.80888 0.0
C1823 C 0.23772 0.86924 0.77645 0.0
N1824 N 0.22562 0.86526 0.71732 0.0
N1825 N 0.20785 0.92342 0.8444 0.0
C1826 C 0.22432 0.88204 0.74833 0.0
C1827 C 0.21623 0.91251 0.81335 0.0
N1828 N 0.20273 0.92914 0.72597 0.0
N1829 N 0.25159 0.87652 0.83561 0.0
H1830 H 0.19262 0.94151 0.84872 0.0
H1831 H 0.21357 0.91252 0.8658 0.0
H1832 H 0.26399 0.85571 0.83427 0.0
H1833 H 0.25462 0.89083 0.85894 0.0
H1834 H 0.20955 0.92272 0.70206 0.0
H1835 H 0.19295 0.95189 0.7281 0.0
H1836 H 0.21244 0.87005 0.69643 0.0
H1837 H 0.23876 0.84524 0.71264 0.0
C1838 C 0.36984 0.98598 0.01308 0.0
C1839 C 0.35966 0.95528 0.99081 0.0
C1840 C 0.41595 0.95628 0.97564 0.0
C1841 C 0.42613 0.98817 0.99676 0.0
N1842 N 0.41132 0.03728 0.02974 0.0
N1843 N 0.3709 0.91538 0.94566 0.0
C1844 C 0.40262 0.00421 0.01369 0.0
C1845 C 0.38209 0.9418 0.97038 0.0
N1846 N 0.34868 0.99679 0.03495 0.0
N1847 N 0.43848 0.93851 0.96227 0.0
H1848 H 0.34617 0.90423 0.94121 0.0
H1849 H 0.3856 0.90687 0.92764 0.0
H1850 H 0.46361 0.94728 0.96585 0.0
H1851 H 0.4324 0.91324 0.95011 0.0
H1852 H 0.35594 0.01627 0.05465 0.0
H1853 H 0.32427 0.98452 0.03519 0.0
H1854 H 0.39448 0.05183 0.03895 0.0
H1855 H 0.43505 0.05157 0.03134 0.0
C1856 C 0.83388 0.61443 0.73077 0.0
C1857 C 0.84029 0.6039 0.76263 0.0
C1858 C 0.78818 0.61747 0.78055 0.0
C1859 C 0.78449 0.63251 0.75053 0.0
N1860 N 0.79372 0.62913 0.6923 0.0
N1861 N 0.82226 0.5911 0.81682 0.0
C1862 C 0.80417 0.62583 0.724 0.0
C1863 C 0.81685 0.60382 0.7872 0.0
N1864 N 0.85698 0.61559 0.70769 0.0
N1865 N 0.76342 0.6152 0.80179 0.0
H1866 H 0.84167 0.57856 0.82159 0.0
H1867 H 0.80811 0.59346 0.83716 0.0
H1868 H 0.74126 0.62239 0.79552 0.0
H1869 H 0.76328 0.60359 0.82384 0.0
H1870 H 0.85518 0.62685 0.68557 0.0
H1871 H 0.87932 0.60797 0.71177 0.0
H1872 H 0.80584 0.6223 0.67142 0.0
H1873 H 0.77053 0.63422 0.68675 0.0
C1874 C 0.87104 0.61524 0.03598 0.0
C1875 C 0.84617 0.60254 0.01041 0.0
C1876 C 0.87368 0.55373 0.9934 0.0
C1877 C 0.89998 0.56829 0.01689 0.0
N1878 N 0.926 0.61522 0.0579 0.0
N1879 N 0.82687 0.56362 0.96078 0.0
C1880 C 0.8994 0.59985 0.03727 0.0
C1881 C 0.84821 0.5727 0.98812 0.0
N1882 N 0.86681 0.64069 0.06016 0.0
N1883 N 0.87307 0.52181 0.97601 0.0
H1884 H 0.80862 0.57753 0.95535 0.0
H1885 H 0.82917 0.5445 0.94174 0.0
H1886 H 0.89181 0.50773 0.9783 0.0
H1887 H 0.8529 0.50802 0.96125 0.0
H1888 H 0.88234 0.64832 0.08142 0.0
H1889 H 0.84612 0.65208 0.06068 0.0
H1890 H 0.92876 0.64039 0.07014 0.0
H1891 H 0.94637 0.60373 0.06127 0.0
C1892 C 0.22798 0.11774 0.76755 0.0
C1893 C 0.21266 0.11008 0.79738 0.0
C1894 C 0.2339 0.17062 0.82182 0.0
C1895 C 0.25108 0.17717 0.79286 0.0
N1896 N 0.27156 0.15417 0.74223 0.0
N1897 N 0.20565 0.12725 0.85509 0.0
C1898 C 0.25027 0.14988 0.76695 0.0
C1899 C 0.2168 0.13602 0.82516 0.0
N1900 N 0.21992 0.09529 0.73915 0.0
N1901 N 0.23344 0.19755 0.84586 0.0
H1902 H 0.19367 0.10209 0.85868 0.0
H1903 H 0.21076 0.14397 0.87705 0.0
H1904 H 0.24687 0.22274 0.8449 0.0
H1905 H 0.21822 0.19553 0.86561 0.0
H1906 H 0.22797 0.10137 0.71602 0.0
H1907 H 0.20244 0.07226 0.73782 0.0
H1908 H 0.27434 0.1338 0.72465 0.0
H1909 H 0.28861 0.17718 0.7411 0.0
C1910 C 0.37803 0.93128 0.30798 0.0
C1911 C 0.36606 0.95769 0.29252 0.0
C1912 C 0.31524 0.91672 0.27393 0.0
C1913 C 0.32686 0.89032 0.29015 0.0
N1914 N 0.36642 0.87487 0.32896 0.0
N1915 N 0.32158 0.97846 0.2662 0.0
C1916 C 0.3572 0.89839 0.30936 0.0
C1917 C 0.33404 0.95134 0.27728 0.0
N1918 N 0.40986 0.93708 0.32021 0.0
N1919 N 0.28646 0.90858 0.25496 0.0
H1920 H 0.33502 0.00392 0.26727 0.0
H1921 H 0.29724 0.97647 0.25817 0.0
H1922 H 0.27087 0.88426 0.25367 0.0
H1923 H 0.27866 0.92526 0.23915 0.0
H1924 H 0.42127 0.9174 0.32788 0.0
H1925 H 0.4258 0.96108 0.32037 0.0
H1926 H 0.38538 0.88175 0.3473 0.0
H1927 H 0.35432 0.84906 0.32871 0.0
C1928 C 0.55706 0.37798 0.57231 0.0
C1929 C 0.54073 0.37369 0.60214 0.0
C1930 C 0.51275 0.42219 0.59256 0.0
C1931 C 0.53092 0.42815 0.56401 0.0
N1932 N 0.57187 0.41398 0.52753 0.0
N1933 N 0.50478 0.39229 0.64235 0.0
C1934 C 0.55346 0.40659 0.55407 0.0
C1935 C 0.519 0.39594 0.6127 0.0
N1936 N 0.57585 0.35448 0.56133 0.0
N1937 N 0.48944 0.44158 0.60039 0.0
H1938 H 0.50723 0.37213 0.65679 0.0
H1939 H 0.49198 0.41014 0.65376 0.0
H1940 H 0.48524 0.46232 0.58756 0.0
H1941 H 0.47279 0.43611 0.61849 0.0
H1942 H 0.58543 0.35353 0.53802 0.0
H1943 H 0.58053 0.33439 0.57489 0.0
H1944 H 0.59161 0.40235 0.52136 0.0
H1945 H 0.56838 0.43319 0.51228 0.0
C1946 C 0.41415 0.78791 0.31778 0.0
C1947 C 0.42085 0.7546 0.32347 0.0
C1948 C 0.37119 0.72627 0.28954 0.0
C1949 C 0.3663 0.75974 0.28204 0.0
N1950 N 0.38938 0.82078 0.27988 0.0
N1951 N 0.40921 0.69183 0.30961 0.0
C1952 C 0.38973 0.79008 0.29332 0.0
C1953 C 0.40033 0.72359 0.30792 0.0
N1954 N 0.42966 0.81743 0.33709 0.0
N1955 N 0.34769 0.69727 0.28003 0.0
H1956 H 0.43064 0.68892 0.32225 0.0
H1957 H 0.39688 0.66881 0.29606 0.0
H1958 H 0.32675 0.69807 0.26543 0.0
H1959 H 0.348 0.67288 0.28828 0.0
H1960 H 0.42389 0.84202 0.33529 0.0
H1961 H 0.44533 0.81668 0.35758 0.0
H1962 H 0.40799 0.84274 0.28505 0.0
H1963 H 0.37246 0.82305 0.26092 0.0
C1964 C 0.06632 0.66499 0.1165 0.0
C1965 C 0.05914 0.69356 0.10025 0.0
C1966 C 0.0465 0.65557 0.04766 0.0
C1967 C 0.05402 0.62706 0.06378 0.0
N1968 N 0.07628 0.60545 0.11182 0.0
N1969 N 0.04792 0.71814 0.0496 0.0
C1970 C 0.06582 0.63213 0.09763 0.0
C1971 C 0.05122 0.68954 0.0655 0.0
N1972 N 0.0727 0.66906 0.15021 0.0
N1973 N 0.03366 0.64983 0.01554 0.0
H1974 H 0.04939 0.7431 0.06197 0.0
H1975 H 0.04589 0.71781 0.02387 0.0
H1976 H 0.03128 0.62577 1.00119 0.0
H1977 H 0.02368 0.66815 0.00357 0.0
H1978 H 0.07412 0.64845 0.16432 0.0
H1979 H 0.07483 0.69305 0.16463 0.0
H1980 H 0.08829 0.60837 0.13523 0.0
H1981 H 0.07504 0.5806 0.09935 0.0
C1982 C 0.10954 0.24572 0.84767 0.0
C1983 C 0.08357 0.25964 0.83395 0.0
C1984 C 0.11464 0.27229 0.78495 0.0
C1985 C 0.14186 0.26194 0.80047 0.0
N1986 N 0.16759 0.24682 0.85028 0.0
N1987 N 0.06302 0.29127 0.79203 0.0
C1988 C 0.14 0.25075 0.83282 0.0
C1989 C 0.08647 0.27425 0.80318 0.0
N1990 N 0.10486 0.22657 0.87422 0.0
N1991 N 0.11532 0.27923 0.75252 0.0
H1992 H 0.04228 0.29372 0.80489 0.0
H1993 H 0.06549 0.30564 0.77161 0.0
H1994 H 0.13547 0.27783 0.73838 0.0
H1995 H 0.09498 0.28331 0.7388 0.0
H1996 H 0.12196 0.21272 0.88288 0.0
H1997 H 0.08266 0.22146 0.88545 0.0
H1998 H 0.16796 0.24225 0.8752 0.0
H1999 H 0.19083 0.25193 0.84125 0.0
C2000 C 0.54079 0.658 0.94176 0.0
C2001 C 0.53139 0.68799 0.95805 0.0
C2002 C 0.51571 0.65549 0.00604 0.0
C2003 C 0.5264 0.626 0.9902 0.0
N2004 N 0.5563 0.60211 0.94683 0.0
N2005 N 0.51407 0.71756 0.00724 0.0
C2006 C 0.54086 0.62809 0.95908 0.0
C2007 C 0.52028 0.68748 0.9908 0.0
N2008 N 0.54965 0.65799 0.90959 0.0
N2009 N 0.49996 0.65243 0.03485 0.0
H2010 H 0.51572 0.7409 0.99631 0.0
H2011 H 0.50924 0.7201 0.03227 0.0
H2012 H 0.49662 0.62954 0.04665 0.0
H2013 H 0.48838 0.67157 0.04596 0.0
H2014 H 0.55232 0.63544 0.89487 0.0
H2015 H 0.55238 0.6801 0.89668 0.0
H2016 H 0.5704 0.60374 0.92622 0.0
H2017 H 0.55783 0.58036 0.95931 0.0
C2018 C 0.08087 0.74871 0.71737 0.0
C2019 C 0.07836 0.74928 0.68237 0.0
C2020 C 0.13184 0.73228 0.67816 0.0
C2021 C 0.13637 0.73662 0.71326 0.0
N2022 N 0.11655 0.75189 0.76682 0.0
N2023 N 0.102 0.74353 0.62911 0.0
C2024 C 0.11106 0.74509 0.73311 0.0
C2025 C 0.10401 0.74158 0.66265 0.0
N2026 N 0.05455 0.75202 0.7356 0.0
N2027 N 0.15375 0.71806 0.65971 0.0
H2028 H 0.0814 0.74839 0.61635 0.0
H2029 H 0.12151 0.74244 0.61407 0.0
H2030 H 0.17366 0.70982 0.67058 0.0
H2031 H 0.15043 0.71096 0.63418 0.0
H2032 H 0.05357 0.74779 0.76057 0.0
H2033 H 0.03268 0.75669 0.72526 0.0
H2034 H 0.10071 0.7625 0.78223 0.0
H2035 H 0.13804 0.74915 0.77939 0.0
C2036 C 0.02696 0.37604 0.48439 0.0
C2037 C 0.05422 0.37506 0.46457 0.0
C2038 C 0.07718 0.43632 0.48492 0.0
C2039 C 0.04886 0.43814 0.50277 0.0
N2040 N 0.99512 0.4113 0.51716 0.0
N2041 N 0.10346 0.40487 0.44271 0.0
C2042 C 0.0234 0.40831 0.50211 0.0
C2043 C 0.07868 0.40547 0.46371 0.0
N2044 N 0.00421 0.34616 0.48596 0.0
N2045 N 0.10354 0.46325 0.48992 0.0
H2046 H 0.10676 0.38222 0.42848 0.0
H2047 H 0.11957 0.42726 0.43771 0.0
H2048 H 0.1039 0.48527 0.50668 0.0
H2049 H 0.12613 0.46235 0.48027 0.0
H2050 H 0.98629 0.34375 0.50317 0.0
H2051 H 0.00394 0.32283 0.47103 0.0
H2052 H 0.97417 0.39187 0.51471 0.0
H2053 H 0.99133 0.43449 0.53002 0.0
C2054 C 0.40407 0.24675 0.19077 0.0
C2055 C 0.43145 0.27455 0.19676 0.0
C2056 C 0.40516 0.29775 0.24499 0.0
C2057 C 0.37567 0.27379 0.23477 0.0
N2058 N 0.34557 0.23334 0.18974 0.0
N2059 N 0.45486 0.33106 0.22669 0.0
C2060 C 0.37461 0.25035 0.20541 0.0
C2061 C 0.43131 0.30134 0.22321 0.0
N2062 N 0.40613 0.2164 0.17188 0.0
N2063 N 0.40861 0.31646 0.27559 0.0
H2064 H 0.47331 0.33604 0.21027 0.0
H2065 H 0.45386 0.3525 0.2438 0.0
H2066 H 0.39057 0.31333 0.29272 0.0
H2067 H 0.43069 0.33203 0.2852 0.0
H2068 H 0.38705 0.19469 0.1691 0.0
H2069 H 0.42798 0.21129 0.16281 0.0
H2070 H 0.3443 0.21797 0.16701 0.0
H2071 H 0.32298 0.23841 0.19656 0.0
C2072 C 0.58834 0.46943 0.39305 0.0
C2073 C 0.60158 0.50195 0.38122 0.0
C2074 C 0.58383 0.53265 0.43062 0.0
C2075 C 0.56498 0.50091 0.43952 0.0
N2076 N 0.55209 0.43769 0.43002 0.0
N2077 N 0.60433 0.56454 0.38536 0.0
C2078 C 0.56786 0.46885 0.42076 0.0
C2079 C 0.59689 0.5335 0.39891 0.0
N2080 N 0.59676 0.43933 0.37907 0.0
N2081 N 0.59202 0.56145 0.45317 0.0
H2082 H 0.61274 0.56639 0.36157 0.0
H2083 H 0.59845 0.58768 0.39628 0.0
H2084 H 0.59042 0.55954 0.47838 0.0
H2085 H 0.60675 0.58472 0.44797 0.0
H2086 H 0.59087 0.41529 0.38862 0.0
H2087 H 0.6121 0.43886 0.35942 0.0
H2088 H 0.54907 0.41407 0.41489 0.0
H2089 H 0.5418 0.43545 0.4529 0.0
C2090 C 0.23738 0.83289 0.09818 0.0
C2091 C 0.26505 0.84026 0.07898 0.0
C2092 C 0.29858 0.8186 0.11998 0.0
C2093 C 0.27059 0.80951 0.13841 0.0
N2094 N 0.21193 0.79978 0.14097 0.0
N2095 N 0.31886 0.83057 0.06638 0.0
C2096 C 0.23948 0.81406 0.12621 0.0
C2097 C 0.29466 0.82999 0.08821 0.0
N2098 N 0.20974 0.84541 0.09086 0.0
N2099 N 0.32919 0.81884 0.13352 0.0
H2100 H 0.31645 0.83787 0.04242 0.0
H2101 H 0.33971 0.82018 0.07072 0.0
H2102 H 0.33373 0.81237 0.15739 0.0
H2103 H 0.35044 0.82901 0.12232 0.0
H2104 H 0.19034 0.84429 0.10637 0.0
H2105 H 0.20713 0.85948 0.07066 0.0
H2106 H 0.18838 0.7995 0.13124 0.0
H2107 H 0.2125 0.78503 0.16106 0.0
C2108 C 0.00382 0.58793 0.88579 0.0
C2109 C 0.97771 0.56163 0.8711 0.0
C2110 C 0.97664 0.53207 0.9213 0.0
C2111 C 0.00678 0.55381 0.93381 0.0
N2112 N 0.04738 0.60591 0.92898 0.0
N2113 N 0.94327 0.50477 0.87264 0.0
C2114 C 0.01995 0.58284 0.91631 0.0
C2115 C 0.96565 0.53236 0.888 0.0
N2116 N 0.01283 0.61785 0.87078 0.0
N2117 N 0.9567 0.51326 0.94162 0.0
H2118 H 0.93363 0.50388 0.8484 0.0
H2119 H 0.93669 0.48125 0.88309 0.0
H2120 H 0.9603 0.51737 0.96716 0.0
H2121 H 0.93362 0.49877 0.93377 0.0
H2122 H 0.02927 0.63978 0.88169 0.0
H2123 H 1.00224 0.62157 0.84794 0.0
H2124 H 0.06086 0.62423 0.91537 0.0
H2125 H 0.05685 0.60684 0.95328 0.0
C2126 C 0.24314 0.17925 0.61894 0.0
C2127 C 0.26109 0.19991 0.59631 0.0
C2128 C 0.27062 0.25027 0.63902 0.0
C2129 C 0.25797 0.22816 0.66309 0.0
N2130 N 0.23268 0.17081 0.67636 0.0
N2131 N 0.29552 0.2544 0.58626 0.0
C2132 C 0.24417 0.19243 0.65314 0.0
C2133 C 0.27569 0.23533 0.60667 0.0
N2134 N 0.22389 0.14772 0.60748 0.0
N2135 N 0.27616 0.28575 0.64658 0.0
H2136 H 0.30045 0.24435 0.56262 0.0
H2137 H 0.30945 0.27911 0.59402 0.0
H2138 H 0.26979 0.29728 0.66905 0.0
H2139 H 0.28294 0.30344 0.62926 0.0
H2140 H 0.20774 0.13303 0.62205 0.0
H2141 H 0.22144 0.13789 0.58246 0.0
H2142 H 0.22614 0.1437 0.67131 0.0
H2143 H 0.23149 0.17977 0.70127 0.0
C2144 C 0.58094 0.51026 0.19508 0.0
C2145 C 0.61312 0.52754 0.20608 0.0
C2146 C 0.6172 0.55874 0.15597 0.0
C2147 C 0.58437 0.54312 0.14614 0.0
N2148 N 0.53302 0.50836 0.15847 0.0
N2149 N 0.65951 0.57358 0.20059 0.0
C2150 C 0.5656 0.52036 0.16649 0.0
C2151 C 0.63068 0.55325 0.18749 0.0
N2152 N 0.56568 0.48285 0.21087 0.0
N2153 N 0.63571 0.57831 0.13489 0.0
H2154 H 0.66994 0.57103 0.22382 0.0
H2155 H 0.67166 0.59513 0.18985 0.0
H2156 H 0.62616 0.58416 0.11234 0.0
H2157 H 0.66087 0.58687 0.13873 0.0
H2158 H 0.54374 0.46663 0.20191 0.0
H2159 H 0.57635 0.47413 0.23141 0.0
H2160 H 0.51722 0.49484 0.17412 0.0
H2161 H 0.52106 0.51439 0.13731 0.0
C2162 C 0.26838 0.80045 0.91422 0.0
C2163 C 0.24692 0.82472 0.91703 0.0
C2164 C 0.21891 0.79888 0.86363 0.0
C2165 C 0.24366 0.77863 0.8586 0.0
N2166 N 0.29182 0.75946 0.87824 0.0
N2167 N 0.20217 0.84822 0.8946 0.0
C2168 C 0.26819 0.77896 0.88381 0.0
C2169 C 0.22178 0.82377 0.89214 0.0
N2170 N 0.28819 0.79728 0.94105 0.0
N2171 N 0.19305 0.79485 0.8408 0.0
H2172 H 0.20373 0.86724 0.91479 0.0
H2173 H 0.18584 0.85157 0.87563 0.0
H2174 H 0.19077 0.77834 0.81871 0.0
H2175 H 0.17244 0.80579 0.84468 0.0
H2176 H 0.30232 0.77801 0.94166 0.0
H2177 H 0.28821 0.8119 0.96402 0.0
H2178 H 0.31284 0.76191 0.89371 0.0
H2179 H 0.29112 0.74181 0.85704 0.0
C2180 C 0.97504 0.59777 0.68179 0.0
C2181 C 0.98461 0.5817 0.70954 0.0
C2182 C 0.02453 0.55644 0.6775 0.0
C2183 C 0.01287 0.56966 0.64892 0.0
N2184 N 0.98317 0.60944 0.62462 0.0
N2185 N 0.02442 0.55578 0.73745 0.0
C2186 C 0.99047 0.59295 0.65146 0.0
C2187 C 0.01152 0.5644 0.70852 0.0
N2188 N 0.94958 0.61527 0.68374 0.0
N2189 N 0.04726 0.53541 0.67463 0.0
H2190 H 0.01542 0.56214 0.76048 0.0
H2191 H 0.04554 0.54535 0.7392 0.0
H2192 H 0.05876 0.53097 0.65264 0.0
H2193 H 0.05404 0.52146 0.69352 0.0
H2194 H 0.93836 0.62363 0.66341 0.0
H2195 H 0.93879 0.62062 0.70591 0.0
H2196 H 0.96999 0.62961 0.62576 0.0
H2197 H 0.99202 0.60454 0.60133 0.0
C2198 C 0.26129 0.23479 0.41158 0.0
C2199 C 0.27959 0.20789 0.41435 0.0
C2200 C 0.30342 0.22007 0.36084 0.0
C2201 C 0.28769 0.24936 0.35983 0.0
N2202 N 0.25195 0.28526 0.38495 0.0
N2203 N 0.32011 0.17636 0.39329 0.0
C2204 C 0.26697 0.25704 0.38559 0.0
C2205 C 0.30091 0.20063 0.3892 0.0
N2206 N 0.23686 0.23762 0.43264 0.0
N2207 N 0.32113 0.21101 0.33487 0.0
H2208 H 0.31905 0.16178 0.41361 0.0
H2209 H 0.33875 0.17227 0.37796 0.0
H2210 H 0.32596 0.22617 0.31524 0.0
H2211 H 0.32951 0.1875 0.33171 0.0
H2212 H 0.21984 0.25362 0.42963 0.0
H2213 H 0.23143 0.22143 0.45149 0.0
H2214 H 0.2408 0.29544 0.4052 0.0
H2215 H 0.25127 0.29942 0.36451 0.0
C2216 C 0.35928 0.54929 0.54073 0.0
C2217 C 0.35624 0.57127 0.51522 0.0
C2218 C 0.38522 0.53552 0.47854 0.0
C2219 C 0.3953 0.51987 0.50622 0.0
N2220 N 0.38651 0.50543 0.56202 0.0
N2221 N 0.36817 0.58661 0.45996 0.0
C2222 C 0.38037 0.5246 0.53681 0.0
C2223 C 0.36929 0.56446 0.48393 0.0
N2224 N 0.34105 0.55106 0.56794 0.0
N2225 N 0.39005 0.52219 0.44714 0.0
H2226 H 0.3577 0.60884 0.46315 0.0
H2227 H 0.38042 0.58476 0.43813 0.0
H2228 H 0.39861 0.49885 0.44255 0.0
H2229 H 0.38122 0.53126 0.42586 0.0
H2230 H 0.34009 0.53392 0.58617 0.0
H2231 H 0.32448 0.5679 0.57106 0.0
H2232 H 0.38085 0.51103 0.5865 0.0
H2233 H 0.39768 0.48371 0.55813 0.0
C2234 C 0.87566 0.98955 0.55715 0.0
C2235 C 0.86607 0.95678 0.53763 0.0
C2236 C 0.91725 0.96766 0.5091 0.0
C2237 C 0.92778 0.99985 0.52991 0.0
N2238 N 0.90974 0.04743 0.56168 0.0
N2239 N 0.87335 0.9193 0.48877 0.0
C2240 C 0.9048 0.01266 0.55039 0.0
C2241 C 0.88569 0.94706 0.51191 0.0
N2242 N 0.8575 0.99827 0.58285 0.0
N2243 N 0.93703 0.95687 0.48597 0.0
H2244 H 0.85028 0.90374 0.48958 0.0
H2245 H 0.88457 0.91329 0.46705 0.0
H2246 H 0.95576 0.97412 0.47696 0.0
H2247 H 0.93431 0.93113 0.47514 0.0
H2248 H 0.8652 0.0201 0.60014 0.0
H2249 H 0.83607 0.98206 0.58859 0.0
H2250 H 0.89263 0.05876 0.57464 0.0
H2251 H 0.92864 0.06574 0.55386 0.0
C2252 C 0.81123 0.1179 0.25611 0.0
C2253 C 0.84203 0.12038 0.2417 0.0
C2254 C 0.84209 0.18199 0.23391 0.0
C2255 C 0.81299 0.18063 0.2513 0.0
N2256 N 0.77128 0.14846 0.28179 0.0
N2257 N 0.88787 0.15502 0.21829 0.0
C2258 C 0.79769 0.14875 0.26283 0.0
C2259 C 0.85777 0.15255 0.23111 0.0
N2260 N 0.79507 0.08612 0.26372 0.0
N2261 N 0.85396 0.21101 0.21856 0.0
H2262 H 0.89878 0.13344 0.2125 0.0
H2263 H 0.90288 0.1787 0.21483 0.0
H2264 H 0.84304 0.23289 0.21947 0.0
H2265 H 0.873 0.21253 0.20266 0.0
H2266 H 0.77103 0.08156 0.27065 0.0
H2267 H 0.80498 0.06347 0.26119 0.0
H2268 H 0.76103 0.12731 0.29417 0.0
H2269 H 0.76088 0.17048 0.28722 0.0
C2270 C 0.68775 0.06798 0.01808 0.0
C2271 C 0.69956 0.10006 0.03796 0.0
C2272 C 0.64424 0.10316 0.05421 0.0
C2273 C 0.63238 0.07096 0.03407 0.0
N2274 N 0.64446 0.01699 0.00839 0.0
N2275 N 0.6913 0.14324 0.08175 0.0
C2276 C 0.65464 0.05162 0.01938 0.0
C2277 C 0.67846 0.11615 0.05817 0.0
N2278 N 0.70766 0.05377 0.99696 0.0
N2279 N 0.62306 0.12205 0.06861 0.0
H2280 H 0.71632 0.15308 0.0855 0.0
H2281 H 0.67765 0.15373 0.0997 0.0
H2282 H 0.59791 0.11334 0.06774 0.0
H2283 H 0.63018 0.14764 0.07978 0.0
H2284 H 0.69911 0.03248 0.97928 0.0
H2285 H 0.73218 0.06489 0.99517 0.0
H2286 H 0.66019 1.00076 0.99978 0.0
H2287 H 0.62111 0.00357 0.0122 0.0
C2288 C 0.23795 0.45514 0.27921 0.0
C2289 C 0.21958 0.44867 0.2481 0.0
C2290 C 0.25457 0.40848 0.22871 0.0
C2291 C 0.26617 0.40768 0.26183 0.0
N2292 N 0.26949 0.43107 0.31948 0.0
N2293 N 0.20892 0.41571 0.19357 0.0
C2294 C 0.25859 0.43171 0.28736 0.0
C2295 C 0.22781 0.42488 0.22258 0.0
N2296 N 0.23643 0.48407 0.30048 0.0
N2297 N 0.26894 0.39286 0.20329 0.0
H2298 H 0.18764 0.42504 0.18858 0.0
H2299 H 0.21253 0.39583 0.17583 0.0
H2300 H 0.28961 0.38218 0.20775 0.0
H2301 H 0.26299 0.39446 0.17831 0.0
H2302 H 0.25135 0.49138 0.32222 0.0
H2303 H 0.22314 0.50298 0.29449 0.0
H2304 H 0.26107 0.44494 0.33954 0.0
H2305 H 0.28584 0.41547 0.32621 0.0
C2306 C 0.20228 0.47402 0.01829 0.0
C2307 C 0.19696 0.4399 0.02913 0.0
C2308 C 0.13795 0.43933 0.02733 0.0
C2309 C 0.14364 0.475 0.02073 0.0
N2310 N 0.18217 0.52811 0.01519 0.0
N2311 N 0.16002 0.39318 0.05057 0.0
C2312 C 0.17608 0.49286 0.01759 0.0
C2313 C 0.16486 0.42342 0.0355 0.0
N2314 N 0.23189 0.48789 0.00712 0.0
N2315 N 0.10694 0.41993 0.02412 0.0
H2316 H 0.17908 0.38116 0.05787 0.0
H2317 H 0.13753 0.38211 0.05896 0.0
H2318 H 0.08671 0.42984 0.0163 0.0
H2319 H 0.10178 0.39298 0.02555 0.0
H2320 H 0.23608 0.51097 0.99571 0.0
H2321 H 0.2514 0.47467 0.00611 0.0
H2322 H 0.20566 0.5432 0.01655 0.0
H2323 H 0.1638 0.54288 0.01488 0.0
C2324 C 0.81042 0.91774 0.21293 0.0
C2325 C 0.83419 0.93608 0.2375 0.0
C2326 C 0.83083 0.88316 0.26637 0.0
C2327 C 0.80436 0.86565 0.24394 0.0
N2328 N 0.77803 0.86209 0.18914 0.0
N2329 N 0.86514 0.93773 0.28946 0.0
C2330 C 0.79659 0.88183 0.2153 0.0
C2331 C 0.84366 0.91925 0.26481 0.0
N2332 N 0.79991 0.93524 0.1882 0.0
N2333 N 0.84609 0.86482 0.28705 0.0
H2334 H 0.8777 0.96307 0.28797 0.0
H2335 H 0.86886 0.92885 0.31249 0.0
H2336 H 0.84204 0.83774 0.2848 0.0
H2337 H 0.86671 0.87568 0.30254 0.0
H2338 H 0.77986 0.92497 0.17176 0.0
H2339 H 0.80968 0.9614 0.18567 0.0
H2340 H 0.77396 0.8712 0.16633 0.0
H2341 H 0.76982 0.83519 0.18855 0.0
C2342 C 0.73233 0.11415 0.76284 0.0
C2343 C 0.70236 0.10522 0.74348 0.0
C2344 C 0.70544 0.16618 0.73295 0.0
C2345 C 0.73651 0.1751 0.75072 0.0
N2346 N 0.78226 0.15655 0.77748 0.0
N2347 N 0.66394 0.12022 0.70401 0.0
C2348 C 0.75079 0.14877 0.76421 0.0
C2349 C 0.69009 0.13048 0.72656 0.0
N2350 N 0.74251 0.08995 0.78097 0.0
N2351 N 0.68951 0.19177 0.724 0.0
H2352 H 0.65215 0.09414 0.69873 0.0
H2353 H 0.65603 0.1369 0.68823 0.0
H2354 H 0.69892 0.21843 0.72923 0.0
H2355 H 0.66542 0.18671 0.71426 0.0
H2356 H 0.76199 0.09607 0.79876 0.0
H2357 H 0.7301 0.06404 0.77991 0.0
H2358 H 0.79519 0.13769 0.78425 0.0
H2359 H 0.79656 0.18159 0.77927 0.0
loop_
_geom_bond_atom_site_label_1
_geom_bond_atom_site_label_2
_geom_bond_distance
_geom_bond_site_symmetry_2
_ccdc_geom_bond_type
In0 O1 2.294 . S
In0 O2 2.326 . S
In0 O6 2.266 1_455 S
In0 O7 2.326 1_455 S
In0 O8 2.266 . S
In0 O9 2.326 . S
In0 O11 2.294 . S
In0 O12 2.326 . S
O1 In0 2.294 . S
O1 C10 1.240 . S
O2 In0 2.326 . S
O2 C10 1.252 . S
C3 O6 1.252 . S
C3 O7 1.260 . S
C4 O11 1.240 . S
C4 O12 1.252 . S
C5 O8 1.252 . S
C5 O9 1.260 . S
O6 In0 2.266 1_655 S
O6 C3 1.252 . S
O7 In0 2.326 1_655 S
O7 C3 1.260 . S
O8 In0 2.266 . S
O8 C5 1.252 . S
O9 In0 2.326 . S
O9 C5 1.260 . S
C10 O1 1.240 . S
C10 O2 1.252 . S
O11 In0 2.294 . S
O11 C4 1.240 . S
O12 In0 2.326 . S
O12 C4 1.252 . S
In13 O14 2.294 . S
In13 O15 2.326 . S
In13 O19 2.265 1_455 S
In13 O20 2.326 . S
In13 O21 2.266 1_455 S
In13 O22 2.326 1_455 S
In13 O24 2.294 . S
In13 O25 2.326 . S
O14 In13 2.294 . S
O14 C23 1.240 . S
O15 In13 2.326 . S
O15 C23 1.252 . S
C16 O19 1.249 . S
C16 O20 1.260 1_655 S
C17 O24 1.240 . S
C17 O25 1.252 . S
C18 O21 1.252 . S
C18 O22 1.260 . S
O19 In13 2.265 1_655 S
O19 C16 1.249 . S
O20 In13 2.326 . S
O20 C16 1.260 1_455 S
O21 In13 2.266 1_655 S
O21 C18 1.252 . S
O22 In13 2.326 1_655 S
O22 C18 1.260 . S
C23 O14 1.240 . S
C23 O15 1.252 . S
O24 In13 2.294 . S
O24 C17 1.240 . S
O25 In13 2.326 . S
O25 C17 1.252 . S
In26 O27 2.294 . S
In26 O28 2.326 . S
In26 O32 2.266 . S
In26 O33 2.326 . S
In26 O34 2.266 . S
In26 O35 2.326 . S
In26 O37 2.294 . S
In26 O38 2.326 . S
O27 In26 2.294 . S
O27 C36 1.240 . S
O28 In26 2.326 . S
O28 C36 1.252 . S
C29 O32 1.252 . S
C29 O33 1.260 . S
C30 O37 1.240 . S
C30 O38 1.252 . S
C31 O34 1.252 . S
C31 O35 1.260 . S
O32 In26 2.266 . S
O32 C29 1.252 . S
O33 In26 2.326 . S
O33 C29 1.260 . S
O34 In26 2.266 . S
O34 C31 1.252 . S
O35 In26 2.326 . S
O35 C31 1.260 . S
C36 O27 1.240 . S
C36 O28 1.252 . S
O37 In26 2.294 . S
O37 C30 1.240 . S
O38 In26 2.326 . S
O38 C30 1.252 . S
In39 O40 2.294 . S
In39 O41 2.326 . S
In39 O45 2.266 . S
In39 O46 2.326 . S
In39 O47 2.266 . S
In39 O48 2.326 . S
In39 O50 2.294 . S
In39 O51 2.326 . S
O40 In39 2.294 . S
O40 C49 1.240 . S
O41 In39 2.326 . S
O41 C49 1.252 . S
C42 O45 1.252 . S
C42 O46 1.260 . S
C43 O50 1.240 . S
C43 O51 1.252 . S
C44 O47 1.252 . S
C44 O48 1.260 . S
O45 In39 2.266 . S
O45 C42 1.252 . S
O46 In39 2.326 . S
O46 C42 1.260 . S
O47 In39 2.266 . S
O47 C44 1.252 . S
O48 In39 2.326 . S
O48 C44 1.260 . S
C49 O40 1.240 . S
C49 O41 1.252 . S
O50 In39 2.294 . S
O50 C43 1.240 . S
O51 In39 2.326 . S
O51 C43 1.252 . S
In52 O53 2.294 . S
In52 O54 2.326 . S
In52 O58 2.266 . S
In52 O59 2.326 . S
In52 O60 2.266 . S
In52 O61 2.326 . S
In52 O63 2.294 . S
In52 O64 2.326 1_455 S
O53 In52 2.294 . S
O53 C62 1.240 . S
O54 In52 2.326 . S
O54 C62 1.252 . S
C55 O58 1.252 . S
C55 O59 1.260 . S
C56 O63 1.240 1_655 S
C56 O64 1.252 . S
C57 O60 1.252 . S
C57 O61 1.260 . S
O58 In52 2.266 . S
O58 C55 1.252 . S
O59 In52 2.326 . S
O59 C55 1.260 . S
O60 In52 2.266 . S
O60 C57 1.252 . S
O61 In52 2.326 . S
O61 C57 1.260 . S
C62 O53 1.240 . S
C62 O54 1.252 . S
O63 In52 2.294 . S
O63 C56 1.240 1_455 S
O64 In52 2.326 1_655 S
O64 C56 1.252 . S
In65 O66 2.294 . S
In65 O67 2.326 . S
In65 O71 2.266 . S
In65 O72 2.326 . S
In65 O73 2.266 . S
In65 O74 2.326 . S
In65 O76 2.294 . S
In65 O77 2.326 . S
O66 In65 2.294 . S
O66 C75 1.240 . S
O67 In65 2.326 . S
O67 C75 1.252 . S
C68 O71 1.252 . S
C68 O72 1.260 . S
C69 O76 1.240 . S
C69 O77 1.252 . S
C70 O73 1.252 . S
C70 O74 1.260 . S
O71 In65 2.266 . S
O71 C68 1.252 . S
O72 In65 2.326 . S
O72 C68 1.260 . S
O73 In65 2.266 . S
O73 C70 1.252 . S
O74 In65 2.326 . S
O74 C70 1.260 . S
C75 O66 1.240 . S
C75 O67 1.252 . S
O76 In65 2.294 . S
O76 C69 1.240 . S
O77 In65 2.326 . S
O77 C69 1.252 . S
In78 O79 2.294 . S
In78 O80 2.326 . S
In78 O84 2.266 . S
In78 O85 2.326 . S
In78 O86 2.266 . S
In78 O87 2.326 . S
In78 O89 2.294 . S
In78 O90 2.326 . S
O79 In78 2.294 . S
O79 C88 1.240 . S
O80 In78 2.326 . S
O80 C88 1.252 . S
C81 O84 1.252 . S
C81 O85 1.260 . S
C82 O89 1.240 . S
C82 O90 1.252 . S
C83 O86 1.252 . S
C83 O87 1.260 . S
O84 In78 2.266 . S
O84 C81 1.252 . S
O85 In78 2.326 . S
O85 C81 1.260 . S
O86 In78 2.266 . S
O86 C83 1.252 . S
O87 In78 2.326 . S
O87 C83 1.260 . S
C88 O79 1.240 . S
C88 O80 1.252 . S
O89 In78 2.294 . S
O89 C82 1.240 . S
O90 In78 2.326 . S
O90 C82 1.252 . S
In91 O92 2.294 . S
In91 O93 2.326 . S
In91 O97 2.266 . S
In91 O98 2.326 . S
In91 O99 2.266 1_455 S
In91 O100 2.326 1_455 S
In91 O102 2.294 . S
In91 O103 2.326 . S
O92 In91 2.294 . S
O92 C101 1.240 . S
O93 In91 2.326 . S
O93 C101 1.252 . S
C94 O97 1.252 . S
C94 O98 1.260 . S
C95 O102 1.240 . S
C95 O103 1.252 . S
C96 O99 1.252 . S
C96 O100 1.260 . S
O97 In91 2.266 . S
O97 C94 1.252 . S
O98 In91 2.326 . S
O98 C94 1.260 . S
O99 In91 2.266 1_655 S
O99 C96 1.252 . S
O100 In91 2.326 1_655 S
O100 C96 1.260 . S
C101 O92 1.240 . S
C101 O93 1.252 . S
O102 In91 2.294 . S
O102 C95 1.240 . S
O103 In91 2.326 . S
O103 C95 1.252 . S
In104 O105 2.294 . S
In104 O106 2.326 . S
In104 O110 2.266 . S
In104 O111 2.326 . S
In104 O112 2.266 1_545 S
In104 O113 2.326 1_545 S
In104 O115 2.294 . S
In104 O116 2.326 . S
O105 In104 2.294 . S
O105 C114 1.240 . S
O106 In104 2.326 . S
O106 C114 1.252 . S
C107 O110 1.252 . S
C107 O111 1.260 . S
C108 O115 1.240 . S
C108 O116 1.252 . S
C109 O112 1.252 . S
C109 O113 1.260 . S
O110 In104 2.266 . S
O110 C107 1.252 . S
O111 In104 2.326 . S
O111 C107 1.260 . S
O112 In104 2.266 1_565 S
O112 C109 1.252 . S
O113 In104 2.326 1_565 S
O113 C109 1.260 . S
C114 O105 1.240 . S
C114 O106 1.252 . S
O115 In104 2.294 . S
O115 C108 1.240 . S
O116 In104 2.326 . S
O116 C108 1.252 . S
In117 O118 2.294 . S
In117 O119 2.326 . S
In117 O123 2.266 . S
In117 O124 2.326 . S
In117 O125 2.266 . S
In117 O126 2.326 . S
In117 O128 2.294 . S
In117 O129 2.326 . S
O118 In117 2.294 . S
O118 C127 1.240 . S
O119 In117 2.326 . S
O119 C127 1.252 . S
C120 O123 1.252 . S
C120 O124 1.260 . S
C121 O128 1.240 . S
C121 O129 1.252 . S
C122 O125 1.252 . S
C122 O126 1.260 . S
O123 In117 2.266 . S
O123 C120 1.252 . S
O124 In117 2.326 . S
O124 C120 1.260 . S
O125 In117 2.266 . S
O125 C122 1.252 . S
O126 In117 2.326 . S
O126 C122 1.260 . S
C127 O118 1.240 . S
C127 O119 1.252 . S
O128 In117 2.294 . S
O128 C121 1.240 . S
O129 In117 2.326 . S
O129 C121 1.252 . S
In130 O131 2.293 1_545 S
In130 O132 2.325 1_545 S
In130 O136 2.271 . S
In130 O137 2.326 . S
In130 O138 2.286 . S
In130 O139 2.359 . S
In130 O141 2.271 1_545 S
In130 O142 2.293 1_545 S
O131 In130 2.293 1_565 S
O131 C140 1.240 . S
O132 In130 2.325 1_565 S
O132 C140 1.252 . S
C133 O136 1.252 . S
C133 O137 1.260 . S
C134 O141 1.240 . S
C134 O142 1.252 . S
C135 O138 1.252 . S
C135 O139 1.260 . S
O136 In130 2.271 . S
O136 C133 1.252 . S
O137 In130 2.326 . S
O137 C133 1.260 . S
O138 In130 2.286 . S
O138 C135 1.252 . S
O139 In130 2.359 . S
O139 C135 1.260 . S
C140 O131 1.240 . S
C140 O132 1.252 . S
O141 In130 2.271 1_565 S
O141 C134 1.240 . S
O142 In130 2.293 1_565 S
O142 C134 1.252 . S
In143 O144 2.294 . S
In143 O145 2.326 . S
In143 O149 2.266 1_554 S
In143 O150 2.326 1_554 S
In143 O151 2.266 . S
In143 O152 2.326 . S
In143 O154 2.294 . S
In143 O155 2.326 . S
O144 In143 2.294 . S
O144 C153 1.240 . S
O145 In143 2.326 . S
O145 C153 1.252 . S
C146 O149 1.252 . S
C146 O150 1.260 . S
C147 O154 1.240 . S
C147 O155 1.252 . S
C148 O151 1.252 . S
C148 O152 1.260 . S
O149 In143 2.266 1_556 S
O149 C146 1.252 . S
O150 In143 2.326 1_556 S
O150 C146 1.260 . S
O151 In143 2.266 . S
O151 C148 1.252 . S
O152 In143 2.326 . S
O152 C148 1.260 . S
C153 O144 1.240 . S
C153 O145 1.252 . S
O154 In143 2.294 . S
O154 C147 1.240 . S
O155 In143 2.326 . S
O155 C147 1.252 . S
In156 O157 2.294 . S
In156 O158 2.326 . S
In156 O162 2.266 1_554 S
In156 O163 2.326 1_554 S
In156 O164 2.266 . S
In156 O165 2.326 . S
In156 O167 2.294 . S
In156 O168 2.326 . S
O157 In156 2.294 . S
O157 C166 1.240 . S
O158 In156 2.326 . S
O158 C166 1.252 . S
C159 O162 1.252 . S
C159 O163 1.260 . S
C160 O167 1.240 . S
C160 O168 1.252 . S
C161 O164 1.252 . S
C161 O165 1.260 . S
O162 In156 2.266 1_556 S
O162 C159 1.252 . S
O163 In156 2.326 1_556 S
O163 C159 1.260 . S
O164 In156 2.266 . S
O164 C161 1.252 . S
O165 In156 2.326 . S
O165 C161 1.260 . S
C166 O157 1.240 . S
C166 O158 1.252 . S
O167 In156 2.294 . S
O167 C160 1.240 . S
O168 In156 2.326 . S
O168 C160 1.252 . S
In169 O170 2.294 . S
In169 O171 2.326 . S
In169 O175 2.266 1_554 S
In169 O176 2.326 . S
In169 O177 2.266 1_554 S
In169 O178 2.326 1_554 S
In169 O180 2.294 . S
In169 O181 2.326 . S
O170 In169 2.294 . S
O170 C179 1.240 . S
O171 In169 2.326 . S
O171 C179 1.252 . S
C172 O175 1.252 1_554 S
C172 O176 1.262 . S
C173 O180 1.240 . S
C173 O181 1.252 . S
C174 O177 1.252 . S
C174 O178 1.260 . S
O175 In169 2.266 1_556 S
O175 C172 1.252 1_556 S
O176 In169 2.326 . S
O176 C172 1.262 . S
O177 In169 2.266 1_556 S
O177 C174 1.252 . S
O178 In169 2.326 1_556 S
O178 C174 1.260 . S
C179 O170 1.240 . S
C179 O171 1.252 . S
O180 In169 2.294 . S
O180 C173 1.240 . S
O181 In169 2.326 . S
O181 C173 1.252 . S
In182 O183 2.294 . S
In182 O184 2.326 . S
In182 O188 2.266 . S
In182 O189 2.326 . S
In182 O190 2.266 . S
In182 O191 2.326 . S
In182 O193 2.294 . S
In182 O194 2.326 . S
O183 In182 2.294 . S
O183 C192 1.240 . S
O184 In182 2.326 . S
O184 C192 1.252 . S
C185 O188 1.252 . S
C185 O189 1.260 . S
C186 O193 1.240 . S
C186 O194 1.252 . S
C187 O190 1.252 . S
C187 O191 1.260 . S
O188 In182 2.266 . S
O188 C185 1.252 . S
O189 In182 2.326 . S
O189 C185 1.260 . S
O190 In182 2.266 . S
O190 C187 1.252 . S
O191 In182 2.326 . S
O191 C187 1.260 . S
C192 O183 1.240 . S
C192 O184 1.252 . S
O193 In182 2.294 . S
O193 C186 1.240 . S
O194 In182 2.326 . S
O194 C186 1.252 . S
In195 O196 2.294 . S
In195 O197 2.326 . S
In195 O201 2.266 . S
In195 O202 2.326 . S
In195 O203 2.266 . S
In195 O204 2.326 . S
In195 O206 2.294 . S
In195 O207 2.326 . S
O196 In195 2.294 . S
O196 C205 1.240 . S
O197 In195 2.326 . S
O197 C205 1.252 . S
C198 O201 1.252 . S
C198 O202 1.260 . S
C199 O206 1.240 . S
C199 O207 1.252 . S
C200 O203 1.252 . S
C200 O204 1.260 . S
O201 In195 2.266 . S
O201 C198 1.252 . S
O202 In195 2.326 . S
O202 C198 1.260 . S
O203 In195 2.266 . S
O203 C200 1.252 . S
O204 In195 2.326 . S
O204 C200 1.260 . S
C205 O196 1.240 . S
C205 O197 1.252 . S
O206 In195 2.294 . S
O206 C199 1.240 . S
O207 In195 2.326 . S
O207 C199 1.252 . S
In208 O209 2.294 . S
In208 O210 2.326 . S
In208 O214 2.266 . S
In208 O215 2.326 . S
In208 O216 2.266 . S
In208 O217 2.326 1_545 S
In208 O219 2.294 . S
In208 O220 2.326 . S
O209 In208 2.294 . S
O209 C218 1.240 . S
O210 In208 2.326 . S
O210 C218 1.252 . S
C211 O214 1.252 . S
C211 O215 1.260 . S
C212 O219 1.240 . S
C212 O220 1.252 . S
C213 O216 1.252 1_565 S
C213 O217 1.260 . S
O214 In208 2.266 . S
O214 C211 1.252 . S
O215 In208 2.326 . S
O215 C211 1.260 . S
O216 In208 2.266 . S
O216 C213 1.252 1_545 S
O217 In208 2.326 1_565 S
O217 C213 1.260 . S
C218 O209 1.240 . S
C218 O210 1.252 . S
O219 In208 2.294 . S
O219 C212 1.240 . S
O220 In208 2.326 . S
O220 C212 1.252 . S
In221 O222 2.294 . S
In221 O223 2.326 . S
In221 O227 2.266 . S
In221 O228 2.326 . S
In221 O229 2.266 . S
In221 O230 2.326 . S
In221 O232 2.294 . S
In221 O233 2.326 . S
O222 In221 2.294 . S
O222 C231 1.240 . S
O223 In221 2.326 . S
O223 C231 1.252 . S
C224 O227 1.252 . S
C224 O228 1.260 . S
C225 O232 1.240 . S
C225 O233 1.252 . S
C226 O229 1.252 . S
C226 O230 1.260 . S
O227 In221 2.266 . S
O227 C224 1.252 . S
O228 In221 2.326 . S
O228 C224 1.260 . S
O229 In221 2.266 . S
O229 C226 1.252 . S
O230 In221 2.326 . S
O230 C226 1.260 . S
C231 O222 1.240 . S
C231 O223 1.252 . S
O232 In221 2.294 . S
O232 C225 1.240 . S
O233 In221 2.326 . S
O233 C225 1.252 . S
In234 O235 2.294 . S
In234 O236 2.326 . S
In234 O240 2.266 . S
In234 O241 2.326 . S
In234 O242 2.266 . S
In234 O243 2.326 . S
In234 O245 2.294 . S
In234 O246 2.326 . S
O235 In234 2.294 . S
O235 C244 1.240 . S
O236 In234 2.326 . S
O236 C244 1.252 . S
C237 O240 1.252 . S
C237 O241 1.260 . S
C238 O245 1.240 . S
C238 O246 1.252 . S
C239 O242 1.252 . S
C239 O243 1.260 . S
O240 In234 2.266 . S
O240 C237 1.252 . S
O241 In234 2.326 . S
O241 C237 1.260 . S
O242 In234 2.266 . S
O242 C239 1.252 . S
O243 In234 2.326 . S
O243 C239 1.260 . S
C244 O235 1.240 . S
C244 O236 1.252 . S
O245 In234 2.294 . S
O245 C238 1.240 . S
O246 In234 2.326 . S
O246 C238 1.252 . S
In247 O248 2.294 1_545 S
In247 O249 2.326 1_545 S
In247 O253 2.266 . S
In247 O254 2.326 . S
In247 O255 2.266 . S
In247 O256 2.326 . S
In247 O258 2.294 . S
In247 O259 2.326 . S
O248 In247 2.294 1_565 S
O248 C257 1.240 . S
O249 In247 2.326 1_565 S
O249 C257 1.252 . S
C250 O253 1.252 . S
C250 O254 1.260 . S
C251 O258 1.240 . S
C251 O259 1.252 . S
C252 O255 1.252 . S
C252 O256 1.260 . S
O253 In247 2.266 . S
O253 C250 1.252 . S
O254 In247 2.326 . S
O254 C250 1.260 . S
O255 In247 2.266 . S
O255 C252 1.252 . S
O256 In247 2.326 . S
O256 C252 1.260 . S
C257 O248 1.240 . S
C257 O249 1.252 . S
O258 In247 2.294 . S
O258 C251 1.240 . S
O259 In247 2.326 . S
O259 C251 1.252 . S
In260 O261 2.294 . S
In260 O262 2.326 . S
In260 O266 2.266 1_554 S
In260 O267 2.326 . S
In260 O268 2.266 1_554 S
In260 O269 2.326 1_554 S
In260 O271 2.294 . S
In260 O272 2.326 . S
O261 In260 2.294 . S
O261 C270 1.240 . S
O262 In260 2.326 . S
O262 C270 1.252 . S
C263 O266 1.252 . S
C263 O267 1.260 1_556 S
C264 O271 1.240 . S
C264 O272 1.252 . S
C265 O268 1.252 . S
C265 O269 1.260 . S
O266 In260 2.266 1_556 S
O266 C263 1.252 . S
O267 In260 2.326 . S
O267 C263 1.260 1_554 S
O268 In260 2.266 1_556 S
O268 C265 1.252 . S
O269 In260 2.326 1_556 S
O269 C265 1.260 . S
C270 O261 1.240 . S
C270 O262 1.252 . S
O271 In260 2.294 . S
O271 C264 1.240 . S
O272 In260 2.326 . S
O272 C264 1.252 . S
In273 O274 2.294 . S
In273 O275 2.326 . S
In273 O279 2.266 . S
In273 O280 2.326 . S
In273 O281 2.266 . S
In273 O282 2.326 . S
In273 O284 2.294 . S
In273 O285 2.326 . S
O274 In273 2.294 . S
O274 C283 1.240 . S
O275 In273 2.326 . S
O275 C283 1.252 . S
C276 O279 1.252 . S
C276 O280 1.260 . S
C277 O284 1.240 . S
C277 O285 1.252 . S
C278 O281 1.252 . S
C278 O282 1.260 . S
O279 In273 2.266 . S
O279 C276 1.252 . S
O280 In273 2.326 . S
O280 C276 1.260 . S
O281 In273 2.266 . S
O281 C278 1.252 . S
O282 In273 2.326 . S
O282 C278 1.260 . S
C283 O274 1.240 . S
C283 O275 1.252 . S
O284 In273 2.294 . S
O284 C277 1.240 . S
O285 In273 2.326 . S
O285 C277 1.252 . S
In286 O287 2.294 . S
In286 O288 2.326 . S
In286 O292 2.266 . S
In286 O293 2.326 . S
In286 O294 2.266 . S
In286 O295 2.326 . S
In286 O297 2.294 . S
In286 O298 2.326 . S
O287 In286 2.294 . S
O287 C296 1.240 . S
O288 In286 2.326 . S
O288 C296 1.252 . S
C289 O292 1.252 . S
C289 O293 1.260 . S
C290 O297 1.240 . S
C290 O298 1.252 . S
C291 O294 1.252 . S
C291 O295 1.260 . S
O292 In286 2.266 . S
O292 C289 1.252 . S
O293 In286 2.326 . S
O293 C289 1.260 . S
O294 In286 2.266 . S
O294 C291 1.252 . S
O295 In286 2.326 . S
O295 C291 1.260 . S
C296 O287 1.240 . S
C296 O288 1.252 . S
O297 In286 2.294 . S
O297 C290 1.240 . S
O298 In286 2.326 . S
O298 C290 1.252 . S
In299 O300 2.294 . S
In299 O301 2.326 . S
In299 O305 2.266 . S
In299 O306 2.326 . S
In299 O307 2.266 . S
In299 O308 2.326 . S
In299 O310 2.294 . S
In299 O311 2.326 . S
O300 In299 2.294 . S
O300 C309 1.240 . S
O301 In299 2.326 . S
O301 C309 1.252 . S
C302 O305 1.252 . S
C302 O306 1.260 . S
C303 O310 1.240 . S
C303 O311 1.252 . S
C304 O307 1.252 . S
C304 O308 1.260 . S
O305 In299 2.266 . S
O305 C302 1.252 . S
O306 In299 2.326 . S
O306 C302 1.260 . S
O307 In299 2.266 . S
O307 C304 1.252 . S
O308 In299 2.326 . S
O308 C304 1.260 . S
C309 O300 1.240 . S
C309 O301 1.252 . S
O310 In299 2.294 . S
O310 C303 1.240 . S
O311 In299 2.326 . S
O311 C303 1.252 . S
Dy312 O316 2.398 1_554 S
Dy312 O317 2.491 . S
Dy312 O318 2.403 1_654 S
Dy312 O319 2.664 1_654 S
Dy312 O323 2.326 1_654 S
Dy312 O327 2.310 1_655 S
Dy312 O328 2.351 1_645 S
C313 O324 1.185 . S
C313 O325 1.355 . S
C314 O316 1.185 . S
C314 O317 1.355 1_556 S
Dy315 O319 2.310 1_554 S
Dy315 O322 2.351 . S
Dy315 O324 2.398 . S
Dy315 O325 2.491 . S
Dy315 O326 2.403 . S
Dy315 O327 2.664 . S
Dy315 O329 2.326 1_545 S
O316 Dy312 2.398 1_556 S
O316 C314 1.185 . S
O317 Dy312 2.491 . S
O317 C314 1.355 1_554 S
O318 Dy312 2.403 1_456 S
O318 C320 1.254 . S
O319 Dy312 2.664 1_456 S
O319 Dy315 2.310 1_556 S
O319 C320 1.268 . S
C320 O318 1.254 . S
C320 O319 1.268 . S
C321 O326 1.254 . S
C321 O327 1.268 . S
O322 Dy315 2.351 . S
O322 C330 1.249 . S
O323 Dy312 2.326 1_456 S
O323 C330 1.267 1_556 S
O324 C313 1.185 . S
O324 Dy315 2.398 . S
O325 C313 1.355 . S
O325 Dy315 2.491 . S
O326 Dy315 2.403 . S
O326 C321 1.254 . S
O327 Dy312 2.310 1_455 S
O327 Dy315 2.664 . S
O327 C321 1.268 . S
O328 Dy312 2.351 1_465 S
O328 C331 1.249 . S
O329 Dy315 2.326 1_565 S
O329 C331 1.267 . S
C330 O322 1.249 . S
C330 O323 1.267 1_554 S
C331 O328 1.249 . S
C331 O329 1.267 . S
Dy332 O336 2.398 . S
Dy332 O337 2.491 . S
Dy332 O338 2.403 . S
Dy332 O339 2.664 . S
Dy332 O343 2.326 . S
Dy332 O347 2.310 . S
Dy332 O348 2.351 . S
C333 O344 1.185 . S
C333 O345 1.355 . S
C334 O336 1.185 . S
C334 O337 1.355 . S
Dy335 O339 2.310 . S
Dy335 O342 2.351 . S
Dy335 O344 2.398 . S
Dy335 O345 2.491 . S
Dy335 O346 2.403 . S
Dy335 O347 2.664 . S
Dy335 O349 2.326 . S
O336 Dy332 2.398 . S
O336 C334 1.185 . S
O337 Dy332 2.491 . S
O337 C334 1.355 . S
O338 Dy332 2.403 . S
O338 C340 1.254 . S
O339 Dy332 2.664 . S
O339 Dy335 2.310 . S
O339 C340 1.268 . S
C340 O338 1.254 . S
C340 O339 1.268 . S
C341 O346 1.254 . S
C341 O347 1.268 . S
O342 Dy335 2.351 . S
O342 C350 1.249 . S
O343 Dy332 2.326 . S
O343 C350 1.267 . S
O344 C333 1.185 . S
O344 Dy335 2.398 . S
O345 C333 1.355 . S
O345 Dy335 2.491 . S
O346 Dy335 2.403 . S
O346 C341 1.254 . S
O347 Dy332 2.310 . S
O347 Dy335 2.664 . S
O347 C341 1.268 . S
O348 Dy332 2.351 . S
O348 C351 1.249 . S
O349 Dy335 2.326 . S
O349 C351 1.267 . S
C350 O342 1.249 . S
C350 O343 1.267 . S
C351 O348 1.249 . S
C351 O349 1.267 . S
Dy352 O356 2.398 1_545 S
Dy352 O357 2.491 1_545 S
Dy352 O358 2.403 . S
Dy352 O359 2.664 . S
Dy352 O363 2.326 1_545 S
Dy352 O367 2.310 . S
Dy352 O368 2.351 . S
C353 O364 1.185 . S
C353 O365 1.355 . S
C354 O356 1.185 . S
C354 O357 1.355 . S
Dy355 O359 2.310 . S
Dy355 O362 2.351 1_545 S
Dy355 O364 2.398 . S
Dy355 O365 2.491 . S
Dy355 O366 2.403 . S
Dy355 O367 2.664 . S
Dy355 O369 2.326 . S
O356 Dy352 2.398 1_565 S
O356 C354 1.185 . S
O357 Dy352 2.491 1_565 S
O357 C354 1.355 . S
O358 Dy352 2.403 . S
O358 C360 1.254 . S
O359 Dy352 2.664 . S
O359 Dy355 2.310 . S
O359 C360 1.268 . S
C360 O358 1.254 . S
C360 O359 1.268 . S
C361 O366 1.259 . S
C361 O367 1.270 . S
O362 Dy355 2.351 1_565 S
O362 C370 1.249 . S
O363 Dy352 2.326 1_565 S
O363 C370 1.267 . S
O364 C353 1.185 . S
O364 Dy355 2.398 . S
O365 C353 1.355 . S
O365 Dy355 2.491 . S
O366 Dy355 2.403 . S
O366 C361 1.259 . S
O367 Dy352 2.310 . S
O367 Dy355 2.664 . S
O367 C361 1.270 . S
O368 Dy352 2.351 . S
O368 C371 1.249 . S
O369 Dy355 2.326 . S
O369 C371 1.267 . S
C370 O362 1.249 . S
C370 O363 1.267 . S
C371 O368 1.249 . S
C371 O369 1.267 . S
Dy372 O376 2.398 . S
Dy372 O377 2.491 . S
Dy372 O378 2.403 . S
Dy372 O379 2.664 . S
Dy372 O383 2.326 . S
Dy372 O387 2.310 . S
Dy372 O388 2.351 . S
C373 O384 1.185 . S
C373 O385 1.355 . S
C374 O376 1.185 . S
C374 O377 1.355 . S
Dy375 O379 2.310 . S
Dy375 O382 2.351 . S
Dy375 O384 2.398 . S
Dy375 O385 2.491 . S
Dy375 O386 2.403 . S
Dy375 O387 2.664 . S
Dy375 O389 2.326 . S
O376 Dy372 2.398 . S
O376 C374 1.185 . S
O377 Dy372 2.491 . S
O377 C374 1.355 . S
O378 Dy372 2.403 . S
O378 C380 1.254 . S
O379 Dy372 2.664 . S
O379 Dy375 2.310 . S
O379 C380 1.268 . S
C380 O378 1.254 . S
C380 O379 1.268 . S
C381 O386 1.254 . S
C381 O387 1.268 . S
O382 Dy375 2.351 . S
O382 C390 1.249 . S
O383 Dy372 2.326 . S
O383 C390 1.267 . S
O384 C373 1.185 . S
O384 Dy375 2.398 . S
O385 C373 1.355 . S
O385 Dy375 2.491 . S
O386 Dy375 2.403 . S
O386 C381 1.254 . S
O387 Dy372 2.310 . S
O387 Dy375 2.664 . S
O387 C381 1.268 . S
O388 Dy372 2.351 . S
O388 C391 1.249 . S
O389 Dy375 2.326 . S
O389 C391 1.267 . S
C390 O382 1.249 . S
C390 O383 1.267 . S
C391 O388 1.249 . S
C391 O389 1.267 . S
Dy392 O396 2.398 1_565 S
Dy392 O397 2.491 1_465 S
Dy392 O398 2.403 1_565 S
Dy392 O399 2.664 1_565 S
Dy392 O403 2.326 1_565 S
Dy392 O407 2.310 1_465 S
Dy392 O408 2.351 . S
C393 O404 1.185 . S
C393 O405 1.355 . S
C394 O396 1.185 . S
C394 O397 1.355 1_455 S
Dy395 O399 2.310 . S
Dy395 O402 2.351 . S
Dy395 O404 2.398 . S
Dy395 O405 2.491 . S
Dy395 O406 2.403 1_455 S
Dy395 O407 2.663 1_455 S
Dy395 O409 2.326 1_545 S
O396 Dy392 2.398 1_545 S
O396 C394 1.185 . S
O397 Dy392 2.491 1_645 S
O397 C394 1.355 1_655 S
O398 Dy392 2.403 1_545 S
O398 C400 1.254 . S
O399 Dy392 2.664 1_545 S
O399 Dy395 2.310 . S
O399 C400 1.268 . S
C400 O398 1.254 . S
C400 O399 1.268 . S
C401 O406 1.254 1_565 S
C401 O407 1.268 1_565 S
O402 Dy395 2.351 . S
O402 C410 1.249 . S
O403 Dy392 2.326 1_545 S
O403 C410 1.267 . S
O404 C393 1.185 . S
O404 Dy395 2.398 . S
O405 C393 1.355 . S
O405 Dy395 2.491 . S
O406 Dy395 2.403 1_655 S
O406 C401 1.254 1_545 S
O407 Dy392 2.310 1_645 S
O407 Dy395 2.663 1_655 S
O407 C401 1.268 1_545 S
O408 Dy392 2.351 . S
O408 C411 1.249 . S
O409 Dy395 2.326 1_565 S
O409 C411 1.267 . S
C410 O402 1.249 . S
C410 O403 1.267 . S
C411 O408 1.249 . S
C411 O409 1.267 . S
Dy412 O416 2.398 . S
Dy412 O417 2.491 . S
Dy412 O418 2.403 . S
Dy412 O419 2.664 . S
Dy412 O423 2.326 . S
Dy412 O427 2.310 . S
Dy412 O428 2.351 . S
C413 O424 1.185 . S
C413 O425 1.355 . S
C414 O416 1.185 . S
C414 O417 1.355 . S
Dy415 O419 2.310 . S
Dy415 O422 2.351 . S
Dy415 O424 2.398 . S
Dy415 O425 2.491 . S
Dy415 O426 2.403 . S
Dy415 O427 2.664 . S
Dy415 O429 2.326 . S
O416 Dy412 2.398 . S
O416 C414 1.185 . S
O417 Dy412 2.491 . S
O417 C414 1.355 . S
O418 Dy412 2.403 . S
O418 C420 1.254 . S
O419 Dy412 2.664 . S
O419 Dy415 2.310 . S
O419 C420 1.268 . S
C420 O418 1.254 . S
C420 O419 1.268 . S
C421 O426 1.254 . S
C421 O427 1.268 . S
O422 Dy415 2.351 . S
O422 C430 1.249 . S
O423 Dy412 2.326 . S
O423 C430 1.267 . S
O424 C413 1.185 . S
O424 Dy415 2.398 . S
O425 C413 1.355 . S
O425 Dy415 2.491 . S
O426 Dy415 2.403 . S
O426 C421 1.254 . S
O427 Dy412 2.310 . S
O427 Dy415 2.664 . S
O427 C421 1.268 . S
O428 Dy412 2.351 . S
O428 C431 1.249 . S
O429 Dy415 2.326 . S
O429 C431 1.267 . S
C430 O422 1.249 . S
C430 O423 1.267 . S
C431 O428 1.249 . S
C431 O429 1.267 . S
Dy432 O436 2.398 1_545 S
Dy432 O437 2.491 . S
Dy432 O438 2.403 1_545 S
Dy432 O439 2.664 1_544 S
Dy432 O443 2.326 1_545 S
Dy432 O447 2.310 . S
Dy432 O448 2.351 . S
C433 O444 1.185 . S
C433 O445 1.355 . S
C434 O436 1.185 1_545 S
C434 O437 1.355 . S
Dy435 O439 2.310 1_545 S
Dy435 O442 2.351 . S
Dy435 O444 2.398 . S
Dy435 O445 2.491 . S
Dy435 O446 2.403 . S
Dy435 O447 2.664 1_556 S
Dy435 O449 2.326 . S
O436 Dy432 2.398 1_565 S
O436 C434 1.185 1_565 S
O437 Dy432 2.491 . S
O437 C434 1.355 . S
O438 Dy432 2.403 1_565 S
O438 C440 1.254 1_554 S
O439 Dy432 2.664 1_566 S
O439 Dy435 2.310 1_565 S
O439 C440 1.268 . S
C440 O438 1.254 1_556 S
C440 O439 1.268 . S
C441 O446 1.254 1_554 S
C441 O447 1.268 . S
O442 Dy435 2.351 . S
O442 C450 1.249 1_556 S
O443 Dy432 2.326 1_565 S
O443 C450 1.267 1_565 S
O444 C433 1.185 . S
O444 Dy435 2.398 . S
O445 C433 1.355 . S
O445 Dy435 2.491 . S
O446 Dy435 2.403 . S
O446 C441 1.254 1_556 S
O447 Dy432 2.310 . S
O447 Dy435 2.664 1_554 S
O447 C441 1.268 . S
O448 Dy432 2.351 . S
O448 C451 1.249 . S
O449 Dy435 2.326 . S
O449 C451 1.267 1_556 S
C450 O442 1.249 1_554 S
C450 O443 1.267 1_545 S
C451 O448 1.249 . S
C451 O449 1.267 1_554 S
Dy452 O456 2.398 . S
Dy452 O457 2.491 . S
Dy452 O458 2.403 . S
Dy452 O459 2.664 . S
Dy452 O463 2.326 . S
Dy452 O467 2.310 . S
Dy452 O468 2.351 . S
C453 O464 1.185 . S
C453 O465 1.355 . S
C454 O456 1.185 . S
C454 O457 1.355 . S
Dy455 O459 2.310 . S
Dy455 O462 2.351 . S
Dy455 O464 2.398 . S
Dy455 O465 2.491 . S
Dy455 O466 2.403 . S
Dy455 O467 2.664 . S
Dy455 O469 2.326 . S
O456 Dy452 2.398 . S
O456 C454 1.185 . S
O457 Dy452 2.491 . S
O457 C454 1.355 . S
O458 Dy452 2.403 . S
O458 C460 1.254 . S
O459 Dy452 2.664 . S
O459 Dy455 2.310 . S
O459 C460 1.268 . S
C460 O458 1.254 . S
C460 O459 1.268 . S
C461 O466 1.254 . S
C461 O467 1.268 . S
O462 Dy455 2.351 . S
O462 C470 1.249 . S
O463 Dy452 2.326 . S
O463 C470 1.267 . S
O464 C453 1.185 . S
O464 Dy455 2.398 . S
O465 C453 1.355 . S
O465 Dy455 2.491 . S
O466 Dy455 2.403 . S
O466 C461 1.254 . S
O467 Dy452 2.310 . S
O467 Dy455 2.664 . S
O467 C461 1.268 . S
O468 Dy452 2.351 . S
O468 C471 1.249 . S
O469 Dy455 2.326 . S
O469 C471 1.267 . S
C470 O462 1.249 . S
C470 O463 1.267 . S
C471 O468 1.249 . S
C471 O469 1.267 . S
Dy472 O476 2.398 . S
Dy472 O477 2.491 . S
Dy472 O478 2.403 . S
Dy472 O479 2.664 1_556 S
Dy472 O483 2.326 . S
Dy472 O487 2.310 . S
Dy472 O488 2.351 . S
C473 O484 1.185 . S
C473 O485 1.355 . S
C474 O476 1.185 . S
C474 O477 1.355 . S
Dy475 O479 2.310 . S
Dy475 O482 2.351 . S
Dy475 O484 2.398 . S
Dy475 O485 2.491 . S
Dy475 O486 2.403 . S
Dy475 O487 2.664 1_554 S
Dy475 O489 2.326 . S
O476 Dy472 2.398 . S
O476 C474 1.185 . S
O477 Dy472 2.491 . S
O477 C474 1.355 . S
O478 Dy472 2.403 . S
O478 C480 1.254 . S
O479 Dy472 2.664 1_554 S
O479 Dy475 2.310 . S
O479 C480 1.268 1_554 S
C480 O478 1.254 . S
C480 O479 1.268 1_556 S
C481 O486 1.254 . S
C481 O487 1.268 1_554 S
O482 Dy475 2.351 . S
O482 C490 1.249 1_554 S
O483 Dy472 2.326 . S
O483 C490 1.267 . S
O484 C473 1.185 . S
O484 Dy475 2.398 . S
O485 C473 1.355 . S
O485 Dy475 2.491 . S
O486 Dy475 2.403 . S
O486 C481 1.254 . S
O487 Dy472 2.310 . S
O487 Dy475 2.664 1_556 S
O487 C481 1.268 1_556 S
O488 Dy472 2.351 . S
O488 C491 1.249 1_556 S
O489 Dy475 2.326 . S
O489 C491 1.267 . S
C490 O482 1.249 1_556 S
C490 O483 1.267 . S
C491 O488 1.249 1_554 S
C491 O489 1.267 . S
Dy492 O496 2.398 . S
Dy492 O497 2.491 . S
Dy492 O498 2.403 . S
Dy492 O499 2.664 . S
Dy492 O503 2.326 . S
Dy492 O507 2.310 . S
Dy492 O508 2.351 . S
C493 O504 1.185 . S
C493 O505 1.355 . S
C494 O496 1.185 . S
C494 O497 1.355 . S
Dy495 O499 2.310 . S
Dy495 O502 2.351 . S
Dy495 O504 2.398 . S
Dy495 O505 2.491 . S
Dy495 O506 2.403 . S
Dy495 O507 2.664 . S
Dy495 O509 2.326 . S
O496 Dy492 2.398 . S
O496 C494 1.185 . S
O497 Dy492 2.491 . S
O497 C494 1.355 . S
O498 Dy492 2.403 . S
O498 C500 1.254 . S
O499 Dy492 2.664 . S
O499 Dy495 2.310 . S
O499 C500 1.268 . S
C500 O498 1.254 . S
C500 O499 1.268 . S
C501 O506 1.254 . S
C501 O507 1.268 . S
O502 Dy495 2.351 . S
O502 C510 1.249 . S
O503 Dy492 2.326 . S
O503 C510 1.267 . S
O504 C493 1.185 . S
O504 Dy495 2.398 . S
O505 C493 1.355 . S
O505 Dy495 2.491 . S
O506 Dy495 2.403 . S
O506 C501 1.254 . S
O507 Dy492 2.310 . S
O507 Dy495 2.664 . S
O507 C501 1.268 . S
O508 Dy492 2.351 . S
O508 C511 1.249 . S
O509 Dy495 2.326 . S
O509 C511 1.267 . S
C510 O502 1.249 . S
C510 O503 1.267 . S
C511 O508 1.249 . S
C511 O509 1.267 . S
Dy512 O516 2.398 1_455 S
Dy512 O517 2.491 1_455 S
Dy512 O518 2.403 . S
Dy512 O519 2.664 . S
Dy512 O523 2.326 1_455 S
Dy512 O527 2.310 . S
Dy512 O528 2.351 . S
C513 O524 1.185 . S
C513 O525 1.355 . S
C514 O516 1.185 . S
C514 O517 1.355 . S
Dy515 O519 2.310 . S
Dy515 O522 2.351 1_455 S
Dy515 O524 2.398 . S
Dy515 O525 2.491 . S
Dy515 O526 2.403 . S
Dy515 O527 2.664 . S
Dy515 O529 2.326 . S
O516 Dy512 2.398 1_655 S
O516 C514 1.185 . S
O517 Dy512 2.491 1_655 S
O517 C514 1.355 . S
O518 Dy512 2.403 . S
O518 C520 1.254 . S
O519 Dy512 2.664 . S
O519 Dy515 2.310 . S
O519 C520 1.268 . S
C520 O518 1.254 . S
C520 O519 1.268 . S
C521 O526 1.254 . S
C521 O527 1.268 . S
O522 Dy515 2.351 1_655 S
O522 C530 1.249 . S
O523 Dy512 2.326 1_655 S
O523 C530 1.267 . S
O524 C513 1.185 . S
O524 Dy515 2.398 . S
O525 C513 1.355 . S
O525 Dy515 2.491 . S
O526 Dy515 2.403 . S
O526 C521 1.254 . S
O527 Dy512 2.310 . S
O527 Dy515 2.664 . S
O527 C521 1.268 . S
O528 Dy512 2.351 . S
O528 C531 1.249 . S
O529 Dy515 2.326 . S
O529 C531 1.267 . S
C530 O522 1.249 . S
C530 O523 1.267 . S
C531 O528 1.249 . S
C531 O529 1.267 . S
Dy532 O536 2.398 . S
Dy532 O537 2.491 . S
Dy532 O538 2.403 . S
Dy532 O539 2.664 . S
Dy532 O543 2.326 . S
Dy532 O547 2.310 . S
Dy532 O548 2.351 . S
C533 O544 1.185 . S
C533 O545 1.355 . S
C534 O536 1.185 . S
C534 O537 1.355 . S
Dy535 O539 2.310 . S
Dy535 O542 2.351 . S
Dy535 O544 2.398 . S
Dy535 O545 2.491 . S
Dy535 O546 2.403 . S
Dy535 O547 2.664 . S
Dy535 O549 2.326 . S
O536 Dy532 2.398 . S
O536 C534 1.185 . S
O537 Dy532 2.491 . S
O537 C534 1.355 . S
O538 Dy532 2.403 . S
O538 C540 1.254 . S
O539 Dy532 2.664 . S
O539 Dy535 2.310 . S
O539 C540 1.268 . S
C540 O538 1.254 . S
C540 O539 1.268 . S
C541 O546 1.254 . S
C541 O547 1.268 . S
O542 Dy535 2.351 . S
O542 C550 1.249 . S
O543 Dy532 2.326 . S
O543 C550 1.267 . S
O544 C533 1.185 . S
O544 Dy535 2.398 . S
O545 C533 1.355 . S
O545 Dy535 2.491 . S
O546 Dy535 2.403 . S
O546 C541 1.254 . S
O547 Dy532 2.310 . S
O547 Dy535 2.664 . S
O547 C541 1.268 . S
O548 Dy532 2.351 . S
O548 C551 1.249 . S
O549 Dy535 2.326 . S
O549 C551 1.267 . S
C550 O542 1.249 . S
C550 O543 1.267 . S
C551 O548 1.249 . S
C551 O549 1.267 . S
Dy552 O556 2.398 . S
Dy552 O557 2.491 . S
Dy552 O558 2.403 . S
Dy552 O559 2.664 . S
Dy552 O563 2.326 . S
Dy552 O567 2.310 . S
Dy552 O568 2.351 . S
C553 O564 1.185 . S
C553 O565 1.355 . S
C554 O556 1.185 . S
C554 O557 1.355 . S
Dy555 O559 2.310 . S
Dy555 O562 2.351 . S
Dy555 O564 2.398 . S
Dy555 O565 2.491 . S
Dy555 O566 2.403 . S
Dy555 O567 2.664 . S
Dy555 O569 2.326 . S
O556 Dy552 2.398 . S
O556 C554 1.185 . S
O557 Dy552 2.491 . S
O557 C554 1.355 . S
O558 Dy552 2.403 . S
O558 C560 1.254 . S
O559 Dy552 2.664 . S
O559 Dy555 2.310 . S
O559 C560 1.268 . S
C560 O558 1.254 . S
C560 O559 1.268 . S
C561 O566 1.254 . S
C561 O567 1.268 . S
O562 Dy555 2.351 . S
O562 C570 1.249 . S
O563 Dy552 2.326 . S
O563 C570 1.267 . S
O564 C553 1.185 . S
O564 Dy555 2.398 . S
O565 C553 1.355 . S
O565 Dy555 2.491 . S
O566 Dy555 2.403 . S
O566 C561 1.254 . S
O567 Dy552 2.310 . S
O567 Dy555 2.664 . S
O567 C561 1.268 . S
O568 Dy552 2.351 . S
O568 C571 1.249 . S
O569 Dy555 2.326 . S
O569 C571 1.267 . S
C570 O562 1.249 . S
C570 O563 1.267 . S
C571 O568 1.249 . S
C571 O569 1.267 . S
Dy572 O576 2.398 . S
Dy572 O577 2.491 . S
Dy572 O578 2.403 . S
Dy572 O579 2.664 . S
Dy572 O583 2.326 . S
Dy572 O587 2.310 . S
Dy572 O588 2.351 . S
C573 O584 1.185 . S
C573 O585 1.355 . S
C574 O576 1.185 . S
C574 O577 1.355 . S
Dy575 O579 2.310 . S
Dy575 O582 2.351 . S
Dy575 O584 2.398 . S
Dy575 O585 2.491 . S
Dy575 O586 2.403 . S
Dy575 O587 2.664 . S
Dy575 O589 2.326 . S
O576 Dy572 2.398 . S
O576 C574 1.185 . S
O577 Dy572 2.491 . S
O577 C574 1.355 . S
O578 Dy572 2.403 . S
O578 C580 1.254 . S
O579 Dy572 2.664 . S
O579 Dy575 2.310 . S
O579 C580 1.268 . S
C580 O578 1.254 . S
C580 O579 1.268 . S
C581 O586 1.254 . S
C581 O587 1.268 . S
O582 Dy575 2.351 . S
O582 C590 1.249 . S
O583 Dy572 2.326 . S
O583 C590 1.267 . S
O584 C573 1.185 . S
O584 Dy575 2.398 . S
O585 C573 1.355 . S
O585 Dy575 2.491 . S
O586 Dy575 2.403 . S
O586 C581 1.254 . S
O587 Dy572 2.310 . S
O587 Dy575 2.664 . S
O587 C581 1.268 . S
O588 Dy572 2.351 . S
O588 C591 1.249 . S
O589 Dy575 2.326 . S
O589 C591 1.267 . S
C590 O582 1.249 . S
C590 O583 1.267 . S
C591 O588 1.249 . S
C591 O589 1.267 . S
Dy592 O596 2.398 . S
Dy592 O597 2.491 . S
Dy592 O598 2.403 . S
Dy592 O599 2.664 . S
Dy592 O603 2.326 . S
Dy592 O607 2.310 . S
Dy592 O608 2.351 . S
C593 O604 1.185 . S
C593 O605 1.355 . S
C594 O596 1.185 . S
C594 O597 1.355 . S
Dy595 O599 2.310 . S
Dy595 O602 2.351 . S
Dy595 O604 2.398 . S
Dy595 O605 2.491 . S
Dy595 O606 2.403 . S
Dy595 O607 2.664 . S
Dy595 O609 2.326 . S
O596 Dy592 2.398 . S
O596 C594 1.185 . S
O597 Dy592 2.491 . S
O597 C594 1.355 . S
O598 Dy592 2.403 . S
O598 C600 1.254 . S
O599 Dy592 2.664 . S
O599 Dy595 2.310 . S
O599 C600 1.268 . S
C600 O598 1.254 . S
C600 O599 1.268 . S
C601 O606 1.254 . S
C601 O607 1.268 . S
O602 Dy595 2.351 . S
O602 C610 1.249 . S
O603 Dy592 2.326 . S
O603 C610 1.267 . S
O604 C593 1.185 . S
O604 Dy595 2.398 . S
O605 C593 1.355 . S
O605 Dy595 2.491 . S
O606 Dy595 2.403 . S
O606 C601 1.254 . S
O607 Dy592 2.310 . S
O607 Dy595 2.664 . S
O607 C601 1.268 . S
O608 Dy592 2.351 . S
O608 C611 1.249 . S
O609 Dy595 2.326 . S
O609 C611 1.267 . S
C610 O602 1.249 . S
C610 O603 1.267 . S
C611 O608 1.249 . S
C611 O609 1.267 . S
Dy612 O616 2.398 1_554 S
Dy612 O617 2.491 . S
Dy612 O618 2.403 1_554 S
Dy612 O619 2.664 1_454 S
Dy612 O623 2.326 1_554 S
Dy612 O627 2.310 . S
Dy612 O628 2.351 . S
C613 O624 1.185 . S
C613 O625 1.355 . S
C614 O616 1.175 1_554 S
C614 O617 1.368 . S
Dy615 O619 2.310 1_554 S
Dy615 O622 2.351 . S
Dy615 O624 2.398 . S
Dy615 O625 2.491 . S
Dy615 O626 2.403 . S
Dy615 O627 2.664 1_655 S
Dy615 O629 2.326 . S
O616 Dy612 2.398 1_556 S
O616 C614 1.175 1_556 S
O617 Dy612 2.491 . S
O617 C614 1.368 . S
O618 Dy612 2.403 1_556 S
O618 C620 1.254 . S
O619 Dy612 2.664 1_656 S
O619 Dy615 2.310 1_556 S
O619 C620 1.268 1_655 S
C620 O618 1.254 . S
C620 O619 1.268 1_455 S
C621 O626 1.254 1_455 S
C621 O627 1.268 . S
O622 Dy615 2.351 . S
O622 C630 1.249 1_655 S
O623 Dy612 2.326 1_556 S
O623 C630 1.267 1_556 S
O624 C613 1.185 . S
O624 Dy615 2.398 . S
O625 C613 1.355 . S
O625 Dy615 2.491 . S
O626 Dy615 2.403 . S
O626 C621 1.254 1_655 S
O627 Dy612 2.310 . S
O627 Dy615 2.664 1_455 S
O627 C621 1.268 . S
O628 Dy612 2.351 . S
O628 C631 1.249 . S
O629 Dy615 2.326 . S
O629 C631 1.267 1_655 S
C630 O622 1.249 1_455 S
C630 O623 1.267 1_554 S
C631 O628 1.249 . S
C631 O629 1.267 1_455 S
C632 C633 1.363 . S
C632 C638 1.379 1_556 S
C632 N640 1.356 . S
C633 C632 1.363 . S
C633 C639 1.363 . S
C634 C635 1.363 . S
C634 C639 1.379 . S
C634 N641 1.356 . S
C635 C634 1.363 . S
C635 C638 1.363 1_556 S
N636 C638 1.356 . S
N636 H648 0.984 . S
N636 H649 0.985 . S
N637 C639 1.356 1_655 S
N637 H642 0.984 . S
N637 H643 0.985 . S
C638 C632 1.379 1_554 S
C638 C635 1.363 1_554 S
C638 N636 1.356 . S
C639 C633 1.363 . S
C639 C634 1.379 . S
C639 N637 1.356 1_455 S
N640 C632 1.356 . S
N640 H646 0.984 . S
N640 H647 0.984 . S
N641 C634 1.356 . S
N641 H644 0.984 . S
N641 H645 0.985 1_455 S
H642 N637 0.984 . S
H643 N637 0.985 . S
H644 N641 0.984 . S
H645 N641 0.985 1_655 S
H646 N640 0.984 . S
H647 N640 0.984 . S
H648 N636 0.984 . S
H649 N636 0.985 . S
C650 C651 1.363 . S
C650 C656 1.379 . S
C650 N658 1.356 . S
C651 C650 1.363 . S
C651 C657 1.363 . S
C652 C653 1.363 . S
C652 C657 1.379 . S
C652 N659 1.356 . S
C653 C652 1.363 . S
C653 C656 1.363 . S
N654 C656 1.356 . S
N654 H666 0.984 . S
N654 H667 0.985 . S
N655 C657 1.356 . S
N655 H660 0.984 . S
N655 H661 0.985 . S
C656 C650 1.379 . S
C656 C653 1.363 . S
C656 N654 1.356 . S
C657 C651 1.363 . S
C657 C652 1.379 . S
C657 N655 1.356 . S
N658 C650 1.356 . S
N658 H664 0.984 . S
N658 H665 0.984 . S
N659 C652 1.356 . S
N659 H662 0.984 . S
N659 H663 0.985 . S
H660 N655 0.984 . S
H661 N655 0.985 . S
H662 N659 0.984 . S
H663 N659 0.985 . S
H664 N658 0.984 . S
H665 N658 0.984 . S
H666 N654 0.984 . S
H667 N654 0.985 . S
C668 C669 1.363 . S
C668 C674 1.379 . S
C668 N676 1.356 . S
C669 C668 1.363 . S
C669 C675 1.363 . S
C670 C671 1.363 . S
C670 C675 1.379 . S
C670 N677 1.356 . S
C671 C670 1.363 . S
C671 C674 1.363 . S
N672 C674 1.356 . S
N672 H684 0.984 . S
N672 H685 0.985 . S
N673 C675 1.356 . S
N673 H678 0.984 . S
N673 H679 0.985 . S
C674 C668 1.379 . S
C674 C671 1.363 . S
C674 N672 1.356 . S
C675 C669 1.363 . S
C675 C670 1.379 . S
C675 N673 1.356 . S
N676 C668 1.356 . S
N676 H682 0.984 . S
N676 H683 0.984 . S
N677 C670 1.356 . S
N677 H680 0.984 . S
N677 H681 0.985 . S
H678 N673 0.984 . S
H679 N673 0.985 . S
H680 N677 0.984 . S
H681 N677 0.985 . S
H682 N676 0.984 . S
H683 N676 0.984 . S
H684 N672 0.984 . S
H685 N672 0.985 . S
C686 C687 1.363 . S
C686 C692 1.379 . S
C686 N694 1.356 . S
C687 C686 1.363 . S
C687 C693 1.363 . S
C688 C689 1.363 . S
C688 C693 1.379 . S
C688 N695 1.356 . S
C689 C688 1.363 . S
C689 C692 1.363 . S
N690 C692 1.356 . S
N690 H702 0.984 . S
N690 H703 0.985 . S
N691 C693 1.356 . S
N691 H696 0.984 . S
N691 H697 0.985 . S
C692 C686 1.379 . S
C692 C689 1.363 . S
C692 N690 1.356 . S
C693 C687 1.363 . S
C693 C688 1.379 . S
C693 N691 1.356 . S
N694 C686 1.356 . S
N694 H700 0.984 . S
N694 H701 0.984 . S
N695 C688 1.356 . S
N695 H698 0.984 . S
N695 H699 0.985 . S
H696 N691 0.984 . S
H697 N691 0.985 . S
H698 N695 0.984 . S
H699 N695 0.985 . S
H700 N694 0.984 . S
H701 N694 0.984 . S
H702 N690 0.984 . S
H703 N690 0.985 . S
C704 C705 1.363 . S
C704 C710 1.379 . S
C704 N712 1.356 . S
C705 C704 1.363 . S
C705 C711 1.363 . S
C706 C707 1.363 . S
C706 C711 1.379 . S
C706 N713 1.356 . S
C707 C706 1.363 . S
C707 C710 1.363 . S
N708 C710 1.356 . S
N708 H720 0.984 . S
N708 H721 0.985 . S
N709 C711 1.356 . S
N709 H714 0.984 . S
N709 H715 0.985 . S
C710 C704 1.379 . S
C710 C707 1.363 . S
C710 N708 1.356 . S
C711 C705 1.363 . S
C711 C706 1.379 . S
C711 N709 1.356 . S
N712 C704 1.356 . S
N712 H718 0.984 . S
N712 H719 0.984 . S
N713 C706 1.356 . S
N713 H716 0.984 . S
N713 H717 0.985 . S
H714 N709 0.984 . S
H715 N709 0.985 . S
H716 N713 0.984 . S
H717 N713 0.985 . S
H718 N712 0.984 . S
H719 N712 0.984 . S
H720 N708 0.984 . S
H721 N708 0.985 . S
C722 C723 1.363 . S
C722 C728 1.379 . S
C722 N730 1.356 . S
C723 C722 1.363 . S
C723 C729 1.363 . S
C724 C725 1.363 . S
C724 C729 1.379 . S
C724 N731 1.356 . S
C725 C724 1.363 . S
C725 C728 1.363 . S
N726 C728 1.356 . S
N726 H738 0.984 . S
N726 H739 0.985 . S
N727 C729 1.356 . S
N727 H732 0.984 . S
N727 H733 0.985 . S
C728 C722 1.379 . S
C728 C725 1.363 . S
C728 N726 1.356 . S
C729 C723 1.363 . S
C729 C724 1.379 . S
C729 N727 1.356 . S
N730 C722 1.356 . S
N730 H736 0.984 . S
N730 H737 0.984 . S
N731 C724 1.356 . S
N731 H734 0.984 . S
N731 H735 0.985 . S
H732 N727 0.984 . S
H733 N727 0.985 . S
H734 N731 0.984 . S
H735 N731 0.985 . S
H736 N730 0.984 . S
H737 N730 0.984 . S
H738 N726 0.984 . S
H739 N726 0.985 . S
C740 C741 1.363 . S
C740 C746 1.379 . S
C740 N748 1.356 . S
C741 C740 1.363 . S
C741 C747 1.363 . S
C742 C743 1.363 . S
C742 C747 1.379 . S
C742 N749 1.356 . S
C743 C742 1.363 . S
C743 C746 1.363 . S
N744 C746 1.356 . S
N744 H756 0.984 . S
N744 H757 0.985 . S
N745 C747 1.356 . S
N745 H750 0.984 . S
N745 H751 0.985 . S
C746 C740 1.379 . S
C746 C743 1.363 . S
C746 N744 1.356 . S
C747 C741 1.363 . S
C747 C742 1.379 . S
C747 N745 1.356 . S
N748 C740 1.356 . S
N748 H754 0.984 . S
N748 H755 0.984 . S
N749 C742 1.356 . S
N749 H752 0.984 . S
N749 H753 0.985 . S
H750 N745 0.984 . S
H751 N745 0.985 . S
H752 N749 0.984 . S
H753 N749 0.985 . S
H754 N748 0.984 . S
H755 N748 0.984 . S
H756 N744 0.984 . S
H757 N744 0.985 . S
C758 C759 1.363 . S
C758 C764 1.379 . S
C758 N766 1.356 . S
C759 C758 1.363 . S
C759 C765 1.363 . S
C760 C761 1.363 . S
C760 C765 1.379 . S
C760 N767 1.356 . S
C761 C760 1.363 . S
C761 C764 1.363 . S
N762 C764 1.356 . S
N762 H774 0.984 . S
N762 H775 0.985 . S
N763 C765 1.356 . S
N763 H768 0.984 . S
N763 H769 0.985 . S
C764 C758 1.379 . S
C764 C761 1.363 . S
C764 N762 1.356 . S
C765 C759 1.363 . S
C765 C760 1.379 . S
C765 N763 1.356 . S
N766 C758 1.356 . S
N766 H772 0.984 . S
N766 H773 0.984 . S
N767 C760 1.356 . S
N767 H770 0.984 . S
N767 H771 0.985 . S
H768 N763 0.984 . S
H769 N763 0.985 . S
H770 N767 0.984 . S
H771 N767 0.985 . S
H772 N766 0.984 . S
H773 N766 0.984 . S
H774 N762 0.984 . S
H775 N762 0.985 . S
C776 C777 1.363 . S
C776 C782 1.379 . S
C776 N784 1.356 . S
C777 C776 1.363 . S
C777 C783 1.363 . S
C778 C779 1.367 . S
C778 C783 1.379 . S
C778 N785 1.356 . S
C779 C778 1.367 . S
C779 C782 1.363 . S
N780 C782 1.356 1_455 S
N780 H792 0.984 1_545 S
N780 H793 0.985 . S
N781 C783 1.356 . S
N781 H786 0.984 . S
N781 H787 0.985 . S
C782 C776 1.379 . S
C782 C779 1.363 . S
C782 N780 1.356 1_655 S
C783 C777 1.363 . S
C783 C778 1.379 . S
C783 N781 1.356 . S
N784 C776 1.356 . S
N784 H790 0.984 1_545 S
N784 H791 0.984 . S
N785 C778 1.356 . S
N785 H788 0.984 1_655 S
N785 H789 0.985 . S
H786 N781 0.984 . S
H787 N781 0.985 . S
H788 N785 0.984 1_455 S
H789 N785 0.985 . S
H790 N784 0.984 1_565 S
H791 N784 0.984 . S
H792 N780 0.984 1_565 S
H793 N780 0.985 . S
C794 C795 1.363 . S
C794 C800 1.379 . S
C794 N802 1.356 . S
C795 C794 1.363 . S
C795 C801 1.363 . S
C796 C797 1.363 . S
C796 C801 1.379 . S
C796 N803 1.356 . S
C797 C796 1.363 . S
C797 C800 1.363 . S
N798 C800 1.356 . S
N798 H810 0.984 . S
N798 H811 0.985 . S
N799 C801 1.356 . S
N799 H804 0.984 . S
N799 H805 0.985 . S
C800 C794 1.379 . S
C800 C797 1.363 . S
C800 N798 1.356 . S
C801 C795 1.363 . S
C801 C796 1.379 . S
C801 N799 1.356 . S
N802 C794 1.356 . S
N802 H808 0.984 . S
N802 H809 0.984 . S
N803 C796 1.356 . S
N803 H806 0.984 . S
N803 H807 0.985 . S
H804 N799 0.984 . S
H805 N799 0.985 . S
H806 N803 0.984 . S
H807 N803 0.985 . S
H808 N802 0.984 . S
H809 N802 0.984 . S
H810 N798 0.984 . S
H811 N798 0.985 . S
C812 C813 1.363 1_565 S
C812 C818 1.379 . S
C812 N820 1.356 . S
C813 C812 1.363 1_545 S
C813 C819 1.363 . S
C814 C815 1.363 . S
C814 C819 1.379 . S
C814 N821 1.356 . S
C815 C814 1.363 . S
C815 C818 1.363 1_545 S
N816 C818 1.356 . S
N816 H828 0.984 . S
N816 H829 0.985 . S
N817 C819 1.356 . S
N817 H822 0.984 . S
N817 H823 0.985 . S
C818 C812 1.379 . S
C818 C815 1.363 1_565 S
C818 N816 1.356 . S
C819 C813 1.363 . S
C819 C814 1.379 . S
C819 N817 1.356 . S
N820 C812 1.356 . S
N820 H826 0.984 . S
N820 H827 0.984 . S
N821 C814 1.356 . S
N821 H824 0.984 . S
N821 H825 0.985 . S
H822 N817 0.984 . S
H823 N817 0.985 . S
H824 N821 0.984 . S
H825 N821 0.985 . S
H826 N820 0.984 . S
H827 N820 0.984 . S
H828 N816 0.984 . S
H829 N816 0.985 . S
C830 C831 1.363 . S
C830 C836 1.379 . S
C830 N838 1.356 . S
C831 C830 1.363 . S
C831 C837 1.363 . S
C832 C833 1.363 . S
C832 C837 1.379 . S
C832 N839 1.356 . S
C833 C832 1.363 . S
C833 C836 1.363 . S
N834 C836 1.356 . S
N834 H846 0.984 . S
N834 H847 0.985 . S
N835 C837 1.356 . S
N835 H840 0.984 . S
N835 H841 0.985 . S
C836 C830 1.379 . S
C836 C833 1.363 . S
C836 N834 1.356 . S
C837 C831 1.363 . S
C837 C832 1.379 . S
C837 N835 1.356 . S
N838 C830 1.356 . S
N838 H844 0.984 . S
N838 H845 0.984 . S
N839 C832 1.356 . S
N839 H842 0.984 . S
N839 H843 0.985 . S
H840 N835 0.984 . S
H841 N835 0.985 . S
H842 N839 0.984 . S
H843 N839 0.985 . S
H844 N838 0.984 . S
H845 N838 0.984 . S
H846 N834 0.984 . S
H847 N834 0.985 . S
C848 C849 1.363 . S
C848 C854 1.388 . S
C848 N856 1.356 . S
C849 C848 1.363 . S
C849 C855 1.363 . S
C850 C851 1.363 . S
C850 C855 1.379 . S
C850 N857 1.356 1_655 S
C851 C850 1.363 . S
C851 C854 1.368 . S
N852 C854 1.342 1_565 S
N852 H864 0.984 . S
N852 H865 0.985 . S
N853 C855 1.356 . S
N853 H858 0.984 . S
N853 H859 0.985 . S
C854 C848 1.388 . S
C854 C851 1.368 . S
C854 N852 1.342 1_545 S
C855 C849 1.363 . S
C855 C850 1.379 . S
C855 N853 1.356 . S
N856 C848 1.356 . S
N856 H862 0.984 1_545 S
N856 H863 0.984 . S
N857 C850 1.356 1_455 S
N857 H860 0.984 . S
N857 H861 0.985 . S
H858 N853 0.984 . S
H859 N853 0.985 . S
H860 N857 0.984 . S
H861 N857 0.985 . S
H862 N856 0.984 1_565 S
H863 N856 0.984 . S
H864 N852 0.984 . S
H865 N852 0.985 . S
C866 C867 1.363 . S
C866 C872 1.379 . S
C866 N874 1.356 . S
C867 C866 1.363 . S
C867 C873 1.363 . S
C868 C869 1.363 . S
C868 C873 1.379 . S
C868 N875 1.356 . S
C869 C868 1.363 . S
C869 C872 1.363 . S
N870 C872 1.356 . S
N870 H882 0.984 . S
N870 H883 0.985 . S
N871 C873 1.356 . S
N871 H876 0.984 . S
N871 H877 0.985 . S
C872 C866 1.379 . S
C872 C869 1.363 . S
C872 N870 1.356 . S
C873 C867 1.363 . S
C873 C868 1.379 . S
C873 N871 1.356 . S
N874 C866 1.356 . S
N874 H880 0.984 . S
N874 H881 0.984 . S
N875 C868 1.356 . S
N875 H878 0.984 . S
N875 H879 0.985 . S
H876 N871 0.984 . S
H877 N871 0.985 . S
H878 N875 0.984 . S
H879 N875 0.985 . S
H880 N874 0.984 . S
H881 N874 0.984 . S
H882 N870 0.984 . S
H883 N870 0.985 . S
C884 C885 1.363 . S
C884 C890 1.379 . S
C884 N892 1.356 . S
C885 C884 1.363 . S
C885 C891 1.363 . S
C886 C887 1.363 . S
C886 C891 1.379 . S
C886 N893 1.356 . S
C887 C886 1.363 . S
C887 C890 1.363 . S
N888 C890 1.356 . S
N888 H900 0.984 . S
N888 H901 0.985 . S
N889 C891 1.356 1_565 S
N889 H894 0.984 . S
N889 H895 0.985 . S
C890 C884 1.379 . S
C890 C887 1.363 . S
C890 N888 1.356 . S
C891 C885 1.363 . S
C891 C886 1.379 . S
C891 N889 1.356 1_545 S
N892 C884 1.356 . S
N892 H898 0.984 . S
N892 H899 0.984 . S
N893 C886 1.356 . S
N893 H896 0.984 . S
N893 H897 0.985 1_545 S
H894 N889 0.984 . S
H895 N889 0.985 . S
H896 N893 0.984 . S
H897 N893 0.985 1_565 S
H898 N892 0.984 . S
H899 N892 0.984 . S
H900 N888 0.984 . S
H901 N888 0.985 . S
C902 C903 1.363 . S
C902 C908 1.379 . S
C902 N910 1.356 . S
C903 C902 1.363 . S
C903 C909 1.363 . S
C904 C905 1.363 . S
C904 C909 1.379 . S
C904 N911 1.356 . S
C905 C904 1.363 . S
C905 C908 1.363 . S
N906 C908 1.356 . S
N906 H918 0.984 . S
N906 H919 0.985 . S
N907 C909 1.356 . S
N907 H912 0.984 . S
N907 H913 0.985 . S
C908 C902 1.379 . S
C908 C905 1.363 . S
C908 N906 1.356 . S
C909 C903 1.363 . S
C909 C904 1.379 . S
C909 N907 1.356 . S
N910 C902 1.356 . S
N910 H916 0.984 . S
N910 H917 0.984 . S
N911 C904 1.356 . S
N911 H914 0.984 . S
N911 H915 0.985 . S
H912 N907 0.984 . S
H913 N907 0.985 . S
H914 N911 0.984 . S
H915 N911 0.985 . S
H916 N910 0.984 . S
H917 N910 0.984 . S
H918 N906 0.984 . S
H919 N906 0.985 . S
C920 C921 1.363 . S
C920 C926 1.379 . S
C920 N928 1.356 1_554 S
C921 C920 1.363 . S
C921 C927 1.363 . S
C922 C923 1.363 . S
C922 C927 1.379 . S
C922 N929 1.358 . S
C923 C922 1.363 . S
C923 C926 1.363 . S
N924 C926 1.356 . S
N924 H936 0.984 1_554 S
N924 H937 0.985 1_565 S
N925 C927 1.356 . S
N925 H930 0.984 . S
N925 H931 0.985 . S
C926 C920 1.379 . S
C926 C923 1.363 . S
C926 N924 1.356 . S
C927 C921 1.363 . S
C927 C922 1.379 . S
C927 N925 1.356 . S
N928 C920 1.356 1_556 S
N928 H934 0.984 . S
N928 H935 0.984 . S
N929 C922 1.358 . S
N929 H932 0.982 1_565 S
N929 H933 0.986 . S
H930 N925 0.984 . S
H931 N925 0.985 . S
H932 N929 0.982 1_545 S
H933 N929 0.986 . S
H934 N928 0.984 . S
H935 N928 0.984 . S
H936 N924 0.984 1_556 S
H937 N924 0.985 1_545 S
C938 C939 1.363 1_554 S
C938 C944 1.379 . S
C938 N946 1.356 . S
C939 C938 1.363 1_556 S
C939 C945 1.363 . S
C940 C941 1.363 . S
C940 C945 1.379 . S
C940 N947 1.356 . S
C941 C940 1.363 . S
C941 C944 1.363 1_556 S
N942 C944 1.356 . S
N942 H954 0.984 . S
N942 H955 0.985 . S
N943 C945 1.356 . S
N943 H948 0.984 . S
N943 H949 0.985 . S
C944 C938 1.379 . S
C944 C941 1.363 1_554 S
C944 N942 1.356 . S
C945 C939 1.363 . S
C945 C940 1.379 . S
C945 N943 1.356 . S
N946 C938 1.356 . S
N946 H952 0.984 . S
N946 H953 0.984 . S
N947 C940 1.356 . S
N947 H950 0.984 . S
N947 H951 0.985 . S
H948 N943 0.984 . S
H949 N943 0.985 . S
H950 N947 0.984 . S
H951 N947 0.985 . S
H952 N946 0.984 . S
H953 N946 0.984 . S
H954 N942 0.984 . S
H955 N942 0.985 . S
C956 C957 1.363 . S
C956 C962 1.379 . S
C956 N964 1.356 . S
C957 C956 1.363 . S
C957 C963 1.363 . S
C958 C959 1.363 . S
C958 C963 1.379 . S
C958 N965 1.356 . S
C959 C958 1.363 . S
C959 C962 1.363 . S
N960 C962 1.356 . S
N960 H972 0.984 . S
N960 H973 0.985 . S
N961 C963 1.356 . S
N961 H966 0.984 . S
N961 H967 0.985 . S
C962 C956 1.379 . S
C962 C959 1.363 . S
C962 N960 1.356 . S
C963 C957 1.363 . S
C963 C958 1.379 . S
C963 N961 1.356 . S
N964 C956 1.356 . S
N964 H970 0.984 . S
N964 H971 0.984 . S
N965 C958 1.356 . S
N965 H968 0.984 . S
N965 H969 0.985 . S
H966 N961 0.984 . S
H967 N961 0.985 . S
H968 N965 0.984 . S
H969 N965 0.985 . S
H970 N964 0.984 . S
H971 N964 0.984 . S
H972 N960 0.984 . S
H973 N960 0.985 . S
C974 C975 1.363 . S
C974 C980 1.379 . S
C974 N982 1.356 . S
C975 C974 1.363 . S
C975 C981 1.363 . S
C976 C977 1.363 . S
C976 C981 1.379 . S
C976 N983 1.356 . S
C977 C976 1.363 . S
C977 C980 1.363 . S
N978 C980 1.356 . S
N978 H990 0.984 . S
N978 H991 0.985 . S
N979 C981 1.356 . S
N979 H984 0.984 . S
N979 H985 0.985 . S
C980 C974 1.379 . S
C980 C977 1.363 . S
C980 N978 1.356 . S
C981 C975 1.363 . S
C981 C976 1.379 . S
C981 N979 1.356 . S
N982 C974 1.356 . S
N982 H988 0.984 . S
N982 H989 0.984 . S
N983 C976 1.356 . S
N983 H986 0.984 . S
N983 H987 0.985 . S
H984 N979 0.984 . S
H985 N979 0.985 . S
H986 N983 0.984 . S
H987 N983 0.985 . S
H988 N982 0.984 . S
H989 N982 0.984 . S
H990 N978 0.984 . S
H991 N978 0.985 . S
C992 C993 1.363 . S
C992 C998 1.379 . S
C992 N1000 1.356 . S
C993 C992 1.363 . S
C993 C999 1.363 . S
C994 C995 1.363 . S
C994 C999 1.379 . S
C994 N1001 1.356 . S
C995 C994 1.363 . S
C995 C998 1.363 . S
N996 C998 1.356 . S
N996 H1008 0.984 . S
N996 H1009 0.985 . S
N997 C999 1.356 . S
N997 H1002 0.984 . S
N997 H1003 0.985 . S
C998 C992 1.379 . S
C998 C995 1.363 . S
C998 N996 1.356 . S
C999 C993 1.363 . S
C999 C994 1.379 . S
C999 N997 1.356 . S
N1000 C992 1.356 . S
N1000 H1006 0.984 . S
N1000 H1007 0.984 . S
N1001 C994 1.356 . S
N1001 H1004 0.984 . S
N1001 H1005 0.985 . S
H1002 N997 0.984 . S
H1003 N997 0.985 . S
H1004 N1001 0.984 . S
H1005 N1001 0.985 . S
H1006 N1000 0.984 . S
H1007 N1000 0.984 . S
H1008 N996 0.984 . S
H1009 N996 0.985 . S
C1010 C1011 1.363 . S
C1010 C1016 1.379 . S
C1010 N1018 1.356 . S
C1011 C1010 1.363 . S
C1011 C1017 1.363 . S
C1012 C1013 1.363 . S
C1012 C1017 1.379 . S
C1012 N1019 1.356 . S
C1013 C1012 1.363 . S
C1013 C1016 1.363 . S
N1014 C1016 1.356 . S
N1014 H1026 0.984 . S
N1014 H1027 0.985 . S
N1015 C1017 1.356 . S
N1015 H1020 0.984 . S
N1015 H1021 0.985 . S
C1016 C1010 1.379 . S
C1016 C1013 1.363 . S
C1016 N1014 1.356 . S
C1017 C1011 1.363 . S
C1017 C1012 1.379 . S
C1017 N1015 1.356 . S
N1018 C1010 1.356 . S
N1018 H1024 0.984 . S
N1018 H1025 0.984 . S
N1019 C1012 1.356 . S
N1019 H1022 0.984 . S
N1019 H1023 0.985 . S
H1020 N1015 0.984 . S
H1021 N1015 0.985 . S
H1022 N1019 0.984 . S
H1023 N1019 0.985 . S
H1024 N1018 0.984 . S
H1025 N1018 0.984 . S
H1026 N1014 0.984 . S
H1027 N1014 0.985 . S
C1028 C1029 1.363 . S
C1028 C1034 1.379 . S
C1028 N1036 1.356 . S
C1029 C1028 1.363 . S
C1029 C1035 1.363 . S
C1030 C1031 1.363 . S
C1030 C1035 1.379 . S
C1030 N1037 1.356 . S
C1031 C1030 1.363 . S
C1031 C1034 1.363 . S
N1032 C1034 1.356 . S
N1032 H1044 0.984 . S
N1032 H1045 0.985 . S
N1033 C1035 1.356 . S
N1033 H1038 0.984 . S
N1033 H1039 0.985 . S
C1034 C1028 1.379 . S
C1034 C1031 1.363 . S
C1034 N1032 1.356 . S
C1035 C1029 1.363 . S
C1035 C1030 1.379 . S
C1035 N1033 1.356 . S
N1036 C1028 1.356 . S
N1036 H1042 0.984 . S
N1036 H1043 0.984 . S
N1037 C1030 1.356 . S
N1037 H1040 0.984 . S
N1037 H1041 0.985 . S
H1038 N1033 0.984 . S
H1039 N1033 0.985 . S
H1040 N1037 0.984 . S
H1041 N1037 0.985 . S
H1042 N1036 0.984 . S
H1043 N1036 0.984 . S
H1044 N1032 0.984 . S
H1045 N1032 0.985 . S
C1046 C1047 1.363 . S
C1046 C1052 1.379 . S
C1046 N1054 1.356 . S
C1047 C1046 1.363 . S
C1047 C1053 1.363 . S
C1048 C1049 1.363 . S
C1048 C1053 1.379 . S
C1048 N1055 1.356 . S
C1049 C1048 1.363 . S
C1049 C1052 1.363 . S
N1050 C1052 1.356 . S
N1050 H1062 0.984 . S
N1050 H1063 0.985 . S
N1051 C1053 1.356 . S
N1051 H1056 0.984 . S
N1051 H1057 0.985 . S
C1052 C1046 1.379 . S
C1052 C1049 1.363 . S
C1052 N1050 1.356 . S
C1053 C1047 1.363 . S
C1053 C1048 1.379 . S
C1053 N1051 1.356 . S
N1054 C1046 1.356 . S
N1054 H1060 0.984 . S
N1054 H1061 0.984 . S
N1055 C1048 1.356 . S
N1055 H1058 0.984 . S
N1055 H1059 0.985 . S
H1056 N1051 0.984 . S
H1057 N1051 0.985 . S
H1058 N1055 0.984 . S
H1059 N1055 0.985 . S
H1060 N1054 0.984 . S
H1061 N1054 0.984 . S
H1062 N1050 0.984 . S
H1063 N1050 0.985 . S
C1064 C1065 1.363 . S
C1064 C1070 1.379 . S
C1064 N1072 1.356 . S
C1065 C1064 1.363 . S
C1065 C1071 1.363 . S
C1066 C1067 1.363 . S
C1066 C1071 1.379 . S
C1066 N1073 1.356 1_455 S
C1067 C1066 1.363 . S
C1067 C1070 1.363 . S
N1068 C1070 1.356 . S
N1068 H1080 0.984 . S
N1068 H1081 0.985 . S
N1069 C1071 1.356 . S
N1069 H1074 0.984 . S
N1069 H1075 0.985 1_455 S
C1070 C1064 1.379 . S
C1070 C1067 1.363 . S
C1070 N1068 1.356 . S
C1071 C1065 1.363 . S
C1071 C1066 1.379 . S
C1071 N1069 1.356 . S
N1072 C1064 1.356 . S
N1072 H1078 0.984 . S
N1072 H1079 0.984 . S
N1073 C1066 1.356 1_655 S
N1073 H1076 0.984 . S
N1073 H1077 0.985 . S
H1074 N1069 0.984 . S
H1075 N1069 0.985 1_655 S
H1076 N1073 0.984 . S
H1077 N1073 0.985 . S
H1078 N1072 0.984 . S
H1079 N1072 0.984 . S
H1080 N1068 0.984 . S
H1081 N1068 0.985 . S
C1082 C1083 1.363 . S
C1082 C1088 1.379 . S
C1082 N1090 1.356 . S
C1083 C1082 1.363 . S
C1083 C1089 1.363 . S
C1084 C1085 1.363 . S
C1084 C1089 1.379 . S
C1084 N1091 1.356 . S
C1085 C1084 1.363 . S
C1085 C1088 1.363 . S
N1086 C1088 1.356 . S
N1086 H1098 0.984 . S
N1086 H1099 0.985 . S
N1087 C1089 1.356 . S
N1087 H1092 0.984 . S
N1087 H1093 0.985 . S
C1088 C1082 1.379 . S
C1088 C1085 1.363 . S
C1088 N1086 1.356 . S
C1089 C1083 1.363 . S
C1089 C1084 1.379 . S
C1089 N1087 1.356 . S
N1090 C1082 1.356 . S
N1090 H1096 0.984 . S
N1090 H1097 0.984 . S
N1091 C1084 1.356 . S
N1091 H1094 0.984 . S
N1091 H1095 0.985 . S
H1092 N1087 0.984 . S
H1093 N1087 0.985 . S
H1094 N1091 0.984 . S
H1095 N1091 0.985 . S
H1096 N1090 0.984 . S
H1097 N1090 0.984 . S
H1098 N1086 0.984 . S
H1099 N1086 0.985 . S
C1100 C1101 1.363 . S
C1100 C1106 1.379 . S
C1100 N1108 1.356 . S
C1101 C1100 1.363 . S
C1101 C1107 1.363 . S
C1102 C1103 1.363 . S
C1102 C1107 1.379 . S
C1102 N1109 1.356 . S
C1103 C1102 1.363 . S
C1103 C1106 1.363 . S
N1104 C1106 1.356 . S
N1104 H1116 0.984 . S
N1104 H1117 0.985 . S
N1105 C1107 1.356 . S
N1105 H1110 0.984 . S
N1105 H1111 0.985 . S
C1106 C1100 1.379 . S
C1106 C1103 1.363 . S
C1106 N1104 1.356 . S
C1107 C1101 1.363 . S
C1107 C1102 1.379 . S
C1107 N1105 1.356 . S
N1108 C1100 1.356 . S
N1108 H1114 0.984 . S
N1108 H1115 0.984 . S
N1109 C1102 1.356 . S
N1109 H1112 0.984 . S
N1109 H1113 0.985 . S
H1110 N1105 0.984 . S
H1111 N1105 0.985 . S
H1112 N1109 0.984 . S
H1113 N1109 0.985 . S
H1114 N1108 0.984 . S
H1115 N1108 0.984 . S
H1116 N1104 0.984 . S
H1117 N1104 0.985 . S
C1118 C1119 1.363 . S
C1118 C1124 1.379 . S
C1118 N1126 1.356 . S
C1119 C1118 1.363 . S
C1119 C1125 1.363 . S
C1120 C1121 1.363 . S
C1120 C1125 1.379 . S
C1120 N1127 1.356 . S
C1121 C1120 1.363 . S
C1121 C1124 1.363 . S
N1122 C1124 1.356 . S
N1122 H1134 0.984 . S
N1122 H1135 0.985 . S
N1123 C1125 1.356 . S
N1123 H1128 0.984 . S
N1123 H1129 0.985 . S
C1124 C1118 1.379 . S
C1124 C1121 1.363 . S
C1124 N1122 1.356 . S
C1125 C1119 1.363 . S
C1125 C1120 1.379 . S
C1125 N1123 1.356 . S
N1126 C1118 1.356 . S
N1126 H1132 0.984 . S
N1126 H1133 0.984 . S
N1127 C1120 1.356 . S
N1127 H1130 0.984 . S
N1127 H1131 0.985 . S
H1128 N1123 0.984 . S
H1129 N1123 0.985 . S
H1130 N1127 0.984 . S
H1131 N1127 0.985 . S
H1132 N1126 0.984 . S
H1133 N1126 0.984 . S
H1134 N1122 0.984 . S
H1135 N1122 0.985 . S
C1136 C1137 1.363 . S
C1136 C1142 1.379 . S
C1136 N1144 1.356 . S
C1137 C1136 1.363 . S
C1137 C1143 1.363 . S
C1138 C1139 1.363 . S
C1138 C1143 1.379 . S
C1138 N1145 1.356 . S
C1139 C1138 1.363 . S
C1139 C1142 1.363 . S
N1140 C1142 1.356 1_655 S
N1140 H1152 0.984 . S
N1140 H1153 0.985 . S
N1141 C1143 1.356 . S
N1141 H1146 0.984 . S
N1141 H1147 0.985 . S
C1142 C1136 1.379 . S
C1142 C1139 1.363 . S
C1142 N1140 1.356 1_455 S
C1143 C1137 1.363 . S
C1143 C1138 1.379 . S
C1143 N1141 1.356 . S
N1144 C1136 1.356 . S
N1144 H1150 0.984 1_455 S
N1144 H1151 0.984 . S
N1145 C1138 1.356 . S
N1145 H1148 0.984 . S
N1145 H1149 0.985 . S
H1146 N1141 0.984 . S
H1147 N1141 0.985 . S
H1148 N1145 0.984 . S
H1149 N1145 0.985 . S
H1150 N1144 0.984 1_655 S
H1151 N1144 0.984 . S
H1152 N1140 0.984 . S
H1153 N1140 0.985 . S
C1154 C1155 1.363 . S
C1154 C1160 1.379 . S
C1154 N1162 1.356 . S
C1155 C1154 1.363 . S
C1155 C1161 1.363 . S
C1156 C1157 1.363 . S
C1156 C1161 1.379 . S
C1156 N1163 1.356 . S
C1157 C1156 1.363 . S
C1157 C1160 1.363 . S
N1158 C1160 1.356 . S
N1158 H1170 0.984 . S
N1158 H1171 0.985 . S
N1159 C1161 1.356 . S
N1159 H1164 0.984 . S
N1159 H1165 0.985 . S
C1160 C1154 1.379 . S
C1160 C1157 1.363 . S
C1160 N1158 1.356 . S
C1161 C1155 1.363 . S
C1161 C1156 1.379 . S
C1161 N1159 1.356 . S
N1162 C1154 1.356 . S
N1162 H1168 0.984 . S
N1162 H1169 0.984 . S
N1163 C1156 1.356 . S
N1163 H1166 0.984 . S
N1163 H1167 0.985 . S
H1164 N1159 0.984 . S
H1165 N1159 0.985 . S
H1166 N1163 0.984 . S
H1167 N1163 0.985 . S
H1168 N1162 0.984 . S
H1169 N1162 0.984 . S
H1170 N1158 0.984 . S
H1171 N1158 0.985 . S
C1172 C1173 1.363 . S
C1172 C1178 1.379 . S
C1172 N1180 1.356 . S
C1173 C1172 1.363 . S
C1173 C1179 1.363 . S
C1174 C1175 1.363 . S
C1174 C1179 1.379 . S
C1174 N1181 1.356 1_556 S
C1175 C1174 1.363 . S
C1175 C1178 1.363 . S
N1176 C1178 1.356 . S
N1176 H1188 0.984 . S
N1176 H1189 0.985 . S
N1177 C1179 1.356 . S
N1177 H1182 0.984 . S
N1177 H1183 0.985 . S
C1178 C1172 1.379 . S
C1178 C1175 1.363 . S
C1178 N1176 1.356 . S
C1179 C1173 1.363 . S
C1179 C1174 1.379 . S
C1179 N1177 1.356 . S
N1180 C1172 1.356 . S
N1180 H1186 0.984 . S
N1180 H1187 0.984 . S
N1181 C1174 1.356 1_554 S
N1181 H1184 0.984 . S
N1181 H1185 0.985 . S
H1182 N1177 0.984 . S
H1183 N1177 0.985 . S
H1184 N1181 0.984 . S
H1185 N1181 0.985 . S
H1186 N1180 0.984 . S
H1187 N1180 0.984 . S
H1188 N1176 0.984 . S
H1189 N1176 0.985 . S
C1190 C1191 1.363 . S
C1190 C1196 1.379 . S
C1190 N1198 1.356 . S
C1191 C1190 1.363 . S
C1191 C1197 1.363 . S
C1192 C1193 1.363 . S
C1192 C1197 1.379 . S
C1192 N1199 1.356 . S
C1193 C1192 1.363 . S
C1193 C1196 1.363 . S
N1194 C1196 1.356 . S
N1194 H1206 0.984 . S
N1194 H1207 0.985 . S
N1195 C1197 1.356 . S
N1195 H1200 0.984 . S
N1195 H1201 0.985 . S
C1196 C1190 1.379 . S
C1196 C1193 1.363 . S
C1196 N1194 1.356 . S
C1197 C1191 1.363 . S
C1197 C1192 1.379 . S
C1197 N1195 1.356 . S
N1198 C1190 1.356 . S
N1198 H1204 0.984 . S
N1198 H1205 0.984 . S
N1199 C1192 1.356 . S
N1199 H1202 0.984 . S
N1199 H1203 0.985 . S
H1200 N1195 0.984 . S
H1201 N1195 0.985 . S
H1202 N1199 0.984 . S
H1203 N1199 0.985 . S
H1204 N1198 0.984 . S
H1205 N1198 0.984 . S
H1206 N1194 0.984 . S
H1207 N1194 0.985 . S
C1208 C1209 1.363 . S
C1208 C1214 1.379 . S
C1208 N1216 1.356 . S
C1209 C1208 1.363 . S
C1209 C1215 1.363 1_545 S
C1210 C1211 1.363 1_565 S
C1210 C1215 1.379 . S
C1210 N1217 1.356 . S
C1211 C1210 1.363 1_545 S
C1211 C1214 1.363 . S
N1212 C1214 1.356 . S
N1212 H1224 0.984 . S
N1212 H1225 0.985 . S
N1213 C1215 1.356 . S
N1213 H1218 0.984 . S
N1213 H1219 0.985 . S
C1214 C1208 1.379 . S
C1214 C1211 1.363 . S
C1214 N1212 1.356 . S
C1215 C1209 1.363 1_565 S
C1215 C1210 1.379 . S
C1215 N1213 1.356 . S
N1216 C1208 1.356 . S
N1216 H1222 0.984 . S
N1216 H1223 0.984 . S
N1217 C1210 1.356 . S
N1217 H1220 0.984 . S
N1217 H1221 0.985 . S
H1218 N1213 0.984 . S
H1219 N1213 0.985 . S
H1220 N1217 0.984 . S
H1221 N1217 0.985 . S
H1222 N1216 0.984 . S
H1223 N1216 0.984 . S
H1224 N1212 0.984 . S
H1225 N1212 0.985 . S
C1226 C1227 1.363 . S
C1226 C1232 1.379 . S
C1226 N1234 1.356 . S
C1227 C1226 1.363 . S
C1227 C1233 1.363 . S
C1228 C1229 1.363 . S
C1228 C1233 1.379 . S
C1228 N1235 1.356 . S
C1229 C1228 1.363 . S
C1229 C1232 1.363 . S
N1230 C1232 1.356 . S
N1230 H1242 0.984 . S
N1230 H1243 0.985 . S
N1231 C1233 1.356 . S
N1231 H1236 0.984 . S
N1231 H1237 0.985 . S
C1232 C1226 1.379 . S
C1232 C1229 1.363 . S
C1232 N1230 1.356 . S
C1233 C1227 1.363 . S
C1233 C1228 1.379 . S
C1233 N1231 1.356 . S
N1234 C1226 1.356 . S
N1234 H1240 0.984 . S
N1234 H1241 0.984 . S
N1235 C1228 1.356 . S
N1235 H1238 0.984 . S
N1235 H1239 0.985 . S
H1236 N1231 0.984 . S
H1237 N1231 0.985 . S
H1238 N1235 0.984 . S
H1239 N1235 0.985 . S
H1240 N1234 0.984 . S
H1241 N1234 0.984 . S
H1242 N1230 0.984 . S
H1243 N1230 0.985 . S
C1244 C1245 1.363 . S
C1244 C1250 1.379 . S
C1244 N1252 1.356 . S
C1245 C1244 1.363 . S
C1245 C1251 1.363 1_545 S
C1246 C1247 1.363 1_565 S
C1246 C1251 1.379 . S
C1246 N1253 1.356 . S
C1247 C1246 1.363 1_545 S
C1247 C1250 1.363 . S
N1248 C1250 1.356 . S
N1248 H1260 0.984 . S
N1248 H1261 0.985 . S
N1249 C1251 1.356 . S
N1249 H1254 0.984 . S
N1249 H1255 0.985 . S
C1250 C1244 1.379 . S
C1250 C1247 1.363 . S
C1250 N1248 1.356 . S
C1251 C1245 1.363 1_565 S
C1251 C1246 1.379 . S
C1251 N1249 1.356 . S
N1252 C1244 1.356 . S
N1252 H1258 0.984 . S
N1252 H1259 0.984 . S
N1253 C1246 1.356 . S
N1253 H1256 0.984 . S
N1253 H1257 0.985 . S
H1254 N1249 0.984 . S
H1255 N1249 0.985 . S
H1256 N1253 0.984 . S
H1257 N1253 0.985 . S
H1258 N1252 0.984 . S
H1259 N1252 0.984 . S
H1260 N1248 0.984 . S
H1261 N1248 0.985 . S
C1262 C1263 1.363 . S
C1262 C1268 1.379 . S
C1262 N1270 1.356 . S
C1263 C1262 1.363 . S
C1263 C1269 1.363 . S
C1264 C1265 1.363 . S
C1264 C1269 1.379 . S
C1264 N1271 1.356 . S
C1265 C1264 1.363 . S
C1265 C1268 1.363 . S
N1266 C1268 1.356 . S
N1266 H1278 0.984 . S
N1266 H1279 0.985 . S
N1267 C1269 1.356 . S
N1267 H1272 0.984 . S
N1267 H1273 0.985 . S
C1268 C1262 1.379 . S
C1268 C1265 1.363 . S
C1268 N1266 1.356 . S
C1269 C1263 1.363 . S
C1269 C1264 1.379 . S
C1269 N1267 1.356 . S
N1270 C1262 1.356 . S
N1270 H1276 0.984 . S
N1270 H1277 0.984 . S
N1271 C1264 1.356 . S
N1271 H1274 0.984 . S
N1271 H1275 0.985 . S
H1272 N1267 0.984 . S
H1273 N1267 0.985 . S
H1274 N1271 0.984 . S
H1275 N1271 0.985 . S
H1276 N1270 0.984 . S
H1277 N1270 0.984 . S
H1278 N1266 0.984 . S
H1279 N1266 0.985 . S
C1280 C1281 1.363 1_545 S
C1280 C1286 1.379 . S
C1280 N1288 1.356 . S
C1281 C1280 1.363 1_565 S
C1281 C1287 1.363 . S
C1282 C1283 1.363 1_565 S
C1282 C1287 1.379 . S
C1282 N1289 1.356 . S
C1283 C1282 1.363 1_545 S
C1283 C1286 1.363 . S
N1284 C1286 1.356 . S
N1284 H1296 0.984 . S
N1284 H1297 0.985 . S
N1285 C1287 1.356 . S
N1285 H1290 0.984 . S
N1285 H1291 0.985 . S
C1286 C1280 1.379 . S
C1286 C1283 1.363 . S
C1286 N1284 1.356 . S
C1287 C1281 1.363 . S
C1287 C1282 1.379 . S
C1287 N1285 1.356 . S
N1288 C1280 1.356 . S
N1288 H1294 0.984 . S
N1288 H1295 0.984 . S
N1289 C1282 1.356 . S
N1289 H1292 0.984 . S
N1289 H1293 0.985 . S
H1290 N1285 0.984 . S
H1291 N1285 0.985 . S
H1292 N1289 0.984 . S
H1293 N1289 0.985 . S
H1294 N1288 0.984 . S
H1295 N1288 0.984 . S
H1296 N1284 0.984 . S
H1297 N1284 0.985 . S
C1298 C1299 1.363 . S
C1298 C1304 1.379 . S
C1298 N1306 1.356 . S
C1299 C1298 1.363 . S
C1299 C1305 1.363 . S
C1300 C1301 1.363 . S
C1300 C1305 1.379 . S
C1300 N1307 1.356 . S
C1301 C1300 1.363 . S
C1301 C1304 1.363 . S
N1302 C1304 1.356 . S
N1302 H1314 0.984 . S
N1302 H1315 0.985 . S
N1303 C1305 1.356 . S
N1303 H1308 0.984 . S
N1303 H1309 0.985 . S
C1304 C1298 1.379 . S
C1304 C1301 1.363 . S
C1304 N1302 1.356 . S
C1305 C1299 1.363 . S
C1305 C1300 1.379 . S
C1305 N1303 1.356 . S
N1306 C1298 1.356 . S
N1306 H1312 0.984 . S
N1306 H1313 0.984 . S
N1307 C1300 1.356 . S
N1307 H1310 0.984 . S
N1307 H1311 0.985 . S
H1308 N1303 0.984 . S
H1309 N1303 0.985 . S
H1310 N1307 0.984 . S
H1311 N1307 0.985 . S
H1312 N1306 0.984 . S
H1313 N1306 0.984 . S
H1314 N1302 0.984 . S
H1315 N1302 0.985 . S
C1316 C1317 1.363 1_565 S
C1316 C1322 1.379 . S
C1316 N1324 1.356 . S
C1317 C1316 1.363 1_545 S
C1317 C1323 1.363 . S
C1318 C1319 1.363 . S
C1318 C1323 1.379 . S
C1318 N1325 1.356 . S
C1319 C1318 1.363 . S
C1319 C1322 1.363 1_545 S
N1320 C1322 1.356 . S
N1320 H1332 0.984 . S
N1320 H1333 0.985 . S
N1321 C1323 1.356 . S
N1321 H1326 0.984 . S
N1321 H1327 0.985 . S
C1322 C1316 1.379 . S
C1322 C1319 1.363 1_565 S
C1322 N1320 1.356 . S
C1323 C1317 1.363 . S
C1323 C1318 1.379 . S
C1323 N1321 1.356 . S
N1324 C1316 1.356 . S
N1324 H1330 0.984 . S
N1324 H1331 0.984 . S
N1325 C1318 1.356 . S
N1325 H1328 0.984 . S
N1325 H1329 0.985 . S
H1326 N1321 0.984 . S
H1327 N1321 0.985 . S
H1328 N1325 0.984 . S
H1329 N1325 0.985 . S
H1330 N1324 0.984 . S
H1331 N1324 0.984 . S
H1332 N1320 0.984 . S
H1333 N1320 0.985 . S
C1334 C1335 1.363 . S
C1334 C1340 1.379 . S
C1334 N1342 1.356 . S
C1335 C1334 1.363 . S
C1335 C1341 1.363 . S
C1336 C1337 1.363 . S
C1336 C1341 1.379 . S
C1336 N1343 1.356 . S
C1337 C1336 1.363 . S
C1337 C1340 1.363 . S
N1338 C1340 1.356 . S
N1338 H1350 0.984 . S
N1338 H1351 0.985 . S
N1339 C1341 1.356 . S
N1339 H1344 0.984 . S
N1339 H1345 0.985 . S
C1340 C1334 1.379 . S
C1340 C1337 1.363 . S
C1340 N1338 1.356 . S
C1341 C1335 1.363 . S
C1341 C1336 1.379 . S
C1341 N1339 1.356 . S
N1342 C1334 1.356 . S
N1342 H1348 0.984 . S
N1342 H1349 0.984 . S
N1343 C1336 1.356 . S
N1343 H1346 0.984 . S
N1343 H1347 0.985 . S
H1344 N1339 0.984 . S
H1345 N1339 0.985 . S
H1346 N1343 0.984 . S
H1347 N1343 0.985 . S
H1348 N1342 0.984 . S
H1349 N1342 0.984 . S
H1350 N1338 0.984 . S
H1351 N1338 0.985 . S
C1352 C1353 1.363 1_556 S
C1352 C1358 1.379 . S
C1352 N1360 1.356 . S
C1353 C1352 1.363 1_554 S
C1353 C1359 1.363 . S
C1354 C1355 1.363 1_554 S
C1354 C1359 1.379 . S
C1354 N1361 1.356 . S
C1355 C1354 1.363 1_556 S
C1355 C1358 1.363 . S
N1356 C1358 1.356 . S
N1356 H1368 0.984 . S
N1356 H1369 0.985 . S
N1357 C1359 1.356 . S
N1357 H1362 0.984 . S
N1357 H1363 0.985 . S
C1358 C1352 1.379 . S
C1358 C1355 1.363 . S
C1358 N1356 1.356 . S
C1359 C1353 1.363 . S
C1359 C1354 1.379 . S
C1359 N1357 1.356 . S
N1360 C1352 1.356 . S
N1360 H1366 0.984 . S
N1360 H1367 0.984 1_556 S
N1361 C1354 1.356 . S
N1361 H1364 0.984 . S
N1361 H1365 0.985 . S
H1362 N1357 0.984 . S
H1363 N1357 0.985 . S
H1364 N1361 0.984 . S
H1365 N1361 0.985 . S
H1366 N1360 0.984 . S
H1367 N1360 0.984 1_554 S
H1368 N1356 0.984 . S
H1369 N1356 0.985 . S
C1370 C1371 1.363 1_556 S
C1370 C1376 1.379 . S
C1370 N1378 1.356 . S
C1371 C1370 1.363 1_554 S
C1371 C1377 1.363 . S
C1372 C1373 1.363 . S
C1372 C1377 1.379 . S
C1372 N1379 1.356 . S
C1373 C1372 1.363 . S
C1373 C1376 1.363 1_554 S
N1374 C1376 1.356 . S
N1374 H1386 0.984 . S
N1374 H1387 0.985 . S
N1375 C1377 1.356 . S
N1375 H1380 0.984 . S
N1375 H1381 0.985 . S
C1376 C1370 1.379 . S
C1376 C1373 1.363 1_556 S
C1376 N1374 1.356 . S
C1377 C1371 1.363 . S
C1377 C1372 1.379 . S
C1377 N1375 1.356 . S
N1378 C1370 1.356 . S
N1378 H1384 0.984 . S
N1378 H1385 0.984 . S
N1379 C1372 1.356 . S
N1379 H1382 0.984 . S
N1379 H1383 0.985 . S
H1380 N1375 0.984 . S
H1381 N1375 0.985 . S
H1382 N1379 0.984 . S
H1383 N1379 0.985 . S
H1384 N1378 0.984 . S
H1385 N1378 0.984 . S
H1386 N1374 0.984 . S
H1387 N1374 0.985 . S
C1388 C1389 1.363 . S
C1388 C1394 1.379 . S
C1388 N1396 1.356 . S
C1389 C1388 1.363 . S
C1389 C1395 1.363 . S
C1390 C1391 1.363 . S
C1390 C1395 1.379 . S
C1390 N1397 1.356 . S
C1391 C1390 1.363 . S
C1391 C1394 1.363 . S
N1392 C1394 1.356 . S
N1392 H1404 0.984 . S
N1392 H1405 0.985 . S
N1393 C1395 1.356 . S
N1393 H1398 0.984 . S
N1393 H1399 0.985 . S
C1394 C1388 1.379 . S
C1394 C1391 1.363 . S
C1394 N1392 1.356 . S
C1395 C1389 1.363 . S
C1395 C1390 1.379 . S
C1395 N1393 1.356 . S
N1396 C1388 1.356 . S
N1396 H1402 0.984 . S
N1396 H1403 0.984 . S
N1397 C1390 1.356 . S
N1397 H1400 0.984 . S
N1397 H1401 0.985 . S
H1398 N1393 0.984 . S
H1399 N1393 0.985 . S
H1400 N1397 0.984 . S
H1401 N1397 0.985 . S
H1402 N1396 0.984 . S
H1403 N1396 0.984 . S
H1404 N1392 0.984 . S
H1405 N1392 0.985 . S
C1406 C1407 1.363 . S
C1406 C1412 1.379 . S
C1406 N1414 1.356 . S
C1407 C1406 1.363 . S
C1407 C1413 1.363 . S
C1408 C1409 1.363 . S
C1408 C1413 1.379 . S
C1408 N1415 1.356 . S
C1409 C1408 1.363 . S
C1409 C1412 1.363 . S
N1410 C1412 1.356 . S
N1410 H1422 0.984 . S
N1410 H1423 0.985 . S
N1411 C1413 1.356 . S
N1411 H1416 0.984 . S
N1411 H1417 0.985 . S
C1412 C1406 1.379 . S
C1412 C1409 1.363 . S
C1412 N1410 1.356 . S
C1413 C1407 1.363 . S
C1413 C1408 1.379 . S
C1413 N1411 1.356 . S
N1414 C1406 1.356 . S
N1414 H1420 0.984 . S
N1414 H1421 0.984 . S
N1415 C1408 1.356 . S
N1415 H1418 0.984 . S
N1415 H1419 0.985 . S
H1416 N1411 0.984 . S
H1417 N1411 0.985 . S
H1418 N1415 0.984 . S
H1419 N1415 0.985 . S
H1420 N1414 0.984 . S
H1421 N1414 0.984 . S
H1422 N1410 0.984 . S
H1423 N1410 0.985 . S
C1424 C1425 1.363 . S
C1424 C1430 1.379 . S
C1424 N1432 1.356 . S
C1425 C1424 1.363 . S
C1425 C1431 1.363 . S
C1426 C1427 1.363 . S
C1426 C1431 1.379 . S
C1426 N1433 1.356 . S
C1427 C1426 1.363 . S
C1427 C1430 1.363 . S
N1428 C1430 1.356 . S
N1428 H1440 0.984 . S
N1428 H1441 0.985 . S
N1429 C1431 1.356 . S
N1429 H1434 0.984 . S
N1429 H1435 0.985 . S
C1430 C1424 1.379 . S
C1430 C1427 1.363 . S
C1430 N1428 1.356 . S
C1431 C1425 1.363 . S
C1431 C1426 1.379 . S
C1431 N1429 1.356 . S
N1432 C1424 1.356 . S
N1432 H1438 0.984 . S
N1432 H1439 0.984 . S
N1433 C1426 1.356 . S
N1433 H1436 0.984 . S
N1433 H1437 0.985 . S
H1434 N1429 0.984 . S
H1435 N1429 0.985 . S
H1436 N1433 0.984 . S
H1437 N1433 0.985 . S
H1438 N1432 0.984 . S
H1439 N1432 0.984 . S
H1440 N1428 0.984 . S
H1441 N1428 0.985 . S
C1442 C1443 1.363 . S
C1442 C1448 1.379 . S
C1442 N1450 1.356 . S
C1443 C1442 1.363 . S
C1443 C1449 1.363 . S
C1444 C1445 1.363 . S
C1444 C1449 1.379 . S
C1444 N1451 1.356 . S
C1445 C1444 1.363 . S
C1445 C1448 1.363 . S
N1446 C1448 1.356 . S
N1446 H1458 0.984 1_565 S
N1446 H1459 0.985 . S
N1447 C1449 1.356 . S
N1447 H1452 0.984 . S
N1447 H1453 0.985 . S
C1448 C1442 1.379 . S
C1448 C1445 1.363 . S
C1448 N1446 1.356 . S
C1449 C1443 1.363 . S
C1449 C1444 1.379 . S
C1449 N1447 1.356 . S
N1450 C1442 1.356 . S
N1450 H1456 0.984 . S
N1450 H1457 0.984 . S
N1451 C1444 1.356 . S
N1451 H1454 0.984 . S
N1451 H1455 0.985 . S
H1452 N1447 0.984 . S
H1453 N1447 0.985 . S
H1454 N1451 0.984 . S
H1455 N1451 0.985 . S
H1456 N1450 0.984 . S
H1457 N1450 0.984 . S
H1458 N1446 0.984 1_545 S
H1459 N1446 0.985 . S
C1460 C1461 1.363 . S
C1460 C1466 1.379 . S
C1460 N1468 1.356 . S
C1461 C1460 1.363 . S
C1461 C1467 1.363 . S
C1462 C1463 1.363 . S
C1462 C1467 1.379 . S
C1462 N1469 1.356 . S
C1463 C1462 1.363 . S
C1463 C1466 1.363 . S
N1464 C1466 1.356 . S
N1464 H1476 0.984 . S
N1464 H1477 0.985 . S
N1465 C1467 1.356 . S
N1465 H1470 0.984 . S
N1465 H1471 0.985 . S
C1466 C1460 1.379 . S
C1466 C1463 1.363 . S
C1466 N1464 1.356 . S
C1467 C1461 1.363 . S
C1467 C1462 1.379 . S
C1467 N1465 1.356 . S
N1468 C1460 1.356 . S
N1468 H1474 0.984 . S
N1468 H1475 0.984 . S
N1469 C1462 1.356 . S
N1469 H1472 0.984 . S
N1469 H1473 0.985 . S
H1470 N1465 0.984 . S
H1471 N1465 0.985 . S
H1472 N1469 0.984 . S
H1473 N1469 0.985 . S
H1474 N1468 0.984 . S
H1475 N1468 0.984 . S
H1476 N1464 0.984 . S
H1477 N1464 0.985 . S
C1478 C1479 1.363 . S
C1478 C1484 1.379 . S
C1478 N1486 1.356 . S
C1479 C1478 1.363 . S
C1479 C1485 1.363 . S
C1480 C1481 1.363 . S
C1480 C1485 1.379 . S
C1480 N1487 1.356 . S
C1481 C1480 1.363 . S
C1481 C1484 1.363 . S
N1482 C1484 1.356 . S
N1482 H1494 0.984 . S
N1482 H1495 0.985 . S
N1483 C1485 1.356 . S
N1483 H1488 0.984 . S
N1483 H1489 0.985 . S
C1484 C1478 1.379 . S
C1484 C1481 1.363 . S
C1484 N1482 1.356 . S
C1485 C1479 1.363 . S
C1485 C1480 1.379 . S
C1485 N1483 1.356 . S
N1486 C1478 1.356 . S
N1486 H1492 0.984 . S
N1486 H1493 0.984 . S
N1487 C1480 1.356 . S
N1487 H1490 0.984 . S
N1487 H1491 0.985 . S
H1488 N1483 0.984 . S
H1489 N1483 0.985 . S
H1490 N1487 0.984 . S
H1491 N1487 0.985 . S
H1492 N1486 0.984 . S
H1493 N1486 0.984 . S
H1494 N1482 0.984 . S
H1495 N1482 0.985 . S
C1496 C1497 1.363 . S
C1496 C1502 1.379 . S
C1496 N1504 1.356 . S
C1497 C1496 1.363 . S
C1497 C1503 1.363 . S
C1498 C1499 1.363 . S
C1498 C1503 1.379 . S
C1498 N1505 1.356 . S
C1499 C1498 1.363 . S
C1499 C1502 1.363 . S
N1500 C1502 1.356 . S
N1500 H1512 0.984 . S
N1500 H1513 0.985 . S
N1501 C1503 1.356 . S
N1501 H1506 0.984 . S
N1501 H1507 0.985 . S
C1502 C1496 1.379 . S
C1502 C1499 1.363 . S
C1502 N1500 1.356 . S
C1503 C1497 1.363 . S
C1503 C1498 1.379 . S
C1503 N1501 1.356 . S
N1504 C1496 1.356 . S
N1504 H1510 0.984 . S
N1504 H1511 0.984 . S
N1505 C1498 1.356 . S
N1505 H1508 0.984 . S
N1505 H1509 0.985 . S
H1506 N1501 0.984 . S
H1507 N1501 0.985 . S
H1508 N1505 0.984 . S
H1509 N1505 0.985 . S
H1510 N1504 0.984 . S
H1511 N1504 0.984 . S
H1512 N1500 0.984 . S
H1513 N1500 0.985 . S
C1514 C1515 1.363 . S
C1514 C1520 1.379 . S
C1514 N1522 1.356 . S
C1515 C1514 1.363 . S
C1515 C1521 1.363 . S
C1516 C1517 1.363 . S
C1516 C1521 1.379 . S
C1516 N1523 1.356 . S
C1517 C1516 1.363 . S
C1517 C1520 1.363 . S
N1518 C1520 1.356 . S
N1518 H1530 0.984 . S
N1518 H1531 0.985 . S
N1519 C1521 1.356 . S
N1519 H1524 0.984 . S
N1519 H1525 0.985 . S
C1520 C1514 1.379 . S
C1520 C1517 1.363 . S
C1520 N1518 1.356 . S
C1521 C1515 1.363 . S
C1521 C1516 1.379 . S
C1521 N1519 1.356 . S
N1522 C1514 1.356 . S
N1522 H1528 0.984 . S
N1522 H1529 0.984 . S
N1523 C1516 1.356 . S
N1523 H1526 0.984 . S
N1523 H1527 0.985 . S
H1524 N1519 0.984 . S
H1525 N1519 0.985 . S
H1526 N1523 0.984 . S
H1527 N1523 0.985 . S
H1528 N1522 0.984 . S
H1529 N1522 0.984 . S
H1530 N1518 0.984 . S
H1531 N1518 0.985 . S
C1532 C1533 1.363 . S
C1532 C1538 1.384 . S
C1532 N1540 1.356 1_455 S
C1533 C1532 1.363 . S
C1533 C1539 1.363 . S
C1534 C1535 1.360 1_554 S
C1534 C1539 1.379 1_554 S
C1534 N1541 1.356 . S
C1535 C1534 1.360 1_556 S
C1535 C1538 1.380 . S
N1536 C1538 1.347 1_655 S
N1536 H1548 0.984 . S
N1536 H1549 0.985 . S
N1537 C1539 1.356 . S
N1537 H1542 0.984 . S
N1537 H1543 0.985 . S
C1538 C1532 1.384 . S
C1538 C1535 1.380 . S
C1538 N1536 1.347 1_455 S
C1539 C1533 1.363 . S
C1539 C1534 1.379 1_556 S
C1539 N1537 1.356 . S
N1540 C1532 1.356 1_655 S
N1540 H1546 0.984 . S
N1540 H1547 0.993 . S
N1541 C1534 1.356 . S
N1541 H1544 0.984 . S
N1541 H1545 0.985 . S
H1542 N1537 0.984 . S
H1543 N1537 0.985 . S
H1544 N1541 0.984 . S
H1545 N1541 0.985 . S
H1546 N1540 0.984 . S
H1547 N1540 0.993 . S
H1548 N1536 0.984 . S
H1549 N1536 0.985 . S
C1550 C1551 1.363 . S
C1550 C1556 1.379 . S
C1550 N1558 1.356 . S
C1551 C1550 1.363 . S
C1551 C1557 1.363 . S
C1552 C1553 1.363 . S
C1552 C1557 1.379 . S
C1552 N1559 1.356 . S
C1553 C1552 1.363 . S
C1553 C1556 1.363 . S
N1554 C1556 1.356 . S
N1554 H1566 0.984 . S
N1554 H1567 0.985 . S
N1555 C1557 1.356 . S
N1555 H1560 0.984 . S
N1555 H1561 0.985 . S
C1556 C1550 1.379 . S
C1556 C1553 1.363 . S
C1556 N1554 1.356 . S
C1557 C1551 1.363 . S
C1557 C1552 1.379 . S
C1557 N1555 1.356 . S
N1558 C1550 1.356 . S
N1558 H1564 0.984 . S
N1558 H1565 0.984 . S
N1559 C1552 1.356 . S
N1559 H1562 0.984 . S
N1559 H1563 0.985 . S
H1560 N1555 0.984 . S
H1561 N1555 0.985 . S
H1562 N1559 0.984 . S
H1563 N1559 0.985 . S
H1564 N1558 0.984 . S
H1565 N1558 0.984 . S
H1566 N1554 0.984 . S
H1567 N1554 0.985 . S
C1568 C1569 1.363 . S
C1568 C1574 1.379 . S
C1568 N1576 1.356 . S
C1569 C1568 1.363 . S
C1569 C1575 1.363 . S
C1570 C1571 1.363 . S
C1570 C1575 1.379 . S
C1570 N1577 1.356 . S
C1571 C1570 1.363 . S
C1571 C1574 1.363 . S
N1572 C1574 1.356 . S
N1572 H1584 0.984 . S
N1572 H1585 0.985 . S
N1573 C1575 1.356 . S
N1573 H1578 0.984 . S
N1573 H1579 0.985 . S
C1574 C1568 1.379 . S
C1574 C1571 1.363 . S
C1574 N1572 1.356 . S
C1575 C1569 1.363 . S
C1575 C1570 1.379 . S
C1575 N1573 1.356 . S
N1576 C1568 1.356 . S
N1576 H1582 0.984 . S
N1576 H1583 0.984 . S
N1577 C1570 1.356 . S
N1577 H1580 0.984 . S
N1577 H1581 0.985 . S
H1578 N1573 0.984 . S
H1579 N1573 0.985 . S
H1580 N1577 0.984 . S
H1581 N1577 0.985 . S
H1582 N1576 0.984 . S
H1583 N1576 0.984 . S
H1584 N1572 0.984 . S
H1585 N1572 0.985 . S
C1586 C1587 1.363 . S
C1586 C1592 1.379 . S
C1586 N1594 1.356 . S
C1587 C1586 1.363 . S
C1587 C1593 1.363 . S
C1588 C1589 1.363 . S
C1588 C1593 1.379 . S
C1588 N1595 1.356 . S
C1589 C1588 1.363 . S
C1589 C1592 1.363 . S
N1590 C1592 1.356 . S
N1590 H1602 0.984 . S
N1590 H1603 0.985 . S
N1591 C1593 1.356 . S
N1591 H1596 0.984 . S
N1591 H1597 0.985 . S
C1592 C1586 1.379 . S
C1592 C1589 1.363 . S
C1592 N1590 1.356 . S
C1593 C1587 1.363 . S
C1593 C1588 1.379 . S
C1593 N1591 1.356 . S
N1594 C1586 1.356 . S
N1594 H1600 0.984 . S
N1594 H1601 0.984 . S
N1595 C1588 1.356 . S
N1595 H1598 0.984 . S
N1595 H1599 0.985 . S
H1596 N1591 0.984 . S
H1597 N1591 0.985 . S
H1598 N1595 0.984 . S
H1599 N1595 0.985 . S
H1600 N1594 0.984 . S
H1601 N1594 0.984 . S
H1602 N1590 0.984 . S
H1603 N1590 0.985 . S
C1604 C1605 1.363 1_455 S
C1604 C1610 1.379 . S
C1604 N1612 1.356 . S
C1605 C1604 1.363 1_655 S
C1605 C1611 1.363 . S
C1606 C1607 1.363 1_655 S
C1606 C1611 1.379 . S
C1606 N1613 1.356 . S
C1607 C1606 1.363 1_455 S
C1607 C1610 1.363 . S
N1608 C1610 1.356 . S
N1608 H1620 0.984 . S
N1608 H1621 0.985 . S
N1609 C1611 1.356 . S
N1609 H1614 0.984 . S
N1609 H1615 0.985 . S
C1610 C1604 1.379 . S
C1610 C1607 1.363 . S
C1610 N1608 1.356 . S
C1611 C1605 1.363 . S
C1611 C1606 1.379 . S
C1611 N1609 1.356 . S
N1612 C1604 1.356 . S
N1612 H1618 0.984 . S
N1612 H1619 0.984 . S
N1613 C1606 1.356 . S
N1613 H1616 0.984 . S
N1613 H1617 0.985 . S
H1614 N1609 0.984 . S
H1615 N1609 0.985 . S
H1616 N1613 0.984 . S
H1617 N1613 0.985 . S
H1618 N1612 0.984 . S
H1619 N1612 0.984 . S
H1620 N1608 0.984 . S
H1621 N1608 0.985 . S
C1622 C1623 1.363 . S
C1622 C1628 1.379 . S
C1622 N1630 1.356 . S
C1623 C1622 1.363 . S
C1623 C1629 1.363 . S
C1624 C1625 1.363 . S
C1624 C1629 1.379 . S
C1624 N1631 1.356 . S
C1625 C1624 1.363 . S
C1625 C1628 1.363 . S
N1626 C1628 1.356 . S
N1626 H1638 0.984 . S
N1626 H1639 0.985 . S
N1627 C1629 1.356 . S
N1627 H1632 0.984 . S
N1627 H1633 0.985 . S
C1628 C1622 1.379 . S
C1628 C1625 1.363 . S
C1628 N1626 1.356 . S
C1629 C1623 1.363 . S
C1629 C1624 1.379 . S
C1629 N1627 1.356 . S
N1630 C1622 1.356 . S
N1630 H1636 0.984 . S
N1630 H1637 0.984 . S
N1631 C1624 1.356 . S
N1631 H1634 0.984 . S
N1631 H1635 0.985 . S
H1632 N1627 0.984 . S
H1633 N1627 0.985 . S
H1634 N1631 0.984 . S
H1635 N1631 0.985 . S
H1636 N1630 0.984 . S
H1637 N1630 0.984 . S
H1638 N1626 0.984 . S
H1639 N1626 0.985 . S
C1640 C1641 1.363 . S
C1640 C1646 1.379 . S
C1640 N1648 1.356 . S
C1641 C1640 1.363 . S
C1641 C1647 1.363 . S
C1642 C1643 1.363 . S
C1642 C1647 1.379 . S
C1642 N1649 1.356 . S
C1643 C1642 1.363 . S
C1643 C1646 1.363 . S
N1644 C1646 1.356 . S
N1644 H1656 0.984 . S
N1644 H1657 0.985 . S
N1645 C1647 1.356 . S
N1645 H1650 0.984 . S
N1645 H1651 0.985 . S
C1646 C1640 1.379 . S
C1646 C1643 1.363 . S
C1646 N1644 1.356 . S
C1647 C1641 1.363 . S
C1647 C1642 1.379 . S
C1647 N1645 1.356 . S
N1648 C1640 1.356 . S
N1648 H1654 0.984 . S
N1648 H1655 0.984 . S
N1649 C1642 1.356 . S
N1649 H1652 0.984 . S
N1649 H1653 0.985 . S
H1650 N1645 0.984 . S
H1651 N1645 0.985 . S
H1652 N1649 0.984 . S
H1653 N1649 0.985 . S
H1654 N1648 0.984 . S
H1655 N1648 0.984 . S
H1656 N1644 0.984 . S
H1657 N1644 0.985 . S
C1658 C1659 1.363 . S
C1658 C1664 1.379 . S
C1658 N1666 1.356 . S
C1659 C1658 1.363 . S
C1659 C1665 1.363 . S
C1660 C1661 1.363 . S
C1660 C1665 1.379 . S
C1660 N1667 1.356 . S
C1661 C1660 1.363 . S
C1661 C1664 1.363 . S
N1662 C1664 1.356 . S
N1662 H1674 0.984 . S
N1662 H1675 0.985 . S
N1663 C1665 1.356 . S
N1663 H1668 0.984 . S
N1663 H1669 0.985 . S
C1664 C1658 1.379 . S
C1664 C1661 1.363 . S
C1664 N1662 1.356 . S
C1665 C1659 1.363 . S
C1665 C1660 1.379 . S
C1665 N1663 1.356 . S
N1666 C1658 1.356 . S
N1666 H1672 0.984 . S
N1666 H1673 0.984 . S
N1667 C1660 1.356 . S
N1667 H1670 0.984 . S
N1667 H1671 0.985 . S
H1668 N1663 0.984 . S
H1669 N1663 0.985 . S
H1670 N1667 0.984 . S
H1671 N1667 0.985 . S
H1672 N1666 0.984 . S
H1673 N1666 0.984 . S
H1674 N1662 0.984 . S
H1675 N1662 0.985 . S
C1676 C1677 1.363 . S
C1676 C1682 1.379 . S
C1676 N1684 1.356 . S
C1677 C1676 1.363 . S
C1677 C1683 1.363 . S
C1678 C1679 1.363 . S
C1678 C1683 1.379 . S
C1678 N1685 1.356 . S
C1679 C1678 1.363 . S
C1679 C1682 1.363 . S
N1680 C1682 1.356 . S
N1680 H1692 0.984 . S
N1680 H1693 0.985 . S
N1681 C1683 1.356 . S
N1681 H1686 0.984 . S
N1681 H1687 0.985 . S
C1682 C1676 1.379 . S
C1682 C1679 1.363 . S
C1682 N1680 1.356 . S
C1683 C1677 1.363 . S
C1683 C1678 1.379 . S
C1683 N1681 1.356 . S
N1684 C1676 1.356 . S
N1684 H1690 0.984 . S
N1684 H1691 0.984 . S
N1685 C1678 1.356 . S
N1685 H1688 0.984 . S
N1685 H1689 0.985 . S
H1686 N1681 0.984 . S
H1687 N1681 0.985 . S
H1688 N1685 0.984 . S
H1689 N1685 0.985 . S
H1690 N1684 0.984 . S
H1691 N1684 0.984 . S
H1692 N1680 0.984 . S
H1693 N1680 0.985 . S
C1694 C1695 1.363 . S
C1694 C1700 1.379 . S
C1694 N1702 1.356 . S
C1695 C1694 1.363 . S
C1695 C1701 1.363 . S
C1696 C1697 1.363 . S
C1696 C1701 1.379 . S
C1696 N1703 1.356 . S
C1697 C1696 1.363 . S
C1697 C1700 1.363 . S
N1698 C1700 1.356 . S
N1698 H1710 0.984 . S
N1698 H1711 0.985 . S
N1699 C1701 1.356 . S
N1699 H1704 0.984 . S
N1699 H1705 0.985 . S
C1700 C1694 1.379 . S
C1700 C1697 1.363 . S
C1700 N1698 1.356 . S
C1701 C1695 1.363 . S
C1701 C1696 1.379 . S
C1701 N1699 1.356 . S
N1702 C1694 1.356 . S
N1702 H1708 0.984 . S
N1702 H1709 0.984 . S
N1703 C1696 1.356 . S
N1703 H1706 0.984 . S
N1703 H1707 0.985 . S
H1704 N1699 0.984 . S
H1705 N1699 0.985 . S
H1706 N1703 0.984 . S
H1707 N1703 0.985 . S
H1708 N1702 0.984 . S
H1709 N1702 0.984 . S
H1710 N1698 0.984 . S
H1711 N1698 0.985 . S
C1712 C1713 1.363 . S
C1712 C1718 1.379 . S
C1712 N1720 1.356 . S
C1713 C1712 1.363 . S
C1713 C1719 1.363 . S
C1714 C1715 1.363 . S
C1714 C1719 1.379 . S
C1714 N1721 1.356 . S
C1715 C1714 1.363 . S
C1715 C1718 1.363 . S
N1716 C1718 1.356 . S
N1716 H1728 0.984 . S
N1716 H1729 0.985 . S
N1717 C1719 1.356 . S
N1717 H1722 0.984 . S
N1717 H1723 0.985 . S
C1718 C1712 1.379 . S
C1718 C1715 1.363 . S
C1718 N1716 1.356 . S
C1719 C1713 1.363 . S
C1719 C1714 1.379 . S
C1719 N1717 1.356 . S
N1720 C1712 1.356 . S
N1720 H1726 0.984 . S
N1720 H1727 0.984 . S
N1721 C1714 1.356 . S
N1721 H1724 0.984 . S
N1721 H1725 0.985 . S
H1722 N1717 0.984 . S
H1723 N1717 0.985 . S
H1724 N1721 0.984 . S
H1725 N1721 0.985 . S
H1726 N1720 0.984 . S
H1727 N1720 0.984 . S
H1728 N1716 0.984 . S
H1729 N1716 0.985 . S
C1730 C1731 1.363 . S
C1730 C1736 1.379 . S
C1730 N1738 1.356 . S
C1731 C1730 1.363 . S
C1731 C1737 1.363 . S
C1732 C1733 1.363 . S
C1732 C1737 1.379 . S
C1732 N1739 1.356 . S
C1733 C1732 1.363 . S
C1733 C1736 1.363 . S
N1734 C1736 1.356 . S
N1734 H1746 0.984 . S
N1734 H1747 0.985 . S
N1735 C1737 1.356 . S
N1735 H1740 0.984 . S
N1735 H1741 0.985 . S
C1736 C1730 1.379 . S
C1736 C1733 1.363 . S
C1736 N1734 1.356 . S
C1737 C1731 1.363 . S
C1737 C1732 1.379 . S
C1737 N1735 1.356 . S
N1738 C1730 1.356 . S
N1738 H1744 0.984 . S
N1738 H1745 0.984 . S
N1739 C1732 1.356 . S
N1739 H1742 0.984 . S
N1739 H1743 0.985 . S
H1740 N1735 0.984 . S
H1741 N1735 0.985 . S
H1742 N1739 0.984 . S
H1743 N1739 0.985 . S
H1744 N1738 0.984 . S
H1745 N1738 0.984 . S
H1746 N1734 0.984 . S
H1747 N1734 0.985 . S
C1748 C1749 1.363 . S
C1748 C1754 1.379 . S
C1748 N1756 1.356 . S
C1749 C1748 1.363 . S
C1749 C1755 1.363 . S
C1750 C1751 1.363 . S
C1750 C1755 1.379 . S
C1750 N1757 1.356 . S
C1751 C1750 1.363 . S
C1751 C1754 1.363 . S
N1752 C1754 1.356 . S
N1752 H1764 0.984 . S
N1752 H1765 0.985 . S
N1753 C1755 1.356 . S
N1753 H1758 0.984 . S
N1753 H1759 0.985 . S
C1754 C1748 1.379 . S
C1754 C1751 1.363 . S
C1754 N1752 1.356 . S
C1755 C1749 1.363 . S
C1755 C1750 1.379 . S
C1755 N1753 1.356 . S
N1756 C1748 1.356 . S
N1756 H1762 0.984 . S
N1756 H1763 0.984 . S
N1757 C1750 1.356 . S
N1757 H1760 0.984 . S
N1757 H1761 0.985 . S
H1758 N1753 0.984 . S
H1759 N1753 0.985 . S
H1760 N1757 0.984 . S
H1761 N1757 0.985 . S
H1762 N1756 0.984 . S
H1763 N1756 0.984 . S
H1764 N1752 0.984 . S
H1765 N1752 0.985 . S
C1766 C1767 1.363 . S
C1766 C1772 1.379 . S
C1766 N1774 1.356 . S
C1767 C1766 1.363 . S
C1767 C1773 1.363 . S
C1768 C1769 1.363 . S
C1768 C1773 1.379 . S
C1768 N1775 1.356 . S
C1769 C1768 1.363 . S
C1769 C1772 1.363 . S
N1770 C1772 1.356 . S
N1770 H1782 0.984 . S
N1770 H1783 0.985 . S
N1771 C1773 1.356 . S
N1771 H1776 0.984 . S
N1771 H1777 0.985 . S
C1772 C1766 1.379 . S
C1772 C1769 1.363 . S
C1772 N1770 1.356 . S
C1773 C1767 1.363 . S
C1773 C1768 1.379 . S
C1773 N1771 1.356 . S
N1774 C1766 1.356 . S
N1774 H1780 0.984 . S
N1774 H1781 0.984 . S
N1775 C1768 1.356 . S
N1775 H1778 0.984 . S
N1775 H1779 0.985 . S
H1776 N1771 0.984 . S
H1777 N1771 0.985 . S
H1778 N1775 0.984 . S
H1779 N1775 0.985 . S
H1780 N1774 0.984 . S
H1781 N1774 0.984 . S
H1782 N1770 0.984 . S
H1783 N1770 0.985 . S
C1784 C1785 1.363 . S
C1784 C1790 1.379 . S
C1784 N1792 1.356 . S
C1785 C1784 1.363 . S
C1785 C1791 1.363 . S
C1786 C1787 1.363 . S
C1786 C1791 1.379 . S
C1786 N1793 1.356 . S
C1787 C1786 1.363 . S
C1787 C1790 1.363 . S
N1788 C1790 1.356 . S
N1788 H1800 0.984 . S
N1788 H1801 0.985 . S
N1789 C1791 1.356 . S
N1789 H1794 0.984 . S
N1789 H1795 0.985 . S
C1790 C1784 1.379 . S
C1790 C1787 1.363 . S
C1790 N1788 1.356 . S
C1791 C1785 1.363 . S
C1791 C1786 1.379 . S
C1791 N1789 1.356 . S
N1792 C1784 1.356 . S
N1792 H1798 0.984 . S
N1792 H1799 0.984 . S
N1793 C1786 1.356 . S
N1793 H1796 0.984 . S
N1793 H1797 0.985 . S
H1794 N1789 0.984 . S
H1795 N1789 0.985 . S
H1796 N1793 0.984 . S
H1797 N1793 0.985 . S
H1798 N1792 0.984 . S
H1799 N1792 0.984 . S
H1800 N1788 0.984 . S
H1801 N1788 0.985 . S
C1802 C1803 1.363 . S
C1802 C1808 1.379 . S
C1802 N1810 1.356 . S
C1803 C1802 1.363 . S
C1803 C1809 1.363 . S
C1804 C1805 1.363 . S
C1804 C1809 1.379 . S
C1804 N1811 1.356 . S
C1805 C1804 1.363 . S
C1805 C1808 1.363 . S
N1806 C1808 1.356 . S
N1806 H1818 0.984 . S
N1806 H1819 0.985 . S
N1807 C1809 1.356 . S
N1807 H1812 0.984 . S
N1807 H1813 0.985 . S
C1808 C1802 1.379 . S
C1808 C1805 1.363 . S
C1808 N1806 1.356 . S
C1809 C1803 1.363 . S
C1809 C1804 1.379 . S
C1809 N1807 1.356 . S
N1810 C1802 1.356 . S
N1810 H1816 0.984 . S
N1810 H1817 0.984 . S
N1811 C1804 1.356 . S
N1811 H1814 0.984 . S
N1811 H1815 0.985 . S
H1812 N1807 0.984 . S
H1813 N1807 0.985 . S
H1814 N1811 0.984 . S
H1815 N1811 0.985 . S
H1816 N1810 0.984 . S
H1817 N1810 0.984 . S
H1818 N1806 0.984 . S
H1819 N1806 0.985 . S
C1820 C1821 1.363 . S
C1820 C1826 1.379 . S
C1820 N1828 1.356 . S
C1821 C1820 1.363 . S
C1821 C1827 1.363 . S
C1822 C1823 1.363 . S
C1822 C1827 1.379 . S
C1822 N1829 1.356 . S
C1823 C1822 1.363 . S
C1823 C1826 1.363 . S
N1824 C1826 1.356 . S
N1824 H1836 0.984 . S
N1824 H1837 0.985 . S
N1825 C1827 1.356 . S
N1825 H1830 0.984 . S
N1825 H1831 0.985 . S
C1826 C1820 1.379 . S
C1826 C1823 1.363 . S
C1826 N1824 1.356 . S
C1827 C1821 1.363 . S
C1827 C1822 1.379 . S
C1827 N1825 1.356 . S
N1828 C1820 1.356 . S
N1828 H1834 0.984 . S
N1828 H1835 0.984 . S
N1829 C1822 1.356 . S
N1829 H1832 0.984 . S
N1829 H1833 0.985 . S
H1830 N1825 0.984 . S
H1831 N1825 0.985 . S
H1832 N1829 0.984 . S
H1833 N1829 0.985 . S
H1834 N1828 0.984 . S
H1835 N1828 0.984 . S
H1836 N1824 0.984 . S
H1837 N1824 0.985 . S
C1838 C1839 1.363 . S
C1838 C1844 1.379 1_565 S
C1838 N1846 1.356 . S
C1839 C1838 1.363 . S
C1839 C1845 1.363 . S
C1840 C1841 1.366 . S
C1840 C1845 1.379 . S
C1840 N1847 1.356 1_554 S
C1841 C1840 1.366 . S
C1841 C1844 1.362 1_565 S
N1842 C1844 1.356 . S
N1842 H1854 0.984 . S
N1842 H1855 0.985 . S
N1843 C1845 1.356 . S
N1843 H1848 0.984 . S
N1843 H1849 0.985 1_554 S
C1844 C1838 1.379 1_545 S
C1844 C1841 1.362 1_545 S
C1844 N1842 1.356 . S
C1845 C1839 1.363 . S
C1845 C1840 1.379 . S
C1845 N1843 1.356 . S
N1846 C1838 1.356 . S
N1846 H1852 0.984 1_565 S
N1846 H1853 0.984 . S
N1847 C1840 1.356 1_556 S
N1847 H1850 0.984 . S
N1847 H1851 0.985 . S
H1848 N1843 0.984 . S
H1849 N1843 0.985 1_556 S
H1850 N1847 0.984 . S
H1851 N1847 0.985 . S
H1852 N1846 0.984 1_545 S
H1853 N1846 0.984 . S
H1854 N1842 0.984 . S
H1855 N1842 0.985 . S
C1856 C1857 1.363 . S
C1856 C1862 1.379 . S
C1856 N1864 1.356 . S
C1857 C1856 1.363 . S
C1857 C1863 1.363 . S
C1858 C1859 1.363 . S
C1858 C1863 1.379 . S
C1858 N1865 1.356 . S
C1859 C1858 1.363 . S
C1859 C1862 1.363 . S
N1860 C1862 1.356 . S
N1860 H1872 0.984 . S
N1860 H1873 0.985 . S
N1861 C1863 1.356 . S
N1861 H1866 0.984 . S
N1861 H1867 0.985 . S
C1862 C1856 1.379 . S
C1862 C1859 1.363 . S
C1862 N1860 1.356 . S
C1863 C1857 1.363 . S
C1863 C1858 1.379 . S
C1863 N1861 1.356 . S
N1864 C1856 1.356 . S
N1864 H1870 0.984 . S
N1864 H1871 0.984 . S
N1865 C1858 1.356 . S
N1865 H1868 0.984 . S
N1865 H1869 0.985 . S
H1866 N1861 0.984 . S
H1867 N1861 0.985 . S
H1868 N1865 0.984 . S
H1869 N1865 0.985 . S
H1870 N1864 0.984 . S
H1871 N1864 0.984 . S
H1872 N1860 0.984 . S
H1873 N1860 0.985 . S
C1874 C1875 1.363 . S
C1874 C1880 1.379 . S
C1874 N1882 1.356 . S
C1875 C1874 1.363 . S
C1875 C1881 1.363 . S
C1876 C1877 1.363 . S
C1876 C1881 1.379 . S
C1876 N1883 1.356 . S
C1877 C1876 1.363 . S
C1877 C1880 1.363 . S
N1878 C1880 1.356 . S
N1878 H1890 0.984 . S
N1878 H1891 0.985 . S
N1879 C1881 1.356 1_556 S
N1879 H1884 0.984 . S
N1879 H1885 0.985 . S
C1880 C1874 1.379 . S
C1880 C1877 1.363 . S
C1880 N1878 1.356 . S
C1881 C1875 1.363 . S
C1881 C1876 1.379 . S
C1881 N1879 1.356 1_554 S
N1882 C1874 1.356 . S
N1882 H1888 0.984 . S
N1882 H1889 0.984 . S
N1883 C1876 1.356 . S
N1883 H1886 0.984 . S
N1883 H1887 0.985 1_554 S
H1884 N1879 0.984 . S
H1885 N1879 0.985 . S
H1886 N1883 0.984 . S
H1887 N1883 0.985 1_556 S
H1888 N1882 0.984 . S
H1889 N1882 0.984 . S
H1890 N1878 0.984 . S
H1891 N1878 0.985 . S
C1892 C1893 1.363 . S
C1892 C1898 1.379 . S
C1892 N1900 1.356 . S
C1893 C1892 1.363 . S
C1893 C1899 1.363 . S
C1894 C1895 1.363 . S
C1894 C1899 1.379 . S
C1894 N1901 1.356 . S
C1895 C1894 1.363 . S
C1895 C1898 1.363 . S
N1896 C1898 1.356 . S
N1896 H1908 0.984 . S
N1896 H1909 0.985 . S
N1897 C1899 1.356 . S
N1897 H1902 0.984 . S
N1897 H1903 0.985 . S
C1898 C1892 1.379 . S
C1898 C1895 1.363 . S
C1898 N1896 1.356 . S
C1899 C1893 1.363 . S
C1899 C1894 1.379 . S
C1899 N1897 1.356 . S
N1900 C1892 1.356 . S
N1900 H1906 0.984 . S
N1900 H1907 0.984 . S
N1901 C1894 1.356 . S
N1901 H1904 0.984 . S
N1901 H1905 0.985 . S
H1902 N1897 0.984 . S
H1903 N1897 0.985 . S
H1904 N1901 0.984 . S
H1905 N1901 0.985 . S
H1906 N1900 0.984 . S
H1907 N1900 0.984 . S
H1908 N1896 0.984 . S
H1909 N1896 0.985 . S
C1910 C1911 1.363 . S
C1910 C1916 1.379 . S
C1910 N1918 1.356 . S
C1911 C1910 1.363 . S
C1911 C1917 1.363 . S
C1912 C1913 1.363 . S
C1912 C1917 1.379 . S
C1912 N1919 1.356 . S
C1913 C1912 1.363 . S
C1913 C1916 1.363 . S
N1914 C1916 1.356 . S
N1914 H1926 0.984 . S
N1914 H1927 0.985 . S
N1915 C1917 1.356 . S
N1915 H1920 0.984 . S
N1915 H1921 0.985 . S
C1916 C1910 1.379 . S
C1916 C1913 1.363 . S
C1916 N1914 1.356 . S
C1917 C1911 1.363 . S
C1917 C1912 1.379 . S
C1917 N1915 1.356 . S
N1918 C1910 1.356 . S
N1918 H1924 0.984 . S
N1918 H1925 0.984 . S
N1919 C1912 1.356 . S
N1919 H1922 0.984 . S
N1919 H1923 0.985 . S
H1920 N1915 0.984 . S
H1921 N1915 0.985 . S
H1922 N1919 0.984 . S
H1923 N1919 0.985 . S
H1924 N1918 0.984 . S
H1925 N1918 0.984 . S
H1926 N1914 0.984 . S
H1927 N1914 0.985 . S
C1928 C1929 1.363 . S
C1928 C1934 1.379 . S
C1928 N1936 1.356 . S
C1929 C1928 1.363 . S
C1929 C1935 1.363 . S
C1930 C1931 1.363 . S
C1930 C1935 1.379 . S
C1930 N1937 1.356 . S
C1931 C1930 1.363 . S
C1931 C1934 1.363 . S
N1932 C1934 1.356 . S
N1932 H1944 0.984 . S
N1932 H1945 0.985 . S
N1933 C1935 1.356 . S
N1933 H1938 0.984 . S
N1933 H1939 0.985 . S
C1934 C1928 1.379 . S
C1934 C1931 1.363 . S
C1934 N1932 1.356 . S
C1935 C1929 1.363 . S
C1935 C1930 1.379 . S
C1935 N1933 1.356 . S
N1936 C1928 1.356 . S
N1936 H1942 0.984 . S
N1936 H1943 0.984 . S
N1937 C1930 1.356 . S
N1937 H1940 0.984 . S
N1937 H1941 0.985 . S
H1938 N1933 0.984 . S
H1939 N1933 0.985 . S
H1940 N1937 0.984 . S
H1941 N1937 0.985 . S
H1942 N1936 0.984 . S
H1943 N1936 0.984 . S
H1944 N1932 0.984 . S
H1945 N1932 0.985 . S
C1946 C1947 1.363 . S
C1946 C1952 1.379 . S
C1946 N1954 1.356 . S
C1947 C1946 1.363 . S
C1947 C1953 1.363 . S
C1948 C1949 1.363 . S
C1948 C1953 1.379 . S
C1948 N1955 1.356 . S
C1949 C1948 1.363 . S
C1949 C1952 1.363 . S
N1950 C1952 1.356 . S
N1950 H1962 0.984 . S
N1950 H1963 0.985 . S
N1951 C1953 1.356 . S
N1951 H1956 0.984 . S
N1951 H1957 0.985 . S
C1952 C1946 1.379 . S
C1952 C1949 1.363 . S
C1952 N1950 1.356 . S
C1953 C1947 1.363 . S
C1953 C1948 1.379 . S
C1953 N1951 1.356 . S
N1954 C1946 1.356 . S
N1954 H1960 0.984 . S
N1954 H1961 0.984 . S
N1955 C1948 1.356 . S
N1955 H1958 0.984 . S
N1955 H1959 0.985 . S
H1956 N1951 0.984 . S
H1957 N1951 0.985 . S
H1958 N1955 0.984 . S
H1959 N1955 0.985 . S
H1960 N1954 0.984 . S
H1961 N1954 0.984 . S
H1962 N1950 0.984 . S
H1963 N1950 0.985 . S
C1964 C1965 1.363 . S
C1964 C1970 1.379 . S
C1964 N1972 1.356 . S
C1965 C1964 1.363 . S
C1965 C1971 1.363 . S
C1966 C1967 1.363 . S
C1966 C1971 1.379 . S
C1966 N1973 1.356 . S
C1967 C1966 1.363 . S
C1967 C1970 1.363 . S
N1968 C1970 1.356 . S
N1968 H1980 0.984 . S
N1968 H1981 0.985 . S
N1969 C1971 1.356 . S
N1969 H1974 0.984 . S
N1969 H1975 0.985 . S
C1970 C1964 1.379 . S
C1970 C1967 1.363 . S
C1970 N1968 1.356 . S
C1971 C1965 1.363 . S
C1971 C1966 1.379 . S
C1971 N1969 1.356 . S
N1972 C1964 1.356 . S
N1972 H1978 0.984 . S
N1972 H1979 0.984 . S
N1973 C1966 1.356 . S
N1973 H1976 0.984 1_554 S
N1973 H1977 0.985 1_554 S
H1974 N1969 0.984 . S
H1975 N1969 0.985 . S
H1976 N1973 0.984 1_556 S
H1977 N1973 0.985 1_556 S
H1978 N1972 0.984 . S
H1979 N1972 0.984 . S
H1980 N1968 0.984 . S
H1981 N1968 0.985 . S
C1982 C1983 1.363 . S
C1982 C1988 1.379 . S
C1982 N1990 1.356 . S
C1983 C1982 1.363 . S
C1983 C1989 1.363 . S
C1984 C1985 1.363 . S
C1984 C1989 1.379 . S
C1984 N1991 1.356 . S
C1985 C1984 1.363 . S
C1985 C1988 1.363 . S
N1986 C1988 1.356 . S
N1986 H1998 0.984 . S
N1986 H1999 0.985 . S
N1987 C1989 1.356 . S
N1987 H1992 0.984 . S
N1987 H1993 0.985 . S
C1988 C1982 1.379 . S
C1988 C1985 1.363 . S
C1988 N1986 1.356 . S
C1989 C1983 1.363 . S
C1989 C1984 1.379 . S
C1989 N1987 1.356 . S
N1990 C1982 1.356 . S
N1990 H1996 0.984 . S
N1990 H1997 0.984 . S
N1991 C1984 1.356 . S
N1991 H1994 0.984 . S
N1991 H1995 0.985 . S
H1992 N1987 0.984 . S
H1993 N1987 0.985 . S
H1994 N1991 0.984 . S
H1995 N1991 0.985 . S
H1996 N1990 0.984 . S
H1997 N1990 0.984 . S
H1998 N1986 0.984 . S
H1999 N1986 0.985 . S
C2000 C2001 1.363 . S
C2000 C2006 1.379 . S
C2000 N2008 1.356 . S
C2001 C2000 1.363 . S
C2001 C2007 1.363 . S
C2002 C2003 1.363 . S
C2002 C2007 1.379 . S
C2002 N2009 1.356 1_556 S
C2003 C2002 1.363 . S
C2003 C2006 1.363 . S
N2004 C2006 1.356 . S
N2004 H2016 0.984 . S
N2004 H2017 0.985 . S
N2005 C2007 1.356 . S
N2005 H2010 0.984 . S
N2005 H2011 0.985 . S
C2006 C2000 1.379 . S
C2006 C2003 1.363 . S
C2006 N2004 1.356 . S
C2007 C2001 1.363 . S
C2007 C2002 1.379 . S
C2007 N2005 1.356 . S
N2008 C2000 1.356 . S
N2008 H2014 0.984 . S
N2008 H2015 0.984 . S
N2009 C2002 1.356 1_554 S
N2009 H2012 0.984 . S
N2009 H2013 0.985 . S
H2010 N2005 0.984 . S
H2011 N2005 0.985 . S
H2012 N2009 0.984 . S
H2013 N2009 0.985 . S
H2014 N2008 0.984 . S
H2015 N2008 0.984 . S
H2016 N2004 0.984 . S
H2017 N2004 0.985 . S
C2018 C2019 1.363 . S
C2018 C2024 1.379 . S
C2018 N2026 1.356 . S
C2019 C2018 1.363 . S
C2019 C2025 1.363 . S
C2020 C2021 1.363 . S
C2020 C2025 1.379 . S
C2020 N2027 1.356 . S
C2021 C2020 1.363 . S
C2021 C2024 1.363 . S
N2022 C2024 1.356 . S
N2022 H2034 0.984 . S
N2022 H2035 0.985 . S
N2023 C2025 1.356 . S
N2023 H2028 0.984 . S
N2023 H2029 0.985 . S
C2024 C2018 1.379 . S
C2024 C2021 1.363 . S
C2024 N2022 1.356 . S
C2025 C2019 1.363 . S
C2025 C2020 1.379 . S
C2025 N2023 1.356 . S
N2026 C2018 1.356 . S
N2026 H2032 0.984 . S
N2026 H2033 0.984 . S
N2027 C2020 1.356 . S
N2027 H2030 0.984 . S
N2027 H2031 0.985 . S
H2028 N2023 0.984 . S
H2029 N2023 0.985 . S
H2030 N2027 0.984 . S
H2031 N2027 0.985 . S
H2032 N2026 0.984 . S
H2033 N2026 0.984 . S
H2034 N2022 0.984 . S
H2035 N2022 0.985 . S
C2036 C2037 1.363 . S
C2036 C2042 1.379 . S
C2036 N2044 1.356 1_455 S
C2037 C2036 1.363 . S
C2037 C2043 1.363 . S
C2038 C2039 1.363 . S
C2038 C2043 1.379 . S
C2038 N2045 1.356 . S
C2039 C2038 1.363 . S
C2039 C2042 1.363 . S
N2040 C2042 1.356 1_655 S
N2040 H2052 0.984 . S
N2040 H2053 0.985 . S
N2041 C2043 1.356 . S
N2041 H2046 0.984 . S
N2041 H2047 0.985 . S
C2042 C2036 1.379 . S
C2042 C2039 1.363 . S
C2042 N2040 1.356 1_455 S
C2043 C2037 1.363 . S
C2043 C2038 1.379 . S
C2043 N2041 1.356 . S
N2044 C2036 1.356 1_655 S
N2044 H2050 0.984 . S
N2044 H2051 0.984 1_655 S
N2045 C2038 1.356 . S
N2045 H2048 0.984 . S
N2045 H2049 0.985 . S
H2046 N2041 0.984 . S
H2047 N2041 0.985 . S
H2048 N2045 0.984 . S
H2049 N2045 0.985 . S
H2050 N2044 0.984 . S
H2051 N2044 0.984 1_455 S
H2052 N2040 0.984 . S
H2053 N2040 0.985 . S
C2054 C2055 1.363 . S
C2054 C2060 1.379 . S
C2054 N2062 1.356 . S
C2055 C2054 1.363 . S
C2055 C2061 1.363 . S
C2056 C2057 1.363 . S
C2056 C2061 1.379 . S
C2056 N2063 1.356 . S
C2057 C2056 1.363 . S
C2057 C2060 1.363 . S
N2058 C2060 1.356 . S
N2058 H2070 0.984 . S
N2058 H2071 0.985 . S
N2059 C2061 1.356 . S
N2059 H2064 0.984 . S
N2059 H2065 0.985 . S
C2060 C2054 1.379 . S
C2060 C2057 1.363 . S
C2060 N2058 1.356 . S
C2061 C2055 1.363 . S
C2061 C2056 1.379 . S
C2061 N2059 1.356 . S
N2062 C2054 1.356 . S
N2062 H2068 0.984 . S
N2062 H2069 0.984 . S
N2063 C2056 1.356 . S
N2063 H2066 0.984 . S
N2063 H2067 0.985 . S
H2064 N2059 0.984 . S
H2065 N2059 0.985 . S
H2066 N2063 0.984 . S
H2067 N2063 0.985 . S
H2068 N2062 0.984 . S
H2069 N2062 0.984 . S
H2070 N2058 0.984 . S
H2071 N2058 0.985 . S
C2072 C2073 1.363 . S
C2072 C2078 1.379 . S
C2072 N2080 1.356 . S
C2073 C2072 1.363 . S
C2073 C2079 1.363 . S
C2074 C2075 1.363 . S
C2074 C2079 1.379 . S
C2074 N2081 1.356 . S
C2075 C2074 1.363 . S
C2075 C2078 1.363 . S
N2076 C2078 1.356 . S
N2076 H2088 0.984 . S
N2076 H2089 0.985 . S
N2077 C2079 1.356 . S
N2077 H2082 0.984 . S
N2077 H2083 0.985 . S
C2078 C2072 1.379 . S
C2078 C2075 1.363 . S
C2078 N2076 1.356 . S
C2079 C2073 1.363 . S
C2079 C2074 1.379 . S
C2079 N2077 1.356 . S
N2080 C2072 1.356 . S
N2080 H2086 0.984 . S
N2080 H2087 0.984 . S
N2081 C2074 1.356 . S
N2081 H2084 0.984 . S
N2081 H2085 0.985 . S
H2082 N2077 0.984 . S
H2083 N2077 0.985 . S
H2084 N2081 0.984 . S
H2085 N2081 0.985 . S
H2086 N2080 0.984 . S
H2087 N2080 0.984 . S
H2088 N2076 0.984 . S
H2089 N2076 0.985 . S
C2090 C2091 1.363 . S
C2090 C2096 1.379 . S
C2090 N2098 1.356 . S
C2091 C2090 1.363 . S
C2091 C2097 1.363 . S
C2092 C2093 1.363 . S
C2092 C2097 1.379 . S
C2092 N2099 1.356 . S
C2093 C2092 1.363 . S
C2093 C2096 1.363 . S
N2094 C2096 1.356 . S
N2094 H2106 0.984 . S
N2094 H2107 0.985 . S
N2095 C2097 1.356 . S
N2095 H2100 0.984 . S
N2095 H2101 0.985 . S
C2096 C2090 1.379 . S
C2096 C2093 1.363 . S
C2096 N2094 1.356 . S
C2097 C2091 1.363 . S
C2097 C2092 1.379 . S
C2097 N2095 1.356 . S
N2098 C2090 1.356 . S
N2098 H2104 0.984 . S
N2098 H2105 0.984 . S
N2099 C2092 1.356 . S
N2099 H2102 0.984 . S
N2099 H2103 0.985 . S
H2100 N2095 0.984 . S
H2101 N2095 0.985 . S
H2102 N2099 0.984 . S
H2103 N2099 0.985 . S
H2104 N2098 0.984 . S
H2105 N2098 0.984 . S
H2106 N2094 0.984 . S
H2107 N2094 0.985 . S
C2108 C2109 1.363 . S
C2108 C2114 1.379 . S
C2108 N2116 1.356 . S
C2109 C2108 1.363 . S
C2109 C2115 1.363 . S
C2110 C2111 1.363 . S
C2110 C2115 1.379 . S
C2110 N2117 1.356 . S
C2111 C2110 1.363 . S
C2111 C2114 1.363 . S
N2112 C2114 1.356 1_455 S
N2112 H2124 0.984 . S
N2112 H2125 0.985 . S
N2113 C2115 1.356 . S
N2113 H2118 0.984 . S
N2113 H2119 0.985 . S
C2114 C2108 1.379 . S
C2114 C2111 1.363 . S
C2114 N2112 1.356 1_655 S
C2115 C2109 1.363 . S
C2115 C2110 1.379 . S
C2115 N2113 1.356 . S
N2116 C2108 1.356 . S
N2116 H2122 0.984 . S
N2116 H2123 0.984 . S
N2117 C2110 1.356 . S
N2117 H2120 0.984 . S
N2117 H2121 0.985 . S
H2118 N2113 0.984 . S
H2119 N2113 0.985 . S
H2120 N2117 0.984 . S
H2121 N2117 0.985 . S
H2122 N2116 0.984 . S
H2123 N2116 0.984 . S
H2124 N2112 0.984 . S
H2125 N2112 0.985 . S
C2126 C2127 1.363 . S
C2126 C2132 1.379 . S
C2126 N2134 1.356 . S
C2127 C2126 1.363 . S
C2127 C2133 1.363 . S
C2128 C2129 1.363 . S
C2128 C2133 1.379 . S
C2128 N2135 1.356 . S
C2129 C2128 1.363 . S
C2129 C2132 1.363 . S
N2130 C2132 1.356 . S
N2130 H2142 0.984 . S
N2130 H2143 0.985 . S
N2131 C2133 1.356 . S
N2131 H2136 0.984 . S
N2131 H2137 0.985 . S
C2132 C2126 1.379 . S
C2132 C2129 1.363 . S
C2132 N2130 1.356 . S
C2133 C2127 1.363 . S
C2133 C2128 1.379 . S
C2133 N2131 1.356 . S
N2134 C2126 1.356 . S
N2134 H2140 0.984 . S
N2134 H2141 0.984 . S
N2135 C2128 1.356 . S
N2135 H2138 0.984 . S
N2135 H2139 0.985 . S
H2136 N2131 0.984 . S
H2137 N2131 0.985 . S
H2138 N2135 0.984 . S
H2139 N2135 0.985 . S
H2140 N2134 0.984 . S
H2141 N2134 0.984 . S
H2142 N2130 0.984 . S
H2143 N2130 0.985 . S
C2144 C2145 1.363 . S
C2144 C2150 1.379 . S
C2144 N2152 1.356 . S
C2145 C2144 1.363 . S
C2145 C2151 1.363 . S
C2146 C2147 1.363 . S
C2146 C2151 1.379 . S
C2146 N2153 1.356 . S
C2147 C2146 1.363 . S
C2147 C2150 1.363 . S
N2148 C2150 1.356 . S
N2148 H2160 0.984 . S
N2148 H2161 0.985 . S
N2149 C2151 1.356 . S
N2149 H2154 0.984 . S
N2149 H2155 0.985 . S
C2150 C2144 1.379 . S
C2150 C2147 1.363 . S
C2150 N2148 1.356 . S
C2151 C2145 1.363 . S
C2151 C2146 1.379 . S
C2151 N2149 1.356 . S
N2152 C2144 1.356 . S
N2152 H2158 0.984 . S
N2152 H2159 0.984 . S
N2153 C2146 1.356 . S
N2153 H2156 0.984 . S
N2153 H2157 0.985 . S
H2154 N2149 0.984 . S
H2155 N2149 0.985 . S
H2156 N2153 0.984 . S
H2157 N2153 0.985 . S
H2158 N2152 0.984 . S
H2159 N2152 0.984 . S
H2160 N2148 0.984 . S
H2161 N2148 0.985 . S
C2162 C2163 1.363 . S
C2162 C2168 1.379 . S
C2162 N2170 1.356 . S
C2163 C2162 1.363 . S
C2163 C2169 1.363 . S
C2164 C2165 1.363 . S
C2164 C2169 1.379 . S
C2164 N2171 1.356 . S
C2165 C2164 1.363 . S
C2165 C2168 1.363 . S
N2166 C2168 1.356 . S
N2166 H2178 0.984 . S
N2166 H2179 0.985 . S
N2167 C2169 1.356 . S
N2167 H2172 0.984 . S
N2167 H2173 0.985 . S
C2168 C2162 1.379 . S
C2168 C2165 1.363 . S
C2168 N2166 1.356 . S
C2169 C2163 1.363 . S
C2169 C2164 1.379 . S
C2169 N2167 1.356 . S
N2170 C2162 1.356 . S
N2170 H2176 0.984 . S
N2170 H2177 0.984 . S
N2171 C2164 1.356 . S
N2171 H2174 0.984 . S
N2171 H2175 0.985 . S
H2172 N2167 0.984 . S
H2173 N2167 0.985 . S
H2174 N2171 0.984 . S
H2175 N2171 0.985 . S
H2176 N2170 0.984 . S
H2177 N2170 0.984 . S
H2178 N2166 0.984 . S
H2179 N2166 0.985 . S
C2180 C2181 1.363 . S
C2180 C2186 1.379 . S
C2180 N2188 1.356 . S
C2181 C2180 1.363 . S
C2181 C2187 1.363 . S
C2182 C2183 1.363 . S
C2182 C2187 1.379 . S
C2182 N2189 1.356 . S
C2183 C2182 1.363 . S
C2183 C2186 1.363 . S
N2184 C2186 1.356 . S
N2184 H2196 0.984 . S
N2184 H2197 0.985 . S
N2185 C2187 1.356 . S
N2185 H2190 0.984 . S
N2185 H2191 0.985 . S
C2186 C2180 1.379 . S
C2186 C2183 1.363 . S
C2186 N2184 1.356 . S
C2187 C2181 1.363 . S
C2187 C2182 1.379 . S
C2187 N2185 1.356 . S
N2188 C2180 1.356 . S
N2188 H2194 0.984 . S
N2188 H2195 0.984 . S
N2189 C2182 1.356 . S
N2189 H2192 0.984 . S
N2189 H2193 0.985 . S
H2190 N2185 0.984 . S
H2191 N2185 0.985 . S
H2192 N2189 0.984 . S
H2193 N2189 0.985 . S
H2194 N2188 0.984 . S
H2195 N2188 0.984 . S
H2196 N2184 0.984 . S
H2197 N2184 0.985 . S
C2198 C2199 1.363 . S
C2198 C2204 1.379 . S
C2198 N2206 1.356 . S
C2199 C2198 1.363 . S
C2199 C2205 1.363 . S
C2200 C2201 1.363 . S
C2200 C2205 1.379 . S
C2200 N2207 1.356 . S
C2201 C2200 1.363 . S
C2201 C2204 1.363 . S
N2202 C2204 1.356 . S
N2202 H2214 0.984 . S
N2202 H2215 0.985 . S
N2203 C2205 1.356 . S
N2203 H2208 0.984 . S
N2203 H2209 0.985 . S
C2204 C2198 1.379 . S
C2204 C2201 1.363 . S
C2204 N2202 1.356 . S
C2205 C2199 1.363 . S
C2205 C2200 1.379 . S
C2205 N2203 1.356 . S
N2206 C2198 1.356 . S
N2206 H2212 0.984 . S
N2206 H2213 0.984 . S
N2207 C2200 1.356 . S
N2207 H2210 0.984 . S
N2207 H2211 0.985 . S
H2208 N2203 0.984 . S
H2209 N2203 0.985 . S
H2210 N2207 0.984 . S
H2211 N2207 0.985 . S
H2212 N2206 0.984 . S
H2213 N2206 0.984 . S
H2214 N2202 0.984 . S
H2215 N2202 0.985 . S
C2216 C2217 1.363 . S
C2216 C2222 1.379 . S
C2216 N2224 1.356 . S
C2217 C2216 1.363 . S
C2217 C2223 1.363 . S
C2218 C2219 1.363 . S
C2218 C2223 1.379 . S
C2218 N2225 1.356 . S
C2219 C2218 1.363 . S
C2219 C2222 1.363 . S
N2220 C2222 1.356 . S
N2220 H2232 0.984 . S
N2220 H2233 0.985 . S
N2221 C2223 1.356 . S
N2221 H2226 0.984 . S
N2221 H2227 0.985 . S
C2222 C2216 1.379 . S
C2222 C2219 1.363 . S
C2222 N2220 1.356 . S
C2223 C2217 1.363 . S
C2223 C2218 1.379 . S
C2223 N2221 1.356 . S
N2224 C2216 1.356 . S
N2224 H2230 0.984 . S
N2224 H2231 0.984 . S
N2225 C2218 1.356 . S
N2225 H2228 0.984 . S
N2225 H2229 0.985 . S
H2226 N2221 0.984 . S
H2227 N2221 0.985 . S
H2228 N2225 0.984 . S
H2229 N2225 0.985 . S
H2230 N2224 0.984 . S
H2231 N2224 0.984 . S
H2232 N2220 0.984 . S
H2233 N2220 0.985 . S
C2234 C2235 1.363 . S
C2234 C2240 1.379 . S
C2234 N2242 1.356 . S
C2235 C2234 1.363 . S
C2235 C2241 1.363 . S
C2236 C2237 1.363 . S
C2236 C2241 1.379 . S
C2236 N2243 1.356 . S
C2237 C2236 1.363 . S
C2237 C2240 1.363 . S
N2238 C2240 1.356 1_545 S
N2238 H2250 0.984 . S
N2238 H2251 0.985 . S
N2239 C2241 1.356 . S
N2239 H2244 0.984 . S
N2239 H2245 0.985 . S
C2240 C2234 1.379 . S
C2240 C2237 1.363 . S
C2240 N2238 1.356 1_565 S
C2241 C2235 1.363 . S
C2241 C2236 1.379 . S
C2241 N2239 1.356 . S
N2242 C2234 1.356 . S
N2242 H2248 0.984 . S
N2242 H2249 0.984 . S
N2243 C2236 1.356 . S
N2243 H2246 0.984 . S
N2243 H2247 0.985 . S
H2244 N2239 0.984 . S
H2245 N2239 0.985 . S
H2246 N2243 0.984 . S
H2247 N2243 0.985 . S
H2248 N2242 0.984 . S
H2249 N2242 0.984 . S
H2250 N2238 0.984 . S
H2251 N2238 0.985 . S
C2252 C2253 1.363 . S
C2252 C2258 1.379 . S
C2252 N2260 1.356 . S
C2253 C2252 1.363 . S
C2253 C2259 1.363 . S
C2254 C2255 1.363 . S
C2254 C2259 1.379 . S
C2254 N2261 1.356 . S
C2255 C2254 1.363 . S
C2255 C2258 1.363 . S
N2256 C2258 1.356 . S
N2256 H2268 0.984 . S
N2256 H2269 0.985 . S
N2257 C2259 1.356 . S
N2257 H2262 0.984 . S
N2257 H2263 0.985 . S
C2258 C2252 1.379 . S
C2258 C2255 1.363 . S
C2258 N2256 1.356 . S
C2259 C2253 1.363 . S
C2259 C2254 1.379 . S
C2259 N2257 1.356 . S
N2260 C2252 1.356 . S
N2260 H2266 0.984 . S
N2260 H2267 0.984 . S
N2261 C2254 1.356 . S
N2261 H2264 0.984 . S
N2261 H2265 0.985 . S
H2262 N2257 0.984 . S
H2263 N2257 0.985 . S
H2264 N2261 0.984 . S
H2265 N2261 0.985 . S
H2266 N2260 0.984 . S
H2267 N2260 0.984 . S
H2268 N2256 0.984 . S
H2269 N2256 0.985 . S
C2270 C2271 1.363 . S
C2270 C2276 1.379 . S
C2270 N2278 1.356 . S
C2271 C2270 1.363 . S
C2271 C2277 1.363 1_556 S
C2272 C2273 1.364 . S
C2272 C2277 1.379 . S
C2272 N2279 1.356 . S
C2273 C2272 1.364 . S
C2273 C2276 1.362 1_554 S
N2274 C2276 1.356 . S
N2274 H2286 0.984 . S
N2274 H2287 0.985 . S
N2275 C2277 1.356 . S
N2275 H2280 0.984 . S
N2275 H2281 0.985 . S
C2276 C2270 1.379 . S
C2276 C2273 1.362 1_556 S
C2276 N2274 1.356 . S
C2277 C2271 1.363 1_554 S
C2277 C2272 1.379 . S
C2277 N2275 1.356 . S
N2278 C2270 1.356 . S
N2278 H2284 0.984 . S
N2278 H2285 0.984 . S
N2279 C2272 1.356 . S
N2279 H2282 0.984 . S
N2279 H2283 0.985 . S
H2280 N2275 0.984 . S
H2281 N2275 0.985 . S
H2282 N2279 0.984 . S
H2283 N2279 0.985 . S
H2284 N2278 0.984 . S
H2285 N2278 0.984 . S
H2286 N2274 0.984 . S
H2287 N2274 0.985 . S
C2288 C2289 1.363 . S
C2288 C2294 1.379 . S
C2288 N2296 1.356 . S
C2289 C2288 1.363 . S
C2289 C2295 1.363 . S
C2290 C2291 1.363 . S
C2290 C2295 1.379 . S
C2290 N2297 1.356 . S
C2291 C2290 1.363 . S
C2291 C2294 1.363 . S
N2292 C2294 1.356 . S
N2292 H2304 0.984 . S
N2292 H2305 0.985 . S
N2293 C2295 1.356 . S
N2293 H2298 0.984 . S
N2293 H2299 0.985 . S
C2294 C2288 1.379 . S
C2294 C2291 1.363 . S
C2294 N2292 1.356 . S
C2295 C2289 1.363 . S
C2295 C2290 1.379 . S
C2295 N2293 1.356 . S
N2296 C2288 1.356 . S
N2296 H2302 0.984 . S
N2296 H2303 0.984 . S
N2297 C2290 1.356 . S
N2297 H2300 0.984 . S
N2297 H2301 0.985 . S
H2298 N2293 0.984 . S
H2299 N2293 0.985 . S
H2300 N2297 0.984 . S
H2301 N2297 0.985 . S
H2302 N2296 0.984 . S
H2303 N2296 0.984 . S
H2304 N2292 0.984 . S
H2305 N2292 0.985 . S
C2306 C2307 1.363 1_556 S
C2306 C2312 1.379 . S
C2306 N2314 1.356 . S
C2307 C2306 1.363 1_554 S
C2307 C2313 1.363 . S
C2308 C2309 1.363 . S
C2308 C2313 1.379 . S
C2308 N2315 1.356 . S
C2309 C2308 1.363 . S
C2309 C2312 1.363 1_554 S
N2310 C2312 1.356 . S
N2310 H2322 0.984 . S
N2310 H2323 0.985 . S
N2311 C2313 1.356 . S
N2311 H2316 0.984 . S
N2311 H2317 0.985 . S
C2312 C2306 1.379 . S
C2312 C2309 1.363 1_556 S
C2312 N2310 1.356 . S
C2313 C2307 1.363 . S
C2313 C2308 1.379 . S
C2313 N2311 1.356 . S
N2314 C2306 1.356 . S
N2314 H2320 0.984 . S
N2314 H2321 0.984 1_556 S
N2315 C2308 1.356 . S
N2315 H2318 0.984 . S
N2315 H2319 0.985 . S
H2316 N2311 0.984 . S
H2317 N2311 0.985 . S
H2318 N2315 0.984 . S
H2319 N2315 0.985 . S
H2320 N2314 0.984 . S
H2321 N2314 0.984 1_554 S
H2322 N2310 0.984 . S
H2323 N2310 0.985 . S
C2324 C2325 1.363 . S
C2324 C2330 1.379 . S
C2324 N2332 1.356 . S
C2325 C2324 1.363 . S
C2325 C2331 1.363 . S
C2326 C2327 1.363 . S
C2326 C2331 1.379 . S
C2326 N2333 1.356 . S
C2327 C2326 1.363 . S
C2327 C2330 1.363 . S
N2328 C2330 1.356 . S
N2328 H2340 0.984 . S
N2328 H2341 0.985 . S
N2329 C2331 1.356 . S
N2329 H2334 0.984 . S
N2329 H2335 0.985 . S
C2330 C2324 1.379 . S
C2330 C2327 1.363 . S
C2330 N2328 1.356 . S
C2331 C2325 1.363 . S
C2331 C2326 1.379 . S
C2331 N2329 1.356 . S
N2332 C2324 1.356 . S
N2332 H2338 0.984 . S
N2332 H2339 0.984 . S
N2333 C2326 1.356 . S
N2333 H2336 0.984 . S
N2333 H2337 0.985 . S
H2334 N2329 0.984 . S
H2335 N2329 0.985 . S
H2336 N2333 0.984 . S
H2337 N2333 0.985 . S
H2338 N2332 0.984 . S
H2339 N2332 0.984 . S
H2340 N2328 0.984 . S
H2341 N2328 0.985 . S
C2342 C2343 1.363 . S
C2342 C2348 1.379 . S
C2342 N2350 1.356 . S
C2343 C2342 1.363 . S
C2343 C2349 1.363 . S
C2344 C2345 1.363 . S
C2344 C2349 1.379 . S
C2344 N2351 1.356 . S
C2345 C2344 1.363 . S
C2345 C2348 1.363 . S
N2346 C2348 1.356 . S
N2346 H2358 0.984 . S
N2346 H2359 0.985 . S
N2347 C2349 1.356 . S
N2347 H2352 0.984 . S
N2347 H2353 0.985 . S
C2348 C2342 1.379 . S
C2348 C2345 1.363 . S
C2348 N2346 1.356 . S
C2349 C2343 1.363 . S
C2349 C2344 1.379 . S
C2349 N2347 1.356 . S
N2350 C2342 1.356 . S
N2350 H2356 0.984 . S
N2350 H2357 0.984 . S
N2351 C2344 1.356 . S
N2351 H2354 0.984 . S
N2351 H2355 0.985 . S
H2352 N2347 0.984 . S
H2353 N2347 0.985 . S
H2354 N2351 0.984 . S
H2355 N2351 0.985 . S
H2356 N2350 0.984 . S
H2357 N2350 0.984 . S
H2358 N2346 0.984 . S
H2359 N2346 0.985 . S
C633 C101 1.639 . S
C635 C330 1.561 1_556 S
C651 C57 1.700 . S
C653 C341 1.748 . S
C669 C70 1.174 . S
C671 C370 1.102 . S
C689 C373 1.475 . S
C687 C82 1.472 . S
C705 C23 1.678 . S
C707 C411 1.598 . S
C725 C414 1.232 . S
C723 C29 1.228 . S
C743 C441 1.552 . S
C741 C49 1.515 . S
C759 C10 1.754 . S
C761 C470 1.637 . S
C779 C321 1.684 1_655 S
C777 C218 1.647 . S
C795 C226 1.174 . S
C797 C333 1.156 . S
C815 C361 1.592 . S
C813 C251 1.573 . S
C833 C390 1.177 . S
C831 C159 1.213 . S
C849 C211 1.236 . S
C851 C394 1.253 1_655 S
C869 C420 1.641 . S
C867 C225 1.651 . S
C887 C433 0.954 . S
C885 C252 0.962 . S
C905 C461 1.656 . S
C903 C166 1.655 . S
C923 C313 1.587 1_565 S
C921 C147 1.612 . S
C939 C263 1.750 . S
C941 C480 1.736 . S
C959 C511 1.646 . S
C957 C309 1.735 . S
C977 C530 0.997 . S
C975 C291 1.036 . S
C993 C108 1.517 . S
C995 C453 1.527 . S
C1011 C121 1.614 . S
C1013 C353 1.624 . S
C1029 C302 1.568 . S
C1031 C541 1.592 . S
C1049 C570 1.058 . S
C1047 C276 1.131 . S
C1067 C331 1.710 . S
C1065 C55 1.750 . S
C1085 C560 1.792 . S
C1083 C96 1.785 . S
C1101 C88 1.341 . S
C1103 C371 1.297 . S
C1119 C75 1.584 . S
C1121 C534 1.567 . S
C1139 C410 1.710 . S
C1137 C4 1.788 . S
C1155 C44 1.282 . S
C1157 C493 1.301 . S
C1175 C440 1.674 . S
C1173 C31 1.680 . S
C1193 C591 1.735 . S
C1191 C18 1.816 . S
C1211 C320 1.735 . S
C1209 C133 1.731 . S
C1229 C554 1.185 . S
C1227 C296 1.215 . S
C1245 C107 1.674 . S
C1247 C360 1.663 . S
C1263 C264 1.465 . S
C1265 C551 1.454 . S
C1281 C140 1.310 . S
C1283 C393 1.338 . S
C1301 C501 1.687 . S
C1299 C289 1.711 . S
C1317 C114 1.093 . S
C1319 C434 1.069 . S
C1335 C265 1.792 . S
C1337 C580 1.775 . S
C1353 C179 1.638 . S
C1355 C314 1.604 . S
C1371 C161 1.826 . S
C1373 C481 1.798 . S
C1389 C244 1.801 . S
C1391 C430 1.721 . S
C1407 C224 1.264 . S
C1409 C531 1.244 . S
C1427 C574 1.513 . S
C1425 C257 1.526 . S
C1443 C199 1.657 . S
C1445 C354 1.648 . S
C1463 C380 1.703 . S
C1461 C237 1.717 . S
C1481 C351 1.181 . S
C1479 C185 1.221 . S
C1497 C69 1.639 . S
C1499 C610 1.562 . S
C1517 C561 1.748 . S
C1515 C83 1.700 . S
C1533 C94 1.175 . S
C1535 C630 1.099 1_556 S
C1551 C56 1.472 . S
C1553 C533 1.475 . S
C1569 C42 1.690 . S
C1571 C491 1.605 . S
C1589 C494 1.233 . S
C1587 C3 1.229 . S
C1607 C521 1.560 . S
C1605 C16 1.523 . S
C1625 C590 1.637 . S
C1623 C36 1.755 . S
C1643 C601 1.687 . S
C1641 C238 1.647 . S
C1659 C174 1.172 . S
C1661 C553 1.155 . S
C1679 C621 1.595 . S
C1677 C186 1.572 . S
C1697 C550 1.176 . S
C1695 C198 1.212 . S
C1715 C474 1.255 . S
C1713 C239 1.238 . S
C1731 C173 1.652 . S
C1733 C500 1.642 . S
C1751 C513 0.956 . S
C1749 C187 0.963 . S
C1767 C205 1.655 . S
C1769 C581 1.657 . S
C1787 C593 1.586 . S
C1785 C290 1.611 . S
C1803 C122 1.750 . S
C1805 C400 1.736 . S
C1823 C431 1.649 . S
C1821 C134 1.737 . S
C1841 C450 0.997 1_565 S
C1839 C148 1.035 . S
C1859 C573 1.525 . S
C1857 C283 1.516 . S
C1875 C270 1.612 . S
C1877 C613 1.623 . S
C1895 C381 1.591 . S
C1893 C135 1.567 . S
C1913 C350 1.058 . S
C1911 C109 1.131 . S
C1929 C81 1.750 . S
C1931 C611 1.711 . S
C1949 C340 1.791 . S
C1947 C68 1.784 . S
C1965 C62 1.342 . S
C1967 C631 1.297 . S
C1983 C95 1.583 . S
C1985 C374 1.566 . S
C2001 C30 1.788 . S
C2003 C490 1.710 . S
C2021 C413 1.293 . S
C2019 C17 1.278 . S
C2037 C5 1.680 . S
C2039 C520 1.675 . S
C2055 C43 1.808 . S
C2057 C471 1.728 . S
C2075 C600 1.735 . S
C2073 C304 1.731 . S
C2091 C153 1.213 . S
C2093 C334 1.184 . S
C2111 C620 1.664 1_655 S
C2109 C278 1.675 . S
C2127 C127 1.465 . S
C2129 C391 1.454 . S
C2145 C303 1.306 . S
C2147 C473 1.333 . S
C2165 C421 1.686 . S
C2163 C146 1.710 . S
C2181 C277 1.089 . S
C2183 C514 1.065 . S
C2201 C460 1.774 . S
C2199 C120 1.791 . S
C2219 C594 1.605 . S
C2217 C231 1.639 . S
C2237 C401 1.798 . S
C2235 C200 1.826 . S
C2253 C212 1.802 . S
C2255 C510 1.722 . S
C2273 C451 1.243 . S
C2271 C172 1.264 1_556 S
C2289 C192 1.525 . S
C2291 C454 1.512 . S
C2307 C160 1.658 . S
C2309 C614 1.650 . S
C2327 C540 1.704 . S
C2325 C213 1.718 . S
C2345 C571 1.182 . S
C2343 C250 1.221 . S
