# Generated by pormake.
# Topology gar, (4,6)-cn, num edge types: 1
# Building blocks:
#     Node 0, Type 0, BuildingBlock: GALJAG_clean_sbu_0, # of connection points: 4
#     Node 1, Type 0, BuildingBlock: GALJAG_clean_sbu_0, # of connection points: 4
#     Node 2, Type 0, BuildingBlock: GALJAG_clean_sbu_0, # of connection points: 4
#     Node 3, Type 0, BuildingBlock: GALJAG_clean_sbu_0, # of connection points: 4
#     Node 4, Type 0, BuildingBlock: GALJAG_clean_sbu_0, # of connection points: 4
#     Node 5, Type 0, BuildingBlock: GALJAG_clean_sbu_0, # of connection points: 4
#     Node 6, Type 0, BuildingBlock: GALJAG_clean_sbu_0, # of connection points: 4
#     Node 7, Type 0, BuildingBlock: GALJAG_clean_sbu_0, # of connection points: 4
#     Node 8, Type 0, BuildingBlock: GALJAG_clean_sbu_0, # of connection points: 4
#     Node 9, Type 0, BuildingBlock: GALJAG_clean_sbu_0, # of connection points: 4
#     Node 10, Type 0, BuildingBlock: GALJAG_clean_sbu_0, # of connection points: 4
#     Node 11, Type 0, BuildingBlock: GALJAG_clean_sbu_0, # of connection points: 4
#     Node 12, Type 0, BuildingBlock: GALJAG_clean_sbu_0, # of connection points: 4
#     Node 13, Type 0, BuildingBlock: GALJAG_clean_sbu_0, # of connection points: 4
#     Node 14, Type 0, BuildingBlock: GALJAG_clean_sbu_0, # of connection points: 4
#     Node 15, Type 0, BuildingBlock: GALJAG_clean_sbu_0, # of connection points: 4
#     Node 16, Type 0, BuildingBlock: GALJAG_clean_sbu_0, # of connection points: 4
#     Node 17, Type 0, BuildingBlock: GALJAG_clean_sbu_0, # of connection points: 4
#     Node 18, Type 0, BuildingBlock: GALJAG_clean_sbu_0, # of connection points: 4
#     Node 19, Type 0, BuildingBlock: GALJAG_clean_sbu_0, # of connection points: 4
#     Node 20, Type 0, BuildingBlock: GALJAG_clean_sbu_0, # of connection points: 4
#     Node 21, Type 0, BuildingBlock: GALJAG_clean_sbu_0, # of connection points: 4
#     Node 22, Type 0, BuildingBlock: GALJAG_clean_sbu_0, # of connection points: 4
#     Node 23, Type 0, BuildingBlock: GALJAG_clean_sbu_0, # of connection points: 4
#     Node 24, Type 1, BuildingBlock: BETDAH_clean_sbu_0, # of connection points: 6
#     Node 25, Type 1, BuildingBlock: BETDAH_clean_sbu_0, # of connection points: 6
#     Node 26, Type 1, BuildingBlock: BETDAH_clean_sbu_0, # of connection points: 6
#     Node 27, Type 1, BuildingBlock: BETDAH_clean_sbu_0, # of connection points: 6
#     Node 28, Type 1, BuildingBlock: BETDAH_clean_sbu_0, # of connection points: 6
#     Node 29, Type 1, BuildingBlock: BETDAH_clean_sbu_0, # of connection points: 6
#     Node 30, Type 1, BuildingBlock: BETDAH_clean_sbu_0, # of connection points: 6
#     Node 31, Type 1, BuildingBlock: BETDAH_clean_sbu_0, # of connection points: 6
#     Node 32, Type 1, BuildingBlock: BETDAH_clean_sbu_0, # of connection points: 6
#     Node 33, Type 1, BuildingBlock: BETDAH_clean_sbu_0, # of connection points: 6
#     Node 34, Type 1, BuildingBlock: BETDAH_clean_sbu_0, # of connection points: 6
#     Node 35, Type 1, BuildingBlock: BETDAH_clean_sbu_0, # of connection points: 6
#     Node 36, Type 1, BuildingBlock: BETDAH_clean_sbu_0, # of connection points: 6
#     Node 37, Type 1, BuildingBlock: BETDAH_clean_sbu_0, # of connection points: 6
#     Node 38, Type 1, BuildingBlock: BETDAH_clean_sbu_0, # of connection points: 6
#     Node 39, Type 1, BuildingBlock: BETDAH_clean_sbu_0, # of connection points: 6
#     Edge 40, Type (0, 1), BuildingBlock: ZUJKAS_clean_linker_0, # of connection points: 2
#     Edge 41, Type (0, 1), BuildingBlock: ZUJKAS_clean_linker_0, # of connection points: 2
#     Edge 42, Type (0, 1), BuildingBlock: ZUJKAS_clean_linker_0, # of connection points: 2
#     Edge 43, Type (0, 1), BuildingBlock: ZUJKAS_clean_linker_0, # of connection points: 2
#     Edge 44, Type (0, 1), BuildingBlock: ZUJKAS_clean_linker_0, # of connection points: 2
#     Edge 45, Type (0, 1), BuildingBlock: ZUJKAS_clean_linker_0, # of connection points: 2
#     Edge 46, Type (0, 1), BuildingBlock: ZUJKAS_clean_linker_0, # of connection points: 2
#     Edge 47, Type (0, 1), BuildingBlock: ZUJKAS_clean_linker_0, # of connection points: 2
#     Edge 48, Type (0, 1), BuildingBlock: ZUJKAS_clean_linker_0, # of connection points: 2
#     Edge 49, Type (0, 1), BuildingBlock: ZUJKAS_clean_linker_0, # of connection points: 2
#     Edge 50, Type (0, 1), BuildingBlock: ZUJKAS_clean_linker_0, # of connection points: 2
#     Edge 51, Type (0, 1), BuildingBlock: ZUJKAS_clean_linker_0, # of connection points: 2
#     Edge 52, Type (0, 1), BuildingBlock: ZUJKAS_clean_linker_0, # of connection points: 2
#     Edge 53, Type (0, 1), BuildingBlock: ZUJKAS_clean_linker_0, # of connection points: 2
#     Edge 54, Type (0, 1), BuildingBlock: ZUJKAS_clean_linker_0, # of connection points: 2
#     Edge 55, Type (0, 1), BuildingBlock: ZUJKAS_clean_linker_0, # of connection points: 2
#     Edge 56, Type (0, 1), BuildingBlock: ZUJKAS_clean_linker_0, # of connection points: 2
#     Edge 57, Type (0, 1), BuildingBlock: ZUJKAS_clean_linker_0, # of connection points: 2
#     Edge 58, Type (0, 1), BuildingBlock: ZUJKAS_clean_linker_0, # of connection points: 2
#     Edge 59, Type (0, 1), BuildingBlock: ZUJKAS_clean_linker_0, # of connection points: 2
#     Edge 60, Type (0, 1), BuildingBlock: ZUJKAS_clean_linker_0, # of connection points: 2
#     Edge 61, Type (0, 1), BuildingBlock: ZUJKAS_clean_linker_0, # of connection points: 2
#     Edge 62, Type (0, 1), BuildingBlock: ZUJKAS_clean_linker_0, # of connection points: 2
#     Edge 63, Type (0, 1), BuildingBlock: ZUJKAS_clean_linker_0, # of connection points: 2
#     Edge 64, Type (0, 1), BuildingBlock: ZUJKAS_clean_linker_0, # of connection points: 2
#     Edge 65, Type (0, 1), BuildingBlock: ZUJKAS_clean_linker_0, # of connection points: 2
#     Edge 66, Type (0, 1), BuildingBlock: ZUJKAS_clean_linker_0, # of connection points: 2
#     Edge 67, Type (0, 1), BuildingBlock: ZUJKAS_clean_linker_0, # of connection points: 2
#     Edge 68, Type (0, 1), BuildingBlock: ZUJKAS_clean_linker_0, # of connection points: 2
#     Edge 69, Type (0, 1), BuildingBlock: ZUJKAS_clean_linker_0, # of connection points: 2
#     Edge 70, Type (0, 1), BuildingBlock: ZUJKAS_clean_linker_0, # of connection points: 2
#     Edge 71, Type (0, 1), BuildingBlock: ZUJKAS_clean_linker_0, # of connection points: 2
#     Edge 72, Type (0, 1), BuildingBlock: ZUJKAS_clean_linker_0, # of connection points: 2
#     Edge 73, Type (0, 1), BuildingBlock: ZUJKAS_clean_linker_0, # of connection points: 2
#     Edge 74, Type (0, 1), BuildingBlock: ZUJKAS_clean_linker_0, # of connection points: 2
#     Edge 75, Type (0, 1), BuildingBlock: ZUJKAS_clean_linker_0, # of connection points: 2
#     Edge 76, Type (0, 1), BuildingBlock: ZUJKAS_clean_linker_0, # of connection points: 2
#     Edge 77, Type (0, 1), BuildingBlock: ZUJKAS_clean_linker_0, # of connection points: 2
#     Edge 78, Type (0, 1), BuildingBlock: ZUJKAS_clean_linker_0, # of connection points: 2
#     Edge 79, Type (0, 1), BuildingBlock: ZUJKAS_clean_linker_0, # of connection points: 2
#     Edge 80, Type (0, 1), BuildingBlock: ZUJKAS_clean_linker_0, # of connection points: 2
#     Edge 81, Type (0, 1), BuildingBlock: ZUJKAS_clean_linker_0, # of connection points: 2
#     Edge 82, Type (0, 1), BuildingBlock: ZUJKAS_clean_linker_0, # of connection points: 2
#     Edge 83, Type (0, 1), BuildingBlock: ZUJKAS_clean_linker_0, # of connection points: 2
#     Edge 84, Type (0, 1), BuildingBlock: ZUJKAS_clean_linker_0, # of connection points: 2
#     Edge 85, Type (0, 1), BuildingBlock: ZUJKAS_clean_linker_0, # of connection points: 2
#     Edge 86, Type (0, 1), BuildingBlock: ZUJKAS_clean_linker_0, # of connection points: 2
#     Edge 87, Type (0, 1), BuildingBlock: ZUJKAS_clean_linker_0, # of connection points: 2
#     Edge 88, Type (0, 1), BuildingBlock: ZUJKAS_clean_linker_0, # of connection points: 2
#     Edge 89, Type (0, 1), BuildingBlock: ZUJKAS_clean_linker_0, # of connection points: 2
#     Edge 90, Type (0, 1), BuildingBlock: ZUJKAS_clean_linker_0, # of connection points: 2
#     Edge 91, Type (0, 1), BuildingBlock: ZUJKAS_clean_linker_0, # of connection points: 2
#     Edge 92, Type (0, 1), BuildingBlock: ZUJKAS_clean_linker_0, # of connection points: 2
#     Edge 93, Type (0, 1), BuildingBlock: ZUJKAS_clean_linker_0, # of connection points: 2
#     Edge 94, Type (0, 1), BuildingBlock: ZUJKAS_clean_linker_0, # of connection points: 2
#     Edge 95, Type (0, 1), BuildingBlock: ZUJKAS_clean_linker_0, # of connection points: 2
#     Edge 96, Type (0, 1), BuildingBlock: ZUJKAS_clean_linker_0, # of connection points: 2
#     Edge 97, Type (0, 1), BuildingBlock: ZUJKAS_clean_linker_0, # of connection points: 2
#     Edge 98, Type (0, 1), BuildingBlock: ZUJKAS_clean_linker_0, # of connection points: 2
#     Edge 99, Type (0, 1), BuildingBlock: ZUJKAS_clean_linker_0, # of connection points: 2
#     Edge 100, Type (0, 1), BuildingBlock: ZUJKAS_clean_linker_0, # of connection points: 2
#     Edge 101, Type (0, 1), BuildingBlock: ZUJKAS_clean_linker_0, # of connection points: 2
#     Edge 102, Type (0, 1), BuildingBlock: ZUJKAS_clean_linker_0, # of connection points: 2
#     Edge 103, Type (0, 1), BuildingBlock: ZUJKAS_clean_linker_0, # of connection points: 2
#     Edge 104, Type (0, 1), BuildingBlock: ZUJKAS_clean_linker_0, # of connection points: 2
#     Edge 105, Type (0, 1), BuildingBlock: ZUJKAS_clean_linker_0, # of connection points: 2
#     Edge 106, Type (0, 1), BuildingBlock: ZUJKAS_clean_linker_0, # of connection points: 2
#     Edge 107, Type (0, 1), BuildingBlock: ZUJKAS_clean_linker_0, # of connection points: 2
#     Edge 108, Type (0, 1), BuildingBlock: ZUJKAS_clean_linker_0, # of connection points: 2
#     Edge 109, Type (0, 1), BuildingBlock: ZUJKAS_clean_linker_0, # of connection points: 2
#     Edge 110, Type (0, 1), BuildingBlock: ZUJKAS_clean_linker_0, # of connection points: 2
#     Edge 111, Type (0, 1), BuildingBlock: ZUJKAS_clean_linker_0, # of connection points: 2
#     Edge 112, Type (0, 1), BuildingBlock: ZUJKAS_clean_linker_0, # of connection points: 2
#     Edge 113, Type (0, 1), BuildingBlock: ZUJKAS_clean_linker_0, # of connection points: 2
#     Edge 114, Type (0, 1), BuildingBlock: ZUJKAS_clean_linker_0, # of connection points: 2
#     Edge 115, Type (0, 1), BuildingBlock: ZUJKAS_clean_linker_0, # of connection points: 2
#     Edge 116, Type (0, 1), BuildingBlock: ZUJKAS_clean_linker_0, # of connection points: 2
#     Edge 117, Type (0, 1), BuildingBlock: ZUJKAS_clean_linker_0, # of connection points: 2
#     Edge 118, Type (0, 1), BuildingBlock: ZUJKAS_clean_linker_0, # of connection points: 2
#     Edge 119, Type (0, 1), BuildingBlock: ZUJKAS_clean_linker_0, # of connection points: 2
#     Edge 120, Type (0, 1), BuildingBlock: ZUJKAS_clean_linker_0, # of connection points: 2
#     Edge 121, Type (0, 1), BuildingBlock: ZUJKAS_clean_linker_0, # of connection points: 2
#     Edge 122, Type (0, 1), BuildingBlock: ZUJKAS_clean_linker_0, # of connection points: 2
#     Edge 123, Type (0, 1), BuildingBlock: ZUJKAS_clean_linker_0, # of connection points: 2
#     Edge 124, Type (0, 1), BuildingBlock: ZUJKAS_clean_linker_0, # of connection points: 2
#     Edge 125, Type (0, 1), BuildingBlock: ZUJKAS_clean_linker_0, # of connection points: 2
#     Edge 126, Type (0, 1), BuildingBlock: ZUJKAS_clean_linker_0, # of connection points: 2
#     Edge 127, Type (0, 1), BuildingBlock: ZUJKAS_clean_linker_0, # of connection points: 2
#     Edge 128, Type (0, 1), BuildingBlock: ZUJKAS_clean_linker_0, # of connection points: 2
#     Edge 129, Type (0, 1), BuildingBlock: ZUJKAS_clean_linker_0, # of connection points: 2
#     Edge 130, Type (0, 1), BuildingBlock: ZUJKAS_clean_linker_0, # of connection points: 2
#     Edge 131, Type (0, 1), BuildingBlock: ZUJKAS_clean_linker_0, # of connection points: 2
#     Edge 132, Type (0, 1), BuildingBlock: ZUJKAS_clean_linker_0, # of connection points: 2
#     Edge 133, Type (0, 1), BuildingBlock: ZUJKAS_clean_linker_0, # of connection points: 2
#     Edge 134, Type (0, 1), BuildingBlock: ZUJKAS_clean_linker_0, # of connection points: 2
#     Edge 135, Type (0, 1), BuildingBlock: ZUJKAS_clean_linker_0, # of connection points: 2
# Relax obj value: 0.179
# Max RMSD: 0.285
# Mean RMSD: 0.169
data_MOF--net-gar--node1-GALJAG_clean_sbu_0--node2-BETDAH_clean_sbu_0--edge1-ZUJKAS_clean_linker_0
_symmetry_space_group_name_H-M    P1
_symmetry_Int_Tables_number       1
_symmetry_cell_setting            triclinic
loop_
_symmetry_equiv_pos_as_xyz
'x, y, z'
_cell_length_a     78.375681
_cell_length_b     72.736097
_cell_length_c     73.072408
_cell_angle_alpha  98.058169
_cell_angle_beta   94.961758
_cell_angle_gamma 102.01567
loop_
_atom_site_label
_atom_site_type_symbol
_atom_site_fract_x
_atom_site_fract_y
_atom_site_fract_z
_atom_type_partial_charge
In0 In 0.08905 0.32217 0.39254 0.0
O1 O 0.09998 0.32043 0.36553 0.0
O2 O 0.11833 0.32484 0.38992 0.0
C3 C 0.05622 0.31534 0.37647 0.0
C4 C 0.08546 0.29007 0.40711 0.0
C5 C 0.09071 0.35835 0.40696 0.0
O6 O 0.06879 0.31236 0.3677 0.0
O7 O 0.06014 0.3217 0.39364 0.0
O8 O 0.0929 0.3462 0.41724 0.0
O9 O 0.08904 0.35243 0.38972 0.0
C10 C 0.11563 0.32221 0.37233 0.0
O11 O 0.09166 0.30612 0.41718 0.0
O12 O 0.08188 0.29055 0.39012 0.0
In13 In 0.99868 0.76209 0.65795 0.0
O14 O 0.00996 0.77326 0.63336 0.0
O15 O 0.99857 0.79163 0.65147 0.0
C16 C 0.99202 0.72589 0.64246 0.0
C17 C 0.02995 0.76884 0.67775 0.0
C18 C 0.97014 0.76089 0.67474 0.0
O19 O 0.98716 0.73827 0.63398 0.0
O20 O 0.99964 0.73177 0.65876 0.0
O21 O 0.98502 0.76234 0.68362 0.0
O22 O 0.96981 0.76056 0.65742 0.0
C23 C 0.00677 0.78949 0.63752 0.0
O24 O 0.01871 0.77829 0.6823 0.0
O25 O 0.02519 0.75618 0.66357 0.0
In26 In 0.59119 0.8245 0.89581 0.0
O27 O 0.59966 0.81904 0.86755 0.0
O28 O 0.61954 0.82567 0.89084 0.0
C29 C 0.56058 0.82492 0.87755 0.0
C30 C 0.58635 0.79094 0.90754 0.0
C31 C 0.5938 0.85726 0.91865 0.0
O32 O 0.57495 0.83309 0.87275 0.0
O33 O 0.56175 0.81688 0.89165 0.0
O34 O 0.58757 0.84133 0.92312 0.0
O35 O 0.60032 0.85648 0.90351 0.0
C36 C 0.61571 0.82175 0.87337 0.0
O37 O 0.59929 0.80434 0.91464 0.0
O38 O 0.57656 0.79446 0.89455 0.0
In39 In 0.49871 0.26071 0.15714 0.0
O40 O 0.48892 0.23953 0.1307 0.0
O41 O 0.49524 0.22912 0.15575 0.0
C42 C 0.50829 0.2882 0.13703 0.0
C43 C 0.47074 0.26116 0.17487 0.0
C44 C 0.52924 0.26647 0.17845 0.0
O45 O 0.5138 0.27304 0.13519 0.0
O46 O 0.49721 0.28915 0.14845 0.0
O47 O 0.51962 0.2784 0.17985 0.0
O48 O 0.52311 0.25154 0.16681 0.0
C49 C 0.49015 0.22535 0.13853 0.0
O50 O 0.48576 0.26245 0.18333 0.0
O51 O 0.46996 0.26013 0.15745 0.0
In52 In 0.07424 0.81055 0.12899 0.0
O53 O 0.0723 0.78918 0.10175 0.0
O54 O 0.06943 0.77847 0.12715 0.0
C55 C 0.07201 0.84155 0.11164 0.0
C56 C 0.04309 0.80334 0.1432 0.0
C57 C 0.10549 0.81509 0.15169 0.0
O58 O 0.08232 0.83084 0.10744 0.0
O59 O 0.06335 0.83696 0.12463 0.0
O60 O 0.09139 0.81735 0.15785 0.0
O61 O 0.10408 0.81148 0.13419 0.0
C62 C 0.06946 0.77471 0.1098 0.0
O63 O 0.05677 0.81433 0.15241 0.0
O64 O 0.04512 0.79637 0.12692 0.0
In65 In 0.51215 0.7724 0.41464 0.0
O66 O 0.52945 0.76374 0.39174 0.0
O67 O 0.5399 0.78847 0.41153 0.0
C68 C 0.47891 0.77206 0.39798 0.0
C69 C 0.51505 0.7429 0.43361 0.0
C70 C 0.51501 0.80631 0.43577 0.0
O71 O 0.49159 0.77027 0.38871 0.0
O72 O 0.48265 0.77247 0.41521 0.0
O73 O 0.51563 0.79152 0.44282 0.0
O74 O 0.51309 0.80397 0.41821 0.0
C75 C 0.54252 0.77734 0.39783 0.0
O76 O 0.52272 0.76 0.43932 0.0
O77 O 0.50524 0.74042 0.41837 0.0
In78 In 0.57189 0.30891 0.62868 0.0
O79 O 0.57057 0.28747 0.6016 0.0
O80 O 0.56258 0.27692 0.6259 0.0
C81 C 0.57198 0.34055 0.61199 0.0
C82 C 0.54147 0.30309 0.64454 0.0
C83 C 0.60398 0.31286 0.6493 0.0
O84 O 0.57466 0.32522 0.60344 0.0
O85 O 0.56989 0.34004 0.62885 0.0
O86 O 0.59334 0.32312 0.65368 0.0
O87 O 0.59883 0.30133 0.63437 0.0
C88 C 0.56481 0.27305 0.60906 0.0
O89 O 0.556 0.30213 0.65283 0.0
O90 O 0.54233 0.30767 0.62857 0.0
In91 In 0.01188 0.27208 0.9141 0.0
O92 O 0.0104 0.25579 0.93894 0.0
O93 O 0.01512 0.24103 0.91347 0.0
C94 C 0.01679 0.30569 0.93688 0.0
C95 C 0.04354 0.2766 0.89994 0.0
C96 C 0.97934 0.27206 0.89528 0.0
O97 O 0.01265 0.28996 0.94259 0.0
O98 O 0.01851 0.30441 0.91978 0.0
O99 O 0.99371 0.27657 0.88868 0.0
O100 O 0.98116 0.26616 0.91059 0.0
C101 C 0.01372 0.24082 0.93056 0.0
O102 O 0.02931 0.26717 0.89047 0.0
O103 O 0.04171 0.28362 0.91624 0.0
In104 In 0.42555 0.03581 0.29452 0.0
O105 O 0.44498 0.04105 0.27367 0.0
O106 O 0.41862 0.02487 0.26451 0.0
C107 C 0.44163 0.04296 0.32849 0.0
C108 C 0.40642 0.06117 0.29051 0.0
C109 C 0.41688 0.99895 0.29535 0.0
O110 O 0.45035 0.04479 0.31479 0.0
O111 O 0.42518 0.03964 0.32488 0.0
O112 O 0.40662 0.00987 0.29923 0.0
O113 O 0.43155 1.00659 0.29088 0.0
C114 C 0.43377 0.03137 0.26039 0.0
O115 O 0.39962 0.04409 0.29164 0.0
O116 O 0.42302 0.06562 0.29225 0.0
In117 In 0.28097 0.18902 0.50626 0.0
O118 O 0.28203 0.21677 0.52704 0.0
O119 O 0.28913 0.19343 0.53756 0.0
C120 C 0.28344 0.20442 0.474 0.0
C121 C 0.30907 0.17333 0.51128 0.0
C122 C 0.24787 0.16623 0.50313 0.0
O123 O 0.27692 0.21161 0.48772 0.0
O124 O 0.28877 0.18968 0.47653 0.0
O125 O 0.26052 0.16047 0.49651 0.0
O126 O 0.25179 0.1834 0.51077 0.0
C127 C 0.28702 0.21014 0.54116 0.0
O128 O 0.29353 0.16467 0.51244 0.0
O129 O 0.31047 0.18979 0.50696 0.0
In130 In 0.16399 0.01834 0.77913 0.0
O131 O 0.13785 0.01109 0.75673 0.0
O132 O 0.16165 0.02088 0.74684 0.0
C133 C 0.14696 0.0209 0.81327 0.0
C134 C 0.182 0.98658 0.77657 0.0
C135 C 0.18321 0.05667 0.78152 0.0
O136 O 0.13949 0.01192 0.7975 0.0
O137 O 0.16283 0.02839 0.812 0.0
O138 O 0.18988 0.04343 0.78656 0.0
O139 O 0.167 0.05082 0.77592 0.0
C140 C 0.1452 0.01575 0.74274 0.0
O141 O 0.18898 1.00364 0.77538 0.0
O142 O 0.16606 0.9853 0.77916 0.0
In143 In 0.29871 0.92074 0.00617 0.0
O144 O 0.2917 0.9006 0.02683 0.0
O145 O 0.30867 0.92821 0.03606 0.0
C146 C 0.29447 0.8984 0.97363 0.0
C147 C 0.2744 0.94063 0.01105 0.0
C148 C 0.33234 0.93454 1.00477 0.0
O149 O 0.29755 0.89241 0.9887 0.0
O150 O 0.292 0.9151 0.97515 0.0
O151 O 0.32068 0.94252 0.99855 0.0
O152 O 0.32695 0.91958 0.01132 0.0
C153 C 0.30132 0.91241 0.04003 0.0
O154 O 0.29049 0.94851 0.01227 0.0
O155 O 0.27049 0.92272 0.00638 0.0
In156 In 0.30515 0.39655 0.03906 0.0
O157 O 0.2965 0.37003 0.05283 0.0
O158 O 0.31021 0.3951 0.07065 0.0
C159 C 0.30126 0.37699 1.00426 0.0
C160 C 0.27557 0.41134 0.0365 0.0
C161 C 0.33955 0.41545 0.03859 0.0
O162 O 0.30329 0.36929 0.01854 0.0
O163 O 0.30123 0.39451 0.00758 0.0
O164 O 0.32873 0.4231 0.04707 0.0
O165 O 0.33326 0.3984 0.03113 0.0
C166 C 0.30242 0.37783 0.06927 0.0
O167 O 0.29085 0.42184 0.0406 0.0
O168 O 0.27534 0.39384 0.03422 0.0
In169 In 0.7842 0.15048 0.0288 0.0
O170 O 0.79509 0.12404 0.02263 0.0
O171 O 0.81278 0.15055 0.03372 0.0
C172 C 0.75006 0.13601 0.02552 0.0
C173 C 0.78842 0.16903 0.06335 0.0
C174 C 0.78309 0.16537 0.99755 0.0
O175 O 0.76103 0.12546 0.02493 0.0
O176 O 0.75643 0.15372 0.02858 0.0
O177 O 0.78792 0.17563 0.01329 0.0
O178 O 0.77994 0.14771 0.99761 0.0
C179 C 0.81072 0.13306 0.02774 0.0
O180 O 0.79466 0.17665 0.05015 0.0
O181 O 0.7804 0.15175 0.05921 0.0
In182 In 0.17046 0.5494 0.25722 0.0
O183 O 0.19317 0.53503 0.25452 0.0
O184 O 0.16775 0.51903 0.25822 0.0
C185 C 0.18179 0.58609 0.26004 0.0
C186 C 0.15312 0.5431 0.22418 0.0
C187 C 0.16138 0.55282 0.29121 0.0
O188 O 0.19231 0.57512 0.26127 0.0
O189 O 0.16562 0.57841 0.25674 0.0
O190 O 0.15015 0.546 0.27712 0.0
O191 O 0.17716 0.5573 0.28809 0.0
C192 C 0.18366 0.5193 0.25662 0.0
O193 O 0.14558 0.53944 0.23827 0.0
O194 O 0.16953 0.54963 0.22676 0.0
In195 In 0.80538 0.89578 0.53911 0.0
O196 O 0.80309 0.8692 0.55373 0.0
O197 O 0.80388 0.89542 0.57063 0.0
C198 C 0.80094 0.8766 0.50407 0.0
C199 C 0.77544 0.90966 0.53546 0.0
C200 C 0.83976 0.91539 0.53908 0.0
O201 O 0.80164 0.86833 0.51818 0.0
O202 O 0.80227 0.8944 0.50774 0.0
O203 O 0.82876 0.92265 0.54758 0.0
O204 O 0.8337 0.8984 0.53143 0.0
C205 C 0.80243 0.87772 0.56982 0.0
O206 O 0.79032 0.92026 0.54178 0.0
O207 O 0.77569 0.89234 0.53127 0.0
In208 In 0.92441 0.06237 0.26353 0.0
O209 O 0.95044 0.06916 0.24778 0.0
O210 O 0.92692 0.05767 0.23063 0.0
C211 C 0.94602 0.06213 0.29716 0.0
C212 C 0.9076 0.09519 0.26457 0.0
C213 C 0.90306 0.02477 0.26371 0.0
O214 O 0.94695 0.05281 0.28147 0.0
O215 O 0.93494 0.07243 0.29593 0.0
O216 O 0.90309 0.03936 0.27543 0.0
O217 O 0.91266 0.02924 0.25127 0.0
C218 C 0.94339 0.06346 0.23109 0.0
O219 O 0.89975 0.07791 0.25893 0.0
O220 O 0.92369 0.09604 0.26957 0.0
In221 In 0.28232 0.64864 0.52877 0.0
O222 O 0.29592 0.62412 0.52428 0.0
O223 O 0.3115 0.6523 0.53315 0.0
C224 C 0.24887 0.63139 0.52598 0.0
C225 C 0.28335 0.67131 0.5609 0.0
C226 C 0.2809 0.65957 0.49555 0.0
O227 O 0.26056 0.62358 0.53244 0.0
O228 O 0.25415 0.64764 0.52182 0.0
O229 O 0.2883 0.67089 0.51014 0.0
O230 O 0.27539 0.64252 0.49764 0.0
C231 C 0.31105 0.63487 0.52839 0.0
O232 O 0.28344 0.6773 0.54552 0.0
O233 O 0.28325 0.65383 0.56016 0.0
In234 In 0.42432 0.5627 0.76425 0.0
O235 O 0.39929 0.57817 0.76179 0.0
O236 O 0.42365 0.59643 0.76913 0.0
C237 C 0.40361 0.52492 0.76513 0.0
C238 C 0.44362 0.56194 0.73195 0.0
C239 C 0.44583 0.56355 0.79808 0.0
O240 O 0.40291 0.53348 0.75117 0.0
O241 O 0.41394 0.53544 0.77848 0.0
O242 O 0.45023 0.55922 0.78201 0.0
O243 O 0.43119 0.56836 0.79716 0.0
C244 C 0.40735 0.59554 0.76585 0.0
O245 O 0.44896 0.57289 0.74736 0.0
O246 O 0.42874 0.55136 0.73269 0.0
In247 In 0.66566 0.04547 0.75728 0.0
O248 O 0.68835 0.03154 0.7535 0.0
O249 O 0.6637 0.01485 0.75844 0.0
C250 C 0.68033 0.08178 0.76026 0.0
C251 C 0.64715 0.04154 0.7248 0.0
C252 C 0.65624 0.04811 0.79124 0.0
O253 O 0.68925 0.06915 0.75868 0.0
O254 O 0.66399 0.07594 0.76015 0.0
O255 O 0.64522 0.04132 0.77697 0.0
O256 O 0.67207 0.05275 0.78828 0.0
C257 C 0.67953 0.01568 0.75596 0.0
O258 O 0.63994 0.03961 0.73941 0.0
O259 O 0.66367 0.04456 0.72658 0.0
In260 In 0.78201 0.68883 1.00478 0.0
O261 O 0.79655 0.66451 1.00286 0.0
O262 O 0.8115 0.69247 0.01356 0.0
C263 C 0.74874 0.66649 1.00239 0.0
C264 C 0.78617 0.70761 0.04042 0.0
C265 C 0.78469 0.70413 0.97231 0.0
O266 O 0.76178 0.65989 0.99813 0.0
O267 O 0.75232 0.6843 0.00725 0.0
O268 O 0.77977 0.71243 0.98661 0.0
O269 O 0.78832 0.68844 0.97445 0.0
C270 C 0.81134 0.67494 0.00976 0.0
O271 O 0.78521 0.71617 0.02654 0.0
O272 O 0.78496 0.68993 0.03622 0.0
In273 In 0.92584 0.53675 0.79256 0.0
O274 O 0.90016 0.54494 0.79424 0.0
O275 O 0.92311 0.56722 0.79528 0.0
C276 C 0.91569 0.49985 0.78041 0.0
C277 C 0.9363 0.54005 0.75967 0.0
C278 C 0.9402 0.53785 0.82657 0.0
O279 O 0.905 0.51053 0.7827 0.0
O280 O 0.93162 0.50741 0.78586 0.0
O281 O 0.94917 0.54407 0.81424 0.0
O282 O 0.92386 0.53212 0.82191 0.0
C283 C 0.90653 0.56237 0.79421 0.0
O284 O 0.94753 0.54289 0.77394 0.0
O285 O 0.92051 0.53753 0.7627 0.0
In286 In 0.79801 0.41994 0.50868 0.0
O287 O 0.79459 0.39848 0.52854 0.0
O288 O 0.80851 0.42732 0.5387 0.0
C289 C 0.79443 0.4017 0.47407 0.0
C290 C 0.77219 0.4376 0.51444 0.0
C291 C 0.83148 0.43475 0.50861 0.0
O292 O 0.7918 0.39261 0.48749 0.0
O293 O 0.79713 0.41952 0.47809 0.0
O294 O 0.81981 0.44407 0.50592 0.0
O295 O 0.82628 0.41789 0.51145 0.0
C296 C 0.80317 0.41069 0.54208 0.0
O297 O 0.78688 0.44622 0.51082 0.0
O298 O 0.77025 0.41989 0.51417 0.0
In299 In 0.66374 0.51868 0.27955 0.0
O300 O 0.68897 0.50429 0.2817 0.0
O301 O 0.66485 0.48504 0.27598 0.0
C302 C 0.68419 0.55679 0.28115 0.0
C303 C 0.64395 0.51628 0.24364 0.0
C304 C 0.64634 0.51931 0.31347 0.0
O305 O 0.68711 0.54213 0.27165 0.0
O306 O 0.67151 0.55239 0.29042 0.0
O307 O 0.63841 0.51515 0.29699 0.0
O308 O 0.66285 0.52251 0.31297 0.0
C309 C 0.68139 0.48678 0.27819 0.0
O310 O 0.63788 0.51923 0.25903 0.0
O311 O 0.65935 0.51377 0.24625 0.0
Ho312 Ho 0.03349 0.03781 0.0149 0.0
Ho313 Ho 0.06716 0.05608 0.03685 0.0
C314 C 0.04708 0.08356 0.01834 0.0
C315 C 1.00022 0.02797 1.00425 0.0
C316 C 0.9868 0.03903 0.00645 0.0
C317 C 0.99063 0.05636 0.0188 0.0
C318 C 0.97906 0.06853 0.01876 0.0
C319 C 0.96342 0.06342 0.00647 0.0
C320 C 0.9595 0.04584 0.99441 0.0
C321 C 0.97119 0.03379 0.99432 0.0
C322 C 0.05746 0.03538 0.98914 0.0
C323 C 0.05349 0.01049 0.03414 0.0
C324 C 0.10029 0.06654 0.04842 0.0
C325 C 0.11428 0.05593 0.0492 0.0
C326 C 0.11791 0.04499 0.03321 0.0
C327 C 0.13001 0.03351 0.0347 0.0
C328 C 0.13847 0.03257 0.05223 0.0
C329 C 0.13471 0.04347 0.06817 0.0
C330 C 0.12284 0.05515 0.06664 0.0
C331 C 0.04272 0.0581 0.06235 0.0
O332 O 0.03354 0.0689 0.01518 0.0
O333 O 0.06252 0.08196 0.02563 0.0
O334 O 0.0118 0.03453 0.99365 0.0
O335 O 0.00737 0.02366 0.01945 0.0
O336 O 0.04088 0.02774 0.98671 0.0
O337 O 0.06129 0.04304 0.00649 0.0
O338 O 0.06714 0.02509 0.03737 0.0
O339 O 0.03821 0.0121 0.02637 0.0
O340 O 0.08827 0.06175 0.05916 0.0
O341 O 0.09366 0.06878 0.03205 0.0
O342 O 0.05932 0.06563 0.06516 0.0
O343 O 0.03937 0.05069 0.04498 0.0
H344 H 1.00278 0.06071 0.02812 0.0
H345 H 0.98247 0.08202 0.02813 0.0
H346 H 0.94736 0.04132 0.98509 0.0
H347 H 0.96822 0.02058 0.98454 0.0
H348 H 0.1113 0.04511 0.01959 0.0
H349 H 0.13285 0.02555 0.0221 0.0
H350 H 0.14078 0.04283 0.08189 0.0
H351 H 0.11998 0.06323 0.07918 0.0
Ho352 Ho 0.29564 0.80403 0.272 0.0
Ho353 Ho 0.2808 0.81258 0.31151 0.0
C354 C 0.29333 0.84651 0.28957 0.0
C355 C 0.30112 0.79891 0.23779 0.0
C356 C 0.30424 0.81275 0.22529 0.0
C357 C 0.29681 0.82875 0.22765 0.0
C358 C 0.30215 0.84365 0.21796 0.0
C359 C 0.31489 0.84263 0.20574 0.0
C360 C 0.32246 0.82669 0.20361 0.0
C361 C 0.31719 0.81185 0.21341 0.0
C362 C 0.32171 0.8073 0.30092 0.0
C363 C 0.27922 0.76949 0.29209 0.0
C364 C 0.27608 0.81719 0.34602 0.0
C365 C 0.26497 0.80452 0.35626 0.0
C366 C 0.26169 0.78471 0.35073 0.0
C367 C 0.2524 0.77253 0.3613 0.0
C368 C 0.24628 0.78006 0.3775 0.0
C369 C 0.24848 0.79984 0.38236 0.0
C370 C 0.25771 0.81206 0.37166 0.0
C371 C 0.25478 0.80743 0.28202 0.0
O372 O 0.29357 0.8343 0.27442 0.0
O373 O 0.2923 0.84166 0.30627 0.0
O374 O 0.31358 0.80214 0.25162 0.0
O375 O 0.28535 0.79494 0.24296 0.0
O376 O 0.32328 0.80434 0.28341 0.0
O377 O 0.30608 0.80939 0.30196 0.0
O378 O 0.278 0.78121 0.30723 0.0
O379 O 0.28415 0.7749 0.27651 0.0
O380 O 0.2676 0.82433 0.3336 0.0
O381 O 0.28945 0.81101 0.33994 0.0
O382 O 0.25243 0.81028 0.29943 0.0
O383 O 0.27073 0.80664 0.2819 0.0
H384 H 0.28712 0.82987 0.2372 0.0
H385 H 0.29622 0.85587 0.21989 0.0
H386 H 0.33212 0.82546 0.19402 0.0
H387 H 0.32342 0.79983 0.21197 0.0
H388 H 0.26696 0.77862 0.33874 0.0
H389 H 0.25116 0.7573 0.3576 0.0
H390 H 0.24394 0.80579 0.39498 0.0
H391 H 0.25982 0.82732 0.37585 0.0
Ho392 Ho 0.55526 0.03478 0.52879 0.0
Ho393 Ho 0.51472 0.03384 0.53182 0.0
C394 C 0.52642 0.99445 0.52638 0.0
C395 C 0.58695 0.02897 0.53187 0.0
C396 C 0.59707 0.01371 0.52896 0.0
C397 C 0.60252 1.00548 0.54412 0.0
C398 C 0.61433 0.99344 0.54239 0.0
C399 C 0.62118 0.98933 0.52547 0.0
C400 C 0.61504 0.99676 0.51001 0.0
C401 C 0.60322 0.00887 0.51175 0.0
C402 C 0.5347 0.03375 0.49743 0.0
C403 C 0.54381 0.0746 0.53617 0.0
C404 C 0.48276 0.03811 0.52785 0.0
C405 C 0.47258 0.05286 0.53221 0.0
C406 C 0.47654 0.07049 0.52591 0.0
C407 C 0.46559 0.08334 0.52859 0.0
C408 C 0.45043 0.07887 0.53761 0.0
C409 C 0.44699 0.06159 0.54464 0.0
C410 C 0.45793 0.04874 0.54193 0.0
C411 C 0.53509 0.0343 0.56299 0.0
O412 O 0.54292 1.00421 0.5309 0.0
O413 O 0.51324 1.00281 0.52304 0.0
O414 O 0.57977 0.03426 0.5172 0.0
O415 O 0.57708 0.02878 0.54545 0.0
O416 O 0.55113 0.04254 0.50024 0.0
O417 O 0.53057 0.02509 0.51054 0.0
O418 O 0.52712 0.06514 0.5322 0.0
O419 O 0.55708 0.06599 0.5381 0.0
O420 O 0.48936 0.03155 0.54201 0.0
O421 O 0.49337 0.04031 0.51499 0.0
O422 O 0.51859 0.02573 0.56037 0.0
O423 O 0.53915 0.04303 0.54994 0.0
H424 H 0.59817 0.0089 0.5576 0.0
H425 H 0.61845 0.98772 0.55451 0.0
H426 H 0.62005 0.99402 0.49677 0.0
H427 H 0.59945 0.01502 0.49978 0.0
H428 H 0.48786 0.07418 0.51854 0.0
H429 H 0.46885 0.09667 0.52332 0.0
H430 H 0.43541 0.05756 0.55152 0.0
H431 H 0.45462 0.03527 0.54696 0.0
Ho432 Ho 0.27904 0.29494 0.77491 0.0
Ho433 Ho 0.31496 0.28537 0.77675 0.0
C434 C 0.30092 0.29545 0.81476 0.0
C435 C 0.24803 0.30024 0.78125 0.0
C436 C 0.23502 0.29807 0.79508 0.0
C437 C 0.22573 0.28011 0.79789 0.0
C438 C 0.21208 0.2786 0.8093 0.0
C439 C 0.20737 0.29499 0.81826 0.0
C440 C 0.21712 0.31291 0.81595 0.0
C441 C 0.23066 0.31441 0.80447 0.0
C442 C 0.30598 0.32476 0.76993 0.0
C443 C 0.291 0.27806 0.7368 0.0
C444 C 0.34797 0.28872 0.77271 0.0
C445 C 0.35931 0.28238 0.75892 0.0
C446 C 0.35834 0.28726 0.74095 0.0
C447 C 0.37097 0.28414 0.72916 0.0
C448 C 0.38488 0.27599 0.73497 0.0
C449 C 0.38524 0.27005 0.75251 0.0
C450 C 0.37264 0.27331 0.76438 0.0
C451 C 0.29037 0.25159 0.77714 0.0
O452 O 0.28531 0.29198 0.80494 0.0
O453 O 0.31544 0.2962 0.80683 0.0
O454 O 0.26256 0.31321 0.78625 0.0
O455 O 0.25061 0.28494 0.77113 0.0
O456 O 0.29048 0.31967 0.76047 0.0
O457 O 0.3065 0.31321 0.78158 0.0
O458 O 0.3068 0.28128 0.74608 0.0
O459 O 0.27717 0.28078 0.74512 0.0
O460 O 0.33952 0.2762 0.78191 0.0
O461 O 0.33856 0.30053 0.76786 0.0
O462 O 0.3073 0.2536 0.77834 0.0
O463 O 0.28753 0.26812 0.77626 0.0
H464 H 0.22869 0.26719 0.79093 0.0
H465 H 0.20505 0.26456 0.81094 0.0
H466 H 0.21383 0.32585 0.8224 0.0
H467 H 0.23741 0.32845 0.80249 0.0
H468 H 0.3482 0.29416 0.73616 0.0
H469 H 0.37006 0.28854 0.71562 0.0
H470 H 0.39577 0.26378 0.75748 0.0
H471 H 0.37375 0.26943 0.77815 0.0
Ho472 Ho 0.0435 0.05051 0.52435 0.0
Ho473 Ho 0.05027 0.01514 0.50844 0.0
C474 C 0.03366 0.03676 0.47873 0.0
C475 C 0.0413 0.08559 0.52995 0.0
C476 C 0.04189 0.09902 0.51671 0.0
C477 C 0.05249 0.09809 0.50214 0.0
C478 C 0.053 0.11088 0.48956 0.0
C479 C 0.04295 0.12469 0.49144 0.0
C480 C 0.03198 0.12528 0.50559 0.0
C481 C 0.03137 0.1124 0.51811 0.0
C482 C 0.01719 0.02056 0.52769 0.0
C483 C 0.06095 0.02973 0.55425 0.0
C484 C 0.05263 0.98011 0.50152 0.0
C485 C 0.05307 0.96657 0.51441 0.0
C486 C 0.04549 0.96917 0.531 0.0
C487 C 0.04649 0.95702 0.54387 0.0
C488 C 0.0548 0.94179 0.54023 0.0
C489 C 0.06264 0.93936 0.52371 0.0
C490 C 0.06184 0.95178 0.51089 0.0
C491 C 0.07621 0.04503 0.50474 0.0
O492 O 0.03773 0.05113 0.4929 0.0
O493 O 0.03617 0.01989 0.48153 0.0
O494 O 0.02752 0.07149 0.52702 0.0
O495 O 0.05589 0.08013 0.5337 0.0
O496 O 0.02368 0.03502 0.54071 0.0
O497 O 0.02504 0.02271 0.51344 0.0
O498 O 0.05686 0.01512 0.54019 0.0
O499 O 0.05812 0.04642 0.5512 0.0
O500 O 0.06626 0.99435 0.5041 0.0
O501 O 0.0378 0.98551 0.49924 0.0
O502 O 0.06997 0.03039 0.49189 0.0
O503 O 0.06853 0.04293 0.51908 0.0
H504 H 0.06055 0.08766 0.50064 0.0
H505 H 0.06168 0.11045 0.47882 0.0
H506 H 0.0242 0.13596 0.50716 0.0
H507 H 0.02291 0.11306 0.52903 0.0
H508 H 0.03872 0.98059 0.53403 0.0
H509 H 0.04063 0.95947 0.55663 0.0
H510 H 0.069 0.92762 0.52051 0.0
H511 H 0.06794 0.94979 0.49822 0.0
Ho512 Ho 0.31718 0.81075 0.76531 0.0
Ho513 Ho 0.28224 0.77974 0.7658 0.0
C514 C 0.31928 0.7647 0.76882 0.0
C515 C 0.34782 0.83287 0.77054 0.0
C516 C 0.36525 0.82929 0.77452 0.0
C517 C 0.36862 0.81859 0.78841 0.0
C518 C 0.38475 0.81366 0.79083 0.0
C519 C 0.39763 0.81913 0.77923 0.0
C520 C 0.39417 0.8297 0.76524 0.0
C521 C 0.37808 0.83482 0.76296 0.0
C522 C 0.29932 0.79315 0.73267 0.0
C523 C 0.28023 0.82587 0.76581 0.0
C524 C 0.25323 0.7574 0.75098 0.0
C525 C 0.23556 0.76105 0.74782 0.0
C526 C 0.23008 0.76589 0.73063 0.0
C527 C 0.21429 0.77148 0.72795 0.0
C528 C 0.20364 0.77202 0.74229 0.0
C529 C 0.20874 0.76689 0.75934 0.0
C530 C 0.22471 0.76149 0.76215 0.0
C531 C 0.29444 0.79901 0.80015 0.0
O532 O 0.3278 0.78304 0.76908 0.0
O533 O 0.30169 0.76016 0.76755 0.0
O534 O 0.33991 0.82474 0.75402 0.0
O535 O 0.33751 0.83125 0.7837 0.0
O536 O 0.30714 0.81105 0.73549 0.0
O537 O 0.30189 0.78597 0.74698 0.0
O538 O 0.27179 0.80741 0.7634 0.0
O539 O 0.29781 0.83061 0.76804 0.0
O540 O 0.25969 0.75767 0.76827 0.0
O541 O 0.2646 0.76647 0.74138 0.0
O542 O 0.28025 0.78547 0.79684 0.0
O543 O 0.30073 0.80066 0.78518 0.0
H544 H 0.35878 0.81388 0.79731 0.0
H545 H 0.38722 0.80588 0.80201 0.0
H546 H 0.40389 0.83398 0.75607 0.0
H547 H 0.3755 0.84277 0.75194 0.0
H548 H 0.23814 0.76565 0.71931 0.0
H549 H 0.21026 0.77516 0.71462 0.0
H550 H 0.20035 0.76698 0.77036 0.0
H551 H 0.22859 0.75786 0.77554 0.0
Ho552 Ho 0.53584 0.0466 0.02313 0.0
Ho553 Ho 0.52609 0.05165 0.98359 0.0
C554 C 0.49553 0.04062 0.0065 0.0
C555 C 0.53689 0.04134 0.05714 0.0
C556 C 0.52273 0.03477 0.0681 0.0
C557 C 0.50899 0.0443 0.07017 0.0
C558 C 0.49554 0.03764 0.08043 0.0
C559 C 0.49566 0.02139 0.08871 0.0
C560 C 0.50881 0.01124 0.08574 0.0
C561 C 0.52232 0.01796 0.07555 0.0
C562 C 0.5381 0.01829 0.99658 0.0
C563 C 0.56685 0.06464 1.00307 0.0
C564 C 0.52397 0.05227 0.94852 0.0
C565 C 0.53575 0.06434 0.93837 0.0
C566 C 0.55398 0.06616 0.9416 0.0
C567 C 0.56527 0.07909 0.93343 0.0
C568 C 0.55856 0.09046 0.92187 0.0
C569 C 0.54034 0.08891 0.91892 0.0
C570 C 0.52901 0.07593 0.92716 0.0
C571 C 0.5248 0.08132 0.00927 0.0
O572 O 0.50725 0.04632 0.0213 0.0
O573 O 0.50009 0.03695 0.9897 0.0
O574 O 0.53877 0.0285 0.04356 0.0
O575 O 0.53803 0.0582 0.05234 0.0
O576 O 0.54997 0.02534 0.0106 0.0
O577 O 0.52552 0.02656 0.99693 0.0
O578 O 0.55591 0.05903 0.98744 0.0
O579 O 0.56152 0.06388 0.0196 0.0
O580 O 0.51541 0.06162 0.95965 0.0
O581 O 0.53035 0.03945 0.95613 0.0
O582 O 0.51436 0.07622 0.99386 0.0
O583 O 0.53617 0.07149 0.00951 0.0
H584 H 0.50875 0.05705 0.06415 0.0
H585 H 0.48543 0.0456 0.08256 0.0
H586 H 0.50921 0.99877 0.09219 0.0
H587 H 0.53261 0.01019 0.07373 0.0
H588 H 0.55956 0.05759 0.9504 0.0
H589 H 0.57922 0.07957 0.93556 0.0
H590 H 0.53489 0.09746 0.90998 0.0
H591 H 0.51499 0.07502 0.92489 0.0
Ho592 Ho 0.29059 0.2957 0.27274 0.0
Ho593 Ho 0.27488 0.25767 0.25375 0.0
C594 C 0.24861 0.28139 0.26637 0.0
C595 C 0.29777 0.33129 0.28616 0.0
C596 C 0.28647 0.34466 0.28488 0.0
C597 C 0.27446 0.34239 0.26889 0.0
C598 C 0.26231 0.35372 0.26832 0.0
C599 C 0.26201 0.36741 0.28373 0.0
C600 C 0.27379 0.36946 0.29986 0.0
C601 C 0.28599 0.35807 0.30043 0.0
C602 C 0.29102 0.26932 0.29545 0.0
C603 C 0.31697 0.27312 0.25816 0.0
C604 C 0.26738 0.22148 0.24206 0.0
C605 C 0.27885 0.20809 0.2396 0.0
C606 C 0.29504 0.2117 0.25078 0.0
C607 C 0.30624 0.19932 0.24817 0.0
C608 C 0.30137 0.18304 0.23443 0.0
C609 C 0.28527 0.17956 0.22306 0.0
C610 C 0.27409 0.19211 0.22558 0.0
C611 C 0.27512 0.284 0.23076 0.0
O612 O 0.26195 0.29594 0.26686 0.0
O613 O 0.25073 0.26388 0.26379 0.0
O614 O 0.2922 0.31808 0.29596 0.0
O615 O 0.30278 0.32461 0.27045 0.0
O616 O 0.30411 0.28313 0.2945 0.0
O617 O 0.27825 0.2698 0.28377 0.0
O618 O 0.30374 0.25821 0.25595 0.0
O619 O 0.31507 0.2905 0.26295 0.0
O620 O 0.26899 0.23407 0.2309 0.0
O621 O 0.26682 0.22895 0.25927 0.0
O622 O 0.26211 0.2697 0.23079 0.0
O623 O 0.2875 0.28361 0.24292 0.0
H624 H 0.27429 0.33169 0.25692 0.0
H625 H 0.25317 0.35182 0.25584 0.0
H626 H 0.27381 0.38011 0.31182 0.0
H627 H 0.29491 0.35957 0.31301 0.0
H628 H 0.29893 0.22391 0.26177 0.0
H629 H 0.31839 0.20212 0.25741 0.0
H630 H 0.28128 0.16707 0.21238 0.0
H631 H 0.26171 0.18929 0.21672 0.0
Ho632 Ho 0.54301 0.55034 0.02433 0.0
Ho633 Ho 0.55102 0.51557 0.00832 0.0
C634 C 0.53349 0.5365 0.97848 0.0
C635 C 0.54113 0.58558 0.02997 0.0
C636 C 0.54195 0.59896 0.01667 0.0
C637 C 0.55 0.59566 1.00045 0.0
C638 C 0.55074 0.60818 0.98763 0.0
C639 C 0.54374 0.62444 0.99096 0.0
C640 C 0.5354 0.62752 0.00708 0.0
C641 C 0.53445 0.61478 0.0198 0.0
C642 C 0.51726 0.51989 0.02738 0.0
C643 C 0.56059 0.52973 0.05444 0.0
C644 C 0.55369 0.48062 1.00134 0.0
C645 C 0.55441 0.46679 0.0139 0.0
C646 C 0.54699 0.46888 0.03065 0.0
C647 C 0.54757 0.45586 0.04275 0.0
C648 C 0.55548 0.44046 0.03826 0.0
C649 C 0.56336 0.43867 0.02172 0.0
C650 C 0.56283 0.45183 0.00959 0.0
C651 C 0.57636 0.54611 0.00496 0.0
O652 O 0.53562 0.55029 0.99303 0.0
O653 O 0.5379 0.52032 0.98087 0.0
O654 O 0.52727 0.57156 0.027 0.0
O655 O 0.55564 0.57991 0.03356 0.0
O656 O 0.52318 0.53457 0.04033 0.0
O657 O 0.52529 0.52216 0.01322 0.0
O658 O 0.55899 0.51595 0.03985 0.0
O659 O 0.5556 0.5456 0.05195 0.0
O660 O 0.56722 0.49499 1.00387 0.0
O661 O 0.53876 0.48587 0.99939 0.0
O662 O 0.57054 0.5314 0.99206 0.0
O663 O 0.56854 0.54374 0.01921 0.0
H664 H 0.55595 0.58354 0.99778 0.0
H665 H 0.55702 0.60525 0.97524 0.0
H666 H 0.5301 0.64006 0.01017 0.0
H667 H 0.52811 0.61745 0.0322 0.0
H668 H 0.54055 0.48046 0.0343 0.0
H669 H 0.54166 0.45773 0.05556 0.0
H670 H 0.56945 0.42684 0.01792 0.0
H671 H 0.56878 0.45021 0.99679 0.0
Ho672 Ho 0.81524 0.30916 0.26436 0.0
Ho673 Ho 0.78326 0.28113 0.26864 0.0
C674 C 0.81837 0.26378 0.26751 0.0
C675 C 0.84571 0.33166 0.26697 0.0
C676 C 0.86373 0.32955 0.27038 0.0
C677 C 0.86801 0.31732 0.28241 0.0
C678 C 0.88527 0.31549 0.28554 0.0
C679 C 0.89831 0.32582 0.27667 0.0
C680 C 0.89403 0.33776 0.2644 0.0
C681 C 0.87671 0.33952 0.26117 0.0
C682 C 0.79491 0.29325 0.23227 0.0
C683 C 0.7798 0.32612 0.26602 0.0
C684 C 0.75195 0.26046 0.26426 0.0
C685 C 0.73544 0.26517 0.25795 0.0
C686 C 0.73511 0.27796 0.24524 0.0
C687 C 0.71946 0.28286 0.23963 0.0
C688 C 0.70398 0.27494 0.24661 0.0
C689 C 0.70443 0.26256 0.25968 0.0
C690 C 0.72012 0.25774 0.26536 0.0
C691 C 0.80335 0.29757 0.30074 0.0
O692 O 0.82672 0.28217 0.26861 0.0
O693 O 0.80089 0.25958 0.26613 0.0
O694 O 0.83713 0.32236 0.25115 0.0
O695 O 0.8364 0.3302 0.28092 0.0
O696 O 0.80325 0.31093 0.23589 0.0
O697 O 0.79857 0.28486 0.24549 0.0
O698 O 0.7717 0.30775 0.26461 0.0
O699 O 0.7973 0.33057 0.26751 0.0
O700 O 0.75965 0.26991 0.28041 0.0
O701 O 0.76282 0.25947 0.25174 0.0
O702 O 0.79492 0.27986 0.29742 0.0
O703 O 0.79973 0.30571 0.28732 0.0
H704 H 0.85809 0.30938 0.28951 0.0
H705 H 0.88855 0.30644 0.29527 0.0
H706 H 0.90409 0.34583 0.25757 0.0
H707 H 0.87347 0.34879 0.25166 0.0
H708 H 0.7469 0.28405 0.23952 0.0
H709 H 0.71934 0.29234 0.22946 0.0
H710 H 0.6926 0.2565 0.26536 0.0
H711 H 0.72029 0.24818 0.27547 0.0
Ho712 Ho 0.03671 0.54741 0.52576 0.0
Ho713 Ho 0.02607 0.5503 0.48599 0.0
C714 C 0.99608 0.53697 0.50897 0.0
C715 C 0.03786 0.54422 0.56025 0.0
C716 C 0.02416 0.5346 0.57034 0.0
C717 C 0.00949 0.54222 0.57402 0.0
C718 C 0.99665 0.53281 0.58361 0.0
C719 C 0.99843 0.51578 0.58966 0.0
C720 C 0.0125 0.50764 0.58511 0.0
C721 C 0.02531 0.517 0.57554 0.0
C722 C 0.04143 0.51911 0.50041 0.0
C723 C 0.06633 0.56862 0.5059 0.0
C724 C 0.02345 0.54995 0.4508 0.0
C725 C 0.03495 0.56178 0.44029 0.0
C726 C 0.05325 0.56486 0.44428 0.0
C727 C 0.06421 0.57739 0.43541 0.0
C728 C 0.05702 0.58683 0.42228 0.0
C729 C 0.03873 0.58426 0.4187 0.0
C730 C 0.02773 0.57185 0.42777 0.0
C731 C 0.0221 0.5793 0.51082 0.0
O732 O 0.00769 0.54329 0.52374 0.0
O733 O 1.00071 0.534 0.49212 0.0
O734 O 0.04367 0.53289 0.54804 0.0
O735 O 0.03536 0.55966 0.55415 0.0
O736 O 0.05261 0.52732 0.51475 0.0
O737 O 0.02796 0.52606 0.50007 0.0
O738 O 0.05577 0.56167 0.49012 0.0
O739 O 0.06086 0.56729 0.52227 0.0
O740 O 0.01496 0.55949 0.46182 0.0
O741 O 0.03016 0.53751 0.4587 0.0
O742 O 0.01135 0.5725 0.49581 0.0
O743 O 0.03472 0.57123 0.51126 0.0
H744 H 0.0081 0.55563 0.56993 0.0
H745 H 0.986 0.53943 0.58735 0.0
H746 H 0.01408 0.49458 0.58991 0.0
H747 H 0.03633 0.51067 0.57259 0.0
H748 H 0.05913 0.55741 0.45404 0.0
H749 H 0.07829 0.5788 0.438 0.0
H750 H 0.03302 0.59128 0.40838 0.0
H751 H 0.01362 0.56998 0.42494 0.0
Ho752 Ho 0.77821 0.79436 0.27466 0.0
Ho753 Ho 0.81646 0.7832 0.27556 0.0
C754 C 0.80278 0.79807 0.31404 0.0
C755 C 0.74514 0.79151 0.27871 0.0
C756 C 0.73341 0.79315 0.2937 0.0
C757 C 0.728 0.77794 0.30341 0.0
C758 C 0.7151 0.77844 0.31554 0.0
C759 C 0.70713 0.79413 0.31831 0.0
C760 C 0.71314 0.80972 0.30927 0.0
C761 C 0.72603 0.80919 0.29708 0.0
C762 C 0.80488 0.82646 0.27399 0.0
C763 C 0.79214 0.77865 0.23594 0.0
C764 C 0.84948 0.78521 0.27254 0.0
C765 C 0.86087 0.78129 0.2579 0.0
C766 C 0.86195 0.79126 0.24272 0.0
C767 C 0.87439 0.78928 0.23038 0.0
C768 C 0.88606 0.77727 0.23285 0.0
C769 C 0.88434 0.76652 0.24744 0.0
C770 C 0.87193 0.76858 0.25987 0.0
C771 C 0.78954 0.75149 0.27642 0.0
O772 O 0.78724 0.79786 0.3052 0.0
O773 O 0.81625 0.794 0.30581 0.0
O774 O 0.75543 0.80708 0.27553 0.0
O775 O 0.75276 0.77707 0.27726 0.0
O776 O 0.78822 0.8262 0.27396 0.0
O777 O 0.80596 0.80914 0.27432 0.0
O778 O 0.80758 0.77902 0.2451 0.0
O779 O 0.77874 0.78349 0.24405 0.0
O780 O 0.83926 0.77059 0.27757 0.0
O781 O 0.84182 0.79948 0.27162 0.0
O782 O 0.80605 0.75129 0.27594 0.0
O783 O 0.78888 0.76887 0.27625 0.0
H784 H 0.73333 0.76531 0.30123 0.0
H785 H 0.7111 0.7663 0.32248 0.0
H786 H 0.70729 0.822 0.31089 0.0
H787 H 0.72975 0.8211 0.28976 0.0
H788 H 0.85354 0.80106 0.24064 0.0
H789 H 0.87511 0.7975 0.21909 0.0
H790 H 0.89313 0.75718 0.2498 0.0
H791 H 0.87139 0.76072 0.27143 0.0
Ho792 Ho 0.79238 0.30465 0.77629 0.0
Ho793 Ho 0.77653 0.31343 0.81044 0.0
C794 C 0.79684 0.34777 0.7962 0.0
C795 C 0.79684 0.30226 0.74168 0.0
C796 C 0.80351 0.31748 0.73128 0.0
C797 C 0.7982 0.33486 0.73423 0.0
C798 C 0.80455 0.34929 0.72432 0.0
C799 C 0.8163 0.34659 0.7113 0.0
C800 C 0.82221 0.32952 0.70899 0.0
C801 C 0.81586 0.31506 0.71895 0.0
C802 C 0.81887 0.30728 0.80379 0.0
C803 C 0.77738 0.27009 0.79545 0.0
C804 C 0.76134 0.31608 0.84041 0.0
C805 C 0.75502 0.30293 0.85287 0.0
C806 C 0.76082 0.28596 0.85251 0.0
C807 C 0.75325 0.27234 0.8627 0.0
C808 C 0.73996 0.27567 0.87357 0.0
C809 C 0.73441 0.29284 0.87429 0.0
C810 C 0.74179 0.30636 0.86375 0.0
C811 C 0.75679 0.31442 0.77817 0.0
O812 O 0.79475 0.33619 0.78025 0.0
O813 O 0.79372 0.34159 0.81177 0.0
O814 O 0.80827 0.29908 0.75422 0.0
O815 O 0.78166 0.30249 0.74767 0.0
O816 O 0.81981 0.3041 0.78615 0.0
O817 O 0.80353 0.30959 0.80676 0.0
O818 O 0.77595 0.28262 0.80974 0.0
O819 O 0.78219 0.27497 0.77972 0.0
O820 O 0.75291 0.31159 0.8237 0.0
O821 O 0.77836 0.32098 0.84038 0.0
O822 O 0.76034 0.32794 0.79235 0.0
O823 O 0.76479 0.30163 0.78142 0.0
H824 H 0.78891 0.33723 0.74396 0.0
H825 H 0.79992 0.36238 0.72648 0.0
H826 H 0.83112 0.32698 0.69887 0.0
H827 H 0.82033 0.30188 0.71678 0.0
H828 H 0.77108 0.28316 0.84424 0.0
H829 H 0.75798 0.25933 0.86236 0.0
H830 H 0.72432 0.29566 0.88283 0.0
H831 H 0.73707 0.31936 0.86392 0.0
Ho832 Ho 0.78781 0.79679 0.76854 0.0
Ho833 Ho 0.77563 0.7559 0.75504 0.0
C834 C 0.74751 0.77984 0.76674 0.0
C835 C 0.79828 0.83313 0.77448 0.0
C836 C 0.7866 0.84631 0.77552 0.0
C837 C 0.76978 0.84048 0.76546 0.0
C838 C 0.75731 0.85118 0.76839 0.0
C839 C 0.76157 0.86818 0.78113 0.0
C840 C 0.77846 0.87415 0.79114 0.0
C841 C 0.7909 0.86314 0.78844 0.0
C842 C 0.7843 0.7757 0.79632 0.0
C843 C 0.81576 0.77326 0.75621 0.0
C844 C 0.7661 0.71936 0.74961 0.0
C845 C 0.77803 0.7063 0.7483 0.0
C846 C 0.79518 0.71253 0.75748 0.0
C847 C 0.80747 0.70151 0.75482 0.0
C848 C 0.80272 0.68357 0.7435 0.0
C849 C 0.78551 0.67723 0.73427 0.0
C850 C 0.77326 0.68865 0.73654 0.0
C851 C 0.77848 0.77742 0.72736 0.0
O852 O 0.75913 0.79524 0.76525 0.0
O853 O 0.75133 0.76299 0.76528 0.0
O854 O 0.79768 0.823 0.78789 0.0
O855 O 0.79756 0.82289 0.75813 0.0
O856 O 0.77991 0.79187 0.79637 0.0
O857 O 0.79098 0.77143 0.78152 0.0
O858 O 0.80432 0.75774 0.75756 0.0
O859 O 0.81187 0.79 0.75791 0.0
O860 O 0.76596 0.72931 0.7361 0.0
O861 O 0.76715 0.72979 0.76595 0.0
O862 O 0.78261 0.76104 0.72666 0.0
O863 O 0.77224 0.78135 0.74244 0.0
H864 H 0.76609 0.82742 0.75555 0.0
H865 H 0.74434 0.84617 0.76064 0.0
H866 H 0.78212 0.88742 0.80082 0.0
H867 H 0.80371 0.8676 0.79656 0.0
H868 H 0.79918 0.72602 0.76673 0.0
H869 H 0.82069 0.70702 0.76181 0.0
H870 H 0.78144 0.66337 0.72559 0.0
H871 H 0.76015 0.68375 0.72914 0.0
Ho872 Ho 0.53433 0.53747 0.51641 0.0
Ho873 Ho 0.56428 0.55432 0.53666 0.0
C874 C 0.54585 0.58268 0.51943 0.0
C875 C 0.50192 0.52869 0.50177 0.0
C876 C 0.48823 0.53966 0.50273 0.0
C877 C 0.48684 0.5514 0.51928 0.0
C878 C 0.47426 0.56244 0.51967 0.0
C879 C 0.46305 0.56208 0.50346 0.0
C880 C 0.46485 0.55069 0.48685 0.0
C881 C 0.47728 0.53951 0.48653 0.0
C882 C 0.56059 0.53459 0.49305 0.0
C883 C 0.55299 0.50901 0.53316 0.0
C884 C 0.59609 0.56425 0.55345 0.0
C885 C 0.61052 0.55444 0.55276 0.0
C886 C 0.6099 0.53958 0.53809 0.0
C887 C 0.62312 0.52949 0.53774 0.0
C888 C 0.63728 0.53423 0.55198 0.0
C889 C 0.63778 0.54901 0.56678 0.0
C890 C 0.62441 0.55905 0.56717 0.0
C891 C 0.53755 0.55672 0.55929 0.0
O892 O 0.53239 0.56832 0.51879 0.0
O893 O 0.56155 0.58041 0.52472 0.0
O894 O 0.51488 0.53542 0.49288 0.0
O895 O 0.50727 0.52348 0.5172 0.0
O896 O 0.54704 0.52136 0.49438 0.0
O897 O 0.55992 0.54909 0.50506 0.0
O898 O 0.5665 0.52339 0.53388 0.0
O899 O 0.5373 0.51136 0.528 0.0
O900 O 0.58277 0.5558 0.56088 0.0
O901 O 0.59122 0.56983 0.53805 0.0
O902 O 0.55038 0.57055 0.55751 0.0
O903 O 0.53892 0.54226 0.54779 0.0
H904 H 0.49544 0.55205 0.53191 0.0
H905 H 0.47308 0.57092 0.53273 0.0
H906 H 0.45664 0.55041 0.47407 0.0
H907 H 0.47847 0.53085 0.47357 0.0
H908 H 0.59916 0.53572 0.52691 0.0
H909 H 0.62223 0.51793 0.52635 0.0
H910 H 0.64862 0.55301 0.57785 0.0
H911 H 0.62491 0.57037 0.57868 0.0
Ho912 Ho 0.05581 0.53706 0.02881 0.0
Ho913 Ho 0.01548 0.53374 0.03441 0.0
C914 C 0.02837 0.49525 0.02443 0.0
C915 C 0.08792 0.5326 0.03233 0.0
C916 C 0.09879 0.51838 0.02759 0.0
C917 C 0.09797 0.50223 0.03642 0.0
C918 C 0.11014 0.49062 0.03374 0.0
C919 C 0.12354 0.49497 0.02233 0.0
C920 C 0.12378 0.51058 0.01286 0.0
C921 C 0.11162 0.52211 0.01547 0.0
C922 C 0.03452 0.53754 0.99846 0.0
C923 C 0.04242 0.57541 0.03741 0.0
C924 C 0.98337 0.53686 0.03693 0.0
C925 C 0.9728 0.55153 0.03751 0.0
C926 C 0.97258 0.56316 0.02372 0.0
C927 C 0.96142 0.57591 0.02393 0.0
C928 C 0.95025 0.57733 0.03793 0.0
C929 C 0.95099 0.56613 0.05207 0.0
C930 C 0.96211 0.55336 0.05182 0.0
C931 C 0.03779 0.53256 0.0634 0.0
O932 O 0.04471 0.50561 0.02712 0.0
O933 O 0.0144 0.50287 0.02469 0.0
O934 O 0.08137 0.54 0.01873 0.0
O935 O 0.07714 0.52958 0.0449 0.0
O936 O 0.05121 0.54531 1.00074 0.0
O937 O 0.03056 0.52799 0.01114 0.0
O938 O 0.02606 0.56502 0.03318 0.0
O939 O 0.0563 0.5677 0.03889 0.0
O940 O 0.99494 0.53835 0.05137 0.0
O941 O 0.98918 0.53164 0.02121 0.0
O942 O 0.02197 0.52208 0.06045 0.0
O943 O 0.04056 0.5431 0.05142 0.0
H944 H 0.08832 0.4989 0.04591 0.0
H945 H 0.10955 0.47877 0.04132 0.0
H946 H 0.13369 0.51419 1.00371 0.0
H947 H 0.11266 0.5344 0.00846 0.0
H948 H 0.98081 0.56221 0.01261 0.0
H949 H 0.96144 0.58457 0.01302 0.0
H950 H 0.94251 0.56672 0.06298 0.0
H951 H 0.96207 0.54456 0.06262 0.0
H952 H 0.03141 0.21322 0.9194 0.0
H953 H 0.03831 0.1884 0.93651 0.0
H954 H 0.01111 0.20829 0.98139 0.0
H955 H 1.00431 0.23328 0.96446 0.0
H956 H 0.04985 0.19944 0.98929 0.0
H957 H 0.9965 0.14211 0.94794 0.0
H958 H 0.00889 0.15972 0.9362 0.0
H959 H 0.99451 0.16659 0.95234 0.0
C960 C 0.02675 0.21221 0.93283 0.0
C961 C 0.01712 0.2251 0.94044 0.0
C962 C 0.03083 0.19811 0.94266 0.0
C963 C 0.02525 0.19649 0.96024 0.0
C964 C 0.01565 0.20934 0.96791 0.0
H965 H 0.0168 0.09638 0.0144 0.0
H966 H 0.01243 0.12504 1.00255 0.0
C967 C 0.01169 0.22354 0.95815 0.0
C968 C 0.02883 0.1809 0.97023 0.0
H969 H 0.01521 0.13314 0.97011 0.0
C970 C 0.04229 0.18492 0.98517 0.0
C971 C 0.01883 0.16205 0.965 0.0
C972 C 1.00379 0.15718 0.94955 0.0
C973 C 0.04609 0.17051 0.99492 0.0
C974 C 0.03634 0.15144 0.98935 0.0
C975 C 0.02277 0.14762 0.97447 0.0
C976 C 0.03968 0.13514 0.99863 0.0
C977 C 0.06022 0.17606 0.01134 0.0
C978 C 0.05652 0.13119 1.00082 0.0
C979 C 0.05911 0.11493 0.00806 0.0
C980 C 0.04484 0.10194 0.01278 0.0
C981 C 0.02807 0.10602 0.01083 0.0
C982 C 0.02556 0.12245 1.004 0.0
H983 H 0.06214 0.19132 0.01746 0.0
H984 H 0.05705 0.1673 0.02239 0.0
H985 H 0.07285 0.17393 0.00662 0.0
H986 H 0.06761 0.14028 0.99634 0.0
H987 H 0.07216 0.11211 0.00917 0.0
H988 H 0.13684 0.80845 0.14123 0.0
H989 H 0.16297 0.80636 0.16121 0.0
H990 H 0.13767 0.81984 0.20984 0.0
H991 H 0.11145 0.82166 0.18994 0.0
H992 H 0.18602 0.83176 0.1886 0.0
H993 H 0.15175 0.77128 0.21952 0.0
H994 H 0.14201 0.77874 0.19934 0.0
H995 H 0.14158 0.79127 0.22229 0.0
C996 C 0.13685 0.81106 0.15619 0.0
C997 C 0.12193 0.81517 0.16392 0.0
C998 C 0.15186 0.80984 0.16764 0.0
C999 C 0.15235 0.81256 0.18716 0.0
C1000 C 0.13762 0.8172 0.19488 0.0
H1001 H 0.22153 0.81111 0.28517 0.0
H1002 H 0.19831 0.8121 0.26127 0.0
C1003 C 0.12262 0.8184 0.18345 0.0
C1004 C 0.16812 0.81046 0.19942 0.0
H1005 H 0.18038 0.78696 0.2341 0.0
C1006 C 0.18481 0.82187 0.19847 0.0
C1007 C 0.16676 0.79743 0.21224 0.0
C1008 C 0.14961 0.78384 0.21332 0.0
C1009 C 0.19982 0.8213 0.21049 0.0
C1010 C 0.19836 0.80864 0.22373 0.0
C1011 C 0.18173 0.79682 0.2242 0.0
C1012 C 0.21334 0.80822 0.23813 0.0
C1013 C 0.21694 0.83487 0.20934 0.0
C1014 C 0.22993 0.80561 0.23347 0.0
C1015 C 0.24355 0.80526 0.24742 0.0
C1016 C 0.24086 0.80715 0.26634 0.0
C1017 C 0.22422 0.8095 0.27082 0.0
C1018 C 0.21079 0.81005 0.25704 0.0
H1019 H 0.2149 0.84683 0.2021 0.0
H1020 H 0.22404 0.84088 0.22342 0.0
H1021 H 0.2254 0.8271 0.20135 0.0
H1022 H 0.23235 0.80369 0.21905 0.0
H1023 H 0.2561 0.80355 0.24336 0.0
H1024 H 0.49965 0.83428 0.42649 0.0
H1025 H 0.50136 0.86552 0.44512 0.0
H1026 H 0.53477 0.85167 0.48876 0.0
H1027 H 0.53285 0.82015 0.47029 0.0
H1028 H 0.49835 0.86875 0.49469 0.0
H1029 H 0.55298 0.90816 0.46131 0.0
H1030 H 0.53664 0.88875 0.44769 0.0
H1031 H 0.55207 0.88391 0.46491 0.0
C1032 C 0.50738 0.83794 0.44004 0.0
C1033 C 0.51611 0.82494 0.44705 0.0
C1034 C 0.5083 0.85568 0.45063 0.0
C1035 C 0.51817 0.86071 0.4682 0.0
C1036 C 0.527 0.84783 0.47523 0.0
H1037 H 0.54899 0.97227 0.53508 0.0
H1038 H 0.54604 0.93854 0.52328 0.0
C1039 C 0.52588 0.82993 0.46474 0.0
C1040 C 0.51926 0.87954 0.47912 0.0
H1041 H 0.5405 0.92609 0.48363 0.0
C1042 C 0.5076 0.88133 0.49242 0.0
C1043 C 0.53134 0.89572 0.47594 0.0
C1044 C 0.54405 0.89423 0.46172 0.0
C1045 C 0.50763 0.89916 0.50263 0.0
C1046 C 0.51958 0.91541 0.49928 0.0
C1047 C 0.53139 0.91352 0.48613 0.0
C1048 C 0.51994 0.93469 0.50891 0.0
C1049 C 0.49499 0.90055 0.51692 0.0
C1050 C 0.50599 0.94344 0.50507 0.0
C1051 C 0.50761 0.96274 0.51178 0.0
C1052 C 0.52329 0.97352 0.52225 0.0
C1053 C 0.53681 0.96438 0.52692 0.0
C1054 C 0.53516 0.94513 0.52024 0.0
H1055 H 0.48919 0.8864 0.52047 0.0
H1056 H 0.50168 0.91019 0.52984 0.0
H1057 H 0.48414 0.9066 0.51131 0.0
H1058 H 0.49425 0.93561 0.49611 0.0
H1059 H 0.49699 0.96939 0.50788 0.0
H1060 H 0.53258 0.27615 0.66645 0.0
H1061 H 0.50442 0.26627 0.67832 0.0
H1062 H 0.48455 0.30886 0.65273 0.0
H1063 H 0.51225 0.31761 0.63963 0.0
H1064 H 0.48936 0.28254 0.70182 0.0
H1065 H 0.44296 0.26774 0.63773 0.0
H1066 H 0.46637 0.27197 0.63706 0.0
H1067 H 0.45561 0.29166 0.64047 0.0
C1068 C 0.52212 0.28329 0.66328 0.0
C1069 C 0.52459 0.2977 0.65222 0.0
C1070 C 0.50598 0.2776 0.67002 0.0
C1071 C 0.49204 0.28651 0.66622 0.0
C1072 C 0.49469 0.30116 0.65535 0.0
H1073 H 0.40089 0.30306 0.71575 0.0
H1074 H 0.4259 0.3026 0.69811 0.0
C1075 C 0.51065 0.30641 0.64809 0.0
C1076 C 0.47535 0.28147 0.67482 0.0
H1077 H 0.43059 0.27427 0.66658 0.0
C1078 C 0.47653 0.28037 0.69395 0.0
C1079 C 0.45843 0.27837 0.66468 0.0
C1080 C 0.45579 0.27727 0.64382 0.0
C1081 C 0.46151 0.27729 0.70332 0.0
C1082 C 0.44479 0.27549 0.69342 0.0
C1083 C 0.44346 0.27589 0.6742 0.0
C1084 C 0.42877 0.27474 0.70308 0.0
C1085 C 0.46369 0.27669 0.72393 0.0
C1086 C 0.42185 0.25906 0.71154 0.0
C1087 C 0.40743 0.25923 0.72165 0.0
C1088 C 0.39958 0.27505 0.72338 0.0
C1089 C 0.40636 0.2905 0.71449 0.0
C1090 C 0.42074 0.29031 0.70444 0.0
H1091 H 0.4777 0.28074 0.73002 0.0
H1092 H 0.45642 0.28639 0.7314 0.0
H1093 H 0.45813 0.26203 0.72636 0.0
H1094 H 0.42771 0.24678 0.71048 0.0
H1095 H 0.40243 0.247 0.72812 0.0
H1096 H 0.99475 0.82167 0.63529 0.0
H1097 H 0.00823 0.84878 0.62092 0.0
H1098 H 0.04996 0.8208 0.6069 0.0
H1099 H 0.03599 0.79332 0.62017 0.0
H1100 H 0.03963 0.87287 0.62871 0.0
H1101 H 0.0337 0.83198 0.55732 0.0
H1102 H 0.02309 0.82202 0.57574 0.0
H1103 H 0.04611 0.82311 0.57449 0.0
C1104 C 1.00664 0.82127 0.62884 0.0
C1105 C 0.01416 0.80537 0.62834 0.0
C1106 C 0.01438 0.83674 0.62082 0.0
C1107 C 0.02989 0.83655 0.61256 0.0
C1108 C 0.0377 0.82091 0.61266 0.0
H1109 H 0.08099 0.92467 0.5517 0.0
H1110 H 0.07876 0.90005 0.57177 0.0
C1111 C 0.02972 0.80527 0.62022 0.0
C1112 C 0.03769 0.85264 0.60361 0.0
H1113 H 0.04807 0.86435 0.56177 0.0
C1114 C 0.04163 0.87101 0.61412 0.0
C1115 C 0.0403 0.85006 0.58458 0.0
C1116 C 0.03543 0.83076 0.57233 0.0
C1117 C 0.04751 0.88701 0.60586 0.0
C1118 C 0.04964 0.8844 0.58679 0.0
C1119 C 0.0466 0.86607 0.5765 0.0
C1120 C 0.05196 0.90038 0.57649 0.0
C1121 C 0.05071 0.90662 0.61726 0.0
C1122 C 0.03752 0.90827 0.57253 0.0
C1123 C 0.03859 0.92187 0.5609 0.0
C1124 C 0.05419 0.9279 0.55315 0.0
C1125 C 0.06878 0.92015 0.55739 0.0
C1126 C 0.06761 0.90632 0.56894 0.0
H1127 H 0.0522 0.90617 0.63244 0.0
H1128 H 0.06266 0.916 0.61373 0.0
H1129 H 0.03938 0.91306 0.61401 0.0
H1130 H 0.02522 0.9034 0.57795 0.0
H1131 H 0.027 0.92723 0.55753 0.0
H1132 H 0.53068 0.79858 0.87753 0.0
H1133 H 0.50311 0.79417 0.85746 0.0
H1134 H 0.52485 0.84366 0.83353 0.0
H1135 H 0.5528 0.84766 0.85307 0.0
H1136 H 0.48089 0.81743 0.85499 0.0
H1137 H 0.50767 0.8038 0.78776 0.0
H1138 H 0.51999 0.80404 0.80987 0.0
H1139 H 0.51867 0.82604 0.80182 0.0
C1140 C 0.52953 0.80853 0.86801 0.0
C1141 C 0.54375 0.82337 0.86663 0.0
C1142 C 0.51386 0.80596 0.85656 0.0
C1143 C 0.51222 0.81832 0.84378 0.0
C1144 C 0.52617 0.83365 0.84293 0.0
H1145 H 0.42907 0.84348 0.77968 0.0
H1146 H 0.4576 0.8397 0.79259 0.0
C1147 C 0.54198 0.83602 0.85415 0.0
C1148 C 0.49571 0.81532 0.83158 0.0
H1149 H 0.47849 0.80904 0.78613 0.0
C1150 C 0.48029 0.81533 0.83993 0.0
C1151 C 0.49513 0.81251 0.81198 0.0
C1152 C 0.51123 0.8114 0.80232 0.0
C1153 C 0.46424 0.81327 0.82913 0.0
C1154 C 0.46378 0.81102 0.80957 0.0
C1155 C 0.47908 0.81063 0.80117 0.0
C1156 C 0.44776 0.81112 0.7979 0.0
C1157 C 0.44802 0.81422 0.83867 0.0
C1158 C 0.4332 0.79583 0.79587 0.0
C1159 C 0.41691 0.79786 0.78835 0.0
C1160 C 0.41513 0.81524 0.78298 0.0
C1161 C 0.4301 0.82989 0.78359 0.0
C1162 C 0.44637 0.8278 0.791 0.0
H1163 H 0.45116 0.81853 0.854 0.0
H1164 H 0.44107 0.82448 0.83312 0.0
H1165 H 0.43888 0.80001 0.83585 0.0
H1166 H 0.43426 0.78284 0.80109 0.0
H1167 H 0.40557 0.78624 0.78766 0.0
H1168 H 0.49998 0.19536 0.15122 0.0
H1169 H 0.50506 0.16713 0.1321 0.0
H1170 H 0.4827 0.18435 0.08298 0.0
H1171 H 0.47795 0.21293 0.10194 0.0
H1172 H 0.48443 0.13648 0.10473 0.0
H1173 H 0.53505 0.18639 0.07603 0.0
H1174 H 0.5251 0.19365 0.09642 0.0
H1175 H 0.51355 0.19137 0.07357 0.0
C1176 C 0.49571 0.19287 0.13641 0.0
C1177 C 0.48888 0.20641 0.12793 0.0
C1178 C 0.49863 0.17678 0.12556 0.0
C1179 C 0.49461 0.17407 0.10621 0.0
C1180 C 0.48617 0.18655 0.09792 0.0
H1181 H 0.49589 0.09555 0.0126 0.0
H1182 H 0.48985 0.11632 0.03937 0.0
C1183 C 0.4834 0.20276 0.10874 0.0
C1184 C 0.50096 0.15946 0.09454 0.0
H1185 H 0.52798 0.15402 0.06108 0.0
C1186 C 0.49406 0.14023 0.0953 0.0
C1187 C 0.51389 0.16461 0.0827 0.0
C1188 C 0.52248 0.18513 0.08222 0.0
C1189 C 0.49904 0.12588 0.08353 0.0
C1190 C 0.51111 0.1311 0.07093 0.0
C1191 C 0.51871 0.15026 0.07088 0.0
C1192 C 0.51428 0.11713 0.056 0.0
C1193 C 0.49108 0.10526 0.08412 0.0
C1194 C 0.53009 0.11102 0.05673 0.0
C1195 C 0.5336 0.0992 0.04145 0.0
C1196 C 0.52139 0.0937 0.02538 0.0
C1197 C 0.50554 0.09976 0.02483 0.0
C1198 C 0.502 0.11141 0.04009 0.0
H1199 H 0.48395 0.10352 0.09648 0.0
H1200 H 0.48171 0.09919 0.07138 0.0
H1201 H 0.50148 0.09696 0.08428 0.0
H1202 H 0.53972 0.11561 0.06895 0.0
H1203 H 0.54591 0.09463 0.04208 0.0
H1204 H 0.10968 0.30281 0.33751 0.0
H1205 H 0.13122 0.29556 0.31731 0.0
H1206 H 0.17312 0.32789 0.35904 0.0
H1207 H 0.15137 0.33441 0.37994 0.0
H1208 H 0.15471 0.31777 0.30209 0.0
H1209 H 0.18779 0.27817 0.34854 0.0
H1210 H 0.16762 0.28519 0.35317 0.0
H1211 H 0.18834 0.30216 0.35896 0.0
C1212 C 0.12349 0.30842 0.3424 0.0
C1213 C 0.12898 0.31913 0.36024 0.0
C1214 C 0.13576 0.30426 0.33085 0.0
C1215 C 0.15371 0.31098 0.33681 0.0
C1216 C 0.15928 0.3222 0.35444 0.0
H1217 H 0.23942 0.31562 0.27282 0.0
H1218 H 0.21382 0.32181 0.28718 0.0
C1219 C 0.14694 0.32602 0.36626 0.0
C1220 C 0.16637 0.30607 0.32435 0.0
H1221 H 0.20071 0.28431 0.32116 0.0
C1222 C 0.16475 0.31041 0.30623 0.0
C1223 C 0.17914 0.29609 0.32973 0.0
C1224 C 0.18074 0.28995 0.34859 0.0
C1225 C 0.17581 0.30527 0.29337 0.0
C1226 C 0.189 0.29606 0.29904 0.0
C1227 C 0.1905 0.29145 0.31701 0.0
C1228 C 0.20217 0.29206 0.28699 0.0
C1229 C 0.17326 0.30949 0.27382 0.0
C1230 C 0.20365 0.27326 0.28175 0.0
C1231 C 0.21825 0.26967 0.27358 0.0
C1232 C 0.2316 0.28489 0.27085 0.0
C1233 C 0.22938 0.30364 0.27487 0.0
C1234 C 0.21475 0.3072 0.28297 0.0
H1235 H 0.16013 0.31253 0.27046 0.0
H1236 H 0.18341 0.32215 0.27233 0.0
H1237 H 0.17476 0.29732 0.26353 0.0
H1238 H 0.19399 0.26147 0.28485 0.0
H1239 H 0.21957 0.25505 0.27052 0.0
H1240 H 0.97963 0.07423 0.22819 0.0
H1241 H 0.99528 0.07342 0.20035 0.0
H1242 H 0.94604 0.0505 0.16578 0.0
H1243 H 0.93046 0.05168 0.19345 0.0
H1244 H 1.00197 0.04877 0.17406 0.0
H1245 H 0.96338 0.08861 0.1348 0.0
H1246 H 0.96106 0.0867 0.15881 0.0
H1247 H 0.94945 0.06787 0.14048 0.0
C1248 C 0.972 0.06915 0.21468 0.0
C1249 C 0.95344 0.06321 0.2136 0.0
C1250 C 0.98111 0.06862 0.19846 0.0
C1251 C 0.97223 0.0623 0.18013 0.0
C1252 C 0.9537 0.05613 0.17917 0.0
H1253 H 1.00555 0.04484 0.06338 0.0
H1254 H 0.98904 0.04558 0.09087 0.0
C1255 C 0.94461 0.05664 0.19534 0.0
C1256 C 0.98219 0.06172 0.16238 0.0
H1257 H 0.98172 0.07234 0.11747 0.0
C1258 C 0.99741 0.05408 0.16182 0.0
C1259 C 0.97694 0.06857 0.1458 0.0
C1260 C 0.96194 0.07859 0.14501 0.0
C1261 C 0.00677 0.05261 0.14578 0.0
C1262 C 1.00134 0.05919 0.12909 0.0
C1263 C 0.98619 0.06693 0.12967 0.0
C1264 C 0.01143 0.05877 0.11146 0.0
C1265 C 0.02227 0.04337 0.14686 0.0
C1266 C 0.02975 0.06623 0.11282 0.0
C1267 C 0.03919 0.06587 0.09701 0.0
C1268 C 0.03107 0.05813 0.0786 0.0
C1269 C 0.01265 0.05088 0.077 0.0
C1270 C 1.00308 0.05135 0.09299 0.0
H1271 H 0.02124 0.03354 0.15727 0.0
H1272 H 0.02348 0.03524 0.13318 0.0
H1273 H 0.03447 0.05457 0.15132 0.0
H1274 H 0.03697 0.07268 0.12627 0.0
H1275 H 0.05321 0.07181 0.09937 0.0
H1276 H 0.25033 0.64516 0.47327 0.0
H1277 H 0.23596 0.66203 0.45213 0.0
H1278 H 0.28276 0.70708 0.46001 0.0
H1279 H 0.2969 0.69067 0.48191 0.0
H1280 H 0.25103 0.71804 0.46944 0.0
H1281 H 0.2415 0.67354 0.39904 0.0
H1282 H 0.23515 0.66239 0.41864 0.0
H1283 H 0.25797 0.67146 0.41706 0.0
C1284 C 0.25777 0.65832 0.46993 0.0
C1285 C 0.27471 0.66669 0.47907 0.0
C1286 C 0.24952 0.66792 0.45791 0.0
C1287 C 0.25835 0.68571 0.45457 0.0
C1288 C 0.27578 0.69334 0.46254 0.0
H1289 H 0.26622 0.78075 0.40899 0.0
H1290 H 0.26322 0.7567 0.42909 0.0
C1291 C 0.28388 0.68396 0.47488 0.0
C1292 C 0.24903 0.69754 0.44456 0.0
H1293 H 0.23508 0.70377 0.40098 0.0
C1294 C 0.24721 0.71481 0.4545 0.0
C1295 C 0.24349 0.69287 0.42528 0.0
C1296 C 0.24461 0.67409 0.41426 0.0
C1297 C 0.2415 0.72842 0.44534 0.0
C1298 C 0.23797 0.72472 0.42572 0.0
C1299 C 0.23798 0.70662 0.41602 0.0
C1300 C 0.23801 0.74038 0.41493 0.0
C1301 C 0.24031 0.74701 0.45669 0.0
C1302 C 0.2251 0.73892 0.39989 0.0
C1303 C 0.22712 0.75249 0.38799 0.0
C1304 C 0.24189 0.76771 0.39133 0.0
C1305 C 0.25443 0.76946 0.40666 0.0
C1306 C 0.25264 0.75577 0.4182 0.0
H1307 H 0.23581 0.74468 0.47036 0.0
H1308 H 0.25356 0.75666 0.45956 0.0
H1309 H 0.23121 0.75416 0.44935 0.0
H1310 H 0.21391 0.72692 0.39696 0.0
H1311 H 0.21756 0.75078 0.3759 0.0
H1312 H 0.66014 0.05035 0.69317 0.0
H1313 H 0.64314 0.05139 0.6638 0.0
H1314 H 0.59499 0.03451 0.68781 0.0
H1315 H 0.61179 0.03369 0.71723 0.0
H1316 H 0.61868 0.01952 0.64335 0.0
H1317 H 0.58851 0.08077 0.66358 0.0
H1318 H 0.6077 0.07702 0.67681 0.0
H1319 H 0.58612 0.06415 0.67967 0.0
C1320 C 0.64593 0.04687 0.69213 0.0
C1321 C 0.63715 0.04173 0.70723 0.0
C1322 C 0.63634 0.04761 0.6755 0.0
C1323 C 0.618 0.04328 0.674 0.0
C1324 C 0.60922 0.03826 0.68906 0.0
H1325 H 0.53095 0.01119 0.58936 0.0
H1326 H 0.5531 0.01124 0.61544 0.0
C1327 C 0.61877 0.03758 0.70568 0.0
C1328 C 0.6078 0.04233 0.65625 0.0
H1329 H 0.57431 0.05859 0.63639 0.0
C1330 C 0.60912 0.02819 0.64164 0.0
C1331 C 0.59557 0.05385 0.65435 0.0
C1332 C 0.5945 0.06993 0.66939 0.0
C1333 C 0.59775 0.02468 0.62518 0.0
C1334 C 0.58492 0.03549 0.62378 0.0
C1335 C 0.58404 0.0501 0.63805 0.0
C1336 C 0.5729 0.03291 0.60705 0.0
C1337 C 0.59927 0.00948 0.60949 0.0
C1338 C 0.57708 0.04517 0.59427 0.0
C1339 C 0.56454 0.04553 0.57996 0.0
C1340 C 0.54785 0.03337 0.57815 0.0
C1341 C 0.5438 0.02066 0.59067 0.0
C1342 C 0.55637 0.0205 0.60527 0.0
H1343 H 0.6101 1.00235 0.61289 0.0
H1344 H 0.58672 0.9986 0.60627 0.0
H1345 H 0.60162 0.0159 0.59676 0.0
H1346 H 0.58979 0.05499 0.59586 0.0
H1347 H 0.56787 0.05558 0.57051 0.0
H1348 H 0.29616 0.33856 0.99316 0.0
H1349 H 0.29535 0.32166 0.96143 0.0
H1350 H 0.30256 0.37503 0.94064 0.0
H1351 H 0.30332 0.39201 0.97221 0.0
H1352 H 0.27308 0.3392 0.92093 0.0
H1353 H 0.34204 0.33045 0.93163 0.0
H1354 H 0.32814 0.32689 0.94985 0.0
H1355 H 0.3351 0.35027 0.94421 0.0
C1356 C 0.29752 0.34666 0.98181 0.0
C1357 C 0.29989 0.3666 0.98514 0.0
C1358 C 0.29704 0.33701 0.96375 0.0
C1359 C 0.299 0.34717 0.94884 0.0
C1360 C 0.30101 0.367 0.95204 0.0
H1361 H 0.3258 0.32203 0.83808 0.0
H1362 H 0.32502 0.33301 0.87117 0.0
C1363 C 0.30143 0.37665 0.97006 0.0
C1364 C 0.29939 0.33725 0.92988 0.0
H1365 H 0.32637 0.3186 0.90199 0.0
C1366 C 0.28463 0.33452 0.91673 0.0
C1367 C 0.31462 0.3315 0.92457 0.0
C1368 C 0.33097 0.33491 0.9382 0.0
C1369 C 0.28474 0.32635 0.89817 0.0
C1370 C 0.29995 0.32035 0.89281 0.0
C1371 C 0.31467 0.323 0.90612 0.0
C1372 C 0.30123 0.31239 0.87325 0.0
C1373 C 0.26881 0.32497 0.88442 0.0
C1374 C 0.28852 0.29671 0.86356 0.0
C1375 C 0.2887 0.29079 0.84457 0.0
C1376 C 0.302 0.29995 0.83514 0.0
C1377 C 0.31545 0.31469 0.8451 0.0
C1378 C 0.31499 0.32098 0.86398 0.0
H1379 H 0.26059 0.33488 0.88954 0.0
H1380 H 0.27266 0.3282 0.87075 0.0
H1381 H 0.26056 0.3103 0.88232 0.0
H1382 H 0.27817 0.28938 0.87057 0.0
H1383 H 0.27831 0.27921 0.83718 0.0
H1384 H 0.94988 0.08414 0.33243 0.0
H1385 H 0.96569 0.0804 0.36172 0.0
H1386 H 0.98016 0.03086 0.33346 0.0
H1387 H 0.96523 0.03527 0.30411 0.0
H1388 H 0.96315 0.05793 0.38465 0.0
H1389 H 0.0265 0.05152 0.36011 0.0
H1390 H 0.00967 0.058 0.34562 0.0
H1391 H 0.00904 0.03329 0.34711 0.0
C1392 C 0.95665 0.07259 0.33232 0.0
C1393 C 0.95627 0.06022 0.31545 0.0
C1394 C 0.96575 0.07035 0.34932 0.0
C1395 C 0.97486 0.05553 0.35041 0.0
C1396 C 0.97415 0.04296 0.33354 0.0
H1397 H 0.0247 0.0112 0.44525 0.0
H1398 H 0.01125 0.01581 0.415 0.0
C1399 C 0.96531 0.04539 0.3165 0.0
C1400 C 0.98431 0.05289 0.3691 0.0
H1401 H 0.02184 0.04244 0.38974 0.0
C1402 C 0.97606 0.05474 0.38556 0.0
C1403 C 1.00135 0.04867 0.37112 0.0
C1404 C 0.01223 0.04796 0.3551 0.0
C1405 C 0.98387 0.05223 0.40317 0.0
C1406 C 1.00068 0.04768 0.40505 0.0
C1407 C 0.00896 0.04577 0.3887 0.0
C1408 C 0.00974 0.04503 0.42378 0.0
C1409 C 0.97375 0.05407 0.41972 0.0
C1410 C 0.01402 0.05986 0.43929 0.0
C1411 C 0.02192 0.05728 0.45673 0.0
C1412 C 0.0259 0.03971 0.45959 0.0
C1413 C 0.02192 0.02496 0.44396 0.0
C1414 C 0.01415 0.02762 0.42645 0.0
H1415 H 0.95961 0.05317 0.41546 0.0
H1416 H 0.97491 0.0428 0.42825 0.0
H1417 H 0.97927 0.06809 0.4286 0.0
H1418 H 0.01127 0.07362 0.43795 0.0
H1419 H 0.02476 0.06915 0.46811 0.0
H1420 H 0.27496 0.70581 0.56456 0.0
H1421 H 0.27451 0.72702 0.59353 0.0
H1422 H 0.29 0.6862 0.62523 0.0
H1423 H 0.29033 0.6647 0.59625 0.0
H1424 H 0.25626 0.70981 0.63213 0.0
H1425 H 0.32608 0.74775 0.63288 0.0
H1426 H 0.31217 0.73853 0.61113 0.0
H1427 H 0.31915 0.72239 0.62497 0.0
C1428 C 0.27825 0.70135 0.5777 0.0
C1429 C 0.28284 0.68376 0.57829 0.0
C1430 C 0.27788 0.71339 0.59414 0.0
C1431 C 0.28222 0.70801 0.61127 0.0
C1432 C 0.28654 0.69038 0.61198 0.0
H1433 H 0.29224 0.75479 0.72492 0.0
H1434 H 0.28575 0.73498 0.69438 0.0
C1435 C 0.28678 0.67822 0.59552 0.0
C1436 C 0.2831 0.72136 0.6284 0.0
H1437 H 0.31097 0.75805 0.65742 0.0
C1438 C 0.26814 0.72043 0.6377 0.0
C1439 C 0.29867 0.73509 0.63532 0.0
C1440 C 0.31501 0.73615 0.62565 0.0
C1441 C 0.26846 0.73299 0.65415 0.0
C1442 C 0.2841 0.74661 0.66118 0.0
C1443 C 0.29896 0.74769 0.65169 0.0
C1444 C 0.28592 0.75861 0.67937 0.0
C1445 C 0.25223 0.7316 0.66403 0.0
C1446 C 0.28816 0.77841 0.68083 0.0
C1447 C 0.29187 0.78985 0.69833 0.0
C1448 C 0.29346 0.78148 0.71436 0.0
C1449 C 0.29081 0.76158 0.71277 0.0
C1450 C 0.28709 0.75024 0.69538 0.0
H1451 H 0.24037 0.72275 0.65508 0.0
H1452 H 0.25416 0.72505 0.67667 0.0
H1453 H 0.24991 0.74601 0.66857 0.0
H1454 H 0.28744 0.78498 0.66845 0.0
H1455 H 0.29396 0.80517 0.69929 0.0
H1456 H 0.6754 0.07407 0.81972 0.0
H1457 H 0.66381 0.08997 0.84604 0.0
H1458 H 0.61303 0.05198 0.82938 0.0
H1459 H 0.62441 0.03609 0.80281 0.0
H1460 H 0.62365 0.10126 0.83343 0.0
H1461 H 0.63578 0.06262 0.89232 0.0
H1462 H 0.65075 0.0657 0.87493 0.0
H1463 H 0.62978 0.04948 0.86898 0.0
C1464 C 0.66192 0.0687 0.82202 0.0
C1465 C 0.65069 0.05397 0.80928 0.0
C1466 C 0.65535 0.07787 0.83693 0.0
C1467 C 0.63765 0.07213 0.83931 0.0
C1468 C 0.62675 0.05651 0.8275 0.0
H1469 H 0.55306 0.09041 0.88483 0.0
H1470 H 0.57613 0.09551 0.86495 0.0
C1471 C 0.63325 0.04744 0.81247 0.0
C1472 C 0.63001 0.08348 0.85305 0.0
H1473 H 0.61728 0.08427 0.89625 0.0
C1474 C 0.62254 0.09796 0.84737 0.0
C1475 C 0.62884 0.07902 0.87105 0.0
C1476 C 0.63672 0.06339 0.87735 0.0
C1477 C 0.61288 0.10752 0.85911 0.0
C1478 C 0.6107 0.10224 0.87677 0.0
C1479 C 0.61922 0.08855 0.8828 0.0
C1480 C 0.59696 0.10739 0.8876 0.0
C1481 C 0.60443 0.12246 0.85218 0.0
C1482 C 0.60086 0.11362 0.90684 0.0
C1483 C 0.5876 0.11055 0.91832 0.0
C1484 C 0.57044 0.10114 0.91057 0.0
C1485 C 0.56616 0.09772 0.89117 0.0
C1486 C 0.5794 0.10073 0.87973 0.0
H1487 H 0.61247 0.12995 0.84252 0.0
H1488 H 0.5914 0.11546 0.84432 0.0
H1489 H 0.60254 0.13311 0.86385 0.0
H1490 H 0.61437 0.11879 0.91311 0.0
H1491 H 0.59112 0.11357 0.93328 0.0
H1492 H 0.32025 0.38754 0.10451 0.0
H1493 H 0.31562 0.37071 0.1311 0.0
H1494 H 0.2729 0.3291 0.09774 0.0
H1495 H 0.27823 0.34523 0.07092 0.0
H1496 H 0.29033 0.36461 0.15076 0.0
H1497 H 0.29644 0.293 0.11879 0.0
H1498 H 0.30175 0.3134 0.10721 0.0
H1499 H 0.27925 0.30074 0.10637 0.0
C1500 C 0.31002 0.37466 0.10281 0.0
C1501 C 0.29976 0.36764 0.08552 0.0
C1502 C 0.30733 0.36503 0.11805 0.0
C1503 C 0.29413 0.34825 0.11653 0.0
C1504 C 0.28362 0.3415 0.09931 0.0
H1505 H 0.25292 0.27853 0.19847 0.0
H1506 H 0.2574 0.29399 0.17099 0.0
C1507 C 0.28657 0.35089 0.08395 0.0
C1508 C 0.29099 0.33845 0.13316 0.0
H1509 H 0.28551 0.29523 0.14825 0.0
C1510 C 0.28945 0.34945 0.15015 0.0
C1511 C 0.28964 0.31857 0.1326 0.0
C1512 C 0.29203 0.30579 0.11531 0.0
C1513 C 0.28658 0.3413 0.16633 0.0
C1514 C 0.28526 0.32152 0.16573 0.0
C1515 C 0.28654 0.3104 0.14877 0.0
C1516 C 0.2826 0.31216 0.18259 0.0
C1517 C 0.28466 0.35391 0.18391 0.0
C1518 C 0.29531 0.31707 0.19834 0.0
C1519 C 0.2928 0.30819 0.2141 0.0
C1520 C 0.2775 0.2942 0.21449 0.0
C1521 C 0.26479 0.28934 0.19873 0.0
C1522 C 0.26737 0.29811 0.18294 0.0
H1523 H 0.2817 0.36759 0.18103 0.0
H1524 H 0.27407 0.34664 0.19128 0.0
H1525 H 0.29715 0.35722 0.19336 0.0
H1526 H 0.30729 0.32764 0.19837 0.0
H1527 H 0.3029 0.31216 0.22593 0.0
H1528 H 0.23959 0.93227 0.99908 0.0
H1529 H 0.2175 0.94825 0.01153 0.0
H1530 H 0.25794 0.98716 0.05064 0.0
H1531 H 0.28014 0.97193 0.03747 0.0
H1532 H 0.20832 0.95161 0.04613 0.0
H1533 H 0.23386 0.02359 0.02873 0.0
H1534 H 0.24205 1.00316 0.01973 0.0
H1535 H 0.2492 0.01516 0.04324 0.0
C1536 C 0.24372 0.94449 0.01007 0.0
C1537 C 0.26144 0.95117 0.01715 0.0
C1538 C 0.23115 0.95348 0.01725 0.0
C1539 C 0.23616 0.96899 0.03184 0.0
C1540 C 0.2539 0.97556 0.03904 0.0
H1541 H 0.16945 0.04163 0.07514 0.0
H1542 H 0.19288 0.0243 0.07514 0.0
C1543 C 0.26653 0.96688 0.03152 0.0
C1544 C 0.22265 0.97805 0.03951 0.0
H1545 H 0.20893 0.01968 0.04462 0.0
C1546 C 0.20847 0.96653 0.04593 0.0
C1547 C 0.22308 0.99756 0.03942 0.0
C1548 C 0.23778 0.01056 0.03227 0.0
C1549 C 0.1943 0.97386 0.05166 0.0
C1550 C 0.1944 0.99314 0.0508 0.0
C1551 C 0.20898 1.00488 0.04527 0.0
C1552 C 0.17893 1.00119 0.05369 0.0
C1553 C 0.1793 0.96083 0.05826 0.0
C1554 C 0.16317 0.99361 0.04195 0.0
C1555 C 0.14961 1.00332 0.0421 0.0
C1556 C 0.15176 0.02094 0.05376 0.0
C1557 C 0.16727 0.02801 0.06612 0.0
C1558 C 0.18072 0.01817 0.06611 0.0
H1559 H 0.18381 0.94919 0.06425 0.0
H1560 H 0.17303 0.96874 0.06887 0.0
H1561 H 0.16925 0.95415 0.04622 0.0
H1562 H 0.16169 0.98071 0.03197 0.0
H1563 H 0.1377 0.99733 0.03266 0.0
H1564 H 0.72056 0.6769 0.01711 0.0
H1565 H 0.69173 0.65674 0.01881 0.0
H1566 H 0.70747 0.60853 0.98934 0.0
H1567 H 0.73657 0.62851 0.98829 0.0
H1568 H 0.66599 0.6379 0.9938 0.0
H1569 H 0.68879 0.58492 0.03142 0.0
H1570 H 0.70335 0.60675 0.02849 0.0
H1571 H 0.69824 0.5865 0.01007 0.0
C1572 C 0.7179 0.66198 0.01103 0.0
C1573 C 0.73093 0.65432 1.00263 0.0
C1574 C 0.70136 0.65042 0.01202 0.0
C1575 C 0.69736 0.63089 1.00457 0.0
C1576 C 0.71027 0.62334 0.99575 0.0
H1577 H 0.6006 0.5436 0.98053 0.0
H1578 H 0.6297 0.56436 0.98139 0.0
C1579 C 0.72689 0.63485 0.99497 0.0
C1580 C 0.67959 0.61866 0.00563 0.0
H1581 H 0.65867 0.57674 0.0181 0.0
C1582 C 0.66447 0.62463 0.99928 0.0
C1583 C 0.67737 0.60131 0.01291 0.0
C1584 C 0.6928 0.59459 0.02129 0.0
C1585 C 0.64742 0.61362 0.99956 0.0
C1586 C 0.64529 0.59608 0.00629 0.0
C1587 C 0.66031 0.59015 0.01284 0.0
C1588 C 0.62754 0.58349 0.00608 0.0
C1589 C 0.63171 0.62057 0.99236 0.0
C1590 C 0.61656 0.58725 0.01973 0.0
C1591 C 0.5999 0.57524 0.0194 0.0
C1592 C 0.59378 0.55935 0.00526 0.0
C1593 C 0.60478 0.55576 0.99155 0.0
C1594 C 0.62149 0.56758 0.99205 0.0
H1595 H 0.63553 0.63386 0.98639 0.0
H1596 H 0.62321 0.60942 0.98151 0.0
H1597 H 0.62378 0.62333 1.00391 0.0
H1598 H 0.62094 0.59944 0.03071 0.0
H1599 H 0.5918 0.57839 0.03018 0.0
H1600 H 0.66862 0.44713 0.27681 0.0
H1601 H 0.6844 0.42107 0.27442 0.0
H1602 H 0.73235 0.46134 0.27128 0.0
H1603 H 0.71683 0.48731 0.27475 0.0
H1604 H 0.70017 0.40197 0.25286 0.0
H1605 H 0.75582 0.43729 0.30604 0.0
H1606 H 0.73705 0.44753 0.30238 0.0
H1607 H 0.75438 0.45083 0.28756 0.0
C1608 C 0.68261 0.45062 0.27588 0.0
C1609 C 0.69117 0.46998 0.27641 0.0
C1610 C 0.69183 0.43539 0.27441 0.0
C1611 C 0.71024 0.43844 0.27326 0.0
C1612 C 0.71857 0.45778 0.27308 0.0
H1613 H 0.79119 0.36543 0.26565 0.0
H1614 H 0.77465 0.39065 0.26647 0.0
C1615 C 0.70944 0.47299 0.27487 0.0
C1616 C 0.72038 0.42171 0.27195 0.0
H1617 H 0.75887 0.4091 0.28757 0.0
C1618 C 0.71296 0.40374 0.26067 0.0
C1619 C 0.73738 0.42297 0.28177 0.0
C1620 C 0.74656 0.4406 0.29525 0.0
C1621 C 0.72169 0.38805 0.25865 0.0
C1622 C 0.73868 0.38934 0.26851 0.0
C1623 C 0.74608 0.4073 0.27975 0.0
C1624 C 0.74901 0.37278 0.26743 0.0
C1625 C 0.7126 0.37038 0.24516 0.0
C1626 C 0.741 0.35336 0.26776 0.0
C1627 C 0.75066 0.33855 0.26702 0.0
C1628 C 0.7691 0.34212 0.26628 0.0
C1629 C 0.77716 0.36151 0.26617 0.0
C1630 C 0.76749 0.37628 0.26672 0.0
H1631 H 0.70334 0.37365 0.23433 0.0
H1632 H 0.72218 0.3635 0.2381 0.0
H1633 H 0.70481 0.36011 0.25283 0.0
H1634 H 0.72712 0.34945 0.26901 0.0
H1635 H 0.74355 0.32416 0.26733 0.0
H1636 H 0.8466 0.45667 0.4854 0.0
H1637 H 0.87622 0.47696 0.49092 0.0
H1638 H 0.88668 0.45404 0.54107 0.0
H1639 H 0.85701 0.43319 0.53527 0.0
H1640 H 0.88625 0.50292 0.53146 0.0
H1641 H 0.93005 0.45605 0.50555 0.0
H1642 H 0.90774 0.45151 0.49456 0.0
H1643 H 0.91185 0.4475 0.51803 0.0
C1644 C 0.85542 0.45569 0.49731 0.0
C1645 C 0.84986 0.44369 0.50999 0.0
C1646 C 0.87215 0.46721 0.50047 0.0
C1647 C 0.88318 0.46696 0.51649 0.0
C1648 C 0.87807 0.45422 0.52869 0.0
H1649 H 0.98255 0.54157 0.54182 0.0
H1650 H 0.95189 0.5323 0.54649 0.0
C1651 C 0.86136 0.44237 0.52532 0.0
C1652 C 0.89948 0.48123 0.52069 0.0
H1653 H 0.94105 0.48917 0.50944 0.0
C1654 C 0.89845 0.50005 0.52709 0.0
C1655 C 0.91503 0.47704 0.51487 0.0
C1656 C 0.9164 0.45693 0.5079 0.0
C1657 C 0.91256 0.51518 0.52656 0.0
C1658 C 0.92763 0.511 0.51944 0.0
C1659 C 0.92907 0.4921 0.5144 0.0
C1660 C 0.94259 0.52563 0.5171 0.0
C1661 C 0.91108 0.5354 0.53259 0.0
C1662 C 0.94708 0.52617 0.499 0.0
C1663 C 0.96465 0.53067 0.4962 0.0
C1664 C 0.97761 0.53499 0.51157 0.0
C1665 C 0.9728 0.53745 0.5297 0.0
C1666 C 0.95527 0.53273 0.53246 0.0
H1667 H 0.89808 0.53617 0.53725 0.0
H1668 H 0.92151 0.54241 0.54419 0.0
H1669 H 0.91314 0.54354 0.52089 0.0
H1670 H 0.93723 0.52068 0.48705 0.0
H1671 H 0.96805 0.5295 0.4821 0.0
H1672 H 0.37094 0.0559 0.28862 0.0
H1673 H 0.35285 0.07564 0.27549 0.0
H1674 H 0.39959 0.11478 0.26623 0.0
H1675 H 0.41782 0.09522 0.2794 0.0
H1676 H 0.35675 0.11754 0.28831 0.0
H1677 H 0.36663 0.09695 0.21427 0.0
H1678 H 0.36941 0.0822 0.23178 0.0
H1679 H 0.38588 0.10324 0.23119 0.0
C1680 C 0.37734 0.06883 0.28398 0.0
C1681 C 0.39572 0.07413 0.285 0.0
C1682 C 0.36703 0.07995 0.27642 0.0
C1683 C 0.37502 0.09632 0.26969 0.0
C1684 C 0.39334 0.10196 0.27117 0.0
H1685 H 0.33702 0.18947 0.23517 0.0
H1686 H 0.35529 0.16689 0.24108 0.0
C1687 C 0.40367 0.09093 0.27885 0.0
C1688 C 0.36417 0.10787 0.26159 0.0
H1689 H 0.35111 0.12139 0.22078 0.0
C1690 C 0.35542 0.11837 0.27356 0.0
C1691 C 0.36262 0.10871 0.24234 0.0
C1692 C 0.37152 0.0971 0.22904 0.0
C1693 C 0.34523 0.13009 0.26676 0.0
C1694 C 0.34377 0.13106 0.24755 0.0
C1695 C 0.35241 0.12048 0.23551 0.0
C1696 C 0.33319 0.14318 0.24001 0.0
C1697 C 0.33622 0.14153 0.28011 0.0
C1698 C 0.31492 0.13687 0.23684 0.0
C1699 C 0.30449 0.14966 0.23359 0.0
C1700 C 0.31232 0.16886 0.23353 0.0
C1701 C 0.33072 0.17475 0.23532 0.0
C1702 C 0.34113 0.16193 0.23857 0.0
H1703 H 0.33973 0.14011 0.29483 0.0
H1704 H 0.33983 0.15683 0.27873 0.0
H1705 H 0.32177 0.13668 0.27662 0.0
H1706 H 0.30872 0.1224 0.23809 0.0
H1707 H 0.29035 0.14484 0.23249 0.0
H1708 H 0.31184 0.14942 0.53619 0.0
H1709 H 0.33726 0.13678 0.54535 0.0
H1710 H 0.36599 0.16564 0.50588 0.0
H1711 H 0.34095 0.17949 0.4978 0.0
H1712 H 0.35176 0.11356 0.52839 0.0
H1713 H 0.40359 0.17934 0.54739 0.0
H1714 H 0.38077 0.17996 0.54283 0.0
H1715 H 0.39397 0.17765 0.52393 0.0
C1716 C 0.32366 0.15318 0.52959 0.0
C1717 C 0.32444 0.1654 0.51627 0.0
C1718 C 0.33822 0.14597 0.53486 0.0
C1719 C 0.35382 0.15046 0.52662 0.0
C1720 C 0.35446 0.16247 0.51303 0.0
H1721 H 0.44006 0.09813 0.51061 0.0
H1722 H 0.41742 0.11665 0.51076 0.0
C1723 C 0.34005 0.17018 0.50819 0.0
C1724 C 0.36881 0.14149 0.53134 0.0
H1725 H 0.41361 0.15013 0.54039 0.0
C1726 C 0.36522 0.1217 0.53135 0.0
C1727 C 0.38649 0.15198 0.53545 0.0
C1728 C 0.39138 0.17343 0.53761 0.0
C1729 C 0.37874 0.1121 0.53448 0.0
C1730 C 0.39638 0.12243 0.53737 0.0
C1731 C 0.40004 0.14223 0.53795 0.0
C1732 C 0.41116 0.11263 0.53836 0.0
C1733 C 0.37415 0.09083 0.53409 0.0
C1734 C 0.41536 0.10453 0.55401 0.0
C1735 C 0.42848 0.09404 0.55407 0.0
C1736 C 0.43759 0.09144 0.53844 0.0
C1737 C 0.43358 0.10007 0.52301 0.0
C1738 C 0.42055 0.11058 0.52301 0.0
H1739 H 0.35989 0.08464 0.53009 0.0
H1740 H 0.38164 0.08373 0.52416 0.0
H1741 H 0.37791 0.08764 0.5481 0.0
H1742 H 0.40832 0.10609 0.56605 0.0
H1743 H 0.43137 0.08783 0.56629 0.0
H1744 H 0.70753 0.57048 0.25692 0.0
H1745 H 0.72325 0.60336 0.2562 0.0
H1746 H 0.69979 0.62318 0.3041 0.0
H1747 H 0.68388 0.59036 0.30469 0.0
H1748 H 0.71204 0.63719 0.25196 0.0
H1749 H 0.75153 0.6487 0.32081 0.0
H1750 H 0.74016 0.62529 0.30901 0.0
H1751 H 0.72828 0.64078 0.32119 0.0
C1752 C 0.70572 0.58176 0.26742 0.0
C1753 C 0.69433 0.57729 0.28098 0.0
C1754 C 0.71478 0.60081 0.26696 0.0
C1755 C 0.71322 0.61633 0.28025 0.0
C1756 C 0.70179 0.61186 0.29378 0.0
H1757 H 0.76301 0.74255 0.29954 0.0
H1758 H 0.7442 0.71093 0.30063 0.0
C1759 C 0.69252 0.59286 0.29407 0.0
C1760 C 0.72326 0.63695 0.27981 0.0
H1761 H 0.75321 0.67559 0.3056 0.0
C1762 C 0.72105 0.64544 0.26376 0.0
C1763 C 0.73517 0.64837 0.29503 0.0
C1764 C 0.73912 0.64036 0.31245 0.0
C1765 C 0.72994 0.66447 0.26262 0.0
C1766 C 0.74199 0.67584 0.27776 0.0
C1767 C 0.74409 0.66739 0.29387 0.0
C1768 C 0.75296 0.69593 0.27676 0.0
C1769 C 0.72593 0.67244 0.24518 0.0
C1770 C 0.76449 0.69884 0.26307 0.0
C1771 C 0.77541 0.71695 0.26259 0.0
C1772 C 0.77515 0.73335 0.27544 0.0
C1773 C 0.76337 0.73066 0.28897 0.0
C1774 C 0.75266 0.71232 0.28972 0.0
H1775 H 0.71303 0.6647 0.23744 0.0
H1776 H 0.72585 0.68779 0.24846 0.0
H1777 H 0.73621 0.67091 0.2359 0.0
H1778 H 0.76555 0.68684 0.25299 0.0
H1779 H 0.78448 0.71804 0.25221 0.0
H1780 H 0.89066 0.48583 0.7516 0.0
H1781 H 0.87201 0.45398 0.74703 0.0
H1782 H 0.90798 0.43747 0.78631 0.0
H1783 H 0.9269 0.46949 0.79083 0.0
H1784 H 0.869 0.41138 0.74763 0.0
H1785 H 0.86817 0.45949 0.8141 0.0
H1786 H 0.87934 0.46798 0.79538 0.0
H1787 H 0.88869 0.45349 0.80963 0.0
C1788 C 0.89505 0.47505 0.75844 0.0
C1789 C 0.90958 0.47998 0.77215 0.0
C1790 C 0.88456 0.45682 0.7556 0.0
C1791 C 0.88845 0.44387 0.76689 0.0
C1792 C 0.90485 0.44756 0.77768 0.0
H1793 H 0.82272 0.36975 0.82104 0.0
H1794 H 0.84316 0.39728 0.8142 0.0
C1795 C 0.91551 0.46585 0.78041 0.0
C1796 C 0.87344 0.4317 0.77286 0.0
H1797 H 0.84627 0.43182 0.80677 0.0
C1798 C 0.86408 0.41556 0.76064 0.0
C1799 C 0.86692 0.43789 0.78959 0.0
C1800 C 0.87619 0.45571 0.80292 0.0
C1801 C 0.8485 0.40479 0.76511 0.0
C1802 C 0.84208 0.41096 0.78194 0.0
C1803 C 0.85126 0.42739 0.79386 0.0
C1804 C 0.82742 0.39906 0.78882 0.0
C1805 C 0.83946 0.38672 0.75204 0.0
C1806 C 0.81119 0.39238 0.77781 0.0
C1807 C 0.79979 0.37633 0.78143 0.0
C1808 C 0.80444 0.36763 0.79647 0.0
C1809 C 0.81911 0.37636 0.80932 0.0
C1810 C 0.83076 0.392 0.80537 0.0
H1811 H 0.84807 0.38221 0.7418 0.0
H1812 H 0.83522 0.37486 0.75986 0.0
H1813 H 0.82764 0.38918 0.74411 0.0
H1814 H 0.80818 0.39831 0.76544 0.0
H1815 H 0.78821 0.36977 0.77163 0.0
H1816 H 0.09523 0.86236 0.09194 0.0
H1817 H 0.09186 0.89046 0.07805 0.0
H1818 H 0.03975 0.88475 0.09461 0.0
H1819 H 0.04357 0.8576 0.10948 0.0
H1820 H 0.072 0.89771 0.05146 0.0
H1821 H 0.05721 0.93867 0.11547 0.0
H1822 H 0.06416 0.9166 0.11566 0.0
H1823 H 0.04146 0.91654 0.10882 0.0
C1824 C 0.08312 0.86723 0.09272 0.0
C1825 C 0.06982 0.85795 0.10215 0.0
C1826 C 0.08116 0.8833 0.08473 0.0
C1827 C 0.06574 0.89033 0.08573 0.0
C1828 C 0.05211 0.88036 0.09431 0.0
H1829 H 0.02723 0.98053 0.03859 0.0
H1830 H 0.03018 0.95121 0.05028 0.0
C1831 C 0.05424 0.86464 0.10268 0.0
C1832 C 0.06387 0.9079 0.07773 0.0
H1833 H 0.05207 0.95078 0.08734 0.0
C1834 C 0.06777 0.90932 0.05944 0.0
C1835 C 0.0584 0.92332 0.08798 0.0
C1836 C 0.05525 0.92381 0.10812 0.0
C1837 C 0.06613 0.92539 0.05117 0.0
C1838 C 0.06032 0.94047 0.06132 0.0
C1839 C 0.05637 0.93912 0.07951 0.0
C1840 C 0.05859 0.95796 0.05344 0.0
C1841 C 0.07043 0.92611 0.03153 0.0
C1842 C 0.07357 0.9716 0.05136 0.0
C1843 C 0.07194 0.9885 0.04485 0.0
C1844 C 0.05526 0.99208 0.04009 0.0
C1845 C 0.04028 0.97822 0.04193 0.0
C1846 C 0.04193 0.96145 0.04869 0.0
H1847 H 0.07222 0.91218 0.02452 0.0
H1848 H 0.05985 0.93044 0.02319 0.0
H1849 H 0.08277 0.93695 0.0318 0.0
H1850 H 0.08656 0.96932 0.05508 0.0
H1851 H 0.08377 0.99883 0.04366 0.0
H1852 H 0.94678 0.26462 0.90792 0.0
H1853 H 0.9191 0.27096 0.89468 0.0
H1854 H 0.94531 0.29399 0.85071 0.0
H1855 H 0.97283 0.28727 0.86363 0.0
H1856 H 0.90842 0.30283 0.88846 0.0
H1857 H 0.90425 0.25748 0.82016 0.0
H1858 H 0.91986 0.25684 0.83956 0.0
H1859 H 0.92438 0.27524 0.82537 0.0
C1860 C 0.94662 0.27079 0.89527 0.0
C1861 C 0.96212 0.27508 0.88671 0.0
C1862 C 0.93072 0.27456 0.88774 0.0
C1863 C 0.92974 0.28266 0.87135 0.0
C1864 C 0.94532 0.28723 0.863 0.0
H1865 H 0.85299 0.31701 0.79876 0.0
H1866 H 0.87862 0.31161 0.81661 0.0
C1867 C 0.96119 0.28342 0.87048 0.0
C1868 C 0.91259 0.28638 0.86304 0.0
H1869 H 0.88477 0.27853 0.82242 0.0
C1870 C 0.90321 0.29737 0.87404 0.0
C1871 C 0.90545 0.27927 0.84423 0.0
C1872 C 0.9139 0.26639 0.83169 0.0
C1873 C 0.88754 0.30199 0.86666 0.0
C1874 C 0.88066 0.29523 0.84771 0.0
C1875 C 0.88987 0.28392 0.83688 0.0
C1876 C 0.86465 0.30042 0.83833 0.0
C1877 C 0.87884 0.31466 0.87909 0.0
C1878 C 0.84785 0.29653 0.84459 0.0
C1879 C 0.83288 0.2999 0.83431 0.0
C1880 C 0.83435 0.30708 0.81743 0.0
C1881 C 0.85124 0.31153 0.81168 0.0
C1882 C 0.86603 0.30832 0.82189 0.0
H1883 H 0.8879 0.32249 0.89158 0.0
H1884 H 0.87412 0.32516 0.87145 0.0
H1885 H 0.86734 0.30577 0.8839 0.0
H1886 H 0.84613 0.29012 0.85699 0.0
H1887 H 0.8201 0.29593 0.83902 0.0
H1888 H 0.55375 0.24108 0.62395 0.0
H1889 H 0.55004 0.20798 0.60955 0.0
H1890 H 0.56433 0.22612 0.55816 0.0
H1891 H 0.56851 0.25958 0.57274 0.0
H1892 H 0.52861 0.18627 0.58005 0.0
H1893 H 0.59821 0.19228 0.56728 0.0
H1894 H 0.59101 0.21074 0.5817 0.0
H1895 H 0.58763 0.2085 0.55675 0.0
C1896 C 0.55611 0.2381 0.60956 0.0
C1897 C 0.5616 0.25301 0.59954 0.0
C1898 C 0.55394 0.21911 0.60133 0.0
C1899 C 0.5572 0.2145 0.58287 0.0
C1900 C 0.56214 0.22932 0.57257 0.0
H1901 H 0.54714 0.10266 0.51474 0.0
H1902 H 0.55047 0.13704 0.52553 0.0
C1903 C 0.56442 0.24843 0.58086 0.0
C1904 C 0.55554 0.19418 0.57467 0.0
H1905 H 0.57862 0.16265 0.55576 0.0
C1906 C 0.53954 0.18115 0.57469 0.0
C1907 C 0.56986 0.1874 0.56785 0.0
C1908 C 0.58771 0.20039 0.56852 0.0
C1909 C 0.53746 0.16163 0.56802 0.0
C1910 C 0.55175 0.15495 0.56115 0.0
C1911 C 0.56767 0.16791 0.56092 0.0
C1912 C 0.5505 0.13441 0.55466 0.0
C1913 C 0.52002 0.14822 0.56835 0.0
C1914 C 0.54979 0.12172 0.56752 0.0
C1915 C 0.54814 0.10227 0.56141 0.0
C1916 C 0.54711 0.09524 0.54237 0.0
C1917 C 0.54803 0.1079 0.52949 0.0
C1918 C 0.54988 0.12743 0.53563 0.0
H1919 H 0.50944 0.15597 0.57094 0.0
H1920 H 0.51612 0.13823 0.55497 0.0
H1921 H 0.52125 0.13962 0.5796 0.0
H1922 H 0.55037 0.12685 0.58227 0.0
H1923 H 0.54732 0.09263 0.57152 0.0
H1924 H 0.57147 0.80637 0.40909 0.0
H1925 H 0.60015 0.81082 0.39746 0.0
H1926 H 0.58217 0.75827 0.3589 0.0
H1927 H 0.55325 0.75399 0.3702 0.0
H1928 H 0.62546 0.79116 0.39657 0.0
H1929 H 0.60036 0.79375 0.32418 0.0
H1930 H 0.58689 0.79471 0.34292 0.0
H1931 H 0.5899 0.77215 0.33159 0.0
C1932 C 0.57353 0.79582 0.39799 0.0
C1933 C 0.55988 0.77995 0.39036 0.0
C1934 C 0.59004 0.79835 0.39141 0.0
C1935 C 0.59337 0.78512 0.37698 0.0
C1936 C 0.57988 0.76901 0.36966 0.0
H1937 H 0.67983 0.76382 0.31879 0.0
H1938 H 0.65365 0.76307 0.33476 0.0
C1939 C 0.56331 0.76652 0.37617 0.0
C1940 C 0.61084 0.78818 0.36954 0.0
H1941 H 0.62974 0.78953 0.32907 0.0
C1942 C 0.62638 0.79096 0.38183 0.0
C1943 C 0.61226 0.78834 0.35034 0.0
C1944 C 0.59649 0.7873 0.33653 0.0
C1945 C 0.64303 0.79298 0.37531 0.0
C1946 C 0.64423 0.79211 0.35601 0.0
C1947 C 0.62882 0.78992 0.34384 0.0
C1948 C 0.66116 0.79256 0.34788 0.0
C1949 C 0.65921 0.7955 0.38899 0.0
C1950 C 0.67428 0.8094 0.35001 0.0
C1951 C 0.68939 0.80991 0.3408 0.0
C1952 C 0.69175 0.79355 0.32933 0.0
C1953 C 0.67871 0.77664 0.32767 0.0
C1954 C 0.66362 0.77619 0.33673 0.0
H1955 H 0.65595 0.79389 0.40325 0.0
H1956 H 0.66702 0.78496 0.38437 0.0
H1957 H 0.66761 0.80992 0.38951 0.0
H1958 H 0.67264 0.82229 0.35839 0.0
H1959 H 0.69916 0.82316 0.34256 0.0
H1960 H 0.06906 0.25565 0.38748 0.0
H1961 H 0.05922 0.22609 0.39936 0.0
H1962 H 0.0821 0.2539 0.45474 0.0
H1963 H 0.09162 0.28392 0.44298 0.0
H1964 H 0.07765 0.20471 0.41676 0.0
H1965 H 0.03187 0.23077 0.46234 0.0
H1966 H 0.0413 0.24377 0.44497 0.0
H1967 H 0.05376 0.24527 0.46722 0.0
C1968 C 0.07207 0.2555 0.4022 0.0
C1969 C 0.08105 0.27208 0.41438 0.0
C1970 C 0.0664 0.2386 0.40894 0.0
C1971 C 0.06965 0.23796 0.42793 0.0
C1972 C 0.07912 0.25431 0.44008 0.0
H1973 H 0.05979 0.16091 0.50345 0.0
H1974 H 0.0647 0.18703 0.48545 0.0
C1975 C 0.08469 0.27135 0.43336 0.0
C1976 C 0.06331 0.22007 0.43494 0.0
H1977 H 0.03912 0.20131 0.46713 0.0
C1978 C 0.06908 0.20384 0.42764 0.0
C1979 C 0.05181 0.21899 0.44879 0.0
C1980 C 0.04416 0.23558 0.45615 0.0
C1981 C 0.06457 0.1868 0.43477 0.0
C1982 C 0.05394 0.1861 0.44942 0.0
C1983 C 0.04741 0.20203 0.45599 0.0
C1984 C 0.05104 0.1699 0.45965 0.0
C1985 C 0.07186 0.17003 0.42717 0.0
C1986 C 0.04182 0.15164 0.45099 0.0
C1987 C 0.03923 0.13664 0.46124 0.0
C1988 C 0.04557 0.13999 0.48024 0.0
C1989 C 0.0547 0.15821 0.48883 0.0
C1990 C 0.05749 0.17305 0.47859 0.0
H1991 H 0.0822 0.174 0.41805 0.0
H1992 H 0.07746 0.16379 0.43869 0.0
H1993 H 0.06108 0.15886 0.41883 0.0
H1994 H 0.03652 0.14906 0.43644 0.0
H1995 H 0.03213 0.12257 0.45449 0.0
H1996 H 0.55088 0.24195 0.17899 0.0
H1997 H 0.58189 0.24944 0.19131 0.0
H1998 H 0.57923 0.30747 0.21081 0.0
H1999 H 0.54799 0.3 0.19877 0.0
H2000 H 0.60771 0.27708 0.17995 0.0
H2001 H 0.60326 0.29091 0.25616 0.0
H2002 H 0.58463 0.2787 0.23947 0.0
H2003 H 0.59203 0.30409 0.24202 0.0
C2004 C 0.55682 0.25622 0.18619 0.0
C2005 C 0.54711 0.27042 0.18801 0.0
C2006 C 0.5745 0.26048 0.19311 0.0
C2007 C 0.5827 0.27897 0.20192 0.0
C2008 C 0.57297 0.29308 0.20422 0.0
H2009 H 0.69575 0.30921 0.24351 0.0
H2010 H 0.66708 0.31432 0.23131 0.0
C2011 C 0.5552 0.28879 0.19737 0.0
C2012 C 0.60163 0.28342 0.20805 0.0
H2013 H 0.6315 0.29335 0.2468 0.0
C2014 C 0.61299 0.28096 0.19454 0.0
C2015 C 0.60832 0.28845 0.22708 0.0
C2016 C 0.59647 0.29058 0.24209 0.0
C2017 C 0.63088 0.28254 0.19969 0.0
C2018 C 0.6374 0.28681 0.21874 0.0
C2019 C 0.62629 0.29032 0.23218 0.0
C2020 C 0.65482 0.28427 0.22512 0.0
C2021 C 0.64257 0.27867 0.18493 0.0
C2022 C 0.65704 0.26575 0.22562 0.0
C2023 C 0.67309 0.26283 0.23267 0.0
C2024 C 0.68714 0.27842 0.23926 0.0
C2025 C 0.68501 0.29702 0.23848 0.0
C2026 C 0.66878 0.29995 0.23157 0.0
H2027 H 0.63636 0.27911 0.17078 0.0
H2028 H 0.65535 0.28921 0.18784 0.0
H2029 H 0.64529 0.26431 0.18508 0.0
H2030 H 0.64625 0.25357 0.22073 0.0
H2031 H 0.67458 0.24838 0.23289 0.0
H2032 H 0.57095 0.86038 0.94407 0.0
H2033 H 0.55847 0.88784 0.95302 0.0
H2034 H 0.59381 0.9211 0.92168 0.0
H2035 H 0.60592 0.89335 0.91201 0.0
H2036 H 0.57286 0.92173 0.97203 0.0
H2037 H 0.54721 0.92971 0.9011 0.0
H2038 H 0.55533 0.90914 0.90572 0.0
H2039 H 0.5704 0.93091 0.90372 0.0
C2040 C 0.57631 0.87364 0.93937 0.0
C2041 C 0.58945 0.87481 0.92743 0.0
C2042 C 0.56902 0.88923 0.94431 0.0
C2043 C 0.57489 0.90628 0.93756 0.0
C2044 C 0.58872 0.90785 0.92651 0.0
H2045 H 0.56749 0.01685 0.98089 0.0
H2046 H 0.57385 0.9889 0.96241 0.0
C2047 C 0.59586 0.89214 0.92132 0.0
C2048 C 0.56694 0.92259 0.94286 0.0
H2049 H 0.547 0.95518 0.92572 0.0
C2050 C 0.56701 0.92886 0.96189 0.0
C2051 C 0.5592 0.93175 0.92953 0.0
C2052 C 0.55785 0.92492 0.90888 0.0
C2053 C 0.55997 0.94441 0.96802 0.0
C2054 C 0.5529 0.95401 0.95476 0.0
C2055 C 0.55245 0.94762 0.93572 0.0
C2056 C 0.54753 0.97175 0.96088 0.0
C2057 C 0.56052 0.95086 0.98867 0.0
C2058 C 0.53038 0.9714 0.96519 0.0
C2059 C 0.52666 0.98746 0.97553 0.0
C2060 C 0.5402 1.00363 0.98177 0.0
C2061 C 0.55694 1.00439 0.97617 0.0
C2062 C 0.56055 0.98855 0.9656 0.0
H2063 H 0.56533 0.94097 0.99709 0.0
H2064 H 0.56932 0.96521 0.99277 0.0
H2065 H 0.5472 0.95198 0.99209 0.0
H2066 H 0.5203 0.95836 0.96175 0.0
H2067 H 0.51372 0.98667 0.97996 0.0
H2068 H 0.93699 0.75803 0.65861 0.0
H2069 H 0.91071 0.75762 0.67442 0.0
H2070 H 0.94127 0.76002 0.72709 0.0
H2071 H 0.96768 0.76062 0.71148 0.0
H2072 H 0.89553 0.73185 0.69974 0.0
H2073 H 0.9193 0.80829 0.73143 0.0
H2074 H 0.9283 0.7975 0.71181 0.0
H2075 H 0.93421 0.79298 0.73477 0.0
C2076 C 0.93807 0.75839 0.67354 0.0
C2077 C 0.95429 0.75964 0.68394 0.0
C2078 C 0.92311 0.75805 0.68247 0.0
C2079 C 0.92433 0.75899 0.7018 0.0
C2080 C 0.94033 0.75949 0.71213 0.0
H2081 H 0.84681 0.77537 0.77646 0.0
H2082 H 0.87409 0.77085 0.7639 0.0
C2083 C 0.95531 0.75986 0.70323 0.0
C2084 C 0.90902 0.76062 0.71128 0.0
H2085 H 0.89217 0.79221 0.73901 0.0
C2086 C 0.89475 0.74495 0.70844 0.0
C2087 C 0.9083 0.77784 0.72246 0.0
C2088 C 0.92327 0.7952 0.72525 0.0
C2089 C 0.87949 0.74609 0.71662 0.0
C2090 C 0.87868 0.76342 0.72756 0.0
C2091 C 0.89307 0.77897 0.73064 0.0
C2092 C 0.86261 0.76607 0.73511 0.0
C2093 C 0.86439 0.72885 0.71343 0.0
C2094 C 0.8476 0.76531 0.72291 0.0
C2095 C 0.83227 0.76784 0.73 0.0
C2096 C 0.832 0.77129 0.74927 0.0
C2097 C 0.84704 0.77255 0.76153 0.0
C2098 C 0.86242 0.76998 0.75442 0.0
H2099 H 0.86883 0.7155 0.70924 0.0
H2100 H 0.85769 0.7276 0.72614 0.0
H2101 H 0.85465 0.73029 0.70206 0.0
H2102 H 0.84779 0.76278 0.70796 0.0
H2103 H 0.82063 0.76705 0.7205 0.0
H2104 H 0.11344 1.00271 0.82099 0.0
H2105 H 0.09968 1.00569 0.85003 0.0
H2106 H 0.14619 0.04603 0.87714 0.0
H2107 H 0.15985 0.04312 0.8482 0.0
H2108 H 0.10436 0.9981 0.88425 0.0
H2109 H 0.11273 0.07606 0.89565 0.0
H2110 H 0.11698 0.06318 0.87423 0.0
H2111 H 0.13339 0.06936 0.89426 0.0
C2112 C 0.12083 0.01235 0.83304 0.0
C2113 C 0.13804 0.02269 0.83159 0.0
C2114 C 0.11282 0.01406 0.84999 0.0
C2115 C 0.12135 0.02648 0.86652 0.0
C2116 C 0.13861 0.03669 0.86504 0.0
H2117 H 0.09296 0.05404 0.98492 0.0
H2118 H 0.10823 0.05205 0.95654 0.0
C2119 C 0.14666 0.03485 0.84818 0.0
C2120 C 0.11257 0.02833 0.88508 0.0
H2121 H 0.10422 0.06063 0.92115 0.0
C2122 C 0.10438 0.0119 0.8921 0.0
C2123 C 0.1121 0.0461 0.89615 0.0
C2124 C 0.11909 0.06468 0.88963 0.0
C2125 C 0.09656 0.01264 0.90924 0.0
C2126 C 0.09619 0.0304 0.92037 0.0
C2127 C 0.10433 0.04685 0.91335 0.0
C2128 C 0.08691 0.03203 0.93859 0.0
C2129 C 0.0892 0.994 0.91549 0.0
C2130 C 0.06946 0.02195 0.93893 0.0
C2131 C 0.06075 0.02308 0.95523 0.0
C2132 C 0.06868 0.03444 0.97252 0.0
C2133 C 0.08613 0.04484 0.97235 0.0
C2134 C 0.09494 0.04374 0.95579 0.0
H2135 H 0.09562 0.9826 0.90964 0.0
H2136 H 0.09088 0.99534 0.9309 0.0
H2137 H 0.07498 0.9894 0.91043 0.0
H2138 H 0.06221 0.01325 0.92631 0.0
H2139 H 0.04735 0.01493 0.95412 0.0
H2140 H 0.83231 0.4275 0.56574 0.0
H2141 H 0.84085 0.4197 0.59618 0.0
H2142 H 0.79296 0.37625 0.59007 0.0
H2143 H 0.78481 0.38339 0.55914 0.0
H2144 H 0.82503 0.42202 0.62675 0.0
H2145 H 0.82861 0.34711 0.60449 0.0
H2146 H 0.82719 0.36331 0.58811 0.0
H2147 H 0.80767 0.35126 0.59658 0.0
C2148 C 0.82368 0.41619 0.57091 0.0
C2149 C 0.80796 0.4059 0.56025 0.0
C2150 C 0.82858 0.41177 0.58821 0.0
C2151 C 0.81771 0.39716 0.59513 0.0
C2152 C 0.80179 0.38714 0.58464 0.0
H2153 H 0.79371 0.3637 0.6935 0.0
H2154 H 0.79887 0.38057 0.6673 0.0
C2155 C 0.79708 0.39128 0.56711 0.0
C2156 C 0.82262 0.39292 0.61369 0.0
H2157 H 0.82572 0.35617 0.63699 0.0
C2158 C 0.82554 0.4077 0.62898 0.0
C2159 C 0.82361 0.37431 0.61647 0.0
C2160 C 0.82179 0.35816 0.6005 0.0
C2161 C 0.82816 0.404 0.64717 0.0
C2162 C 0.82774 0.38516 0.6499 0.0
C2163 C 0.82599 0.37063 0.63465 0.0
C2164 C 0.8263 0.37953 0.66823 0.0
C2165 C 0.83063 0.41995 0.6634 0.0
C2166 C 0.84025 0.374 0.6776 0.0
C2167 C 0.83742 0.36453 0.69277 0.0
C2168 C 0.82053 0.36027 0.6984 0.0
C2169 C 0.80692 0.36704 0.68968 0.0
C2170 C 0.80982 0.37662 0.67469 0.0
H2171 H 0.8336 0.43416 0.65898 0.0
H2172 H 0.81844 0.41855 0.67027 0.0
H2173 H 0.84146 0.41903 0.67385 0.0
H2174 H 0.85302 0.37611 0.67259 0.0
H2175 H 0.84815 0.35965 0.69945 0.0
H2176 H 0.42497 0.02318 0.35265 0.0
H2177 H 0.43791 0.01569 0.38142 0.0
H2178 H 0.48865 0.04792 0.37308 0.0
H2179 H 0.47582 0.05521 0.34378 0.0
H2180 H 0.4846 1.00738 0.38462 0.0
H2181 H 0.45628 0.06082 0.42752 0.0
H2182 H 0.44253 0.04461 0.40845 0.0
H2183 H 0.46016 0.06274 0.40378 0.0
C2184 C 0.43885 0.02893 0.35706 0.0
C2185 C 0.44943 0.04023 0.3464 0.0
C2186 C 0.44618 0.0244 0.37329 0.0
C2187 C 0.46406 0.03136 0.37912 0.0
C2188 C 0.47476 0.04245 0.36849 0.0
H2189 H 0.54063 0.05277 0.46848 0.0
H2190 H 0.52089 0.04876 0.43959 0.0
C2191 C 0.46746 0.04679 0.35203 0.0
C2192 C 0.47138 0.02827 0.39707 0.0
H2193 H 0.47563 0.04597 0.44321 0.0
C2194 C 0.48251 0.01555 0.3975 0.0
C2195 C 0.46821 0.03886 0.41363 0.0
C2196 C 0.45619 0.0526 0.41349 0.0
C2197 C 0.49143 0.01391 0.41435 0.0
C2198 C 0.48912 0.02542 0.4307 0.0
C2199 C 0.4772 0.03726 0.43041 0.0
C2200 C 0.5007 0.02733 0.44775 0.0
C2201 C 0.50381 1.00058 0.41464 0.0
C2202 C 0.49543 0.01673 0.46157 0.0
C2203 C 0.50657 0.01901 0.47794 0.0
C2204 C 0.52295 0.03194 0.48049 0.0
C2205 C 0.52808 0.04268 0.46666 0.0
C2206 C 0.51692 0.04039 0.45029 0.0
H2207 H 0.50266 0.9911 0.40107 0.0
H2208 H 0.51754 0.00903 0.41801 0.0
H2209 H 0.50112 0.99169 0.42569 0.0
H2210 H 0.48281 1.00673 0.45965 0.0
H2211 H 0.50241 0.01054 0.4885 0.0
H2212 H 0.79716 0.69413 0.07124 0.0
H2213 H 0.79862 0.7083 0.10395 0.0
H2214 H 0.78103 0.75638 0.08713 0.0
H2215 H 0.77981 0.74241 0.05421 0.0
H2216 H 0.81732 0.7525 0.12248 0.0
H2217 H 0.74547 0.72582 0.12353 0.0
H2218 H 0.75773 0.71368 0.10792 0.0
H2219 H 0.75316 0.73596 0.10376 0.0
C2220 C 0.79371 0.7078 0.07447 0.0
C2221 C 0.78823 0.71709 0.06012 0.0
C2222 C 0.7946 0.71588 0.09318 0.0
C2223 C 0.78981 0.73331 0.09796 0.0
C2224 C 0.78474 0.74289 0.08371 0.0
H2225 H 0.77062 0.78719 0.2077 0.0
H2226 H 0.77002 0.77716 0.17395 0.0
C2227 C 0.78408 0.73491 0.06493 0.0
C2228 C 0.78944 0.74099 0.11785 0.0
H2229 H 0.76186 0.74277 0.15152 0.0
C2230 C 0.8052 0.7505 0.12883 0.0
C2231 C 0.77363 0.73833 0.12609 0.0
C2232 C 0.75646 0.72785 0.11484 0.0
C2233 C 0.80556 0.7575 0.14787 0.0
C2234 C 0.78975 0.75449 0.15628 0.0
C2235 C 0.77395 0.74516 0.14516 0.0
C2236 C 0.78949 0.76018 0.17671 0.0
C2237 C 0.82288 0.76825 0.15869 0.0
C2238 C 0.8001 0.75349 0.18952 0.0
C2239 C 0.80059 0.75934 0.20862 0.0
C2240 C 0.7902 0.77175 0.21555 0.0
C2241 C 0.77884 0.77771 0.20281 0.0
C2242 C 0.77854 0.77201 0.18354 0.0
H2243 H 0.83211 0.77465 0.14939 0.0
H2244 H 0.82107 0.77976 0.16954 0.0
H2245 H 0.82911 0.75824 0.1656 0.0
H2246 H 0.80813 0.74376 0.18474 0.0
H2247 H 0.8092 0.75408 0.21801 0.0
H2248 H 0.1584 0.03205 0.71324 0.0
H2249 H 0.14359 0.03374 0.68278 0.0
H2250 H 0.09541 1.00098 0.69658 0.0
H2251 H 0.11007 1.00018 0.72748 0.0
H2252 H 0.13017 0.01289 0.65272 0.0
H2253 H 0.07254 0.03742 0.67667 0.0
H2254 H 0.09068 0.03592 0.69286 0.0
H2255 H 0.07385 0.01494 0.68333 0.0
C2256 C 0.14459 0.02527 0.70995 0.0
C2257 C 0.13565 0.0161 0.72339 0.0
C2258 C 0.13598 0.02621 0.69221 0.0
C2259 C 0.11789 0.01795 0.68673 0.0
C2260 C 0.10905 0.00831 0.70003 0.0
H2261 H 0.06267 0.99666 0.56936 0.0
H2262 H 0.0758 0.99352 0.60036 0.0
C2263 C 0.11762 1.00762 0.71793 0.0
C2264 C 0.10877 0.01921 0.66723 0.0
H2265 H 0.07168 0.02839 0.64406 0.0
C2266 C 0.11737 0.0163 0.6511 0.0
C2267 C 0.09195 0.02383 0.66419 0.0
C2268 C 0.08179 0.0284 0.68018 0.0
C2269 C 0.10989 0.01757 0.63285 0.0
C2270 C 0.09307 0.02187 0.62988 0.0
C2271 C 0.08446 0.02492 0.64587 0.0
C2272 C 0.08462 0.02373 0.61049 0.0
C2273 C 0.12023 0.01468 0.61666 0.0
C2274 C 0.08477 0.04172 0.60515 0.0
C2275 C 0.07714 0.04356 0.58726 0.0
C2276 C 0.06896 0.02751 0.57368 0.0
C2277 C 0.0688 0.00949 0.57905 0.0
C2278 C 0.07639 1.00766 0.597 0.0
H2279 H 0.13326 0.01185 0.62096 0.0
H2280 H 0.11271 1.00251 0.60617 0.0
H2281 H 0.12221 0.02754 0.60981 0.0
H2282 H 0.09098 0.05451 0.61486 0.0
H2283 H 0.07785 0.05775 0.584 0.0
H2284 H 0.8177 0.41751 0.45263 0.0
H2285 H 0.82542 0.4026 0.42334 0.0
H2286 H 0.78719 0.35116 0.42577 0.0
H2287 H 0.77972 0.3659 0.45553 0.0
H2288 H 0.82358 0.34786 0.41767 0.0
H2289 H 0.79181 0.39065 0.37302 0.0
H2290 H 0.80586 0.40263 0.39392 0.0
H2291 H 0.78517 0.38725 0.3956 0.0
C2292 C 0.81076 0.4031 0.44675 0.0
C2293 C 0.79786 0.39285 0.45598 0.0
C2294 C 0.81527 0.39463 0.43015 0.0
C2295 C 0.80671 0.37596 0.42247 0.0
C2296 C 0.79387 0.36564 0.43166 0.0
H2297 H 0.78295 0.29524 0.32845 0.0
H2298 H 0.78769 0.31668 0.35831 0.0
C2299 C 0.78955 0.37402 0.44848 0.0
C2300 C 0.81093 0.36713 0.40466 0.0
H2301 H 0.8025 0.36542 0.35788 0.0
C2302 C 0.81928 0.35186 0.40458 0.0
C2303 C 0.80547 0.37272 0.38777 0.0
C2304 C 0.79652 0.38917 0.3874 0.0
C2305 C 0.82141 0.34124 0.38779 0.0
C2306 C 0.81487 0.34601 0.37094 0.0
C2307 C 0.8075 0.36198 0.37098 0.0
C2308 C 0.81292 0.33279 0.35348 0.0
C2309 C 0.82977 0.32438 0.388 0.0
C2310 C 0.8257 0.33489 0.34123 0.0
C2311 C 0.82301 0.32267 0.32421 0.0
C2312 C 0.80764 0.30827 0.31955 0.0
C2313 C 0.79511 0.30595 0.33208 0.0
C2314 C 0.79771 0.31824 0.34895 0.0
H2315 H 0.83579 0.3237 0.40215 0.0
H2316 H 0.81967 0.31104 0.38297 0.0
H2317 H 0.84002 0.32506 0.37838 0.0
H2318 H 0.83751 0.34611 0.34469 0.0
H2319 H 0.83275 0.32462 0.31463 0.0
H2320 H 0.46181 0.04851 0.24456 0.0
H2321 H 0.46864 0.0392 0.21291 0.0
H2322 H 0.4229 0.99268 0.20327 0.0
H2323 H 0.41569 1.00224 0.23442 0.0
H2324 H 0.47483 1.00466 0.19647 0.0
H2325 H 0.41563 0.02124 0.16032 0.0
H2326 H 0.4225 0.02905 0.18488 0.0
H2327 H 0.4114 1.00473 0.17637 0.0
C2328 C 0.45322 0.03641 0.23558 0.0
C2329 C 0.43813 0.02626 0.24166 0.0
C2330 C 0.45713 0.03106 0.21765 0.0
C2331 C 0.44607 0.01544 0.20584 0.0
C2332 C 0.43129 1.00502 0.21211 0.0
H2333 H 0.47508 0.987 0.09247 0.0
H2334 H 0.46017 0.97991 0.11989 0.0
C2335 C 0.42723 0.01051 0.22986 0.0
C2336 C 0.44995 0.01028 0.18683 0.0
H2337 H 0.4356 0.01062 0.14157 0.0
C2338 C 0.46612 1.00555 0.1844 0.0
C2339 C 0.43841 0.01144 0.17125 0.0
C2340 C 0.42107 0.01703 0.17325 0.0
C2341 C 0.47159 1.00309 0.16673 0.0
C2342 C 0.46049 1.0053 0.15134 0.0
C2343 C 0.44382 0.00867 0.15355 0.0
C2344 C 0.46768 0.00903 0.13417 0.0
C2345 C 0.48976 0.99975 0.16476 0.0
C2346 C 0.47619 0.02773 0.1333 0.0
C2347 C 0.48441 0.03179 0.11787 0.0
C2348 C 0.48428 0.01715 0.10314 0.0
C2349 C 0.47522 0.99845 0.10372 0.0
C2350 C 0.46681 0.9944 0.11925 0.0
H2351 H 0.49536 0.99488 0.17723 0.0
H2352 H 0.4895 0.98902 0.15227 0.0
H2353 H 0.49858 0.01327 0.16292 0.0
H2354 H 0.47696 0.03908 0.14488 0.0
H2355 H 0.49166 0.04621 0.11789 0.0
H2356 H 0.77193 0.73405 0.96159 0.0
H2357 H 0.77227 0.7449 0.93124 0.0
H2358 H 0.80075 0.70259 0.91218 0.0
H2359 H 0.79988 0.69132 0.94215 0.0
H2360 H 0.79774 0.75987 0.91239 0.0
H2361 H 0.76229 0.69115 0.87012 0.0
H2362 H 0.76401 0.69524 0.8952 0.0
H2363 H 0.78192 0.68924 0.88353 0.0
C2364 C 0.77822 0.72703 0.95091 0.0
C2365 C 0.78568 0.71163 0.95429 0.0
C2366 C 0.77841 0.73324 0.93351 0.0
C2367 C 0.78611 0.72428 0.91905 0.0
C2368 C 0.79414 0.70937 0.9227 0.0
H2369 H 0.79938 0.74575 0.80395 0.0
H2370 H 0.80036 0.73278 0.83343 0.0
C2371 C 0.79378 0.70302 0.93999 0.0
C2372 C 0.78605 0.73074 0.90036 0.0
H2373 H 0.77488 0.71533 0.85342 0.0
C2374 C 0.79267 0.75008 0.89955 0.0
C2375 C 0.77954 0.71808 0.88339 0.0
C2376 C 0.77138 0.69732 0.88306 0.0
C2377 C 0.79314 0.75703 0.88247 0.0
C2378 C 0.78651 0.74441 0.86554 0.0
C2379 C 0.78006 0.72504 0.86629 0.0
C2380 C 0.78533 0.75133 0.84714 0.0
C2381 C 0.80104 0.77788 0.8828 0.0
C2382 C 0.77606 0.76552 0.84465 0.0
C2383 C 0.7756 0.77293 0.82801 0.0
C2384 C 0.78417 0.76622 0.81315 0.0
C2385 C 0.79278 0.75135 0.81518 0.0
C2386 C 0.79333 0.74395 0.83203 0.0
H2387 H 0.81047 0.784 0.8955 0.0
H2388 H 0.80795 0.78017 0.87039 0.0
H2389 H 0.7904 0.78585 0.8829 0.0
H2390 H 0.76925 0.77106 0.85571 0.0
H2391 H 0.7686 0.78417 0.82689 0.0
H2392 H 0.81296 0.10427 1.00076 0.0
H2393 H 0.83976 0.09333 0.99409 0.0
H2394 H 0.8688 0.13225 0.042 0.0
H2395 H 0.84225 0.14341 0.04858 0.0
H2396 H 0.88055 0.12973 0.99901 0.0
H2397 H 0.86892 0.06601 0.03471 0.0
H2398 H 0.85101 0.07277 0.02203 0.0
H2399 H 0.86147 0.08701 0.04366 0.0
C2400 C 0.82503 0.11017 0.01001 0.0
C2401 C 0.82574 0.12454 0.0252 0.0
C2402 C 0.84023 0.1041 0.00609 0.0
C2403 C 0.85604 0.11222 0.01751 0.0
C2404 C 0.85662 0.12609 0.03301 0.0
H2405 H 0.95394 0.08313 0.03703 0.0
H2406 H 0.9292 0.09856 0.0381 0.0
C2407 C 0.84153 0.13231 0.0368 0.0
C2408 C 0.87215 0.10626 0.01354 0.0
H2409 H 0.89635 0.07461 0.02382 0.0
C2410 C 0.88406 0.11758 1.0042 0.0
C2411 C 0.87641 0.09052 0.02054 0.0
C2412 C 0.86385 0.07827 0.03081 0.0
C2413 C 0.9006 0.11372 1.00205 0.0
C2414 C 0.90503 0.09818 0.00942 0.0
C2415 C 0.89287 0.08663 0.01836 0.0
C2416 C 0.9222 0.09337 0.00824 0.0
C2417 C 0.91336 0.12652 0.99246 0.0
C2418 C 0.92676 0.08618 0.99101 0.0
C2419 C 0.94103 0.07754 0.99032 0.0
C2420 C 0.95067 0.07577 0.00689 0.0
C2421 C 0.94682 0.08432 0.02403 0.0
C2422 C 0.93266 0.09307 0.02468 0.0
H2423 H 0.90933 0.1401 0.99114 0.0
H2424 H 0.92677 0.12983 1.00015 0.0
H2425 H 0.91396 0.11911 0.97826 0.0
H2426 H 0.91867 0.08615 0.9782 0.0
H2427 H 0.94398 0.07144 0.9769 0.0
H2428 H 0.36078 0.44711 0.06102 0.0
H2429 H 0.39096 0.46319 0.05744 0.0
H2430 H 0.38981 0.42321 0.00771 0.0
H2431 H 0.35991 0.40681 0.01147 0.0
H2432 H 0.4226 0.44009 0.05033 0.0
H2433 H 0.40504 0.48329 0.99741 0.0
H2434 H 0.39037 0.47612 0.01418 0.0
H2435 H 0.39345 0.45878 0.99553 0.0
C2436 C 0.36695 0.44175 0.04933 0.0
C2437 C 0.35788 0.4256 0.0366 0.0
C2438 C 0.38423 0.45095 0.04729 0.0
C2439 C 0.39273 0.44451 0.03225 0.0
C2440 C 0.38362 0.42851 0.01942 0.0
H2441 H 0.49586 0.49558 0.99769 0.0
H2442 H 0.46604 0.47621 0.99781 0.0
C2443 C 0.3665 0.4191 0.02164 0.0
C2444 C 0.41119 0.45424 0.03014 0.0
H2445 H 0.43518 0.48675 0.00711 0.0
C2446 C 0.42533 0.4503 0.0409 0.0
C2447 C 0.4149 0.46726 0.01753 0.0
C2448 C 0.40022 0.47177 0.00545 0.0
C2449 C 0.44294 0.45919 0.03961 0.0
C2450 C 0.44667 0.47291 0.02761 0.0
C2451 C 0.4325 0.47643 0.01644 0.0
C2452 C 0.46504 0.48437 0.02729 0.0
C2453 C 0.45744 0.45351 0.05092 0.0
C2454 C 0.47457 0.4956 0.04369 0.0
C2455 C 0.49155 0.50663 0.04364 0.0
C2456 C 0.49961 0.50691 0.02716 0.0
C2457 C 0.49016 0.49562 0.01068 0.0
C2458 C 0.47303 0.4846 0.01073 0.0
H2459 H 0.45304 0.43903 0.05446 0.0
H2460 H 0.46915 0.45373 0.04333 0.0
H2461 H 0.4614 0.46368 0.06415 0.0
H2462 H 0.46874 0.49612 0.05661 0.0
H2463 H 0.49832 0.5152 0.05657 0.0
H2464 H 0.37166 0.59772 0.75993 0.0
H2465 H 0.35839 0.62567 0.76092 0.0
H2466 H 0.40972 0.66263 0.7752 0.0
H2467 H 0.42293 0.63478 0.77386 0.0
H2468 H 0.35369 0.6541 0.78434 0.0
H2469 H 0.39539 0.69212 0.7383 0.0
H2470 H 0.39602 0.66808 0.74127 0.0
H2471 H 0.40796 0.68796 0.75835 0.0
C2472 C 0.38028 0.61175 0.76316 0.0
C2473 C 0.39871 0.61329 0.76661 0.0
C2474 C 0.37253 0.6281 0.76379 0.0
C2475 C 0.38263 0.64721 0.76768 0.0
C2476 C 0.40106 0.64868 0.77144 0.0
H2477 H 0.356 0.76495 0.77376 0.0
H2478 H 0.37071 0.73806 0.77413 0.0
C2479 C 0.40879 0.63235 0.77086 0.0
C2480 C 0.37396 0.6651 0.76819 0.0
H2481 H 0.37677 0.70919 0.75377 0.0
C2482 C 0.35886 0.66596 0.77744 0.0
C2483 C 0.38018 0.68148 0.75966 0.0
C2484 C 0.39566 0.68237 0.74869 0.0
C2485 C 0.35043 0.6819 0.77867 0.0
C2486 C 0.35638 0.6981 0.76977 0.0
C2487 C 0.3716 0.69733 0.76067 0.0
C2488 C 0.3471 0.7155 0.76961 0.0
C2489 C 0.33552 0.68132 0.79045 0.0
C2490 C 0.32853 0.71308 0.76661 0.0
C2491 C 0.32 0.72871 0.76662 0.0
C2492 C 0.3293 0.74808 0.76925 0.0
C2493 C 0.34791 0.75065 0.7718 0.0
C2494 C 0.3565 0.7349 0.77195 0.0
H2495 H 0.33677 0.67245 0.80149 0.0
H2496 H 0.33498 0.69579 0.79724 0.0
H2497 H 0.32293 0.67477 0.78154 0.0
H2498 H 0.32032 0.69886 0.76386 0.0
H2499 H 0.30579 0.72541 0.76427 0.0
H2500 H 0.22749 0.61291 0.54836 0.0
H2501 H 0.19516 0.60315 0.54224 0.0
H2502 H 0.1971 0.62017 0.48807 0.0
H2503 H 0.22904 0.63006 0.49416 0.0
H2504 H 0.17476 0.63316 0.53041 0.0
H2505 H 0.16369 0.56447 0.48157 0.0
H2506 H 0.18303 0.57301 0.49841 0.0
H2507 H 0.18088 0.58385 0.478 0.0
C2508 C 0.22092 0.61398 0.53501 0.0
C2509 C 0.23043 0.62207 0.52166 0.0
C2510 C 0.20263 0.6086 0.5316 0.0
C2511 C 0.19406 0.61098 0.51471 0.0
C2512 C 0.20367 0.61816 0.50107 0.0
H2513 H 0.0822 0.57991 0.47608 0.0
H2514 H 0.11324 0.59515 0.47634 0.0
C2515 C 0.22179 0.62376 0.50456 0.0
C2516 C 0.17497 0.60752 0.51172 0.0
H2517 H 0.13893 0.577 0.48715 0.0
C2518 C 0.16684 0.62091 0.52098 0.0
C2519 C 0.16502 0.59186 0.49896 0.0
C2520 C 0.17351 0.57736 0.48867 0.0
C2521 C 0.14864 0.61865 0.51817 0.0
C2522 C 0.13857 0.60244 0.50609 0.0
C2523 C 0.14682 0.58951 0.49625 0.0
C2524 C 0.11957 0.59667 0.50603 0.0
C2525 C 0.14033 0.63338 0.52837 0.0
C2526 C 0.11314 0.59264 0.52261 0.0
C2527 C 0.09569 0.58391 0.52248 0.0
C2528 C 0.0844 0.57888 0.50569 0.0
C2529 C 0.0907 0.58346 0.48913 0.0
C2530 C 0.10829 0.5923 0.48929 0.0
H2531 H 0.14945 0.64764 0.53115 0.0
H2532 H 0.12795 0.63443 0.52037 0.0
H2533 H 0.13726 0.62934 0.54201 0.0
H2534 H 0.12182 0.59535 0.53554 0.0
H2535 H 0.09126 0.58054 0.5355 0.0
H2536 H 0.67951 1.0032 0.78826 0.0
H2537 H 0.69408 0.97893 0.79778 0.0
H2538 H 0.71255 0.97095 0.74379 0.0
H2539 H 0.69872 0.99624 0.73465 0.0
H2540 H 0.68615 0.94254 0.78174 0.0
H2541 H 0.75636 0.97462 0.77861 0.0
H2542 H 0.73959 0.98828 0.77813 0.0
H2543 H 0.74277 0.9736 0.7573 0.0
C2544 C 0.68678 0.99624 0.77854 0.0
C2545 C 0.68803 1.00105 0.76077 0.0
C2546 C 0.69512 0.98259 0.78398 0.0
C2547 C 0.70445 0.97346 0.77153 0.0
C2548 C 0.70572 0.9783 0.75368 0.0
H2549 H 0.74109 0.87608 0.7528 0.0
H2550 H 0.72403 0.90045 0.75443 0.0
C2551 C 0.69773 0.99243 0.7484 0.0
C2552 C 0.71164 0.95779 0.77681 0.0
H2553 H 0.74889 0.94097 0.77943 0.0
C2554 C 0.69993 0.94229 0.78159 0.0
C2555 C 0.72962 0.95781 0.77673 0.0
C2556 C 0.74283 0.97457 0.7726 0.0
C2557 C 0.70566 0.92618 0.78536 0.0
C2558 C 0.72337 0.92581 0.7842 0.0
C2559 C 0.73526 0.9416 0.7803 0.0
C2560 C 0.7295 0.90836 0.78434 0.0
C2561 C 0.69278 0.90934 0.78973 0.0
C2562 C 0.73751 0.9046 0.80081 0.0
C2563 C 0.74716 0.89053 0.79999 0.0
C2564 C 0.74894 0.88044 0.78266 0.0
C2565 C 0.73979 0.88348 0.76636 0.0
C2566 C 0.73007 0.89737 0.76723 0.0
H2567 H 0.67971 0.91254 0.79154 0.0
H2568 H 0.69113 0.89714 0.77825 0.0
H2569 H 0.69799 0.90491 0.80263 0.0
H2570 H 0.73713 0.91322 0.81405 0.0
H2571 H 0.75386 0.88814 0.81274 0.0
H2572 H 0.74466 0.89161 0.51377 0.0
H2573 H 0.71779 0.90335 0.50877 0.0
H2574 H 0.74167 0.95489 0.54703 0.0
H2575 H 0.76885 0.94361 0.55124 0.0
H2576 H 0.69443 0.9116 0.52913 0.0
H2577 H 0.72466 0.97839 0.50575 0.0
H2578 H 0.73663 0.96016 0.50865 0.0
H2579 H 0.73506 0.97752 0.5283 0.0
C2580 C 0.74423 0.90553 0.521 0.0
C2581 C 0.75901 0.91678 0.53276 0.0
C2582 C 0.7288 0.91224 0.51815 0.0
C2583 C 0.72766 0.93029 0.52712 0.0
C2584 C 0.74228 0.94125 0.53933 0.0
H2585 H 0.64938 0.99268 0.55151 0.0
H2586 H 0.67373 0.9766 0.54986 0.0
C2587 C 0.75783 0.93472 0.54189 0.0
C2588 C 0.71116 0.9375 0.52409 0.0
H2589 H 0.6962 0.97709 0.5163 0.0
C2590 C 0.69486 0.92583 0.52606 0.0
C2591 C 0.7114 0.95594 0.51965 0.0
C2592 C 0.72786 0.9686 0.51525 0.0
C2593 C 0.67916 0.93247 0.52476 0.0
C2594 C 0.67974 0.95134 0.52168 0.0
C2595 C 0.69581 0.96272 0.51896 0.0
C2596 C 0.66414 0.96007 0.52262 0.0
C2597 C 0.6621 0.91954 0.52725 0.0
C2598 C 0.65052 0.95613 0.50782 0.0
C2599 C 0.63644 0.96538 0.5087 0.0
C2600 C 0.63564 0.97866 0.52448 0.0
C2601 C 0.64928 0.98233 0.53929 0.0
C2602 C 0.66333 0.97322 0.53833 0.0
H2603 H 0.66389 0.90548 0.53029 0.0
H2604 H 0.65603 0.92639 0.53877 0.0
H2605 H 0.65278 0.91722 0.51437 0.0
H2606 H 0.65091 0.94611 0.49549 0.0
H2607 H 0.62618 0.96211 0.49706 0.0
H2608 H 0.40432 0.50412 0.79436 0.0
H2609 H 0.38972 0.47112 0.7958 0.0
H2610 H 0.36539 0.46511 0.73954 0.0
H2611 H 0.3804 0.49795 0.73794 0.0
H2612 H 0.35901 0.45037 0.79565 0.0
H2613 H 0.38052 0.41693 0.73209 0.0
H2614 H 0.38901 0.44171 0.74157 0.0
H2615 H 0.36838 0.43418 0.72669 0.0
C2616 C 0.39593 0.49583 0.78216 0.0
C2617 C 0.39386 0.50425 0.76596 0.0
C2618 C 0.38742 0.47664 0.78302 0.0
C2619 C 0.3764 0.46461 0.76768 0.0
C2620 C 0.37408 0.47319 0.75159 0.0
H2621 H 0.30582 0.34887 0.74409 0.0
H2622 H 0.32299 0.3812 0.74455 0.0
C2623 C 0.38264 0.49238 0.75071 0.0
C2624 C 0.36727 0.44358 0.76867 0.0
H2625 H 0.35718 0.39751 0.7443 0.0
C2626 C 0.35883 0.43893 0.78436 0.0
C2627 C 0.36683 0.42782 0.75437 0.0
C2628 C 0.37683 0.43034 0.73785 0.0
C2629 C 0.34972 0.41996 0.78576 0.0
C2630 C 0.34874 0.4044 0.77112 0.0
C2631 C 0.35744 0.40897 0.75561 0.0
C2632 C 0.33835 0.38367 0.77117 0.0
C2633 C 0.3407 0.41693 0.80284 0.0
C2634 C 0.34096 0.37307 0.78573 0.0
C2635 C 0.33107 0.35404 0.78537 0.0
C2636 C 0.31797 0.34468 0.77048 0.0
C2637 C 0.31561 0.35521 0.7559 0.0
C2638 C 0.32558 0.37401 0.75615 0.0
H2639 H 0.33873 0.4305 0.81048 0.0
H2640 H 0.32774 0.40681 0.79912 0.0
H2641 H 0.34897 0.41084 0.81239 0.0
H2642 H 0.35082 0.37943 0.79745 0.0
H2643 H 0.33352 0.34677 0.79695 0.0
H2644 H 0.19345 0.60159 0.29506 0.0
H2645 H 0.20499 0.6353 0.30724 0.0
H2646 H 0.19539 0.64866 0.25197 0.0
H2647 H 0.18235 0.61492 0.24021 0.0
H2648 H 0.23392 0.64952 0.29474 0.0
H2649 H 0.18703 0.69507 0.28291 0.0
H2650 H 0.17989 0.6697 0.28243 0.0
H2651 H 0.18725 0.67889 0.26211 0.0
C2652 C 0.19329 0.61192 0.28578 0.0
C2653 C 0.18745 0.60614 0.26683 0.0
C2654 C 0.19968 0.63105 0.2927 0.0
C2655 C 0.2009 0.64435 0.28051 0.0
C2656 C 0.1941 0.63861 0.26166 0.0
H2657 H 0.26785 0.74224 0.2617 0.0
H2658 H 0.24993 0.71055 0.26158 0.0
C2659 C 0.18707 0.61945 0.25487 0.0
C2660 C 0.21293 0.66286 0.28635 0.0
H2661 H 0.2181 0.70975 0.28312 0.0
C2662 C 0.23035 0.6628 0.29272 0.0
C2663 C 0.20818 0.67998 0.2835 0.0
C2664 C 0.1895 0.68091 0.27754 0.0
C2665 C 0.24346 0.67936 0.29527 0.0
C2666 C 0.23886 0.69613 0.29131 0.0
C2667 C 0.22136 0.69654 0.2859 0.0
C2668 C 0.25217 0.71328 0.29161 0.0
C2669 C 0.26224 0.67869 0.30113 0.0
C2670 C 0.25985 0.72446 0.30859 0.0
C2671 C 0.27017 0.74244 0.30875 0.0
C2672 C 0.27256 0.74928 0.29191 0.0
C2673 C 0.26611 0.7373 0.27488 0.0
C2674 C 0.25582 0.71932 0.27475 0.0
H2675 H 0.26376 0.66399 0.30205 0.0
H2676 H 0.27089 0.68459 0.2911 0.0
H2677 H 0.26681 0.68767 0.31497 0.0
H2678 H 0.25707 0.7197 0.32165 0.0
H2679 H 0.2754 0.75134 0.32201 0.0
H2680 H 0.49487 0.70651 0.43055 0.0
H2681 H 0.50068 0.68095 0.44714 0.0
H2682 H 0.54914 0.71786 0.47476 0.0
H2683 H 0.54277 0.74365 0.4592 0.0
H2684 H 0.52411 0.66171 0.44628 0.0
H2685 H 0.53283 0.699 0.519 0.0
H2686 H 0.52492 0.7093 0.49983 0.0
H2687 H 0.54814 0.71107 0.50546 0.0
C2688 C 0.50663 0.70922 0.44037 0.0
C2689 C 0.51824 0.7272 0.44366 0.0
C2690 C 0.51 0.69457 0.44986 0.0
C2691 C 0.5252 0.69739 0.46268 0.0
C2692 C 0.53697 0.7153 0.46563 0.0
H2693 H 0.57075 0.6153 0.51821 0.0
H2694 H 0.56648 0.64352 0.50499 0.0
C2695 C 0.53339 0.73007 0.45651 0.0
C2696 C 0.52909 0.68135 0.47213 0.0
H2697 H 0.54133 0.66924 0.5143 0.0
C2698 C 0.52771 0.66344 0.46119 0.0
C2699 C 0.53403 0.68337 0.49164 0.0
C2700 C 0.5349 0.70167 0.50467 0.0
C2701 C 0.53101 0.64772 0.46905 0.0
C2702 C 0.53588 0.64978 0.48845 0.0
C2703 C 0.53763 0.66767 0.49942 0.0
C2704 C 0.53845 0.63322 0.49755 0.0
C2705 C 0.52936 0.62896 0.45649 0.0
C2706 C 0.52409 0.61822 0.49819 0.0
C2707 C 0.52644 0.60216 0.50584 0.0
C2708 C 0.54327 0.60065 0.51303 0.0
C2709 C 0.55761 0.61595 0.51284 0.0
C2710 C 0.5552 0.6321 0.50526 0.0
H2711 H 0.52907 0.63061 0.44159 0.0
H2712 H 0.54043 0.62231 0.46027 0.0
H2713 H 0.51697 0.61908 0.45824 0.0
H2714 H 0.51101 0.61883 0.49254 0.0
H2715 H 0.51508 0.59073 0.50572 0.0
H2716 H 0.61629 0.28224 0.65733 0.0
H2717 H 0.64221 0.28182 0.67843 0.0
H2718 H 0.65543 0.34329 0.68826 0.0
H2719 H 0.62864 0.34359 0.66838 0.0
H2720 H 0.67515 0.29184 0.6792 0.0
H2721 H 0.65993 0.33684 0.74032 0.0
H2722 H 0.64445 0.3284 0.71967 0.0
H2723 H 0.66191 0.34925 0.72087 0.0
C2724 C 0.62469 0.29566 0.66413 0.0
C2725 C 0.62032 0.31295 0.66139 0.0
C2726 C 0.63958 0.29543 0.67621 0.0
C2727 C 0.65078 0.31251 0.68556 0.0
C2728 C 0.64677 0.32984 0.68206 0.0
H2729 H 0.74624 0.34346 0.76421 0.0
H2730 H 0.72146 0.34191 0.74084 0.0
C2731 C 0.63152 0.33005 0.67048 0.0
C2732 C 0.66661 0.31209 0.69872 0.0
H2733 H 0.68852 0.3307 0.74215 0.0
C2734 C 0.67799 0.3003 0.693 0.0
C2735 C 0.67047 0.32293 0.71691 0.0
C2736 C 0.65844 0.33489 0.72487 0.0
C2737 C 0.69319 0.2995 0.70454 0.0
C2738 C 0.69725 0.31069 0.72256 0.0
C2739 C 0.68573 0.32225 0.72834 0.0
C2740 C 0.7134 0.31112 0.73564 0.0
C2741 C 0.70493 0.287 0.69696 0.0
C2742 C 0.71763 0.29437 0.74056 0.0
C2743 C 0.73223 0.29527 0.75367 0.0
C2744 C 0.74263 0.31295 0.7626 0.0
C2745 C 0.73849 0.32962 0.75761 0.0
C2746 C 0.72422 0.32872 0.74425 0.0
H2747 H 0.7031 0.28417 0.68149 0.0
H2748 H 0.71899 0.29354 0.70175 0.0
H2749 H 0.70153 0.27307 0.70185 0.0
H2750 H 0.70936 0.28057 0.73473 0.0
H2751 H 0.73489 0.28216 0.7574 0.0
H2752 H 0.01028 0.31216 0.97311 0.0
H2753 H 0.01107 0.34306 0.99203 0.0
H2754 H 0.02878 0.37159 0.94694 0.0
H2755 H 0.02786 0.34089 0.92792 0.0
H2756 H 0.03905 0.37685 1.00268 0.0
H2757 H 0.98276 0.38856 0.95778 0.0
H2758 H 0.98804 0.36549 0.95728 0.0
H2759 H 1.00022 0.38288 0.94527 0.0
C2760 C 0.01445 0.32504 0.96731 0.0
C2761 C 0.01876 0.32416 0.94897 0.0
C2762 C 0.01491 0.34263 0.97811 0.0
C2763 C 0.01963 0.35947 0.97068 0.0
C2764 C 0.02474 0.35866 0.95272 0.0
H2765 H 0.05305 0.47628 0.01338 0.0
H2766 H 0.04939 0.44241 1.00297 0.0
C2767 C 0.02425 0.34114 0.94192 0.0
C2768 C 0.01871 0.37793 0.98134 0.0
H2769 H 0.99939 0.41555 0.97906 0.0
C2770 C 0.03023 0.38524 0.99771 0.0
C2771 C 0.00694 0.38862 0.97495 0.0
C2772 C 0.99366 0.38094 0.95795 0.0
C2773 C 0.03093 0.40351 0.00736 0.0
C2774 C 0.01998 0.41472 1.00025 0.0
C2775 C 0.00781 0.40696 0.98444 0.0
C2776 C 0.02213 0.43509 0.00782 0.0
C2777 C 0.04358 0.41074 0.02491 0.0
C2778 C 0.00781 0.44234 0.01347 0.0
C2779 C 0.00976 0.46193 0.01918 0.0
C2780 C 0.02606 0.47446 0.01931 0.0
C2781 C 0.04035 0.46704 0.01375 0.0
C2782 C 0.03835 0.44761 0.00791 0.0
H2783 H 0.04638 0.3988 0.03175 0.0
H2784 H 0.05621 0.4187 0.02133 0.0
H2785 H 0.03838 0.42046 0.03498 0.0
H2786 H 0.99512 0.43287 0.01327 0.0
H2787 H 0.99852 0.46725 0.02335 0.0
H2788 H 0.03208 0.82261 0.17326 0.0
H2789 H 1.00385 0.81433 0.18574 0.0
H2790 H 0.98749 0.76491 0.14299 0.0
H2791 H 0.0156 0.77315 0.13031 0.0
H2792 H 0.96326 0.79699 0.15316 0.0
H2793 H 0.98661 0.75878 0.2079 0.0
H2794 H 1.00134 0.77933 0.20239 0.0
H2795 H 0.99493 0.75799 0.18556 0.0
C2796 C 0.02249 0.80996 0.16655 0.0
C2797 C 0.02607 0.79854 0.15083 0.0
C2798 C 1.00639 0.80526 0.17367 0.0
C2799 C 0.99365 0.78898 0.16531 0.0
C2800 C 0.99714 0.77755 0.1496 0.0
H2801 H 0.89872 0.74661 0.2175 0.0
H2802 H 0.92362 0.74718 0.19916 0.0
C2803 C 0.01319 0.78231 0.14239 0.0
C2804 C 0.97668 0.78407 0.17302 0.0
H2805 H 0.95826 0.76496 0.20876 0.0
C2806 C 0.96209 0.78986 0.16523 0.0
C2807 C 0.97509 0.77437 0.18845 0.0
C2808 C 0.99024 0.76712 0.19664 0.0
C2809 C 0.94613 0.78695 0.17302 0.0
C2810 C 0.94489 0.77843 0.1893 0.0
C2811 C 0.95924 0.77171 0.19646 0.0
C2812 C 0.92937 0.77771 0.19984 0.0
C2813 C 0.93077 0.79309 0.16375 0.0
C2814 C 0.92443 0.79465 0.20654 0.0
C2815 C 0.91027 0.79436 0.21695 0.0
C2816 C 0.90073 0.77713 0.22111 0.0
C2817 C 0.90578 0.76013 0.21457 0.0
C2818 C 0.91998 0.76043 0.20404 0.0
H2819 H 0.93174 0.79313 0.14867 0.0
H2820 H 0.91809 0.78362 0.16534 0.0
H2821 H 0.93074 0.80782 0.17023 0.0
H2822 H 0.93178 0.80823 0.20404 0.0
H2823 H 0.90708 0.80777 0.22215 0.0
H2824 H 0.53751 0.29245 0.11938 0.0
H2825 H 0.55101 0.31998 0.1059 0.0
H2826 H 0.50907 0.34741 0.12035 0.0
H2827 H 0.49587 0.32019 0.13459 0.0
H2828 H 0.53829 0.33318 0.07751 0.0
H2829 H 0.55097 0.3899 0.13908 0.0
H2830 H 0.54492 0.36495 0.14095 0.0
H2831 H 0.5283 0.37768 0.13516 0.0
C2832 C 0.53119 0.30438 0.1197 0.0
C2833 C 0.51565 0.30426 0.12794 0.0
C2834 C 0.53897 0.32011 0.11211 0.0
C2835 C 0.53125 0.33586 0.11252 0.0
C2836 C 0.51553 0.33563 0.12045 0.0
H2837 H 0.52697 0.42434 0.05362 0.0
H2838 H 0.52471 0.3996 0.07316 0.0
C2839 C 0.50788 0.32 0.12832 0.0
C2840 C 0.5389 0.35188 0.10333 0.0
H2841 H 0.55025 0.40035 0.10901 0.0
C2842 C 0.54131 0.34785 0.08451 0.0
C2843 C 0.54294 0.37096 0.11258 0.0
C2844 C 0.54182 0.3761 0.13311 0.0
C2845 C 0.54663 0.3625 0.07435 0.0
C2846 C 0.54952 0.38153 0.0833 0.0
C2847 C 0.54797 0.38562 0.10231 0.0
C2848 C 0.5517 0.3972 0.07255 0.0
C2849 C 0.54817 0.35766 0.05388 0.0
C2850 C 0.5677 0.40391 0.06592 0.0
C2851 C 0.56908 0.41815 0.0548 0.0
C2852 C 0.55446 0.42574 0.05031 0.0
C2853 C 0.53852 0.41898 0.05715 0.0
C2854 C 0.53719 0.40486 0.06824 0.0
H2855 H 0.54513 0.34204 0.04896 0.0
H2856 H 0.53907 0.36408 0.04564 0.0
H2857 H 0.56172 0.36377 0.05112 0.0
H2858 H 0.57899 0.39802 0.06921 0.0
H2859 H 0.58153 0.42325 0.04979 0.0
H2860 H 0.0305 0.33265 0.38775 0.0
H2861 H 1.00314 0.33296 0.36882 0.0
H2862 H 0.01557 0.29391 0.32455 0.0
H2863 H 0.04294 0.29362 0.34321 0.0
H2864 H 0.00801 0.33961 0.32366 0.0
H2865 H 0.95953 0.2785 0.3409 0.0
H2866 H 0.97683 0.29278 0.35823 0.0
H2867 H 0.98213 0.27706 0.33952 0.0
C2868 C 0.02714 0.3238 0.37416 0.0
C2869 C 0.03869 0.31316 0.36679 0.0
C2870 C 0.01165 0.32406 0.36342 0.0
C2871 C 0.00762 0.31348 0.34546 0.0
C2872 C 0.01866 0.30211 0.33846 0.0
H2873 H 0.91403 0.29643 0.26829 0.0
H2874 H 0.943 0.29399 0.28209 0.0
C2875 C 0.03419 0.30197 0.34908 0.0
C2876 C 0.99263 0.31549 0.33328 0.0
H2877 H 0.94958 0.29568 0.31878 0.0
C2878 C 0.99518 0.33006 0.32248 0.0
C2879 C 0.97624 0.30274 0.33182 0.0
C2880 C 0.97335 0.28683 0.3432 0.0
C2881 C 0.98144 0.33232 0.31011 0.0
C2882 C 0.96481 0.31985 0.30895 0.0
C2883 C 0.96242 0.30511 0.31964 0.0
C2884 C 0.9493 0.32257 0.29784 0.0
C2885 C 0.98491 0.34789 0.29837 0.0
C2886 C 0.94365 0.33961 0.3018 0.0
C2887 C 0.92741 0.34111 0.29366 0.0
C2888 C 0.91658 0.32545 0.28183 0.0
C2889 C 0.92243 0.30866 0.27728 0.0
C2890 C 0.93884 0.30727 0.28516 0.0
H2891 H 0.999 0.35161 0.2962 0.0
H2892 H 0.97684 0.34368 0.28457 0.0
H2893 H 0.98159 0.3609 0.30565 0.0
H2894 H 0.95129 0.35133 0.31199 0.0
H2895 H 0.9228 0.354 0.29754 0.0
H2896 H 0.02003 0.71042 0.64344 0.0
H2897 H 0.02382 0.68251 0.6229 0.0
H2898 H 0.96933 0.67137 0.59977 0.0
H2899 H 0.96598 0.70045 0.61936 0.0
H2900 H 0.01075 0.64615 0.61684 0.0
H2901 H 0.99282 0.67652 0.55419 0.0
H2902 H 0.99558 0.68986 0.57736 0.0
H2903 H 0.97535 0.67283 0.56847 0.0
C2904 C 0.00882 0.70179 0.63414 0.0
C2905 C 0.99275 0.70736 0.63271 0.0
C2906 C 0.01098 0.68591 0.62246 0.0
C2907 C 0.99696 0.67521 0.60956 0.0
C2908 C 0.98044 0.6799 0.60923 0.0
H2909 H 0.99036 0.58488 0.51856 0.0
H2910 H 0.98433 0.60673 0.54456 0.0
C2911 C 0.97846 0.69626 0.62046 0.0
C2912 C 1.00011 0.65999 0.59571 0.0
H2913 H 0.99771 0.64539 0.54906 0.0
C2914 C 0.00784 0.6459 0.602 0.0
C2915 C 0.9967 0.66009 0.5764 0.0
C2916 C 0.98984 0.67575 0.5687 0.0
C2917 C 0.01193 0.63158 0.58943 0.0
C2918 C 0.00799 0.63141 0.5702 0.0
C2919 C 1.0004 0.64553 0.5639 0.0
C2920 C 0.01164 0.61682 0.5561 0.0
C2921 C 0.02034 0.61679 0.5968 0.0
C2922 C 0.02896 0.61532 0.55426 0.0
C2923 C 0.03238 0.60273 0.53959 0.0
C2924 C 0.01854 0.59202 0.52646 0.0
C2925 C 1.00121 0.59334 0.52845 0.0
C2926 C 0.99777 0.60563 0.54328 0.0
H2927 H 0.01848 0.61615 0.61161 0.0
H2928 H 0.01492 0.60245 0.58845 0.0
H2929 H 0.03468 0.62053 0.59588 0.0
H2930 H 0.03983 0.62423 0.56381 0.0
H2931 H 0.04584 0.60178 0.53819 0.0
H2932 H 0.61009 0.81561 0.83571 0.0
H2933 H 0.63079 0.80835 0.81414 0.0
H2934 H 0.67119 0.81594 0.8603 0.0
H2935 H 0.65051 0.82313 0.88211 0.0
H2936 H 0.66632 0.8295 0.80965 0.0
H2937 H 0.66313 0.7593 0.83279 0.0
H2938 H 0.64707 0.77338 0.83748 0.0
H2939 H 0.66824 0.77954 0.85113 0.0
C2940 C 0.62344 0.81592 0.84126 0.0
C2941 C 0.62872 0.8196 0.86054 0.0
C2942 C 0.63519 0.81186 0.82894 0.0
C2943 C 0.65226 0.81138 0.8358 0.0
C2944 C 0.6579 0.81607 0.85494 0.0
H2945 H 0.74591 0.7923 0.80229 0.0
H2946 H 0.72014 0.79823 0.81661 0.0
C2947 C 0.64614 0.82016 0.8673 0.0
C2948 C 0.66382 0.80467 0.82304 0.0
H2949 H 0.68494 0.76875 0.81315 0.0
C2950 C 0.67026 0.81612 0.81015 0.0
C2951 C 0.66855 0.78707 0.82375 0.0
C2952 C 0.66129 0.77399 0.83691 0.0
C2953 C 0.68228 0.81083 0.79855 0.0
C2954 C 0.68761 0.79366 0.79989 0.0
C2955 C 0.68056 0.78182 0.81218 0.0
C2956 C 0.70251 0.78928 0.79094 0.0
C2957 C 0.68999 0.82399 0.78566 0.0
C2958 C 0.7008 0.78208 0.77188 0.0
C2959 C 0.7155 0.77856 0.76372 0.0
C2960 C 0.73177 0.7824 0.77468 0.0
C2961 C 0.73335 0.78935 0.79373 0.0
C2962 C 0.71875 0.7927 0.80186 0.0
H2963 H 0.6848 0.83715 0.78674 0.0
H2964 H 0.70451 0.82807 0.78893 0.0
H2965 H 0.68695 0.81647 0.77106 0.0
H2966 H 0.68821 0.77936 0.76342 0.0
H2967 H 0.71427 0.77318 0.74896 0.0
H2968 H 0.43658 0.53618 0.69847 0.0
H2969 H 0.45258 0.53527 0.67105 0.0
H2970 H 0.48951 0.58663 0.69725 0.0
H2971 H 0.47401 0.5869 0.72499 0.0
H2972 H 0.45909 0.55211 0.6445 0.0
H2973 H 0.52637 0.56384 0.67986 0.0
H2974 H 0.50755 0.55983 0.69244 0.0
H2975 H 0.51651 0.58325 0.68731 0.0
C2976 C 0.44823 0.54724 0.6986 0.0
C2977 C 0.45379 0.56151 0.71456 0.0
C2978 C 0.45755 0.54677 0.68258 0.0
C2979 C 0.47302 0.56057 0.68138 0.0
C2980 C 0.47832 0.5751 0.69727 0.0
H2981 H 0.54175 0.58484 0.59045 0.0
H2982 H 0.52685 0.58539 0.61866 0.0
C2983 C 0.46914 0.57543 0.71341 0.0
C2984 C 0.4829 0.55993 0.66355 0.0
H2985 H 0.52394 0.56624 0.6477 0.0
C2986 C 0.4733 0.55505 0.6455 0.0
C2987 C 0.50165 0.56375 0.66379 0.0
C2988 C 0.51362 0.56777 0.68186 0.0
C2989 C 0.48139 0.55425 0.62857 0.0
C2990 C 0.50007 0.55815 0.62883 0.0
C2991 C 0.50973 0.56316 0.64681 0.0
C2992 C 0.50966 0.55743 0.61087 0.0
C2993 C 0.46961 0.54977 0.61036 0.0
C2994 C 0.50577 0.54147 0.59627 0.0
C2995 C 0.51456 0.54107 0.57983 0.0
C2996 C 0.52773 0.55664 0.57694 0.0
C2997 C 0.53173 0.57247 0.59161 0.0
C2998 C 0.5231 0.57279 0.60809 0.0
H2999 H 0.45645 0.55271 0.61215 0.0
H3000 H 0.47547 0.55817 0.59998 0.0
H3001 H 0.46773 0.53441 0.60472 0.0
H3002 H 0.49598 0.529 0.59762 0.0
H3003 H 0.51096 0.52844 0.5693 0.0
H3004 H 0.76028 0.14662 0.96757 0.0
H3005 H 0.74643 0.16101 0.94366 0.0
H3006 H 0.77922 0.21603 0.96716 0.0
H3007 H 0.79301 0.20183 0.99139 0.0
H3008 H 0.73329 0.20285 0.95939 0.0
H3009 H 0.77669 0.19609 0.90332 0.0
H3010 H 0.77236 0.17848 0.9185 0.0
H3011 H 0.78623 0.20144 0.92737 0.0
C3012 C 0.76488 0.1617 0.96734 0.0
C3013 C 0.77773 0.1732 0.98121 0.0
C3014 C 0.75684 0.16985 0.95383 0.0
C3015 C 0.76181 0.18946 0.95395 0.0
C3016 C 0.77528 0.20083 0.96711 0.0
H3017 H 0.74154 0.28167 0.91101 0.0
H3018 H 0.7401 0.25701 0.93063 0.0
C3019 C 0.78317 0.19274 0.98077 0.0
C3020 C 0.75248 0.19836 0.94081 0.0
H3021 H 0.75584 0.21485 0.8998 0.0
C3022 C 0.73793 0.20525 0.94617 0.0
C3023 C 0.75866 0.20118 0.92371 0.0
C3024 C 0.77432 0.19391 0.91772 0.0
C3025 C 0.72979 0.21583 0.93499 0.0
C3026 C 0.73655 0.21951 0.91828 0.0
C3027 C 0.75057 0.21175 0.91256 0.0
C3028 C 0.73126 0.23356 0.90774 0.0
C3029 C 0.71445 0.22348 0.94134 0.0
C3030 C 0.72607 0.22846 0.88854 0.0
C3031 C 0.72714 0.24252 0.87733 0.0
C3032 C 0.73329 0.26173 0.88531 0.0
C3033 C 0.73655 0.2669 0.90469 0.0
C3034 C 0.73564 0.25283 0.91589 0.0
H3035 H 0.70774 0.21501 0.95123 0.0
H3036 H 0.71927 0.23837 0.94859 0.0
H3037 H 0.70477 0.22348 0.9293 0.0
H3038 H 0.72281 0.21362 0.88208 0.0
H3039 H 0.72461 0.23835 0.86235 0.0
H3040 H 0.15926 0.56732 0.19961 0.0
H3041 H 0.14017 0.56704 0.17114 0.0
H3042 H 0.10595 0.51529 0.18059 0.0
H3043 H 0.12449 0.5161 0.20947 0.0
H3044 H 0.13107 0.54005 0.14034 0.0
H3045 H 0.07235 0.54974 0.17434 0.0
H3046 H 0.09385 0.55364 0.18722 0.0
H3047 H 0.08031 0.52993 0.18089 0.0
C3048 C 0.14772 0.55585 0.1954 0.0
C3049 C 0.14311 0.54169 0.20638 0.0
C3050 C 0.13686 0.55578 0.17937 0.0
C3051 C 0.1216 0.5414 0.17425 0.0
C3052 C 0.11746 0.52679 0.18481 0.0
H3053 H 0.038 0.50565 0.0856 0.0
H3054 H 0.0604 0.50701 0.11174 0.0
C3055 C 0.12806 0.52712 0.20105 0.0
C3056 C 0.11014 0.54116 0.1575 0.0
H3057 H 0.06745 0.53782 0.1416 0.0
C3058 C 0.11718 0.53972 0.14052 0.0
C3059 C 0.09217 0.541 0.15811 0.0
C3060 C 0.08429 0.54388 0.17616 0.0
C3061 C 0.10637 0.53716 0.12381 0.0
C3062 C 0.08828 0.53609 0.12444 0.0
C3063 C 0.08135 0.53817 0.14142 0.0
C3064 C 0.07628 0.53398 0.10768 0.0
C3065 C 0.11428 0.53529 0.1057 0.0
C3066 C 0.07814 0.54872 0.09717 0.0
C3067 C 0.06558 0.54794 0.08247 0.0
C3068 C 0.05099 0.53254 0.07839 0.0
C3069 C 0.0492 0.51764 0.08875 0.0
C3070 C 0.06192 0.51834 0.10343 0.0
H3071 H 0.12722 0.53137 0.10745 0.0
H3072 H 0.10539 0.52446 0.09488 0.0
H3073 H 0.11635 0.54918 0.10061 0.0
H3074 H 0.08895 0.56109 0.10073 0.0
H3075 H 0.06706 0.55964 0.07462 0.0
H3076 H 0.80283 0.8923 0.47241 0.0
H3077 H 0.80308 0.87622 0.44076 0.0
H3078 H 0.79673 0.82223 0.4603 0.0
H3079 H 0.7965 0.83826 0.49215 0.0
H3080 H 0.82839 0.85368 0.43066 0.0
H3081 H 0.75901 0.81284 0.41358 0.0
H3082 H 0.76558 0.83338 0.43174 0.0
H3083 H 0.77033 0.81103 0.43554 0.0
C3084 C 0.8013 0.87697 0.46997 0.0
C3085 C 0.7997 0.86654 0.48478 0.0
C3086 C 0.80146 0.86782 0.45188 0.0
C3087 C 0.79985 0.84805 0.4482 0.0
C3088 C 0.79781 0.83749 0.46285 0.0
H3089 H 0.80207 0.77624 0.34147 0.0
H3090 H 0.80268 0.78717 0.37508 0.0
C3091 C 0.79775 0.84667 0.48102 0.0
C3092 C 0.80138 0.83881 0.4292 0.0
H3093 H 0.7782 0.80862 0.39098 0.0
C3094 C 0.81745 0.84376 0.422 0.0
C3095 C 0.78711 0.82581 0.41802 0.0
C3096 C 0.76946 0.82047 0.42497 0.0
C3097 C 0.81956 0.83621 0.40381 0.0
C3098 C 0.80517 0.8236 0.39245 0.0
C3099 C 0.78923 0.81825 0.39978 0.0
C3100 C 0.80601 0.81697 0.37252 0.0
C3101 C 0.83716 0.84183 0.39682 0.0
C3102 C 0.80773 0.8301 0.36007 0.0
C3103 C 0.80729 0.82389 0.34104 0.0
C3104 C 0.80528 0.80448 0.33421 0.0
C3105 C 0.8039 0.79131 0.34661 0.0
C3106 C 0.80416 0.79752 0.36569 0.0
H3107 H 0.84788 0.84752 0.40847 0.0
H3108 H 0.84032 0.82949 0.38809 0.0
H3109 H 0.83673 0.8531 0.38812 0.0
H3110 H 0.80889 0.84512 0.36503 0.0
H3111 H 0.80813 0.83419 0.33159 0.0
H3112 H 0.47756 0.55218 0.80407 0.0
H3113 H 0.49284 0.54746 0.83336 0.0
H3114 H 0.45299 0.56609 0.86341 0.0
H3115 H 0.43761 0.57045 0.83424 0.0
H3116 H 0.50881 0.56818 0.86564 0.0
H3117 H 0.45211 0.51839 0.88409 0.0
H3118 H 0.45207 0.52596 0.86164 0.0
H3119 H 0.44679 0.54072 0.88135 0.0
C3120 C 0.47198 0.5553 0.81689 0.0
C3121 C 0.45608 0.56165 0.81638 0.0
C3122 C 0.48084 0.55257 0.83385 0.0
C3123 C 0.47412 0.55587 0.85111 0.0
C3124 C 0.45849 0.56273 0.85061 0.0
H3125 H 0.51471 0.56317 0.96986 0.0
H3126 H 0.50127 0.56731 0.93948 0.0
C3127 C 0.44966 0.56546 0.8337 0.0
C3128 C 0.48331 0.55223 0.86943 0.0
H3129 H 0.47591 0.53088 0.90829 0.0
C3130 C 0.50149 0.55991 0.87479 0.0
C3131 C 0.47429 0.5412 0.88182 0.0
C3132 C 0.4553 0.53092 0.87687 0.0
C3133 C 0.51041 0.55746 0.89191 0.0
C3134 C 0.5012 0.54705 0.90449 0.0
C3135 C 0.48317 0.53909 0.89904 0.0
C3136 C 0.50996 0.54451 0.92333 0.0
C3137 C 0.52974 0.56627 0.89667 0.0
C3138 C 0.51952 0.53022 0.92499 0.0
C3139 C 0.52709 0.52759 0.94261 0.0
C3140 C 0.52566 0.53932 0.95934 0.0
C3141 C 0.5163 0.55378 0.95755 0.0
C3142 C 0.50851 0.55619 0.94001 0.0
H3143 H 0.53504 0.57478 0.88611 0.0
H3144 H 0.53211 0.5756 0.91046 0.0
H3145 H 0.53706 0.55486 0.89773 0.0
H3146 H 0.52103 0.5209 0.9126 0.0
H3147 H 0.53418 0.51634 0.94309 0.0
H3148 H 0.76481 0.16286 0.0881 0.0
H3149 H 0.76323 0.18441 0.11654 0.0
H3150 H 0.81162 0.22156 0.10824 0.0
H3151 H 0.81281 0.20052 0.07941 0.0
H3152 H 0.78525 0.19721 0.14848 0.0
H3153 H 0.77896 0.25762 0.11178 0.0
H3154 H 0.77694 0.23377 0.09957 0.0
H3155 H 0.7983 0.24899 0.10747 0.0
C3156 C 0.77519 0.17552 0.09253 0.0
C3157 C 0.78887 0.18022 0.08166 0.0
C3158 C 0.77423 0.18782 0.10865 0.0
C3159 C 0.78705 0.20478 0.1141 0.0
C3160 C 0.80129 0.20885 0.10385 0.0
H3161 H 0.81532 0.2965 0.20453 0.0
H3162 H 0.81137 0.27468 0.175 0.0
C3163 C 0.80207 0.19677 0.08756 0.0
C3164 C 0.78555 0.21831 0.13051 0.0
H3165 H 0.78519 0.26484 0.14491 0.0
C3166 C 0.78502 0.21195 0.14773 0.0
C3167 C 0.78515 0.23746 0.12932 0.0
C3168 C 0.78469 0.24482 0.111 0.0
C3169 C 0.78491 0.22451 0.16405 0.0
C3170 C 0.78504 0.24379 0.16291 0.0
C3171 C 0.7851 0.25002 0.14563 0.0
C3172 C 0.78628 0.258 0.17966 0.0
C3173 C 0.7854 0.21721 0.1824 0.0
C3174 C 0.77317 0.25614 0.1916 0.0
C3175 C 0.77552 0.26844 0.20849 0.0
C3176 C 0.79075 0.28294 0.21331 0.0
C3177 C 0.80333 0.28556 0.20084 0.0
C3178 C 0.80113 0.27308 0.1841 0.0
H3179 H 0.78906 0.20317 0.18121 0.0
H3180 H 0.79488 0.22745 0.1932 0.0
H3181 H 0.77218 0.21547 0.18718 0.0
H3182 H 0.76144 0.24484 0.18812 0.0
H3183 H 0.76568 0.26635 0.21796 0.0
H3184 H 0.13445 0.53452 0.30743 0.0
H3185 H 0.12165 0.54871 0.33393 0.0
H3186 H 0.16284 0.5996 0.34055 0.0
H3187 H 0.17605 0.58523 0.31469 0.0
H3188 H 0.14518 0.57761 0.37551 0.0
H3189 H 0.10415 0.60176 0.32144 0.0
H3190 H 0.11026 0.57917 0.31667 0.0
H3191 H 0.12671 0.60078 0.31889 0.0
C3192 C 0.14103 0.54844 0.31501 0.0
C3193 C 0.1561 0.5589 0.30921 0.0
C3194 C 0.13377 0.55649 0.33 0.0
C3195 C 0.14138 0.57514 0.33886 0.0
C3196 C 0.15702 0.58512 0.33384 0.0
H3197 H 0.08715 0.61481 0.43078 0.0
H3198 H 0.11043 0.62021 0.41041 0.0
C3199 C 0.1645 0.57691 0.31915 0.0
C3200 C 0.13173 0.58492 0.35168 0.0
H3201 H 0.09727 0.60653 0.35209 0.0
C3202 C 0.13485 0.58426 0.37064 0.0
C3203 C 0.11847 0.5935 0.34488 0.0
C3204 C 0.1146 0.59396 0.32436 0.0
C3205 C 0.12393 0.59068 0.38304 0.0
C3206 C 0.11005 0.59859 0.37613 0.0
C3207 C 0.10801 0.60065 0.35732 0.0
C3208 C 0.09527 0.60047 0.3868 0.0
C3209 C 0.1265 0.5874 0.40296 0.0
C3210 C 0.07861 0.58922 0.37955 0.0
C3211 C 0.06523 0.58684 0.39077 0.0
C3212 C 0.06846 0.59534 0.4095 0.0
C3213 C 0.0845 0.60817 0.41629 0.0
C3214 C 0.09781 0.611 0.40481 0.0
H3215 H 0.13619 0.57847 0.40506 0.0
H3216 H 0.13143 0.60129 0.41224 0.0
H3217 H 0.11389 0.58028 0.40729 0.0
H3218 H 0.07634 0.58094 0.36567 0.0
H3219 H 0.05304 0.57667 0.38536 0.0
H3220 H 0.79817 0.89288 0.60526 0.0
H3221 H 0.7931 0.87636 0.63201 0.0
H3222 H 0.79439 0.82327 0.59813 0.0
H3223 H 0.79962 0.83973 0.5714 0.0
H3224 H 0.76624 0.84632 0.63733 0.0
H3225 H 0.83031 0.82524 0.64249 0.0
H3226 H 0.82581 0.84258 0.62843 0.0
H3227 H 0.81767 0.81755 0.62002 0.0
C3228 C 0.7975 0.87771 0.60352 0.0
C3229 C 0.79955 0.86771 0.58619 0.0
C3230 C 0.79451 0.86824 0.61884 0.0
C3231 C 0.79364 0.84857 0.61729 0.0
C3232 C 0.79538 0.8385 0.59989 0.0
H3233 H 0.78334 0.76496 0.69182 0.0
H3234 H 0.78569 0.78251 0.66569 0.0
C3235 C 0.79832 0.84794 0.58456 0.0
C3236 C 0.79097 0.83864 0.63382 0.0
H3237 H 0.80962 0.81217 0.66157 0.0
C3238 C 0.77576 0.83892 0.64269 0.0
C3239 C 0.80335 0.82895 0.64091 0.0
C3240 C 0.82028 0.82866 0.6326 0.0
C3241 C 0.7724 0.82939 0.65802 0.0
C3242 C 0.78478 0.81962 0.66505 0.0
C3243 C 0.80005 0.81955 0.65627 0.0
C3244 C 0.78206 0.80882 0.68104 0.0
C3245 C 0.75531 0.82936 0.66609 0.0
C3246 C 0.77902 0.81754 0.69858 0.0
C3247 C 0.77731 0.80731 0.71356 0.0
C3248 C 0.77905 0.78829 0.71149 0.0
C3249 C 0.78202 0.77962 0.69397 0.0
C3250 C 0.78341 0.78969 0.67897 0.0
H3251 H 0.74534 0.83275 0.65612 0.0
H3252 H 0.74984 0.81533 0.67008 0.0
H3253 H 0.75768 0.84037 0.67873 0.0
H3254 H 0.77835 0.83239 0.70084 0.0
H3255 H 0.77503 0.8144 0.72684 0.0
H3256 H 0.76492 0.46949 0.50328 0.0
H3257 H 0.74295 0.48661 0.51453 0.0
H3258 H 0.72917 0.44623 0.55175 0.0
H3259 H 0.75078 0.42889 0.54033 0.0
H3260 H 0.70107 0.45332 0.52323 0.0
H3261 H 0.74211 0.51746 0.5698 0.0
H3262 H 0.74995 0.5091 0.54838 0.0
H3263 H 0.74856 0.49486 0.56654 0.0
C3264 C 0.75718 0.46438 0.51388 0.0
C3265 C 0.75911 0.44779 0.52075 0.0
C3266 C 0.74486 0.4742 0.52038 0.0
C3267 C 0.73474 0.46766 0.53404 0.0
C3268 C 0.73698 0.45137 0.54122 0.0
H3269 H 0.65421 0.52119 0.58017 0.0
H3270 H 0.67793 0.50392 0.57783 0.0
C3271 C 0.7491 0.44143 0.53456 0.0
C3272 C 0.72049 0.47661 0.53938 0.0
H3273 H 0.71185 0.51676 0.56301 0.0
C3274 C 0.70334 0.46709 0.53209 0.0
C3275 C 0.72373 0.49441 0.55107 0.0
C3276 C 0.74206 0.50463 0.55954 0.0
C3277 C 0.68917 0.47536 0.53562 0.0
C3278 C 0.69244 0.4936 0.54658 0.0
C3279 C 0.70954 0.50277 0.55457 0.0
C3280 C 0.67847 0.50409 0.54831 0.0
C3281 C 0.6709 0.46475 0.52725 0.0
C3282 C 0.67137 0.51005 0.53253 0.0
C3283 C 0.65807 0.51996 0.53382 0.0
C3284 C 0.65166 0.52406 0.55094 0.0
C3285 C 0.65901 0.51831 0.56684 0.0
C3286 C 0.67243 0.50841 0.56553 0.0
H3287 H 0.67009 0.44923 0.52352 0.0
H3288 H 0.66114 0.46695 0.53702 0.0
H3289 H 0.66728 0.47021 0.51435 0.0
H3290 H 0.67619 0.50707 0.51922 0.0
H3291 H 0.6529 0.52456 0.52144 0.0
H3292 H 0.21872 0.17649 0.51546 0.0
H3293 H 0.18983 0.15603 0.51629 0.0
H3294 H 0.20776 0.1074 0.491 0.0
H3295 H 0.2368 0.12783 0.49026 0.0
H3296 H 0.1657 0.13354 0.48769 0.0
H3297 H 0.18758 0.08898 0.53672 0.0
H3298 H 0.20126 0.11113 0.53316 0.0
H3299 H 0.19917 0.08982 0.51659 0.0
C3300 C 0.21653 0.16144 0.51005 0.0
C3301 C 0.23011 0.1538 0.50282 0.0
C3302 C 0.19998 0.14974 0.51054 0.0
C3303 C 0.19661 0.13008 0.50399 0.0
C3304 C 0.21008 0.12244 0.49649 0.0
H3305 H 0.09983 0.04272 0.47957 0.0
H3306 H 0.12889 0.06352 0.48006 0.0
C3307 C 0.22665 0.13417 0.49594 0.0
C3308 C 0.17895 0.1177 0.50476 0.0
H3309 H 0.15795 0.07905 0.52246 0.0
C3310 C 0.16404 0.12168 0.49535 0.0
C3311 C 0.17666 0.10229 0.5149 0.0
C3312 C 0.19197 0.09785 0.52607 0.0
C3313 C 0.14708 0.11045 0.49547 0.0
C3314 C 0.14486 0.09485 0.50527 0.0
C3315 C 0.15968 0.09098 0.51489 0.0
C3316 C 0.12724 0.08221 0.50526 0.0
C3317 C 0.13153 0.11517 0.48504 0.0
C3318 C 0.11661 0.08578 0.51929 0.0
C3319 C 0.09997 0.07384 0.5191 0.0
C3320 C 0.09358 0.05817 0.5048 0.0
C3321 C 0.10426 0.05473 0.49072 0.0
C3322 C 0.12091 0.06656 0.491 0.0
H3323 H 0.13534 0.12796 0.47831 0.0
H3324 H 0.12496 0.1029 0.47416 0.0
H3325 H 0.1218 0.1177 0.49475 0.0
H3326 H 0.12121 0.09782 0.53039 0.0
H3327 H 0.09209 0.07688 0.53014 0.0
H3328 H 0.21491 0.98451 0.76482 0.0
H3329 H 0.23002 0.95802 0.76213 0.0
H3330 H 0.18706 0.92337 0.78323 0.0
H3331 H 0.17162 0.94951 0.78492 0.0
H3332 H 0.24522 0.93924 0.78114 0.0
H3333 H 0.19015 0.88153 0.74626 0.0
H3334 H 0.18837 0.90602 0.74947 0.0
H3335 H 0.18508 0.89222 0.7681 0.0
C3336 C 0.20847 0.97122 0.76875 0.0
C3337 C 0.19164 0.9697 0.775 0.0
C3338 C 0.21731 0.95574 0.76724 0.0
C3339 C 0.21001 0.93763 0.77195 0.0
C3340 C 0.19329 0.93631 0.77857 0.0
H3341 H 0.24582 0.82651 0.77448 0.0
H3342 H 0.23017 0.85261 0.77613 0.0
C3343 C 0.18433 0.9517 0.77982 0.0
C3344 C 0.22009 0.92086 0.77054 0.0
H3345 H 0.2154 0.87198 0.75812 0.0
C3346 C 0.23848 0.9246 0.77595 0.0
C3347 C 0.2121 0.90115 0.76387 0.0
C3348 C 0.19289 0.89497 0.75642 0.0
C3349 C 0.24854 0.91007 0.7755 0.0
C3350 C 0.24056 0.89032 0.76888 0.0
C3351 C 0.22215 0.8866 0.76337 0.0
C3352 C 0.25069 0.87357 0.7677 0.0
C3353 C 0.26772 0.9164 0.78301 0.0
C3354 C 0.26782 0.87523 0.76204 0.0
C3355 C 0.27713 0.86019 0.76163 0.0
C3356 C 0.26976 0.84204 0.76608 0.0
C3357 C 0.25237 0.83996 0.77094 0.0
C3358 C 0.24322 0.85523 0.77185 0.0
H3359 H 0.27038 0.9299 0.79308 0.0
H3360 H 0.27229 0.90548 0.79012 0.0
H3361 H 0.27556 0.91916 0.77135 0.0
H3362 H 0.27419 0.88821 0.75756 0.0
H3363 H 0.29022 0.86277 0.75742 0.0
H3364 H 0.34933 0.95503 0.98119 0.0
H3365 H 0.37897 0.97532 0.98787 0.0
H3366 H 0.38598 0.95539 0.04034 0.0
H3367 H 0.35648 0.93453 0.03345 0.0
H3368 H 0.38535 1.00304 0.02655 0.0
H3369 H 0.43309 0.95726 0.01147 0.0
H3370 H 0.41171 0.95112 0.998 0.0
H3371 H 0.4136 0.94902 0.02221 0.0
C3372 C 0.35741 0.95466 0.99387 0.0
C3373 C 0.35085 0.94355 0.00689 0.0
C3374 C 0.37418 0.96614 0.99767 0.0
C3375 C 0.38425 0.9668 0.01463 0.0
C3376 C 0.3782 0.95485 0.02719 0.0
H3377 H 0.48208 0.04829 0.03906 0.0
H3378 H 0.4519 0.03667 0.04462 0.0
C3379 C 0.3615 0.94302 0.02321 0.0
C3380 C 0.40015 0.98164 0.01967 0.0
H3381 H 0.44316 0.99041 0.01323 0.0
C3382 C 0.39817 1.00043 0.02415 0.0
C3383 C 0.41659 0.9778 0.01659 0.0
C3384 C 0.41903 0.95772 0.01185 0.0
C3385 C 0.41217 0.01576 0.0239 0.0
C3386 C 0.42815 0.01183 0.01918 0.0
C3387 C 0.43055 0.99309 0.01648 0.0
C3388 C 0.44253 0.02645 0.01554 0.0
C3389 C 0.40958 0.03585 0.02736 0.0
C3390 C 0.44665 0.02564 0.99721 0.0
C3391 C 0.46398 0.03155 0.99399 0.0
C3392 C 0.47705 0.03849 0.00914 0.0
C3393 C 0.47231 0.04217 0.0272 0.0
C3394 C 0.45503 0.03601 0.03041 0.0
H3395 H 0.39643 0.03647 0.03166 0.0
H3396 H 0.41984 0.04465 0.03838 0.0
H3397 H 0.41108 0.04223 0.01448 0.0
H3398 H 0.43694 0.01823 0.98563 0.0
H3399 H 0.46725 0.02921 0.97987 0.0
H3400 H 0.90429 0.59878 0.80704 0.0
H3401 H 0.88758 0.618 0.7907 0.0
H3402 H 0.87059 0.57114 0.74506 0.0
H3403 H 0.88596 0.55165 0.76197 0.0
H3404 H 0.89097 0.62975 0.7583 0.0
H3405 H 0.82458 0.58232 0.75393 0.0
H3406 H 0.84333 0.57877 0.76791 0.0
H3407 H 0.84031 0.57118 0.74309 0.0
C3408 C 0.89654 0.59259 0.79378 0.0
C3409 C 0.89574 0.57374 0.78595 0.0
C3410 C 0.88721 0.60351 0.78437 0.0
C3411 C 0.87754 0.59578 0.76685 0.0
C3412 C 0.87736 0.5771 0.75883 0.0
H3413 H 0.80857 0.65956 0.71318 0.0
H3414 H 0.82878 0.6378 0.71297 0.0
C3415 C 0.88611 0.56603 0.7685 0.0
C3416 C 0.86778 0.60739 0.75698 0.0
H3417 H 0.82643 0.6102 0.74089 0.0
C3418 C 0.87689 0.62538 0.75428 0.0
C3419 C 0.84945 0.60144 0.7514 0.0
C3420 C 0.83881 0.58245 0.75435 0.0
C3421 C 0.86792 0.63818 0.74746 0.0
C3422 C 0.84953 0.63268 0.74309 0.0
C3423 C 0.84061 0.61415 0.74417 0.0
C3424 C 0.83897 0.64697 0.74201 0.0
C3425 C 0.87796 0.65793 0.74613 0.0
C3426 C 0.838 0.65887 0.75847 0.0
C3427 C 0.82631 0.67078 0.75879 0.0
C3428 C 0.81547 0.67119 0.74256 0.0
C3429 C 0.81668 0.65943 0.72591 0.0
C3430 C 0.8283 0.64722 0.72569 0.0
H3431 H 0.89206 0.65828 0.74489 0.0
H3432 H 0.87222 0.66323 0.73402 0.0
H3433 H 0.87719 0.66777 0.75894 0.0
H3434 H 0.84582 0.65837 0.7713 0.0
H3435 H 0.8254 0.67922 0.77196 0.0
H3436 H 0.8169 0.64018 0.99567 0.0
H3437 H 0.84202 0.62651 1.00402 0.0
H3438 H 0.8659 0.67785 0.04242 0.0
H3439 H 0.84084 0.69173 0.03404 0.0
H3440 H 0.88742 0.65907 0.01231 0.0
H3441 H 0.85492 0.61316 0.05997 0.0
H3442 H 0.842 0.61563 0.03918 0.0
H3443 H 0.84977 0.6358 0.05724 0.0
C3444 C 0.8275 0.64858 0.00587 0.0
C3445 C 0.82692 0.66704 0.01415 0.0
C3446 C 0.84181 0.64073 0.01066 0.0
C3447 C 0.85571 0.65112 0.02394 0.0
C3448 C 0.85528 0.66963 0.03214 0.0
H3449 H 0.94044 0.59983 0.06699 0.0
H3450 H 0.91843 0.61932 0.06546 0.0
C3451 C 0.84101 0.67755 0.02727 0.0
C3452 C 0.87078 0.64262 0.02887 0.0
H3453 H 0.88221 0.60806 0.05141 0.0
C3454 C 0.88637 0.64806 0.021 0.0
C3455 C 0.86946 0.62851 0.04047 0.0
C3456 C 0.85321 0.62289 0.04985 0.0
C3457 C 0.90042 0.63908 0.02373 0.0
C3458 C 0.8987 0.6241 0.03438 0.0
C3459 C 0.88344 0.61937 0.04307 0.0
C3460 C 0.91209 0.61239 0.03554 0.0
C3461 C 0.91695 0.64559 0.01505 0.0
C3462 C 0.91562 0.6018 0.0193 0.0
C3463 C 0.92808 0.59063 0.02012 0.0
C3464 C 0.93728 0.58969 0.03724 0.0
C3465 C 0.93356 0.60015 0.05357 0.0
C3466 C 0.92103 0.61135 0.05273 0.0
H3467 H 0.91827 0.6604 0.01221 0.0
H3468 H 0.92879 0.64487 0.02419 0.0
H3469 H 0.91646 0.63616 1.0016 0.0
H3470 H 0.90855 0.60199 0.00594 0.0
H3471 H 0.93023 0.58241 0.00732 0.0
H3472 H 0.21808 0.07413 0.79526 0.0
H3473 H 0.23434 0.10682 0.79477 0.0
H3474 H 0.18835 0.11858 0.76629 0.0
H3475 H 0.172 0.08622 0.76736 0.0
H3476 H 0.24515 0.12668 0.76964 0.0
H3477 H 0.19947 0.16604 0.80215 0.0
H3478 H 0.19688 0.14074 0.8015 0.0
H3479 H 0.1892 0.14995 0.78144 0.0
C3480 C 0.2113 0.08369 0.78905 0.0
C3481 C 0.19345 0.07715 0.78154 0.0
C3482 C 0.22073 0.10263 0.78871 0.0
C3483 C 0.21281 0.11604 0.78088 0.0
C3484 C 0.19502 0.10933 0.77311 0.0
H3485 H 0.25372 0.23844 0.7658 0.0
H3486 H 0.23518 0.20648 0.76611 0.0
C3487 C 0.18557 0.09047 0.77357 0.0
C3488 C 0.22332 0.13648 0.78024 0.0
H3489 H 0.22264 0.18432 0.78905 0.0
C3490 C 0.24012 0.13919 0.77405 0.0
C3491 C 0.21718 0.15339 0.78564 0.0
C3492 C 0.19978 0.15246 0.79322 0.0
C3493 C 0.2505 0.15753 0.77285 0.0
C3494 C 0.24455 0.17451 0.7786 0.0
C3495 C 0.22764 0.17181 0.78462 0.0
C3496 C 0.25575 0.19487 0.77884 0.0
C3497 C 0.26759 0.15822 0.76466 0.0
C3498 C 0.27364 0.2001 0.78636 0.0
C3499 C 0.28431 0.2183 0.78585 0.0
C3500 C 0.27767 0.2327 0.77841 0.0
C3501 C 0.25956 0.228 0.77168 0.0
C3502 C 0.24886 0.20948 0.77185 0.0
H3503 H 0.26718 0.1449 0.75493 0.0
H3504 H 0.27076 0.1704 0.757 0.0
H3505 H 0.27834 0.15958 0.77602 0.0
H3506 H 0.27957 0.19004 0.79275 0.0
H3507 H 0.29802 0.22111 0.79147 0.0
H3508 H 0.4177 0.97323 0.26527 0.0
H3509 H 0.39715 0.94205 0.25722 0.0
H3510 H 0.38156 0.94825 0.31257 0.0
H3511 H 0.40149 0.97952 0.32036 0.0
H3512 H 0.3803 0.90744 0.29024 0.0
H3513 H 0.346 0.95693 0.25755 0.0
H3514 H 0.36753 0.95449 0.2522 0.0
H3515 H 0.36495 0.96646 0.27463 0.0
C3516 C 0.41054 0.96736 0.27594 0.0
C3517 C 0.41079 0.97851 0.2933 0.0
C3518 C 0.39889 0.94967 0.27134 0.0
C3519 C 0.38787 0.94323 0.28428 0.0
C3520 C 0.39009 0.95317 0.3025 0.0
H3521 H 0.30455 0.87709 0.31739 0.0
H3522 H 0.32447 0.90606 0.31269 0.0
C3523 C 0.40137 0.97096 0.30693 0.0
C3524 C 0.37126 0.92953 0.27821 0.0
H3525 H 0.32834 0.93053 0.26706 0.0
C3526 C 0.36895 0.91209 0.28458 0.0
C3527 C 0.35663 0.93586 0.27077 0.0
C3528 C 0.35876 0.95445 0.26333 0.0
C3529 C 0.3521 0.9014 0.28514 0.0
C3530 C 0.33746 0.90891 0.27982 0.0
C3531 C 0.33974 0.92539 0.27174 0.0
C3532 C 0.31981 0.89941 0.28263 0.0
C3533 C 0.35016 0.88259 0.29217 0.0
C3534 C 0.3089 0.88806 0.2673 0.0
C3535 C 0.29733 0.87168 0.26995 0.0
C3536 C 0.29719 0.86667 0.28783 0.0
C3537 C 0.30502 0.88033 0.30339 0.0
C3538 C 0.31635 0.89692 0.30074 0.0
H3539 H 0.36209 0.87672 0.29093 0.0
H3540 H 0.34817 0.8847 0.30711 0.0
H3541 H 0.33868 0.87191 0.2844 0.0
H3542 H 0.31115 0.89021 0.25325 0.0
H3543 H 0.29055 0.86173 0.25779 0.0
H3544 H 0.56047 0.37195 0.62628 0.0
H3545 H 0.55714 0.39939 0.61158 0.0
H3546 H 0.57744 0.37561 0.56286 0.0
H3547 H 0.58012 0.34768 0.57729 0.0
H3548 H 0.57938 0.42638 0.60094 0.0
H3549 H 0.53504 0.38788 0.538 0.0
H3550 H 0.54035 0.3762 0.55723 0.0
H3551 H 0.55534 0.38024 0.54011 0.0
C3552 C 0.56419 0.37249 0.6124 0.0
C3553 C 0.57054 0.35751 0.60298 0.0
C3554 C 0.56227 0.38826 0.60397 0.0
C3555 C 0.56672 0.38963 0.58588 0.0
C3556 C 0.57339 0.37481 0.57656 0.0
H3557 H 0.58342 0.49611 0.53867 0.0
H3558 H 0.58697 0.46715 0.55089 0.0
C3559 C 0.5751 0.35887 0.58492 0.0
C3560 C 0.56479 0.40678 0.57716 0.0
H3561 H 0.54677 0.42088 0.53845 0.0
C3562 C 0.57226 0.42508 0.58726 0.0
C3563 C 0.55525 0.40535 0.55939 0.0
C3564 C 0.54588 0.38637 0.54813 0.0
C3565 C 0.57068 0.44175 0.58007 0.0
C3566 C 0.56163 0.44027 0.56212 0.0
C3567 C 0.55395 0.42206 0.55209 0.0
C3568 C 0.55947 0.45751 0.55388 0.0
C3569 C 0.57825 0.46091 0.59195 0.0
C3570 C 0.54278 0.46157 0.551 0.0
C3571 C 0.54069 0.478 0.54385 0.0
C3572 C 0.55524 0.49085 0.53939 0.0
C3573 C 0.57193 0.4866 0.54199 0.0
C3574 C 0.57399 0.47007 0.54906 0.0
H3575 H 0.58275 0.45963 0.60646 0.0
H3576 H 0.58963 0.46849 0.58585 0.0
H3577 H 0.56829 0.46978 0.59228 0.0
H3578 H 0.53137 0.45218 0.55464 0.0
H3579 H 0.52767 0.48087 0.54226 0.0
H3580 H 0.45337 0.78468 0.41643 0.0
H3581 H 0.42581 0.79138 0.40339 0.0
H3582 H 0.43775 0.77416 0.348 0.0
H3583 H 0.46544 0.76759 0.36098 0.0
H3584 H 0.41899 0.81667 0.37799 0.0
H3585 H 0.38797 0.74151 0.34849 0.0
H3586 H 0.40715 0.74807 0.3656 0.0
H3587 H 0.40931 0.74982 0.34157 0.0
C3588 C 0.4501 0.78213 0.40145 0.0
C3589 C 0.46165 0.77528 0.38981 0.0
C3590 C 0.43431 0.78613 0.39399 0.0
C3591 C 0.42939 0.78312 0.37463 0.0
C3592 C 0.44096 0.77638 0.36297 0.0
H3593 H 0.34891 0.79197 0.29297 0.0
H3594 H 0.37315 0.7872 0.31291 0.0
C3595 C 0.45687 0.77261 0.37043 0.0
C3596 C 0.41215 0.78678 0.36665 0.0
H3597 H 0.37358 0.76493 0.33918 0.0
C3598 C 0.40898 0.8053 0.36965 0.0
C3599 C 0.39886 0.77206 0.35588 0.0
C3600 C 0.40084 0.7517 0.3528 0.0
C3601 C 0.39346 0.80957 0.36145 0.0
C3602 C 0.38041 0.7949 0.35018 0.0
C3603 C 0.38338 0.7763 0.3478 0.0
C3604 C 0.36483 0.79865 0.33866 0.0
C3605 C 0.39152 0.82993 0.36416 0.0
C3606 C 0.35146 0.80673 0.34621 0.0
C3607 C 0.33702 0.80953 0.3345 0.0
C3608 C 0.33577 0.80439 0.315 0.0
C3609 C 0.34918 0.79628 0.30781 0.0
C3610 C 0.36327 0.79344 0.3193 0.0
H3611 H 0.40394 0.84005 0.37059 0.0
H3612 H 0.38736 0.83396 0.35064 0.0
H3613 H 0.38122 0.83145 0.37341 0.0
H3614 H 0.35207 0.81071 0.36113 0.0
H3615 H 0.32707 0.81584 0.34063 0.0
H3616 H 0.07845 0.76107 0.07576 0.0
H3617 H 0.07338 0.72744 0.06104 0.0
H3618 H 0.04655 0.71012 0.10697 0.0
H3619 H 0.05176 0.74341 0.12182 0.0
H3620 H 0.0822 0.69471 0.08935 0.0
H3621 H 0.01687 0.68545 0.0482 0.0
H3622 H 0.03273 0.70797 0.05192 0.0
H3623 H 0.02184 0.70007 0.07091 0.0
C3624 C 0.07136 0.75007 0.0826 0.0
C3625 C 0.06566 0.75481 0.10001 0.0
C3626 C 0.06848 0.73093 0.07421 0.0
C3627 C 0.05961 0.71639 0.08298 0.0
C3628 C 0.05346 0.72116 0.10004 0.0
H3629 H 0.01973 0.59483 0.05301 0.0
H3630 H 0.02476 0.629 0.0641 0.0
C3631 C 0.05651 0.74017 0.10851 0.0
C3632 C 0.05752 0.69609 0.07498 0.0
H3633 H 0.02881 0.65835 0.04801 0.0
C3634 C 0.07063 0.68671 0.08016 0.0
C3635 C 0.04221 0.68575 0.06344 0.0
C3636 C 0.02752 0.6952 0.05818 0.0
C3637 C 0.06877 0.66709 0.07425 0.0
C3638 C 0.05361 0.6567 0.06222 0.0
C3639 C 0.04051 0.66624 0.05704 0.0
C3640 C 0.05073 0.63587 0.05533 0.0
C3641 C 0.08276 0.65765 0.08165 0.0
C3642 C 0.06353 0.62821 0.04647 0.0
C3643 C 0.06083 0.60856 0.04052 0.0
C3644 C 0.04502 0.59627 0.04269 0.0
C3645 C 0.03198 0.60398 0.05095 0.0
C3646 C 0.03487 0.62354 0.05734 0.0
H3647 H 0.09011 0.66597 0.09495 0.0
H3648 H 0.07702 0.64302 0.08405 0.0
H3649 H 0.09236 0.65682 0.07144 0.0
H3650 H 0.07562 0.63741 0.04414 0.0
H3651 H 0.07106 0.603 0.03409 0.0
H3652 H 0.07566 0.29544 0.91864 0.0
H3653 H 0.10436 0.30041 0.90689 0.0
H3654 H 0.08002 0.2687 0.85341 0.0
H3655 H 0.05126 0.26392 0.86502 0.0
H3656 H 0.12401 0.27616 0.89332 0.0
H3657 H 0.10729 0.31673 0.83848 0.0
H3658 H 0.0936 0.31192 0.85664 0.0
H3659 H 0.09203 0.29421 0.83633 0.0
C3660 C 0.07638 0.28957 0.90433 0.0
C3661 C 0.06105 0.27937 0.89273 0.0
C3662 C 0.09287 0.29241 0.89764 0.0
C3663 C 0.09447 0.28526 0.87911 0.0
C3664 C 0.07919 0.2748 0.86761 0.0
H3665 H 0.17509 0.27039 0.80915 0.0
H3666 H 0.14896 0.26909 0.82545 0.0
C3667 C 0.06271 0.27194 0.87431 0.0
C3668 C 0.11203 0.28847 0.87182 0.0
H3669 H 0.1331 0.30418 0.83586 0.0
C3670 C 0.12602 0.28246 0.88086 0.0
C3671 C 0.11495 0.29706 0.85576 0.0
C3672 C 0.10124 0.30556 0.84636 0.0
C3673 C 0.14237 0.28391 0.87373 0.0
C3674 C 0.14485 0.29145 0.85708 0.0
C3675 C 0.13113 0.29809 0.84844 0.0
C3676 C 0.16126 0.29185 0.84792 0.0
C3677 C 0.15678 0.27688 0.88372 0.0
C3678 C 0.17702 0.30507 0.85512 0.0
C3679 C 0.19205 0.30592 0.84574 0.0
C3680 C 0.19174 0.29346 0.82901 0.0
C3681 C 0.17598 0.28003 0.82209 0.0
C3682 C 0.16095 0.27934 0.83134 0.0
H3683 H 0.15232 0.2698 0.89554 0.0
H3684 H 0.1617 0.26669 0.87387 0.0
H3685 H 0.16796 0.28909 0.88919 0.0
H3686 H 0.1776 0.31496 0.86783 0.0
H3687 H 0.20393 0.31638 0.85159 0.0
H3688 H 0.60852 0.76987 0.9201 0.0
H3689 H 0.60001 0.73903 0.93074 0.0
H3690 H 0.54545 0.74201 0.9227 0.0
H3691 H 0.55384 0.77191 0.91087 0.0
H3692 H 0.58493 0.73132 0.95955 0.0
H3693 H 0.54057 0.68921 0.89798 0.0
H3694 H 0.55421 0.71231 0.8973 0.0
H3695 H 0.53356 0.71028 0.90683 0.0
C3696 C 0.59475 0.76373 0.92049 0.0
C3697 C 0.58179 0.77297 0.91461 0.0
C3698 C 0.58987 0.74618 0.92647 0.0
C3699 C 0.57204 0.73797 0.92702 0.0
C3700 C 0.55919 0.74761 0.92164 0.0
H3701 H 0.52057 0.64523 0.97941 0.0
H3702 H 0.52683 0.67216 0.9624 0.0
C3703 C 0.56401 0.76479 0.91513 0.0
C3704 C 0.567 0.72005 0.93453 0.0
H3705 H 0.53967 0.67581 0.92609 0.0
C3706 C 0.57519 0.71912 0.95211 0.0
C3707 C 0.55407 0.70423 0.9249 0.0
C3708 C 0.54524 0.70399 0.90564 0.0
C3709 C 0.57081 0.70286 0.96039 0.0
C3710 C 0.55796 0.68709 0.95077 0.0
C3711 C 0.54956 0.688 0.93332 0.0
C3712 C 0.55334 0.6695 0.95872 0.0
C3713 C 0.57982 0.70279 0.97949 0.0
C3714 C 0.56602 0.65887 0.96162 0.0
C3715 C 0.56262 0.64377 0.97152 0.0
C3716 C 0.54639 0.63891 0.9785 0.0
C3717 C 0.53331 0.64889 0.97453 0.0
C3718 C 0.53678 0.66412 0.9647 0.0
H3719 H 0.58609 0.71742 0.98675 0.0
H3720 H 0.57037 0.69586 0.9883 0.0
H3721 H 0.59024 0.69461 0.97809 0.0
H3722 H 0.5788 0.66277 0.95687 0.0
H3723 H 0.57305 0.63651 0.97444 0.0
H3724 H 0.05293 0.74605 0.67411 0.0
H3725 H 0.08347 0.75312 0.68775 0.0
H3726 H 0.07793 0.80739 0.7161 0.0
H3727 H 0.04698 0.80019 0.7027 0.0
H3728 H 0.10926 0.78396 0.68244 0.0
H3729 H 0.10021 0.78338 0.75721 0.0
H3730 H 0.08256 0.77349 0.73866 0.0
H3731 H 0.08951 0.79883 0.74551 0.0
C3732 C 0.05814 0.75941 0.68342 0.0
C3733 C 0.04771 0.77262 0.68743 0.0
C3734 C 0.07556 0.76343 0.69112 0.0
C3735 C 0.08281 0.78074 0.70286 0.0
C3736 C 0.07239 0.79387 0.70719 0.0
H3737 H 0.19529 0.80668 0.74629 0.0
H3738 H 0.16629 0.8131 0.73714 0.0
C3739 C 0.05481 0.78976 0.69958 0.0
C3740 C 0.10147 0.78492 0.71008 0.0
H3741 H 0.12912 0.78782 0.74949 0.0
C3742 C 0.1137 0.78522 0.69713 0.0
C3743 C 0.10702 0.78638 0.72924 0.0
C3744 C 0.09418 0.78538 0.74351 0.0
C3745 C 0.13133 0.78599 0.70281 0.0
C3746 C 0.1367 0.78671 0.72185 0.0
C3747 C 0.12475 0.78751 0.73493 0.0
C3748 C 0.15386 0.78337 0.72792 0.0
C3749 C 0.14392 0.78485 0.6884 0.0
C3750 C 0.15601 0.76459 0.72589 0.0
C3751 C 0.17225 0.76096 0.7312 0.0
C3752 C 0.1864 0.77609 0.73856 0.0
C3753 C 0.18428 0.79491 0.7408 0.0
C3754 C 0.16792 0.79856 0.73556 0.0
H3755 H 0.1384 0.78738 0.67469 0.0
H3756 H 0.15651 0.7954 0.69313 0.0
H3757 H 0.14685 0.77046 0.68655 0.0
H3758 H 0.14515 0.7528 0.71998 0.0
H3759 H 0.17389 0.74641 0.72921 0.0
H3760 H 0.0751 0.38045 0.38724 0.0
H3761 H 0.06428 0.40825 0.39943 0.0
H3762 H 0.08603 0.40535 0.45494 0.0
H3763 H 0.09665 0.37706 0.44287 0.0
H3764 H 0.0484 0.40728 0.4491 0.0
H3765 H 0.09377 0.46313 0.42066 0.0
H3766 H 0.08379 0.44121 0.40531 0.0
H3767 H 0.09948 0.44108 0.42463 0.0
C3768 C 0.07795 0.38596 0.402 0.0
C3769 C 0.08685 0.37674 0.41415 0.0
C3770 C 0.07168 0.40178 0.40891 0.0
C3771 C 0.07446 0.40878 0.42799 0.0
C3772 C 0.08378 0.4 0.44013 0.0
H3773 H 0.07097 0.50597 0.49969 0.0
H3774 H 0.07614 0.47888 0.47917 0.0
C3775 C 0.08992 0.384 0.43325 0.0
C3776 C 0.06711 0.42492 0.43538 0.0
H3777 H 0.07255 0.47296 0.43813 0.0
C3778 C 0.05349 0.42164 0.44659 0.0
C3779 C 0.07377 0.44348 0.43181 0.0
C3780 C 0.08857 0.4476 0.42003 0.0
C3781 C 0.04679 0.43671 0.455 0.0
C3782 C 0.05391 0.45538 0.45198 0.0
C3783 C 0.06703 0.45852 0.44016 0.0
C3784 C 0.05031 0.47206 0.46351 0.0
C3785 C 0.03286 0.43281 0.46784 0.0
C3786 C 0.03405 0.47721 0.46129 0.0
C3787 C 0.03102 0.49283 0.47309 0.0
C3788 C 0.04424 0.50324 0.48715 0.0
C3789 C 0.06053 0.49814 0.48902 0.0
C3790 C 0.06353 0.48271 0.47729 0.0
H3791 H 0.02942 0.41756 0.46947 0.0
H3792 H 0.03743 0.44158 0.48178 0.0
H3793 H 0.0208 0.43687 0.46224 0.0
H3794 H 0.02376 0.46912 0.45058 0.0
H3795 H 0.01837 0.49658 0.4714 0.0
H3796 H 0.46968 0.26469 0.21216 0.0
H3797 H 0.44373 0.26437 0.22852 0.0
H3798 H 0.41115 0.25593 0.17599 0.0
H3799 H 0.43699 0.25615 0.15946 0.0
H3800 H 0.421 0.29115 0.22331 0.0
H3801 H 0.38655 0.21471 0.20593 0.0
H3802 H 0.40976 0.22277 0.20455 0.0
H3803 H 0.39388 0.22601 0.18676 0.0
C3804 C 0.45697 0.26265 0.20411 0.0
C3805 C 0.45524 0.26057 0.18462 0.0
C3806 C 0.44225 0.26241 0.21344 0.0
C3807 C 0.42573 0.25992 0.20332 0.0
C3808 C 0.42389 0.25757 0.18387 0.0
H3809 H 0.32114 0.25926 0.22364 0.0
H3810 H 0.34882 0.2571 0.21144 0.0
C3811 C 0.43861 0.25786 0.17452 0.0
C3812 C 0.41057 0.2613 0.21318 0.0
H3813 H 0.37088 0.23604 0.22045 0.0
C3814 C 0.41005 0.27914 0.22292 0.0
C3815 C 0.39648 0.24551 0.2123 0.0
C3816 C 0.39666 0.2261 0.20194 0.0
C3817 C 0.39528 0.28182 0.23138 0.0
C3818 C 0.3811 0.26601 0.23048 0.0
C3819 C 0.38188 0.24806 0.22111 0.0
C3820 C 0.36477 0.26789 0.23804 0.0
C3821 C 0.39471 0.30165 0.24041 0.0
C3822 C 0.36476 0.27471 0.25698 0.0
C3823 C 0.34903 0.27639 0.2638 0.0
C3824 C 0.33332 0.27054 0.25182 0.0
C3825 C 0.33327 0.26342 0.23304 0.0
C3826 C 0.34897 0.26228 0.22612 0.0
H3827 H 0.40455 0.31273 0.23561 0.0
H3828 H 0.38149 0.30457 0.2374 0.0
H3829 H 0.39774 0.30298 0.25571 0.0
H3830 H 0.37685 0.27869 0.26641 0.0
H3831 H 0.34907 0.28205 0.27834 0.0
H3832 H 0.61063 0.51711 0.31864 0.0
H3833 H 0.59669 0.52041 0.34752 0.0
H3834 H 0.64693 0.52743 0.37964 0.0
H3835 H 0.66085 0.52488 0.3509 0.0
H3836 H 0.58919 0.50389 0.37533 0.0
H3837 H 0.63532 0.5692 0.41129 0.0
H3838 H 0.63607 0.56005 0.38724 0.0
H3839 H 0.64654 0.55049 0.40557 0.0
C3840 C 0.61886 0.51949 0.33181 0.0
C3841 C 0.63723 0.52082 0.33176 0.0
C3842 C 0.61073 0.52139 0.3487 0.0
C3843 C 0.62037 0.52484 0.36676 0.0
C3844 C 0.63867 0.52566 0.36659 0.0
H3845 H 0.59638 0.54165 0.487 0.0
H3846 H 0.60955 0.53887 0.45759 0.0
C3847 C 0.64681 0.52391 0.34975 0.0
C3848 C 0.61139 0.52706 0.3853 0.0
H3849 H 0.6159 0.55304 0.42986 0.0
C3850 C 0.59518 0.51479 0.38711 0.0
C3851 C 0.61848 0.54114 0.40145 0.0
C3852 C 0.63495 0.55609 0.40128 0.0
C3853 C 0.58661 0.51563 0.40385 0.0
C3854 C 0.59378 0.52966 0.4201 0.0
C3855 C 0.6099 0.54204 0.41816 0.0
C3856 C 0.58519 0.5317 0.43896 0.0
C3857 C 0.57013 0.50063 0.40386 0.0
C3858 C 0.56676 0.52926 0.43973 0.0
C3859 C 0.55912 0.53042 0.45689 0.0
C3860 C 0.56932 0.53498 0.47461 0.0
C3861 C 0.58775 0.53828 0.47402 0.0
C3862 C 0.5954 0.53661 0.45681 0.0
H3863 H 0.5697 0.48766 0.39363 0.0
H3864 H 0.56906 0.49636 0.41778 0.0
H3865 H 0.55853 0.50629 0.39973 0.0
H3866 H 0.55795 0.52654 0.42697 0.0
H3867 H 0.54494 0.52784 0.45622 0.0
H3868 H 0.28116 0.88746 0.05826 0.0
H3869 H 0.28935 0.87995 0.08909 0.0
H3870 H 0.34007 0.91828 0.09248 0.0
H3871 H 0.33165 0.9265 0.06232 0.0
H3872 H 0.31628 0.86432 0.09952 0.0
H3873 H 0.32427 0.93642 0.14127 0.0
H3874 H 0.3142 0.93052 0.11743 0.0
H3875 H 0.3377 0.93535 0.12265 0.0
C3876 C 0.29394 0.89435 0.06576 0.0
C3877 C 0.30569 0.90767 0.05826 0.0
C3878 C 0.29862 0.89009 0.08323 0.0
C3879 C 0.31518 0.89889 0.09306 0.0
C3880 C 0.32706 0.91184 0.08531 0.0
H3881 H 0.34682 0.85952 0.19641 0.0
H3882 H 0.35146 0.87658 0.16988 0.0
C3883 C 0.32225 0.91642 0.06811 0.0
C3884 C 0.32016 0.89399 0.1112 0.0
H3885 H 0.32986 0.91205 0.15743 0.0
C3886 C 0.31951 0.87477 0.11216 0.0
C3887 C 0.32449 0.90782 0.12754 0.0
C3888 C 0.32509 0.92866 0.12726 0.0
C3889 C 0.32212 0.86879 0.12926 0.0
C3890 C 0.32561 0.88248 0.1456 0.0
C3891 C 0.32734 0.90181 0.14466 0.0
C3892 C 0.32395 0.87638 0.16359 0.0
C3893 C 0.31984 0.84777 0.12992 0.0
C3894 C 0.3071 0.87155 0.16889 0.0
C3895 C 0.30439 0.86178 0.18371 0.0
C3896 C 0.31857 0.85678 0.19335 0.0
C3897 C 0.33571 0.86308 0.18897 0.0
C3898 C 0.33839 0.87284 0.174 0.0
H3899 H 0.31989 0.83941 0.11599 0.0
H3900 H 0.33043 0.84524 0.13971 0.0
H3901 H 0.3071 0.84243 0.13506 0.0
H3902 H 0.29587 0.87416 0.16073 0.0
H3903 H 0.29103 0.85685 0.18663 0.0
H3904 H 0.92498 0.53482 0.85836 0.0
H3905 H 0.93901 0.53006 0.88816 0.0
H3906 H 0.98703 0.52861 0.86374 0.0
H3907 H 0.97338 0.53403 0.83427 0.0
H3908 H 0.9576 0.50117 0.89811 0.0
H3909 H 0.9992 0.57439 0.90683 0.0
H3910 H 0.97981 0.56625 0.8901 0.0
H3911 H 1.00013 0.56002 0.88503 0.0
C3912 C 0.93855 0.53358 0.85948 0.0
C3913 C 0.94837 0.53533 0.84439 0.0
C3914 C 0.94641 0.53065 0.87632 0.0
C3915 C 0.96399 0.52922 0.87795 0.0
C3916 C 0.97349 0.52999 0.86261 0.0
H3917 H 0.04506 0.53175 0.96424 0.0
H3918 H 0.02639 0.52555 0.93432 0.0
C3919 C 0.96578 0.53328 0.84595 0.0
C3920 C 0.97312 0.52883 0.89605 0.0
H3921 H 0.00724 0.55436 0.92739 0.0
C3922 C 0.96841 0.51276 0.90466 0.0
C3923 C 0.98695 0.5442 0.90443 0.0
C3924 C 0.99173 0.56228 0.89623 0.0
C3925 C 0.97784 0.51141 0.92138 0.0
C3926 C 0.99212 0.52649 0.92927 0.0
C3927 C 0.99646 0.5427 0.92088 0.0
C3928 C 1.00246 0.52654 0.9468 0.0
C3929 C 0.97273 0.49394 0.93038 0.0
C3930 C 0.99501 0.52931 0.96337 0.0
C3931 C 1.00564 0.53309 0.98024 0.0
C3932 C 0.02367 0.53413 0.98068 0.0
C3933 C 0.03112 0.53113 0.9641 0.0
C3934 C 0.0205 0.52731 0.94715 0.0
H3935 H 0.96354 0.48214 0.92078 0.0
H3936 H 0.98457 0.48892 0.93508 0.0
H3937 H 0.96618 0.49759 0.94283 0.0
H3938 H 0.9812 0.52946 0.96321 0.0
H3939 H 0.99992 0.536 0.99284 0.0
H3940 H 0.2717 0.23889 0.55538 0.0
H3941 H 0.27234 0.25208 0.58843 0.0
H3942 H 0.30748 0.21698 0.60384 0.0
H3943 H 0.30665 0.20353 0.57102 0.0
H3944 H 0.26433 0.22317 0.61866 0.0
H3945 H 0.3279 0.27686 0.63082 0.0
H3946 H 0.31503 0.27024 0.60818 0.0
H3947 H 0.32667 0.25396 0.61697 0.0
C3948 C 0.27978 0.23425 0.5658 0.0
C3949 C 0.28911 0.22018 0.56063 0.0
C3950 C 0.28007 0.24171 0.58465 0.0
C3951 C 0.28994 0.23547 0.59855 0.0
C3952 C 0.29979 0.22198 0.59334 0.0
H3953 H 0.31472 0.26331 0.71777 0.0
H3954 H 0.31328 0.25278 0.68452 0.0
C3955 C 0.2993 0.21433 0.57458 0.0
C3956 C 0.28928 0.24221 0.61857 0.0
H3957 H 0.31281 0.27195 0.65683 0.0
C3958 C 0.27482 0.23396 0.62703 0.0
C3959 C 0.30317 0.25596 0.62946 0.0
C3960 C 0.31911 0.2649 0.62101 0.0
C3961 C 0.27398 0.23893 0.64621 0.0
C3962 C 0.28771 0.25304 0.65712 0.0
C3963 C 0.30217 0.2613 0.64853 0.0
C3964 C 0.28785 0.25888 0.67758 0.0
C3965 C 0.25875 0.22841 0.6547 0.0
C3966 C 0.27397 0.2658 0.68501 0.0
C3967 C 0.27464 0.2717 0.70428 0.0
C3968 C 0.28937 0.27112 0.71643 0.0
C3969 C 0.30319 0.26413 0.70889 0.0
C3970 C 0.30241 0.25808 0.68979 0.0
H3971 H 0.25231 0.21458 0.64585 0.0
H3972 H 0.26306 0.22565 0.66874 0.0
H3973 H 0.24877 0.23717 0.65609 0.0
H3974 H 0.26275 0.26699 0.67589 0.0
H3975 H 0.26385 0.2771 0.70958 0.0
H3976 H 0.6114 0.52495 0.23388 0.0
H3977 H 0.59713 0.52648 0.20286 0.0
H3978 H 0.64052 0.51007 0.17779 0.0
H3979 H 0.65478 0.5086 0.20865 0.0
H3980 H 0.60736 0.54875 0.17544 0.0
H3981 H 0.60006 0.4734 0.14407 0.0
H3982 H 0.60523 0.48145 0.16884 0.0
H3983 H 0.6221 0.48525 0.15371 0.0
C3984 C 0.61793 0.52151 0.22181 0.0
C3985 C 0.63443 0.51652 0.22426 0.0
C3986 C 0.60969 0.52245 0.20384 0.0
C3987 C 0.61734 0.51816 0.18732 0.0
C3988 C 0.6338 0.51312 0.1898 0.0
H3989 H 0.58552 0.50938 0.06461 0.0
H3990 H 0.59892 0.50752 0.09575 0.0
C3991 C 0.64211 0.51236 0.20774 0.0
C3992 C 0.60853 0.5195 0.16783 0.0
H3993 H 0.59355 0.49416 0.12372 0.0
C3994 C 0.60431 0.53671 0.16421 0.0
C3995 C 0.60448 0.50411 0.15258 0.0
C3996 C 0.60803 0.48494 0.15494 0.0
C3997 C 0.59694 0.53914 0.1463 0.0
C3998 C 0.5925 0.52361 0.13102 0.0
C3999 C 0.59665 0.50633 0.1348 0.0
C4000 C 0.58395 0.52492 0.11127 0.0
C4001 C 0.59492 0.55889 0.14399 0.0
C4002 C 0.57051 0.535 0.10843 0.0
C4003 C 0.56322 0.53664 0.09033 0.0
C4004 C 0.56829 0.52753 0.07394 0.0
C4005 C 0.58109 0.5167 0.07662 0.0
C4006 C 0.58883 0.51559 0.09475 0.0
H4007 H 0.60441 0.56996 0.15409 0.0
H4008 H 0.59701 0.56183 0.12976 0.0
H4009 H 0.58154 0.56036 0.14679 0.0
H4010 H 0.56531 0.54158 0.12024 0.0
H4011 H 0.55325 0.54487 0.0892 0.0
H4012 H 0.32364 0.88563 0.96835 0.0
H4013 H 0.33333 0.87508 0.93851 0.0
H4014 H 0.28433 0.88032 0.91002 0.0
H4015 H 0.27527 0.89226 0.93983 0.0
H4016 H 0.32089 0.84529 0.91495 0.0
H4017 H 0.31691 0.90553 0.87815 0.0
H4018 H 0.31596 0.90728 0.90293 0.0
H4019 H 0.29632 0.89789 0.8867 0.0
C4020 C 0.31492 0.88429 0.95565 0.0
C4021 C 0.29859 0.88924 0.95613 0.0
C4022 C 0.32056 0.87857 0.93867 0.0
C4023 C 0.30976 0.87742 0.92203 0.0
C4024 C 0.29318 0.88186 0.92263 0.0
H4025 H 0.27498 0.80608 0.82776 0.0
H4026 H 0.28449 0.8281 0.85707 0.0
C4027 C 0.2878 0.8882 0.9396 0.0
C4028 C 0.31495 0.86969 0.90416 0.0
H4029 H 0.31124 0.87387 0.85822 0.0
C4030 C 0.31943 0.85189 0.90266 0.0
C4031 C 0.31345 0.87847 0.88817 0.0
C4032 C 0.31061 0.89846 0.88917 0.0
C4033 C 0.3204 0.84167 0.88528 0.0
C4034 C 0.31655 0.8494 0.8692 0.0
C4035 C 0.31395 0.86799 0.87073 0.0
C4036 C 0.31132 0.83692 0.85124 0.0
C4037 C 0.32395 0.82196 0.88401 0.0
C4038 C 0.32342 0.83471 0.83858 0.0
C4039 C 0.31801 0.82205 0.82189 0.0
C4040 C 0.30053 0.8117 0.81785 0.0
C4041 C 0.28854 0.8139 0.83067 0.0
C4042 C 0.2939 0.82651 0.84726 0.0
H4043 H 0.3296 0.81934 0.89762 0.0
H4044 H 0.31146 0.81124 0.87937 0.0
H4045 H 0.33314 0.81988 0.87355 0.0
H4046 H 0.33697 0.84254 0.84172 0.0
H4047 H 0.32751 0.82005 0.81238 0.0
H4048 H 0.9686 0.54594 0.74706 0.0
H4049 H 0.97477 0.5345 0.71554 0.0
H4050 H 0.91946 0.51064 0.69914 0.0
H4051 H 0.91314 0.5225 0.7299 0.0
H4052 H 0.96521 0.49531 0.69622 0.0
H4053 H 0.93339 0.54434 0.66014 0.0
H4054 H 0.93909 0.54834 0.68506 0.0
H4055 H 0.92023 0.53031 0.67433 0.0
C4056 C 0.95781 0.53863 0.73655 0.0
C4057 C 0.94043 0.5355 0.7407 0.0
C4058 C 0.96132 0.53195 0.71874 0.0
C4059 C 0.94747 0.52198 0.70516 0.0
C4060 C 0.9302 0.51869 0.70939 0.0
H4061 H 0.96286 0.50233 0.58812 0.0
H4062 H 0.94671 0.49642 0.61498 0.0
C4063 C 0.92666 0.52559 0.72695 0.0
C4064 C 0.95101 0.5151 0.68642 0.0
H4065 H 0.94623 0.52318 0.6418 0.0
C4066 C 0.96095 0.50121 0.68423 0.0
C4067 C 0.94486 0.52246 0.67088 0.0
C4068 C 0.93389 0.53727 0.67264 0.0
C4069 C 0.96581 0.49519 0.66684 0.0
C4070 C 0.961 0.50379 0.65156 0.0
C4071 C 0.94991 0.51661 0.65354 0.0
C4072 C 0.97018 0.50298 0.63487 0.0
C4073 C 0.97657 0.4802 0.66521 0.0
C4074 C 0.98856 0.50842 0.63724 0.0
C4075 C 0.99762 0.51128 0.62209 0.0
C4076 C 0.98844 0.50931 0.60438 0.0
C4077 C 0.97007 0.50359 0.60174 0.0
C4078 C 0.96094 0.50024 0.61697 0.0
H4079 H 0.97241 0.46953 0.67436 0.0
H4080 H 0.97542 0.47271 0.65068 0.0
H4081 H 0.99059 0.48703 0.66995 0.0
H4082 H 0.99593 0.51163 0.65097 0.0
H4083 H 0.01179 0.51626 0.6244 0.0
H4084 H 0.30686 0.2011 0.44875 0.0
H4085 H 0.30807 0.21315 0.41914 0.0
H4086 H 0.26227 0.23577 0.42852 0.0
H4087 H 0.26193 0.22496 0.45877 0.0
H4088 H 0.28841 0.20483 0.389 0.0
H4089 H 0.28948 0.2807 0.41263 0.0
H4090 H 0.2919 0.26465 0.42885 0.0
H4091 H 0.27037 0.26566 0.41866 0.0
C4092 C 0.29722 0.20891 0.4446 0.0
C4093 C 0.28439 0.21222 0.4562 0.0
C4094 C 0.29786 0.21577 0.42759 0.0
C4095 C 0.28547 0.2258 0.42147 0.0
C4096 C 0.27246 0.22881 0.433 0.0
H4097 H 0.26098 0.25251 0.30933 0.0
H4098 H 0.25903 0.24179 0.33979 0.0
C4099 C 0.27214 0.22243 0.45029 0.0
C4100 C 0.28573 0.23217 0.40272 0.0
H4101 H 0.28352 0.26988 0.37982 0.0
C4102 C 0.28742 0.21911 0.38716 0.0
C4103 C 0.28458 0.25088 0.39998 0.0
C4104 C 0.28418 0.26631 0.41596 0.0
C4105 C 0.28782 0.22411 0.36922 0.0
C4106 C 0.28613 0.2425 0.3665 0.0
C4107 C 0.28447 0.25563 0.38189 0.0
C4108 C 0.28711 0.24862 0.34789 0.0
C4109 C 0.29025 0.20979 0.35319 0.0
C4110 C 0.30351 0.25581 0.34227 0.0
C4111 C 0.30465 0.26187 0.32495 0.0
C4112 C 0.28941 0.26083 0.31279 0.0
C4113 C 0.27296 0.25329 0.31827 0.0
C4114 C 0.27183 0.24731 0.33572 0.0
H4115 H 0.29044 0.19568 0.35729 0.0
H4116 H 0.27953 0.20798 0.34166 0.0
H4117 H 0.30284 0.21517 0.34777 0.0
H4118 H 0.31546 0.25692 0.35139 0.0
H4119 H 0.31751 0.26767 0.3212 0.0
H4120 H 0.34407 0.65335 0.54299 0.0
H4121 H 0.37132 0.64328 0.53741 0.0
H4122 H 0.34156 0.59148 0.50307 0.0
H4123 H 0.31413 0.60135 0.50873 0.0
H4124 H 0.37725 0.60304 0.54366 0.0
H4125 H 0.38142 0.62225 0.47268 0.0
H4126 H 0.3702 0.63411 0.4897 0.0
H4127 H 0.36042 0.61032 0.47831 0.0
C4128 C 0.34335 0.63975 0.53436 0.0
C4129 C 0.32711 0.62804 0.52632 0.0
C4130 C 0.35885 0.63411 0.53115 0.0
C4131 C 0.35824 0.61685 0.5197 0.0
C4132 C 0.34209 0.60495 0.51183 0.0
H4133 H 0.42951 0.54988 0.48639 0.0
H4134 H 0.40529 0.5659 0.48933 0.0
C4135 C 0.32653 0.6105 0.51519 0.0
C4136 C 0.37459 0.61099 0.51648 0.0
H4137 H 0.40283 0.60665 0.48407 0.0
C4138 C 0.38299 0.60394 0.53074 0.0
C4139 C 0.38178 0.61231 0.49955 0.0
C4140 C 0.37311 0.62023 0.48413 0.0
C4141 C 0.39841 0.59763 0.52831 0.0
C4142 C 0.40558 0.59876 0.51132 0.0
C4143 C 0.39727 0.60605 0.49712 0.0
C4144 C 0.42084 0.59078 0.50762 0.0
C4145 C 0.40664 0.5892 0.54363 0.0
C4146 C 0.43758 0.59984 0.51666 0.0
C4147 C 0.45156 0.59083 0.51488 0.0
C4148 C 0.44885 0.57263 0.50409 0.0
C4149 C 0.43211 0.564 0.49456 0.0
C4150 C 0.41824 0.57307 0.49625 0.0
H4151 H 0.39823 0.58732 0.55502 0.0
H4152 H 0.40915 0.57515 0.53796 0.0
H4153 H 0.41947 0.59873 0.54962 0.0
H4154 H 0.43969 0.61359 0.52547 0.0
H4155 H 0.46437 0.59794 0.52215 0.0
H4156 H 0.86217 0.94426 0.56388 0.0
H4157 H 0.89228 0.96073 0.56042 0.0
H4158 H 0.88835 0.92722 0.50611 0.0
H4159 H 0.85857 0.91033 0.50976 0.0
H4160 H 0.92276 0.93926 0.54899 0.0
H4161 H 0.90447 0.98805 0.50225 0.0
H4162 H 0.88989 0.97827 0.51806 0.0
H4163 H 0.8931 0.96333 0.49757 0.0
C4164 C 0.86772 0.94044 0.55121 0.0
C4165 C 0.85794 0.92592 0.53714 0.0
C4166 C 0.88496 0.94984 0.54924 0.0
C4167 C 0.89266 0.94533 0.53295 0.0
C4168 C 0.8828 0.93103 0.51879 0.0
H4169 H 0.99503 0.99758 0.49791 0.0
H4170 H 0.96516 0.97845 0.49816 0.0
C4171 C 0.86576 0.92133 0.52094 0.0
C4172 C 0.91107 0.9553 0.53088 0.0
H4173 H 0.93472 0.9899 0.50983 0.0
C4174 C 0.92535 0.95036 0.54046 0.0
C4175 C 0.91459 0.96952 0.51944 0.0
C4176 C 0.89978 0.97528 0.50873 0.0
C4177 C 0.94291 0.95934 0.5391 0.0
C4178 C 0.94647 0.97413 0.52826 0.0
C4179 C 0.93216 0.97872 0.51827 0.0
C4180 C 0.96484 0.9855 0.52789 0.0
C4181 C 0.95758 0.95265 0.54905 0.0
C4182 C 0.97477 0.99601 0.54441 0.0
C4183 C 0.99178 1.00699 0.54428 0.0
C4184 C 0.99946 1.00781 0.52761 0.0
C4185 C 0.98961 0.99719 0.51103 0.0
C4186 C 0.97246 0.9863 0.51115 0.0
H4187 H 0.95307 0.93796 0.55202 0.0
H4188 H 0.96879 0.95293 0.5407 0.0
H4189 H 0.96234 0.96224 0.56252 0.0
H4190 H 0.96924 0.996 0.55749 0.0
H4191 H 0.99888 0.01504 0.55729 0.0
H4192 H 0.87264 0.0975 0.25359 0.0
H4193 H 0.8592 0.1253 0.25457 0.0
H4194 H 0.90869 0.16188 0.27905 0.0
H4195 H 0.92216 0.1342 0.27758 0.0
H4196 H 0.85058 0.15083 0.27775 0.0
H4197 H 0.90039 0.19634 0.24494 0.0
H4198 H 0.90066 0.17176 0.24577 0.0
H4199 H 0.90951 0.18985 0.26578 0.0
C4200 C 0.88085 0.11143 0.25908 0.0
C4201 C 0.89887 0.11291 0.26529 0.0
C4202 C 0.87299 0.12771 0.2597 0.0
C4203 C 0.88257 0.14673 0.26644 0.0
C4204 C 0.90053 0.1481 0.273 0.0
H4205 H 0.85468 0.2641 0.27666 0.0
H4206 H 0.86939 0.23724 0.27712 0.0
C4207 C 0.9084 0.13184 0.27235 0.0
C4208 C 0.87372 0.16452 0.26698 0.0
H4209 H 0.87882 0.2109 0.25761 0.0
C4210 C 0.85692 0.16382 0.27315 0.0
C4211 C 0.88137 0.18233 0.26144 0.0
C4212 C 0.89889 0.18514 0.25395 0.0
C4213 C 0.84815 0.17949 0.27422 0.0
C4214 C 0.85557 0.19714 0.2682 0.0
C4215 C 0.87247 0.19793 0.26221 0.0
C4216 C 0.84621 0.21453 0.26796 0.0
C4217 C 0.83117 0.17695 0.28279 0.0
C4218 C 0.82792 0.21211 0.26236 0.0
C4219 C 0.81933 0.22772 0.26243 0.0
C4220 C 0.82838 0.24712 0.26758 0.0
C4221 C 0.84679 0.24975 0.27262 0.0
C4222 C 0.85538 0.23402 0.27284 0.0
H4223 H 0.83064 0.16663 0.29269 0.0
H4224 H 0.8294 0.19062 0.29039 0.0
H4225 H 0.82003 0.17113 0.27165 0.0
H4226 H 0.81998 0.19795 0.2575 0.0
H4227 H 0.80533 0.22444 0.25809 0.0
H4228 H 0.73374 0.10242 1.00421 0.0
H4229 H 0.70212 0.0908 0.99506 0.0
H4230 H 0.69259 0.14089 0.02814 0.0
H4231 H 0.72422 0.15296 0.03662 0.0
H4232 H 0.67829 0.08213 0.01787 0.0
H4233 H 0.66192 0.13872 0.98062 0.0
H4234 H 0.68429 0.13672 0.98627 0.0
H4235 H 0.67308 0.14804 1.00354 0.0
C4236 C 0.72484 0.11088 0.00951 0.0
C4237 C 0.7312 0.12843 0.02119 0.0
C4238 C 0.70689 0.10436 1.00416 0.0
C4239 C 0.69517 0.11522 0.01063 0.0
C4240 C 0.70152 0.13264 0.02253 0.0
H4241 H 0.59004 0.08724 0.03089 0.0
H4242 H 0.6214 0.09924 0.03029 0.0
C4243 C 0.71949 0.13935 0.02758 0.0
C4244 C 0.67621 0.10744 0.00639 0.0
H4245 H 0.63768 0.11788 0.99069 0.0
C4246 C 0.66944 0.08976 0.01159 0.0
C4247 C 0.66479 0.11755 0.99824 0.0
C4248 C 0.67142 0.13622 0.99168 0.0
C4249 C 0.6514 0.0822 0.00947 0.0
C4250 C 0.64004 0.09267 1.00206 0.0
C4251 C 0.64669 0.11003 0.99632 0.0
C4252 C 0.62114 0.08643 1.00169 0.0
C4253 C 0.64447 0.06342 0.01571 0.0
C4254 C 0.61095 0.0755 0.98566 0.0
C4255 C 0.59304 0.06859 0.98592 0.0
C4256 C 0.58537 0.07259 1.00224 0.0
C4257 C 0.59568 0.08385 0.01816 0.0
C4258 C 0.6135 0.09078 0.01785 0.0
H4259 H 0.65515 0.05625 0.01959 0.0
H4260 H 0.63731 0.06584 0.02797 0.0
H4261 H 0.63502 0.05377 1.00447 0.0
H4262 H 0.61691 0.07202 0.97317 0.0
H4263 H 0.58534 0.05974 0.97358 0.0
H4264 H 0.16921 0.49164 0.27476 0.0
H4265 H 0.18151 0.46546 0.28269 0.0
H4266 H 0.22593 0.48363 0.25325 0.0
H4267 H 0.214 0.5108 0.24601 0.0
H4268 H 0.18779 0.43693 0.25996 0.0
H4269 H 0.2494 0.47807 0.30287 0.0
H4270 H 0.23184 0.48906 0.29573 0.0
H4271 H 0.24718 0.48389 0.27986 0.0
C4272 C 0.18159 0.49004 0.26992 0.0
C4273 C 0.19075 0.50304 0.25977 0.0
C4274 C 0.18859 0.47518 0.27454 0.0
C4275 C 0.20467 0.47295 0.26879 0.0
C4276 C 0.21369 0.48559 0.25818 0.0
H4277 H 0.2577 0.38662 0.25535 0.0
H4278 H 0.24095 0.4112 0.25396 0.0
C4279 C 0.20684 0.50085 0.2539 0.0
C4280 C 0.21146 0.4568 0.27337 0.0
H4281 H 0.24718 0.44455 0.29374 0.0
C4282 C 0.20067 0.43857 0.2676 0.0
C4283 C 0.22811 0.45924 0.28359 0.0
C4284 C 0.23972 0.47864 0.29104 0.0
C4285 C 0.2065 0.42247 0.2711 0.0
C4286 C 0.2235 0.42489 0.2803 0.0
C4287 C 0.23406 0.44306 0.28674 0.0
C4288 C 0.23161 0.40879 0.2807 0.0
C4289 C 0.1949 0.40295 0.26434 0.0
C4290 C 0.2314 0.39942 0.29614 0.0
C4291 C 0.24085 0.38528 0.29694 0.0
C4292 C 0.25049 0.38067 0.28231 0.0
C4293 C 0.25013 0.38978 0.26664 0.0
C4294 C 0.24071 0.4038 0.26586 0.0
H4295 H 0.18135 0.40363 0.25905 0.0
H4296 H 0.20065 0.39544 0.25297 0.0
H4297 H 0.19423 0.3944 0.27582 0.0
H4298 H 0.22433 0.40336 0.30764 0.0
H4299 H 0.24091 0.37824 0.30905 0.0
H4300 H 0.27182 0.44851 0.04093 0.0
H4301 H 0.24461 0.45988 0.03621 0.0
H4302 H 0.21505 0.4019 0.02074 0.0
H4303 H 0.24204 0.39048 0.02569 0.0
H4304 H 0.22036 0.4541 1.00393 0.0
H4305 H 0.18748 0.42262 0.06035 0.0
H4306 H 0.21058 0.4243 0.0586 0.0
H4307 H 0.19437 0.40624 0.04335 0.0
C4308 C 0.25951 0.43818 0.03665 0.0
C4309 C 0.25916 0.41857 0.0339 0.0
C4310 C 0.24394 0.4447 0.0339 0.0
C4311 C 0.22764 0.43178 0.02842 0.0
C4312 C 0.22731 0.41219 0.0254 0.0
H4313 H 0.12127 0.45611 0.01895 0.0
H4314 H 0.14543 0.43932 0.01815 0.0
C4315 C 0.24284 0.40568 0.02817 0.0
C4316 C 0.2111 0.43886 0.02563 0.0
H4317 H 0.1716 0.43918 0.04223 0.0
C4318 C 0.20971 0.45083 0.01233 0.0
C4319 C 0.19689 0.43421 0.03616 0.0
C4320 C 0.19736 0.42124 0.05051 0.0
C4321 C 0.19478 0.45852 0.0095 0.0
C4322 C 0.18103 0.45487 0.02085 0.0
C4323 C 0.18212 0.44227 0.03365 0.0
C4324 C 0.16603 0.46483 0.02047 0.0
C4325 C 0.19383 0.47017 0.99406 0.0
C4326 C 0.16935 0.4848 0.02228 0.0
C4327 C 0.15557 0.49435 0.0225 0.0
C4328 C 0.13799 0.48431 0.02135 0.0
C4329 C 0.13462 0.46432 0.01987 0.0
C4330 C 0.14846 0.4547 0.01938 0.0
H4331 H 0.20118 0.46547 0.98259 0.0
H4332 H 0.18005 0.46913 0.98819 0.0
H4333 H 0.20001 0.48532 0.99956 0.0
H4334 H 0.1827 0.49314 0.02391 0.0
H4335 H 0.15876 0.50976 0.02413 0.0
H4336 H 0.88241 0.01094 0.29048 0.0
H4337 H 0.86815 0.97799 0.29284 0.0
H4338 H 0.88736 0.95798 0.24206 0.0
H4339 H 0.90186 0.99079 0.23993 0.0
H4340 H 0.84288 0.951 0.27469 0.0
H4341 H 0.9006 0.91924 0.26942 0.0
H4342 H 0.90252 0.94463 0.27212 0.0
H4343 H 0.8961 0.93005 0.2495 0.0
C4344 C 0.88368 0.99959 0.27976 0.0
C4345 C 0.89352 1.00411 0.26496 0.0
C4346 C 0.87541 0.98042 0.28113 0.0
C4347 C 0.87663 0.96459 0.26791 0.0
C4348 C 0.88631 0.96921 0.253 0.0
H4349 H 0.83093 0.83723 0.25053 0.0
H4350 H 0.84798 0.86963 0.24932 0.0
C4351 C 0.89457 0.98835 0.25162 0.0
C4352 C 0.86739 0.94373 0.26941 0.0
H4353 H 0.87296 0.89738 0.26675 0.0
C4354 C 0.84967 0.93943 0.27304 0.0
C4355 C 0.87564 0.92787 0.2673 0.0
C4356 C 0.8948 0.93065 0.26456 0.0
C4357 C 0.84016 0.92054 0.27403 0.0
C4358 C 0.84839 0.90464 0.27195 0.0
C4359 C 0.86616 0.90894 0.26837 0.0
C4360 C 0.83887 0.88383 0.27346 0.0
C4361 C 0.82097 0.91795 0.27659 0.0
C4362 C 0.82831 0.87975 0.28782 0.0
C4363 C 0.81836 0.86111 0.28837 0.0
C4364 C 0.81887 0.84511 0.27511 0.0
C4365 C 0.83024 0.84878 0.26134 0.0
C4366 C 0.84 0.86764 0.26056 0.0
H4367 H 0.81529 0.92933 0.27146 0.0
H4368 H 0.81319 0.90398 0.26913 0.0
H4369 H 0.81954 0.91888 0.29164 0.0
H4370 H 0.82744 0.89112 0.2987 0.0
H4371 H 0.80983 0.85929 0.29918 0.0
H4372 H 0.71419 0.09764 0.75747 0.0
H4373 H 0.72857 0.13135 0.7655 0.0
H4374 H 0.67948 0.1449 0.77842 0.0
H4375 H 0.66484 0.11111 0.77038 0.0
H4376 H 0.70803 0.16677 0.75118 0.0
H4377 H 0.72793 0.16126 0.82499 0.0
H4378 H 0.72759 0.14119 0.80728 0.0
H4379 H 0.70739 0.14765 0.81213 0.0
C4380 C 0.70644 0.10781 0.76185 0.0
C4381 C 0.68851 0.10195 0.76339 0.0
C4382 C 0.71462 0.12692 0.7664 0.0
C4383 C 0.70493 0.14017 0.77255 0.0
C4384 C 0.68695 0.13457 0.77364 0.0
H4385 H 0.75552 0.2556 0.81913 0.0
H4386 H 0.73745 0.22356 0.81449 0.0
C4387 C 0.67871 0.11542 0.76903 0.0
C4388 C 0.71405 0.15985 0.77832 0.0
H4389 H 0.74253 0.1884 0.81359 0.0
C4390 C 0.71538 0.17178 0.76488 0.0
C4391 C 0.72328 0.16595 0.79627 0.0
C4392 C 0.72149 0.15344 0.81112 0.0
C4393 C 0.72657 0.18978 0.76877 0.0
C4394 C 0.7369 0.19535 0.78631 0.0
C4395 C 0.73481 0.18374 0.80005 0.0
C4396 C 0.7497 0.21344 0.7908 0.0
C4397 C 0.72728 0.20249 0.75405 0.0
C4398 C 0.76324 0.21771 0.7797 0.0
C4399 C 0.77351 0.23608 0.78218 0.0
C4400 C 0.77043 0.25005 0.796 0.0
C4401 C 0.75817 0.24509 0.80837 0.0
C4402 C 0.74774 0.22685 0.80568 0.0
H4403 H 0.7151 0.19847 0.74405 0.0
H4404 H 0.72918 0.21768 0.76039 0.0
H4405 H 0.73846 0.20098 0.74606 0.0
H4406 H 0.7652 0.20716 0.76854 0.0
H4407 H 0.78309 0.2396 0.77266 0.0
loop_
_geom_bond_atom_site_label_1
_geom_bond_atom_site_label_2
_geom_bond_distance
_geom_bond_site_symmetry_2
_ccdc_geom_bond_type
In0 O1 2.294 . S
In0 O2 2.326 . S
In0 O6 2.266 . S
In0 O7 2.326 . S
In0 O8 2.266 . S
In0 O9 2.326 . S
In0 O11 2.294 . S
In0 O12 2.326 . S
O1 In0 2.294 . S
O1 C10 1.240 . S
O2 In0 2.326 . S
O2 C10 1.252 . S
C3 O6 1.252 . S
C3 O7 1.260 . S
C4 O11 1.240 . S
C4 O12 1.252 . S
C5 O8 1.252 . S
C5 O9 1.260 . S
O6 In0 2.266 . S
O6 C3 1.252 . S
O7 In0 2.326 . S
O7 C3 1.260 . S
O8 In0 2.266 . S
O8 C5 1.252 . S
O9 In0 2.326 . S
O9 C5 1.260 . S
C10 O1 1.240 . S
C10 O2 1.252 . S
O11 In0 2.294 . S
O11 C4 1.240 . S
O12 In0 2.326 . S
O12 C4 1.252 . S
In13 O14 2.294 . S
In13 O15 2.326 . S
In13 O19 2.266 1_455 S
In13 O20 2.326 1_455 S
In13 O21 2.264 1_455 S
In13 O22 2.322 1_455 S
In13 O24 2.296 . S
In13 O25 2.330 . S
O14 In13 2.294 . S
O14 C23 1.240 . S
O15 In13 2.326 . S
O15 C23 1.252 . S
C16 O19 1.252 . S
C16 O20 1.260 . S
C17 O24 1.240 . S
C17 O25 1.252 . S
C18 O21 1.252 . S
C18 O22 1.260 . S
O19 In13 2.266 1_655 S
O19 C16 1.252 . S
O20 In13 2.326 1_655 S
O20 C16 1.260 . S
O21 In13 2.264 1_655 S
O21 C18 1.252 . S
O22 In13 2.322 1_655 S
O22 C18 1.260 . S
C23 O14 1.240 . S
C23 O15 1.252 . S
O24 In13 2.296 . S
O24 C17 1.240 . S
O25 In13 2.330 . S
O25 C17 1.252 . S
In26 O27 2.294 . S
In26 O28 2.326 . S
In26 O32 2.266 . S
In26 O33 2.326 . S
In26 O34 2.266 . S
In26 O35 2.326 . S
In26 O37 2.294 . S
In26 O38 2.326 . S
O27 In26 2.294 . S
O27 C36 1.240 . S
O28 In26 2.326 . S
O28 C36 1.252 . S
C29 O32 1.252 . S
C29 O33 1.260 . S
C30 O37 1.240 . S
C30 O38 1.252 . S
C31 O34 1.252 . S
C31 O35 1.260 . S
O32 In26 2.266 . S
O32 C29 1.252 . S
O33 In26 2.326 . S
O33 C29 1.260 . S
O34 In26 2.266 . S
O34 C31 1.252 . S
O35 In26 2.326 . S
O35 C31 1.260 . S
C36 O27 1.240 . S
C36 O28 1.252 . S
O37 In26 2.294 . S
O37 C30 1.240 . S
O38 In26 2.326 . S
O38 C30 1.252 . S
In39 O40 2.294 . S
In39 O41 2.326 . S
In39 O45 2.266 . S
In39 O46 2.326 . S
In39 O47 2.266 . S
In39 O48 2.326 . S
In39 O50 2.294 . S
In39 O51 2.326 . S
O40 In39 2.294 . S
O40 C49 1.240 . S
O41 In39 2.326 . S
O41 C49 1.252 . S
C42 O45 1.252 . S
C42 O46 1.260 . S
C43 O50 1.240 . S
C43 O51 1.252 . S
C44 O47 1.252 . S
C44 O48 1.260 . S
O45 In39 2.266 . S
O45 C42 1.252 . S
O46 In39 2.326 . S
O46 C42 1.260 . S
O47 In39 2.266 . S
O47 C44 1.252 . S
O48 In39 2.326 . S
O48 C44 1.260 . S
C49 O40 1.240 . S
C49 O41 1.252 . S
O50 In39 2.294 . S
O50 C43 1.240 . S
O51 In39 2.326 . S
O51 C43 1.252 . S
In52 O53 2.294 . S
In52 O54 2.326 . S
In52 O58 2.266 . S
In52 O59 2.326 . S
In52 O60 2.266 . S
In52 O61 2.326 . S
In52 O63 2.294 . S
In52 O64 2.326 . S
O53 In52 2.294 . S
O53 C62 1.240 . S
O54 In52 2.326 . S
O54 C62 1.252 . S
C55 O58 1.252 . S
C55 O59 1.260 . S
C56 O63 1.240 . S
C56 O64 1.252 . S
C57 O60 1.252 . S
C57 O61 1.260 . S
O58 In52 2.266 . S
O58 C55 1.252 . S
O59 In52 2.326 . S
O59 C55 1.260 . S
O60 In52 2.266 . S
O60 C57 1.252 . S
O61 In52 2.326 . S
O61 C57 1.260 . S
C62 O53 1.240 . S
C62 O54 1.252 . S
O63 In52 2.294 . S
O63 C56 1.240 . S
O64 In52 2.326 . S
O64 C56 1.252 . S
In65 O66 2.294 . S
In65 O67 2.326 . S
In65 O71 2.266 . S
In65 O72 2.326 . S
In65 O73 2.266 . S
In65 O74 2.326 . S
In65 O76 2.294 . S
In65 O77 2.326 . S
O66 In65 2.294 . S
O66 C75 1.240 . S
O67 In65 2.326 . S
O67 C75 1.252 . S
C68 O71 1.252 . S
C68 O72 1.260 . S
C69 O76 1.240 . S
C69 O77 1.252 . S
C70 O73 1.252 . S
C70 O74 1.260 . S
O71 In65 2.266 . S
O71 C68 1.252 . S
O72 In65 2.326 . S
O72 C68 1.260 . S
O73 In65 2.266 . S
O73 C70 1.252 . S
O74 In65 2.326 . S
O74 C70 1.260 . S
C75 O66 1.240 . S
C75 O67 1.252 . S
O76 In65 2.294 . S
O76 C69 1.240 . S
O77 In65 2.326 . S
O77 C69 1.252 . S
In78 O79 2.294 . S
In78 O80 2.326 . S
In78 O84 2.266 . S
In78 O85 2.326 . S
In78 O86 2.266 . S
In78 O87 2.326 . S
In78 O89 2.294 . S
In78 O90 2.326 . S
O79 In78 2.294 . S
O79 C88 1.240 . S
O80 In78 2.326 . S
O80 C88 1.252 . S
C81 O84 1.252 . S
C81 O85 1.260 . S
C82 O89 1.240 . S
C82 O90 1.252 . S
C83 O86 1.252 . S
C83 O87 1.260 . S
O84 In78 2.266 . S
O84 C81 1.252 . S
O85 In78 2.326 . S
O85 C81 1.260 . S
O86 In78 2.266 . S
O86 C83 1.252 . S
O87 In78 2.326 . S
O87 C83 1.260 . S
C88 O79 1.240 . S
C88 O80 1.252 . S
O89 In78 2.294 . S
O89 C82 1.240 . S
O90 In78 2.326 . S
O90 C82 1.252 . S
In91 O92 2.294 . S
In91 O93 2.326 . S
In91 O97 2.266 . S
In91 O98 2.326 . S
In91 O99 2.266 1_455 S
In91 O100 2.326 1_455 S
In91 O102 2.294 . S
In91 O103 2.326 . S
O92 In91 2.294 . S
O92 C101 1.240 . S
O93 In91 2.326 . S
O93 C101 1.252 . S
C94 O97 1.252 . S
C94 O98 1.260 . S
C95 O102 1.240 . S
C95 O103 1.252 . S
C96 O99 1.252 . S
C96 O100 1.260 . S
O97 In91 2.266 . S
O97 C94 1.252 . S
O98 In91 2.326 . S
O98 C94 1.260 . S
O99 In91 2.266 1_655 S
O99 C96 1.252 . S
O100 In91 2.326 1_655 S
O100 C96 1.260 . S
C101 O92 1.240 . S
C101 O93 1.252 . S
O102 In91 2.294 . S
O102 C95 1.240 . S
O103 In91 2.326 . S
O103 C95 1.252 . S
In104 O105 2.294 . S
In104 O106 2.326 . S
In104 O110 2.266 . S
In104 O111 2.326 . S
In104 O112 2.266 1_545 S
In104 O113 2.326 1_545 S
In104 O115 2.294 . S
In104 O116 2.326 . S
O105 In104 2.294 . S
O105 C114 1.240 . S
O106 In104 2.326 . S
O106 C114 1.252 . S
C107 O110 1.252 . S
C107 O111 1.260 . S
C108 O115 1.240 . S
C108 O116 1.252 . S
C109 O112 1.252 . S
C109 O113 1.260 . S
O110 In104 2.266 . S
O110 C107 1.252 . S
O111 In104 2.326 . S
O111 C107 1.260 . S
O112 In104 2.266 1_565 S
O112 C109 1.252 . S
O113 In104 2.326 1_565 S
O113 C109 1.260 . S
C114 O105 1.240 . S
C114 O106 1.252 . S
O115 In104 2.294 . S
O115 C108 1.240 . S
O116 In104 2.326 . S
O116 C108 1.252 . S
In117 O118 2.294 . S
In117 O119 2.326 . S
In117 O123 2.266 . S
In117 O124 2.326 . S
In117 O125 2.266 . S
In117 O126 2.326 . S
In117 O128 2.294 . S
In117 O129 2.326 . S
O118 In117 2.294 . S
O118 C127 1.240 . S
O119 In117 2.326 . S
O119 C127 1.252 . S
C120 O123 1.252 . S
C120 O124 1.260 . S
C121 O128 1.240 . S
C121 O129 1.252 . S
C122 O125 1.252 . S
C122 O126 1.260 . S
O123 In117 2.266 . S
O123 C120 1.252 . S
O124 In117 2.326 . S
O124 C120 1.260 . S
O125 In117 2.266 . S
O125 C122 1.252 . S
O126 In117 2.326 . S
O126 C122 1.260 . S
C127 O118 1.240 . S
C127 O119 1.252 . S
O128 In117 2.294 . S
O128 C121 1.240 . S
O129 In117 2.326 . S
O129 C121 1.252 . S
In130 O131 2.294 1_545 S
In130 O132 2.326 1_545 S
In130 O136 2.266 . S
In130 O137 2.326 . S
In130 O138 2.266 . S
In130 O139 2.326 . S
In130 O141 2.294 1_545 S
In130 O142 2.326 1_545 S
O131 In130 2.294 1_565 S
O131 C140 1.240 . S
O132 In130 2.326 1_565 S
O132 C140 1.253 . S
C133 O136 1.252 . S
C133 O137 1.260 . S
C134 O141 1.240 . S
C134 O142 1.252 . S
C135 O138 1.252 . S
C135 O139 1.260 . S
O136 In130 2.266 . S
O136 C133 1.252 . S
O137 In130 2.326 . S
O137 C133 1.260 . S
O138 In130 2.266 . S
O138 C135 1.252 . S
O139 In130 2.326 . S
O139 C135 1.260 . S
C140 O131 1.240 . S
C140 O132 1.253 . S
O141 In130 2.294 1_565 S
O141 C134 1.240 . S
O142 In130 2.326 1_565 S
O142 C134 1.252 . S
In143 O144 2.294 . S
In143 O145 2.326 . S
In143 O149 2.266 1_554 S
In143 O150 2.326 1_554 S
In143 O151 2.266 . S
In143 O152 2.326 . S
In143 O154 2.294 . S
In143 O155 2.326 . S
O144 In143 2.294 . S
O144 C153 1.240 . S
O145 In143 2.326 . S
O145 C153 1.252 . S
C146 O149 1.252 . S
C146 O150 1.260 . S
C147 O154 1.240 . S
C147 O155 1.252 . S
C148 O151 1.252 . S
C148 O152 1.260 . S
O149 In143 2.266 1_556 S
O149 C146 1.252 . S
O150 In143 2.326 1_556 S
O150 C146 1.260 . S
O151 In143 2.266 . S
O151 C148 1.252 . S
O152 In143 2.326 . S
O152 C148 1.260 . S
C153 O144 1.240 . S
C153 O145 1.252 . S
O154 In143 2.294 . S
O154 C147 1.240 . S
O155 In143 2.326 . S
O155 C147 1.252 . S
In156 O157 2.294 . S
In156 O158 2.326 . S
In156 O162 2.266 1_554 S
In156 O163 2.326 1_554 S
In156 O164 2.266 . S
In156 O165 2.326 . S
In156 O167 2.294 . S
In156 O168 2.326 . S
O157 In156 2.294 . S
O157 C166 1.240 . S
O158 In156 2.326 . S
O158 C166 1.252 . S
C159 O162 1.252 . S
C159 O163 1.260 . S
C160 O167 1.240 . S
C160 O168 1.252 . S
C161 O164 1.252 . S
C161 O165 1.260 . S
O162 In156 2.266 1_556 S
O162 C159 1.252 . S
O163 In156 2.326 1_556 S
O163 C159 1.260 . S
O164 In156 2.266 . S
O164 C161 1.252 . S
O165 In156 2.326 . S
O165 C161 1.260 . S
C166 O157 1.240 . S
C166 O158 1.252 . S
O167 In156 2.294 . S
O167 C160 1.240 . S
O168 In156 2.326 . S
O168 C160 1.252 . S
In169 O170 2.294 . S
In169 O171 2.326 . S
In169 O175 2.266 . S
In169 O176 2.326 . S
In169 O177 2.258 1_554 S
In169 O178 2.326 1_554 S
In169 O180 2.294 . S
In169 O181 2.326 . S
O170 In169 2.294 . S
O170 C179 1.240 . S
O171 In169 2.326 . S
O171 C179 1.252 . S
C172 O175 1.252 . S
C172 O176 1.260 . S
C173 O180 1.240 . S
C173 O181 1.252 . S
C174 O177 1.262 . S
C174 O178 1.260 . S
O175 In169 2.266 . S
O175 C172 1.252 . S
O176 In169 2.326 . S
O176 C172 1.260 . S
O177 In169 2.258 1_556 S
O177 C174 1.262 . S
O178 In169 2.326 1_556 S
O178 C174 1.260 . S
C179 O170 1.240 . S
C179 O171 1.252 . S
O180 In169 2.294 . S
O180 C173 1.240 . S
O181 In169 2.326 . S
O181 C173 1.252 . S
In182 O183 2.294 . S
In182 O184 2.326 . S
In182 O188 2.266 . S
In182 O189 2.326 . S
In182 O190 2.266 . S
In182 O191 2.326 . S
In182 O193 2.294 . S
In182 O194 2.326 . S
O183 In182 2.294 . S
O183 C192 1.240 . S
O184 In182 2.326 . S
O184 C192 1.252 . S
C185 O188 1.252 . S
C185 O189 1.260 . S
C186 O193 1.240 . S
C186 O194 1.252 . S
C187 O190 1.252 . S
C187 O191 1.260 . S
O188 In182 2.266 . S
O188 C185 1.252 . S
O189 In182 2.326 . S
O189 C185 1.260 . S
O190 In182 2.266 . S
O190 C187 1.252 . S
O191 In182 2.326 . S
O191 C187 1.260 . S
C192 O183 1.240 . S
C192 O184 1.252 . S
O193 In182 2.294 . S
O193 C186 1.240 . S
O194 In182 2.326 . S
O194 C186 1.252 . S
In195 O196 2.294 . S
In195 O197 2.326 . S
In195 O201 2.266 . S
In195 O202 2.326 . S
In195 O203 2.266 . S
In195 O204 2.326 . S
In195 O206 2.294 . S
In195 O207 2.326 . S
O196 In195 2.294 . S
O196 C205 1.240 . S
O197 In195 2.326 . S
O197 C205 1.252 . S
C198 O201 1.252 . S
C198 O202 1.260 . S
C199 O206 1.240 . S
C199 O207 1.252 . S
C200 O203 1.252 . S
C200 O204 1.260 . S
O201 In195 2.266 . S
O201 C198 1.252 . S
O202 In195 2.326 . S
O202 C198 1.260 . S
O203 In195 2.266 . S
O203 C200 1.252 . S
O204 In195 2.326 . S
O204 C200 1.260 . S
C205 O196 1.240 . S
C205 O197 1.252 . S
O206 In195 2.294 . S
O206 C199 1.240 . S
O207 In195 2.326 . S
O207 C199 1.252 . S
In208 O209 2.294 . S
In208 O210 2.326 . S
In208 O214 2.266 . S
In208 O215 2.326 . S
In208 O216 2.266 . S
In208 O217 2.326 . S
In208 O219 2.294 . S
In208 O220 2.326 . S
O209 In208 2.294 . S
O209 C218 1.240 . S
O210 In208 2.326 . S
O210 C218 1.252 . S
C211 O214 1.252 . S
C211 O215 1.260 . S
C212 O219 1.240 . S
C212 O220 1.252 . S
C213 O216 1.252 . S
C213 O217 1.260 . S
O214 In208 2.266 . S
O214 C211 1.252 . S
O215 In208 2.326 . S
O215 C211 1.260 . S
O216 In208 2.266 . S
O216 C213 1.252 . S
O217 In208 2.326 . S
O217 C213 1.260 . S
C218 O209 1.240 . S
C218 O210 1.252 . S
O219 In208 2.294 . S
O219 C212 1.240 . S
O220 In208 2.326 . S
O220 C212 1.252 . S
In221 O222 2.294 . S
In221 O223 2.326 . S
In221 O227 2.266 . S
In221 O228 2.326 . S
In221 O229 2.266 . S
In221 O230 2.326 . S
In221 O232 2.294 . S
In221 O233 2.326 . S
O222 In221 2.294 . S
O222 C231 1.240 . S
O223 In221 2.326 . S
O223 C231 1.252 . S
C224 O227 1.252 . S
C224 O228 1.260 . S
C225 O232 1.240 . S
C225 O233 1.252 . S
C226 O229 1.252 . S
C226 O230 1.260 . S
O227 In221 2.266 . S
O227 C224 1.252 . S
O228 In221 2.326 . S
O228 C224 1.260 . S
O229 In221 2.266 . S
O229 C226 1.252 . S
O230 In221 2.326 . S
O230 C226 1.260 . S
C231 O222 1.240 . S
C231 O223 1.252 . S
O232 In221 2.294 . S
O232 C225 1.240 . S
O233 In221 2.326 . S
O233 C225 1.252 . S
In234 O235 2.294 . S
In234 O236 2.326 . S
In234 O240 2.266 . S
In234 O241 2.326 . S
In234 O242 2.266 . S
In234 O243 2.326 . S
In234 O245 2.294 . S
In234 O246 2.326 . S
O235 In234 2.294 . S
O235 C244 1.240 . S
O236 In234 2.326 . S
O236 C244 1.252 . S
C237 O240 1.252 . S
C237 O241 1.260 . S
C238 O245 1.240 . S
C238 O246 1.252 . S
C239 O242 1.252 . S
C239 O243 1.260 . S
O240 In234 2.266 . S
O240 C237 1.252 . S
O241 In234 2.326 . S
O241 C237 1.260 . S
O242 In234 2.266 . S
O242 C239 1.252 . S
O243 In234 2.326 . S
O243 C239 1.260 . S
C244 O235 1.240 . S
C244 O236 1.252 . S
O245 In234 2.294 . S
O245 C238 1.240 . S
O246 In234 2.326 . S
O246 C238 1.252 . S
In247 O248 2.294 . S
In247 O249 2.326 . S
In247 O253 2.266 . S
In247 O254 2.326 . S
In247 O255 2.266 . S
In247 O256 2.326 . S
In247 O258 2.294 . S
In247 O259 2.326 . S
O248 In247 2.294 . S
O248 C257 1.240 . S
O249 In247 2.326 . S
O249 C257 1.252 . S
C250 O253 1.252 . S
C250 O254 1.260 . S
C251 O258 1.240 . S
C251 O259 1.252 . S
C252 O255 1.252 . S
C252 O256 1.260 . S
O253 In247 2.266 . S
O253 C250 1.252 . S
O254 In247 2.326 . S
O254 C250 1.260 . S
O255 In247 2.266 . S
O255 C252 1.252 . S
O256 In247 2.326 . S
O256 C252 1.260 . S
C257 O248 1.240 . S
C257 O249 1.252 . S
O258 In247 2.294 . S
O258 C251 1.240 . S
O259 In247 2.326 . S
O259 C251 1.252 . S
In260 O261 2.294 . S
In260 O262 2.326 . S
In260 O266 2.266 . S
In260 O267 2.326 . S
In260 O268 2.266 1_554 S
In260 O269 2.326 1_554 S
In260 O271 2.294 . S
In260 O272 2.326 . S
O261 In260 2.294 . S
O261 C270 1.240 . S
O262 In260 2.326 . S
O262 C270 1.252 . S
C263 O266 1.252 . S
C263 O267 1.260 . S
C264 O271 1.240 . S
C264 O272 1.252 . S
C265 O268 1.252 . S
C265 O269 1.260 . S
O266 In260 2.266 . S
O266 C263 1.252 . S
O267 In260 2.326 . S
O267 C263 1.260 . S
O268 In260 2.266 1_556 S
O268 C265 1.252 . S
O269 In260 2.326 1_556 S
O269 C265 1.260 . S
C270 O261 1.240 . S
C270 O262 1.252 . S
O271 In260 2.294 . S
O271 C264 1.240 . S
O272 In260 2.326 . S
O272 C264 1.252 . S
In273 O274 2.294 . S
In273 O275 2.326 . S
In273 O279 2.266 . S
In273 O280 2.326 . S
In273 O281 2.266 . S
In273 O282 2.326 . S
In273 O284 2.294 . S
In273 O285 2.326 . S
O274 In273 2.294 . S
O274 C283 1.240 . S
O275 In273 2.326 . S
O275 C283 1.252 . S
C276 O279 1.252 . S
C276 O280 1.260 . S
C277 O284 1.240 . S
C277 O285 1.252 . S
C278 O281 1.252 . S
C278 O282 1.260 . S
O279 In273 2.266 . S
O279 C276 1.252 . S
O280 In273 2.326 . S
O280 C276 1.260 . S
O281 In273 2.266 . S
O281 C278 1.252 . S
O282 In273 2.326 . S
O282 C278 1.260 . S
C283 O274 1.240 . S
C283 O275 1.252 . S
O284 In273 2.294 . S
O284 C277 1.240 . S
O285 In273 2.326 . S
O285 C277 1.252 . S
In286 O287 2.294 . S
In286 O288 2.326 . S
In286 O292 2.266 . S
In286 O293 2.326 . S
In286 O294 2.266 . S
In286 O295 2.326 . S
In286 O297 2.294 . S
In286 O298 2.326 . S
O287 In286 2.294 . S
O287 C296 1.240 . S
O288 In286 2.326 . S
O288 C296 1.252 . S
C289 O292 1.252 . S
C289 O293 1.260 . S
C290 O297 1.240 . S
C290 O298 1.252 . S
C291 O294 1.252 . S
C291 O295 1.260 . S
O292 In286 2.266 . S
O292 C289 1.252 . S
O293 In286 2.326 . S
O293 C289 1.260 . S
O294 In286 2.266 . S
O294 C291 1.252 . S
O295 In286 2.326 . S
O295 C291 1.260 . S
C296 O287 1.240 . S
C296 O288 1.252 . S
O297 In286 2.294 . S
O297 C290 1.240 . S
O298 In286 2.326 . S
O298 C290 1.252 . S
In299 O300 2.294 . S
In299 O301 2.326 . S
In299 O305 2.266 . S
In299 O306 2.326 . S
In299 O307 2.266 . S
In299 O308 2.326 . S
In299 O310 2.294 . S
In299 O311 2.326 . S
O300 In299 2.294 . S
O300 C309 1.240 . S
O301 In299 2.326 . S
O301 C309 1.252 . S
C302 O305 1.252 . S
C302 O306 1.260 . S
C303 O310 1.240 . S
C303 O311 1.252 . S
C304 O307 1.252 . S
C304 O308 1.260 . S
O305 In299 2.266 . S
O305 C302 1.252 . S
O306 In299 2.326 . S
O306 C302 1.260 . S
O307 In299 2.266 . S
O307 C304 1.252 . S
O308 In299 2.326 . S
O308 C304 1.260 . S
C309 O300 1.240 . S
C309 O301 1.252 . S
O310 In299 2.294 . S
O310 C303 1.240 . S
O311 In299 2.326 . S
O311 C303 1.252 . S
Ho312 C315 2.811 1_455 S
Ho312 O332 2.322 . S
Ho312 O334 2.378 1_454 S
Ho312 O335 2.519 1_455 S
Ho312 O336 2.381 1_554 S
Ho312 O337 2.669 . S
Ho312 O339 2.346 . S
Ho312 O343 2.305 . S
Ho313 C324 2.811 . S
Ho313 O333 2.346 . S
Ho313 O337 2.305 . S
Ho313 O338 2.322 . S
Ho313 O340 2.378 . S
Ho313 O341 2.524 . S
Ho313 O342 2.381 . S
Ho313 O343 2.669 . S
C314 O332 1.259 . S
C314 O333 1.268 . S
C315 Ho312 2.811 1_655 S
C315 C316 1.488 . S
C315 O334 1.215 1_554 S
C315 O335 1.291 . S
C316 C315 1.488 . S
C316 C317 1.348 . S
C316 C321 1.413 1_554 S
C317 C316 1.348 . S
C317 C318 1.442 . S
C317 H344 0.930 . S
C318 C317 1.442 . S
C318 C319 1.381 1_554 S
C318 H345 0.931 . S
C319 C318 1.381 1_556 S
C319 C320 1.321 . S
C320 C319 1.321 . S
C320 C321 1.403 . S
C320 H346 0.934 . S
C321 C316 1.413 1_556 S
C321 C320 1.403 . S
C321 H347 0.930 . S
C322 O336 1.275 . S
C322 O337 1.256 1_556 S
C323 O338 1.259 . S
C323 O339 1.268 . S
C324 Ho313 2.811 . S
C324 C325 1.488 . S
C324 O340 1.215 . S
C324 O341 1.289 . S
C325 C324 1.488 . S
C325 C326 1.348 . S
C325 C330 1.413 . S
C326 C325 1.348 . S
C326 C327 1.442 . S
C326 H348 0.930 . S
C327 C326 1.442 . S
C327 C328 1.381 . S
C327 H349 0.905 1_545 S
C328 C327 1.381 . S
C328 C329 1.321 . S
C329 C328 1.321 . S
C329 C330 1.403 . S
C329 H350 0.934 . S
C330 C325 1.413 . S
C330 C329 1.403 . S
C330 H351 0.930 . S
C331 O342 1.275 . S
C331 O343 1.256 . S
O332 Ho312 2.322 . S
O332 C314 1.259 . S
O333 Ho313 2.346 . S
O333 C314 1.268 . S
O334 Ho312 2.378 1_656 S
O334 C315 1.215 1_556 S
O335 Ho312 2.519 1_655 S
O335 C315 1.291 . S
O336 Ho312 2.381 1_556 S
O336 C322 1.275 . S
O337 Ho312 2.669 . S
O337 Ho313 2.305 . S
O337 C322 1.256 1_554 S
O338 Ho313 2.322 . S
O338 C323 1.259 . S
O339 Ho312 2.346 . S
O339 C323 1.268 . S
O340 Ho313 2.378 . S
O340 C324 1.215 . S
O341 Ho313 2.524 . S
O341 C324 1.289 . S
O342 Ho313 2.381 . S
O342 C331 1.275 . S
O343 Ho312 2.305 . S
O343 Ho313 2.669 . S
O343 C331 1.256 . S
H344 C317 0.930 . S
H345 C318 0.931 . S
H346 C320 0.934 . S
H347 C321 0.930 . S
H348 C326 0.930 . S
H349 C327 0.905 1_565 S
H350 C329 0.934 . S
H351 C330 0.930 . S
Ho352 C355 2.811 . S
Ho352 O372 2.322 . S
Ho352 O374 2.378 . S
Ho352 O375 2.524 . S
Ho352 O376 2.381 . S
Ho352 O377 2.669 . S
Ho352 O379 2.346 . S
Ho352 O383 2.305 . S
Ho353 C364 2.811 . S
Ho353 O373 2.346 . S
Ho353 O377 2.305 . S
Ho353 O378 2.322 . S
Ho353 O380 2.378 . S
Ho353 O381 2.524 . S
Ho353 O382 2.381 . S
Ho353 O383 2.669 . S
C354 O372 1.259 . S
C354 O373 1.268 . S
C355 Ho352 2.811 . S
C355 C356 1.488 . S
C355 O374 1.215 . S
C355 O375 1.289 . S
C356 C355 1.488 . S
C356 C357 1.348 . S
C356 C361 1.413 . S
C357 C356 1.348 . S
C357 C358 1.442 . S
C357 H384 0.930 . S
C358 C357 1.442 . S
C358 C359 1.381 . S
C358 H385 0.931 . S
C359 C358 1.381 . S
C359 C360 1.321 . S
C360 C359 1.321 . S
C360 C361 1.403 . S
C360 H386 0.934 . S
C361 C356 1.413 . S
C361 C360 1.403 . S
C361 H387 0.930 . S
C362 O376 1.275 . S
C362 O377 1.256 . S
C363 O378 1.259 . S
C363 O379 1.268 . S
C364 Ho353 2.811 . S
C364 C365 1.488 . S
C364 O380 1.215 . S
C364 O381 1.289 . S
C365 C364 1.488 . S
C365 C366 1.348 . S
C365 C370 1.413 . S
C366 C365 1.348 . S
C366 C367 1.442 . S
C366 H388 0.930 . S
C367 C366 1.442 . S
C367 C368 1.381 . S
C367 H389 0.931 . S
C368 C367 1.381 . S
C368 C369 1.321 . S
C369 C368 1.321 . S
C369 C370 1.403 . S
C369 H390 0.934 . S
C370 C365 1.413 . S
C370 C369 1.403 . S
C370 H391 0.930 . S
C371 O382 1.275 . S
C371 O383 1.256 . S
O372 Ho352 2.322 . S
O372 C354 1.259 . S
O373 Ho353 2.346 . S
O373 C354 1.268 . S
O374 Ho352 2.378 . S
O374 C355 1.215 . S
O375 Ho352 2.524 . S
O375 C355 1.289 . S
O376 Ho352 2.381 . S
O376 C362 1.275 . S
O377 Ho352 2.669 . S
O377 Ho353 2.305 . S
O377 C362 1.256 . S
O378 Ho353 2.322 . S
O378 C363 1.259 . S
O379 Ho352 2.346 . S
O379 C363 1.268 . S
O380 Ho353 2.378 . S
O380 C364 1.215 . S
O381 Ho353 2.524 . S
O381 C364 1.289 . S
O382 Ho353 2.381 . S
O382 C371 1.275 . S
O383 Ho352 2.305 . S
O383 Ho353 2.669 . S
O383 C371 1.256 . S
H384 C357 0.930 . S
H385 C358 0.931 . S
H386 C360 0.934 . S
H387 C361 0.930 . S
H388 C366 0.930 . S
H389 C367 0.931 . S
H390 C369 0.934 . S
H391 C370 0.930 . S
Ho392 C395 2.811 . S
Ho392 O412 2.322 1_545 S
Ho392 O414 2.378 . S
Ho392 O415 2.524 . S
Ho392 O416 2.381 . S
Ho392 O417 2.669 . S
Ho392 O419 2.346 . S
Ho392 O423 2.305 . S
Ho393 C404 2.811 . S
Ho393 O413 2.346 1_545 S
Ho393 O417 2.305 . S
Ho393 O418 2.322 . S
Ho393 O420 2.378 . S
Ho393 O421 2.524 . S
Ho393 O422 2.381 . S
Ho393 O423 2.669 . S
C394 O412 1.259 . S
C394 O413 1.268 . S
C395 Ho392 2.811 . S
C395 C396 1.488 1_545 S
C395 O414 1.215 . S
C395 O415 1.289 . S
C396 C395 1.488 1_565 S
C396 C397 1.348 . S
C396 C401 1.413 . S
C397 C396 1.348 . S
C397 C398 1.442 . S
C397 H424 0.930 . S
C398 C397 1.442 . S
C398 C399 1.381 . S
C398 H425 0.931 . S
C399 C398 1.381 . S
C399 C400 1.321 . S
C400 C399 1.321 . S
C400 C401 1.403 . S
C400 H426 0.934 . S
C401 C396 1.413 . S
C401 C400 1.403 . S
C401 H427 0.930 . S
C402 O416 1.275 . S
C402 O417 1.256 . S
C403 O418 1.259 . S
C403 O419 1.268 . S
C404 Ho393 2.811 . S
C404 C405 1.488 . S
C404 O420 1.215 . S
C404 O421 1.289 . S
C405 C404 1.488 . S
C405 C406 1.348 . S
C405 C410 1.413 . S
C406 C405 1.348 . S
C406 C407 1.442 . S
C406 H428 0.930 . S
C407 C406 1.442 . S
C407 C408 1.381 . S
C407 H429 0.931 . S
C408 C407 1.381 . S
C408 C409 1.321 . S
C409 C408 1.321 . S
C409 C410 1.403 . S
C409 H430 0.934 . S
C410 C405 1.413 . S
C410 C409 1.403 . S
C410 H431 0.930 . S
C411 O422 1.275 . S
C411 O423 1.256 . S
O412 Ho392 2.322 1_565 S
O412 C394 1.259 . S
O413 Ho393 2.346 1_565 S
O413 C394 1.268 . S
O414 Ho392 2.378 . S
O414 C395 1.215 . S
O415 Ho392 2.524 . S
O415 C395 1.289 . S
O416 Ho392 2.381 . S
O416 C402 1.275 . S
O417 Ho392 2.669 . S
O417 Ho393 2.305 . S
O417 C402 1.256 . S
O418 Ho393 2.322 . S
O418 C403 1.259 . S
O419 Ho392 2.346 . S
O419 C403 1.268 . S
O420 Ho393 2.378 . S
O420 C404 1.215 . S
O421 Ho393 2.524 . S
O421 C404 1.289 . S
O422 Ho393 2.381 . S
O422 C411 1.275 . S
O423 Ho392 2.305 . S
O423 Ho393 2.669 . S
O423 C411 1.256 . S
H424 C397 0.930 . S
H425 C398 0.931 . S
H426 C400 0.934 . S
H427 C401 0.930 . S
H428 C406 0.930 . S
H429 C407 0.931 . S
H430 C409 0.934 . S
H431 C410 0.930 . S
Ho432 C435 2.811 . S
Ho432 O452 2.322 . S
Ho432 O454 2.378 . S
Ho432 O455 2.524 . S
Ho432 O456 2.381 . S
Ho432 O457 2.669 . S
Ho432 O459 2.346 . S
Ho432 O463 2.305 . S
Ho433 C444 2.811 . S
Ho433 O453 2.346 . S
Ho433 O457 2.305 . S
Ho433 O458 2.322 . S
Ho433 O460 2.378 . S
Ho433 O461 2.524 . S
Ho433 O462 2.381 . S
Ho433 O463 2.669 . S
C434 O452 1.259 . S
C434 O453 1.268 . S
C435 Ho432 2.811 . S
C435 C436 1.488 . S
C435 O454 1.215 . S
C435 O455 1.289 . S
C436 C435 1.488 . S
C436 C437 1.348 . S
C436 C441 1.413 . S
C437 C436 1.348 . S
C437 C438 1.442 . S
C437 H464 0.930 . S
C438 C437 1.442 . S
C438 C439 1.381 . S
C438 H465 0.931 . S
C439 C438 1.381 . S
C439 C440 1.321 . S
C440 C439 1.321 . S
C440 C441 1.403 . S
C440 H466 0.934 . S
C441 C436 1.413 . S
C441 C440 1.403 . S
C441 H467 0.930 . S
C442 O456 1.275 . S
C442 O457 1.256 . S
C443 O458 1.259 . S
C443 O459 1.268 . S
C444 Ho433 2.811 . S
C444 C445 1.488 . S
C444 O460 1.215 . S
C444 O461 1.289 . S
C445 C444 1.488 . S
C445 C446 1.348 . S
C445 C450 1.413 . S
C446 C445 1.348 . S
C446 C447 1.442 . S
C446 H468 0.930 . S
C447 C446 1.442 . S
C447 C448 1.381 . S
C447 H469 0.931 . S
C448 C447 1.381 . S
C448 C449 1.321 . S
C449 C448 1.321 . S
C449 C450 1.403 . S
C449 H470 0.934 . S
C450 C445 1.413 . S
C450 C449 1.403 . S
C450 H471 0.930 . S
C451 O462 1.275 . S
C451 O463 1.256 . S
O452 Ho432 2.322 . S
O452 C434 1.259 . S
O453 Ho433 2.346 . S
O453 C434 1.268 . S
O454 Ho432 2.378 . S
O454 C435 1.215 . S
O455 Ho432 2.524 . S
O455 C435 1.289 . S
O456 Ho432 2.381 . S
O456 C442 1.275 . S
O457 Ho432 2.669 . S
O457 Ho433 2.305 . S
O457 C442 1.256 . S
O458 Ho433 2.322 . S
O458 C443 1.259 . S
O459 Ho432 2.346 . S
O459 C443 1.268 . S
O460 Ho433 2.378 . S
O460 C444 1.215 . S
O461 Ho433 2.524 . S
O461 C444 1.289 . S
O462 Ho433 2.381 . S
O462 C451 1.275 . S
O463 Ho432 2.305 . S
O463 Ho433 2.669 . S
O463 C451 1.256 . S
H464 C437 0.930 . S
H465 C438 0.931 . S
H466 C440 0.934 . S
H467 C441 0.930 . S
H468 C446 0.930 . S
H469 C447 0.931 . S
H470 C449 0.934 . S
H471 C450 0.930 . S
Ho472 C475 2.811 . S
Ho472 O492 2.322 . S
Ho472 O494 2.378 . S
Ho472 O495 2.524 . S
Ho472 O496 2.381 . S
Ho472 O497 2.669 . S
Ho472 O499 2.346 . S
Ho472 O503 2.305 . S
Ho473 C484 2.811 . S
Ho473 O493 2.346 1_565 S
Ho473 O497 2.305 1_565 S
Ho473 O498 2.322 1_565 S
Ho473 O500 2.378 . S
Ho473 O501 2.524 . S
Ho473 O502 2.381 1_565 S
Ho473 O503 2.669 1_565 S
C474 O492 1.259 . S
C474 O493 1.268 . S
C475 Ho472 2.811 . S
C475 C476 1.488 . S
C475 O494 1.215 . S
C475 O495 1.289 . S
C476 C475 1.488 . S
C476 C477 1.348 . S
C476 C481 1.413 . S
C477 C476 1.348 . S
C477 C478 1.442 . S
C477 H504 0.930 . S
C478 C477 1.442 . S
C478 C479 1.381 . S
C478 H505 0.931 . S
C479 C478 1.381 . S
C479 C480 1.321 . S
C480 C479 1.321 . S
C480 C481 1.403 . S
C480 H506 0.934 . S
C481 C476 1.413 . S
C481 C480 1.403 . S
C481 H507 0.930 . S
C482 O496 1.275 . S
C482 O497 1.256 . S
C483 O498 1.259 . S
C483 O499 1.268 . S
C484 Ho473 2.811 . S
C484 C485 1.488 . S
C484 O500 1.215 . S
C484 O501 1.289 . S
C485 C484 1.488 . S
C485 C486 1.348 . S
C485 C490 1.413 . S
C486 C485 1.348 . S
C486 C487 1.442 . S
C486 H508 0.930 . S
C487 C486 1.442 . S
C487 C488 1.381 . S
C487 H509 0.931 . S
C488 C487 1.381 . S
C488 C489 1.321 . S
C489 C488 1.321 . S
C489 C490 1.403 . S
C489 H510 0.934 . S
C490 C485 1.413 . S
C490 C489 1.403 . S
C490 H511 0.930 . S
C491 O502 1.275 . S
C491 O503 1.256 . S
O492 Ho472 2.322 . S
O492 C474 1.259 . S
O493 Ho473 2.346 1_545 S
O493 C474 1.268 . S
O494 Ho472 2.378 . S
O494 C475 1.215 . S
O495 Ho472 2.524 . S
O495 C475 1.289 . S
O496 Ho472 2.381 . S
O496 C482 1.275 . S
O497 Ho472 2.669 . S
O497 Ho473 2.305 1_545 S
O497 C482 1.256 . S
O498 Ho473 2.322 1_545 S
O498 C483 1.259 . S
O499 Ho472 2.346 . S
O499 C483 1.268 . S
O500 Ho473 2.378 . S
O500 C484 1.215 . S
O501 Ho473 2.524 . S
O501 C484 1.289 . S
O502 Ho473 2.381 1_545 S
O502 C491 1.275 . S
O503 Ho472 2.305 . S
O503 Ho473 2.669 1_545 S
O503 C491 1.256 . S
H504 C477 0.930 . S
H505 C478 0.931 . S
H506 C480 0.934 . S
H507 C481 0.930 . S
H508 C486 0.930 . S
H509 C487 0.931 . S
H510 C489 0.934 . S
H511 C490 0.930 . S
Ho512 C515 2.811 . S
Ho512 O532 2.322 . S
Ho512 O534 2.378 . S
Ho512 O535 2.524 . S
Ho512 O536 2.381 . S
Ho512 O537 2.669 . S
Ho512 O539 2.346 . S
Ho512 O543 2.305 . S
Ho513 C524 2.811 . S
Ho513 O533 2.346 . S
Ho513 O537 2.305 . S
Ho513 O538 2.322 . S
Ho513 O540 2.378 . S
Ho513 O541 2.524 . S
Ho513 O542 2.381 . S
Ho513 O543 2.669 . S
C514 O532 1.259 . S
C514 O533 1.268 . S
C515 Ho512 2.811 . S
C515 C516 1.488 . S
C515 O534 1.215 . S
C515 O535 1.289 . S
C516 C515 1.488 . S
C516 C517 1.348 . S
C516 C521 1.413 . S
C517 C516 1.348 . S
C517 C518 1.442 . S
C517 H544 0.930 . S
C518 C517 1.442 . S
C518 C519 1.381 . S
C518 H545 0.931 . S
C519 C518 1.381 . S
C519 C520 1.321 . S
C520 C519 1.321 . S
C520 C521 1.403 . S
C520 H546 0.934 . S
C521 C516 1.413 . S
C521 C520 1.403 . S
C521 H547 0.930 . S
C522 O536 1.275 . S
C522 O537 1.256 . S
C523 O538 1.259 . S
C523 O539 1.268 . S
C524 Ho513 2.811 . S
C524 C525 1.488 . S
C524 O540 1.215 . S
C524 O541 1.289 . S
C525 C524 1.488 . S
C525 C526 1.348 . S
C525 C530 1.413 . S
C526 C525 1.348 . S
C526 C527 1.442 . S
C526 H548 0.930 . S
C527 C526 1.442 . S
C527 C528 1.381 . S
C527 H549 0.931 . S
C528 C527 1.381 . S
C528 C529 1.321 . S
C529 C528 1.321 . S
C529 C530 1.403 . S
C529 H550 0.934 . S
C530 C525 1.413 . S
C530 C529 1.403 . S
C530 H551 0.930 . S
C531 O542 1.275 . S
C531 O543 1.256 . S
O532 Ho512 2.322 . S
O532 C514 1.259 . S
O533 Ho513 2.346 . S
O533 C514 1.268 . S
O534 Ho512 2.378 . S
O534 C515 1.215 . S
O535 Ho512 2.524 . S
O535 C515 1.289 . S
O536 Ho512 2.381 . S
O536 C522 1.275 . S
O537 Ho512 2.669 . S
O537 Ho513 2.305 . S
O537 C522 1.256 . S
O538 Ho513 2.322 . S
O538 C523 1.259 . S
O539 Ho512 2.346 . S
O539 C523 1.268 . S
O540 Ho513 2.378 . S
O540 C524 1.215 . S
O541 Ho513 2.524 . S
O541 C524 1.289 . S
O542 Ho513 2.381 . S
O542 C531 1.275 . S
O543 Ho512 2.305 . S
O543 Ho513 2.669 . S
O543 C531 1.256 . S
H544 C517 0.930 . S
H545 C518 0.931 . S
H546 C520 0.934 . S
H547 C521 0.930 . S
H548 C526 0.930 . S
H549 C527 0.931 . S
H550 C529 0.934 . S
H551 C530 0.930 . S
Ho552 C555 2.811 . S
Ho552 O572 2.322 . S
Ho552 O574 2.378 . S
Ho552 O575 2.524 . S
Ho552 O576 2.381 . S
Ho552 O577 2.669 1_554 S
Ho552 O579 2.346 . S
Ho552 O583 2.305 . S
Ho553 C564 2.811 . S
Ho553 O573 2.346 . S
Ho553 O577 2.305 . S
Ho553 O578 2.322 . S
Ho553 O580 2.378 . S
Ho553 O581 2.524 . S
Ho553 O582 2.381 . S
Ho553 O583 2.669 1_556 S
C554 O572 1.259 . S
C554 O573 1.268 1_554 S
C555 Ho552 2.811 . S
C555 C556 1.488 . S
C555 O574 1.215 . S
C555 O575 1.289 . S
C556 C555 1.488 . S
C556 C557 1.348 . S
C556 C561 1.413 . S
C557 C556 1.348 . S
C557 C558 1.442 . S
C557 H584 0.930 . S
C558 C557 1.442 . S
C558 C559 1.381 . S
C558 H585 0.931 . S
C559 C558 1.381 . S
C559 C560 1.321 1_545 S
C560 C559 1.321 1_565 S
C560 C561 1.403 1_565 S
C560 H586 0.934 . S
C561 C556 1.413 . S
C561 C560 1.403 1_545 S
C561 H587 0.930 1_545 S
C562 O576 1.275 1_556 S
C562 O577 1.256 . S
C563 O578 1.259 1_554 S
C563 O579 1.268 . S
C564 Ho553 2.811 . S
C564 C565 1.488 . S
C564 O580 1.215 . S
C564 O581 1.289 . S
C565 C564 1.488 . S
C565 C566 1.348 . S
C565 C570 1.413 . S
C566 C565 1.348 . S
C566 C567 1.442 . S
C566 H588 0.930 . S
C567 C566 1.442 . S
C567 C568 1.381 . S
C567 H589 0.931 . S
C568 C567 1.381 . S
C568 C569 1.321 . S
C569 C568 1.321 . S
C569 C570 1.403 . S
C569 H590 0.934 . S
C570 C565 1.413 . S
C570 C569 1.403 . S
C570 H591 0.930 . S
C571 O582 1.275 1_554 S
C571 O583 1.256 . S
O572 Ho552 2.322 . S
O572 C554 1.259 . S
O573 Ho553 2.346 . S
O573 C554 1.268 1_556 S
O574 Ho552 2.378 . S
O574 C555 1.215 . S
O575 Ho552 2.524 . S
O575 C555 1.289 . S
O576 Ho552 2.381 . S
O576 C562 1.275 1_554 S
O577 Ho552 2.669 1_556 S
O577 Ho553 2.305 . S
O577 C562 1.256 . S
O578 Ho553 2.322 . S
O578 C563 1.259 1_556 S
O579 Ho552 2.346 . S
O579 C563 1.268 . S
O580 Ho553 2.378 . S
O580 C564 1.215 . S
O581 Ho553 2.524 . S
O581 C564 1.289 . S
O582 Ho553 2.381 . S
O582 C571 1.275 1_556 S
O583 Ho552 2.305 . S
O583 Ho553 2.669 1_554 S
O583 C571 1.256 . S
H584 C557 0.930 . S
H585 C558 0.931 . S
H586 C560 0.934 . S
H587 C561 0.930 1_565 S
H588 C566 0.930 . S
H589 C567 0.931 . S
H590 C569 0.934 . S
H591 C570 0.930 . S
Ho592 C595 2.811 . S
Ho592 O612 2.322 . S
Ho592 O614 2.378 . S
Ho592 O615 2.524 . S
Ho592 O616 2.381 . S
Ho592 O617 2.669 . S
Ho592 O619 2.346 . S
Ho592 O623 2.305 . S
Ho593 C604 2.811 . S
Ho593 O613 2.346 . S
Ho593 O617 2.305 . S
Ho593 O618 2.322 . S
Ho593 O620 2.378 . S
Ho593 O621 2.524 . S
Ho593 O622 2.381 . S
Ho593 O623 2.669 . S
C594 O612 1.259 . S
C594 O613 1.268 . S
C595 Ho592 2.811 . S
C595 C596 1.488 . S
C595 O614 1.215 . S
C595 O615 1.289 . S
C596 C595 1.488 . S
C596 C597 1.348 . S
C596 C601 1.413 . S
C597 C596 1.348 . S
C597 C598 1.442 . S
C597 H624 0.930 . S
C598 C597 1.442 . S
C598 C599 1.381 . S
C598 H625 0.931 . S
C599 C598 1.381 . S
C599 C600 1.321 . S
C600 C599 1.321 . S
C600 C601 1.403 . S
C600 H626 0.934 . S
C601 C596 1.413 . S
C601 C600 1.403 . S
C601 H627 0.930 . S
C602 O616 1.275 . S
C602 O617 1.256 . S
C603 O618 1.259 . S
C603 O619 1.268 . S
C604 Ho593 2.811 . S
C604 C605 1.488 . S
C604 O620 1.215 . S
C604 O621 1.289 . S
C605 C604 1.488 . S
C605 C606 1.348 . S
C605 C610 1.413 . S
C606 C605 1.348 . S
C606 C607 1.442 . S
C606 H628 0.930 . S
C607 C606 1.442 . S
C607 C608 1.381 . S
C607 H629 0.931 . S
C608 C607 1.381 . S
C608 C609 1.321 . S
C609 C608 1.321 . S
C609 C610 1.403 . S
C609 H630 0.934 . S
C610 C605 1.413 . S
C610 C609 1.403 . S
C610 H631 0.930 . S
C611 O622 1.275 . S
C611 O623 1.256 . S
O612 Ho592 2.322 . S
O612 C594 1.259 . S
O613 Ho593 2.346 . S
O613 C594 1.268 . S
O614 Ho592 2.378 . S
O614 C595 1.215 . S
O615 Ho592 2.524 . S
O615 C595 1.289 . S
O616 Ho592 2.381 . S
O616 C602 1.275 . S
O617 Ho592 2.669 . S
O617 Ho593 2.305 . S
O617 C602 1.256 . S
O618 Ho593 2.322 . S
O618 C603 1.259 . S
O619 Ho592 2.346 . S
O619 C603 1.268 . S
O620 Ho593 2.378 . S
O620 C604 1.215 . S
O621 Ho593 2.524 . S
O621 C604 1.289 . S
O622 Ho593 2.381 . S
O622 C611 1.275 . S
O623 Ho592 2.305 . S
O623 Ho593 2.669 . S
O623 C611 1.256 . S
H624 C597 0.930 . S
H625 C598 0.931 . S
H626 C600 0.934 . S
H627 C601 0.930 . S
H628 C606 0.930 . S
H629 C607 0.931 . S
H630 C609 0.934 . S
H631 C610 0.930 . S
Ho632 C635 2.811 1_554 S
Ho632 O652 2.322 1_554 S
Ho632 O654 2.378 . S
Ho632 O655 2.524 1_554 S
Ho632 O656 2.381 . S
Ho632 O657 2.669 . S
Ho632 O659 2.346 . S
Ho632 O663 2.305 . S
Ho633 C644 2.811 1_556 S
Ho633 O653 2.346 . S
Ho633 O657 2.305 1_556 S
Ho633 O658 2.322 1_556 S
Ho633 O660 2.378 1_556 S
Ho633 O661 2.524 1_556 S
Ho633 O662 2.381 . S
Ho633 O663 2.669 1_556 S
C634 O652 1.259 . S
C634 O653 1.268 . S
C635 Ho632 2.811 1_556 S
C635 C636 1.488 . S
C635 O654 1.215 1_556 S
C635 O655 1.289 . S
C636 C635 1.488 . S
C636 C637 1.348 . S
C636 C641 1.413 . S
C637 C636 1.348 . S
C637 C638 1.442 . S
C637 H664 0.930 . S
C638 C637 1.442 . S
C638 C639 1.381 . S
C638 H665 0.931 . S
C639 C638 1.381 . S
C639 C640 1.321 . S
C640 C639 1.321 . S
C640 C641 1.403 . S
C640 H666 0.934 . S
C641 C636 1.413 . S
C641 C640 1.403 . S
C641 H667 0.930 . S
C642 O656 1.275 . S
C642 O657 1.256 . S
C643 O658 1.259 . S
C643 O659 1.268 . S
C644 Ho633 2.811 1_554 S
C644 C645 1.488 . S
C644 O660 1.215 . S
C644 O661 1.289 . S
C645 C644 1.488 . S
C645 C646 1.348 . S
C645 C650 1.413 . S
C646 C645 1.348 . S
C646 C647 1.442 . S
C646 H668 0.930 . S
C647 C646 1.442 . S
C647 C648 1.381 . S
C647 H669 0.931 . S
C648 C647 1.381 . S
C648 C649 1.321 . S
C649 C648 1.321 . S
C649 C650 1.403 . S
C649 H670 0.934 . S
C650 C645 1.413 . S
C650 C649 1.403 . S
C650 H671 0.930 . S
C651 O662 1.275 1_554 S
C651 O663 1.265 . S
O652 Ho632 2.322 1_556 S
O652 C634 1.259 . S
O653 Ho633 2.346 . S
O653 C634 1.268 . S
O654 Ho632 2.378 . S
O654 C635 1.215 1_554 S
O655 Ho632 2.524 1_556 S
O655 C635 1.289 . S
O656 Ho632 2.381 . S
O656 C642 1.275 . S
O657 Ho632 2.669 . S
O657 Ho633 2.305 1_554 S
O657 C642 1.256 . S
O658 Ho633 2.322 1_554 S
O658 C643 1.259 . S
O659 Ho632 2.346 . S
O659 C643 1.268 . S
O660 Ho633 2.378 1_554 S
O660 C644 1.215 . S
O661 Ho633 2.524 1_554 S
O661 C644 1.289 . S
O662 Ho633 2.381 . S
O662 C651 1.275 1_556 S
O663 Ho632 2.305 . S
O663 Ho633 2.669 1_554 S
O663 C651 1.265 . S
H664 C637 0.930 . S
H665 C638 0.931 . S
H666 C640 0.934 . S
H667 C641 0.930 . S
H668 C646 0.930 . S
H669 C647 0.931 . S
H670 C649 0.934 . S
H671 C650 0.930 . S
Ho672 C675 2.811 . S
Ho672 O692 2.322 . S
Ho672 O694 2.378 . S
Ho672 O695 2.524 . S
Ho672 O696 2.381 . S
Ho672 O697 2.669 . S
Ho672 O699 2.346 . S
Ho672 O703 2.305 . S
Ho673 C684 2.811 . S
Ho673 O693 2.346 . S
Ho673 O697 2.305 . S
Ho673 O698 2.322 . S
Ho673 O700 2.378 . S
Ho673 O701 2.524 . S
Ho673 O702 2.381 . S
Ho673 O703 2.669 . S
C674 O692 1.259 . S
C674 O693 1.268 . S
C675 Ho672 2.811 . S
C675 C676 1.488 . S
C675 O694 1.215 . S
C675 O695 1.289 . S
C676 C675 1.488 . S
C676 C677 1.348 . S
C676 C681 1.413 . S
C677 C676 1.348 . S
C677 C678 1.442 . S
C677 H704 0.930 . S
C678 C677 1.442 . S
C678 C679 1.381 . S
C678 H705 0.931 . S
C679 C678 1.381 . S
C679 C680 1.321 . S
C680 C679 1.321 . S
C680 C681 1.403 . S
C680 H706 0.934 . S
C681 C676 1.413 . S
C681 C680 1.403 . S
C681 H707 0.930 . S
C682 O696 1.275 . S
C682 O697 1.256 . S
C683 O698 1.259 . S
C683 O699 1.268 . S
C684 Ho673 2.811 . S
C684 C685 1.488 . S
C684 O700 1.215 . S
C684 O701 1.289 . S
C685 C684 1.488 . S
C685 C686 1.348 . S
C685 C690 1.413 . S
C686 C685 1.348 . S
C686 C687 1.442 . S
C686 H708 0.930 . S
C687 C686 1.442 . S
C687 C688 1.381 . S
C687 H709 0.931 . S
C688 C687 1.381 . S
C688 C689 1.321 . S
C689 C688 1.321 . S
C689 C690 1.403 . S
C689 H710 0.934 . S
C690 C685 1.413 . S
C690 C689 1.403 . S
C690 H711 0.930 . S
C691 O702 1.275 . S
C691 O703 1.256 . S
O692 Ho672 2.322 . S
O692 C674 1.259 . S
O693 Ho673 2.346 . S
O693 C674 1.268 . S
O694 Ho672 2.378 . S
O694 C675 1.215 . S
O695 Ho672 2.524 . S
O695 C675 1.289 . S
O696 Ho672 2.381 . S
O696 C682 1.275 . S
O697 Ho672 2.669 . S
O697 Ho673 2.305 . S
O697 C682 1.256 . S
O698 Ho673 2.322 . S
O698 C683 1.259 . S
O699 Ho672 2.346 . S
O699 C683 1.268 . S
O700 Ho673 2.378 . S
O700 C684 1.215 . S
O701 Ho673 2.524 . S
O701 C684 1.289 . S
O702 Ho673 2.381 . S
O702 C691 1.275 . S
O703 Ho672 2.305 . S
O703 Ho673 2.669 . S
O703 C691 1.256 . S
H704 C677 0.930 . S
H705 C678 0.931 . S
H706 C680 0.934 . S
H707 C681 0.930 . S
H708 C686 0.930 . S
H709 C687 0.931 . S
H710 C689 0.934 . S
H711 C690 0.930 . S
Ho712 C715 2.811 . S
Ho712 O732 2.322 1_455 S
Ho712 O734 2.378 . S
Ho712 O735 2.524 . S
Ho712 O736 2.381 . S
Ho712 O737 2.669 . S
Ho712 O739 2.346 . S
Ho712 O743 2.305 . S
Ho713 C724 2.811 . S
Ho713 O733 2.346 1_455 S
Ho713 O737 2.305 . S
Ho713 O738 2.322 . S
Ho713 O740 2.378 . S
Ho713 O741 2.524 . S
Ho713 O742 2.381 . S
Ho713 O743 2.669 . S
C714 O732 1.259 . S
C714 O733 1.268 . S
C715 Ho712 2.811 . S
C715 C716 1.488 1_455 S
C715 O734 1.215 . S
C715 O735 1.289 . S
C716 C715 1.488 1_655 S
C716 C717 1.348 . S
C716 C721 1.413 . S
C717 C716 1.348 . S
C717 C718 1.442 . S
C717 H744 0.930 . S
C718 C717 1.442 . S
C718 C719 1.381 . S
C718 H745 0.931 . S
C719 C718 1.381 . S
C719 C720 1.321 . S
C720 C719 1.321 . S
C720 C721 1.403 . S
C720 H746 0.934 . S
C721 C716 1.413 . S
C721 C720 1.403 . S
C721 H747 0.930 1_655 S
C722 O736 1.275 . S
C722 O737 1.256 . S
C723 O738 1.259 . S
C723 O739 1.268 . S
C724 Ho713 2.811 . S
C724 C725 1.488 . S
C724 O740 1.215 . S
C724 O741 1.289 . S
C725 C724 1.488 . S
C725 C726 1.348 . S
C725 C730 1.413 . S
C726 C725 1.348 . S
C726 C727 1.442 . S
C726 H748 0.930 . S
C727 C726 1.442 . S
C727 C728 1.381 . S
C727 H749 0.931 . S
C728 C727 1.381 . S
C728 C729 1.321 . S
C729 C728 1.321 . S
C729 C730 1.403 . S
C729 H750 0.934 . S
C730 C725 1.413 . S
C730 C729 1.403 . S
C730 H751 0.930 . S
C731 O742 1.275 . S
C731 O743 1.256 . S
O732 Ho712 2.322 1_655 S
O732 C714 1.259 . S
O733 Ho713 2.346 1_655 S
O733 C714 1.268 . S
O734 Ho712 2.378 . S
O734 C715 1.215 . S
O735 Ho712 2.524 . S
O735 C715 1.289 . S
O736 Ho712 2.381 . S
O736 C722 1.275 . S
O737 Ho712 2.669 . S
O737 Ho713 2.305 . S
O737 C722 1.256 . S
O738 Ho713 2.322 . S
O738 C723 1.259 . S
O739 Ho712 2.346 . S
O739 C723 1.268 . S
O740 Ho713 2.378 . S
O740 C724 1.215 . S
O741 Ho713 2.524 . S
O741 C724 1.289 . S
O742 Ho713 2.381 . S
O742 C731 1.275 . S
O743 Ho712 2.305 . S
O743 Ho713 2.669 . S
O743 C731 1.256 . S
H744 C717 0.930 . S
H745 C718 0.931 . S
H746 C720 0.934 . S
H747 C721 0.930 1_455 S
H748 C726 0.930 . S
H749 C727 0.931 . S
H750 C729 0.934 . S
H751 C730 0.930 . S
Ho752 C755 2.811 . S
Ho752 O772 2.322 . S
Ho752 O774 2.378 . S
Ho752 O775 2.524 . S
Ho752 O776 2.381 . S
Ho752 O777 2.669 . S
Ho752 O779 2.346 . S
Ho752 O783 2.305 . S
Ho753 C764 2.811 . S
Ho753 O773 2.346 . S
Ho753 O777 2.305 . S
Ho753 O778 2.322 . S
Ho753 O780 2.378 . S
Ho753 O781 2.524 . S
Ho753 O782 2.381 . S
Ho753 O783 2.669 . S
C754 O772 1.259 . S
C754 O773 1.268 . S
C755 Ho752 2.811 . S
C755 C756 1.488 . S
C755 O774 1.215 . S
C755 O775 1.289 . S
C756 C755 1.488 . S
C756 C757 1.348 . S
C756 C761 1.413 . S
C757 C756 1.348 . S
C757 C758 1.442 . S
C757 H784 0.930 . S
C758 C757 1.442 . S
C758 C759 1.381 . S
C758 H785 0.931 . S
C759 C758 1.381 . S
C759 C760 1.321 . S
C760 C759 1.321 . S
C760 C761 1.403 . S
C760 H786 0.934 . S
C761 C756 1.413 . S
C761 C760 1.403 . S
C761 H787 0.930 . S
C762 O776 1.275 . S
C762 O777 1.256 . S
C763 O778 1.259 . S
C763 O779 1.268 . S
C764 Ho753 2.811 . S
C764 C765 1.488 . S
C764 O780 1.215 . S
C764 O781 1.289 . S
C765 C764 1.488 . S
C765 C766 1.348 . S
C765 C770 1.413 . S
C766 C765 1.348 . S
C766 C767 1.442 . S
C766 H788 0.930 . S
C767 C766 1.442 . S
C767 C768 1.381 . S
C767 H789 0.931 . S
C768 C767 1.381 . S
C768 C769 1.321 . S
C769 C768 1.321 . S
C769 C770 1.403 . S
C769 H790 0.934 . S
C770 C765 1.413 . S
C770 C769 1.403 . S
C770 H791 0.930 . S
C771 O782 1.275 . S
C771 O783 1.256 . S
O772 Ho752 2.322 . S
O772 C754 1.259 . S
O773 Ho753 2.346 . S
O773 C754 1.268 . S
O774 Ho752 2.378 . S
O774 C755 1.215 . S
O775 Ho752 2.524 . S
O775 C755 1.289 . S
O776 Ho752 2.381 . S
O776 C762 1.275 . S
O777 Ho752 2.669 . S
O777 Ho753 2.305 . S
O777 C762 1.256 . S
O778 Ho753 2.322 . S
O778 C763 1.259 . S
O779 Ho752 2.346 . S
O779 C763 1.268 . S
O780 Ho753 2.378 . S
O780 C764 1.215 . S
O781 Ho753 2.524 . S
O781 C764 1.289 . S
O782 Ho753 2.381 . S
O782 C771 1.275 . S
O783 Ho752 2.305 . S
O783 Ho753 2.669 . S
O783 C771 1.256 . S
H784 C757 0.930 . S
H785 C758 0.931 . S
H786 C760 0.934 . S
H787 C761 0.930 . S
H788 C766 0.930 . S
H789 C767 0.931 . S
H790 C769 0.934 . S
H791 C770 0.930 . S
Ho792 C795 2.811 . S
Ho792 O812 2.322 . S
Ho792 O814 2.378 . S
Ho792 O815 2.524 . S
Ho792 O816 2.381 . S
Ho792 O817 2.669 . S
Ho792 O819 2.346 . S
Ho792 O823 2.305 . S
Ho793 C804 2.811 . S
Ho793 O813 2.346 . S
Ho793 O817 2.305 . S
Ho793 O818 2.322 . S
Ho793 O820 2.378 . S
Ho793 O821 2.524 . S
Ho793 O822 2.381 . S
Ho793 O823 2.669 . S
C794 O812 1.259 . S
C794 O813 1.268 . S
C795 Ho792 2.811 . S
C795 C796 1.488 . S
C795 O814 1.215 . S
C795 O815 1.289 . S
C796 C795 1.488 . S
C796 C797 1.348 . S
C796 C801 1.413 . S
C797 C796 1.348 . S
C797 C798 1.442 . S
C797 H824 0.930 . S
C798 C797 1.442 . S
C798 C799 1.381 . S
C798 H825 0.931 . S
C799 C798 1.381 . S
C799 C800 1.321 . S
C800 C799 1.321 . S
C800 C801 1.403 . S
C800 H826 0.934 . S
C801 C796 1.413 . S
C801 C800 1.403 . S
C801 H827 0.930 . S
C802 O816 1.275 . S
C802 O817 1.256 . S
C803 O818 1.259 . S
C803 O819 1.268 . S
C804 Ho793 2.811 . S
C804 C805 1.488 . S
C804 O820 1.215 . S
C804 O821 1.289 . S
C805 C804 1.488 . S
C805 C806 1.348 . S
C805 C810 1.413 . S
C806 C805 1.348 . S
C806 C807 1.442 . S
C806 H828 0.930 . S
C807 C806 1.442 . S
C807 C808 1.381 . S
C807 H829 0.931 . S
C808 C807 1.381 . S
C808 C809 1.321 . S
C809 C808 1.321 . S
C809 C810 1.403 . S
C809 H830 0.934 . S
C810 C805 1.413 . S
C810 C809 1.403 . S
C810 H831 0.930 . S
C811 O822 1.275 . S
C811 O823 1.256 . S
O812 Ho792 2.322 . S
O812 C794 1.259 . S
O813 Ho793 2.346 . S
O813 C794 1.268 . S
O814 Ho792 2.378 . S
O814 C795 1.215 . S
O815 Ho792 2.524 . S
O815 C795 1.289 . S
O816 Ho792 2.381 . S
O816 C802 1.275 . S
O817 Ho792 2.669 . S
O817 Ho793 2.305 . S
O817 C802 1.256 . S
O818 Ho793 2.322 . S
O818 C803 1.259 . S
O819 Ho792 2.346 . S
O819 C803 1.268 . S
O820 Ho793 2.378 . S
O820 C804 1.215 . S
O821 Ho793 2.524 . S
O821 C804 1.289 . S
O822 Ho793 2.381 . S
O822 C811 1.275 . S
O823 Ho792 2.305 . S
O823 Ho793 2.669 . S
O823 C811 1.256 . S
H824 C797 0.930 . S
H825 C798 0.931 . S
H826 C800 0.934 . S
H827 C801 0.930 . S
H828 C806 0.930 . S
H829 C807 0.931 . S
H830 C809 0.934 . S
H831 C810 0.930 . S
Ho832 C835 2.811 . S
Ho832 O852 2.322 . S
Ho832 O854 2.378 . S
Ho832 O855 2.524 . S
Ho832 O856 2.381 . S
Ho832 O857 2.669 . S
Ho832 O859 2.346 . S
Ho832 O863 2.305 . S
Ho833 C844 2.811 . S
Ho833 O853 2.346 . S
Ho833 O857 2.305 . S
Ho833 O858 2.322 . S
Ho833 O860 2.378 . S
Ho833 O861 2.524 . S
Ho833 O862 2.381 . S
Ho833 O863 2.669 . S
C834 O852 1.259 . S
C834 O853 1.268 . S
C835 Ho832 2.811 . S
C835 C836 1.488 . S
C835 O854 1.215 . S
C835 O855 1.289 . S
C836 C835 1.488 . S
C836 C837 1.348 . S
C836 C841 1.413 . S
C837 C836 1.348 . S
C837 C838 1.442 . S
C837 H864 0.930 . S
C838 C837 1.442 . S
C838 C839 1.381 . S
C838 H865 0.931 . S
C839 C838 1.381 . S
C839 C840 1.321 . S
C840 C839 1.321 . S
C840 C841 1.403 . S
C840 H866 0.934 . S
C841 C836 1.413 . S
C841 C840 1.403 . S
C841 H867 0.930 . S
C842 O856 1.275 . S
C842 O857 1.256 . S
C843 O858 1.259 . S
C843 O859 1.268 . S
C844 Ho833 2.811 . S
C844 C845 1.488 . S
C844 O860 1.215 . S
C844 O861 1.289 . S
C845 C844 1.488 . S
C845 C846 1.348 . S
C845 C850 1.413 . S
C846 C845 1.348 . S
C846 C847 1.442 . S
C846 H868 0.930 . S
C847 C846 1.442 . S
C847 C848 1.381 . S
C847 H869 0.931 . S
C848 C847 1.381 . S
C848 C849 1.321 . S
C849 C848 1.321 . S
C849 C850 1.403 . S
C849 H870 0.934 . S
C850 C845 1.413 . S
C850 C849 1.403 . S
C850 H871 0.930 . S
C851 O862 1.275 . S
C851 O863 1.256 . S
O852 Ho832 2.322 . S
O852 C834 1.259 . S
O853 Ho833 2.346 . S
O853 C834 1.268 . S
O854 Ho832 2.378 . S
O854 C835 1.215 . S
O855 Ho832 2.524 . S
O855 C835 1.289 . S
O856 Ho832 2.381 . S
O856 C842 1.275 . S
O857 Ho832 2.669 . S
O857 Ho833 2.305 . S
O857 C842 1.256 . S
O858 Ho833 2.322 . S
O858 C843 1.259 . S
O859 Ho832 2.346 . S
O859 C843 1.268 . S
O860 Ho833 2.378 . S
O860 C844 1.215 . S
O861 Ho833 2.524 . S
O861 C844 1.289 . S
O862 Ho833 2.381 . S
O862 C851 1.275 . S
O863 Ho832 2.305 . S
O863 Ho833 2.669 . S
O863 C851 1.256 . S
H864 C837 0.930 . S
H865 C838 0.931 . S
H866 C840 0.934 . S
H867 C841 0.930 . S
H868 C846 0.930 . S
H869 C847 0.931 . S
H870 C849 0.934 . S
H871 C850 0.930 . S
Ho872 C875 2.811 . S
Ho872 O892 2.322 . S
Ho872 O894 2.378 . S
Ho872 O895 2.524 . S
Ho872 O896 2.381 . S
Ho872 O897 2.669 . S
Ho872 O899 2.346 . S
Ho872 O903 2.305 . S
Ho873 C884 2.811 . S
Ho873 O893 2.346 . S
Ho873 O897 2.305 . S
Ho873 O898 2.322 . S
Ho873 O900 2.378 . S
Ho873 O901 2.524 . S
Ho873 O902 2.381 . S
Ho873 O903 2.669 . S
C874 O892 1.259 . S
C874 O893 1.268 . S
C875 Ho872 2.811 . S
C875 C876 1.488 . S
C875 O894 1.215 . S
C875 O895 1.289 . S
C876 C875 1.488 . S
C876 C877 1.348 . S
C876 C881 1.413 . S
C877 C876 1.348 . S
C877 C878 1.442 . S
C877 H904 0.930 . S
C878 C877 1.442 . S
C878 C879 1.381 . S
C878 H905 0.931 . S
C879 C878 1.381 . S
C879 C880 1.321 . S
C880 C879 1.321 . S
C880 C881 1.403 . S
C880 H906 0.934 . S
C881 C876 1.413 . S
C881 C880 1.403 . S
C881 H907 0.930 . S
C882 O896 1.275 . S
C882 O897 1.256 . S
C883 O898 1.259 . S
C883 O899 1.268 . S
C884 Ho873 2.811 . S
C884 C885 1.488 . S
C884 O900 1.215 . S
C884 O901 1.289 . S
C885 C884 1.488 . S
C885 C886 1.348 . S
C885 C890 1.413 . S
C886 C885 1.348 . S
C886 C887 1.442 . S
C886 H908 0.930 . S
C887 C886 1.442 . S
C887 C888 1.381 . S
C887 H909 0.931 . S
C888 C887 1.381 . S
C888 C889 1.321 . S
C889 C888 1.321 . S
C889 C890 1.403 . S
C889 H910 0.934 . S
C890 C885 1.413 . S
C890 C889 1.403 . S
C890 H911 0.930 . S
C891 O902 1.275 . S
C891 O903 1.256 . S
O892 Ho872 2.322 . S
O892 C874 1.259 . S
O893 Ho873 2.346 . S
O893 C874 1.268 . S
O894 Ho872 2.378 . S
O894 C875 1.215 . S
O895 Ho872 2.524 . S
O895 C875 1.289 . S
O896 Ho872 2.381 . S
O896 C882 1.275 . S
O897 Ho872 2.669 . S
O897 Ho873 2.305 . S
O897 C882 1.256 . S
O898 Ho873 2.322 . S
O898 C883 1.259 . S
O899 Ho872 2.346 . S
O899 C883 1.268 . S
O900 Ho873 2.378 . S
O900 C884 1.215 . S
O901 Ho873 2.524 . S
O901 C884 1.289 . S
O902 Ho873 2.381 . S
O902 C891 1.275 . S
O903 Ho872 2.305 . S
O903 Ho873 2.669 . S
O903 C891 1.256 . S
H904 C877 0.930 . S
H905 C878 0.931 . S
H906 C880 0.934 . S
H907 C881 0.930 . S
H908 C886 0.930 . S
H909 C887 0.931 . S
H910 C889 0.934 . S
H911 C890 0.930 . S
Ho912 C915 2.811 . S
Ho912 O932 2.322 . S
Ho912 O934 2.378 . S
Ho912 O935 2.524 . S
Ho912 O936 2.381 1_554 S
Ho912 O937 2.669 . S
Ho912 O939 2.346 . S
Ho912 O943 2.305 . S
Ho913 C924 2.811 1_455 S
Ho913 O933 2.346 . S
Ho913 O937 2.305 . S
Ho913 O938 2.322 . S
Ho913 O940 2.378 1_455 S
Ho913 O941 2.524 1_455 S
Ho913 O942 2.381 . S
Ho913 O943 2.669 . S
C914 O932 1.259 . S
C914 O933 1.268 . S
C915 Ho912 2.811 . S
C915 C916 1.488 . S
C915 O934 1.215 . S
C915 O935 1.289 . S
C916 C915 1.488 . S
C916 C917 1.348 . S
C916 C921 1.413 1_554 S
C917 C916 1.348 . S
C917 C918 1.442 . S
C917 H944 0.930 . S
C918 C917 1.442 . S
C918 C919 1.381 . S
C918 H945 0.931 . S
C919 C918 1.381 . S
C919 C920 1.321 1_554 S
C920 C919 1.321 1_556 S
C920 C921 1.403 . S
C920 H946 0.934 . S
C921 C916 1.413 1_556 S
C921 C920 1.403 . S
C921 H947 0.930 . S
C922 O936 1.275 . S
C922 O937 1.256 1_556 S
C923 O938 1.259 . S
C923 O939 1.268 . S
C924 Ho913 2.811 1_655 S
C924 C925 1.488 . S
C924 O940 1.215 . S
C924 O941 1.289 . S
C925 C924 1.488 . S
C925 C926 1.348 . S
C925 C930 1.413 . S
C926 C925 1.348 . S
C926 C927 1.442 . S
C926 H948 0.930 . S
C927 C926 1.442 . S
C927 C928 1.381 . S
C927 H949 0.931 . S
C928 C927 1.381 . S
C928 C929 1.321 . S
C929 C928 1.321 . S
C929 C930 1.403 . S
C929 H950 0.934 . S
C930 C925 1.413 . S
C930 C929 1.403 . S
C930 H951 0.930 . S
C931 O942 1.275 . S
C931 O943 1.256 . S
O932 Ho912 2.322 . S
O932 C914 1.259 . S
O933 Ho913 2.346 . S
O933 C914 1.268 . S
O934 Ho912 2.378 . S
O934 C915 1.215 . S
O935 Ho912 2.524 . S
O935 C915 1.289 . S
O936 Ho912 2.381 1_556 S
O936 C922 1.275 . S
O937 Ho912 2.669 . S
O937 Ho913 2.305 . S
O937 C922 1.256 1_554 S
O938 Ho913 2.322 . S
O938 C923 1.259 . S
O939 Ho912 2.346 . S
O939 C923 1.268 . S
O940 Ho913 2.378 1_655 S
O940 C924 1.215 . S
O941 Ho913 2.524 1_655 S
O941 C924 1.289 . S
O942 Ho913 2.381 . S
O942 C931 1.275 . S
O943 Ho912 2.305 . S
O943 Ho913 2.669 . S
O943 C931 1.256 . S
H944 C917 0.930 . S
H945 C918 0.931 . S
H946 C920 0.934 . S
H947 C921 0.930 . S
H948 C926 0.930 . S
H949 C927 0.931 . S
H950 C929 0.934 . S
H951 C930 0.930 . S
H952 C960 0.929 . S
H953 C962 0.930 . S
H954 C964 0.930 1_655 S
H955 C967 0.929 1_655 S
H956 C970 0.930 . S
H957 C972 0.950 1_655 S
H958 C972 0.989 . S
H959 C972 0.907 1_655 S
C960 H952 0.929 . S
C960 C961 1.377 . S
C960 C962 1.384 . S
C961 C960 1.377 . S
C961 C967 1.390 . S
C962 H953 0.930 . S
C962 C960 1.384 . S
C962 C963 1.372 . S
C963 C962 1.372 . S
C963 C964 1.400 . S
C963 C968 1.490 . S
C964 H954 0.930 1_455 S
C964 C963 1.400 . S
C964 C967 1.386 . S
H965 C981 0.930 . S
H966 C982 0.931 . S
C967 H955 0.929 1_455 S
C967 C961 1.390 . S
C967 C964 1.386 . S
C968 C963 1.490 . S
C968 C970 1.395 . S
C968 C971 1.403 . S
H969 C975 0.930 . S
C970 H956 0.930 . S
C970 C968 1.395 . S
C970 C973 1.403 . S
C971 C968 1.403 . S
C971 C972 1.564 . S
C971 C975 1.400 . S
C972 H957 0.950 1_455 S
C972 H958 0.989 . S
C972 H959 0.907 1_455 S
C972 C971 1.564 . S
C973 C970 1.403 . S
C973 C974 1.392 . S
C973 C977 1.495 1_556 S
C974 C973 1.392 . S
C974 C975 1.385 . S
C974 C976 1.487 . S
C975 H969 0.930 . S
C975 C971 1.400 . S
C975 C974 1.385 . S
C976 C974 1.487 . S
C976 C978 1.383 . S
C976 C982 1.371 1_556 S
C977 C973 1.495 1_554 S
C977 H983 0.959 . S
C977 H984 0.961 . S
C977 H985 0.960 . S
C978 C976 1.383 . S
C978 C979 1.394 1_556 S
C978 H986 0.930 . S
C979 C978 1.394 1_554 S
C979 C980 1.383 . S
C979 H987 0.929 . S
C980 C979 1.383 . S
C980 C981 1.377 . S
C981 H965 0.930 . S
C981 C980 1.377 . S
C981 C982 1.379 . S
C982 H966 0.931 . S
C982 C976 1.371 1_554 S
C982 C981 1.379 . S
H983 C977 0.959 . S
H984 C977 0.961 . S
H985 C977 0.960 . S
H986 C978 0.930 . S
H987 C979 0.929 . S
H988 C996 0.929 . S
H989 C998 0.930 . S
H990 C1000 0.930 . S
H991 C1003 0.929 . S
H992 C1006 0.930 . S
H993 C1008 0.960 . S
H994 C1008 0.960 . S
H995 C1008 0.960 . S
C996 H988 0.929 . S
C996 C997 1.377 . S
C996 C998 1.384 . S
C997 C996 1.377 . S
C997 C1003 1.390 . S
C998 H989 0.930 . S
C998 C996 1.384 . S
C998 C999 1.372 . S
C999 C998 1.372 . S
C999 C1000 1.400 . S
C999 C1004 1.490 . S
C1000 H990 0.930 . S
C1000 C999 1.400 . S
C1000 C1003 1.386 . S
H1001 C1017 0.930 . S
H1002 C1018 0.931 . S
C1003 H991 0.929 . S
C1003 C997 1.390 . S
C1003 C1000 1.386 . S
C1004 C999 1.490 . S
C1004 C1006 1.395 . S
C1004 C1007 1.403 . S
H1005 C1011 0.930 . S
C1006 H992 0.930 . S
C1006 C1004 1.395 . S
C1006 C1009 1.403 . S
C1007 C1004 1.403 . S
C1007 C1008 1.524 . S
C1007 C1011 1.400 . S
C1008 H993 0.960 . S
C1008 H994 0.960 . S
C1008 H995 0.960 . S
C1008 C1007 1.524 . S
C1009 C1006 1.403 . S
C1009 C1010 1.392 . S
C1009 C1013 1.495 . S
C1010 C1009 1.392 . S
C1010 C1011 1.385 . S
C1010 C1012 1.478 . S
C1011 H1005 0.930 . S
C1011 C1007 1.400 . S
C1011 C1010 1.385 . S
C1012 C1010 1.478 . S
C1012 C1014 1.381 . S
C1012 C1018 1.383 . S
C1013 C1009 1.495 . S
C1013 H1019 0.959 . S
C1013 H1020 0.961 . S
C1013 H1021 0.960 . S
C1014 C1012 1.381 . S
C1014 C1015 1.394 . S
C1014 H1022 0.930 . S
C1015 C1014 1.394 . S
C1015 C1016 1.383 . S
C1015 H1023 0.929 . S
C1016 C1015 1.383 . S
C1016 C1017 1.377 . S
C1017 H1001 0.930 . S
C1017 C1016 1.377 . S
C1017 C1018 1.379 . S
C1018 H1002 0.931 . S
C1018 C1012 1.383 . S
C1018 C1017 1.379 . S
H1019 C1013 0.959 . S
H1020 C1013 0.961 . S
H1021 C1013 0.960 . S
H1022 C1014 0.930 . S
H1023 C1015 0.929 . S
H1024 C1032 0.929 . S
H1025 C1034 0.930 . S
H1026 C1036 0.930 . S
H1027 C1039 0.929 . S
H1028 C1042 0.930 . S
H1029 C1044 0.960 . S
H1030 C1044 0.960 . S
H1031 C1044 0.960 . S
C1032 H1024 0.929 . S
C1032 C1033 1.377 . S
C1032 C1034 1.384 . S
C1033 C1032 1.377 . S
C1033 C1039 1.390 . S
C1034 H1025 0.930 . S
C1034 C1032 1.384 . S
C1034 C1035 1.372 . S
C1035 C1034 1.372 . S
C1035 C1036 1.400 . S
C1035 C1040 1.490 . S
C1036 H1026 0.930 . S
C1036 C1035 1.400 . S
C1036 C1039 1.386 . S
H1037 C1053 0.930 . S
H1038 C1054 0.931 . S
C1039 H1027 0.929 . S
C1039 C1033 1.390 . S
C1039 C1036 1.386 . S
C1040 C1035 1.490 . S
C1040 C1042 1.395 . S
C1040 C1043 1.403 . S
H1041 C1047 0.930 . S
C1042 H1028 0.930 . S
C1042 C1040 1.395 . S
C1042 C1045 1.403 . S
C1043 C1040 1.403 . S
C1043 C1044 1.524 . S
C1043 C1047 1.400 . S
C1044 H1029 0.960 . S
C1044 H1030 0.960 . S
C1044 H1031 0.960 . S
C1044 C1043 1.524 . S
C1045 C1042 1.403 . S
C1045 C1046 1.392 . S
C1045 C1049 1.495 . S
C1046 C1045 1.392 . S
C1046 C1047 1.385 . S
C1046 C1048 1.478 . S
C1047 H1041 0.930 . S
C1047 C1043 1.400 . S
C1047 C1046 1.385 . S
C1048 C1046 1.478 . S
C1048 C1050 1.381 . S
C1048 C1054 1.383 . S
C1049 C1045 1.495 . S
C1049 H1055 0.959 . S
C1049 H1056 0.961 . S
C1049 H1057 0.960 . S
C1050 C1048 1.381 . S
C1050 C1051 1.394 . S
C1050 H1058 0.930 . S
C1051 C1050 1.394 . S
C1051 C1052 1.383 . S
C1051 H1059 0.929 . S
C1052 C1051 1.383 . S
C1052 C1053 1.377 . S
C1053 H1037 0.930 . S
C1053 C1052 1.377 . S
C1053 C1054 1.379 . S
C1054 H1038 0.931 . S
C1054 C1048 1.383 . S
C1054 C1053 1.379 . S
H1055 C1049 0.959 . S
H1056 C1049 0.961 . S
H1057 C1049 0.960 . S
H1058 C1050 0.930 . S
H1059 C1051 0.929 . S
H1060 C1068 0.929 . S
H1061 C1070 0.930 . S
H1062 C1072 0.930 . S
H1063 C1075 0.929 . S
H1064 C1078 0.930 . S
H1065 C1080 0.960 . S
H1066 C1080 0.960 . S
H1067 C1080 0.960 . S
C1068 H1060 0.929 . S
C1068 C1069 1.377 . S
C1068 C1070 1.384 . S
C1069 C1068 1.377 . S
C1069 C1075 1.390 . S
C1070 H1061 0.930 . S
C1070 C1068 1.384 . S
C1070 C1071 1.372 . S
C1071 C1070 1.372 . S
C1071 C1072 1.400 . S
C1071 C1076 1.490 . S
C1072 H1062 0.930 . S
C1072 C1071 1.400 . S
C1072 C1075 1.386 . S
H1073 C1089 0.930 . S
H1074 C1090 0.931 . S
C1075 H1063 0.929 . S
C1075 C1069 1.390 . S
C1075 C1072 1.386 . S
C1076 C1071 1.490 . S
C1076 C1078 1.395 . S
C1076 C1079 1.403 . S
H1077 C1083 0.930 . S
C1078 H1064 0.930 . S
C1078 C1076 1.395 . S
C1078 C1081 1.403 . S
C1079 C1076 1.403 . S
C1079 C1080 1.524 . S
C1079 C1083 1.400 . S
C1080 H1065 0.960 . S
C1080 H1066 0.960 . S
C1080 H1067 0.960 . S
C1080 C1079 1.524 . S
C1081 C1078 1.403 . S
C1081 C1082 1.392 . S
C1081 C1085 1.495 . S
C1082 C1081 1.392 . S
C1082 C1083 1.385 . S
C1082 C1084 1.478 . S
C1083 H1077 0.930 . S
C1083 C1079 1.400 . S
C1083 C1082 1.385 . S
C1084 C1082 1.478 . S
C1084 C1086 1.381 . S
C1084 C1090 1.383 . S
C1085 C1081 1.495 . S
C1085 H1091 0.959 . S
C1085 H1092 0.961 . S
C1085 H1093 0.960 . S
C1086 C1084 1.381 . S
C1086 C1087 1.394 . S
C1086 H1094 0.930 . S
C1087 C1086 1.394 . S
C1087 C1088 1.383 . S
C1087 H1095 0.929 . S
C1088 C1087 1.383 . S
C1088 C1089 1.377 . S
C1089 H1073 0.930 . S
C1089 C1088 1.377 . S
C1089 C1090 1.379 . S
C1090 H1074 0.931 . S
C1090 C1084 1.383 . S
C1090 C1089 1.379 . S
H1091 C1085 0.959 . S
H1092 C1085 0.961 . S
H1093 C1085 0.960 . S
H1094 C1086 0.930 . S
H1095 C1087 0.929 . S
H1096 C1104 0.929 1_655 S
H1097 C1106 0.882 1_655 S
H1098 C1108 0.930 . S
H1099 C1111 0.929 . S
H1100 C1114 0.930 . S
H1101 C1116 0.960 . S
H1102 C1116 0.960 . S
H1103 C1116 0.960 . S
C1104 H1096 0.929 1_455 S
C1104 C1105 1.378 . S
C1104 C1106 1.384 . S
C1105 C1104 1.378 . S
C1105 C1111 1.390 . S
C1106 H1097 0.882 1_455 S
C1106 C1104 1.384 . S
C1106 C1107 1.372 . S
C1107 C1106 1.372 . S
C1107 C1108 1.400 . S
C1107 C1112 1.490 . S
C1108 H1098 0.930 . S
C1108 C1107 1.400 . S
C1108 C1111 1.386 . S
H1109 C1125 0.930 . S
H1110 C1126 0.931 . S
C1111 H1099 0.929 . S
C1111 C1105 1.390 . S
C1111 C1108 1.386 . S
C1112 C1107 1.490 . S
C1112 C1114 1.395 . S
C1112 C1115 1.403 . S
H1113 C1119 0.930 . S
C1114 H1100 0.930 . S
C1114 C1112 1.395 . S
C1114 C1117 1.403 . S
C1115 C1112 1.403 . S
C1115 C1116 1.524 . S
C1115 C1119 1.400 . S
C1116 H1101 0.960 . S
C1116 H1102 0.960 . S
C1116 H1103 0.960 . S
C1116 C1115 1.524 . S
C1117 C1114 1.403 . S
C1117 C1118 1.392 . S
C1117 C1121 1.495 . S
C1118 C1117 1.392 . S
C1118 C1119 1.385 . S
C1118 C1120 1.478 . S
C1119 H1113 0.930 . S
C1119 C1115 1.400 . S
C1119 C1118 1.385 . S
C1120 C1118 1.478 . S
C1120 C1122 1.381 . S
C1120 C1126 1.383 . S
C1121 C1117 1.495 . S
C1121 H1127 0.959 . S
C1121 H1128 0.961 . S
C1121 H1129 0.960 . S
C1122 C1120 1.381 . S
C1122 C1123 1.394 . S
C1122 H1130 0.930 . S
C1123 C1122 1.394 . S
C1123 C1124 1.383 . S
C1123 H1131 0.929 . S
C1124 C1123 1.383 . S
C1124 C1125 1.377 . S
C1125 H1109 0.930 . S
C1125 C1124 1.377 . S
C1125 C1126 1.379 . S
C1126 H1110 0.931 . S
C1126 C1120 1.383 . S
C1126 C1125 1.379 . S
H1127 C1121 0.959 . S
H1128 C1121 0.961 . S
H1129 C1121 0.960 . S
H1130 C1122 0.930 . S
H1131 C1123 0.929 . S
H1132 C1140 0.929 . S
H1133 C1142 0.930 . S
H1134 C1144 0.930 . S
H1135 C1147 0.929 . S
H1136 C1150 0.930 . S
H1137 C1152 0.960 . S
H1138 C1152 0.960 . S
H1139 C1152 0.960 . S
C1140 H1132 0.929 . S
C1140 C1141 1.377 . S
C1140 C1142 1.384 . S
C1141 C1140 1.377 . S
C1141 C1147 1.390 . S
C1142 H1133 0.930 . S
C1142 C1140 1.384 . S
C1142 C1143 1.372 . S
C1143 C1142 1.372 . S
C1143 C1144 1.400 . S
C1143 C1148 1.490 . S
C1144 H1134 0.930 . S
C1144 C1143 1.400 . S
C1144 C1147 1.386 . S
H1145 C1161 0.930 . S
H1146 C1162 0.931 . S
C1147 H1135 0.929 . S
C1147 C1141 1.390 . S
C1147 C1144 1.386 . S
C1148 C1143 1.490 . S
C1148 C1150 1.395 . S
C1148 C1151 1.403 . S
H1149 C1155 0.930 . S
C1150 H1136 0.930 . S
C1150 C1148 1.395 . S
C1150 C1153 1.403 . S
C1151 C1148 1.403 . S
C1151 C1152 1.524 . S
C1151 C1155 1.400 . S
C1152 H1137 0.960 . S
C1152 H1138 0.960 . S
C1152 H1139 0.960 . S
C1152 C1151 1.524 . S
C1153 C1150 1.403 . S
C1153 C1154 1.392 . S
C1153 C1157 1.495 . S
C1154 C1153 1.392 . S
C1154 C1155 1.385 . S
C1154 C1156 1.478 . S
C1155 H1149 0.930 . S
C1155 C1151 1.400 . S
C1155 C1154 1.385 . S
C1156 C1154 1.478 . S
C1156 C1158 1.381 . S
C1156 C1162 1.383 . S
C1157 C1153 1.495 . S
C1157 H1163 0.959 . S
C1157 H1164 0.961 . S
C1157 H1165 0.960 . S
C1158 C1156 1.381 . S
C1158 C1159 1.394 . S
C1158 H1166 0.930 . S
C1159 C1158 1.394 . S
C1159 C1160 1.383 . S
C1159 H1167 0.929 . S
C1160 C1159 1.383 . S
C1160 C1161 1.377 . S
C1161 H1145 0.930 . S
C1161 C1160 1.377 . S
C1161 C1162 1.379 . S
C1162 H1146 0.931 . S
C1162 C1156 1.383 . S
C1162 C1161 1.379 . S
H1163 C1157 0.959 . S
H1164 C1157 0.961 . S
H1165 C1157 0.960 . S
H1166 C1158 0.930 . S
H1167 C1159 0.929 . S
H1168 C1176 0.929 . S
H1169 C1178 0.930 . S
H1170 C1180 0.930 . S
H1171 C1183 0.929 . S
H1172 C1186 0.930 . S
H1173 C1188 0.960 . S
H1174 C1188 0.960 . S
H1175 C1188 0.960 . S
C1176 H1168 0.929 . S
C1176 C1177 1.377 . S
C1176 C1178 1.384 . S
C1177 C1176 1.377 . S
C1177 C1183 1.390 . S
C1178 H1169 0.930 . S
C1178 C1176 1.384 . S
C1178 C1179 1.372 . S
C1179 C1178 1.372 . S
C1179 C1180 1.400 . S
C1179 C1184 1.490 . S
C1180 H1170 0.930 . S
C1180 C1179 1.400 . S
C1180 C1183 1.386 . S
H1181 C1197 0.930 . S
H1182 C1198 0.931 . S
C1183 H1171 0.929 . S
C1183 C1177 1.390 . S
C1183 C1180 1.386 . S
C1184 C1179 1.490 . S
C1184 C1186 1.395 . S
C1184 C1187 1.403 . S
H1185 C1191 0.930 . S
C1186 H1172 0.930 . S
C1186 C1184 1.395 . S
C1186 C1189 1.403 . S
C1187 C1184 1.403 . S
C1187 C1188 1.524 . S
C1187 C1191 1.400 . S
C1188 H1173 0.960 . S
C1188 H1174 0.960 . S
C1188 H1175 0.960 . S
C1188 C1187 1.524 . S
C1189 C1186 1.403 . S
C1189 C1190 1.392 . S
C1189 C1193 1.495 . S
C1190 C1189 1.392 . S
C1190 C1191 1.385 . S
C1190 C1192 1.478 . S
C1191 H1185 0.930 . S
C1191 C1187 1.400 . S
C1191 C1190 1.385 . S
C1192 C1190 1.478 . S
C1192 C1194 1.381 . S
C1192 C1198 1.383 . S
C1193 C1189 1.495 . S
C1193 H1199 0.959 . S
C1193 H1200 0.961 . S
C1193 H1201 0.960 . S
C1194 C1192 1.381 . S
C1194 C1195 1.394 . S
C1194 H1202 0.930 . S
C1195 C1194 1.394 . S
C1195 C1196 1.383 . S
C1195 H1203 0.929 . S
C1196 C1195 1.383 . S
C1196 C1197 1.377 . S
C1197 H1181 0.930 . S
C1197 C1196 1.377 . S
C1197 C1198 1.379 . S
C1198 H1182 0.931 . S
C1198 C1192 1.383 . S
C1198 C1197 1.379 . S
H1199 C1193 0.959 . S
H1200 C1193 0.961 . S
H1201 C1193 0.960 . S
H1202 C1194 0.930 . S
H1203 C1195 0.929 . S
H1204 C1212 0.929 . S
H1205 C1214 0.930 . S
H1206 C1216 0.930 . S
H1207 C1219 0.929 . S
H1208 C1222 0.930 . S
H1209 C1224 0.960 . S
H1210 C1224 0.960 . S
H1211 C1224 0.960 . S
C1212 H1204 0.929 . S
C1212 C1213 1.377 . S
C1212 C1214 1.384 . S
C1213 C1212 1.377 . S
C1213 C1219 1.390 . S
C1214 H1205 0.930 . S
C1214 C1212 1.384 . S
C1214 C1215 1.372 . S
C1215 C1214 1.372 . S
C1215 C1216 1.400 . S
C1215 C1220 1.490 . S
C1216 H1206 0.930 . S
C1216 C1215 1.400 . S
C1216 C1219 1.386 . S
H1217 C1233 0.930 . S
H1218 C1234 0.931 . S
C1219 H1207 0.929 . S
C1219 C1213 1.390 . S
C1219 C1216 1.386 . S
C1220 C1215 1.490 . S
C1220 C1222 1.395 . S
C1220 C1223 1.403 . S
H1221 C1227 0.930 . S
C1222 H1208 0.930 . S
C1222 C1220 1.395 . S
C1222 C1225 1.403 . S
C1223 C1220 1.403 . S
C1223 C1224 1.524 . S
C1223 C1227 1.400 . S
C1224 H1209 0.960 . S
C1224 H1210 0.960 . S
C1224 H1211 0.960 . S
C1224 C1223 1.524 . S
C1225 C1222 1.403 . S
C1225 C1226 1.392 . S
C1225 C1229 1.495 . S
C1226 C1225 1.392 . S
C1226 C1227 1.385 . S
C1226 C1228 1.478 . S
C1227 H1221 0.930 . S
C1227 C1223 1.400 . S
C1227 C1226 1.385 . S
C1228 C1226 1.478 . S
C1228 C1230 1.381 . S
C1228 C1234 1.383 . S
C1229 C1225 1.495 . S
C1229 H1235 0.959 . S
C1229 H1236 0.961 . S
C1229 H1237 0.960 . S
C1230 C1228 1.381 . S
C1230 C1231 1.394 . S
C1230 H1238 0.930 . S
C1231 C1230 1.394 . S
C1231 C1232 1.383 . S
C1231 H1239 0.929 . S
C1232 C1231 1.383 . S
C1232 C1233 1.377 . S
C1233 H1217 0.930 . S
C1233 C1232 1.377 . S
C1233 C1234 1.379 . S
C1234 H1218 0.931 . S
C1234 C1228 1.383 . S
C1234 C1233 1.379 . S
H1235 C1229 0.959 . S
H1236 C1229 0.961 . S
H1237 C1229 0.960 . S
H1238 C1230 0.930 . S
H1239 C1231 0.929 . S
H1240 C1248 0.929 . S
H1241 C1250 0.930 . S
H1242 C1252 0.930 . S
H1243 C1255 0.929 . S
H1244 C1258 0.942 . S
H1245 C1260 0.960 . S
H1246 C1260 0.960 . S
H1247 C1260 0.960 . S
C1248 H1240 0.929 . S
C1248 C1249 1.377 . S
C1248 C1250 1.384 . S
C1249 C1248 1.377 . S
C1249 C1255 1.390 . S
C1250 H1241 0.930 . S
C1250 C1248 1.384 . S
C1250 C1251 1.372 . S
C1251 C1250 1.372 . S
C1251 C1252 1.400 . S
C1251 C1256 1.490 . S
C1252 H1242 0.930 . S
C1252 C1251 1.400 . S
C1252 C1255 1.386 . S
H1253 C1269 0.930 . S
H1254 C1270 0.931 1_655 S
C1255 H1243 0.929 . S
C1255 C1249 1.390 . S
C1255 C1252 1.386 . S
C1256 C1251 1.490 . S
C1256 C1258 1.395 . S
C1256 C1259 1.403 . S
H1257 C1263 0.930 . S
C1258 H1244 0.942 . S
C1258 C1256 1.395 . S
C1258 C1261 1.403 1_655 S
C1259 C1256 1.403 . S
C1259 C1260 1.524 . S
C1259 C1263 1.400 . S
C1260 H1245 0.960 . S
C1260 H1246 0.960 . S
C1260 H1247 0.960 . S
C1260 C1259 1.524 . S
C1261 C1258 1.403 1_455 S
C1261 C1262 1.392 . S
C1261 C1265 1.495 . S
C1262 C1261 1.392 . S
C1262 C1263 1.385 1_455 S
C1262 C1264 1.478 . S
C1263 H1257 0.930 . S
C1263 C1259 1.400 . S
C1263 C1262 1.385 1_655 S
C1264 C1262 1.478 . S
C1264 C1266 1.381 . S
C1264 C1270 1.383 . S
C1265 C1261 1.495 . S
C1265 H1271 0.959 . S
C1265 H1272 0.961 . S
C1265 H1273 0.960 . S
C1266 C1264 1.381 . S
C1266 C1267 1.394 . S
C1266 H1274 0.930 . S
C1267 C1266 1.394 . S
C1267 C1268 1.383 . S
C1267 H1275 0.929 . S
C1268 C1267 1.383 . S
C1268 C1269 1.377 . S
C1269 H1253 0.930 . S
C1269 C1268 1.377 . S
C1269 C1270 1.379 . S
C1270 H1254 0.931 1_455 S
C1270 C1264 1.383 . S
C1270 C1269 1.379 . S
H1271 C1265 0.959 . S
H1272 C1265 0.961 . S
H1273 C1265 0.960 . S
H1274 C1266 0.930 . S
H1275 C1267 0.929 . S
H1276 C1284 0.929 . S
H1277 C1286 0.930 . S
H1278 C1288 0.930 . S
H1279 C1291 0.929 . S
H1280 C1294 0.930 . S
H1281 C1296 0.960 . S
H1282 C1296 0.960 . S
H1283 C1296 0.960 . S
C1284 H1276 0.929 . S
C1284 C1285 1.377 . S
C1284 C1286 1.384 . S
C1285 C1284 1.377 . S
C1285 C1291 1.390 . S
C1286 H1277 0.930 . S
C1286 C1284 1.384 . S
C1286 C1287 1.372 . S
C1287 C1286 1.372 . S
C1287 C1288 1.400 . S
C1287 C1292 1.490 . S
C1288 H1278 0.930 . S
C1288 C1287 1.400 . S
C1288 C1291 1.386 . S
H1289 C1305 0.930 . S
H1290 C1306 0.931 . S
C1291 H1279 0.929 . S
C1291 C1285 1.390 . S
C1291 C1288 1.386 . S
C1292 C1287 1.490 . S
C1292 C1294 1.395 . S
C1292 C1295 1.403 . S
H1293 C1299 0.930 . S
C1294 H1280 0.930 . S
C1294 C1292 1.395 . S
C1294 C1297 1.403 . S
C1295 C1292 1.403 . S
C1295 C1296 1.524 . S
C1295 C1299 1.400 . S
C1296 H1281 0.960 . S
C1296 H1282 0.960 . S
C1296 H1283 0.960 . S
C1296 C1295 1.524 . S
C1297 C1294 1.403 . S
C1297 C1298 1.392 . S
C1297 C1301 1.495 . S
C1298 C1297 1.392 . S
C1298 C1299 1.385 . S
C1298 C1300 1.478 . S
C1299 H1293 0.930 . S
C1299 C1295 1.400 . S
C1299 C1298 1.385 . S
C1300 C1298 1.478 . S
C1300 C1302 1.381 . S
C1300 C1306 1.383 . S
C1301 C1297 1.495 . S
C1301 H1307 0.959 . S
C1301 H1308 0.961 . S
C1301 H1309 0.960 . S
C1302 C1300 1.381 . S
C1302 C1303 1.394 . S
C1302 H1310 0.930 . S
C1303 C1302 1.394 . S
C1303 C1304 1.383 . S
C1303 H1311 0.929 . S
C1304 C1303 1.383 . S
C1304 C1305 1.377 . S
C1305 H1289 0.930 . S
C1305 C1304 1.377 . S
C1305 C1306 1.379 . S
C1306 H1290 0.931 . S
C1306 C1300 1.383 . S
C1306 C1305 1.379 . S
H1307 C1301 0.959 . S
H1308 C1301 0.961 . S
H1309 C1301 0.960 . S
H1310 C1302 0.930 . S
H1311 C1303 0.929 . S
H1312 C1320 0.929 . S
H1313 C1322 0.930 . S
H1314 C1324 0.930 . S
H1315 C1327 0.929 . S
H1316 C1330 0.930 . S
H1317 C1332 0.960 . S
H1318 C1332 0.960 . S
H1319 C1332 0.960 . S
C1320 H1312 0.929 . S
C1320 C1321 1.377 . S
C1320 C1322 1.384 . S
C1321 C1320 1.377 . S
C1321 C1327 1.390 . S
C1322 H1313 0.930 . S
C1322 C1320 1.384 . S
C1322 C1323 1.372 . S
C1323 C1322 1.372 . S
C1323 C1324 1.400 . S
C1323 C1328 1.490 . S
C1324 H1314 0.930 . S
C1324 C1323 1.400 . S
C1324 C1327 1.386 . S
H1325 C1341 0.930 . S
H1326 C1342 0.931 . S
C1327 H1315 0.929 . S
C1327 C1321 1.390 . S
C1327 C1324 1.386 . S
C1328 C1323 1.490 . S
C1328 C1330 1.395 . S
C1328 C1331 1.403 . S
H1329 C1335 0.930 . S
C1330 H1316 0.930 . S
C1330 C1328 1.395 . S
C1330 C1333 1.403 . S
C1331 C1328 1.403 . S
C1331 C1332 1.524 . S
C1331 C1335 1.400 . S
C1332 H1317 0.960 . S
C1332 H1318 0.960 . S
C1332 H1319 0.960 . S
C1332 C1331 1.524 . S
C1333 C1330 1.403 . S
C1333 C1334 1.392 . S
C1333 C1337 1.495 . S
C1334 C1333 1.392 . S
C1334 C1335 1.385 . S
C1334 C1336 1.478 . S
C1335 H1329 0.930 . S
C1335 C1331 1.400 . S
C1335 C1334 1.385 . S
C1336 C1334 1.478 . S
C1336 C1338 1.381 . S
C1336 C1342 1.383 . S
C1337 C1333 1.495 . S
C1337 H1343 0.959 1_545 S
C1337 H1344 0.961 1_545 S
C1337 H1345 0.960 . S
C1338 C1336 1.381 . S
C1338 C1339 1.394 . S
C1338 H1346 0.930 . S
C1339 C1338 1.394 . S
C1339 C1340 1.383 . S
C1339 H1347 0.929 . S
C1340 C1339 1.383 . S
C1340 C1341 1.377 . S
C1341 H1325 0.930 . S
C1341 C1340 1.377 . S
C1341 C1342 1.379 . S
C1342 H1326 0.931 . S
C1342 C1336 1.383 . S
C1342 C1341 1.379 . S
H1343 C1337 0.959 1_565 S
H1344 C1337 0.961 1_565 S
H1345 C1337 0.960 . S
H1346 C1338 0.930 . S
H1347 C1339 0.929 . S
H1348 C1356 0.929 . S
H1349 C1358 0.930 . S
H1350 C1360 0.930 . S
H1351 C1363 0.929 . S
H1352 C1366 0.930 . S
H1353 C1368 0.960 . S
H1354 C1368 0.960 . S
H1355 C1368 0.960 . S
C1356 H1348 0.929 . S
C1356 C1357 1.377 . S
C1356 C1358 1.384 . S
C1357 C1356 1.377 . S
C1357 C1363 1.390 . S
C1358 H1349 0.930 . S
C1358 C1356 1.384 . S
C1358 C1359 1.372 . S
C1359 C1358 1.372 . S
C1359 C1360 1.400 . S
C1359 C1364 1.490 . S
C1360 H1350 0.930 . S
C1360 C1359 1.400 . S
C1360 C1363 1.386 . S
H1361 C1377 0.930 . S
H1362 C1378 0.931 . S
C1363 H1351 0.929 . S
C1363 C1357 1.390 . S
C1363 C1360 1.386 . S
C1364 C1359 1.490 . S
C1364 C1366 1.395 . S
C1364 C1367 1.403 . S
H1365 C1371 0.930 . S
C1366 H1352 0.930 . S
C1366 C1364 1.395 . S
C1366 C1369 1.403 . S
C1367 C1364 1.403 . S
C1367 C1368 1.524 . S
C1367 C1371 1.400 . S
C1368 H1353 0.960 . S
C1368 H1354 0.960 . S
C1368 H1355 0.960 . S
C1368 C1367 1.524 . S
C1369 C1366 1.403 . S
C1369 C1370 1.392 . S
C1369 C1373 1.495 . S
C1370 C1369 1.392 . S
C1370 C1371 1.385 . S
C1370 C1372 1.478 . S
C1371 H1365 0.930 . S
C1371 C1367 1.400 . S
C1371 C1370 1.385 . S
C1372 C1370 1.478 . S
C1372 C1374 1.381 . S
C1372 C1378 1.383 . S
C1373 C1369 1.495 . S
C1373 H1379 0.959 . S
C1373 H1380 0.961 . S
C1373 H1381 0.960 . S
C1374 C1372 1.381 . S
C1374 C1375 1.394 . S
C1374 H1382 0.930 . S
C1375 C1374 1.394 . S
C1375 C1376 1.383 . S
C1375 H1383 0.929 . S
C1376 C1375 1.383 . S
C1376 C1377 1.377 . S
C1377 H1361 0.930 . S
C1377 C1376 1.377 . S
C1377 C1378 1.379 . S
C1378 H1362 0.931 . S
C1378 C1372 1.383 . S
C1378 C1377 1.379 . S
H1379 C1373 0.959 . S
H1380 C1373 0.961 . S
H1381 C1373 0.960 . S
H1382 C1374 0.930 . S
H1383 C1375 0.929 . S
H1384 C1392 0.929 . S
H1385 C1394 0.930 . S
H1386 C1396 0.930 . S
H1387 C1399 0.929 . S
H1388 C1402 0.930 . S
H1389 C1404 0.960 . S
H1390 C1404 0.960 . S
H1391 C1404 0.960 . S
C1392 H1384 0.929 . S
C1392 C1393 1.377 . S
C1392 C1394 1.384 . S
C1393 C1392 1.377 . S
C1393 C1399 1.390 . S
C1394 H1385 0.930 . S
C1394 C1392 1.384 . S
C1394 C1395 1.372 . S
C1395 C1394 1.372 . S
C1395 C1396 1.400 . S
C1395 C1400 1.490 . S
C1396 H1386 0.930 . S
C1396 C1395 1.400 . S
C1396 C1399 1.386 . S
H1397 C1413 0.930 . S
H1398 C1414 0.931 . S
C1399 H1387 0.929 . S
C1399 C1393 1.390 . S
C1399 C1396 1.386 . S
C1400 C1395 1.490 . S
C1400 C1402 1.395 . S
C1400 C1403 1.403 . S
H1401 C1407 0.930 . S
C1402 H1388 0.930 . S
C1402 C1400 1.395 . S
C1402 C1405 1.403 . S
C1403 C1400 1.403 . S
C1403 C1404 1.524 1_655 S
C1403 C1407 1.400 1_655 S
C1404 H1389 0.960 . S
C1404 H1390 0.960 . S
C1404 H1391 0.960 . S
C1404 C1403 1.524 1_455 S
C1405 C1402 1.403 . S
C1405 C1406 1.392 . S
C1405 C1409 1.495 . S
C1406 C1405 1.392 . S
C1406 C1407 1.385 1_655 S
C1406 C1408 1.478 1_655 S
C1407 H1401 0.930 . S
C1407 C1403 1.400 1_455 S
C1407 C1406 1.385 1_455 S
C1408 C1406 1.478 1_455 S
C1408 C1410 1.381 . S
C1408 C1414 1.383 . S
C1409 C1405 1.495 . S
C1409 H1415 0.959 . S
C1409 H1416 0.961 . S
C1409 H1417 0.960 . S
C1410 C1408 1.381 . S
C1410 C1411 1.394 . S
C1410 H1418 0.930 . S
C1411 C1410 1.394 . S
C1411 C1412 1.383 . S
C1411 H1419 0.929 . S
C1412 C1411 1.383 . S
C1412 C1413 1.377 . S
C1413 H1397 0.930 . S
C1413 C1412 1.377 . S
C1413 C1414 1.379 . S
C1414 H1398 0.931 . S
C1414 C1408 1.383 . S
C1414 C1413 1.379 . S
H1415 C1409 0.959 . S
H1416 C1409 0.961 . S
H1417 C1409 0.960 . S
H1418 C1410 0.930 . S
H1419 C1411 0.929 . S
H1420 C1428 0.929 . S
H1421 C1430 0.930 . S
H1422 C1432 0.930 . S
H1423 C1435 0.929 . S
H1424 C1438 0.930 . S
H1425 C1440 0.960 . S
H1426 C1440 0.960 . S
H1427 C1440 0.960 . S
C1428 H1420 0.929 . S
C1428 C1429 1.377 . S
C1428 C1430 1.384 . S
C1429 C1428 1.377 . S
C1429 C1435 1.390 . S
C1430 H1421 0.930 . S
C1430 C1428 1.384 . S
C1430 C1431 1.372 . S
C1431 C1430 1.372 . S
C1431 C1432 1.400 . S
C1431 C1436 1.490 . S
C1432 H1422 0.930 . S
C1432 C1431 1.400 . S
C1432 C1435 1.386 . S
H1433 C1449 0.930 . S
H1434 C1450 0.931 . S
C1435 H1423 0.929 . S
C1435 C1429 1.390 . S
C1435 C1432 1.386 . S
C1436 C1431 1.490 . S
C1436 C1438 1.395 . S
C1436 C1439 1.403 . S
H1437 C1443 0.930 . S
C1438 H1424 0.930 . S
C1438 C1436 1.395 . S
C1438 C1441 1.403 . S
C1439 C1436 1.403 . S
C1439 C1440 1.524 . S
C1439 C1443 1.400 . S
C1440 H1425 0.960 . S
C1440 H1426 0.960 . S
C1440 H1427 0.960 . S
C1440 C1439 1.524 . S
C1441 C1438 1.403 . S
C1441 C1442 1.392 . S
C1441 C1445 1.495 . S
C1442 C1441 1.392 . S
C1442 C1443 1.385 . S
C1442 C1444 1.478 . S
C1443 H1437 0.930 . S
C1443 C1439 1.400 . S
C1443 C1442 1.385 . S
C1444 C1442 1.478 . S
C1444 C1446 1.381 . S
C1444 C1450 1.383 . S
C1445 C1441 1.495 . S
C1445 H1451 0.959 . S
C1445 H1452 0.961 . S
C1445 H1453 0.960 . S
C1446 C1444 1.381 . S
C1446 C1447 1.394 . S
C1446 H1454 0.930 . S
C1447 C1446 1.394 . S
C1447 C1448 1.383 . S
C1447 H1455 0.929 . S
C1448 C1447 1.383 . S
C1448 C1449 1.377 . S
C1449 H1433 0.930 . S
C1449 C1448 1.377 . S
C1449 C1450 1.379 . S
C1450 H1434 0.931 . S
C1450 C1444 1.383 . S
C1450 C1449 1.379 . S
H1451 C1445 0.959 . S
H1452 C1445 0.961 . S
H1453 C1445 0.960 . S
H1454 C1446 0.930 . S
H1455 C1447 0.929 . S
H1456 C1464 0.929 . S
H1457 C1466 0.930 . S
H1458 C1468 0.930 . S
H1459 C1471 0.929 . S
H1460 C1474 0.930 . S
H1461 C1476 0.960 . S
H1462 C1476 0.960 . S
H1463 C1476 0.960 . S
C1464 H1456 0.929 . S
C1464 C1465 1.377 . S
C1464 C1466 1.384 . S
C1465 C1464 1.377 . S
C1465 C1471 1.390 . S
C1466 H1457 0.930 . S
C1466 C1464 1.384 . S
C1466 C1467 1.372 . S
C1467 C1466 1.372 . S
C1467 C1468 1.400 . S
C1467 C1472 1.490 . S
C1468 H1458 0.930 . S
C1468 C1467 1.400 . S
C1468 C1471 1.386 . S
H1469 C1485 0.930 . S
H1470 C1486 0.931 . S
C1471 H1459 0.929 . S
C1471 C1465 1.390 . S
C1471 C1468 1.386 . S
C1472 C1467 1.490 . S
C1472 C1474 1.395 . S
C1472 C1475 1.403 . S
H1473 C1479 0.930 . S
C1474 H1460 0.930 . S
C1474 C1472 1.395 . S
C1474 C1477 1.403 . S
C1475 C1472 1.403 . S
C1475 C1476 1.524 . S
C1475 C1479 1.400 . S
C1476 H1461 0.960 . S
C1476 H1462 0.960 . S
C1476 H1463 0.960 . S
C1476 C1475 1.524 . S
C1477 C1474 1.403 . S
C1477 C1478 1.392 . S
C1477 C1481 1.495 . S
C1478 C1477 1.392 . S
C1478 C1479 1.385 . S
C1478 C1480 1.478 . S
C1479 H1473 0.930 . S
C1479 C1475 1.400 . S
C1479 C1478 1.385 . S
C1480 C1478 1.478 . S
C1480 C1482 1.381 . S
C1480 C1486 1.383 . S
C1481 C1477 1.495 . S
C1481 H1487 0.959 . S
C1481 H1488 0.961 . S
C1481 H1489 0.960 . S
C1482 C1480 1.381 . S
C1482 C1483 1.394 . S
C1482 H1490 0.930 . S
C1483 C1482 1.394 . S
C1483 C1484 1.383 . S
C1483 H1491 0.929 . S
C1484 C1483 1.383 . S
C1484 C1485 1.377 . S
C1485 H1469 0.930 . S
C1485 C1484 1.377 . S
C1485 C1486 1.379 . S
C1486 H1470 0.931 . S
C1486 C1480 1.383 . S
C1486 C1485 1.379 . S
H1487 C1481 0.959 . S
H1488 C1481 0.961 . S
H1489 C1481 0.960 . S
H1490 C1482 0.930 . S
H1491 C1483 0.929 . S
H1492 C1500 0.929 . S
H1493 C1502 0.930 . S
H1494 C1504 0.930 . S
H1495 C1507 0.929 . S
H1496 C1510 0.930 . S
H1497 C1512 0.960 . S
H1498 C1512 0.960 . S
H1499 C1512 0.960 . S
C1500 H1492 0.929 . S
C1500 C1501 1.377 . S
C1500 C1502 1.384 . S
C1501 C1500 1.377 . S
C1501 C1507 1.390 . S
C1502 H1493 0.930 . S
C1502 C1500 1.384 . S
C1502 C1503 1.372 . S
C1503 C1502 1.372 . S
C1503 C1504 1.400 . S
C1503 C1508 1.490 . S
C1504 H1494 0.930 . S
C1504 C1503 1.400 . S
C1504 C1507 1.386 . S
H1505 C1521 0.930 . S
H1506 C1522 0.931 . S
C1507 H1495 0.929 . S
C1507 C1501 1.390 . S
C1507 C1504 1.386 . S
C1508 C1503 1.490 . S
C1508 C1510 1.395 . S
C1508 C1511 1.403 . S
H1509 C1515 0.930 . S
C1510 H1496 0.930 . S
C1510 C1508 1.395 . S
C1510 C1513 1.403 . S
C1511 C1508 1.403 . S
C1511 C1512 1.524 . S
C1511 C1515 1.400 . S
C1512 H1497 0.960 . S
C1512 H1498 0.960 . S
C1512 H1499 0.960 . S
C1512 C1511 1.524 . S
C1513 C1510 1.403 . S
C1513 C1514 1.392 . S
C1513 C1517 1.495 . S
C1514 C1513 1.392 . S
C1514 C1515 1.385 . S
C1514 C1516 1.478 . S
C1515 H1509 0.930 . S
C1515 C1511 1.400 . S
C1515 C1514 1.385 . S
C1516 C1514 1.478 . S
C1516 C1518 1.381 . S
C1516 C1522 1.383 . S
C1517 C1513 1.495 . S
C1517 H1523 0.959 . S
C1517 H1524 0.961 . S
C1517 H1525 0.960 . S
C1518 C1516 1.381 . S
C1518 C1519 1.394 . S
C1518 H1526 0.930 . S
C1519 C1518 1.394 . S
C1519 C1520 1.383 . S
C1519 H1527 0.929 . S
C1520 C1519 1.383 . S
C1520 C1521 1.377 . S
C1521 H1505 0.930 . S
C1521 C1520 1.377 . S
C1521 C1522 1.379 . S
C1522 H1506 0.931 . S
C1522 C1516 1.383 . S
C1522 C1521 1.379 . S
H1523 C1517 0.959 . S
H1524 C1517 0.961 . S
H1525 C1517 0.960 . S
H1526 C1518 0.930 . S
H1527 C1519 0.929 . S
H1528 C1536 0.916 1_556 S
H1529 C1538 0.930 . S
H1530 C1540 0.930 . S
H1531 C1543 0.929 . S
H1532 C1546 0.930 . S
H1533 C1548 0.960 1_545 S
H1534 C1548 0.960 . S
H1535 C1548 0.960 . S
C1536 H1528 0.916 1_554 S
C1536 C1537 1.377 . S
C1536 C1538 1.384 . S
C1537 C1536 1.377 . S
C1537 C1543 1.390 . S
C1538 H1529 0.930 . S
C1538 C1536 1.384 . S
C1538 C1539 1.372 . S
C1539 C1538 1.372 . S
C1539 C1540 1.400 . S
C1539 C1544 1.490 . S
C1540 H1530 0.930 . S
C1540 C1539 1.400 . S
C1540 C1543 1.386 . S
H1541 C1557 0.930 . S
H1542 C1558 0.931 1_545 S
C1543 H1531 0.929 . S
C1543 C1537 1.390 . S
C1543 C1540 1.386 . S
C1544 C1539 1.490 . S
C1544 C1546 1.395 . S
C1544 C1547 1.403 . S
H1545 C1551 0.930 1_545 S
C1546 H1532 0.930 . S
C1546 C1544 1.395 . S
C1546 C1549 1.403 . S
C1547 C1544 1.403 . S
C1547 C1548 1.524 . S
C1547 C1551 1.400 . S
C1548 H1533 0.960 1_565 S
C1548 H1534 0.960 . S
C1548 H1535 0.960 . S
C1548 C1547 1.524 . S
C1549 C1546 1.403 . S
C1549 C1550 1.392 . S
C1549 C1553 1.495 . S
C1550 C1549 1.392 . S
C1550 C1551 1.385 . S
C1550 C1552 1.478 . S
C1551 H1545 0.930 1_565 S
C1551 C1547 1.400 . S
C1551 C1550 1.385 . S
C1552 C1550 1.478 . S
C1552 C1554 1.381 . S
C1552 C1558 1.383 . S
C1553 C1549 1.495 . S
C1553 H1559 0.959 . S
C1553 H1560 0.961 . S
C1553 H1561 0.960 . S
C1554 C1552 1.381 . S
C1554 C1555 1.394 . S
C1554 H1562 0.930 . S
C1555 C1554 1.394 . S
C1555 C1556 1.383 1_565 S
C1555 H1563 0.929 . S
C1556 C1555 1.383 1_545 S
C1556 C1557 1.377 . S
C1557 H1541 0.930 . S
C1557 C1556 1.377 . S
C1557 C1558 1.379 1_545 S
C1558 H1542 0.931 1_565 S
C1558 C1552 1.383 . S
C1558 C1557 1.379 1_565 S
H1559 C1553 0.959 . S
H1560 C1553 0.961 . S
H1561 C1553 0.960 . S
H1562 C1554 0.930 . S
H1563 C1555 0.929 . S
H1564 C1572 0.929 . S
H1565 C1574 0.930 . S
H1566 C1576 0.930 . S
H1567 C1579 0.929 . S
H1568 C1582 0.930 . S
H1569 C1584 0.960 . S
H1570 C1584 0.960 . S
H1571 C1584 0.960 . S
C1572 H1564 0.929 . S
C1572 C1573 1.377 . S
C1572 C1574 1.384 . S
C1573 C1572 1.377 . S
C1573 C1579 1.390 1_554 S
C1574 H1565 0.930 . S
C1574 C1572 1.384 . S
C1574 C1575 1.372 . S
C1575 C1574 1.372 . S
C1575 C1576 1.400 1_554 S
C1575 C1580 1.490 . S
C1576 H1566 0.930 . S
C1576 C1575 1.400 1_556 S
C1576 C1579 1.386 . S
H1577 C1593 0.930 . S
H1578 C1594 0.931 . S
C1579 H1567 0.929 . S
C1579 C1573 1.390 1_556 S
C1579 C1576 1.386 . S
C1580 C1575 1.490 . S
C1580 C1582 1.395 1_554 S
C1580 C1583 1.403 . S
H1581 C1587 0.930 . S
C1582 H1568 0.930 . S
C1582 C1580 1.395 1_556 S
C1582 C1585 1.403 . S
C1583 C1580 1.403 . S
C1583 C1584 1.524 . S
C1583 C1587 1.400 . S
C1584 H1569 0.960 . S
C1584 H1570 0.960 . S
C1584 H1571 0.960 . S
C1584 C1583 1.524 . S
C1585 C1582 1.403 . S
C1585 C1586 1.390 . S
C1585 C1589 1.495 . S
C1586 C1585 1.390 . S
C1586 C1587 1.386 1_556 S
C1586 C1588 1.485 . S
C1587 H1581 0.930 . S
C1587 C1583 1.400 . S
C1587 C1586 1.386 1_554 S
C1588 C1586 1.485 . S
C1588 C1590 1.357 1_556 S
C1588 C1594 1.399 . S
C1589 C1585 1.495 . S
C1589 H1595 0.959 . S
C1589 H1596 0.961 . S
C1589 H1597 0.960 . S
C1590 C1588 1.357 1_554 S
C1590 C1591 1.394 . S
C1590 H1598 0.930 . S
C1591 C1590 1.394 . S
C1591 C1592 1.382 . S
C1591 H1599 0.929 . S
C1592 C1591 1.382 . S
C1592 C1593 1.379 1_554 S
C1593 H1577 0.930 . S
C1593 C1592 1.379 1_556 S
C1593 C1594 1.379 . S
C1594 H1578 0.931 . S
C1594 C1588 1.399 . S
C1594 C1593 1.379 . S
H1595 C1589 0.959 . S
H1596 C1589 0.961 . S
H1597 C1589 0.960 . S
H1598 C1590 0.930 . S
H1599 C1591 0.929 . S
H1600 C1608 0.929 . S
H1601 C1610 0.930 . S
H1602 C1612 0.930 . S
H1603 C1615 0.929 . S
H1604 C1618 0.930 . S
H1605 C1620 0.960 . S
H1606 C1620 0.960 . S
H1607 C1620 0.960 . S
C1608 H1600 0.929 . S
C1608 C1609 1.377 . S
C1608 C1610 1.384 . S
C1609 C1608 1.377 . S
C1609 C1615 1.390 . S
C1610 H1601 0.930 . S
C1610 C1608 1.384 . S
C1610 C1611 1.372 . S
C1611 C1610 1.372 . S
C1611 C1612 1.400 . S
C1611 C1616 1.490 . S
C1612 H1602 0.930 . S
C1612 C1611 1.400 . S
C1612 C1615 1.386 . S
H1613 C1629 0.930 . S
H1614 C1630 0.931 . S
C1615 H1603 0.929 . S
C1615 C1609 1.390 . S
C1615 C1612 1.386 . S
C1616 C1611 1.490 . S
C1616 C1618 1.395 . S
C1616 C1619 1.403 . S
H1617 C1623 0.930 . S
C1618 H1604 0.930 . S
C1618 C1616 1.395 . S
C1618 C1621 1.403 . S
C1619 C1616 1.403 . S
C1619 C1620 1.524 . S
C1619 C1623 1.400 . S
C1620 H1605 0.960 . S
C1620 H1606 0.960 . S
C1620 H1607 0.960 . S
C1620 C1619 1.524 . S
C1621 C1618 1.403 . S
C1621 C1622 1.392 . S
C1621 C1625 1.495 . S
C1622 C1621 1.392 . S
C1622 C1623 1.385 . S
C1622 C1624 1.478 . S
C1623 H1617 0.930 . S
C1623 C1619 1.400 . S
C1623 C1622 1.385 . S
C1624 C1622 1.478 . S
C1624 C1626 1.381 . S
C1624 C1630 1.383 . S
C1625 C1621 1.495 . S
C1625 H1631 0.959 . S
C1625 H1632 0.961 . S
C1625 H1633 0.960 . S
C1626 C1624 1.381 . S
C1626 C1627 1.394 . S
C1626 H1634 0.930 . S
C1627 C1626 1.394 . S
C1627 C1628 1.383 . S
C1627 H1635 0.929 . S
C1628 C1627 1.383 . S
C1628 C1629 1.377 . S
C1629 H1613 0.930 . S
C1629 C1628 1.377 . S
C1629 C1630 1.379 . S
C1630 H1614 0.931 . S
C1630 C1624 1.383 . S
C1630 C1629 1.379 . S
H1631 C1625 0.959 . S
H1632 C1625 0.961 . S
H1633 C1625 0.960 . S
H1634 C1626 0.930 . S
H1635 C1627 0.929 . S
H1636 C1644 0.929 . S
H1637 C1646 0.930 . S
H1638 C1648 0.930 . S
H1639 C1651 0.929 . S
H1640 C1654 0.930 . S
H1641 C1656 0.960 . S
H1642 C1656 0.960 . S
H1643 C1656 0.960 . S
C1644 H1636 0.929 . S
C1644 C1645 1.377 . S
C1644 C1646 1.384 . S
C1645 C1644 1.377 . S
C1645 C1651 1.390 . S
C1646 H1637 0.930 . S
C1646 C1644 1.384 . S
C1646 C1647 1.372 . S
C1647 C1646 1.372 . S
C1647 C1648 1.400 . S
C1647 C1652 1.490 . S
C1648 H1638 0.930 . S
C1648 C1647 1.400 . S
C1648 C1651 1.386 . S
H1649 C1665 0.930 . S
H1650 C1666 0.931 . S
C1651 H1639 0.929 . S
C1651 C1645 1.390 . S
C1651 C1648 1.386 . S
C1652 C1647 1.490 . S
C1652 C1654 1.395 . S
C1652 C1655 1.403 . S
H1653 C1659 0.930 . S
C1654 H1640 0.930 . S
C1654 C1652 1.395 . S
C1654 C1657 1.403 . S
C1655 C1652 1.403 . S
C1655 C1656 1.524 . S
C1655 C1659 1.400 . S
C1656 H1641 0.960 . S
C1656 H1642 0.960 . S
C1656 H1643 0.960 . S
C1656 C1655 1.524 . S
C1657 C1654 1.403 . S
C1657 C1658 1.392 . S
C1657 C1661 1.495 . S
C1658 C1657 1.392 . S
C1658 C1659 1.385 . S
C1658 C1660 1.478 . S
C1659 H1653 0.930 . S
C1659 C1655 1.400 . S
C1659 C1658 1.385 . S
C1660 C1658 1.478 . S
C1660 C1662 1.381 . S
C1660 C1666 1.383 . S
C1661 C1657 1.495 . S
C1661 H1667 0.959 . S
C1661 H1668 0.961 . S
C1661 H1669 0.960 . S
C1662 C1660 1.381 . S
C1662 C1663 1.394 . S
C1662 H1670 0.930 . S
C1663 C1662 1.394 . S
C1663 C1664 1.383 . S
C1663 H1671 0.929 . S
C1664 C1663 1.383 . S
C1664 C1665 1.377 . S
C1665 H1649 0.930 . S
C1665 C1664 1.377 . S
C1665 C1666 1.379 . S
C1666 H1650 0.931 . S
C1666 C1660 1.383 . S
C1666 C1665 1.379 . S
H1667 C1661 0.959 . S
H1668 C1661 0.961 . S
H1669 C1661 0.960 . S
H1670 C1662 0.930 . S
H1671 C1663 0.929 . S
H1672 C1680 0.929 . S
H1673 C1682 0.930 . S
H1674 C1684 0.930 . S
H1675 C1687 0.929 . S
H1676 C1690 0.930 . S
H1677 C1692 0.960 . S
H1678 C1692 0.960 . S
H1679 C1692 0.960 . S
C1680 H1672 0.929 . S
C1680 C1681 1.377 . S
C1680 C1682 1.384 . S
C1681 C1680 1.377 . S
C1681 C1687 1.390 . S
C1682 H1673 0.930 . S
C1682 C1680 1.384 . S
C1682 C1683 1.372 . S
C1683 C1682 1.372 . S
C1683 C1684 1.400 . S
C1683 C1688 1.490 . S
C1684 H1674 0.930 . S
C1684 C1683 1.400 . S
C1684 C1687 1.386 . S
H1685 C1701 0.930 . S
H1686 C1702 0.931 . S
C1687 H1675 0.929 . S
C1687 C1681 1.390 . S
C1687 C1684 1.386 . S
C1688 C1683 1.490 . S
C1688 C1690 1.395 . S
C1688 C1691 1.403 . S
H1689 C1695 0.930 . S
C1690 H1676 0.930 . S
C1690 C1688 1.395 . S
C1690 C1693 1.403 . S
C1691 C1688 1.403 . S
C1691 C1692 1.524 . S
C1691 C1695 1.400 . S
C1692 H1677 0.960 . S
C1692 H1678 0.960 . S
C1692 H1679 0.960 . S
C1692 C1691 1.524 . S
C1693 C1690 1.403 . S
C1693 C1694 1.392 . S
C1693 C1697 1.495 . S
C1694 C1693 1.392 . S
C1694 C1695 1.385 . S
C1694 C1696 1.478 . S
C1695 H1689 0.930 . S
C1695 C1691 1.400 . S
C1695 C1694 1.385 . S
C1696 C1694 1.478 . S
C1696 C1698 1.381 . S
C1696 C1702 1.383 . S
C1697 C1693 1.495 . S
C1697 H1703 0.959 . S
C1697 H1704 0.961 . S
C1697 H1705 0.960 . S
C1698 C1696 1.381 . S
C1698 C1699 1.394 . S
C1698 H1706 0.930 . S
C1699 C1698 1.394 . S
C1699 C1700 1.383 . S
C1699 H1707 0.929 . S
C1700 C1699 1.383 . S
C1700 C1701 1.377 . S
C1701 H1685 0.930 . S
C1701 C1700 1.377 . S
C1701 C1702 1.379 . S
C1702 H1686 0.931 . S
C1702 C1696 1.383 . S
C1702 C1701 1.379 . S
H1703 C1697 0.959 . S
H1704 C1697 0.961 . S
H1705 C1697 0.960 . S
H1706 C1698 0.930 . S
H1707 C1699 0.929 . S
H1708 C1716 0.929 . S
H1709 C1718 0.930 . S
H1710 C1720 0.930 . S
H1711 C1723 0.929 . S
H1712 C1726 0.930 . S
H1713 C1728 0.960 . S
H1714 C1728 0.960 . S
H1715 C1728 0.960 . S
C1716 H1708 0.929 . S
C1716 C1717 1.377 . S
C1716 C1718 1.384 . S
C1717 C1716 1.377 . S
C1717 C1723 1.390 . S
C1718 H1709 0.930 . S
C1718 C1716 1.384 . S
C1718 C1719 1.372 . S
C1719 C1718 1.372 . S
C1719 C1720 1.400 . S
C1719 C1724 1.490 . S
C1720 H1710 0.930 . S
C1720 C1719 1.400 . S
C1720 C1723 1.386 . S
H1721 C1737 0.930 . S
H1722 C1738 0.931 . S
C1723 H1711 0.929 . S
C1723 C1717 1.390 . S
C1723 C1720 1.386 . S
C1724 C1719 1.490 . S
C1724 C1726 1.395 . S
C1724 C1727 1.403 . S
H1725 C1731 0.930 . S
C1726 H1712 0.930 . S
C1726 C1724 1.395 . S
C1726 C1729 1.403 . S
C1727 C1724 1.403 . S
C1727 C1728 1.524 . S
C1727 C1731 1.400 . S
C1728 H1713 0.960 . S
C1728 H1714 0.960 . S
C1728 H1715 0.960 . S
C1728 C1727 1.524 . S
C1729 C1726 1.403 . S
C1729 C1730 1.392 . S
C1729 C1733 1.495 . S
C1730 C1729 1.392 . S
C1730 C1731 1.385 . S
C1730 C1732 1.478 . S
C1731 H1725 0.930 . S
C1731 C1727 1.400 . S
C1731 C1730 1.385 . S
C1732 C1730 1.478 . S
C1732 C1734 1.381 . S
C1732 C1738 1.383 . S
C1733 C1729 1.495 . S
C1733 H1739 0.959 . S
C1733 H1740 0.961 . S
C1733 H1741 0.960 . S
C1734 C1732 1.381 . S
C1734 C1735 1.394 . S
C1734 H1742 0.930 . S
C1735 C1734 1.394 . S
C1735 C1736 1.383 . S
C1735 H1743 0.929 . S
C1736 C1735 1.383 . S
C1736 C1737 1.377 . S
C1737 H1721 0.930 . S
C1737 C1736 1.377 . S
C1737 C1738 1.379 . S
C1738 H1722 0.931 . S
C1738 C1732 1.383 . S
C1738 C1737 1.379 . S
H1739 C1733 0.959 . S
H1740 C1733 0.961 . S
H1741 C1733 0.960 . S
H1742 C1734 0.930 . S
H1743 C1735 0.929 . S
H1744 C1752 0.929 . S
H1745 C1754 0.930 . S
H1746 C1756 0.930 . S
H1747 C1759 0.929 . S
H1748 C1762 0.930 . S
H1749 C1764 0.960 . S
H1750 C1764 0.960 . S
H1751 C1764 0.960 . S
C1752 H1744 0.929 . S
C1752 C1753 1.377 . S
C1752 C1754 1.384 . S
C1753 C1752 1.377 . S
C1753 C1759 1.390 . S
C1754 H1745 0.930 . S
C1754 C1752 1.384 . S
C1754 C1755 1.372 . S
C1755 C1754 1.372 . S
C1755 C1756 1.400 . S
C1755 C1760 1.490 . S
C1756 H1746 0.930 . S
C1756 C1755 1.400 . S
C1756 C1759 1.386 . S
H1757 C1773 0.930 . S
H1758 C1774 0.931 . S
C1759 H1747 0.929 . S
C1759 C1753 1.390 . S
C1759 C1756 1.386 . S
C1760 C1755 1.490 . S
C1760 C1762 1.395 . S
C1760 C1763 1.403 . S
H1761 C1767 0.930 . S
C1762 H1748 0.930 . S
C1762 C1760 1.395 . S
C1762 C1765 1.403 . S
C1763 C1760 1.403 . S
C1763 C1764 1.524 . S
C1763 C1767 1.400 . S
C1764 H1749 0.960 . S
C1764 H1750 0.960 . S
C1764 H1751 0.960 . S
C1764 C1763 1.524 . S
C1765 C1762 1.403 . S
C1765 C1766 1.392 . S
C1765 C1769 1.495 . S
C1766 C1765 1.392 . S
C1766 C1767 1.385 . S
C1766 C1768 1.478 . S
C1767 H1761 0.930 . S
C1767 C1763 1.400 . S
C1767 C1766 1.385 . S
C1768 C1766 1.478 . S
C1768 C1770 1.381 . S
C1768 C1774 1.383 . S
C1769 C1765 1.495 . S
C1769 H1775 0.959 . S
C1769 H1776 0.961 . S
C1769 H1777 0.960 . S
C1770 C1768 1.381 . S
C1770 C1771 1.394 . S
C1770 H1778 0.930 . S
C1771 C1770 1.394 . S
C1771 C1772 1.383 . S
C1771 H1779 0.929 . S
C1772 C1771 1.383 . S
C1772 C1773 1.377 . S
C1773 H1757 0.930 . S
C1773 C1772 1.377 . S
C1773 C1774 1.379 . S
C1774 H1758 0.931 . S
C1774 C1768 1.383 . S
C1774 C1773 1.379 . S
H1775 C1769 0.959 . S
H1776 C1769 0.961 . S
H1777 C1769 0.960 . S
H1778 C1770 0.930 . S
H1779 C1771 0.929 . S
H1780 C1788 0.929 . S
H1781 C1790 0.930 . S
H1782 C1792 0.930 . S
H1783 C1795 0.929 . S
H1784 C1798 0.930 . S
H1785 C1800 0.960 . S
H1786 C1800 0.960 . S
H1787 C1800 0.960 . S
C1788 H1780 0.929 . S
C1788 C1789 1.377 . S
C1788 C1790 1.384 . S
C1789 C1788 1.377 . S
C1789 C1795 1.390 . S
C1790 H1781 0.930 . S
C1790 C1788 1.384 . S
C1790 C1791 1.372 . S
C1791 C1790 1.372 . S
C1791 C1792 1.400 . S
C1791 C1796 1.490 . S
C1792 H1782 0.930 . S
C1792 C1791 1.400 . S
C1792 C1795 1.386 . S
H1793 C1809 0.930 . S
H1794 C1810 0.931 . S
C1795 H1783 0.929 . S
C1795 C1789 1.390 . S
C1795 C1792 1.386 . S
C1796 C1791 1.490 . S
C1796 C1798 1.395 . S
C1796 C1799 1.403 . S
H1797 C1803 0.930 . S
C1798 H1784 0.930 . S
C1798 C1796 1.395 . S
C1798 C1801 1.403 . S
C1799 C1796 1.403 . S
C1799 C1800 1.524 . S
C1799 C1803 1.400 . S
C1800 H1785 0.960 . S
C1800 H1786 0.960 . S
C1800 H1787 0.960 . S
C1800 C1799 1.524 . S
C1801 C1798 1.403 . S
C1801 C1802 1.392 . S
C1801 C1805 1.495 . S
C1802 C1801 1.392 . S
C1802 C1803 1.385 . S
C1802 C1804 1.478 . S
C1803 H1797 0.930 . S
C1803 C1799 1.400 . S
C1803 C1802 1.385 . S
C1804 C1802 1.478 . S
C1804 C1806 1.381 . S
C1804 C1810 1.383 . S
C1805 C1801 1.495 . S
C1805 H1811 0.959 . S
C1805 H1812 0.961 . S
C1805 H1813 0.960 . S
C1806 C1804 1.381 . S
C1806 C1807 1.394 . S
C1806 H1814 0.930 . S
C1807 C1806 1.394 . S
C1807 C1808 1.383 . S
C1807 H1815 0.929 . S
C1808 C1807 1.383 . S
C1808 C1809 1.377 . S
C1809 H1793 0.930 . S
C1809 C1808 1.377 . S
C1809 C1810 1.379 . S
C1810 H1794 0.931 . S
C1810 C1804 1.383 . S
C1810 C1809 1.379 . S
H1811 C1805 0.959 . S
H1812 C1805 0.961 . S
H1813 C1805 0.960 . S
H1814 C1806 0.930 . S
H1815 C1807 0.929 . S
H1816 C1824 0.929 . S
H1817 C1826 0.930 . S
H1818 C1828 0.930 . S
H1819 C1831 0.929 . S
H1820 C1834 0.930 . S
H1821 C1836 0.960 . S
H1822 C1836 0.960 . S
H1823 C1836 0.960 . S
C1824 H1816 0.929 . S
C1824 C1825 1.377 . S
C1824 C1826 1.384 . S
C1825 C1824 1.377 . S
C1825 C1831 1.390 . S
C1826 H1817 0.930 . S
C1826 C1824 1.384 . S
C1826 C1827 1.372 . S
C1827 C1826 1.372 . S
C1827 C1828 1.400 . S
C1827 C1832 1.490 . S
C1828 H1818 0.930 . S
C1828 C1827 1.400 . S
C1828 C1831 1.386 . S
H1829 C1845 0.930 . S
H1830 C1846 0.931 . S
C1831 H1819 0.929 . S
C1831 C1825 1.390 . S
C1831 C1828 1.386 . S
C1832 C1827 1.490 . S
C1832 C1834 1.395 . S
C1832 C1835 1.403 . S
H1833 C1839 0.930 . S
C1834 H1820 0.930 . S
C1834 C1832 1.395 . S
C1834 C1837 1.403 . S
C1835 C1832 1.403 . S
C1835 C1836 1.524 . S
C1835 C1839 1.400 . S
C1836 H1821 0.960 . S
C1836 H1822 0.960 . S
C1836 H1823 0.960 . S
C1836 C1835 1.524 . S
C1837 C1834 1.403 . S
C1837 C1838 1.392 . S
C1837 C1841 1.495 . S
C1838 C1837 1.392 . S
C1838 C1839 1.385 . S
C1838 C1840 1.478 . S
C1839 H1833 0.930 . S
C1839 C1835 1.400 . S
C1839 C1838 1.385 . S
C1840 C1838 1.478 . S
C1840 C1842 1.381 . S
C1840 C1846 1.383 . S
C1841 C1837 1.495 . S
C1841 H1847 0.959 . S
C1841 H1848 0.961 . S
C1841 H1849 0.960 . S
C1842 C1840 1.381 . S
C1842 C1843 1.394 . S
C1842 H1850 0.930 . S
C1843 C1842 1.394 . S
C1843 C1844 1.383 . S
C1843 H1851 0.929 . S
C1844 C1843 1.383 . S
C1844 C1845 1.377 . S
C1845 H1829 0.930 . S
C1845 C1844 1.377 . S
C1845 C1846 1.379 . S
C1846 H1830 0.931 . S
C1846 C1840 1.383 . S
C1846 C1845 1.379 . S
H1847 C1841 0.959 . S
H1848 C1841 0.961 . S
H1849 C1841 0.960 . S
H1850 C1842 0.930 . S
H1851 C1843 0.929 . S
H1852 C1860 0.929 . S
H1853 C1862 0.930 . S
H1854 C1864 0.930 . S
H1855 C1867 0.929 . S
H1856 C1870 0.930 . S
H1857 C1872 0.960 . S
H1858 C1872 0.960 . S
H1859 C1872 0.960 . S
C1860 H1852 0.929 . S
C1860 C1861 1.377 . S
C1860 C1862 1.384 . S
C1861 C1860 1.377 . S
C1861 C1867 1.390 . S
C1862 H1853 0.930 . S
C1862 C1860 1.384 . S
C1862 C1863 1.372 . S
C1863 C1862 1.372 . S
C1863 C1864 1.400 . S
C1863 C1868 1.490 . S
C1864 H1854 0.930 . S
C1864 C1863 1.400 . S
C1864 C1867 1.386 . S
H1865 C1881 0.930 . S
H1866 C1882 0.931 . S
C1867 H1855 0.929 . S
C1867 C1861 1.390 . S
C1867 C1864 1.386 . S
C1868 C1863 1.490 . S
C1868 C1870 1.395 . S
C1868 C1871 1.403 . S
H1869 C1875 0.930 . S
C1870 H1856 0.930 . S
C1870 C1868 1.395 . S
C1870 C1873 1.403 . S
C1871 C1868 1.403 . S
C1871 C1872 1.524 . S
C1871 C1875 1.400 . S
C1872 H1857 0.960 . S
C1872 H1858 0.960 . S
C1872 H1859 0.960 . S
C1872 C1871 1.524 . S
C1873 C1870 1.403 . S
C1873 C1874 1.392 . S
C1873 C1877 1.495 . S
C1874 C1873 1.392 . S
C1874 C1875 1.385 . S
C1874 C1876 1.478 . S
C1875 H1869 0.930 . S
C1875 C1871 1.400 . S
C1875 C1874 1.385 . S
C1876 C1874 1.478 . S
C1876 C1878 1.381 . S
C1876 C1882 1.383 . S
C1877 C1873 1.495 . S
C1877 H1883 0.959 . S
C1877 H1884 0.961 . S
C1877 H1885 0.960 . S
C1878 C1876 1.381 . S
C1878 C1879 1.394 . S
C1878 H1886 0.930 . S
C1879 C1878 1.394 . S
C1879 C1880 1.383 . S
C1879 H1887 0.929 . S
C1880 C1879 1.383 . S
C1880 C1881 1.377 . S
C1881 H1865 0.930 . S
C1881 C1880 1.377 . S
C1881 C1882 1.379 . S
C1882 H1866 0.931 . S
C1882 C1876 1.383 . S
C1882 C1881 1.379 . S
H1883 C1877 0.959 . S
H1884 C1877 0.961 . S
H1885 C1877 0.960 . S
H1886 C1878 0.930 . S
H1887 C1879 0.929 . S
H1888 C1896 0.929 . S
H1889 C1898 0.930 . S
H1890 C1900 0.930 . S
H1891 C1903 0.929 . S
H1892 C1906 0.930 . S
H1893 C1908 0.960 . S
H1894 C1908 0.960 . S
H1895 C1908 0.960 . S
C1896 H1888 0.929 . S
C1896 C1897 1.377 . S
C1896 C1898 1.384 . S
C1897 C1896 1.377 . S
C1897 C1903 1.390 . S
C1898 H1889 0.930 . S
C1898 C1896 1.384 . S
C1898 C1899 1.372 . S
C1899 C1898 1.372 . S
C1899 C1900 1.400 . S
C1899 C1904 1.490 . S
C1900 H1890 0.930 . S
C1900 C1899 1.400 . S
C1900 C1903 1.386 . S
H1901 C1917 0.930 . S
H1902 C1918 0.931 . S
C1903 H1891 0.929 . S
C1903 C1897 1.390 . S
C1903 C1900 1.386 . S
C1904 C1899 1.490 . S
C1904 C1906 1.395 . S
C1904 C1907 1.403 . S
H1905 C1911 0.930 . S
C1906 H1892 0.930 . S
C1906 C1904 1.395 . S
C1906 C1909 1.403 . S
C1907 C1904 1.403 . S
C1907 C1908 1.524 . S
C1907 C1911 1.400 . S
C1908 H1893 0.960 . S
C1908 H1894 0.960 . S
C1908 H1895 0.960 . S
C1908 C1907 1.524 . S
C1909 C1906 1.403 . S
C1909 C1910 1.392 . S
C1909 C1913 1.495 . S
C1910 C1909 1.392 . S
C1910 C1911 1.385 . S
C1910 C1912 1.478 . S
C1911 H1905 0.930 . S
C1911 C1907 1.400 . S
C1911 C1910 1.385 . S
C1912 C1910 1.478 . S
C1912 C1914 1.381 . S
C1912 C1918 1.383 . S
C1913 C1909 1.495 . S
C1913 H1919 0.959 . S
C1913 H1920 0.961 . S
C1913 H1921 0.960 . S
C1914 C1912 1.381 . S
C1914 C1915 1.394 . S
C1914 H1922 0.930 . S
C1915 C1914 1.394 . S
C1915 C1916 1.383 . S
C1915 H1923 0.929 . S
C1916 C1915 1.383 . S
C1916 C1917 1.377 . S
C1917 H1901 0.930 . S
C1917 C1916 1.377 . S
C1917 C1918 1.379 . S
C1918 H1902 0.931 . S
C1918 C1912 1.383 . S
C1918 C1917 1.379 . S
H1919 C1913 0.959 . S
H1920 C1913 0.961 . S
H1921 C1913 0.960 . S
H1922 C1914 0.930 . S
H1923 C1915 0.929 . S
H1924 C1932 0.929 . S
H1925 C1934 0.930 . S
H1926 C1936 0.930 . S
H1927 C1939 0.929 . S
H1928 C1942 0.930 . S
H1929 C1944 0.960 . S
H1930 C1944 0.960 . S
H1931 C1944 0.960 . S
C1932 H1924 0.929 . S
C1932 C1933 1.377 . S
C1932 C1934 1.384 . S
C1933 C1932 1.377 . S
C1933 C1939 1.390 . S
C1934 H1925 0.930 . S
C1934 C1932 1.384 . S
C1934 C1935 1.372 . S
C1935 C1934 1.372 . S
C1935 C1936 1.400 . S
C1935 C1940 1.490 . S
C1936 H1926 0.930 . S
C1936 C1935 1.400 . S
C1936 C1939 1.386 . S
H1937 C1953 0.930 . S
H1938 C1954 0.931 . S
C1939 H1927 0.929 . S
C1939 C1933 1.390 . S
C1939 C1936 1.386 . S
C1940 C1935 1.490 . S
C1940 C1942 1.395 . S
C1940 C1943 1.403 . S
H1941 C1947 0.930 . S
C1942 H1928 0.930 . S
C1942 C1940 1.395 . S
C1942 C1945 1.403 . S
C1943 C1940 1.403 . S
C1943 C1944 1.524 . S
C1943 C1947 1.400 . S
C1944 H1929 0.960 . S
C1944 H1930 0.960 . S
C1944 H1931 0.960 . S
C1944 C1943 1.524 . S
C1945 C1942 1.403 . S
C1945 C1946 1.392 . S
C1945 C1949 1.495 . S
C1946 C1945 1.392 . S
C1946 C1947 1.385 . S
C1946 C1948 1.478 . S
C1947 H1941 0.930 . S
C1947 C1943 1.400 . S
C1947 C1946 1.385 . S
C1948 C1946 1.478 . S
C1948 C1950 1.381 . S
C1948 C1954 1.383 . S
C1949 C1945 1.495 . S
C1949 H1955 0.959 . S
C1949 H1956 0.961 . S
C1949 H1957 0.960 . S
C1950 C1948 1.381 . S
C1950 C1951 1.394 . S
C1950 H1958 0.930 . S
C1951 C1950 1.394 . S
C1951 C1952 1.383 . S
C1951 H1959 0.929 . S
C1952 C1951 1.383 . S
C1952 C1953 1.377 . S
C1953 H1937 0.930 . S
C1953 C1952 1.377 . S
C1953 C1954 1.379 . S
C1954 H1938 0.931 . S
C1954 C1948 1.383 . S
C1954 C1953 1.379 . S
H1955 C1949 0.959 . S
H1956 C1949 0.961 . S
H1957 C1949 0.960 . S
H1958 C1950 0.930 . S
H1959 C1951 0.929 . S
H1960 C1968 0.929 . S
H1961 C1970 0.930 . S
H1962 C1972 0.930 . S
H1963 C1975 0.929 . S
H1964 C1978 0.930 . S
H1965 C1980 0.960 . S
H1966 C1980 0.960 . S
H1967 C1980 0.960 . S
C1968 H1960 0.929 . S
C1968 C1969 1.377 . S
C1968 C1970 1.384 . S
C1969 C1968 1.377 . S
C1969 C1975 1.390 . S
C1970 H1961 0.930 . S
C1970 C1968 1.384 . S
C1970 C1971 1.372 . S
C1971 C1970 1.372 . S
C1971 C1972 1.400 . S
C1971 C1976 1.490 . S
C1972 H1962 0.930 . S
C1972 C1971 1.400 . S
C1972 C1975 1.386 . S
H1973 C1989 0.930 . S
H1974 C1990 0.931 . S
C1975 H1963 0.929 . S
C1975 C1969 1.390 . S
C1975 C1972 1.386 . S
C1976 C1971 1.490 . S
C1976 C1978 1.395 . S
C1976 C1979 1.403 . S
H1977 C1983 0.930 . S
C1978 H1964 0.930 . S
C1978 C1976 1.395 . S
C1978 C1981 1.403 . S
C1979 C1976 1.403 . S
C1979 C1980 1.524 . S
C1979 C1983 1.400 . S
C1980 H1965 0.960 . S
C1980 H1966 0.960 . S
C1980 H1967 0.960 . S
C1980 C1979 1.524 . S
C1981 C1978 1.403 . S
C1981 C1982 1.392 . S
C1981 C1985 1.495 . S
C1982 C1981 1.392 . S
C1982 C1983 1.385 . S
C1982 C1984 1.478 . S
C1983 H1977 0.930 . S
C1983 C1979 1.400 . S
C1983 C1982 1.385 . S
C1984 C1982 1.478 . S
C1984 C1986 1.381 . S
C1984 C1990 1.383 . S
C1985 C1981 1.495 . S
C1985 H1991 0.959 . S
C1985 H1992 0.961 . S
C1985 H1993 0.960 . S
C1986 C1984 1.381 . S
C1986 C1987 1.394 . S
C1986 H1994 0.930 . S
C1987 C1986 1.394 . S
C1987 C1988 1.383 . S
C1987 H1995 0.929 . S
C1988 C1987 1.383 . S
C1988 C1989 1.377 . S
C1989 H1973 0.930 . S
C1989 C1988 1.377 . S
C1989 C1990 1.379 . S
C1990 H1974 0.931 . S
C1990 C1984 1.383 . S
C1990 C1989 1.379 . S
H1991 C1985 0.959 . S
H1992 C1985 0.961 . S
H1993 C1985 0.960 . S
H1994 C1986 0.930 . S
H1995 C1987 0.929 . S
H1996 C2004 0.929 . S
H1997 C2006 0.930 . S
H1998 C2008 0.930 . S
H1999 C2011 0.929 . S
H2000 C2014 0.930 . S
H2001 C2016 0.960 . S
H2002 C2016 0.960 . S
H2003 C2016 0.960 . S
C2004 H1996 0.929 . S
C2004 C2005 1.377 . S
C2004 C2006 1.384 . S
C2005 C2004 1.377 . S
C2005 C2011 1.390 . S
C2006 H1997 0.930 . S
C2006 C2004 1.384 . S
C2006 C2007 1.372 . S
C2007 C2006 1.372 . S
C2007 C2008 1.400 . S
C2007 C2012 1.490 . S
C2008 H1998 0.930 . S
C2008 C2007 1.400 . S
C2008 C2011 1.386 . S
H2009 C2025 0.930 . S
H2010 C2026 0.931 . S
C2011 H1999 0.929 . S
C2011 C2005 1.390 . S
C2011 C2008 1.386 . S
C2012 C2007 1.490 . S
C2012 C2014 1.395 . S
C2012 C2015 1.403 . S
H2013 C2019 0.930 . S
C2014 H2000 0.930 . S
C2014 C2012 1.395 . S
C2014 C2017 1.403 . S
C2015 C2012 1.403 . S
C2015 C2016 1.524 . S
C2015 C2019 1.400 . S
C2016 H2001 0.960 . S
C2016 H2002 0.960 . S
C2016 H2003 0.960 . S
C2016 C2015 1.524 . S
C2017 C2014 1.403 . S
C2017 C2018 1.392 . S
C2017 C2021 1.495 . S
C2018 C2017 1.392 . S
C2018 C2019 1.385 . S
C2018 C2020 1.478 . S
C2019 H2013 0.930 . S
C2019 C2015 1.400 . S
C2019 C2018 1.385 . S
C2020 C2018 1.478 . S
C2020 C2022 1.381 . S
C2020 C2026 1.383 . S
C2021 C2017 1.495 . S
C2021 H2027 0.959 . S
C2021 H2028 0.961 . S
C2021 H2029 0.960 . S
C2022 C2020 1.381 . S
C2022 C2023 1.394 . S
C2022 H2030 0.930 . S
C2023 C2022 1.394 . S
C2023 C2024 1.383 . S
C2023 H2031 0.929 . S
C2024 C2023 1.383 . S
C2024 C2025 1.377 . S
C2025 H2009 0.930 . S
C2025 C2024 1.377 . S
C2025 C2026 1.379 . S
C2026 H2010 0.931 . S
C2026 C2020 1.383 . S
C2026 C2025 1.379 . S
H2027 C2021 0.959 . S
H2028 C2021 0.961 . S
H2029 C2021 0.960 . S
H2030 C2022 0.930 . S
H2031 C2023 0.929 . S
H2032 C2040 0.929 . S
H2033 C2042 0.930 . S
H2034 C2044 0.930 . S
H2035 C2047 0.929 . S
H2036 C2050 0.930 . S
H2037 C2052 0.960 . S
H2038 C2052 0.960 . S
H2039 C2052 0.960 . S
C2040 H2032 0.929 . S
C2040 C2041 1.377 . S
C2040 C2042 1.384 . S
C2041 C2040 1.377 . S
C2041 C2047 1.390 . S
C2042 H2033 0.930 . S
C2042 C2040 1.384 . S
C2042 C2043 1.372 . S
C2043 C2042 1.372 . S
C2043 C2044 1.400 . S
C2043 C2048 1.490 . S
C2044 H2034 0.930 . S
C2044 C2043 1.400 . S
C2044 C2047 1.386 . S
H2045 C2061 0.930 1_545 S
H2046 C2062 0.931 . S
C2047 H2035 0.929 . S
C2047 C2041 1.390 . S
C2047 C2044 1.386 . S
C2048 C2043 1.490 . S
C2048 C2050 1.395 . S
C2048 C2051 1.403 . S
H2049 C2055 0.930 . S
C2050 H2036 0.930 . S
C2050 C2048 1.395 . S
C2050 C2053 1.403 . S
C2051 C2048 1.403 . S
C2051 C2052 1.524 . S
C2051 C2055 1.400 . S
C2052 H2037 0.960 . S
C2052 H2038 0.960 . S
C2052 H2039 0.960 . S
C2052 C2051 1.524 . S
C2053 C2050 1.403 . S
C2053 C2054 1.392 . S
C2053 C2057 1.495 . S
C2054 C2053 1.392 . S
C2054 C2055 1.385 . S
C2054 C2056 1.478 . S
C2055 H2049 0.930 . S
C2055 C2051 1.400 . S
C2055 C2054 1.385 . S
C2056 C2054 1.478 . S
C2056 C2058 1.381 . S
C2056 C2062 1.383 . S
C2057 C2053 1.495 . S
C2057 H2063 0.959 . S
C2057 H2064 0.961 . S
C2057 H2065 0.960 . S
C2058 C2056 1.381 . S
C2058 C2059 1.394 . S
C2058 H2066 0.930 . S
C2059 C2058 1.394 . S
C2059 C2060 1.383 . S
C2059 H2067 0.929 . S
C2060 C2059 1.383 . S
C2060 C2061 1.377 . S
C2061 H2045 0.930 1_565 S
C2061 C2060 1.377 . S
C2061 C2062 1.379 . S
C2062 H2046 0.931 . S
C2062 C2056 1.383 . S
C2062 C2061 1.379 . S
H2063 C2057 0.959 . S
H2064 C2057 0.961 . S
H2065 C2057 0.960 . S
H2066 C2058 0.930 . S
H2067 C2059 0.929 . S
H2068 C2076 0.929 . S
H2069 C2078 0.930 . S
H2070 C2080 0.930 . S
H2071 C2083 0.929 . S
H2072 C2086 0.930 . S
H2073 C2088 0.960 . S
H2074 C2088 0.960 . S
H2075 C2088 0.960 . S
C2076 H2068 0.929 . S
C2076 C2077 1.377 . S
C2076 C2078 1.384 . S
C2077 C2076 1.377 . S
C2077 C2083 1.390 . S
C2078 H2069 0.930 . S
C2078 C2076 1.384 . S
C2078 C2079 1.372 . S
C2079 C2078 1.372 . S
C2079 C2080 1.400 . S
C2079 C2084 1.490 . S
C2080 H2070 0.930 . S
C2080 C2079 1.400 . S
C2080 C2083 1.386 . S
H2081 C2097 0.930 . S
H2082 C2098 0.931 . S
C2083 H2071 0.929 . S
C2083 C2077 1.390 . S
C2083 C2080 1.386 . S
C2084 C2079 1.490 . S
C2084 C2086 1.395 . S
C2084 C2087 1.403 . S
H2085 C2091 0.930 . S
C2086 H2072 0.930 . S
C2086 C2084 1.395 . S
C2086 C2089 1.403 . S
C2087 C2084 1.403 . S
C2087 C2088 1.524 . S
C2087 C2091 1.400 . S
C2088 H2073 0.960 . S
C2088 H2074 0.960 . S
C2088 H2075 0.960 . S
C2088 C2087 1.524 . S
C2089 C2086 1.403 . S
C2089 C2090 1.392 . S
C2089 C2093 1.495 . S
C2090 C2089 1.392 . S
C2090 C2091 1.385 . S
C2090 C2092 1.478 . S
C2091 H2085 0.930 . S
C2091 C2087 1.400 . S
C2091 C2090 1.385 . S
C2092 C2090 1.478 . S
C2092 C2094 1.381 . S
C2092 C2098 1.383 . S
C2093 C2089 1.495 . S
C2093 H2099 0.959 . S
C2093 H2100 0.961 . S
C2093 H2101 0.960 . S
C2094 C2092 1.381 . S
C2094 C2095 1.394 . S
C2094 H2102 0.930 . S
C2095 C2094 1.394 . S
C2095 C2096 1.383 . S
C2095 H2103 0.929 . S
C2096 C2095 1.383 . S
C2096 C2097 1.377 . S
C2097 H2081 0.930 . S
C2097 C2096 1.377 . S
C2097 C2098 1.379 . S
C2098 H2082 0.931 . S
C2098 C2092 1.383 . S
C2098 C2097 1.379 . S
H2099 C2093 0.959 . S
H2100 C2093 0.961 . S
H2101 C2093 0.960 . S
H2102 C2094 0.930 . S
H2103 C2095 0.929 . S
H2104 C2112 0.929 1_565 S
H2105 C2114 0.930 1_565 S
H2106 C2116 0.930 . S
H2107 C2119 0.929 . S
H2108 C2122 0.930 1_565 S
H2109 C2124 0.960 . S
H2110 C2124 0.960 . S
H2111 C2124 0.960 . S
C2112 H2104 0.929 1_545 S
C2112 C2113 1.377 . S
C2112 C2114 1.384 . S
C2113 C2112 1.377 . S
C2113 C2119 1.390 . S
C2114 H2105 0.930 1_545 S
C2114 C2112 1.384 . S
C2114 C2115 1.372 . S
C2115 C2114 1.372 . S
C2115 C2116 1.400 . S
C2115 C2120 1.490 . S
C2116 H2106 0.930 . S
C2116 C2115 1.400 . S
C2116 C2119 1.386 . S
H2117 C2133 0.930 . S
H2118 C2134 0.931 . S
C2119 H2107 0.929 . S
C2119 C2113 1.390 . S
C2119 C2116 1.386 . S
C2120 C2115 1.490 . S
C2120 C2122 1.395 . S
C2120 C2123 1.403 . S
H2121 C2127 0.930 . S
C2122 H2108 0.930 1_545 S
C2122 C2120 1.395 . S
C2122 C2125 1.403 . S
C2123 C2120 1.403 . S
C2123 C2124 1.524 . S
C2123 C2127 1.400 . S
C2124 H2109 0.960 . S
C2124 H2110 0.960 . S
C2124 H2111 0.960 . S
C2124 C2123 1.524 . S
C2125 C2122 1.403 . S
C2125 C2126 1.392 . S
C2125 C2129 1.495 1_545 S
C2126 C2125 1.392 . S
C2126 C2127 1.385 . S
C2126 C2128 1.478 . S
C2127 H2121 0.930 . S
C2127 C2123 1.400 . S
C2127 C2126 1.385 . S
C2128 C2126 1.478 . S
C2128 C2130 1.381 . S
C2128 C2134 1.383 . S
C2129 C2125 1.495 1_565 S
C2129 H2135 0.959 . S
C2129 H2136 0.961 . S
C2129 H2137 0.960 . S
C2130 C2128 1.381 . S
C2130 C2131 1.394 . S
C2130 H2138 0.930 . S
C2131 C2130 1.394 . S
C2131 C2132 1.383 . S
C2131 H2139 0.929 . S
C2132 C2131 1.383 . S
C2132 C2133 1.377 . S
C2133 H2117 0.930 . S
C2133 C2132 1.377 . S
C2133 C2134 1.379 . S
C2134 H2118 0.931 . S
C2134 C2128 1.383 . S
C2134 C2133 1.379 . S
H2135 C2129 0.959 . S
H2136 C2129 0.961 . S
H2137 C2129 0.960 . S
H2138 C2130 0.930 . S
H2139 C2131 0.929 . S
H2140 C2148 0.929 . S
H2141 C2150 0.930 . S
H2142 C2152 0.930 . S
H2143 C2155 0.929 . S
H2144 C2158 0.930 . S
H2145 C2160 0.960 . S
H2146 C2160 0.960 . S
H2147 C2160 0.960 . S
C2148 H2140 0.929 . S
C2148 C2149 1.377 . S
C2148 C2150 1.384 . S
C2149 C2148 1.377 . S
C2149 C2155 1.390 . S
C2150 H2141 0.930 . S
C2150 C2148 1.384 . S
C2150 C2151 1.372 . S
C2151 C2150 1.372 . S
C2151 C2152 1.400 . S
C2151 C2156 1.490 . S
C2152 H2142 0.930 . S
C2152 C2151 1.400 . S
C2152 C2155 1.386 . S
H2153 C2169 0.930 . S
H2154 C2170 0.931 . S
C2155 H2143 0.929 . S
C2155 C2149 1.390 . S
C2155 C2152 1.386 . S
C2156 C2151 1.490 . S
C2156 C2158 1.395 . S
C2156 C2159 1.403 . S
H2157 C2163 0.930 . S
C2158 H2144 0.930 . S
C2158 C2156 1.395 . S
C2158 C2161 1.403 . S
C2159 C2156 1.403 . S
C2159 C2160 1.524 . S
C2159 C2163 1.400 . S
C2160 H2145 0.960 . S
C2160 H2146 0.960 . S
C2160 H2147 0.960 . S
C2160 C2159 1.524 . S
C2161 C2158 1.403 . S
C2161 C2162 1.392 . S
C2161 C2165 1.495 . S
C2162 C2161 1.392 . S
C2162 C2163 1.385 . S
C2162 C2164 1.478 . S
C2163 H2157 0.930 . S
C2163 C2159 1.400 . S
C2163 C2162 1.385 . S
C2164 C2162 1.478 . S
C2164 C2166 1.381 . S
C2164 C2170 1.383 . S
C2165 C2161 1.495 . S
C2165 H2171 0.959 . S
C2165 H2172 0.961 . S
C2165 H2173 0.960 . S
C2166 C2164 1.381 . S
C2166 C2167 1.394 . S
C2166 H2174 0.930 . S
C2167 C2166 1.394 . S
C2167 C2168 1.383 . S
C2167 H2175 0.929 . S
C2168 C2167 1.383 . S
C2168 C2169 1.377 . S
C2169 H2153 0.930 . S
C2169 C2168 1.377 . S
C2169 C2170 1.379 . S
C2170 H2154 0.931 . S
C2170 C2164 1.383 . S
C2170 C2169 1.379 . S
H2171 C2165 0.959 . S
H2172 C2165 0.961 . S
H2173 C2165 0.960 . S
H2174 C2166 0.930 . S
H2175 C2167 0.929 . S
H2176 C2184 0.929 . S
H2177 C2186 0.930 . S
H2178 C2188 0.930 . S
H2179 C2191 0.929 . S
H2180 C2194 0.930 1_565 S
H2181 C2196 0.960 . S
H2182 C2196 0.960 . S
H2183 C2196 0.960 . S
C2184 H2176 0.929 . S
C2184 C2185 1.377 1_565 S
C2184 C2186 1.384 . S
C2185 C2184 1.377 1_545 S
C2185 C2191 1.390 . S
C2186 H2177 0.930 . S
C2186 C2184 1.384 . S
C2186 C2187 1.372 1_565 S
C2187 C2186 1.372 1_545 S
C2187 C2188 1.400 . S
C2187 C2192 1.490 . S
C2188 H2178 0.930 . S
C2188 C2187 1.400 . S
C2188 C2191 1.386 . S
H2189 C2205 0.930 . S
H2190 C2206 0.931 . S
C2191 H2179 0.929 . S
C2191 C2185 1.390 . S
C2191 C2188 1.386 . S
C2192 C2187 1.490 . S
C2192 C2194 1.395 . S
C2192 C2195 1.403 . S
H2193 C2199 0.930 . S
C2194 H2180 0.930 1_545 S
C2194 C2192 1.395 . S
C2194 C2197 1.403 . S
C2195 C2192 1.403 . S
C2195 C2196 1.524 . S
C2195 C2199 1.400 . S
C2196 H2181 0.960 . S
C2196 H2182 0.960 . S
C2196 H2183 0.960 . S
C2196 C2195 1.524 . S
C2197 C2194 1.403 . S
C2197 C2198 1.392 . S
C2197 C2201 1.495 1_545 S
C2198 C2197 1.392 . S
C2198 C2199 1.385 . S
C2198 C2200 1.478 . S
C2199 H2193 0.930 . S
C2199 C2195 1.400 . S
C2199 C2198 1.385 . S
C2200 C2198 1.478 . S
C2200 C2202 1.381 . S
C2200 C2206 1.383 . S
C2201 C2197 1.495 1_565 S
C2201 H2207 0.959 . S
C2201 H2208 0.961 . S
C2201 H2209 0.960 . S
C2202 C2200 1.381 . S
C2202 C2203 1.394 . S
C2202 H2210 0.930 1_545 S
C2203 C2202 1.394 . S
C2203 C2204 1.383 . S
C2203 H2211 0.929 1_545 S
C2204 C2203 1.383 . S
C2204 C2205 1.377 . S
C2205 H2189 0.930 . S
C2205 C2204 1.377 . S
C2205 C2206 1.379 . S
C2206 H2190 0.931 . S
C2206 C2200 1.383 . S
C2206 C2205 1.379 . S
H2207 C2201 0.959 . S
H2208 C2201 0.961 . S
H2209 C2201 0.960 . S
H2210 C2202 0.930 1_565 S
H2211 C2203 0.929 1_565 S
H2212 C2220 0.929 . S
H2213 C2222 0.930 . S
H2214 C2224 0.930 . S
H2215 C2227 0.929 . S
H2216 C2230 0.930 . S
H2217 C2232 0.960 . S
H2218 C2232 0.960 . S
H2219 C2232 0.960 . S
C2220 H2212 0.929 . S
C2220 C2221 1.377 . S
C2220 C2222 1.384 . S
C2221 C2220 1.377 . S
C2221 C2227 1.390 . S
C2222 H2213 0.930 . S
C2222 C2220 1.384 . S
C2222 C2223 1.372 . S
C2223 C2222 1.372 . S
C2223 C2224 1.400 . S
C2223 C2228 1.490 . S
C2224 H2214 0.930 . S
C2224 C2223 1.400 . S
C2224 C2227 1.386 . S
H2225 C2241 0.930 . S
H2226 C2242 0.931 . S
C2227 H2215 0.929 . S
C2227 C2221 1.390 . S
C2227 C2224 1.386 . S
C2228 C2223 1.490 . S
C2228 C2230 1.395 . S
C2228 C2231 1.403 . S
H2229 C2235 0.930 . S
C2230 H2216 0.930 . S
C2230 C2228 1.395 . S
C2230 C2233 1.403 . S
C2231 C2228 1.403 . S
C2231 C2232 1.524 . S
C2231 C2235 1.400 . S
C2232 H2217 0.960 . S
C2232 H2218 0.960 . S
C2232 H2219 0.960 . S
C2232 C2231 1.524 . S
C2233 C2230 1.403 . S
C2233 C2234 1.392 . S
C2233 C2237 1.495 . S
C2234 C2233 1.392 . S
C2234 C2235 1.385 . S
C2234 C2236 1.478 . S
C2235 H2229 0.930 . S
C2235 C2231 1.400 . S
C2235 C2234 1.385 . S
C2236 C2234 1.478 . S
C2236 C2238 1.381 . S
C2236 C2242 1.383 . S
C2237 C2233 1.495 . S
C2237 H2243 0.959 . S
C2237 H2244 0.961 . S
C2237 H2245 0.960 . S
C2238 C2236 1.381 . S
C2238 C2239 1.394 . S
C2238 H2246 0.930 . S
C2239 C2238 1.394 . S
C2239 C2240 1.383 . S
C2239 H2247 0.929 . S
C2240 C2239 1.383 . S
C2240 C2241 1.377 . S
C2241 H2225 0.930 . S
C2241 C2240 1.377 . S
C2241 C2242 1.379 . S
C2242 H2226 0.931 . S
C2242 C2236 1.383 . S
C2242 C2241 1.379 . S
H2243 C2237 0.959 . S
H2244 C2237 0.961 . S
H2245 C2237 0.960 . S
H2246 C2238 0.930 . S
H2247 C2239 0.929 . S
H2248 C2256 0.929 . S
H2249 C2258 0.930 . S
H2250 C2260 0.930 . S
H2251 C2263 0.929 . S
H2252 C2266 0.901 1_565 S
H2253 C2268 0.960 . S
H2254 C2268 0.960 . S
H2255 C2268 0.960 . S
C2256 H2248 0.929 . S
C2256 C2257 1.377 1_545 S
C2256 C2258 1.384 . S
C2257 C2256 1.377 1_565 S
C2257 C2263 1.390 . S
C2258 H2249 0.930 . S
C2258 C2256 1.384 . S
C2258 C2259 1.372 . S
C2259 C2258 1.372 . S
C2259 C2260 1.400 1_545 S
C2259 C2264 1.490 . S
C2260 H2250 0.930 . S
C2260 C2259 1.400 1_565 S
C2260 C2263 1.386 . S
H2261 C2277 0.930 1_565 S
H2262 C2278 0.931 . S
C2263 H2251 0.929 . S
C2263 C2257 1.390 . S
C2263 C2260 1.386 . S
C2264 C2259 1.490 . S
C2264 C2266 1.405 . S
C2264 C2267 1.403 . S
H2265 C2271 0.930 . S
C2266 H2252 0.901 1_545 S
C2266 C2264 1.405 . S
C2266 C2269 1.424 . S
C2267 C2264 1.403 . S
C2267 C2268 1.524 . S
C2267 C2271 1.400 . S
C2268 H2253 0.960 . S
C2268 H2254 0.960 . S
C2268 H2255 0.960 . S
C2268 C2267 1.524 . S
C2269 C2266 1.424 . S
C2269 C2270 1.392 . S
C2269 C2273 1.495 1_545 S
C2270 C2269 1.392 . S
C2270 C2271 1.385 . S
C2270 C2272 1.478 . S
C2271 H2265 0.930 . S
C2271 C2267 1.400 . S
C2271 C2270 1.385 . S
C2272 C2270 1.478 . S
C2272 C2274 1.381 . S
C2272 C2278 1.383 1_545 S
C2273 C2269 1.495 1_565 S
C2273 H2279 0.959 . S
C2273 H2280 0.961 . S
C2273 H2281 0.960 1_565 S
C2274 C2272 1.381 . S
C2274 C2275 1.394 . S
C2274 H2282 0.930 . S
C2275 C2274 1.394 . S
C2275 C2276 1.383 . S
C2275 H2283 0.929 . S
C2276 C2275 1.383 . S
C2276 C2277 1.377 . S
C2277 H2261 0.930 1_545 S
C2277 C2276 1.377 . S
C2277 C2278 1.379 1_545 S
C2278 H2262 0.931 . S
C2278 C2272 1.383 1_565 S
C2278 C2277 1.379 1_565 S
H2279 C2273 0.959 . S
H2280 C2273 0.961 . S
H2281 C2273 0.960 1_545 S
H2282 C2274 0.930 . S
H2283 C2275 0.929 . S
H2284 C2292 0.929 . S
H2285 C2294 0.930 . S
H2286 C2296 0.930 . S
H2287 C2299 0.929 . S
H2288 C2302 0.930 . S
H2289 C2304 0.960 . S
H2290 C2304 0.960 . S
H2291 C2304 0.960 . S
C2292 H2284 0.929 . S
C2292 C2293 1.377 . S
C2292 C2294 1.384 . S
C2293 C2292 1.377 . S
C2293 C2299 1.390 . S
C2294 H2285 0.930 . S
C2294 C2292 1.384 . S
C2294 C2295 1.372 . S
C2295 C2294 1.372 . S
C2295 C2296 1.400 . S
C2295 C2300 1.490 . S
C2296 H2286 0.930 . S
C2296 C2295 1.400 . S
C2296 C2299 1.386 . S
H2297 C2313 0.930 . S
H2298 C2314 0.931 . S
C2299 H2287 0.929 . S
C2299 C2293 1.390 . S
C2299 C2296 1.386 . S
C2300 C2295 1.490 . S
C2300 C2302 1.395 . S
C2300 C2303 1.403 . S
H2301 C2307 0.930 . S
C2302 H2288 0.930 . S
C2302 C2300 1.395 . S
C2302 C2305 1.403 . S
C2303 C2300 1.403 . S
C2303 C2304 1.524 . S
C2303 C2307 1.400 . S
C2304 H2289 0.960 . S
C2304 H2290 0.960 . S
C2304 H2291 0.960 . S
C2304 C2303 1.524 . S
C2305 C2302 1.403 . S
C2305 C2306 1.392 . S
C2305 C2309 1.495 . S
C2306 C2305 1.392 . S
C2306 C2307 1.385 . S
C2306 C2308 1.478 . S
C2307 H2301 0.930 . S
C2307 C2303 1.400 . S
C2307 C2306 1.385 . S
C2308 C2306 1.478 . S
C2308 C2310 1.381 . S
C2308 C2314 1.383 . S
C2309 C2305 1.495 . S
C2309 H2315 0.959 . S
C2309 H2316 0.961 . S
C2309 H2317 0.960 . S
C2310 C2308 1.381 . S
C2310 C2311 1.394 . S
C2310 H2318 0.930 . S
C2311 C2310 1.394 . S
C2311 C2312 1.383 . S
C2311 H2319 0.929 . S
C2312 C2311 1.383 . S
C2312 C2313 1.377 . S
C2313 H2297 0.930 . S
C2313 C2312 1.377 . S
C2313 C2314 1.379 . S
C2314 H2298 0.931 . S
C2314 C2308 1.383 . S
C2314 C2313 1.379 . S
H2315 C2309 0.959 . S
H2316 C2309 0.961 . S
H2317 C2309 0.960 . S
H2318 C2310 0.930 . S
H2319 C2311 0.929 . S
H2320 C2328 0.929 . S
H2321 C2330 0.930 . S
H2322 C2332 0.930 . S
H2323 C2335 0.929 . S
H2324 C2338 0.930 . S
H2325 C2340 0.960 . S
H2326 C2340 0.960 . S
H2327 C2340 0.960 . S
C2328 H2320 0.929 . S
C2328 C2329 1.377 . S
C2328 C2330 1.384 . S
C2329 C2328 1.377 . S
C2329 C2335 1.390 1_545 S
C2330 H2321 0.930 . S
C2330 C2328 1.384 . S
C2330 C2331 1.372 . S
C2331 C2330 1.372 . S
C2331 C2332 1.400 1_545 S
C2331 C2336 1.490 . S
C2332 H2322 0.930 . S
C2332 C2331 1.400 1_565 S
C2332 C2335 1.386 . S
H2333 C2349 0.930 . S
H2334 C2350 0.931 . S
C2335 H2323 0.929 . S
C2335 C2329 1.390 1_565 S
C2335 C2332 1.386 . S
C2336 C2331 1.490 . S
C2336 C2338 1.395 . S
C2336 C2339 1.403 . S
H2337 C2343 0.930 . S
C2338 H2324 0.930 . S
C2338 C2336 1.395 . S
C2338 C2341 1.403 . S
C2339 C2336 1.403 . S
C2339 C2340 1.524 . S
C2339 C2343 1.400 . S
C2340 H2325 0.960 . S
C2340 H2326 0.960 . S
C2340 H2327 0.960 . S
C2340 C2339 1.524 . S
C2341 C2338 1.403 . S
C2341 C2342 1.392 . S
C2341 C2345 1.495 . S
C2342 C2341 1.392 . S
C2342 C2343 1.385 . S
C2342 C2344 1.478 . S
C2343 H2337 0.930 . S
C2343 C2339 1.400 . S
C2343 C2342 1.385 . S
C2344 C2342 1.478 . S
C2344 C2346 1.381 . S
C2344 C2350 1.383 1_545 S
C2345 C2341 1.495 . S
C2345 H2351 0.959 . S
C2345 H2352 0.961 1_545 S
C2345 H2353 0.960 . S
C2346 C2344 1.381 . S
C2346 C2347 1.394 . S
C2346 H2354 0.930 . S
C2347 C2346 1.394 . S
C2347 C2348 1.383 . S
C2347 H2355 0.929 . S
C2348 C2347 1.383 . S
C2348 C2349 1.377 1_545 S
C2349 H2333 0.930 . S
C2349 C2348 1.377 1_565 S
C2349 C2350 1.379 . S
C2350 H2334 0.931 . S
C2350 C2344 1.383 1_565 S
C2350 C2349 1.379 . S
H2351 C2345 0.959 . S
H2352 C2345 0.961 1_565 S
H2353 C2345 0.960 . S
H2354 C2346 0.930 . S
H2355 C2347 0.929 . S
H2356 C2364 0.929 . S
H2357 C2366 0.930 . S
H2358 C2368 0.930 . S
H2359 C2371 0.929 . S
H2360 C2374 0.930 . S
H2361 C2376 0.960 . S
H2362 C2376 0.960 . S
H2363 C2376 0.960 . S
C2364 H2356 0.929 . S
C2364 C2365 1.377 . S
C2364 C2366 1.384 . S
C2365 C2364 1.377 . S
C2365 C2371 1.390 . S
C2366 H2357 0.930 . S
C2366 C2364 1.384 . S
C2366 C2367 1.372 . S
C2367 C2366 1.372 . S
C2367 C2368 1.400 . S
C2367 C2372 1.490 . S
C2368 H2358 0.930 . S
C2368 C2367 1.400 . S
C2368 C2371 1.386 . S
H2369 C2385 0.930 . S
H2370 C2386 0.931 . S
C2371 H2359 0.929 . S
C2371 C2365 1.390 . S
C2371 C2368 1.386 . S
C2372 C2367 1.490 . S
C2372 C2374 1.395 . S
C2372 C2375 1.403 . S
H2373 C2379 0.930 . S
C2374 H2360 0.930 . S
C2374 C2372 1.395 . S
C2374 C2377 1.403 . S
C2375 C2372 1.403 . S
C2375 C2376 1.524 . S
C2375 C2379 1.400 . S
C2376 H2361 0.960 . S
C2376 H2362 0.960 . S
C2376 H2363 0.960 . S
C2376 C2375 1.524 . S
C2377 C2374 1.403 . S
C2377 C2378 1.392 . S
C2377 C2381 1.495 . S
C2378 C2377 1.392 . S
C2378 C2379 1.385 . S
C2378 C2380 1.478 . S
C2379 H2373 0.930 . S
C2379 C2375 1.400 . S
C2379 C2378 1.385 . S
C2380 C2378 1.478 . S
C2380 C2382 1.381 . S
C2380 C2386 1.383 . S
C2381 C2377 1.495 . S
C2381 H2387 0.959 . S
C2381 H2388 0.961 . S
C2381 H2389 0.960 . S
C2382 C2380 1.381 . S
C2382 C2383 1.394 . S
C2382 H2390 0.930 . S
C2383 C2382 1.394 . S
C2383 C2384 1.383 . S
C2383 H2391 0.929 . S
C2384 C2383 1.383 . S
C2384 C2385 1.377 . S
C2385 H2369 0.930 . S
C2385 C2384 1.377 . S
C2385 C2386 1.379 . S
C2386 H2370 0.931 . S
C2386 C2380 1.383 . S
C2386 C2385 1.379 . S
H2387 C2381 0.959 . S
H2388 C2381 0.961 . S
H2389 C2381 0.960 . S
H2390 C2382 0.930 . S
H2391 C2383 0.929 . S
H2392 C2400 0.891 1_556 S
H2393 C2402 0.930 . S
H2394 C2404 0.930 . S
H2395 C2407 0.929 . S
H2396 C2410 0.930 . S
H2397 C2412 0.960 . S
H2398 C2412 0.960 . S
H2399 C2412 0.960 . S
C2400 H2392 0.891 1_554 S
C2400 C2401 1.427 . S
C2400 C2402 1.374 1_554 S
C2401 C2400 1.427 . S
C2401 C2407 1.390 . S
C2402 H2393 0.930 . S
C2402 C2400 1.374 1_556 S
C2402 C2403 1.372 1_556 S
C2403 C2402 1.372 1_554 S
C2403 C2404 1.400 . S
C2403 C2408 1.490 . S
C2404 H2394 0.930 . S
C2404 C2403 1.400 . S
C2404 C2407 1.386 . S
H2405 C2421 0.930 . S
H2406 C2422 0.931 . S
C2407 H2395 0.929 . S
C2407 C2401 1.390 . S
C2407 C2404 1.386 . S
C2408 C2403 1.490 . S
C2408 C2410 1.395 1_554 S
C2408 C2411 1.403 . S
H2409 C2415 0.930 . S
C2410 H2396 0.930 . S
C2410 C2408 1.395 1_556 S
C2410 C2413 1.403 . S
C2411 C2408 1.403 . S
C2411 C2412 1.524 . S
C2411 C2415 1.400 . S
C2412 H2397 0.960 . S
C2412 H2398 0.960 . S
C2412 H2399 0.960 . S
C2412 C2411 1.524 . S
C2413 C2410 1.403 . S
C2413 C2414 1.392 1_556 S
C2413 C2417 1.495 . S
C2414 C2413 1.392 1_554 S
C2414 C2415 1.385 . S
C2414 C2416 1.469 1_554 S
C2415 H2409 0.930 . S
C2415 C2411 1.400 . S
C2415 C2414 1.385 . S
C2416 C2414 1.469 1_556 S
C2416 C2418 1.430 . S
C2416 C2422 1.342 1_556 S
C2417 C2413 1.495 . S
C2417 H2423 0.959 . S
C2417 H2424 0.961 . S
C2417 H2425 0.960 . S
C2418 C2416 1.430 . S
C2418 C2419 1.394 . S
C2418 H2426 0.930 . S
C2419 C2418 1.394 . S
C2419 C2420 1.383 . S
C2419 H2427 0.929 . S
C2420 C2419 1.383 . S
C2420 C2421 1.377 1_556 S
C2421 H2405 0.930 . S
C2421 C2420 1.377 1_554 S
C2421 C2422 1.379 . S
C2422 H2406 0.931 . S
C2422 C2416 1.342 1_554 S
C2422 C2421 1.379 . S
H2423 C2417 0.959 . S
H2424 C2417 0.961 . S
H2425 C2417 0.960 . S
H2426 C2418 0.930 . S
H2427 C2419 0.929 . S
H2428 C2436 0.929 . S
H2429 C2438 0.930 . S
H2430 C2440 0.930 1_556 S
H2431 C2443 0.929 1_556 S
H2432 C2446 0.930 . S
H2433 C2448 0.941 1_556 S
H2434 C2448 0.985 . S
H2435 C2448 0.941 1_556 S
C2436 H2428 0.929 . S
C2436 C2437 1.377 . S
C2436 C2438 1.384 . S
C2437 C2436 1.377 . S
C2437 C2443 1.390 . S
C2438 H2429 0.930 . S
C2438 C2436 1.384 . S
C2438 C2439 1.372 . S
C2439 C2438 1.372 . S
C2439 C2440 1.400 . S
C2439 C2444 1.490 . S
C2440 H2430 0.930 1_554 S
C2440 C2439 1.400 . S
C2440 C2443 1.386 . S
H2441 C2457 0.930 . S
H2442 C2458 0.941 . S
C2443 H2431 0.929 1_554 S
C2443 C2437 1.390 . S
C2443 C2440 1.386 . S
C2444 C2439 1.490 . S
C2444 C2446 1.395 . S
C2444 C2447 1.403 . S
H2445 C2451 0.930 . S
C2446 H2432 0.930 . S
C2446 C2444 1.395 . S
C2446 C2449 1.403 . S
C2447 C2444 1.403 . S
C2447 C2448 1.539 . S
C2447 C2451 1.400 . S
C2448 H2433 0.941 1_554 S
C2448 H2434 0.985 . S
C2448 H2435 0.941 1_554 S
C2448 C2447 1.539 . S
C2449 C2446 1.403 . S
C2449 C2450 1.392 . S
C2449 C2453 1.495 . S
C2450 C2449 1.392 . S
C2450 C2451 1.385 . S
C2450 C2452 1.478 . S
C2451 H2445 0.930 . S
C2451 C2447 1.400 . S
C2451 C2450 1.385 . S
C2452 C2450 1.478 . S
C2452 C2454 1.381 . S
C2452 C2458 1.369 1_554 S
C2453 C2449 1.495 . S
C2453 H2459 0.959 . S
C2453 H2460 0.961 . S
C2453 H2461 0.960 . S
C2454 C2452 1.381 . S
C2454 C2455 1.394 . S
C2454 H2462 0.930 . S
C2455 C2454 1.394 . S
C2455 C2456 1.383 . S
C2455 H2463 0.929 . S
C2456 C2455 1.383 . S
C2456 C2457 1.377 1_554 S
C2457 H2441 0.930 . S
C2457 C2456 1.377 1_556 S
C2457 C2458 1.383 . S
C2458 H2442 0.941 . S
C2458 C2452 1.369 1_556 S
C2458 C2457 1.383 . S
H2459 C2453 0.959 . S
H2460 C2453 0.961 . S
H2461 C2453 0.960 . S
H2462 C2454 0.930 . S
H2463 C2455 0.929 . S
H2464 C2472 0.929 . S
H2465 C2474 0.930 . S
H2466 C2476 0.930 . S
H2467 C2479 0.929 . S
H2468 C2482 0.930 . S
H2469 C2484 0.960 . S
H2470 C2484 0.960 . S
H2471 C2484 0.960 . S
C2472 H2464 0.929 . S
C2472 C2473 1.377 . S
C2472 C2474 1.384 . S
C2473 C2472 1.377 . S
C2473 C2479 1.390 . S
C2474 H2465 0.930 . S
C2474 C2472 1.384 . S
C2474 C2475 1.372 . S
C2475 C2474 1.372 . S
C2475 C2476 1.400 . S
C2475 C2480 1.490 . S
C2476 H2466 0.930 . S
C2476 C2475 1.400 . S
C2476 C2479 1.386 . S
H2477 C2493 0.930 . S
H2478 C2494 0.931 . S
C2479 H2467 0.929 . S
C2479 C2473 1.390 . S
C2479 C2476 1.386 . S
C2480 C2475 1.490 . S
C2480 C2482 1.395 . S
C2480 C2483 1.403 . S
H2481 C2487 0.930 . S
C2482 H2468 0.930 . S
C2482 C2480 1.395 . S
C2482 C2485 1.403 . S
C2483 C2480 1.403 . S
C2483 C2484 1.524 . S
C2483 C2487 1.400 . S
C2484 H2469 0.960 . S
C2484 H2470 0.960 . S
C2484 H2471 0.960 . S
C2484 C2483 1.524 . S
C2485 C2482 1.403 . S
C2485 C2486 1.392 . S
C2485 C2489 1.495 . S
C2486 C2485 1.392 . S
C2486 C2487 1.385 . S
C2486 C2488 1.478 . S
C2487 H2481 0.930 . S
C2487 C2483 1.400 . S
C2487 C2486 1.385 . S
C2488 C2486 1.478 . S
C2488 C2490 1.381 . S
C2488 C2494 1.383 . S
C2489 C2485 1.495 . S
C2489 H2495 0.959 . S
C2489 H2496 0.961 . S
C2489 H2497 0.960 . S
C2490 C2488 1.381 . S
C2490 C2491 1.394 . S
C2490 H2498 0.930 . S
C2491 C2490 1.394 . S
C2491 C2492 1.383 . S
C2491 H2499 0.929 . S
C2492 C2491 1.383 . S
C2492 C2493 1.377 . S
C2493 H2477 0.930 . S
C2493 C2492 1.377 . S
C2493 C2494 1.379 . S
C2494 H2478 0.931 . S
C2494 C2488 1.383 . S
C2494 C2493 1.379 . S
H2495 C2489 0.959 . S
H2496 C2489 0.961 . S
H2497 C2489 0.960 . S
H2498 C2490 0.930 . S
H2499 C2491 0.929 . S
H2500 C2508 0.929 . S
H2501 C2510 0.930 . S
H2502 C2512 0.930 . S
H2503 C2515 0.929 . S
H2504 C2518 0.930 . S
H2505 C2520 0.960 . S
H2506 C2520 0.960 . S
H2507 C2520 0.960 . S
C2508 H2500 0.929 . S
C2508 C2509 1.377 . S
C2508 C2510 1.384 . S
C2509 C2508 1.377 . S
C2509 C2515 1.390 . S
C2510 H2501 0.930 . S
C2510 C2508 1.384 . S
C2510 C2511 1.372 . S
C2511 C2510 1.372 . S
C2511 C2512 1.400 . S
C2511 C2516 1.490 . S
C2512 H2502 0.930 . S
C2512 C2511 1.400 . S
C2512 C2515 1.386 . S
H2513 C2529 0.930 . S
H2514 C2530 0.931 . S
C2515 H2503 0.929 . S
C2515 C2509 1.390 . S
C2515 C2512 1.386 . S
C2516 C2511 1.490 . S
C2516 C2518 1.395 . S
C2516 C2519 1.403 . S
H2517 C2523 0.930 . S
C2518 H2504 0.930 . S
C2518 C2516 1.395 . S
C2518 C2521 1.403 . S
C2519 C2516 1.403 . S
C2519 C2520 1.524 . S
C2519 C2523 1.400 . S
C2520 H2505 0.960 . S
C2520 H2506 0.960 . S
C2520 H2507 0.960 . S
C2520 C2519 1.524 . S
C2521 C2518 1.403 . S
C2521 C2522 1.392 . S
C2521 C2525 1.495 . S
C2522 C2521 1.392 . S
C2522 C2523 1.385 . S
C2522 C2524 1.478 . S
C2523 H2517 0.930 . S
C2523 C2519 1.400 . S
C2523 C2522 1.385 . S
C2524 C2522 1.478 . S
C2524 C2526 1.381 . S
C2524 C2530 1.383 . S
C2525 C2521 1.495 . S
C2525 H2531 0.959 . S
C2525 H2532 0.961 . S
C2525 H2533 0.960 . S
C2526 C2524 1.381 . S
C2526 C2527 1.394 . S
C2526 H2534 0.930 . S
C2527 C2526 1.394 . S
C2527 C2528 1.383 . S
C2527 H2535 0.929 . S
C2528 C2527 1.383 . S
C2528 C2529 1.377 . S
C2529 H2513 0.930 . S
C2529 C2528 1.377 . S
C2529 C2530 1.379 . S
C2530 H2514 0.931 . S
C2530 C2524 1.383 . S
C2530 C2529 1.379 . S
H2531 C2525 0.959 . S
H2532 C2525 0.961 . S
H2533 C2525 0.960 . S
H2534 C2526 0.930 . S
H2535 C2527 0.929 . S
H2536 C2544 0.929 . S
H2537 C2546 0.930 . S
H2538 C2548 0.930 . S
H2539 C2551 0.917 1_545 S
H2540 C2554 0.930 . S
H2541 C2556 0.960 . S
H2542 C2556 0.960 . S
H2543 C2556 0.960 . S
C2544 H2536 0.929 . S
C2544 C2545 1.377 . S
C2544 C2546 1.384 1_545 S
C2545 C2544 1.377 . S
C2545 C2551 1.390 1_545 S
C2546 H2537 0.930 . S
C2546 C2544 1.384 1_565 S
C2546 C2547 1.372 . S
C2547 C2546 1.372 . S
C2547 C2548 1.400 . S
C2547 C2552 1.490 . S
C2548 H2538 0.930 . S
C2548 C2547 1.400 . S
C2548 C2551 1.386 . S
H2549 C2565 0.930 . S
H2550 C2566 0.931 . S
C2551 H2539 0.917 1_565 S
C2551 C2545 1.390 1_565 S
C2551 C2548 1.386 . S
C2552 C2547 1.490 . S
C2552 C2554 1.395 . S
C2552 C2555 1.403 . S
H2553 C2559 0.930 . S
C2554 H2540 0.930 . S
C2554 C2552 1.395 . S
C2554 C2557 1.403 . S
C2555 C2552 1.403 . S
C2555 C2556 1.524 . S
C2555 C2559 1.400 . S
C2556 H2541 0.960 . S
C2556 H2542 0.960 . S
C2556 H2543 0.960 . S
C2556 C2555 1.524 . S
C2557 C2554 1.403 . S
C2557 C2558 1.392 . S
C2557 C2561 1.495 . S
C2558 C2557 1.392 . S
C2558 C2559 1.385 . S
C2558 C2560 1.478 . S
C2559 H2553 0.930 . S
C2559 C2555 1.400 . S
C2559 C2558 1.385 . S
C2560 C2558 1.478 . S
C2560 C2562 1.381 . S
C2560 C2566 1.383 . S
C2561 C2557 1.495 . S
C2561 H2567 0.959 . S
C2561 H2568 0.961 . S
C2561 H2569 0.960 . S
C2562 C2560 1.381 . S
C2562 C2563 1.394 . S
C2562 H2570 0.930 . S
C2563 C2562 1.394 . S
C2563 C2564 1.383 . S
C2563 H2571 0.929 . S
C2564 C2563 1.383 . S
C2564 C2565 1.377 . S
C2565 H2549 0.930 . S
C2565 C2564 1.377 . S
C2565 C2566 1.379 . S
C2566 H2550 0.931 . S
C2566 C2560 1.383 . S
C2566 C2565 1.379 . S
H2567 C2561 0.959 . S
H2568 C2561 0.961 . S
H2569 C2561 0.960 . S
H2570 C2562 0.930 . S
H2571 C2563 0.929 . S
H2572 C2580 0.929 . S
H2573 C2582 0.930 . S
H2574 C2584 0.930 . S
H2575 C2587 0.929 . S
H2576 C2590 0.930 . S
H2577 C2592 0.960 . S
H2578 C2592 0.960 . S
H2579 C2592 0.960 . S
C2580 H2572 0.929 . S
C2580 C2581 1.377 . S
C2580 C2582 1.384 . S
C2581 C2580 1.377 . S
C2581 C2587 1.390 . S
C2582 H2573 0.930 . S
C2582 C2580 1.384 . S
C2582 C2583 1.372 . S
C2583 C2582 1.372 . S
C2583 C2584 1.400 . S
C2583 C2588 1.490 . S
C2584 H2574 0.930 . S
C2584 C2583 1.400 . S
C2584 C2587 1.386 . S
H2585 C2601 0.930 . S
H2586 C2602 0.931 . S
C2587 H2575 0.929 . S
C2587 C2581 1.390 . S
C2587 C2584 1.386 . S
C2588 C2583 1.490 . S
C2588 C2590 1.395 . S
C2588 C2591 1.403 . S
H2589 C2595 0.930 . S
C2590 H2576 0.930 . S
C2590 C2588 1.395 . S
C2590 C2593 1.403 . S
C2591 C2588 1.403 . S
C2591 C2592 1.524 . S
C2591 C2595 1.400 . S
C2592 H2577 0.960 . S
C2592 H2578 0.960 . S
C2592 H2579 0.960 . S
C2592 C2591 1.524 . S
C2593 C2590 1.403 . S
C2593 C2594 1.392 . S
C2593 C2597 1.495 . S
C2594 C2593 1.392 . S
C2594 C2595 1.385 . S
C2594 C2596 1.478 . S
C2595 H2589 0.930 . S
C2595 C2591 1.400 . S
C2595 C2594 1.385 . S
C2596 C2594 1.478 . S
C2596 C2598 1.381 . S
C2596 C2602 1.383 . S
C2597 C2593 1.495 . S
C2597 H2603 0.959 . S
C2597 H2604 0.961 . S
C2597 H2605 0.960 . S
C2598 C2596 1.381 . S
C2598 C2599 1.394 . S
C2598 H2606 0.930 . S
C2599 C2598 1.394 . S
C2599 C2600 1.383 . S
C2599 H2607 0.929 . S
C2600 C2599 1.383 . S
C2600 C2601 1.377 . S
C2601 H2585 0.930 . S
C2601 C2600 1.377 . S
C2601 C2602 1.379 . S
C2602 H2586 0.931 . S
C2602 C2596 1.383 . S
C2602 C2601 1.379 . S
H2603 C2597 0.959 . S
H2604 C2597 0.961 . S
H2605 C2597 0.960 . S
H2606 C2598 0.930 . S
H2607 C2599 0.929 . S
H2608 C2616 0.929 . S
H2609 C2618 0.930 . S
H2610 C2620 0.930 . S
H2611 C2623 0.929 . S
H2612 C2626 0.930 . S
H2613 C2628 0.960 . S
H2614 C2628 0.960 . S
H2615 C2628 0.960 . S
C2616 H2608 0.929 . S
C2616 C2617 1.377 . S
C2616 C2618 1.384 . S
C2617 C2616 1.377 . S
C2617 C2623 1.390 . S
C2618 H2609 0.930 . S
C2618 C2616 1.384 . S
C2618 C2619 1.372 . S
C2619 C2618 1.372 . S
C2619 C2620 1.400 . S
C2619 C2624 1.490 . S
C2620 H2610 0.930 . S
C2620 C2619 1.400 . S
C2620 C2623 1.386 . S
H2621 C2637 0.930 . S
H2622 C2638 0.931 . S
C2623 H2611 0.929 . S
C2623 C2617 1.390 . S
C2623 C2620 1.386 . S
C2624 C2619 1.490 . S
C2624 C2626 1.395 . S
C2624 C2627 1.403 . S
H2625 C2631 0.930 . S
C2626 H2612 0.930 . S
C2626 C2624 1.395 . S
C2626 C2629 1.403 . S
C2627 C2624 1.403 . S
C2627 C2628 1.524 . S
C2627 C2631 1.400 . S
C2628 H2613 0.960 . S
C2628 H2614 0.960 . S
C2628 H2615 0.960 . S
C2628 C2627 1.524 . S
C2629 C2626 1.403 . S
C2629 C2630 1.392 . S
C2629 C2633 1.495 . S
C2630 C2629 1.392 . S
C2630 C2631 1.385 . S
C2630 C2632 1.478 . S
C2631 H2625 0.930 . S
C2631 C2627 1.400 . S
C2631 C2630 1.385 . S
C2632 C2630 1.478 . S
C2632 C2634 1.381 . S
C2632 C2638 1.383 . S
C2633 C2629 1.495 . S
C2633 H2639 0.959 . S
C2633 H2640 0.961 . S
C2633 H2641 0.960 . S
C2634 C2632 1.381 . S
C2634 C2635 1.394 . S
C2634 H2642 0.930 . S
C2635 C2634 1.394 . S
C2635 C2636 1.383 . S
C2635 H2643 0.929 . S
C2636 C2635 1.383 . S
C2636 C2637 1.377 . S
C2637 H2621 0.930 . S
C2637 C2636 1.377 . S
C2637 C2638 1.379 . S
C2638 H2622 0.931 . S
C2638 C2632 1.383 . S
C2638 C2637 1.379 . S
H2639 C2633 0.959 . S
H2640 C2633 0.961 . S
H2641 C2633 0.960 . S
H2642 C2634 0.930 . S
H2643 C2635 0.929 . S
H2644 C2652 0.929 . S
H2645 C2654 0.930 . S
H2646 C2656 0.930 . S
H2647 C2659 0.929 . S
H2648 C2662 0.930 . S
H2649 C2664 0.960 . S
H2650 C2664 0.960 . S
H2651 C2664 0.960 . S
C2652 H2644 0.929 . S
C2652 C2653 1.377 . S
C2652 C2654 1.384 . S
C2653 C2652 1.377 . S
C2653 C2659 1.390 . S
C2654 H2645 0.930 . S
C2654 C2652 1.384 . S
C2654 C2655 1.372 . S
C2655 C2654 1.372 . S
C2655 C2656 1.400 . S
C2655 C2660 1.490 . S
C2656 H2646 0.930 . S
C2656 C2655 1.400 . S
C2656 C2659 1.386 . S
H2657 C2673 0.930 . S
H2658 C2674 0.931 . S
C2659 H2647 0.929 . S
C2659 C2653 1.390 . S
C2659 C2656 1.386 . S
C2660 C2655 1.490 . S
C2660 C2662 1.395 . S
C2660 C2663 1.403 . S
H2661 C2667 0.930 . S
C2662 H2648 0.930 . S
C2662 C2660 1.395 . S
C2662 C2665 1.403 . S
C2663 C2660 1.403 . S
C2663 C2664 1.524 . S
C2663 C2667 1.400 . S
C2664 H2649 0.960 . S
C2664 H2650 0.960 . S
C2664 H2651 0.960 . S
C2664 C2663 1.524 . S
C2665 C2662 1.403 . S
C2665 C2666 1.392 . S
C2665 C2669 1.495 . S
C2666 C2665 1.392 . S
C2666 C2667 1.385 . S
C2666 C2668 1.478 . S
C2667 H2661 0.930 . S
C2667 C2663 1.400 . S
C2667 C2666 1.385 . S
C2668 C2666 1.478 . S
C2668 C2670 1.381 . S
C2668 C2674 1.383 . S
C2669 C2665 1.495 . S
C2669 H2675 0.959 . S
C2669 H2676 0.961 . S
C2669 H2677 0.960 . S
C2670 C2668 1.381 . S
C2670 C2671 1.394 . S
C2670 H2678 0.930 . S
C2671 C2670 1.394 . S
C2671 C2672 1.383 . S
C2671 H2679 0.929 . S
C2672 C2671 1.383 . S
C2672 C2673 1.377 . S
C2673 H2657 0.930 . S
C2673 C2672 1.377 . S
C2673 C2674 1.379 . S
C2674 H2658 0.931 . S
C2674 C2668 1.383 . S
C2674 C2673 1.379 . S
H2675 C2669 0.959 . S
H2676 C2669 0.961 . S
H2677 C2669 0.960 . S
H2678 C2670 0.930 . S
H2679 C2671 0.929 . S
H2680 C2688 0.929 . S
H2681 C2690 0.930 . S
H2682 C2692 0.930 . S
H2683 C2695 0.929 . S
H2684 C2698 0.930 . S
H2685 C2700 0.960 . S
H2686 C2700 0.960 . S
H2687 C2700 0.960 . S
C2688 H2680 0.929 . S
C2688 C2689 1.377 . S
C2688 C2690 1.384 . S
C2689 C2688 1.377 . S
C2689 C2695 1.390 . S
C2690 H2681 0.930 . S
C2690 C2688 1.384 . S
C2690 C2691 1.372 . S
C2691 C2690 1.372 . S
C2691 C2692 1.400 . S
C2691 C2696 1.490 . S
C2692 H2682 0.930 . S
C2692 C2691 1.400 . S
C2692 C2695 1.386 . S
H2693 C2709 0.930 . S
H2694 C2710 0.931 . S
C2695 H2683 0.929 . S
C2695 C2689 1.390 . S
C2695 C2692 1.386 . S
C2696 C2691 1.490 . S
C2696 C2698 1.395 . S
C2696 C2699 1.403 . S
H2697 C2703 0.930 . S
C2698 H2684 0.930 . S
C2698 C2696 1.395 . S
C2698 C2701 1.403 . S
C2699 C2696 1.403 . S
C2699 C2700 1.524 . S
C2699 C2703 1.400 . S
C2700 H2685 0.960 . S
C2700 H2686 0.960 . S
C2700 H2687 0.960 . S
C2700 C2699 1.524 . S
C2701 C2698 1.403 . S
C2701 C2702 1.392 . S
C2701 C2705 1.495 . S
C2702 C2701 1.392 . S
C2702 C2703 1.385 . S
C2702 C2704 1.478 . S
C2703 H2697 0.930 . S
C2703 C2699 1.400 . S
C2703 C2702 1.385 . S
C2704 C2702 1.478 . S
C2704 C2706 1.381 . S
C2704 C2710 1.383 . S
C2705 C2701 1.495 . S
C2705 H2711 0.959 . S
C2705 H2712 0.961 . S
C2705 H2713 0.960 . S
C2706 C2704 1.381 . S
C2706 C2707 1.394 . S
C2706 H2714 0.930 . S
C2707 C2706 1.394 . S
C2707 C2708 1.383 . S
C2707 H2715 0.929 . S
C2708 C2707 1.383 . S
C2708 C2709 1.377 . S
C2709 H2693 0.930 . S
C2709 C2708 1.377 . S
C2709 C2710 1.379 . S
C2710 H2694 0.931 . S
C2710 C2704 1.383 . S
C2710 C2709 1.379 . S
H2711 C2705 0.959 . S
H2712 C2705 0.961 . S
H2713 C2705 0.960 . S
H2714 C2706 0.930 . S
H2715 C2707 0.929 . S
H2716 C2724 0.929 . S
H2717 C2726 0.930 . S
H2718 C2728 0.930 . S
H2719 C2731 0.929 . S
H2720 C2734 0.930 . S
H2721 C2736 0.960 . S
H2722 C2736 0.960 . S
H2723 C2736 0.960 . S
C2724 H2716 0.929 . S
C2724 C2725 1.377 . S
C2724 C2726 1.384 . S
C2725 C2724 1.377 . S
C2725 C2731 1.390 . S
C2726 H2717 0.930 . S
C2726 C2724 1.384 . S
C2726 C2727 1.372 . S
C2727 C2726 1.372 . S
C2727 C2728 1.400 . S
C2727 C2732 1.490 . S
C2728 H2718 0.930 . S
C2728 C2727 1.400 . S
C2728 C2731 1.386 . S
H2729 C2745 0.930 . S
H2730 C2746 0.931 . S
C2731 H2719 0.929 . S
C2731 C2725 1.390 . S
C2731 C2728 1.386 . S
C2732 C2727 1.490 . S
C2732 C2734 1.395 . S
C2732 C2735 1.403 . S
H2733 C2739 0.930 . S
C2734 H2720 0.930 . S
C2734 C2732 1.395 . S
C2734 C2737 1.403 . S
C2735 C2732 1.403 . S
C2735 C2736 1.524 . S
C2735 C2739 1.400 . S
C2736 H2721 0.960 . S
C2736 H2722 0.960 . S
C2736 H2723 0.960 . S
C2736 C2735 1.524 . S
C2737 C2734 1.403 . S
C2737 C2738 1.392 . S
C2737 C2741 1.495 . S
C2738 C2737 1.392 . S
C2738 C2739 1.385 . S
C2738 C2740 1.478 . S
C2739 H2733 0.930 . S
C2739 C2735 1.400 . S
C2739 C2738 1.385 . S
C2740 C2738 1.478 . S
C2740 C2742 1.381 . S
C2740 C2746 1.383 . S
C2741 C2737 1.495 . S
C2741 H2747 0.959 . S
C2741 H2748 0.961 . S
C2741 H2749 0.960 . S
C2742 C2740 1.381 . S
C2742 C2743 1.394 . S
C2742 H2750 0.930 . S
C2743 C2742 1.394 . S
C2743 C2744 1.383 . S
C2743 H2751 0.929 . S
C2744 C2743 1.383 . S
C2744 C2745 1.377 . S
C2745 H2729 0.930 . S
C2745 C2744 1.377 . S
C2745 C2746 1.379 . S
C2746 H2730 0.931 . S
C2746 C2740 1.383 . S
C2746 C2745 1.379 . S
H2747 C2741 0.959 . S
H2748 C2741 0.961 . S
H2749 C2741 0.960 . S
H2750 C2742 0.930 . S
H2751 C2743 0.929 . S
H2752 C2760 0.929 . S
H2753 C2762 0.930 . S
H2754 C2764 0.930 . S
H2755 C2767 0.929 . S
H2756 C2770 0.930 . S
H2757 C2772 0.960 . S
H2758 C2772 0.960 . S
H2759 C2772 0.960 1_455 S
C2760 H2752 0.929 . S
C2760 C2761 1.377 . S
C2760 C2762 1.384 . S
C2761 C2760 1.377 . S
C2761 C2767 1.390 . S
C2762 H2753 0.930 . S
C2762 C2760 1.384 . S
C2762 C2763 1.372 . S
C2763 C2762 1.372 . S
C2763 C2764 1.400 . S
C2763 C2768 1.490 . S
C2764 H2754 0.930 . S
C2764 C2763 1.400 . S
C2764 C2767 1.386 . S
H2765 C2781 0.930 1_556 S
H2766 C2782 0.931 . S
C2767 H2755 0.929 . S
C2767 C2761 1.390 . S
C2767 C2764 1.386 . S
C2768 C2763 1.490 . S
C2768 C2770 1.395 . S
C2768 C2771 1.403 . S
H2769 C2775 0.930 . S
C2770 H2756 0.930 . S
C2770 C2768 1.395 . S
C2770 C2773 1.403 1_556 S
C2771 C2768 1.403 . S
C2771 C2772 1.524 1_455 S
C2771 C2775 1.400 . S
C2772 H2757 0.960 . S
C2772 H2758 0.960 . S
C2772 H2759 0.960 1_655 S
C2772 C2771 1.524 1_655 S
C2773 C2770 1.403 1_554 S
C2773 C2774 1.392 1_554 S
C2773 C2777 1.495 . S
C2774 C2773 1.392 1_556 S
C2774 C2775 1.385 . S
C2774 C2776 1.478 1_556 S
C2775 H2769 0.930 . S
C2775 C2771 1.400 . S
C2775 C2774 1.385 . S
C2776 C2774 1.478 1_554 S
C2776 C2778 1.381 . S
C2776 C2782 1.383 1_554 S
C2777 C2773 1.495 . S
C2777 H2783 0.959 . S
C2777 H2784 0.961 . S
C2777 H2785 0.960 . S
C2778 C2776 1.381 . S
C2778 C2779 1.394 . S
C2778 H2786 0.930 . S
C2779 C2778 1.394 . S
C2779 C2780 1.383 . S
C2779 H2787 0.929 . S
C2780 C2779 1.383 . S
C2780 C2781 1.377 . S
C2781 H2765 0.930 1_554 S
C2781 C2780 1.377 . S
C2781 C2782 1.379 1_554 S
C2782 H2766 0.931 . S
C2782 C2776 1.383 1_556 S
C2782 C2781 1.379 1_556 S
H2783 C2777 0.959 . S
H2784 C2777 0.961 . S
H2785 C2777 0.960 . S
H2786 C2778 0.930 . S
H2787 C2779 0.929 . S
H2788 C2796 0.929 . S
H2789 C2798 0.930 . S
H2790 C2800 0.930 . S
H2791 C2803 0.929 . S
H2792 C2806 0.930 . S
H2793 C2808 0.960 . S
H2794 C2808 0.960 . S
H2795 C2808 0.960 . S
C2796 H2788 0.929 . S
C2796 C2797 1.377 . S
C2796 C2798 1.384 1_455 S
C2797 C2796 1.377 . S
C2797 C2803 1.390 . S
C2798 H2789 0.930 . S
C2798 C2796 1.384 1_655 S
C2798 C2799 1.372 . S
C2799 C2798 1.372 . S
C2799 C2800 1.400 . S
C2799 C2804 1.490 . S
C2800 H2790 0.930 . S
C2800 C2799 1.400 . S
C2800 C2803 1.386 1_655 S
H2801 C2817 0.930 . S
H2802 C2818 0.931 . S
C2803 H2791 0.929 . S
C2803 C2797 1.390 . S
C2803 C2800 1.386 1_455 S
C2804 C2799 1.490 . S
C2804 C2806 1.395 . S
C2804 C2807 1.403 . S
H2805 C2811 0.930 . S
C2806 H2792 0.930 . S
C2806 C2804 1.395 . S
C2806 C2809 1.403 . S
C2807 C2804 1.403 . S
C2807 C2808 1.524 . S
C2807 C2811 1.400 . S
C2808 H2793 0.960 . S
C2808 H2794 0.960 . S
C2808 H2795 0.960 . S
C2808 C2807 1.524 . S
C2809 C2806 1.403 . S
C2809 C2810 1.392 . S
C2809 C2813 1.495 . S
C2810 C2809 1.392 . S
C2810 C2811 1.385 . S
C2810 C2812 1.478 . S
C2811 H2805 0.930 . S
C2811 C2807 1.400 . S
C2811 C2810 1.385 . S
C2812 C2810 1.478 . S
C2812 C2814 1.381 . S
C2812 C2818 1.383 . S
C2813 C2809 1.495 . S
C2813 H2819 0.959 . S
C2813 H2820 0.961 . S
C2813 H2821 0.960 . S
C2814 C2812 1.381 . S
C2814 C2815 1.394 . S
C2814 H2822 0.930 . S
C2815 C2814 1.394 . S
C2815 C2816 1.383 . S
C2815 H2823 0.929 . S
C2816 C2815 1.383 . S
C2816 C2817 1.377 . S
C2817 H2801 0.930 . S
C2817 C2816 1.377 . S
C2817 C2818 1.379 . S
C2818 H2802 0.931 . S
C2818 C2812 1.383 . S
C2818 C2817 1.379 . S
H2819 C2813 0.959 . S
H2820 C2813 0.961 . S
H2821 C2813 0.960 . S
H2822 C2814 0.930 . S
H2823 C2815 0.929 . S
H2824 C2832 0.929 . S
H2825 C2834 0.930 . S
H2826 C2836 0.930 . S
H2827 C2839 0.929 . S
H2828 C2842 0.930 . S
H2829 C2844 0.960 . S
H2830 C2844 0.960 . S
H2831 C2844 0.960 . S
C2832 H2824 0.929 . S
C2832 C2833 1.377 . S
C2832 C2834 1.384 . S
C2833 C2832 1.377 . S
C2833 C2839 1.390 . S
C2834 H2825 0.930 . S
C2834 C2832 1.384 . S
C2834 C2835 1.372 . S
C2835 C2834 1.372 . S
C2835 C2836 1.400 . S
C2835 C2840 1.490 . S
C2836 H2826 0.930 . S
C2836 C2835 1.400 . S
C2836 C2839 1.386 . S
H2837 C2853 0.930 . S
H2838 C2854 0.931 . S
C2839 H2827 0.929 . S
C2839 C2833 1.390 . S
C2839 C2836 1.386 . S
C2840 C2835 1.490 . S
C2840 C2842 1.395 . S
C2840 C2843 1.403 . S
H2841 C2847 0.930 . S
C2842 H2828 0.930 . S
C2842 C2840 1.395 . S
C2842 C2845 1.403 . S
C2843 C2840 1.403 . S
C2843 C2844 1.524 . S
C2843 C2847 1.400 . S
C2844 H2829 0.960 . S
C2844 H2830 0.960 . S
C2844 H2831 0.960 . S
C2844 C2843 1.524 . S
C2845 C2842 1.403 . S
C2845 C2846 1.392 . S
C2845 C2849 1.495 . S
C2846 C2845 1.392 . S
C2846 C2847 1.385 . S
C2846 C2848 1.478 . S
C2847 H2841 0.930 . S
C2847 C2843 1.400 . S
C2847 C2846 1.385 . S
C2848 C2846 1.478 . S
C2848 C2850 1.381 . S
C2848 C2854 1.383 . S
C2849 C2845 1.495 . S
C2849 H2855 0.959 . S
C2849 H2856 0.961 . S
C2849 H2857 0.960 . S
C2850 C2848 1.381 . S
C2850 C2851 1.394 . S
C2850 H2858 0.930 . S
C2851 C2850 1.394 . S
C2851 C2852 1.383 . S
C2851 H2859 0.929 . S
C2852 C2851 1.383 . S
C2852 C2853 1.377 . S
C2853 H2837 0.930 . S
C2853 C2852 1.377 . S
C2853 C2854 1.379 . S
C2854 H2838 0.931 . S
C2854 C2848 1.383 . S
C2854 C2853 1.379 . S
H2855 C2849 0.959 . S
H2856 C2849 0.961 . S
H2857 C2849 0.960 . S
H2858 C2850 0.930 . S
H2859 C2851 0.929 . S
H2860 C2868 0.929 . S
H2861 C2870 0.930 . S
H2862 C2872 0.930 . S
H2863 C2875 0.929 . S
H2864 C2878 0.936 . S
H2865 C2880 0.960 . S
H2866 C2880 0.960 . S
H2867 C2880 0.960 . S
C2868 H2860 0.929 . S
C2868 C2869 1.377 . S
C2868 C2870 1.384 . S
C2869 C2868 1.377 . S
C2869 C2875 1.390 . S
C2870 H2861 0.930 . S
C2870 C2868 1.384 . S
C2870 C2871 1.372 . S
C2871 C2870 1.372 . S
C2871 C2872 1.400 . S
C2871 C2876 1.490 1_455 S
C2872 H2862 0.930 . S
C2872 C2871 1.400 . S
C2872 C2875 1.386 . S
H2873 C2889 0.930 . S
H2874 C2890 0.931 . S
C2875 H2863 0.929 . S
C2875 C2869 1.390 . S
C2875 C2872 1.386 . S
C2876 C2871 1.490 1_655 S
C2876 C2878 1.395 . S
C2876 C2879 1.403 . S
H2877 C2883 0.930 . S
C2878 H2864 0.936 . S
C2878 C2876 1.395 . S
C2878 C2881 1.403 . S
C2879 C2876 1.403 . S
C2879 C2880 1.524 . S
C2879 C2883 1.400 . S
C2880 H2865 0.960 . S
C2880 H2866 0.960 . S
C2880 H2867 0.960 . S
C2880 C2879 1.524 . S
C2881 C2878 1.403 . S
C2881 C2882 1.392 . S
C2881 C2885 1.495 . S
C2882 C2881 1.392 . S
C2882 C2883 1.385 . S
C2882 C2884 1.478 . S
C2883 H2877 0.930 . S
C2883 C2879 1.400 . S
C2883 C2882 1.385 . S
C2884 C2882 1.478 . S
C2884 C2886 1.381 . S
C2884 C2890 1.383 . S
C2885 C2881 1.495 . S
C2885 H2891 0.959 . S
C2885 H2892 0.961 . S
C2885 H2893 0.960 . S
C2886 C2884 1.381 . S
C2886 C2887 1.394 . S
C2886 H2894 0.930 . S
C2887 C2886 1.394 . S
C2887 C2888 1.383 . S
C2887 H2895 0.929 . S
C2888 C2887 1.383 . S
C2888 C2889 1.377 . S
C2889 H2873 0.930 . S
C2889 C2888 1.377 . S
C2889 C2890 1.379 . S
C2890 H2874 0.931 . S
C2890 C2884 1.383 . S
C2890 C2889 1.379 . S
H2891 C2885 0.959 . S
H2892 C2885 0.961 . S
H2893 C2885 0.960 . S
H2894 C2886 0.930 . S
H2895 C2887 0.929 . S
H2896 C2904 0.929 . S
H2897 C2906 0.930 . S
H2898 C2908 0.930 . S
H2899 C2911 0.929 . S
H2900 C2914 0.930 . S
H2901 C2916 0.960 . S
H2902 C2916 0.960 . S
H2903 C2916 0.960 . S
C2904 H2896 0.929 . S
C2904 C2905 1.377 1_455 S
C2904 C2906 1.384 . S
C2905 C2904 1.377 1_655 S
C2905 C2911 1.390 . S
C2906 H2897 0.930 . S
C2906 C2904 1.384 . S
C2906 C2907 1.372 1_455 S
C2907 C2906 1.372 1_655 S
C2907 C2908 1.400 . S
C2907 C2912 1.477 1_655 S
C2908 H2898 0.930 . S
C2908 C2907 1.400 . S
C2908 C2911 1.386 . S
H2909 C2925 0.964 . S
H2910 C2926 0.931 . S
C2911 H2899 0.929 . S
C2911 C2905 1.390 . S
C2911 C2908 1.386 . S
C2912 C2907 1.477 1_455 S
C2912 C2914 1.419 . S
C2912 C2915 1.393 1_455 S
H2913 C2919 0.930 . S
C2914 H2900 0.930 . S
C2914 C2912 1.419 . S
C2914 C2917 1.403 . S
C2915 C2912 1.393 1_655 S
C2915 C2916 1.524 . S
C2915 C2919 1.400 . S
C2916 H2901 0.960 . S
C2916 H2902 0.960 . S
C2916 H2903 0.960 . S
C2916 C2915 1.524 . S
C2917 C2914 1.403 . S
C2917 C2918 1.392 . S
C2917 C2921 1.495 . S
C2918 C2917 1.392 . S
C2918 C2919 1.385 1_455 S
C2918 C2920 1.478 . S
C2919 H2913 0.930 . S
C2919 C2915 1.400 . S
C2919 C2918 1.385 1_655 S
C2920 C2918 1.478 . S
C2920 C2922 1.381 . S
C2920 C2926 1.383 1_455 S
C2921 C2917 1.495 . S
C2921 H2927 0.959 . S
C2921 H2928 0.961 . S
C2921 H2929 0.960 . S
C2922 C2920 1.381 . S
C2922 C2923 1.394 . S
C2922 H2930 0.930 . S
C2923 C2922 1.394 . S
C2923 C2924 1.383 . S
C2923 H2931 0.929 . S
C2924 C2923 1.383 . S
C2924 C2925 1.324 1_455 S
C2925 H2909 0.964 . S
C2925 C2924 1.324 1_655 S
C2925 C2926 1.401 . S
C2926 H2910 0.931 . S
C2926 C2920 1.383 1_655 S
C2926 C2925 1.401 . S
H2927 C2921 0.959 . S
H2928 C2921 0.961 . S
H2929 C2921 0.960 . S
H2930 C2922 0.930 . S
H2931 C2923 0.929 . S
H2932 C2940 0.929 . S
H2933 C2942 0.930 . S
H2934 C2944 0.930 . S
H2935 C2947 0.929 . S
H2936 C2950 0.930 . S
H2937 C2952 0.960 . S
H2938 C2952 0.960 . S
H2939 C2952 0.960 . S
C2940 H2932 0.929 . S
C2940 C2941 1.377 . S
C2940 C2942 1.384 . S
C2941 C2940 1.377 . S
C2941 C2947 1.390 . S
C2942 H2933 0.930 . S
C2942 C2940 1.384 . S
C2942 C2943 1.372 . S
C2943 C2942 1.372 . S
C2943 C2944 1.400 . S
C2943 C2948 1.490 . S
C2944 H2934 0.930 . S
C2944 C2943 1.400 . S
C2944 C2947 1.386 . S
H2945 C2961 0.930 . S
H2946 C2962 0.931 . S
C2947 H2935 0.929 . S
C2947 C2941 1.390 . S
C2947 C2944 1.386 . S
C2948 C2943 1.490 . S
C2948 C2950 1.395 . S
C2948 C2951 1.403 . S
H2949 C2955 0.930 . S
C2950 H2936 0.930 . S
C2950 C2948 1.395 . S
C2950 C2953 1.403 . S
C2951 C2948 1.403 . S
C2951 C2952 1.524 . S
C2951 C2955 1.400 . S
C2952 H2937 0.960 . S
C2952 H2938 0.960 . S
C2952 H2939 0.960 . S
C2952 C2951 1.524 . S
C2953 C2950 1.403 . S
C2953 C2954 1.392 . S
C2953 C2957 1.495 . S
C2954 C2953 1.392 . S
C2954 C2955 1.385 . S
C2954 C2956 1.478 . S
C2955 H2949 0.930 . S
C2955 C2951 1.400 . S
C2955 C2954 1.385 . S
C2956 C2954 1.478 . S
C2956 C2958 1.381 . S
C2956 C2962 1.383 . S
C2957 C2953 1.495 . S
C2957 H2963 0.959 . S
C2957 H2964 0.961 . S
C2957 H2965 0.960 . S
C2958 C2956 1.381 . S
C2958 C2959 1.394 . S
C2958 H2966 0.930 . S
C2959 C2958 1.394 . S
C2959 C2960 1.383 . S
C2959 H2967 0.929 . S
C2960 C2959 1.383 . S
C2960 C2961 1.377 . S
C2961 H2945 0.930 . S
C2961 C2960 1.377 . S
C2961 C2962 1.379 . S
C2962 H2946 0.931 . S
C2962 C2956 1.383 . S
C2962 C2961 1.379 . S
H2963 C2957 0.959 . S
H2964 C2957 0.961 . S
H2965 C2957 0.960 . S
H2966 C2958 0.930 . S
H2967 C2959 0.929 . S
H2968 C2976 0.929 . S
H2969 C2978 0.930 . S
H2970 C2980 0.930 . S
H2971 C2983 0.929 . S
H2972 C2986 0.930 . S
H2973 C2988 0.960 . S
H2974 C2988 0.960 . S
H2975 C2988 0.960 . S
C2976 H2968 0.929 . S
C2976 C2977 1.377 . S
C2976 C2978 1.384 . S
C2977 C2976 1.377 . S
C2977 C2983 1.390 . S
C2978 H2969 0.930 . S
C2978 C2976 1.384 . S
C2978 C2979 1.372 . S
C2979 C2978 1.372 . S
C2979 C2980 1.400 . S
C2979 C2984 1.490 . S
C2980 H2970 0.930 . S
C2980 C2979 1.400 . S
C2980 C2983 1.386 . S
H2981 C2997 0.930 . S
H2982 C2998 0.931 . S
C2983 H2971 0.929 . S
C2983 C2977 1.390 . S
C2983 C2980 1.386 . S
C2984 C2979 1.490 . S
C2984 C2986 1.395 . S
C2984 C2987 1.403 . S
H2985 C2991 0.930 . S
C2986 H2972 0.930 . S
C2986 C2984 1.395 . S
C2986 C2989 1.403 . S
C2987 C2984 1.403 . S
C2987 C2988 1.524 . S
C2987 C2991 1.400 . S
C2988 H2973 0.960 . S
C2988 H2974 0.960 . S
C2988 H2975 0.960 . S
C2988 C2987 1.524 . S
C2989 C2986 1.403 . S
C2989 C2990 1.392 . S
C2989 C2993 1.495 . S
C2990 C2989 1.392 . S
C2990 C2991 1.385 . S
C2990 C2992 1.478 . S
C2991 H2985 0.930 . S
C2991 C2987 1.400 . S
C2991 C2990 1.385 . S
C2992 C2990 1.478 . S
C2992 C2994 1.381 . S
C2992 C2998 1.383 . S
C2993 C2989 1.495 . S
C2993 H2999 0.959 . S
C2993 H3000 0.961 . S
C2993 H3001 0.960 . S
C2994 C2992 1.381 . S
C2994 C2995 1.394 . S
C2994 H3002 0.930 . S
C2995 C2994 1.394 . S
C2995 C2996 1.383 . S
C2995 H3003 0.929 . S
C2996 C2995 1.383 . S
C2996 C2997 1.377 . S
C2997 H2981 0.930 . S
C2997 C2996 1.377 . S
C2997 C2998 1.379 . S
C2998 H2982 0.931 . S
C2998 C2992 1.383 . S
C2998 C2997 1.379 . S
H2999 C2993 0.959 . S
H3000 C2993 0.961 . S
H3001 C2993 0.960 . S
H3002 C2994 0.930 . S
H3003 C2995 0.929 . S
H3004 C3012 0.929 . S
H3005 C3014 0.930 . S
H3006 C3016 0.930 . S
H3007 C3019 0.929 . S
H3008 C3022 0.930 . S
H3009 C3024 0.960 . S
H3010 C3024 0.960 . S
H3011 C3024 0.960 . S
C3012 H3004 0.929 . S
C3012 C3013 1.377 . S
C3012 C3014 1.384 . S
C3013 C3012 1.377 . S
C3013 C3019 1.390 . S
C3014 H3005 0.930 . S
C3014 C3012 1.384 . S
C3014 C3015 1.372 . S
C3015 C3014 1.372 . S
C3015 C3016 1.400 . S
C3015 C3020 1.490 . S
C3016 H3006 0.930 . S
C3016 C3015 1.400 . S
C3016 C3019 1.386 . S
H3017 C3033 0.930 . S
H3018 C3034 0.931 . S
C3019 H3007 0.929 . S
C3019 C3013 1.390 . S
C3019 C3016 1.386 . S
C3020 C3015 1.490 . S
C3020 C3022 1.395 . S
C3020 C3023 1.403 . S
H3021 C3027 0.930 . S
C3022 H3008 0.930 . S
C3022 C3020 1.395 . S
C3022 C3025 1.403 . S
C3023 C3020 1.403 . S
C3023 C3024 1.524 . S
C3023 C3027 1.400 . S
C3024 H3009 0.960 . S
C3024 H3010 0.960 . S
C3024 H3011 0.960 . S
C3024 C3023 1.524 . S
C3025 C3022 1.403 . S
C3025 C3026 1.392 . S
C3025 C3029 1.495 . S
C3026 C3025 1.392 . S
C3026 C3027 1.385 . S
C3026 C3028 1.478 . S
C3027 H3021 0.930 . S
C3027 C3023 1.400 . S
C3027 C3026 1.385 . S
C3028 C3026 1.478 . S
C3028 C3030 1.381 . S
C3028 C3034 1.383 . S
C3029 C3025 1.495 . S
C3029 H3035 0.959 . S
C3029 H3036 0.961 . S
C3029 H3037 0.960 . S
C3030 C3028 1.381 . S
C3030 C3031 1.394 . S
C3030 H3038 0.930 . S
C3031 C3030 1.394 . S
C3031 C3032 1.383 . S
C3031 H3039 0.929 . S
C3032 C3031 1.383 . S
C3032 C3033 1.377 . S
C3033 H3017 0.930 . S
C3033 C3032 1.377 . S
C3033 C3034 1.379 . S
C3034 H3018 0.931 . S
C3034 C3028 1.383 . S
C3034 C3033 1.379 . S
H3035 C3029 0.959 . S
H3036 C3029 0.961 . S
H3037 C3029 0.960 . S
H3038 C3030 0.930 . S
H3039 C3031 0.929 . S
H3040 C3048 0.929 . S
H3041 C3050 0.930 . S
H3042 C3052 0.930 . S
H3043 C3055 0.929 . S
H3044 C3058 0.930 . S
H3045 C3060 0.960 . S
H3046 C3060 0.960 . S
H3047 C3060 0.960 . S
C3048 H3040 0.929 . S
C3048 C3049 1.377 . S
C3048 C3050 1.384 . S
C3049 C3048 1.377 . S
C3049 C3055 1.390 . S
C3050 H3041 0.930 . S
C3050 C3048 1.384 . S
C3050 C3051 1.372 . S
C3051 C3050 1.372 . S
C3051 C3052 1.400 . S
C3051 C3056 1.490 . S
C3052 H3042 0.930 . S
C3052 C3051 1.400 . S
C3052 C3055 1.386 . S
H3053 C3069 0.930 . S
H3054 C3070 0.931 . S
C3055 H3043 0.929 . S
C3055 C3049 1.390 . S
C3055 C3052 1.386 . S
C3056 C3051 1.490 . S
C3056 C3058 1.395 . S
C3056 C3059 1.403 . S
H3057 C3063 0.930 . S
C3058 H3044 0.930 . S
C3058 C3056 1.395 . S
C3058 C3061 1.403 . S
C3059 C3056 1.403 . S
C3059 C3060 1.524 . S
C3059 C3063 1.400 . S
C3060 H3045 0.960 . S
C3060 H3046 0.960 . S
C3060 H3047 0.960 . S
C3060 C3059 1.524 . S
C3061 C3058 1.403 . S
C3061 C3062 1.392 . S
C3061 C3065 1.495 . S
C3062 C3061 1.392 . S
C3062 C3063 1.385 . S
C3062 C3064 1.478 . S
C3063 H3057 0.930 . S
C3063 C3059 1.400 . S
C3063 C3062 1.385 . S
C3064 C3062 1.478 . S
C3064 C3066 1.381 . S
C3064 C3070 1.383 . S
C3065 C3061 1.495 . S
C3065 H3071 0.959 . S
C3065 H3072 0.961 . S
C3065 H3073 0.960 . S
C3066 C3064 1.381 . S
C3066 C3067 1.394 . S
C3066 H3074 0.930 . S
C3067 C3066 1.394 . S
C3067 C3068 1.383 . S
C3067 H3075 0.929 . S
C3068 C3067 1.383 . S
C3068 C3069 1.377 . S
C3069 H3053 0.930 . S
C3069 C3068 1.377 . S
C3069 C3070 1.379 . S
C3070 H3054 0.931 . S
C3070 C3064 1.383 . S
C3070 C3069 1.379 . S
H3071 C3065 0.959 . S
H3072 C3065 0.961 . S
H3073 C3065 0.960 . S
H3074 C3066 0.930 . S
H3075 C3067 0.929 . S
H3076 C3084 0.929 . S
H3077 C3086 0.930 . S
H3078 C3088 0.930 . S
H3079 C3091 0.929 . S
H3080 C3094 0.930 . S
H3081 C3096 0.960 . S
H3082 C3096 0.960 . S
H3083 C3096 0.960 . S
C3084 H3076 0.929 . S
C3084 C3085 1.377 . S
C3084 C3086 1.384 . S
C3085 C3084 1.377 . S
C3085 C3091 1.390 . S
C3086 H3077 0.930 . S
C3086 C3084 1.384 . S
C3086 C3087 1.372 . S
C3087 C3086 1.372 . S
C3087 C3088 1.400 . S
C3087 C3092 1.490 . S
C3088 H3078 0.930 . S
C3088 C3087 1.400 . S
C3088 C3091 1.386 . S
H3089 C3105 0.930 . S
H3090 C3106 0.931 . S
C3091 H3079 0.929 . S
C3091 C3085 1.390 . S
C3091 C3088 1.386 . S
C3092 C3087 1.490 . S
C3092 C3094 1.395 . S
C3092 C3095 1.403 . S
H3093 C3099 0.930 . S
C3094 H3080 0.930 . S
C3094 C3092 1.395 . S
C3094 C3097 1.403 . S
C3095 C3092 1.403 . S
C3095 C3096 1.524 . S
C3095 C3099 1.400 . S
C3096 H3081 0.960 . S
C3096 H3082 0.960 . S
C3096 H3083 0.960 . S
C3096 C3095 1.524 . S
C3097 C3094 1.403 . S
C3097 C3098 1.392 . S
C3097 C3101 1.495 . S
C3098 C3097 1.392 . S
C3098 C3099 1.385 . S
C3098 C3100 1.478 . S
C3099 H3093 0.930 . S
C3099 C3095 1.400 . S
C3099 C3098 1.385 . S
C3100 C3098 1.478 . S
C3100 C3102 1.381 . S
C3100 C3106 1.383 . S
C3101 C3097 1.495 . S
C3101 H3107 0.959 . S
C3101 H3108 0.961 . S
C3101 H3109 0.960 . S
C3102 C3100 1.381 . S
C3102 C3103 1.394 . S
C3102 H3110 0.930 . S
C3103 C3102 1.394 . S
C3103 C3104 1.383 . S
C3103 H3111 0.929 . S
C3104 C3103 1.383 . S
C3104 C3105 1.377 . S
C3105 H3089 0.930 . S
C3105 C3104 1.377 . S
C3105 C3106 1.379 . S
C3106 H3090 0.931 . S
C3106 C3100 1.383 . S
C3106 C3105 1.379 . S
H3107 C3101 0.959 . S
H3108 C3101 0.961 . S
H3109 C3101 0.960 . S
H3110 C3102 0.930 . S
H3111 C3103 0.929 . S
H3112 C3120 0.929 . S
H3113 C3122 0.930 . S
H3114 C3124 0.930 . S
H3115 C3127 0.929 . S
H3116 C3130 0.930 . S
H3117 C3132 0.960 . S
H3118 C3132 0.960 . S
H3119 C3132 0.960 . S
C3120 H3112 0.929 . S
C3120 C3121 1.377 . S
C3120 C3122 1.384 . S
C3121 C3120 1.377 . S
C3121 C3127 1.390 . S
C3122 H3113 0.930 . S
C3122 C3120 1.384 . S
C3122 C3123 1.372 . S
C3123 C3122 1.372 . S
C3123 C3124 1.400 . S
C3123 C3128 1.490 . S
C3124 H3114 0.930 . S
C3124 C3123 1.400 . S
C3124 C3127 1.386 . S
H3125 C3141 0.930 . S
H3126 C3142 0.931 . S
C3127 H3115 0.929 . S
C3127 C3121 1.390 . S
C3127 C3124 1.386 . S
C3128 C3123 1.490 . S
C3128 C3130 1.395 . S
C3128 C3131 1.403 . S
H3129 C3135 0.930 . S
C3130 H3116 0.930 . S
C3130 C3128 1.395 . S
C3130 C3133 1.403 . S
C3131 C3128 1.403 . S
C3131 C3132 1.524 . S
C3131 C3135 1.400 . S
C3132 H3117 0.960 . S
C3132 H3118 0.960 . S
C3132 H3119 0.960 . S
C3132 C3131 1.524 . S
C3133 C3130 1.403 . S
C3133 C3134 1.392 . S
C3133 C3137 1.495 . S
C3134 C3133 1.392 . S
C3134 C3135 1.385 . S
C3134 C3136 1.478 . S
C3135 H3129 0.930 . S
C3135 C3131 1.400 . S
C3135 C3134 1.385 . S
C3136 C3134 1.478 . S
C3136 C3138 1.381 . S
C3136 C3142 1.383 . S
C3137 C3133 1.495 . S
C3137 H3143 0.959 . S
C3137 H3144 0.961 . S
C3137 H3145 0.960 . S
C3138 C3136 1.381 . S
C3138 C3139 1.394 . S
C3138 H3146 0.930 . S
C3139 C3138 1.394 . S
C3139 C3140 1.383 . S
C3139 H3147 0.929 . S
C3140 C3139 1.383 . S
C3140 C3141 1.377 . S
C3141 H3125 0.930 . S
C3141 C3140 1.377 . S
C3141 C3142 1.379 . S
C3142 H3126 0.931 . S
C3142 C3136 1.383 . S
C3142 C3141 1.379 . S
H3143 C3137 0.959 . S
H3144 C3137 0.961 . S
H3145 C3137 0.960 . S
H3146 C3138 0.930 . S
H3147 C3139 0.929 . S
H3148 C3156 0.929 . S
H3149 C3158 0.930 . S
H3150 C3160 0.930 . S
H3151 C3163 0.929 . S
H3152 C3166 0.930 . S
H3153 C3168 0.960 . S
H3154 C3168 0.960 . S
H3155 C3168 0.960 . S
C3156 H3148 0.929 . S
C3156 C3157 1.377 . S
C3156 C3158 1.384 . S
C3157 C3156 1.377 . S
C3157 C3163 1.390 . S
C3158 H3149 0.930 . S
C3158 C3156 1.384 . S
C3158 C3159 1.372 . S
C3159 C3158 1.372 . S
C3159 C3160 1.400 . S
C3159 C3164 1.490 . S
C3160 H3150 0.930 . S
C3160 C3159 1.400 . S
C3160 C3163 1.386 . S
H3161 C3177 0.930 . S
H3162 C3178 0.931 . S
C3163 H3151 0.929 . S
C3163 C3157 1.390 . S
C3163 C3160 1.386 . S
C3164 C3159 1.490 . S
C3164 C3166 1.395 . S
C3164 C3167 1.403 . S
H3165 C3171 0.930 . S
C3166 H3152 0.930 . S
C3166 C3164 1.395 . S
C3166 C3169 1.403 . S
C3167 C3164 1.403 . S
C3167 C3168 1.524 . S
C3167 C3171 1.400 . S
C3168 H3153 0.960 . S
C3168 H3154 0.960 . S
C3168 H3155 0.960 . S
C3168 C3167 1.524 . S
C3169 C3166 1.403 . S
C3169 C3170 1.392 . S
C3169 C3173 1.495 . S
C3170 C3169 1.392 . S
C3170 C3171 1.385 . S
C3170 C3172 1.478 . S
C3171 H3165 0.930 . S
C3171 C3167 1.400 . S
C3171 C3170 1.385 . S
C3172 C3170 1.478 . S
C3172 C3174 1.381 . S
C3172 C3178 1.383 . S
C3173 C3169 1.495 . S
C3173 H3179 0.959 . S
C3173 H3180 0.961 . S
C3173 H3181 0.960 . S
C3174 C3172 1.381 . S
C3174 C3175 1.394 . S
C3174 H3182 0.930 . S
C3175 C3174 1.394 . S
C3175 C3176 1.383 . S
C3175 H3183 0.929 . S
C3176 C3175 1.383 . S
C3176 C3177 1.377 . S
C3177 H3161 0.930 . S
C3177 C3176 1.377 . S
C3177 C3178 1.379 . S
C3178 H3162 0.931 . S
C3178 C3172 1.383 . S
C3178 C3177 1.379 . S
H3179 C3173 0.959 . S
H3180 C3173 0.961 . S
H3181 C3173 0.960 . S
H3182 C3174 0.930 . S
H3183 C3175 0.929 . S
H3184 C3192 0.929 . S
H3185 C3194 0.930 . S
H3186 C3196 0.930 . S
H3187 C3199 0.929 . S
H3188 C3202 0.930 . S
H3189 C3204 0.960 . S
H3190 C3204 0.960 . S
H3191 C3204 0.960 . S
C3192 H3184 0.929 . S
C3192 C3193 1.377 . S
C3192 C3194 1.384 . S
C3193 C3192 1.377 . S
C3193 C3199 1.390 . S
C3194 H3185 0.930 . S
C3194 C3192 1.384 . S
C3194 C3195 1.372 . S
C3195 C3194 1.372 . S
C3195 C3196 1.400 . S
C3195 C3200 1.490 . S
C3196 H3186 0.930 . S
C3196 C3195 1.400 . S
C3196 C3199 1.386 . S
H3197 C3213 0.930 . S
H3198 C3214 0.931 . S
C3199 H3187 0.929 . S
C3199 C3193 1.390 . S
C3199 C3196 1.386 . S
C3200 C3195 1.490 . S
C3200 C3202 1.395 . S
C3200 C3203 1.403 . S
H3201 C3207 0.930 . S
C3202 H3188 0.930 . S
C3202 C3200 1.395 . S
C3202 C3205 1.403 . S
C3203 C3200 1.403 . S
C3203 C3204 1.524 . S
C3203 C3207 1.400 . S
C3204 H3189 0.960 . S
C3204 H3190 0.960 . S
C3204 H3191 0.960 . S
C3204 C3203 1.524 . S
C3205 C3202 1.403 . S
C3205 C3206 1.392 . S
C3205 C3209 1.495 . S
C3206 C3205 1.392 . S
C3206 C3207 1.385 . S
C3206 C3208 1.478 . S
C3207 H3201 0.930 . S
C3207 C3203 1.400 . S
C3207 C3206 1.385 . S
C3208 C3206 1.478 . S
C3208 C3210 1.381 . S
C3208 C3214 1.383 . S
C3209 C3205 1.495 . S
C3209 H3215 0.959 . S
C3209 H3216 0.961 . S
C3209 H3217 0.960 . S
C3210 C3208 1.381 . S
C3210 C3211 1.394 . S
C3210 H3218 0.930 . S
C3211 C3210 1.394 . S
C3211 C3212 1.383 . S
C3211 H3219 0.929 . S
C3212 C3211 1.383 . S
C3212 C3213 1.377 . S
C3213 H3197 0.930 . S
C3213 C3212 1.377 . S
C3213 C3214 1.379 . S
C3214 H3198 0.931 . S
C3214 C3208 1.383 . S
C3214 C3213 1.379 . S
H3215 C3209 0.959 . S
H3216 C3209 0.961 . S
H3217 C3209 0.960 . S
H3218 C3210 0.930 . S
H3219 C3211 0.929 . S
H3220 C3228 0.929 . S
H3221 C3230 0.930 . S
H3222 C3232 0.930 . S
H3223 C3235 0.929 . S
H3224 C3238 0.930 . S
H3225 C3240 0.960 . S
H3226 C3240 0.960 . S
H3227 C3240 0.960 . S
C3228 H3220 0.929 . S
C3228 C3229 1.377 . S
C3228 C3230 1.384 . S
C3229 C3228 1.377 . S
C3229 C3235 1.390 . S
C3230 H3221 0.930 . S
C3230 C3228 1.384 . S
C3230 C3231 1.372 . S
C3231 C3230 1.372 . S
C3231 C3232 1.400 . S
C3231 C3236 1.490 . S
C3232 H3222 0.930 . S
C3232 C3231 1.400 . S
C3232 C3235 1.386 . S
H3233 C3249 0.930 . S
H3234 C3250 0.931 . S
C3235 H3223 0.929 . S
C3235 C3229 1.390 . S
C3235 C3232 1.386 . S
C3236 C3231 1.490 . S
C3236 C3238 1.395 . S
C3236 C3239 1.403 . S
H3237 C3243 0.930 . S
C3238 H3224 0.930 . S
C3238 C3236 1.395 . S
C3238 C3241 1.403 . S
C3239 C3236 1.403 . S
C3239 C3240 1.524 . S
C3239 C3243 1.400 . S
C3240 H3225 0.960 . S
C3240 H3226 0.960 . S
C3240 H3227 0.960 . S
C3240 C3239 1.524 . S
C3241 C3238 1.403 . S
C3241 C3242 1.392 . S
C3241 C3245 1.495 . S
C3242 C3241 1.392 . S
C3242 C3243 1.385 . S
C3242 C3244 1.478 . S
C3243 H3237 0.930 . S
C3243 C3239 1.400 . S
C3243 C3242 1.385 . S
C3244 C3242 1.478 . S
C3244 C3246 1.381 . S
C3244 C3250 1.383 . S
C3245 C3241 1.495 . S
C3245 H3251 0.959 . S
C3245 H3252 0.961 . S
C3245 H3253 0.960 . S
C3246 C3244 1.381 . S
C3246 C3247 1.394 . S
C3246 H3254 0.930 . S
C3247 C3246 1.394 . S
C3247 C3248 1.383 . S
C3247 H3255 0.929 . S
C3248 C3247 1.383 . S
C3248 C3249 1.377 . S
C3249 H3233 0.930 . S
C3249 C3248 1.377 . S
C3249 C3250 1.379 . S
C3250 H3234 0.931 . S
C3250 C3244 1.383 . S
C3250 C3249 1.379 . S
H3251 C3245 0.959 . S
H3252 C3245 0.961 . S
H3253 C3245 0.960 . S
H3254 C3246 0.930 . S
H3255 C3247 0.929 . S
H3256 C3264 0.929 . S
H3257 C3266 0.930 . S
H3258 C3268 0.930 . S
H3259 C3271 0.929 . S
H3260 C3274 0.930 . S
H3261 C3276 0.960 . S
H3262 C3276 0.960 . S
H3263 C3276 0.960 . S
C3264 H3256 0.929 . S
C3264 C3265 1.377 . S
C3264 C3266 1.384 . S
C3265 C3264 1.377 . S
C3265 C3271 1.390 . S
C3266 H3257 0.930 . S
C3266 C3264 1.384 . S
C3266 C3267 1.372 . S
C3267 C3266 1.372 . S
C3267 C3268 1.400 . S
C3267 C3272 1.490 . S
C3268 H3258 0.930 . S
C3268 C3267 1.400 . S
C3268 C3271 1.386 . S
H3269 C3285 0.930 . S
H3270 C3286 0.931 . S
C3271 H3259 0.929 . S
C3271 C3265 1.390 . S
C3271 C3268 1.386 . S
C3272 C3267 1.490 . S
C3272 C3274 1.395 . S
C3272 C3275 1.403 . S
H3273 C3279 0.930 . S
C3274 H3260 0.930 . S
C3274 C3272 1.395 . S
C3274 C3277 1.403 . S
C3275 C3272 1.403 . S
C3275 C3276 1.524 . S
C3275 C3279 1.400 . S
C3276 H3261 0.960 . S
C3276 H3262 0.960 . S
C3276 H3263 0.960 . S
C3276 C3275 1.524 . S
C3277 C3274 1.403 . S
C3277 C3278 1.392 . S
C3277 C3281 1.495 . S
C3278 C3277 1.392 . S
C3278 C3279 1.385 . S
C3278 C3280 1.478 . S
C3279 H3273 0.930 . S
C3279 C3275 1.400 . S
C3279 C3278 1.385 . S
C3280 C3278 1.478 . S
C3280 C3282 1.381 . S
C3280 C3286 1.383 . S
C3281 C3277 1.495 . S
C3281 H3287 0.959 . S
C3281 H3288 0.961 . S
C3281 H3289 0.960 . S
C3282 C3280 1.381 . S
C3282 C3283 1.394 . S
C3282 H3290 0.930 . S
C3283 C3282 1.394 . S
C3283 C3284 1.383 . S
C3283 H3291 0.929 . S
C3284 C3283 1.383 . S
C3284 C3285 1.377 . S
C3285 H3269 0.930 . S
C3285 C3284 1.377 . S
C3285 C3286 1.379 . S
C3286 H3270 0.931 . S
C3286 C3280 1.383 . S
C3286 C3285 1.379 . S
H3287 C3281 0.959 . S
H3288 C3281 0.961 . S
H3289 C3281 0.960 . S
H3290 C3282 0.930 . S
H3291 C3283 0.929 . S
H3292 C3300 0.929 . S
H3293 C3302 0.930 . S
H3294 C3304 0.930 . S
H3295 C3307 0.929 . S
H3296 C3310 0.930 . S
H3297 C3312 0.960 . S
H3298 C3312 0.960 . S
H3299 C3312 0.960 . S
C3300 H3292 0.929 . S
C3300 C3301 1.377 . S
C3300 C3302 1.384 . S
C3301 C3300 1.377 . S
C3301 C3307 1.390 . S
C3302 H3293 0.930 . S
C3302 C3300 1.384 . S
C3302 C3303 1.372 . S
C3303 C3302 1.372 . S
C3303 C3304 1.400 . S
C3303 C3308 1.490 . S
C3304 H3294 0.930 . S
C3304 C3303 1.400 . S
C3304 C3307 1.386 . S
H3305 C3321 0.930 . S
H3306 C3322 0.931 . S
C3307 H3295 0.929 . S
C3307 C3301 1.390 . S
C3307 C3304 1.386 . S
C3308 C3303 1.490 . S
C3308 C3310 1.395 . S
C3308 C3311 1.403 . S
H3309 C3315 0.930 . S
C3310 H3296 0.930 . S
C3310 C3308 1.395 . S
C3310 C3313 1.403 . S
C3311 C3308 1.403 . S
C3311 C3312 1.524 . S
C3311 C3315 1.400 . S
C3312 H3297 0.960 . S
C3312 H3298 0.960 . S
C3312 H3299 0.960 . S
C3312 C3311 1.524 . S
C3313 C3310 1.403 . S
C3313 C3314 1.392 . S
C3313 C3317 1.495 . S
C3314 C3313 1.392 . S
C3314 C3315 1.385 . S
C3314 C3316 1.478 . S
C3315 H3309 0.930 . S
C3315 C3311 1.400 . S
C3315 C3314 1.385 . S
C3316 C3314 1.478 . S
C3316 C3318 1.381 . S
C3316 C3322 1.383 . S
C3317 C3313 1.495 . S
C3317 H3323 0.959 . S
C3317 H3324 0.961 . S
C3317 H3325 0.960 . S
C3318 C3316 1.381 . S
C3318 C3319 1.394 . S
C3318 H3326 0.930 . S
C3319 C3318 1.394 . S
C3319 C3320 1.383 . S
C3319 H3327 0.929 . S
C3320 C3319 1.383 . S
C3320 C3321 1.377 . S
C3321 H3305 0.930 . S
C3321 C3320 1.377 . S
C3321 C3322 1.379 . S
C3322 H3306 0.931 . S
C3322 C3316 1.383 . S
C3322 C3321 1.379 . S
H3323 C3317 0.959 . S
H3324 C3317 0.961 . S
H3325 C3317 0.960 . S
H3326 C3318 0.930 . S
H3327 C3319 0.929 . S
H3328 C3336 0.929 . S
H3329 C3338 0.930 . S
H3330 C3340 0.930 . S
H3331 C3343 0.929 . S
H3332 C3346 0.930 . S
H3333 C3348 0.960 . S
H3334 C3348 0.960 . S
H3335 C3348 0.960 . S
C3336 H3328 0.929 . S
C3336 C3337 1.377 . S
C3336 C3338 1.384 . S
C3337 C3336 1.377 . S
C3337 C3343 1.390 . S
C3338 H3329 0.930 . S
C3338 C3336 1.384 . S
C3338 C3339 1.372 . S
C3339 C3338 1.372 . S
C3339 C3340 1.400 . S
C3339 C3344 1.490 . S
C3340 H3330 0.930 . S
C3340 C3339 1.400 . S
C3340 C3343 1.386 . S
H3341 C3357 0.930 . S
H3342 C3358 0.931 . S
C3343 H3331 0.929 . S
C3343 C3337 1.390 . S
C3343 C3340 1.386 . S
C3344 C3339 1.490 . S
C3344 C3346 1.395 . S
C3344 C3347 1.403 . S
H3345 C3351 0.930 . S
C3346 H3332 0.930 . S
C3346 C3344 1.395 . S
C3346 C3349 1.403 . S
C3347 C3344 1.403 . S
C3347 C3348 1.524 . S
C3347 C3351 1.400 . S
C3348 H3333 0.960 . S
C3348 H3334 0.960 . S
C3348 H3335 0.960 . S
C3348 C3347 1.524 . S
C3349 C3346 1.403 . S
C3349 C3350 1.392 . S
C3349 C3353 1.495 . S
C3350 C3349 1.392 . S
C3350 C3351 1.385 . S
C3350 C3352 1.478 . S
C3351 H3345 0.930 . S
C3351 C3347 1.400 . S
C3351 C3350 1.385 . S
C3352 C3350 1.478 . S
C3352 C3354 1.381 . S
C3352 C3358 1.383 . S
C3353 C3349 1.495 . S
C3353 H3359 0.959 . S
C3353 H3360 0.961 . S
C3353 H3361 0.960 . S
C3354 C3352 1.381 . S
C3354 C3355 1.394 . S
C3354 H3362 0.930 . S
C3355 C3354 1.394 . S
C3355 C3356 1.383 . S
C3355 H3363 0.929 . S
C3356 C3355 1.383 . S
C3356 C3357 1.377 . S
C3357 H3341 0.930 . S
C3357 C3356 1.377 . S
C3357 C3358 1.379 . S
C3358 H3342 0.931 . S
C3358 C3352 1.383 . S
C3358 C3357 1.379 . S
H3359 C3353 0.959 . S
H3360 C3353 0.961 . S
H3361 C3353 0.960 . S
H3362 C3354 0.930 . S
H3363 C3355 0.929 . S
H3364 C3372 0.929 1_556 S
H3365 C3374 0.900 1_556 S
H3366 C3376 0.930 . S
H3367 C3379 0.929 . S
H3368 C3382 0.930 . S
H3369 C3384 0.960 . S
H3370 C3384 0.960 1_556 S
H3371 C3384 0.960 . S
C3372 H3364 0.929 1_554 S
C3372 C3373 1.377 . S
C3372 C3374 1.394 . S
C3373 C3372 1.377 . S
C3373 C3379 1.390 . S
C3374 H3365 0.900 1_554 S
C3374 C3372 1.394 . S
C3374 C3375 1.393 . S
C3375 C3374 1.393 . S
C3375 C3376 1.400 . S
C3375 C3380 1.490 . S
C3376 H3366 0.930 . S
C3376 C3375 1.400 . S
C3376 C3379 1.386 . S
H3377 C3393 0.930 . S
H3378 C3394 0.931 . S
C3379 H3367 0.929 . S
C3379 C3373 1.390 . S
C3379 C3376 1.386 . S
C3380 C3375 1.490 . S
C3380 C3382 1.395 . S
C3380 C3383 1.403 . S
H3381 C3387 0.930 . S
C3382 H3368 0.930 . S
C3382 C3380 1.395 . S
C3382 C3385 1.403 1_565 S
C3383 C3380 1.403 . S
C3383 C3384 1.524 . S
C3383 C3387 1.400 . S
C3384 H3369 0.960 . S
C3384 H3370 0.960 1_554 S
C3384 H3371 0.960 . S
C3384 C3383 1.524 . S
C3385 C3382 1.403 1_545 S
C3385 C3386 1.392 1_545 S
C3385 C3389 1.495 . S
C3386 C3385 1.392 1_565 S
C3386 C3387 1.385 . S
C3386 C3388 1.478 1_565 S
C3387 H3381 0.930 . S
C3387 C3383 1.400 . S
C3387 C3386 1.385 . S
C3388 C3386 1.478 1_545 S
C3388 C3390 1.381 1_554 S
C3388 C3394 1.383 . S
C3389 C3385 1.495 . S
C3389 H3395 0.959 . S
C3389 H3396 0.961 . S
C3389 H3397 0.960 . S
C3390 C3388 1.381 1_556 S
C3390 C3391 1.394 . S
C3390 H3398 0.930 . S
C3391 C3390 1.394 . S
C3391 C3392 1.383 1_556 S
C3391 H3399 0.929 . S
C3392 C3391 1.383 1_554 S
C3392 C3393 1.377 . S
C3393 H3377 0.930 . S
C3393 C3392 1.377 . S
C3393 C3394 1.379 . S
C3394 H3378 0.931 . S
C3394 C3388 1.383 . S
C3394 C3393 1.379 . S
H3395 C3389 0.959 . S
H3396 C3389 0.961 . S
H3397 C3389 0.960 . S
H3398 C3390 0.930 . S
H3399 C3391 0.929 . S
H3400 C3408 0.929 . S
H3401 C3410 0.930 . S
H3402 C3412 0.930 . S
H3403 C3415 0.929 . S
H3404 C3418 0.930 . S
H3405 C3420 0.960 . S
H3406 C3420 0.960 . S
H3407 C3420 0.960 . S
C3408 H3400 0.929 . S
C3408 C3409 1.377 . S
C3408 C3410 1.384 . S
C3409 C3408 1.377 . S
C3409 C3415 1.390 . S
C3410 H3401 0.930 . S
C3410 C3408 1.384 . S
C3410 C3411 1.372 . S
C3411 C3410 1.372 . S
C3411 C3412 1.400 . S
C3411 C3416 1.490 . S
C3412 H3402 0.930 . S
C3412 C3411 1.400 . S
C3412 C3415 1.386 . S
H3413 C3429 0.930 . S
H3414 C3430 0.931 . S
C3415 H3403 0.929 . S
C3415 C3409 1.390 . S
C3415 C3412 1.386 . S
C3416 C3411 1.490 . S
C3416 C3418 1.395 . S
C3416 C3419 1.403 . S
H3417 C3423 0.930 . S
C3418 H3404 0.930 . S
C3418 C3416 1.395 . S
C3418 C3421 1.403 . S
C3419 C3416 1.403 . S
C3419 C3420 1.524 . S
C3419 C3423 1.400 . S
C3420 H3405 0.960 . S
C3420 H3406 0.960 . S
C3420 H3407 0.960 . S
C3420 C3419 1.524 . S
C3421 C3418 1.403 . S
C3421 C3422 1.392 . S
C3421 C3425 1.495 . S
C3422 C3421 1.392 . S
C3422 C3423 1.385 . S
C3422 C3424 1.478 . S
C3423 H3417 0.930 . S
C3423 C3419 1.400 . S
C3423 C3422 1.385 . S
C3424 C3422 1.478 . S
C3424 C3426 1.381 . S
C3424 C3430 1.383 . S
C3425 C3421 1.495 . S
C3425 H3431 0.959 . S
C3425 H3432 0.961 . S
C3425 H3433 0.960 . S
C3426 C3424 1.381 . S
C3426 C3427 1.394 . S
C3426 H3434 0.930 . S
C3427 C3426 1.394 . S
C3427 C3428 1.383 . S
C3427 H3435 0.929 . S
C3428 C3427 1.383 . S
C3428 C3429 1.377 . S
C3429 H3413 0.930 . S
C3429 C3428 1.377 . S
C3429 C3430 1.379 . S
C3430 H3414 0.931 . S
C3430 C3424 1.383 . S
C3430 C3429 1.379 . S
H3431 C3425 0.959 . S
H3432 C3425 0.961 . S
H3433 C3425 0.960 . S
H3434 C3426 0.930 . S
H3435 C3427 0.929 . S
H3436 C3444 0.929 1_556 S
H3437 C3446 0.930 1_556 S
H3438 C3448 0.930 . S
H3439 C3451 0.929 . S
H3440 C3454 0.930 . S
H3441 C3456 0.960 . S
H3442 C3456 0.960 . S
H3443 C3456 0.960 . S
C3444 H3436 0.929 1_554 S
C3444 C3445 1.377 . S
C3444 C3446 1.384 . S
C3445 C3444 1.377 . S
C3445 C3451 1.390 . S
C3446 H3437 0.930 1_554 S
C3446 C3444 1.384 . S
C3446 C3447 1.372 . S
C3447 C3446 1.372 . S
C3447 C3448 1.400 . S
C3447 C3452 1.490 . S
C3448 H3438 0.930 . S
C3448 C3447 1.400 . S
C3448 C3451 1.386 . S
H3449 C3465 0.930 . S
H3450 C3466 0.931 . S
C3451 H3439 0.929 . S
C3451 C3445 1.390 . S
C3451 C3448 1.386 . S
C3452 C3447 1.490 . S
C3452 C3454 1.395 . S
C3452 C3455 1.403 . S
H3453 C3459 0.930 . S
C3454 H3440 0.930 . S
C3454 C3452 1.395 . S
C3454 C3457 1.403 . S
C3455 C3452 1.403 . S
C3455 C3456 1.524 . S
C3455 C3459 1.400 . S
C3456 H3441 0.960 . S
C3456 H3442 0.960 . S
C3456 H3443 0.960 . S
C3456 C3455 1.524 . S
C3457 C3454 1.403 . S
C3457 C3458 1.392 . S
C3457 C3461 1.495 . S
C3458 C3457 1.392 . S
C3458 C3459 1.385 . S
C3458 C3460 1.478 . S
C3459 H3453 0.930 . S
C3459 C3455 1.400 . S
C3459 C3458 1.385 . S
C3460 C3458 1.478 . S
C3460 C3462 1.381 . S
C3460 C3466 1.383 . S
C3461 C3457 1.495 . S
C3461 H3467 0.959 . S
C3461 H3468 0.961 . S
C3461 H3469 0.960 . S
C3462 C3460 1.381 . S
C3462 C3463 1.394 . S
C3462 H3470 0.930 . S
C3463 C3462 1.394 . S
C3463 C3464 1.383 . S
C3463 H3471 0.929 . S
C3464 C3463 1.383 . S
C3464 C3465 1.377 . S
C3465 H3449 0.930 . S
C3465 C3464 1.377 . S
C3465 C3466 1.379 . S
C3466 H3450 0.931 . S
C3466 C3460 1.383 . S
C3466 C3465 1.379 . S
H3467 C3461 0.959 . S
H3468 C3461 0.961 . S
H3469 C3461 0.960 . S
H3470 C3462 0.930 . S
H3471 C3463 0.929 . S
H3472 C3480 0.929 . S
H3473 C3482 0.930 . S
H3474 C3484 0.930 . S
H3475 C3487 0.929 . S
H3476 C3490 0.930 . S
H3477 C3492 0.960 . S
H3478 C3492 0.960 . S
H3479 C3492 0.960 . S
C3480 H3472 0.929 . S
C3480 C3481 1.377 . S
C3480 C3482 1.384 . S
C3481 C3480 1.377 . S
C3481 C3487 1.390 . S
C3482 H3473 0.930 . S
C3482 C3480 1.384 . S
C3482 C3483 1.372 . S
C3483 C3482 1.372 . S
C3483 C3484 1.400 . S
C3483 C3488 1.490 . S
C3484 H3474 0.930 . S
C3484 C3483 1.400 . S
C3484 C3487 1.386 . S
H3485 C3501 0.930 . S
H3486 C3502 0.931 . S
C3487 H3475 0.929 . S
C3487 C3481 1.390 . S
C3487 C3484 1.386 . S
C3488 C3483 1.490 . S
C3488 C3490 1.395 . S
C3488 C3491 1.403 . S
H3489 C3495 0.930 . S
C3490 H3476 0.930 . S
C3490 C3488 1.395 . S
C3490 C3493 1.403 . S
C3491 C3488 1.403 . S
C3491 C3492 1.524 . S
C3491 C3495 1.400 . S
C3492 H3477 0.960 . S
C3492 H3478 0.960 . S
C3492 H3479 0.960 . S
C3492 C3491 1.524 . S
C3493 C3490 1.403 . S
C3493 C3494 1.392 . S
C3493 C3497 1.495 . S
C3494 C3493 1.392 . S
C3494 C3495 1.385 . S
C3494 C3496 1.478 . S
C3495 H3489 0.930 . S
C3495 C3491 1.400 . S
C3495 C3494 1.385 . S
C3496 C3494 1.478 . S
C3496 C3498 1.381 . S
C3496 C3502 1.383 . S
C3497 C3493 1.495 . S
C3497 H3503 0.959 . S
C3497 H3504 0.961 . S
C3497 H3505 0.960 . S
C3498 C3496 1.381 . S
C3498 C3499 1.394 . S
C3498 H3506 0.930 . S
C3499 C3498 1.394 . S
C3499 C3500 1.383 . S
C3499 H3507 0.929 . S
C3500 C3499 1.383 . S
C3500 C3501 1.377 . S
C3501 H3485 0.930 . S
C3501 C3500 1.377 . S
C3501 C3502 1.379 . S
C3502 H3486 0.931 . S
C3502 C3496 1.383 . S
C3502 C3501 1.379 . S
H3503 C3497 0.959 . S
H3504 C3497 0.961 . S
H3505 C3497 0.960 . S
H3506 C3498 0.930 . S
H3507 C3499 0.929 . S
H3508 C3516 0.929 . S
H3509 C3518 0.930 . S
H3510 C3520 0.930 . S
H3511 C3523 0.929 . S
H3512 C3526 0.930 . S
H3513 C3528 0.960 . S
H3514 C3528 0.960 . S
H3515 C3528 0.960 . S
C3516 H3508 0.929 . S
C3516 C3517 1.377 . S
C3516 C3518 1.384 . S
C3517 C3516 1.377 . S
C3517 C3523 1.390 . S
C3518 H3509 0.930 . S
C3518 C3516 1.384 . S
C3518 C3519 1.372 . S
C3519 C3518 1.372 . S
C3519 C3520 1.400 . S
C3519 C3524 1.490 . S
C3520 H3510 0.930 . S
C3520 C3519 1.400 . S
C3520 C3523 1.386 . S
H3521 C3537 0.930 . S
H3522 C3538 0.931 . S
C3523 H3511 0.929 . S
C3523 C3517 1.390 . S
C3523 C3520 1.386 . S
C3524 C3519 1.490 . S
C3524 C3526 1.395 . S
C3524 C3527 1.403 . S
H3525 C3531 0.930 . S
C3526 H3512 0.930 . S
C3526 C3524 1.395 . S
C3526 C3529 1.403 . S
C3527 C3524 1.403 . S
C3527 C3528 1.524 . S
C3527 C3531 1.400 . S
C3528 H3513 0.960 . S
C3528 H3514 0.960 . S
C3528 H3515 0.960 . S
C3528 C3527 1.524 . S
C3529 C3526 1.403 . S
C3529 C3530 1.392 . S
C3529 C3533 1.495 . S
C3530 C3529 1.392 . S
C3530 C3531 1.385 . S
C3530 C3532 1.478 . S
C3531 H3525 0.930 . S
C3531 C3527 1.400 . S
C3531 C3530 1.385 . S
C3532 C3530 1.478 . S
C3532 C3534 1.381 . S
C3532 C3538 1.383 . S
C3533 C3529 1.495 . S
C3533 H3539 0.959 . S
C3533 H3540 0.961 . S
C3533 H3541 0.960 . S
C3534 C3532 1.381 . S
C3534 C3535 1.394 . S
C3534 H3542 0.930 . S
C3535 C3534 1.394 . S
C3535 C3536 1.383 . S
C3535 H3543 0.929 . S
C3536 C3535 1.383 . S
C3536 C3537 1.377 . S
C3537 H3521 0.930 . S
C3537 C3536 1.377 . S
C3537 C3538 1.379 . S
C3538 H3522 0.931 . S
C3538 C3532 1.383 . S
C3538 C3537 1.379 . S
H3539 C3533 0.959 . S
H3540 C3533 0.961 . S
H3541 C3533 0.960 . S
H3542 C3534 0.930 . S
H3543 C3535 0.929 . S
H3544 C3552 0.929 . S
H3545 C3554 0.930 . S
H3546 C3556 0.930 . S
H3547 C3559 0.929 . S
H3548 C3562 0.930 . S
H3549 C3564 0.960 . S
H3550 C3564 0.960 . S
H3551 C3564 0.960 . S
C3552 H3544 0.929 . S
C3552 C3553 1.377 . S
C3552 C3554 1.384 . S
C3553 C3552 1.377 . S
C3553 C3559 1.390 . S
C3554 H3545 0.930 . S
C3554 C3552 1.384 . S
C3554 C3555 1.372 . S
C3555 C3554 1.372 . S
C3555 C3556 1.400 . S
C3555 C3560 1.490 . S
C3556 H3546 0.930 . S
C3556 C3555 1.400 . S
C3556 C3559 1.386 . S
H3557 C3573 0.930 . S
H3558 C3574 0.931 . S
C3559 H3547 0.929 . S
C3559 C3553 1.390 . S
C3559 C3556 1.386 . S
C3560 C3555 1.490 . S
C3560 C3562 1.395 . S
C3560 C3563 1.403 . S
H3561 C3567 0.930 . S
C3562 H3548 0.930 . S
C3562 C3560 1.395 . S
C3562 C3565 1.403 . S
C3563 C3560 1.403 . S
C3563 C3564 1.524 . S
C3563 C3567 1.400 . S
C3564 H3549 0.960 . S
C3564 H3550 0.960 . S
C3564 H3551 0.960 . S
C3564 C3563 1.524 . S
C3565 C3562 1.403 . S
C3565 C3566 1.392 . S
C3565 C3569 1.495 . S
C3566 C3565 1.392 . S
C3566 C3567 1.385 . S
C3566 C3568 1.478 . S
C3567 H3561 0.930 . S
C3567 C3563 1.400 . S
C3567 C3566 1.385 . S
C3568 C3566 1.478 . S
C3568 C3570 1.381 . S
C3568 C3574 1.383 . S
C3569 C3565 1.495 . S
C3569 H3575 0.959 . S
C3569 H3576 0.961 . S
C3569 H3577 0.960 . S
C3570 C3568 1.381 . S
C3570 C3571 1.394 . S
C3570 H3578 0.930 . S
C3571 C3570 1.394 . S
C3571 C3572 1.383 . S
C3571 H3579 0.929 . S
C3572 C3571 1.383 . S
C3572 C3573 1.377 . S
C3573 H3557 0.930 . S
C3573 C3572 1.377 . S
C3573 C3574 1.379 . S
C3574 H3558 0.931 . S
C3574 C3568 1.383 . S
C3574 C3573 1.379 . S
H3575 C3569 0.959 . S
H3576 C3569 0.961 . S
H3577 C3569 0.960 . S
H3578 C3570 0.930 . S
H3579 C3571 0.929 . S
H3580 C3588 0.929 . S
H3581 C3590 0.930 . S
H3582 C3592 0.930 . S
H3583 C3595 0.929 . S
H3584 C3598 0.930 . S
H3585 C3600 0.960 . S
H3586 C3600 0.960 . S
H3587 C3600 0.960 . S
C3588 H3580 0.929 . S
C3588 C3589 1.377 . S
C3588 C3590 1.384 . S
C3589 C3588 1.377 . S
C3589 C3595 1.390 . S
C3590 H3581 0.930 . S
C3590 C3588 1.384 . S
C3590 C3591 1.372 . S
C3591 C3590 1.372 . S
C3591 C3592 1.400 . S
C3591 C3596 1.490 . S
C3592 H3582 0.930 . S
C3592 C3591 1.400 . S
C3592 C3595 1.386 . S
H3593 C3609 0.930 . S
H3594 C3610 0.931 . S
C3595 H3583 0.929 . S
C3595 C3589 1.390 . S
C3595 C3592 1.386 . S
C3596 C3591 1.490 . S
C3596 C3598 1.395 . S
C3596 C3599 1.403 . S
H3597 C3603 0.930 . S
C3598 H3584 0.930 . S
C3598 C3596 1.395 . S
C3598 C3601 1.403 . S
C3599 C3596 1.403 . S
C3599 C3600 1.524 . S
C3599 C3603 1.400 . S
C3600 H3585 0.960 . S
C3600 H3586 0.960 . S
C3600 H3587 0.960 . S
C3600 C3599 1.524 . S
C3601 C3598 1.403 . S
C3601 C3602 1.392 . S
C3601 C3605 1.495 . S
C3602 C3601 1.392 . S
C3602 C3603 1.385 . S
C3602 C3604 1.478 . S
C3603 H3597 0.930 . S
C3603 C3599 1.400 . S
C3603 C3602 1.385 . S
C3604 C3602 1.478 . S
C3604 C3606 1.381 . S
C3604 C3610 1.383 . S
C3605 C3601 1.495 . S
C3605 H3611 0.959 . S
C3605 H3612 0.961 . S
C3605 H3613 0.960 . S
C3606 C3604 1.381 . S
C3606 C3607 1.394 . S
C3606 H3614 0.930 . S
C3607 C3606 1.394 . S
C3607 C3608 1.383 . S
C3607 H3615 0.929 . S
C3608 C3607 1.383 . S
C3608 C3609 1.377 . S
C3609 H3593 0.930 . S
C3609 C3608 1.377 . S
C3609 C3610 1.379 . S
C3610 H3594 0.931 . S
C3610 C3604 1.383 . S
C3610 C3609 1.379 . S
H3611 C3605 0.959 . S
H3612 C3605 0.961 . S
H3613 C3605 0.960 . S
H3614 C3606 0.930 . S
H3615 C3607 0.929 . S
H3616 C3624 0.929 . S
H3617 C3626 0.930 . S
H3618 C3628 0.930 . S
H3619 C3631 0.929 . S
H3620 C3634 0.930 . S
H3621 C3636 0.960 . S
H3622 C3636 0.960 . S
H3623 C3636 0.960 . S
C3624 H3616 0.929 . S
C3624 C3625 1.377 . S
C3624 C3626 1.384 . S
C3625 C3624 1.377 . S
C3625 C3631 1.390 . S
C3626 H3617 0.930 . S
C3626 C3624 1.384 . S
C3626 C3627 1.372 . S
C3627 C3626 1.372 . S
C3627 C3628 1.400 . S
C3627 C3632 1.490 . S
C3628 H3618 0.930 . S
C3628 C3627 1.400 . S
C3628 C3631 1.386 . S
H3629 C3645 0.930 . S
H3630 C3646 0.931 . S
C3631 H3619 0.929 . S
C3631 C3625 1.390 . S
C3631 C3628 1.386 . S
C3632 C3627 1.490 . S
C3632 C3634 1.395 . S
C3632 C3635 1.403 . S
H3633 C3639 0.930 . S
C3634 H3620 0.930 . S
C3634 C3632 1.395 . S
C3634 C3637 1.403 . S
C3635 C3632 1.403 . S
C3635 C3636 1.524 . S
C3635 C3639 1.400 . S
C3636 H3621 0.960 . S
C3636 H3622 0.960 . S
C3636 H3623 0.960 . S
C3636 C3635 1.524 . S
C3637 C3634 1.403 . S
C3637 C3638 1.392 . S
C3637 C3641 1.495 . S
C3638 C3637 1.392 . S
C3638 C3639 1.385 . S
C3638 C3640 1.478 . S
C3639 H3633 0.930 . S
C3639 C3635 1.400 . S
C3639 C3638 1.385 . S
C3640 C3638 1.478 . S
C3640 C3642 1.381 . S
C3640 C3646 1.383 . S
C3641 C3637 1.495 . S
C3641 H3647 0.959 . S
C3641 H3648 0.961 . S
C3641 H3649 0.960 . S
C3642 C3640 1.381 . S
C3642 C3643 1.394 . S
C3642 H3650 0.930 . S
C3643 C3642 1.394 . S
C3643 C3644 1.383 . S
C3643 H3651 0.929 . S
C3644 C3643 1.383 . S
C3644 C3645 1.377 . S
C3645 H3629 0.930 . S
C3645 C3644 1.377 . S
C3645 C3646 1.379 . S
C3646 H3630 0.931 . S
C3646 C3640 1.383 . S
C3646 C3645 1.379 . S
H3647 C3641 0.959 . S
H3648 C3641 0.961 . S
H3649 C3641 0.960 . S
H3650 C3642 0.930 . S
H3651 C3643 0.929 . S
H3652 C3660 0.929 . S
H3653 C3662 0.930 . S
H3654 C3664 0.930 . S
H3655 C3667 0.929 . S
H3656 C3670 0.930 . S
H3657 C3672 0.960 . S
H3658 C3672 0.960 . S
H3659 C3672 0.960 . S
C3660 H3652 0.929 . S
C3660 C3661 1.377 . S
C3660 C3662 1.384 . S
C3661 C3660 1.377 . S
C3661 C3667 1.390 . S
C3662 H3653 0.930 . S
C3662 C3660 1.384 . S
C3662 C3663 1.372 . S
C3663 C3662 1.372 . S
C3663 C3664 1.400 . S
C3663 C3668 1.490 . S
C3664 H3654 0.930 . S
C3664 C3663 1.400 . S
C3664 C3667 1.386 . S
H3665 C3681 0.930 . S
H3666 C3682 0.931 . S
C3667 H3655 0.929 . S
C3667 C3661 1.390 . S
C3667 C3664 1.386 . S
C3668 C3663 1.490 . S
C3668 C3670 1.395 . S
C3668 C3671 1.403 . S
H3669 C3675 0.930 . S
C3670 H3656 0.930 . S
C3670 C3668 1.395 . S
C3670 C3673 1.403 . S
C3671 C3668 1.403 . S
C3671 C3672 1.524 . S
C3671 C3675 1.400 . S
C3672 H3657 0.960 . S
C3672 H3658 0.960 . S
C3672 H3659 0.960 . S
C3672 C3671 1.524 . S
C3673 C3670 1.403 . S
C3673 C3674 1.392 . S
C3673 C3677 1.495 . S
C3674 C3673 1.392 . S
C3674 C3675 1.385 . S
C3674 C3676 1.478 . S
C3675 H3669 0.930 . S
C3675 C3671 1.400 . S
C3675 C3674 1.385 . S
C3676 C3674 1.478 . S
C3676 C3678 1.381 . S
C3676 C3682 1.383 . S
C3677 C3673 1.495 . S
C3677 H3683 0.959 . S
C3677 H3684 0.961 . S
C3677 H3685 0.960 . S
C3678 C3676 1.381 . S
C3678 C3679 1.394 . S
C3678 H3686 0.930 . S
C3679 C3678 1.394 . S
C3679 C3680 1.383 . S
C3679 H3687 0.929 . S
C3680 C3679 1.383 . S
C3680 C3681 1.377 . S
C3681 H3665 0.930 . S
C3681 C3680 1.377 . S
C3681 C3682 1.379 . S
C3682 H3666 0.931 . S
C3682 C3676 1.383 . S
C3682 C3681 1.379 . S
H3683 C3677 0.959 . S
H3684 C3677 0.961 . S
H3685 C3677 0.960 . S
H3686 C3678 0.930 . S
H3687 C3679 0.929 . S
H3688 C3696 0.929 . S
H3689 C3698 0.930 . S
H3690 C3700 0.930 . S
H3691 C3703 0.929 . S
H3692 C3706 0.930 . S
H3693 C3708 0.960 . S
H3694 C3708 0.960 . S
H3695 C3708 0.960 . S
C3696 H3688 0.929 . S
C3696 C3697 1.377 . S
C3696 C3698 1.384 . S
C3697 C3696 1.377 . S
C3697 C3703 1.390 . S
C3698 H3689 0.930 . S
C3698 C3696 1.384 . S
C3698 C3699 1.372 . S
C3699 C3698 1.372 . S
C3699 C3700 1.400 . S
C3699 C3704 1.490 . S
C3700 H3690 0.930 . S
C3700 C3699 1.400 . S
C3700 C3703 1.386 . S
H3701 C3717 0.930 . S
H3702 C3718 0.931 . S
C3703 H3691 0.929 . S
C3703 C3697 1.390 . S
C3703 C3700 1.386 . S
C3704 C3699 1.490 . S
C3704 C3706 1.395 . S
C3704 C3707 1.403 . S
H3705 C3711 0.930 . S
C3706 H3692 0.930 . S
C3706 C3704 1.395 . S
C3706 C3709 1.403 . S
C3707 C3704 1.403 . S
C3707 C3708 1.524 . S
C3707 C3711 1.400 . S
C3708 H3693 0.960 . S
C3708 H3694 0.960 . S
C3708 H3695 0.960 . S
C3708 C3707 1.524 . S
C3709 C3706 1.403 . S
C3709 C3710 1.392 . S
C3709 C3713 1.495 . S
C3710 C3709 1.392 . S
C3710 C3711 1.385 . S
C3710 C3712 1.478 . S
C3711 H3705 0.930 . S
C3711 C3707 1.400 . S
C3711 C3710 1.385 . S
C3712 C3710 1.478 . S
C3712 C3714 1.381 . S
C3712 C3718 1.383 . S
C3713 C3709 1.495 . S
C3713 H3719 0.959 . S
C3713 H3720 0.961 . S
C3713 H3721 0.960 . S
C3714 C3712 1.381 . S
C3714 C3715 1.394 . S
C3714 H3722 0.930 . S
C3715 C3714 1.394 . S
C3715 C3716 1.383 . S
C3715 H3723 0.929 . S
C3716 C3715 1.383 . S
C3716 C3717 1.377 . S
C3717 H3701 0.930 . S
C3717 C3716 1.377 . S
C3717 C3718 1.379 . S
C3718 H3702 0.931 . S
C3718 C3712 1.383 . S
C3718 C3717 1.379 . S
H3719 C3713 0.959 . S
H3720 C3713 0.961 . S
H3721 C3713 0.960 . S
H3722 C3714 0.930 . S
H3723 C3715 0.929 . S
H3724 C3732 0.929 . S
H3725 C3734 0.930 . S
H3726 C3736 0.930 . S
H3727 C3739 0.929 . S
H3728 C3742 0.930 . S
H3729 C3744 0.960 . S
H3730 C3744 0.960 . S
H3731 C3744 0.960 . S
C3732 H3724 0.929 . S
C3732 C3733 1.377 . S
C3732 C3734 1.384 . S
C3733 C3732 1.377 . S
C3733 C3739 1.390 . S
C3734 H3725 0.930 . S
C3734 C3732 1.384 . S
C3734 C3735 1.372 . S
C3735 C3734 1.372 . S
C3735 C3736 1.400 . S
C3735 C3740 1.490 . S
C3736 H3726 0.930 . S
C3736 C3735 1.400 . S
C3736 C3739 1.386 . S
H3737 C3753 0.930 . S
H3738 C3754 0.931 . S
C3739 H3727 0.929 . S
C3739 C3733 1.390 . S
C3739 C3736 1.386 . S
C3740 C3735 1.490 . S
C3740 C3742 1.395 . S
C3740 C3743 1.403 . S
H3741 C3747 0.930 . S
C3742 H3728 0.930 . S
C3742 C3740 1.395 . S
C3742 C3745 1.403 . S
C3743 C3740 1.403 . S
C3743 C3744 1.524 . S
C3743 C3747 1.400 . S
C3744 H3729 0.960 . S
C3744 H3730 0.960 . S
C3744 H3731 0.960 . S
C3744 C3743 1.524 . S
C3745 C3742 1.403 . S
C3745 C3746 1.392 . S
C3745 C3749 1.495 . S
C3746 C3745 1.392 . S
C3746 C3747 1.385 . S
C3746 C3748 1.478 . S
C3747 H3741 0.930 . S
C3747 C3743 1.400 . S
C3747 C3746 1.385 . S
C3748 C3746 1.478 . S
C3748 C3750 1.381 . S
C3748 C3754 1.383 . S
C3749 C3745 1.495 . S
C3749 H3755 0.959 . S
C3749 H3756 0.961 . S
C3749 H3757 0.960 . S
C3750 C3748 1.381 . S
C3750 C3751 1.394 . S
C3750 H3758 0.930 . S
C3751 C3750 1.394 . S
C3751 C3752 1.383 . S
C3751 H3759 0.929 . S
C3752 C3751 1.383 . S
C3752 C3753 1.377 . S
C3753 H3737 0.930 . S
C3753 C3752 1.377 . S
C3753 C3754 1.379 . S
C3754 H3738 0.931 . S
C3754 C3748 1.383 . S
C3754 C3753 1.379 . S
H3755 C3749 0.959 . S
H3756 C3749 0.961 . S
H3757 C3749 0.960 . S
H3758 C3750 0.930 . S
H3759 C3751 0.929 . S
H3760 C3768 0.929 . S
H3761 C3770 0.930 . S
H3762 C3772 0.930 . S
H3763 C3775 0.929 . S
H3764 C3778 0.930 . S
H3765 C3780 0.960 . S
H3766 C3780 0.960 . S
H3767 C3780 0.960 . S
C3768 H3760 0.929 . S
C3768 C3769 1.377 . S
C3768 C3770 1.384 . S
C3769 C3768 1.377 . S
C3769 C3775 1.390 . S
C3770 H3761 0.930 . S
C3770 C3768 1.384 . S
C3770 C3771 1.372 . S
C3771 C3770 1.372 . S
C3771 C3772 1.400 . S
C3771 C3776 1.490 . S
C3772 H3762 0.930 . S
C3772 C3771 1.400 . S
C3772 C3775 1.386 . S
H3773 C3789 0.930 . S
H3774 C3790 0.931 . S
C3775 H3763 0.929 . S
C3775 C3769 1.390 . S
C3775 C3772 1.386 . S
C3776 C3771 1.490 . S
C3776 C3778 1.395 . S
C3776 C3779 1.403 . S
H3777 C3783 0.930 . S
C3778 H3764 0.930 . S
C3778 C3776 1.395 . S
C3778 C3781 1.403 . S
C3779 C3776 1.403 . S
C3779 C3780 1.524 . S
C3779 C3783 1.400 . S
C3780 H3765 0.960 . S
C3780 H3766 0.960 . S
C3780 H3767 0.960 . S
C3780 C3779 1.524 . S
C3781 C3778 1.403 . S
C3781 C3782 1.392 . S
C3781 C3785 1.495 . S
C3782 C3781 1.392 . S
C3782 C3783 1.385 . S
C3782 C3784 1.478 . S
C3783 H3777 0.930 . S
C3783 C3779 1.400 . S
C3783 C3782 1.385 . S
C3784 C3782 1.478 . S
C3784 C3786 1.381 . S
C3784 C3790 1.383 . S
C3785 C3781 1.495 . S
C3785 H3791 0.959 . S
C3785 H3792 0.961 . S
C3785 H3793 0.960 . S
C3786 C3784 1.381 . S
C3786 C3787 1.394 . S
C3786 H3794 0.930 . S
C3787 C3786 1.394 . S
C3787 C3788 1.383 . S
C3787 H3795 0.929 . S
C3788 C3787 1.383 . S
C3788 C3789 1.377 . S
C3789 H3773 0.930 . S
C3789 C3788 1.377 . S
C3789 C3790 1.379 . S
C3790 H3774 0.931 . S
C3790 C3784 1.383 . S
C3790 C3789 1.379 . S
H3791 C3785 0.959 . S
H3792 C3785 0.961 . S
H3793 C3785 0.960 . S
H3794 C3786 0.930 . S
H3795 C3787 0.929 . S
H3796 C3804 0.929 . S
H3797 C3806 0.930 . S
H3798 C3808 0.930 . S
H3799 C3811 0.929 . S
H3800 C3814 0.930 . S
H3801 C3816 0.960 . S
H3802 C3816 0.960 . S
H3803 C3816 0.960 . S
C3804 H3796 0.929 . S
C3804 C3805 1.377 . S
C3804 C3806 1.384 . S
C3805 C3804 1.377 . S
C3805 C3811 1.390 . S
C3806 H3797 0.930 . S
C3806 C3804 1.384 . S
C3806 C3807 1.372 . S
C3807 C3806 1.372 . S
C3807 C3808 1.400 . S
C3807 C3812 1.490 . S
C3808 H3798 0.930 . S
C3808 C3807 1.400 . S
C3808 C3811 1.386 . S
H3809 C3825 0.930 . S
H3810 C3826 0.931 . S
C3811 H3799 0.929 . S
C3811 C3805 1.390 . S
C3811 C3808 1.386 . S
C3812 C3807 1.490 . S
C3812 C3814 1.395 . S
C3812 C3815 1.403 . S
H3813 C3819 0.930 . S
C3814 H3800 0.930 . S
C3814 C3812 1.395 . S
C3814 C3817 1.403 . S
C3815 C3812 1.403 . S
C3815 C3816 1.524 . S
C3815 C3819 1.400 . S
C3816 H3801 0.960 . S
C3816 H3802 0.960 . S
C3816 H3803 0.960 . S
C3816 C3815 1.524 . S
C3817 C3814 1.403 . S
C3817 C3818 1.392 . S
C3817 C3821 1.495 . S
C3818 C3817 1.392 . S
C3818 C3819 1.385 . S
C3818 C3820 1.478 . S
C3819 H3813 0.930 . S
C3819 C3815 1.400 . S
C3819 C3818 1.385 . S
C3820 C3818 1.478 . S
C3820 C3822 1.381 . S
C3820 C3826 1.383 . S
C3821 C3817 1.495 . S
C3821 H3827 0.959 . S
C3821 H3828 0.961 . S
C3821 H3829 0.960 . S
C3822 C3820 1.381 . S
C3822 C3823 1.394 . S
C3822 H3830 0.930 . S
C3823 C3822 1.394 . S
C3823 C3824 1.383 . S
C3823 H3831 0.929 . S
C3824 C3823 1.383 . S
C3824 C3825 1.377 . S
C3825 H3809 0.930 . S
C3825 C3824 1.377 . S
C3825 C3826 1.379 . S
C3826 H3810 0.931 . S
C3826 C3820 1.383 . S
C3826 C3825 1.379 . S
H3827 C3821 0.959 . S
H3828 C3821 0.961 . S
H3829 C3821 0.960 . S
H3830 C3822 0.930 . S
H3831 C3823 0.929 . S
H3832 C3840 0.929 . S
H3833 C3842 0.930 . S
H3834 C3844 0.930 . S
H3835 C3847 0.929 . S
H3836 C3850 0.930 . S
H3837 C3852 0.960 . S
H3838 C3852 0.960 . S
H3839 C3852 0.960 . S
C3840 H3832 0.929 . S
C3840 C3841 1.377 . S
C3840 C3842 1.384 . S
C3841 C3840 1.377 . S
C3841 C3847 1.390 . S
C3842 H3833 0.930 . S
C3842 C3840 1.384 . S
C3842 C3843 1.372 . S
C3843 C3842 1.372 . S
C3843 C3844 1.400 . S
C3843 C3848 1.490 . S
C3844 H3834 0.930 . S
C3844 C3843 1.400 . S
C3844 C3847 1.386 . S
H3845 C3861 0.930 . S
H3846 C3862 0.931 . S
C3847 H3835 0.929 . S
C3847 C3841 1.390 . S
C3847 C3844 1.386 . S
C3848 C3843 1.490 . S
C3848 C3850 1.395 . S
C3848 C3851 1.403 . S
H3849 C3855 0.930 . S
C3850 H3836 0.930 . S
C3850 C3848 1.395 . S
C3850 C3853 1.403 . S
C3851 C3848 1.403 . S
C3851 C3852 1.524 . S
C3851 C3855 1.400 . S
C3852 H3837 0.960 . S
C3852 H3838 0.960 . S
C3852 H3839 0.960 . S
C3852 C3851 1.524 . S
C3853 C3850 1.403 . S
C3853 C3854 1.392 . S
C3853 C3857 1.495 . S
C3854 C3853 1.392 . S
C3854 C3855 1.385 . S
C3854 C3856 1.478 . S
C3855 H3849 0.930 . S
C3855 C3851 1.400 . S
C3855 C3854 1.385 . S
C3856 C3854 1.478 . S
C3856 C3858 1.381 . S
C3856 C3862 1.383 . S
C3857 C3853 1.495 . S
C3857 H3863 0.959 . S
C3857 H3864 0.961 . S
C3857 H3865 0.960 . S
C3858 C3856 1.381 . S
C3858 C3859 1.394 . S
C3858 H3866 0.930 . S
C3859 C3858 1.394 . S
C3859 C3860 1.383 . S
C3859 H3867 0.929 . S
C3860 C3859 1.383 . S
C3860 C3861 1.377 . S
C3861 H3845 0.930 . S
C3861 C3860 1.377 . S
C3861 C3862 1.379 . S
C3862 H3846 0.931 . S
C3862 C3856 1.383 . S
C3862 C3861 1.379 . S
H3863 C3857 0.959 . S
H3864 C3857 0.961 . S
H3865 C3857 0.960 . S
H3866 C3858 0.930 . S
H3867 C3859 0.929 . S
H3868 C3876 0.929 . S
H3869 C3878 0.930 . S
H3870 C3880 0.930 . S
H3871 C3883 0.929 . S
H3872 C3886 0.930 . S
H3873 C3888 0.960 . S
H3874 C3888 0.960 . S
H3875 C3888 0.960 . S
C3876 H3868 0.929 . S
C3876 C3877 1.377 . S
C3876 C3878 1.384 . S
C3877 C3876 1.377 . S
C3877 C3883 1.390 . S
C3878 H3869 0.930 . S
C3878 C3876 1.384 . S
C3878 C3879 1.372 . S
C3879 C3878 1.372 . S
C3879 C3880 1.400 . S
C3879 C3884 1.490 . S
C3880 H3870 0.930 . S
C3880 C3879 1.400 . S
C3880 C3883 1.386 . S
H3881 C3897 0.930 . S
H3882 C3898 0.931 . S
C3883 H3871 0.929 . S
C3883 C3877 1.390 . S
C3883 C3880 1.386 . S
C3884 C3879 1.490 . S
C3884 C3886 1.395 . S
C3884 C3887 1.403 . S
H3885 C3891 0.930 . S
C3886 H3872 0.930 . S
C3886 C3884 1.395 . S
C3886 C3889 1.403 . S
C3887 C3884 1.403 . S
C3887 C3888 1.524 . S
C3887 C3891 1.400 . S
C3888 H3873 0.960 . S
C3888 H3874 0.960 . S
C3888 H3875 0.960 . S
C3888 C3887 1.524 . S
C3889 C3886 1.403 . S
C3889 C3890 1.392 . S
C3889 C3893 1.495 . S
C3890 C3889 1.392 . S
C3890 C3891 1.385 . S
C3890 C3892 1.478 . S
C3891 H3885 0.930 . S
C3891 C3887 1.400 . S
C3891 C3890 1.385 . S
C3892 C3890 1.478 . S
C3892 C3894 1.381 . S
C3892 C3898 1.383 . S
C3893 C3889 1.495 . S
C3893 H3899 0.959 . S
C3893 H3900 0.961 . S
C3893 H3901 0.960 . S
C3894 C3892 1.381 . S
C3894 C3895 1.394 . S
C3894 H3902 0.930 . S
C3895 C3894 1.394 . S
C3895 C3896 1.383 . S
C3895 H3903 0.929 . S
C3896 C3895 1.383 . S
C3896 C3897 1.377 . S
C3897 H3881 0.930 . S
C3897 C3896 1.377 . S
C3897 C3898 1.379 . S
C3898 H3882 0.931 . S
C3898 C3892 1.383 . S
C3898 C3897 1.379 . S
H3899 C3893 0.959 . S
H3900 C3893 0.961 . S
H3901 C3893 0.960 . S
H3902 C3894 0.930 . S
H3903 C3895 0.929 . S
H3904 C3912 0.929 . S
H3905 C3914 0.930 . S
H3906 C3916 0.930 . S
H3907 C3919 0.929 . S
H3908 C3922 0.930 . S
H3909 C3924 0.960 . S
H3910 C3924 0.960 . S
H3911 C3924 0.960 . S
C3912 H3904 0.929 . S
C3912 C3913 1.377 . S
C3912 C3914 1.384 . S
C3913 C3912 1.377 . S
C3913 C3919 1.390 . S
C3914 H3905 0.930 . S
C3914 C3912 1.384 . S
C3914 C3915 1.372 . S
C3915 C3914 1.372 . S
C3915 C3916 1.400 . S
C3915 C3920 1.490 . S
C3916 H3906 0.930 . S
C3916 C3915 1.400 . S
C3916 C3919 1.386 . S
H3917 C3933 0.930 . S
H3918 C3934 0.931 . S
C3919 H3907 0.929 . S
C3919 C3913 1.390 . S
C3919 C3916 1.386 . S
C3920 C3915 1.490 . S
C3920 C3922 1.395 . S
C3920 C3923 1.403 . S
H3921 C3927 0.930 . S
C3922 H3908 0.930 . S
C3922 C3920 1.395 . S
C3922 C3925 1.403 . S
C3923 C3920 1.403 . S
C3923 C3924 1.524 . S
C3923 C3927 1.400 . S
C3924 H3909 0.960 . S
C3924 H3910 0.960 . S
C3924 H3911 0.960 . S
C3924 C3923 1.524 . S
C3925 C3922 1.403 . S
C3925 C3926 1.392 . S
C3925 C3929 1.495 . S
C3926 C3925 1.392 . S
C3926 C3927 1.385 . S
C3926 C3928 1.478 . S
C3927 H3921 0.930 . S
C3927 C3923 1.400 . S
C3927 C3926 1.385 . S
C3928 C3926 1.478 . S
C3928 C3930 1.381 . S
C3928 C3934 1.383 1_655 S
C3929 C3925 1.495 . S
C3929 H3935 0.959 . S
C3929 H3936 0.961 . S
C3929 H3937 0.960 . S
C3930 C3928 1.381 . S
C3930 C3931 1.394 . S
C3930 H3938 0.930 . S
C3931 C3930 1.394 . S
C3931 C3932 1.383 1_655 S
C3931 H3939 0.929 . S
C3932 C3931 1.383 1_455 S
C3932 C3933 1.377 . S
C3933 H3917 0.930 . S
C3933 C3932 1.377 . S
C3933 C3934 1.379 . S
C3934 H3918 0.931 . S
C3934 C3928 1.383 1_455 S
C3934 C3933 1.379 . S
H3935 C3929 0.959 . S
H3936 C3929 0.961 . S
H3937 C3929 0.960 . S
H3938 C3930 0.930 . S
H3939 C3931 0.929 . S
H3940 C3948 0.929 . S
H3941 C3950 0.930 . S
H3942 C3952 0.930 . S
H3943 C3955 0.929 . S
H3944 C3958 0.930 . S
H3945 C3960 0.960 . S
H3946 C3960 0.960 . S
H3947 C3960 0.960 . S
C3948 H3940 0.929 . S
C3948 C3949 1.377 . S
C3948 C3950 1.384 . S
C3949 C3948 1.377 . S
C3949 C3955 1.390 . S
C3950 H3941 0.930 . S
C3950 C3948 1.384 . S
C3950 C3951 1.372 . S
C3951 C3950 1.372 . S
C3951 C3952 1.400 . S
C3951 C3956 1.490 . S
C3952 H3942 0.930 . S
C3952 C3951 1.400 . S
C3952 C3955 1.386 . S
H3953 C3969 0.930 . S
H3954 C3970 0.931 . S
C3955 H3943 0.929 . S
C3955 C3949 1.390 . S
C3955 C3952 1.386 . S
C3956 C3951 1.490 . S
C3956 C3958 1.395 . S
C3956 C3959 1.403 . S
H3957 C3963 0.930 . S
C3958 H3944 0.930 . S
C3958 C3956 1.395 . S
C3958 C3961 1.403 . S
C3959 C3956 1.403 . S
C3959 C3960 1.524 . S
C3959 C3963 1.400 . S
C3960 H3945 0.960 . S
C3960 H3946 0.960 . S
C3960 H3947 0.960 . S
C3960 C3959 1.524 . S
C3961 C3958 1.403 . S
C3961 C3962 1.392 . S
C3961 C3965 1.495 . S
C3962 C3961 1.392 . S
C3962 C3963 1.385 . S
C3962 C3964 1.478 . S
C3963 H3957 0.930 . S
C3963 C3959 1.400 . S
C3963 C3962 1.385 . S
C3964 C3962 1.478 . S
C3964 C3966 1.381 . S
C3964 C3970 1.383 . S
C3965 C3961 1.495 . S
C3965 H3971 0.959 . S
C3965 H3972 0.961 . S
C3965 H3973 0.960 . S
C3966 C3964 1.381 . S
C3966 C3967 1.394 . S
C3966 H3974 0.930 . S
C3967 C3966 1.394 . S
C3967 C3968 1.383 . S
C3967 H3975 0.929 . S
C3968 C3967 1.383 . S
C3968 C3969 1.377 . S
C3969 H3953 0.930 . S
C3969 C3968 1.377 . S
C3969 C3970 1.379 . S
C3970 H3954 0.931 . S
C3970 C3964 1.383 . S
C3970 C3969 1.379 . S
H3971 C3965 0.959 . S
H3972 C3965 0.961 . S
H3973 C3965 0.960 . S
H3974 C3966 0.930 . S
H3975 C3967 0.929 . S
H3976 C3984 0.929 . S
H3977 C3986 0.930 . S
H3978 C3988 0.930 . S
H3979 C3991 0.929 . S
H3980 C3994 0.930 . S
H3981 C3996 0.960 . S
H3982 C3996 0.960 . S
H3983 C3996 0.960 . S
C3984 H3976 0.929 . S
C3984 C3985 1.377 . S
C3984 C3986 1.384 . S
C3985 C3984 1.377 . S
C3985 C3991 1.390 . S
C3986 H3977 0.930 . S
C3986 C3984 1.384 . S
C3986 C3987 1.372 . S
C3987 C3986 1.372 . S
C3987 C3988 1.400 . S
C3987 C3992 1.490 . S
C3988 H3978 0.930 . S
C3988 C3987 1.400 . S
C3988 C3991 1.386 . S
H3989 C4005 0.930 . S
H3990 C4006 0.931 . S
C3991 H3979 0.929 . S
C3991 C3985 1.390 . S
C3991 C3988 1.386 . S
C3992 C3987 1.490 . S
C3992 C3994 1.395 . S
C3992 C3995 1.403 . S
H3993 C3999 0.930 . S
C3994 H3980 0.930 . S
C3994 C3992 1.395 . S
C3994 C3997 1.403 . S
C3995 C3992 1.403 . S
C3995 C3996 1.524 . S
C3995 C3999 1.400 . S
C3996 H3981 0.960 . S
C3996 H3982 0.960 . S
C3996 H3983 0.960 . S
C3996 C3995 1.524 . S
C3997 C3994 1.403 . S
C3997 C3998 1.392 . S
C3997 C4001 1.495 . S
C3998 C3997 1.392 . S
C3998 C3999 1.385 . S
C3998 C4000 1.478 . S
C3999 H3993 0.930 . S
C3999 C3995 1.400 . S
C3999 C3998 1.385 . S
C4000 C3998 1.478 . S
C4000 C4002 1.381 . S
C4000 C4006 1.383 . S
C4001 C3997 1.495 . S
C4001 H4007 0.959 . S
C4001 H4008 0.961 . S
C4001 H4009 0.960 . S
C4002 C4000 1.381 . S
C4002 C4003 1.394 . S
C4002 H4010 0.930 . S
C4003 C4002 1.394 . S
C4003 C4004 1.383 . S
C4003 H4011 0.929 . S
C4004 C4003 1.383 . S
C4004 C4005 1.377 . S
C4005 H3989 0.930 . S
C4005 C4004 1.377 . S
C4005 C4006 1.379 . S
C4006 H3990 0.931 . S
C4006 C4000 1.383 . S
C4006 C4005 1.379 . S
H4007 C4001 0.959 . S
H4008 C4001 0.961 . S
H4009 C4001 0.960 . S
H4010 C4002 0.930 . S
H4011 C4003 0.929 . S
H4012 C4020 0.929 . S
H4013 C4022 0.930 . S
H4014 C4024 0.930 . S
H4015 C4027 0.929 . S
H4016 C4030 0.930 . S
H4017 C4032 0.960 . S
H4018 C4032 0.960 . S
H4019 C4032 0.960 . S
C4020 H4012 0.929 . S
C4020 C4021 1.377 . S
C4020 C4022 1.384 . S
C4021 C4020 1.377 . S
C4021 C4027 1.390 . S
C4022 H4013 0.930 . S
C4022 C4020 1.384 . S
C4022 C4023 1.372 . S
C4023 C4022 1.372 . S
C4023 C4024 1.400 . S
C4023 C4028 1.490 . S
C4024 H4014 0.930 . S
C4024 C4023 1.400 . S
C4024 C4027 1.386 . S
H4025 C4041 0.930 . S
H4026 C4042 0.931 . S
C4027 H4015 0.929 . S
C4027 C4021 1.390 . S
C4027 C4024 1.386 . S
C4028 C4023 1.490 . S
C4028 C4030 1.395 . S
C4028 C4031 1.403 . S
H4029 C4035 0.930 . S
C4030 H4016 0.930 . S
C4030 C4028 1.395 . S
C4030 C4033 1.403 . S
C4031 C4028 1.403 . S
C4031 C4032 1.524 . S
C4031 C4035 1.400 . S
C4032 H4017 0.960 . S
C4032 H4018 0.960 . S
C4032 H4019 0.960 . S
C4032 C4031 1.524 . S
C4033 C4030 1.403 . S
C4033 C4034 1.392 . S
C4033 C4037 1.495 . S
C4034 C4033 1.392 . S
C4034 C4035 1.385 . S
C4034 C4036 1.478 . S
C4035 H4029 0.930 . S
C4035 C4031 1.400 . S
C4035 C4034 1.385 . S
C4036 C4034 1.478 . S
C4036 C4038 1.381 . S
C4036 C4042 1.383 . S
C4037 C4033 1.495 . S
C4037 H4043 0.959 . S
C4037 H4044 0.961 . S
C4037 H4045 0.960 . S
C4038 C4036 1.381 . S
C4038 C4039 1.394 . S
C4038 H4046 0.930 . S
C4039 C4038 1.394 . S
C4039 C4040 1.383 . S
C4039 H4047 0.929 . S
C4040 C4039 1.383 . S
C4040 C4041 1.377 . S
C4041 H4025 0.930 . S
C4041 C4040 1.377 . S
C4041 C4042 1.379 . S
C4042 H4026 0.931 . S
C4042 C4036 1.383 . S
C4042 C4041 1.379 . S
H4043 C4037 0.959 . S
H4044 C4037 0.961 . S
H4045 C4037 0.960 . S
H4046 C4038 0.930 . S
H4047 C4039 0.929 . S
H4048 C4056 0.929 . S
H4049 C4058 0.930 . S
H4050 C4060 0.930 . S
H4051 C4063 0.929 . S
H4052 C4066 0.930 . S
H4053 C4068 0.960 . S
H4054 C4068 0.960 . S
H4055 C4068 0.960 . S
C4056 H4048 0.929 . S
C4056 C4057 1.377 . S
C4056 C4058 1.384 . S
C4057 C4056 1.377 . S
C4057 C4063 1.390 . S
C4058 H4049 0.930 . S
C4058 C4056 1.384 . S
C4058 C4059 1.372 . S
C4059 C4058 1.372 . S
C4059 C4060 1.400 . S
C4059 C4064 1.490 . S
C4060 H4050 0.930 . S
C4060 C4059 1.400 . S
C4060 C4063 1.386 . S
H4061 C4077 0.930 . S
H4062 C4078 0.931 . S
C4063 H4051 0.929 . S
C4063 C4057 1.390 . S
C4063 C4060 1.386 . S
C4064 C4059 1.490 . S
C4064 C4066 1.395 . S
C4064 C4067 1.403 . S
H4065 C4071 0.930 . S
C4066 H4052 0.930 . S
C4066 C4064 1.395 . S
C4066 C4069 1.403 . S
C4067 C4064 1.403 . S
C4067 C4068 1.524 . S
C4067 C4071 1.400 . S
C4068 H4053 0.960 . S
C4068 H4054 0.960 . S
C4068 H4055 0.960 . S
C4068 C4067 1.524 . S
C4069 C4066 1.403 . S
C4069 C4070 1.392 . S
C4069 C4073 1.495 . S
C4070 C4069 1.392 . S
C4070 C4071 1.385 . S
C4070 C4072 1.478 . S
C4071 H4065 0.930 . S
C4071 C4067 1.400 . S
C4071 C4070 1.385 . S
C4072 C4070 1.478 . S
C4072 C4074 1.381 . S
C4072 C4078 1.383 . S
C4073 C4069 1.495 . S
C4073 H4079 0.959 . S
C4073 H4080 0.961 . S
C4073 H4081 0.960 . S
C4074 C4072 1.381 . S
C4074 C4075 1.394 . S
C4074 H4082 0.930 . S
C4075 C4074 1.394 . S
C4075 C4076 1.383 . S
C4075 H4083 0.929 . S
C4076 C4075 1.383 . S
C4076 C4077 1.377 . S
C4077 H4061 0.930 . S
C4077 C4076 1.377 . S
C4077 C4078 1.379 . S
C4078 H4062 0.931 . S
C4078 C4072 1.383 . S
C4078 C4077 1.379 . S
H4079 C4073 0.959 . S
H4080 C4073 0.961 . S
H4081 C4073 0.960 . S
H4082 C4074 0.930 . S
H4083 C4075 0.929 . S
H4084 C4092 0.929 . S
H4085 C4094 0.930 . S
H4086 C4096 0.930 . S
H4087 C4099 0.929 . S
H4088 C4102 0.930 . S
H4089 C4104 0.960 . S
H4090 C4104 0.960 . S
H4091 C4104 0.960 . S
C4092 H4084 0.929 . S
C4092 C4093 1.377 . S
C4092 C4094 1.384 . S
C4093 C4092 1.377 . S
C4093 C4099 1.390 . S
C4094 H4085 0.930 . S
C4094 C4092 1.384 . S
C4094 C4095 1.372 . S
C4095 C4094 1.372 . S
C4095 C4096 1.400 . S
C4095 C4100 1.490 . S
C4096 H4086 0.930 . S
C4096 C4095 1.400 . S
C4096 C4099 1.386 . S
H4097 C4113 0.930 . S
H4098 C4114 0.931 . S
C4099 H4087 0.929 . S
C4099 C4093 1.390 . S
C4099 C4096 1.386 . S
C4100 C4095 1.490 . S
C4100 C4102 1.395 . S
C4100 C4103 1.403 . S
H4101 C4107 0.930 . S
C4102 H4088 0.930 . S
C4102 C4100 1.395 . S
C4102 C4105 1.403 . S
C4103 C4100 1.403 . S
C4103 C4104 1.524 . S
C4103 C4107 1.400 . S
C4104 H4089 0.960 . S
C4104 H4090 0.960 . S
C4104 H4091 0.960 . S
C4104 C4103 1.524 . S
C4105 C4102 1.403 . S
C4105 C4106 1.392 . S
C4105 C4109 1.495 . S
C4106 C4105 1.392 . S
C4106 C4107 1.385 . S
C4106 C4108 1.478 . S
C4107 H4101 0.930 . S
C4107 C4103 1.400 . S
C4107 C4106 1.385 . S
C4108 C4106 1.478 . S
C4108 C4110 1.381 . S
C4108 C4114 1.383 . S
C4109 C4105 1.495 . S
C4109 H4115 0.959 . S
C4109 H4116 0.961 . S
C4109 H4117 0.960 . S
C4110 C4108 1.381 . S
C4110 C4111 1.394 . S
C4110 H4118 0.930 . S
C4111 C4110 1.394 . S
C4111 C4112 1.383 . S
C4111 H4119 0.929 . S
C4112 C4111 1.383 . S
C4112 C4113 1.377 . S
C4113 H4097 0.930 . S
C4113 C4112 1.377 . S
C4113 C4114 1.379 . S
C4114 H4098 0.931 . S
C4114 C4108 1.383 . S
C4114 C4113 1.379 . S
H4115 C4109 0.959 . S
H4116 C4109 0.961 . S
H4117 C4109 0.960 . S
H4118 C4110 0.930 . S
H4119 C4111 0.929 . S
H4120 C4128 0.929 . S
H4121 C4130 0.930 . S
H4122 C4132 0.930 . S
H4123 C4135 0.929 . S
H4124 C4138 0.930 . S
H4125 C4140 0.960 . S
H4126 C4140 0.960 . S
H4127 C4140 0.960 . S
C4128 H4120 0.929 . S
C4128 C4129 1.377 . S
C4128 C4130 1.384 . S
C4129 C4128 1.377 . S
C4129 C4135 1.390 . S
C4130 H4121 0.930 . S
C4130 C4128 1.384 . S
C4130 C4131 1.372 . S
C4131 C4130 1.372 . S
C4131 C4132 1.400 . S
C4131 C4136 1.490 . S
C4132 H4122 0.930 . S
C4132 C4131 1.400 . S
C4132 C4135 1.386 . S
H4133 C4149 0.930 . S
H4134 C4150 0.931 . S
C4135 H4123 0.929 . S
C4135 C4129 1.390 . S
C4135 C4132 1.386 . S
C4136 C4131 1.490 . S
C4136 C4138 1.395 . S
C4136 C4139 1.403 . S
H4137 C4143 0.930 . S
C4138 H4124 0.930 . S
C4138 C4136 1.395 . S
C4138 C4141 1.403 . S
C4139 C4136 1.403 . S
C4139 C4140 1.524 . S
C4139 C4143 1.400 . S
C4140 H4125 0.960 . S
C4140 H4126 0.960 . S
C4140 H4127 0.960 . S
C4140 C4139 1.524 . S
C4141 C4138 1.403 . S
C4141 C4142 1.392 . S
C4141 C4145 1.495 . S
C4142 C4141 1.392 . S
C4142 C4143 1.385 . S
C4142 C4144 1.478 . S
C4143 H4137 0.930 . S
C4143 C4139 1.400 . S
C4143 C4142 1.385 . S
C4144 C4142 1.478 . S
C4144 C4146 1.381 . S
C4144 C4150 1.383 . S
C4145 C4141 1.495 . S
C4145 H4151 0.959 . S
C4145 H4152 0.961 . S
C4145 H4153 0.960 . S
C4146 C4144 1.381 . S
C4146 C4147 1.394 . S
C4146 H4154 0.930 . S
C4147 C4146 1.394 . S
C4147 C4148 1.383 . S
C4147 H4155 0.929 . S
C4148 C4147 1.383 . S
C4148 C4149 1.377 . S
C4149 H4133 0.930 . S
C4149 C4148 1.377 . S
C4149 C4150 1.379 . S
C4150 H4134 0.931 . S
C4150 C4144 1.383 . S
C4150 C4149 1.379 . S
H4151 C4145 0.959 . S
H4152 C4145 0.961 . S
H4153 C4145 0.960 . S
H4154 C4146 0.930 . S
H4155 C4147 0.929 . S
H4156 C4164 0.929 . S
H4157 C4166 0.930 . S
H4158 C4168 0.930 . S
H4159 C4171 0.929 . S
H4160 C4174 0.930 . S
H4161 C4176 0.960 . S
H4162 C4176 0.960 . S
H4163 C4176 0.960 . S
C4164 H4156 0.929 . S
C4164 C4165 1.377 . S
C4164 C4166 1.384 . S
C4165 C4164 1.377 . S
C4165 C4171 1.390 . S
C4166 H4157 0.930 . S
C4166 C4164 1.384 . S
C4166 C4167 1.372 . S
C4167 C4166 1.372 . S
C4167 C4168 1.400 . S
C4167 C4172 1.490 . S
C4168 H4158 0.930 . S
C4168 C4167 1.400 . S
C4168 C4171 1.386 . S
H4169 C4185 0.930 . S
H4170 C4186 0.931 . S
C4171 H4159 0.929 . S
C4171 C4165 1.390 . S
C4171 C4168 1.386 . S
C4172 C4167 1.490 . S
C4172 C4174 1.395 . S
C4172 C4175 1.403 . S
H4173 C4179 0.930 . S
C4174 H4160 0.930 . S
C4174 C4172 1.395 . S
C4174 C4177 1.403 . S
C4175 C4172 1.403 . S
C4175 C4176 1.524 . S
C4175 C4179 1.400 . S
C4176 H4161 0.960 . S
C4176 H4162 0.960 . S
C4176 H4163 0.960 . S
C4176 C4175 1.524 . S
C4177 C4174 1.403 . S
C4177 C4178 1.392 . S
C4177 C4181 1.495 . S
C4178 C4177 1.392 . S
C4178 C4179 1.385 . S
C4178 C4180 1.478 . S
C4179 H4173 0.930 . S
C4179 C4175 1.400 . S
C4179 C4178 1.385 . S
C4180 C4178 1.478 . S
C4180 C4182 1.381 . S
C4180 C4186 1.383 . S
C4181 C4177 1.495 . S
C4181 H4187 0.959 . S
C4181 H4188 0.961 . S
C4181 H4189 0.960 . S
C4182 C4180 1.381 . S
C4182 C4183 1.394 . S
C4182 H4190 0.930 . S
C4183 C4182 1.394 . S
C4183 C4184 1.383 . S
C4183 H4191 0.927 1_565 S
C4184 C4183 1.383 . S
C4184 C4185 1.377 . S
C4185 H4169 0.930 . S
C4185 C4184 1.377 . S
C4185 C4186 1.379 . S
C4186 H4170 0.931 . S
C4186 C4180 1.383 . S
C4186 C4185 1.379 . S
H4187 C4181 0.959 . S
H4188 C4181 0.961 . S
H4189 C4181 0.960 . S
H4190 C4182 0.930 . S
H4191 C4183 0.927 1_545 S
H4192 C4200 0.929 . S
H4193 C4202 0.930 . S
H4194 C4204 0.930 . S
H4195 C4207 0.929 . S
H4196 C4210 0.930 . S
H4197 C4212 0.960 . S
H4198 C4212 0.960 . S
H4199 C4212 0.960 . S
C4200 H4192 0.929 . S
C4200 C4201 1.377 . S
C4200 C4202 1.384 . S
C4201 C4200 1.377 . S
C4201 C4207 1.390 . S
C4202 H4193 0.930 . S
C4202 C4200 1.384 . S
C4202 C4203 1.372 . S
C4203 C4202 1.372 . S
C4203 C4204 1.400 . S
C4203 C4208 1.490 . S
C4204 H4194 0.930 . S
C4204 C4203 1.400 . S
C4204 C4207 1.386 . S
H4205 C4221 0.930 . S
H4206 C4222 0.931 . S
C4207 H4195 0.929 . S
C4207 C4201 1.390 . S
C4207 C4204 1.386 . S
C4208 C4203 1.490 . S
C4208 C4210 1.395 . S
C4208 C4211 1.403 . S
H4209 C4215 0.930 . S
C4210 H4196 0.930 . S
C4210 C4208 1.395 . S
C4210 C4213 1.403 . S
C4211 C4208 1.403 . S
C4211 C4212 1.524 . S
C4211 C4215 1.400 . S
C4212 H4197 0.960 . S
C4212 H4198 0.960 . S
C4212 H4199 0.960 . S
C4212 C4211 1.524 . S
C4213 C4210 1.403 . S
C4213 C4214 1.392 . S
C4213 C4217 1.495 . S
C4214 C4213 1.392 . S
C4214 C4215 1.385 . S
C4214 C4216 1.478 . S
C4215 H4209 0.930 . S
C4215 C4211 1.400 . S
C4215 C4214 1.385 . S
C4216 C4214 1.478 . S
C4216 C4218 1.381 . S
C4216 C4222 1.383 . S
C4217 C4213 1.495 . S
C4217 H4223 0.959 . S
C4217 H4224 0.961 . S
C4217 H4225 0.960 . S
C4218 C4216 1.381 . S
C4218 C4219 1.394 . S
C4218 H4226 0.930 . S
C4219 C4218 1.394 . S
C4219 C4220 1.383 . S
C4219 H4227 0.929 . S
C4220 C4219 1.383 . S
C4220 C4221 1.377 . S
C4221 H4205 0.930 . S
C4221 C4220 1.377 . S
C4221 C4222 1.379 . S
C4222 H4206 0.931 . S
C4222 C4216 1.383 . S
C4222 C4221 1.379 . S
H4223 C4217 0.959 . S
H4224 C4217 0.961 . S
H4225 C4217 0.960 . S
H4226 C4218 0.930 . S
H4227 C4219 0.929 . S
H4228 C4236 0.929 . S
H4229 C4238 0.930 . S
H4230 C4240 0.930 . S
H4231 C4243 0.929 . S
H4232 C4246 0.930 . S
H4233 C4248 0.960 . S
H4234 C4248 0.960 . S
H4235 C4248 0.960 1_554 S
C4236 H4228 0.929 . S
C4236 C4237 1.377 1_556 S
C4236 C4238 1.384 . S
C4237 C4236 1.377 1_554 S
C4237 C4243 1.390 . S
C4238 H4229 0.930 . S
C4238 C4236 1.384 . S
C4238 C4239 1.372 1_556 S
C4239 C4238 1.372 1_554 S
C4239 C4240 1.400 . S
C4239 C4244 1.490 . S
C4240 H4230 0.930 . S
C4240 C4239 1.400 . S
C4240 C4243 1.386 . S
H4241 C4257 0.930 . S
H4242 C4258 0.931 . S
C4243 H4231 0.929 . S
C4243 C4237 1.390 . S
C4243 C4240 1.386 . S
C4244 C4239 1.490 . S
C4244 C4246 1.395 . S
C4244 C4247 1.392 1_554 S
H4245 C4251 0.937 . S
C4246 H4232 0.930 . S
C4246 C4244 1.395 . S
C4246 C4249 1.403 . S
C4247 C4244 1.392 1_556 S
C4247 C4248 1.543 . S
C4247 C4251 1.397 . S
C4248 H4233 0.960 . S
C4248 H4234 0.960 . S
C4248 H4235 0.960 1_556 S
C4248 C4247 1.543 . S
C4249 C4246 1.403 . S
C4249 C4250 1.392 . S
C4249 C4253 1.495 . S
C4250 C4249 1.392 . S
C4250 C4251 1.375 1_554 S
C4250 C4252 1.478 . S
C4251 H4245 0.937 . S
C4251 C4247 1.397 . S
C4251 C4250 1.375 1_556 S
C4252 C4250 1.478 . S
C4252 C4254 1.381 1_554 S
C4252 C4258 1.383 . S
C4253 C4249 1.495 . S
C4253 H4259 0.959 . S
C4253 H4260 0.961 . S
C4253 H4261 0.960 . S
C4254 C4252 1.381 1_556 S
C4254 C4255 1.394 . S
C4254 H4262 0.930 . S
C4255 C4254 1.394 . S
C4255 C4256 1.383 1_556 S
C4255 H4263 0.929 . S
C4256 C4255 1.383 1_554 S
C4256 C4257 1.377 . S
C4257 H4241 0.930 . S
C4257 C4256 1.377 . S
C4257 C4258 1.379 . S
C4258 H4242 0.931 . S
C4258 C4252 1.383 . S
C4258 C4257 1.379 . S
H4259 C4253 0.959 . S
H4260 C4253 0.961 . S
H4261 C4253 0.960 . S
H4262 C4254 0.930 . S
H4263 C4255 0.929 . S
H4264 C4272 0.929 . S
H4265 C4274 0.930 . S
H4266 C4276 0.930 . S
H4267 C4279 0.929 . S
H4268 C4282 0.930 . S
H4269 C4284 0.960 . S
H4270 C4284 0.960 . S
H4271 C4284 0.960 . S
C4272 H4264 0.929 . S
C4272 C4273 1.377 . S
C4272 C4274 1.384 . S
C4273 C4272 1.377 . S
C4273 C4279 1.390 . S
C4274 H4265 0.930 . S
C4274 C4272 1.384 . S
C4274 C4275 1.372 . S
C4275 C4274 1.372 . S
C4275 C4276 1.400 . S
C4275 C4280 1.490 . S
C4276 H4266 0.930 . S
C4276 C4275 1.400 . S
C4276 C4279 1.386 . S
H4277 C4293 0.930 . S
H4278 C4294 0.931 . S
C4279 H4267 0.929 . S
C4279 C4273 1.390 . S
C4279 C4276 1.386 . S
C4280 C4275 1.490 . S
C4280 C4282 1.395 . S
C4280 C4283 1.403 . S
H4281 C4287 0.930 . S
C4282 H4268 0.930 . S
C4282 C4280 1.395 . S
C4282 C4285 1.403 . S
C4283 C4280 1.403 . S
C4283 C4284 1.524 . S
C4283 C4287 1.400 . S
C4284 H4269 0.960 . S
C4284 H4270 0.960 . S
C4284 H4271 0.960 . S
C4284 C4283 1.524 . S
C4285 C4282 1.403 . S
C4285 C4286 1.392 . S
C4285 C4289 1.495 . S
C4286 C4285 1.392 . S
C4286 C4287 1.385 . S
C4286 C4288 1.478 . S
C4287 H4281 0.930 . S
C4287 C4283 1.400 . S
C4287 C4286 1.385 . S
C4288 C4286 1.478 . S
C4288 C4290 1.381 . S
C4288 C4294 1.383 . S
C4289 C4285 1.495 . S
C4289 H4295 0.959 . S
C4289 H4296 0.961 . S
C4289 H4297 0.960 . S
C4290 C4288 1.381 . S
C4290 C4291 1.394 . S
C4290 H4298 0.930 . S
C4291 C4290 1.394 . S
C4291 C4292 1.383 . S
C4291 H4299 0.929 . S
C4292 C4291 1.383 . S
C4292 C4293 1.377 . S
C4293 H4277 0.930 . S
C4293 C4292 1.377 . S
C4293 C4294 1.379 . S
C4294 H4278 0.931 . S
C4294 C4288 1.383 . S
C4294 C4293 1.379 . S
H4295 C4289 0.959 . S
H4296 C4289 0.961 . S
H4297 C4289 0.960 . S
H4298 C4290 0.930 . S
H4299 C4291 0.929 . S
H4300 C4308 0.929 . S
H4301 C4310 0.930 . S
H4302 C4312 0.930 . S
H4303 C4315 0.929 . S
H4304 C4318 0.930 1_556 S
H4305 C4320 0.960 . S
H4306 C4320 0.960 . S
H4307 C4320 0.960 . S
C4308 H4300 0.929 . S
C4308 C4309 1.377 . S
C4308 C4310 1.384 . S
C4309 C4308 1.377 . S
C4309 C4315 1.390 . S
C4310 H4301 0.930 . S
C4310 C4308 1.384 . S
C4310 C4311 1.372 . S
C4311 C4310 1.372 . S
C4311 C4312 1.400 . S
C4311 C4316 1.490 . S
C4312 H4302 0.930 . S
C4312 C4311 1.400 . S
C4312 C4315 1.386 . S
H4313 C4329 0.930 . S
H4314 C4330 0.931 . S
C4315 H4303 0.929 . S
C4315 C4309 1.390 . S
C4315 C4312 1.386 . S
C4316 C4311 1.490 . S
C4316 C4318 1.395 . S
C4316 C4319 1.403 . S
H4317 C4323 0.930 . S
C4318 H4304 0.930 1_554 S
C4318 C4316 1.395 . S
C4318 C4321 1.403 1_554 S
C4319 C4316 1.403 . S
C4319 C4320 1.524 . S
C4319 C4323 1.400 . S
C4320 H4305 0.960 . S
C4320 H4306 0.960 . S
C4320 H4307 0.960 . S
C4320 C4319 1.524 . S
C4321 C4318 1.403 1_556 S
C4321 C4322 1.392 1_556 S
C4321 C4325 1.495 . S
C4322 C4321 1.392 1_554 S
C4322 C4323 1.385 . S
C4322 C4324 1.478 . S
C4323 H4317 0.930 . S
C4323 C4319 1.400 . S
C4323 C4322 1.385 . S
C4324 C4322 1.478 . S
C4324 C4326 1.381 . S
C4324 C4330 1.383 1_554 S
C4325 C4321 1.495 . S
C4325 H4331 0.959 . S
C4325 H4332 0.961 . S
C4325 H4333 0.960 . S
C4326 C4324 1.381 . S
C4326 C4327 1.394 . S
C4326 H4334 0.930 . S
C4327 C4326 1.394 . S
C4327 C4328 1.383 . S
C4327 H4335 0.929 . S
C4328 C4327 1.383 . S
C4328 C4329 1.377 1_554 S
C4329 H4313 0.930 . S
C4329 C4328 1.377 1_556 S
C4329 C4330 1.379 . S
C4330 H4314 0.931 . S
C4330 C4324 1.383 1_556 S
C4330 C4329 1.379 . S
H4331 C4325 0.959 . S
H4332 C4325 0.961 . S
H4333 C4325 0.960 . S
H4334 C4326 0.930 . S
H4335 C4327 0.929 . S
H4336 C4344 0.929 . S
H4337 C4346 0.930 . S
H4338 C4348 0.930 . S
H4339 C4351 0.929 . S
H4340 C4354 0.930 . S
H4341 C4356 0.960 . S
H4342 C4356 0.960 . S
H4343 C4356 0.960 . S
C4344 H4336 0.929 . S
C4344 C4345 1.377 . S
C4344 C4346 1.384 . S
C4345 C4344 1.377 . S
C4345 C4351 1.390 . S
C4346 H4337 0.930 . S
C4346 C4344 1.384 . S
C4346 C4347 1.372 . S
C4347 C4346 1.372 . S
C4347 C4348 1.400 . S
C4347 C4352 1.490 . S
C4348 H4338 0.930 . S
C4348 C4347 1.400 . S
C4348 C4351 1.386 . S
H4349 C4365 0.930 . S
H4350 C4366 0.931 . S
C4351 H4339 0.929 . S
C4351 C4345 1.390 . S
C4351 C4348 1.386 . S
C4352 C4347 1.490 . S
C4352 C4354 1.395 . S
C4352 C4355 1.403 . S
H4353 C4359 0.930 . S
C4354 H4340 0.930 . S
C4354 C4352 1.395 . S
C4354 C4357 1.403 . S
C4355 C4352 1.403 . S
C4355 C4356 1.524 . S
C4355 C4359 1.400 . S
C4356 H4341 0.960 . S
C4356 H4342 0.960 . S
C4356 H4343 0.960 . S
C4356 C4355 1.524 . S
C4357 C4354 1.403 . S
C4357 C4358 1.392 . S
C4357 C4361 1.495 . S
C4358 C4357 1.392 . S
C4358 C4359 1.385 . S
C4358 C4360 1.478 . S
C4359 H4353 0.930 . S
C4359 C4355 1.400 . S
C4359 C4358 1.385 . S
C4360 C4358 1.478 . S
C4360 C4362 1.381 . S
C4360 C4366 1.383 . S
C4361 C4357 1.495 . S
C4361 H4367 0.959 . S
C4361 H4368 0.961 . S
C4361 H4369 0.960 . S
C4362 C4360 1.381 . S
C4362 C4363 1.394 . S
C4362 H4370 0.930 . S
C4363 C4362 1.394 . S
C4363 C4364 1.383 . S
C4363 H4371 0.929 . S
C4364 C4363 1.383 . S
C4364 C4365 1.377 . S
C4365 H4349 0.930 . S
C4365 C4364 1.377 . S
C4365 C4366 1.379 . S
C4366 H4350 0.931 . S
C4366 C4360 1.383 . S
C4366 C4365 1.379 . S
H4367 C4361 0.959 . S
H4368 C4361 0.961 . S
H4369 C4361 0.960 . S
H4370 C4362 0.930 . S
H4371 C4363 0.929 . S
H4372 C4380 0.929 . S
H4373 C4382 0.930 . S
H4374 C4384 0.930 . S
H4375 C4387 0.929 . S
H4376 C4390 0.930 . S
H4377 C4392 0.960 . S
H4378 C4392 0.960 . S
H4379 C4392 0.960 . S
C4380 H4372 0.929 . S
C4380 C4381 1.377 . S
C4380 C4382 1.384 . S
C4381 C4380 1.377 . S
C4381 C4387 1.390 . S
C4382 H4373 0.930 . S
C4382 C4380 1.384 . S
C4382 C4383 1.372 . S
C4383 C4382 1.372 . S
C4383 C4384 1.400 . S
C4383 C4388 1.490 . S
C4384 H4374 0.930 . S
C4384 C4383 1.400 . S
C4384 C4387 1.386 . S
H4385 C4401 0.930 . S
H4386 C4402 0.931 . S
C4387 H4375 0.929 . S
C4387 C4381 1.390 . S
C4387 C4384 1.386 . S
C4388 C4383 1.490 . S
C4388 C4390 1.395 . S
C4388 C4391 1.403 . S
H4389 C4395 0.930 . S
C4390 H4376 0.930 . S
C4390 C4388 1.395 . S
C4390 C4393 1.403 . S
C4391 C4388 1.403 . S
C4391 C4392 1.524 . S
C4391 C4395 1.400 . S
C4392 H4377 0.960 . S
C4392 H4378 0.960 . S
C4392 H4379 0.960 . S
C4392 C4391 1.524 . S
C4393 C4390 1.403 . S
C4393 C4394 1.392 . S
C4393 C4397 1.495 . S
C4394 C4393 1.392 . S
C4394 C4395 1.385 . S
C4394 C4396 1.478 . S
C4395 H4389 0.930 . S
C4395 C4391 1.400 . S
C4395 C4394 1.385 . S
C4396 C4394 1.478 . S
C4396 C4398 1.381 . S
C4396 C4402 1.383 . S
C4397 C4393 1.495 . S
C4397 H4403 0.959 . S
C4397 H4404 0.961 . S
C4397 H4405 0.960 . S
C4398 C4396 1.381 . S
C4398 C4399 1.394 . S
C4398 H4406 0.930 . S
C4399 C4398 1.394 . S
C4399 C4400 1.383 . S
C4399 H4407 0.929 . S
C4400 C4399 1.383 . S
C4400 C4401 1.377 . S
C4401 H4385 0.930 . S
C4401 C4400 1.377 . S
C4401 C4402 1.379 . S
C4402 H4386 0.931 . S
C4402 C4396 1.383 . S
C4402 C4401 1.379 . S
H4403 C4397 0.959 . S
H4404 C4397 0.961 . S
H4405 C4397 0.960 . S
H4406 C4398 0.930 . S
H4407 C4399 0.929 . S
C961 C101 2.114 . S
C980 C314 2.068 . S
C997 C57 1.979 . S
C1016 C371 2.011 . S
C1033 C70 0.779 . S
C1052 C394 0.800 . S
C1088 C448 1.378 . S
C1069 C82 1.387 . S
C1105 C23 1.279 . S
C1124 C488 1.236 . S
C1160 C519 0.185 . S
C1141 C29 0.166 . S
C1196 C571 1.027 . S
C1177 C49 1.001 . S
C1213 C10 1.714 . S
C1232 C594 1.669 . S
C1268 C331 2.319 . S
C1249 C218 2.328 . S
C1285 C226 0.333 . S
C1304 C368 0.476 . S
C1340 C411 1.304 . S
C1321 C251 1.292 . S
C1376 C434 0.990 . S
C1357 C159 1.004 . S
C1393 C211 1.671 . S
C1412 C474 1.607 . S
C1448 C522 1.448 . S
C1429 C225 1.446 . S
C1484 C568 0.448 . S
C1465 C252 0.204 . S
C1520 C611 1.905 . S
C1501 C166 1.914 . S
C1556 C328 1.441 . S
C1537 C147 1.475 . S
C1573 C263 1.896 . S
C1592 C651 1.906 . S
C1628 C683 2.536 . S
C1609 C309 2.578 . S
C1664 C714 0.462 . S
C1645 C291 0.297 . S
C1681 C108 1.395 . S
C1700 C608 1.345 . S
C1717 C121 1.543 . S
C1736 C408 1.528 . S
C1753 C302 2.203 . S
C1772 C771 2.206 . S
C1808 C794 0.498 . S
C1789 C276 0.334 . S
C1844 C323 2.313 1_565 S
C1825 C55 2.337 . S
C1880 C802 2.356 . S
C1861 C96 2.363 . S
C1897 C88 1.286 . S
C1916 C403 1.270 . S
C1933 C75 1.656 . S
C1952 C759 1.644 . S
C1988 C479 1.315 . S
C1969 C4 1.350 . S
C2005 C44 0.475 . S
C2024 C688 0.456 . S
C2060 C562 1.496 1_565 S
C2041 C31 1.510 . S
C2096 C843 1.834 . S
C2077 C18 1.891 . S
C2132 C322 2.623 . S
C2113 C133 2.643 . S
C2168 C799 0.509 . S
C2149 C296 0.457 . S
C2185 C107 1.636 . S
C2204 C402 1.603 . S
C2221 C264 1.456 . S
C2240 C763 1.454 . S
C2257 C140 1.968 . S
C2276 C483 1.943 . S
C2312 C691 1.628 . S
C2293 C289 1.657 . S
C2329 C114 0.357 . S
C2348 C559 0.399 . S
C2365 C265 2.220 . S
C2384 C842 2.182 . S
C2401 C179 1.598 . S
C2420 C319 1.584 . S
C2437 C161 2.247 . S
C2456 C642 2.240 . S
C2473 C244 2.871 . S
C2492 C514 2.826 . S
C2509 C224 0.947 . S
C2528 C723 0.922 . S
C2564 C839 1.386 . S
C2545 C257 1.397 . S
C2581 C199 1.675 . S
C2600 C399 1.658 . S
C2636 C442 2.520 . S
C2617 C237 2.556 . S
C2672 C363 0.775 . S
C2653 C185 0.735 . S
C2689 C69 2.116 . S
C2708 C874 2.043 . S
C2744 C811 2.006 . S
C2725 C83 1.976 . S
C2761 C94 0.781 . S
C2780 C914 0.820 . S
C2797 C56 1.385 . S
C2816 C768 1.365 . S
C2833 C42 1.295 . S
C2852 C648 1.277 . S
C2888 C679 0.355 . S
C2869 C3 0.181 . S
C2924 C731 1.045 . S
C2905 C16 1.004 . S
C2960 C834 1.657 . S
C2941 C36 1.713 . S
C2996 C891 2.330 . S
C2977 C238 2.327 . S
C3013 C174 0.343 . S
C3032 C808 0.522 . S
C3068 C931 1.303 . S
C3049 C186 1.291 . S
C3104 C754 0.964 . S
C3085 C198 1.003 . S
C3140 C634 1.649 . S
C3121 C239 1.670 . S
C3157 C173 1.446 . S
C3176 C682 1.429 . S
C3212 C728 0.311 . S
C3193 C187 0.181 . S
C3229 C205 1.915 . S
C3248 C851 1.906 . S
C3284 C888 1.424 . S
C3265 C290 1.471 . S
C3301 C122 1.898 . S
C3320 C491 1.917 . S
C3356 C523 2.533 . S
C3337 C134 2.586 . S
C3392 C554 0.460 . S
C3373 C148 0.297 . S
C3428 C848 1.355 . S
C3409 C283 1.397 . S
C3445 C270 1.540 . S
C3464 C928 1.508 . S
C3500 C451 2.192 . S
C3481 C135 2.205 . S
C3536 C354 0.377 . S
C3517 C109 0.349 . S
C3553 C81 2.334 . S
C3572 C883 2.292 . S
C3608 C362 2.349 . S
C3589 C68 2.362 . S
C3625 C62 1.289 . S
C3644 C923 1.241 . S
C3661 C95 1.656 . S
C3680 C439 1.637 . S
C3697 C30 1.354 . S
C3716 C639 1.320 . S
C3752 C528 0.443 . S
C3733 C17 0.453 . S
C3769 C5 1.515 . S
C3788 C722 1.510 . S
C3805 C43 1.878 . S
C3824 C603 1.823 . S
C3860 C882 2.616 . S
C3841 C304 2.643 . S
C3877 C153 0.462 . S
C3896 C359 0.473 . S
C3932 C922 1.619 . S
C3913 C278 1.637 . S
C3949 C127 1.458 . S
C3968 C443 1.422 . S
C3985 C303 1.964 . S
C4004 C643 1.946 . S
C4040 C531 1.622 . S
C4021 C146 1.654 . S
C4057 C277 0.354 . S
C4076 C719 0.424 . S
C4112 C602 2.199 . S
C4093 C120 2.216 . S
C4148 C879 1.554 . S
C4129 C231 1.597 . S
C4184 C482 2.239 1_665 S
C4165 C200 2.246 . S
C4201 C212 2.876 . S
C4220 C674 2.828 . S
C4256 C563 0.947 . S
C4237 C172 0.949 . S
C4273 C192 1.395 . S
C4292 C599 1.371 . S
C4309 C160 1.678 . S
C4328 C919 1.670 . S
C4364 C762 2.519 . S
C4345 C213 2.558 1_565 S
C4400 C803 0.703 . S
C4381 C250 0.734 . S
