# Generated by pormake.
# Topology rtl, (3,6)-cn, num edge types: 1
# Building blocks:
#     Node 0, Type 0, BuildingBlock: WUSLED_clean_sbu_0, # of connection points: 3
#     Node 1, Type 0, BuildingBlock: WUSLED_clean_sbu_0, # of connection points: 3
#     Node 2, Type 0, BuildingBlock: WUSLED_clean_sbu_0, # of connection points: 3
#     Node 3, Type 0, BuildingBlock: WUSLED_clean_sbu_0, # of connection points: 3
#     Node 4, Type 1, BuildingBlock: KUMJIN_clean_sbu_1, # of connection points: 6
#     Node 5, Type 1, BuildingBlock: KUMJIN_clean_sbu_1, # of connection points: 6
#     Edge 6, Type (0, 1), BuildingBlock: EZIPEK_clean_linker_0, # of connection points: 2
#     Edge 7, Type (0, 1), BuildingBlock: EZIPEK_clean_linker_0, # of connection points: 2
#     Edge 8, Type (0, 1), BuildingBlock: EZIPEK_clean_linker_0, # of connection points: 2
#     Edge 9, Type (0, 1), BuildingBlock: EZIPEK_clean_linker_0, # of connection points: 2
#     Edge 10, Type (0, 1), BuildingBlock: EZIPEK_clean_linker_0, # of connection points: 2
#     Edge 11, Type (0, 1), BuildingBlock: EZIPEK_clean_linker_0, # of connection points: 2
#     Edge 12, Type (0, 1), BuildingBlock: EZIPEK_clean_linker_0, # of connection points: 2
#     Edge 13, Type (0, 1), BuildingBlock: EZIPEK_clean_linker_0, # of connection points: 2
#     Edge 14, Type (0, 1), BuildingBlock: EZIPEK_clean_linker_0, # of connection points: 2
#     Edge 15, Type (0, 1), BuildingBlock: EZIPEK_clean_linker_0, # of connection points: 2
#     Edge 16, Type (0, 1), BuildingBlock: EZIPEK_clean_linker_0, # of connection points: 2
#     Edge 17, Type (0, 1), BuildingBlock: EZIPEK_clean_linker_0, # of connection points: 2
# Relax obj value: 0.017
# Max RMSD: 0.116
# Mean RMSD: 0.066
data_MOF--net-rtl--node1-WUSLED_clean_sbu_0--node2-KUMJIN_clean_sbu_1--edge1-EZIPEK_clean_linker_0
_symmetry_space_group_name_H-M    P1
_symmetry_Int_Tables_number       1
_symmetry_cell_setting            triclinic
loop_
_symmetry_equiv_pos_as_xyz
'x, y, z'
_cell_length_a     33.75241
_cell_length_b     34.351615
_cell_length_c     29.428396
_cell_angle_alpha  79.07072
_cell_angle_beta   99.284286
_cell_angle_gamma 90.557722
loop_
_atom_site_label
_atom_site_type_symbol
_atom_site_fract_x
_atom_site_fract_y
_atom_site_fract_z
_atom_type_partial_charge
C0 C 0.208 0.84003 0.15135 0.0
C1 C 0.1684 0.85501 0.14431 0.0
C2 C 0.17694 0.86369 0.22558 0.0
C3 C 0.15295 0.86675 0.18127 0.0
C4 C 0.21669 0.8495 0.23218 0.0
C5 C 0.23205 0.83775 0.19538 0.0
U6 U 0.21334 0.83429 0.0223 0.0
O7 O 0.26659 0.82922 0.98918 0.0
O8 O 0.22274 0.78167 0.99238 0.0
C9 C 0.25813 0.7931 0.98233 0.0
C10 C 0.22461 0.82512 0.1143 0.0
C11 C 0.29122 0.76285 0.99671 0.0
C12 C 0.31408 0.6941 1.00726 0.0
C13 C 0.28304 0.72271 0.99587 0.0
C14 C 0.36241 0.74508 1.01998 0.0
C15 C 0.35395 0.70512 1.01923 0.0
C16 C 0.33135 0.77373 1.00871 0.0
C17 C 0.14146 0.89688 0.92043 0.0
C18 C 0.14779 0.9059 0.83777 0.0
C19 C 0.08732 0.92841 0.86048 0.0
C20 C 0.10319 0.9149 0.90767 0.0
C21 C 0.10946 0.9241 0.82521 0.0
C22 C 0.16368 0.89221 0.88519 0.0
C23 C 0.15743 0.88364 0.97063 0.0
O24 O 0.20109 0.80257 0.09067 0.0
O25 O 0.24443 0.85065 0.08768 0.0
O26 O 0.19412 0.89445 0.98484 0.0
O27 O 0.15042 0.84667 0.98855 0.0
H28 H 0.14935 0.8571 0.11055 0.0
H29 H 0.12221 0.8777 0.17557 0.0
H30 H 0.23562 0.84696 0.26608 0.0
H31 H 0.26263 0.82627 0.20153 0.0
H32 H 0.30705 0.66336 1.00654 0.0
H33 H 0.2526 0.71342 0.98608 0.0
H34 H 0.39305 0.75404 0.02923 0.0
H35 H 0.3389 0.80438 1.00914 0.0
H36 H 0.16529 0.90245 0.81095 0.0
H37 H 0.05778 0.94249 0.85141 0.0
H38 H 0.08562 0.91874 0.93431 0.0
H39 H 0.19327 0.87825 0.89438 0.0
C40 C 0.66042 0.68752 0.77278 0.0
C41 C 0.65533 0.64639 0.7766 0.0
C42 C 0.62013 0.64469 0.84303 0.0
C43 C 0.63549 0.62515 0.81157 0.0
C44 C 0.62451 0.68585 0.8387 0.0
C45 C 0.64456 0.70705 0.80392 0.0
U46 U 0.69242 0.70891 0.65091 0.0
O47 O 0.70119 0.76574 0.6044 0.0
O48 O 0.75155 0.7231 0.63039 0.0
C49 C 0.7396 0.75835 0.606 0.0
C50 C 0.68302 0.71033 0.73765 0.0
C51 C 0.76762 0.79176 0.60903 0.0
C52 C 0.83373 0.81679 0.63503 0.0
C53 C 0.8049 0.78713 0.63917 0.0
C54 C 0.78813 0.85682 0.57196 0.0
C55 C 0.82588 0.85144 0.60064 0.0
C56 C 0.75934 0.82729 0.57609 0.0
C57 C 0.65029 0.64493 0.56086 0.0
C58 C 0.67753 0.64085 0.49014 0.0
C59 C 0.61375 0.611 0.50206 0.0
C60 C 0.61678 0.6238 0.54488 0.0
C61 C 0.64431 0.61904 0.47463 0.0
C62 C 0.68048 0.6538 0.53294 0.0
C63 C 0.6536 0.65638 0.60716 0.0
O64 O 0.71277 0.69127 0.7269 0.0
O65 O 0.66141 0.73253 0.70086 0.0
O66 O 0.63823 0.69131 0.60743 0.0
O67 O 0.68852 0.64896 0.63464 0.0
H68 H 0.66706 0.63059 0.75293 0.0
H69 H 0.63239 0.59341 0.81437 0.0
H70 H 0.61291 0.70142 0.86268 0.0
H71 H 0.64809 0.73871 0.80166 0.0
H72 H 0.86277 0.81202 0.65735 0.0
H73 H 0.81245 0.76002 0.66463 0.0
H74 H 0.78154 0.88325 0.54508 0.0
H75 H 0.73118 0.83148 0.55198 0.0
H76 H 0.70139 0.64734 0.46941 0.0
H77 H 0.58792 0.59424 0.49065 0.0
H78 H 0.59316 0.61674 0.56586 0.0
H79 H 0.70652 0.67022 0.54454 0.0
C80 C 0.82933 0.15266 0.21033 0.0
C81 C 0.86143 0.12804 0.20741 0.0
C82 C 0.87445 0.10861 0.29253 0.0
C83 C 0.88385 0.10609 0.24832 0.0
C84 C 0.8418 0.13257 0.29518 0.0
C85 C 0.81942 0.15443 0.25437 0.0
U86 U 0.80578 0.19148 0.0771 0.0
O87 O 0.74708 0.20858 0.03278 0.0
O88 O 0.79385 0.2529 0.0394 0.0
C89 C 0.7561 0.24629 0.02395 0.0
C90 C 0.80687 0.17796 0.16829 0.0
C91 C 0.72632 0.27441 0.03198 0.0
C92 C 0.70226 0.31629 0.08049 0.0
C93 C 0.72985 0.28813 0.07454 0.0
C94 C 0.66671 0.31643 1.00204 0.0
C95 C 0.67062 0.33079 0.04413 0.0
C96 C 0.69436 0.28851 0.99602 0.0
C97 C 0.86679 0.1488 0.99551 0.0
C98 C 0.85101 0.14569 0.91245 0.0
C99 C 0.92008 0.13899 0.9518 0.0
C100 C 0.90761 0.14326 0.99367 0.0
C101 C 0.89195 0.14009 0.91088 0.0
C102 C 0.83849 0.15012 0.95447 0.0
C103 C 0.855 0.15155 0.04113 0.0
O104 O 0.82767 0.20584 0.14635 0.0
O105 O 0.78298 0.15964 0.13967 0.0
O106 O 0.81902 0.13937 0.04813 0.0
O107 O 0.86509 0.18405 0.05721 0.0
H108 H 0.86951 0.12639 0.17365 0.0
H109 H 0.90903 0.08781 0.24565 0.0
H110 H 0.83413 0.13491 0.32888 0.0
H111 H 0.79476 0.17331 0.25725 0.0
H112 H 0.70582 0.3271 0.11314 0.0
H113 H 0.7542 0.27749 0.10287 0.0
H114 H 0.64255 0.32733 0.97357 0.0
H115 H 0.69108 0.27828 0.96299 0.0
H116 H 0.82887 0.14661 0.8812 0.0
H117 H 0.95176 0.13469 0.9513 0.0
H118 H 0.92993 0.14196 0.02487 0.0
H119 H 0.80681 0.15432 0.95494 0.0
C120 C 0.35565 0.34222 0.34284 0.0
C121 C 0.39059 0.36304 0.35506 0.0
C122 C 0.39683 0.38355 0.27252 0.0
C123 C 0.41106 0.38349 0.32015 0.0
C124 C 0.36203 0.36257 0.26039 0.0
C125 C 0.34166 0.34206 0.29527 0.0
U126 U 0.3325 0.31889 0.46881 0.0
O127 O 0.27441 0.31104 0.49458 0.0
O128 O 0.31939 0.26249 0.51274 0.0
C129 C 0.28313 0.27421 0.51596 0.0
C130 C 0.33311 0.32106 0.37895 0.0
C131 C 0.25053 0.24504 0.51356 0.0
C132 C 0.22511 0.18084 0.50002 0.0
C133 C 0.25425 0.21016 0.49595 0.0
C134 C 0.18762 0.22102 0.53834 0.0
C135 C 0.19187 0.18581 0.52185 0.0
C136 C 0.21672 0.25028 0.5343 0.0
C137 C 0.39066 0.3692 0.5633 0.0
C138 C 0.37394 0.36014 0.64186 0.0
C139 C 0.43122 0.39869 0.62334 0.0
C140 C 0.42298 0.39227 0.57722 0.0
C141 C 0.40848 0.38072 0.65799 0.0
C142 C 0.36579 0.35367 0.59571 0.0
C143 C 0.38244 0.36273 0.51461 0.0
O144 O 0.35375 0.29478 0.41255 0.0
O145 O 0.30884 0.3432 0.39461 0.0
O146 O 0.34727 0.37583 0.4907 0.0
O147 O 0.39198 0.32722 0.50877 0.0
H148 H 0.40184 0.3637 0.39153 0.0
H149 H 0.4377 0.3997 0.33021 0.0
H150 H 0.35046 0.36241 0.22388 0.0
H151 H 0.31474 0.32627 0.28505 0.0
H152 H 0.22882 0.15393 0.48687 0.0
H153 H 0.28007 0.20511 0.48007 0.0
H154 H 0.16215 0.2255 0.55508 0.0
H155 H 0.21336 0.27667 0.54862 0.0
H156 H 0.35177 0.34982 0.66363 0.0
H157 H 0.45485 0.41907 0.63048 0.0
H158 H 0.44159 0.406 0.55211 0.0
H159 H 0.33955 0.3371 0.58507 0.0
Eu160 Eu 0.04206 0.97365 0.52791 0.0
C161 C 0.93456 0.12372 0.48269 0.0
N162 N 0.97208 0.11732 0.50826 0.0
C163 C 0.9958 0.17482 0.46135 0.0
C164 C 0.92663 0.15564 0.44429 0.0
C165 C 1.00227 0.14292 0.49921 0.0
C166 C 0.95794 0.181 0.43349 0.0
C167 C 0.86479 0.10473 0.46937 0.0
C168 C 0.90414 0.0979 0.49461 0.0
C169 C 0.857 0.13613 0.43071 0.0
C170 C 0.88787 0.16133 0.41799 0.0
Eu171 Eu 0.98061 0.06074 0.56878 0.0
N172 N 0.91259 0.06703 0.5316 0.0
C173 C 0.83414 0.08031 0.48433 0.0
C174 C 0.88212 0.04544 0.54866 0.0
C175 C 0.84273 0.05108 0.52469 0.0
H176 H 0.03138 0.13864 0.52102 0.0
H177 H 0.81892 0.03316 0.5377 0.0
H178 H 1.00439 0.88398 0.55988 0.0
H179 H 0.19751 0.0206 0.57058 0.0
H180 H 0.8877 0.02411 0.58114 0.0
H181 H 0.80356 0.08464 0.46588 0.0
H182 H 0.13123 0.02056 0.52163 0.0
H183 H 0.01999 0.19465 0.45372 0.0
H184 H 0.82701 0.14152 0.41078 0.0
H185 H 0.8813 0.18549 0.38814 0.0
H186 H 0.02211 0.8229 0.61928 0.0
H187 H 0.95305 0.20571 0.4041 0.0
H188 H 0.21573 0.96844 0.64137 0.0
N189 N 0.05842 0.91288 0.58066 0.0
C190 C 0.09439 0.91034 0.60955 0.0
C191 C 0.04267 0.8473 0.61696 0.0
C192 C 0.10547 0.87631 0.64435 0.0
C193 C 0.03275 0.88188 0.58337 0.0
C194 C 0.07902 0.84463 0.64788 0.0
N195 N 0.10917 0.97339 0.56834 0.0
C196 C 0.1375 0.99954 0.55419 0.0
C197 C 0.15862 0.93936 0.6316 0.0
C198 C 0.12025 0.94183 0.6037 0.0
C199 C 0.18594 0.96923 0.62087 0.0
C200 C 0.17572 0.99881 0.5811 0.0
H201 H 0.08647 0.81793 0.67412 0.0
H202 H 0.15143 0.8492 0.70154 0.0
H203 H 0.19823 0.90423 0.69 0.0
O204 O 0.07149 0.97895 0.46594 0.0
O205 O 0.03414 0.96365 0.60449 0.0
O206 O 0.03404 0.02675 0.61578 0.0
O207 O 0.04141 0.92523 0.48895 0.0
O208 O 0.06123 0.03859 0.51448 0.0
O209 O 0.04765 0.0701 0.5731 0.0
O210 O 0.95596 0.06133 0.63356 0.0
O211 O 0.98761 0.06183 0.49349 0.0
O212 O 0.98444 0.99882 0.47981 0.0
O213 O 0.97652 0.11541 0.59512 0.0
O214 O 0.95197 0.99969 0.57717 0.0
O215 O 0.97891 0.95554 0.53805 0.0
C216 C 0.03515 0.98871 0.63314 0.0
C217 C 0.09758 0.91973 0.45179 0.0
C218 C 0.13419 0.89399 0.39827 0.0
C219 C 0.16193 0.87524 0.43678 0.0
C220 C 0.12574 0.90088 0.4898 0.0
C221 C 0.15772 0.87876 0.48226 0.0
C222 C 0.10196 0.91635 0.40589 0.0
C223 C 0.07051 0.06439 0.54238 0.0
C224 C 0.06376 0.94303 0.45968 0.0
C225 C 0.14259 0.87487 0.67415 0.0
C226 C 0.16914 0.90631 0.66776 0.0
C227 C 0.97212 0.03604 0.46866 0.0
C228 C 0.97837 0.112 0.6766 0.0
C229 C 0.96868 0.12606 0.75252 0.0
C230 C 1.00785 0.14039 0.75884 0.0
C231 C 0.01734 0.12704 0.68342 0.0
C232 C 0.95406 0.1116 0.71139 0.0
C233 C 0.03202 0.14075 0.72452 0.0
C234 C 0.95185 0.96584 0.56176 0.0
C235 C 0.96195 0.09903 0.63229 0.0
H236 H 0.18689 0.85791 0.43153 0.0
H237 H 0.12298 0.90317 0.52527 0.0
H238 H 0.17929 0.86426 0.51178 0.0
H239 H 0.08041 0.93086 0.37626 0.0
H240 H 0.01956 0.15159 0.79028 0.0
H241 H 0.03656 0.12795 0.65711 0.0
H242 H 0.92369 0.10081 0.70619 0.0
H243 H 0.06216 0.152 0.72961 0.0
Eu244 Eu 0.46765 0.49318 1.01081 0.0
C245 C 0.64207 0.55022 0.09595 0.0
N246 N 0.62058 0.5167 0.10552 0.0
C247 C 0.68007 0.47656 0.11373 0.0
C248 C 0.68334 0.54787 0.09325 0.0
C249 C 0.63938 0.48027 0.11647 0.0
C250 C 0.70208 0.51046 0.10167 0.0
C251 C 0.64415 0.6222 0.07714 0.0
C252 C 0.62278 0.58712 0.08827 0.0
C253 C 0.68505 0.6198 0.07387 0.0
C254 C 0.7046 0.58278 0.082 0.0
Eu255 Eu 0.55252 0.52732 0.11093 0.0
N256 N 0.58301 0.58876 0.09101 0.0
C257 C 0.62378 0.65875 0.06969 0.0
C258 C 0.56326 0.62428 0.08527 0.0
C259 C 0.58322 0.65978 0.07402 0.0
H260 H 0.62366 0.45393 0.12892 0.0
H261 H 0.56737 0.6879 0.06892 0.0
H262 H 0.39379 0.5617 1.0046 0.0
H263 H 0.464 0.33197 0.05489 0.0
H264 H 0.53212 0.62532 0.08931 0.0
H265 H 0.63916 0.68633 0.06101 0.0
H266 H 0.49194 0.39702 0.02492 0.0
H267 H 0.6946 0.44756 0.12173 0.0
H268 H 0.7019 0.64645 0.06522 0.0
H269 H 0.73622 0.58147 0.0795 0.0
H270 H 0.3271 0.56383 0.02732 0.0
H271 H 0.73367 0.50746 0.09978 0.0
H272 H 0.39841 0.32912 0.08263 0.0
N273 N 0.40346 0.49978 0.03138 0.0
C274 C 0.38605 0.46501 0.04754 0.0
C275 C 0.34361 0.53593 0.03392 0.0
C276 C 0.34735 0.4648 0.05995 0.0
C277 C 0.38201 0.53472 0.02213 0.0
C278 C 0.32641 0.50092 0.05352 0.0
N279 N 0.44327 0.43002 0.03737 0.0
C280 C 0.46344 0.39581 0.03735 0.0
C281 C 0.38927 0.39291 0.06762 0.0
C282 C 0.40641 0.42925 0.05059 0.0
C283 C 0.41056 0.35763 0.06967 0.0
C284 C 0.44764 0.3591 0.05408 0.0
H285 H 0.29662 0.50197 0.06255 0.0
H286 H 0.30106 0.42806 0.088 0.0
H287 H 0.33793 0.36523 0.09521 0.0
O288 O 0.45744 0.46239 0.95042 0.0
O289 O 0.47687 0.45906 0.08696 0.0
O290 O 0.49165 0.50802 0.12903 0.0
O291 O 0.42767 0.51932 0.94678 0.0
O292 O 0.52896 0.46617 1.01539 0.0
O293 O 0.55531 0.46513 0.09317 0.0
O294 O 0.56117 0.55728 0.171 0.0
O295 O 0.55517 0.55947 0.03567 0.0
O296 O 0.52074 0.52371 0.98211 0.0
O297 O 0.57837 0.49555 0.18113 0.0
O298 O 0.4939 0.56195 0.0968 0.0
O299 O 0.46607 0.55761 1.02054 0.0
C300 C 0.4755 0.47397 0.12459 0.0
C301 C 0.41242 0.49014 0.87713 0.0
C302 C 0.4023 0.46238 0.80562 0.0
C303 C 0.37363 0.49235 0.78458 0.0
C304 C 0.38357 0.51994 0.85521 0.0
C305 C 0.36431 0.52092 0.80933 0.0
C306 C 0.42159 0.46113 0.8521 0.0
C307 C 0.55653 0.45457 0.05239 0.0
C308 C 0.43299 0.49035 0.9255 0.0
C309 C 0.33052 0.42867 0.07774 0.0
C310 C 0.35148 0.39286 0.08175 0.0
C311 C 0.54537 0.55173 0.99297 0.0
C312 C 0.61425 0.53434 0.23285 0.0
C313 C 0.6443 0.55788 0.30376 0.0
C314 C 0.6826 0.54969 0.29473 0.0
C315 C 0.65288 0.5262 0.22464 0.0
C316 C 0.61011 0.55031 0.2726 0.0
C317 C 0.68679 0.53399 0.25532 0.0
C318 C 0.46887 0.57447 0.0577 0.0
C319 C 0.578 0.52669 0.20051 0.0
H320 H 0.35851 0.49362 0.74892 0.0
H321 H 0.37584 0.54264 0.87348 0.0
H322 H 0.34217 0.54401 0.79283 0.0
H323 H 0.44381 0.43797 0.8683 0.0
H324 H 0.70921 0.55527 0.31839 0.0
H325 H 0.65702 0.51366 0.1948 0.0
H326 H 0.58046 0.55657 0.27951 0.0
H327 H 0.71644 0.52762 0.24864 0.0
C328 C 0.13529 0.14658 0.48783 0.0
C329 C 0.16167 0.15388 0.52762 0.0
C330 C 0.13115 0.09966 0.57714 0.0
C331 C 0.10574 0.09135 0.53658 0.0
N332 N 0.09893 0.09689 0.45201 0.0
N333 N 0.19021 0.13295 0.60904 0.0
C334 C 0.11207 0.11179 0.49145 0.0
C335 C 0.16109 0.12922 0.5721 0.0
N336 N 0.132 0.17309 0.44636 0.0
N337 N 0.12761 0.07835 0.62046 0.0
H338 H 0.21245 0.15419 0.60662 0.0
H339 H 0.19431 0.11331 0.64109 0.0
H340 H 0.11122 0.05242 0.62519 0.0
H341 H 0.14053 0.08654 0.65175 0.0
H342 H 0.10986 0.17137 0.41772 0.0
H343 H 0.14862 0.19893 0.44216 0.0
H344 H 0.10491 0.11003 0.41896 0.0
H345 H 0.08907 0.06815 0.45284 0.0
C346 C 0.39303 0.65017 0.07713 0.0
C347 C 0.38675 0.67446 0.03182 0.0
C348 C 0.44359 0.64116 1.01188 0.0
C349 C 0.44485 0.6119 0.05322 0.0
N350 N 0.422 0.59018 0.12784 0.0
N351 N 0.40426 0.69179 0.95435 0.0
C352 C 0.42033 0.61711 0.08696 0.0
C353 C 0.41168 0.66975 0.99877 0.0
N354 N 0.37362 0.65944 0.11118 0.0
N355 N 0.4743 0.64297 0.98656 0.0
H356 H 0.38149 0.71345 0.94352 0.0
H357 H 0.41869 0.6864 0.92734 0.0
H358 H 0.49963 0.62435 0.99748 0.0
H359 H 0.47698 0.66574 0.95837 0.0
H360 H 0.3802 0.64595 0.14639 0.0
H361 H 0.35314 0.68315 0.10507 0.0
H362 H 0.40037 0.58867 0.14961 0.0
H363 H 0.44419 0.5683 0.13983 0.0
C364 C 0.8772 0.88121 0.55188 0.0
C365 C 0.85825 0.88049 0.59154 0.0
C366 C 0.90331 0.93228 0.61507 0.0
C367 C 0.9189 0.93692 0.57185 0.0
N368 N 0.91125 0.92041 0.49391 0.0
N369 N 0.84803 0.91033 0.65647 0.0
C370 C 0.90332 0.91262 0.53883 0.0
C371 C 0.86966 0.90763 0.62169 0.0
N372 N 0.8709 0.85137 0.52686 0.0
N373 N 0.92169 0.94916 0.65128 0.0
H374 H 0.82374 0.89226 0.66291 0.0
H375 H 0.85194 0.9328 0.67601 0.0
H376 H 0.94767 0.96556 0.65054 0.0
H377 H 0.91384 0.94294 0.68468 0.0
H378 H 0.88762 0.84789 0.50099 0.0
H379 H 0.85187 0.82786 0.535 0.0
H380 H 0.89677 0.90625 0.46771 0.0
H381 H 0.92832 0.94381 0.48063 0.0
C382 C 0.64443 0.40097 0.02185 0.0
C383 C 0.64238 0.36244 0.04877 0.0
C384 C 0.5844 0.38405 0.07956 0.0
C385 C 0.58485 0.42196 0.0499 0.0
N386 N 0.6084 0.46125 0.98244 0.0
N387 N 0.60741 0.3151 0.0985 0.0
C388 C 0.61278 0.4289 1.01798 0.0
C389 C 0.6117 0.35341 0.0767 0.0
N390 N 0.67726 0.41136 1.0008 0.0
N391 N 0.5569 0.37684 0.10926 0.0
H392 H 0.62684 0.29205 0.09725 0.0
H393 H 0.58317 0.30542 0.11515 0.0
H394 H 0.53273 0.396 0.10718 0.0
H395 H 0.55833 0.3523 0.1364 0.0
H396 H 0.68249 0.4404 0.9852 0.0
H397 H 0.70131 0.39183 1.00312 0.0
H398 H 0.62551 0.46534 0.9555 0.0
H399 H 0.58508 0.48197 0.97672 0.0
C400 C 0.17045 0.91099 0.27972 0.0
C401 C 0.1606 0.8742 0.26596 0.0
C402 C 0.12497 0.85529 0.33312 0.0
C403 C 0.13943 0.88961 0.35015 0.0
N404 N 0.17734 0.9496 0.34159 0.0
N405 N 0.13072 0.80992 0.28043 0.0
C406 C 0.16225 0.91756 0.32372 0.0
C407 C 0.13805 0.84611 0.29263 0.0
N408 N 0.1872 0.93978 0.2503 0.0
N409 N 0.09847 0.83168 0.35561 0.0
H410 H 0.13903 0.80239 0.25051 0.0
H411 H 0.11874 0.78636 0.30138 0.0
H412 H 0.08872 0.83737 0.38566 0.0
H413 H 0.08353 0.8085 0.3425 0.0
H414 H 0.19157 0.96865 0.25587 0.0
H415 H 0.19376 0.93573 0.21803 0.0
H416 H 0.19816 0.96855 0.32704 0.0
H417 H 0.17076 0.95608 0.37283 0.0
C418 C 0.55825 0.61731 0.87499 0.0
C419 C 0.60053 0.6217 0.88145 0.0
C420 C 0.60666 0.57646 0.95752 0.0
C421 C 0.5642 0.57557 0.95404 0.0
N422 N 0.49902 0.59822 0.91014 0.0
N423 N 0.66461 0.61066 0.93218 0.0
C424 C 0.5398 0.59675 0.91281 0.0
C425 C 0.62456 0.60295 0.9238 0.0
N426 N 0.53582 0.63202 0.83225 0.0
N427 N 0.63003 0.54965 0.99087 0.0
H428 H 0.67912 0.62921 0.90796 0.0
H429 H 0.68256 0.60134 0.96471 0.0
H430 H 0.61789 0.52833 1.01445 0.0
H431 H 0.6607 0.54561 0.9916 0.0
H432 H 0.50563 0.62585 0.82326 0.0
H433 H 0.54815 0.64816 0.80434 0.0
H434 H 0.48003 0.61687 0.88373 0.0
H435 H 0.48409 0.58312 0.93625 0.0
C436 C 0.93902 0.10213 0.34966 0.0
C437 C 0.9001 0.088 0.33631 0.0
C438 C 0.90769 0.03964 0.41031 0.0
C439 C 0.94803 0.05127 0.42154 0.0
N440 N 1.00469 0.08707 0.39612 0.0
N441 N 0.84986 0.03866 0.34978 0.0
C442 C 0.96443 0.08064 0.38943 0.0
C443 C 0.88523 0.0552 0.36535 0.0
N444 N 0.95125 0.13695 0.32552 0.0
N445 N 0.88995 0.01579 0.44353 0.0
H446 H 0.83259 0.04942 0.31713 0.0
H447 H 0.83953 0.01228 0.36736 0.0
H448 H 0.9048 1.00582 0.47754 0.0
H449 H 0.8595 0.00941 0.439 0.0
H450 H 0.97749 0.15088 0.3371 0.0
H451 H 0.93343 0.15392 0.29638 0.0
H452 H 0.01904 0.10566 0.37185 0.0
H453 H 0.02419 0.07011 0.42349 0.0
C454 C 0.4502 0.41151 0.72305 0.0
C455 C 0.41748 0.38818 0.70824 0.0
C456 C 0.38553 0.40038 0.77329 0.0
C457 C 0.41161 0.43254 0.7781 0.0
N458 N 0.47191 0.46661 0.76063 0.0
N459 N 0.37795 0.33779 0.74706 0.0
C460 C 0.44537 0.43708 0.75455 0.0
C461 C 0.39154 0.37561 0.74133 0.0
N462 N 0.48708 0.40512 0.71229 0.0
N463 N 0.35462 0.39394 0.79833 0.0
H464 H 0.38802 0.31716 0.72935 0.0
H465 H 0.36174 0.32576 0.7735 0.0
H466 H 0.35039 0.41038 0.82365 0.0
H467 H 0.33227 0.37355 0.79211 0.0
H468 H 0.51294 0.41875 0.72565 0.0
H469 H 0.49218 0.38219 0.69501 0.0
H470 H 0.49449 0.47359 0.74026 0.0
H471 H 0.46986 0.48548 0.7841 0.0
C472 C 0.64977 0.56227 0.43285 0.0
C473 C 0.64222 0.60328 0.43045 0.0
C474 C 0.63524 0.61474 0.34448 0.0
C475 C 0.64057 0.57341 0.34688 0.0
N476 N 0.64527 0.50688 0.39204 0.0
N477 N 0.62088 0.66749 0.38431 0.0
C478 C 0.64547 0.54688 0.39074 0.0
C479 C 0.63292 0.62924 0.38629 0.0
N480 N 0.66271 0.5383 0.47531 0.0
N481 N 0.6337 0.64024 0.30245 0.0
H482 H 0.61903 0.67911 0.4142 0.0
H483 H 0.60962 0.68676 0.3532 0.0
H484 H 0.63429 0.63063 0.27099 0.0
H485 H 0.63458 0.67094 0.2991 0.0
H486 H 0.67304 0.50923 0.47899 0.0
H487 H 0.66634 0.54838 0.50697 0.0
H488 H 0.64435 0.48595 0.42247 0.0
H489 H 0.64244 0.49458 0.3619 0.0
C490 C 0.91943 0.09739 0.86202 0.0
C491 C 0.90599 0.13529 0.86664 0.0
C492 C 0.9245 0.1643 0.79019 0.0
C493 C 0.94306 0.12771 0.78895 0.0
N494 N 0.96052 0.05967 0.82443 0.0
N495 N 0.8983 0.20572 0.83718 0.0
C496 C 0.94083 0.09416 0.82487 0.0
C497 C 0.90879 0.16896 0.83099 0.0
N498 N 0.91111 0.06444 0.89284 0.0
N499 N 0.92168 0.19448 0.75207 0.0
H500 H 0.88632 0.21037 0.86629 0.0
H501 H 0.90405 0.23196 0.81523 0.0
H502 H 0.93315 0.19206 0.72182 0.0
H503 H 0.90499 0.2205 0.74866 0.0
H504 H 0.91654 0.03558 0.88889 0.0
H505 H 0.89545 0.06584 0.92032 0.0
H506 H 0.96422 0.03563 0.85233 0.0
H507 H 0.97543 0.05588 0.79709 0.0
C508 C 0.40144 0.4448 0.21109 0.0
C509 C 0.41734 0.40703 0.23514 0.0
C510 C 0.47435 0.41633 0.19199 0.0
C511 C 0.4559 0.45156 0.1636 0.0
N512 N 0.40061 0.49869 0.1446 0.0
N513 N 0.46622 0.35427 0.24444 0.0
C514 C 0.41913 0.46568 0.17292 0.0
C515 C 0.453 0.39203 0.22434 0.0
N516 N 0.37003 0.46116 0.22562 0.0
N517 N 0.51339 0.40751 0.19044 0.0
H518 H 0.45176 0.33583 0.26882 0.0
H519 H 0.48951 0.3402 0.23406 0.0
H520 H 0.53076 0.42642 0.17 0.0
H521 H 0.5298 0.38418 0.21325 0.0
H522 H 0.35981 0.49033 0.21333 0.0
H523 H 0.35598 0.44655 0.25293 0.0
H524 H 0.37192 0.50858 0.1462 0.0
H525 H 0.41293 0.51474 0.11684 0.0
C526 C 0.06999 0.91489 0.74797 0.0
C527 C 0.09212 0.93993 0.77535 0.0
C528 C 0.06851 0.99806 0.71507 0.0
C529 C 0.04941 0.97301 0.68492 0.0
N530 N 0.01845 0.90944 0.68236 0.0
N531 N 0.1189 1.00412 0.78185 0.0
C532 C 0.0466 0.93175 0.70391 0.0
C533 C 0.09341 0.9811 0.7578 0.0
N534 N 0.07212 0.87475 0.76367 0.0
N535 N 0.05923 0.0376 0.70621 0.0
H536 H 0.13724 0.99281 0.81363 0.0
H537 H 0.12481 0.03343 0.76801 0.0
H538 H 0.03463 0.04978 0.68203 0.0
H539 H 0.07045 0.05672 0.72851 0.0
H540 H 0.06101 0.85433 0.74307 0.0
H541 H 0.08807 0.86151 0.79623 0.0
H542 H 1.01175 0.88058 0.69687 0.0
H543 H 0.99805 0.92101 0.65256 0.0
loop_
_geom_bond_atom_site_label_1
_geom_bond_atom_site_label_2
_geom_bond_distance
_geom_bond_site_symmetry_2
_ccdc_geom_bond_type
C0 C1 1.264 . S
C0 C5 1.479 . S
C0 C10 1.465 . S
C1 C0 1.264 . S
C1 C3 1.339 . S
C1 H28 0.931 . S
C2 C3 1.395 . S
C2 C4 1.320 . S
C3 C1 1.339 . S
C3 C2 1.395 . S
C3 H29 0.929 . S
C4 C2 1.320 . S
C4 C5 1.405 . S
C4 H30 0.930 . S
C5 C0 1.479 . S
C5 C4 1.405 . S
C5 H31 0.931 . S
U6 O7 2.454 . S
U6 O8 2.458 1_554 S
U6 C9 2.984 . S
U6 C10 2.847 . S
U6 C23 2.882 1_554 S
U6 O24 2.441 . S
U6 O25 2.420 . S
U6 O26 2.455 1_554 S
U6 O27 2.449 1_554 S
O7 U6 2.454 . S
O7 C9 1.353 . S
O8 U6 2.458 1_556 S
O8 C9 1.286 1_556 S
C9 U6 2.984 . S
C9 O7 1.353 . S
C9 O8 1.286 1_554 S
C9 C11 1.363 . S
C10 C0 1.465 . S
C10 U6 2.847 . S
C10 O24 1.249 . S
C10 O25 1.202 . S
C11 C9 1.363 . S
C11 C13 1.408 . S
C11 C16 1.342 . S
C12 C13 1.310 . S
C12 C15 1.461 . S
C12 H32 0.932 . S
C13 C11 1.408 . S
C13 C12 1.310 . S
C13 H33 0.930 . S
C14 C15 1.474 . S
C14 C16 1.285 . S
C14 H34 0.929 1_554 S
C15 C12 1.461 . S
C15 C14 1.474 . S
C16 C11 1.342 . S
C16 C14 1.285 . S
C16 H35 0.930 1_554 S
C17 C20 1.424 . S
C17 C22 1.245 . S
C17 C23 1.428 . S
C18 C21 1.260 . S
C18 C22 1.477 . S
C18 H36 0.932 . S
C19 C20 1.384 . S
C19 C21 1.479 . S
C19 H37 0.929 . S
C20 C17 1.424 . S
C20 C19 1.384 . S
C20 H38 0.928 . S
C21 C18 1.260 . S
C21 C19 1.479 . S
C22 C17 1.245 . S
C22 C18 1.477 . S
C22 H39 0.932 . S
C23 U6 2.882 1_556 S
C23 C17 1.428 . S
C23 O26 1.301 . S
C23 O27 1.282 . S
O24 U6 2.441 . S
O24 C10 1.249 . S
O25 U6 2.420 . S
O25 C10 1.202 . S
O26 U6 2.455 1_556 S
O26 C23 1.301 . S
O27 U6 2.449 1_556 S
O27 C23 1.282 . S
H28 C1 0.931 . S
H29 C3 0.929 . S
H30 C4 0.930 . S
H31 C5 0.931 . S
H32 C12 0.932 . S
H33 C13 0.930 . S
H34 C14 0.929 1_556 S
H35 C16 0.930 1_556 S
H36 C18 0.932 . S
H37 C19 0.929 . S
H38 C20 0.928 . S
H39 C22 0.932 . S
C40 C41 1.264 . S
C40 C45 1.479 . S
C40 C50 1.465 . S
C41 C40 1.264 . S
C41 C43 1.339 . S
C41 H68 0.931 . S
C42 C43 1.395 . S
C42 C44 1.320 . S
C43 C41 1.339 . S
C43 C42 1.395 . S
C43 H69 0.929 . S
C44 C42 1.320 . S
C44 C45 1.405 . S
C44 H70 0.930 . S
C45 C40 1.479 . S
C45 C44 1.405 . S
C45 H71 0.931 . S
U46 O47 2.454 . S
U46 O48 2.458 . S
U46 C49 2.984 . S
U46 C50 2.847 . S
U46 C63 2.882 . S
U46 O64 2.441 . S
U46 O65 2.420 . S
U46 O66 2.455 . S
U46 O67 2.449 . S
O47 U46 2.454 . S
O47 C49 1.353 . S
O48 U46 2.458 . S
O48 C49 1.286 . S
C49 U46 2.984 . S
C49 O47 1.353 . S
C49 O48 1.286 . S
C49 C51 1.363 . S
C50 C40 1.465 . S
C50 U46 2.847 . S
C50 O64 1.249 . S
C50 O65 1.202 . S
C51 C49 1.363 . S
C51 C53 1.408 . S
C51 C56 1.342 . S
C52 C53 1.310 . S
C52 C55 1.461 . S
C52 H72 0.932 . S
C53 C51 1.408 . S
C53 C52 1.310 . S
C53 H73 0.930 . S
C54 C55 1.474 . S
C54 C56 1.285 . S
C54 H74 0.929 . S
C55 C52 1.461 . S
C55 C54 1.474 . S
C56 C51 1.342 . S
C56 C54 1.285 . S
C56 H75 0.930 . S
C57 C60 1.424 . S
C57 C62 1.245 . S
C57 C63 1.428 . S
C58 C61 1.260 . S
C58 C62 1.477 . S
C58 H76 0.932 . S
C59 C60 1.384 . S
C59 C61 1.479 . S
C59 H77 0.929 . S
C60 C57 1.424 . S
C60 C59 1.384 . S
C60 H78 0.928 . S
C61 C58 1.260 . S
C61 C59 1.479 . S
C62 C57 1.245 . S
C62 C58 1.477 . S
C62 H79 0.932 . S
C63 U46 2.882 . S
C63 C57 1.428 . S
C63 O66 1.301 . S
C63 O67 1.282 . S
O64 U46 2.441 . S
O64 C50 1.249 . S
O65 U46 2.420 . S
O65 C50 1.202 . S
O66 U46 2.455 . S
O66 C63 1.301 . S
O67 U46 2.449 . S
O67 C63 1.282 . S
H68 C41 0.931 . S
H69 C43 0.929 . S
H70 C44 0.930 . S
H71 C45 0.931 . S
H72 C52 0.932 . S
H73 C53 0.930 . S
H74 C54 0.929 . S
H75 C56 0.930 . S
H76 C58 0.932 . S
H77 C59 0.929 . S
H78 C60 0.928 . S
H79 C62 0.932 . S
C80 C81 1.264 . S
C80 C85 1.479 . S
C80 C90 1.465 . S
C81 C80 1.264 . S
C81 C83 1.339 . S
C81 H108 0.931 . S
C82 C83 1.395 . S
C82 C84 1.320 . S
C83 C81 1.339 . S
C83 C82 1.395 . S
C83 H109 0.929 . S
C84 C82 1.320 . S
C84 C85 1.405 . S
C84 H110 0.930 . S
C85 C80 1.479 . S
C85 C84 1.405 . S
C85 H111 0.931 . S
U86 O87 2.454 . S
U86 O88 2.458 . S
U86 C89 2.984 . S
U86 C90 2.847 . S
U86 C103 2.882 1_554 S
U86 O104 2.441 . S
U86 O105 2.420 . S
U86 O106 2.455 1_554 S
U86 O107 2.449 . S
O87 U86 2.454 . S
O87 C89 1.353 . S
O88 U86 2.458 . S
O88 C89 1.286 . S
C89 U86 2.984 . S
C89 O87 1.353 . S
C89 O88 1.286 . S
C89 C91 1.363 . S
C90 C80 1.465 . S
C90 U86 2.847 . S
C90 O104 1.249 . S
C90 O105 1.202 . S
C91 C89 1.363 . S
C91 C93 1.408 . S
C91 C96 1.342 1_554 S
C92 C93 1.310 . S
C92 C95 1.461 . S
C92 H112 0.932 . S
C93 C91 1.408 . S
C93 C92 1.310 . S
C93 H113 0.930 . S
C94 C95 1.474 1_556 S
C94 C96 1.285 . S
C94 H114 0.929 . S
C95 C92 1.461 . S
C95 C94 1.474 1_554 S
C96 C91 1.342 1_556 S
C96 C94 1.285 . S
C96 H115 0.930 . S
C97 C100 1.424 . S
C97 C102 1.245 . S
C97 C103 1.428 . S
C98 C101 1.260 . S
C98 C102 1.477 . S
C98 H116 0.932 . S
C99 C100 1.384 . S
C99 C101 1.479 . S
C99 H117 0.929 . S
C100 C97 1.424 . S
C100 C99 1.384 . S
C100 H118 0.928 . S
C101 C98 1.260 . S
C101 C99 1.479 . S
C102 C97 1.245 . S
C102 C98 1.477 . S
C102 H119 0.932 . S
C103 U86 2.882 1_556 S
C103 C97 1.428 . S
C103 O106 1.301 . S
C103 O107 1.282 1_556 S
O104 U86 2.441 . S
O104 C90 1.249 . S
O105 U86 2.420 . S
O105 C90 1.202 . S
O106 U86 2.455 1_556 S
O106 C103 1.301 . S
O107 U86 2.449 . S
O107 C103 1.282 1_554 S
H108 C81 0.931 . S
H109 C83 0.929 . S
H110 C84 0.930 . S
H111 C85 0.931 . S
H112 C92 0.932 . S
H113 C93 0.930 . S
H114 C94 0.929 . S
H115 C96 0.930 . S
H116 C98 0.932 . S
H117 C99 0.929 . S
H118 C100 0.928 . S
H119 C102 0.932 . S
C120 C121 1.264 . S
C120 C125 1.479 . S
C120 C130 1.465 . S
C121 C120 1.264 . S
C121 C123 1.339 . S
C121 H148 0.931 . S
C122 C123 1.395 . S
C122 C124 1.320 . S
C123 C121 1.339 . S
C123 C122 1.395 . S
C123 H149 0.929 . S
C124 C122 1.320 . S
C124 C125 1.405 . S
C124 H150 0.930 . S
C125 C120 1.479 . S
C125 C124 1.405 . S
C125 H151 0.931 . S
U126 O127 2.454 . S
U126 O128 2.458 . S
U126 C129 2.984 . S
U126 C130 2.847 . S
U126 C143 2.882 . S
U126 O144 2.441 . S
U126 O145 2.420 . S
U126 O146 2.455 . S
U126 O147 2.449 . S
O127 U126 2.454 . S
O127 C129 1.353 . S
O128 U126 2.458 . S
O128 C129 1.286 . S
C129 U126 2.984 . S
C129 O127 1.353 . S
C129 O128 1.286 . S
C129 C131 1.363 . S
C130 C120 1.465 . S
C130 U126 2.847 . S
C130 O144 1.249 . S
C130 O145 1.202 . S
C131 C129 1.363 . S
C131 C133 1.408 . S
C131 C136 1.342 . S
C132 C133 1.310 . S
C132 C135 1.461 . S
C132 H152 0.932 . S
C133 C131 1.408 . S
C133 C132 1.310 . S
C133 H153 0.930 . S
C134 C135 1.474 . S
C134 C136 1.285 . S
C134 H154 0.929 . S
C135 C132 1.461 . S
C135 C134 1.474 . S
C136 C131 1.342 . S
C136 C134 1.285 . S
C136 H155 0.930 . S
C137 C140 1.424 . S
C137 C142 1.245 . S
C137 C143 1.428 . S
C138 C141 1.260 . S
C138 C142 1.477 . S
C138 H156 0.932 . S
C139 C140 1.384 . S
C139 C141 1.479 . S
C139 H157 0.929 . S
C140 C137 1.424 . S
C140 C139 1.384 . S
C140 H158 0.928 . S
C141 C138 1.260 . S
C141 C139 1.479 . S
C142 C137 1.245 . S
C142 C138 1.477 . S
C142 H159 0.932 . S
C143 U126 2.882 . S
C143 C137 1.428 . S
C143 O146 1.301 . S
C143 O147 1.282 . S
O144 U126 2.441 . S
O144 C130 1.249 . S
O145 U126 2.420 . S
O145 C130 1.202 . S
O146 U126 2.455 . S
O146 C143 1.301 . S
O147 U126 2.449 . S
O147 C143 1.282 . S
H148 C121 0.931 . S
H149 C123 0.929 . S
H150 C124 0.930 . S
H151 C125 0.931 . S
H152 C132 0.932 . S
H153 C133 0.930 . S
H154 C134 0.929 . S
H155 C136 0.930 . S
H156 C138 0.932 . S
H157 C139 0.929 . S
H158 C140 0.928 . S
H159 C142 0.932 . S
Eu160 N189 2.600 . S
Eu160 N195 2.562 . S
Eu160 O204 2.462 . S
Eu160 O205 2.373 . S
Eu160 O207 2.432 . S
Eu160 O208 2.291 1_565 S
Eu160 O212 2.343 1_455 S
Eu160 O215 2.372 1_455 S
Eu160 C224 2.787 . S
C161 N162 1.365 . S
C161 C164 1.405 . S
C161 C168 1.448 . S
N162 C161 1.365 . S
N162 C165 1.317 1_655 S
N162 Eu171 2.600 . S
C163 C165 1.397 1_655 S
C163 C166 1.367 . S
C163 H183 0.931 1_655 S
C164 C161 1.405 . S
C164 C166 1.403 . S
C164 C170 1.439 . S
C165 N162 1.317 1_455 S
C165 C163 1.397 1_455 S
C165 H176 0.931 . S
C166 C163 1.367 . S
C166 C164 1.403 . S
C166 H187 0.929 . S
C167 C168 1.430 . S
C167 C169 1.387 . S
C167 C173 1.404 . S
C168 C161 1.448 . S
C168 C167 1.430 . S
C168 N172 1.351 . S
C169 C167 1.387 . S
C169 C170 1.374 . S
C169 H184 0.931 . S
C170 C164 1.439 . S
C170 C169 1.374 . S
C170 H185 0.931 . S
Eu171 N162 2.600 . S
Eu171 N172 2.562 . S
Eu171 O206 2.335 1_655 S
Eu171 O209 2.372 1_655 S
Eu171 O210 2.462 . S
Eu171 O211 2.373 . S
Eu171 O213 2.432 . S
Eu171 O214 2.291 1_545 S
Eu171 C235 2.787 . S
N172 C168 1.351 . S
N172 Eu171 2.562 . S
N172 C174 1.325 . S
C173 C167 1.404 . S
C173 C175 1.366 . S
C173 H181 0.930 . S
C174 N172 1.325 . S
C174 C175 1.416 . S
C174 H180 0.929 . S
C175 C173 1.366 . S
C175 C174 1.416 . S
C175 H177 0.930 . S
H176 C165 0.931 . S
H177 C175 0.930 . S
H178 C193 0.930 1_655 S
H179 C200 0.930 . S
H180 C174 0.929 . S
H181 C173 0.930 . S
H182 C196 0.929 . S
H183 C163 0.931 1_455 S
H184 C169 0.931 . S
H185 C170 0.931 . S
H186 C191 0.931 1_655 S
H187 C166 0.929 . S
H188 C199 0.930 . S
N189 Eu160 2.600 . S
N189 C190 1.365 . S
N189 C193 1.319 . S
C190 N189 1.365 . S
C190 C192 1.405 . S
C190 C198 1.448 . S
C191 H186 0.931 1_455 S
C191 C193 1.397 . S
C191 C194 1.367 . S
C192 C190 1.405 . S
C192 C194 1.403 . S
C192 C225 1.439 . S
C193 H178 0.930 1_455 S
C193 N189 1.319 . S
C193 C191 1.397 . S
C194 C191 1.367 . S
C194 C192 1.403 . S
C194 H201 0.929 . S
N195 Eu160 2.562 . S
N195 C196 1.325 . S
N195 C198 1.351 . S
C196 H182 0.929 . S
C196 N195 1.325 . S
C196 C200 1.416 . S
C197 C198 1.430 . S
C197 C199 1.404 . S
C197 C226 1.387 . S
C198 C190 1.448 . S
C198 N195 1.351 . S
C198 C197 1.430 . S
C199 H188 0.930 . S
C199 C197 1.404 . S
C199 C200 1.366 . S
C200 H179 0.930 . S
C200 C196 1.416 . S
C200 C199 1.366 . S
H201 C194 0.929 . S
H202 C225 0.931 . S
H203 C226 0.931 . S
O204 Eu160 2.462 . S
O204 C224 1.252 . S
O205 Eu160 2.373 . S
O205 C216 1.249 . S
O206 Eu171 2.335 1_455 S
O206 C216 1.264 1_545 S
O207 Eu160 2.432 . S
O207 C224 1.268 . S
O208 Eu160 2.291 1_545 S
O208 C223 1.255 . S
O209 Eu171 2.372 1_455 S
O209 C223 1.257 . S
O210 Eu171 2.462 . S
O210 C235 1.252 . S
O211 Eu171 2.373 . S
O211 C227 1.249 . S
O212 Eu160 2.343 1_655 S
O212 C227 1.251 1_565 S
O213 Eu171 2.432 . S
O213 C235 1.268 . S
O214 Eu171 2.291 1_565 S
O214 C234 1.255 . S
O215 Eu160 2.372 1_655 S
O215 C234 1.257 . S
C216 O205 1.249 . S
C216 O206 1.264 1_565 S
C217 C220 1.382 . S
C217 C222 1.390 . S
C217 C224 1.506 . S
C218 C219 1.398 . S
C218 C222 1.392 . S
C219 C218 1.398 . S
C219 C221 1.372 . S
C219 H236 0.931 . S
C220 C217 1.382 . S
C220 C221 1.390 . S
C220 H237 0.931 . S
C221 C219 1.372 . S
C221 C220 1.390 . S
C221 H238 0.929 . S
C222 C217 1.390 . S
C222 C218 1.392 . S
C222 H239 0.930 . S
C223 O208 1.255 . S
C223 O209 1.257 . S
C224 Eu160 2.787 . S
C224 O204 1.252 . S
C224 O207 1.268 . S
C224 C217 1.506 . S
C225 C192 1.439 . S
C225 H202 0.931 . S
C225 C226 1.374 . S
C226 C197 1.387 . S
C226 H203 0.931 . S
C226 C225 1.374 . S
C227 O211 1.249 . S
C227 O212 1.251 1_545 S
C228 C231 1.382 . S
C228 C232 1.390 . S
C228 C235 1.506 . S
C229 C230 1.398 . S
C229 C232 1.392 . S
C230 C229 1.398 . S
C230 C233 1.372 . S
C230 H240 0.931 . S
C231 C228 1.382 . S
C231 C233 1.390 . S
C231 H241 0.931 . S
C232 C228 1.390 . S
C232 C229 1.392 . S
C232 H242 0.930 . S
C233 C230 1.372 . S
C233 C231 1.390 . S
C233 H243 0.929 . S
C234 O214 1.255 . S
C234 O215 1.257 . S
C235 Eu171 2.787 . S
C235 O210 1.252 . S
C235 O213 1.268 . S
C235 C228 1.506 . S
H236 C219 0.931 . S
H237 C220 0.931 . S
H238 C221 0.929 . S
H239 C222 0.930 . S
H240 C230 0.931 . S
H241 C231 0.931 . S
H242 C232 0.930 . S
H243 C233 0.929 . S
Eu244 N273 2.600 . S
Eu244 N279 2.562 1_556 S
Eu244 O288 2.462 . S
Eu244 O289 2.373 1_556 S
Eu244 O291 2.432 . S
Eu244 O292 2.291 1_556 S
Eu244 O296 2.335 . S
Eu244 O299 2.367 1_556 S
Eu244 C308 2.787 . S
C245 N246 1.365 . S
C245 C248 1.405 . S
C245 C252 1.448 . S
N246 C245 1.365 . S
N246 C249 1.319 . S
N246 Eu255 2.600 . S
C247 C249 1.397 . S
C247 C250 1.367 . S
C247 H267 0.931 . S
C248 C245 1.405 . S
C248 C250 1.403 . S
C248 C254 1.439 . S
C249 N246 1.319 . S
C249 C247 1.397 . S
C249 H260 0.930 . S
C250 C247 1.367 . S
C250 C248 1.403 . S
C250 H271 0.929 . S
C251 C252 1.430 . S
C251 C253 1.387 . S
C251 C257 1.404 . S
C252 C245 1.448 . S
C252 C251 1.430 . S
C252 N256 1.351 . S
C253 C251 1.387 . S
C253 C254 1.374 . S
C253 H268 0.931 . S
C254 C248 1.439 . S
C254 C253 1.374 . S
C254 H269 0.931 . S
Eu255 N246 2.600 . S
Eu255 N256 2.562 . S
Eu255 O290 2.335 . S
Eu255 O293 2.372 . S
Eu255 O294 2.462 . S
Eu255 O295 2.388 . S
Eu255 O297 2.432 . S
Eu255 O298 2.291 . S
Eu255 C319 2.787 . S
N256 C252 1.351 . S
N256 Eu255 2.562 . S
N256 C258 1.325 . S
C257 C251 1.404 . S
C257 C259 1.366 . S
C257 H265 0.930 . S
C258 N256 1.325 . S
C258 C259 1.416 . S
C258 H264 0.929 . S
C259 C257 1.366 . S
C259 C258 1.416 . S
C259 H261 0.930 . S
H260 C249 0.930 . S
H261 C259 0.930 . S
H262 C277 0.930 . S
H263 C284 0.930 . S
H264 C258 0.929 . S
H265 C257 0.930 . S
H266 C280 0.929 . S
H267 C247 0.931 . S
H268 C253 0.931 . S
H269 C254 0.931 . S
H270 C275 0.931 . S
H271 C250 0.929 . S
H272 C283 0.930 . S
N273 Eu244 2.600 . S
N273 C274 1.365 1_556 S
N273 C277 1.319 . S
C274 N273 1.365 1_554 S
C274 C276 1.405 . S
C274 C282 1.448 . S
C275 H270 0.931 . S
C275 C277 1.397 . S
C275 C278 1.367 1_556 S
C276 C274 1.405 . S
C276 C278 1.403 . S
C276 C309 1.439 . S
C277 H262 0.930 . S
C277 N273 1.319 . S
C277 C275 1.397 . S
C278 C275 1.367 1_554 S
C278 C276 1.403 . S
C278 H285 0.929 . S
N279 Eu244 2.562 1_554 S
N279 C280 1.325 . S
N279 C282 1.351 . S
C280 H266 0.929 . S
C280 N279 1.325 . S
C280 C284 1.416 . S
C281 C282 1.430 . S
C281 C283 1.404 . S
C281 C310 1.387 . S
C282 C274 1.448 . S
C282 N279 1.351 . S
C282 C281 1.430 . S
C283 H272 0.930 . S
C283 C281 1.404 . S
C283 C284 1.366 . S
C284 H263 0.930 . S
C284 C280 1.416 . S
C284 C283 1.366 . S
H285 C278 0.929 . S
H286 C309 0.931 . S
H287 C310 0.931 . S
O288 Eu244 2.462 . S
O288 C308 1.252 . S
O289 Eu244 2.373 1_554 S
O289 C300 1.249 . S
O290 Eu255 2.335 . S
O290 C300 1.264 . S
O291 Eu244 2.432 . S
O291 C308 1.268 . S
O292 Eu244 2.291 1_554 S
O292 C307 1.255 . S
O293 Eu255 2.372 . S
O293 C307 1.257 . S
O294 Eu255 2.462 . S
O294 C319 1.252 . S
O295 Eu255 2.388 . S
O295 C311 1.237 1_554 S
O296 Eu244 2.335 . S
O296 C311 1.264 . S
O297 Eu255 2.432 . S
O297 C319 1.268 . S
O298 Eu255 2.291 . S
O298 C318 1.255 . S
O299 Eu244 2.367 1_554 S
O299 C318 1.267 . S
C300 O289 1.249 . S
C300 O290 1.264 . S
C301 C304 1.382 . S
C301 C306 1.390 . S
C301 C308 1.506 . S
C302 C303 1.398 . S
C302 C306 1.392 . S
C303 C302 1.398 . S
C303 C305 1.372 . S
C303 H320 0.931 . S
C304 C301 1.382 . S
C304 C305 1.390 . S
C304 H321 0.931 . S
C305 C303 1.372 . S
C305 C304 1.390 . S
C305 H322 0.929 . S
C306 C301 1.390 . S
C306 C302 1.392 . S
C306 H323 0.930 . S
C307 O292 1.255 . S
C307 O293 1.257 . S
C308 Eu244 2.787 . S
C308 O288 1.252 . S
C308 O291 1.268 . S
C308 C301 1.506 . S
C309 C276 1.439 . S
C309 H286 0.931 . S
C309 C310 1.374 . S
C310 C281 1.387 . S
C310 H287 0.931 . S
C310 C309 1.374 . S
C311 O295 1.237 1_556 S
C311 O296 1.264 . S
C312 C315 1.382 . S
C312 C316 1.390 . S
C312 C319 1.506 . S
C313 C314 1.398 . S
C313 C316 1.392 . S
C314 C313 1.398 . S
C314 C317 1.372 . S
C314 H324 0.931 . S
C315 C312 1.382 . S
C315 C317 1.390 . S
C315 H325 0.931 . S
C316 C312 1.390 . S
C316 C313 1.392 . S
C316 H326 0.930 . S
C317 C314 1.372 . S
C317 C315 1.390 . S
C317 H327 0.929 . S
C318 O298 1.255 . S
C318 O299 1.267 . S
C319 Eu255 2.787 . S
C319 O294 1.252 . S
C319 O297 1.268 . S
C319 C312 1.506 . S
H320 C303 0.931 . S
H321 C304 0.931 . S
H322 C305 0.929 . S
H323 C306 0.930 . S
H324 C314 0.931 . S
H325 C315 0.931 . S
H326 C316 0.930 . S
H327 C317 0.929 . S
C328 C329 1.363 . S
C328 C334 1.379 . S
C328 N336 1.356 . S
C329 C328 1.363 . S
C329 C335 1.363 . S
C330 C331 1.363 . S
C330 C335 1.379 . S
C330 N337 1.356 . S
C331 C330 1.363 . S
C331 C334 1.363 . S
N332 C334 1.356 . S
N332 H344 0.984 . S
N332 H345 0.985 . S
N333 C335 1.356 . S
N333 H338 0.984 . S
N333 H339 0.985 . S
C334 C328 1.379 . S
C334 C331 1.363 . S
C334 N332 1.356 . S
C335 C329 1.363 . S
C335 C330 1.379 . S
C335 N333 1.356 . S
N336 C328 1.356 . S
N336 H342 0.984 . S
N336 H343 0.984 . S
N337 C330 1.356 . S
N337 H340 0.984 . S
N337 H341 0.985 . S
H338 N333 0.984 . S
H339 N333 0.985 . S
H340 N337 0.984 . S
H341 N337 0.985 . S
H342 N336 0.984 . S
H343 N336 0.984 . S
H344 N332 0.984 . S
H345 N332 0.985 . S
C346 C347 1.363 . S
C346 C352 1.379 . S
C346 N354 1.356 . S
C347 C346 1.363 . S
C347 C353 1.363 . S
C348 C349 1.363 . S
C348 C353 1.379 . S
C348 N355 1.356 1_554 S
C349 C348 1.363 . S
C349 C352 1.363 . S
N350 C352 1.356 . S
N350 H362 0.984 . S
N350 H363 0.985 . S
N351 C353 1.356 1_556 S
N351 H356 0.992 . S
N351 H357 0.985 . S
C352 C346 1.379 . S
C352 C349 1.363 . S
C352 N350 1.356 . S
C353 C347 1.363 . S
C353 C348 1.379 . S
C353 N351 1.356 1_554 S
N354 C346 1.356 . S
N354 H360 0.984 . S
N354 H361 0.984 . S
N355 C348 1.356 1_556 S
N355 H358 0.984 . S
N355 H359 0.985 . S
H356 N351 0.992 . S
H357 N351 0.985 . S
H358 N355 0.984 . S
H359 N355 0.985 . S
H360 N354 0.984 . S
H361 N354 0.984 . S
H362 N350 0.984 . S
H363 N350 0.985 . S
C364 C365 1.363 . S
C364 C370 1.379 . S
C364 N372 1.356 . S
C365 C364 1.363 . S
C365 C371 1.363 . S
C366 C367 1.363 . S
C366 C371 1.379 . S
C366 N373 1.356 . S
C367 C366 1.363 . S
C367 C370 1.363 . S
N368 C370 1.356 . S
N368 H380 0.984 . S
N368 H381 0.985 . S
N369 C371 1.356 . S
N369 H374 0.984 . S
N369 H375 0.985 . S
C370 C364 1.379 . S
C370 C367 1.363 . S
C370 N368 1.356 . S
C371 C365 1.363 . S
C371 C366 1.379 . S
C371 N369 1.356 . S
N372 C364 1.356 . S
N372 H378 0.984 . S
N372 H379 0.984 . S
N373 C366 1.356 . S
N373 H376 0.984 . S
N373 H377 0.985 . S
H374 N369 0.984 . S
H375 N369 0.985 . S
H376 N373 0.984 . S
H377 N373 0.985 . S
H378 N372 0.984 . S
H379 N372 0.984 . S
H380 N368 0.984 . S
H381 N368 0.985 . S
C382 C383 1.363 1_556 S
C382 C388 1.379 1_556 S
C382 N390 1.356 . S
C383 C382 1.363 1_554 S
C383 C389 1.363 . S
C384 C385 1.363 . S
C384 C389 1.379 . S
C384 N391 1.356 . S
C385 C384 1.363 . S
C385 C388 1.363 . S
N386 C388 1.356 1_556 S
N386 H398 0.984 . S
N386 H399 0.985 . S
N387 C389 1.356 . S
N387 H392 0.984 . S
N387 H393 0.985 . S
C388 C382 1.379 1_554 S
C388 C385 1.363 . S
C388 N386 1.356 1_554 S
C389 C383 1.363 . S
C389 C384 1.379 . S
C389 N387 1.356 . S
N390 C382 1.356 . S
N390 H396 0.984 . S
N390 H397 0.984 . S
N391 C384 1.356 . S
N391 H394 0.984 . S
N391 H395 0.985 . S
H392 N387 0.984 . S
H393 N387 0.985 . S
H394 N391 0.984 . S
H395 N391 0.985 . S
H396 N390 0.984 . S
H397 N390 0.984 . S
H398 N386 0.984 . S
H399 N386 0.985 . S
C400 C401 1.363 . S
C400 C406 1.379 . S
C400 N408 1.356 . S
C401 C400 1.363 . S
C401 C407 1.363 . S
C402 C403 1.363 . S
C402 C407 1.379 . S
C402 N409 1.356 . S
C403 C402 1.363 . S
C403 C406 1.363 . S
N404 C406 1.356 . S
N404 H416 0.984 1_565 S
N404 H417 0.985 . S
N405 C407 1.356 . S
N405 H410 0.984 . S
N405 H411 0.985 . S
C406 C400 1.379 . S
C406 C403 1.363 . S
C406 N404 1.356 . S
C407 C401 1.363 . S
C407 C402 1.379 . S
C407 N405 1.356 . S
N408 C400 1.356 . S
N408 H414 0.984 1_565 S
N408 H415 0.984 . S
N409 C402 1.356 . S
N409 H412 0.984 . S
N409 H413 0.985 . S
H410 N405 0.984 . S
H411 N405 0.985 . S
H412 N409 0.984 . S
H413 N409 0.985 . S
H414 N408 0.984 1_545 S
H415 N408 0.984 . S
H416 N404 0.984 1_545 S
H417 N404 0.985 . S
C418 C419 1.363 . S
C418 C424 1.379 . S
C418 N426 1.356 . S
C419 C418 1.363 . S
C419 C425 1.363 . S
C420 C421 1.363 . S
C420 C425 1.379 . S
C420 N427 1.356 . S
C421 C420 1.363 . S
C421 C424 1.363 . S
N422 C424 1.356 . S
N422 H434 0.984 . S
N422 H435 0.985 . S
N423 C425 1.356 . S
N423 H428 0.984 . S
N423 H429 0.985 . S
C424 C418 1.379 . S
C424 C421 1.363 . S
C424 N422 1.356 . S
C425 C419 1.363 . S
C425 C420 1.379 . S
C425 N423 1.356 . S
N426 C418 1.356 . S
N426 H432 0.984 . S
N426 H433 0.984 . S
N427 C420 1.356 . S
N427 H430 0.984 . S
N427 H431 0.985 . S
H428 N423 0.984 . S
H429 N423 0.985 . S
H430 N427 0.984 . S
H431 N427 0.985 . S
H432 N426 0.984 . S
H433 N426 0.984 . S
H434 N422 0.984 . S
H435 N422 0.985 . S
C436 C437 1.363 . S
C436 C442 1.379 . S
C436 N444 1.356 . S
C437 C436 1.363 . S
C437 C443 1.363 . S
C438 C439 1.363 . S
C438 C443 1.379 . S
C438 N445 1.356 1_545 S
C439 C438 1.363 . S
C439 C442 1.363 . S
N440 C442 1.356 . S
N440 H452 0.984 . S
N440 H453 0.985 . S
N441 C443 1.356 1_565 S
N441 H446 0.984 . S
N441 H447 0.985 . S
C442 C436 1.379 . S
C442 C439 1.363 . S
C442 N440 1.356 . S
C443 C437 1.363 . S
C443 C438 1.379 . S
C443 N441 1.356 1_545 S
N444 C436 1.356 . S
N444 H450 0.984 . S
N444 H451 0.984 . S
N445 C438 1.356 1_565 S
N445 H448 0.984 . S
N445 H449 0.985 . S
H446 N441 0.984 . S
H447 N441 0.985 . S
H448 N445 0.984 . S
H449 N445 0.985 . S
H450 N444 0.984 . S
H451 N444 0.984 . S
H452 N440 0.984 . S
H453 N440 0.985 . S
C454 C455 1.363 . S
C454 C460 1.379 . S
C454 N462 1.356 . S
C455 C454 1.363 . S
C455 C461 1.363 . S
C456 C457 1.363 . S
C456 C461 1.379 . S
C456 N463 1.356 . S
C457 C456 1.363 . S
C457 C460 1.363 . S
N458 C460 1.356 . S
N458 H470 0.984 . S
N458 H471 0.985 . S
N459 C461 1.356 . S
N459 H464 0.984 . S
N459 H465 0.985 . S
C460 C454 1.379 . S
C460 C457 1.363 . S
C460 N458 1.356 . S
C461 C455 1.363 . S
C461 C456 1.379 . S
C461 N459 1.356 . S
N462 C454 1.356 . S
N462 H468 0.984 . S
N462 H469 0.984 . S
N463 C456 1.356 . S
N463 H466 0.984 . S
N463 H467 0.985 . S
H464 N459 0.984 . S
H465 N459 0.985 . S
H466 N463 0.984 . S
H467 N463 0.985 . S
H468 N462 0.984 . S
H469 N462 0.984 . S
H470 N458 0.984 . S
H471 N458 0.985 . S
C472 C473 1.363 . S
C472 C478 1.379 . S
C472 N480 1.356 . S
C473 C472 1.363 . S
C473 C479 1.363 . S
C474 C475 1.363 . S
C474 C479 1.379 . S
C474 N481 1.356 . S
C475 C474 1.363 . S
C475 C478 1.363 . S
N476 C478 1.356 . S
N476 H488 0.984 . S
N476 H489 0.985 . S
N477 C479 1.356 . S
N477 H482 0.984 . S
N477 H483 0.985 . S
C478 C472 1.379 . S
C478 C475 1.363 . S
C478 N476 1.356 . S
C479 C473 1.363 . S
C479 C474 1.379 . S
C479 N477 1.356 . S
N480 C472 1.356 . S
N480 H486 0.984 . S
N480 H487 0.984 . S
N481 C474 1.356 . S
N481 H484 0.984 . S
N481 H485 0.985 . S
H482 N477 0.984 . S
H483 N477 0.985 . S
H484 N481 0.984 . S
H485 N481 0.985 . S
H486 N480 0.984 . S
H487 N480 0.984 . S
H488 N476 0.984 . S
H489 N476 0.985 . S
C490 C491 1.363 . S
C490 C496 1.379 . S
C490 N498 1.356 . S
C491 C490 1.363 . S
C491 C497 1.363 . S
C492 C493 1.363 . S
C492 C497 1.379 . S
C492 N499 1.356 . S
C493 C492 1.363 . S
C493 C496 1.363 . S
N494 C496 1.356 1_565 S
N494 H506 0.984 . S
N494 H507 0.985 . S
N495 C497 1.356 . S
N495 H500 0.984 . S
N495 H501 0.985 . S
C496 C490 1.379 . S
C496 C493 1.363 . S
C496 N494 1.356 1_545 S
C497 C491 1.363 . S
C497 C492 1.379 . S
C497 N495 1.356 . S
N498 C490 1.356 . S
N498 H504 0.984 1_545 S
N498 H505 0.984 . S
N499 C492 1.356 . S
N499 H502 0.984 . S
N499 H503 0.985 . S
H500 N495 0.984 . S
H501 N495 0.985 . S
H502 N499 0.984 . S
H503 N499 0.985 . S
H504 N498 0.984 1_565 S
H505 N498 0.984 . S
H506 N494 0.984 . S
H507 N494 0.985 . S
C508 C509 1.363 . S
C508 C514 1.379 . S
C508 N516 1.356 . S
C509 C508 1.363 . S
C509 C515 1.363 . S
C510 C511 1.363 . S
C510 C515 1.379 . S
C510 N517 1.356 . S
C511 C510 1.363 . S
C511 C514 1.363 . S
N512 C514 1.356 . S
N512 H524 0.984 . S
N512 H525 0.985 . S
N513 C515 1.356 . S
N513 H518 0.984 . S
N513 H519 0.985 . S
C514 C508 1.379 . S
C514 C511 1.363 . S
C514 N512 1.356 . S
C515 C509 1.363 . S
C515 C510 1.379 . S
C515 N513 1.356 . S
N516 C508 1.356 . S
N516 H522 0.984 . S
N516 H523 0.984 . S
N517 C510 1.356 . S
N517 H520 0.984 . S
N517 H521 0.985 . S
H518 N513 0.984 . S
H519 N513 0.985 . S
H520 N517 0.984 . S
H521 N517 0.985 . S
H522 N516 0.984 . S
H523 N516 0.984 . S
H524 N512 0.984 . S
H525 N512 0.985 . S
C526 C527 1.363 . S
C526 C532 1.379 . S
C526 N534 1.356 . S
C527 C526 1.363 . S
C527 C533 1.363 . S
C528 C529 1.363 . S
C528 C533 1.379 . S
C528 N535 1.356 1_565 S
C529 C528 1.363 . S
C529 C532 1.363 . S
N530 C532 1.356 . S
N530 H542 0.984 . S
N530 H543 0.985 . S
N531 C533 1.356 1_545 S
N531 H536 0.984 . S
N531 H537 0.985 . S
C532 C526 1.379 . S
C532 C529 1.363 . S
C532 N530 1.356 . S
C533 C527 1.363 . S
C533 C528 1.379 . S
C533 N531 1.356 1_565 S
N534 C526 1.356 . S
N534 H540 0.984 . S
N534 H541 0.984 . S
N535 C528 1.356 1_545 S
N535 H538 0.984 . S
N535 H539 0.985 . S
H536 N531 0.984 . S
H537 N531 0.985 . S
H538 N535 0.984 . S
H539 N535 0.985 . S
H540 N534 0.984 . S
H541 N534 0.984 . S
H542 N530 0.984 . S
H543 N530 0.985 . S
C331 C223 1.727 . S
C329 C135 1.685 . S
C347 C15 1.682 . S
C349 C318 1.709 . S
C365 C55 1.681 . S
C367 C234 1.713 . S
C383 C95 1.696 . S
C385 C307 1.733 . S
C403 C218 1.451 . S
C401 C2 1.568 . S
C421 C311 1.649 . S
C419 C42 1.649 . S
C437 C82 1.679 . S
C439 C227 1.698 . S
C455 C141 1.515 . S
C457 C302 1.429 . S
C475 C313 1.444 . S
C473 C61 1.564 . S
C493 C229 1.476 . S
C491 C101 1.594 . S
C511 C300 1.675 . S
C509 C122 1.617 . S
C527 C21 1.717 . S
C529 C216 1.721 . S
