# Generated by pormake.
# Topology eea, (3,6)-cn, num edge types: 1
# Building blocks:
#     Node 0, Type 0, BuildingBlock: OLANEW_clean_sbu_2, # of connection points: 3
#     Node 1, Type 0, BuildingBlock: OLANEW_clean_sbu_2, # of connection points: 3
#     Node 2, Type 0, BuildingBlock: OLANEW_clean_sbu_2, # of connection points: 3
#     Node 3, Type 0, BuildingBlock: OLANEW_clean_sbu_2, # of connection points: 3
#     Node 4, Type 0, BuildingBlock: OLANEW_clean_sbu_2, # of connection points: 3
#     Node 5, Type 0, BuildingBlock: OLANEW_clean_sbu_2, # of connection points: 3
#     Node 6, Type 0, BuildingBlock: OLANEW_clean_sbu_2, # of connection points: 3
#     Node 7, Type 0, BuildingBlock: OLANEW_clean_sbu_2, # of connection points: 3
#     Node 8, Type 0, BuildingBlock: OLANEW_clean_sbu_2, # of connection points: 3
#     Node 9, Type 0, BuildingBlock: OLANEW_clean_sbu_2, # of connection points: 3
#     Node 10, Type 0, BuildingBlock: OLANEW_clean_sbu_2, # of connection points: 3
#     Node 11, Type 0, BuildingBlock: OLANEW_clean_sbu_2, # of connection points: 3
#     Node 12, Type 0, BuildingBlock: OLANEW_clean_sbu_2, # of connection points: 3
#     Node 13, Type 0, BuildingBlock: OLANEW_clean_sbu_2, # of connection points: 3
#     Node 14, Type 0, BuildingBlock: OLANEW_clean_sbu_2, # of connection points: 3
#     Node 15, Type 0, BuildingBlock: OLANEW_clean_sbu_2, # of connection points: 3
#     Node 16, Type 0, BuildingBlock: OLANEW_clean_sbu_2, # of connection points: 3
#     Node 17, Type 0, BuildingBlock: OLANEW_clean_sbu_2, # of connection points: 3
#     Node 18, Type 1, BuildingBlock: CUKXOW_clean_sbu_0, # of connection points: 6
#     Node 19, Type 1, BuildingBlock: CUKXOW_clean_sbu_0, # of connection points: 6
#     Node 20, Type 1, BuildingBlock: CUKXOW_clean_sbu_0, # of connection points: 6
#     Node 21, Type 1, BuildingBlock: CUKXOW_clean_sbu_0, # of connection points: 6
#     Node 22, Type 1, BuildingBlock: CUKXOW_clean_sbu_0, # of connection points: 6
#     Node 23, Type 1, BuildingBlock: CUKXOW_clean_sbu_0, # of connection points: 6
#     Node 24, Type 1, BuildingBlock: CUKXOW_clean_sbu_0, # of connection points: 6
#     Node 25, Type 1, BuildingBlock: CUKXOW_clean_sbu_0, # of connection points: 6
#     Node 26, Type 1, BuildingBlock: CUKXOW_clean_sbu_0, # of connection points: 6
#     Edge 27, Type (0, 1), None
#     Edge 28, Type (0, 1), None
#     Edge 29, Type (0, 1), None
#     Edge 30, Type (0, 1), None
#     Edge 31, Type (0, 1), None
#     Edge 32, Type (0, 1), None
#     Edge 33, Type (0, 1), None
#     Edge 34, Type (0, 1), None
#     Edge 35, Type (0, 1), None
#     Edge 36, Type (0, 1), None
#     Edge 37, Type (0, 1), None
#     Edge 38, Type (0, 1), None
#     Edge 39, Type (0, 1), None
#     Edge 40, Type (0, 1), None
#     Edge 41, Type (0, 1), None
#     Edge 42, Type (0, 1), None
#     Edge 43, Type (0, 1), None
#     Edge 44, Type (0, 1), None
#     Edge 45, Type (0, 1), None
#     Edge 46, Type (0, 1), None
#     Edge 47, Type (0, 1), None
#     Edge 48, Type (0, 1), None
#     Edge 49, Type (0, 1), None
#     Edge 50, Type (0, 1), None
#     Edge 51, Type (0, 1), None
#     Edge 52, Type (0, 1), None
#     Edge 53, Type (0, 1), None
#     Edge 54, Type (0, 1), None
#     Edge 55, Type (0, 1), None
#     Edge 56, Type (0, 1), None
#     Edge 57, Type (0, 1), None
#     Edge 58, Type (0, 1), None
#     Edge 59, Type (0, 1), None
#     Edge 60, Type (0, 1), None
#     Edge 61, Type (0, 1), None
#     Edge 62, Type (0, 1), None
#     Edge 63, Type (0, 1), None
#     Edge 64, Type (0, 1), None
#     Edge 65, Type (0, 1), None
#     Edge 66, Type (0, 1), None
#     Edge 67, Type (0, 1), None
#     Edge 68, Type (0, 1), None
#     Edge 69, Type (0, 1), None
#     Edge 70, Type (0, 1), None
#     Edge 71, Type (0, 1), None
#     Edge 72, Type (0, 1), None
#     Edge 73, Type (0, 1), None
#     Edge 74, Type (0, 1), None
#     Edge 75, Type (0, 1), None
#     Edge 76, Type (0, 1), None
#     Edge 77, Type (0, 1), None
#     Edge 78, Type (0, 1), None
#     Edge 79, Type (0, 1), None
#     Edge 80, Type (0, 1), None
# Relax obj value: 0.015
# Max RMSD: 0.116
# Mean RMSD: 0.046
data_MOF--net-eea--node1-OLANEW_clean_sbu_2--node2-CUKXOW_clean_sbu_0--edge1-none
_symmetry_space_group_name_H-M    P1
_symmetry_Int_Tables_number       1
_symmetry_cell_setting            triclinic
loop_
_symmetry_equiv_pos_as_xyz
'x, y, z'
_cell_length_a     34.480949
_cell_length_b     30.105878
_cell_length_c     21.719249
_cell_angle_alpha  98.095598
_cell_angle_beta   94.511488
_cell_angle_gamma 120.49745
loop_
_atom_site_label
_atom_site_type_symbol
_atom_site_fract_x
_atom_site_fract_y
_atom_site_fract_z
_atom_type_partial_charge
O0 O 0.26301 0.16413 0.50654 0.0
Cd1 Cd 0.22203 0.14955 0.40035 0.0
O2 O 0.29326 0.12775 0.44805 0.0
Cd3 Cd 0.26126 0.10355 0.34805 0.0
O4 O 0.21094 0.01782 0.3169 0.0
C5 C 0.21843 -0.0038 0.35869 0.0
O6 O 0.25451 0.02595 0.40331 0.0
C7 C 0.28952 0.14659 0.50188 0.0
C8 C 0.19537 0.21646 0.3624 0.0
O9 O 0.18477 0.19799 0.41213 0.0
O10 O 0.22072 0.2058 0.33135 0.0
O11 O 0.87622 0.16313 0.48741 0.0
Cd12 Cd 0.90859 0.1243 0.42002 0.0
O13 O 0.84589 0.08902 0.52188 0.0
Cd14 Cd 0.86829 0.04515 0.46226 0.0
O15 O 0.81316 0.98792 0.38598 0.0
C16 C 0.77326 0.9765 0.39433 0.0
O17 O 0.76864 -0.00132 0.44742 0.0
C18 C 0.85046 0.13358 0.52118 0.0
C19 C 0.98383 0.18713 0.36661 0.0
O20 O 0.95835 0.20359 0.3855 0.0
O21 O 0.97499 0.14199 0.37473 0.0
O22 O 0.8857 0.69482 0.51602 0.0
Cd23 Cd 0.90466 0.7249 0.41536 0.0
O24 O 0.82155 0.66295 0.45239 0.0
Cd25 Cd 0.78614 0.65301 0.36098 0.0
O26 O 0.77891 0.71524 0.33474 0.0
C27 C 0.75609 0.72596 0.37019 0.0
O28 O 0.73951 0.69842 0.4136 0.0
C29 C 0.84232 0.66875 0.50624 0.0
C30 C 0.98621 0.7589 0.36663 0.0
O31 O 0.98643 0.76934 0.42587 0.0
O32 O 0.94755 0.7302 0.32971 0.0
O33 O 0.15481 0.29014 0.52112 0.0
Cd34 Cd 0.145 0.25615 0.61837 0.0
O35 O 0.13525 0.34876 0.54685 0.0
Cd36 Cd 0.10709 0.31764 0.62826 0.0
O37 O 0.04735 0.2662 0.66726 0.0
C38 C 0.01123 0.26205 0.64081 0.0
O39 O 0.01382 0.28893 0.59694 0.0
C40 C 0.14967 0.327 0.50854 0.0
C41 C 0.2081 0.22813 0.65907 0.0
O42 O 0.18813 0.21394 0.60162 0.0
O43 O 0.20015 0.2574 0.69786 0.0
O44 O 0.72029 0.82422 0.53644 0.0
Cd45 Cd 0.78478 0.85716 0.61965 0.0
O46 O 0.75961 0.89631 0.49983 0.0
Cd47 Cd 0.82284 0.93516 0.57034 0.0
O48 O 0.83203 -0.00197 0.64504 0.0
C49 C 0.80428 0.01256 0.63094 0.0
O50 O 0.77688 0.99021 0.57603 0.0
C51 C 0.72248 0.8531 0.4982 0.0
C52 C 0.79862 0.78016 0.65467 0.0
O53 O 0.75817 0.77147 0.64423 0.0
O54 O 0.83182 0.82466 0.64891 0.0
O55 O 0.10394 0.82236 0.49394 0.0
Cd56 Cd 0.08594 0.84058 0.59779 0.0
O57 O 0.16729 0.86062 0.5635 0.0
Cd58 Cd 0.19003 0.88804 0.66567 0.0
O59 O 0.21311 0.9721 0.69428 0.0
C60 C 0.23574 -0.00677 0.65245 0.0
O61 O 0.24293 0.96346 0.61038 0.0
C62 C 0.14683 0.84215 0.50655 0.0
C63 C 0.00645 0.79018 0.64729 0.0
O64 O 0.00526 0.80063 0.59225 0.0
O65 O 0.04433 0.80011 0.67721 0.0
O66 O 0.92976 0.49748 0.83984 0.0
Cd67 Cd 0.88872 0.48288 0.73367 0.0
O68 O 0.96 0.46107 0.78138 0.0
Cd69 Cd 0.92786 0.43684 0.68144 0.0
O70 O 0.87754 0.35111 0.65026 0.0
C71 C 0.88508 0.3295 0.69202 0.0
O72 O 0.92118 0.35927 0.73661 0.0
C73 C 0.95628 0.47994 0.8352 0.0
C74 C 0.86206 0.5498 0.69575 0.0
O75 O 0.85144 0.5313 0.74546 0.0
O76 O 0.88743 0.53917 0.66471 0.0
O77 O 0.54293 0.49649 0.82076 0.0
Cd78 Cd 0.57526 0.45764 0.75336 0.0
O79 O 0.51253 0.42235 0.85519 0.0
Cd80 Cd 0.53496 0.37848 0.79563 0.0
O81 O 0.47984 0.32129 0.71932 0.0
C82 C 0.43994 0.30987 0.72767 0.0
O83 O 0.43532 0.33202 0.78077 0.0
C84 C 0.51713 0.46692 0.8545 0.0
C85 C 0.6505 0.52047 0.69995 0.0
O86 O 0.62502 0.53693 0.71884 0.0
O87 O 0.64167 0.47533 0.70809 0.0
O88 O 0.55264 0.02809 0.85037 0.0
Cd89 Cd 0.57136 0.0582 0.74894 0.0
O90 O 0.48998 -0.00253 0.7848 0.0
Cd91 Cd 0.45227 0.98617 0.69471 0.0
O92 O 0.44552 0.04855 0.66808 0.0
C93 C 0.42274 0.05931 0.70356 0.0
O94 O 0.40615 0.03174 0.74694 0.0
C95 C 0.50931 0.00229 0.83935 0.0
C96 C 0.65287 0.09225 0.69997 0.0
O97 O 0.65311 0.10268 0.75921 0.0
O98 O 0.61421 0.06355 0.66306 0.0
O99 O 0.82152 0.62354 0.8545 0.0
Cd100 Cd 0.8117 0.58957 0.95177 0.0
O101 O 0.8019 0.68212 0.88019 0.0
Cd102 Cd 0.77375 0.65089 0.96155 0.0
O103 O 0.71403 0.59944 0.00054 0.0
C104 C 0.67793 0.59537 0.97414 0.0
O105 O 0.68054 0.62229 0.93031 0.0
C106 C 0.81635 0.66038 0.8419 0.0
C107 C 0.87474 0.56144 0.99239 0.0
O108 O 0.85478 0.5473 0.93495 0.0
O109 O 0.86682 0.59071 0.03122 0.0
O110 O 0.38694 0.15756 0.86987 0.0
Cd111 Cd 0.45147 0.19051 0.95301 0.0
O112 O 0.42627 0.22959 0.83316 0.0
Cd113 Cd 0.48951 0.26844 0.90363 0.0
O114 O 0.49892 0.33142 0.97833 0.0
C115 C 0.47118 0.34598 0.96426 0.0
O116 O 0.44369 0.32356 0.90943 0.0
C117 C 0.38912 0.18641 0.83159 0.0
C118 C 0.4653 0.11351 0.98801 0.0
O119 O 0.42485 0.10482 0.97755 0.0
O120 O 0.49851 0.15802 0.98229 0.0
O121 O 0.77062 0.15577 0.82726 0.0
Cd122 Cd 0.75261 0.17397 0.93112 0.0
O123 O 0.83396 0.19396 0.89681 0.0
Cd124 Cd 0.85673 0.22137 -0.00103 0.0
O125 O 0.87981 0.30543 0.02759 0.0
C126 C 0.90242 0.32656 0.98574 0.0
O127 O 0.9096 0.2968 0.94364 0.0
C128 C 0.8135 0.1755 0.83986 0.0
C129 C 0.67311 0.12351 0.9806 0.0
O130 O 0.67192 0.13398 0.92557 0.0
O131 O 0.711 0.13344 0.01052 0.0
O132 O 0.59649 0.83115 0.17338 0.0
Cd133 Cd 0.55545 0.81636 0.0672 0.0
O134 O 0.62636 0.79431 0.1148 0.0
Cd135 Cd 0.59488 0.77013 0.01458 0.0
O136 O 0.54448 0.68443 0.98342 0.0
C137 C 0.55176 0.66283 0.0254 0.0
O138 O 0.58775 0.69257 0.07015 0.0
C139 C 0.62281 0.81334 0.16864 0.0
C140 C 0.5287 0.88314 0.0291 0.0
O141 O 0.51806 0.86465 0.07881 0.0
O142 O 0.55413 0.87256 -0.00185 0.0
O143 O 0.20887 0.82928 0.15322 0.0
Cd144 Cd 0.2419 0.7908 0.08653 0.0
O145 O 0.17958 0.75584 0.18905 0.0
Cd146 Cd 0.20171 0.71209 0.12867 0.0
O147 O 0.14653 0.65481 0.05248 0.0
C148 C 0.10666 0.6433 0.06109 0.0
O149 O 0.10216 0.66555 0.11422 0.0
C150 C 0.18369 0.8001 0.18778 0.0
C151 C 0.31716 0.85371 0.03321 0.0
O152 O 0.2918 0.87024 0.05243 0.0
O153 O 0.3082 0.80844 0.04095 0.0
O154 O 0.21933 0.36162 0.18384 0.0
Cd155 Cd 0.23804 0.39155 0.0823 0.0
O156 O 0.15675 0.33066 0.118 0.0
Cd157 Cd 0.11875 0.31889 0.02787 0.0
O158 O 0.1122 0.38169 0.00151 0.0
C159 C 0.08945 0.39257 0.03696 0.0
O160 O 0.07282 0.36503 0.08034 0.0
C161 C 0.17601 0.33561 0.17266 0.0
C162 C 0.31955 0.42559 0.03332 0.0
O163 O 0.31979 0.43605 0.09255 0.0
O164 O 0.28088 0.39687 0.99642 0.0
O165 O 0.48828 0.95706 0.18799 0.0
Cd166 Cd 0.47845 0.92313 0.28532 0.0
O167 O 0.46847 0.01546 0.21348 0.0
Cd168 Cd 0.44036 0.98395 0.29474 0.0
O169 O 0.38064 0.93245 0.33377 0.0
C170 C 0.34459 0.92857 0.30754 0.0
O171 O 0.34727 0.95565 0.26387 0.0
C172 C 0.48302 -0.00619 0.17527 0.0
C173 C 0.54141 0.89484 0.32581 0.0
O174 O 0.5214 0.8807 0.2684 0.0
O175 O 0.53356 0.92416 0.36468 0.0
O176 O 0.05367 0.49094 0.20318 0.0
Cd177 Cd 0.11817 0.52387 0.28634 0.0
O178 O 0.09297 0.56303 0.16657 0.0
Cd179 Cd 0.1562 0.60184 0.23706 0.0
O180 O 0.16542 0.66477 0.31167 0.0
C181 C 0.13755 0.67918 0.29774 0.0
O182 O 0.10993 0.65663 0.24301 0.0
C183 C 0.05584 0.51982 0.16495 0.0
C184 C 0.13198 0.44685 0.32135 0.0
O185 O 0.09153 0.43817 0.31089 0.0
O186 O 0.16518 0.49134 0.31562 0.0
O187 O 0.43736 0.48911 0.16076 0.0
Cd188 Cd 0.4193 0.50728 0.26456 0.0
O189 O 0.50083 0.52735 0.23012 0.0
Cd190 Cd 0.52315 0.55464 0.33236 0.0
O191 O 0.54639 0.63875 0.36094 0.0
C192 C 0.56907 0.65987 0.31914 0.0
O193 O 0.57626 0.63009 0.27709 0.0
C194 C 0.48024 0.50884 0.17323 0.0
C195 C 0.33978 0.45684 0.31398 0.0
O196 O 0.3386 0.46729 0.25894 0.0
O197 O 0.37765 0.46677 0.34392 0.0
Tb198 Tb 0.54653 0.04051 0.02785 0.0
C199 C 0.51651 0.92061 0.01342 0.0
Tb200 Tb 0.44092 0.95124 0.98601 0.0
O201 O 0.53975 0.0587 0.12649 0.0
O202 O 0.49275 0.98674 0.06779 0.0
O203 O 0.55057 0.97047 0.02324 0.0
C204 C 0.35772 0.88759 0.00814 0.0
O205 O 0.47229 0.90485 0.0021 0.0
C206 C 0.48232 0.9821 0.8892 0.0
C207 C 0.47412 0.07258 2e-05 0.0
O208 O 0.38144 0.87201 0.97848 0.0
O209 O 0.37987 0.93866 0.02272 0.0
O210 O 0.43896 0.94542 0.88178 0.0
O211 O 0.49677 -0.00271 0.94736 0.0
O212 O 0.43935 0.02404 -0.00159 0.0
O213 O 0.51727 0.08578 0.00466 0.0
C214 C 0.63122 0.09611 0.00588 0.0
O215 O 0.60802 0.11632 0.02661 0.0
O216 O 0.60747 0.04555 -0.00047 0.0
C217 C 0.49978 0.0156 0.12037 0.0
Tb218 Tb 0.96044 0.50616 0.02918 0.0
C219 C 0.06742 0.59308 0.0268 0.0
Tb220 Tb 0.03157 0.47312 0.98434 0.0
O221 O 0.98205 0.51202 0.13157 0.0
O222 O 0.0165 0.50509 0.06262 0.0
O223 O 0.02548 0.58237 0.03525 0.0
C224 C 0.07332 0.42656 0.02193 0.0
O225 O 0.07756 0.55709 0.00654 0.0
C226 C 0.98231 0.47694 0.88941 0.0
C227 C 0.93185 0.38399 0.99276 0.0
O228 O 0.08619 0.45637 0.98012 0.0
O229 O 0.03815 0.42408 0.04231 0.0
O230 O 0.01408 0.46575 0.88301 0.0
O231 O 0.97876 0.48182 0.94701 0.0
O232 O 0.97123 0.39748 0.97473 0.0
O233 O 0.91924 0.41813 0.0137 0.0
C234 C 0.90618 0.54474 0.01228 0.0
O235 O 0.89499 0.50215 0.03341 0.0
O236 O 0.94732 0.56494 0.00045 0.0
C237 C 0.01538 0.5047 0.11949 0.0
Tb238 Tb 0.44857 0.48297 0.98799 0.0
C239 C 0.48045 0.39755 0.99504 0.0
Tb240 Tb 0.55446 0.51878 0.03309 0.0
O241 O 0.45519 0.47779 0.88632 0.0
O242 O 0.50193 0.48243 0.9552 0.0
O243 O 0.44688 0.40766 0.9853 0.0
C244 C 0.6342 0.56533 0.99488 0.0
O245 O 0.52452 0.43436 0.0133 0.0
C246 C 0.50837 0.51483 0.12438 0.0
C247 C 0.53098 0.60562 0.01721 0.0
O248 O 0.62452 0.53492 0.03604 0.0
O249 O 0.59944 0.56868 0.97609 0.0
O250 O 0.55024 0.52446 0.13453 0.0
O251 O 0.4994 0.51674 0.06809 0.0
O252 O 0.56138 0.59339 0.03399 0.0
O253 O 0.48567 0.57083 0.00101 0.0
C254 C 0.36273 0.44265 0.00988 0.0
O255 O 0.38398 0.48251 0.98268 0.0
O256 O 0.38968 0.42622 0.02439 0.0
C257 C 0.49622 0.48508 0.89893 0.0
Tb258 Tb 0.21321 0.37386 0.36122 0.0
C259 C 0.18319 0.25393 0.34675 0.0
Tb260 Tb 0.10759 0.28455 0.31933 0.0
O261 O 0.20642 0.39195 0.45986 0.0
O262 O 0.15942 0.32002 0.40108 0.0
O263 O 0.21725 0.3038 0.35659 0.0
C264 C 0.02438 0.22096 0.34149 0.0
O265 O 0.13897 0.23817 0.33539 0.0
C266 C 0.14898 0.31561 0.22256 0.0
C267 C 0.14078 0.40592 0.33339 0.0
O268 O 0.0481 0.20534 0.3119 0.0
O269 O 0.04653 0.27203 0.35597 0.0
O270 O 0.10566 0.27882 0.21512 0.0
O271 O 0.16343 0.33072 0.28073 0.0
O272 O 0.10601 0.35736 0.33174 0.0
O273 O 0.18395 0.41914 0.33807 0.0
C274 C 0.29788 0.42944 0.33923 0.0
O275 O 0.27471 0.44967 0.36002 0.0
O276 O 0.27411 0.37888 0.33283 0.0
C277 C 0.16645 0.34884 0.45368 0.0
Tb278 Tb 0.62708 0.83947 0.36246 0.0
C279 C 0.73403 0.92639 0.35981 0.0
Tb280 Tb 0.69815 0.80642 0.31756 0.0
O281 O 0.64859 0.84503 0.46476 0.0
O282 O 0.68336 0.83874 0.3959 0.0
O283 O 0.6921 0.91568 0.36834 0.0
C284 C 0.73993 0.75991 0.35516 0.0
O285 O 0.74414 0.89039 0.3395 0.0
C286 C 0.64884 0.81025 0.22274 0.0
C287 C 0.59849 0.71729 0.32613 0.0
O288 O 0.75277 0.78966 0.31329 0.0
O289 O 0.70479 0.75745 0.37558 0.0
O290 O 0.68063 0.79911 0.21624 0.0
O291 O 0.64522 0.81488 0.28031 0.0
O292 O 0.63786 0.73077 0.30807 0.0
O293 O 0.58589 0.75144 0.34702 0.0
C294 C 0.57283 0.87808 0.34562 0.0
O295 O 0.56164 0.83549 0.36672 0.0
O296 O 0.61397 0.89828 0.33379 0.0
C297 C 0.68203 0.83793 0.45266 0.0
Tb298 Tb 0.11525 0.81639 0.32138 0.0
C299 C 0.14682 0.73076 0.32849 0.0
Tb300 Tb 0.22104 0.85206 0.36645 0.0
O301 O 0.122 0.81145 0.21976 0.0
O302 O 0.1685 0.81553 0.28854 0.0
O303 O 0.1133 0.74094 0.31862 0.0
C304 C 0.30084 0.89855 0.32827 0.0
O305 O 0.1909 0.76755 0.3468 0.0
C306 C 0.17503 0.84824 0.45776 0.0
C307 C 0.19764 0.93898 0.35048 0.0
O308 O 0.2911 0.8681 0.36939 0.0
O309 O 0.26611 0.90195 0.30949 0.0
O310 O 0.21685 0.85773 0.4679 0.0
O311 O 0.16611 0.8503 0.4015 0.0
O312 O 0.22802 0.9267 0.36716 0.0
O313 O 0.15233 0.90423 0.3344 0.0
C314 C 0.02939 0.776 0.34321 0.0
O315 O 0.05063 0.81586 0.31601 0.0
O316 O 0.05637 0.75962 0.35778 0.0
C317 C 0.1629 0.81839 0.23233 0.0
Tb318 Tb 0.87995 0.70725 0.69467 0.0
C319 C 0.84987 0.58728 0.68012 0.0
Tb320 Tb 0.77429 0.61792 0.65273 0.0
O321 O 0.87309 0.72532 0.79323 0.0
O322 O 0.82611 0.65338 0.73445 0.0
O323 O 0.88393 0.63715 0.68996 0.0
C324 C 0.69106 0.5543 0.67483 0.0
O325 O 0.80564 0.57151 0.66877 0.0
C326 C 0.81596 0.64868 0.55633 0.0
C327 C 0.80745 0.73924 0.66671 0.0
O328 O 0.71479 0.53869 0.64525 0.0
O329 O 0.71321 0.60537 0.68931 0.0
O330 O 0.77257 0.61221 0.54872 0.0
O331 O 0.8303 0.66408 0.61441 0.0
O332 O 0.77268 0.69069 0.66507 0.0
O333 O 0.85061 0.75246 0.67139 0.0
C334 C 0.96456 0.76279 0.67256 0.0
O335 O 0.94139 0.78303 0.69333 0.0
O336 O 0.94081 0.71223 0.66621 0.0
C337 C 0.83312 0.68221 0.78704 0.0
Tb338 Tb 0.29378 0.17282 0.69579 0.0
C339 C 0.40072 0.25976 0.69312 0.0
Tb340 Tb 0.36484 0.13979 0.65095 0.0
O341 O 0.31517 0.17818 0.79807 0.0
O342 O 0.35014 0.17225 0.7293 0.0
O343 O 0.35878 0.24904 0.70168 0.0
C344 C 0.40661 0.09327 0.68855 0.0
O345 O 0.41083 0.22377 0.67282 0.0
C346 C 0.31555 0.14355 0.55605 0.0
C347 C 0.26517 0.05065 0.65947 0.0
O348 O 0.41946 0.12303 0.64669 0.0
O349 O 0.37147 0.09081 0.70898 0.0
O350 O 0.34738 0.13247 0.54962 0.0
O351 O 0.3119 0.1482 0.61362 0.0
O352 O 0.30455 0.06413 0.64146 0.0
O353 O 0.25256 0.08479 0.68035 0.0
C354 C 0.23954 0.21145 0.67901 0.0
O355 O 0.22834 0.16883 0.70004 0.0
O356 O 0.28069 0.23167 0.66722 0.0
C357 C 0.34869 0.17121 0.78599 0.0
Tb358 Tb 0.78188 0.14967 0.65467 0.0
C359 C 0.81353 0.06411 0.66175 0.0
Tb360 Tb 0.88774 0.1854 0.69979 0.0
O361 O 0.78855 0.14452 0.55302 0.0
O362 O 0.83521 0.14902 0.62189 0.0
O363 O 0.77999 0.07426 0.65193 0.0
C364 C 0.96749 0.23197 0.66154 0.0
O365 O 0.85761 0.10091 0.68007 0.0
C366 C 0.84169 0.18157 0.79108 0.0
C367 C 0.86429 0.27228 0.68385 0.0
O368 O 0.95781 0.20154 0.7027 0.0
O369 O 0.93272 0.23529 0.64276 0.0
O370 O 0.88354 0.19113 0.80124 0.0
O371 O 0.83274 0.18346 0.73477 0.0
O372 O 0.89466 0.26002 0.70066 0.0
O373 O 0.81898 0.23751 0.66764 0.0
C374 C 0.69605 0.10934 0.67655 0.0
O375 O 0.71729 0.14918 0.64933 0.0
O376 O 0.72302 0.09294 0.69111 0.0
C377 C 0.82955 0.15173 0.56564 0.0
loop_
_geom_bond_atom_site_label_1
_geom_bond_atom_site_label_2
_geom_bond_distance
_geom_bond_site_symmetry_2
_ccdc_geom_bond_type
O0 Cd1 2.300 . S
O0 C7 1.275 . S
Cd1 O0 2.300 . S
Cd1 O9 2.381 . S
Cd1 O10 2.378 . S
O2 Cd3 2.385 . S
O2 C7 1.255 . S
Cd3 O2 2.385 . S
Cd3 O4 2.317 . S
O4 Cd3 2.317 . S
O4 C5 1.232 1_545 S
C5 O4 1.232 1_565 S
C5 O6 1.218 . S
O6 C5 1.218 . S
C7 O0 1.275 . S
C7 O2 1.255 . S
C8 O9 1.258 . S
C8 O10 1.256 . S
O9 Cd1 2.381 . S
O9 C8 1.258 . S
O10 Cd1 2.378 . S
O10 C8 1.256 . S
O11 Cd12 2.300 . S
O11 C18 1.275 . S
Cd12 O11 2.300 . S
Cd12 O20 2.381 . S
Cd12 O21 2.378 . S
O13 Cd14 2.385 . S
O13 C18 1.255 . S
Cd14 O13 2.385 . S
Cd14 O15 2.317 1_545 S
O15 Cd14 2.317 1_565 S
O15 C16 1.232 . S
C16 O15 1.232 . S
C16 O17 1.218 . S
O17 C16 1.218 . S
C18 O11 1.275 . S
C18 O13 1.255 . S
C19 O20 1.258 . S
C19 O21 1.256 . S
O20 Cd12 2.381 . S
O20 C19 1.258 . S
O21 Cd12 2.378 . S
O21 C19 1.256 . S
O22 Cd23 2.300 . S
O22 C29 1.275 . S
Cd23 O22 2.300 . S
Cd23 O31 2.381 . S
Cd23 O32 2.378 . S
O24 Cd25 2.385 . S
O24 C29 1.255 . S
Cd25 O24 2.385 . S
Cd25 O26 2.317 . S
O26 Cd25 2.317 . S
O26 C27 1.232 . S
C27 O26 1.232 . S
C27 O28 1.218 . S
O28 C27 1.218 . S
C29 O22 1.275 . S
C29 O24 1.255 . S
C30 O31 1.258 . S
C30 O32 1.256 . S
O31 Cd23 2.381 . S
O31 C30 1.258 . S
O32 Cd23 2.378 . S
O32 C30 1.256 . S
O33 Cd34 2.300 . S
O33 C40 1.275 . S
Cd34 O33 2.300 . S
Cd34 O42 2.381 . S
Cd34 O43 2.378 . S
O35 Cd36 2.385 . S
O35 C40 1.255 . S
Cd36 O35 2.385 . S
Cd36 O37 2.317 . S
O37 Cd36 2.317 . S
O37 C38 1.232 . S
C38 O37 1.232 . S
C38 O39 1.218 . S
O39 C38 1.218 . S
C40 O33 1.275 . S
C40 O35 1.255 . S
C41 O42 1.258 . S
C41 O43 1.256 . S
O42 Cd34 2.381 . S
O42 C41 1.258 . S
O43 Cd34 2.378 . S
O43 C41 1.256 . S
O44 Cd45 2.300 . S
O44 C51 1.275 . S
Cd45 O44 2.300 . S
Cd45 O53 2.381 . S
Cd45 O54 2.378 . S
O46 Cd47 2.385 . S
O46 C51 1.255 . S
Cd47 O46 2.385 . S
Cd47 O48 2.317 1_565 S
O48 Cd47 2.317 1_545 S
O48 C49 1.232 . S
C49 O48 1.232 . S
C49 O50 1.218 . S
O50 C49 1.218 . S
C51 O44 1.275 . S
C51 O46 1.255 . S
C52 O53 1.258 . S
C52 O54 1.256 . S
O53 Cd45 2.381 . S
O53 C52 1.258 . S
O54 Cd45 2.378 . S
O54 C52 1.256 . S
O55 Cd56 2.300 . S
O55 C62 1.275 . S
Cd56 O55 2.300 . S
Cd56 O64 2.381 . S
Cd56 O65 2.378 . S
O57 Cd58 2.385 . S
O57 C62 1.255 . S
Cd58 O57 2.385 . S
Cd58 O59 2.317 . S
O59 Cd58 2.317 . S
O59 C60 1.232 1_565 S
C60 O59 1.232 1_545 S
C60 O61 1.218 . S
O61 C60 1.218 . S
C62 O55 1.275 . S
C62 O57 1.255 . S
C63 O64 1.258 . S
C63 O65 1.256 . S
O64 Cd56 2.381 . S
O64 C63 1.258 . S
O65 Cd56 2.378 . S
O65 C63 1.256 . S
O66 Cd67 2.300 . S
O66 C73 1.275 . S
Cd67 O66 2.300 . S
Cd67 O75 2.381 . S
Cd67 O76 2.378 . S
O68 Cd69 2.385 . S
O68 C73 1.255 . S
Cd69 O68 2.385 . S
Cd69 O70 2.317 . S
O70 Cd69 2.317 . S
O70 C71 1.232 . S
C71 O70 1.232 . S
C71 O72 1.218 . S
O72 C71 1.218 . S
C73 O66 1.275 . S
C73 O68 1.255 . S
C74 O75 1.258 . S
C74 O76 1.256 . S
O75 Cd67 2.381 . S
O75 C74 1.258 . S
O76 Cd67 2.378 . S
O76 C74 1.256 . S
O77 Cd78 2.300 . S
O77 C84 1.275 . S
Cd78 O77 2.300 . S
Cd78 O86 2.381 . S
Cd78 O87 2.378 . S
O79 Cd80 2.385 . S
O79 C84 1.255 . S
Cd80 O79 2.385 . S
Cd80 O81 2.317 . S
O81 Cd80 2.317 . S
O81 C82 1.232 . S
C82 O81 1.232 . S
C82 O83 1.218 . S
O83 C82 1.218 . S
C84 O77 1.275 . S
C84 O79 1.255 . S
C85 O86 1.258 . S
C85 O87 1.256 . S
O86 Cd78 2.381 . S
O86 C85 1.258 . S
O87 Cd78 2.378 . S
O87 C85 1.256 . S
O88 Cd89 2.300 . S
O88 C95 1.275 . S
Cd89 O88 2.300 . S
Cd89 O97 2.381 . S
Cd89 O98 2.378 . S
O90 Cd91 2.385 1_545 S
O90 C95 1.255 . S
Cd91 O90 2.385 1_565 S
Cd91 O92 2.317 1_565 S
O92 Cd91 2.317 1_545 S
O92 C93 1.232 . S
C93 O92 1.232 . S
C93 O94 1.218 . S
O94 C93 1.218 . S
C95 O88 1.275 . S
C95 O90 1.255 . S
C96 O97 1.258 . S
C96 O98 1.256 . S
O97 Cd89 2.381 . S
O97 C96 1.258 . S
O98 Cd89 2.378 . S
O98 C96 1.256 . S
O99 Cd100 2.300 . S
O99 C106 1.275 . S
Cd100 O99 2.300 . S
Cd100 O108 2.381 . S
Cd100 O109 2.378 1_556 S
O101 Cd102 2.385 . S
O101 C106 1.255 . S
Cd102 O101 2.385 . S
Cd102 O103 2.317 . S
O103 Cd102 2.317 . S
O103 C104 1.232 . S
C104 O103 1.232 . S
C104 O105 1.218 . S
O105 C104 1.218 . S
C106 O99 1.275 . S
C106 O101 1.255 . S
C107 O108 1.258 . S
C107 O109 1.256 1_556 S
O108 Cd100 2.381 . S
O108 C107 1.258 . S
O109 Cd100 2.378 1_554 S
O109 C107 1.256 1_554 S
O110 Cd111 2.300 . S
O110 C117 1.275 . S
Cd111 O110 2.300 . S
Cd111 O119 2.381 . S
Cd111 O120 2.378 . S
O112 Cd113 2.385 . S
O112 C117 1.255 . S
Cd113 O112 2.385 . S
Cd113 O114 2.317 . S
O114 Cd113 2.317 . S
O114 C115 1.232 . S
C115 O114 1.232 . S
C115 O116 1.218 . S
O116 C115 1.218 . S
C117 O110 1.275 . S
C117 O112 1.255 . S
C118 O119 1.258 . S
C118 O120 1.256 . S
O119 Cd111 2.381 . S
O119 C118 1.258 . S
O120 Cd111 2.378 . S
O120 C118 1.256 . S
O121 Cd122 2.300 . S
O121 C128 1.275 . S
Cd122 O121 2.300 . S
Cd122 O130 2.381 . S
Cd122 O131 2.378 1_556 S
O123 Cd124 2.385 . S
O123 C128 1.255 . S
Cd124 O123 2.385 . S
Cd124 O125 2.317 1_556 S
O125 Cd124 2.317 1_554 S
O125 C126 1.232 1_554 S
C126 O125 1.232 1_556 S
C126 O127 1.218 . S
O127 C126 1.218 . S
C128 O121 1.275 . S
C128 O123 1.255 . S
C129 O130 1.258 . S
C129 O131 1.256 1_556 S
O130 Cd122 2.381 . S
O130 C129 1.258 . S
O131 Cd122 2.378 1_554 S
O131 C129 1.256 1_554 S
O132 Cd133 2.300 . S
O132 C139 1.275 . S
Cd133 O132 2.300 . S
Cd133 O141 2.381 . S
Cd133 O142 2.378 1_554 S
O134 Cd135 2.385 . S
O134 C139 1.255 . S
Cd135 O134 2.385 . S
Cd135 O136 2.317 . S
O136 Cd135 2.317 . S
O136 C137 1.232 . S
C137 O136 1.232 . S
C137 O138 1.218 . S
O138 C137 1.218 . S
C139 O132 1.275 . S
C139 O134 1.255 . S
C140 O141 1.258 . S
C140 O142 1.256 1_554 S
O141 Cd133 2.381 . S
O141 C140 1.258 . S
O142 Cd133 2.378 1_556 S
O142 C140 1.256 1_556 S
O143 Cd144 2.300 . S
O143 C150 1.275 . S
Cd144 O143 2.300 . S
Cd144 O152 2.381 . S
Cd144 O153 2.378 . S
O145 Cd146 2.385 . S
O145 C150 1.255 . S
Cd146 O145 2.385 . S
Cd146 O147 2.317 . S
O147 Cd146 2.317 . S
O147 C148 1.232 . S
C148 O147 1.232 . S
C148 O149 1.218 . S
O149 C148 1.218 . S
C150 O143 1.275 . S
C150 O145 1.255 . S
C151 O152 1.258 . S
C151 O153 1.256 . S
O152 Cd144 2.381 . S
O152 C151 1.258 . S
O153 Cd144 2.378 . S
O153 C151 1.256 . S
O154 Cd155 2.300 . S
O154 C161 1.275 . S
Cd155 O154 2.300 . S
Cd155 O163 2.381 . S
Cd155 O164 2.377 1_554 S
O156 Cd157 2.385 . S
O156 C161 1.255 . S
Cd157 O156 2.385 . S
Cd157 O158 2.317 . S
O158 Cd157 2.317 . S
O158 C159 1.232 . S
C159 O158 1.232 . S
C159 O160 1.218 . S
O160 C159 1.218 . S
C161 O154 1.275 . S
C161 O156 1.255 . S
C162 O163 1.258 . S
C162 O164 1.255 1_554 S
O163 Cd155 2.381 . S
O163 C162 1.258 . S
O164 Cd155 2.377 1_556 S
O164 C162 1.255 1_556 S
O165 Cd166 2.300 . S
O165 C172 1.275 . S
Cd166 O165 2.300 . S
Cd166 O174 2.381 . S
Cd166 O175 2.378 . S
O167 Cd168 2.385 . S
O167 C172 1.255 1_545 S
Cd168 O167 2.385 . S
Cd168 O169 2.317 1_545 S
O169 Cd168 2.317 1_565 S
O169 C170 1.232 . S
C170 O169 1.232 . S
C170 O171 1.218 . S
O171 C170 1.218 . S
C172 O165 1.275 . S
C172 O167 1.255 1_565 S
C173 O174 1.258 . S
C173 O175 1.256 . S
O174 Cd166 2.381 . S
O174 C173 1.258 . S
O175 Cd166 2.378 . S
O175 C173 1.256 . S
O176 Cd177 2.300 . S
O176 C183 1.275 . S
Cd177 O176 2.300 . S
Cd177 O185 2.381 . S
Cd177 O186 2.378 . S
O178 Cd179 2.385 . S
O178 C183 1.255 . S
Cd179 O178 2.385 . S
Cd179 O180 2.317 . S
O180 Cd179 2.317 . S
O180 C181 1.232 . S
C181 O180 1.232 . S
C181 O182 1.218 . S
O182 C181 1.218 . S
C183 O176 1.275 . S
C183 O178 1.255 . S
C184 O185 1.258 . S
C184 O186 1.256 . S
O185 Cd177 2.381 . S
O185 C184 1.258 . S
O186 Cd177 2.378 . S
O186 C184 1.256 . S
O187 Cd188 2.300 . S
O187 C194 1.275 . S
Cd188 O187 2.300 . S
Cd188 O196 2.381 . S
Cd188 O197 2.378 . S
O189 Cd190 2.385 . S
O189 C194 1.255 . S
Cd190 O189 2.385 . S
Cd190 O191 2.317 . S
O191 Cd190 2.317 . S
O191 C192 1.232 . S
C192 O191 1.232 . S
C192 O193 1.218 . S
O193 C192 1.218 . S
C194 O187 1.275 . S
C194 O189 1.255 . S
C195 O196 1.258 . S
C195 O197 1.256 . S
O196 Cd188 2.381 . S
O196 C195 1.258 . S
O197 Cd188 2.378 . S
O197 C195 1.256 . S
Tb198 O201 2.453 . S
Tb198 O202 2.596 1_545 S
Tb198 O203 2.374 1_545 S
Tb198 O211 2.343 1_554 S
Tb198 O213 2.353 . S
Tb198 O215 2.427 . S
Tb198 O216 2.513 1_554 S
C199 O203 1.251 . S
C199 O205 1.263 1_554 S
Tb200 O202 2.343 1_556 S
Tb200 O205 2.353 . S
Tb200 O208 2.427 1_556 S
Tb200 O209 2.513 1_556 S
Tb200 O210 2.453 . S
Tb200 O211 2.596 1_565 S
Tb200 O212 2.374 1_565 S
O201 Tb198 2.453 . S
O201 C217 1.245 1_545 S
O202 Tb198 2.596 1_565 S
O202 Tb200 2.343 1_554 S
O202 C217 1.259 . S
O203 Tb198 2.374 1_565 S
O203 C199 1.251 . S
C204 O208 1.275 . S
C204 O209 1.246 . S
O205 C199 1.263 1_556 S
O205 Tb200 2.353 . S
C206 O210 1.245 1_545 S
C206 O211 1.259 . S
C207 O212 1.250 1_554 S
C207 O213 1.263 . S
O208 Tb200 2.427 1_554 S
O208 C204 1.275 . S
O209 Tb200 2.513 1_554 S
O209 C204 1.246 . S
O210 Tb200 2.453 . S
O210 C206 1.245 1_565 S
O211 Tb198 2.343 1_556 S
O211 Tb200 2.596 1_545 S
O211 C206 1.259 . S
O212 Tb200 2.374 1_545 S
O212 C207 1.250 1_556 S
O213 Tb198 2.353 . S
O213 C207 1.263 . S
C214 O215 1.275 1_556 S
C214 O216 1.246 . S
O215 Tb198 2.427 . S
O215 C214 1.275 1_554 S
O216 Tb198 2.513 1_556 S
O216 C214 1.246 . S
C217 O201 1.245 1_565 S
C217 O202 1.259 . S
Tb218 O221 2.453 1_655 S
Tb218 O222 2.596 1_655 S
Tb218 O223 2.374 1_655 S
Tb218 O231 2.343 1_554 S
Tb218 O233 2.353 . S
Tb218 O235 2.427 . S
Tb218 O236 2.513 . S
C219 O223 1.251 . S
C219 O225 1.256 1_554 S
Tb220 O222 2.343 1_556 S
Tb220 O225 2.353 . S
Tb220 O228 2.427 1_556 S
Tb220 O229 2.513 1_556 S
Tb220 O230 2.440 1_455 S
Tb220 O231 2.596 1_455 S
Tb220 O232 2.374 1_455 S
O221 Tb218 2.453 1_455 S
O221 C237 1.245 . S
O222 Tb218 2.596 1_455 S
O222 Tb220 2.343 1_554 S
O222 C237 1.259 . S
O223 Tb218 2.374 1_455 S
O223 C219 1.251 . S
C224 O228 1.275 . S
C224 O229 1.246 . S
O225 C219 1.256 1_556 S
O225 Tb220 2.353 . S
C226 O230 1.268 . S
C226 O231 1.259 . S
C227 O232 1.250 1_554 S
C227 O233 1.263 . S
O228 Tb220 2.427 1_554 S
O228 C224 1.275 . S
O229 Tb220 2.513 1_554 S
O229 C224 1.246 . S
O230 Tb220 2.440 1_655 S
O230 C226 1.268 . S
O231 Tb218 2.343 1_556 S
O231 Tb220 2.596 1_655 S
O231 C226 1.259 . S
O232 Tb220 2.374 1_655 S
O232 C227 1.250 1_556 S
O233 Tb218 2.353 . S
O233 C227 1.263 . S
C234 O235 1.275 1_556 S
C234 O236 1.246 1_556 S
O235 Tb218 2.427 . S
O235 C234 1.275 1_554 S
O236 Tb218 2.513 . S
O236 C234 1.246 1_554 S
C237 O221 1.245 . S
C237 O222 1.259 . S
Tb238 O241 2.453 . S
Tb238 O242 2.596 . S
Tb238 O243 2.374 . S
Tb238 O251 2.343 1_556 S
Tb238 O253 2.353 . S
Tb238 O255 2.427 1_556 S
Tb238 O256 2.513 1_556 S
C239 O243 1.251 . S
C239 O245 1.263 1_556 S
Tb240 O242 2.343 1_554 S
Tb240 O245 2.353 . S
Tb240 O248 2.427 1_554 S
Tb240 O249 2.513 1_554 S
Tb240 O250 2.453 . S
Tb240 O251 2.596 . S
Tb240 O252 2.374 . S
O241 Tb238 2.453 . S
O241 C257 1.245 . S
O242 Tb238 2.596 . S
O242 Tb240 2.343 1_556 S
O242 C257 1.259 . S
O243 Tb238 2.374 . S
O243 C239 1.251 . S
C244 O248 1.275 . S
C244 O249 1.246 . S
O245 C239 1.263 1_554 S
O245 Tb240 2.353 . S
C246 O250 1.245 . S
C246 O251 1.259 . S
C247 O252 1.250 . S
C247 O253 1.263 1_554 S
O248 Tb240 2.427 1_556 S
O248 C244 1.275 . S
O249 Tb240 2.513 1_556 S
O249 C244 1.246 . S
O250 Tb240 2.453 . S
O250 C246 1.245 . S
O251 Tb238 2.343 1_554 S
O251 Tb240 2.596 . S
O251 C246 1.259 . S
O252 Tb240 2.374 . S
O252 C247 1.250 . S
O253 Tb238 2.353 . S
O253 C247 1.263 1_556 S
C254 O255 1.275 . S
C254 O256 1.246 . S
O255 Tb238 2.427 1_554 S
O255 C254 1.275 . S
O256 Tb238 2.513 1_554 S
O256 C254 1.246 . S
C257 O241 1.245 . S
C257 O242 1.259 . S
Tb258 O261 2.453 . S
Tb258 O262 2.596 . S
Tb258 O263 2.374 . S
Tb258 O271 2.343 . S
Tb258 O273 2.353 . S
Tb258 O275 2.427 . S
Tb258 O276 2.513 . S
C259 O263 1.251 . S
C259 O265 1.263 . S
Tb260 O262 2.343 . S
Tb260 O265 2.353 . S
Tb260 O268 2.427 . S
Tb260 O269 2.513 . S
Tb260 O270 2.453 . S
Tb260 O271 2.596 . S
Tb260 O272 2.374 . S
O261 Tb258 2.453 . S
O261 C277 1.245 . S
O262 Tb258 2.596 . S
O262 Tb260 2.343 . S
O262 C277 1.259 . S
O263 Tb258 2.374 . S
O263 C259 1.251 . S
C264 O268 1.275 . S
C264 O269 1.246 . S
O265 C259 1.263 . S
O265 Tb260 2.353 . S
C266 O270 1.245 . S
C266 O271 1.259 . S
C267 O272 1.250 . S
C267 O273 1.263 . S
O268 Tb260 2.427 . S
O268 C264 1.275 . S
O269 Tb260 2.513 . S
O269 C264 1.246 . S
O270 Tb260 2.453 . S
O270 C266 1.245 . S
O271 Tb258 2.343 . S
O271 Tb260 2.596 . S
O271 C266 1.259 . S
O272 Tb260 2.374 . S
O272 C267 1.250 . S
O273 Tb258 2.353 . S
O273 C267 1.263 . S
C274 O275 1.275 . S
C274 O276 1.246 . S
O275 Tb258 2.427 . S
O275 C274 1.275 . S
O276 Tb258 2.513 . S
O276 C274 1.246 . S
C277 O261 1.245 . S
C277 O262 1.259 . S
Tb278 O281 2.453 . S
Tb278 O282 2.596 . S
Tb278 O283 2.374 . S
Tb278 O291 2.343 . S
Tb278 O293 2.353 . S
Tb278 O295 2.427 . S
Tb278 O296 2.513 . S
C279 O283 1.251 . S
C279 O285 1.263 . S
Tb280 O282 2.343 . S
Tb280 O285 2.353 . S
Tb280 O288 2.427 . S
Tb280 O289 2.513 . S
Tb280 O290 2.453 . S
Tb280 O291 2.596 . S
Tb280 O292 2.374 . S
O281 Tb278 2.453 . S
O281 C297 1.245 . S
O282 Tb278 2.596 . S
O282 Tb280 2.343 . S
O282 C297 1.259 . S
O283 Tb278 2.374 . S
O283 C279 1.251 . S
C284 O288 1.275 . S
C284 O289 1.246 . S
O285 C279 1.263 . S
O285 Tb280 2.353 . S
C286 O290 1.245 . S
C286 O291 1.259 . S
C287 O292 1.250 . S
C287 O293 1.263 . S
O288 Tb280 2.427 . S
O288 C284 1.275 . S
O289 Tb280 2.513 . S
O289 C284 1.246 . S
O290 Tb280 2.453 . S
O290 C286 1.245 . S
O291 Tb278 2.343 . S
O291 Tb280 2.596 . S
O291 C286 1.259 . S
O292 Tb280 2.374 . S
O292 C287 1.250 . S
O293 Tb278 2.353 . S
O293 C287 1.263 . S
C294 O295 1.275 . S
C294 O296 1.246 . S
O295 Tb278 2.427 . S
O295 C294 1.275 . S
O296 Tb278 2.513 . S
O296 C294 1.246 . S
C297 O281 1.245 . S
C297 O282 1.259 . S
Tb298 O301 2.453 . S
Tb298 O302 2.596 . S
Tb298 O303 2.374 . S
Tb298 O311 2.343 . S
Tb298 O313 2.353 . S
Tb298 O315 2.427 . S
Tb298 O316 2.513 . S
C299 O303 1.251 . S
C299 O305 1.263 . S
Tb300 O302 2.343 . S
Tb300 O305 2.353 . S
Tb300 O308 2.427 . S
Tb300 O309 2.513 . S
Tb300 O310 2.453 . S
Tb300 O311 2.596 . S
Tb300 O312 2.374 . S
O301 Tb298 2.453 . S
O301 C317 1.245 . S
O302 Tb298 2.596 . S
O302 Tb300 2.343 . S
O302 C317 1.259 . S
O303 Tb298 2.374 . S
O303 C299 1.251 . S
C304 O308 1.275 . S
C304 O309 1.246 . S
O305 C299 1.263 . S
O305 Tb300 2.353 . S
C306 O310 1.245 . S
C306 O311 1.259 . S
C307 O312 1.250 . S
C307 O313 1.263 . S
O308 Tb300 2.427 . S
O308 C304 1.275 . S
O309 Tb300 2.513 . S
O309 C304 1.246 . S
O310 Tb300 2.453 . S
O310 C306 1.245 . S
O311 Tb298 2.343 . S
O311 Tb300 2.596 . S
O311 C306 1.259 . S
O312 Tb300 2.374 . S
O312 C307 1.250 . S
O313 Tb298 2.353 . S
O313 C307 1.263 . S
C314 O315 1.275 . S
C314 O316 1.246 . S
O315 Tb298 2.427 . S
O315 C314 1.275 . S
O316 Tb298 2.513 . S
O316 C314 1.246 . S
C317 O301 1.245 . S
C317 O302 1.259 . S
Tb318 O321 2.453 . S
Tb318 O322 2.596 . S
Tb318 O323 2.374 . S
Tb318 O331 2.343 . S
Tb318 O333 2.353 . S
Tb318 O335 2.427 . S
Tb318 O336 2.513 . S
C319 O323 1.251 . S
C319 O325 1.263 . S
Tb320 O322 2.343 . S
Tb320 O325 2.353 . S
Tb320 O328 2.427 . S
Tb320 O329 2.513 . S
Tb320 O330 2.453 . S
Tb320 O331 2.596 . S
Tb320 O332 2.374 . S
O321 Tb318 2.453 . S
O321 C337 1.245 . S
O322 Tb318 2.596 . S
O322 Tb320 2.343 . S
O322 C337 1.259 . S
O323 Tb318 2.374 . S
O323 C319 1.251 . S
C324 O328 1.275 . S
C324 O329 1.246 . S
O325 C319 1.263 . S
O325 Tb320 2.353 . S
C326 O330 1.245 . S
C326 O331 1.259 . S
C327 O332 1.250 . S
C327 O333 1.263 . S
O328 Tb320 2.427 . S
O328 C324 1.275 . S
O329 Tb320 2.513 . S
O329 C324 1.246 . S
O330 Tb320 2.453 . S
O330 C326 1.245 . S
O331 Tb318 2.343 . S
O331 Tb320 2.596 . S
O331 C326 1.259 . S
O332 Tb320 2.374 . S
O332 C327 1.250 . S
O333 Tb318 2.353 . S
O333 C327 1.263 . S
C334 O335 1.275 . S
C334 O336 1.246 . S
O335 Tb318 2.427 . S
O335 C334 1.275 . S
O336 Tb318 2.513 . S
O336 C334 1.246 . S
C337 O321 1.245 . S
C337 O322 1.259 . S
Tb338 O341 2.453 . S
Tb338 O342 2.596 . S
Tb338 O343 2.374 . S
Tb338 O351 2.343 . S
Tb338 O353 2.353 . S
Tb338 O355 2.427 . S
Tb338 O356 2.513 . S
C339 O343 1.251 . S
C339 O345 1.263 . S
Tb340 O342 2.343 . S
Tb340 O345 2.353 . S
Tb340 O348 2.427 . S
Tb340 O349 2.513 . S
Tb340 O350 2.453 . S
Tb340 O351 2.596 . S
Tb340 O352 2.374 . S
O341 Tb338 2.453 . S
O341 C357 1.245 . S
O342 Tb338 2.596 . S
O342 Tb340 2.343 . S
O342 C357 1.259 . S
O343 Tb338 2.374 . S
O343 C339 1.251 . S
C344 O348 1.275 . S
C344 O349 1.246 . S
O345 C339 1.263 . S
O345 Tb340 2.353 . S
C346 O350 1.245 . S
C346 O351 1.259 . S
C347 O352 1.250 . S
C347 O353 1.263 . S
O348 Tb340 2.427 . S
O348 C344 1.275 . S
O349 Tb340 2.513 . S
O349 C344 1.246 . S
O350 Tb340 2.453 . S
O350 C346 1.245 . S
O351 Tb338 2.343 . S
O351 Tb340 2.596 . S
O351 C346 1.259 . S
O352 Tb340 2.374 . S
O352 C347 1.250 . S
O353 Tb338 2.353 . S
O353 C347 1.263 . S
C354 O355 1.275 . S
C354 O356 1.246 . S
O355 Tb338 2.427 . S
O355 C354 1.275 . S
O356 Tb338 2.513 . S
O356 C354 1.246 . S
C357 O341 1.245 . S
C357 O342 1.259 . S
Tb358 O361 2.453 . S
Tb358 O362 2.596 . S
Tb358 O363 2.374 . S
Tb358 O371 2.343 . S
Tb358 O373 2.353 . S
Tb358 O375 2.427 . S
Tb358 O376 2.513 . S
C359 O363 1.251 . S
C359 O365 1.263 . S
Tb360 O362 2.343 . S
Tb360 O365 2.353 . S
Tb360 O368 2.427 . S
Tb360 O369 2.513 . S
Tb360 O370 2.453 . S
Tb360 O371 2.596 . S
Tb360 O372 2.374 . S
O361 Tb358 2.453 . S
O361 C377 1.245 . S
O362 Tb358 2.596 . S
O362 Tb360 2.343 . S
O362 C377 1.259 . S
O363 Tb358 2.374 . S
O363 C359 1.251 . S
C364 O368 1.275 . S
C364 O369 1.246 . S
O365 C359 1.263 . S
O365 Tb360 2.353 . S
C366 O370 1.245 . S
C366 O371 1.259 . S
C367 O372 1.250 . S
C367 O373 1.263 . S
O368 Tb360 2.427 . S
O368 C364 1.275 . S
O369 Tb360 2.513 . S
O369 C364 1.246 . S
O370 Tb360 2.453 . S
O370 C366 1.245 . S
O371 Tb358 2.343 . S
O371 Tb360 2.596 . S
O371 C366 1.259 . S
O372 Tb360 2.374 . S
O372 C367 1.250 . S
O373 Tb358 2.353 . S
O373 C367 1.263 . S
C374 O375 1.275 . S
C374 O376 1.246 . S
O375 Tb358 2.427 . S
O375 C374 1.275 . S
O376 Tb358 2.513 . S
O376 C374 1.246 . S
C377 O361 1.245 . S
C377 O362 1.259 . S
C151 C204 1.257 . S
C159 C224 1.659 . S
C137 C247 1.358 . S
C126 C227 1.325 1_556 S
C244 C104 1.903 . S
C118 C207 1.324 1_556 S
C214 C129 1.635 . S
C234 C107 1.457 . S
C115 C239 1.146 . S
C148 C219 1.028 . S
C162 C254 1.593 . S
C199 C140 1.601 . S
C264 C19 1.256 1_455 S
C27 C284 1.659 . S
C5 C307 1.358 . S
C192 C287 1.325 . S
C170 C304 1.904 . S
C184 C267 1.325 . S
C195 C274 1.635 . S
C173 C294 1.457 . S
C299 C181 1.146 . S
C16 C279 1.028 . S
C314 C30 1.593 1_455 S
C8 C259 1.601 . S
C324 C85 1.256 . S
C93 C344 1.659 . S
C367 C71 1.358 . S
C347 C60 1.325 . S
C364 C38 1.904 1_655 S
C52 C327 1.324 . S
C63 C334 1.635 1_455 S
C41 C354 1.457 . S
C359 C49 1.146 . S
C82 C339 1.028 . S
C96 C374 1.593 . S
C74 C319 1.601 . S
C172 C217 1.442 . S
C237 C183 1.349 . S
C194 C246 1.451 . S
C73 C226 1.598 . S
C84 C257 1.157 . S
C206 C95 1.418 . S
C40 C277 1.442 . S
C51 C297 1.348 . S
C62 C306 1.450 . S
C139 C286 1.598 . S
C317 C150 1.157 . S
C161 C266 1.418 . S
C106 C337 1.442 . S
C117 C357 1.348 . S
C366 C128 1.451 . S
C7 C346 1.598 . S
C18 C377 1.157 . S
C29 C326 1.418 . S
