# Generated by pormake.
# Topology ibd, (4,6)-cn, num edge types: 1
# Building blocks:
#     Node 0, Type 0, BuildingBlock: KUFVIS_clean_sbu_0, # of connection points: 4
#     Node 1, Type 0, BuildingBlock: KUFVIS_clean_sbu_0, # of connection points: 4
#     Node 2, Type 0, BuildingBlock: KUFVIS_clean_sbu_0, # of connection points: 4
#     Node 3, Type 0, BuildingBlock: KUFVIS_clean_sbu_0, # of connection points: 4
#     Node 4, Type 0, BuildingBlock: KUFVIS_clean_sbu_0, # of connection points: 4
#     Node 5, Type 0, BuildingBlock: KUFVIS_clean_sbu_0, # of connection points: 4
#     Node 6, Type 0, BuildingBlock: KUFVIS_clean_sbu_0, # of connection points: 4
#     Node 7, Type 0, BuildingBlock: KUFVIS_clean_sbu_0, # of connection points: 4
#     Node 8, Type 0, BuildingBlock: KUFVIS_clean_sbu_0, # of connection points: 4
#     Node 9, Type 0, BuildingBlock: KUFVIS_clean_sbu_0, # of connection points: 4
#     Node 10, Type 0, BuildingBlock: KUFVIS_clean_sbu_0, # of connection points: 4
#     Node 11, Type 0, BuildingBlock: KUFVIS_clean_sbu_0, # of connection points: 4
#     Node 12, Type 0, BuildingBlock: KUFVIS_clean_sbu_0, # of connection points: 4
#     Node 13, Type 0, BuildingBlock: KUFVIS_clean_sbu_0, # of connection points: 4
#     Node 14, Type 0, BuildingBlock: KUFVIS_clean_sbu_0, # of connection points: 4
#     Node 15, Type 0, BuildingBlock: KUFVIS_clean_sbu_0, # of connection points: 4
#     Node 16, Type 0, BuildingBlock: KUFVIS_clean_sbu_0, # of connection points: 4
#     Node 17, Type 0, BuildingBlock: KUFVIS_clean_sbu_0, # of connection points: 4
#     Node 18, Type 0, BuildingBlock: KUFVIS_clean_sbu_0, # of connection points: 4
#     Node 19, Type 0, BuildingBlock: KUFVIS_clean_sbu_0, # of connection points: 4
#     Node 20, Type 0, BuildingBlock: KUFVIS_clean_sbu_0, # of connection points: 4
#     Node 21, Type 0, BuildingBlock: KUFVIS_clean_sbu_0, # of connection points: 4
#     Node 22, Type 0, BuildingBlock: KUFVIS_clean_sbu_0, # of connection points: 4
#     Node 23, Type 0, BuildingBlock: KUFVIS_clean_sbu_0, # of connection points: 4
#     Node 24, Type 1, BuildingBlock: OJICUG_clean_sbu_0, # of connection points: 6
#     Node 25, Type 1, BuildingBlock: OJICUG_clean_sbu_0, # of connection points: 6
#     Node 26, Type 1, BuildingBlock: OJICUG_clean_sbu_0, # of connection points: 6
#     Node 27, Type 1, BuildingBlock: OJICUG_clean_sbu_0, # of connection points: 6
#     Node 28, Type 1, BuildingBlock: OJICUG_clean_sbu_0, # of connection points: 6
#     Node 29, Type 1, BuildingBlock: OJICUG_clean_sbu_0, # of connection points: 6
#     Node 30, Type 1, BuildingBlock: OJICUG_clean_sbu_0, # of connection points: 6
#     Node 31, Type 1, BuildingBlock: OJICUG_clean_sbu_0, # of connection points: 6
#     Node 32, Type 1, BuildingBlock: OJICUG_clean_sbu_0, # of connection points: 6
#     Node 33, Type 1, BuildingBlock: OJICUG_clean_sbu_0, # of connection points: 6
#     Node 34, Type 1, BuildingBlock: OJICUG_clean_sbu_0, # of connection points: 6
#     Node 35, Type 1, BuildingBlock: OJICUG_clean_sbu_0, # of connection points: 6
#     Node 36, Type 1, BuildingBlock: OJICUG_clean_sbu_0, # of connection points: 6
#     Node 37, Type 1, BuildingBlock: OJICUG_clean_sbu_0, # of connection points: 6
#     Node 38, Type 1, BuildingBlock: OJICUG_clean_sbu_0, # of connection points: 6
#     Node 39, Type 1, BuildingBlock: OJICUG_clean_sbu_0, # of connection points: 6
#     Edge 40, Type (0, 1), None
#     Edge 41, Type (0, 1), None
#     Edge 42, Type (0, 1), None
#     Edge 43, Type (0, 1), None
#     Edge 44, Type (0, 1), None
#     Edge 45, Type (0, 1), None
#     Edge 46, Type (0, 1), None
#     Edge 47, Type (0, 1), None
#     Edge 48, Type (0, 1), None
#     Edge 49, Type (0, 1), None
#     Edge 50, Type (0, 1), None
#     Edge 51, Type (0, 1), None
#     Edge 52, Type (0, 1), None
#     Edge 53, Type (0, 1), None
#     Edge 54, Type (0, 1), None
#     Edge 55, Type (0, 1), None
#     Edge 56, Type (0, 1), None
#     Edge 57, Type (0, 1), None
#     Edge 58, Type (0, 1), None
#     Edge 59, Type (0, 1), None
#     Edge 60, Type (0, 1), None
#     Edge 61, Type (0, 1), None
#     Edge 62, Type (0, 1), None
#     Edge 63, Type (0, 1), None
#     Edge 64, Type (0, 1), None
#     Edge 65, Type (0, 1), None
#     Edge 66, Type (0, 1), None
#     Edge 67, Type (0, 1), None
#     Edge 68, Type (0, 1), None
#     Edge 69, Type (0, 1), None
#     Edge 70, Type (0, 1), None
#     Edge 71, Type (0, 1), None
#     Edge 72, Type (0, 1), None
#     Edge 73, Type (0, 1), None
#     Edge 74, Type (0, 1), None
#     Edge 75, Type (0, 1), None
#     Edge 76, Type (0, 1), None
#     Edge 77, Type (0, 1), None
#     Edge 78, Type (0, 1), None
#     Edge 79, Type (0, 1), None
#     Edge 80, Type (0, 1), None
#     Edge 81, Type (0, 1), None
#     Edge 82, Type (0, 1), None
#     Edge 83, Type (0, 1), None
#     Edge 84, Type (0, 1), None
#     Edge 85, Type (0, 1), None
#     Edge 86, Type (0, 1), None
#     Edge 87, Type (0, 1), None
#     Edge 88, Type (0, 1), None
#     Edge 89, Type (0, 1), None
#     Edge 90, Type (0, 1), None
#     Edge 91, Type (0, 1), None
#     Edge 92, Type (0, 1), None
#     Edge 93, Type (0, 1), None
#     Edge 94, Type (0, 1), None
#     Edge 95, Type (0, 1), None
#     Edge 96, Type (0, 1), None
#     Edge 97, Type (0, 1), None
#     Edge 98, Type (0, 1), None
#     Edge 99, Type (0, 1), None
#     Edge 100, Type (0, 1), None
#     Edge 101, Type (0, 1), None
#     Edge 102, Type (0, 1), None
#     Edge 103, Type (0, 1), None
#     Edge 104, Type (0, 1), None
#     Edge 105, Type (0, 1), None
#     Edge 106, Type (0, 1), None
#     Edge 107, Type (0, 1), None
#     Edge 108, Type (0, 1), None
#     Edge 109, Type (0, 1), None
#     Edge 110, Type (0, 1), None
#     Edge 111, Type (0, 1), None
#     Edge 112, Type (0, 1), None
#     Edge 113, Type (0, 1), None
#     Edge 114, Type (0, 1), None
#     Edge 115, Type (0, 1), None
#     Edge 116, Type (0, 1), None
#     Edge 117, Type (0, 1), None
#     Edge 118, Type (0, 1), None
#     Edge 119, Type (0, 1), None
#     Edge 120, Type (0, 1), None
#     Edge 121, Type (0, 1), None
#     Edge 122, Type (0, 1), None
#     Edge 123, Type (0, 1), None
#     Edge 124, Type (0, 1), None
#     Edge 125, Type (0, 1), None
#     Edge 126, Type (0, 1), None
#     Edge 127, Type (0, 1), None
#     Edge 128, Type (0, 1), None
#     Edge 129, Type (0, 1), None
#     Edge 130, Type (0, 1), None
#     Edge 131, Type (0, 1), None
#     Edge 132, Type (0, 1), None
#     Edge 133, Type (0, 1), None
#     Edge 134, Type (0, 1), None
#     Edge 135, Type (0, 1), None
# Relax obj value: 0.373
# Max RMSD: 0.285
# Mean RMSD: 0.281
data_MOF--net-ibd--node1-KUFVIS_clean_sbu_0--node2-OJICUG_clean_sbu_0--edge1-none
_symmetry_space_group_name_H-M    P1
_symmetry_Int_Tables_number       1
_symmetry_cell_setting            triclinic
loop_
_symmetry_equiv_pos_as_xyz
'x, y, z'
_cell_length_a     24.21975
_cell_length_b     24.219987
_cell_length_c     24.219736
_cell_angle_alpha  91.543376
_cell_angle_beta   91.549173
_cell_angle_gamma 91.545574
loop_
_atom_site_label
_atom_site_type_symbol
_atom_site_fract_x
_atom_site_fract_y
_atom_site_fract_z
_atom_type_partial_charge
Mn0 Mn 0.95956 0.21113 0.35804 0.0
Mn1 Mn -0.00352 0.32835 0.31432 0.0
C2 C 0.02919 0.26318 0.41652 0.0
C3 C 0.89643 0.16878 0.41342 0.0
C4 C 0.02405 0.20975 0.25834 0.0
O5 O 0.90742 0.23082 0.28921 0.0
O6 O 0.91863 0.31562 0.31255 0.0
C7 C 0.93342 0.40835 0.38249 0.0
N8 N -0.0181 0.38957 0.36257 0.0
C9 C 0.03204 0.46273 0.41072 0.0
C10 C -0.01635 0.48439 0.42964 0.0
C11 C 0.93452 0.4559 0.417 0.0
C12 C 0.02955 0.41482 0.37741 0.0
H13 H 0.89441 0.38754 0.37264 0.0
C14 C 0.89901 0.2816 0.27888 0.0
O15 O 0.91917 0.14076 0.37426 0.0
O16 O 0.90294 0.22194 0.41345 0.0
N17 N 0.07089 0.34559 0.32558 0.0
C18 C 0.11371 0.31278 0.31499 0.0
C19 C 0.16254 0.32292 0.34463 0.0
C20 C 0.16639 0.36657 0.38418 0.0
C21 C 0.12546 0.40475 0.38642 0.0
C22 C 0.07617 0.39005 0.36032 0.0
H23 H 0.10985 0.27788 0.28662 0.0
O24 O 0.01742 0.21136 0.42203 0.0
O25 O -0.00153 0.2817 0.37675 0.0
O26 O 0.01497 0.18331 0.30172 0.0
O27 O 0.01335 0.26268 0.2576 0.0
C28 C 0.12996 0.45495 0.41623 0.0
C29 C 0.08304 0.48621 0.42484 0.0
H30 H -0.01609 0.52153 0.45567 0.0
H31 H 0.89874 0.47148 0.43497 0.0
H32 H 0.19812 0.29997 0.33401 0.0
H33 H 0.2022 0.37302 0.41025 0.0
H34 H 0.16817 0.46812 0.43435 0.0
H35 H 0.08447 0.52621 0.44495 0.0
Mn36 Mn -0.01228 0.72922 0.58949 0.0
Mn37 Mn 0.94289 0.62677 0.65296 0.0
C38 C 0.9487 0.65226 0.53521 0.0
C39 C 0.01552 0.79427 0.5253 0.0
C40 C 0.05122 0.65305 0.66545 0.0
O41 O 0.94748 0.77493 0.65149 0.0
O42 O 0.94928 0.69823 0.70128 0.0
C43 C 0.83981 0.66638 0.6897 0.0
N44 N 0.8683 0.62947 0.66032 0.0
C45 C 0.79592 0.61152 0.59645 0.0
C46 C 0.76532 0.65112 0.62648 0.0
C47 C 0.78738 0.67837 0.67302 0.0
C48 C 0.84626 0.5994 0.61845 0.0
H49 H 0.85753 0.68647 0.72488 0.0
C50 C 0.93417 0.74906 0.6956 0.0
O51 O 0.04502 0.78568 0.56907 0.0
O52 O 0.96547 0.77315 0.52401 0.0
N53 N 0.93116 0.56032 0.61112 0.0
C54 C 0.96644 0.52131 0.59319 0.0
C55 C 0.94562 0.4777 0.55888 0.0
C56 C 0.88939 0.47595 0.54291 0.0
C57 C 0.85563 0.51904 0.55962 0.0
C58 C 0.87794 0.55877 0.59612 0.0
H59 H 0.00955 0.52323 0.60539 0.0
O60 O -0.00059 0.66995 0.52905 0.0
O61 O 0.93015 0.66824 0.58293 0.0
O62 O 0.03788 0.70096 0.65375 0.0
O63 O 0.02137 0.61654 0.64313 0.0
C64 C 0.80191 0.52718 0.54 0.0
C65 C 0.77768 0.57833 0.55062 0.0
H66 H 0.72221 0.65522 0.62344 0.0
H67 H 0.76418 0.7077 0.69625 0.0
H68 H -0.02733 0.44576 0.54469 0.0
H69 H 0.87335 0.44166 0.51771 0.0
H70 H 0.77955 0.49665 0.51513 0.0
H71 H 0.74386 0.58883 0.52581 0.0
Mn72 Mn 0.45687 0.71199 0.86135 0.0
Mn73 Mn 0.4944 0.82888 0.81636 0.0
C74 C 0.52672 0.76398 0.91891 0.0
C75 C 0.39435 0.66835 0.91576 0.0
C76 C 0.52094 0.70999 0.76213 0.0
O77 O 0.40514 0.73119 0.79223 0.0
O78 O 0.41659 0.81615 0.81483 0.0
C79 C 0.43226 0.90977 0.8843 0.0
N80 N 0.48045 0.89052 0.86433 0.0
C81 C 0.53122 0.96398 0.91141 0.0
C82 C 0.48311 -0.01391 0.93042 0.0
C83 C 0.4338 0.95771 0.91839 0.0
C84 C 0.52828 0.91559 0.87883 0.0
H85 H 0.39329 0.88894 0.87464 0.0
C86 C 0.39742 0.78187 0.78112 0.0
O87 O 0.41751 0.641 0.87641 0.0
O88 O 0.39999 0.7217 0.91642 0.0
N89 N 0.56893 0.84596 0.82708 0.0
C90 C 0.61204 0.8143 0.81444 0.0
C91 C 0.66165 0.82524 0.84254 0.0
C92 C 0.66582 0.86844 0.88259 0.0
C93 C 0.62436 0.90589 0.88629 0.0
C94 C 0.57461 0.89053 0.8616 0.0
H95 H 0.60803 0.77991 0.7854 0.0
O96 O 0.51465 0.71228 0.92501 0.0
O97 O 0.49577 0.78271 0.87941 0.0
O98 O 0.51231 0.6847 0.80613 0.0
O99 O 0.51093 0.7629 0.76 0.0
C100 C 0.62918 0.95652 0.9153 0.0
C101 C 0.58237 -0.0122 0.92424 0.0
H102 H 0.48372 0.02356 0.95597 0.0
H103 H 0.39831 -0.02613 0.93646 0.0
H104 H 0.69733 0.80273 0.83083 0.0
H105 H 0.70222 0.87527 0.90777 0.0
H106 H 0.66772 -0.02949 0.93174 0.0
H107 H 0.58418 0.02848 0.94297 0.0
Mn108 Mn 0.48731 0.22996 0.08876 0.0
Mn109 Mn 0.44035 0.12836 0.15203 0.0
C110 C 0.44788 0.1527 0.03475 0.0
C111 C 0.51621 0.29463 0.02465 0.0
C112 C 0.54933 0.15378 0.16565 0.0
O113 O 0.44757 0.27623 0.15075 0.0
O114 O 0.44705 0.19927 0.20034 0.0
C115 C 0.33627 0.17046 0.18485 0.0
N116 N 0.36533 0.13224 0.15743 0.0
C117 C 0.29161 0.10847 0.09665 0.0
C118 C 0.26115 0.15045 0.12357 0.0
C119 C 0.28365 0.18112 0.16763 0.0
C120 C 0.34348 0.09987 0.11698 0.0
H121 H 0.35313 0.19284 0.2191 0.0
C122 C 0.43371 0.25054 0.19482 0.0
O123 O 0.54536 0.28579 0.06859 0.0
O124 O 0.46604 0.27384 0.02301 0.0
N125 N 0.42921 0.06194 0.1102 0.0
C126 C 0.46525 0.02325 0.09294 0.0
C127 C 0.44541 -0.02115 0.05929 0.0
C128 C 0.38922 -0.02442 0.04363 0.0
C129 C 0.35436 0.01779 0.06022 0.0
C130 C 0.37595 0.05919 0.09543 0.0
H131 H 0.50835 0.02587 0.10516 0.0
O132 O 0.49865 0.17018 0.02857 0.0
O133 O 0.42919 0.16954 0.08204 0.0
O134 O 0.53669 0.20169 0.15333 0.0
O135 O 0.51894 0.11725 0.14415 0.0
C136 C 0.29963 0.02243 0.04255 0.0
C137 C 0.27212 0.07117 0.05485 0.0
H138 H 0.21765 0.15507 0.11932 0.0
H139 H 0.26054 0.21222 0.18862 0.0
H140 H 0.47312 0.94725 0.04566 0.0
H141 H 0.37385 0.94041 0.01924 0.0
H142 H 0.27854 -0.00924 0.01803 0.0
H143 H 0.23452 0.07692 0.03507 0.0
Mn144 Mn -0.02929 0.70667 0.11489 0.0
Mn145 Mn 0.07101 0.75442 0.05023 0.0
C146 C 0.04694 0.74773 0.16833 0.0
C147 C 0.90584 0.67922 0.17827 0.0
C148 C 0.04718 0.64508 0.03737 0.0
O149 O 0.92381 0.74508 0.054 0.0
O150 O -0.00043 0.74629 0.00237 0.0
C151 C 0.02771 0.85744 0.01604 0.0
N152 N 0.06598 0.82922 0.0442 0.0
C153 C 0.0861 0.90271 0.10631 0.0
C154 C 0.04694 0.93357 0.07611 0.0
C155 C 0.01775 0.91082 0.03115 0.0
C156 C 0.09731 0.85179 0.08502 0.0
H157 H 0.00525 0.83942 -0.01745 0.0
C158 C 0.94827 0.75881 0.00939 0.0
O159 O 0.91528 0.64906 0.13516 0.0
O160 O 0.92638 0.72947 0.17949 0.0
N161 N 0.13743 0.76714 0.09186 0.0
C162 C 0.17636 0.73194 0.11026 0.0
C163 C 0.21917 0.75258 0.14558 0.0
C164 C 0.2205 0.80865 0.16184 0.0
C165 C 0.17805 0.84268 0.14388 0.0
C166 C 0.13851 0.82035 0.10701 0.0
H167 H 0.17487 0.68881 0.09806 0.0
O168 O 0.03051 0.6967 0.17515 0.0
O169 O 0.03007 0.76548 0.12057 0.0
O170 O -0.00082 0.65672 0.05052 0.0
O171 O 0.08345 0.67609 0.0585 0.0
C172 C 0.17021 0.89664 0.16296 0.0
C173 C 0.11945 0.92124 0.15181 0.0
H174 H 0.04432 -0.02307 0.07802 0.0
H175 H -0.01158 0.93427 0.00796 0.0
H176 H 0.25081 0.72548 0.16037 0.0
H177 H 0.2538 0.82412 0.18856 0.0
H178 H 0.20073 0.919 0.18787 0.0
H179 H 0.10924 0.95571 0.17586 0.0
Mn180 Mn 0.48887 0.73693 0.34215 0.0
Mn181 Mn 0.372 0.69982 0.38695 0.0
C182 C 0.43637 0.66753 0.28386 0.0
C183 C 0.53146 0.79982 0.28676 0.0
C184 C 0.49086 0.6733 0.44225 0.0
O185 O 0.46936 0.78947 0.41068 0.0
O186 O 0.38428 0.77768 0.38786 0.0
C187 C 0.28817 0.76176 0.32223 0.0
N188 N 0.30931 0.71349 0.3403 0.0
C189 C 0.23649 0.66185 0.29328 0.0
C190 C 0.21285 0.70989 0.27558 0.0
C191 C 0.2398 0.75983 0.2888 0.0
C192 C 0.28489 0.66534 0.32572 0.0
H193 H 0.30764 0.80126 0.33291 0.0
C194 C 0.41856 0.79766 0.42113 0.0
O195 O 0.55952 0.77675 0.3257 0.0
O196 O 0.47829 0.79349 0.28677 0.0
N197 N 0.35603 0.62511 0.37584 0.0
C198 C 0.39052 0.58317 0.38464 0.0
C199 C 0.38287 0.53555 0.35234 0.0
C200 C 0.34122 0.53285 0.31068 0.0
C201 C 0.29971 0.57076 0.31233 0.0
C202 C 0.31161 0.61924 0.34119 0.0
H203 H 0.42475 0.58691 0.41382 0.0
O204 O 0.48832 0.67882 0.27853 0.0
O205 O 0.41776 0.69861 0.32341 0.0
O206 O 0.51695 0.68162 0.39855 0.0
O207 O 0.43807 0.684 0.44307 0.0
C208 C 0.24873 0.5645 0.28402 0.0
C209 C 0.2148 0.61021 0.27847 0.0
H210 H 0.17528 0.70883 0.25016 0.0
H211 H 0.22223 0.79566 0.27249 0.0
H212 H 0.40483 0.49964 0.36352 0.0
H213 H 0.33638 0.49807 0.2828 0.0
H214 H 0.23678 0.5259 0.26532 0.0
H215 H 0.17402 0.60781 0.26021 0.0
Mn216 Mn 0.4704 0.20701 0.61553 0.0
Mn217 Mn 0.56985 0.25688 0.55106 0.0
C218 C 0.54685 0.24855 0.66868 0.0
C219 C 0.40584 0.17845 0.67883 0.0
C220 C 0.54692 0.14696 0.53709 0.0
O221 O 0.42301 0.24482 0.55455 0.0
O222 O 0.49897 0.24851 0.50313 0.0
C223 C 0.52439 0.36072 0.52051 0.0
N224 N 0.56377 0.33202 0.54692 0.0
C225 C 0.58926 0.40684 0.60585 0.0
C226 C 0.5476 0.43741 0.57866 0.0
C227 C 0.51567 0.41432 0.53585 0.0
C228 C 0.59724 0.35449 0.58628 0.0
H229 H 0.49965 0.34329 0.48825 0.0
C230 C 0.44727 0.25905 0.50997 0.0
O231 O 0.41562 0.14863 0.6356 0.0
O232 O 0.426 0.22886 0.68035 0.0
N233 N 0.63619 0.26902 0.59276 0.0
C234 C 0.67482 0.23313 0.61059 0.0
C235 C 0.71837 0.2529 0.6453 0.0
C236 C 0.7211 0.30894 0.66124 0.0
C237 C 0.6795 0.34398 0.64329 0.0
C238 C 0.63843 0.3223 0.60763 0.0
H239 H 0.67268 0.19 0.59843 0.0
O240 O 0.53065 0.19745 0.67555 0.0
O241 O 0.52915 0.26638 0.62132 0.0
O242 O 0.49897 0.15784 0.55092 0.0
O243 O 0.58316 0.17852 0.55738 0.0
C244 C 0.67501 0.3989 0.66038 0.0
C245 C 0.62664 0.42665 0.64737 0.0
H246 H 0.54353 0.48102 0.58224 0.0
H247 H 0.4848 0.43769 0.51456 0.0
H248 H 0.74971 0.22521 0.65959 0.0
H249 H 0.75528 0.32382 0.68713 0.0
H250 H 0.70661 0.42004 0.68498 0.0
H251 H 0.62108 0.46465 0.66653 0.0
Mn252 Mn -0.01203 0.23937 0.83883 0.0
Mn253 Mn 0.87147 0.20167 0.8849 0.0
C254 C 0.93555 0.16968 0.7815 0.0
C255 C 0.03189 0.30158 0.78443 0.0
C256 C -0.00937 0.17619 0.93835 0.0
O257 O -0.03098 0.29157 0.90767 0.0
O258 O 0.88378 0.27948 0.88569 0.0
C259 C 0.78666 0.26295 0.82082 0.0
N260 N 0.80838 0.2149 0.83859 0.0
C261 C 0.73554 0.16273 0.79214 0.0
C262 C 0.71139 0.21053 0.77462 0.0
C263 C 0.73803 0.26064 0.78764 0.0
C264 C 0.78431 0.16661 0.82398 0.0
H265 H 0.80588 0.30244 0.83176 0.0
C266 C 0.91833 0.29901 0.91897 0.0
O267 O 0.05924 0.27813 0.8236 0.0
O268 O -0.02148 0.29617 0.78376 0.0
N269 N 0.85563 0.12686 0.87415 0.0
C270 C 0.88895 0.08443 0.88495 0.0
C271 C 0.88059 0.03601 0.85392 0.0
C272 C 0.83974 0.03324 0.81144 0.0
C273 C 0.79892 0.07182 0.81165 0.0
C274 C 0.81129 0.12074 0.83947 0.0
H275 H 0.92239 0.08813 0.91512 0.0
O276 O -0.01264 0.1813 0.77555 0.0
O277 O 0.9167 0.20105 0.82073 0.0
O278 O 0.01554 0.18401 0.89403 0.0
O279 O 0.93785 0.18612 0.94059 0.0
C280 C 0.74776 0.06535 0.78376 0.0
C281 C 0.71373 0.11095 0.77813 0.0
H282 H 0.67355 0.20917 0.7496 0.0
H283 H 0.7198 0.2962 0.77141 0.0
H284 H 0.9014 -0.00036 0.86638 0.0
H285 H 0.83452 -0.00223 0.78448 0.0
H286 H 0.73546 0.0265 0.766 0.0
H287 H 0.6725 0.10824 0.76094 0.0
Mn288 Mn 0.35654 0.9603 0.21191 0.0
Mn289 Mn 0.31282 -0.00278 0.32913 0.0
C290 C 0.41502 0.02994 0.26396 0.0
C291 C 0.41192 0.89717 0.16955 0.0
C292 C 0.25683 0.02479 0.21053 0.0
O293 O 0.28771 0.90816 0.23161 0.0
O294 O 0.31106 0.91937 0.31641 0.0
C295 C 0.38098 0.93417 0.40917 0.0
N296 N 0.36108 -0.01736 0.39036 0.0
C297 C 0.40923 0.03279 0.46352 0.0
C298 C 0.42814 -0.0156 0.4852 0.0
C299 C 0.41548 0.93527 0.45673 0.0
C300 C 0.37592 0.0303 0.4156 0.0
H301 H 0.37111 0.89515 0.38837 0.0
C302 C 0.27738 0.89975 0.28239 0.0
O303 O 0.37275 0.91992 0.14154 0.0
O304 O 0.41196 0.90369 0.22271 0.0
N305 N 0.32409 0.07163 0.34636 0.0
C306 C 0.31349 0.11445 0.31356 0.0
C307 C 0.34313 0.16328 0.32369 0.0
C308 C 0.38268 0.16713 0.36734 0.0
C309 C 0.38493 0.1262 0.40552 0.0
C310 C 0.35883 0.07691 0.39083 0.0
H311 H 0.28511 0.11059 0.27865 0.0
O312 O 0.42052 0.01817 0.21214 0.0
O313 O 0.37525 -0.00079 0.28249 0.0
O314 O 0.30021 0.01571 0.1841 0.0
O315 O 0.2561 0.01409 0.26347 0.0
C316 C 0.41474 0.13071 0.45572 0.0
C317 C 0.42335 0.0838 0.48699 0.0
H318 H 0.45416 -0.01533 0.52235 0.0
H319 H 0.43343 0.89949 0.47234 0.0
H320 H 0.33249 0.19886 0.30073 0.0
H321 H 0.40875 0.20294 0.37379 0.0
H322 H 0.43287 0.16891 0.46888 0.0
H323 H 0.44345 0.08523 0.527 0.0
Mn324 Mn 0.22921 0.08799 0.48882 0.0
Mn325 Mn 0.12762 0.15126 0.44185 0.0
C326 C 0.15196 0.03398 0.44939 0.0
C327 C 0.29388 0.02387 0.51771 0.0
C328 C 0.15304 0.16488 0.55083 0.0
O329 O 0.27548 0.14998 0.44908 0.0
O330 O 0.19853 0.19958 0.44855 0.0
C331 C 0.16972 0.18408 0.33778 0.0
N332 N 0.13149 0.15666 0.36683 0.0
C333 C 0.10774 0.09587 0.29313 0.0
C334 C 0.14971 0.12279 0.26266 0.0
C335 C 0.18038 0.16685 0.28516 0.0
C336 C 0.09912 0.11621 0.34499 0.0
H337 H 0.19209 0.21833 0.35463 0.0
C338 C 0.24979 0.19405 0.43522 0.0
O339 O 0.28505 0.06781 0.54686 0.0
O340 O 0.27309 0.02225 0.46754 0.0
N341 N 0.06119 0.10943 0.43072 0.0
C342 C 0.0225 0.09217 0.46675 0.0
C343 C -0.0219 0.05851 0.44691 0.0
C344 C -0.02516 0.04284 0.39073 0.0
C345 C 0.01705 0.05944 0.35587 0.0
C346 C 0.05844 0.09465 0.37746 0.0
H347 H 0.02512 0.10438 0.50985 0.0
O348 O 0.16944 0.02779 0.50016 0.0
O349 O 0.16879 0.08127 0.4307 0.0
O350 O 0.20095 0.15256 0.5382 0.0
O351 O 0.1165 0.14337 0.52045 0.0
C352 C 0.02169 0.04177 0.30114 0.0
C353 C 0.07044 0.05407 0.27363 0.0
H354 H 0.15434 0.11854 0.21917 0.0
H355 H 0.21149 0.18785 0.26205 0.0
H356 H 0.94651 0.04488 0.47463 0.0
H357 H 0.93967 0.01844 0.37535 0.0
H358 H -0.00998 0.01725 0.28005 0.0
H359 H 0.07618 0.03428 0.23604 0.0
Mn360 Mn 0.11338 -0.02856 0.70744 0.0
Mn361 Mn 0.04872 0.07173 0.75518 0.0
C362 C 0.16682 0.04767 0.7485 0.0
C363 C 0.17676 0.90657 0.67998 0.0
C364 C 0.03586 0.04791 0.64584 0.0
O365 O 0.05249 0.92454 0.74585 0.0
O366 O 0.00086 0.0003 0.74705 0.0
C367 C 0.01453 0.02845 0.8582 0.0
N368 N 0.04269 0.06671 0.82998 0.0
C369 C 0.10479 0.08683 0.90348 0.0
C370 C 0.07459 0.04768 0.93434 0.0
C371 C 0.02964 0.01849 0.91159 0.0
C372 C 0.08351 0.09805 0.85255 0.0
H373 H -0.01896 0.00599 0.84018 0.0
C374 C 0.00789 0.949 0.75957 0.0
O375 O 0.13365 0.91601 0.64983 0.0
O376 O 0.17799 0.92711 0.73024 0.0
N377 N 0.09035 0.13815 0.7679 0.0
C378 C 0.10875 0.17709 0.7327 0.0
C379 C 0.14406 0.2199 0.75334 0.0
C380 C 0.16032 0.22122 0.80941 0.0
C381 C 0.14236 0.17878 0.84345 0.0
C382 C 0.1055 0.13924 0.82111 0.0
H383 H 0.09655 0.17559 0.68957 0.0
O384 O 0.17363 0.03124 0.69746 0.0
O385 O 0.11907 0.03079 0.76625 0.0
O386 O 0.049 -9e-05 0.65749 0.0
O387 O 0.05699 0.08417 0.67685 0.0
C388 C 0.16144 0.17095 0.8974 0.0
C389 C 0.15029 0.12019 0.92201 0.0
H390 H 0.0765 0.04506 -0.02229 0.0
H391 H 0.00644 -0.01084 0.93503 0.0
H392 H 0.15885 0.25153 0.72624 0.0
H393 H 0.18703 0.25453 0.82489 0.0
H394 H 0.18635 0.20146 0.91977 0.0
H395 H 0.17434 0.10998 0.95649 0.0
Mn396 Mn 0.23863 0.83807 -0.01051 0.0
Mn397 Mn 0.20093 0.88414 0.87298 0.0
C398 C 0.16895 0.78073 0.93706 0.0
C399 C 0.30085 0.78367 0.0334 0.0
C400 C 0.17545 0.93759 -0.00785 0.0
O401 O 0.29083 0.90692 -0.02946 0.0
O402 O 0.27874 0.88493 0.8853 0.0
C403 C 0.26222 0.82005 0.7882 0.0
N404 N 0.21416 0.83784 0.8099 0.0
C405 C 0.162 0.79139 0.73706 0.0
C406 C 0.2098 0.77386 0.71292 0.0
C407 C 0.25991 0.78686 0.73958 0.0
C408 C 0.16587 0.82324 0.78583 0.0
H409 H 0.30171 0.83098 0.80744 0.0
C410 C 0.29827 0.91821 0.91985 0.0
O411 O 0.2774 0.82283 0.06075 0.0
O412 O 0.29544 0.78301 -0.01997 0.0
N413 N 0.12612 0.8734 0.85714 0.0
C414 C 0.08369 0.88419 0.89046 0.0
C415 C 0.03527 0.85315 0.88209 0.0
C416 C 0.0325 0.81067 0.84125 0.0
C417 C 0.07109 0.8109 0.80043 0.0
C418 C 0.12 0.83872 0.81281 0.0
H419 H 0.08739 0.91436 0.9239 0.0
O420 O 0.18057 0.77478 -0.01112 0.0
O421 O 0.20031 0.81997 0.91822 0.0
O422 O 0.18328 0.89326 0.01706 0.0
O423 O 0.18538 0.93983 0.93937 0.0
C424 C 0.06461 0.78301 0.74927 0.0
C425 C 0.11022 0.77738 0.71525 0.0
H426 H 0.20844 0.74883 0.67509 0.0
H427 H 0.29546 0.77062 0.72137 0.0
H428 H -0.0011 0.86561 0.9029 0.0
H429 H -0.00297 0.78372 0.83603 0.0
H430 H 0.02576 0.76525 0.73697 0.0
H431 H 0.10751 0.76019 0.67402 0.0
Mn432 Mn 0.21039 0.35728 0.96108 0.0
Mn433 Mn 0.32761 0.31355 -0.00201 0.0
C434 C 0.26245 0.41575 0.03071 0.0
C435 C 0.16804 0.41266 0.89795 0.0
C436 C 0.20901 0.25757 0.02556 0.0
O437 O 0.23009 0.28844 0.90893 0.0
O438 O 0.31489 0.31178 0.92014 0.0
C439 C 0.40763 0.38171 0.93494 0.0
N440 N 0.38884 0.36181 -0.01659 0.0
C441 C 0.46199 0.40996 0.03356 0.0
C442 C 0.48367 0.42887 -0.01484 0.0
C443 C 0.45518 0.41622 0.93604 0.0
C444 C 0.41409 0.37665 0.03107 0.0
H445 H 0.38683 0.37185 0.89592 0.0
C446 C 0.28086 0.27811 0.90052 0.0
O447 O 0.14002 0.3735 0.92069 0.0
O448 O 0.2212 0.41269 0.90446 0.0
N449 N 0.34485 0.32482 0.0724 0.0
C450 C 0.31204 0.31423 0.11522 0.0
C451 C 0.32218 0.34388 0.16405 0.0
C452 C 0.36582 0.38342 0.1679 0.0
C453 C 0.40401 0.38567 0.12697 0.0
C454 C 0.38931 0.35956 0.07768 0.0
H455 H 0.27714 0.28585 0.11136 0.0
O456 O 0.21063 0.42125 0.01894 0.0
O457 O 0.28097 0.37599 -2e-05 0.0
O458 O 0.18258 0.30095 0.01649 0.0
O459 O 0.26195 0.25684 0.01486 0.0
C460 C 0.4542 0.41548 0.13147 0.0
C461 C 0.48547 0.42409 0.08456 0.0
H462 H 0.52081 0.4549 -0.01457 0.0
H463 H 0.47078 0.43418 0.90025 0.0
H464 H 0.29922 0.33325 0.19963 0.0
H465 H 0.37227 0.4095 0.2037 0.0
H466 H 0.46736 0.43361 0.16968 0.0
H467 H 0.52547 0.4442 0.08599 0.0
Mn468 Mn 0.70593 0.11411 -0.0278 0.0
Mn469 Mn 0.75367 0.04945 0.0725 0.0
C470 C 0.74699 0.16755 0.04843 0.0
C471 C 0.67848 0.1775 0.90733 0.0
C472 C 0.64433 0.03659 0.04866 0.0
O473 O 0.74435 0.05323 0.9253 0.0
O474 O 0.74555 0.00159 0.00107 0.0
C475 C 0.8567 0.01526 0.02922 0.0
N476 N 0.82848 0.04342 0.06748 0.0
C477 C 0.90197 0.10553 0.0876 0.0
C478 C 0.93282 0.07533 0.04845 0.0
C479 C 0.91008 0.03038 0.01926 0.0
C480 C 0.85105 0.08424 0.09881 0.0
H481 H 0.83867 -0.01823 0.00676 0.0
C482 C 0.75807 0.00862 0.94976 0.0
O483 O 0.64833 0.13439 0.91676 0.0
O484 O 0.72874 0.17872 0.92788 0.0
N485 N 0.7664 0.09108 0.13892 0.0
C486 C 0.73119 0.10948 0.17785 0.0
C487 C 0.75184 0.14479 0.22066 0.0
C488 C 0.8079 0.16105 0.22198 0.0
C489 C 0.84194 0.14309 0.17954 0.0
C490 C 0.8196 0.10623 0.14001 0.0
H491 H 0.68807 0.09728 0.17635 0.0
O492 O 0.69595 0.17436 0.03199 0.0
O493 O 0.76474 0.1198 0.03156 0.0
O494 O 0.65598 0.04974 0.00066 0.0
O495 O 0.67534 0.05772 0.08493 0.0
C496 C 0.89589 0.16217 0.17171 0.0
C497 C 0.92049 0.15102 0.12095 0.0
H498 H -0.02381 0.07725 0.04582 0.0
H499 H 0.93352 0.00718 -0.01007 0.0
H500 H 0.72473 0.15958 0.25229 0.0
H501 H 0.82338 0.18776 0.25529 0.0
H502 H 0.91826 0.18709 0.20223 0.0
H503 H 0.95497 0.17507 0.11074 0.0
Mn504 Mn 0.08724 0.48805 0.23071 0.0
Mn505 Mn 0.15051 0.44108 0.12912 0.0
C506 C 0.03323 0.44862 0.15345 0.0
C507 C 0.02313 0.51695 0.29538 0.0
C508 C 0.16413 0.55006 0.15453 0.0
O509 O 0.14924 0.44831 0.27698 0.0
O510 O 0.19883 0.44779 0.20003 0.0
C511 C 0.18334 0.33701 0.17123 0.0
N512 N 0.15591 0.36606 0.133 0.0
C513 C 0.09513 0.29235 0.10924 0.0
C514 C 0.12205 0.26189 0.15122 0.0
C515 C 0.16611 0.28438 0.18189 0.0
C516 C 0.11546 0.34422 0.10063 0.0
H517 H 0.21758 0.35386 0.19361 0.0
C518 C 0.1933 0.43445 0.2513 0.0
O519 O 0.06707 0.5461 0.28654 0.0
O520 O 0.0215 0.46678 0.27459 0.0
N521 N 0.10868 0.42995 0.0627 0.0
C522 C 0.09142 0.46598 0.024 0.0
C523 C 0.05776 0.44614 -0.0204 0.0
C524 C 0.04209 0.38996 -0.02366 0.0
C525 C 0.05869 0.3551 0.01855 0.0
C526 C 0.09391 0.37669 0.05994 0.0
H527 H 0.10363 0.50908 0.02662 0.0
O528 O 0.02704 0.49938 0.17093 0.0
O529 O 0.08052 0.42993 0.17029 0.0
O530 O 0.15181 0.53743 0.20244 0.0
O531 O 0.14263 0.51968 0.118 0.0
C532 C 0.04103 0.30036 0.02319 0.0
C533 C 0.05333 0.27286 0.07194 0.0
H534 H 0.1178 0.21839 0.15584 0.0
H535 H 0.18711 0.26128 0.213 0.0
H536 H 0.04412 0.47385 0.948 0.0
H537 H 0.01769 0.37458 0.94117 0.0
H538 H 0.01651 0.27928 -0.00848 0.0
H539 H 0.03355 0.23526 0.07768 0.0
Mn540 Mn 0.71125 0.86058 0.45838 0.0
Mn541 Mn 0.82814 0.8156 0.49592 0.0
C542 C 0.76324 0.91814 0.52823 0.0
C543 C 0.66761 0.915 0.39587 0.0
C544 C 0.70925 0.76136 0.52245 0.0
O545 O 0.73046 0.79147 0.40665 0.0
O546 O 0.81542 0.81407 0.4181 0.0
C547 C 0.90905 0.88352 0.43377 0.0
N548 N 0.88979 0.86356 0.48196 0.0
C549 C 0.96325 0.91065 0.53273 0.0
C550 C -0.01464 0.92965 0.48462 0.0
C551 C 0.95699 0.91761 0.43531 0.0
C552 C 0.91485 0.87807 0.52979 0.0
H553 H 0.88824 0.87384 0.3948 0.0
C554 C 0.78114 0.78036 0.39893 0.0
O555 O 0.64026 0.87564 0.41903 0.0
O556 O 0.72096 0.91566 0.4015 0.0
N557 N 0.84523 0.82632 0.57044 0.0
C558 C 0.81357 0.81368 0.61355 0.0
C559 C 0.82449 0.84179 0.66316 0.0
C560 C 0.8677 0.88184 0.66733 0.0
C561 C 0.90515 0.88554 0.62587 0.0
C562 C 0.88979 0.86084 0.57613 0.0
H563 H 0.77918 0.78463 0.60955 0.0
O564 O 0.71155 0.92423 0.51617 0.0
O565 O 0.78199 0.87865 0.49728 0.0
O566 O 0.68396 0.80537 0.51382 0.0
O567 O 0.76217 0.75924 0.51244 0.0
C568 C 0.95577 0.91456 0.63069 0.0
C569 C -0.01294 0.92349 0.58389 0.0
H570 H 0.02283 0.9552 0.48524 0.0
H571 H -0.02683 0.93567 0.39982 0.0
H572 H 0.80198 0.83008 0.69883 0.0
H573 H 0.87451 0.90702 0.70372 0.0
H574 H -0.03025 0.93102 0.66923 0.0
H575 H 0.02774 0.94223 0.58569 0.0
Mn576 Mn 0.83732 -0.01128 0.24014 0.0
Mn577 Mn 0.8834 0.87221 0.20244 0.0
C578 C 0.77999 0.93629 0.17045 0.0
C579 C 0.78293 0.03262 0.30235 0.0
C580 C 0.93685 -0.00863 0.17696 0.0
O581 O 0.90617 -0.03023 0.29234 0.0
O582 O 0.88419 0.88453 0.28025 0.0
C583 C 0.8193 0.78742 0.26372 0.0
N584 N 0.83709 0.80912 0.21567 0.0
C585 C 0.79065 0.73628 0.16351 0.0
C586 C 0.77312 0.71214 0.21131 0.0
C587 C 0.78612 0.7388 0.26142 0.0
C588 C 0.82249 0.78505 0.16738 0.0
H589 H 0.83023 0.80666 0.30322 0.0
C590 C 0.91747 0.91907 0.29978 0.0
O591 O 0.8221 0.05998 0.2789 0.0
O592 O 0.78226 -0.02075 0.29694 0.0
N593 N 0.87266 0.85637 0.12763 0.0
C594 C 0.88345 0.88968 0.0852 0.0
C595 C 0.85242 0.88132 0.03677 0.0
C596 C 0.80994 0.84048 0.03401 0.0
C597 C 0.81016 0.79966 0.07259 0.0
C598 C 0.83798 0.81203 0.12151 0.0
H599 H 0.91362 0.92312 0.0889 0.0
O600 O 0.77404 -0.0119 0.18207 0.0
O601 O 0.81923 0.91745 0.20181 0.0
O602 O 0.89252 0.01629 0.18478 0.0
O603 O 0.93909 0.93859 0.1869 0.0
C604 C 0.78228 0.7485 0.06612 0.0
C605 C 0.77664 0.71447 0.11173 0.0
H606 H 0.74809 0.67431 0.20995 0.0
H607 H 0.76988 0.72058 0.29697 0.0
H608 H 0.86488 0.90213 0.00041 0.0
H609 H 0.78299 0.83526 -0.00147 0.0
H610 H 0.76452 0.73619 0.02727 0.0
H611 H 0.75945 0.67324 0.10902 0.0
Mn612 Mn 0.20627 0.61475 0.47188 0.0
Mn613 Mn 0.25614 0.55028 0.57135 0.0
C614 C 0.2478 0.6679 0.54834 0.0
C615 C 0.17772 0.67805 0.40733 0.0
C616 C 0.14622 0.53631 0.5484 0.0
O617 O 0.24408 0.55377 0.4245 0.0
O618 O 0.24777 0.50236 0.50047 0.0
C619 C 0.35997 0.51973 0.5259 0.0
N620 N 0.33128 0.54614 0.56527 0.0
C621 C 0.40609 0.60507 0.59076 0.0
C622 C 0.43667 0.57788 0.54911 0.0
C623 C 0.41358 0.53508 0.51717 0.0
C624 C 0.35375 0.5855 0.59874 0.0
H625 H 0.34255 0.48747 0.50116 0.0
C626 C 0.25832 0.50919 0.44877 0.0
O627 O 0.14789 0.63482 0.4171 0.0
O628 O 0.22812 0.67958 0.4275 0.0
N629 N 0.26828 0.59197 0.63769 0.0
C630 C 0.23238 0.60981 0.67631 0.0
C631 C 0.25216 0.64451 0.71986 0.0
C632 C 0.3082 0.66045 0.72259 0.0
C633 C 0.34324 0.64251 0.68099 0.0
C634 C 0.32155 0.60685 0.63992 0.0
H635 H 0.18925 0.59765 0.67416 0.0
O636 O 0.19671 0.67477 0.53213 0.0
O637 O 0.26564 0.62055 0.53064 0.0
O638 O 0.1571 0.55014 0.50046 0.0
O639 O 0.17778 0.5566 0.58465 0.0
C640 C 0.39816 0.6596 0.67651 0.0
C641 C 0.42591 0.64659 0.62814 0.0
H642 H 0.48027 0.58146 0.54504 0.0
H643 H 0.43694 0.51379 0.48631 0.0
H644 H 0.22446 0.6588 0.75119 0.0
H645 H 0.32308 0.68633 0.75678 0.0
H646 H 0.4193 0.6842 0.70811 0.0
H647 H 0.46391 0.66575 0.62258 0.0
Mn648 Mn 0.34065 0.48962 0.7377 0.0
Mn649 Mn 0.38545 0.37274 0.70059 0.0
C650 C 0.28236 0.43712 0.6683 0.0
C651 C 0.28526 0.5322 0.80059 0.0
C652 C 0.44075 0.49161 0.67407 0.0
O653 O 0.40918 0.47011 0.79025 0.0
O654 O 0.38636 0.38504 0.77846 0.0
C655 C 0.32072 0.28894 0.76253 0.0
N656 N 0.3388 0.31006 0.71426 0.0
C657 C 0.29179 0.23724 0.66263 0.0
C658 C 0.27408 0.21361 0.71067 0.0
C659 C 0.28729 0.24057 0.7606 0.0
C660 C 0.32423 0.28564 0.66612 0.0
H661 H 0.33139 0.30841 0.80204 0.0
C662 C 0.41963 0.41931 0.79844 0.0
O663 O 0.32419 0.56026 0.77753 0.0
O664 O 0.28527 0.47903 0.79426 0.0
N665 N 0.37435 0.35678 0.62588 0.0
C666 C 0.38315 0.39126 0.58394 0.0
C667 C 0.35085 0.3836 0.53632 0.0
C668 C 0.30919 0.34195 0.53362 0.0
C669 C 0.31084 0.30044 0.57153 0.0
C670 C 0.33969 0.31235 0.62001 0.0
H671 H 0.41232 0.42549 0.58768 0.0
O672 O 0.27702 0.48906 0.67959 0.0
O673 O 0.32191 0.41851 0.69938 0.0
O674 O 0.39705 0.5177 0.68239 0.0
O675 O 0.44157 0.43881 0.68478 0.0
C676 C 0.28253 0.24947 0.56528 0.0
C677 C 0.27698 0.21554 0.61099 0.0
H678 H 0.24865 0.17604 0.70961 0.0
H679 H 0.27096 0.22301 0.79643 0.0
H680 H 0.36203 0.40556 0.5004 0.0
H681 H 0.2813 0.33712 0.49883 0.0
H682 H 0.26383 0.23751 0.52667 0.0
H683 H 0.25872 0.17476 0.60859 0.0
Mn684 Mn 0.58797 -0.01154 0.72997 0.0
Mn685 Mn 0.65144 0.94362 0.62753 0.0
C686 C 0.5337 0.94944 0.65301 0.0
C687 C 0.52379 0.01626 0.79503 0.0
C688 C 0.66393 0.05196 0.65379 0.0
O689 O 0.64998 0.94823 0.77569 0.0
O690 O 0.69976 0.95002 0.69898 0.0
C691 C 0.68818 0.84054 0.66714 0.0
N692 N 0.6588 0.86903 0.63023 0.0
C693 C 0.59493 0.79666 0.61229 0.0
C694 C 0.62497 0.76606 0.65189 0.0
C695 C 0.6715 0.78812 0.67914 0.0
C696 C 0.61693 0.84699 0.60016 0.0
H697 H 0.72336 0.85826 0.68724 0.0
C698 C 0.69409 0.93491 0.74982 0.0
O699 O 0.56756 0.04577 0.78642 0.0
O700 O 0.5225 0.96622 0.77391 0.0
N701 N 0.6096 0.93189 0.56107 0.0
C702 C 0.59167 0.96717 0.52206 0.0
C703 C 0.55735 0.94636 0.47845 0.0
C704 C 0.54138 0.89013 0.4767 0.0
C705 C 0.55809 0.85637 0.5198 0.0
C706 C 0.5946 0.87867 0.55952 0.0
H707 H 0.60386 0.01028 0.52397 0.0
O708 O 0.52753 0.00014 0.6707 0.0
O709 O 0.58141 0.93089 0.66899 0.0
O710 O 0.65223 0.03861 0.7017 0.0
O711 O 0.64162 0.0221 0.61729 0.0
C712 C 0.53848 0.80264 0.52793 0.0
C713 C 0.5491 0.77842 0.57909 0.0
H714 H 0.62192 0.72295 0.65599 0.0
H715 H 0.69474 0.76491 0.70847 0.0
H716 H 0.54315 -0.02659 0.44651 0.0
H717 H 0.51616 0.87409 0.44242 0.0
H718 H 0.51361 0.78029 0.49741 0.0
H719 H 0.52429 0.7446 0.5896 0.0
Mn720 Mn 0.72848 0.58872 -0.01078 0.0
Mn721 Mn 0.62603 0.65219 0.94439 0.0
C722 C 0.65152 0.53444 0.95021 0.0
C723 C 0.79353 0.52453 0.01702 0.0
C724 C 0.6523 0.66467 0.05273 0.0
O725 O 0.77419 0.65072 0.94899 0.0
O726 O 0.69748 0.70051 0.95078 0.0
C727 C 0.66563 0.68893 0.84131 0.0
N728 N 0.62872 0.65955 0.8698 0.0
C729 C 0.61079 0.59567 0.79743 0.0
C730 C 0.65038 0.62571 0.76683 0.0
C731 C 0.67764 0.67224 0.78889 0.0
C732 C 0.59866 0.61767 0.84776 0.0
H733 H 0.68572 0.72411 0.85903 0.0
C734 C 0.74832 0.69483 0.93567 0.0
O735 O 0.78494 0.5683 0.04653 0.0
O736 O 0.77241 0.52325 0.96697 0.0
N737 N 0.55957 0.61035 0.93266 0.0
C738 C 0.52056 0.59242 0.96794 0.0
C739 C 0.47696 0.5581 0.94713 0.0
C740 C 0.47521 0.54213 0.8909 0.0
C741 C 0.5183 0.55884 0.85714 0.0
C742 C 0.55802 0.59535 0.87944 0.0
H743 H 0.52248 0.60462 0.01104 0.0
O744 O 0.66921 0.52828 0.00091 0.0
O745 O 0.66749 0.58216 0.93165 0.0
O746 O 0.70021 0.65297 0.03938 0.0
O747 O 0.6158 0.64236 0.02287 0.0
C748 C 0.52644 0.53923 0.80341 0.0
C749 C 0.57759 0.54984 0.77919 0.0
H750 H 0.65449 0.62266 0.72372 0.0
H751 H 0.70696 0.69547 0.76568 0.0
H752 H 0.44502 0.54391 -0.02583 0.0
H753 H 0.44092 0.51692 0.87486 0.0
H754 H 0.49591 0.51435 0.78106 0.0
H755 H 0.5881 0.52503 0.74537 0.0
Mn756 Mn 0.85985 0.45761 0.71277 0.0
Mn757 Mn 0.81487 0.49515 0.82966 0.0
C758 C 0.9174 0.52747 0.76476 0.0
C759 C 0.91426 0.3951 0.66913 0.0
C760 C 0.76063 0.52168 0.71077 0.0
O761 O 0.79074 0.40588 0.73198 0.0
O762 O 0.81334 0.41733 0.81694 0.0
C763 C 0.88279 0.43301 0.91058 0.0
N764 N 0.86283 0.48119 0.89131 0.0
C765 C 0.90992 0.53197 0.96477 0.0
C766 C 0.92891 0.48386 -0.01311 0.0
C767 C 0.91687 0.43455 0.95853 0.0
C768 C 0.87734 0.52903 0.91637 0.0
H769 H 0.8731 0.39404 0.88978 0.0
C770 C 0.77963 0.39816 0.78266 0.0
O771 O 0.8749 0.41826 0.64178 0.0
O772 O 0.91493 0.40073 0.72248 0.0
N773 N 0.82559 0.56967 0.84674 0.0
C774 C 0.81294 0.61278 0.81508 0.0
C775 C 0.84104 0.66239 0.826 0.0
C776 C 0.88109 0.66656 0.86921 0.0
C777 C 0.8848 0.62511 0.90666 0.0
C778 C 0.86011 0.57536 0.8913 0.0
H779 H 0.78389 0.60877 0.78069 0.0
O780 O 0.9235 0.5154 0.71306 0.0
O781 O 0.87792 0.49651 0.7835 0.0
O782 O 0.80463 0.51305 0.68548 0.0
O783 O 0.7585 0.51167 0.76368 0.0
C784 C 0.91381 0.62992 0.95728 0.0
C785 C 0.92275 0.58312 -0.01142 0.0
H786 H 0.95446 0.48448 0.02437 0.0
H787 H 0.93492 0.39906 -0.02528 0.0
H788 H 0.82933 0.69807 0.80349 0.0
H789 H 0.90627 0.70296 0.87603 0.0
H790 H 0.93027 0.66846 -0.02873 0.0
H791 H 0.94148 0.58493 0.02926 0.0
Mn792 Mn 0.73619 0.34139 0.49039 0.0
Mn793 Mn 0.69908 0.38619 0.37352 0.0
C794 C 0.6668 0.2831 0.43789 0.0
C795 C 0.79908 0.286 0.53297 0.0
C796 C 0.67256 0.44149 0.49238 0.0
O797 O 0.78873 0.40992 0.47089 0.0
O798 O 0.77694 0.38711 0.38581 0.0
C799 C 0.76102 0.32147 0.28972 0.0
N800 N 0.71275 0.33955 0.31083 0.0
C801 C 0.66112 0.29253 0.23801 0.0
C802 C 0.70916 0.27482 0.21439 0.0
C803 C 0.75909 0.28803 0.24135 0.0
C804 C 0.6646 0.32497 0.28641 0.0
H805 H 0.80053 0.33214 0.30919 0.0
C806 C 0.79692 0.42038 0.42009 0.0
O807 O 0.77602 0.32493 0.56104 0.0
O808 O 0.79275 0.28602 0.4798 0.0
N809 N 0.62437 0.37509 0.35755 0.0
C810 C 0.58243 0.38388 0.39203 0.0
C811 C 0.53481 0.35158 0.38438 0.0
C812 C 0.53212 0.30992 0.34273 0.0
C813 C 0.57002 0.31157 0.30122 0.0
C814 C 0.6185 0.34043 0.31312 0.0
H815 H 0.58616 0.41305 0.42626 0.0
O816 O 0.67808 0.27776 0.48983 0.0
O817 O 0.69787 0.32265 0.41928 0.0
O818 O 0.68088 0.39779 0.51847 0.0
O819 O 0.68326 0.44231 0.43959 0.0
C820 C 0.56377 0.28326 0.25024 0.0
C821 C 0.60948 0.27771 0.21632 0.0
H822 H 0.7081 0.24939 0.17682 0.0
H823 H 0.79492 0.2717 0.2238 0.0
H824 H 0.4989 0.36275 0.40633 0.0
H825 H 0.49733 0.28203 0.33789 0.0
H826 H 0.52516 0.26456 0.23829 0.0
H827 H 0.60708 0.25945 0.17554 0.0
Mn828 Mn 0.61401 0.47112 0.20777 0.0
Mn829 Mn 0.54955 0.57058 0.25764 0.0
C830 C 0.66717 0.54757 0.24931 0.0
C831 C 0.67732 0.40656 0.17921 0.0
C832 C 0.53557 0.54764 0.14773 0.0
O833 O 0.55304 0.42374 0.24559 0.0
O834 O 0.50163 0.4997 0.24928 0.0
C835 C 0.519 0.52512 0.36148 0.0
N836 N 0.54541 0.5645 0.33279 0.0
C837 C 0.60433 0.58999 0.40761 0.0
C838 C 0.57714 0.54834 0.43818 0.0
C839 C 0.53434 0.5164 0.41509 0.0
C840 C 0.58476 0.59797 0.35526 0.0
H841 H 0.48675 0.50038 0.34405 0.0
C842 C 0.50846 0.448 0.25982 0.0
O843 O 0.63408 0.41635 0.14939 0.0
O844 O 0.67885 0.42673 0.22962 0.0
N845 N 0.59124 0.63692 0.26979 0.0
C846 C 0.60908 0.67554 0.23389 0.0
C847 C 0.64378 0.71909 0.25366 0.0
C848 C 0.65971 0.72182 0.30971 0.0
C849 C 0.64177 0.68023 0.34475 0.0
C850 C 0.60611 0.63916 0.32306 0.0
H851 H 0.59692 0.6734 0.19076 0.0
O852 O 0.67404 0.53137 0.19822 0.0
O853 O 0.61981 0.52988 0.26714 0.0
O854 O 0.54941 0.4997 0.1586 0.0
O855 O 0.55586 0.58389 0.17928 0.0
C856 C 0.65886 0.67574 0.39967 0.0
C857 C 0.64585 0.62738 0.42742 0.0
H858 H 0.58072 0.54428 0.48179 0.0
H859 H 0.51305 0.48554 0.43846 0.0
H860 H 0.65807 0.75043 0.22597 0.0
H861 H 0.6856 0.75601 0.32458 0.0
H862 H 0.68346 0.70735 0.42081 0.0
H863 H 0.66501 0.62182 0.46543 0.0
Sc864 Sc 0.05362 0.1389 0.10561 0.0
Sc865 Sc 0.1041 0.05436 0.13968 0.0
Sc866 Sc 0.13816 0.10484 0.05513 0.0
O867 O 0.06941 0.07015 0.07093 0.0
C868 C 0.02464 0.15948 -0.01039 0.0
C869 C -0.01189 0.02538 0.16025 0.0
C870 C 0.15874 -0.01115 0.02616 0.0
C871 C 0.03906 0.17766 0.20459 0.0
C872 C 0.17693 0.20382 0.04057 0.0
C873 C 0.20309 0.03979 0.17844 0.0
O874 O 0.0019 0.16135 0.03518 0.0
O875 O 0.03368 0.00264 0.16212 0.0
O876 O 0.16061 0.03441 0.00342 0.0
O877 O 0.02812 0.20132 0.1607 0.0
O878 O 0.20058 0.15993 0.02963 0.0
O879 O 0.15919 0.02886 0.2021 0.0
O880 O 0.12784 0.19888 0.06403 0.0
O881 O 0.06252 0.12858 0.19965 0.0
O882 O 0.19815 0.06325 0.12936 0.0
O883 O -0.01168 0.07692 0.14588 0.0
O884 O 0.07618 0.14511 -0.01017 0.0
O885 O 0.14437 -0.01094 0.0777 0.0
Sc886 Sc 0.15353 0.85487 0.41396 0.0
Sc887 Sc 0.03987 0.78807 0.34776 0.0
Sc888 Sc 0.09786 0.90653 0.29313 0.0
O889 O 0.09674 0.85003 0.35186 0.0
C890 C 0.1345 -0.01891 0.41301 0.0
C891 C 0.04222 0.81282 0.47427 0.0
C892 C -0.02681 0.89636 0.30841 0.0
C893 C 0.15094 0.72867 0.38922 0.0
C894 C 0.22194 0.89038 0.30584 0.0
C895 C 0.06144 0.78544 0.22114 0.0
O896 O 0.13319 0.9372 0.44029 0.0
O897 O 0.01367 0.80761 0.42968 0.0
O898 O 0.01515 0.92805 0.30728 0.0
O899 O 0.17945 0.7732 0.3947 0.0
O900 O 0.18016 0.88863 0.2741 0.0
O901 O 0.06004 0.7596 0.26585 0.0
O902 O 0.21795 0.88597 0.35844 0.0
O903 O 0.09862 0.72789 0.37948 0.0
O904 O 0.06894 0.8395 0.22347 0.0
O905 O 0.09447 0.82341 0.47477 0.0
O906 O 0.1276 -0.02252 0.3588 0.0
O907 O -0.02325 0.84415 0.31599 0.0
Sc908 Sc 0.40621 0.79268 0.60096 0.0
Sc909 Sc 0.28737 0.84667 0.54292 0.0
Sc910 Sc 0.35389 0.91318 0.65656 0.0
O911 O 0.34915 0.85087 0.60012 0.0
C912 C 0.38973 0.80467 0.72519 0.0
C913 C 0.28536 0.72039 0.56416 0.0
C914 C 0.22761 0.88857 0.65355 0.0
C915 C 0.39521 0.80769 0.47638 0.0
C916 C 0.48047 0.91284 0.63703 0.0
C917 C 0.31239 -0.02693 0.5448 0.0
O918 O 0.38993 0.77259 0.68356 0.0
O919 O 0.25927 0.76497 0.56358 0.0
O920 O 0.27202 0.89424 0.68221 0.0
O921 O 0.42662 0.80825 0.51847 0.0
O922 O 0.4364 0.93987 0.63669 0.0
O923 O 0.30721 0.92836 0.51645 0.0
O924 O 0.47691 0.85869 0.63024 0.0
O925 O 0.34288 0.81431 0.47964 0.0
O926 O 0.32278 -0.02617 0.5971 0.0
O927 O 0.33947 0.72276 0.57177 0.0
O928 O 0.38428 0.85717 0.72091 0.0
O929 O 0.22707 0.87865 0.60129 0.0
Sc930 Sc 0.34625 0.04061 0.78885 0.0
Sc931 Sc 0.41245 0.15427 0.85564 0.0
Sc932 Sc 0.29162 0.0986 0.9073 0.0
O933 O 0.35035 0.09748 0.8508 0.0
C934 C 0.21963 0.06218 0.78621 0.0
C935 C 0.38771 0.15168 0.72945 0.0
C936 C 0.30432 0.22267 0.89115 0.0
C937 C 0.47276 0.04296 0.81359 0.0
C938 C 0.3069 -0.02607 0.89714 0.0
C939 C 0.4115 0.13524 -0.01813 0.0
O940 O 0.26434 0.06078 0.76037 0.0
O941 O 0.39318 0.18019 0.77397 0.0
O942 O 0.27258 0.18089 0.88938 0.0
O943 O 0.42817 0.0144 0.80839 0.0
O944 O 0.30578 0.01589 0.92883 0.0
O945 O 0.43878 0.13392 0.93798 0.0
O946 O 0.31448 -0.02251 0.84492 0.0
O947 O 0.47325 0.0952 0.82418 0.0
O948 O 0.3573 0.12834 -0.02176 0.0
O949 O 0.37798 0.09936 0.72867 0.0
O950 O 0.22196 0.06967 0.84027 0.0
O951 O 0.35692 0.21868 0.88675 0.0
Sc952 Sc 0.65507 0.35463 0.91396 0.0
Sc953 Sc 0.54143 0.28812 0.84745 0.0
Sc954 Sc 0.59946 0.40696 0.79345 0.0
O955 O 0.59863 0.3499 0.85165 0.0
C956 C 0.63554 0.48121 0.91362 0.0
C957 C 0.54331 0.31314 -0.02616 0.0
C958 C 0.47489 0.39596 0.80846 0.0
C959 C 0.65205 0.22835 0.88935 0.0
C960 C 0.7237 0.39047 0.80545 0.0
C961 C 0.56267 0.28611 0.72117 0.0
O962 O 0.6352 0.43715 0.94064 0.0
O963 O 0.51495 0.30796 0.92913 0.0
O964 O 0.51698 0.42737 0.80903 0.0
O965 O 0.68072 0.27276 0.89503 0.0
O966 O 0.68206 0.39068 0.77338 0.0
O967 O 0.56209 0.26002 0.76575 0.0
O968 O 0.71942 0.38501 0.85796 0.0
O969 O 0.5998 0.22781 0.87943 0.0
O970 O 0.57028 0.34022 0.72353 0.0
O971 O 0.59561 0.32353 -0.02539 0.0
O972 O 0.62874 0.47766 0.85947 0.0
O973 O 0.47815 0.34363 0.81508 0.0
Sc974 Sc 0.90578 0.29235 0.09936 0.0
Sc975 Sc 0.85413 0.41318 0.15503 0.0
Sc976 Sc 0.78733 0.34699 0.04137 0.0
O977 O 0.84928 0.35108 0.09824 0.0
C978 C 0.89561 0.30764 -0.02531 0.0
C979 C -0.01965 0.41223 0.136 0.0
C980 C 0.81207 0.4735 0.04372 0.0
C981 C 0.88964 0.30506 0.22343 0.0
C982 C 0.7847 0.22036 0.06293 0.0
C983 C 0.72793 0.38844 0.15244 0.0
O984 O 0.92731 0.30651 0.01664 0.0
O985 O 0.93646 0.43951 0.13468 0.0
O986 O 0.80686 0.42891 0.01516 0.0
O987 O 0.88787 0.27331 0.18165 0.0
O988 O 0.75885 0.26507 0.06153 0.0
O989 O 0.77246 0.39391 0.18095 0.0
O990 O 0.83876 0.2227 0.07044 0.0
O991 O 0.88524 0.35765 0.21944 0.0
O992 O 0.72715 0.37871 0.10012 0.0
O993 O -0.02327 0.35803 0.1291 0.0
O994 O 0.8434 0.31523 -0.02176 0.0
O995 O 0.82267 0.47399 0.09596 0.0
Sc996 Sc 0.84593 0.54216 0.28889 0.0
Sc997 Sc 0.91244 0.6558 0.3554 0.0
Sc998 Sc 0.79194 0.6002 0.40773 0.0
O999 O 0.85014 0.59936 0.35067 0.0
C1000 C 0.71965 0.56341 0.28687 0.0
C1001 C 0.88784 0.65279 0.22912 0.0
C1002 C 0.80393 0.72443 0.39124 0.0
C1003 C -0.02767 0.54404 0.31391 0.0
C1004 C 0.80696 0.47563 0.39673 0.0
C1005 C 0.91211 0.63628 0.48198 0.0
O1006 O 0.76424 0.56284 0.26078 0.0
O1007 O 0.8935 0.68145 0.27353 0.0
O1008 O 0.77186 0.6828 0.39144 0.0
O1009 O 0.92762 0.51569 0.30874 0.0
O1010 O 0.80754 0.51772 0.42814 0.0
O1011 O 0.93913 0.63593 0.43792 0.0
O1012 O 0.81357 0.47889 0.3444 0.0
O1013 O -0.0269 0.59634 0.3243 0.0
O1014 O 0.85796 0.62948 0.47843 0.0
O1015 O 0.87792 0.60053 0.22858 0.0
O1016 O 0.72203 0.57101 0.34098 0.0
O1017 O 0.85643 0.72015 0.38579 0.0
Sc1018 Sc 0.89311 0.81259 0.84566 0.0
Sc1019 Sc 0.81185 0.8449 0.89462 0.0
Sc1020 Sc 0.84416 0.89385 0.81335 0.0
O1021 O 0.88192 0.88266 0.88343 0.0
C1022 C 0.95789 0.91851 0.7834 0.0
C1023 C 0.91778 0.78264 0.9594 0.0
C1024 C 0.7819 0.95863 0.91928 0.0
C1025 C 0.77592 0.74742 0.91197 0.0
C1026 C 0.91047 0.77666 0.74819 0.0
C1027 C 0.74668 0.91121 0.77742 0.0
O1028 O 0.95927 0.86989 0.80362 0.0
O1029 O 0.86915 0.80285 0.96077 0.0
O1030 O 0.80212 0.96 0.87065 0.0
O1031 O 0.82349 0.75137 0.88694 0.0
O1032 O 0.88543 0.82423 0.75214 0.0
O1033 O 0.75064 0.88617 0.82499 0.0
O1034 O 0.9152 0.75 0.79189 0.0
O1035 O 0.74926 0.79113 0.9167 0.0
O1036 O 0.79038 0.91594 0.75076 0.0
O1037 O 0.94279 0.78554 0.91428 0.0
O1038 O 0.91278 0.94353 0.78631 0.0
O1039 O 0.78481 0.91351 0.94429 0.0
Sc1040 Sc 0.78898 0.10213 0.53552 0.0
Sc1041 Sc 0.90849 0.1649 0.59756 0.0
Sc1042 Sc 0.85009 0.04404 0.65411 0.0
O1043 O 0.84925 0.10324 0.5961 0.0
C1044 C 0.72018 0.07336 0.6414 0.0
C1045 C 0.81255 0.23353 0.55762 0.0
C1046 C 0.90353 0.14982 0.72916 0.0
C1047 C 0.88341 0.14397 0.46601 0.0
C1048 C 0.79541 -0.02991 0.54878 0.0
C1049 C -0.02061 0.05937 0.62434 0.0
O1050 O 0.72472 0.09699 0.59529 0.0
O1051 O 0.85102 0.23088 0.59388 0.0
O1052 O 0.87701 0.10296 0.72492 0.0
O1053 O 0.84548 0.10711 0.46878 0.0
O1054 O 0.82342 -0.02667 0.59487 0.0
O1055 O -0.02617 0.10607 0.60203 0.0
O1056 O 0.78159 0.01349 0.52425 0.0
O1057 O 0.90789 0.1663 0.50847 0.0
O1058 O 0.93867 0.03152 0.64345 0.0
O1059 O 0.78857 0.19103 0.53494 0.0
O1060 O 0.7615 0.05346 0.66771 0.0
O1061 O 0.91634 0.17575 0.68628 0.0
Sc1062 Sc 0.59948 0.03641 0.29048 0.0
Sc1063 Sc 0.66276 0.09872 0.40981 0.0
Sc1064 Sc 0.54195 0.15499 0.35157 0.0
O1065 O 0.60092 0.09709 0.35069 0.0
C1066 C 0.57126 0.14191 0.22171 0.0
C1067 C 0.73074 0.05816 0.31465 0.0
C1068 C 0.64747 0.23036 0.40583 0.0
C1069 C 0.642 0.96734 0.38398 0.0
C1070 C 0.46738 0.05005 0.29615 0.0
C1071 C 0.55783 0.12499 0.4808 0.0
O1072 O 0.59529 0.09605 0.22626 0.0
O1073 O 0.72814 0.09569 0.35189 0.0
O1074 O 0.60108 0.22582 0.37848 0.0
O1075 O 0.60388 -0.02989 0.34731 0.0
O1076 O 0.47099 0.09573 0.32489 0.0
O1077 O 0.60421 0.10215 0.47519 0.0
O1078 O 0.5107 0.02553 0.28204 0.0
O1079 O 0.66468 0.00975 0.4082 0.0
O1080 O 0.53024 0.14457 0.44017 0.0
O1081 O 0.68827 0.03522 0.29094 0.0
O1082 O 0.55103 0.168 0.26296 0.0
O1083 O 0.67335 0.18755 0.41896 0.0
Sc1084 Sc 0.65261 0.85083 0.04481 0.0
Sc1085 Sc 0.53402 0.78972 0.1029 0.0
Sc1086 Sc 0.59606 0.90923 0.16566 0.0
O1087 O 0.5946 0.84999 0.104 0.0
C1088 C 0.72766 0.90427 0.15059 0.0
C1089 C 0.63991 0.72093 0.07413 0.0
C1090 C 0.55611 0.81328 0.23429 0.0
C1091 C 0.54727 0.79615 -0.02914 0.0
C1092 C 0.62283 -0.01987 0.06013 0.0
C1093 C 0.46451 0.88415 0.14474 0.0
O1094 O 0.72342 0.87777 0.10372 0.0
O1095 O 0.59379 0.72546 0.09775 0.0
O1096 O 0.59237 0.85176 0.23165 0.0
O1097 O 0.59337 0.82415 -0.0259 0.0
O1098 O 0.60054 -0.02543 0.10684 0.0
O1099 O 0.46727 0.84622 0.10788 0.0
O1100 O 0.64193 0.9394 0.03226 0.0
O1101 O 0.52274 0.78234 0.01426 0.0
O1102 O 0.50698 0.90863 0.16707 0.0
O1103 O 0.66622 0.76224 0.05423 0.0
O1104 O 0.68479 0.91706 0.17653 0.0
O1105 O 0.53345 0.78931 0.19179 0.0
Sc1106 Sc 0.28896 0.60022 0.03717 0.0
Sc1107 Sc 0.4083 0.66349 0.09947 0.0
Sc1108 Sc 0.35005 0.54269 0.15575 0.0
O1109 O 0.34917 0.60165 0.09785 0.0
C1110 C 0.22019 0.57199 0.14266 0.0
C1111 C 0.31314 0.73147 0.05893 0.0
C1112 C 0.40432 0.6482 0.23112 0.0
C1113 C 0.38245 0.64274 0.9681 0.0
C1114 C 0.29463 0.46812 0.05082 0.0
C1115 C 0.47928 0.55856 0.12576 0.0
O1116 O 0.22474 0.59603 0.0968 0.0
O1117 O 0.35038 0.72886 0.09646 0.0
O1118 O 0.37695 0.60182 0.22659 0.0
O1119 O 0.34578 0.60462 -0.02914 0.0
O1120 O 0.32337 0.47172 0.0965 0.0
O1121 O 0.47367 0.60493 0.10289 0.0
O1122 O 0.28053 0.51143 0.02629 0.0
O1123 O 0.40667 0.66541 0.01051 0.0
O1124 O 0.43865 0.53098 0.14535 0.0
O1125 O 0.28942 0.689 0.03598 0.0
O1126 O 0.26144 0.55177 0.16875 0.0
O1127 O 0.41747 0.67406 0.1883 0.0
Sc1128 Sc 0.1014 0.53477 0.7905 0.0
Sc1129 Sc 0.16417 0.5968 0.91001 0.0
Sc1130 Sc 0.04331 0.65335 0.85161 0.0
O1131 O 0.10251 0.59534 0.85077 0.0
C1132 C 0.07263 0.64066 0.7217 0.0
C1133 C 0.2328 0.55685 0.81406 0.0
C1134 C 0.14909 0.7284 0.90504 0.0
C1135 C 0.14323 0.46525 0.88493 0.0
C1136 C -0.03064 0.54802 0.79693 0.0
C1137 C 0.05864 0.62358 -0.01909 0.0
O1138 O 0.09626 0.59454 0.72624 0.0
O1139 O 0.23015 0.59311 0.85254 0.0
O1140 O 0.10222 0.72416 0.87854 0.0
O1141 O 0.10637 0.46802 0.847 0.0
O1142 O -0.0274 0.59411 0.82494 0.0
O1143 O 0.10535 0.60128 -0.02465 0.0
O1144 O 0.01276 0.5235 0.78311 0.0
O1145 O 0.16557 0.50771 0.90941 0.0
O1146 O 0.03078 0.64267 0.94018 0.0
O1147 O 0.19029 0.53418 0.79009 0.0
O1148 O 0.05272 0.66695 0.76301 0.0
O1149 O 0.17504 0.68552 0.91784 0.0
Sc1150 Sc 0.15425 0.35079 0.54346 0.0
Sc1151 Sc 0.03566 0.28971 0.60098 0.0
Sc1152 Sc 0.09798 0.40903 0.66426 0.0
O1153 O 0.09635 0.34992 0.60242 0.0
C1154 C 0.22962 0.40506 0.64897 0.0
C1155 C 0.14116 0.22094 0.57276 0.0
C1156 C 0.05743 0.31387 0.73224 0.0
C1157 C 0.04931 0.29537 0.46888 0.0
C1158 C 0.12425 0.48002 0.55932 0.0
C1159 C 0.9666 0.3832 0.64351 0.0
O1160 O 0.22508 0.37771 0.60258 0.0
O1161 O 0.0953 0.22549 0.59678 0.0
O1162 O 0.09496 0.35111 0.72964 0.0
O1163 O 0.09499 0.3241 0.47249 0.0
O1164 O 0.1014 0.47441 0.6057 0.0
O1165 O -0.03064 0.34653 0.6054 0.0
O1166 O 0.14383 0.43939 0.53174 0.0
O1167 O 0.02477 0.28128 0.5122 0.0
O1168 O 0.00901 0.40742 0.66618 0.0
O1169 O 0.16726 0.26218 0.55255 0.0
O1170 O 0.18681 0.41819 0.67484 0.0
O1171 O 0.03448 0.29016 0.68977 0.0
Sc1172 Sc 0.56101 0.6461 0.5954 0.0
Sc1173 Sc 0.59389 0.56175 0.64687 0.0
Sc1174 Sc 0.64536 0.59463 0.56252 0.0
O1175 O 0.6294 0.63013 0.63091 0.0
C1176 C 0.52288 0.65927 0.49623 0.0
C1177 C 0.49472 0.52363 0.66005 0.0
C1178 C 0.65853 0.49546 0.5244 0.0
C1179 C 0.53867 0.67591 0.71113 0.0
C1180 C 0.67517 0.71036 0.54018 0.0
C1181 C 0.70962 0.5394 0.67669 0.0
O1182 O 0.4991 0.671 0.53985 0.0
O1183 O 0.53834 0.49984 0.67177 0.0
O1184 O 0.67026 0.53908 0.50061 0.0
O1185 O 0.53749 0.69838 0.66538 0.0
O1186 O 0.69764 0.66462 0.539 0.0
O1187 O 0.66388 0.53823 0.69915 0.0
O1188 O 0.62363 0.71059 0.55462 0.0
O1189 O 0.55312 0.62437 0.71136 0.0
O1190 O 0.70985 0.55385 0.62514 0.0
O1191 O 0.50016 0.57252 0.63642 0.0
O1192 O 0.57178 0.63565 0.50167 0.0
O1193 O 0.63491 0.5009 0.5733 0.0
Sc1194 Sc 0.31185 0.34482 0.39504 0.0
Sc1195 Sc 0.34408 0.39428 0.31335 0.0
Sc1196 Sc 0.39354 0.31259 0.34559 0.0
O1197 O 0.38179 0.38253 0.38329 0.0
C1198 C 0.41686 0.28244 0.45991 0.0
C1199 C 0.28171 0.45914 0.41836 0.0
C1200 C 0.45841 0.41759 0.28321 0.0
C1201 C 0.24606 0.41145 0.2788 0.0
C1202 C 0.27729 0.2468 0.41221 0.0
C1203 C 0.41071 0.27803 0.24757 0.0
O1204 O 0.36869 0.30346 0.46139 0.0
O1205 O 0.30272 0.46062 0.37019 0.0
O1206 O 0.45988 0.36942 0.30423 0.0
O1207 O 0.25025 0.38574 0.32594 0.0
O1208 O 0.32443 0.25099 0.3865 0.0
O1209 O 0.385 0.32518 0.25175 0.0
O1210 O 0.25043 0.29033 0.41764 0.0
O1211 O 0.28959 0.41688 0.25194 0.0
O1212 O 0.41613 0.25117 0.2911 0.0
O1213 O 0.28418 0.41405 0.44347 0.0
O1214 O 0.44196 0.28491 0.41482 0.0
O1215 O 0.41331 0.4427 0.28568 0.0
loop_
_geom_bond_atom_site_label_1
_geom_bond_atom_site_label_2
_geom_bond_distance
_geom_bond_site_symmetry_2
_ccdc_geom_bond_type
Mn0 O5 2.095 1_455 S
Mn0 O15 2.162 1_455 S
Mn0 O16 2.297 1_455 S
Mn0 O24 2.385 . S
Mn0 O25 2.209 . S
Mn0 O26 2.094 . S
Mn1 O6 2.121 1_455 S
Mn1 N8 2.257 . S
Mn1 N17 2.282 . S
Mn1 O25 2.215 . S
Mn1 O27 2.117 . S
C2 O24 1.234 . S
C2 O25 1.283 . S
C3 O15 1.281 . S
C3 O16 1.236 . S
C4 O26 1.240 . S
C4 O27 1.264 . S
O5 Mn0 2.095 1_655 S
O5 C14 1.250 . S
O6 Mn1 2.121 1_655 S
O6 C14 1.258 . S
C7 N8 1.326 . S
C7 C11 1.460 . S
C7 H13 0.929 . S
N8 Mn1 2.257 . S
N8 C7 1.326 . S
N8 C12 1.362 . S
C9 C10 1.258 . S
C9 C12 1.431 . S
C9 C29 1.449 . S
C10 C9 1.258 . S
C10 C11 1.477 . S
C10 H30 0.931 . S
C11 C7 1.460 . S
C11 C10 1.477 . S
C11 H31 0.930 . S
C12 N8 1.362 . S
C12 C9 1.431 . S
C12 C22 1.476 . S
H13 C7 0.929 . S
C14 O5 1.250 . S
C14 O6 1.258 . S
O15 Mn0 2.162 1_655 S
O15 C3 1.281 . S
O16 Mn0 2.297 1_655 S
O16 C3 1.236 . S
N17 Mn1 2.282 . S
N17 C18 1.328 . S
N17 C22 1.318 . S
C18 N17 1.328 . S
C18 C19 1.457 . S
C18 H23 0.929 . S
C19 C18 1.457 . S
C19 C20 1.291 . S
C19 H32 0.931 . S
C20 C19 1.291 . S
C20 C21 1.373 . S
C20 H33 0.929 . S
C21 C20 1.373 . S
C21 C22 1.396 . S
C21 C28 1.403 . S
C22 C12 1.476 . S
C22 N17 1.318 . S
C22 C21 1.396 . S
H23 C18 0.929 . S
O24 Mn0 2.385 . S
O24 C2 1.234 . S
O25 Mn0 2.209 . S
O25 Mn1 2.215 . S
O25 C2 1.283 . S
O26 Mn0 2.094 . S
O26 C4 1.240 . S
O27 Mn1 2.117 . S
O27 C4 1.264 . S
C28 C21 1.403 . S
C28 C29 1.399 . S
C28 H34 0.929 . S
C29 C9 1.449 . S
C29 C28 1.399 . S
C29 H35 0.930 . S
H30 C10 0.931 . S
H31 C11 0.930 . S
H32 C19 0.931 . S
H33 C20 0.929 . S
H34 C28 0.929 . S
H35 C29 0.930 . S
Mn36 O41 2.095 1_455 S
Mn36 O51 2.162 . S
Mn36 O52 2.297 . S
Mn36 O60 2.385 . S
Mn36 O61 2.209 1_455 S
Mn36 O62 2.094 . S
Mn37 O42 2.121 . S
Mn37 N44 2.257 . S
Mn37 N53 2.282 . S
Mn37 O61 2.215 . S
Mn37 O63 2.117 . S
C38 O60 1.234 1_655 S
C38 O61 1.283 . S
C39 O51 1.281 . S
C39 O52 1.236 . S
C40 O62 1.240 . S
C40 O63 1.264 1_455 S
O41 Mn36 2.095 1_655 S
O41 C50 1.250 . S
O42 Mn37 2.121 . S
O42 C50 1.258 . S
C43 N44 1.326 . S
C43 C47 1.460 . S
C43 H49 0.929 . S
N44 Mn37 2.257 . S
N44 C43 1.326 . S
N44 C48 1.362 . S
C45 C46 1.258 . S
C45 C48 1.431 . S
C45 C65 1.449 . S
C46 C45 1.258 . S
C46 C47 1.477 . S
C46 H66 0.931 . S
C47 C43 1.460 . S
C47 C46 1.477 . S
C47 H67 0.930 . S
C48 N44 1.362 . S
C48 C45 1.431 . S
C48 C58 1.476 . S
H49 C43 0.929 . S
C50 O41 1.250 . S
C50 O42 1.258 . S
O51 Mn36 2.162 . S
O51 C39 1.281 . S
O52 Mn36 2.297 . S
O52 C39 1.236 . S
N53 Mn37 2.282 . S
N53 C54 1.328 . S
N53 C58 1.318 . S
C54 N53 1.328 . S
C54 C55 1.457 . S
C54 H59 0.929 . S
C55 C54 1.457 . S
C55 C56 1.291 . S
C55 H68 0.931 . S
C56 C55 1.291 . S
C56 C57 1.373 . S
C56 H69 0.929 . S
C57 C56 1.373 . S
C57 C58 1.396 . S
C57 C64 1.403 . S
C58 C48 1.476 . S
C58 N53 1.318 . S
C58 C57 1.396 . S
H59 C54 0.929 . S
O60 Mn36 2.385 . S
O60 C38 1.234 1_455 S
O61 Mn36 2.209 1_655 S
O61 Mn37 2.215 . S
O61 C38 1.283 . S
O62 Mn36 2.094 . S
O62 C40 1.240 . S
O63 Mn37 2.117 . S
O63 C40 1.264 1_655 S
C64 C57 1.403 . S
C64 C65 1.399 . S
C64 H70 0.929 . S
C65 C45 1.449 . S
C65 C64 1.399 . S
C65 H71 0.930 . S
H66 C46 0.931 . S
H67 C47 0.930 . S
H68 C55 0.931 . S
H69 C56 0.929 . S
H70 C64 0.929 . S
H71 C65 0.930 . S
Mn72 O77 2.095 . S
Mn72 O87 2.162 . S
Mn72 O88 2.297 . S
Mn72 O96 2.385 . S
Mn72 O97 2.209 . S
Mn72 O98 2.094 . S
Mn73 O78 2.121 . S
Mn73 N80 2.257 . S
Mn73 N89 2.282 . S
Mn73 O97 2.215 . S
Mn73 O99 2.117 . S
C74 O96 1.234 . S
C74 O97 1.283 . S
C75 O87 1.281 . S
C75 O88 1.236 . S
C76 O98 1.240 . S
C76 O99 1.264 . S
O77 Mn72 2.095 . S
O77 C86 1.250 . S
O78 Mn73 2.121 . S
O78 C86 1.258 . S
C79 N80 1.326 . S
C79 C83 1.460 1_565 S
C79 H85 0.929 . S
N80 Mn73 2.257 . S
N80 C79 1.326 . S
N80 C84 1.362 . S
C81 C82 1.258 . S
C81 C84 1.431 1_545 S
C81 C101 1.449 . S
C82 C81 1.258 . S
C82 C83 1.477 . S
C82 H102 0.931 . S
C83 C79 1.460 1_545 S
C83 C82 1.477 . S
C83 H103 0.930 . S
C84 N80 1.362 . S
C84 C81 1.431 1_565 S
C84 C94 1.476 . S
H85 C79 0.929 . S
C86 O77 1.250 . S
C86 O78 1.258 . S
O87 Mn72 2.162 . S
O87 C75 1.281 . S
O88 Mn72 2.297 . S
O88 C75 1.236 . S
N89 Mn73 2.282 . S
N89 C90 1.328 . S
N89 C94 1.318 . S
C90 N89 1.328 . S
C90 C91 1.457 . S
C90 H95 0.929 . S
C91 C90 1.457 . S
C91 C92 1.291 . S
C91 H104 0.931 . S
C92 C91 1.291 . S
C92 C93 1.373 . S
C92 H105 0.929 . S
C93 C92 1.373 . S
C93 C94 1.396 . S
C93 C100 1.403 . S
C94 C84 1.476 . S
C94 N89 1.318 . S
C94 C93 1.396 . S
H95 C90 0.929 . S
O96 Mn72 2.385 . S
O96 C74 1.234 . S
O97 Mn72 2.209 . S
O97 Mn73 2.215 . S
O97 C74 1.283 . S
O98 Mn72 2.094 . S
O98 C76 1.240 . S
O99 Mn73 2.117 . S
O99 C76 1.264 . S
C100 C93 1.403 . S
C100 C101 1.399 1_565 S
C100 H106 0.929 1_565 S
C101 C81 1.449 . S
C101 C100 1.399 1_545 S
C101 H107 0.930 . S
H102 C82 0.931 . S
H103 C83 0.930 . S
H104 C91 0.931 . S
H105 C92 0.929 . S
H106 C100 0.929 1_545 S
H107 C101 0.930 . S
Mn108 O113 2.095 . S
Mn108 O123 2.162 . S
Mn108 O124 2.297 . S
Mn108 O132 2.385 . S
Mn108 O133 2.209 . S
Mn108 O134 2.094 . S
Mn109 O114 2.121 . S
Mn109 N116 2.257 . S
Mn109 N125 2.282 . S
Mn109 O133 2.215 . S
Mn109 O135 2.117 . S
C110 O132 1.234 . S
C110 O133 1.283 . S
C111 O123 1.281 . S
C111 O124 1.236 . S
C112 O134 1.240 . S
C112 O135 1.264 . S
O113 Mn108 2.095 . S
O113 C122 1.250 . S
O114 Mn109 2.121 . S
O114 C122 1.258 . S
C115 N116 1.326 . S
C115 C119 1.460 . S
C115 H121 0.929 . S
N116 Mn109 2.257 . S
N116 C115 1.326 . S
N116 C120 1.362 . S
C117 C118 1.258 . S
C117 C120 1.431 . S
C117 C137 1.449 . S
C118 C117 1.258 . S
C118 C119 1.477 . S
C118 H138 0.931 . S
C119 C115 1.460 . S
C119 C118 1.477 . S
C119 H139 0.930 . S
C120 N116 1.362 . S
C120 C117 1.431 . S
C120 C130 1.476 . S
H121 C115 0.929 . S
C122 O113 1.250 . S
C122 O114 1.258 . S
O123 Mn108 2.162 . S
O123 C111 1.281 . S
O124 Mn108 2.297 . S
O124 C111 1.236 . S
N125 Mn109 2.282 . S
N125 C126 1.328 . S
N125 C130 1.318 . S
C126 N125 1.328 . S
C126 C127 1.457 1_545 S
C126 H131 0.929 . S
C127 C126 1.457 1_565 S
C127 C128 1.291 . S
C127 H140 0.931 . S
C128 C127 1.291 . S
C128 C129 1.373 1_565 S
C128 H141 0.929 . S
C129 C128 1.373 1_545 S
C129 C130 1.396 . S
C129 C136 1.403 . S
C130 C120 1.476 . S
C130 N125 1.318 . S
C130 C129 1.396 . S
H131 C126 0.929 . S
O132 Mn108 2.385 . S
O132 C110 1.234 . S
O133 Mn108 2.209 . S
O133 Mn109 2.215 . S
O133 C110 1.283 . S
O134 Mn108 2.094 . S
O134 C112 1.240 . S
O135 Mn109 2.117 . S
O135 C112 1.264 . S
C136 C129 1.403 . S
C136 C137 1.399 . S
C136 H142 0.929 1_545 S
C137 C117 1.449 . S
C137 C136 1.399 . S
C137 H143 0.930 . S
H138 C118 0.931 . S
H139 C119 0.930 . S
H140 C127 0.931 . S
H141 C128 0.929 . S
H142 C136 0.929 1_565 S
H143 C137 0.930 . S
Mn144 O149 2.095 . S
Mn144 O159 2.162 . S
Mn144 O160 2.297 . S
Mn144 O168 2.385 1_655 S
Mn144 O169 2.209 1_655 S
Mn144 O170 2.094 1_655 S
Mn145 O150 2.121 1_455 S
Mn145 N152 2.257 . S
Mn145 N161 2.282 . S
Mn145 O169 2.215 . S
Mn145 O171 2.117 . S
C146 O168 1.234 . S
C146 O169 1.283 . S
C147 O159 1.281 . S
C147 O160 1.236 . S
C148 O170 1.240 . S
C148 O171 1.264 . S
O149 Mn144 2.095 . S
O149 C158 1.250 . S
O150 Mn145 2.121 1_655 S
O150 C158 1.258 . S
C151 N152 1.326 . S
C151 C155 1.460 1_565 S
C151 H157 0.929 . S
N152 Mn145 2.257 . S
N152 C151 1.326 . S
N152 C156 1.362 . S
C153 C154 1.258 . S
C153 C156 1.431 1_545 S
C153 C173 1.449 . S
C154 C153 1.258 . S
C154 C155 1.477 . S
C154 H174 0.931 . S
C155 C151 1.460 1_545 S
C155 C154 1.477 . S
C155 H175 0.930 . S
C156 N152 1.362 . S
C156 C153 1.431 1_565 S
C156 C166 1.476 . S
H157 C151 0.929 . S
C158 O149 1.250 . S
C158 O150 1.258 . S
O159 Mn144 2.162 . S
O159 C147 1.281 . S
O160 Mn144 2.297 . S
O160 C147 1.236 . S
N161 Mn145 2.282 . S
N161 C162 1.328 . S
N161 C166 1.318 . S
C162 N161 1.328 . S
C162 C163 1.457 . S
C162 H167 0.929 . S
C163 C162 1.457 . S
C163 C164 1.291 . S
C163 H176 0.931 . S
C164 C163 1.291 . S
C164 C165 1.373 . S
C164 H177 0.929 . S
C165 C164 1.373 . S
C165 C166 1.396 . S
C165 C172 1.403 . S
C166 C156 1.476 . S
C166 N161 1.318 . S
C166 C165 1.396 . S
H167 C162 0.929 . S
O168 Mn144 2.385 1_455 S
O168 C146 1.234 . S
O169 Mn144 2.209 1_455 S
O169 Mn145 2.215 . S
O169 C146 1.283 . S
O170 Mn144 2.094 1_455 S
O170 C148 1.240 . S
O171 Mn145 2.117 . S
O171 C148 1.264 . S
C172 C165 1.403 . S
C172 C173 1.399 1_565 S
C172 H178 0.929 1_565 S
C173 C153 1.449 . S
C173 C172 1.399 1_545 S
C173 H179 0.930 . S
H174 C154 0.931 . S
H175 C155 0.930 . S
H176 C163 0.931 . S
H177 C164 0.929 . S
H178 C172 0.929 1_545 S
H179 C173 0.930 . S
Mn180 O185 2.095 . S
Mn180 O195 2.162 . S
Mn180 O196 2.297 . S
Mn180 O204 2.385 . S
Mn180 O205 2.209 . S
Mn180 O206 2.094 . S
Mn181 O186 2.121 . S
Mn181 N188 2.257 . S
Mn181 N197 2.282 . S
Mn181 O205 2.215 . S
Mn181 O207 2.117 . S
C182 O204 1.234 . S
C182 O205 1.283 . S
C183 O195 1.281 . S
C183 O196 1.236 . S
C184 O206 1.240 . S
C184 O207 1.264 . S
O185 Mn180 2.095 . S
O185 C194 1.250 . S
O186 Mn181 2.121 . S
O186 C194 1.258 . S
C187 N188 1.326 . S
C187 C191 1.460 . S
C187 H193 0.929 . S
N188 Mn181 2.257 . S
N188 C187 1.326 . S
N188 C192 1.362 . S
C189 C190 1.258 . S
C189 C192 1.431 . S
C189 C209 1.449 . S
C190 C189 1.258 . S
C190 C191 1.477 . S
C190 H210 0.931 . S
C191 C187 1.460 . S
C191 C190 1.477 . S
C191 H211 0.930 . S
C192 N188 1.362 . S
C192 C189 1.431 . S
C192 C202 1.476 . S
H193 C187 0.929 . S
C194 O185 1.250 . S
C194 O186 1.258 . S
O195 Mn180 2.162 . S
O195 C183 1.281 . S
O196 Mn180 2.297 . S
O196 C183 1.236 . S
N197 Mn181 2.282 . S
N197 C198 1.328 . S
N197 C202 1.318 . S
C198 N197 1.328 . S
C198 C199 1.457 . S
C198 H203 0.929 . S
C199 C198 1.457 . S
C199 C200 1.291 . S
C199 H212 0.931 . S
C200 C199 1.291 . S
C200 C201 1.373 . S
C200 H213 0.929 . S
C201 C200 1.373 . S
C201 C202 1.396 . S
C201 C208 1.403 . S
C202 C192 1.476 . S
C202 N197 1.318 . S
C202 C201 1.396 . S
H203 C198 0.929 . S
O204 Mn180 2.385 . S
O204 C182 1.234 . S
O205 Mn180 2.209 . S
O205 Mn181 2.215 . S
O205 C182 1.283 . S
O206 Mn180 2.094 . S
O206 C184 1.240 . S
O207 Mn181 2.117 . S
O207 C184 1.264 . S
C208 C201 1.403 . S
C208 C209 1.399 . S
C208 H214 0.929 . S
C209 C189 1.449 . S
C209 C208 1.399 . S
C209 H215 0.930 . S
H210 C190 0.931 . S
H211 C191 0.930 . S
H212 C199 0.931 . S
H213 C200 0.929 . S
H214 C208 0.929 . S
H215 C209 0.930 . S
Mn216 O221 2.095 . S
Mn216 O231 2.162 . S
Mn216 O232 2.297 . S
Mn216 O240 2.385 . S
Mn216 O241 2.209 . S
Mn216 O242 2.094 . S
Mn217 O222 2.121 . S
Mn217 N224 2.257 . S
Mn217 N233 2.282 . S
Mn217 O241 2.215 . S
Mn217 O243 2.117 . S
C218 O240 1.234 . S
C218 O241 1.283 . S
C219 O231 1.281 . S
C219 O232 1.236 . S
C220 O242 1.240 . S
C220 O243 1.264 . S
O221 Mn216 2.095 . S
O221 C230 1.250 . S
O222 Mn217 2.121 . S
O222 C230 1.258 . S
C223 N224 1.326 . S
C223 C227 1.460 . S
C223 H229 0.929 . S
N224 Mn217 2.257 . S
N224 C223 1.326 . S
N224 C228 1.362 . S
C225 C226 1.258 . S
C225 C228 1.431 . S
C225 C245 1.449 . S
C226 C225 1.258 . S
C226 C227 1.477 . S
C226 H246 0.931 . S
C227 C223 1.460 . S
C227 C226 1.477 . S
C227 H247 0.930 . S
C228 N224 1.362 . S
C228 C225 1.431 . S
C228 C238 1.476 . S
H229 C223 0.929 . S
C230 O221 1.250 . S
C230 O222 1.258 . S
O231 Mn216 2.162 . S
O231 C219 1.281 . S
O232 Mn216 2.297 . S
O232 C219 1.236 . S
N233 Mn217 2.282 . S
N233 C234 1.328 . S
N233 C238 1.318 . S
C234 N233 1.328 . S
C234 C235 1.457 . S
C234 H239 0.929 . S
C235 C234 1.457 . S
C235 C236 1.291 . S
C235 H248 0.931 . S
C236 C235 1.291 . S
C236 C237 1.373 . S
C236 H249 0.929 . S
C237 C236 1.373 . S
C237 C238 1.396 . S
C237 C244 1.403 . S
C238 C228 1.476 . S
C238 N233 1.318 . S
C238 C237 1.396 . S
H239 C234 0.929 . S
O240 Mn216 2.385 . S
O240 C218 1.234 . S
O241 Mn216 2.209 . S
O241 Mn217 2.215 . S
O241 C218 1.283 . S
O242 Mn216 2.094 . S
O242 C220 1.240 . S
O243 Mn217 2.117 . S
O243 C220 1.264 . S
C244 C237 1.403 . S
C244 C245 1.399 . S
C244 H250 0.929 . S
C245 C225 1.449 . S
C245 C244 1.399 . S
C245 H251 0.930 . S
H246 C226 0.931 . S
H247 C227 0.930 . S
H248 C235 0.931 . S
H249 C236 0.929 . S
H250 C244 0.929 . S
H251 C245 0.930 . S
Mn252 O257 2.095 1_455 S
Mn252 O267 2.162 . S
Mn252 O268 2.297 . S
Mn252 O276 2.385 . S
Mn252 O277 2.209 1_455 S
Mn252 O278 2.094 . S
Mn253 O258 2.121 . S
Mn253 N260 2.257 . S
Mn253 N269 2.282 . S
Mn253 O277 2.215 . S
Mn253 O279 2.117 . S
C254 O276 1.234 1_655 S
C254 O277 1.283 . S
C255 O267 1.281 . S
C255 O268 1.236 . S
C256 O278 1.240 . S
C256 O279 1.264 1_455 S
O257 Mn252 2.095 1_655 S
O257 C266 1.250 . S
O258 Mn253 2.121 . S
O258 C266 1.258 . S
C259 N260 1.326 . S
C259 C263 1.460 . S
C259 H265 0.929 . S
N260 Mn253 2.257 . S
N260 C259 1.326 . S
N260 C264 1.362 . S
C261 C262 1.258 . S
C261 C264 1.431 . S
C261 C281 1.449 . S
C262 C261 1.258 . S
C262 C263 1.477 . S
C262 H282 0.931 . S
C263 C259 1.460 . S
C263 C262 1.477 . S
C263 H283 0.930 . S
C264 N260 1.362 . S
C264 C261 1.431 . S
C264 C274 1.476 . S
H265 C259 0.929 . S
C266 O257 1.250 . S
C266 O258 1.258 . S
O267 Mn252 2.162 . S
O267 C255 1.281 . S
O268 Mn252 2.297 . S
O268 C255 1.236 . S
N269 Mn253 2.282 . S
N269 C270 1.328 . S
N269 C274 1.318 . S
C270 N269 1.328 . S
C270 C271 1.457 1_545 S
C270 H275 0.929 . S
C271 C270 1.457 1_565 S
C271 C272 1.291 . S
C271 H284 0.931 . S
C272 C271 1.291 . S
C272 C273 1.373 1_565 S
C272 H285 0.929 . S
C273 C272 1.373 1_545 S
C273 C274 1.396 . S
C273 C280 1.403 . S
C274 C264 1.476 . S
C274 N269 1.318 . S
C274 C273 1.396 . S
H275 C270 0.929 . S
O276 Mn252 2.385 . S
O276 C254 1.234 1_455 S
O277 Mn252 2.209 1_655 S
O277 Mn253 2.215 . S
O277 C254 1.283 . S
O278 Mn252 2.094 . S
O278 C256 1.240 . S
O279 Mn253 2.117 . S
O279 C256 1.264 1_655 S
C280 C273 1.403 . S
C280 C281 1.399 . S
C280 H286 0.929 1_545 S
C281 C261 1.449 . S
C281 C280 1.399 . S
C281 H287 0.930 . S
H282 C262 0.931 . S
H283 C263 0.930 . S
H284 C271 0.931 . S
H285 C272 0.929 . S
H286 C280 0.929 1_565 S
H287 C281 0.930 . S
Mn288 O293 2.095 1_545 S
Mn288 O303 2.162 1_545 S
Mn288 O304 2.297 1_545 S
Mn288 O312 2.385 . S
Mn288 O313 2.209 . S
Mn288 O314 2.094 . S
Mn289 O294 2.121 1_545 S
Mn289 N296 2.257 . S
Mn289 N305 2.282 . S
Mn289 O313 2.215 . S
Mn289 O315 2.117 . S
C290 O312 1.234 . S
C290 O313 1.283 . S
C291 O303 1.281 . S
C291 O304 1.236 . S
C292 O314 1.240 . S
C292 O315 1.264 . S
O293 Mn288 2.095 1_565 S
O293 C302 1.250 . S
O294 Mn289 2.121 1_565 S
O294 C302 1.258 . S
C295 N296 1.326 . S
C295 C299 1.460 . S
C295 H301 0.929 . S
N296 Mn289 2.257 . S
N296 C295 1.326 . S
N296 C300 1.362 . S
C297 C298 1.258 . S
C297 C300 1.431 . S
C297 C317 1.449 . S
C298 C297 1.258 . S
C298 C299 1.477 . S
C298 H318 0.931 . S
C299 C295 1.460 . S
C299 C298 1.477 . S
C299 H319 0.930 . S
C300 N296 1.362 . S
C300 C297 1.431 . S
C300 C310 1.476 . S
H301 C295 0.929 . S
C302 O293 1.250 . S
C302 O294 1.258 . S
O303 Mn288 2.162 1_565 S
O303 C291 1.281 . S
O304 Mn288 2.297 1_565 S
O304 C291 1.236 . S
N305 Mn289 2.282 . S
N305 C306 1.328 . S
N305 C310 1.318 . S
C306 N305 1.328 . S
C306 C307 1.457 . S
C306 H311 0.929 . S
C307 C306 1.457 . S
C307 C308 1.291 . S
C307 H320 0.931 . S
C308 C307 1.291 . S
C308 C309 1.373 . S
C308 H321 0.929 . S
C309 C308 1.373 . S
C309 C310 1.396 . S
C309 C316 1.403 . S
C310 C300 1.476 . S
C310 N305 1.318 . S
C310 C309 1.396 . S
H311 C306 0.929 . S
O312 Mn288 2.385 . S
O312 C290 1.234 . S
O313 Mn288 2.209 . S
O313 Mn289 2.215 . S
O313 C290 1.283 . S
O314 Mn288 2.094 . S
O314 C292 1.240 . S
O315 Mn289 2.117 . S
O315 C292 1.264 . S
C316 C309 1.403 . S
C316 C317 1.399 . S
C316 H322 0.929 . S
C317 C297 1.449 . S
C317 C316 1.399 . S
C317 H323 0.930 . S
H318 C298 0.931 . S
H319 C299 0.930 . S
H320 C307 0.931 . S
H321 C308 0.929 . S
H322 C316 0.929 . S
H323 C317 0.930 . S
Mn324 O329 2.095 . S
Mn324 O339 2.162 . S
Mn324 O340 2.297 . S
Mn324 O348 2.385 . S
Mn324 O349 2.209 . S
Mn324 O350 2.094 . S
Mn325 O330 2.121 . S
Mn325 N332 2.257 . S
Mn325 N341 2.282 . S
Mn325 O349 2.215 . S
Mn325 O351 2.117 . S
C326 O348 1.234 . S
C326 O349 1.283 . S
C327 O339 1.281 . S
C327 O340 1.236 . S
C328 O350 1.240 . S
C328 O351 1.264 . S
O329 Mn324 2.095 . S
O329 C338 1.250 . S
O330 Mn325 2.121 . S
O330 C338 1.258 . S
C331 N332 1.326 . S
C331 C335 1.460 . S
C331 H337 0.929 . S
N332 Mn325 2.257 . S
N332 C331 1.326 . S
N332 C336 1.362 . S
C333 C334 1.258 . S
C333 C336 1.431 . S
C333 C353 1.449 . S
C334 C333 1.258 . S
C334 C335 1.477 . S
C334 H354 0.931 . S
C335 C331 1.460 . S
C335 C334 1.477 . S
C335 H355 0.930 . S
C336 N332 1.362 . S
C336 C333 1.431 . S
C336 C346 1.476 . S
H337 C331 0.929 . S
C338 O329 1.250 . S
C338 O330 1.258 . S
O339 Mn324 2.162 . S
O339 C327 1.281 . S
O340 Mn324 2.297 . S
O340 C327 1.236 . S
N341 Mn325 2.282 . S
N341 C342 1.328 . S
N341 C346 1.318 . S
C342 N341 1.328 . S
C342 C343 1.457 1_455 S
C342 H347 0.929 . S
C343 C342 1.457 1_655 S
C343 C344 1.291 . S
C343 H356 0.931 . S
C344 C343 1.291 . S
C344 C345 1.373 1_655 S
C344 H357 0.929 . S
C345 C344 1.373 1_455 S
C345 C346 1.396 . S
C345 C352 1.403 . S
C346 C336 1.476 . S
C346 N341 1.318 . S
C346 C345 1.396 . S
H347 C342 0.929 . S
O348 Mn324 2.385 . S
O348 C326 1.234 . S
O349 Mn324 2.209 . S
O349 Mn325 2.215 . S
O349 C326 1.283 . S
O350 Mn324 2.094 . S
O350 C328 1.240 . S
O351 Mn325 2.117 . S
O351 C328 1.264 . S
C352 C345 1.403 . S
C352 C353 1.399 . S
C352 H358 0.929 1_455 S
C353 C333 1.449 . S
C353 C352 1.399 . S
C353 H359 0.930 . S
H354 C334 0.931 . S
H355 C335 0.930 . S
H356 C343 0.931 . S
H357 C344 0.929 . S
H358 C352 0.929 1_655 S
H359 C353 0.930 . S
Mn360 O365 2.095 . S
Mn360 O375 2.162 . S
Mn360 O376 2.297 . S
Mn360 O384 2.385 1_565 S
Mn360 O385 2.209 1_565 S
Mn360 O386 2.094 1_565 S
Mn361 O366 2.121 1_545 S
Mn361 N368 2.257 . S
Mn361 N377 2.282 . S
Mn361 O385 2.215 . S
Mn361 O387 2.117 . S
C362 O384 1.234 . S
C362 O385 1.283 . S
C363 O375 1.281 . S
C363 O376 1.236 . S
C364 O386 1.240 . S
C364 O387 1.264 . S
O365 Mn360 2.095 . S
O365 C374 1.250 . S
O366 Mn361 2.121 1_565 S
O366 C374 1.258 . S
C367 N368 1.326 . S
C367 C371 1.460 1_556 S
C367 H373 0.929 . S
N368 Mn361 2.257 . S
N368 C367 1.326 . S
N368 C372 1.362 . S
C369 C370 1.258 . S
C369 C372 1.431 1_554 S
C369 C389 1.449 . S
C370 C369 1.258 . S
C370 C371 1.477 . S
C370 H390 0.931 . S
C371 C367 1.460 1_554 S
C371 C370 1.477 . S
C371 H391 0.930 . S
C372 N368 1.362 . S
C372 C369 1.431 1_556 S
C372 C382 1.476 . S
H373 C367 0.929 . S
C374 O365 1.250 . S
C374 O366 1.258 . S
O375 Mn360 2.162 . S
O375 C363 1.281 . S
O376 Mn360 2.297 . S
O376 C363 1.236 . S
N377 Mn361 2.282 . S
N377 C378 1.328 . S
N377 C382 1.318 . S
C378 N377 1.328 . S
C378 C379 1.457 . S
C378 H383 0.929 . S
C379 C378 1.457 . S
C379 C380 1.291 . S
C379 H392 0.931 . S
C380 C379 1.291 . S
C380 C381 1.373 . S
C380 H393 0.929 . S
C381 C380 1.373 . S
C381 C382 1.396 . S
C381 C388 1.403 . S
C382 C372 1.476 . S
C382 N377 1.318 . S
C382 C381 1.396 . S
H383 C378 0.929 . S
O384 Mn360 2.385 1_545 S
O384 C362 1.234 . S
O385 Mn360 2.209 1_545 S
O385 Mn361 2.215 . S
O385 C362 1.283 . S
O386 Mn360 2.094 1_545 S
O386 C364 1.240 . S
O387 Mn361 2.117 . S
O387 C364 1.264 . S
C388 C381 1.403 . S
C388 C389 1.399 1_556 S
C388 H394 0.929 1_556 S
C389 C369 1.449 . S
C389 C388 1.399 1_554 S
C389 H395 0.930 . S
H390 C370 0.931 . S
H391 C371 0.930 . S
H392 C379 0.931 . S
H393 C380 0.929 . S
H394 C388 0.929 1_554 S
H395 C389 0.930 . S
Mn396 O401 2.095 1_554 S
Mn396 O411 2.162 . S
Mn396 O412 2.297 . S
Mn396 O420 2.385 . S
Mn396 O421 2.209 1_554 S
Mn396 O422 2.094 . S
Mn397 O402 2.121 . S
Mn397 N404 2.257 . S
Mn397 N413 2.282 . S
Mn397 O421 2.215 . S
Mn397 O423 2.117 . S
C398 O420 1.234 1_556 S
C398 O421 1.283 . S
C399 O411 1.281 . S
C399 O412 1.236 . S
C400 O422 1.240 . S
C400 O423 1.264 1_554 S
O401 Mn396 2.095 1_556 S
O401 C410 1.250 . S
O402 Mn397 2.121 . S
O402 C410 1.258 . S
C403 N404 1.326 . S
C403 C407 1.460 . S
C403 H409 0.929 . S
N404 Mn397 2.257 . S
N404 C403 1.326 . S
N404 C408 1.362 . S
C405 C406 1.258 . S
C405 C408 1.431 . S
C405 C425 1.449 . S
C406 C405 1.258 . S
C406 C407 1.477 . S
C406 H426 0.931 . S
C407 C403 1.460 . S
C407 C406 1.477 . S
C407 H427 0.930 . S
C408 N404 1.362 . S
C408 C405 1.431 . S
C408 C418 1.476 . S
H409 C403 0.929 . S
C410 O401 1.250 . S
C410 O402 1.258 . S
O411 Mn396 2.162 . S
O411 C399 1.281 . S
O412 Mn396 2.297 . S
O412 C399 1.236 . S
N413 Mn397 2.282 . S
N413 C414 1.328 . S
N413 C418 1.318 . S
C414 N413 1.328 . S
C414 C415 1.457 1_455 S
C414 H419 0.929 . S
C415 C414 1.457 1_655 S
C415 C416 1.291 . S
C415 H428 0.931 . S
C416 C415 1.291 . S
C416 C417 1.373 1_655 S
C416 H429 0.929 . S
C417 C416 1.373 1_455 S
C417 C418 1.396 . S
C417 C424 1.403 . S
C418 C408 1.476 . S
C418 N413 1.318 . S
C418 C417 1.396 . S
H419 C414 0.929 . S
O420 Mn396 2.385 . S
O420 C398 1.234 1_554 S
O421 Mn396 2.209 1_556 S
O421 Mn397 2.215 . S
O421 C398 1.283 . S
O422 Mn396 2.094 . S
O422 C400 1.240 . S
O423 Mn397 2.117 . S
O423 C400 1.264 1_556 S
C424 C417 1.403 . S
C424 C425 1.399 . S
C424 H430 0.929 1_455 S
C425 C405 1.449 . S
C425 C424 1.399 . S
C425 H431 0.930 . S
H426 C406 0.931 . S
H427 C407 0.930 . S
H428 C415 0.931 . S
H429 C416 0.929 . S
H430 C424 0.929 1_655 S
H431 C425 0.930 . S
Mn432 O437 2.095 1_554 S
Mn432 O447 2.162 1_554 S
Mn432 O448 2.297 1_554 S
Mn432 O456 2.385 . S
Mn432 O457 2.209 . S
Mn432 O458 2.094 . S
Mn433 O438 2.121 1_554 S
Mn433 N440 2.257 . S
Mn433 N449 2.282 . S
Mn433 O457 2.215 . S
Mn433 O459 2.117 . S
C434 O456 1.234 . S
C434 O457 1.283 . S
C435 O447 1.281 . S
C435 O448 1.236 . S
C436 O458 1.240 . S
C436 O459 1.264 . S
O437 Mn432 2.095 1_556 S
O437 C446 1.250 . S
O438 Mn433 2.121 1_556 S
O438 C446 1.258 . S
C439 N440 1.326 . S
C439 C443 1.460 . S
C439 H445 0.929 . S
N440 Mn433 2.257 . S
N440 C439 1.326 . S
N440 C444 1.362 . S
C441 C442 1.258 . S
C441 C444 1.431 . S
C441 C461 1.449 . S
C442 C441 1.258 . S
C442 C443 1.477 . S
C442 H462 0.931 . S
C443 C439 1.460 . S
C443 C442 1.477 . S
C443 H463 0.930 . S
C444 N440 1.362 . S
C444 C441 1.431 . S
C444 C454 1.476 . S
H445 C439 0.929 . S
C446 O437 1.250 . S
C446 O438 1.258 . S
O447 Mn432 2.162 1_556 S
O447 C435 1.281 . S
O448 Mn432 2.297 1_556 S
O448 C435 1.236 . S
N449 Mn433 2.282 . S
N449 C450 1.328 . S
N449 C454 1.318 . S
C450 N449 1.328 . S
C450 C451 1.457 . S
C450 H455 0.929 . S
C451 C450 1.457 . S
C451 C452 1.291 . S
C451 H464 0.931 . S
C452 C451 1.291 . S
C452 C453 1.373 . S
C452 H465 0.929 . S
C453 C452 1.373 . S
C453 C454 1.396 . S
C453 C460 1.403 . S
C454 C444 1.476 . S
C454 N449 1.318 . S
C454 C453 1.396 . S
H455 C450 0.929 . S
O456 Mn432 2.385 . S
O456 C434 1.234 . S
O457 Mn432 2.209 . S
O457 Mn433 2.215 . S
O457 C434 1.283 . S
O458 Mn432 2.094 . S
O458 C436 1.240 . S
O459 Mn433 2.117 . S
O459 C436 1.264 . S
C460 C453 1.403 . S
C460 C461 1.399 . S
C460 H466 0.929 . S
C461 C441 1.449 . S
C461 C460 1.399 . S
C461 H467 0.930 . S
H462 C442 0.931 . S
H463 C443 0.930 . S
H464 C451 0.931 . S
H465 C452 0.929 . S
H466 C460 0.929 . S
H467 C461 0.930 . S
Mn468 O473 2.095 . S
Mn468 O483 2.162 . S
Mn468 O484 2.297 . S
Mn468 O492 2.385 1_556 S
Mn468 O493 2.209 1_556 S
Mn468 O494 2.094 1_556 S
Mn469 O474 2.121 1_554 S
Mn469 N476 2.257 . S
Mn469 N485 2.282 . S
Mn469 O493 2.215 . S
Mn469 O495 2.117 . S
C470 O492 1.234 . S
C470 O493 1.283 . S
C471 O483 1.281 . S
C471 O484 1.236 . S
C472 O494 1.240 . S
C472 O495 1.264 . S
O473 Mn468 2.095 . S
O473 C482 1.250 . S
O474 Mn469 2.121 1_556 S
O474 C482 1.258 . S
C475 N476 1.326 . S
C475 C479 1.460 1_655 S
C475 H481 0.929 . S
N476 Mn469 2.257 . S
N476 C475 1.326 . S
N476 C480 1.362 . S
C477 C478 1.258 . S
C477 C480 1.431 1_455 S
C477 C497 1.449 . S
C478 C477 1.258 . S
C478 C479 1.477 . S
C478 H498 0.931 . S
C479 C475 1.460 1_455 S
C479 C478 1.477 . S
C479 H499 0.930 . S
C480 N476 1.362 . S
C480 C477 1.431 1_655 S
C480 C490 1.476 . S
H481 C475 0.929 . S
C482 O473 1.250 . S
C482 O474 1.258 . S
O483 Mn468 2.162 . S
O483 C471 1.281 . S
O484 Mn468 2.297 . S
O484 C471 1.236 . S
N485 Mn469 2.282 . S
N485 C486 1.328 . S
N485 C490 1.318 . S
C486 N485 1.328 . S
C486 C487 1.457 . S
C486 H491 0.929 . S
C487 C486 1.457 . S
C487 C488 1.291 . S
C487 H500 0.931 . S
C488 C487 1.291 . S
C488 C489 1.373 . S
C488 H501 0.929 . S
C489 C488 1.373 . S
C489 C490 1.396 . S
C489 C496 1.403 . S
C490 C480 1.476 . S
C490 N485 1.318 . S
C490 C489 1.396 . S
H491 C486 0.929 . S
O492 Mn468 2.385 1_554 S
O492 C470 1.234 . S
O493 Mn468 2.209 1_554 S
O493 Mn469 2.215 . S
O493 C470 1.283 . S
O494 Mn468 2.094 1_554 S
O494 C472 1.240 . S
O495 Mn469 2.117 . S
O495 C472 1.264 . S
C496 C489 1.403 . S
C496 C497 1.399 1_655 S
C496 H502 0.929 1_655 S
C497 C477 1.449 . S
C497 C496 1.399 1_455 S
C497 H503 0.930 . S
H498 C478 0.931 . S
H499 C479 0.930 . S
H500 C487 0.931 . S
H501 C488 0.929 . S
H502 C496 0.929 1_455 S
H503 C497 0.930 . S
Mn504 O509 2.095 . S
Mn504 O519 2.162 . S
Mn504 O520 2.297 . S
Mn504 O528 2.385 . S
Mn504 O529 2.209 . S
Mn504 O530 2.094 . S
Mn505 O510 2.121 . S
Mn505 N512 2.257 . S
Mn505 N521 2.282 . S
Mn505 O529 2.215 . S
Mn505 O531 2.117 . S
C506 O528 1.234 . S
C506 O529 1.283 . S
C507 O519 1.281 . S
C507 O520 1.236 . S
C508 O530 1.240 . S
C508 O531 1.264 . S
O509 Mn504 2.095 . S
O509 C518 1.250 . S
O510 Mn505 2.121 . S
O510 C518 1.258 . S
C511 N512 1.326 . S
C511 C515 1.460 . S
C511 H517 0.929 . S
N512 Mn505 2.257 . S
N512 C511 1.326 . S
N512 C516 1.362 . S
C513 C514 1.258 . S
C513 C516 1.431 . S
C513 C533 1.449 . S
C514 C513 1.258 . S
C514 C515 1.477 . S
C514 H534 0.931 . S
C515 C511 1.460 . S
C515 C514 1.477 . S
C515 H535 0.930 . S
C516 N512 1.362 . S
C516 C513 1.431 . S
C516 C526 1.476 . S
H517 C511 0.929 . S
C518 O509 1.250 . S
C518 O510 1.258 . S
O519 Mn504 2.162 . S
O519 C507 1.281 . S
O520 Mn504 2.297 . S
O520 C507 1.236 . S
N521 Mn505 2.282 . S
N521 C522 1.328 . S
N521 C526 1.318 . S
C522 N521 1.328 . S
C522 C523 1.457 1_554 S
C522 H527 0.929 . S
C523 C522 1.457 1_556 S
C523 C524 1.291 . S
C523 H536 0.931 . S
C524 C523 1.291 . S
C524 C525 1.373 1_556 S
C524 H537 0.929 . S
C525 C524 1.373 1_554 S
C525 C526 1.396 . S
C525 C532 1.403 . S
C526 C516 1.476 . S
C526 N521 1.318 . S
C526 C525 1.396 . S
H527 C522 0.929 . S
O528 Mn504 2.385 . S
O528 C506 1.234 . S
O529 Mn504 2.209 . S
O529 Mn505 2.215 . S
O529 C506 1.283 . S
O530 Mn504 2.094 . S
O530 C508 1.240 . S
O531 Mn505 2.117 . S
O531 C508 1.264 . S
C532 C525 1.403 . S
C532 C533 1.399 . S
C532 H538 0.929 1_554 S
C533 C513 1.449 . S
C533 C532 1.399 . S
C533 H539 0.930 . S
H534 C514 0.931 . S
H535 C515 0.930 . S
H536 C523 0.931 . S
H537 C524 0.929 . S
H538 C532 0.929 1_556 S
H539 C533 0.930 . S
Mn540 O545 2.095 . S
Mn540 O555 2.162 . S
Mn540 O556 2.297 . S
Mn540 O564 2.385 . S
Mn540 O565 2.209 . S
Mn540 O566 2.094 . S
Mn541 O546 2.121 . S
Mn541 N548 2.257 . S
Mn541 N557 2.282 . S
Mn541 O565 2.215 . S
Mn541 O567 2.117 . S
C542 O564 1.234 . S
C542 O565 1.283 . S
C543 O555 1.281 . S
C543 O556 1.236 . S
C544 O566 1.240 . S
C544 O567 1.264 . S
O545 Mn540 2.095 . S
O545 C554 1.250 . S
O546 Mn541 2.121 . S
O546 C554 1.258 . S
C547 N548 1.326 . S
C547 C551 1.460 1_655 S
C547 H553 0.929 . S
N548 Mn541 2.257 . S
N548 C547 1.326 . S
N548 C552 1.362 . S
C549 C550 1.258 . S
C549 C552 1.431 1_455 S
C549 C569 1.449 . S
C550 C549 1.258 . S
C550 C551 1.477 . S
C550 H570 0.931 . S
C551 C547 1.460 1_455 S
C551 C550 1.477 . S
C551 H571 0.930 . S
C552 N548 1.362 . S
C552 C549 1.431 1_655 S
C552 C562 1.476 . S
H553 C547 0.929 . S
C554 O545 1.250 . S
C554 O546 1.258 . S
O555 Mn540 2.162 . S
O555 C543 1.281 . S
O556 Mn540 2.297 . S
O556 C543 1.236 . S
N557 Mn541 2.282 . S
N557 C558 1.328 . S
N557 C562 1.318 . S
C558 N557 1.328 . S
C558 C559 1.457 . S
C558 H563 0.929 . S
C559 C558 1.457 . S
C559 C560 1.291 . S
C559 H572 0.931 . S
C560 C559 1.291 . S
C560 C561 1.373 . S
C560 H573 0.929 . S
C561 C560 1.373 . S
C561 C562 1.396 . S
C561 C568 1.403 . S
C562 C552 1.476 . S
C562 N557 1.318 . S
C562 C561 1.396 . S
H563 C558 0.929 . S
O564 Mn540 2.385 . S
O564 C542 1.234 . S
O565 Mn540 2.209 . S
O565 Mn541 2.215 . S
O565 C542 1.283 . S
O566 Mn540 2.094 . S
O566 C544 1.240 . S
O567 Mn541 2.117 . S
O567 C544 1.264 . S
C568 C561 1.403 . S
C568 C569 1.399 1_655 S
C568 H574 0.929 1_655 S
C569 C549 1.449 . S
C569 C568 1.399 1_455 S
C569 H575 0.930 . S
H570 C550 0.931 . S
H571 C551 0.930 . S
H572 C559 0.931 . S
H573 C560 0.929 . S
H574 C568 0.929 1_455 S
H575 C569 0.930 . S
Mn576 O581 2.095 1_545 S
Mn576 O591 2.162 . S
Mn576 O592 2.297 . S
Mn576 O600 2.385 . S
Mn576 O601 2.209 1_545 S
Mn576 O602 2.094 . S
Mn577 O582 2.121 . S
Mn577 N584 2.257 . S
Mn577 N593 2.282 . S
Mn577 O601 2.215 . S
Mn577 O603 2.117 . S
C578 O600 1.234 1_565 S
C578 O601 1.283 . S
C579 O591 1.281 . S
C579 O592 1.236 . S
C580 O602 1.240 . S
C580 O603 1.264 1_545 S
O581 Mn576 2.095 1_565 S
O581 C590 1.250 . S
O582 Mn577 2.121 . S
O582 C590 1.258 . S
C583 N584 1.326 . S
C583 C587 1.460 . S
C583 H589 0.929 . S
N584 Mn577 2.257 . S
N584 C583 1.326 . S
N584 C588 1.362 . S
C585 C586 1.258 . S
C585 C588 1.431 . S
C585 C605 1.449 . S
C586 C585 1.258 . S
C586 C587 1.477 . S
C586 H606 0.931 . S
C587 C583 1.460 . S
C587 C586 1.477 . S
C587 H607 0.930 . S
C588 N584 1.362 . S
C588 C585 1.431 . S
C588 C598 1.476 . S
H589 C583 0.929 . S
C590 O581 1.250 . S
C590 O582 1.258 . S
O591 Mn576 2.162 . S
O591 C579 1.281 . S
O592 Mn576 2.297 . S
O592 C579 1.236 . S
N593 Mn577 2.282 . S
N593 C594 1.328 . S
N593 C598 1.318 . S
C594 N593 1.328 . S
C594 C595 1.457 1_554 S
C594 H599 0.929 . S
C595 C594 1.457 1_556 S
C595 C596 1.291 . S
C595 H608 0.931 . S
C596 C595 1.291 . S
C596 C597 1.373 1_556 S
C596 H609 0.929 . S
C597 C596 1.373 1_554 S
C597 C598 1.396 . S
C597 C604 1.403 . S
C598 C588 1.476 . S
C598 N593 1.318 . S
C598 C597 1.396 . S
H599 C594 0.929 . S
O600 Mn576 2.385 . S
O600 C578 1.234 1_545 S
O601 Mn576 2.209 1_565 S
O601 Mn577 2.215 . S
O601 C578 1.283 . S
O602 Mn576 2.094 . S
O602 C580 1.240 . S
O603 Mn577 2.117 . S
O603 C580 1.264 1_565 S
C604 C597 1.403 . S
C604 C605 1.399 . S
C604 H610 0.929 1_554 S
C605 C585 1.449 . S
C605 C604 1.399 . S
C605 H611 0.930 . S
H606 C586 0.931 . S
H607 C587 0.930 . S
H608 C595 0.931 . S
H609 C596 0.929 . S
H610 C604 0.929 1_556 S
H611 C605 0.930 . S
Mn612 O617 2.095 . S
Mn612 O627 2.162 . S
Mn612 O628 2.297 . S
Mn612 O636 2.385 . S
Mn612 O637 2.209 . S
Mn612 O638 2.094 . S
Mn613 O618 2.121 . S
Mn613 N620 2.257 . S
Mn613 N629 2.282 . S
Mn613 O637 2.215 . S
Mn613 O639 2.117 . S
C614 O636 1.234 . S
C614 O637 1.283 . S
C615 O627 1.281 . S
C615 O628 1.236 . S
C616 O638 1.240 . S
C616 O639 1.264 . S
O617 Mn612 2.095 . S
O617 C626 1.250 . S
O618 Mn613 2.121 . S
O618 C626 1.258 . S
C619 N620 1.326 . S
C619 C623 1.460 . S
C619 H625 0.929 . S
N620 Mn613 2.257 . S
N620 C619 1.326 . S
N620 C624 1.362 . S
C621 C622 1.258 . S
C621 C624 1.431 . S
C621 C641 1.449 . S
C622 C621 1.258 . S
C622 C623 1.477 . S
C622 H642 0.931 . S
C623 C619 1.460 . S
C623 C622 1.477 . S
C623 H643 0.930 . S
C624 N620 1.362 . S
C624 C621 1.431 . S
C624 C634 1.476 . S
H625 C619 0.929 . S
C626 O617 1.250 . S
C626 O618 1.258 . S
O627 Mn612 2.162 . S
O627 C615 1.281 . S
O628 Mn612 2.297 . S
O628 C615 1.236 . S
N629 Mn613 2.282 . S
N629 C630 1.328 . S
N629 C634 1.318 . S
C630 N629 1.328 . S
C630 C631 1.457 . S
C630 H635 0.929 . S
C631 C630 1.457 . S
C631 C632 1.291 . S
C631 H644 0.931 . S
C632 C631 1.291 . S
C632 C633 1.373 . S
C632 H645 0.929 . S
C633 C632 1.373 . S
C633 C634 1.396 . S
C633 C640 1.403 . S
C634 C624 1.476 . S
C634 N629 1.318 . S
C634 C633 1.396 . S
H635 C630 0.929 . S
O636 Mn612 2.385 . S
O636 C614 1.234 . S
O637 Mn612 2.209 . S
O637 Mn613 2.215 . S
O637 C614 1.283 . S
O638 Mn612 2.094 . S
O638 C616 1.240 . S
O639 Mn613 2.117 . S
O639 C616 1.264 . S
C640 C633 1.403 . S
C640 C641 1.399 . S
C640 H646 0.929 . S
C641 C621 1.449 . S
C641 C640 1.399 . S
C641 H647 0.930 . S
H642 C622 0.931 . S
H643 C623 0.930 . S
H644 C631 0.931 . S
H645 C632 0.929 . S
H646 C640 0.929 . S
H647 C641 0.930 . S
Mn648 O653 2.095 . S
Mn648 O663 2.162 . S
Mn648 O664 2.297 . S
Mn648 O672 2.385 . S
Mn648 O673 2.209 . S
Mn648 O674 2.094 . S
Mn649 O654 2.121 . S
Mn649 N656 2.257 . S
Mn649 N665 2.282 . S
Mn649 O673 2.215 . S
Mn649 O675 2.117 . S
C650 O672 1.234 . S
C650 O673 1.283 . S
C651 O663 1.281 . S
C651 O664 1.236 . S
C652 O674 1.240 . S
C652 O675 1.264 . S
O653 Mn648 2.095 . S
O653 C662 1.250 . S
O654 Mn649 2.121 . S
O654 C662 1.258 . S
C655 N656 1.326 . S
C655 C659 1.460 . S
C655 H661 0.929 . S
N656 Mn649 2.257 . S
N656 C655 1.326 . S
N656 C660 1.362 . S
C657 C658 1.258 . S
C657 C660 1.431 . S
C657 C677 1.449 . S
C658 C657 1.258 . S
C658 C659 1.477 . S
C658 H678 0.931 . S
C659 C655 1.460 . S
C659 C658 1.477 . S
C659 H679 0.930 . S
C660 N656 1.362 . S
C660 C657 1.431 . S
C660 C670 1.476 . S
H661 C655 0.929 . S
C662 O653 1.250 . S
C662 O654 1.258 . S
O663 Mn648 2.162 . S
O663 C651 1.281 . S
O664 Mn648 2.297 . S
O664 C651 1.236 . S
N665 Mn649 2.282 . S
N665 C666 1.328 . S
N665 C670 1.318 . S
C666 N665 1.328 . S
C666 C667 1.457 . S
C666 H671 0.929 . S
C667 C666 1.457 . S
C667 C668 1.291 . S
C667 H680 0.931 . S
C668 C667 1.291 . S
C668 C669 1.373 . S
C668 H681 0.929 . S
C669 C668 1.373 . S
C669 C670 1.396 . S
C669 C676 1.403 . S
C670 C660 1.476 . S
C670 N665 1.318 . S
C670 C669 1.396 . S
H671 C666 0.929 . S
O672 Mn648 2.385 . S
O672 C650 1.234 . S
O673 Mn648 2.209 . S
O673 Mn649 2.215 . S
O673 C650 1.283 . S
O674 Mn648 2.094 . S
O674 C652 1.240 . S
O675 Mn649 2.117 . S
O675 C652 1.264 . S
C676 C669 1.403 . S
C676 C677 1.399 . S
C676 H682 0.929 . S
C677 C657 1.449 . S
C677 C676 1.399 . S
C677 H683 0.930 . S
H678 C658 0.931 . S
H679 C659 0.930 . S
H680 C667 0.931 . S
H681 C668 0.929 . S
H682 C676 0.929 . S
H683 C677 0.930 . S
Mn684 O689 2.095 1_545 S
Mn684 O699 2.162 . S
Mn684 O700 2.297 . S
Mn684 O708 2.385 . S
Mn684 O709 2.209 1_545 S
Mn684 O710 2.094 . S
Mn685 O690 2.121 . S
Mn685 N692 2.257 . S
Mn685 N701 2.282 . S
Mn685 O709 2.215 . S
Mn685 O711 2.117 . S
C686 O708 1.234 1_565 S
C686 O709 1.283 . S
C687 O699 1.281 . S
C687 O700 1.236 . S
C688 O710 1.240 . S
C688 O711 1.264 1_545 S
O689 Mn684 2.095 1_565 S
O689 C698 1.250 . S
O690 Mn685 2.121 . S
O690 C698 1.258 . S
C691 N692 1.326 . S
C691 C695 1.460 . S
C691 H697 0.929 . S
N692 Mn685 2.257 . S
N692 C691 1.326 . S
N692 C696 1.362 . S
C693 C694 1.258 . S
C693 C696 1.431 . S
C693 C713 1.449 . S
C694 C693 1.258 . S
C694 C695 1.477 . S
C694 H714 0.931 . S
C695 C691 1.460 . S
C695 C694 1.477 . S
C695 H715 0.930 . S
C696 N692 1.362 . S
C696 C693 1.431 . S
C696 C706 1.476 . S
H697 C691 0.929 . S
C698 O689 1.250 . S
C698 O690 1.258 . S
O699 Mn684 2.162 . S
O699 C687 1.281 . S
O700 Mn684 2.297 . S
O700 C687 1.236 . S
N701 Mn685 2.282 . S
N701 C702 1.328 . S
N701 C706 1.318 . S
C702 N701 1.328 . S
C702 C703 1.457 . S
C702 H707 0.929 . S
C703 C702 1.457 . S
C703 C704 1.291 . S
C703 H716 0.931 . S
C704 C703 1.291 . S
C704 C705 1.373 . S
C704 H717 0.929 . S
C705 C704 1.373 . S
C705 C706 1.396 . S
C705 C712 1.403 . S
C706 C696 1.476 . S
C706 N701 1.318 . S
C706 C705 1.396 . S
H707 C702 0.929 . S
O708 Mn684 2.385 . S
O708 C686 1.234 1_545 S
O709 Mn684 2.209 1_565 S
O709 Mn685 2.215 . S
O709 C686 1.283 . S
O710 Mn684 2.094 . S
O710 C688 1.240 . S
O711 Mn685 2.117 . S
O711 C688 1.264 1_565 S
C712 C705 1.403 . S
C712 C713 1.399 . S
C712 H718 0.929 . S
C713 C693 1.449 . S
C713 C712 1.399 . S
C713 H719 0.930 . S
H714 C694 0.931 . S
H715 C695 0.930 . S
H716 C703 0.931 . S
H717 C704 0.929 . S
H718 C712 0.929 . S
H719 C713 0.930 . S
Mn720 O725 2.095 1_554 S
Mn720 O735 2.162 . S
Mn720 O736 2.297 . S
Mn720 O744 2.385 . S
Mn720 O745 2.209 1_554 S
Mn720 O746 2.094 . S
Mn721 O726 2.121 . S
Mn721 N728 2.257 . S
Mn721 N737 2.282 . S
Mn721 O745 2.215 . S
Mn721 O747 2.117 . S
C722 O744 1.234 1_556 S
C722 O745 1.283 . S
C723 O735 1.281 . S
C723 O736 1.236 . S
C724 O746 1.240 . S
C724 O747 1.264 1_554 S
O725 Mn720 2.095 1_556 S
O725 C734 1.250 . S
O726 Mn721 2.121 . S
O726 C734 1.258 . S
C727 N728 1.326 . S
C727 C731 1.460 . S
C727 H733 0.929 . S
N728 Mn721 2.257 . S
N728 C727 1.326 . S
N728 C732 1.362 . S
C729 C730 1.258 . S
C729 C732 1.431 . S
C729 C749 1.449 . S
C730 C729 1.258 . S
C730 C731 1.477 . S
C730 H750 0.931 . S
C731 C727 1.460 . S
C731 C730 1.477 . S
C731 H751 0.930 . S
C732 N728 1.362 . S
C732 C729 1.431 . S
C732 C742 1.476 . S
H733 C727 0.929 . S
C734 O725 1.250 . S
C734 O726 1.258 . S
O735 Mn720 2.162 . S
O735 C723 1.281 . S
O736 Mn720 2.297 . S
O736 C723 1.236 . S
N737 Mn721 2.282 . S
N737 C738 1.328 . S
N737 C742 1.318 . S
C738 N737 1.328 . S
C738 C739 1.457 . S
C738 H743 0.929 . S
C739 C738 1.457 . S
C739 C740 1.291 . S
C739 H752 0.931 . S
C740 C739 1.291 . S
C740 C741 1.373 . S
C740 H753 0.929 . S
C741 C740 1.373 . S
C741 C742 1.396 . S
C741 C748 1.403 . S
C742 C732 1.476 . S
C742 N737 1.318 . S
C742 C741 1.396 . S
H743 C738 0.929 . S
O744 Mn720 2.385 . S
O744 C722 1.234 1_554 S
O745 Mn720 2.209 1_556 S
O745 Mn721 2.215 . S
O745 C722 1.283 . S
O746 Mn720 2.094 . S
O746 C724 1.240 . S
O747 Mn721 2.117 . S
O747 C724 1.264 1_556 S
C748 C741 1.403 . S
C748 C749 1.399 . S
C748 H754 0.929 . S
C749 C729 1.449 . S
C749 C748 1.399 . S
C749 H755 0.930 . S
H750 C730 0.931 . S
H751 C731 0.930 . S
H752 C739 0.931 . S
H753 C740 0.929 . S
H754 C748 0.929 . S
H755 C749 0.930 . S
Mn756 O761 2.095 . S
Mn756 O771 2.162 . S
Mn756 O772 2.297 . S
Mn756 O780 2.385 . S
Mn756 O781 2.209 . S
Mn756 O782 2.094 . S
Mn757 O762 2.121 . S
Mn757 N764 2.257 . S
Mn757 N773 2.282 . S
Mn757 O781 2.215 . S
Mn757 O783 2.117 . S
C758 O780 1.234 . S
C758 O781 1.283 . S
C759 O771 1.281 . S
C759 O772 1.236 . S
C760 O782 1.240 . S
C760 O783 1.264 . S
O761 Mn756 2.095 . S
O761 C770 1.250 . S
O762 Mn757 2.121 . S
O762 C770 1.258 . S
C763 N764 1.326 . S
C763 C767 1.460 1_556 S
C763 H769 0.929 . S
N764 Mn757 2.257 . S
N764 C763 1.326 . S
N764 C768 1.362 . S
C765 C766 1.258 . S
C765 C768 1.431 1_554 S
C765 C785 1.449 . S
C766 C765 1.258 . S
C766 C767 1.477 . S
C766 H786 0.931 . S
C767 C763 1.460 1_554 S
C767 C766 1.477 . S
C767 H787 0.930 . S
C768 N764 1.362 . S
C768 C765 1.431 1_556 S
C768 C778 1.476 . S
H769 C763 0.929 . S
C770 O761 1.250 . S
C770 O762 1.258 . S
O771 Mn756 2.162 . S
O771 C759 1.281 . S
O772 Mn756 2.297 . S
O772 C759 1.236 . S
N773 Mn757 2.282 . S
N773 C774 1.328 . S
N773 C778 1.318 . S
C774 N773 1.328 . S
C774 C775 1.457 . S
C774 H779 0.929 . S
C775 C774 1.457 . S
C775 C776 1.291 . S
C775 H788 0.931 . S
C776 C775 1.291 . S
C776 C777 1.373 . S
C776 H789 0.929 . S
C777 C776 1.373 . S
C777 C778 1.396 . S
C777 C784 1.403 . S
C778 C768 1.476 . S
C778 N773 1.318 . S
C778 C777 1.396 . S
H779 C774 0.929 . S
O780 Mn756 2.385 . S
O780 C758 1.234 . S
O781 Mn756 2.209 . S
O781 Mn757 2.215 . S
O781 C758 1.283 . S
O782 Mn756 2.094 . S
O782 C760 1.240 . S
O783 Mn757 2.117 . S
O783 C760 1.264 . S
C784 C777 1.403 . S
C784 C785 1.399 1_556 S
C784 H790 0.929 1_556 S
C785 C765 1.449 . S
C785 C784 1.399 1_554 S
C785 H791 0.930 . S
H786 C766 0.931 . S
H787 C767 0.930 . S
H788 C775 0.931 . S
H789 C776 0.929 . S
H790 C784 0.929 1_554 S
H791 C785 0.930 . S
Mn792 O797 2.095 . S
Mn792 O807 2.162 . S
Mn792 O808 2.297 . S
Mn792 O816 2.385 . S
Mn792 O817 2.209 . S
Mn792 O818 2.094 . S
Mn793 O798 2.121 . S
Mn793 N800 2.257 . S
Mn793 N809 2.282 . S
Mn793 O817 2.215 . S
Mn793 O819 2.117 . S
C794 O816 1.234 . S
C794 O817 1.283 . S
C795 O807 1.281 . S
C795 O808 1.236 . S
C796 O818 1.240 . S
C796 O819 1.264 . S
O797 Mn792 2.095 . S
O797 C806 1.250 . S
O798 Mn793 2.121 . S
O798 C806 1.258 . S
C799 N800 1.326 . S
C799 C803 1.460 . S
C799 H805 0.929 . S
N800 Mn793 2.257 . S
N800 C799 1.326 . S
N800 C804 1.362 . S
C801 C802 1.258 . S
C801 C804 1.431 . S
C801 C821 1.449 . S
C802 C801 1.258 . S
C802 C803 1.477 . S
C802 H822 0.931 . S
C803 C799 1.460 . S
C803 C802 1.477 . S
C803 H823 0.930 . S
C804 N800 1.362 . S
C804 C801 1.431 . S
C804 C814 1.476 . S
H805 C799 0.929 . S
C806 O797 1.250 . S
C806 O798 1.258 . S
O807 Mn792 2.162 . S
O807 C795 1.281 . S
O808 Mn792 2.297 . S
O808 C795 1.236 . S
N809 Mn793 2.282 . S
N809 C810 1.328 . S
N809 C814 1.318 . S
C810 N809 1.328 . S
C810 C811 1.457 . S
C810 H815 0.929 . S
C811 C810 1.457 . S
C811 C812 1.291 . S
C811 H824 0.931 . S
C812 C811 1.291 . S
C812 C813 1.373 . S
C812 H825 0.929 . S
C813 C812 1.373 . S
C813 C814 1.396 . S
C813 C820 1.403 . S
C814 C804 1.476 . S
C814 N809 1.318 . S
C814 C813 1.396 . S
H815 C810 0.929 . S
O816 Mn792 2.385 . S
O816 C794 1.234 . S
O817 Mn792 2.209 . S
O817 Mn793 2.215 . S
O817 C794 1.283 . S
O818 Mn792 2.094 . S
O818 C796 1.240 . S
O819 Mn793 2.117 . S
O819 C796 1.264 . S
C820 C813 1.403 . S
C820 C821 1.399 . S
C820 H826 0.929 . S
C821 C801 1.449 . S
C821 C820 1.399 . S
C821 H827 0.930 . S
H822 C802 0.931 . S
H823 C803 0.930 . S
H824 C811 0.931 . S
H825 C812 0.929 . S
H826 C820 0.929 . S
H827 C821 0.930 . S
Mn828 O833 2.095 . S
Mn828 O843 2.162 . S
Mn828 O844 2.297 . S
Mn828 O852 2.385 . S
Mn828 O853 2.209 . S
Mn828 O854 2.094 . S
Mn829 O834 2.121 . S
Mn829 N836 2.257 . S
Mn829 N845 2.282 . S
Mn829 O853 2.215 . S
Mn829 O855 2.117 . S
C830 O852 1.234 . S
C830 O853 1.283 . S
C831 O843 1.281 . S
C831 O844 1.236 . S
C832 O854 1.240 . S
C832 O855 1.264 . S
O833 Mn828 2.095 . S
O833 C842 1.250 . S
O834 Mn829 2.121 . S
O834 C842 1.258 . S
C835 N836 1.326 . S
C835 C839 1.460 . S
C835 H841 0.929 . S
N836 Mn829 2.257 . S
N836 C835 1.326 . S
N836 C840 1.362 . S
C837 C838 1.258 . S
C837 C840 1.431 . S
C837 C857 1.449 . S
C838 C837 1.258 . S
C838 C839 1.477 . S
C838 H858 0.931 . S
C839 C835 1.460 . S
C839 C838 1.477 . S
C839 H859 0.930 . S
C840 N836 1.362 . S
C840 C837 1.431 . S
C840 C850 1.476 . S
H841 C835 0.929 . S
C842 O833 1.250 . S
C842 O834 1.258 . S
O843 Mn828 2.162 . S
O843 C831 1.281 . S
O844 Mn828 2.297 . S
O844 C831 1.236 . S
N845 Mn829 2.282 . S
N845 C846 1.328 . S
N845 C850 1.318 . S
C846 N845 1.328 . S
C846 C847 1.457 . S
C846 H851 0.929 . S
C847 C846 1.457 . S
C847 C848 1.291 . S
C847 H860 0.931 . S
C848 C847 1.291 . S
C848 C849 1.373 . S
C848 H861 0.929 . S
C849 C848 1.373 . S
C849 C850 1.396 . S
C849 C856 1.403 . S
C850 C840 1.476 . S
C850 N845 1.318 . S
C850 C849 1.396 . S
H851 C846 0.929 . S
O852 Mn828 2.385 . S
O852 C830 1.234 . S
O853 Mn828 2.209 . S
O853 Mn829 2.215 . S
O853 C830 1.283 . S
O854 Mn828 2.094 . S
O854 C832 1.240 . S
O855 Mn829 2.117 . S
O855 C832 1.264 . S
C856 C849 1.403 . S
C856 C857 1.399 . S
C856 H862 0.929 . S
C857 C837 1.449 . S
C857 C856 1.399 . S
C857 H863 0.930 . S
H858 C838 0.931 . S
H859 C839 0.930 . S
H860 C847 0.931 . S
H861 C848 0.929 . S
H862 C856 0.929 . S
H863 C857 0.930 . S
Sc864 O867 2.025 . S
Sc864 O874 2.105 . S
Sc864 O877 2.105 . S
Sc864 O880 2.105 . S
Sc864 O883 2.096 1_455 S
Sc865 O867 2.025 . S
Sc865 O875 2.105 . S
Sc865 O879 2.105 . S
Sc865 O881 2.105 . S
Sc865 O885 2.096 1_545 S
Sc866 O867 2.025 . S
Sc866 O876 2.105 . S
Sc866 O878 2.105 . S
Sc866 O882 2.105 . S
Sc866 O884 2.096 1_554 S
O867 Sc864 2.025 . S
O867 Sc865 2.025 . S
O867 Sc866 2.025 . S
C868 O874 1.268 1_556 S
C868 O884 1.268 . S
C869 O875 1.268 1_655 S
C869 O883 1.268 . S
C870 O876 1.268 1_565 S
C870 O885 1.268 . S
C871 O877 1.268 . S
C871 O881 1.268 . S
C872 O878 1.268 . S
C872 O880 1.268 . S
C873 O879 1.268 . S
C873 O882 1.268 . S
O874 Sc864 2.105 . S
O874 C868 1.268 1_554 S
O875 Sc865 2.105 . S
O875 C869 1.268 1_455 S
O876 Sc866 2.105 . S
O876 C870 1.268 1_545 S
O877 Sc864 2.105 . S
O877 C871 1.268 . S
O878 Sc866 2.105 . S
O878 C872 1.268 . S
O879 Sc865 2.105 . S
O879 C873 1.268 . S
O880 Sc864 2.105 . S
O880 C872 1.268 . S
O881 Sc865 2.105 . S
O881 C871 1.268 . S
O882 Sc866 2.105 . S
O882 C873 1.268 . S
O883 Sc864 2.096 1_655 S
O883 C869 1.268 . S
O884 Sc866 2.096 1_556 S
O884 C868 1.268 . S
O885 Sc865 2.096 1_565 S
O885 C870 1.268 . S
Sc886 O889 2.025 . S
Sc886 O896 2.105 . S
Sc886 O899 2.105 . S
Sc886 O902 2.105 . S
Sc886 O905 2.105 . S
Sc887 O889 2.025 . S
Sc887 O897 2.105 . S
Sc887 O901 2.105 . S
Sc887 O903 2.105 . S
Sc887 O907 2.105 1_455 S
Sc888 O889 2.025 . S
Sc888 O898 2.105 . S
Sc888 O900 2.105 . S
Sc888 O904 2.105 . S
Sc888 O906 2.105 1_565 S
O889 Sc886 2.025 . S
O889 Sc887 2.025 . S
O889 Sc888 2.025 . S
C890 O896 1.268 1_545 S
C890 O906 1.268 . S
C891 O897 1.268 . S
C891 O905 1.268 . S
C892 O898 1.268 1_655 S
C892 O907 1.268 . S
C893 O899 1.268 . S
C893 O903 1.268 . S
C894 O900 1.268 . S
C894 O902 1.268 . S
C895 O901 1.268 . S
C895 O904 1.268 . S
O896 Sc886 2.105 . S
O896 C890 1.268 1_565 S
O897 Sc887 2.105 . S
O897 C891 1.268 . S
O898 Sc888 2.105 . S
O898 C892 1.268 1_455 S
O899 Sc886 2.105 . S
O899 C893 1.268 . S
O900 Sc888 2.105 . S
O900 C894 1.268 . S
O901 Sc887 2.105 . S
O901 C895 1.268 . S
O902 Sc886 2.105 . S
O902 C894 1.268 . S
O903 Sc887 2.105 . S
O903 C893 1.268 . S
O904 Sc888 2.105 . S
O904 C895 1.268 . S
O905 Sc886 2.105 . S
O905 C891 1.268 . S
O906 Sc888 2.105 1_545 S
O906 C890 1.268 . S
O907 Sc887 2.105 1_655 S
O907 C892 1.268 . S
Sc908 O911 2.025 . S
Sc908 O918 2.105 . S
Sc908 O921 2.105 . S
Sc908 O924 2.105 . S
Sc908 O927 2.105 . S
Sc909 O911 2.025 . S
Sc909 O919 2.105 . S
Sc909 O923 2.105 . S
Sc909 O925 2.105 . S
Sc909 O929 2.105 . S
Sc910 O911 2.025 . S
Sc910 O920 2.105 . S
Sc910 O922 2.105 . S
Sc910 O926 2.105 1_565 S
Sc910 O928 2.105 . S
O911 Sc908 2.025 . S
O911 Sc909 2.025 . S
O911 Sc910 2.025 . S
C912 O918 1.268 . S
C912 O928 1.268 . S
C913 O919 1.268 . S
C913 O927 1.268 . S
C914 O920 1.268 . S
C914 O929 1.268 . S
C915 O921 1.268 . S
C915 O925 1.268 . S
C916 O922 1.268 . S
C916 O924 1.268 . S
C917 O923 1.268 1_545 S
C917 O926 1.268 . S
O918 Sc908 2.105 . S
O918 C912 1.268 . S
O919 Sc909 2.105 . S
O919 C913 1.268 . S
O920 Sc910 2.105 . S
O920 C914 1.268 . S
O921 Sc908 2.105 . S
O921 C915 1.268 . S
O922 Sc910 2.105 . S
O922 C916 1.268 . S
O923 Sc909 2.105 . S
O923 C917 1.268 1_565 S
O924 Sc908 2.105 . S
O924 C916 1.268 . S
O925 Sc909 2.105 . S
O925 C915 1.268 . S
O926 Sc910 2.105 1_545 S
O926 C917 1.268 . S
O927 Sc908 2.105 . S
O927 C913 1.268 . S
O928 Sc910 2.105 . S
O928 C912 1.268 . S
O929 Sc909 2.105 . S
O929 C914 1.268 . S
Sc930 O933 2.025 . S
Sc930 O940 2.105 . S
Sc930 O943 2.105 . S
Sc930 O946 2.105 1_545 S
Sc930 O949 2.105 . S
Sc931 O933 2.025 . S
Sc931 O941 2.105 . S
Sc931 O945 2.105 . S
Sc931 O947 2.105 . S
Sc931 O951 2.105 . S
Sc932 O933 2.025 . S
Sc932 O942 2.105 . S
Sc932 O944 2.105 . S
Sc932 O948 2.105 1_556 S
Sc932 O950 2.105 . S
O933 Sc930 2.025 . S
O933 Sc931 2.025 . S
O933 Sc932 2.025 . S
C934 O940 1.268 . S
C934 O950 1.268 . S
C935 O941 1.268 . S
C935 O949 1.268 . S
C936 O942 1.268 . S
C936 O951 1.268 . S
C937 O943 1.268 . S
C937 O947 1.268 . S
C938 O944 1.268 1_565 S
C938 O946 1.268 . S
C939 O945 1.268 1_554 S
C939 O948 1.268 . S
O940 Sc930 2.105 . S
O940 C934 1.268 . S
O941 Sc931 2.105 . S
O941 C935 1.268 . S
O942 Sc932 2.105 . S
O942 C936 1.268 . S
O943 Sc930 2.105 . S
O943 C937 1.268 . S
O944 Sc932 2.105 . S
O944 C938 1.268 1_545 S
O945 Sc931 2.105 . S
O945 C939 1.268 1_556 S
O946 Sc930 2.105 1_565 S
O946 C938 1.268 . S
O947 Sc931 2.105 . S
O947 C937 1.268 . S
O948 Sc932 2.105 1_554 S
O948 C939 1.268 . S
O949 Sc930 2.105 . S
O949 C935 1.268 . S
O950 Sc932 2.105 . S
O950 C934 1.268 . S
O951 Sc931 2.105 . S
O951 C936 1.268 . S
Sc952 O955 2.025 . S
Sc952 O962 2.105 . S
Sc952 O965 2.105 . S
Sc952 O968 2.105 . S
Sc952 O971 2.105 1_556 S
Sc953 O955 2.025 . S
Sc953 O963 2.105 . S
Sc953 O967 2.105 . S
Sc953 O969 2.105 . S
Sc953 O973 2.105 . S
Sc954 O955 2.025 . S
Sc954 O964 2.105 . S
Sc954 O966 2.105 . S
Sc954 O970 2.105 . S
Sc954 O972 2.105 . S
O955 Sc952 2.025 . S
O955 Sc953 2.025 . S
O955 Sc954 2.025 . S
C956 O962 1.268 . S
C956 O972 1.268 . S
C957 O963 1.268 1_554 S
C957 O971 1.268 . S
C958 O964 1.268 . S
C958 O973 1.268 . S
C959 O965 1.268 . S
C959 O969 1.268 . S
C960 O966 1.268 . S
C960 O968 1.268 . S
C961 O967 1.268 . S
C961 O970 1.268 . S
O962 Sc952 2.105 . S
O962 C956 1.268 . S
O963 Sc953 2.105 . S
O963 C957 1.268 1_556 S
O964 Sc954 2.105 . S
O964 C958 1.268 . S
O965 Sc952 2.105 . S
O965 C959 1.268 . S
O966 Sc954 2.105 . S
O966 C960 1.268 . S
O967 Sc953 2.105 . S
O967 C961 1.268 . S
O968 Sc952 2.105 . S
O968 C960 1.268 . S
O969 Sc953 2.105 . S
O969 C959 1.268 . S
O970 Sc954 2.105 . S
O970 C961 1.268 . S
O971 Sc952 2.105 1_554 S
O971 C957 1.268 . S
O972 Sc954 2.105 . S
O972 C956 1.268 . S
O973 Sc953 2.105 . S
O973 C958 1.268 . S
Sc974 O977 2.025 . S
Sc974 O984 2.105 . S
Sc974 O987 2.105 . S
Sc974 O990 2.105 . S
Sc974 O993 2.105 1_655 S
Sc975 O977 2.025 . S
Sc975 O985 2.105 . S
Sc975 O989 2.105 . S
Sc975 O991 2.105 . S
Sc975 O995 2.105 . S
Sc976 O977 2.025 . S
Sc976 O986 2.105 . S
Sc976 O988 2.105 . S
Sc976 O992 2.105 . S
Sc976 O994 2.105 1_554 S
O977 Sc974 2.025 . S
O977 Sc975 2.025 . S
O977 Sc976 2.025 . S
C978 O984 1.268 1_556 S
C978 O994 1.268 . S
C979 O985 1.268 1_455 S
C979 O993 1.268 . S
C980 O986 1.268 . S
C980 O995 1.268 . S
C981 O987 1.268 . S
C981 O991 1.268 . S
C982 O988 1.268 . S
C982 O990 1.268 . S
C983 O989 1.268 . S
C983 O992 1.268 . S
O984 Sc974 2.105 . S
O984 C978 1.268 1_554 S
O985 Sc975 2.105 . S
O985 C979 1.268 1_655 S
O986 Sc976 2.105 . S
O986 C980 1.268 . S
O987 Sc974 2.105 . S
O987 C981 1.268 . S
O988 Sc976 2.105 . S
O988 C982 1.268 . S
O989 Sc975 2.105 . S
O989 C983 1.268 . S
O990 Sc974 2.105 . S
O990 C982 1.268 . S
O991 Sc975 2.105 . S
O991 C981 1.268 . S
O992 Sc976 2.105 . S
O992 C983 1.268 . S
O993 Sc974 2.105 1_455 S
O993 C979 1.268 . S
O994 Sc976 2.105 1_556 S
O994 C978 1.268 . S
O995 Sc975 2.105 . S
O995 C980 1.268 . S
Sc996 O999 2.025 . S
Sc996 O1006 2.105 . S
Sc996 O1009 2.105 . S
Sc996 O1012 2.105 . S
Sc996 O1015 2.105 . S
Sc997 O999 2.025 . S
Sc997 O1007 2.105 . S
Sc997 O1011 2.105 . S
Sc997 O1013 2.105 1_655 S
Sc997 O1017 2.105 . S
Sc998 O999 2.025 . S
Sc998 O1008 2.105 . S
Sc998 O1010 2.105 . S
Sc998 O1014 2.105 . S
Sc998 O1016 2.105 . S
O999 Sc996 2.025 . S
O999 Sc997 2.025 . S
O999 Sc998 2.025 . S
C1000 O1006 1.268 . S
C1000 O1016 1.268 . S
C1001 O1007 1.268 . S
C1001 O1015 1.268 . S
C1002 O1008 1.268 . S
C1002 O1017 1.268 . S
C1003 O1009 1.268 1_455 S
C1003 O1013 1.268 . S
C1004 O1010 1.268 . S
C1004 O1012 1.268 . S
C1005 O1011 1.268 . S
C1005 O1014 1.268 . S
O1006 Sc996 2.105 . S
O1006 C1000 1.268 . S
O1007 Sc997 2.105 . S
O1007 C1001 1.268 . S
O1008 Sc998 2.105 . S
O1008 C1002 1.268 . S
O1009 Sc996 2.105 . S
O1009 C1003 1.268 1_655 S
O1010 Sc998 2.105 . S
O1010 C1004 1.268 . S
O1011 Sc997 2.105 . S
O1011 C1005 1.268 . S
O1012 Sc996 2.105 . S
O1012 C1004 1.268 . S
O1013 Sc997 2.105 1_455 S
O1013 C1003 1.268 . S
O1014 Sc998 2.105 . S
O1014 C1005 1.268 . S
O1015 Sc996 2.105 . S
O1015 C1001 1.268 . S
O1016 Sc998 2.105 . S
O1016 C1000 1.268 . S
O1017 Sc997 2.105 . S
O1017 C1002 1.268 . S
Sc1018 O1021 2.025 . S
Sc1018 O1028 2.105 1_655 S
Sc1018 O1031 2.105 . S
Sc1018 O1034 2.105 . S
Sc1018 O1037 2.105 . S
Sc1019 O1021 2.025 . S
Sc1019 O1029 2.105 1_556 S
Sc1019 O1033 2.105 . S
Sc1019 O1035 2.105 . S
Sc1019 O1039 2.105 . S
Sc1020 O1021 2.025 . S
Sc1020 O1030 2.105 1_565 S
Sc1020 O1032 2.105 . S
Sc1020 O1036 2.105 . S
Sc1020 O1038 2.105 . S
O1021 Sc1018 2.025 . S
O1021 Sc1019 2.025 . S
O1021 Sc1020 2.025 . S
C1022 O1028 1.268 . S
C1022 O1038 1.268 1_455 S
C1023 O1029 1.268 . S
C1023 O1037 1.268 1_554 S
C1024 O1030 1.268 . S
C1024 O1039 1.268 1_545 S
C1025 O1031 1.268 . S
C1025 O1035 1.268 . S
C1026 O1032 1.268 . S
C1026 O1034 1.268 . S
C1027 O1033 1.268 . S
C1027 O1036 1.268 . S
O1028 Sc1018 2.105 1_455 S
O1028 C1022 1.268 . S
O1029 Sc1019 2.105 1_554 S
O1029 C1023 1.268 . S
O1030 Sc1020 2.105 1_545 S
O1030 C1024 1.268 . S
O1031 Sc1018 2.105 . S
O1031 C1025 1.268 . S
O1032 Sc1020 2.105 . S
O1032 C1026 1.268 . S
O1033 Sc1019 2.105 . S
O1033 C1027 1.268 . S
O1034 Sc1018 2.105 . S
O1034 C1026 1.268 . S
O1035 Sc1019 2.105 . S
O1035 C1025 1.268 . S
O1036 Sc1020 2.105 . S
O1036 C1027 1.268 . S
O1037 Sc1018 2.105 . S
O1037 C1023 1.268 1_556 S
O1038 Sc1020 2.105 . S
O1038 C1022 1.268 1_655 S
O1039 Sc1019 2.105 . S
O1039 C1024 1.268 1_565 S
Sc1040 O1043 2.025 . S
Sc1040 O1050 2.105 . S
Sc1040 O1053 2.105 . S
Sc1040 O1056 2.105 . S
Sc1040 O1059 2.105 . S
Sc1041 O1043 2.025 . S
Sc1041 O1051 2.105 . S
Sc1041 O1055 2.105 1_655 S
Sc1041 O1057 2.105 . S
Sc1041 O1061 2.105 . S
Sc1042 O1043 2.025 . S
Sc1042 O1052 2.105 . S
Sc1042 O1054 2.105 1_545 S
Sc1042 O1058 2.105 . S
Sc1042 O1060 2.105 . S
O1043 Sc1040 2.025 . S
O1043 Sc1041 2.025 . S
O1043 Sc1042 2.025 . S
C1044 O1050 1.268 . S
C1044 O1060 1.268 . S
C1045 O1051 1.268 . S
C1045 O1059 1.268 . S
C1046 O1052 1.268 . S
C1046 O1061 1.268 . S
C1047 O1053 1.268 . S
C1047 O1057 1.268 . S
C1048 O1054 1.268 . S
C1048 O1056 1.268 1_565 S
C1049 O1055 1.268 . S
C1049 O1058 1.268 1_455 S
O1050 Sc1040 2.105 . S
O1050 C1044 1.268 . S
O1051 Sc1041 2.105 . S
O1051 C1045 1.268 . S
O1052 Sc1042 2.105 . S
O1052 C1046 1.268 . S
O1053 Sc1040 2.105 . S
O1053 C1047 1.268 . S
O1054 Sc1042 2.105 1_565 S
O1054 C1048 1.268 . S
O1055 Sc1041 2.105 1_455 S
O1055 C1049 1.268 . S
O1056 Sc1040 2.105 . S
O1056 C1048 1.268 1_545 S
O1057 Sc1041 2.105 . S
O1057 C1047 1.268 . S
O1058 Sc1042 2.105 . S
O1058 C1049 1.268 1_655 S
O1059 Sc1040 2.105 . S
O1059 C1045 1.268 . S
O1060 Sc1042 2.105 . S
O1060 C1044 1.268 . S
O1061 Sc1041 2.105 . S
O1061 C1046 1.268 . S
Sc1062 O1065 2.025 . S
Sc1062 O1072 2.105 . S
Sc1062 O1075 2.105 . S
Sc1062 O1078 2.105 . S
Sc1062 O1081 2.105 . S
Sc1063 O1065 2.025 . S
Sc1063 O1073 2.105 . S
Sc1063 O1077 2.105 . S
Sc1063 O1079 2.105 . S
Sc1063 O1083 2.105 . S
Sc1064 O1065 2.025 . S
Sc1064 O1074 2.105 . S
Sc1064 O1076 2.105 . S
Sc1064 O1080 2.105 . S
Sc1064 O1082 2.105 . S
O1065 Sc1062 2.025 . S
O1065 Sc1063 2.025 . S
O1065 Sc1064 2.025 . S
C1066 O1072 1.268 . S
C1066 O1082 1.268 . S
C1067 O1073 1.268 . S
C1067 O1081 1.268 . S
C1068 O1074 1.268 . S
C1068 O1083 1.268 . S
C1069 O1075 1.268 . S
C1069 O1079 1.268 . S
C1070 O1076 1.268 . S
C1070 O1078 1.268 . S
C1071 O1077 1.268 . S
C1071 O1080 1.268 . S
O1072 Sc1062 2.105 . S
O1072 C1066 1.268 . S
O1073 Sc1063 2.105 . S
O1073 C1067 1.268 . S
O1074 Sc1064 2.105 . S
O1074 C1068 1.268 . S
O1075 Sc1062 2.105 . S
O1075 C1069 1.268 . S
O1076 Sc1064 2.105 . S
O1076 C1070 1.268 . S
O1077 Sc1063 2.105 . S
O1077 C1071 1.268 . S
O1078 Sc1062 2.105 . S
O1078 C1070 1.268 . S
O1079 Sc1063 2.105 . S
O1079 C1069 1.268 . S
O1080 Sc1064 2.105 . S
O1080 C1071 1.268 . S
O1081 Sc1062 2.105 . S
O1081 C1067 1.268 . S
O1082 Sc1064 2.105 . S
O1082 C1066 1.268 . S
O1083 Sc1063 2.105 . S
O1083 C1068 1.268 . S
Sc1084 O1087 2.025 . S
Sc1084 O1094 2.105 . S
Sc1084 O1097 2.105 1_554 S
Sc1084 O1100 2.105 . S
Sc1084 O1103 2.105 . S
Sc1085 O1087 2.025 . S
Sc1085 O1095 2.105 . S
Sc1085 O1099 2.105 . S
Sc1085 O1101 2.105 . S
Sc1085 O1105 2.105 . S
Sc1086 O1087 2.025 . S
Sc1086 O1096 2.105 . S
Sc1086 O1098 2.105 1_565 S
Sc1086 O1102 2.105 . S
Sc1086 O1104 2.105 . S
O1087 Sc1084 2.025 . S
O1087 Sc1085 2.025 . S
O1087 Sc1086 2.025 . S
C1088 O1094 1.268 . S
C1088 O1104 1.268 . S
C1089 O1095 1.268 . S
C1089 O1103 1.268 . S
C1090 O1096 1.268 . S
C1090 O1105 1.268 . S
C1091 O1097 1.268 . S
C1091 O1101 1.268 1_556 S
C1092 O1098 1.268 . S
C1092 O1100 1.268 1_545 S
C1093 O1099 1.268 . S
C1093 O1102 1.268 . S
O1094 Sc1084 2.105 . S
O1094 C1088 1.268 . S
O1095 Sc1085 2.105 . S
O1095 C1089 1.268 . S
O1096 Sc1086 2.105 . S
O1096 C1090 1.268 . S
O1097 Sc1084 2.105 1_556 S
O1097 C1091 1.268 . S
O1098 Sc1086 2.105 1_545 S
O1098 C1092 1.268 . S
O1099 Sc1085 2.105 . S
O1099 C1093 1.268 . S
O1100 Sc1084 2.105 . S
O1100 C1092 1.268 1_565 S
O1101 Sc1085 2.105 . S
O1101 C1091 1.268 1_554 S
O1102 Sc1086 2.105 . S
O1102 C1093 1.268 . S
O1103 Sc1084 2.105 . S
O1103 C1089 1.268 . S
O1104 Sc1086 2.105 . S
O1104 C1088 1.268 . S
O1105 Sc1085 2.105 . S
O1105 C1090 1.268 . S
Sc1106 O1109 2.025 . S
Sc1106 O1116 2.105 . S
Sc1106 O1119 2.105 . S
Sc1106 O1122 2.105 . S
Sc1106 O1125 2.105 . S
Sc1107 O1109 2.025 . S
Sc1107 O1117 2.105 . S
Sc1107 O1121 2.105 . S
Sc1107 O1123 2.105 . S
Sc1107 O1127 2.105 . S
Sc1108 O1109 2.025 . S
Sc1108 O1118 2.105 . S
Sc1108 O1120 2.105 . S
Sc1108 O1124 2.105 . S
Sc1108 O1126 2.105 . S
O1109 Sc1106 2.025 . S
O1109 Sc1107 2.025 . S
O1109 Sc1108 2.025 . S
C1110 O1116 1.268 . S
C1110 O1126 1.268 . S
C1111 O1117 1.268 . S
C1111 O1125 1.268 . S
C1112 O1118 1.268 . S
C1112 O1127 1.268 . S
C1113 O1119 1.268 . S
C1113 O1123 1.268 . S
C1114 O1120 1.268 . S
C1114 O1122 1.268 . S
C1115 O1121 1.268 . S
C1115 O1124 1.268 . S
O1116 Sc1106 2.105 . S
O1116 C1110 1.268 . S
O1117 Sc1107 2.105 . S
O1117 C1111 1.268 . S
O1118 Sc1108 2.105 . S
O1118 C1112 1.268 . S
O1119 Sc1106 2.105 . S
O1119 C1113 1.268 . S
O1120 Sc1108 2.105 . S
O1120 C1114 1.268 . S
O1121 Sc1107 2.105 . S
O1121 C1115 1.268 . S
O1122 Sc1106 2.105 . S
O1122 C1114 1.268 . S
O1123 Sc1107 2.105 . S
O1123 C1113 1.268 . S
O1124 Sc1108 2.105 . S
O1124 C1115 1.268 . S
O1125 Sc1106 2.105 . S
O1125 C1111 1.268 . S
O1126 Sc1108 2.105 . S
O1126 C1110 1.268 . S
O1127 Sc1107 2.105 . S
O1127 C1112 1.268 . S
Sc1128 O1131 2.025 . S
Sc1128 O1138 2.105 . S
Sc1128 O1141 2.105 . S
Sc1128 O1144 2.105 . S
Sc1128 O1147 2.105 . S
Sc1129 O1131 2.025 . S
Sc1129 O1139 2.105 . S
Sc1129 O1143 2.105 1_556 S
Sc1129 O1145 2.105 . S
Sc1129 O1149 2.105 . S
Sc1130 O1131 2.025 . S
Sc1130 O1140 2.105 . S
Sc1130 O1142 2.105 1_455 S
Sc1130 O1146 2.105 . S
Sc1130 O1148 2.105 . S
O1131 Sc1128 2.025 . S
O1131 Sc1129 2.025 . S
O1131 Sc1130 2.025 . S
C1132 O1138 1.268 . S
C1132 O1148 1.268 . S
C1133 O1139 1.268 . S
C1133 O1147 1.268 . S
C1134 O1140 1.268 . S
C1134 O1149 1.268 . S
C1135 O1141 1.268 . S
C1135 O1145 1.268 . S
C1136 O1142 1.268 . S
C1136 O1144 1.268 1_655 S
C1137 O1143 1.268 . S
C1137 O1146 1.268 1_554 S
O1138 Sc1128 2.105 . S
O1138 C1132 1.268 . S
O1139 Sc1129 2.105 . S
O1139 C1133 1.268 . S
O1140 Sc1130 2.105 . S
O1140 C1134 1.268 . S
O1141 Sc1128 2.105 . S
O1141 C1135 1.268 . S
O1142 Sc1130 2.105 1_655 S
O1142 C1136 1.268 . S
O1143 Sc1129 2.105 1_554 S
O1143 C1137 1.268 . S
O1144 Sc1128 2.105 . S
O1144 C1136 1.268 1_455 S
O1145 Sc1129 2.105 . S
O1145 C1135 1.268 . S
O1146 Sc1130 2.105 . S
O1146 C1137 1.268 1_556 S
O1147 Sc1128 2.105 . S
O1147 C1133 1.268 . S
O1148 Sc1130 2.105 . S
O1148 C1132 1.268 . S
O1149 Sc1129 2.105 . S
O1149 C1134 1.268 . S
Sc1150 O1153 2.025 . S
Sc1150 O1160 2.105 . S
Sc1150 O1163 2.105 . S
Sc1150 O1166 2.105 . S
Sc1150 O1169 2.105 . S
Sc1151 O1153 2.025 . S
Sc1151 O1161 2.105 . S
Sc1151 O1165 2.105 . S
Sc1151 O1167 2.105 . S
Sc1151 O1171 2.105 . S
Sc1152 O1153 2.025 . S
Sc1152 O1162 2.105 . S
Sc1152 O1164 2.105 . S
Sc1152 O1168 2.105 . S
Sc1152 O1170 2.105 . S
O1153 Sc1150 2.025 . S
O1153 Sc1151 2.025 . S
O1153 Sc1152 2.025 . S
C1154 O1160 1.268 . S
C1154 O1170 1.268 . S
C1155 O1161 1.268 . S
C1155 O1169 1.268 . S
C1156 O1162 1.268 . S
C1156 O1171 1.268 . S
C1157 O1163 1.268 . S
C1157 O1167 1.268 . S
C1158 O1164 1.268 . S
C1158 O1166 1.268 . S
C1159 O1165 1.268 . S
C1159 O1168 1.268 . S
O1160 Sc1150 2.105 . S
O1160 C1154 1.268 . S
O1161 Sc1151 2.105 . S
O1161 C1155 1.268 . S
O1162 Sc1152 2.105 . S
O1162 C1156 1.268 . S
O1163 Sc1150 2.105 . S
O1163 C1157 1.268 . S
O1164 Sc1152 2.105 . S
O1164 C1158 1.268 . S
O1165 Sc1151 2.105 . S
O1165 C1159 1.268 . S
O1166 Sc1150 2.105 . S
O1166 C1158 1.268 . S
O1167 Sc1151 2.105 . S
O1167 C1157 1.268 . S
O1168 Sc1152 2.105 . S
O1168 C1159 1.268 . S
O1169 Sc1150 2.105 . S
O1169 C1155 1.268 . S
O1170 Sc1152 2.105 . S
O1170 C1154 1.268 . S
O1171 Sc1151 2.105 . S
O1171 C1156 1.268 . S
Sc1172 O1175 2.025 . S
Sc1172 O1182 2.105 . S
Sc1172 O1185 2.105 . S
Sc1172 O1188 2.105 . S
Sc1172 O1191 2.105 . S
Sc1173 O1175 2.025 . S
Sc1173 O1183 2.105 . S
Sc1173 O1187 2.105 . S
Sc1173 O1189 2.105 . S
Sc1173 O1193 2.105 . S
Sc1174 O1175 2.025 . S
Sc1174 O1184 2.105 . S
Sc1174 O1186 2.105 . S
Sc1174 O1190 2.105 . S
Sc1174 O1192 2.105 . S
O1175 Sc1172 2.025 . S
O1175 Sc1173 2.025 . S
O1175 Sc1174 2.025 . S
C1176 O1182 1.268 . S
C1176 O1192 1.268 . S
C1177 O1183 1.268 . S
C1177 O1191 1.268 . S
C1178 O1184 1.268 . S
C1178 O1193 1.268 . S
C1179 O1185 1.268 . S
C1179 O1189 1.268 . S
C1180 O1186 1.268 . S
C1180 O1188 1.268 . S
C1181 O1187 1.268 . S
C1181 O1190 1.268 . S
O1182 Sc1172 2.105 . S
O1182 C1176 1.268 . S
O1183 Sc1173 2.105 . S
O1183 C1177 1.268 . S
O1184 Sc1174 2.105 . S
O1184 C1178 1.268 . S
O1185 Sc1172 2.105 . S
O1185 C1179 1.268 . S
O1186 Sc1174 2.105 . S
O1186 C1180 1.268 . S
O1187 Sc1173 2.105 . S
O1187 C1181 1.268 . S
O1188 Sc1172 2.105 . S
O1188 C1180 1.268 . S
O1189 Sc1173 2.105 . S
O1189 C1179 1.268 . S
O1190 Sc1174 2.105 . S
O1190 C1181 1.268 . S
O1191 Sc1172 2.105 . S
O1191 C1177 1.268 . S
O1192 Sc1174 2.105 . S
O1192 C1176 1.268 . S
O1193 Sc1173 2.105 . S
O1193 C1178 1.268 . S
Sc1194 O1197 2.025 . S
Sc1194 O1204 2.105 . S
Sc1194 O1207 2.105 . S
Sc1194 O1210 2.105 . S
Sc1194 O1213 2.105 . S
Sc1195 O1197 2.025 . S
Sc1195 O1205 2.105 . S
Sc1195 O1209 2.105 . S
Sc1195 O1211 2.105 . S
Sc1195 O1215 2.105 . S
Sc1196 O1197 2.025 . S
Sc1196 O1206 2.105 . S
Sc1196 O1208 2.105 . S
Sc1196 O1212 2.105 . S
Sc1196 O1214 2.105 . S
O1197 Sc1194 2.025 . S
O1197 Sc1195 2.025 . S
O1197 Sc1196 2.025 . S
C1198 O1204 1.268 . S
C1198 O1214 1.268 . S
C1199 O1205 1.268 . S
C1199 O1213 1.268 . S
C1200 O1206 1.268 . S
C1200 O1215 1.268 . S
C1201 O1207 1.268 . S
C1201 O1211 1.268 . S
C1202 O1208 1.268 . S
C1202 O1210 1.268 . S
C1203 O1209 1.268 . S
C1203 O1212 1.268 . S
O1204 Sc1194 2.105 . S
O1204 C1198 1.268 . S
O1205 Sc1195 2.105 . S
O1205 C1199 1.268 . S
O1206 Sc1196 2.105 . S
O1206 C1200 1.268 . S
O1207 Sc1194 2.105 . S
O1207 C1201 1.268 . S
O1208 Sc1196 2.105 . S
O1208 C1202 1.268 . S
O1209 Sc1195 2.105 . S
O1209 C1203 1.268 . S
O1210 Sc1194 2.105 . S
O1210 C1202 1.268 . S
O1211 Sc1195 2.105 . S
O1211 C1201 1.268 . S
O1212 Sc1196 2.105 . S
O1212 C1203 1.268 . S
O1213 Sc1194 2.105 . S
O1213 C1199 1.268 . S
O1214 Sc1196 2.105 . S
O1214 C1198 1.268 . S
O1215 Sc1195 2.105 . S
O1215 C1200 1.268 . S
C871 C4 1.056 . S
C39 C891 1.243 . S
C912 C86 1.125 . S
C939 C110 1.113 . S
C895 C146 1.113 . S
C194 C915 1.125 . S
C935 C219 1.245 . S
C256 C868 1.056 . S
C292 C873 1.056 . S
C890 C326 1.113 . S
C914 C363 1.245 . S
C938 C410 1.125 . S
C894 C302 1.125 . S
C917 C327 1.245 . S
C362 C934 1.113 . S
C870 C400 1.056 . S
C436 C872 1.056 . S
C471 C959 1.245 . S
C979 C506 1.113 . S
C1002 C554 1.125 . S
C580 C869 1.056 . S
C614 C913 1.113 . S
C1003 C507 1.245 . S
C958 C662 1.125 . S
C1026 C50 1.153 . S
C1047 C3 1.379 . S
C112 C1066 1.343 . S
C74 C1091 1.308 . S
C254 C1046 1.308 . S
C220 C1071 1.343 . S
C1090 C183 1.379 . S
C158 C1023 1.150 . S
C698 C1027 1.153 . S
C1048 C542 1.308 . S
C1067 C579 1.379 . S
C1092 C472 1.343 . S
C1044 C688 1.341 . S
C1069 C543 1.379 1_545 S
C1088 C578 1.308 . S
C482 C1024 1.150 . S
C1025 C734 1.153 . S
C399 C1111 1.379 . S
C1136 C758 1.308 . S
C328 C1155 1.343 . S
C1022 C374 1.150 . S
C1068 C794 1.308 . S
C1159 C759 1.379 1_455 S
C832 C1115 1.343 . S
C76 C1179 1.056 . S
C111 C957 1.245 . S
C981 C14 1.125 . S
C38 C1005 1.115 . S
C218 C961 1.113 . S
C266 C978 1.125 . S
C1001 C147 1.245 . S
C1176 C184 1.056 . S
C1181 C760 1.056 . S
C956 C722 1.115 . S
C983 C831 1.245 . S
C806 C1004 1.125 . S
C960 C770 1.125 . S
C723 C980 1.243 . S
C1000 C830 1.113 . S
C796 C1178 1.056 . S
C1180 C544 1.056 . S
C615 C893 1.245 . S
C916 C686 1.115 . S
C446 C936 1.125 . S
C1177 C652 1.056 . S
C982 C470 1.113 . S
C937 C687 1.243 . S
C892 C590 1.125 . S
C122 C1203 1.151 . S
C75 C1113 1.379 1_556 S
C40 C1132 1.341 . S
C1157 C2 1.308 . S
C1112 C182 1.308 . S
C148 C1137 1.343 . S
C1156 C255 1.379 . S
C230 C1198 1.151 . S
C1201 C518 1.151 . S
C434 C1114 1.308 . S
C651 C1133 1.379 . S
C1158 C616 1.343 . S
C1110 C508 1.343 . S
C435 C1135 1.379 . S
C1154 C650 1.308 . S
C1199 C626 1.151 . S
C1202 C338 1.151 . S
C1045 C795 1.379 . S
C290 C1070 1.308 . S
C724 C1089 1.341 . S
C1200 C842 1.151 . S
C1134 C398 1.308 . S
C1093 C291 1.379 . S
C1049 C364 1.343 . S
