# Generated by pormake.
# Topology ocu, (6,8)-cn, num edge types: 1
# Building blocks:
#     Node 0, Type 0, BuildingBlock: KUMBOL_clean_sbu_1, # of connection points: 6
#     Node 1, Type 0, BuildingBlock: KUMBOL_clean_sbu_1, # of connection points: 6
#     Node 2, Type 0, BuildingBlock: KUMBOL_clean_sbu_1, # of connection points: 6
#     Node 3, Type 0, BuildingBlock: KUMBOL_clean_sbu_1, # of connection points: 6
#     Node 4, Type 0, BuildingBlock: KUMBOL_clean_sbu_1, # of connection points: 6
#     Node 5, Type 0, BuildingBlock: KUMBOL_clean_sbu_1, # of connection points: 6
#     Node 6, Type 0, BuildingBlock: KUMBOL_clean_sbu_1, # of connection points: 6
#     Node 7, Type 0, BuildingBlock: KUMBOL_clean_sbu_1, # of connection points: 6
#     Node 8, Type 1, BuildingBlock: TAGTUT_clean_sbu_1, # of connection points: 8
#     Node 9, Type 1, BuildingBlock: TAGTUT_clean_sbu_1, # of connection points: 8
#     Node 10, Type 1, BuildingBlock: TAGTUT_clean_sbu_1, # of connection points: 8
#     Node 11, Type 1, BuildingBlock: TAGTUT_clean_sbu_1, # of connection points: 8
#     Node 12, Type 1, BuildingBlock: TAGTUT_clean_sbu_1, # of connection points: 8
#     Node 13, Type 1, BuildingBlock: TAGTUT_clean_sbu_1, # of connection points: 8
#     Edge 14, Type (0, 1), BuildingBlock: OJICUG_clean_linker_0, # of connection points: 2
#     Edge 15, Type (0, 1), BuildingBlock: OJICUG_clean_linker_0, # of connection points: 2
#     Edge 16, Type (0, 1), BuildingBlock: OJICUG_clean_linker_0, # of connection points: 2
#     Edge 17, Type (0, 1), BuildingBlock: OJICUG_clean_linker_0, # of connection points: 2
#     Edge 18, Type (0, 1), BuildingBlock: OJICUG_clean_linker_0, # of connection points: 2
#     Edge 19, Type (0, 1), BuildingBlock: OJICUG_clean_linker_0, # of connection points: 2
#     Edge 20, Type (0, 1), BuildingBlock: OJICUG_clean_linker_0, # of connection points: 2
#     Edge 21, Type (0, 1), BuildingBlock: OJICUG_clean_linker_0, # of connection points: 2
#     Edge 22, Type (0, 1), BuildingBlock: OJICUG_clean_linker_0, # of connection points: 2
#     Edge 23, Type (0, 1), BuildingBlock: OJICUG_clean_linker_0, # of connection points: 2
#     Edge 24, Type (0, 1), BuildingBlock: OJICUG_clean_linker_0, # of connection points: 2
#     Edge 25, Type (0, 1), BuildingBlock: OJICUG_clean_linker_0, # of connection points: 2
#     Edge 26, Type (0, 1), BuildingBlock: OJICUG_clean_linker_0, # of connection points: 2
#     Edge 27, Type (0, 1), BuildingBlock: OJICUG_clean_linker_0, # of connection points: 2
#     Edge 28, Type (0, 1), BuildingBlock: OJICUG_clean_linker_0, # of connection points: 2
#     Edge 29, Type (0, 1), BuildingBlock: OJICUG_clean_linker_0, # of connection points: 2
#     Edge 30, Type (0, 1), BuildingBlock: OJICUG_clean_linker_0, # of connection points: 2
#     Edge 31, Type (0, 1), BuildingBlock: OJICUG_clean_linker_0, # of connection points: 2
#     Edge 32, Type (0, 1), BuildingBlock: OJICUG_clean_linker_0, # of connection points: 2
#     Edge 33, Type (0, 1), BuildingBlock: OJICUG_clean_linker_0, # of connection points: 2
#     Edge 34, Type (0, 1), BuildingBlock: OJICUG_clean_linker_0, # of connection points: 2
#     Edge 35, Type (0, 1), BuildingBlock: OJICUG_clean_linker_0, # of connection points: 2
#     Edge 36, Type (0, 1), BuildingBlock: OJICUG_clean_linker_0, # of connection points: 2
#     Edge 37, Type (0, 1), BuildingBlock: OJICUG_clean_linker_0, # of connection points: 2
#     Edge 38, Type (0, 1), BuildingBlock: OJICUG_clean_linker_0, # of connection points: 2
#     Edge 39, Type (0, 1), BuildingBlock: OJICUG_clean_linker_0, # of connection points: 2
#     Edge 40, Type (0, 1), BuildingBlock: OJICUG_clean_linker_0, # of connection points: 2
#     Edge 41, Type (0, 1), BuildingBlock: OJICUG_clean_linker_0, # of connection points: 2
#     Edge 42, Type (0, 1), BuildingBlock: OJICUG_clean_linker_0, # of connection points: 2
#     Edge 43, Type (0, 1), BuildingBlock: OJICUG_clean_linker_0, # of connection points: 2
#     Edge 44, Type (0, 1), BuildingBlock: OJICUG_clean_linker_0, # of connection points: 2
#     Edge 45, Type (0, 1), BuildingBlock: OJICUG_clean_linker_0, # of connection points: 2
#     Edge 46, Type (0, 1), BuildingBlock: OJICUG_clean_linker_0, # of connection points: 2
#     Edge 47, Type (0, 1), BuildingBlock: OJICUG_clean_linker_0, # of connection points: 2
#     Edge 48, Type (0, 1), BuildingBlock: OJICUG_clean_linker_0, # of connection points: 2
#     Edge 49, Type (0, 1), BuildingBlock: OJICUG_clean_linker_0, # of connection points: 2
#     Edge 50, Type (0, 1), BuildingBlock: OJICUG_clean_linker_0, # of connection points: 2
#     Edge 51, Type (0, 1), BuildingBlock: OJICUG_clean_linker_0, # of connection points: 2
#     Edge 52, Type (0, 1), BuildingBlock: OJICUG_clean_linker_0, # of connection points: 2
#     Edge 53, Type (0, 1), BuildingBlock: OJICUG_clean_linker_0, # of connection points: 2
#     Edge 54, Type (0, 1), BuildingBlock: OJICUG_clean_linker_0, # of connection points: 2
#     Edge 55, Type (0, 1), BuildingBlock: OJICUG_clean_linker_0, # of connection points: 2
#     Edge 56, Type (0, 1), BuildingBlock: OJICUG_clean_linker_0, # of connection points: 2
#     Edge 57, Type (0, 1), BuildingBlock: OJICUG_clean_linker_0, # of connection points: 2
#     Edge 58, Type (0, 1), BuildingBlock: OJICUG_clean_linker_0, # of connection points: 2
#     Edge 59, Type (0, 1), BuildingBlock: OJICUG_clean_linker_0, # of connection points: 2
#     Edge 60, Type (0, 1), BuildingBlock: OJICUG_clean_linker_0, # of connection points: 2
#     Edge 61, Type (0, 1), BuildingBlock: OJICUG_clean_linker_0, # of connection points: 2
# Relax obj value: 0.099
# Max RMSD: 0.179
# Mean RMSD: 0.101
data_MOF--net-ocu--node1-KUMBOL_clean_sbu_1--node2-TAGTUT_clean_sbu_1--edge1-OJICUG_clean_linker_0
_symmetry_space_group_name_H-M    P1
_symmetry_Int_Tables_number       1
_symmetry_cell_setting            triclinic
loop_
_symmetry_equiv_pos_as_xyz
'x, y, z'
_cell_length_a     31.300493
_cell_length_b     30.287321
_cell_length_c     32.673804
_cell_angle_alpha  101.93467
_cell_angle_beta   80.458741
_cell_angle_gamma 118.79176
loop_
_atom_site_label
_atom_site_type_symbol
_atom_site_fract_x
_atom_site_fract_y
_atom_site_fract_z
_atom_type_partial_charge
C0 C 0.36732 0.40771 0.34736 0.0
C1 C 0.31908 0.40378 0.41417 0.0
C2 C 0.33062 0.3794 0.37554 0.0
C3 C 0.34428 0.45706 0.4237 0.0
C4 C 0.39239 0.4612 0.35675 0.0
C5 C 0.3806 0.48572 0.39494 0.0
N6 N 0.37835 0.383 0.31077 0.0
C7 C 0.41579 0.40935 0.28332 0.0
C8 C 0.42859 0.48857 0.32743 0.0
C9 C 0.44082 0.4625 0.29077 0.0
Gd10 Gd 0.22377 0.22313 0.2254 0.0
Gd11 Gd 0.33125 0.29416 0.30004 0.0
N12 N 0.30531 0.32808 0.36462 0.0
C13 C 0.28227 0.37385 0.44192 0.0
C14 C 0.27072 0.29861 0.39218 0.0
C15 C 0.25828 0.32099 0.43099 0.0
H16 H 0.2531 0.2579 0.38459 0.0
H17 H 0.23041 0.29742 0.45256 0.0
H18 H 0.29995 0.26021 0.14 0.0
H19 H 0.42696 0.38956 0.25592 0.0
H20 H 0.32354 0.22129 0.07213 0.0
H21 H 0.27239 0.39112 0.47194 0.0
H22 H 0.33579 0.47649 0.45314 0.0
H23 H 0.12917 0.12671 0.26925 0.0
H24 H 0.4474 0.52976 0.33319 0.0
H25 H 0.46963 0.48318 0.26831 0.0
H26 H 0.2232 0.04159 0.07297 0.0
H27 H 0.39962 0.52684 0.40265 0.0
H28 H 0.11419 0.98708 0.19433 0.0
H29 H 0.09018 0.03303 0.25841 0.0
N30 N 0.17814 0.13405 0.21468 0.0
C31 C 0.18984 0.10959 0.17829 0.0
C32 C 0.1413 0.10725 0.2423 0.0
C33 C 0.13158 0.02831 0.19939 0.0
C34 C 0.11832 0.05406 0.23567 0.0
C35 C 0.16653 0.056 0.16952 0.0
H36 H 0.16126 0.99059 0.1242 0.0
N37 N 0.24982 0.18974 0.16052 0.0
C38 C 0.2257 0.13828 0.14985 0.0
C39 C 0.2738 0.14451 0.08333 0.0
C40 C 0.23785 0.11419 0.11135 0.0
C41 C 0.28352 0.21951 0.13271 0.0
C42 C 0.2964 0.19744 0.09392 0.0
O43 O 0.27894 0.32901 0.30571 0.0
O44 O 0.20442 0.26251 0.28744 0.0
O45 O 0.20998 0.25985 0.18266 0.0
O46 O 0.14958 0.19665 0.2099 0.0
O47 O 0.27331 0.21282 0.30707 0.0
O48 O 0.2009 0.20445 0.29173 0.0
O49 O 0.2757 0.18807 0.22027 0.0
O50 O 0.35032 0.25465 0.23789 0.0
O51 O 0.34406 0.25717 0.34317 0.0
O52 O 0.40518 0.31956 0.31563 0.0
O53 O 0.28225 0.30434 0.2178 0.0
O54 O 0.35444 0.31267 0.23378 0.0
C55 C 0.23075 0.30805 0.30807 0.0
C56 C 0.22562 0.19441 0.31409 0.0
C57 C 0.13617 0.26319 0.19785 0.0
C58 C 0.11128 0.31886 0.17565 0.0
C59 C 0.09985 0.30814 0.24916 0.0
C60 C 0.11977 0.27448 0.23937 0.0
C61 C 0.09606 0.33063 0.21765 0.0
C62 C 0.13142 0.28498 0.16606 0.0
C63 C 0.1627 0.23304 0.18782 0.0
C64 C 0.2142 0.0608 0.10229 0.0
C65 C 0.17895 0.03177 0.13147 0.0
H66 H 0.28407 0.12749 0.05337 0.0
C67 C 0.32384 0.20896 0.21757 0.0
C68 C 0.33001 0.32259 0.21105 0.0
C69 C 0.41671 0.25174 0.32726 0.0
C70 C 0.43986 0.19439 0.34882 0.0
C71 C 0.44831 0.203 0.27508 0.0
C72 C 0.43082 0.2387 0.28539 0.0
C73 C 0.45216 0.18042 0.30646 0.0
C74 C 0.42187 0.2301 0.35892 0.0
C75 C 0.39142 0.28307 0.33776 0.0
H76 H 0.08775 0.31722 0.28132 0.0
H77 H 0.12314 0.25799 0.26424 0.0
H78 H 0.08091 0.35693 0.22622 0.0
H79 H 0.14482 0.27673 0.1341 0.0
H80 H 0.45839 0.19239 0.24264 0.0
H81 H 0.42737 0.25528 0.26065 0.0
H82 H 0.46511 0.15234 0.2975 0.0
H83 H 0.41042 0.23987 0.39121 0.0
C84 C 0.88822 0.22653 0.17166 0.0
C85 C 0.96144 0.30503 0.19002 0.0
C86 C 0.91493 0.26706 0.20164 0.0
C87 C 0.98027 0.3021 0.14829 0.0
C88 C 0.90856 0.22205 0.13013 0.0
C89 C 0.95495 0.26011 0.11861 0.0
N90 N 0.84072 0.19463 0.18209 0.0
C91 C 0.8126 0.15539 0.15361 0.0
C92 C 0.88013 0.18167 0.10069 0.0
C93 C 0.83203 0.14792 0.11262 0.0
Gd94 Gd 0.7446 0.30193 0.27348 0.0
Gd95 Gd 0.81051 0.21306 0.25012 0.0
N96 N 0.89352 0.27196 0.24099 0.0
C97 C 0.98676 0.34618 0.22026 0.0
C98 C 0.92014 0.3088 0.27169 0.0
C99 C 0.96683 0.34701 0.26166 0.0
H100 H 0.90622 0.30908 0.30396 0.0
H101 H 0.98715 0.37728 0.28578 0.0
H102 H 0.65043 0.21443 0.21407 0.0
H103 H 0.7752 0.12973 0.16262 0.0
H104 H 0.5673 0.14655 0.22704 0.0
H105 H 1.02203 0.37695 0.21209 0.0
H106 H 1.01364 0.33329 0.13877 0.0
H107 H 0.77622 0.37906 0.36425 0.0
H108 H 0.89456 0.17692 0.06849 0.0
H109 H 0.80961 0.11678 0.09006 0.0
H110 H 0.53621 0.17375 0.37553 0.0
H111 H 0.97043 0.25868 0.08646 0.0
H112 H 0.65523 0.32098 0.4555 0.0
H113 H 0.74011 0.38436 0.43728 0.0
N114 N 0.7119 0.31499 0.34165 0.0
C115 C 0.6643 0.28187 0.35029 0.0
C116 C 0.7389 0.35204 0.37194 0.0
C117 C 0.6705 0.31954 0.42327 0.0
C118 C 0.71851 0.35516 0.41319 0.0
C119 C 0.64299 0.28199 0.39173 0.0
H120 H 0.58012 0.2412 0.43265 0.0
N121 N 0.66113 0.24343 0.27883 0.0
C122 C 0.63843 0.24469 0.31806 0.0
C123 C 0.56561 0.17008 0.2939 0.0
C124 C 0.59074 0.20688 0.32682 0.0
C125 C 0.63509 0.21118 0.24591 0.0
C126 C 0.58722 0.1734 0.25301 0.0
O127 O 0.82894 0.26883 0.20446 0.0
O128 O 0.82324 0.3362 0.24684 0.0
O129 O 0.7145 0.32931 0.23444 0.0
O130 O 0.75505 0.37947 0.28844 0.0
O131 O 0.81704 0.2616 0.31421 0.0
O132 O 0.81519 0.33377 0.30369 0.0
O133 O 0.727 0.24595 0.31858 0.0
O134 O 0.73181 0.17751 0.27713 0.0
O135 O 0.84305 0.18803 0.28928 0.0
O136 O 0.79967 0.13571 0.23738 0.0
O137 O 0.73894 0.25395 0.20933 0.0
O138 O 0.73959 0.18163 0.2207 0.0
C139 C 0.83979 0.31728 0.21194 0.0
C140 C 0.82426 0.3089 0.32678 0.0
C141 C 0.72494 0.41613 0.24857 0.0
C142 C 0.67836 0.44679 0.22003 0.0
C143 C 0.75778 0.50635 0.24686 0.0
C144 C 0.76197 0.46628 0.25712 0.0
C145 C 0.71644 0.49688 0.22852 0.0
C146 C 0.68315 0.40647 0.23023 0.0
C147 C 0.73115 0.37403 0.25732 0.0
C148 C 0.5707 0.20524 0.36834 0.0
C149 C 0.59614 0.2431 0.40067 0.0
H150 H 0.52967 0.13905 0.29974 0.0
C151 C 0.71432 0.19713 0.31095 0.0
C152 C 0.73097 0.20641 0.19726 0.0
C153 C 0.83103 0.10037 0.27689 0.0
C154 C 0.87773 0.06933 0.30465 0.0
C155 C 0.79768 0.01012 0.27887 0.0
C156 C 0.79359 0.05032 0.26882 0.0
C157 C 0.83925 0.01936 0.29668 0.0
C158 C 0.87311 0.10977 0.29453 0.0
C159 C 0.82529 0.14251 0.26762 0.0
H160 H 0.78691 0.54491 0.25281 0.0
H161 H 0.79459 0.4744 0.27102 0.0
H162 H 0.71521 0.52886 0.21988 0.0
H163 H 0.65454 0.36763 0.224 0.0
H164 H 0.76834 0.97164 0.27316 0.0
H165 H 0.76081 0.04234 0.25527 0.0
H166 H 0.84036 0.9873 0.30526 0.0
H167 H 0.90211 0.1485 0.30019 0.0
C168 C 0.91967 0.86943 0.18736 0.0
C169 C 0.91784 0.82422 0.11643 0.0
C170 C 0.89389 0.83112 0.1559 0.0
C171 C 0.96812 0.85603 0.10913 0.0
C172 C 0.96994 0.90177 0.17987 0.0
C173 C 0.99408 0.89475 0.14075 0.0
N174 N 0.89553 0.87577 0.22493 0.0
C175 C 0.91924 0.91387 0.25615 0.0
C176 C 0.99441 0.94065 0.21182 0.0
C177 C 0.96914 0.94666 0.25013 0.0
Gd178 Gd 0.74959 0.70094 0.29139 0.0
Gd179 Gd 0.81178 0.8204 0.23029 0.0
N180 N 0.84535 0.80049 0.16398 0.0
C181 C 0.89039 0.7859 0.08531 0.0
C182 C 0.81798 0.76482 0.13319 0.0
C183 C 0.84014 0.75637 0.09363 0.0
H184 H 0.77918 0.74297 0.13905 0.0
H185 H 0.8184 0.72745 0.06948 0.0
H186 H 0.78045 0.77559 0.38381 0.0
H187 H 0.89959 0.91996 0.28535 0.0
H188 H 0.73962 0.79157 0.45247 0.0
H189 H 0.90744 0.7794 0.05457 0.0
H190 H 0.98718 0.85126 0.07903 0.0
H191 H 0.6627 0.60111 0.23522 0.0
H192 H 0.03258 0.96663 0.20694 0.0
H193 H 0.98806 0.97697 0.27474 0.0
H194 H 0.56989 0.67362 0.43782 0.0
H195 H 0.03279 0.9193 0.13456 0.0
H196 H 0.52629 0.56217 0.3076 0.0
H197 H 0.57309 0.54857 0.24244 0.0
N198 N 0.66546 0.64648 0.29495 0.0
C199 C 0.64027 0.65361 0.33166 0.0
C200 C 0.64228 0.60856 0.2634 0.0
C201 C 0.56522 0.58576 0.30458 0.0
C202 C 0.59171 0.57814 0.26756 0.0
C203 C 0.58934 0.62327 0.33745 0.0
H204 H 0.52497 0.60796 0.38069 0.0
N205 N 0.71457 0.72035 0.35711 0.0
C206 C 0.66555 0.69093 0.36387 0.0
C207 C 0.66759 0.73554 0.43457 0.0
C208 C 0.64059 0.69836 0.40262 0.0
C209 C 0.74139 0.75485 0.38868 0.0
C210 C 0.71829 0.76354 0.42768 0.0
O211 O 0.84452 0.76434 0.21418 0.0
O212 O 0.78338 0.68486 0.22713 0.0
O213 O 0.79488 0.68843 0.32704 0.0
O214 O 0.72867 0.62404 0.30098 0.0
O215 O 0.73332 0.76045 0.22295 0.0
O216 O 0.72911 0.6839 0.22492 0.0
O217 O 0.71763 0.7577 0.30725 0.0
O218 O 0.77929 0.83704 0.2949 0.0
O219 O 0.76489 0.83201 0.19587 0.0
O220 O 0.83152 0.89705 0.22069 0.0
O221 O 0.828 0.76084 0.29901 0.0
O222 O 0.83318 0.83772 0.29661 0.0
C223 C 0.82639 0.71416 0.20951 0.0
C224 C 0.7185 0.71248 0.2076 0.0
C225 C 0.77509 0.60387 0.3401 0.0
C226 C 0.82996 0.5829 0.3677 0.0
C227 C 0.74567 0.51918 0.35724 0.0
C228 C 0.73735 0.55422 0.34263 0.0
C229 C 0.79164 0.53319 0.36942 0.0
C230 C 0.82129 0.61844 0.35341 0.0
C231 C 0.76616 0.63943 0.32244 0.0
C232 C 0.58974 0.66837 0.40831 0.0
C233 C 0.56417 0.631 0.37578 0.0
H234 H 0.64977 0.74236 0.46481 0.0
C235 C 0.73613 0.80791 0.31227 0.0
C236 C 0.84266 0.80875 0.31455 0.0
C237 C 0.78282 0.91605 0.18305 0.0
C238 C 0.72603 0.93516 0.15632 0.0
C239 C 0.80966 1.00072 0.16703 0.0
C240 C 0.81944 0.96631 0.18103 0.0
C241 C 0.7633 0.98547 0.15501 0.0
C242 C 0.73622 0.90029 0.16997 0.0
C243 C 0.79315 0.88111 0.2002 0.0
H244 H 0.71648 0.48087 0.35883 0.0
H245 H 0.70147 0.54222 0.33281 0.0
H246 H 0.79699 0.50527 0.38095 0.0
H247 H 0.85061 0.65676 0.35183 0.0
H248 H 0.83801 0.03949 0.1658 0.0
H249 H 0.85557 0.97927 0.19077 0.0
H250 H 0.75684 0.01295 0.14396 0.0
H251 H 0.7077 0.86154 0.17127 0.0
C252 C 0.29664 0.6629 0.33591 0.0
C253 C 0.26232 0.57466 0.30232 0.0
C254 C 0.2836 0.62708 0.29975 0.0
C255 C 0.2542 0.55871 0.34158 0.0
C256 C 0.29059 0.647 0.37505 0.0
C257 C 0.26844 0.59477 0.37781 0.0
N258 N 0.31702 0.71327 0.33258 0.0
C259 C 0.33911 0.74929 0.3654 0.0
C260 C 0.30856 0.68419 0.41 0.0
C261 C 0.33415 0.73552 0.40489 0.0
Gd262 Gd 0.22941 0.78233 0.26161 0.0
Gd263 Gd 0.32256 0.73154 0.2651 0.0
N264 N 0.29153 0.64355 0.26213 0.0
C265 C 0.24969 0.53981 0.26532 0.0
C266 C 0.28034 0.60986 0.22586 0.0
C267 C 0.25901 0.55752 0.22694 0.0
H268 H 0.28778 0.62305 0.19599 0.0
H269 H 0.24975 0.53086 0.19815 0.0
H270 H 0.25835 0.88706 0.33506 0.0
H271 H 0.36211 0.78838 0.36094 0.0
H272 H 0.29392 0.97967 0.33698 0.0
H273 H 0.23308 0.49922 0.26601 0.0
H274 H 0.23756 0.51858 0.34419 0.0
H275 H 0.19366 0.73079 0.16423 0.0
H276 H 0.30496 0.67359 0.44058 0.0
H277 H 0.35091 0.76437 0.43112 0.0
H278 H 0.31091 1.00118 0.19269 0.0
H279 H 0.26297 0.58188 0.40771 0.0
H280 H 0.25014 0.85113 0.09025 0.0
H281 H 0.20619 0.7591 0.09562 0.0
N282 N 0.23592 0.80497 0.1957 0.0
C283 C 0.2551 0.85572 0.19458 0.0
C284 C 0.21572 0.77052 0.16152 0.0
C285 C 0.24589 0.83868 0.12013 0.0
C286 C 0.22145 0.78668 0.12294 0.0
C287 C 0.26191 0.87402 0.15644 0.0
H288 H 0.28897 0.94146 0.1269 0.0
N289 N 0.25737 0.87046 0.26856 0.0
C290 C 0.26624 0.88941 0.23199 0.0
C291 C 0.2967 0.97492 0.26997 0.0
C292 C 0.28626 0.94222 0.23174 0.0
C293 C 0.26638 0.90206 0.306 0.0
C294 C 0.28639 0.9547 0.30725 0.0
O295 O 0.24246 0.68628 0.28719 0.0
O296 O 0.22065 0.7473 0.31903 0.0
O297 O 0.17236 0.80557 0.2736 0.0
O298 O 0.15303 0.72548 0.25879 0.0
O299 O 0.29 0.70562 0.20191 0.0
O300 O 0.21605 0.70643 0.22198 0.0
O301 O 0.30857 0.82731 0.23749 0.0
O302 O 0.33317 0.76743 0.20775 0.0
O303 O 0.37687 0.70443 0.25246 0.0
O304 O 0.39999 0.7853 0.2669 0.0
O305 O 0.26326 0.80849 0.32425 0.0
O306 O 0.33735 0.80893 0.30237 0.0
C307 C 0.21663 0.70183 0.31653 0.0
C308 C 0.24414 0.69056 0.19573 0.0
C309 C 0.11271 0.75102 0.31734 0.0
C310 C 0.12035 0.7765 0.39227 0.0
C311 C 0.0426 0.71153 0.36554 0.0
C312 C 0.06337 0.71662 0.32425 0.0
C313 C 0.07064 0.74189 0.39958 0.0
C314 C 0.14092 0.77801 0.35132 0.0
C315 C 0.13812 0.759 0.27579 0.0
C316 C 0.2952 0.96069 0.19351 0.0
C317 C 0.28291 0.92669 0.15599 0.0
H318 H 0.31228 0.01575 0.27108 0.0
C319 C 0.33579 0.81222 0.20944 0.0
C320 C 0.30989 0.82542 0.32885 0.0
C321 C 0.43688 0.75675 0.20733 0.0
C322 C 0.42729 0.73054 0.1326 0.0
C323 C 0.50534 0.79695 0.15785 0.0
C324 C 0.48577 0.79194 0.19945 0.0
C325 C 0.47657 0.76588 0.12443 0.0
C326 C 0.40787 0.72877 0.17391 0.0
C327 C 0.4125 0.75009 0.24941 0.0
H328 H 1.00437 0.6853 0.37102 0.0
H329 H 0.04126 0.69407 0.29813 0.0
H330 H 0.05299 0.73977 0.43105 0.0
H331 H 0.17948 0.80277 0.34569 0.0
H332 H 0.54319 0.82389 0.15157 0.0
H333 H 0.50837 0.81537 0.22509 0.0
H334 H 0.49338 0.76823 0.09268 0.0
H335 H 0.36952 0.70371 0.18019 0.0
C336 C 0.38422 0.72136 0.66811 0.0
C337 C 0.46061 0.79731 0.6837 0.0
C338 C 0.41346 0.76178 0.69689 0.0
C339 C 0.47677 0.79327 0.64121 0.0
C340 C 0.40176 0.71557 0.62583 0.0
C341 C 0.44783 0.75235 0.61238 0.0
N342 N 0.33708 0.69073 0.6806 0.0
C343 C 0.30696 0.65093 0.65364 0.0
C344 C 0.37107 0.67504 0.59775 0.0
C345 C 0.32362 0.64215 0.6119 0.0
Gd346 Gd 0.24636 0.80345 0.77348 0.0
Gd347 Gd 0.31095 0.71266 0.74922 0.0
N348 N 0.39412 0.76886 0.73673 0.0
C349 C 0.48925 0.83728 0.71324 0.0
C350 C 0.42262 0.80599 0.76627 0.0
C351 C 0.47054 0.84088 0.75495 0.0
H352 H 0.4091 0.80887 0.79863 0.0
H353 H 0.49279 0.87085 0.7783 0.0
H354 H 0.14963 0.70627 0.7219 0.0
H355 H 0.27009 0.6259 0.66443 0.0
H356 H 0.06832 0.63979 0.74168 0.0
H357 H 0.52591 0.86521 0.70425 0.0
H358 H 0.51102 0.8226 0.63042 0.0
H359 H 0.28408 0.88891 0.85948 0.0
H360 H 0.3834 0.6693 0.56501 0.0
H361 H 0.29956 0.61069 0.5905 0.0
H362 H 0.04451 0.689 0.8881 0.0
H363 H 0.4607 0.75002 0.57956 0.0
H364 H 0.16636 0.84566 0.95536 0.0
H365 H 0.25127 0.90425 0.93221 0.0
N366 N 0.21782 0.82408 0.84153 0.0
C367 C 0.17039 0.79292 0.85283 0.0
C368 C 0.24675 0.86385 0.86921 0.0
C369 C 0.18015 0.83979 0.92311 0.0
C370 C 0.22822 0.87268 0.91029 0.0
C371 C 0.15086 0.79888 0.89447 0.0
H372 H 0.08924 0.76442 0.93909 0.0
N373 N 0.1634 0.74551 0.78418 0.0
C374 C 0.1428 0.75186 0.82362 0.0
C375 C 0.06993 0.67314 0.80669 0.0
C376 C 0.09615 0.7149 0.83612 0.0
C377 C 0.1361 0.7079 0.75425 0.0
C378 C 0.08925 0.67063 0.76517 0.0
O379 O 0.32996 0.76898 0.70408 0.0
O380 O 0.32491 0.83645 0.74682 0.0
O381 O 0.21397 0.82824 0.73387 0.0
O382 O 0.2585 0.88123 0.78492 0.0
O383 O 0.31934 0.76198 0.81295 0.0
O384 O 0.31759 0.83414 0.80228 0.0
O385 O 0.22798 0.74799 0.81933 0.0
O386 O 0.23257 0.6804 0.77638 0.0
O387 O 0.3433 0.68805 0.78895 0.0
O388 O 0.29876 0.63483 0.73798 0.0
O389 O 0.23901 0.75474 0.70945 0.0
O390 O 0.23951 0.68244 0.72106 0.0
C391 C 0.34065 0.81734 0.71157 0.0
C392 C 0.32647 0.80922 0.82544 0.0
C393 C 0.22771 0.91652 0.7448 0.0
C394 C 0.18118 0.94864 0.71806 0.0
C395 C 0.26304 1.00652 0.74072 0.0
C396 C 0.26643 0.96607 0.75112 0.0
C397 C 0.22094 0.99805 0.7243 0.0
C398 C 0.18511 0.90787 0.72843 0.0
C399 C 0.23257 0.87415 0.75481 0.0
C400 C 0.07803 0.71939 0.87794 0.0
C401 C 0.10428 0.76184 0.90685 0.0
H402 H 0.0345 0.64312 0.81557 0.0
C403 C 0.21728 0.69959 0.81187 0.0
C404 C 0.23155 0.70736 0.69725 0.0
C405 C 0.32995 0.59996 0.77823 0.0
C406 C 0.37652 0.56855 0.80581 0.0
C407 C 0.29573 0.50983 0.78129 0.0
C408 C 0.29196 0.55009 0.77097 0.0
C409 C 0.33752 0.51881 0.79857 0.0
C410 C 0.3722 0.60912 0.79552 0.0
C411 C 0.32473 0.64207 0.76812 0.0
H412 H 0.29329 0.0446 0.7452 0.0
H413 H 0.29959 0.97345 0.76364 0.0
H414 H 0.22032 0.03025 0.71546 0.0
H415 H 0.15516 0.86956 0.72407 0.0
H416 H 0.26602 0.4715 0.7761 0.0
H417 H 0.25905 0.54229 0.75774 0.0
H418 H 0.33847 0.48671 0.80727 0.0
H419 H 0.40162 0.64768 0.80064 0.0
C420 C 0.42112 0.36866 0.6895 0.0
C421 C 0.41972 0.32453 0.6182 0.0
C422 C 0.39537 0.33144 0.65745 0.0
C423 C 0.47039 0.35505 0.61178 0.0
C424 C 0.47189 0.39963 0.68296 0.0
C425 C 0.49641 0.39247 0.64408 0.0
N426 N 0.39652 0.37505 0.72679 0.0
C427 C 0.42027 0.41232 0.75849 0.0
C428 C 0.49655 0.43716 0.71562 0.0
C429 C 0.47069 0.44361 0.75347 0.0
Gd430 Gd 0.24943 0.19966 0.79098 0.0
Gd431 Gd 0.31228 0.32044 0.73117 0.0
N432 N 0.34651 0.30164 0.66482 0.0
C433 C 0.3923 0.28735 0.58647 0.0
C434 C 0.31926 0.26712 0.63347 0.0
C435 C 0.34176 0.25886 0.59404 0.0
H436 H 0.28028 0.24608 0.63881 0.0
H437 H 0.32009 0.23084 0.56943 0.0
H438 H 0.28226 0.27392 0.88331 0.0
H439 H 0.40037 0.41865 0.78745 0.0
H440 H 0.2427 0.28981 0.95268 0.0
H441 H 0.40964 0.2809 0.55587 0.0
H442 H 0.48976 0.35021 0.58188 0.0
H443 H 0.16085 0.10216 0.73472 0.0
H444 H 0.53542 0.46162 0.71174 0.0
H445 H 0.48967 0.47297 0.77857 0.0
H446 H 0.07236 0.17311 0.93988 0.0
H447 H 0.53547 0.41594 0.63859 0.0
H448 H 1.02584 0.0637 0.80915 0.0
H449 H 0.07118 0.05053 0.74297 0.0
N450 N 0.16513 0.14632 0.79522 0.0
C451 C 0.1407 0.15326 0.83247 0.0
C452 C 0.14111 0.10931 0.76349 0.0
C453 C 0.06481 0.08679 0.8058 0.0
C454 C 0.0905 0.07942 0.76817 0.0
C455 C 0.08974 0.1235 0.83874 0.0
H456 H 0.02611 0.10848 0.88284 0.0
N457 N 0.21575 0.21915 0.85732 0.0
C458 C 0.16675 0.19003 0.86463 0.0
C459 C 0.17021 0.23426 0.93557 0.0
C460 C 0.14252 0.19744 0.9038 0.0
C461 C 0.24322 0.25341 0.88864 0.0
C462 C 0.22085 0.26202 0.92806 0.0
O463 O 0.34453 0.26392 0.71429 0.0
O464 O 0.28315 0.18432 0.7266 0.0
O465 O 0.29421 0.18565 0.82595 0.0
O466 O 0.22797 0.1221 0.79919 0.0
O467 O 0.234 0.26036 0.72276 0.0
O468 O 0.22917 0.18342 0.7245 0.0
O469 O 0.21709 0.25609 0.80717 0.0
O470 O 0.27878 0.33582 0.79582 0.0
O471 O 0.26595 0.33302 0.69693 0.0
O472 O 0.33251 0.39755 0.72232 0.0
O473 O 0.32794 0.2591 0.79876 0.0
O474 O 0.33288 0.33622 0.79754 0.0
C475 C 0.32626 0.21371 0.70926 0.0
C476 C 0.21927 0.21246 0.70708 0.0
C477 C 0.27416 0.10035 0.8373 0.0
C478 C 0.32838 0.07904 0.86566 0.0
C479 C 0.24528 0.01449 0.85149 0.0
C480 C 0.23703 0.05 0.83755 0.0
C481 C 0.2906 0.0287 0.86523 0.0
C482 C 0.31971 0.115 0.85203 0.0
C483 C 0.26541 0.13666 0.8205 0.0
C484 C 0.09166 0.16789 0.91003 0.0
C485 C 0.06532 0.1311 0.87755 0.0
H486 H 0.15297 0.24105 0.96613 0.0
C487 C 0.2354 0.3063 0.81272 0.0
C488 C 0.34301 0.307 0.81451 0.0
C489 C 0.2842 0.41743 0.68485 0.0
C490 C 0.22803 0.43689 0.65737 0.0
C491 C 0.31123 0.50254 0.66974 0.0
C492 C 0.32073 0.46789 0.68369 0.0
C493 C 0.26525 0.48737 0.65692 0.0
C494 C 0.23794 0.40177 0.67098 0.0
C495 C 0.29433 0.38209 0.70168 0.0
H496 H 0.21654 0.97567 0.85138 0.0
H497 H 0.20169 0.03783 0.82652 0.0
H498 H 0.29579 1.00035 0.87624 0.0
H499 H 0.34859 0.15381 0.85207 0.0
H500 H 0.33953 0.54145 0.66916 0.0
H501 H 0.35658 0.48081 0.69402 0.0
H502 H 0.25905 0.51506 0.64593 0.0
H503 H 0.20949 0.36286 0.67159 0.0
C504 C 0.80395 0.16529 0.83562 0.0
C505 C 0.76297 0.0779 0.80177 0.0
C506 C 0.78565 0.13063 0.79987 0.0
C507 C 0.75674 0.06087 0.84028 0.0
C508 C 0.80025 0.14843 0.87377 0.0
C509 C 0.77543 0.09606 0.87618 0.0
N510 N 0.82655 0.21579 0.83281 0.0
C511 C 0.8516 0.25105 0.86485 0.0
C512 C 0.8226 0.18477 0.90806 0.0
C513 C 0.84933 0.23624 0.90328 0.0
Gd514 Gd 0.7207 0.27851 0.7681 0.0
Gd515 Gd 0.82644 0.23822 0.76873 0.0
N516 N 0.79277 0.1484 0.7629 0.0
C517 C 0.74878 0.04378 0.76465 0.0
C518 C 0.7829 0.11508 0.72618 0.0
C519 C 0.75976 0.0625 0.72663 0.0
H520 H 0.79315 0.12824 0.69611 0.0
H521 H 0.75099 0.03643 0.6975 0.0
H522 H 0.78342 0.39995 0.81054 0.0
H523 H 0.87308 0.29054 0.86055 0.0
H524 H 0.81152 0.48571 0.79259 0.0
H525 H 0.73123 1.00302 0.76479 0.0
H526 H 0.73885 0.02051 0.84236 0.0
H527 H 0.63189 0.19731 0.70415 0.0
H528 H 0.82072 0.17337 0.9379 0.0
H529 H 0.86828 0.2644 0.92908 0.0
H530 H 0.7413 0.45267 0.66263 0.0
H531 H 0.77154 0.08233 0.90537 0.0
H532 H 0.62993 0.27969 0.61318 0.0
H533 H 0.59839 0.19885 0.64139 0.0
N534 N 0.68407 0.27583 0.70966 0.0
C535 C 0.6997 0.3211 0.69627 0.0
C536 C 0.64646 0.23267 0.69164 0.0
C537 C 0.64519 0.27912 0.64039 0.0
C538 C 0.62724 0.23342 0.65623 0.0
C539 C 0.68105 0.32396 0.66099 0.0
H540 H 0.68372 0.37449 0.62122 0.0
N541 N 0.74633 0.36117 0.75507 0.0
C542 C 0.73177 0.36516 0.71975 0.0
C543 C 0.77634 0.45697 0.73459 0.0
C544 C 0.74658 0.41323 0.70838 0.0
C545 C 0.77337 0.40361 0.78183 0.0
C546 C 0.78927 0.45213 0.77175 0.0
O547 O 0.76886 0.22745 0.82206 0.0
O548 O 0.70765 0.20267 0.78178 0.0
O549 O 0.67712 0.3106 0.80871 0.0
O550 O 0.64594 0.22949 0.79016 0.0
O551 O 0.78331 0.20071 0.70947 0.0
O552 O 0.71825 0.21963 0.71345 0.0
O553 O 0.79824 0.32784 0.74101 0.0
O554 O 0.82884 0.27169 0.71227 0.0
O555 O 0.8859 0.21855 0.75741 0.0
O556 O 0.90204 0.29751 0.76809 0.0
O557 O 0.76367 0.31051 0.82654 0.0
O558 O 0.83895 0.3171 0.79963 0.0
C559 C 0.72254 0.20087 0.81607 0.0
C560 C 0.74313 0.19519 0.69552 0.0
C561 C 0.63644 0.25803 0.86145 0.0
C562 C 0.67031 0.28489 0.93015 0.0
C563 C 0.60025 0.20153 0.91391 0.0
C564 C 0.60059 0.21191 0.87415 0.0
C565 C 0.63531 0.23704 0.9414 0.0
C566 C 0.67037 0.29405 0.88961 0.0
C567 C 0.64345 0.26616 0.81738 0.0
C568 C 0.73006 0.41611 0.67206 0.0
C569 C 0.69732 0.37157 0.64844 0.0
H570 H 0.78855 0.4946 0.72691 0.0
C571 C 0.82719 0.3144 0.71305 0.0
C572 C 0.81111 0.32974 0.82902 0.0
C573 C 0.94256 0.27069 0.71085 0.0
C574 C 0.93283 0.24205 0.63641 0.0
C575 C 1.01131 0.30825 0.66095 0.0
C576 C 0.99168 0.3049 0.70262 0.0
C577 C 0.98233 0.2765 0.62785 0.0
C578 C 0.91328 0.24179 0.67775 0.0
C579 C 0.91857 0.26502 0.75297 0.0
H580 H 0.5732 0.16535 0.92316 0.0
H581 H 0.57424 0.18316 0.85278 0.0
H582 H 0.6339 0.227 0.97164 0.0
H583 H 0.69609 0.33014 0.87966 0.0
H584 H 0.04937 0.33434 0.65442 0.0
H585 H 1.01447 0.32871 0.72806 0.0
H586 H 0.99912 0.27754 0.59607 0.0
H587 H 0.87474 0.21723 0.68439 0.0
C588 C 0.8681 0.90751 0.84806 0.0
C589 C 0.82035 0.90312 0.91513 0.0
C590 C 0.83158 0.87899 0.87621 0.0
C591 C 0.84557 0.95638 0.9249 0.0
C592 C 0.89315 0.96097 0.85766 0.0
C593 C 0.8816 0.98526 0.89609 0.0
N594 N 0.87895 0.88304 0.81125 0.0
C595 C 0.91622 0.90954 0.78379 0.0
C596 C 0.92904 0.98854 0.82828 0.0
C597 C 0.94119 0.9627 0.79142 0.0
Gd598 Gd 0.72159 0.723 0.72699 0.0
Gd599 Gd 0.83144 0.79434 0.79973 0.0
N600 N 0.80614 0.82773 0.86499 0.0
C601 C 0.78381 0.87298 0.94291 0.0
C602 C 0.77186 0.79807 0.8926 0.0
C603 C 0.75977 0.82017 0.93172 0.0
H604 H 0.75424 0.75743 0.88486 0.0
H605 H 0.73214 0.79641 0.9533 0.0
H606 H 0.79041 0.76712 0.63997 0.0
H607 H 0.9272 0.88976 0.75628 0.0
H608 H 0.8134 0.73335 0.56954 0.0
H609 H 0.77419 0.89004 0.97316 0.0
H610 H 0.83729 0.97561 0.95455 0.0
H611 H 0.6374 0.62078 0.77153 0.0
H612 H 0.94763 0.02971 0.83417 0.0
H613 H 0.96986 0.98355 0.76894 0.0
H614 H 0.72379 0.55204 0.56523 0.0
H615 H 0.90061 0.02635 0.90397 0.0
H616 H 0.62188 0.48682 0.68713 0.0
H617 H 0.60116 0.52759 0.75593 0.0
N618 N 0.68212 0.63351 0.71435 0.0
C619 C 0.69263 0.61192 0.67582 0.0
C620 C 0.64864 0.60383 0.74242 0.0
C621 C 0.63867 0.52797 0.6943 0.0
C622 C 0.62709 0.55079 0.73318 0.0
C623 C 0.67118 0.55851 0.6648 0.0
H624 H 0.66663 0.49633 0.61586 0.0
N625 N 0.74689 0.69475 0.65948 0.0
C626 C 0.72542 0.6434 0.64739 0.0
C627 C 0.76942 0.65502 0.5791 0.0
C628 C 0.7368 0.62216 0.60709 0.0
C629 C 0.77689 0.72683 0.63167 0.0
C630 C 0.78917 0.7076 0.59133 0.0
O631 O 0.77951 0.82963 0.80639 0.0
O632 O 0.70478 0.76267 0.78964 0.0
O633 O 0.6969 0.75891 0.69084 0.0
O634 O 0.64533 0.68831 0.71594 0.0
O635 O 0.77431 0.71279 0.80644 0.0
O636 O 0.70153 0.70524 0.79337 0.0
O637 O 0.7745 0.68885 0.71999 0.0
O638 O 0.84939 0.75592 0.73654 0.0
O639 O 0.84505 0.75656 0.8417 0.0
O640 O 0.90575 0.81906 0.81392 0.0
O641 O 0.77909 0.80382 0.71691 0.0
O642 O 0.85221 0.81407 0.73374 0.0
C643 C 0.73137 0.80873 0.80911 0.0
C644 C 0.72683 0.69469 0.81452 0.0
C645 C 0.61071 0.72112 0.67665 0.0
C646 C 0.57829 0.75356 0.63382 0.0
C647 C 0.5245 0.67628 0.66441 0.0
C648 C 0.56369 0.68054 0.6826 0.0
C649 C 0.53172 0.71215 0.63994 0.0
C650 C 0.6178 0.75813 0.65267 0.0
C651 C 0.6519 0.72305 0.69451 0.0
C652 C 0.71536 0.569 0.59601 0.0
C653 C 0.6828 0.53727 0.62484 0.0
H654 H 0.77901 0.64022 0.54781 0.0
C655 C 0.82269 0.71038 0.71607 0.0
C656 C 0.82722 0.82425 0.7117 0.0
C657 C 0.91825 0.75176 0.8257 0.0
C658 C 0.94396 0.69649 0.84768 0.0
C659 C 0.95447 0.70696 0.77412 0.0
C660 C 0.9342 0.7403 0.78408 0.0
C661 C 0.95901 0.68488 0.80556 0.0
C662 C 0.92344 0.73011 0.85741 0.0
C663 C 0.89237 0.78262 0.83602 0.0
H664 H 0.48844 0.64478 0.66897 0.0
H665 H 0.55717 0.65163 0.70098 0.0
H666 H 0.50061 0.70737 0.62585 0.0
H667 H 0.65394 0.78947 0.64774 0.0
H668 H 0.96637 0.6979 0.74189 0.0
H669 H 0.93038 0.75658 0.75927 0.0
H670 H 0.97466 0.65902 0.79676 0.0
H671 H 0.91026 0.73842 0.88943 0.0
C672 C 0.91081 0.09325 0.52631 0.0
C673 C 0.99079 0.0734 0.42189 0.0
C674 C 0.95695 0.89906 0.45946 0.0
Mg675 Mg 1.01893 0.11161 0.51162 0.0
O676 O 0.98648 0.04523 0.52537 0.0
Mg677 Mg 0.92909 0.99219 0.49332 0.0
Mg678 Mg 0.02721 0.00955 0.51328 0.0
O679 O 0.0679 0.97379 0.50123 0.0
Mg680 Mg 0.03505 0.90768 0.51562 0.0
Mg681 Mg 0.12532 0.02685 0.53315 0.0
C682 C 0.09795 0.1202 0.56669 0.0
C683 C 0.12427 0.07203 0.45027 0.0
O684 O 0.89258 0.04455 0.51743 0.0
O685 O 0.95674 0.12335 0.52794 0.0
O686 O 0.9576 0.03302 0.43571 0.0
O687 O 1.0233 0.10924 0.44493 0.0
O688 O 0.08002 0.14425 0.5529 0.0
O689 O 0.08201 0.07208 0.55593 0.0
C690 C 0.92997 0.94714 0.57619 0.0
O691 O 0.97651 0.96403 0.56785 0.0
O692 O 0.90451 0.95347 0.55304 0.0
O693 O 0.16146 0.97407 0.5098 0.0
O694 O 0.09689 0.89544 0.50019 0.0
O695 O 0.09718 0.98632 0.59084 0.0
C696 C 0.14284 0.92525 0.50196 0.0
O697 O 0.03129 0.91024 0.58235 0.0
O698 O 0.97459 0.87497 0.47361 0.0
C699 C 0.06426 0.94608 0.60501 0.0
O700 O 0.97258 0.9471 0.47053 0.0
O701 O 0.07776 0.05509 0.45874 0.0
O702 O 0.14984 0.06555 0.47323 0.0
C703 C 0.42488 0.10842 0.0977 0.0
C704 C 0.46496 0.09236 0.9636 0.0
C705 C 0.43762 0.90592 0.96776 0.0
Mg706 Mg 0.52071 0.11878 0.04158 0.0
O707 O 0.49364 0.0488 0.04457 0.0
Mg708 Mg 0.425 1.00467 0.02833 0.0
Mg709 Mg 0.52664 1.00691 0.01259 0.0
O710 O 0.55965 0.96522 0.98086 0.0
Mg711 Mg 0.53207 0.8952 0.98426 0.0
Mg712 Mg 0.62779 0.00916 0.99871 0.0
C713 C 0.61538 0.108 0.05769 0.0
C714 C 0.60813 0.07025 0.93997 0.0
O715 O 0.40196 0.06198 0.0791 0.0
O716 O 0.47087 0.13591 0.08918 0.0
O717 O 0.43585 0.05061 0.97743 0.0
O718 O 0.50323 0.12571 0.9819 0.0
O719 O 0.59377 0.13494 0.05676 0.0
O720 O 0.59574 0.05961 0.04514 0.0
C721 C 0.44715 0.94483 0.08669 0.0
O722 O 0.48934 0.95599 0.06667 0.0
O723 O 0.41833 0.95985 0.07806 0.0
O724 O 0.65145 0.9528 0.94822 0.0
O725 O 0.58273 0.87883 0.93721 0.0
O726 O 0.61542 0.96206 0.04903 0.0
C727 C 0.62878 0.90661 0.9292 0.0
O728 O 0.5479 0.88716 0.04424 0.0
O729 O 0.45934 0.87903 0.96847 0.0
C730 C 0.58611 0.92029 0.06271 0.0
O731 O 0.45704 0.95417 0.98091 0.0
O732 O 0.5647 0.05771 0.95794 0.0
O733 O 0.63654 0.05578 0.95024 0.0
C734 C 0.9355 0.61645 0.10073 0.0
C735 C 0.98255 0.61294 0.9725 0.0
C736 C 0.93735 0.41706 0.95989 0.0
Mg737 Mg 0.03325 0.62387 0.0508 0.0
O738 O 1.00013 0.55249 0.04664 0.0
Mg739 Mg 0.9321 0.51521 0.02737 0.0
Mg740 Mg 0.02922 0.50835 0.01183 0.0
O741 O 0.05842 0.46438 0.97682 0.0
Mg742 Mg 1.02572 0.39294 0.97144 0.0
Mg743 Mg 0.12643 0.50167 0.99605 0.0
C744 C 0.1214 0.59974 0.06323 0.0
C745 C 0.11344 0.5716 0.94084 0.0
O746 O 0.91214 0.57215 0.07905 0.0
O747 O 0.98241 0.64166 0.09686 0.0
O748 O 0.94988 0.5691 0.98066 0.0
O749 O 1.02044 0.64005 0.99336 0.0
O750 O 0.1036 0.63126 0.06712 0.0
O751 O 0.0986 0.55313 0.04584 0.0
C752 C 0.94488 0.44538 0.08302 0.0
O753 O 0.98689 0.45434 0.06334 0.0
O754 O 0.91885 0.46406 0.07475 0.0
O755 O 0.14701 0.44551 0.94399 0.0
O756 O 0.07716 0.37605 0.92526 0.0
O757 O 0.10827 0.44725 0.04232 0.0
C758 C 0.12408 0.40152 0.92176 0.0
O759 O 0.03788 0.37631 0.02885 0.0
O760 O 0.95537 0.38565 0.95534 0.0
C761 C 0.07546 0.4033 0.0501 0.0
O762 O 0.95988 0.46341 0.97794 0.0
O763 O 0.07135 0.56235 0.96043 0.0
O764 O 0.13966 0.55313 0.94908 0.0
C765 C 0.40836 0.58496 0.02319 0.0
C766 C 0.49163 0.57111 0.92078 0.0
C767 C 0.46542 0.39791 0.95431 0.0
Mg768 Mg 0.51776 0.60789 1.01117 0.0
O769 O 0.48717 0.54101 0.0238 0.0
Mg770 Mg 0.43159 0.48709 0.9904 0.0
Mg771 Mg 0.53034 0.50799 0.01199 0.0
O772 O 0.57423 0.47563 0.99965 0.0
Mg773 Mg 0.54592 0.40789 1.00887 0.0
Mg774 Mg 0.62889 0.52978 0.03402 0.0
C775 C 0.59661 0.61886 0.06747 0.0
C776 C 0.62769 0.57453 0.95152 0.0
O777 O 0.39186 0.53647 0.01386 0.0
O778 O 0.4538 0.61643 0.0263 0.0
O779 O 0.45969 0.52956 0.93366 0.0
O780 O 0.52298 0.60729 0.94459 0.0
O781 O 0.57794 0.64221 0.05368 0.0
O782 O 0.58225 0.5711 0.05593 0.0
C783 C 0.43294 0.44178 0.07312 0.0
O784 O 0.47972 0.46014 0.06551 0.0
O785 O 0.40729 0.44738 0.04962 0.0
O786 O 0.67085 0.48289 0.01263 0.0
O787 O 0.61213 0.4023 0.99454 0.0
O788 O 0.5991 0.48603 0.08989 0.0
C789 C 0.65662 0.43515 1.00084 0.0
O790 O 0.53815 0.40715 0.07572 0.0
O791 O 0.48591 0.3749 0.96599 0.0
C792 C 0.56738 0.44337 0.10112 0.0
O793 O 0.47807 0.445 0.96801 0.0
O794 O 0.58087 0.55554 0.95891 0.0
O795 O 0.65373 0.56976 0.9752 0.0
C796 C 0.92423 0.61044 0.59641 0.0
C797 C 0.96687 0.59392 0.46295 0.0
C798 C 0.93685 0.40636 0.46872 0.0
Mg799 Mg 1.02054 0.61965 0.54188 0.0
O800 O 0.99243 0.54967 0.54571 0.0
Mg801 Mg 0.92419 0.5062 0.5281 0.0
Mg802 Mg 1.02501 0.50724 0.51431 0.0
O803 O 0.05814 0.46523 0.48249 0.0
Mg804 Mg 0.03169 0.39521 0.48489 0.0
Mg805 Mg 0.12709 0.50967 0.49812 0.0
C806 C 0.11473 0.60839 0.55835 0.0
C807 C 0.10483 0.5694 0.43974 0.0
O808 O 0.90125 0.56411 0.57768 0.0
O809 O 0.97043 0.6376 0.58856 0.0
O810 O 0.93712 0.55231 0.47674 0.0
O811 O 1.00495 0.627 0.48161 0.0
O812 O 0.09321 0.63543 0.55752 0.0
O813 O 0.095 0.56 0.54577 0.0
C814 C 0.94314 0.44633 0.58883 0.0
O815 O 0.98576 0.45645 0.56962 0.0
O816 O 0.91548 0.46173 0.57851 0.0
O817 O 0.15054 0.45292 0.44719 0.0
O818 O 0.08197 0.37875 0.43693 0.0
O819 O 0.11673 0.46355 0.54869 0.0
C820 C 0.12792 0.40655 0.42842 0.0
O821 O 0.04952 0.38823 0.54456 0.0
O822 O 0.95886 0.3797 0.4694 0.0
C823 C 0.08802 0.42173 0.56255 0.0
O824 O 0.95588 0.45457 0.48215 0.0
O825 O 0.06257 0.558 0.45976 0.0
O826 O 0.13375 0.55458 0.44841 0.0
C827 C 0.43487 0.11568 0.60056 0.0
C828 C 0.48174 0.11239 0.47232 0.0
C829 C 0.43871 0.92018 0.45559 0.0
Mg830 Mg 0.53216 0.12283 0.55033 0.0
O831 O 0.49932 0.05177 0.54698 0.0
Mg832 Mg 0.43158 0.01499 0.52689 0.0
Mg833 Mg 0.52945 0.00846 0.51232 0.0
O834 O 0.5597 0.96628 0.47697 0.0
Mg835 Mg 0.52628 0.89552 0.46489 0.0
Mg836 Mg 0.6263 1.0002 0.49871 0.0
C837 C 0.62059 0.09907 0.56419 0.0
C838 C 0.61822 0.07623 0.44588 0.0
O839 O 0.41138 0.07138 0.57892 0.0
O840 O 0.48177 0.14088 0.59651 0.0
O841 O 0.44904 0.06886 0.48085 0.0
O842 O 0.51989 0.13935 0.49283 0.0
O843 O 0.60227 0.12972 0.56567 0.0
O844 O 0.59789 0.05129 0.54917 0.0
C845 C 0.44369 0.94413 0.58178 0.0
O846 O 0.48572 0.95299 0.56228 0.0
O847 O 0.41796 0.9632 0.57366 0.0
O848 O 0.64817 0.94675 0.44428 0.0
O849 O 0.57899 0.88113 0.41948 0.0
O850 O 0.60421 0.93734 0.54009 0.0
C851 C 0.62584 0.90505 0.4191 0.0
O852 O 0.53362 0.87092 0.51905 0.0
O853 O 0.45727 0.88913 0.44811 0.0
C854 C 0.5699 0.8918 0.5419 0.0
O855 O 0.46036 0.96489 0.47681 0.0
O856 O 0.57406 0.06386 0.46196 0.0
O857 O 0.64391 0.05814 0.45596 0.0
C858 C 0.1484 0.14178 0.35693 0.0
C859 C 0.19919 0.16091 0.34751 0.0
H860 H 0.08499 0.09613 0.3938 0.0
C861 C 0.2248 0.14912 0.37153 0.0
H862 H 0.12722 0.15066 0.34008 0.0
C863 C 0.20058 0.12014 0.40441 0.0
C864 C 0.14972 0.10107 0.41389 0.0
H865 H 0.26392 0.1631 0.36552 0.0
H866 H 0.22196 0.11297 0.42258 0.0
C867 C 0.12403 0.11134 0.3888 0.0
C868 C 0.9409 0.12187 0.35728 0.0
C869 C 0.92021 0.07889 0.32657 0.0
H870 H 0.98293 0.15497 0.41099 0.0
C871 C 0.93604 0.04162 0.321 0.0
H872 H 0.92979 0.15149 0.36273 0.0
C873 C 0.96554 0.04306 0.34943 0.0
C874 C 0.98148 0.08302 0.3829 0.0
H875 H 0.92246 0.00925 0.29659 0.0
H876 H 0.97204 0.01063 0.34765 0.0
C877 C 0.97186 0.12417 0.38489 0.0
C878 C 0.87747 0.87834 0.37444 0.0
C879 C 0.87068 0.83076 0.35239 0.0
H880 H 0.90789 0.93593 0.42619 0.0
C881 C 0.88889 0.80362 0.368 0.0
H882 H 0.86304 0.89981 0.36386 0.0
C883 C 0.91474 0.82448 0.40415 0.0
C884 C 0.92286 0.8729 0.4255 0.0
H885 H 0.88395 0.76662 0.35193 0.0
H886 H 0.9297 0.80336 0.41448 0.0
C887 C 0.90298 0.89896 0.41056 0.0
C888 C 0.1807 0.86684 0.41517 0.0
C889 C 0.14949 0.81714 0.42513 0.0
H890 H 0.21174 0.9462 0.43751 0.0
C891 C 0.14152 0.80975 0.46721 0.0
H892 H 0.18839 0.87496 0.38332 0.0
C893 C 0.15574 0.85214 0.49852 0.0
C894 C 0.17391 0.90079 0.48711 0.0
H895 H 0.11999 0.77197 0.47595 0.0
H896 H 0.14185 0.84597 0.5306 0.0
C897 C 0.19517 0.90856 0.44661 0.0
C898 C 0.1149 0.89644 0.668 0.0
C899 C 0.13789 0.93992 0.69772 0.0
H900 H 0.07015 0.86318 0.61599 0.0
C901 C 0.1235 0.97836 0.70361 0.0
H902 H 0.12485 0.86594 0.66237 0.0
C903 C 0.09308 0.97724 0.67623 0.0
C904 C 0.07469 0.93659 0.6436 0.0
H905 H 0.13888 0.01135 0.72728 0.0
H906 H 0.08791 0.01043 0.6778 0.0
C907 C 0.08303 0.89455 0.6415 0.0
C908 C 0.18167 0.14208 0.64846 0.0
C909 C 0.18971 0.19017 0.67018 0.0
H910 H 0.14826 0.08342 0.5983 0.0
C911 C 0.17082 0.21721 0.65534 0.0
H912 H 0.19657 0.12064 0.65841 0.0
C913 C 0.14301 0.19572 0.62034 0.0
C914 C 0.13358 0.14676 0.59945 0.0
H915 H 0.1767 0.2546 0.67116 0.0
H916 H 0.12762 0.2168 0.61058 0.0
C917 C 0.15414 0.12081 0.61356 0.0
C918 C 0.90984 0.20787 0.56213 0.0
C919 C 0.90305 0.20087 0.60423 0.0
H920 H 0.90919 0.17159 0.49877 0.0
C921 C 0.87311 0.15122 0.6146 0.0
H922 H 0.93036 0.24562 0.5532 0.0
C923 C 0.85939 0.10926 0.58328 0.0
C924 C 0.87941 0.11708 0.54242 0.0
H925 H 0.86604 0.14369 0.64663 0.0
H926 H 0.84413 0.07182 0.59248 0.0
C927 C 0.89606 0.1654 0.53097 0.0
C928 C 0.90469 0.8765 0.66908 0.0
C929 C 0.85407 0.85853 0.67887 0.0
H930 H 0.96835 0.92105 0.63192 0.0
C931 C 0.8291 0.87192 0.65557 0.0
H932 H 0.9254 0.86645 0.68541 0.0
C933 C 0.85367 0.90083 0.6227 0.0
C934 C 0.9043 0.91841 0.61267 0.0
H935 H 0.79014 0.85896 0.66197 0.0
H936 H 0.83273 0.90908 0.60494 0.0
C937 C 0.92947 0.90695 0.6373 0.0
C938 C 0.32445 0.12955 0.17196 0.0
C939 C 0.34931 0.1819 0.18805 0.0
H940 H 0.32772 0.0653 0.13103 0.0
C941 C 0.39905 0.20883 0.17463 0.0
H942 H 0.28635 0.10707 0.18184 0.0
C943 C 0.42301 0.1847 0.14614 0.0
C944 C 0.39818 0.13261 0.12935 0.0
H945 H 0.41965 0.24914 0.18565 0.0
H946 H 0.46127 0.20749 0.13685 0.0
C947 C 0.34835 0.10536 0.14287 0.0
C948 C 0.88482 0.3308 0.14022 0.0
C949 C 0.87061 0.35092 0.17985 0.0
H950 H 0.92177 0.34536 0.07904 0.0
C951 C 0.88461 0.40334 0.18784 0.0
H952 H 0.873 0.29045 0.13219 0.0
C953 C 0.91091 0.43433 0.15677 0.0
C954 C 0.92506 0.41408 0.11736 0.0
H955 H 0.87406 0.42029 0.2177 0.0
H956 H 0.91928 0.47413 0.16321 0.0
C957 C 0.91259 0.3622 0.10958 0.0
C958 C 0.65712 0.87788 0.11021 0.0
C959 C 0.67767 0.91986 0.1417 0.0
H960 H 0.60883 0.84376 0.06042 0.0
C961 C 0.65609 0.95235 0.15411 0.0
H962 H 0.673 0.85219 0.10008 0.0
C963 C 0.61921 0.94716 0.13181 0.0
C964 C 0.6031 0.9093 0.09683 0.0
H965 H 0.67068 0.98451 0.17874 0.0
H966 H 0.60716 0.97619 0.13901 0.0
C967 C 0.62001 0.87269 0.08779 0.0
C968 C 0.23851 0.67652 0.11831 0.0
C969 C 0.22277 0.65736 0.15677 0.0
H970 H 0.21729 0.67429 0.05814 0.0
C971 C 0.17832 0.61285 0.15996 0.0
H972 H 0.27237 0.71129 0.11538 0.0
C973 C 0.14798 0.59058 0.12676 0.0
C974 C 0.16068 0.61355 0.09039 0.0
H975 H 0.16525 0.59765 0.18938 0.0
H976 H 0.11232 0.55837 0.13127 0.0
C977 C 0.20694 0.65564 0.08571 0.0
C978 C 0.37049 0.88843 0.87611 0.0
C979 C 0.34701 0.83504 0.86644 0.0
H980 H 0.41634 0.95332 0.91758 0.0
C981 C 0.34519 0.80597 0.89571 0.0
H982 H 0.37228 0.91189 0.8543 0.0
C983 C 0.37018 0.82965 0.93196 0.0
C984 C 0.39746 0.8829 0.93975 0.0
H985 H 0.32634 0.76473 0.8897 0.0
H986 H 0.37114 0.80613 0.95232 0.0
C987 C 0.39524 0.9122 0.91267 0.0
C988 C 0.15704 0.30195 0.85244 0.0
C989 C 0.20697 0.33082 0.84053 0.0
H990 H 0.09204 0.30121 0.88659 0.0
C991 C 0.22928 0.38363 0.85508 0.0
H992 H 0.13829 0.2614 0.84169 0.0
C993 C 0.20263 0.40666 0.88108 0.0
C994 C 0.15261 0.37776 0.8929 0.0
H995 H 0.26762 0.40731 0.84667 0.0
H996 H 0.22128 0.44724 0.89183 0.0
C997 C 0.13029 0.32504 0.87802 0.0
C998 C 0.70424 0.18059 0.88879 0.0
C999 C 0.68866 0.16989 0.84841 0.0
H1000 H 0.69003 0.15797 0.9493 0.0
C1001 C 0.64251 0.12846 0.83954 0.0
H1002 H 0.73923 0.2123 0.89694 0.0
C1003 C 0.61356 0.09723 0.87027 0.0
C1004 C 0.63058 0.10734 0.91007 0.0
H1005 H 0.62961 0.11924 0.8086 0.0
H1006 H 0.57928 0.06409 0.86236 0.0
C1007 C 0.6758 0.14967 0.91903 0.0
C1008 C 0.94231 0.62323 0.87378 0.0
C1009 C 0.95022 0.67396 0.88121 0.0
H1010 H 0.94694 0.56444 0.89683 0.0
C1011 C 0.96668 0.70371 0.92008 0.0
H1012 H 0.92832 0.59885 0.84476 0.0
C1013 C 0.97782 0.68405 0.94969 0.0
C1014 C 0.97237 0.63428 0.94101 0.0
H1015 H 0.97323 0.74291 0.92684 0.0
H1016 H 0.99132 0.70792 0.97903 0.0
C1017 C 0.95295 0.6035 0.90351 0.0
C1018 C 0.11563 0.39285 0.14878 0.0
C1019 C 0.10564 0.3415 0.14201 0.0
H1020 H 0.1134 0.45247 0.12492 0.0
C1021 C 0.08768 0.31124 0.10372 0.0
H1022 H 0.13062 0.41742 0.17746 0.0
C1023 C 0.0772 0.33117 0.07395 0.0
C1024 C 0.08495 0.38175 0.08183 0.0
H1025 H 0.07956 0.27155 0.09759 0.0
H1026 H 0.06257 0.30695 0.04503 0.0
C1027 C 0.10576 0.4129 0.1188 0.0
C1028 C 0.17147 0.68571 0.88325 0.0
C1029 C 0.18678 0.66595 0.84398 0.0
H1030 H 0.13393 0.67079 0.94419 0.0
C1031 C 0.17415 0.61387 0.8363 0.0
H1032 H 0.18208 0.72584 0.89098 0.0
C1033 C 0.14818 0.58287 0.86738 0.0
C1034 C 0.13302 0.60277 0.90646 0.0
H1035 H 0.18557 0.59722 0.80672 0.0
H1036 H 0.14085 0.54339 0.86121 0.0
C1037 C 0.14402 0.65425 0.9139 0.0
C1038 C 0.39581 0.13521 0.91363 0.0
C1039 C 0.3756 0.09323 0.88204 0.0
H1040 H 0.44291 0.16909 0.9643 0.0
C1041 C 0.39653 0.06006 0.87078 0.0
H1042 H 0.38044 0.16142 0.92295 0.0
C1043 C 0.43236 0.06475 0.89413 0.0
C1044 C 0.44817 0.10284 0.929 0.0
H1045 H 0.38236 0.02795 0.84604 0.0
H1046 H 0.44405 0.03546 0.88758 0.0
C1047 C 0.43198 0.13998 0.93702 0.0
C1048 C 0.87784 0.40608 0.86541 0.0
C1049 C 0.83419 0.36062 0.86802 0.0
H1050 H 0.94375 0.46089 0.89409 0.0
C1051 C 0.82013 0.33928 0.9054 0.0
H1052 H 0.88971 0.42291 0.83675 0.0
C1053 C 0.85209 0.3598 0.93762 0.0
C1054 C 0.89741 0.40323 0.93354 0.0
H1055 H 0.78686 0.30395 0.90794 0.0
H1056 H 0.8428 0.34 0.96438 0.0
C1057 C 0.90874 0.42771 0.89821 0.0
C1058 C 0.6553 0.80865 0.84986 0.0
C1059 C 0.70571 0.83543 0.8386 0.0
H1060 H 0.59221 0.80941 0.88631 0.0
C1061 C 0.73073 0.88702 0.85661 0.0
H1062 H 0.63441 0.76903 0.83688 0.0
C1063 C 0.70632 0.9105 0.88579 0.0
C1064 C 0.65592 0.88325 0.89746 0.0
H1065 H 0.76927 0.90942 0.84818 0.0
H1066 H 0.72701 0.94997 0.89922 0.0
C1067 C 0.63094 0.83204 0.87859 0.0
C1068 C 0.83169 0.63607 0.16818 0.0
C1069 C 0.85426 0.68915 0.18159 0.0
H1070 H 0.83898 0.57164 0.1324 0.0
C1071 C 0.90385 0.71769 0.16848 0.0
H1072 H 0.79357 0.61262 0.17748 0.0
C1073 C 0.93009 0.69397 0.143 0.0
C1074 C 0.90752 0.64094 0.12937 0.0
H1075 H 0.92271 0.75846 0.17823 0.0
H1076 H 0.96812 0.7175 0.13353 0.0
C1077 C 0.85779 0.61241 0.14222 0.0
C1078 C 0.39041 0.8295 0.14229 0.0
C1079 C 0.37072 0.84736 0.18 0.0
H1080 H 0.43219 0.84728 0.08323 0.0
C1081 C 0.38289 0.89929 0.18864 0.0
H1082 H 0.3809 0.78957 0.13435 0.0
C1083 C 0.41117 0.9318 0.15922 0.0
C1084 C 0.42917 0.91361 0.12088 0.0
H1085 H 0.36923 0.91464 0.21764 0.0
H1086 H 0.41727 0.97089 0.16569 0.0
C1087 C 0.41982 0.86251 0.11307 0.0
C1088 C 0.68622 0.12677 0.14723 0.0
C1089 C 0.70974 0.1802 0.15653 0.0
H1090 H 0.63901 0.06145 0.10693 0.0
C1091 C 0.71024 0.20886 0.12751 0.0
H1092 H 0.68544 0.10361 0.16884 0.0
C1093 C 0.6838 0.18477 0.09207 0.0
C1094 C 0.65644 0.1315 0.08482 0.0
H1095 H 0.72902 0.2501 0.13323 0.0
H1096 H 0.68188 0.208 0.07198 0.0
C1097 C 0.66004 0.10259 0.11146 0.0
C1098 C 0.72723 0.65023 0.87191 0.0
C1099 C 0.70117 0.66172 0.84817 0.0
H1100 H 0.72508 0.61485 0.92319 0.0
C1101 C 0.65053 0.64304 0.85814 0.0
H1102 H 0.76627 0.66396 0.86539 0.0
C1103 C 0.62665 0.61323 0.89033 0.0
C1104 C 0.65276 0.60329 0.91516 0.0
H1105 H 0.62907 0.65169 0.84136 0.0
H1106 H 0.58768 0.5983 0.89579 0.0
C1107 C 0.70349 0.62194 0.9052 0.0
C1108 C 0.44074 0.62058 0.85768 0.0
C1109 C 0.41937 0.57772 0.82703 0.0
H1110 H 0.48371 0.65325 0.91085 0.0
C1111 C 0.43486 0.54011 0.8209 0.0
H1112 H 0.4299 0.65043 0.86349 0.0
C1113 C 0.46476 0.5412 0.84879 0.0
C1114 C 0.48149 0.58107 0.88225 0.0
H1115 H 0.42072 0.50774 0.79653 0.0
H1116 H 0.4709 0.50851 0.84672 0.0
C1117 C 0.47208 0.62249 0.88476 0.0
C1118 C 0.38055 0.37644 0.87363 0.0
C1119 C 0.37306 0.32893 0.85106 0.0
H1120 H 0.41351 0.43411 0.92433 0.0
C1121 C 0.39295 0.30204 0.86477 0.0
H1122 H 0.3649 0.39772 0.86456 0.0
C1123 C 0.42123 0.32323 0.8995 0.0
C1124 C 0.42995 0.37161 0.92135 0.0
H1125 H 0.38744 0.26501 0.84827 0.0
H1126 H 0.43731 0.3023 0.90843 0.0
C1127 C 0.40833 0.39727 0.90834 0.0
C1128 C 0.73191 0.37645 0.94891 0.0
C1129 C 0.699 0.32883 0.96212 0.0
H1130 H 0.74055 0.45137 0.94975 0.0
C1131 C 0.67784 0.33012 1.00354 0.0
H1132 H 0.7547 0.37884 0.91989 0.0
C1133 C 0.67307 0.37323 0.02256 0.0
C1134 C 0.68998 0.41413 1.00009 0.0
H1135 H 0.65653 0.296 0.01795 0.0
H1136 H 0.6481 0.3704 0.05037 0.0
C1137 C 0.72491 0.41884 0.96638 0.0
C1138 C 0.61673 0.3945 0.16606 0.0
C1139 C 0.63624 0.43701 0.19743 0.0
H1140 H 0.57611 0.36183 0.11149 0.0
C1141 C 0.61961 0.47368 0.2031 0.0
H1142 H 0.6285 0.36538 0.16054 0.0
C1143 C 0.59037 0.47207 0.1743 0.0
C1144 C 0.57577 0.43281 0.14017 0.0
H1145 H 0.63232 0.5058 0.22788 0.0
H1146 H 0.58328 0.50411 0.1762 0.0
C1147 C 0.58619 0.39214 0.13798 0.0
C1148 C 0.66921 0.71652 0.15615 0.0
C1149 C 0.68845 0.68979 0.17103 0.0
H1150 H 0.62565 0.71557 0.11137 0.0
C1151 C 0.68037 0.64164 0.14956 0.0
H1152 H 0.67508 0.75396 0.17182 0.0
C1153 C 0.65262 0.62004 0.11484 0.0
C1154 C 0.63189 0.64572 0.10053 0.0
H1155 H 0.69547 0.6204 0.15954 0.0
H1156 H 0.64677 0.58261 0.0999 0.0
C1157 C 0.64117 0.69469 0.12126 0.0
C1158 C 0.36709 0.64 0.10972 0.0
C1159 C 0.39761 0.68992 0.09996 0.0
H1160 H 0.33816 0.5608 0.08691 0.0
C1161 C 0.40498 0.69753 0.05795 0.0
H1162 H 0.35918 0.6317 0.14155 0.0
C1163 C 0.39152 0.65534 0.02647 0.0
C1164 C 0.37512 0.60692 0.03763 0.0
H1165 H 0.42569 0.73543 0.04936 0.0
H1166 H 0.40516 0.66194 0.99442 0.0
C1167 C 0.35376 0.59845 0.07803 0.0
C1168 C 0.33223 0.36851 0.15352 0.0
C1169 C 0.35699 0.3553 0.17718 0.0
H1170 H 0.3361 0.40516 0.10249 0.0
C1171 C 0.40739 0.37188 0.16679 0.0
H1172 H 0.29346 0.35646 0.16027 0.0
C1173 C 0.43217 0.40091 0.13404 0.0
C1174 C 0.40727 0.41301 0.10963 0.0
H1175 H 0.42783 0.36187 0.1835 0.0
H1176 H 0.47081 0.41332 0.12767 0.0
C1177 C 0.35685 0.39655 0.12015 0.0
C1178 C 0.82305 0.63161 0.66914 0.0
C1179 C 0.84809 0.68361 0.68614 0.0
H1180 H 0.82641 0.56777 0.62767 0.0
C1181 C 0.89814 0.71042 0.67359 0.0
H1182 H 0.78474 0.6092 0.67834 0.0
C1183 C 0.92228 0.68644 0.6452 0.0
C1184 C 0.89732 0.63466 0.62764 0.0
H1185 H 0.91891 0.75048 0.68534 0.0
H1186 H 0.9608 0.70905 0.63667 0.0
C1187 C 0.84715 0.6076 0.64015 0.0
C1188 C 0.38484 0.83037 0.63966 0.0
C1189 C 0.37074 0.8507 0.67922 0.0
H1190 H 0.42133 0.84447 0.57831 0.0
C1191 C 0.38407 0.90294 0.68686 0.0
H1192 H 0.37337 0.79008 0.63191 0.0
C1193 C 0.40977 0.93358 0.6555 0.0
C1194 C 0.42392 0.9131 0.6162 0.0
H1195 H 0.3735 0.91999 0.71665 0.0
H1196 H 0.41778 0.97327 0.66166 0.0
C1197 C 0.41206 0.86142 0.60875 0.0
C1198 C 0.15832 0.45417 0.65417 0.0
C1199 C 0.18003 0.42177 0.64198 0.0
H1200 H 0.10942 0.47789 0.63879 0.0
C1201 C 0.15996 0.38005 0.61017 0.0
H1202 H 0.17251 0.48614 0.67902 0.0
C1203 C 0.12309 0.37491 0.58743 0.0
C1204 C 0.10586 0.41128 0.59648 0.0
H1205 H 0.17594 0.35443 0.60016 0.0
H1206 H 0.11214 0.34606 0.55999 0.0
C1207 C 0.1217 0.44905 0.63155 0.0
C1208 C 0.69831 0.11386 0.64792 0.0
C1209 C 0.72787 0.1669 0.65352 0.0
H1210 H 0.64145 0.04979 0.61361 0.0
C1211 C 0.72949 0.19467 0.62326 0.0
H1212 H 0.69556 0.0918 0.67134 0.0
C1213 C 0.6981 0.17106 0.59085 0.0
C1214 C 0.6646 0.11896 0.5877 0.0
H1215 H 0.75131 0.23576 0.62731 0.0
H1216 H 0.69697 0.19452 0.57053 0.0
C1217 C 0.66716 0.0899 0.61492 0.0
C1218 C 0.86744 0.38817 0.37809 0.0
C1219 C 0.84534 0.33482 0.36771 0.0
H1220 H 0.91272 0.45325 0.41987 0.0
C1221 C 0.84562 0.3059 0.3961 0.0
H1222 H 0.86774 0.41158 0.35697 0.0
C1223 C 0.87059 0.32962 0.4323 0.0
C1224 C 0.89647 0.38292 0.44081 0.0
H1225 H 0.82871 0.26481 0.3894 0.0
H1226 H 0.87282 0.30614 0.45196 0.0
C1227 C 0.89266 0.41205 0.41448 0.0
C1228 C 0.73122 0.88564 0.35481 0.0
C1229 C 0.70817 0.83295 0.33977 0.0
H1230 H 0.72392 0.94969 0.39157 0.0
C1231 C 0.65792 0.80477 0.35071 0.0
H1232 H 0.7699 0.90872 0.34717 0.0
C1233 C 0.63145 0.82847 0.37563 0.0
C1234 C 0.65443 0.88108 0.39091 0.0
H1235 H 0.63873 0.76432 0.33963 0.0
H1236 H 0.59286 0.80518 0.38344 0.0
C1237 C 0.70484 0.90926 0.38033 0.0
C1238 C 0.16746 0.61449 0.33703 0.0
C1239 C 0.18178 0.66691 0.34627 0.0
H1240 H 0.13131 0.54248 0.35957 0.0
C1241 C 0.16415 0.6855 0.38484 0.0
H1242 H 0.17954 0.59863 0.3074 0.0
C1243 C 0.13454 0.65268 0.41415 0.0
C1244 C 0.12287 0.6009 0.40564 0.0
H1245 H 0.17536 0.7258 0.3933 0.0
H1246 H 0.12378 0.66842 0.44453 0.0
C1247 C 0.13902 0.58208 0.36658 0.0
C1248 C 0.43507 0.12064 0.37636 0.0
C1249 C 0.4467 0.17242 0.38226 0.0
H1250 H 0.43801 0.06137 0.4001 0.0
C1251 C 0.46804 0.20381 0.41912 0.0
H1252 H 0.41752 0.09525 0.34883 0.0
C1253 C 0.48011 0.18444 0.44825 0.0
C1254 C 0.47106 0.13347 0.44097 0.0
H1255 H 0.47742 0.24384 0.42458 0.0
H1256 H 0.49695 0.2094 0.4762 0.0
C1257 C 0.44689 0.10129 0.40558 0.0
C1258 C 0.56176 0.77309 0.5696 0.0
C1259 C 0.58448 0.79093 0.60738 0.0
H1260 H 0.53846 0.79072 0.52028 0.0
C1261 C 0.60772 0.84375 0.62147 0.0
H1262 H 0.54485 0.73284 0.5573 0.0
C1263 C 0.60426 0.87746 0.59991 0.0
C1264 C 0.57687 0.85846 0.56452 0.0
H1265 H 0.62592 0.85857 0.65034 0.0
H1266 H 0.62082 0.91774 0.61201 0.0
C1267 C 0.55771 0.80632 0.54863 0.0
C1268 C 0.6379 0.13467 0.34743 0.0
C1269 C 0.68869 0.1664 0.34539 0.0
H1270 H 0.57488 0.08293 0.38207 0.0
C1271 C 0.71531 0.16985 0.3774 0.0
H1272 H 0.61688 0.13018 0.32241 0.0
C1273 C 0.69187 0.14185 0.41067 0.0
C1274 C 0.64092 0.11043 0.41324 0.0
H1275 H 0.75448 0.19346 0.37624 0.0
H1276 H 0.71383 0.14437 0.43428 0.0
C1277 C 0.61397 0.10766 0.38152 0.0
C1278 C 0.89845 0.63866 0.41445 0.0
C1279 C 0.87773 0.59697 0.38278 0.0
H1280 H 0.94593 0.67154 0.46479 0.0
C1281 C 0.8982 0.56345 0.37082 0.0
H1282 H 0.88337 0.66509 0.42424 0.0
C1283 C 0.93412 0.56745 0.39366 0.0
C1284 C 0.95039 0.60518 0.42869 0.0
H1285 H 0.88338 0.53143 0.34611 0.0
H1286 H 0.94532 0.53778 0.38672 0.0
C1287 C 0.93458 0.64266 0.4374 0.0
C1288 C 0.37817 0.90416 0.36063 0.0
C1289 C 0.33302 0.86112 0.36635 0.0
H1290 H 0.44637 0.95826 0.38608 0.0
C1291 C 0.31824 0.84539 0.40618 0.0
H1292 H 0.39049 0.91676 0.33014 0.0
C1293 C 0.35127 0.86775 0.43771 0.0
C1294 C 0.39824 0.90782 0.43043 0.0
H1295 H 0.28388 0.81179 0.41111 0.0
H1296 H 0.34157 0.85123 0.46638 0.0
C1297 C 0.41017 0.92779 0.39262 0.0
C1298 C 0.22954 0.3867 0.35483 0.0
C1299 C 0.20487 0.33468 0.33772 0.0
H1300 H 0.22568 0.45015 0.39662 0.0
C1301 C 0.15483 0.30756 0.35024 0.0
H1302 H 0.26786 0.40933 0.34572 0.0
C1303 C 0.13043 0.33117 0.37882 0.0
C1304 C 0.15504 0.38291 0.39661 0.0
H1305 H 0.13433 0.26747 0.33847 0.0
H1306 H 0.09198 0.30823 0.38739 0.0
C1307 C 0.20516 0.41035 0.38398 0.0
C1308 C 0.33124 0.13569 0.66765 0.0
C1309 C 0.35407 0.1887 0.68135 0.0
H1310 H 0.33822 0.0712 0.63171 0.0
C1311 C 0.40381 0.21706 0.66866 0.0
H1312 H 0.29299 0.11238 0.67667 0.0
C1313 C 0.42993 0.19321 0.64321 0.0
C1314 C 0.40708 0.14026 0.62926 0.0
H1315 H 0.42287 0.25775 0.67872 0.0
H1316 H 0.4681 0.2166 0.63403 0.0
C1317 C 0.35723 0.11191 0.64178 0.0
C1318 C 0.86888 0.40014 0.6885 0.0
C1319 C 0.86132 0.34975 0.68302 0.0
H1320 H 0.90168 0.47029 0.66339 0.0
C1321 C 0.88633 0.33347 0.64823 0.0
H1322 H 0.85091 0.4144 0.71492 0.0
C1323 C 0.91721 0.36634 0.61925 0.0
C1324 C 0.92275 0.4159 0.62397 0.0
H1325 H 0.88024 0.29457 0.64228 0.0
H1326 H 0.93394 0.3519 0.59177 0.0
C1327 C 0.89876 0.43252 0.65925 0.0
C1328 C 0.1849 0.62735 0.64836 0.0
C1329 C 0.20955 0.68082 0.65688 0.0
H1330 H 0.13683 0.56193 0.6087 0.0
C1331 C 0.21057 0.70923 0.62742 0.0
H1332 H 0.18344 0.60437 0.67043 0.0
C1333 C 0.18383 0.68496 0.59215 0.0
C1334 C 0.15573 0.63175 0.58549 0.0
H1335 H 0.2301 0.75047 0.63262 0.0
H1336 H 0.18237 0.70806 0.57166 0.0
C1337 C 0.15856 0.60298 0.61271 0.0
loop_
_geom_bond_atom_site_label_1
_geom_bond_atom_site_label_2
_geom_bond_distance
_geom_bond_site_symmetry_2
_ccdc_geom_bond_type
C0 C2 1.422 . S
C0 C4 1.415 . S
C0 N6 1.369 . S
C1 C2 1.421 . S
C1 C3 1.417 . S
C1 C13 1.422 . S
C2 C0 1.422 . S
C2 C1 1.421 . S
C2 N12 1.359 . S
C3 C1 1.417 . S
C3 C5 1.329 . S
C3 H22 0.930 . S
C4 C0 1.415 . S
C4 C5 1.437 . S
C4 C8 1.413 . S
C5 C3 1.329 . S
C5 C4 1.437 . S
C5 H27 0.929 . S
N6 C0 1.369 . S
N6 C7 1.338 . S
N6 Gd11 2.622 . S
C7 N6 1.338 . S
C7 C9 1.378 . S
C7 H19 0.929 . S
C8 C4 1.413 . S
C8 C9 1.348 . S
C8 H24 0.931 . S
C9 C7 1.378 . S
C9 C8 1.348 . S
C9 H25 0.930 . S
Gd10 N30 2.622 . S
Gd10 N37 2.570 . S
Gd10 O44 2.353 . S
Gd10 O45 2.468 . S
Gd10 O46 2.427 . S
Gd10 O48 2.388 . S
Gd10 O49 2.386 . S
Gd10 O53 2.307 . S
Gd10 C63 2.805 . S
Gd11 N6 2.622 . S
Gd11 N12 2.570 . S
Gd11 O43 2.386 . S
Gd11 O47 2.307 . S
Gd11 O50 2.353 . S
Gd11 O51 2.468 . S
Gd11 O52 2.427 . S
Gd11 O54 2.388 . S
Gd11 C75 2.805 . S
N12 C2 1.359 . S
N12 Gd11 2.570 . S
N12 C14 1.343 . S
C13 C1 1.422 . S
C13 C15 1.321 . S
C13 H21 0.931 . S
C14 N12 1.343 . S
C14 C15 1.390 . S
C14 H16 0.931 . S
C15 C13 1.321 . S
C15 C14 1.390 . S
C15 H17 0.930 . S
H16 C14 0.931 . S
H17 C15 0.930 . S
H18 C41 0.931 . S
H19 C7 0.929 . S
H20 C42 0.930 . S
H21 C13 0.931 . S
H22 C3 0.930 . S
H23 C32 0.929 . S
H24 C8 0.931 . S
H25 C9 0.930 . S
H26 C64 0.930 . S
H27 C5 0.929 . S
H28 C33 0.931 1_565 S
H29 C34 0.930 . S
N30 Gd10 2.622 . S
N30 C31 1.369 . S
N30 C32 1.338 . S
C31 N30 1.369 . S
C31 C35 1.415 . S
C31 C38 1.422 . S
C32 H23 0.929 . S
C32 N30 1.338 . S
C32 C34 1.378 . S
C33 H28 0.931 1_545 S
C33 C34 1.348 . S
C33 C35 1.413 . S
C34 H29 0.930 . S
C34 C32 1.378 . S
C34 C33 1.348 . S
C35 C31 1.415 . S
C35 C33 1.413 . S
C35 C65 1.437 . S
H36 C65 0.929 . S
N37 Gd10 2.570 . S
N37 C38 1.359 . S
N37 C41 1.343 . S
C38 C31 1.422 . S
C38 N37 1.359 . S
C38 C40 1.421 . S
C39 C40 1.422 . S
C39 C42 1.321 . S
C39 H66 0.931 . S
C40 C38 1.421 . S
C40 C39 1.422 . S
C40 C64 1.417 . S
C41 H18 0.931 . S
C41 N37 1.343 . S
C41 C42 1.390 . S
C42 H20 0.930 . S
C42 C39 1.321 . S
C42 C41 1.390 . S
O43 Gd11 2.386 . S
O43 C55 1.265 . S
O44 Gd10 2.353 . S
O44 C55 1.242 . S
O45 Gd10 2.468 . S
O45 C63 1.263 . S
O46 Gd10 2.427 . S
O46 C63 1.252 . S
O47 Gd11 2.307 . S
O47 C56 1.261 . S
O48 Gd10 2.388 . S
O48 C56 1.252 . S
O49 Gd10 2.386 . S
O49 C67 1.265 . S
O50 Gd11 2.353 . S
O50 C67 1.242 . S
O51 Gd11 2.468 . S
O51 C75 1.263 . S
O52 Gd11 2.427 . S
O52 C75 1.252 . S
O53 Gd10 2.307 . S
O53 C68 1.261 . S
O54 Gd11 2.388 . S
O54 C68 1.252 . S
C55 O43 1.265 . S
C55 O44 1.242 . S
C56 O47 1.261 . S
C56 O48 1.252 . S
C57 C60 1.394 . S
C57 C62 1.370 . S
C57 C63 1.500 . S
C58 C61 1.383 . S
C58 C62 1.395 . S
C59 C60 1.396 . S
C59 C61 1.365 . S
C59 H76 0.929 1_455 S
C60 C57 1.394 . S
C60 C59 1.396 . S
C60 H77 0.930 . S
C61 C58 1.383 . S
C61 C59 1.365 . S
C61 H78 0.931 . S
C62 C57 1.370 . S
C62 C58 1.395 . S
C62 H79 0.930 . S
C63 Gd10 2.805 . S
C63 O45 1.263 . S
C63 O46 1.252 . S
C63 C57 1.500 . S
C64 H26 0.930 . S
C64 C40 1.417 . S
C64 C65 1.329 . S
C65 C35 1.437 . S
C65 H36 0.929 . S
C65 C64 1.329 . S
H66 C39 0.931 . S
C67 O49 1.265 . S
C67 O50 1.242 . S
C68 O53 1.261 . S
C68 O54 1.252 . S
C69 C72 1.394 . S
C69 C74 1.370 . S
C69 C75 1.500 . S
C70 C73 1.383 . S
C70 C74 1.395 . S
C71 C72 1.396 . S
C71 C73 1.365 . S
C71 H80 0.929 . S
C72 C69 1.394 . S
C72 C71 1.396 . S
C72 H81 0.930 . S
C73 C70 1.383 . S
C73 C71 1.365 . S
C73 H82 0.931 . S
C74 C69 1.370 . S
C74 C70 1.395 . S
C74 H83 0.930 . S
C75 Gd11 2.805 . S
C75 O51 1.263 . S
C75 O52 1.252 . S
C75 C69 1.500 . S
H76 C59 0.929 1_655 S
H77 C60 0.930 . S
H78 C61 0.931 . S
H79 C62 0.930 . S
H80 C71 0.929 . S
H81 C72 0.930 . S
H82 C73 0.931 . S
H83 C74 0.930 . S
C84 C86 1.422 . S
C84 C88 1.415 . S
C84 N90 1.369 . S
C85 C86 1.421 . S
C85 C87 1.417 . S
C85 C97 1.422 . S
C86 C84 1.422 . S
C86 C85 1.421 . S
C86 N96 1.359 . S
C87 C85 1.417 . S
C87 C89 1.329 . S
C87 H106 0.930 . S
C88 C84 1.415 . S
C88 C89 1.437 . S
C88 C92 1.413 . S
C89 C87 1.329 . S
C89 C88 1.437 . S
C89 H111 0.929 . S
N90 C84 1.369 . S
N90 C91 1.338 . S
N90 Gd95 2.622 . S
C91 N90 1.338 . S
C91 C93 1.378 . S
C91 H103 0.929 . S
C92 C88 1.413 . S
C92 C93 1.348 . S
C92 H108 0.931 . S
C93 C91 1.378 . S
C93 C92 1.348 . S
C93 H109 0.930 . S
Gd94 N114 2.622 . S
Gd94 N121 2.570 . S
Gd94 O128 2.353 . S
Gd94 O129 2.468 . S
Gd94 O130 2.427 . S
Gd94 O132 2.388 . S
Gd94 O133 2.386 . S
Gd94 O137 2.307 . S
Gd94 C147 2.805 . S
Gd95 N90 2.622 . S
Gd95 N96 2.570 . S
Gd95 O127 2.386 . S
Gd95 O131 2.307 . S
Gd95 O134 2.353 . S
Gd95 O135 2.468 . S
Gd95 O136 2.427 . S
Gd95 O138 2.388 . S
Gd95 C159 2.805 . S
N96 C86 1.359 . S
N96 Gd95 2.570 . S
N96 C98 1.343 . S
C97 C85 1.422 . S
C97 C99 1.321 . S
C97 H105 0.931 1_655 S
C98 N96 1.343 . S
C98 C99 1.390 . S
C98 H100 0.931 . S
C99 C97 1.321 . S
C99 C98 1.390 . S
C99 H101 0.930 . S
H100 C98 0.931 . S
H101 C99 0.930 . S
H102 C125 0.931 . S
H103 C91 0.929 . S
H104 C126 0.930 . S
H105 C97 0.931 1_455 S
H106 C87 0.930 . S
H107 C116 0.929 . S
H108 C92 0.931 . S
H109 C93 0.930 . S
H110 C148 0.930 . S
H111 C89 0.929 . S
H112 C117 0.931 . S
H113 C118 0.930 . S
N114 Gd94 2.622 . S
N114 C115 1.369 . S
N114 C116 1.338 . S
C115 N114 1.369 . S
C115 C119 1.415 . S
C115 C122 1.422 . S
C116 H107 0.929 . S
C116 N114 1.338 . S
C116 C118 1.378 . S
C117 H112 0.931 . S
C117 C118 1.348 . S
C117 C119 1.413 . S
C118 H113 0.930 . S
C118 C116 1.378 . S
C118 C117 1.348 . S
C119 C115 1.415 . S
C119 C117 1.413 . S
C119 C149 1.437 . S
H120 C149 0.929 . S
N121 Gd94 2.570 . S
N121 C122 1.359 . S
N121 C125 1.343 . S
C122 C115 1.422 . S
C122 N121 1.359 . S
C122 C124 1.421 . S
C123 C124 1.422 . S
C123 C126 1.321 . S
C123 H150 0.931 . S
C124 C122 1.421 . S
C124 C123 1.422 . S
C124 C148 1.417 . S
C125 H102 0.931 . S
C125 N121 1.343 . S
C125 C126 1.390 . S
C126 H104 0.930 . S
C126 C123 1.321 . S
C126 C125 1.390 . S
O127 Gd95 2.386 . S
O127 C139 1.265 . S
O128 Gd94 2.353 . S
O128 C139 1.242 . S
O129 Gd94 2.468 . S
O129 C147 1.263 . S
O130 Gd94 2.427 . S
O130 C147 1.252 . S
O131 Gd95 2.307 . S
O131 C140 1.261 . S
O132 Gd94 2.388 . S
O132 C140 1.252 . S
O133 Gd94 2.386 . S
O133 C151 1.265 . S
O134 Gd95 2.353 . S
O134 C151 1.242 . S
O135 Gd95 2.468 . S
O135 C159 1.263 . S
O136 Gd95 2.427 . S
O136 C159 1.252 . S
O137 Gd94 2.307 . S
O137 C152 1.261 . S
O138 Gd95 2.388 . S
O138 C152 1.252 . S
C139 O127 1.265 . S
C139 O128 1.242 . S
C140 O131 1.261 . S
C140 O132 1.252 . S
C141 C144 1.394 . S
C141 C146 1.370 . S
C141 C147 1.500 . S
C142 C145 1.383 . S
C142 C146 1.395 . S
C143 C144 1.396 . S
C143 C145 1.365 . S
C143 H160 0.929 . S
C144 C141 1.394 . S
C144 C143 1.396 . S
C144 H161 0.930 . S
C145 C142 1.383 . S
C145 C143 1.365 . S
C145 H162 0.931 . S
C146 C141 1.370 . S
C146 C142 1.395 . S
C146 H163 0.930 . S
C147 Gd94 2.805 . S
C147 O129 1.263 . S
C147 O130 1.252 . S
C147 C141 1.500 . S
C148 H110 0.930 . S
C148 C124 1.417 . S
C148 C149 1.329 . S
C149 C119 1.437 . S
C149 H120 0.929 . S
C149 C148 1.329 . S
H150 C123 0.931 . S
C151 O133 1.265 . S
C151 O134 1.242 . S
C152 O137 1.261 . S
C152 O138 1.252 . S
C153 C156 1.394 . S
C153 C158 1.370 . S
C153 C159 1.500 . S
C154 C157 1.383 . S
C154 C158 1.395 . S
C155 C156 1.396 . S
C155 C157 1.365 . S
C155 H164 0.929 . S
C156 C153 1.394 . S
C156 C155 1.396 . S
C156 H165 0.930 . S
C157 C154 1.383 . S
C157 C155 1.365 . S
C157 H166 0.931 . S
C158 C153 1.370 . S
C158 C154 1.395 . S
C158 H167 0.930 . S
C159 Gd95 2.805 . S
C159 O135 1.263 . S
C159 O136 1.252 . S
C159 C153 1.500 . S
H160 C143 0.929 . S
H161 C144 0.930 . S
H162 C145 0.931 . S
H163 C146 0.930 . S
H164 C155 0.929 . S
H165 C156 0.930 . S
H166 C157 0.931 . S
H167 C158 0.930 . S
C168 C170 1.422 . S
C168 C172 1.415 . S
C168 N174 1.369 . S
C169 C170 1.421 . S
C169 C171 1.417 . S
C169 C181 1.422 . S
C170 C168 1.422 . S
C170 C169 1.421 . S
C170 N180 1.359 . S
C171 C169 1.417 . S
C171 C173 1.329 . S
C171 H190 0.930 . S
C172 C168 1.415 . S
C172 C173 1.437 . S
C172 C176 1.413 . S
C173 C171 1.329 . S
C173 C172 1.437 . S
C173 H195 0.929 . S
N174 C168 1.369 . S
N174 C175 1.338 . S
N174 Gd179 2.622 . S
C175 N174 1.338 . S
C175 C177 1.378 . S
C175 H187 0.929 . S
C176 C172 1.413 . S
C176 C177 1.348 . S
C176 H192 0.931 . S
C177 C175 1.378 . S
C177 C176 1.348 . S
C177 H193 0.930 . S
Gd178 N198 2.622 . S
Gd178 N205 2.570 . S
Gd178 O212 2.353 . S
Gd178 O213 2.468 . S
Gd178 O214 2.427 . S
Gd178 O216 2.388 . S
Gd178 O217 2.386 . S
Gd178 O221 2.307 . S
Gd178 C231 2.805 . S
Gd179 N174 2.622 . S
Gd179 N180 2.570 . S
Gd179 O211 2.386 . S
Gd179 O215 2.307 . S
Gd179 O218 2.353 . S
Gd179 O219 2.468 . S
Gd179 O220 2.427 . S
Gd179 O222 2.388 . S
Gd179 C243 2.805 . S
N180 C170 1.359 . S
N180 Gd179 2.570 . S
N180 C182 1.343 . S
C181 C169 1.422 . S
C181 C183 1.321 . S
C181 H189 0.931 . S
C182 N180 1.343 . S
C182 C183 1.390 . S
C182 H184 0.931 . S
C183 C181 1.321 . S
C183 C182 1.390 . S
C183 H185 0.930 . S
H184 C182 0.931 . S
H185 C183 0.930 . S
H186 C209 0.931 . S
H187 C175 0.929 . S
H188 C210 0.930 . S
H189 C181 0.931 . S
H190 C171 0.930 . S
H191 C200 0.929 . S
H192 C176 0.931 . S
H193 C177 0.930 . S
H194 C232 0.930 . S
H195 C173 0.929 . S
H196 C201 0.931 . S
H197 C202 0.930 . S
N198 Gd178 2.622 . S
N198 C199 1.369 . S
N198 C200 1.338 . S
C199 N198 1.369 . S
C199 C203 1.415 . S
C199 C206 1.422 . S
C200 H191 0.929 . S
C200 N198 1.338 . S
C200 C202 1.378 . S
C201 H196 0.931 . S
C201 C202 1.348 . S
C201 C203 1.413 . S
C202 H197 0.930 . S
C202 C200 1.378 . S
C202 C201 1.348 . S
C203 C199 1.415 . S
C203 C201 1.413 . S
C203 C233 1.437 . S
H204 C233 0.929 . S
N205 Gd178 2.570 . S
N205 C206 1.359 . S
N205 C209 1.343 . S
C206 C199 1.422 . S
C206 N205 1.359 . S
C206 C208 1.421 . S
C207 C208 1.422 . S
C207 C210 1.321 . S
C207 H234 0.931 . S
C208 C206 1.421 . S
C208 C207 1.422 . S
C208 C232 1.417 . S
C209 H186 0.931 . S
C209 N205 1.343 . S
C209 C210 1.390 . S
C210 H188 0.930 . S
C210 C207 1.321 . S
C210 C209 1.390 . S
O211 Gd179 2.386 . S
O211 C223 1.265 . S
O212 Gd178 2.353 . S
O212 C223 1.242 . S
O213 Gd178 2.468 . S
O213 C231 1.263 . S
O214 Gd178 2.427 . S
O214 C231 1.252 . S
O215 Gd179 2.307 . S
O215 C224 1.261 . S
O216 Gd178 2.388 . S
O216 C224 1.252 . S
O217 Gd178 2.386 . S
O217 C235 1.265 . S
O218 Gd179 2.353 . S
O218 C235 1.242 . S
O219 Gd179 2.468 . S
O219 C243 1.263 . S
O220 Gd179 2.427 . S
O220 C243 1.252 . S
O221 Gd178 2.307 . S
O221 C236 1.261 . S
O222 Gd179 2.388 . S
O222 C236 1.252 . S
C223 O211 1.265 . S
C223 O212 1.242 . S
C224 O215 1.261 . S
C224 O216 1.252 . S
C225 C228 1.394 . S
C225 C230 1.370 . S
C225 C231 1.500 . S
C226 C229 1.383 . S
C226 C230 1.395 . S
C227 C228 1.396 . S
C227 C229 1.365 . S
C227 H244 0.929 . S
C228 C225 1.394 . S
C228 C227 1.396 . S
C228 H245 0.930 . S
C229 C226 1.383 . S
C229 C227 1.365 . S
C229 H246 0.931 . S
C230 C225 1.370 . S
C230 C226 1.395 . S
C230 H247 0.930 . S
C231 Gd178 2.805 . S
C231 O213 1.263 . S
C231 O214 1.252 . S
C231 C225 1.500 . S
C232 H194 0.930 . S
C232 C208 1.417 . S
C232 C233 1.329 . S
C233 C203 1.437 . S
C233 H204 0.929 . S
C233 C232 1.329 . S
H234 C207 0.931 . S
C235 O217 1.265 . S
C235 O218 1.242 . S
C236 O221 1.261 . S
C236 O222 1.252 . S
C237 C240 1.394 . S
C237 C242 1.370 . S
C237 C243 1.500 . S
C238 C241 1.383 . S
C238 C242 1.395 . S
C239 C240 1.396 . S
C239 C241 1.365 . S
C239 H248 0.929 1_565 S
C240 C237 1.394 . S
C240 C239 1.396 . S
C240 H249 0.930 . S
C241 C238 1.383 . S
C241 C239 1.365 . S
C241 H250 0.931 . S
C242 C237 1.370 . S
C242 C238 1.395 . S
C242 H251 0.930 . S
C243 Gd179 2.805 . S
C243 O219 1.263 . S
C243 O220 1.252 . S
C243 C237 1.500 . S
H244 C227 0.929 . S
H245 C228 0.930 . S
H246 C229 0.931 . S
H247 C230 0.930 . S
H248 C239 0.929 1_545 S
H249 C240 0.930 . S
H250 C241 0.931 . S
H251 C242 0.930 . S
C252 C254 1.422 . S
C252 C256 1.415 . S
C252 N258 1.369 . S
C253 C254 1.421 . S
C253 C255 1.417 . S
C253 C265 1.422 . S
C254 C252 1.422 . S
C254 C253 1.421 . S
C254 N264 1.359 . S
C255 C253 1.417 . S
C255 C257 1.329 . S
C255 H274 0.930 . S
C256 C252 1.415 . S
C256 C257 1.437 . S
C256 C260 1.413 . S
C257 C255 1.329 . S
C257 C256 1.437 . S
C257 H279 0.929 . S
N258 C252 1.369 . S
N258 C259 1.338 . S
N258 Gd263 2.622 . S
C259 N258 1.338 . S
C259 C261 1.378 . S
C259 H271 0.929 . S
C260 C256 1.413 . S
C260 C261 1.348 . S
C260 H276 0.931 . S
C261 C259 1.378 . S
C261 C260 1.348 . S
C261 H277 0.930 . S
Gd262 N282 2.622 . S
Gd262 N289 2.570 . S
Gd262 O296 2.353 . S
Gd262 O297 2.468 . S
Gd262 O298 2.427 . S
Gd262 O300 2.388 . S
Gd262 O301 2.386 . S
Gd262 O305 2.307 . S
Gd262 C315 2.805 . S
Gd263 N258 2.622 . S
Gd263 N264 2.570 . S
Gd263 O295 2.386 . S
Gd263 O299 2.307 . S
Gd263 O302 2.353 . S
Gd263 O303 2.468 . S
Gd263 O304 2.427 . S
Gd263 O306 2.388 . S
Gd263 C327 2.805 . S
N264 C254 1.359 . S
N264 Gd263 2.570 . S
N264 C266 1.343 . S
C265 C253 1.422 . S
C265 C267 1.321 . S
C265 H273 0.931 . S
C266 N264 1.343 . S
C266 C267 1.390 . S
C266 H268 0.931 . S
C267 C265 1.321 . S
C267 C266 1.390 . S
C267 H269 0.930 . S
H268 C266 0.931 . S
H269 C267 0.930 . S
H270 C293 0.931 . S
H271 C259 0.929 . S
H272 C294 0.930 . S
H273 C265 0.931 . S
H274 C255 0.930 . S
H275 C284 0.929 . S
H276 C260 0.931 . S
H277 C261 0.930 . S
H278 C316 0.930 . S
H279 C257 0.929 . S
H280 C285 0.931 . S
H281 C286 0.930 . S
N282 Gd262 2.622 . S
N282 C283 1.369 . S
N282 C284 1.338 . S
C283 N282 1.369 . S
C283 C287 1.415 . S
C283 C290 1.422 . S
C284 H275 0.929 . S
C284 N282 1.338 . S
C284 C286 1.378 . S
C285 H280 0.931 . S
C285 C286 1.348 . S
C285 C287 1.413 . S
C286 H281 0.930 . S
C286 C284 1.378 . S
C286 C285 1.348 . S
C287 C283 1.415 . S
C287 C285 1.413 . S
C287 C317 1.437 . S
H288 C317 0.929 . S
N289 Gd262 2.570 . S
N289 C290 1.359 . S
N289 C293 1.343 . S
C290 C283 1.422 . S
C290 N289 1.359 . S
C290 C292 1.421 . S
C291 C292 1.422 . S
C291 C294 1.321 . S
C291 H318 0.931 1_565 S
C292 C290 1.421 . S
C292 C291 1.422 . S
C292 C316 1.417 . S
C293 H270 0.931 . S
C293 N289 1.343 . S
C293 C294 1.390 . S
C294 H272 0.930 . S
C294 C291 1.321 . S
C294 C293 1.390 . S
O295 Gd263 2.386 . S
O295 C307 1.265 . S
O296 Gd262 2.353 . S
O296 C307 1.242 . S
O297 Gd262 2.468 . S
O297 C315 1.263 . S
O298 Gd262 2.427 . S
O298 C315 1.252 . S
O299 Gd263 2.307 . S
O299 C308 1.261 . S
O300 Gd262 2.388 . S
O300 C308 1.252 . S
O301 Gd262 2.386 . S
O301 C319 1.265 . S
O302 Gd263 2.353 . S
O302 C319 1.242 . S
O303 Gd263 2.468 . S
O303 C327 1.263 . S
O304 Gd263 2.427 . S
O304 C327 1.252 . S
O305 Gd262 2.307 . S
O305 C320 1.261 . S
O306 Gd263 2.388 . S
O306 C320 1.252 . S
C307 O295 1.265 . S
C307 O296 1.242 . S
C308 O299 1.261 . S
C308 O300 1.252 . S
C309 C312 1.394 . S
C309 C314 1.370 . S
C309 C315 1.500 . S
C310 C313 1.383 . S
C310 C314 1.395 . S
C311 C312 1.396 . S
C311 C313 1.365 . S
C311 H328 0.929 . S
C312 C309 1.394 . S
C312 C311 1.396 . S
C312 H329 0.930 . S
C313 C310 1.383 . S
C313 C311 1.365 . S
C313 H330 0.931 . S
C314 C309 1.370 . S
C314 C310 1.395 . S
C314 H331 0.930 . S
C315 Gd262 2.805 . S
C315 O297 1.263 . S
C315 O298 1.252 . S
C315 C309 1.500 . S
C316 H278 0.930 . S
C316 C292 1.417 . S
C316 C317 1.329 . S
C317 C287 1.437 . S
C317 H288 0.929 . S
C317 C316 1.329 . S
H318 C291 0.931 1_545 S
C319 O301 1.265 . S
C319 O302 1.242 . S
C320 O305 1.261 . S
C320 O306 1.252 . S
C321 C324 1.394 . S
C321 C326 1.370 . S
C321 C327 1.500 . S
C322 C325 1.383 . S
C322 C326 1.395 . S
C323 C324 1.396 . S
C323 C325 1.365 . S
C323 H332 0.929 . S
C324 C321 1.394 . S
C324 C323 1.396 . S
C324 H333 0.930 . S
C325 C322 1.383 . S
C325 C323 1.365 . S
C325 H334 0.931 . S
C326 C321 1.370 . S
C326 C322 1.395 . S
C326 H335 0.930 . S
C327 Gd263 2.805 . S
C327 O303 1.263 . S
C327 O304 1.252 . S
C327 C321 1.500 . S
H328 C311 0.929 . S
H329 C312 0.930 . S
H330 C313 0.931 . S
H331 C314 0.930 . S
H332 C323 0.929 . S
H333 C324 0.930 . S
H334 C325 0.931 . S
H335 C326 0.930 . S
C336 C338 1.422 . S
C336 C340 1.415 . S
C336 N342 1.369 . S
C337 C338 1.421 . S
C337 C339 1.417 . S
C337 C349 1.422 . S
C338 C336 1.422 . S
C338 C337 1.421 . S
C338 N348 1.359 . S
C339 C337 1.417 . S
C339 C341 1.329 . S
C339 H358 0.930 . S
C340 C336 1.415 . S
C340 C341 1.437 . S
C340 C344 1.413 . S
C341 C339 1.329 . S
C341 C340 1.437 . S
C341 H363 0.929 . S
N342 C336 1.369 . S
N342 C343 1.338 . S
N342 Gd347 2.622 . S
C343 N342 1.338 . S
C343 C345 1.378 . S
C343 H355 0.929 . S
C344 C340 1.413 . S
C344 C345 1.348 . S
C344 H360 0.931 . S
C345 C343 1.378 . S
C345 C344 1.348 . S
C345 H361 0.930 . S
Gd346 N366 2.622 . S
Gd346 N373 2.570 . S
Gd346 O380 2.353 . S
Gd346 O381 2.468 . S
Gd346 O382 2.427 . S
Gd346 O384 2.388 . S
Gd346 O385 2.386 . S
Gd346 O389 2.307 . S
Gd346 C399 2.805 . S
Gd347 N342 2.622 . S
Gd347 N348 2.570 . S
Gd347 O379 2.386 . S
Gd347 O383 2.307 . S
Gd347 O386 2.353 . S
Gd347 O387 2.468 . S
Gd347 O388 2.427 . S
Gd347 O390 2.388 . S
Gd347 C411 2.805 . S
N348 C338 1.359 . S
N348 Gd347 2.570 . S
N348 C350 1.343 . S
C349 C337 1.422 . S
C349 C351 1.321 . S
C349 H357 0.931 . S
C350 N348 1.343 . S
C350 C351 1.390 . S
C350 H352 0.931 . S
C351 C349 1.321 . S
C351 C350 1.390 . S
C351 H353 0.930 . S
H352 C350 0.931 . S
H353 C351 0.930 . S
H354 C377 0.931 . S
H355 C343 0.929 . S
H356 C378 0.930 . S
H357 C349 0.931 . S
H358 C339 0.930 . S
H359 C368 0.929 . S
H360 C344 0.931 . S
H361 C345 0.930 . S
H362 C400 0.930 . S
H363 C341 0.929 . S
H364 C369 0.931 . S
H365 C370 0.930 . S
N366 Gd346 2.622 . S
N366 C367 1.369 . S
N366 C368 1.338 . S
C367 N366 1.369 . S
C367 C371 1.415 . S
C367 C374 1.422 . S
C368 H359 0.929 . S
C368 N366 1.338 . S
C368 C370 1.378 . S
C369 H364 0.931 . S
C369 C370 1.348 . S
C369 C371 1.413 . S
C370 H365 0.930 . S
C370 C368 1.378 . S
C370 C369 1.348 . S
C371 C367 1.415 . S
C371 C369 1.413 . S
C371 C401 1.437 . S
H372 C401 0.929 . S
N373 Gd346 2.570 . S
N373 C374 1.359 . S
N373 C377 1.343 . S
C374 C367 1.422 . S
C374 N373 1.359 . S
C374 C376 1.421 . S
C375 C376 1.422 . S
C375 C378 1.321 . S
C375 H402 0.912 1_455 S
C376 C374 1.421 . S
C376 C375 1.422 . S
C376 C400 1.417 . S
C377 H354 0.931 . S
C377 N373 1.343 . S
C377 C378 1.390 . S
C378 H356 0.930 . S
C378 C375 1.321 . S
C378 C377 1.390 . S
O379 Gd347 2.386 . S
O379 C391 1.265 . S
O380 Gd346 2.353 . S
O380 C391 1.242 . S
O381 Gd346 2.468 . S
O381 C399 1.263 . S
O382 Gd346 2.427 . S
O382 C399 1.252 . S
O383 Gd347 2.307 . S
O383 C392 1.261 . S
O384 Gd346 2.388 . S
O384 C392 1.252 . S
O385 Gd346 2.386 . S
O385 C403 1.265 . S
O386 Gd347 2.353 . S
O386 C403 1.242 . S
O387 Gd347 2.468 . S
O387 C411 1.263 . S
O388 Gd347 2.427 . S
O388 C411 1.252 . S
O389 Gd346 2.307 . S
O389 C404 1.261 . S
O390 Gd347 2.388 . S
O390 C404 1.252 . S
C391 O379 1.265 . S
C391 O380 1.242 . S
C392 O383 1.261 . S
C392 O384 1.252 . S
C393 C396 1.394 . S
C393 C398 1.370 . S
C393 C399 1.500 . S
C394 C397 1.383 . S
C394 C398 1.395 . S
C395 C396 1.396 . S
C395 C397 1.365 . S
C395 H412 0.929 . S
C396 C393 1.394 . S
C396 C395 1.396 . S
C396 H413 0.930 . S
C397 C394 1.383 . S
C397 C395 1.365 . S
C397 H414 0.931 . S
C398 C393 1.370 . S
C398 C394 1.395 . S
C398 H415 0.930 . S
C399 Gd346 2.805 . S
C399 O381 1.263 . S
C399 O382 1.252 . S
C399 C393 1.500 . S
C400 H362 0.930 . S
C400 C376 1.417 . S
C400 C401 1.329 . S
C401 C371 1.437 . S
C401 H372 0.929 . S
C401 C400 1.329 . S
H402 C375 0.912 1_655 S
C403 O385 1.265 . S
C403 O386 1.242 . S
C404 O389 1.261 . S
C404 O390 1.252 . S
C405 C408 1.394 . S
C405 C410 1.370 . S
C405 C411 1.500 . S
C406 C409 1.383 . S
C406 C410 1.395 . S
C407 C408 1.396 . S
C407 C409 1.365 . S
C407 H416 0.929 . S
C408 C405 1.394 . S
C408 C407 1.396 . S
C408 H417 0.930 . S
C409 C406 1.383 . S
C409 C407 1.365 . S
C409 H418 0.931 . S
C410 C405 1.370 . S
C410 C406 1.395 . S
C410 H419 0.930 . S
C411 Gd347 2.805 . S
C411 O387 1.263 . S
C411 O388 1.252 . S
C411 C405 1.500 . S
H412 C395 0.929 . S
H413 C396 0.930 . S
H414 C397 0.931 . S
H415 C398 0.930 . S
H416 C407 0.929 . S
H417 C408 0.930 . S
H418 C409 0.931 . S
H419 C410 0.930 . S
C420 C422 1.422 . S
C420 C424 1.415 . S
C420 N426 1.369 . S
C421 C422 1.421 . S
C421 C423 1.417 . S
C421 C433 1.422 . S
C422 C420 1.422 . S
C422 C421 1.421 . S
C422 N432 1.359 . S
C423 C421 1.417 . S
C423 C425 1.329 . S
C423 H442 0.930 . S
C424 C420 1.415 . S
C424 C425 1.437 . S
C424 C428 1.413 . S
C425 C423 1.329 . S
C425 C424 1.437 . S
C425 H447 0.929 . S
N426 C420 1.369 . S
N426 C427 1.338 . S
N426 Gd431 2.622 . S
C427 N426 1.338 . S
C427 C429 1.378 . S
C427 H439 0.929 . S
C428 C424 1.413 . S
C428 C429 1.348 . S
C428 H444 0.931 . S
C429 C427 1.378 . S
C429 C428 1.348 . S
C429 H445 0.930 . S
Gd430 N450 2.622 . S
Gd430 N457 2.570 . S
Gd430 O464 2.353 . S
Gd430 O465 2.468 . S
Gd430 O466 2.427 . S
Gd430 O468 2.388 . S
Gd430 O469 2.386 . S
Gd430 O473 2.307 . S
Gd430 C483 2.805 . S
Gd431 N426 2.622 . S
Gd431 N432 2.570 . S
Gd431 O463 2.386 . S
Gd431 O467 2.307 . S
Gd431 O470 2.353 . S
Gd431 O471 2.468 . S
Gd431 O472 2.427 . S
Gd431 O474 2.388 . S
Gd431 C495 2.805 . S
N432 C422 1.359 . S
N432 Gd431 2.570 . S
N432 C434 1.343 . S
C433 C421 1.422 . S
C433 C435 1.321 . S
C433 H441 0.931 . S
C434 N432 1.343 . S
C434 C435 1.390 . S
C434 H436 0.931 . S
C435 C433 1.321 . S
C435 C434 1.390 . S
C435 H437 0.930 . S
H436 C434 0.931 . S
H437 C435 0.930 . S
H438 C461 0.931 . S
H439 C427 0.929 . S
H440 C462 0.930 . S
H441 C433 0.931 . S
H442 C423 0.930 . S
H443 C452 0.929 . S
H444 C428 0.931 . S
H445 C429 0.930 . S
H446 C484 0.930 . S
H447 C425 0.929 . S
H448 C453 0.931 . S
H449 C454 0.930 . S
N450 Gd430 2.622 . S
N450 C451 1.369 . S
N450 C452 1.338 . S
C451 N450 1.369 . S
C451 C455 1.415 . S
C451 C458 1.422 . S
C452 H443 0.929 . S
C452 N450 1.338 . S
C452 C454 1.378 . S
C453 H448 0.931 . S
C453 C454 1.348 . S
C453 C455 1.413 . S
C454 H449 0.930 . S
C454 C452 1.378 . S
C454 C453 1.348 . S
C455 C451 1.415 . S
C455 C453 1.413 . S
C455 C485 1.437 . S
H456 C485 0.929 . S
N457 Gd430 2.570 . S
N457 C458 1.359 . S
N457 C461 1.343 . S
C458 C451 1.422 . S
C458 N457 1.359 . S
C458 C460 1.421 . S
C459 C460 1.422 . S
C459 C462 1.321 . S
C459 H486 0.931 . S
C460 C458 1.421 . S
C460 C459 1.422 . S
C460 C484 1.417 . S
C461 H438 0.931 . S
C461 N457 1.343 . S
C461 C462 1.390 . S
C462 H440 0.930 . S
C462 C459 1.321 . S
C462 C461 1.390 . S
O463 Gd431 2.386 . S
O463 C475 1.265 . S
O464 Gd430 2.353 . S
O464 C475 1.242 . S
O465 Gd430 2.468 . S
O465 C483 1.263 . S
O466 Gd430 2.427 . S
O466 C483 1.252 . S
O467 Gd431 2.307 . S
O467 C476 1.261 . S
O468 Gd430 2.388 . S
O468 C476 1.252 . S
O469 Gd430 2.386 . S
O469 C487 1.265 . S
O470 Gd431 2.353 . S
O470 C487 1.242 . S
O471 Gd431 2.468 . S
O471 C495 1.263 . S
O472 Gd431 2.427 . S
O472 C495 1.252 . S
O473 Gd430 2.307 . S
O473 C488 1.261 . S
O474 Gd431 2.388 . S
O474 C488 1.252 . S
C475 O463 1.265 . S
C475 O464 1.242 . S
C476 O467 1.261 . S
C476 O468 1.252 . S
C477 C480 1.394 . S
C477 C482 1.370 . S
C477 C483 1.500 . S
C478 C481 1.383 . S
C478 C482 1.395 . S
C479 C480 1.396 . S
C479 C481 1.365 . S
C479 H496 0.929 1_545 S
C480 C477 1.394 . S
C480 C479 1.396 . S
C480 H497 0.930 . S
C481 C478 1.383 . S
C481 C479 1.365 . S
C481 H498 0.931 . S
C482 C477 1.370 . S
C482 C478 1.395 . S
C482 H499 0.930 . S
C483 Gd430 2.805 . S
C483 O465 1.263 . S
C483 O466 1.252 . S
C483 C477 1.500 . S
C484 H446 0.930 . S
C484 C460 1.417 . S
C484 C485 1.329 . S
C485 C455 1.437 . S
C485 H456 0.929 . S
C485 C484 1.329 . S
H486 C459 0.931 . S
C487 O469 1.265 . S
C487 O470 1.242 . S
C488 O473 1.261 . S
C488 O474 1.252 . S
C489 C492 1.394 . S
C489 C494 1.370 . S
C489 C495 1.500 . S
C490 C493 1.383 . S
C490 C494 1.395 . S
C491 C492 1.396 . S
C491 C493 1.365 . S
C491 H500 0.929 . S
C492 C489 1.394 . S
C492 C491 1.396 . S
C492 H501 0.930 . S
C493 C490 1.383 . S
C493 C491 1.365 . S
C493 H502 0.931 . S
C494 C489 1.370 . S
C494 C490 1.395 . S
C494 H503 0.930 . S
C495 Gd431 2.805 . S
C495 O471 1.263 . S
C495 O472 1.252 . S
C495 C489 1.500 . S
H496 C479 0.929 1_565 S
H497 C480 0.930 . S
H498 C481 0.931 . S
H499 C482 0.930 . S
H500 C491 0.929 . S
H501 C492 0.930 . S
H502 C493 0.931 . S
H503 C494 0.930 . S
C504 C506 1.422 . S
C504 C508 1.415 . S
C504 N510 1.369 . S
C505 C506 1.421 . S
C505 C507 1.417 . S
C505 C517 1.422 . S
C506 C504 1.422 . S
C506 C505 1.421 . S
C506 N516 1.359 . S
C507 C505 1.417 . S
C507 C509 1.329 . S
C507 H526 0.930 . S
C508 C504 1.415 . S
C508 C509 1.437 . S
C508 C512 1.413 . S
C509 C507 1.329 . S
C509 C508 1.437 . S
C509 H531 0.929 . S
N510 C504 1.369 . S
N510 C511 1.338 . S
N510 Gd515 2.622 . S
C511 N510 1.338 . S
C511 C513 1.378 . S
C511 H523 0.929 . S
C512 C508 1.413 . S
C512 C513 1.348 . S
C512 H528 0.931 . S
C513 C511 1.378 . S
C513 C512 1.348 . S
C513 H529 0.930 . S
Gd514 N534 2.622 . S
Gd514 N541 2.570 . S
Gd514 O548 2.353 . S
Gd514 O549 2.468 . S
Gd514 O550 2.427 . S
Gd514 O552 2.388 . S
Gd514 O553 2.386 . S
Gd514 O557 2.307 . S
Gd514 C567 2.805 . S
Gd515 N510 2.622 . S
Gd515 N516 2.570 . S
Gd515 O547 2.386 . S
Gd515 O551 2.307 . S
Gd515 O554 2.353 . S
Gd515 O555 2.468 . S
Gd515 O556 2.427 . S
Gd515 O558 2.388 . S
Gd515 C579 2.805 . S
N516 C506 1.359 . S
N516 Gd515 2.570 . S
N516 C518 1.343 . S
C517 C505 1.422 . S
C517 C519 1.321 . S
C517 H525 0.931 1_545 S
C518 N516 1.343 . S
C518 C519 1.390 . S
C518 H520 0.931 . S
C519 C517 1.321 . S
C519 C518 1.390 . S
C519 H521 0.930 . S
H520 C518 0.931 . S
H521 C519 0.930 . S
H522 C545 0.931 . S
H523 C511 0.929 . S
H524 C546 0.930 . S
H525 C517 0.931 1_565 S
H526 C507 0.930 . S
H527 C536 0.929 . S
H528 C512 0.931 . S
H529 C513 0.930 . S
H530 C568 0.930 . S
H531 C509 0.929 . S
H532 C537 0.931 . S
H533 C538 0.930 . S
N534 Gd514 2.622 . S
N534 C535 1.369 . S
N534 C536 1.338 . S
C535 N534 1.369 . S
C535 C539 1.415 . S
C535 C542 1.422 . S
C536 H527 0.929 . S
C536 N534 1.338 . S
C536 C538 1.378 . S
C537 H532 0.931 . S
C537 C538 1.348 . S
C537 C539 1.413 . S
C538 H533 0.930 . S
C538 C536 1.378 . S
C538 C537 1.348 . S
C539 C535 1.415 . S
C539 C537 1.413 . S
C539 C569 1.437 . S
H540 C569 0.929 . S
N541 Gd514 2.570 . S
N541 C542 1.359 . S
N541 C545 1.343 . S
C542 C535 1.422 . S
C542 N541 1.359 . S
C542 C544 1.421 . S
C543 C544 1.422 . S
C543 C546 1.321 . S
C543 H570 0.931 . S
C544 C542 1.421 . S
C544 C543 1.422 . S
C544 C568 1.417 . S
C545 H522 0.931 . S
C545 N541 1.343 . S
C545 C546 1.390 . S
C546 H524 0.930 . S
C546 C543 1.321 . S
C546 C545 1.390 . S
O547 Gd515 2.386 . S
O547 C559 1.265 . S
O548 Gd514 2.353 . S
O548 C559 1.242 . S
O549 Gd514 2.468 . S
O549 C567 1.263 . S
O550 Gd514 2.427 . S
O550 C567 1.252 . S
O551 Gd515 2.307 . S
O551 C560 1.261 . S
O552 Gd514 2.388 . S
O552 C560 1.252 . S
O553 Gd514 2.386 . S
O553 C571 1.265 . S
O554 Gd515 2.353 . S
O554 C571 1.242 . S
O555 Gd515 2.468 . S
O555 C579 1.263 . S
O556 Gd515 2.427 . S
O556 C579 1.252 . S
O557 Gd514 2.307 . S
O557 C572 1.261 . S
O558 Gd515 2.388 . S
O558 C572 1.252 . S
C559 O547 1.265 . S
C559 O548 1.242 . S
C560 O551 1.261 . S
C560 O552 1.252 . S
C561 C564 1.394 . S
C561 C566 1.370 . S
C561 C567 1.500 . S
C562 C565 1.383 . S
C562 C566 1.395 . S
C563 C564 1.396 . S
C563 C565 1.365 . S
C563 H580 0.929 . S
C564 C561 1.394 . S
C564 C563 1.396 . S
C564 H581 0.930 . S
C565 C562 1.383 . S
C565 C563 1.365 . S
C565 H582 0.931 . S
C566 C561 1.370 . S
C566 C562 1.395 . S
C566 H583 0.930 . S
C567 Gd514 2.805 . S
C567 O549 1.263 . S
C567 O550 1.252 . S
C567 C561 1.500 . S
C568 H530 0.930 . S
C568 C544 1.417 . S
C568 C569 1.329 . S
C569 C539 1.437 . S
C569 H540 0.929 . S
C569 C568 1.329 . S
H570 C543 0.931 . S
C571 O553 1.265 . S
C571 O554 1.242 . S
C572 O557 1.261 . S
C572 O558 1.252 . S
C573 C576 1.394 . S
C573 C578 1.370 . S
C573 C579 1.500 . S
C574 C577 1.383 . S
C574 C578 1.395 . S
C575 C576 1.396 . S
C575 C577 1.365 . S
C575 H584 0.929 . S
C576 C573 1.394 . S
C576 C575 1.396 . S
C576 H585 0.930 . S
C577 C574 1.383 . S
C577 C575 1.365 . S
C577 H586 0.931 . S
C578 C573 1.370 . S
C578 C574 1.395 . S
C578 H587 0.930 . S
C579 Gd515 2.805 . S
C579 O555 1.263 . S
C579 O556 1.252 . S
C579 C573 1.500 . S
H580 C563 0.929 . S
H581 C564 0.930 . S
H582 C565 0.931 . S
H583 C566 0.930 . S
H584 C575 0.929 . S
H585 C576 0.930 . S
H586 C577 0.931 . S
H587 C578 0.930 . S
C588 C590 1.422 . S
C588 C592 1.415 . S
C588 N594 1.369 . S
C589 C590 1.421 . S
C589 C591 1.417 . S
C589 C601 1.422 . S
C590 C588 1.422 . S
C590 C589 1.421 . S
C590 N600 1.359 . S
C591 C589 1.417 . S
C591 C593 1.329 . S
C591 H610 0.930 . S
C592 C588 1.415 . S
C592 C593 1.437 . S
C592 C596 1.413 . S
C593 C591 1.329 . S
C593 C592 1.437 . S
C593 H615 0.929 . S
N594 C588 1.369 . S
N594 C595 1.338 . S
N594 Gd599 2.622 . S
C595 N594 1.338 . S
C595 C597 1.378 . S
C595 H607 0.929 . S
C596 C592 1.413 . S
C596 C597 1.348 . S
C596 H612 0.931 1_565 S
C597 C595 1.378 . S
C597 C596 1.348 . S
C597 H613 0.930 . S
Gd598 N618 2.622 . S
Gd598 N625 2.570 . S
Gd598 O632 2.353 . S
Gd598 O633 2.468 . S
Gd598 O634 2.427 . S
Gd598 O636 2.388 . S
Gd598 O637 2.386 . S
Gd598 O641 2.307 . S
Gd598 C651 2.805 . S
Gd599 N594 2.622 . S
Gd599 N600 2.570 . S
Gd599 O631 2.386 . S
Gd599 O635 2.307 . S
Gd599 O638 2.353 . S
Gd599 O639 2.468 . S
Gd599 O640 2.427 . S
Gd599 O642 2.388 . S
Gd599 C663 2.805 . S
N600 C590 1.359 . S
N600 Gd599 2.570 . S
N600 C602 1.343 . S
C601 C589 1.422 . S
C601 C603 1.321 . S
C601 H609 0.931 . S
C602 N600 1.343 . S
C602 C603 1.390 . S
C602 H604 0.931 . S
C603 C601 1.321 . S
C603 C602 1.390 . S
C603 H605 0.930 . S
H604 C602 0.931 . S
H605 C603 0.930 . S
H606 C629 0.931 . S
H607 C595 0.929 . S
H608 C630 0.930 . S
H609 C601 0.931 . S
H610 C591 0.930 . S
H611 C620 0.929 . S
H612 C596 0.931 1_545 S
H613 C597 0.930 . S
H614 C652 0.930 . S
H615 C593 0.929 . S
H616 C621 0.931 . S
H617 C622 0.930 . S
N618 Gd598 2.622 . S
N618 C619 1.369 . S
N618 C620 1.338 . S
C619 N618 1.369 . S
C619 C623 1.415 . S
C619 C626 1.422 . S
C620 H611 0.929 . S
C620 N618 1.338 . S
C620 C622 1.378 . S
C621 H616 0.931 . S
C621 C622 1.348 . S
C621 C623 1.413 . S
C622 H617 0.930 . S
C622 C620 1.378 . S
C622 C621 1.348 . S
C623 C619 1.415 . S
C623 C621 1.413 . S
C623 C653 1.437 . S
H624 C653 0.929 . S
N625 Gd598 2.570 . S
N625 C626 1.359 . S
N625 C629 1.343 . S
C626 C619 1.422 . S
C626 N625 1.359 . S
C626 C628 1.421 . S
C627 C628 1.422 . S
C627 C630 1.321 . S
C627 H654 0.931 . S
C628 C626 1.421 . S
C628 C627 1.422 . S
C628 C652 1.417 . S
C629 H606 0.931 . S
C629 N625 1.343 . S
C629 C630 1.390 . S
C630 H608 0.930 . S
C630 C627 1.321 . S
C630 C629 1.390 . S
O631 Gd599 2.386 . S
O631 C643 1.265 . S
O632 Gd598 2.353 . S
O632 C643 1.242 . S
O633 Gd598 2.468 . S
O633 C651 1.263 . S
O634 Gd598 2.427 . S
O634 C651 1.252 . S
O635 Gd599 2.307 . S
O635 C644 1.261 . S
O636 Gd598 2.388 . S
O636 C644 1.252 . S
O637 Gd598 2.386 . S
O637 C655 1.265 . S
O638 Gd599 2.353 . S
O638 C655 1.242 . S
O639 Gd599 2.468 . S
O639 C663 1.263 . S
O640 Gd599 2.427 . S
O640 C663 1.252 . S
O641 Gd598 2.307 . S
O641 C656 1.261 . S
O642 Gd599 2.388 . S
O642 C656 1.252 . S
C643 O631 1.265 . S
C643 O632 1.242 . S
C644 O635 1.261 . S
C644 O636 1.252 . S
C645 C648 1.394 . S
C645 C650 1.370 . S
C645 C651 1.500 . S
C646 C649 1.383 . S
C646 C650 1.395 . S
C647 C648 1.396 . S
C647 C649 1.365 . S
C647 H664 0.929 . S
C648 C645 1.394 . S
C648 C647 1.396 . S
C648 H665 0.930 . S
C649 C646 1.383 . S
C649 C647 1.365 . S
C649 H666 0.931 . S
C650 C645 1.370 . S
C650 C646 1.395 . S
C650 H667 0.930 . S
C651 Gd598 2.805 . S
C651 O633 1.263 . S
C651 O634 1.252 . S
C651 C645 1.500 . S
C652 H614 0.930 . S
C652 C628 1.417 . S
C652 C653 1.329 . S
C653 C623 1.437 . S
C653 H624 0.929 . S
C653 C652 1.329 . S
H654 C627 0.931 . S
C655 O637 1.265 . S
C655 O638 1.242 . S
C656 O641 1.261 . S
C656 O642 1.252 . S
C657 C660 1.394 . S
C657 C662 1.370 . S
C657 C663 1.500 . S
C658 C661 1.383 . S
C658 C662 1.395 . S
C659 C660 1.396 . S
C659 C661 1.365 . S
C659 H668 0.929 1_655 S
C660 C657 1.394 . S
C660 C659 1.396 . S
C660 H669 0.930 . S
C661 C658 1.383 . S
C661 C659 1.365 . S
C661 H670 0.931 . S
C662 C657 1.370 . S
C662 C658 1.395 . S
C662 H671 0.930 . S
C663 Gd599 2.805 . S
C663 O639 1.263 . S
C663 O640 1.252 . S
C663 C657 1.500 . S
H664 C647 0.929 . S
H665 C648 0.930 . S
H666 C649 0.931 . S
H667 C650 0.930 . S
H668 C659 0.929 1_455 S
H669 C660 0.930 . S
H670 C661 0.931 . S
H671 C662 0.930 . S
C672 O684 1.241 . S
C672 O685 1.280 . S
C673 O686 1.277 . S
C673 O687 1.245 . S
C674 O698 1.247 . S
C674 O700 1.289 . S
Mg675 O676 1.926 1_455 S
Mg675 O685 1.984 1_455 S
Mg675 O687 1.988 1_455 S
Mg675 O688 2.061 . S
O676 Mg675 1.926 1_655 S
O676 Mg677 1.986 1_545 S
O676 Mg678 1.923 1_655 S
Mg677 O676 1.986 1_565 S
Mg677 O684 2.042 1_565 S
Mg677 O686 2.041 1_565 S
Mg677 O692 2.038 . S
Mg677 O700 2.238 . S
Mg678 O676 1.923 1_455 S
Mg678 O679 1.911 1_545 S
Mg678 O689 2.107 . S
Mg678 O691 2.075 1_445 S
Mg678 O700 2.106 1_445 S
Mg678 O701 2.082 . S
O679 Mg678 1.911 1_565 S
O679 Mg680 1.925 . S
O679 Mg681 1.986 1_565 S
Mg680 O679 1.925 . S
Mg680 O694 1.994 . S
Mg680 O697 1.994 . S
Mg680 O698 2.050 1_455 S
Mg681 O679 1.986 1_545 S
Mg681 O689 2.238 . S
Mg681 O693 2.042 1_545 S
Mg681 O695 2.041 1_545 S
Mg681 O702 2.038 . S
C682 O688 1.247 . S
C682 O689 1.289 . S
C683 O701 1.245 . S
C683 O702 1.274 . S
O684 C672 1.241 . S
O684 Mg677 2.042 1_545 S
O685 C672 1.280 . S
O685 Mg675 1.984 1_655 S
O686 C673 1.277 . S
O686 Mg677 2.041 1_545 S
O687 C673 1.245 . S
O687 Mg675 1.988 1_655 S
O688 Mg675 2.061 . S
O688 C682 1.247 . S
O689 Mg678 2.107 . S
O689 Mg681 2.238 . S
O689 C682 1.289 . S
C690 O691 1.245 . S
C690 O692 1.274 . S
O691 Mg678 2.075 1_665 S
O691 C690 1.245 . S
O692 Mg677 2.038 . S
O692 C690 1.274 . S
O693 Mg681 2.042 1_565 S
O693 C696 1.241 . S
O694 Mg680 1.994 . S
O694 C696 1.280 . S
O695 Mg681 2.041 1_565 S
O695 C699 1.277 . S
C696 O693 1.241 . S
C696 O694 1.280 . S
O697 Mg680 1.994 . S
O697 C699 1.245 . S
O698 C674 1.247 . S
O698 Mg680 2.050 1_655 S
C699 O695 1.277 . S
C699 O697 1.245 . S
O700 C674 1.289 . S
O700 Mg677 2.238 . S
O700 Mg678 2.106 1_665 S
O701 Mg678 2.082 . S
O701 C683 1.245 . S
O702 Mg681 2.038 . S
O702 C683 1.274 . S
C703 O715 1.241 . S
C703 O716 1.280 . S
C704 O717 1.277 . S
C704 O718 1.245 . S
C705 O729 1.247 . S
C705 O731 1.289 . S
Mg706 O707 1.926 . S
Mg706 O716 1.984 . S
Mg706 O718 1.988 1_554 S
Mg706 O719 2.061 . S
O707 Mg706 1.926 . S
O707 Mg708 1.986 1_545 S
O707 Mg709 1.928 . S
Mg708 O707 1.986 1_565 S
Mg708 O715 2.042 1_565 S
Mg708 O717 2.041 1_564 S
Mg708 O723 2.038 . S
Mg708 O731 2.238 1_554 S
Mg709 O707 1.928 . S
Mg709 O710 1.906 1_544 S
Mg709 O720 2.118 . S
Mg709 O722 2.091 1_545 S
Mg709 O731 2.095 1_544 S
Mg709 O732 2.066 1_554 S
O710 Mg709 1.906 1_566 S
O710 Mg711 1.926 . S
O710 Mg712 1.986 1_565 S
Mg711 O710 1.926 . S
Mg711 O725 1.984 . S
Mg711 O728 1.988 1_556 S
Mg711 O729 2.061 . S
Mg712 O710 1.986 1_545 S
Mg712 O720 2.238 1_556 S
Mg712 O724 2.042 1_545 S
Mg712 O726 2.041 1_546 S
Mg712 O733 2.038 . S
C713 O719 1.247 . S
C713 O720 1.289 . S
C714 O732 1.245 . S
C714 O733 1.274 . S
O715 C703 1.241 . S
O715 Mg708 2.042 1_545 S
O716 C703 1.280 . S
O716 Mg706 1.984 . S
O717 C704 1.277 . S
O717 Mg708 2.041 1_546 S
O718 C704 1.245 . S
O718 Mg706 1.988 1_556 S
O719 Mg706 2.061 . S
O719 C713 1.247 . S
O720 Mg709 2.118 . S
O720 Mg712 2.238 1_554 S
O720 C713 1.289 . S
C721 O722 1.245 . S
C721 O723 1.274 . S
O722 Mg709 2.091 1_565 S
O722 C721 1.245 . S
O723 Mg708 2.038 . S
O723 C721 1.274 . S
O724 Mg712 2.042 1_565 S
O724 C727 1.241 . S
O725 Mg711 1.984 . S
O725 C727 1.280 . S
O726 Mg712 2.041 1_564 S
O726 C730 1.277 . S
C727 O724 1.241 . S
C727 O725 1.280 . S
O728 Mg711 1.988 1_554 S
O728 C730 1.245 . S
O729 C705 1.247 . S
O729 Mg711 2.061 . S
C730 O726 1.277 . S
C730 O728 1.245 . S
O731 C705 1.289 . S
O731 Mg708 2.238 1_556 S
O731 Mg709 2.095 1_566 S
O732 Mg709 2.066 1_556 S
O732 C714 1.245 . S
O733 Mg712 2.038 . S
O733 C714 1.274 . S
C734 O746 1.241 . S
C734 O747 1.280 . S
C735 O748 1.277 . S
C735 O749 1.245 . S
C736 O760 1.247 . S
C736 O762 1.289 . S
Mg737 O738 1.926 1_455 S
Mg737 O747 1.984 1_455 S
Mg737 O749 1.988 1_454 S
Mg737 O750 2.061 . S
O738 Mg737 1.926 1_655 S
O738 Mg739 1.986 . S
O738 Mg740 1.921 1_655 S
Mg739 O738 1.986 . S
Mg739 O746 2.042 . S
Mg739 O748 2.041 1_554 S
Mg739 O754 2.038 . S
Mg739 O762 2.238 1_554 S
Mg740 O738 1.921 1_455 S
Mg740 O741 1.913 1_554 S
Mg740 O751 2.118 . S
Mg740 O753 2.096 1_455 S
Mg740 O762 2.095 1_454 S
Mg740 O763 2.062 1_554 S
O741 Mg740 1.913 1_556 S
O741 Mg742 1.925 . S
O741 Mg743 1.986 . S
Mg742 O741 1.925 . S
Mg742 O756 1.994 . S
Mg742 O759 1.994 1_556 S
Mg742 O760 2.049 1_455 S
Mg743 O741 1.986 . S
Mg743 O751 2.238 1_556 S
Mg743 O755 2.042 . S
Mg743 O757 2.041 1_556 S
Mg743 O764 2.038 . S
C744 O750 1.247 . S
C744 O751 1.289 . S
C745 O763 1.245 . S
C745 O764 1.274 . S
O746 C734 1.241 . S
O746 Mg739 2.042 . S
O747 C734 1.280 . S
O747 Mg737 1.984 1_655 S
O748 C735 1.277 . S
O748 Mg739 2.041 1_556 S
O749 C735 1.245 . S
O749 Mg737 1.988 1_656 S
O750 Mg737 2.061 . S
O750 C744 1.247 . S
O751 Mg740 2.118 . S
O751 Mg743 2.238 1_554 S
O751 C744 1.289 . S
C752 O753 1.245 . S
C752 O754 1.274 . S
O753 Mg740 2.096 1_655 S
O753 C752 1.245 . S
O754 Mg739 2.038 . S
O754 C752 1.274 . S
O755 Mg743 2.042 . S
O755 C758 1.241 . S
O756 Mg742 1.994 . S
O756 C758 1.280 . S
O757 Mg743 2.041 1_554 S
O757 C761 1.277 . S
C758 O755 1.241 . S
C758 O756 1.280 . S
O759 Mg742 1.994 1_554 S
O759 C761 1.245 . S
O760 C736 1.247 . S
O760 Mg742 2.049 1_655 S
C761 O757 1.277 . S
C761 O759 1.245 . S
O762 C736 1.289 . S
O762 Mg739 2.238 1_556 S
O762 Mg740 2.095 1_656 S
O763 Mg740 2.062 1_556 S
O763 C745 1.245 . S
O764 Mg743 2.038 . S
O764 C745 1.274 . S
C765 O777 1.241 . S
C765 O778 1.280 . S
C766 O779 1.277 . S
C766 O780 1.245 . S
C767 O791 1.247 . S
C767 O793 1.289 . S
Mg768 O769 1.926 . S
Mg768 O778 1.984 . S
Mg768 O780 1.988 1_554 S
Mg768 O781 2.061 . S
O769 Mg768 1.926 . S
O769 Mg770 1.986 . S
O769 Mg771 1.921 . S
Mg770 O769 1.986 . S
Mg770 O777 2.042 . S
Mg770 O779 2.041 1_554 S
Mg770 O785 2.038 . S
Mg770 O793 2.238 1_554 S
Mg771 O769 1.921 . S
Mg771 O772 1.913 1_554 S
Mg771 O782 2.118 . S
Mg771 O784 2.096 . S
Mg771 O793 2.095 1_554 S
Mg771 O794 2.062 1_554 S
O772 Mg771 1.913 1_556 S
O772 Mg773 1.926 . S
O772 Mg774 1.986 . S
Mg773 O772 1.926 . S
Mg773 O787 1.984 . S
Mg773 O790 1.988 1_556 S
Mg773 O791 2.061 . S
Mg774 O772 1.986 . S
Mg774 O782 2.238 1_556 S
Mg774 O786 2.042 . S
Mg774 O788 2.041 1_556 S
Mg774 O795 2.038 . S
C775 O781 1.247 . S
C775 O782 1.289 . S
C776 O794 1.245 . S
C776 O795 1.274 . S
O777 C765 1.241 . S
O777 Mg770 2.042 . S
O778 C765 1.280 . S
O778 Mg768 1.984 . S
O779 C766 1.277 . S
O779 Mg770 2.041 1_556 S
O780 C766 1.245 . S
O780 Mg768 1.988 1_556 S
O781 Mg768 2.061 . S
O781 C775 1.247 . S
O782 Mg771 2.118 . S
O782 Mg774 2.238 1_554 S
O782 C775 1.289 . S
C783 O784 1.245 . S
C783 O785 1.274 . S
O784 Mg771 2.096 . S
O784 C783 1.245 . S
O785 Mg770 2.038 . S
O785 C783 1.274 . S
O786 Mg774 2.042 . S
O786 C789 1.241 . S
O787 Mg773 1.984 . S
O787 C789 1.280 . S
O788 Mg774 2.041 1_554 S
O788 C792 1.277 . S
C789 O786 1.241 . S
C789 O787 1.280 . S
O790 Mg773 1.988 1_554 S
O790 C792 1.245 . S
O791 C767 1.247 . S
O791 Mg773 2.061 . S
C792 O788 1.277 . S
C792 O790 1.245 . S
O793 C767 1.289 . S
O793 Mg770 2.238 1_556 S
O793 Mg771 2.095 1_556 S
O794 Mg771 2.062 1_556 S
O794 C776 1.245 . S
O795 Mg774 2.038 . S
O795 C776 1.274 . S
C796 O808 1.241 . S
C796 O809 1.280 . S
C797 O810 1.277 . S
C797 O811 1.245 . S
C798 O822 1.247 . S
C798 O824 1.289 . S
Mg799 O800 1.926 1_455 S
Mg799 O809 1.984 1_455 S
Mg799 O811 1.988 1_455 S
Mg799 O812 2.061 . S
O800 Mg799 1.926 1_655 S
O800 Mg801 1.986 . S
O800 Mg802 1.917 1_655 S
Mg801 O800 1.986 . S
Mg801 O808 2.042 . S
Mg801 O810 2.041 . S
Mg801 O816 2.038 . S
Mg801 O824 2.238 . S
Mg802 O800 1.917 1_455 S
Mg802 O803 1.917 . S
Mg802 O813 2.106 . S
Mg802 O815 2.079 1_455 S
Mg802 O824 2.106 1_455 S
Mg802 O825 2.079 . S
O803 Mg802 1.917 . S
O803 Mg804 1.925 . S
O803 Mg805 1.986 . S
Mg804 O803 1.925 . S
Mg804 O818 1.994 . S
Mg804 O821 1.994 . S
Mg804 O822 2.049 1_455 S
Mg805 O803 1.986 . S
Mg805 O813 2.238 . S
Mg805 O817 2.042 . S
Mg805 O819 2.041 . S
Mg805 O826 2.038 . S
C806 O812 1.247 . S
C806 O813 1.289 . S
C807 O825 1.245 . S
C807 O826 1.274 . S
O808 C796 1.241 . S
O808 Mg801 2.042 . S
O809 C796 1.280 . S
O809 Mg799 1.984 1_655 S
O810 C797 1.277 . S
O810 Mg801 2.041 . S
O811 C797 1.245 . S
O811 Mg799 1.988 1_655 S
O812 Mg799 2.061 . S
O812 C806 1.247 . S
O813 Mg802 2.106 . S
O813 Mg805 2.238 . S
O813 C806 1.289 . S
C814 O815 1.245 . S
C814 O816 1.274 . S
O815 Mg802 2.079 1_655 S
O815 C814 1.245 . S
O816 Mg801 2.038 . S
O816 C814 1.274 . S
O817 Mg805 2.042 . S
O817 C820 1.241 . S
O818 Mg804 1.994 . S
O818 C820 1.280 . S
O819 Mg805 2.041 . S
O819 C823 1.277 . S
C820 O817 1.241 . S
C820 O818 1.280 . S
O821 Mg804 1.994 . S
O821 C823 1.245 . S
O822 C798 1.247 . S
O822 Mg804 2.049 1_655 S
C823 O819 1.277 . S
C823 O821 1.245 . S
O824 C798 1.289 . S
O824 Mg801 2.238 . S
O824 Mg802 2.106 1_655 S
O825 Mg802 2.079 . S
O825 C807 1.245 . S
O826 Mg805 2.038 . S
O826 C807 1.274 . S
C827 O839 1.241 . S
C827 O840 1.280 . S
C828 O841 1.277 . S
C828 O842 1.245 . S
C829 O853 1.247 . S
C829 O855 1.289 . S
Mg830 O831 1.926 . S
Mg830 O840 1.984 . S
Mg830 O842 1.988 . S
Mg830 O843 2.061 . S
O831 Mg830 1.926 . S
O831 Mg832 1.986 1_545 S
O831 Mg833 1.924 . S
Mg832 O831 1.986 1_565 S
Mg832 O839 2.042 1_565 S
Mg832 O841 2.041 1_565 S
Mg832 O847 2.038 . S
Mg832 O855 2.238 . S
Mg833 O831 1.924 . S
Mg833 O834 1.910 1_545 S
Mg833 O844 2.107 . S
Mg833 O846 2.075 1_545 S
Mg833 O855 2.106 1_545 S
Mg833 O856 2.083 . S
O834 Mg833 1.910 1_565 S
O834 Mg835 1.926 . S
O834 Mg836 1.986 1_565 S
Mg835 O834 1.926 . S
Mg835 O849 1.984 . S
Mg835 O852 1.988 . S
Mg835 O853 2.061 . S
Mg836 O834 1.986 1_545 S
Mg836 O844 2.238 . S
Mg836 O848 2.042 1_545 S
Mg836 O850 2.041 1_545 S
Mg836 O857 2.038 . S
C837 O843 1.247 . S
C837 O844 1.289 . S
C838 O856 1.245 . S
C838 O857 1.274 . S
O839 C827 1.241 . S
O839 Mg832 2.042 1_545 S
O840 C827 1.280 . S
O840 Mg830 1.984 . S
O841 C828 1.277 . S
O841 Mg832 2.041 1_545 S
O842 C828 1.245 . S
O842 Mg830 1.988 . S
O843 Mg830 2.061 . S
O843 C837 1.247 . S
O844 Mg833 2.107 . S
O844 Mg836 2.238 . S
O844 C837 1.289 . S
C845 O846 1.245 . S
C845 O847 1.274 . S
O846 Mg833 2.075 1_565 S
O846 C845 1.245 . S
O847 Mg832 2.038 . S
O847 C845 1.274 . S
O848 Mg836 2.042 1_565 S
O848 C851 1.241 . S
O849 Mg835 1.984 . S
O849 C851 1.280 . S
O850 Mg836 2.041 1_565 S
O850 C854 1.277 . S
C851 O848 1.241 . S
C851 O849 1.280 . S
O852 Mg835 1.988 . S
O852 C854 1.245 . S
O853 C829 1.247 . S
O853 Mg835 2.061 . S
C854 O850 1.277 . S
C854 O852 1.245 . S
O855 C829 1.289 . S
O855 Mg832 2.238 . S
O855 Mg833 2.106 1_565 S
O856 Mg833 2.083 . S
O856 C838 1.245 . S
O857 Mg836 2.038 . S
O857 C838 1.274 . S
C858 C859 1.387 . S
C858 H862 0.950 . S
C858 C867 1.390 . S
C859 C858 1.387 . S
C859 C861 1.387 . S
H860 C867 0.950 . S
C861 C859 1.387 . S
C861 C863 1.390 . S
C861 H865 0.950 . S
H862 C858 0.950 . S
C863 C861 1.390 . S
C863 C864 1.387 . S
C863 H866 0.950 . S
C864 C863 1.387 . S
C864 C867 1.387 . S
H865 C861 0.950 . S
H866 C863 0.950 . S
C867 C858 1.390 . S
C867 H860 0.950 . S
C867 C864 1.387 . S
C868 C869 1.387 . S
C868 H872 0.950 . S
C868 C877 1.390 . S
C869 C868 1.387 . S
C869 C871 1.387 . S
H870 C877 0.950 . S
C871 C869 1.387 . S
C871 C873 1.390 . S
C871 H875 0.950 . S
H872 C868 0.950 . S
C873 C871 1.390 . S
C873 C874 1.387 . S
C873 H876 0.950 . S
C874 C873 1.387 . S
C874 C877 1.387 . S
H875 C871 0.950 . S
H876 C873 0.950 . S
C877 C868 1.390 . S
C877 H870 0.950 . S
C877 C874 1.387 . S
C878 C879 1.387 . S
C878 H882 0.950 . S
C878 C887 1.390 . S
C879 C878 1.387 . S
C879 C881 1.387 . S
H880 C887 0.950 . S
C881 C879 1.387 . S
C881 C883 1.390 . S
C881 H885 0.950 . S
H882 C878 0.950 . S
C883 C881 1.390 . S
C883 C884 1.387 . S
C883 H886 0.950 . S
C884 C883 1.387 . S
C884 C887 1.387 . S
H885 C881 0.950 . S
H886 C883 0.950 . S
C887 C878 1.390 . S
C887 H880 0.950 . S
C887 C884 1.387 . S
C888 C889 1.387 . S
C888 H892 0.950 . S
C888 C897 1.390 . S
C889 C888 1.387 . S
C889 C891 1.387 . S
H890 C897 0.950 . S
C891 C889 1.387 . S
C891 C893 1.390 . S
C891 H895 0.950 . S
H892 C888 0.950 . S
C893 C891 1.390 . S
C893 C894 1.387 . S
C893 H896 0.950 . S
C894 C893 1.387 . S
C894 C897 1.387 . S
H895 C891 0.950 . S
H896 C893 0.950 . S
C897 C888 1.390 . S
C897 H890 0.950 . S
C897 C894 1.387 . S
C898 C899 1.387 . S
C898 H902 0.950 . S
C898 C907 1.390 . S
C899 C898 1.387 . S
C899 C901 1.387 . S
H900 C907 0.950 . S
C901 C899 1.387 . S
C901 C903 1.390 . S
C901 H905 0.950 . S
H902 C898 0.950 . S
C903 C901 1.390 . S
C903 C904 1.387 . S
C903 H906 0.950 . S
C904 C903 1.387 . S
C904 C907 1.387 . S
H905 C901 0.950 . S
H906 C903 0.950 . S
C907 C898 1.390 . S
C907 H900 0.950 . S
C907 C904 1.387 . S
C908 C909 1.387 . S
C908 H912 0.950 . S
C908 C917 1.390 . S
C909 C908 1.387 . S
C909 C911 1.387 . S
H910 C917 0.950 . S
C911 C909 1.387 . S
C911 C913 1.390 . S
C911 H915 0.950 . S
H912 C908 0.950 . S
C913 C911 1.390 . S
C913 C914 1.387 . S
C913 H916 0.950 . S
C914 C913 1.387 . S
C914 C917 1.387 . S
H915 C911 0.950 . S
H916 C913 0.950 . S
C917 C908 1.390 . S
C917 H910 0.950 . S
C917 C914 1.387 . S
C918 C919 1.387 . S
C918 H922 0.950 . S
C918 C927 1.390 . S
C919 C918 1.387 . S
C919 C921 1.387 . S
H920 C927 0.950 . S
C921 C919 1.387 . S
C921 C923 1.390 . S
C921 H925 0.950 . S
H922 C918 0.950 . S
C923 C921 1.390 . S
C923 C924 1.387 . S
C923 H926 0.950 . S
C924 C923 1.387 . S
C924 C927 1.387 . S
H925 C921 0.950 . S
H926 C923 0.950 . S
C927 C918 1.390 . S
C927 H920 0.950 . S
C927 C924 1.387 . S
C928 C929 1.387 . S
C928 H932 0.950 . S
C928 C937 1.390 . S
C929 C928 1.387 . S
C929 C931 1.387 . S
H930 C937 0.950 . S
C931 C929 1.387 . S
C931 C933 1.390 . S
C931 H935 0.950 . S
H932 C928 0.950 . S
C933 C931 1.390 . S
C933 C934 1.387 . S
C933 H936 0.950 . S
C934 C933 1.387 . S
C934 C937 1.387 . S
H935 C931 0.950 . S
H936 C933 0.950 . S
C937 C928 1.390 . S
C937 H930 0.950 . S
C937 C934 1.387 . S
C938 C939 1.387 . S
C938 H942 0.950 . S
C938 C947 1.390 . S
C939 C938 1.387 . S
C939 C941 1.387 . S
H940 C947 0.950 . S
C941 C939 1.387 . S
C941 C943 1.390 . S
C941 H945 0.950 . S
H942 C938 0.950 . S
C943 C941 1.390 . S
C943 C944 1.387 . S
C943 H946 0.950 . S
C944 C943 1.387 . S
C944 C947 1.387 . S
H945 C941 0.950 . S
H946 C943 0.950 . S
C947 C938 1.390 . S
C947 H940 0.950 . S
C947 C944 1.387 . S
C948 C949 1.387 . S
C948 H952 0.950 . S
C948 C957 1.390 . S
C949 C948 1.387 . S
C949 C951 1.387 . S
H950 C957 0.950 . S
C951 C949 1.387 . S
C951 C953 1.390 . S
C951 H955 0.950 . S
H952 C948 0.950 . S
C953 C951 1.390 . S
C953 C954 1.387 . S
C953 H956 0.950 . S
C954 C953 1.387 . S
C954 C957 1.387 . S
H955 C951 0.950 . S
H956 C953 0.950 . S
C957 C948 1.390 . S
C957 H950 0.950 . S
C957 C954 1.387 . S
C958 C959 1.387 . S
C958 H962 0.950 . S
C958 C967 1.390 . S
C959 C958 1.387 . S
C959 C961 1.387 . S
H960 C967 0.950 . S
C961 C959 1.387 . S
C961 C963 1.390 . S
C961 H965 0.950 . S
H962 C958 0.950 . S
C963 C961 1.390 . S
C963 C964 1.387 . S
C963 H966 0.950 . S
C964 C963 1.387 . S
C964 C967 1.387 . S
H965 C961 0.950 . S
H966 C963 0.950 . S
C967 C958 1.390 . S
C967 H960 0.950 . S
C967 C964 1.387 . S
C968 C969 1.387 . S
C968 H972 0.950 . S
C968 C977 1.390 . S
C969 C968 1.387 . S
C969 C971 1.387 . S
H970 C977 0.950 . S
C971 C969 1.387 . S
C971 C973 1.390 . S
C971 H975 0.950 . S
H972 C968 0.950 . S
C973 C971 1.390 . S
C973 C974 1.387 . S
C973 H976 0.950 . S
C974 C973 1.387 . S
C974 C977 1.387 . S
H975 C971 0.950 . S
H976 C973 0.950 . S
C977 C968 1.390 . S
C977 H970 0.950 . S
C977 C974 1.387 . S
C978 C979 1.387 . S
C978 H982 0.950 . S
C978 C987 1.390 . S
C979 C978 1.387 . S
C979 C981 1.387 . S
H980 C987 0.950 . S
C981 C979 1.387 . S
C981 C983 1.390 . S
C981 H985 0.950 . S
H982 C978 0.950 . S
C983 C981 1.390 . S
C983 C984 1.387 . S
C983 H986 0.950 . S
C984 C983 1.387 . S
C984 C987 1.387 . S
H985 C981 0.950 . S
H986 C983 0.950 . S
C987 C978 1.390 . S
C987 H980 0.950 . S
C987 C984 1.387 . S
C988 C989 1.387 . S
C988 H992 0.950 . S
C988 C997 1.390 . S
C989 C988 1.387 . S
C989 C991 1.387 . S
H990 C997 0.950 . S
C991 C989 1.387 . S
C991 C993 1.390 . S
C991 H995 0.950 . S
H992 C988 0.950 . S
C993 C991 1.390 . S
C993 C994 1.387 . S
C993 H996 0.950 . S
C994 C993 1.387 . S
C994 C997 1.387 . S
H995 C991 0.950 . S
H996 C993 0.950 . S
C997 C988 1.390 . S
C997 H990 0.950 . S
C997 C994 1.387 . S
C998 C999 1.387 . S
C998 H1002 0.950 . S
C998 C1007 1.390 . S
C999 C998 1.387 . S
C999 C1001 1.387 . S
H1000 C1007 0.950 . S
C1001 C999 1.387 . S
C1001 C1003 1.390 . S
C1001 H1005 0.950 . S
H1002 C998 0.950 . S
C1003 C1001 1.390 . S
C1003 C1004 1.387 . S
C1003 H1006 0.950 . S
C1004 C1003 1.387 . S
C1004 C1007 1.387 . S
H1005 C1001 0.950 . S
H1006 C1003 0.950 . S
C1007 C998 1.390 . S
C1007 H1000 0.950 . S
C1007 C1004 1.387 . S
C1008 C1009 1.387 . S
C1008 H1012 0.950 . S
C1008 C1017 1.390 . S
C1009 C1008 1.387 . S
C1009 C1011 1.387 . S
H1010 C1017 0.950 . S
C1011 C1009 1.387 . S
C1011 C1013 1.390 . S
C1011 H1015 0.950 . S
H1012 C1008 0.950 . S
C1013 C1011 1.390 . S
C1013 C1014 1.387 . S
C1013 H1016 0.950 . S
C1014 C1013 1.387 . S
C1014 C1017 1.387 . S
H1015 C1011 0.950 . S
H1016 C1013 0.950 . S
C1017 C1008 1.390 . S
C1017 H1010 0.950 . S
C1017 C1014 1.387 . S
C1018 C1019 1.387 . S
C1018 H1022 0.950 . S
C1018 C1027 1.390 . S
C1019 C1018 1.387 . S
C1019 C1021 1.387 . S
H1020 C1027 0.950 . S
C1021 C1019 1.387 . S
C1021 C1023 1.390 . S
C1021 H1025 0.950 . S
H1022 C1018 0.950 . S
C1023 C1021 1.390 . S
C1023 C1024 1.387 . S
C1023 H1026 0.950 . S
C1024 C1023 1.387 . S
C1024 C1027 1.387 . S
H1025 C1021 0.950 . S
H1026 C1023 0.950 . S
C1027 C1018 1.390 . S
C1027 H1020 0.950 . S
C1027 C1024 1.387 . S
C1028 C1029 1.387 . S
C1028 H1032 0.950 . S
C1028 C1037 1.390 . S
C1029 C1028 1.387 . S
C1029 C1031 1.387 . S
H1030 C1037 0.950 . S
C1031 C1029 1.387 . S
C1031 C1033 1.390 . S
C1031 H1035 0.950 . S
H1032 C1028 0.950 . S
C1033 C1031 1.390 . S
C1033 C1034 1.387 . S
C1033 H1036 0.950 . S
C1034 C1033 1.387 . S
C1034 C1037 1.387 . S
H1035 C1031 0.950 . S
H1036 C1033 0.950 . S
C1037 C1028 1.390 . S
C1037 H1030 0.950 . S
C1037 C1034 1.387 . S
C1038 C1039 1.387 . S
C1038 H1042 0.950 . S
C1038 C1047 1.390 . S
C1039 C1038 1.387 . S
C1039 C1041 1.387 . S
H1040 C1047 0.950 . S
C1041 C1039 1.387 . S
C1041 C1043 1.390 . S
C1041 H1045 0.950 . S
H1042 C1038 0.950 . S
C1043 C1041 1.390 . S
C1043 C1044 1.387 . S
C1043 H1046 0.950 . S
C1044 C1043 1.387 . S
C1044 C1047 1.387 . S
H1045 C1041 0.950 . S
H1046 C1043 0.950 . S
C1047 C1038 1.390 . S
C1047 H1040 0.950 . S
C1047 C1044 1.387 . S
C1048 C1049 1.387 . S
C1048 H1052 0.950 . S
C1048 C1057 1.390 . S
C1049 C1048 1.387 . S
C1049 C1051 1.387 . S
H1050 C1057 0.950 . S
C1051 C1049 1.387 . S
C1051 C1053 1.390 . S
C1051 H1055 0.950 . S
H1052 C1048 0.950 . S
C1053 C1051 1.390 . S
C1053 C1054 1.387 . S
C1053 H1056 0.950 . S
C1054 C1053 1.387 . S
C1054 C1057 1.387 . S
H1055 C1051 0.950 . S
H1056 C1053 0.950 . S
C1057 C1048 1.390 . S
C1057 H1050 0.950 . S
C1057 C1054 1.387 . S
C1058 C1059 1.387 . S
C1058 H1062 0.950 . S
C1058 C1067 1.390 . S
C1059 C1058 1.387 . S
C1059 C1061 1.387 . S
H1060 C1067 0.950 . S
C1061 C1059 1.387 . S
C1061 C1063 1.390 . S
C1061 H1065 0.950 . S
H1062 C1058 0.950 . S
C1063 C1061 1.390 . S
C1063 C1064 1.387 . S
C1063 H1066 0.950 . S
C1064 C1063 1.387 . S
C1064 C1067 1.387 . S
H1065 C1061 0.950 . S
H1066 C1063 0.950 . S
C1067 C1058 1.390 . S
C1067 H1060 0.950 . S
C1067 C1064 1.387 . S
C1068 C1069 1.387 . S
C1068 H1072 0.950 . S
C1068 C1077 1.390 . S
C1069 C1068 1.387 . S
C1069 C1071 1.387 . S
H1070 C1077 0.950 . S
C1071 C1069 1.387 . S
C1071 C1073 1.390 . S
C1071 H1075 0.950 . S
H1072 C1068 0.950 . S
C1073 C1071 1.390 . S
C1073 C1074 1.387 . S
C1073 H1076 0.950 . S
C1074 C1073 1.387 . S
C1074 C1077 1.387 . S
H1075 C1071 0.950 . S
H1076 C1073 0.950 . S
C1077 C1068 1.390 . S
C1077 H1070 0.950 . S
C1077 C1074 1.387 . S
C1078 C1079 1.387 . S
C1078 H1082 0.950 . S
C1078 C1087 1.390 . S
C1079 C1078 1.387 . S
C1079 C1081 1.387 . S
H1080 C1087 0.950 . S
C1081 C1079 1.387 . S
C1081 C1083 1.390 . S
C1081 H1085 0.950 . S
H1082 C1078 0.950 . S
C1083 C1081 1.390 . S
C1083 C1084 1.387 . S
C1083 H1086 0.950 . S
C1084 C1083 1.387 . S
C1084 C1087 1.387 . S
H1085 C1081 0.950 . S
H1086 C1083 0.950 . S
C1087 C1078 1.390 . S
C1087 H1080 0.950 . S
C1087 C1084 1.387 . S
C1088 C1089 1.387 . S
C1088 H1092 0.950 . S
C1088 C1097 1.390 . S
C1089 C1088 1.387 . S
C1089 C1091 1.387 . S
H1090 C1097 0.950 . S
C1091 C1089 1.387 . S
C1091 C1093 1.390 . S
C1091 H1095 0.950 . S
H1092 C1088 0.950 . S
C1093 C1091 1.390 . S
C1093 C1094 1.387 . S
C1093 H1096 0.950 . S
C1094 C1093 1.387 . S
C1094 C1097 1.387 . S
H1095 C1091 0.950 . S
H1096 C1093 0.950 . S
C1097 C1088 1.390 . S
C1097 H1090 0.950 . S
C1097 C1094 1.387 . S
C1098 C1099 1.387 . S
C1098 H1102 0.950 . S
C1098 C1107 1.390 . S
C1099 C1098 1.387 . S
C1099 C1101 1.387 . S
H1100 C1107 0.950 . S
C1101 C1099 1.387 . S
C1101 C1103 1.390 . S
C1101 H1105 0.950 . S
H1102 C1098 0.950 . S
C1103 C1101 1.390 . S
C1103 C1104 1.387 . S
C1103 H1106 0.950 . S
C1104 C1103 1.387 . S
C1104 C1107 1.387 . S
H1105 C1101 0.950 . S
H1106 C1103 0.950 . S
C1107 C1098 1.390 . S
C1107 H1100 0.950 . S
C1107 C1104 1.387 . S
C1108 C1109 1.387 . S
C1108 H1112 0.950 . S
C1108 C1117 1.390 . S
C1109 C1108 1.387 . S
C1109 C1111 1.387 . S
H1110 C1117 0.950 . S
C1111 C1109 1.387 . S
C1111 C1113 1.390 . S
C1111 H1115 0.950 . S
H1112 C1108 0.950 . S
C1113 C1111 1.390 . S
C1113 C1114 1.387 . S
C1113 H1116 0.950 . S
C1114 C1113 1.387 . S
C1114 C1117 1.387 . S
H1115 C1111 0.950 . S
H1116 C1113 0.950 . S
C1117 C1108 1.390 . S
C1117 H1110 0.950 . S
C1117 C1114 1.387 . S
C1118 C1119 1.387 . S
C1118 H1122 0.950 . S
C1118 C1127 1.390 . S
C1119 C1118 1.387 . S
C1119 C1121 1.387 . S
H1120 C1127 0.950 . S
C1121 C1119 1.387 . S
C1121 C1123 1.390 . S
C1121 H1125 0.950 . S
H1122 C1118 0.950 . S
C1123 C1121 1.390 . S
C1123 C1124 1.387 . S
C1123 H1126 0.950 . S
C1124 C1123 1.387 . S
C1124 C1127 1.387 . S
H1125 C1121 0.950 . S
H1126 C1123 0.950 . S
C1127 C1118 1.390 . S
C1127 H1120 0.950 . S
C1127 C1124 1.387 . S
C1128 C1129 1.387 . S
C1128 H1132 0.950 . S
C1128 C1137 1.390 . S
C1129 C1128 1.387 . S
C1129 C1131 1.387 . S
H1130 C1137 0.950 . S
C1131 C1129 1.387 . S
C1131 C1133 1.390 . S
C1131 H1135 0.950 . S
H1132 C1128 0.950 . S
C1133 C1131 1.390 . S
C1133 C1134 1.387 . S
C1133 H1136 0.950 . S
C1134 C1133 1.387 . S
C1134 C1137 1.387 . S
H1135 C1131 0.950 . S
H1136 C1133 0.950 . S
C1137 C1128 1.390 . S
C1137 H1130 0.950 . S
C1137 C1134 1.387 . S
C1138 C1139 1.387 . S
C1138 H1142 0.950 . S
C1138 C1147 1.390 . S
C1139 C1138 1.387 . S
C1139 C1141 1.387 . S
H1140 C1147 0.950 . S
C1141 C1139 1.387 . S
C1141 C1143 1.390 . S
C1141 H1145 0.950 . S
H1142 C1138 0.950 . S
C1143 C1141 1.390 . S
C1143 C1144 1.387 . S
C1143 H1146 0.950 . S
C1144 C1143 1.387 . S
C1144 C1147 1.387 . S
H1145 C1141 0.950 . S
H1146 C1143 0.950 . S
C1147 C1138 1.390 . S
C1147 H1140 0.950 . S
C1147 C1144 1.387 . S
C1148 C1149 1.387 . S
C1148 H1152 0.950 . S
C1148 C1157 1.390 . S
C1149 C1148 1.387 . S
C1149 C1151 1.387 . S
H1150 C1157 0.950 . S
C1151 C1149 1.387 . S
C1151 C1153 1.390 . S
C1151 H1155 0.950 . S
H1152 C1148 0.950 . S
C1153 C1151 1.390 . S
C1153 C1154 1.387 . S
C1153 H1156 0.950 . S
C1154 C1153 1.387 . S
C1154 C1157 1.387 . S
H1155 C1151 0.950 . S
H1156 C1153 0.950 . S
C1157 C1148 1.390 . S
C1157 H1150 0.950 . S
C1157 C1154 1.387 . S
C1158 C1159 1.387 . S
C1158 H1162 0.950 . S
C1158 C1167 1.390 . S
C1159 C1158 1.387 . S
C1159 C1161 1.387 . S
H1160 C1167 0.950 . S
C1161 C1159 1.387 . S
C1161 C1163 1.390 . S
C1161 H1165 0.950 . S
H1162 C1158 0.950 . S
C1163 C1161 1.390 . S
C1163 C1164 1.387 . S
C1163 H1166 0.950 . S
C1164 C1163 1.387 . S
C1164 C1167 1.387 . S
H1165 C1161 0.950 . S
H1166 C1163 0.950 . S
C1167 C1158 1.390 . S
C1167 H1160 0.950 . S
C1167 C1164 1.387 . S
C1168 C1169 1.387 . S
C1168 H1172 0.950 . S
C1168 C1177 1.390 . S
C1169 C1168 1.387 . S
C1169 C1171 1.387 . S
H1170 C1177 0.950 . S
C1171 C1169 1.387 . S
C1171 C1173 1.390 . S
C1171 H1175 0.950 . S
H1172 C1168 0.950 . S
C1173 C1171 1.390 . S
C1173 C1174 1.387 . S
C1173 H1176 0.950 . S
C1174 C1173 1.387 . S
C1174 C1177 1.387 . S
H1175 C1171 0.950 . S
H1176 C1173 0.950 . S
C1177 C1168 1.390 . S
C1177 H1170 0.950 . S
C1177 C1174 1.387 . S
C1178 C1179 1.387 . S
C1178 H1182 0.950 . S
C1178 C1187 1.390 . S
C1179 C1178 1.387 . S
C1179 C1181 1.387 . S
H1180 C1187 0.950 . S
C1181 C1179 1.387 . S
C1181 C1183 1.390 . S
C1181 H1185 0.950 . S
H1182 C1178 0.950 . S
C1183 C1181 1.390 . S
C1183 C1184 1.387 . S
C1183 H1186 0.950 . S
C1184 C1183 1.387 . S
C1184 C1187 1.387 . S
H1185 C1181 0.950 . S
H1186 C1183 0.950 . S
C1187 C1178 1.390 . S
C1187 H1180 0.950 . S
C1187 C1184 1.387 . S
C1188 C1189 1.387 . S
C1188 H1192 0.950 . S
C1188 C1197 1.390 . S
C1189 C1188 1.387 . S
C1189 C1191 1.387 . S
H1190 C1197 0.950 . S
C1191 C1189 1.387 . S
C1191 C1193 1.390 . S
C1191 H1195 0.950 . S
H1192 C1188 0.950 . S
C1193 C1191 1.390 . S
C1193 C1194 1.387 . S
C1193 H1196 0.950 . S
C1194 C1193 1.387 . S
C1194 C1197 1.387 . S
H1195 C1191 0.950 . S
H1196 C1193 0.950 . S
C1197 C1188 1.390 . S
C1197 H1190 0.950 . S
C1197 C1194 1.387 . S
C1198 C1199 1.387 . S
C1198 H1202 0.950 . S
C1198 C1207 1.390 . S
C1199 C1198 1.387 . S
C1199 C1201 1.387 . S
H1200 C1207 0.950 . S
C1201 C1199 1.387 . S
C1201 C1203 1.390 . S
C1201 H1205 0.950 . S
H1202 C1198 0.950 . S
C1203 C1201 1.390 . S
C1203 C1204 1.387 . S
C1203 H1206 0.950 . S
C1204 C1203 1.387 . S
C1204 C1207 1.387 . S
H1205 C1201 0.950 . S
H1206 C1203 0.950 . S
C1207 C1198 1.390 . S
C1207 H1200 0.950 . S
C1207 C1204 1.387 . S
C1208 C1209 1.387 . S
C1208 H1212 0.950 . S
C1208 C1217 1.390 . S
C1209 C1208 1.387 . S
C1209 C1211 1.387 . S
H1210 C1217 0.950 . S
C1211 C1209 1.387 . S
C1211 C1213 1.390 . S
C1211 H1215 0.950 . S
H1212 C1208 0.950 . S
C1213 C1211 1.390 . S
C1213 C1214 1.387 . S
C1213 H1216 0.950 . S
C1214 C1213 1.387 . S
C1214 C1217 1.387 . S
H1215 C1211 0.950 . S
H1216 C1213 0.950 . S
C1217 C1208 1.390 . S
C1217 H1210 0.950 . S
C1217 C1214 1.387 . S
C1218 C1219 1.387 . S
C1218 H1222 0.950 . S
C1218 C1227 1.390 . S
C1219 C1218 1.387 . S
C1219 C1221 1.387 . S
H1220 C1227 0.950 . S
C1221 C1219 1.387 . S
C1221 C1223 1.390 . S
C1221 H1225 0.950 . S
H1222 C1218 0.950 . S
C1223 C1221 1.390 . S
C1223 C1224 1.387 . S
C1223 H1226 0.950 . S
C1224 C1223 1.387 . S
C1224 C1227 1.387 . S
H1225 C1221 0.950 . S
H1226 C1223 0.950 . S
C1227 C1218 1.390 . S
C1227 H1220 0.950 . S
C1227 C1224 1.387 . S
C1228 C1229 1.387 . S
C1228 H1232 0.950 . S
C1228 C1237 1.390 . S
C1229 C1228 1.387 . S
C1229 C1231 1.387 . S
H1230 C1237 0.950 . S
C1231 C1229 1.387 . S
C1231 C1233 1.390 . S
C1231 H1235 0.950 . S
H1232 C1228 0.950 . S
C1233 C1231 1.390 . S
C1233 C1234 1.387 . S
C1233 H1236 0.950 . S
C1234 C1233 1.387 . S
C1234 C1237 1.387 . S
H1235 C1231 0.950 . S
H1236 C1233 0.950 . S
C1237 C1228 1.390 . S
C1237 H1230 0.950 . S
C1237 C1234 1.387 . S
C1238 C1239 1.387 . S
C1238 H1242 0.950 . S
C1238 C1247 1.390 . S
C1239 C1238 1.387 . S
C1239 C1241 1.387 . S
H1240 C1247 0.950 . S
C1241 C1239 1.387 . S
C1241 C1243 1.390 . S
C1241 H1245 0.950 . S
H1242 C1238 0.950 . S
C1243 C1241 1.390 . S
C1243 C1244 1.387 . S
C1243 H1246 0.950 . S
C1244 C1243 1.387 . S
C1244 C1247 1.387 . S
H1245 C1241 0.950 . S
H1246 C1243 0.950 . S
C1247 C1238 1.390 . S
C1247 H1240 0.950 . S
C1247 C1244 1.387 . S
C1248 C1249 1.387 . S
C1248 H1252 0.950 . S
C1248 C1257 1.390 . S
C1249 C1248 1.387 . S
C1249 C1251 1.387 . S
H1250 C1257 0.950 . S
C1251 C1249 1.387 . S
C1251 C1253 1.390 . S
C1251 H1255 0.950 . S
H1252 C1248 0.950 . S
C1253 C1251 1.390 . S
C1253 C1254 1.387 . S
C1253 H1256 0.950 . S
C1254 C1253 1.387 . S
C1254 C1257 1.387 . S
H1255 C1251 0.950 . S
H1256 C1253 0.950 . S
C1257 C1248 1.390 . S
C1257 H1250 0.950 . S
C1257 C1254 1.387 . S
C1258 C1259 1.387 . S
C1258 H1262 0.950 . S
C1258 C1267 1.390 . S
C1259 C1258 1.387 . S
C1259 C1261 1.387 . S
H1260 C1267 0.950 . S
C1261 C1259 1.387 . S
C1261 C1263 1.390 . S
C1261 H1265 0.950 . S
H1262 C1258 0.950 . S
C1263 C1261 1.390 . S
C1263 C1264 1.387 . S
C1263 H1266 0.950 . S
C1264 C1263 1.387 . S
C1264 C1267 1.387 . S
H1265 C1261 0.950 . S
H1266 C1263 0.950 . S
C1267 C1258 1.390 . S
C1267 H1260 0.950 . S
C1267 C1264 1.387 . S
C1268 C1269 1.387 . S
C1268 H1272 0.950 . S
C1268 C1277 1.390 . S
C1269 C1268 1.387 . S
C1269 C1271 1.387 . S
H1270 C1277 0.950 . S
C1271 C1269 1.387 . S
C1271 C1273 1.390 . S
C1271 H1275 0.950 . S
H1272 C1268 0.950 . S
C1273 C1271 1.390 . S
C1273 C1274 1.387 . S
C1273 H1276 0.950 . S
C1274 C1273 1.387 . S
C1274 C1277 1.387 . S
H1275 C1271 0.950 . S
H1276 C1273 0.950 . S
C1277 C1268 1.390 . S
C1277 H1270 0.950 . S
C1277 C1274 1.387 . S
C1278 C1279 1.387 . S
C1278 H1282 0.950 . S
C1278 C1287 1.390 . S
C1279 C1278 1.387 . S
C1279 C1281 1.387 . S
H1280 C1287 0.950 . S
C1281 C1279 1.387 . S
C1281 C1283 1.390 . S
C1281 H1285 0.950 . S
H1282 C1278 0.950 . S
C1283 C1281 1.390 . S
C1283 C1284 1.387 . S
C1283 H1286 0.950 . S
C1284 C1283 1.387 . S
C1284 C1287 1.387 . S
H1285 C1281 0.950 . S
H1286 C1283 0.950 . S
C1287 C1278 1.390 . S
C1287 H1280 0.950 . S
C1287 C1284 1.387 . S
C1288 C1289 1.387 . S
C1288 H1292 0.950 . S
C1288 C1297 1.390 . S
C1289 C1288 1.387 . S
C1289 C1291 1.387 . S
H1290 C1297 0.950 . S
C1291 C1289 1.387 . S
C1291 C1293 1.390 . S
C1291 H1295 0.950 . S
H1292 C1288 0.950 . S
C1293 C1291 1.390 . S
C1293 C1294 1.387 . S
C1293 H1296 0.950 . S
C1294 C1293 1.387 . S
C1294 C1297 1.387 . S
H1295 C1291 0.950 . S
H1296 C1293 0.950 . S
C1297 C1288 1.390 . S
C1297 H1290 0.950 . S
C1297 C1294 1.387 . S
C1298 C1299 1.387 . S
C1298 H1302 0.950 . S
C1298 C1307 1.390 . S
C1299 C1298 1.387 . S
C1299 C1301 1.387 . S
H1300 C1307 0.950 . S
C1301 C1299 1.387 . S
C1301 C1303 1.390 . S
C1301 H1305 0.950 . S
H1302 C1298 0.950 . S
C1303 C1301 1.390 . S
C1303 C1304 1.387 . S
C1303 H1306 0.950 . S
C1304 C1303 1.387 . S
C1304 C1307 1.387 . S
H1305 C1301 0.950 . S
H1306 C1303 0.950 . S
C1307 C1298 1.390 . S
C1307 H1300 0.950 . S
C1307 C1304 1.387 . S
C1308 C1309 1.387 . S
C1308 H1312 0.950 . S
C1308 C1317 1.390 . S
C1309 C1308 1.387 . S
C1309 C1311 1.387 . S
H1310 C1317 0.950 . S
C1311 C1309 1.387 . S
C1311 C1313 1.390 . S
C1311 H1315 0.950 . S
H1312 C1308 0.950 . S
C1313 C1311 1.390 . S
C1313 C1314 1.387 . S
C1313 H1316 0.950 . S
C1314 C1313 1.387 . S
C1314 C1317 1.387 . S
H1315 C1311 0.950 . S
H1316 C1313 0.950 . S
C1317 C1308 1.390 . S
C1317 H1310 0.950 . S
C1317 C1314 1.387 . S
C1318 C1319 1.387 . S
C1318 H1322 0.950 . S
C1318 C1327 1.390 . S
C1319 C1318 1.387 . S
C1319 C1321 1.387 . S
H1320 C1327 0.950 . S
C1321 C1319 1.387 . S
C1321 C1323 1.390 . S
C1321 H1325 0.950 . S
H1322 C1318 0.950 . S
C1323 C1321 1.390 . S
C1323 C1324 1.387 . S
C1323 H1326 0.950 . S
C1324 C1323 1.387 . S
C1324 C1327 1.387 . S
H1325 C1321 0.950 . S
H1326 C1323 0.950 . S
C1327 C1318 1.390 . S
C1327 H1320 0.950 . S
C1327 C1324 1.387 . S
C1328 C1329 1.387 . S
C1328 H1332 0.950 . S
C1328 C1337 1.390 . S
C1329 C1328 1.387 . S
C1329 C1331 1.387 . S
H1330 C1337 0.950 . S
C1331 C1329 1.387 . S
C1331 C1333 1.390 . S
C1331 H1335 0.950 . S
H1332 C1328 0.950 . S
C1333 C1331 1.390 . S
C1333 C1334 1.387 . S
C1333 H1336 0.950 . S
C1334 C1333 1.387 . S
C1334 C1337 1.387 . S
H1335 C1331 0.950 . S
H1336 C1333 0.950 . S
C1337 C1328 1.390 . S
C1337 H1330 0.950 . S
C1337 C1334 1.387 . S
C864 C683 1.747 . S
C859 C56 1.726 . S
C874 C673 1.304 . S
C869 C154 1.258 . S
C884 C674 1.433 . S
C879 C236 1.417 . S
C889 C310 0.920 . S
C894 C696 0.868 . S
C899 C394 1.259 . S
C904 C699 1.307 . S
C914 C682 1.434 . S
C909 C476 1.417 . S
C919 C574 0.919 . S
C924 C672 0.867 . S
C929 C656 1.726 . S
C934 C690 1.747 . S
C944 C703 2.425 . S
C939 C67 2.523 . S
C949 C139 1.685 . S
C954 C752 1.656 . S
C964 C730 1.366 . S
C959 C238 1.385 . S
C974 C744 1.419 . S
C969 C308 1.394 . S
C979 C392 1.410 . S
C984 C705 1.399 . S
C994 C758 2.428 . S
C989 C487 2.545 . S
C999 C559 1.694 . S
C1004 C714 1.679 . S
C1009 C658 1.282 . S
C1014 C735 1.316 . S
C1019 C58 1.279 . S
C1024 C761 1.312 . S
C1029 C403 1.684 . S
C1034 C745 1.657 . S
C1044 C704 1.363 . S
C1039 C478 1.386 . S
C1054 C736 1.419 . S
C1049 C572 1.394 . S
C1059 C643 2.524 . S
C1064 C727 2.426 . S
C1069 C223 2.545 . S
C1074 C734 2.428 . S
C1084 C721 1.679 . S
C1079 C319 1.694 . S
C1089 C152 1.409 . S
C1094 C713 1.398 . S
C1099 C644 1.725 . S
C1104 C776 1.746 . S
C1109 C406 1.258 . S
C1114 C766 1.303 . S
C1124 C767 1.433 . S
C1119 C488 1.418 . S
C1134 C789 0.867 . S
C1129 C562 0.919 . S
C1139 C142 1.259 . S
C1144 C792 1.307 . S
C1154 C775 1.432 . S
C1149 C224 1.415 . S
C1159 C322 0.914 . S
C1164 C765 0.869 . S
C1169 C68 1.725 . S
C1174 C783 1.747 . S
C1179 C655 2.523 . S
C1184 C796 2.425 . S
C1194 C845 1.656 . S
C1189 C391 1.685 . S
C1199 C490 1.386 . S
C1204 C823 1.363 . S
C1209 C560 1.396 . S
C1214 C837 1.419 . S
C1224 C798 1.399 . S
C1219 C140 1.410 . S
C1229 C235 2.544 . S
C1234 C851 2.427 . S
C1244 C807 1.679 . S
C1239 C307 1.695 . S
C1254 C828 1.315 . S
C1249 C70 1.282 . S
C1264 C854 1.313 . S
C1259 C646 1.282 . S
C1269 C151 1.684 . S
C1274 C838 1.657 . S
C1279 C226 1.387 . S
C1284 C797 1.363 . S
C1294 C829 1.419 . S
C1289 C320 1.394 . S
C1299 C55 2.523 . S
C1304 C820 2.427 . S
C1309 C475 2.544 . S
C1314 C827 2.427 . S
C1324 C814 1.680 . S
C1319 C571 1.693 . S
C1334 C806 1.399 . S
C1329 C404 1.410 . S
