# Generated by pormake.
# Topology gar, (4,6)-cn, num edge types: 1
# Building blocks:
#     Node 0, Type 0, BuildingBlock: AZAVOO_clean_sbu_0, # of connection points: 4
#     Node 1, Type 0, BuildingBlock: AZAVOO_clean_sbu_0, # of connection points: 4
#     Node 2, Type 0, BuildingBlock: AZAVOO_clean_sbu_0, # of connection points: 4
#     Node 3, Type 0, BuildingBlock: AZAVOO_clean_sbu_0, # of connection points: 4
#     Node 4, Type 0, BuildingBlock: AZAVOO_clean_sbu_0, # of connection points: 4
#     Node 5, Type 0, BuildingBlock: AZAVOO_clean_sbu_0, # of connection points: 4
#     Node 6, Type 0, BuildingBlock: AZAVOO_clean_sbu_0, # of connection points: 4
#     Node 7, Type 0, BuildingBlock: AZAVOO_clean_sbu_0, # of connection points: 4
#     Node 8, Type 0, BuildingBlock: AZAVOO_clean_sbu_0, # of connection points: 4
#     Node 9, Type 0, BuildingBlock: AZAVOO_clean_sbu_0, # of connection points: 4
#     Node 10, Type 0, BuildingBlock: AZAVOO_clean_sbu_0, # of connection points: 4
#     Node 11, Type 0, BuildingBlock: AZAVOO_clean_sbu_0, # of connection points: 4
#     Node 12, Type 0, BuildingBlock: AZAVOO_clean_sbu_0, # of connection points: 4
#     Node 13, Type 0, BuildingBlock: AZAVOO_clean_sbu_0, # of connection points: 4
#     Node 14, Type 0, BuildingBlock: AZAVOO_clean_sbu_0, # of connection points: 4
#     Node 15, Type 0, BuildingBlock: AZAVOO_clean_sbu_0, # of connection points: 4
#     Node 16, Type 0, BuildingBlock: AZAVOO_clean_sbu_0, # of connection points: 4
#     Node 17, Type 0, BuildingBlock: AZAVOO_clean_sbu_0, # of connection points: 4
#     Node 18, Type 0, BuildingBlock: AZAVOO_clean_sbu_0, # of connection points: 4
#     Node 19, Type 0, BuildingBlock: AZAVOO_clean_sbu_0, # of connection points: 4
#     Node 20, Type 0, BuildingBlock: AZAVOO_clean_sbu_0, # of connection points: 4
#     Node 21, Type 0, BuildingBlock: AZAVOO_clean_sbu_0, # of connection points: 4
#     Node 22, Type 0, BuildingBlock: AZAVOO_clean_sbu_0, # of connection points: 4
#     Node 23, Type 0, BuildingBlock: AZAVOO_clean_sbu_0, # of connection points: 4
#     Node 24, Type 1, BuildingBlock: BETGAK_clean_sbu_0, # of connection points: 6
#     Node 25, Type 1, BuildingBlock: BETGAK_clean_sbu_0, # of connection points: 6
#     Node 26, Type 1, BuildingBlock: BETGAK_clean_sbu_0, # of connection points: 6
#     Node 27, Type 1, BuildingBlock: BETGAK_clean_sbu_0, # of connection points: 6
#     Node 28, Type 1, BuildingBlock: BETGAK_clean_sbu_0, # of connection points: 6
#     Node 29, Type 1, BuildingBlock: BETGAK_clean_sbu_0, # of connection points: 6
#     Node 30, Type 1, BuildingBlock: BETGAK_clean_sbu_0, # of connection points: 6
#     Node 31, Type 1, BuildingBlock: BETGAK_clean_sbu_0, # of connection points: 6
#     Node 32, Type 1, BuildingBlock: BETGAK_clean_sbu_0, # of connection points: 6
#     Node 33, Type 1, BuildingBlock: BETGAK_clean_sbu_0, # of connection points: 6
#     Node 34, Type 1, BuildingBlock: BETGAK_clean_sbu_0, # of connection points: 6
#     Node 35, Type 1, BuildingBlock: BETGAK_clean_sbu_0, # of connection points: 6
#     Node 36, Type 1, BuildingBlock: BETGAK_clean_sbu_0, # of connection points: 6
#     Node 37, Type 1, BuildingBlock: BETGAK_clean_sbu_0, # of connection points: 6
#     Node 38, Type 1, BuildingBlock: BETGAK_clean_sbu_0, # of connection points: 6
#     Node 39, Type 1, BuildingBlock: BETGAK_clean_sbu_0, # of connection points: 6
#     Edge 40, Type (0, 1), BuildingBlock: KIFKEQ_clean_linker_1, # of connection points: 2
#     Edge 41, Type (0, 1), BuildingBlock: KIFKEQ_clean_linker_1, # of connection points: 2
#     Edge 42, Type (0, 1), BuildingBlock: KIFKEQ_clean_linker_1, # of connection points: 2
#     Edge 43, Type (0, 1), BuildingBlock: KIFKEQ_clean_linker_1, # of connection points: 2
#     Edge 44, Type (0, 1), BuildingBlock: KIFKEQ_clean_linker_1, # of connection points: 2
#     Edge 45, Type (0, 1), BuildingBlock: KIFKEQ_clean_linker_1, # of connection points: 2
#     Edge 46, Type (0, 1), BuildingBlock: KIFKEQ_clean_linker_1, # of connection points: 2
#     Edge 47, Type (0, 1), BuildingBlock: KIFKEQ_clean_linker_1, # of connection points: 2
#     Edge 48, Type (0, 1), BuildingBlock: KIFKEQ_clean_linker_1, # of connection points: 2
#     Edge 49, Type (0, 1), BuildingBlock: KIFKEQ_clean_linker_1, # of connection points: 2
#     Edge 50, Type (0, 1), BuildingBlock: KIFKEQ_clean_linker_1, # of connection points: 2
#     Edge 51, Type (0, 1), BuildingBlock: KIFKEQ_clean_linker_1, # of connection points: 2
#     Edge 52, Type (0, 1), BuildingBlock: KIFKEQ_clean_linker_1, # of connection points: 2
#     Edge 53, Type (0, 1), BuildingBlock: KIFKEQ_clean_linker_1, # of connection points: 2
#     Edge 54, Type (0, 1), BuildingBlock: KIFKEQ_clean_linker_1, # of connection points: 2
#     Edge 55, Type (0, 1), BuildingBlock: KIFKEQ_clean_linker_1, # of connection points: 2
#     Edge 56, Type (0, 1), BuildingBlock: KIFKEQ_clean_linker_1, # of connection points: 2
#     Edge 57, Type (0, 1), BuildingBlock: KIFKEQ_clean_linker_1, # of connection points: 2
#     Edge 58, Type (0, 1), BuildingBlock: KIFKEQ_clean_linker_1, # of connection points: 2
#     Edge 59, Type (0, 1), BuildingBlock: KIFKEQ_clean_linker_1, # of connection points: 2
#     Edge 60, Type (0, 1), BuildingBlock: KIFKEQ_clean_linker_1, # of connection points: 2
#     Edge 61, Type (0, 1), BuildingBlock: KIFKEQ_clean_linker_1, # of connection points: 2
#     Edge 62, Type (0, 1), BuildingBlock: KIFKEQ_clean_linker_1, # of connection points: 2
#     Edge 63, Type (0, 1), BuildingBlock: KIFKEQ_clean_linker_1, # of connection points: 2
#     Edge 64, Type (0, 1), BuildingBlock: KIFKEQ_clean_linker_1, # of connection points: 2
#     Edge 65, Type (0, 1), BuildingBlock: KIFKEQ_clean_linker_1, # of connection points: 2
#     Edge 66, Type (0, 1), BuildingBlock: KIFKEQ_clean_linker_1, # of connection points: 2
#     Edge 67, Type (0, 1), BuildingBlock: KIFKEQ_clean_linker_1, # of connection points: 2
#     Edge 68, Type (0, 1), BuildingBlock: KIFKEQ_clean_linker_1, # of connection points: 2
#     Edge 69, Type (0, 1), BuildingBlock: KIFKEQ_clean_linker_1, # of connection points: 2
#     Edge 70, Type (0, 1), BuildingBlock: KIFKEQ_clean_linker_1, # of connection points: 2
#     Edge 71, Type (0, 1), BuildingBlock: KIFKEQ_clean_linker_1, # of connection points: 2
#     Edge 72, Type (0, 1), BuildingBlock: KIFKEQ_clean_linker_1, # of connection points: 2
#     Edge 73, Type (0, 1), BuildingBlock: KIFKEQ_clean_linker_1, # of connection points: 2
#     Edge 74, Type (0, 1), BuildingBlock: KIFKEQ_clean_linker_1, # of connection points: 2
#     Edge 75, Type (0, 1), BuildingBlock: KIFKEQ_clean_linker_1, # of connection points: 2
#     Edge 76, Type (0, 1), BuildingBlock: KIFKEQ_clean_linker_1, # of connection points: 2
#     Edge 77, Type (0, 1), BuildingBlock: KIFKEQ_clean_linker_1, # of connection points: 2
#     Edge 78, Type (0, 1), BuildingBlock: KIFKEQ_clean_linker_1, # of connection points: 2
#     Edge 79, Type (0, 1), BuildingBlock: KIFKEQ_clean_linker_1, # of connection points: 2
#     Edge 80, Type (0, 1), BuildingBlock: KIFKEQ_clean_linker_1, # of connection points: 2
#     Edge 81, Type (0, 1), BuildingBlock: KIFKEQ_clean_linker_1, # of connection points: 2
#     Edge 82, Type (0, 1), BuildingBlock: KIFKEQ_clean_linker_1, # of connection points: 2
#     Edge 83, Type (0, 1), BuildingBlock: KIFKEQ_clean_linker_1, # of connection points: 2
#     Edge 84, Type (0, 1), BuildingBlock: KIFKEQ_clean_linker_1, # of connection points: 2
#     Edge 85, Type (0, 1), BuildingBlock: KIFKEQ_clean_linker_1, # of connection points: 2
#     Edge 86, Type (0, 1), BuildingBlock: KIFKEQ_clean_linker_1, # of connection points: 2
#     Edge 87, Type (0, 1), BuildingBlock: KIFKEQ_clean_linker_1, # of connection points: 2
#     Edge 88, Type (0, 1), BuildingBlock: KIFKEQ_clean_linker_1, # of connection points: 2
#     Edge 89, Type (0, 1), BuildingBlock: KIFKEQ_clean_linker_1, # of connection points: 2
#     Edge 90, Type (0, 1), BuildingBlock: KIFKEQ_clean_linker_1, # of connection points: 2
#     Edge 91, Type (0, 1), BuildingBlock: KIFKEQ_clean_linker_1, # of connection points: 2
#     Edge 92, Type (0, 1), BuildingBlock: KIFKEQ_clean_linker_1, # of connection points: 2
#     Edge 93, Type (0, 1), BuildingBlock: KIFKEQ_clean_linker_1, # of connection points: 2
#     Edge 94, Type (0, 1), BuildingBlock: KIFKEQ_clean_linker_1, # of connection points: 2
#     Edge 95, Type (0, 1), BuildingBlock: KIFKEQ_clean_linker_1, # of connection points: 2
#     Edge 96, Type (0, 1), BuildingBlock: KIFKEQ_clean_linker_1, # of connection points: 2
#     Edge 97, Type (0, 1), BuildingBlock: KIFKEQ_clean_linker_1, # of connection points: 2
#     Edge 98, Type (0, 1), BuildingBlock: KIFKEQ_clean_linker_1, # of connection points: 2
#     Edge 99, Type (0, 1), BuildingBlock: KIFKEQ_clean_linker_1, # of connection points: 2
#     Edge 100, Type (0, 1), BuildingBlock: KIFKEQ_clean_linker_1, # of connection points: 2
#     Edge 101, Type (0, 1), BuildingBlock: KIFKEQ_clean_linker_1, # of connection points: 2
#     Edge 102, Type (0, 1), BuildingBlock: KIFKEQ_clean_linker_1, # of connection points: 2
#     Edge 103, Type (0, 1), BuildingBlock: KIFKEQ_clean_linker_1, # of connection points: 2
#     Edge 104, Type (0, 1), BuildingBlock: KIFKEQ_clean_linker_1, # of connection points: 2
#     Edge 105, Type (0, 1), BuildingBlock: KIFKEQ_clean_linker_1, # of connection points: 2
#     Edge 106, Type (0, 1), BuildingBlock: KIFKEQ_clean_linker_1, # of connection points: 2
#     Edge 107, Type (0, 1), BuildingBlock: KIFKEQ_clean_linker_1, # of connection points: 2
#     Edge 108, Type (0, 1), BuildingBlock: KIFKEQ_clean_linker_1, # of connection points: 2
#     Edge 109, Type (0, 1), BuildingBlock: KIFKEQ_clean_linker_1, # of connection points: 2
#     Edge 110, Type (0, 1), BuildingBlock: KIFKEQ_clean_linker_1, # of connection points: 2
#     Edge 111, Type (0, 1), BuildingBlock: KIFKEQ_clean_linker_1, # of connection points: 2
#     Edge 112, Type (0, 1), BuildingBlock: KIFKEQ_clean_linker_1, # of connection points: 2
#     Edge 113, Type (0, 1), BuildingBlock: KIFKEQ_clean_linker_1, # of connection points: 2
#     Edge 114, Type (0, 1), BuildingBlock: KIFKEQ_clean_linker_1, # of connection points: 2
#     Edge 115, Type (0, 1), BuildingBlock: KIFKEQ_clean_linker_1, # of connection points: 2
#     Edge 116, Type (0, 1), BuildingBlock: KIFKEQ_clean_linker_1, # of connection points: 2
#     Edge 117, Type (0, 1), BuildingBlock: KIFKEQ_clean_linker_1, # of connection points: 2
#     Edge 118, Type (0, 1), BuildingBlock: KIFKEQ_clean_linker_1, # of connection points: 2
#     Edge 119, Type (0, 1), BuildingBlock: KIFKEQ_clean_linker_1, # of connection points: 2
#     Edge 120, Type (0, 1), BuildingBlock: KIFKEQ_clean_linker_1, # of connection points: 2
#     Edge 121, Type (0, 1), BuildingBlock: KIFKEQ_clean_linker_1, # of connection points: 2
#     Edge 122, Type (0, 1), BuildingBlock: KIFKEQ_clean_linker_1, # of connection points: 2
#     Edge 123, Type (0, 1), BuildingBlock: KIFKEQ_clean_linker_1, # of connection points: 2
#     Edge 124, Type (0, 1), BuildingBlock: KIFKEQ_clean_linker_1, # of connection points: 2
#     Edge 125, Type (0, 1), BuildingBlock: KIFKEQ_clean_linker_1, # of connection points: 2
#     Edge 126, Type (0, 1), BuildingBlock: KIFKEQ_clean_linker_1, # of connection points: 2
#     Edge 127, Type (0, 1), BuildingBlock: KIFKEQ_clean_linker_1, # of connection points: 2
#     Edge 128, Type (0, 1), BuildingBlock: KIFKEQ_clean_linker_1, # of connection points: 2
#     Edge 129, Type (0, 1), BuildingBlock: KIFKEQ_clean_linker_1, # of connection points: 2
#     Edge 130, Type (0, 1), BuildingBlock: KIFKEQ_clean_linker_1, # of connection points: 2
#     Edge 131, Type (0, 1), BuildingBlock: KIFKEQ_clean_linker_1, # of connection points: 2
#     Edge 132, Type (0, 1), BuildingBlock: KIFKEQ_clean_linker_1, # of connection points: 2
#     Edge 133, Type (0, 1), BuildingBlock: KIFKEQ_clean_linker_1, # of connection points: 2
#     Edge 134, Type (0, 1), BuildingBlock: KIFKEQ_clean_linker_1, # of connection points: 2
#     Edge 135, Type (0, 1), BuildingBlock: KIFKEQ_clean_linker_1, # of connection points: 2
# Relax obj value: 0.227
# Max RMSD: 0.306
# Mean RMSD: 0.197
data_MOF--net-gar--node1-AZAVOO_clean_sbu_0--node2-BETGAK_clean_sbu_0--edge1-KIFKEQ_clean_linker_1
_symmetry_space_group_name_H-M    P1
_symmetry_Int_Tables_number       1
_symmetry_cell_setting            triclinic
loop_
_symmetry_equiv_pos_as_xyz
'x, y, z'
_cell_length_a     64.07216
_cell_length_b     56.372995
_cell_length_c     57.49952
_cell_angle_alpha  101.50032
_cell_angle_beta   94.859293
_cell_angle_gamma 103.82737
loop_
_atom_site_label
_atom_site_type_symbol
_atom_site_fract_x
_atom_site_fract_y
_atom_site_fract_z
_atom_type_partial_charge
Mg0 Mg 0.10538 0.33996 0.36891 0.0
O1 O 0.1028 0.37575 0.39517 0.0
O2 O 0.06754 0.37026 0.39911 0.0
Mg3 Mg 0.04855 0.33086 0.379 0.0
C4 C 0.08719 0.38353 0.40365 0.0
C5 C 0.15179 0.36794 0.36317 0.0
O6 O 0.1403 0.38067 0.35326 0.0
O7 O 0.10351 0.31937 0.3996 0.0
O8 O 0.06841 0.31465 0.40381 0.0
O9 O 0.09593 0.35465 0.33697 0.0
O10 O 0.07301 0.33112 0.35502 0.0
C11 C 0.08706 0.31153 0.40984 0.0
C12 C 0.07617 0.34347 0.3386 0.0
O13 O 0.14235 0.35191 0.37423 0.0
Mg14 Mg 1.00288 0.77895 0.69186 0.0
O15 O 1.00951 0.74277 0.67214 0.0
O16 O 0.98126 0.72154 0.64439 0.0
Mg17 Mg 0.95627 0.74498 0.64692 0.0
C18 C 1.00014 0.72389 0.6552 0.0
C19 C 0.04368 0.794 0.72978 0.0
O20 O 0.0283 0.7894 0.74326 0.0
O21 O 1.00937 0.79571 0.65967 0.0
O22 O 0.97957 0.77605 0.63331 0.0
O23 O 0.98665 0.75984 0.71823 0.0
O24 O 0.96932 0.76355 0.68482 0.0
C25 C 0.99797 0.79235 0.6394 0.0
C26 C 0.96855 0.75551 0.70431 0.0
O27 O 0.03844 0.79228 0.70758 0.0
Mg28 Mg 0.61911 0.8542 0.88555 0.0
O29 O 0.61401 0.88954 0.91061 0.0
O30 O 0.57979 0.87846 0.91819 0.0
Mg31 Mg 0.56349 0.83774 0.89978 0.0
C32 C 0.59801 0.89469 0.92062 0.0
C33 C 0.66331 0.8845 0.87503 0.0
O34 O 0.64987 0.89315 0.86259 0.0
O35 O 0.62202 0.83532 0.91715 0.0
O36 O 0.58736 0.82536 0.92368 0.0
O37 O 0.60556 0.86542 0.85334 0.0
O38 O 0.58615 0.84103 0.87363 0.0
C39 C 0.60721 0.82543 0.92854 0.0
C40 C 0.58679 0.85268 0.85655 0.0
O41 O 0.65576 0.87047 0.88882 0.0
Mg42 Mg 0.51326 0.29852 0.19772 0.0
O43 O 0.52218 0.2622 0.18035 0.0
O44 O 0.49098 0.23944 0.15753 0.0
Mg45 Mg 0.46263 0.25711 0.16334 0.0
C46 C 0.51113 0.24269 0.16474 0.0
C47 C 0.5674 0.32185 0.20714 0.0
O48 O 0.58303 0.34259 0.21041 0.0
O49 O 0.51114 0.30755 0.16122 0.0
O50 O 0.47807 0.28613 0.14223 0.0
O51 O 0.50389 0.28569 0.23109 0.0
O52 O 0.4819 0.27846 0.19754 0.0
C53 C 0.49629 0.30202 0.14335 0.0
C54 C 0.48453 0.27624 0.21931 0.0
O55 O 0.54792 0.32339 0.20571 0.0
Mg56 Mg 0.09716 0.83034 0.14374 0.0
O57 O 0.09068 0.79242 0.11527 0.0
O58 O 0.05719 0.78554 0.09624 0.0
Mg59 Mg 0.04246 0.81784 0.11042 0.0
C60 C 0.07463 0.77878 0.0997 0.0
C61 C 0.13793 0.81177 0.15882 0.0
O62 O 0.12216 0.79112 0.15536 0.0
O63 O 0.10251 0.85516 0.11527 0.0
O64 O 0.06815 0.84673 0.0978 0.0
O65 O 0.08067 0.81025 0.1703 0.0
O66 O 0.06348 0.82556 0.14465 0.0
C67 C 0.08815 0.85861 0.10019 0.0
C68 C 0.06263 0.81367 0.16157 0.0
O69 O 0.13349 0.83124 0.15376 0.0
Mg70 Mg 0.50248 0.75879 0.39857 0.0
O71 O 0.5108 0.79664 0.42631 0.0
O72 O 0.4851 0.79456 0.4502 0.0
Mg73 Mg 0.46077 0.75548 0.43786 0.0
C74 C 0.50238 0.80666 0.4438 0.0
C75 C 0.54014 0.76078 0.36687 0.0
O76 O 0.52335 0.74691 0.35129 0.0
O77 O 0.51324 0.7374 0.42604 0.0
O78 O 0.4859 0.73384 0.44776 0.0
O79 O 0.48214 0.7745 0.37482 0.0
O80 O 0.46857 0.75324 0.40069 0.0
C81 C 0.5037 0.72897 0.44254 0.0
C82 C 0.46551 0.76588 0.38488 0.0
O83 O 0.53712 0.76888 0.3883 0.0
Mg84 Mg 0.60112 0.33762 0.6444 0.0
O85 O 0.59392 0.2983 0.61809 0.0
O86 O 0.56135 0.29173 0.59705 0.0
Mg87 Mg 0.54689 0.3248 0.60965 0.0
C88 C 0.57831 0.28455 0.60203 0.0
C89 C 0.64296 0.34369 0.67799 0.0
O90 O 0.62945 0.35193 0.69146 0.0
O91 O 0.6073 0.36076 0.61441 0.0
O92 O 0.57303 0.35247 0.59659 0.0
O93 O 0.58319 0.32013 0.6718 0.0
O94 O 0.56768 0.33475 0.6443 0.0
C95 C 0.59312 0.36397 0.5989 0.0
C96 C 0.56584 0.32429 0.66215 0.0
O97 O 0.63695 0.33674 0.65538 0.0
Mg98 Mg 1.00704 0.25441 0.89913 0.0
O99 O 0.01638 0.29389 0.92476 0.0
O100 O 0.99046 0.29384 0.94837 0.0
Mg101 Mg 0.96501 0.25554 0.93764 0.0
C102 C 1.00795 0.30503 0.94165 0.0
C103 C 0.05192 0.27892 0.88195 0.0
O104 O 0.04297 0.29751 0.88141 0.0
O105 O 0.01646 0.23494 0.92857 0.0
O106 O 0.98881 0.233 0.94973 0.0
O107 O 0.98855 0.26886 0.87283 0.0
O108 O 0.97341 0.25183 0.9006 0.0
C109 C 1.00655 0.22751 0.94523 0.0
C110 C 0.9715 0.26293 0.88319 0.0
O111 O 0.04156 0.25982 0.88872 0.0
Mg112 Mg 0.44772 0.04983 0.28612 0.0
O113 O 0.42733 0.02003 0.30072 0.0
O114 O 0.42427 0.03005 0.33935 0.0
Mg115 Mg 0.44436 0.07154 0.34975 0.0
C116 C 0.41984 1.01435 0.31915 0.0
C117 C 0.43896 1.01437 0.2319 0.0
O118 O 0.42536 0.99771 0.21452 0.0
O119 O 0.42012 0.06837 0.28621 0.0
O120 O 0.41889 0.08143 0.32534 0.0
O121 O 0.47707 0.03804 0.29842 0.0
O122 O 0.46448 0.06713 0.32021 0.0
C123 C 0.41181 0.07918 0.30332 0.0
C124 C 0.47811 0.05366 0.31862 0.0
O125 O 0.43155 0.02376 0.25029 0.0
Mg126 Mg 0.29025 0.18865 0.49673 0.0
O127 O 0.29395 0.21464 0.53499 0.0
O128 O 0.32804 0.2385 0.54244 0.0
Mg129 Mg 0.34661 0.2277 0.51112 0.0
C130 C 0.30933 0.23173 0.54886 0.0
C131 C 0.24537 0.16533 0.5115 0.0
O132 O 0.2593 0.16389 0.52896 0.0
O133 O 0.29046 0.22014 0.47509 0.0
O134 O 0.32589 0.23926 0.48303 0.0
O135 O 0.3024 0.15991 0.5129 0.0
O136 O 0.32374 0.19037 0.50089 0.0
C137 C 0.30714 0.23618 0.47147 0.0
C138 C 0.32183 0.17124 0.51023 0.0
O139 O 0.25269 0.17602 0.49519 0.0
Mg140 Mg 0.17339 0.02382 0.78479 0.0
O141 O 0.19813 0.06501 0.78831 0.0
O142 O 0.22128 0.07214 0.82147 0.0
Mg143 Mg 0.21071 0.03935 0.84157 0.0
C144 C 0.21475 0.07928 0.80299 0.0
C145 C 0.14694 0.0356 0.73592 0.0
O146 O 0.14118 0.05024 0.7536 0.0
O147 O 0.19945 0.99624 0.77874 0.0
O148 O 0.2194 1.00662 0.81477 0.0
O149 O 0.14905 0.03898 0.80944 0.0
O150 O 0.17548 0.02773 0.82535 0.0
C151 C 0.21439 0.9926 0.79353 0.0
C152 C 0.15849 0.03574 0.82882 0.0
O153 O 0.15993 0.0226 0.74181 0.0
Mg154 Mg 0.35121 0.96896 0.0342 0.0
O155 O 0.3501 0.94428 0.99639 0.0
O156 O 0.37568 0.9236 0.99947 0.0
Mg157 Mg 0.39211 0.93348 0.03811 0.0
C158 C 0.36054 0.92883 0.98719 0.0
C159 C 0.31986 1.00137 0.03156 0.0
O160 O 0.33805 1.01678 0.04349 0.0
O161 O 0.33344 0.93428 0.04594 0.0
O162 O 0.35969 0.91462 0.04903 0.0
O163 O 0.37748 1.00073 0.02845 0.0
O164 O 0.3835 0.96927 0.04301 0.0
C165 C 0.34028 0.91612 0.05086 0.0
C166 C 0.39122 0.98976 0.03647 0.0
O167 O 0.31942 0.97847 0.02374 0.0
Mg168 Mg 0.33844 0.41938 0.05605 0.0
O169 O 0.33185 0.38998 0.01979 0.0
O170 O 0.35834 0.37057 0.01997 0.0
Mg171 Mg 0.38152 0.3872 0.05566 0.0
C172 C 0.3413 0.37404 1.00944 0.0
C173 C 0.29778 0.43105 0.03059 0.0
O174 O 0.31074 0.43228 0.0141 0.0
O175 O 0.32784 0.39037 0.07935 0.0
O176 O 0.35642 0.3743 0.08063 0.0
O177 O 0.35902 0.44697 0.0386 0.0
O178 O 0.37241 0.42299 0.05828 0.0
C179 C 0.33835 0.37642 0.08757 0.0
C180 C 0.37566 0.43961 0.04557 0.0
O181 O 0.30399 0.42511 0.04978 0.0
Mg182 Mg 0.79087 0.10886 0.04373 0.0
O183 O 0.79808 0.14082 0.0775 0.0
O184 O 0.83223 0.1633 0.07851 0.0
Mg185 Mg 0.84769 0.14468 0.04802 0.0
C186 C 0.81419 0.15966 0.08693 0.0
C187 C 0.76831 0.07432 0.99399 0.0
O188 O 0.76659 0.0588 0.97316 0.0
O189 O 0.78979 0.13738 0.0213 0.0
O190 O 0.82479 0.15664 0.02234 0.0
O191 O 0.80343 0.08291 0.0639 0.0
O192 O 0.82374 0.10943 0.04696 0.0
C193 C 0.80468 0.15323 0.01492 0.0
C194 C 0.82242 0.09303 0.05953 0.0
O195 O 0.78503 0.07854 1.00927 0.0
Mg196 Mg 0.14221 0.51993 0.24306 0.0
O197 O 0.16435 0.56006 0.25748 0.0
O198 O 0.17265 0.56621 0.2972 0.0
Mg199 Mg 0.1576 0.52983 0.30778 0.0
C200 C 0.17381 0.57395 0.27782 0.0
C201 C 0.13969 0.54224 0.19934 0.0
O202 O 0.13763 0.56013 0.2168 0.0
O203 O 0.1723 0.50523 0.24561 0.0
O204 O 0.18029 0.51237 0.2854 0.0
O205 O 0.11351 0.53414 0.2505 0.0
O206 O 0.13252 0.52076 0.27666 0.0
C207 C 0.18435 0.50469 0.26426 0.0
C208 C 0.11772 0.53187 0.27222 0.0
O209 O 0.14394 0.52284 0.20445 0.0
Mg210 Mg 0.8348 0.9174 0.55635 0.0
O211 O 0.82871 0.88981 0.51875 0.0
O212 O 0.85437 0.86916 0.51905 0.0
Mg213 Mg 0.87686 0.88379 0.55535 0.0
C214 C 0.83802 0.87374 0.50822 0.0
C215 C 0.79467 0.93273 0.53335 0.0
O216 O 0.80794 0.9369 0.51753 0.0
O217 O 0.82299 0.88701 0.57775 0.0
O218 O 0.85097 0.86999 0.57935 0.0
O219 O 0.85652 0.94687 0.54181 0.0
O220 O 0.8686 0.9202 0.55889 0.0
C221 C 0.83278 0.87236 0.58579 0.0
C222 C 0.87273 0.93847 0.54814 0.0
O223 O 0.80061 0.9239 0.55078 0.0
Mg224 Mg 0.94512 0.07507 0.26843 0.0
O225 O 0.91806 0.03456 0.26576 0.0
O226 O 0.90263 0.04154 0.29908 0.0
Mg227 Mg 0.91845 0.08123 0.32389 0.0
C228 C 0.90438 0.02667 0.27975 0.0
C229 C 0.97569 0.07337 0.22154 0.0
O230 O 0.99032 0.08337 0.24063 0.0
O231 O 0.91911 0.10255 0.26399 0.0
O232 O 0.90778 0.10691 0.29986 0.0
O233 O 0.97066 0.06135 0.29136 0.0
O234 O 0.94913 0.08079 0.30874 0.0
C235 C 0.90843 0.11311 0.2796 0.0
C236 C 0.96433 0.06975 0.31135 0.0
O237 O 0.95555 0.06739 0.22555 0.0
Mg238 Mg 0.29207 0.61521 0.54912 0.0
O239 O 0.30114 0.64612 0.58371 0.0
O240 O 0.33509 0.66866 0.58419 0.0
Mg241 Mg 0.34874 0.65167 0.55139 0.0
C242 C 0.31747 0.66454 0.59336 0.0
C243 C 0.26432 0.57162 0.50621 0.0
O244 O 0.26125 0.55288 0.4875 0.0
O245 O 0.2899 0.64519 0.52847 0.0
O246 O 0.32467 0.66526 0.52926 0.0
O247 O 0.3072 0.58866 0.56643 0.0
O248 O 0.3249 0.61567 0.54826 0.0
C249 C 0.30443 0.66206 0.52282 0.0
C250 C 0.32518 0.59851 0.55961 0.0
O251 O 0.28346 0.58504 0.51435 0.0
Mg252 Mg 0.44819 0.57821 0.76651 0.0
O253 O 0.42141 0.53763 0.76396 0.0
O254 O 0.40599 0.54427 0.79729 0.0
Mg255 Mg 0.4216 0.58413 0.82204 0.0
C256 C 0.40786 0.52949 0.77796 0.0
C257 C 0.47409 0.58345 0.71604 0.0
O258 O 0.48474 0.60453 0.73104 0.0
O259 O 0.42259 0.60616 0.76252 0.0
O260 O 0.41133 0.61032 0.79845 0.0
O261 O 0.4736 0.56451 0.78945 0.0
O262 O 0.45224 0.58437 0.80673 0.0
C263 C 0.41212 0.61678 0.77833 0.0
C264 C 0.46733 0.57321 0.80937 0.0
O265 O 0.45816 0.56923 0.72371 0.0
Mg266 Mg 0.67995 1.00994 0.72187 0.0
O267 O 0.69436 0.05299 0.73345 0.0
O268 O 0.71005 0.0611 0.77157 0.0
Mg269 Mg 0.70823 0.02456 0.78325 0.0
C270 C 0.70453 0.06832 0.75284 0.0
C271 C 0.65311 0.99605 0.67428 0.0
O272 O 0.64455 0.97963 0.68644 0.0
O273 O 0.71369 1.0053 0.71607 0.0
O274 O 0.72894 1.01417 0.75427 0.0
O275 O 0.64972 1.01334 0.73708 0.0
O276 O 0.67856 1.00868 0.75777 0.0
C277 C 0.72989 1.00807 0.73184 0.0
C278 C 0.65968 1.01296 0.75745 0.0
O279 O 0.67095 1.01207 0.68347 0.0
Mg280 Mg 0.79184 0.68689 0.99453 0.0
O281 O 0.79444 0.71247 0.03283 0.0
O282 O 0.82766 0.73843 0.04045 0.0
Mg283 Mg 0.84665 0.72921 1.00891 0.0
C284 C 0.80915 0.73028 0.04683 0.0
C285 C 0.74676 0.66327 1.00942 0.0
O286 O 0.76023 0.66323 0.02795 0.0
O287 O 0.79031 0.71761 0.97272 0.0
O288 O 0.82505 0.73975 0.98048 0.0
O289 O 0.80552 0.65926 1.01069 0.0
O290 O 0.82563 0.69061 0.99865 0.0
C291 C 0.80597 0.73483 0.96896 0.0
C292 C 0.82462 0.67148 1.00788 0.0
O293 O 0.75449 0.67279 0.99263 0.0
Mg294 Mg 0.9264 0.57748 0.80823 0.0
O295 O 0.91133 0.5414 0.81867 0.0
O296 O 0.91379 0.54575 0.85825 0.0
Mg297 Mg 0.93005 0.58782 0.87338 0.0
C298 C 0.90798 0.53229 0.83696 0.0
C299 C 0.9111 0.54604 0.75256 0.0
O300 O 0.89542 0.53538 0.73458 0.0
O301 O 0.89771 0.59148 0.81778 0.0
O302 O 0.89946 0.59773 0.85755 0.0
O303 O 0.9581 0.56754 0.81108 0.0
O304 O 0.94652 0.59006 0.84091 0.0
C305 C 0.89003 0.59782 0.83707 0.0
C306 C 0.96068 0.57859 0.83356 0.0
O307 O 0.9069 0.55916 0.77131 0.0
Mg308 Mg 0.8326 0.44519 0.53183 0.0
O309 O 0.8325 0.42256 0.49353 0.0
O310 O 0.85835 0.40211 0.49563 0.0
Mg311 Mg 0.87248 0.40855 0.53466 0.0
C312 C 0.84346 0.40806 0.48369 0.0
C313 C 0.80455 0.47997 0.5298 0.0
O314 O 0.82294 0.49288 0.54323 0.0
O315 O 0.81335 0.40964 0.54076 0.0
O316 O 0.8386 0.3882 0.54166 0.0
O317 O 0.85931 0.4766 0.52743 0.0
O318 O 0.86449 0.44472 0.54196 0.0
C319 C 0.81925 0.39011 0.54325 0.0
C320 C 0.87264 0.46529 0.53568 0.0
O321 O 0.80223 0.45684 0.52072 0.0
Mg322 Mg 0.6724 0.52221 0.28038 0.0
O323 O 0.69817 0.5624 0.28317 0.0
O324 O 0.72057 0.57078 0.31711 0.0
Mg325 Mg 0.70982 0.5376 0.33686 0.0
C326 C 0.71444 0.57715 0.29801 0.0
C327 C 0.64671 0.53511 0.23199 0.0
O328 O 0.64116 0.54974 0.24987 0.0
O329 O 0.69731 0.49348 0.27419 0.0
O330 O 0.71755 0.50392 0.31005 0.0
O331 O 0.64879 0.53887 0.30509 0.0
O332 O 0.67448 0.52641 0.32101 0.0
C333 C 0.71209 0.48956 0.28896 0.0
C334 C 0.65792 0.53527 0.32448 0.0
O335 O 0.65928 0.52157 0.23759 0.0
La336 La 0.04359 0.03331 1.00999 0.0
La337 La 0.08728 0.06702 0.03727 0.0
C338 C 1.00391 1.01103 1.00296 0.0
C339 C 0.98633 0.01815 0.01497 0.0
C340 C 0.96552 1.00174 1.01112 0.0
C341 C 0.94886 1.00925 0.02237 0.0
C342 C 0.95291 0.03327 0.03747 0.0
C343 C 0.97398 0.04926 0.04182 0.0
C344 C 0.99053 0.04176 0.03067 0.0
C345 C 0.07363 0.03536 0.9786 0.0
C346 C 0.05431 0.09244 0.01428 0.0
C347 C 0.1273 0.0886 0.04618 0.0
C348 C 0.14689 0.08057 0.04071 0.0
C349 C 0.16741 0.09712 0.04911 0.0
C350 C 0.18615 0.08899 0.04572 0.0
C351 C 0.18468 0.06409 0.03396 0.0
C352 C 0.164 0.04777 0.02496 0.0
C353 C 0.14528 0.05595 0.02831 0.0
C354 C 0.05673 0.06592 0.06826 0.0
C355 C 0.07596 1.00803 0.03424 0.0
O356 O 1.01294 0.02626 0.99001 0.0
O357 O 0.01834 1.00521 0.01672 0.0
O358 O 0.05337 0.02277 0.97395 0.0
O359 O 0.07602 0.04556 1.00102 0.0
O360 O 0.03928 0.07091 1.011 0.0
O361 O 0.07475 0.09494 0.02299 0.0
O362 O 0.11636 0.07727 0.06085 0.0
O363 O 0.11457 0.09035 0.02789 0.0
O364 O 0.0768 0.07915 0.0727 0.0
O365 O 0.05466 0.05495 0.04607 0.0
O366 O 0.0912 0.02948 0.03828 0.0
O367 O 0.05595 1.00577 0.02452 0.0
H368 H 0.96209 0.98338 0.99918 0.0
H369 H 0.93268 0.99667 0.01862 0.0
H370 H 0.97758 0.06773 0.0536 0.0
H371 H 1.00661 0.0545 0.03418 0.0
H372 H 0.16894 0.1162 0.05868 0.0
H373 H 0.2018 0.10219 0.05251 0.0
H374 H 0.16223 0.02843 0.01602 0.0
H375 H 0.12954 0.04288 0.0217 0.0
La376 La 0.30119 0.78477 0.26607 0.0
La377 La 0.28695 0.80405 0.31521 0.0
C378 C 0.30733 0.77681 0.22292 0.0
C379 C 0.30484 0.78962 0.20352 0.0
C380 C 0.312 0.78168 0.18172 0.0
C381 C 0.30907 0.79327 0.16284 0.0
C382 C 0.29878 0.81291 0.16544 0.0
C383 C 0.29149 0.82069 0.18739 0.0
C384 C 0.2946 0.8092 0.20632 0.0
C385 C 0.32268 0.77585 0.30377 0.0
C386 C 0.31578 0.84338 0.29243 0.0
C387 C 0.28427 0.81395 0.35927 0.0
C388 C 0.28308 0.79941 0.37768 0.0
C389 C 0.27709 0.80879 0.39981 0.0
C390 C 0.27504 0.79446 0.4171 0.0
C391 C 0.27886 0.77053 0.41233 0.0
C392 C 0.28482 0.76124 0.39002 0.0
C393 C 0.28691 0.77558 0.37281 0.0
C394 C 0.26087 0.80941 0.27852 0.0
C395 C 0.26831 0.74774 0.28743 0.0
O396 O 0.32281 0.78876 0.24072 0.0
O397 O 0.28917 0.76698 0.23033 0.0
O398 O 0.31856 0.76174 0.28229 0.0
O399 O 0.31581 0.79496 0.30301 0.0
O400 O 0.31374 0.82582 0.27249 0.0
O401 O 0.30743 0.83889 0.31179 0.0
O402 O 0.26745 0.80655 0.34253 0.0
O403 O 0.30269 0.81834 0.3505 0.0
O404 O 0.25952 0.81749 0.30092 0.0
O405 O 0.27654 0.79977 0.27858 0.0
O406 O 0.27485 0.7634 0.30865 0.0
O407 O 0.27414 0.75385 0.26747 0.0
H408 H 0.31991 0.76655 0.17932 0.0
H409 H 0.31529 0.78717 0.14638 0.0
H410 H 0.28336 0.8356 0.18994 0.0
H411 H 0.28894 0.8155 0.22311 0.0
H412 H 0.27388 0.82709 0.40366 0.0
H413 H 0.27033 0.802 0.43411 0.0
H414 H 0.28827 0.74307 0.38602 0.0
H415 H 0.29151 0.76808 0.35573 0.0
La416 La 0.57972 0.05115 0.5162 0.0
La417 La 0.5311 0.04428 0.51651 0.0
C418 C 0.61879 0.04929 0.52296 0.0
C419 C 0.63251 0.03143 0.52301 0.0
C420 C 0.64503 0.02758 0.50439 0.0
C421 C 0.66006 1.0133 0.50534 0.0
C422 C 0.66313 1.00257 0.52505 0.0
C423 C 0.65026 1.00598 0.5435 0.0
C424 C 0.63514 0.02025 0.54251 0.0
C425 C 0.55816 0.05661 0.47752 0.0
C426 C 0.54653 0.99597 0.501 0.0
C427 C 0.49185 0.04517 0.50949 0.0
C428 C 0.4771 0.06162 0.51421 0.0
C429 C 0.45685 0.05169 0.52089 0.0
C430 C 0.44165 0.06582 0.52369 0.0
C431 C 0.44631 0.09029 0.51981 0.0
C432 C 0.46686 0.10046 0.51363 0.0
C433 C 0.48213 0.08628 0.51088 0.0
C434 C 0.55296 0.03808 0.55466 0.0
C435 C 0.5639 0.09974 0.53274 0.0
O436 O 0.60881 0.04972 0.50227 0.0
O437 O 0.60672 0.05194 0.54008 0.0
O438 O 0.5779 0.0694 0.48619 0.0
O439 O 0.55172 0.04068 0.48962 0.0
O440 O 0.56664 1.00981 0.50968 0.0
O441 O 0.53028 1.0064 0.49845 0.0
O442 O 0.50031 0.03856 0.52792 0.0
O443 O 0.50572 0.04988 0.49442 0.0
O444 O 0.53323 0.02523 0.54607 0.0
O445 O 0.55898 0.0542 0.54272 0.0
O446 O 0.5437 0.08545 0.52585 0.0
O447 O 0.58085 0.09003 0.53258 0.0
H448 H 0.6437 0.03629 0.48934 0.0
H449 H 0.66989 1.01151 0.49099 0.0
H450 H 0.652 0.99782 0.55885 0.0
H451 H 0.62591 0.02299 0.55731 0.0
H452 H 0.45256 0.03267 0.52341 0.0
H453 H 0.42594 0.05721 0.52812 0.0
H454 H 0.47112 0.11935 0.51079 0.0
H455 H 0.49768 0.09444 0.50581 0.0
La456 La 0.288 0.30439 0.77599 0.0
La457 La 0.33493 0.29613 0.78046 0.0
C458 C 0.24749 0.2981 0.77438 0.0
C459 C 0.22941 0.29064 0.78803 0.0
C460 C 0.23173 0.29881 0.81309 0.0
C461 C 0.21352 0.29517 0.82517 0.0
C462 C 0.19265 0.28318 0.81247 0.0
C463 C 0.19061 0.27393 0.78754 0.0
C464 C 0.20879 0.2777 0.77548 0.0
C465 C 0.31781 0.34675 0.77238 0.0
C466 C 0.31559 0.314 0.82779 0.0
C467 C 0.37532 0.30163 0.78163 0.0
C468 C 0.3929 0.30663 0.7667 0.0
C469 C 0.39114 0.2923 0.74326 0.0
C470 C 0.40916 0.29438 0.73089 0.0
C471 C 0.42937 0.31097 0.74157 0.0
C472 C 0.43073 0.32617 0.76459 0.0
C473 C 0.41274 0.32392 0.77702 0.0
C474 C 0.3049 0.25431 0.78509 0.0
C475 C 0.30784 0.2867 0.72855 0.0
O476 O 0.26193 0.31931 0.78408 0.0
O477 O 0.25633 0.28076 0.76401 0.0
O478 O 0.29699 0.34334 0.77103 0.0
O479 O 0.32071 0.32578 0.77515 0.0
O480 O 0.29619 0.30942 0.81495 0.0
O481 O 0.33322 0.31208 0.81781 0.0
O482 O 0.36071 0.2801 0.77438 0.0
O483 O 0.36678 0.31995 0.79018 0.0
O484 O 0.32571 0.25754 0.78663 0.0
O485 O 0.30223 0.27506 0.78152 0.0
O486 O 0.32691 0.29051 0.74168 0.0
O487 O 0.29014 0.28932 0.7382 0.0
H488 H 0.24747 0.30881 0.82325 0.0
H489 H 0.21573 0.30217 0.84442 0.0
H490 H 0.17481 0.26482 0.77714 0.0
H491 H 0.20659 0.2714 0.75614 0.0
H492 H 0.37606 0.27875 0.73478 0.0
H493 H 0.40742 0.28219 0.71333 0.0
H494 H 0.44581 0.33959 0.77322 0.0
H495 H 0.41453 0.33516 0.79507 0.0
La496 La 0.057 0.07419 0.53286 0.0
La497 La 0.05895 0.0232 0.50945 0.0
C498 C 0.06326 0.12118 0.54463 0.0
C499 C 0.06572 0.14192 0.53226 0.0
C500 C 0.05408 0.13882 0.50961 0.0
C501 C 0.05765 0.15834 0.49757 0.0
C502 C 0.07295 0.18131 0.50799 0.0
C503 C 0.08451 0.18434 0.53075 0.0
C504 C 0.08092 0.16479 0.54275 0.0
C505 C 0.02454 0.03815 0.53917 0.0
C506 C 0.03911 0.05275 0.47539 0.0
C507 C 0.05429 0.97642 0.49894 0.0
C508 C 0.05043 0.95704 0.51297 0.0
C509 C 0.05442 0.93372 0.50432 0.0
C510 C 0.05025 0.91503 0.51738 0.0
C511 C 0.04205 0.91943 0.53935 0.0
C512 C 0.03821 0.94296 0.54797 0.0
C513 C 0.04236 0.96157 0.53491 0.0
C514 C 0.09173 0.05975 0.50443 0.0
C515 C 0.07618 0.04438 0.56695 0.0
O516 O 0.04408 0.10529 0.54141 0.0
O517 O 0.07882 0.10984 0.54343 0.0
O518 O 0.03318 0.05907 0.55478 0.0
O519 O 0.0332 0.03885 0.52029 0.0
O520 O 0.04563 0.07241 0.49415 0.0
O521 O 0.04178 0.03056 0.4776 0.0
O522 O 0.07321 0.99287 0.50438 0.0
O523 O 0.03849 0.98705 0.49632 0.0
O524 O 0.08342 0.03922 0.4882 0.0
O525 O 0.08252 0.05816 0.52274 0.0
O526 O 0.06898 0.02459 0.54842 0.0
O527 O 0.07441 0.06676 0.5644 0.0
H528 H 0.0424 0.12126 0.50114 0.0
H529 H 0.04866 0.15528 0.47994 0.0
H530 H 0.09621 0.20188 0.53938 0.0
H531 H 0.09015 0.16746 0.56019 0.0
H532 H 0.06067 0.92993 0.48743 0.0
H533 H 0.05359 0.89722 0.51038 0.0
H534 H 0.0316 0.94687 0.56461 0.0
H535 H 0.03901 0.97941 0.54182 0.0
La536 La 0.33455 0.82318 0.77903 0.0
La537 La 0.29342 0.78708 0.78196 0.0
C538 C 0.37233 0.85188 0.78833 0.0
C539 C 0.39472 0.85037 0.78669 0.0
C540 C 0.40973 0.87051 0.78155 0.0
C541 C 0.43155 0.87049 0.78191 0.0
C542 C 0.4387 0.85033 0.78754 0.0
C543 C 0.42337 0.82971 0.79178 0.0
C544 C 0.40156 0.8297 0.79128 0.0
C545 C 0.31332 0.79584 0.73727 0.0
C546 C 0.33541 0.765 0.78151 0.0
C547 C 0.25487 0.76077 0.7726 0.0
C548 C 0.23381 0.76713 0.77159 0.0
C549 C 0.21956 0.76057 0.78788 0.0
C550 C 0.19985 0.76712 0.78748 0.0
C551 C 0.19393 0.78019 0.77064 0.0
C552 C 0.20824 0.78667 0.75433 0.0
C553 C 0.22796 0.78031 0.75484 0.0
C554 C 0.31506 0.81382 0.82358 0.0
C555 C 0.29227 0.84457 0.77834 0.0
O556 O 0.3598 0.84793 0.768 0.0
O557 O 0.36238 0.84094 0.80392 0.0
O558 O 0.32496 0.81878 0.74051 0.0
O559 O 0.31534 0.78913 0.75665 0.0
O560 O 0.34655 0.78904 0.78368 0.0
O561 O 0.31371 0.75946 0.77887 0.0
O562 O 0.26629 0.76618 0.79387 0.0
O563 O 0.26687 0.76669 0.75619 0.0
O564 O 0.30376 0.79067 0.82013 0.0
O565 O 0.31271 0.8212 0.80454 0.0
O566 O 0.28128 0.82055 0.77599 0.0
O567 O 0.31393 0.85033 0.78189 0.0
H568 H 0.40467 0.88654 0.7778 0.0
H569 H 0.44288 0.88648 0.77823 0.0
H570 H 0.42833 0.81402 0.79651 0.0
H571 H 0.39021 0.8139 0.79522 0.0
H572 H 0.22375 0.75051 0.80102 0.0
H573 H 0.18932 0.76207 0.80047 0.0
H574 H 0.20406 0.79629 0.74081 0.0
H575 H 0.23857 0.78573 0.74204 0.0
La576 La 0.59971 0.0971 0.0643 0.0
La577 La 0.58053 0.09822 0.01495 0.0
C578 C 0.60827 0.10365 0.10905 0.0
C579 C 0.59471 0.10049 0.12806 0.0
C580 C 0.60245 0.09314 0.14831 0.0
C581 C 0.58843 0.08603 0.16452 0.0
C582 C 0.5665 0.08602 0.16045 0.0
C583 C 0.55917 0.0948 0.14089 0.0
C584 C 0.57316 0.10197 0.12481 0.0
C585 C 0.60421 0.06075 0.02984 0.0
C586 C 0.54955 0.07037 0.04476 0.0
C587 C 0.5716 0.0963 0.97108 0.0
C588 C 0.58141 0.08829 0.94979 0.0
C589 C 0.57826 0.09791 0.92953 0.0
C590 C 0.587 0.08974 0.90891 0.0
C591 C 0.59883 0.07156 0.90817 0.0
C592 C 0.60212 0.06224 0.92876 0.0
C593 C 0.59369 0.07073 0.94945 0.0
C594 C 0.57493 0.13289 0.05033 0.0
C595 C 0.63152 0.11544 0.03042 0.0
O596 O 0.60772 0.08281 0.09385 0.0
O597 O 0.60673 0.12167 0.09824 0.0
O598 O 0.61787 0.07053 0.04934 0.0
O599 O 0.58817 0.06994 0.03116 0.0
O600 O 0.5644 0.08165 0.06382 0.0
O601 O 0.55361 0.07141 0.02284 0.0
O602 O 0.58312 0.11655 0.98645 0.0
O603 O 0.56304 0.07845 0.98157 0.0
O604 O 0.56102 0.12214 0.03135 0.0
O605 O 0.59165 0.12512 0.04828 0.0
O606 O 0.61519 0.10486 1.01291 0.0
O607 O 0.62855 0.11842 0.05318 0.0
H608 H 0.61903 0.09179 0.15097 0.0
H609 H 0.59438 0.07919 0.17941 0.0
H610 H 0.54238 0.09521 0.13753 0.0
H611 H 0.56689 0.10762 0.10932 0.0
H612 H 0.56899 0.11167 0.92964 0.0
H613 H 0.58456 0.09776 0.89362 0.0
H614 H 0.61088 0.04803 0.92883 0.0
H615 H 0.59651 0.06335 0.96508 0.0
La616 La 0.32624 0.33287 0.28827 0.0
La617 La 0.29855 0.28204 0.26843 0.0
C618 C 0.34284 0.37903 0.29342 0.0
C619 C 0.3338 0.3979 0.28477 0.0
C620 C 0.33177 0.41895 0.30119 0.0
C621 C 0.31967 0.43446 0.29399 0.0
C622 C 0.30945 0.42919 0.27019 0.0
C623 C 0.3127 0.40904 0.25345 0.0
C624 C 0.32467 0.39349 0.26068 0.0
C625 C 0.32162 0.30527 0.32092 0.0
C626 C 0.27519 0.32282 0.28553 0.0
C627 C 0.28035 0.2357 0.25765 0.0
C628 C 0.28724 0.21378 0.26205 0.0
C629 C 0.28321 0.19217 0.24359 0.0
C630 C 0.29167 0.17219 0.24678 0.0
C631 C 0.30404 0.17353 0.26859 0.0
C632 C 0.30746 0.19487 0.2873 0.0
C633 C 0.29929 0.21492 0.284 0.0
C634 C 0.30345 0.31132 0.23707 0.0
C635 C 0.34993 0.29131 0.2768 0.0
O636 O 0.33298 0.36942 0.30974 0.0
O637 O 0.34695 0.36182 0.27688 0.0
O638 O 0.33867 0.32304 0.32059 0.0
O639 O 0.30723 0.30482 0.30422 0.0
O640 O 0.29361 0.33896 0.28445 0.0
O641 O 0.2737 0.29864 0.28193 0.0
O642 O 0.29114 0.24756 0.24326 0.0
O643 O 0.27741 0.25114 0.27654 0.0
O644 O 0.2856 0.29516 0.23806 0.0
O645 O 0.31775 0.30992 0.25282 0.0
O646 O 0.33074 0.27518 0.2748 0.0
O647 O 0.35203 0.31558 0.27996 0.0
H648 H 0.33856 0.42261 0.31986 0.0
H649 H 0.31728 0.44967 0.30739 0.0
H650 H 0.30529 0.40471 0.23494 0.0
H651 H 0.32589 0.37737 0.24755 0.0
H652 H 0.27407 0.19107 0.22649 0.0
H653 H 0.28889 0.15592 0.2321 0.0
H654 H 0.3173 0.19655 0.30412 0.0
H655 H 0.30298 0.23158 0.29837 0.0
La656 La 0.55927 0.57998 0.02988 0.0
La657 La 0.55832 0.52457 1.00718 0.0
C658 C 0.5718 0.62661 0.04719 0.0
C659 C 0.5804 0.64875 0.03751 0.0
C660 C 0.57432 0.67091 0.04563 0.0
C661 C 0.58196 0.69195 0.0363 0.0
C662 C 0.59602 0.69132 0.01876 0.0
C663 C 0.60225 0.66906 1.01087 0.0
C664 C 0.59439 0.64795 0.02 0.0
C665 C 0.52262 0.54638 0.02956 0.0
C666 C 0.54096 0.55788 0.97384 0.0
C667 C 0.54519 0.47758 0.99446 0.0
C668 C 0.53843 0.45786 1.00757 0.0
C669 C 0.53035 0.43274 0.99524 0.0
C670 C 0.52495 0.41388 1.00795 0.0
C671 C 0.52754 0.41995 0.03318 0.0
C672 C 0.53517 0.4453 0.04532 0.0
C673 C 0.54076 0.46399 0.03265 0.0
C674 C 0.5933 0.55711 0.99888 0.0
C675 C 0.57817 0.54712 0.0634 0.0
O676 O 0.55147 0.61455 0.03957 0.0
O677 O 0.58418 0.61132 0.04786 0.0
O678 O 0.5242 0.5697 0.02947 0.0
O679 O 0.54151 0.54331 0.03258 0.0
O680 O 0.55055 0.57839 0.99104 0.0
O681 O 0.54048 0.53503 0.97738 0.0
O682 O 0.56575 0.4899 0.99965 0.0
O683 O 0.53242 0.49255 0.99358 0.0
O684 O 0.58931 0.53297 0.99154 0.0
O685 O 0.57746 0.56071 1.00901 0.0
O686 O 0.57279 0.52737 0.04471 0.0
O687 O 0.57398 0.5689 0.0615 0.0
H688 H 0.56342 0.67185 0.05901 0.0
H689 H 0.57641 0.70851 0.04248 0.0
H690 H 0.61323 0.6679 0.99762 0.0
H691 H 0.59917 0.63098 1.01327 0.0
H692 H 0.52857 0.42769 0.97585 0.0
H693 H 0.5193 0.39454 0.99805 0.0
H694 H 0.53694 0.45075 0.06469 0.0
H695 H 0.54705 0.48326 0.04251 0.0
La696 La 0.82668 0.31553 0.2752 0.0
La697 La 0.78431 0.27768 0.27251 0.0
C698 C 0.86365 0.34567 0.28806 0.0
C699 C 0.88631 0.34669 0.28509 0.0
C700 C 0.90036 0.36965 0.28427 0.0
C701 C 0.9222 0.37144 0.28221 0.0
C702 C 0.93035 0.35025 0.281 0.0
C703 C 0.916 0.32707 0.28118 0.0
C704 C 0.89413 0.32529 0.28312 0.0
C705 C 0.80893 0.28949 0.23157 0.0
C706 C 0.82762 0.25735 0.27643 0.0
C707 C 0.74724 0.24828 0.25668 0.0
C708 C 0.72421 0.24846 0.25176 0.0
C709 C 0.70995 0.24441 0.26872 0.0
C710 C 0.68794 0.24326 0.26333 0.0
C711 C 0.6797 0.2459 0.24078 0.0
C712 C 0.69398 0.24974 0.22381 0.0
C713 C 0.7159 0.25088 0.22918 0.0
C714 C 0.80263 0.30208 0.31607 0.0
C715 C 0.78396 0.33632 0.27249 0.0
O716 O 0.85095 0.3447 0.26865 0.0
O717 O 0.85435 0.3305 0.30099 0.0
O718 O 0.821 0.31232 0.23622 0.0
O719 O 0.80906 0.28213 0.25068 0.0
O720 O 0.83863 0.28165 0.28031 0.0
O721 O 0.80591 0.25128 0.27131 0.0
O722 O 0.75615 0.25322 0.2791 0.0
O723 O 0.76052 0.25871 0.24326 0.0
O724 O 0.79063 0.27909 0.31092 0.0
O725 O 0.80225 0.31075 0.2976 0.0
O726 O 0.77271 0.31204 0.26782 0.0
O727 O 0.80548 0.34197 0.27822 0.0
H728 H 0.89448 0.3863 0.28552 0.0
H729 H 0.93275 0.38946 0.28183 0.0
H730 H 0.92179 0.31046 0.28067 0.0
H731 H 0.88347 0.30733 0.28353 0.0
H732 H 0.71575 0.24196 0.28611 0.0
H733 H 0.67735 0.2401 0.27674 0.0
H734 H 0.68833 0.25233 0.20644 0.0
H735 H 0.72631 0.25361 0.21553 0.0
La736 La 0.08239 0.55658 0.57829 0.0
La737 La 0.07219 0.56776 0.52732 0.0
C738 C 0.08493 0.55561 0.62194 0.0
C739 C 0.0699 0.55484 0.63979 0.0
C740 C 0.07636 0.55128 0.66248 0.0
C741 C 0.06158 0.54888 0.67899 0.0
C742 C 0.04014 0.54982 0.67286 0.0
C743 C 0.03399 0.55408 0.65031 0.0
C744 C 0.04873 0.55652 0.63394 0.0
C745 C 0.08759 0.52449 0.5406 0.0
C746 C 0.03378 0.54132 0.55181 0.0
C747 C 0.06486 0.56379 0.48307 0.0
C748 C 0.06988 0.57846 0.4648 0.0
C749 C 0.05303 0.58488 0.4523 0.0
C750 C 0.05638 0.5943 0.43184 0.0
C751 C 0.07656 0.5971 0.42336 0.0
C752 C 0.09389 0.59272 0.43717 0.0
C753 C 0.09059 0.5835 0.45769 0.0
C754 C 0.07253 0.60625 0.56291 0.0
C755 C 0.12084 0.5817 0.5532 0.0
O756 O 0.08066 0.53546 0.60449 0.0
O757 O 0.08978 0.5764 0.61419 0.0
O758 O 0.09908 0.52916 0.5615 0.0
O759 O 0.07313 0.53612 0.54199 0.0
O760 O 0.04675 0.54657 0.57244 0.0
O761 O 0.04111 0.54489 0.53164 0.0
O762 O 0.05206 0.57093 0.49811 0.0
O763 O 0.08076 0.55671 0.49333 0.0
O764 O 0.06948 0.60659 0.54042 0.0
O765 O 0.07608 0.58555 0.56354 0.0
O766 O 0.10751 0.57725 0.53293 0.0
O767 O 0.1142 0.5782 0.57382 0.0
H768 H 0.09269 0.5499 0.66724 0.0
H769 H 0.0667 0.54554 0.69622 0.0
H770 H 0.01769 0.55536 0.64524 0.0
H771 H 0.04344 0.55934 0.6166 0.0
H772 H 0.03692 0.58126 0.45752 0.0
H773 H 0.0428 0.59784 0.42182 0.0
H774 H 0.10961 0.59433 0.43111 0.0
H775 H 0.10394 0.57888 0.46703 0.0
La776 La 0.78472 0.79992 0.27449 0.0
La777 La 0.83337 0.79451 0.27827 0.0
C778 C 0.74402 0.78732 0.27387 0.0
C779 C 0.72628 0.79084 0.28825 0.0
C780 C 0.71333 0.80664 0.28334 0.0
C781 C 0.69457 0.80704 0.29418 0.0
C782 C 0.68814 0.79145 0.31006 0.0
C783 C 0.70154 0.77628 0.31556 0.0
C784 C 0.72029 0.77593 0.30478 0.0
C785 C 0.81361 0.84455 0.27577 0.0
C786 C 0.81353 0.81364 0.32591 0.0
C787 C 0.87396 0.80467 0.27849 0.0
C788 C 0.89072 0.79718 0.26454 0.0
C789 C 0.90845 0.79165 0.27631 0.0
C790 C 0.92607 0.78818 0.26442 0.0
C791 C 0.9265 0.79042 0.24047 0.0
C792 C 0.90828 0.79498 0.22845 0.0
C793 C 0.8906 0.79825 0.24029 0.0
C794 C 0.80372 0.75036 0.27705 0.0
C795 C 0.80526 0.78238 0.22668 0.0
O796 O 0.75414 0.80591 0.26502 0.0
O797 O 0.75724 0.77509 0.28136 0.0
O798 O 0.79262 0.8405 0.27456 0.0
O799 O 0.81703 0.82328 0.27667 0.0
O800 O 0.79395 0.80911 0.31349 0.0
O801 O 0.83099 0.81102 0.31565 0.0
O802 O 0.86361 0.7891 0.29045 0.0
O803 O 0.86113 0.81574 0.26833 0.0
O804 O 0.82452 0.75328 0.27733 0.0
O805 O 0.80134 0.77199 0.27663 0.0
O806 O 0.82446 0.78617 0.23954 0.0
O807 O 0.78758 0.78506 0.23655 0.0
H808 H 0.71729 0.81814 0.27051 0.0
H809 H 0.68487 0.81925 0.28974 0.0
H810 H 0.69704 0.76374 0.32739 0.0
H811 H 0.72963 0.76319 0.30875 0.0
H812 H 0.909 0.79079 0.295 0.0
H813 H 0.93956 0.7842 0.27418 0.0
H814 H 0.908 0.79714 0.21014 0.0
H815 H 0.87722 0.80256 0.23066 0.0
La816 La 0.80999 0.29515 0.76563 0.0
La817 La 0.79358 0.30455 0.80978 0.0
C818 C 0.8207 0.29606 0.72455 0.0
C819 C 0.81051 0.29014 0.69963 0.0
C820 C 0.82392 0.29196 0.68181 0.0
C821 C 0.81517 0.29077 0.65848 0.0
C822 C 0.79274 0.28765 0.65247 0.0
C823 C 0.77913 0.28422 0.67019 0.0
C824 C 0.78799 0.2855 0.69366 0.0
C825 C 0.8325 0.28158 0.79957 0.0
C826 C 0.82726 0.34939 0.80122 0.0
C827 C 0.77954 0.30349 0.84941 0.0
C828 C 0.77618 0.28602 0.86527 0.0
C829 C 0.76869 0.29299 0.88712 0.0
C830 C 0.76742 0.27762 0.9035 0.0
C831 C 0.77356 0.25503 0.89814 0.0
C832 C 0.78033 0.2477 0.87581 0.0
C833 C 0.78174 0.26318 0.85953 0.0
C834 C 0.77296 0.31893 0.77486 0.0
C835 C 0.77824 0.25134 0.77646 0.0
O836 O 0.8162 0.31483 0.73868 0.0
O837 O 0.82041 0.27727 0.73471 0.0
O838 O 0.82795 0.27031 0.77722 0.0
O839 O 0.82524 0.30081 0.80229 0.0
O840 O 0.8258 0.3354 0.77946 0.0
O841 O 0.81702 0.34036 0.81765 0.0
O842 O 0.7671 0.29641 0.82875 0.0
O843 O 0.79976 0.313 0.84727 0.0
O844 O 0.77821 0.33128 0.79689 0.0
O845 O 0.77876 0.2989 0.77306 0.0
O846 O 0.78587 0.26368 0.79868 0.0
O847 O 0.78207 0.2629 0.75893 0.0
H848 H 0.84136 0.29568 0.6862 0.0
H849 H 0.82632 0.29405 0.64562 0.0
H850 H 0.76179 0.28153 0.66617 0.0
H851 H 0.77744 0.284 0.70734 0.0
H852 H 0.76438 0.31063 0.89179 0.0
H853 H 0.76203 0.28361 0.92054 0.0
H854 H 0.78546 0.23057 0.87136 0.0
H855 H 0.78785 0.2577 0.84286 0.0
La856 La 0.82552 0.8286 0.78372 0.0
La857 La 0.78945 0.77877 0.76668 0.0
C858 C 0.85104 0.86911 0.7806 0.0
C859 C 0.84938 0.88831 0.76688 0.0
C860 C 0.84803 0.91199 0.77895 0.0
C861 C 0.84297 0.9289 0.7661 0.0
C862 C 0.83899 0.92232 0.74092 0.0
C863 C 0.84181 0.89937 0.72879 0.0
C864 C 0.84736 0.8827 0.74169 0.0
C865 C 0.81839 0.80634 0.82039 0.0
C866 C 0.77768 0.82701 0.79176 0.0
C867 C 0.76489 0.73547 0.76181 0.0
C868 C 0.76648 0.71442 0.77303 0.0
C869 C 0.77182 0.69349 0.75979 0.0
C870 C 0.77711 0.67561 0.77119 0.0
C871 C 0.77715 0.67838 0.79604 0.0
C872 C 0.77017 0.69824 0.80894 0.0
C873 C 0.76469 0.71599 0.7975 0.0
C874 C 0.79515 0.80833 0.73533 0.0
C875 C 0.83958 0.7785 0.77005 0.0
O876 O 0.83842 0.86734 0.7973 0.0
O877 O 0.85131 0.84702 0.76824 0.0
O878 O 0.83248 0.8276 0.82184 0.0
O879 O 0.80972 0.79892 0.79882 0.0
O880 O 0.79522 0.84019 0.78502 0.0
O881 O 0.77382 0.80252 0.78923 0.0
O882 O 0.77918 0.7412 0.74742 0.0
O883 O 0.76229 0.75549 0.776 0.0
O884 O 0.77678 0.79339 0.73699 0.0
O885 O 0.80927 0.80482 0.7499 0.0
O886 O 0.81894 0.76544 0.76664 0.0
O887 O 0.84592 0.80327 0.77659 0.0
H888 H 0.84985 0.91696 0.79835 0.0
H889 H 0.84072 0.94642 0.7759 0.0
H890 H 0.83898 0.89397 0.70939 0.0
H891 H 0.84926 0.86508 0.73191 0.0
H892 H 0.77304 0.69163 0.74086 0.0
H893 H 0.78256 0.66056 0.76081 0.0
H894 H 0.76981 0.70059 0.82805 0.0
H895 H 0.76017 0.73161 0.80817 0.0
La896 La 0.5431 0.53446 0.50582 0.0
La897 La 0.58633 0.56901 0.53294 0.0
C898 C 0.50346 0.51159 0.49757 0.0
C899 C 0.48571 0.51684 0.51046 0.0
C900 C 0.46403 0.50446 0.5014 0.0
C901 C 0.44737 0.51104 0.51336 0.0
C902 C 0.45221 0.52984 0.53478 0.0
C903 C 0.47413 0.54139 0.54412 0.0
C904 C 0.49061 0.53536 0.53176 0.0
C905 C 0.57313 0.53679 0.47435 0.0
C906 C 0.55295 0.59352 0.50976 0.0
C907 C 0.62624 0.59082 0.54162 0.0
C908 C 0.64527 0.58193 0.53564 0.0
C909 C 0.66621 0.59704 0.54482 0.0
C910 C 0.68422 0.58752 0.54116 0.0
C911 C 0.68151 0.56266 0.52838 0.0
C912 C 0.66047 0.54791 0.51856 0.0
C913 C 0.64253 0.55746 0.52218 0.0
C914 C 0.55611 0.56748 0.56417 0.0
C915 C 0.57584 0.5104 0.53111 0.0
O916 O 0.51232 0.52892 0.48663 0.0
O917 O 0.51808 0.5045 0.50984 0.0
O918 O 0.55301 0.52383 0.46985 0.0
O919 O 0.57544 0.54724 0.4967 0.0
O920 O 0.53813 0.57188 0.50698 0.0
O921 O 0.57347 0.59637 0.51826 0.0
O922 O 0.61543 0.57979 0.55654 0.0
O923 O 0.61337 0.59265 0.52348 0.0
O924 O 0.57594 0.58135 0.56831 0.0
O925 O 0.55386 0.55626 0.542 0.0
O926 O 0.5909 0.53185 0.5342 0.0
O927 O 0.5556 0.50781 0.52189 0.0
H928 H 0.45999 0.49028 0.48479 0.0
H929 H 0.43075 0.50204 0.50528 0.0
H930 H 0.47867 0.55555 0.56072 0.0
H931 H 0.50728 0.54554 0.53854 0.0
H932 H 0.66859 0.61597 0.55527 0.0
H933 H 0.70024 0.59949 0.54866 0.0
H934 H 0.65774 0.52862 0.50889 0.0
H935 H 0.62645 0.54549 0.51501 0.0
La936 La 0.08325 0.5502 1.00391 0.0
La937 La 0.03441 0.54384 1.00443 0.0
C938 C 0.12229 0.54838 1.01135 0.0
C939 C 0.13622 0.5307 1.01141 0.0
C940 C 0.14677 0.52434 0.99152 0.0
C941 C 0.16232 0.5107 0.99265 0.0
C942 C 0.1679 0.50321 1.01376 0.0
C943 C 0.1568 0.50884 0.03339 0.0
C944 C 0.14123 0.52249 0.03227 0.0
C945 C 0.06135 0.55429 0.96496 0.0
C946 C 0.04979 0.49502 0.99117 0.0
C947 C 0.99545 0.5458 0.99691 0.0
C948 C 0.98137 0.5633 1.00055 0.0
C949 C 0.97901 0.57578 0.02355 0.0
C950 C 0.96376 0.58998 0.02649 0.0
C951 C 0.95055 0.59205 1.00652 0.0
C952 C 0.95337 0.58002 0.98352 0.0
C953 C 0.96854 0.56581 0.98061 0.0
C954 C 0.05691 0.54108 0.04376 0.0
C955 C 0.06761 0.59911 0.01874 0.0
O956 O 0.1128 0.54959 0.99067 0.0
O957 O 0.10971 0.55012 0.02807 0.0
O958 O 0.08117 0.56721 0.97307 0.0
O959 O 0.055 0.539 0.97773 0.0
O960 O 0.07002 0.50908 0.99875 0.0
O961 O 0.03332 0.50515 0.98872 0.0
O962 O 1.00374 0.53977 0.01582 0.0
O963 O 1.0092 0.54886 0.98146 0.0
O964 O 0.0369 0.52833 0.03658 0.0
O965 O 0.06263 0.55544 0.03014 0.0
O966 O 0.04741 0.58498 1.01126 0.0
O967 O 0.08436 0.58915 0.02004 0.0
H968 H 0.14351 0.53055 0.97526 0.0
H969 H 0.17025 0.50639 0.97703 0.0
H970 H 0.16079 0.50364 0.05003 0.0
H971 H 0.13369 0.52736 0.04808 0.0
H972 H 0.98862 0.57423 0.03933 0.0
H973 H 0.96227 0.59924 0.04444 0.0
H974 H 0.94334 0.58086 0.96773 0.0
H975 H 0.96984 0.55618 0.96271 0.0
H976 H 0.04421 0.2123 0.94162 0.0
H977 H 0.98776 0.20313 0.97834 0.0
H978 H 0.05605 0.18139 0.95996 0.0
H979 H 0.99976 0.17244 0.99691 0.0
H980 H 0.08061 0.13795 1.01109 0.0
H981 H 0.07 0.17195 0.99667 0.0
H982 H 1.00278 0.12992 0.98599 0.0
H983 H 1.01331 0.09621 1.00062 0.0
C984 C 0.03441 0.20396 0.95383 0.0
C985 C 0.01492 0.21035 0.95834 0.0
C986 C 0.04129 0.18622 0.96448 0.0
C987 C 0.02887 0.17412 0.97991 0.0
C988 C 1.00966 0.18097 0.98488 0.0
C989 C 1.00283 0.19881 0.97433 0.0
C990 C 0.06354 0.13603 1.00589 0.0
C991 C 0.04789 0.11416 1.00708 0.0
C992 C 0.05744 0.15552 0.99741 0.0
C993 C 0.03547 0.15385 0.99002 0.0
C994 C 0.01982 0.13219 0.99173 0.0
C995 C 0.02591 0.11268 1.00004 0.0
H996 H 0.17053 0.85341 0.1822 0.0
H997 H 0.15405 0.77247 0.16525 0.0
H998 H 0.20315 0.85449 0.20834 0.0
H999 H 0.18649 0.77355 0.1913 0.0
H1000 H 0.25354 0.78296 0.23143 0.0
H1001 H 0.2268 0.78505 0.19916 0.0
H1002 H 0.20884 0.84361 0.24748 0.0
H1003 H 0.23548 0.84153 0.27936 0.0
C1004 C 0.17405 0.83586 0.18366 0.0
C1005 C 0.15952 0.81286 0.17169 0.0
C1006 C 0.19269 0.83646 0.19879 0.0
C1007 C 0.19744 0.81409 0.20213 0.0
C1008 C 0.18352 0.79115 0.18909 0.0
C1009 C 0.1648 0.79055 0.17421 0.0
C1010 C 0.24419 0.7966 0.23492 0.0
C1011 C 0.2467 0.81214 0.2579 0.0
C1012 C 0.22872 0.79768 0.21652 0.0
C1013 C 0.21558 0.81452 0.22065 0.0
C1014 C 0.21878 0.83065 0.24346 0.0
C1015 C 0.234 0.82935 0.26182 0.0
H1016 H 0.48679 0.83584 0.47864 0.0
H1017 H 0.5387 0.83945 0.43507 0.0
H1018 H 0.49901 0.88109 0.49397 0.0
H1019 H 0.55082 0.8849 0.45039 0.0
H1020 H 0.57516 0.96609 0.4982 0.0
H1021 H 0.56637 0.92012 0.48656 0.0
H1022 H 0.49816 0.91698 0.47621 0.0
H1023 H 0.50678 0.96239 0.48777 0.0
C1024 C 0.50096 0.84618 0.47249 0.0
C1025 C 0.5116 0.83383 0.45541 0.0
C1026 C 0.5079 0.87223 0.4812 0.0
C1027 C 0.52575 0.88675 0.47321 0.0
C1028 C 0.53707 0.87433 0.45702 0.0
C1029 C 0.53004 0.84822 0.44817 0.0
C1030 C 0.5583 0.95556 0.49345 0.0
C1031 C 0.54172 0.96807 0.4939 0.0
C1032 C 0.55327 0.92921 0.48671 0.0
C1033 C 0.53153 0.91478 0.4806 0.0
C1034 C 0.51505 0.92738 0.48116 0.0
C1035 C 0.52005 0.95356 0.48764 0.0
H1036 H 0.529 0.33716 0.64876 0.0
H1037 H 0.55545 0.29981 0.69814 0.0
H1038 H 0.49613 0.33286 0.66735 0.0
H1039 H 0.52203 0.29463 0.71639 0.0
H1040 H 0.47139 0.31715 0.76156 0.0
H1041 H 0.50346 0.31855 0.74161 0.0
H1042 H 0.464 0.3057 0.67324 0.0
H1043 H 0.43216 0.30598 0.69337 0.0
C1044 C 0.52763 0.32752 0.66329 0.0
C1045 C 0.54491 0.3188 0.67192 0.0
C1046 C 0.50865 0.32497 0.67397 0.0
C1047 C 0.50629 0.31345 0.6935 0.0
C1048 C 0.52335 0.30402 0.70167 0.0
C1049 C 0.54246 0.30675 0.69106 0.0
C1050 C 0.46954 0.31503 0.74231 0.0
C1051 C 0.44906 0.31167 0.72919 0.0
C1052 C 0.48796 0.31537 0.73077 0.0
C1053 C 0.48646 0.31217 0.70572 0.0
C1054 C 0.46594 0.30855 0.69257 0.0
C1055 C 0.44755 0.30841 0.70413 0.0
H1056 H 0.97658 0.79526 0.59706 0.0
H1057 H 0.03722 0.8268 0.64463 0.0
H1058 H 0.98841 0.82489 0.57219 0.0
H1059 H 0.04917 0.85597 0.61947 0.0
H1060 H 0.05006 0.92468 0.58784 0.0
H1061 H 0.04021 0.89273 0.61075 0.0
H1062 H 0.01389 0.83692 0.54502 0.0
H1063 H 0.02296 0.86918 0.52211 0.0
C1064 C 0.99256 0.80828 0.60207 0.0
C1065 C 1.00586 0.80876 0.62301 0.0
C1066 C 0.99937 0.82519 0.58772 0.0
C1067 C 0.01968 0.84295 0.59392 0.0
C1068 C 0.03327 0.84286 0.61441 0.0
C1069 C 0.02645 0.82601 0.62878 0.0
C1070 C 0.04207 0.90563 0.57826 0.0
C1071 C 0.03719 0.89954 0.55315 0.0
C1072 C 0.03666 0.88722 0.59138 0.0
C1073 C 0.02627 0.86222 0.57973 0.0
C1074 C 0.02169 0.85603 0.55457 0.0
C1075 C 0.02712 0.87447 0.54143 0.0
H1076 H 0.54793 0.81879 0.85147 0.0
H1077 H 0.57999 0.88532 0.82895 0.0
H1078 H 0.51374 0.81846 0.82942 0.0
H1079 H 0.54541 0.88503 0.80678 0.0
H1080 H 0.4722 0.89111 0.80905 0.0
H1081 H 0.50975 0.8917 0.82084 0.0
H1082 H 0.49593 0.81304 0.78693 0.0
H1083 H 0.45837 0.81245 0.77457 0.0
C1084 C 0.54767 0.83329 0.84169 0.0
C1085 C 0.56655 0.85222 0.84207 0.0
C1086 C 0.52814 0.83293 0.82884 0.0
C1087 C 0.52699 0.85163 0.8163 0.0
C1088 C 0.54592 0.8704 0.81633 0.0
C1089 C 0.56564 0.87055 0.82895 0.0
C1090 C 0.47728 0.87411 0.8034 0.0
C1091 C 0.4622 0.85162 0.79113 0.0
C1092 C 0.49881 0.87448 0.81019 0.0
C1093 C 0.50563 0.85236 0.805 0.0
C1094 C 0.49096 0.83027 0.79142 0.0
C1095 C 0.46947 0.82993 0.78447 0.0
H1096 H 0.49327 0.20279 0.12766 0.0
H1097 H 0.55364 0.24033 0.17422 0.0
H1098 H 0.51079 0.17502 0.10457 0.0
H1099 H 0.57138 0.21111 0.15137 0.0
H1100 H 0.53811 0.11836 0.06874 0.0
H1101 H 0.52505 0.14142 0.10214 0.0
H1102 H 0.58419 0.20122 0.11392 0.0
H1103 H 0.59813 0.17631 0.0818 0.0
C1104 C 0.51028 0.20481 0.13338 0.0
C1105 C 0.52201 0.22399 0.15284 0.0
C1106 C 0.52039 0.18852 0.12015 0.0
C1107 C 0.54257 0.19041 0.12611 0.0
C1108 C 0.55432 0.20914 0.14607 0.0
C1109 C 0.54413 0.22581 0.15928 0.0
C1110 C 0.54856 0.13607 0.07899 0.0
C1111 C 0.569 0.14568 0.07271 0.0
C1112 C 0.54099 0.14955 0.09797 0.0
C1113 C 0.55315 0.17376 0.11027 0.0
C1114 C 0.5743 0.18271 0.10492 0.0
C1115 C 0.58227 0.16858 0.08643 0.0
H1116 H 0.17456 0.39495 0.33449 0.0
H1117 H 0.17753 0.3386 0.37494 0.0
H1118 H 0.20539 0.38637 0.31525 0.0
H1119 H 0.20831 0.33025 0.3558 0.0
H1120 H 0.23599 0.29493 0.29185 0.0
H1121 H 0.20851 0.30951 0.31286 0.0
H1122 H 0.24544 0.3863 0.32141 0.0
H1123 H 0.27328 0.37172 0.30022 0.0
C1124 C 0.18208 0.38117 0.33972 0.0
C1125 C 0.17333 0.36715 0.35596 0.0
C1126 C 0.19974 0.37629 0.32867 0.0
C1127 C 0.20887 0.35724 0.33361 0.0
C1128 C 0.20122 0.34464 0.35124 0.0
C1129 C 0.18369 0.34958 0.36234 0.0
C1130 C 0.23824 0.31496 0.29791 0.0
C1131 C 0.25697 0.33213 0.29452 0.0
C1132 C 0.22256 0.32329 0.31018 0.0
C1133 C 0.22511 0.349 0.31928 0.0
C1134 C 0.24317 0.36635 0.31474 0.0
C1135 C 0.25904 0.35798 0.30254 0.0
H1136 H 0.01798 0.08573 0.21307 0.0
H1137 H 0.95433 0.05356 0.17242 0.0
H1138 H 0.03425 0.08253 0.1768 0.0
H1139 H 0.97112 0.05062 0.13492 0.0
H1140 H 0.01539 0.03251 0.07097 0.0
H1141 H 0.99423 0.03325 0.1052 0.0
H1142 H 0.04205 0.09982 0.14472 0.0
H1143 H 0.06263 0.09889 0.11135 0.0
C1144 C 1.0071 0.078 0.19638 0.0
C1145 C 0.98436 0.07017 0.19673 0.0
C1146 C 0.01674 0.07633 0.17496 0.0
C1147 C 1.00451 0.0667 0.15186 0.0
C1148 C 0.98162 0.05825 0.15187 0.0
C1149 C 0.97179 0.06004 0.17369 0.0
C1150 C 0.02125 0.04754 0.0868 0.0
C1151 C 0.04114 0.06573 0.08766 0.0
C1152 C 1.00901 0.04795 0.10681 0.0
C1153 C 0.01614 0.06636 0.12884 0.0
C1154 C 0.0357 0.08469 0.12905 0.0
C1155 C 0.04769 0.08431 0.10935 0.0
H1156 H 0.2641 0.65763 0.49924 0.0
H1157 H 0.32996 0.70478 0.51466 0.0
H1158 H 0.25411 0.68525 0.47488 0.0
H1159 H 0.32001 0.73192 0.49034 0.0
H1160 H 0.26053 0.72039 0.40663 0.0
H1161 H 0.26377 0.69494 0.4358 0.0
H1162 H 0.2975 0.76183 0.48914 0.0
H1163 H 0.29488 0.78717 0.4598 0.0
C1164 C 0.27638 0.67391 0.49757 0.0
C1165 C 0.29786 0.67891 0.50873 0.0
C1166 C 0.27066 0.68965 0.48363 0.0
C1167 C 0.28626 0.71076 0.48087 0.0
C1168 C 0.30755 0.71602 0.49247 0.0
C1169 C 0.3133 0.70027 0.5062 0.0
C1170 C 0.26845 0.72964 0.42466 0.0
C1171 C 0.27775 0.75568 0.43087 0.0
C1172 C 0.27007 0.71512 0.44141 0.0
C1173 C 0.28107 0.72643 0.46462 0.0
C1174 C 0.28917 0.75264 0.47125 0.0
C1175 C 0.28752 0.76715 0.45453 0.0
H1176 H 0.66544 0.02701 0.64377 0.0
H1177 H 0.61111 0.97133 0.65673 0.0
H1178 H 0.64202 0.03522 0.61219 0.0
H1179 H 0.58764 0.98033 0.6263 0.0
H1180 H 0.55122 0.99104 0.56057 0.0
H1181 H 0.57723 0.97833 0.58575 0.0
H1182 H 0.614 0.0559 0.61052 0.0
H1183 H 0.58845 0.0682 0.58443 0.0
C1184 C 0.64857 1.01639 0.63975 0.0
C1185 C 0.6401 0.99869 0.6529 0.0
C1186 C 0.63509 0.02125 0.62182 0.0
C1187 C 0.61282 1.00874 0.61692 0.0
C1188 C 0.60469 0.99018 0.62933 0.0
C1189 C 0.61819 0.9851 0.64696 0.0
C1190 C 0.56484 1.00529 0.57154 0.0
C1191 C 0.56786 0.03057 0.57082 0.0
C1192 C 0.57977 0.99806 0.58593 0.0
C1193 C 0.59777 1.01608 0.60022 0.0
C1194 C 0.60062 0.04143 0.59945 0.0
C1195 C 0.58586 0.04857 0.58478 0.0
H1196 H 0.31057 0.38256 0.97778 0.0
H1197 H 0.35626 0.33775 0.9817 0.0
H1198 H 0.30319 0.36698 0.93433 0.0
H1199 H 0.34855 0.32181 0.93847 0.0
H1200 H 0.3524 0.32461 0.86016 0.0
H1201 H 0.35651 0.33699 0.90356 0.0
H1202 H 0.28801 0.33221 0.90028 0.0
H1203 H 0.28392 0.32021 0.85651 0.0
C1204 C 0.31875 0.36901 0.9695 0.0
C1205 C 0.33415 0.36161 0.98344 0.0
C1206 C 0.31448 0.36001 0.94447 0.0
C1207 C 0.32548 0.34334 0.93262 0.0
C1208 C 0.3401 0.33507 0.94674 0.0
C1209 C 0.3444 0.34408 0.97169 0.0
C1210 C 0.33812 0.32612 0.86856 0.0
C1211 C 0.3178 0.32134 0.85458 0.0
C1212 C 0.34047 0.33307 0.89364 0.0
C1213 C 0.32259 0.33549 0.9057 0.0
C1214 C 0.30222 0.33077 0.89175 0.0
C1215 C 0.29985 0.32375 0.86656 0.0
H1216 H 0.99384 0.0426 0.3205 0.0
H1217 H 0.95838 0.09023 0.35826 0.0
H1218 H 1.01123 0.03882 0.3586 0.0
H1219 H 0.97576 0.08647 0.39663 0.0
H1220 H 0.02761 0.0185 0.43109 0.0
H1221 H 1.00969 0.02216 0.39319 0.0
H1222 H 1.00713 0.0969 0.42616 0.0
H1223 H 0.02498 0.09307 0.46411 0.0
C1224 C 0.98953 0.05223 0.3369 0.0
C1225 C 0.97434 0.06668 0.33565 0.0
C1226 C 0.99959 0.04996 0.35913 0.0
C1227 C 0.99529 0.06224 0.38155 0.0
C1228 C 0.98005 0.07675 0.38027 0.0
C1229 C 0.96979 0.07881 0.35796 0.0
C1230 C 0.02335 0.03585 0.43044 0.0
C1231 C 0.02817 0.05547 0.45135 0.0
C1232 C 1.01299 0.03805 0.40831 0.0
C1233 C 1.00658 0.05993 0.40575 0.0
C1234 C 1.01132 0.07952 0.42676 0.0
C1235 C 0.02189 0.07739 0.44884 0.0
H1236 H 0.28245 0.66371 0.61789 0.0
H1237 H 0.34738 0.70799 0.61655 0.0
H1238 H 0.27807 0.69625 0.6507 0.0
H1239 H 0.34299 0.7402 0.64937 0.0
H1240 H 0.32308 0.80401 0.69361 0.0
H1241 H 0.32202 0.77193 0.65757 0.0
H1242 H 0.2932 0.71413 0.69325 0.0
H1243 H 0.29409 0.74604 0.72898 0.0
C1244 C 0.29584 0.68024 0.62467 0.0
C1245 C 0.31529 0.68316 0.61457 0.0
C1246 C 0.29329 0.6989 0.64343 0.0
C1247 C 0.31008 0.72091 0.65239 0.0
C1248 C 0.32958 0.72369 0.6425 0.0
C1249 C 0.33218 0.70504 0.62386 0.0
C1250 C 0.31605 0.78449 0.69349 0.0
C1251 C 0.30879 0.77749 0.71409 0.0
C1252 C 0.31563 0.76612 0.67299 0.0
C1253 C 0.3078 0.74051 0.67273 0.0
C1254 C 0.29922 0.73369 0.69283 0.0
C1255 C 0.29975 0.75199 0.71331 0.0
H1256 H 0.68156 0.04182 0.80034 0.0
H1257 H 0.61739 1.00119 0.76436 0.0
H1258 H 0.66666 0.05542 0.83642 0.0
H1259 H 0.60224 1.0139 0.80099 0.0
H1260 H 0.58017 0.06311 0.86153 0.0
H1261 H 0.59487 0.04882 0.82534 0.0
H1262 H 0.65103 0.0423 0.86843 0.0
H1263 H 0.63726 0.05869 0.90452 0.0
C1264 C 0.66431 0.0352 0.80036 0.0
C1265 C 0.65068 0.02009 0.77971 0.0
C1266 C 0.65569 0.04304 0.8211 0.0
C1267 C 0.63322 0.03563 0.82178 0.0
C1268 C 0.61959 0.02028 0.80106 0.0
C1269 C 0.62823 1.01282 0.78014 0.0
C1270 C 0.59584 0.05907 0.86331 0.0
C1271 C 0.60756 0.06223 0.88602 0.0
C1272 C 0.6041 0.0504 0.8425 0.0
C1273 C 0.62415 0.04433 0.84389 0.0
C1274 C 0.63571 0.04715 0.86661 0.0
C1275 C 0.62762 0.0562 0.88739 0.0
H1276 H 0.30286 0.37943 0.1113 0.0
H1277 H 0.35778 0.34749 0.11074 0.0
H1278 H 0.29411 0.36466 0.14746 0.0
H1279 H 0.34897 0.3327 0.14655 0.0
H1280 H 0.34281 0.33404 0.22535 0.0
H1281 H 0.3501 0.34916 0.18906 0.0
H1282 H 0.28136 0.32774 0.16379 0.0
H1283 H 0.27414 0.31288 0.20025 0.0
C1284 C 0.31291 0.36897 0.1186 0.0
C1285 C 0.33109 0.36477 0.10788 0.0
C1286 C 0.30789 0.36049 0.13944 0.0
C1287 C 0.32097 0.3477 0.1503 0.0
C1288 C 0.33874 0.34291 0.13914 0.0
C1289 C 0.34368 0.35123 0.11832 0.0
C1290 C 0.32925 0.33271 0.21212 0.0
C1291 C 0.30789 0.32215 0.21573 0.0
C1292 C 0.33342 0.34121 0.19115 0.0
C1293 C 0.31635 0.33952 0.17318 0.0
C1294 C 0.29494 0.32954 0.17716 0.0
C1295 C 0.29079 0.3209 0.19807 0.0
H1296 H 0.31671 0.04929 0.04559 0.0
H1297 H 0.27824 0.97419 1.01198 0.0
H1298 H 0.28421 0.06433 0.04449 0.0
H1299 H 0.24547 0.98932 1.0112 0.0
H1300 H 0.19417 0.03213 0.99591 0.0
H1301 H 0.22669 1.0167 0.99353 0.0
H1302 H 0.25252 0.05972 0.06546 0.0
H1303 H 0.22015 0.07491 0.06794 0.0
C1304 C 0.30131 0.03596 0.03788 0.0
C1305 C 0.30008 1.01047 0.02904 0.0
C1306 C 0.28264 0.04459 0.03737 0.0
C1307 C 0.2622 0.02799 0.02803 0.0
C1308 C 0.26099 1.00262 0.01842 0.0
C1309 C 0.27975 0.99393 0.01895 0.0
C1310 C 0.20675 0.03818 1.01125 0.0
C1311 C 0.20458 0.05493 0.03206 0.0
C1312 C 0.22537 0.02933 1.00988 0.0
C1313 C 0.24226 0.03711 0.02924 0.0
C1314 C 0.24003 0.05375 0.05003 0.0
C1315 C 0.22145 0.06252 0.05143 0.0
H1316 H 0.72535 0.64559 0.04407 0.0
H1317 H 0.71482 0.65193 0.97063 0.0
H1318 H 0.68771 0.62201 0.04074 0.0
H1319 H 0.67682 0.62841 0.96737 0.0
H1320 H 0.61972 0.55737 0.96427 0.0
H1321 H 0.65596 0.58518 0.9662 0.0
H1322 H 0.65069 0.62524 0.03686 0.0
H1323 H 0.61509 0.59669 0.03511 0.0
C1324 C 0.71495 0.64218 0.02724 0.0
C1325 C 0.72322 0.65065 1.0076 0.0
C1326 C 0.69324 0.62874 0.02538 0.0
C1327 C 0.67912 0.62325 1.00378 0.0
C1328 C 0.68726 0.63208 0.98421 0.0
C1329 C 0.70902 0.64572 0.98613 0.0
C1330 C 0.62626 0.57239 0.98003 0.0
C1331 C 0.61428 0.57543 0.99926 0.0
C1332 C 0.64696 0.58842 0.98111 0.0
C1333 C 0.6563 0.60761 1.00164 0.0
C1334 C 0.6441 0.6107 0.02076 0.0
C1335 C 0.62343 0.5947 0.01961 0.0
H1336 H 0.7494 0.48333 0.31231 0.0
H1337 H 0.69903 0.44306 0.25381 0.0
H1338 H 0.76514 0.4478 0.30784 0.0
H1339 H 0.71502 0.40691 0.24913 0.0
H1340 H 0.73982 0.3356 0.25986 0.0
H1341 H 0.72294 0.37082 0.26191 0.0
H1342 H 0.78542 0.42284 0.28877 0.0
H1343 H 0.80199 0.38799 0.2868 0.0
C1344 C 0.74163 0.46703 0.29811 0.0
C1345 C 0.7227 0.46711 0.28336 0.0
C1346 C 0.75092 0.44616 0.29545 0.0
C1347 C 0.74188 0.42348 0.27796 0.0
C1348 C 0.72288 0.42343 0.26303 0.0
C1349 C 0.71366 0.44462 0.26555 0.0
C1350 C 0.75008 0.35451 0.26621 0.0
C1351 C 0.77266 0.35814 0.27317 0.0
C1352 C 0.74026 0.37511 0.26731 0.0
C1353 C 0.75233 0.40066 0.27573 0.0
C1354 C 0.7749 0.40407 0.28254 0.0
C1355 C 0.78467 0.38362 0.28123 0.0
H1356 H 0.89407 0.50595 0.52044 0.0
H1357 H 0.90471 0.44887 0.55682 0.0
H1358 H 0.93304 0.52467 0.52584 0.0
H1359 H 0.94387 0.4675 0.56191 0.0
H1360 H 1.01122 0.52566 0.58715 0.0
H1361 H 0.97208 0.507 0.58381 0.0
H1362 H 0.96438 0.51274 0.50996 0.0
H1363 H 1.00293 0.53149 0.51321 0.0
C1364 C 0.90474 0.49729 0.52944 0.0
C1365 C 0.89633 0.47581 0.53801 0.0
C1366 C 0.92706 0.508 0.53251 0.0
C1367 C 0.94148 0.49751 0.54427 0.0
C1368 C 0.93311 0.4761 0.55298 0.0
C1369 C 0.91072 0.4653 0.54982 0.0
C1370 C 1.00113 0.52298 0.57025 0.0
C1371 C 1.01024 0.53011 0.55049 0.0
C1372 C 0.97878 0.51218 0.56831 0.0
C1373 C 0.9652 0.50854 0.54664 0.0
C1374 C 0.97437 0.51564 0.52697 0.0
C1375 C 0.99656 0.52627 0.52886 0.0
H1376 H 0.38647 0.06988 0.26009 0.0
H1377 H 0.3954 0.11166 0.33355 0.0
H1378 H 0.35668 0.08781 0.25047 0.0
H1379 H 0.36625 0.13021 0.32377 0.0
H1380 H 0.30495 0.14996 0.30556 0.0
H1381 H 0.32816 0.12289 0.31302 0.0
H1382 H 0.35252 0.12756 0.24573 0.0
H1383 H 0.32882 0.15386 0.23807 0.0
C1384 C 0.38211 0.08293 0.27417 0.0
C1385 C 0.39339 0.08949 0.29755 0.0
C1386 C 0.36506 0.09323 0.26864 0.0
C1387 C 0.35907 0.11047 0.28633 0.0
C1388 C 0.37013 0.11664 0.3098 0.0
C1389 C 0.38701 0.10617 0.31537 0.0
C1390 C 0.315 0.14473 0.29223 0.0
C1391 C 0.31523 0.15401 0.27132 0.0
C1392 C 0.32838 0.1294 0.29653 0.0
C1393 C 0.34244 0.12336 0.28014 0.0
C1394 C 0.34174 0.13159 0.25861 0.0
C1395 C 0.32819 0.14669 0.25421 0.0
H1396 H 0.32283 0.12877 0.52638 0.0
H1397 H 0.36424 0.19191 0.50646 0.0
H1398 H 0.35362 0.11069 0.53061 0.0
H1399 H 0.39501 0.17434 0.51138 0.0
H1400 H 0.43642 0.11951 0.48992 0.0
H1401 H 0.40726 0.14037 0.49029 0.0
H1402 H 0.38829 0.11405 0.55294 0.0
H1403 H 0.4175 0.09304 0.55248 0.0
C1404 C 0.33857 0.13905 0.52337 0.0
C1405 C 0.34098 0.16179 0.51603 0.0
C1406 C 0.35628 0.12872 0.52586 0.0
C1407 C 0.37685 0.1409 0.52111 0.0
C1408 C 0.37938 0.16414 0.51473 0.0
C1409 C 0.3617 0.17439 0.51216 0.0
C1410 C 0.42628 0.1185 0.50403 0.0
C1411 C 0.42937 0.10454 0.52115 0.0
C1412 C 0.40949 0.13048 0.50425 0.0
C1413 C 0.39532 0.12894 0.52165 0.0
C1414 C 0.39864 0.11535 0.53904 0.0
C1415 C 0.41543 0.10332 0.5388 0.0
H1416 H 0.71921 0.59305 0.25508 0.0
H1417 H 0.73658 0.62052 0.33142 0.0
H1418 H 0.73885 0.63417 0.24908 0.0
H1419 H 0.75535 0.66176 0.32545 0.0
H1420 H 0.76996 0.74124 0.30484 0.0
H1421 H 0.74807 0.70044 0.30949 0.0
H1422 H 0.77919 0.66225 0.25596 0.0
H1423 H 0.80154 0.70281 0.25208 0.0
C1424 C 0.72702 0.60779 0.27067 0.0
C1425 C 0.72614 0.60285 0.2938 0.0
C1426 C 0.73842 0.63158 0.26721 0.0
C1427 C 0.74886 0.65188 0.28673 0.0
C1428 C 0.74755 0.64705 0.30984 0.0
C1429 C 0.73677 0.62309 0.31326 0.0
C1430 C 0.77186 0.72421 0.29367 0.0
C1431 C 0.78744 0.72577 0.27766 0.0
C1432 C 0.7594 0.70059 0.29655 0.0
C1433 C 0.76155 0.67749 0.2831 0.0
C1434 C 0.77668 0.67922 0.26659 0.0
C1435 C 0.78956 0.70272 0.26429 0.0
H1436 H 0.88783 0.50088 0.79459 0.0
H1437 H 0.90306 0.50248 0.8697 0.0
H1438 H 0.86962 0.45668 0.78692 0.0
H1439 H 0.88522 0.4576 0.86178 0.0
H1440 H 0.8291 0.38513 0.84163 0.0
H1441 H 0.84958 0.42895 0.85107 0.0
H1442 H 0.87663 0.41673 0.7847 0.0
H1443 H 0.85555 0.37304 0.77486 0.0
C1444 C 0.88747 0.49175 0.8095 0.0
C1445 C 0.89693 0.50527 0.83281 0.0
C1446 C 0.87714 0.46627 0.80502 0.0
C1447 C 0.87611 0.4535 0.82367 0.0
C1448 C 0.88556 0.46695 0.84704 0.0
C1449 C 0.89583 0.49263 0.85158 0.0
C1450 C 0.83949 0.39175 0.82907 0.0
C1451 C 0.84057 0.37565 0.80738 0.0
C1452 C 0.85136 0.41686 0.8346 0.0
C1453 C 0.86468 0.42641 0.81862 0.0
C1454 C 0.8662 0.4101 0.79721 0.0
C1455 C 0.8542 0.38502 0.7916 0.0
H1456 H 0.11472 0.90651 0.11657 0.0
H1457 H 0.07198 0.85765 0.05471 0.0
H1458 H 0.11429 0.94267 0.09904 0.0
H1459 H 0.07217 0.89327 0.03675 0.0
H1460 H 0.11481 1.00365 0.05582 0.0
H1461 H 0.12185 0.96734 0.06934 0.0
H1462 H 0.0552 0.92598 0.04361 0.0
H1463 H 0.04842 0.96158 0.02972 0.0
C1464 C 0.10594 0.90335 0.09881 0.0
C1465 C 0.09335 0.87916 0.08708 0.0
C1466 C 0.10558 0.92414 0.08875 0.0
C1467 C 0.09273 0.92118 0.06663 0.0
C1468 C 0.0817 0.8966 0.05411 0.0
C1469 C 0.08183 0.87601 0.06427 0.0
C1470 C 0.10173 0.98669 0.05284 0.0
C1471 C 0.08103 0.9857 0.04154 0.0
C1472 C 0.10574 0.96585 0.06075 0.0
C1473 C 0.08919 0.94341 0.05751 0.0
C1474 C 0.0686 0.94252 0.04602 0.0
C1475 C 0.06462 0.9632 0.03815 0.0
H1476 H 0.9333 0.25925 0.90349 0.0
H1477 H 0.96224 0.27729 0.84193 0.0
H1478 H 0.89869 0.2647 0.88604 0.0
H1479 H 0.92791 0.28204 0.82458 0.0
H1480 H 0.85672 0.2486 0.7882 0.0
H1481 H 0.88949 0.24554 0.81078 0.0
H1482 H 0.88375 0.30395 0.86901 0.0
H1483 H 0.8508 0.30762 0.8459 0.0
C1484 C 0.93239 0.26454 0.88641 0.0
C1485 C 0.95064 0.26775 0.87414 0.0
C1486 C 0.91259 0.26775 0.87648 0.0
C1487 C 0.91057 0.27373 0.85389 0.0
C1488 C 0.92892 0.27736 0.84195 0.0
C1489 C 0.94865 0.27465 0.85199 0.0
C1490 C 0.86225 0.26078 0.80587 0.0
C1491 C 0.85118 0.27857 0.81509 0.0
C1492 C 0.88109 0.25899 0.81881 0.0
C1493 C 0.88929 0.27456 0.84162 0.0
C1494 C 0.87778 0.29165 0.85148 0.0
C1495 C 0.85897 0.29379 0.83825 0.0
H1496 H 0.60565 0.25648 0.6143 0.0
H1497 H 0.55176 0.25354 0.56237 0.0
H1498 H 0.60316 0.2124 0.59704 0.0
H1499 H 0.54967 0.21 0.54481 0.0
H1500 H 0.53297 0.12581 0.53825 0.0
H1501 H 0.53797 0.17035 0.55402 0.0
H1502 H 0.60751 0.1814 0.56364 0.0
H1503 H 0.60244 0.1364 0.54833 0.0
C1504 C 0.59351 0.24661 0.59897 0.0
C1505 C 0.5788 0.25865 0.58993 0.0
C1506 C 0.5921 0.22127 0.589 0.0
C1507 C 0.57599 0.20732 0.56966 0.0
C1508 C 0.56192 0.21977 0.56005 0.0
C1509 C 0.56325 0.24494 0.57005 0.0
C1510 C 0.54938 0.13764 0.54364 0.0
C1511 C 0.56729 0.12732 0.54192 0.0
C1512 C 0.55227 0.16338 0.55259 0.0
C1513 C 0.57318 0.17976 0.56003 0.0
C1514 C 0.59114 0.16946 0.55833 0.0
C1515 C 0.58823 0.1436 0.54939 0.0
H1516 H 0.57881 0.78939 0.3939 0.0
H1517 H 0.55138 0.74537 0.32269 0.0
H1518 H 0.61471 0.79879 0.38097 0.0
H1519 H 0.58709 0.75424 0.30999 0.0
H1520 H 0.64927 0.79252 0.28679 0.0
H1521 H 0.61426 0.78721 0.30128 0.0
H1522 H 0.64331 0.7796 0.36905 0.0
H1523 H 0.67865 0.78612 0.35493 0.0
C1524 C 0.58042 0.78167 0.37552 0.0
C1525 C 0.56214 0.76665 0.35935 0.0
C1526 C 0.60104 0.78696 0.36813 0.0
C1527 C 0.60388 0.77739 0.34437 0.0
C1528 C 0.58556 0.76235 0.32829 0.0
C1529 C 0.56502 0.75709 0.33565 0.0
C1530 C 0.64836 0.79023 0.30496 0.0
C1531 C 0.66693 0.78974 0.31962 0.0
C1532 C 0.62814 0.7868 0.31318 0.0
C1533 C 0.6258 0.78269 0.33629 0.0
C1534 C 0.64445 0.78285 0.35121 0.0
C1535 C 0.66472 0.78631 0.34299 0.0
H1536 H 0.06104 0.30491 0.44416 0.0
H1537 H 0.11654 0.2844 0.41668 0.0
H1538 H 0.05946 0.27542 0.46993 0.0
H1539 H 0.11464 0.25425 0.44227 0.0
H1540 H 0.11171 0.21304 0.50426 0.0
H1541 H 0.11751 0.2474 0.4834 0.0
H1542 H 0.04837 0.23009 0.4614 0.0
H1543 H 0.04255 0.19657 0.48286 0.0
C1544 C 0.07304 0.29423 0.44378 0.0
C1545 C 0.08873 0.29672 0.42813 0.0
C1546 C 0.07205 0.27722 0.45846 0.0
C1547 C 0.08661 0.26208 0.45775 0.0
C1548 C 0.10319 0.26565 0.44323 0.0
C1549 C 0.10428 0.2829 0.42857 0.0
C1550 C 0.09776 0.2168 0.49518 0.0
C1551 C 0.07666 0.2021 0.49523 0.0
C1552 C 0.10111 0.23632 0.48306 0.0
C1553 C 0.08341 0.24159 0.47088 0.0
C1554 C 0.06235 0.22682 0.47094 0.0
C1555 C 0.05902 0.20736 0.48298 0.0
H1556 H 0.5912 0.30252 0.1759 0.0
H1557 H 0.55842 0.28934 0.23636 0.0
H1558 H 0.6125 0.2735 0.18248 0.0
H1559 H 0.5801 0.26031 0.24341 0.0
H1560 H 0.65499 0.26806 0.27021 0.0
H1561 H 0.62005 0.27538 0.25883 0.0
H1562 H 0.61727 0.23209 0.18712 0.0
H1563 H 0.65224 0.22442 0.1986 0.0
C1564 C 0.58789 0.29242 0.18994 0.0
C1565 C 0.57331 0.29808 0.20567 0.0
C1566 C 0.60008 0.27577 0.19375 0.0
C1567 C 0.59824 0.26493 0.21373 0.0
C1568 C 0.58197 0.2686 0.228 0.0
C1569 C 0.56945 0.28499 0.22387 0.0
C1570 C 0.64663 0.25935 0.25225 0.0
C1571 C 0.65665 0.24612 0.23518 0.0
C1572 C 0.6265 0.26346 0.24573 0.0
C1573 C 0.61599 0.2545 0.22199 0.0
C1574 C 0.62512 0.23947 0.20546 0.0
C1575 C 0.64522 0.23527 0.21201 0.0
H1576 H 0.63391 0.93552 0.93191 0.0
H1577 H 0.56689 0.91181 0.94303 0.0
H1578 H 0.63661 0.97733 0.95638 0.0
H1579 H 0.56973 0.95298 0.96749 0.0
H1580 H 0.57328 0.03421 0.99229 0.0
H1581 H 0.57315 0.9957 0.96398 0.0
H1582 H 0.6365 0.99819 0.99844 0.0
H1583 H 0.63682 0.03725 0.02638 0.0
C1584 C 0.61979 0.93915 0.93953 0.0
C1585 C 0.60019 0.92022 0.93543 0.0
C1586 C 0.62136 0.96308 0.95361 0.0
C1587 C 0.60333 0.96858 0.96374 0.0
C1588 C 0.58382 0.94961 0.9596 0.0
C1589 C 0.58226 0.92583 0.94567 0.0
C1590 C 0.58727 0.02667 0.99364 0.0
C1591 C 0.60497 0.03855 1.01164 0.0
C1592 C 0.58716 1.00453 0.97751 0.0
C1593 C 0.60469 0.99365 0.97914 0.0
C1594 C 0.62279 1.00612 0.9966 0.0
C1595 C 0.62291 0.02837 1.01271 0.0
H1596 H 0.96198 0.74397 0.74748 0.0
H1597 H 0.92764 0.74675 0.68049 0.0
H1598 H 0.92853 0.74052 0.76539 0.0
H1599 H 0.89424 0.74327 0.69846 0.0
H1600 H 0.88179 0.79219 0.79018 0.0
H1601 H 0.91126 0.77659 0.77448 0.0
H1602 H 0.86518 0.72019 0.71986 0.0
H1603 H 0.83547 0.73572 0.73589 0.0
C1604 C 0.94717 0.74303 0.73633 0.0
C1605 C 0.94756 0.74618 0.7127 0.0
C1606 C 0.92803 0.74111 0.74664 0.0
C1607 C 0.90888 0.74203 0.73345 0.0
C1608 C 0.90873 0.74242 0.70906 0.0
C1609 C 0.92792 0.74454 0.69878 0.0
C1610 C 0.87788 0.77598 0.77528 0.0
C1611 C 0.8564 0.7653 0.76413 0.0
C1612 C 0.89475 0.76692 0.76635 0.0
C1613 C 0.89052 0.74724 0.74584 0.0
C1614 C 0.86887 0.73543 0.73564 0.0
C1615 C 0.8519 0.74423 0.74489 0.0
H1616 H 0.11921 0.04587 0.83743 0.0
H1617 H 0.17398 0.03123 0.87514 0.0
H1618 H 0.1012 0.04729 0.87317 0.0
H1619 H 0.15583 0.03284 0.91146 0.0
H1620 H 0.11985 0.05499 0.98042 0.0
H1621 H 0.14119 0.05608 0.94643 0.0
H1622 H 0.08232 0.02202 0.89697 0.0
H1623 H 0.06155 0.02071 0.93025 0.0
C1624 C 0.12768 0.04311 0.85337 0.0
C1625 C 0.14843 0.03845 0.85263 0.0
C1626 C 0.11708 0.04373 0.87424 0.0
C1627 C 0.12653 0.03998 0.89601 0.0
C1628 C 0.14761 0.03598 0.89557 0.0
C1629 C 0.15817 0.03501 0.87443 0.0
C1630 C 0.11141 0.04778 0.96233 0.0
C1631 C 0.08853 0.03782 0.95874 0.0
C1632 C 0.12379 0.04828 0.94253 0.0
C1633 C 0.11389 0.03934 0.91812 0.0
C1634 C 0.09108 0.02959 0.9149 0.0
C1635 C 0.07893 0.02872 0.93443 0.0
H1636 H 0.79465 0.39549 0.57889 0.0
H1637 H 0.81047 0.33984 0.52528 0.0
H1638 H 0.77838 0.3634 0.59907 0.0
H1639 H 0.79224 0.30688 0.54394 0.0
H1640 H 0.80547 0.27318 0.60869 0.0
H1641 H 0.803 0.2932 0.57571 0.0
H1642 H 0.7569 0.3296 0.60834 0.0
H1643 H 0.76148 0.31168 0.64278 0.0
C1644 C 0.79371 0.3761 0.57086 0.0
C1645 C 0.80417 0.37008 0.55096 0.0
C1646 C 0.78418 0.35746 0.58231 0.0
C1647 C 0.78445 0.33228 0.57369 0.0
C1648 C 0.79251 0.32607 0.55184 0.0
C1649 C 0.80277 0.34487 0.54093 0.0
C1650 C 0.79465 0.2853 0.60876 0.0
C1651 C 0.78462 0.29183 0.629 0.0
C1652 C 0.79289 0.2966 0.58948 0.0
C1653 C 0.78047 0.31416 0.58963 0.0
C1654 C 0.76753 0.31727 0.60806 0.0
C1655 C 0.76982 0.30653 0.62773 0.0
H1656 H 0.49262 0.0924 0.35723 0.0
H1657 H 0.49553 1.01643 0.32921 0.0
H1658 H 0.51323 0.09299 0.39506 0.0
H1659 H 0.51607 1.01694 0.36747 0.0
H1660 H 0.56874 0.09131 0.45079 0.0
H1661 H 0.55122 0.09038 0.41095 0.0
H1662 H 0.50582 0.02011 0.41092 0.0
H1663 H 0.52316 0.02118 0.45086 0.0
C1664 C 0.49786 0.07589 0.35911 0.0
C1665 C 0.49247 0.05434 0.34033 0.0
C1666 C 0.50972 0.07629 0.38073 0.0
C1667 C 0.51616 0.055 0.38417 0.0
C1668 C 0.51116 0.03355 0.36526 0.0
C1669 C 0.49958 0.03331 0.34337 0.0
C1670 C 0.55499 0.07572 0.44225 0.0
C1671 C 0.54723 0.05637 0.45386 0.0
C1672 C 0.54501 0.07517 0.41951 0.0
C1673 C 0.5273 0.05507 0.40784 0.0
C1674 C 0.51963 0.03564 0.4194 0.0
C1675 C 0.52941 0.03638 0.4423 0.0
H1676 H 0.83579 0.76982 0.08041 0.0
H1677 H 0.77527 0.7129 0.07127 0.0
H1678 H 0.83327 0.78283 0.12275 0.0
H1679 H 0.77291 0.72582 0.11408 0.0
H1680 H 0.83854 0.77793 0.20066 0.0
H1681 H 0.8376 0.76645 0.15764 0.0
H1682 H 0.76854 0.75848 0.14779 0.0
H1683 H 0.76939 0.76982 0.19146 0.0
C1684 C 0.8218 0.76013 0.08733 0.0
C1685 C 0.80582 0.74012 0.07217 0.0
C1686 C 0.82044 0.76751 0.11182 0.0
C1687 C 0.80307 0.75517 0.12218 0.0
C1688 C 0.78653 0.73587 0.10687 0.0
C1689 C 0.7879 0.72843 0.08223 0.0
C1690 C 0.82304 0.77378 0.18952 0.0
C1691 C 0.80403 0.77496 0.19987 0.0
C1692 C 0.82255 0.76733 0.16461 0.0
C1693 C 0.80304 0.76174 0.14894 0.0
C1694 C 0.78389 0.76255 0.15918 0.0
C1695 C 0.78439 0.76918 0.18429 0.0
H1696 H 0.12234 0.06522 0.72172 0.0
H1697 H 0.14951 1.0054 0.69044 0.0
H1698 H 0.10606 0.06605 0.68256 0.0
H1699 H 0.13315 1.00649 0.65027 0.0
H1700 H 0.08461 1.00204 0.581 0.0
H1701 H 0.10196 0.99892 0.61975 0.0
H1702 H 0.11019 0.07808 0.6469 0.0
H1703 H 0.09274 0.08097 0.60872 0.0
C1704 C 0.12511 0.05217 0.70648 0.0
C1705 C 0.13767 0.03529 0.71007 0.0
C1706 C 0.11569 0.05281 0.6835 0.0
C1707 C 0.11809 0.0366 0.6623 0.0
C1708 C 0.13054 0.01941 0.6657 0.0
C1709 C 0.14018 0.01884 0.68899 0.0
C1710 C 0.09004 0.01883 0.59523 0.0
C1711 C 0.08683 0.04179 0.59113 0.0
C1712 C 0.10026 1.01707 0.61772 0.0
C1713 C 0.10769 0.03814 0.63738 0.0
C1714 C 0.10456 0.06104 0.63302 0.0
C1715 C 0.09447 0.0628 0.61066 0.0
H1716 H 0.80324 0.39226 0.45724 0.0
H1717 H 0.87075 0.39555 0.45247 0.0
H1718 H 0.79337 0.36657 0.41612 0.0
H1719 H 0.86087 0.3706 0.41118 0.0
H1720 H 0.82826 0.34985 0.32881 0.0
H1721 H 0.83843 0.37724 0.36901 0.0
H1722 H 0.8012 0.31857 0.39832 0.0
H1723 H 0.79169 0.29066 0.35819 0.0
C1724 C 0.81597 0.38797 0.44722 0.0
C1725 C 0.83775 0.39588 0.45796 0.0
C1726 C 0.81031 0.37315 0.42386 0.0
C1727 C 0.8264 0.36661 0.41073 0.0
C1728 C 0.84823 0.37546 0.42105 0.0
C1729 C 0.85384 0.3897 0.44458 0.0
C1730 C 0.82253 0.34265 0.34388 0.0
C1731 C 0.80941 0.31805 0.34047 0.0
C1732 C 0.82824 0.35837 0.36678 0.0
C1733 C 0.82044 0.34996 0.38655 0.0
C1734 C 0.80724 0.32543 0.38321 0.0
C1735 C 0.80195 0.30948 0.36036 0.0
H1736 H 0.46198 0.98699 0.2061 0.0
H1737 H 0.46757 0.06021 0.25066 0.0
H1738 H 0.49688 1.00276 0.19324 0.0
H1739 H 0.5024 0.0762 0.23733 0.0
H1740 H 0.56883 0.0943 0.20948 0.0
H1741 H 0.54147 0.07476 0.23235 0.0
H1742 H 0.50166 0.03182 0.16589 0.0
H1743 H 0.52872 0.05093 0.14342 0.0
C1744 C 0.47093 1.00633 0.21354 0.0
C1745 C 0.46198 0.02252 0.229 0.0
C1746 C 0.49087 1.01534 0.20619 0.0
C1747 C 0.50205 0.04082 0.21387 0.0
C1748 C 0.49412 0.05647 0.23116 0.0
C1749 C 0.47418 0.04734 0.23875 0.0
C1750 C 0.55426 0.08052 0.19993 0.0
C1751 C 0.55068 0.07429 0.17475 0.0
C1752 C 0.53867 0.06942 0.21295 0.0
C1753 C 0.51958 0.05161 0.20088 0.0
C1754 C 0.51637 0.04512 0.17572 0.0
C1755 C 0.53172 0.05633 0.16282 0.0
H1756 H 0.83275 0.77731 0.9615 0.0
H1757 H 0.77446 0.71962 0.92888 0.0
H1758 H 0.8335 0.79342 0.92555 0.0
H1759 H 0.77481 0.7364 0.89257 0.0
H1760 H 0.82426 0.8315 0.86654 0.0
H1761 H 0.81774 0.81534 0.90208 0.0
H1762 H 0.79404 0.74018 0.85804 0.0
H1763 H 0.80002 0.75699 0.822 0.0
C1764 C 0.81972 0.76834 0.94682 0.0
C1765 C 0.80348 0.74716 0.94838 0.0
C1766 C 0.8201 0.77771 0.92601 0.0
C1767 C 0.80419 0.76639 0.90583 0.0
C1768 C 0.78749 0.74557 0.90754 0.0
C1769 C 0.78709 0.73615 0.92856 0.0
C1770 C 0.81748 0.81152 0.86435 0.0
C1771 C 0.81265 0.79552 0.8414 0.0
C1772 C 0.81384 0.80214 0.88486 0.0
C1773 C 0.80564 0.77627 0.88328 0.0
C1774 C 0.80018 0.76022 0.86013 0.0
C1775 C 0.80359 0.76978 0.83942 0.0
H1776 H 0.86314 0.12211 0.07705 0.0
H1777 H 0.8247 0.04526 0.05696 0.0
H1778 H 0.89622 0.108 0.07905 0.0
H1779 H 0.85768 0.03091 0.05737 0.0
H1780 H 0.92107 1.01002 0.06062 0.0
H1781 H 0.89045 0.02525 0.07427 0.0
H1782 H 0.9136 0.09224 0.04796 0.0
H1783 H 0.94421 0.07746 0.03539 0.0
C1784 C 0.86184 0.10217 0.0734 0.0
C1785 C 0.84156 0.08472 0.0665 0.0
C1786 C 0.88074 0.09404 0.07435 0.0
C1787 C 0.8797 0.06831 0.0676 0.0
C1788 C 0.8592 0.05084 0.06274 0.0
C1789 C 0.84026 0.05902 0.06243 0.0
C1790 C 0.91959 0.02811 0.05809 0.0
C1791 C 0.93496 0.04261 0.04703 0.0
C1792 C 0.9021 0.03684 0.06586 0.0
C1793 C 0.89954 0.06008 0.06238 0.0
C1794 C 0.91525 0.07463 0.05164 0.0
C1795 C 0.93278 0.06608 0.04422 0.0
H1796 H 0.3858 0.46658 1.01173 0.0
H1797 H 0.41528 0.43851 0.06706 0.0
H1798 H 0.4215 0.48917 1.00548 0.0
H1799 H 0.45117 0.46212 0.06166 0.0
H1800 H 0.5154 0.49856 0.03759 0.0
H1801 H 0.48037 0.4695 0.03863 0.0
H1802 H 0.44788 0.52538 0.02508 0.0
H1803 H 0.48246 0.55332 0.0229 0.0
C1804 C 0.39995 0.46517 0.02254 0.0
C1805 C 0.39763 0.4509 0.04004 0.0
C1806 C 0.42051 0.47835 0.01912 0.0
C1807 C 0.43941 0.47805 0.0334 0.0
C1808 C 0.43713 0.46281 0.0502 0.0
C1809 C 0.41649 0.44931 0.05339 0.0
C1810 C 0.50069 0.50427 0.03443 0.0
C1811 C 0.50172 0.52807 0.02991 0.0
C1812 C 0.48058 0.48778 0.03527 0.0
C1813 C 0.46104 0.49486 0.03175 0.0
C1814 C 0.46231 0.5188 0.02728 0.0
C1815 C 0.48228 0.53504 0.02627 0.0
H1816 H 0.38396 0.62421 0.74034 0.0
H1817 H 0.41639 0.66086 0.81154 0.0
H1818 H 0.366 0.65856 0.74053 0.0
H1819 H 0.39924 0.6952 0.81147 0.0
H1820 H 0.37868 0.76665 0.79795 0.0
H1821 H 0.39683 0.73259 0.79582 0.0
H1822 H 0.33787 0.67936 0.75857 0.0
H1823 H 0.31957 0.71333 0.76139 0.0
C1824 C 0.38774 0.63967 0.75592 0.0
C1825 C 0.40224 0.63916 0.77582 0.0
C1826 C 0.37712 0.65959 0.75618 0.0
C1827 C 0.3808 0.68055 0.77606 0.0
C1828 C 0.39569 0.68013 0.79557 0.0
C1829 C 0.40572 0.66003 0.79558 0.0
C1830 C 0.36938 0.74775 0.78933 0.0
C1831 C 0.34721 0.74351 0.78007 0.0
C1832 C 0.37994 0.72782 0.78812 0.0
C1833 C 0.36926 0.70236 0.77693 0.0
C1834 C 0.3472 0.69824 0.76724 0.0
C1835 C 0.33648 0.71806 0.76903 0.0
H1836 H 0.25282 0.61548 0.51567 0.0
H1837 H 0.23337 0.53839 0.5212 0.0
H1838 H 0.22014 0.62291 0.53171 0.0
H1839 H 0.20065 0.54567 0.53728 0.0
H1840 H 0.15233 0.57213 0.58211 0.0
H1841 H 0.18938 0.57291 0.57439 0.0
H1842 H 0.17937 0.60399 0.51286 0.0
H1843 H 0.14221 0.60293 0.52028 0.0
C1844 C 0.24188 0.6004 0.52105 0.0
C1845 C 0.24571 0.57655 0.51772 0.0
C1846 C 0.2231 0.60454 0.52993 0.0
C1847 C 0.20804 0.58492 0.53591 0.0
C1848 C 0.2122 0.56121 0.53315 0.0
C1849 C 0.23078 0.55699 0.52385 0.0
C1850 C 0.15821 0.57979 0.56733 0.0
C1851 C 0.14434 0.58737 0.55173 0.0
C1852 C 0.17934 0.58004 0.56284 0.0
C1853 C 0.18709 0.58833 0.54296 0.0
C1854 C 0.17378 0.59762 0.52838 0.0
C1855 C 0.15253 0.59695 0.5326 0.0
H1856 H 0.76979 0.02347 0.75816 0.0
H1857 H 0.73553 0.97938 0.68933 0.0
H1858 H 0.80039 1.00641 0.75129 0.0
H1859 H 0.76686 0.96264 0.68189 0.0
H1860 H 0.80191 0.9064 0.70937 0.0
H1861 H 0.77898 0.93225 0.69871 0.0
H1862 H 0.82992 0.999 0.73237 0.0
H1863 H 0.85243 0.97282 0.74409 0.0
C1864 C 0.76905 1.01059 0.7412 0.0
C1865 C 0.75002 1.00223 0.72459 0.0
C1866 C 0.78682 1.001 0.73706 0.0
C1867 C 0.78607 0.98279 0.71613 0.0
C1868 C 0.76782 0.97628 0.6984 0.0
C1869 C 0.74992 0.98596 0.70259 0.0
C1870 C 0.80849 0.92659 0.71372 0.0
C1871 C 0.82869 0.93769 0.72802 0.0
C1872 C 0.79536 0.9415 0.7075 0.0
C1873 C 0.80233 0.96779 0.71528 0.0
C1874 C 0.82377 0.97881 0.72676 0.0
C1875 C 0.83673 0.96388 0.73338 0.0
H1876 H 0.76515 0.9317 0.56545 0.0
H1877 H 0.77695 0.95048 0.49764 0.0
H1878 H 0.73202 0.946 0.56356 0.0
H1879 H 0.74416 0.96505 0.49595 0.0
H1880 H 0.67463 0.97021 0.48906 0.0
H1881 H 0.70494 0.95117 0.49096 0.0
H1882 H 0.72138 0.9852 0.56662 0.0
H1883 H 0.6911 1.00433 0.56473 0.0
C1884 C 0.76064 0.93874 0.55008 0.0
C1885 C 0.77379 0.93995 0.53171 0.0
C1886 C 0.74171 0.9471 0.54908 0.0
C1887 C 0.73537 0.95674 0.52962 0.0
C1888 C 0.74832 0.95745 0.51106 0.0
C1889 C 0.76726 0.94921 0.5121 0.0
C1890 C 0.6847 0.97367 0.50612 0.0
C1891 C 0.68044 0.98902 0.5267 0.0
C1892 C 0.70211 0.96273 0.50721 0.0
C1893 C 0.71578 0.96678 0.5289 0.0
C1894 C 0.71109 0.98142 0.54965 0.0
C1895 C 0.69367 0.9924 0.54856 0.0
H1896 H 0.4154 0.48494 0.75138 0.0
H1897 H 0.37107 0.51019 0.79653 0.0
H1898 H 0.39594 0.44094 0.74968 0.0
H1899 H 0.35204 0.46708 0.79501 0.0
H1900 H 0.30652 0.38969 0.77086 0.0
H1901 H 0.32784 0.43105 0.77017 0.0
H1902 H 0.38597 0.40529 0.77184 0.0
H1903 H 0.36399 0.36272 0.77237 0.0
C1904 C 0.40137 0.48133 0.76066 0.0
C1905 C 0.39491 0.50183 0.77383 0.0
C1906 C 0.39026 0.45585 0.75996 0.0
C1907 C 0.372 0.44968 0.77211 0.0
C1908 C 0.3656 0.47029 0.78498 0.0
C1909 C 0.37673 0.49547 0.78589 0.0
C1910 C 0.32387 0.39245 0.77115 0.0
C1911 C 0.33317 0.37218 0.7719 0.0
C1912 C 0.33633 0.4167 0.77089 0.0
C1913 C 0.35905 0.42246 0.77126 0.0
C1914 C 0.36859 0.40211 0.77151 0.0
C1915 C 0.35593 0.37748 0.77197 0.0
H1916 H 0.17517 0.60097 0.243 0.0
H1917 H 0.20246 0.60522 0.31557 0.0
H1918 H 0.19721 0.64335 0.24538 0.0
H1919 H 0.22498 0.64704 0.31763 0.0
H1920 H 0.24733 0.73053 0.32265 0.0
H1921 H 0.22356 0.68909 0.32003 0.0
H1922 H 0.23394 0.66613 0.24651 0.0
H1923 H 0.25705 0.70783 0.24886 0.0
C1924 C 0.18593 0.61088 0.25941 0.0
C1925 C 0.187 0.59971 0.2791 0.0
C1926 C 0.19867 0.63513 0.26074 0.0
C1927 C 0.2129 0.64864 0.28171 0.0
C1928 C 0.21393 0.63741 0.30136 0.0
C1929 C 0.20108 0.61331 0.30011 0.0
C1930 C 0.24452 0.71665 0.30592 0.0
C1931 C 0.25409 0.72249 0.28597 0.0
C1932 C 0.23096 0.69283 0.30444 0.0
C1933 C 0.22684 0.67421 0.28306 0.0
C1934 C 0.23645 0.6801 0.26313 0.0
C1935 C 0.24984 0.70399 0.26454 0.0
H1936 H 0.48593 0.70415 0.47572 0.0
H1937 H 0.54111 0.71335 0.437 0.0
H1938 H 0.49827 0.67313 0.49327 0.0
H1939 H 0.55337 0.68203 0.45448 0.0
H1940 H 0.51176 0.59687 0.49611 0.0
H1941 H 0.50095 0.63042 0.48138 0.0
H1942 H 0.56807 0.67259 0.49123 0.0
H1943 H 0.57895 0.63883 0.50582 0.0
C1944 C 0.5008 0.69974 0.47101 0.0
C1945 C 0.51243 0.71143 0.45479 0.0
C1946 C 0.50781 0.68169 0.481 0.0
C1947 C 0.52678 0.67474 0.47525 0.0
C1948 C 0.53878 0.68693 0.45955 0.0
C1949 C 0.53168 0.70491 0.44942 0.0
C1950 C 0.52427 0.61334 0.49533 0.0
C1951 C 0.54628 0.61498 0.50226 0.0
C1952 C 0.51803 0.63274 0.48694 0.0
C1953 C 0.53358 0.6544 0.48502 0.0
C1954 C 0.55559 0.65616 0.49216 0.0
C1955 C 0.56184 0.63681 0.50075 0.0
H1956 H 0.66004 0.36113 0.72498 0.0
H1957 H 0.67332 0.3207 0.65824 0.0
H1958 H 0.69224 0.35554 0.7459 0.0
H1959 H 0.70635 0.31548 0.67941 0.0
H1960 H 0.74848 0.2867 0.73391 0.0
H1961 H 0.71874 0.29354 0.70849 0.0
H1962 H 0.73057 0.36871 0.75175 0.0
H1963 H 0.75976 0.36159 0.7772 0.0
C1964 C 0.66998 0.35124 0.71461 0.0
C1965 C 0.66394 0.34142 0.6898 0.0
C1966 C 0.68869 0.34817 0.7267 0.0
C1967 C 0.7022 0.33519 0.71447 0.0
C1968 C 0.69633 0.32546 0.68953 0.0
C1969 C 0.67747 0.32862 0.67732 0.0
C1970 C 0.74486 0.30477 0.73774 0.0
C1971 C 0.75638 0.32353 0.75772 0.0
C1972 C 0.72782 0.30875 0.72312 0.0
C1973 C 0.72188 0.33159 0.72815 0.0
C1974 C 0.73418 0.35065 0.74755 0.0
C1975 C 0.75107 0.34664 0.76213 0.0
H1976 H 0.99347 0.33533 0.97654 0.0
H1977 H 0.04306 0.33739 0.92995 0.0
H1978 H 1.00507 0.38079 0.98965 0.0
H1979 H 0.05458 0.38316 0.94308 0.0
H1980 H 0.07895 0.46587 0.98769 0.0
H1981 H 0.07084 0.41994 0.97762 0.0
H1982 H 1.00227 0.41522 0.97049 0.0
H1983 H 1.01024 0.46069 0.98056 0.0
C1984 C 1.00702 0.34539 0.96924 0.0
C1985 C 0.01717 0.3325 0.95198 0.0
C1986 C 1.01359 0.37158 0.97668 0.0
C1987 C 0.03057 0.38575 0.96718 0.0
C1988 C 0.04148 0.37287 0.95082 0.0
C1989 C 0.03482 0.34658 0.94326 0.0
C1990 C 0.06214 0.45501 0.984 0.0
C1991 C 0.04527 0.46711 0.98497 0.0
C1992 C 0.05751 0.42867 0.97813 0.0
C1993 C 0.03589 0.41381 0.97339 0.0
C1994 C 0.01911 0.42598 0.9744 0.0
C1995 C 0.02371 0.45218 0.98002 0.0
H1996 H 0.0566 0.79317 0.20072 0.0
H1997 H 0.02203 0.8163 0.14516 0.0
H1998 H 0.0235 0.78415 0.21933 0.0
H1999 H 0.98912 0.8072 0.16362 0.0
H2000 H 0.92884 0.77067 0.19315 0.0
H2001 H 0.9612 0.77291 0.17325 0.0
H2002 H 1.00152 0.81023 0.24078 0.0
H2003 H 0.96931 0.80864 0.26062 0.0
C2004 C 0.0419 0.79597 0.19225 0.0
C2005 C 0.04203 0.80543 0.17138 0.0
C2006 C 0.02296 0.79095 0.20301 0.0
C2007 C 1.00366 0.79501 0.19301 0.0
C2008 C 1.00361 0.80358 0.17166 0.0
C2009 C 0.02257 0.80885 0.16107 0.0
C2010 C 0.94458 0.77943 0.2038 0.0
C2011 C 0.9463 0.78958 0.22856 0.0
C2012 C 0.96315 0.78063 0.19237 0.0
C2013 C 0.98396 0.79179 0.2054 0.0
C2014 C 0.98576 0.80118 0.23025 0.0
C2015 C 0.96721 0.8002 0.24165 0.0
H2016 H 0.46657 0.31245 0.11248 0.0
H2017 H 0.53528 0.32119 0.13 0.0
H2018 H 0.47411 0.33883 0.08364 0.0
H2019 H 0.54279 0.34642 0.10051 0.0
H2020 H 0.55072 0.41818 0.07451 0.0
H2021 H 0.54254 0.38751 0.0987 0.0
H2022 H 0.4868 0.34479 0.04672 0.0
H2023 H 0.49425 0.37667 0.02313 0.0
C2024 C 0.48324 0.31958 0.10978 0.0
C2025 C 0.50036 0.31515 0.12374 0.0
C2026 C 0.48757 0.3346 0.09318 0.0
C2027 C 0.5091 0.34513 0.09001 0.0
C2028 C 0.52607 0.33929 0.10298 0.0
C2029 C 0.52177 0.3247 0.1198 0.0
C2030 C 0.53656 0.40242 0.06831 0.0
C2031 C 0.523 0.40009 0.047 0.0
C2032 C 0.53207 0.38452 0.08201 0.0
C2033 C 0.51406 0.36351 0.07463 0.0
C2034 C 0.50069 0.36085 0.05306 0.0
C2035 C 0.5051 0.37897 0.03939 0.0
H2036 H 0.03838 0.30821 0.32408 0.0
H2037 H 0.07167 0.38277 0.31879 0.0
H2038 H 1.0053 0.31187 0.30288 0.0
H2039 H 0.03803 0.38669 0.29763 0.0
H2040 H 0.96384 0.38825 0.3076 0.0
H2041 H 1.00185 0.38828 0.3144 0.0
H2042 H 0.98836 0.31729 0.26327 0.0
H2043 H 0.95028 0.3174 0.25599 0.0
C2044 C 0.03864 0.32528 0.31801 0.0
C2045 C 0.05742 0.3453 0.32318 0.0
C2046 C 0.01978 0.32728 0.30566 0.0
C2047 C 0.01916 0.34952 0.29853 0.0
C2048 C 0.03818 0.36932 0.3029 0.0
C2049 C 0.05733 0.36709 0.31492 0.0
C2050 C 0.96907 0.37307 0.29713 0.0
C2051 C 0.95395 0.35256 0.28158 0.0
C2052 C 0.99089 0.37315 0.301 0.0
C2053 C 0.99794 0.35267 0.28952 0.0
C2054 C 0.98323 0.33318 0.27251 0.0
C2055 C 0.96144 0.33316 0.26852 0.0
H2056 H 0.04405 0.73088 0.66073 0.0
H2057 H 0.98393 0.67515 0.63 0.0
H2058 H 0.06447 0.70214 0.6428 0.0
H2059 H 1.00456 0.6462 0.61264 0.0
H2060 H 0.05288 0.59596 0.60129 0.0
H2061 H 0.03636 0.6238 0.62797 0.0
H2062 H 0.06267 0.68406 0.59413 0.0
H2063 H 0.07841 0.65601 0.56705 0.0
C2064 C 0.03518 0.71232 0.65059 0.0
C2065 C 1.01233 0.70533 0.64665 0.0
C2066 C 0.04691 0.69594 0.64035 0.0
C2067 C 0.03605 0.67201 0.62649 0.0
C2068 C 1.01326 0.6645 0.62349 0.0
C2069 C 1.00149 0.6811 0.63327 0.0
C2070 C 0.05561 0.61533 0.60013 0.0
C2071 C 0.067 0.62398 0.58235 0.0
C2072 C 0.04603 0.63115 0.61517 0.0
C2073 C 0.04827 0.656 0.61301 0.0
C2074 C 0.06085 0.66503 0.59623 0.0
C2075 C 0.06988 0.64904 0.58081 0.0
H2076 H 0.69417 0.86509 0.89427 0.0
H2077 H 0.68173 0.90449 0.83953 0.0
H2078 H 0.72508 0.85584 0.87594 0.0
H2079 H 0.71259 0.89491 0.8211 0.0
H2080 H 0.77776 0.87714 0.80052 0.0
H2081 H 0.75389 0.89723 0.82434 0.0
H2082 H 0.72077 0.82532 0.83619 0.0
H2083 H 0.744 0.80545 0.81271 0.0
C2084 C 0.69833 0.87235 0.87871 0.0
C2085 C 0.68514 0.88501 0.86805 0.0
C2086 C 0.716 0.86696 0.86816 0.0
C2087 C 0.72089 0.87415 0.84678 0.0
C2088 C 0.70915 0.88908 0.83753 0.0
C2089 C 0.69142 0.89448 0.84809 0.0
C2090 C 0.7653 0.86569 0.80815 0.0
C2091 C 0.76283 0.83968 0.80465 0.0
C2092 C 0.75172 0.87719 0.82181 0.0
C2093 C 0.73579 0.86289 0.83251 0.0
C2094 C 0.73325 0.83694 0.8287 0.0
C2095 C 0.74648 0.82551 0.81493 0.0
H2096 H 0.49342 0.61764 0.69144 0.0
H2097 H 0.47345 0.53759 0.68285 0.0
H2098 H 0.50984 0.61279 0.65514 0.0
H2099 H 0.49098 0.53244 0.64611 0.0
H2100 H 0.51986 0.5298 0.57199 0.0
H2101 H 0.49841 0.53198 0.60575 0.0
H2102 H 0.53788 0.6071 0.6365 0.0
H2103 H 0.55795 0.60519 0.60278 0.0
C2104 C 0.49243 0.59873 0.68184 0.0
C2105 C 0.48169 0.57817 0.69092 0.0
C2106 C 0.50238 0.59585 0.66063 0.0
C2107 C 0.50282 0.57212 0.64691 0.0
C2108 C 0.49144 0.55125 0.6555 0.0
C2109 C 0.48113 0.55418 0.67688 0.0
C2110 C 0.52348 0.54713 0.58551 0.0
C2111 C 0.54052 0.56768 0.5835 0.0
C2112 C 0.51127 0.54829 0.60548 0.0
C2113 C 0.51556 0.56997 0.6247 0.0
C2114 C 0.53286 0.59015 0.6225 0.0
C2115 C 0.54481 0.589 0.60274 0.0
H2116 H 0.83067 0.19383 1.00322 0.0
H2117 H 0.76475 0.14705 0.98979 0.0
H2118 H 0.82075 0.21857 0.97602 0.0
H2119 H 0.75492 0.17188 0.96239 0.0
H2120 H 0.75934 0.20418 0.89243 0.0
H2121 H 0.76523 0.1796 0.92182 0.0
H2122 H 0.79657 0.24797 0.97439 0.0
H2123 H 0.79093 0.27248 0.94504 0.0
C2124 C 0.81406 0.18881 0.99449 0.0
C2125 C 0.79852 0.16837 0.99859 0.0
C2126 C 0.80837 0.2031 0.97905 0.0
C2127 C 0.78707 0.19715 0.96722 0.0
C2128 C 0.77148 0.17675 0.97124 0.0
C2129 C 0.77712 0.1626 0.98694 0.0
C2130 C 0.7673 0.2139 0.91035 0.0
C2131 C 0.77474 0.24019 0.91647 0.0
C2132 C 0.77053 0.19988 0.92716 0.0
C2133 C 0.78147 0.21194 0.95026 0.0
C2134 C 0.78826 0.23825 0.95661 0.0
C2135 C 0.78485 0.25225 0.9399 0.0
H2136 H 0.12954 0.50299 0.15997 0.0
H2137 H 0.13282 0.58183 0.18244 0.0
H2138 H 0.11118 0.50198 0.12061 0.0
H2139 H 0.11432 0.58072 0.14339 0.0
H2140 H 0.09406 0.57545 0.06545 0.0
H2141 H 0.1176 0.575 0.10077 0.0
H2142 H 0.07423 0.50538 0.10643 0.0
H2143 H 0.05089 0.50552 0.0704 0.0
C2144 C 0.12674 0.5202 0.15637 0.0
C2145 C 0.13247 0.54247 0.17434 0.0
C2146 C 0.11603 0.51954 0.13394 0.0
C2147 C 0.11109 0.54118 0.12905 0.0
C2148 C 0.11799 0.56375 0.14657 0.0
C2149 C 0.12855 0.56438 0.16898 0.0
C2150 C 0.08969 0.55989 0.07407 0.0
C2151 C 0.07075 0.54044 0.06522 0.0
C2152 C 0.1031 0.55971 0.09436 0.0
C2153 C 0.09778 0.54016 0.10635 0.0
C2154 C 0.07889 0.52052 0.09734 0.0
C2155 C 0.06543 0.52071 0.07695 0.0
H2156 H 0.85333 0.838 0.48017 0.0
H2157 H 0.80851 0.88381 0.4761 0.0
H2158 H 0.84648 0.823 0.43683 0.0
H2159 H 0.80192 0.86906 0.43249 0.0
H2160 H 0.78236 0.82166 0.35472 0.0
H2161 H 0.7866 0.83446 0.39839 0.0
H2162 H 0.85484 0.83781 0.40176 0.0
H2163 H 0.85057 0.82464 0.35829 0.0
C2164 C 0.84185 0.84478 0.4701 0.0
C2165 C 0.83155 0.86225 0.4819 0.0
C2166 C 0.83807 0.83631 0.44507 0.0
C2167 C 0.82385 0.845 0.43085 0.0
C2168 C 0.81289 0.86176 0.44269 0.0
C2169 C 0.81669 0.87027 0.46781 0.0
C2170 C 0.7983 0.82512 0.36473 0.0
C2171 C 0.8161 0.822 0.35272 0.0
C2172 C 0.80075 0.83261 0.38989 0.0
C2173 C 0.82105 0.83712 0.40388 0.0
C2174 C 0.83884 0.83412 0.39181 0.0
C2175 C 0.83641 0.8267 0.36671 0.0
H2176 H 0.49497 0.54409 0.81891 0.0
H2177 H 0.46288 0.59622 0.85587 0.0
H2178 H 0.51214 0.54065 0.85733 0.0
H2179 H 0.4802 0.59298 0.8945 0.0
H2180 H 0.53134 0.59974 0.96074 0.0
H2181 H 0.51355 0.60317 0.92249 0.0
H2182 H 0.50801 0.52503 0.89313 0.0
H2183 H 0.52562 0.52162 0.93132 0.0
C2184 C 0.49139 0.55481 0.8352 0.0
C2185 C 0.4772 0.57039 0.83372 0.0
C2186 C 0.50132 0.55276 0.85756 0.0
C2187 C 0.4979 0.56649 0.87975 0.0
C2188 C 0.48371 0.58215 0.87824 0.0
C2189 C 0.4735 0.5839 0.85583 0.0
C2190 C 0.52641 0.58321 0.94619 0.0
C2191 C 0.53026 0.56037 0.94971 0.0
C2192 C 0.51593 0.58514 0.924 0.0
C2193 C 0.50902 0.56444 0.904 0.0
C2194 C 0.51306 0.54168 0.90754 0.0
C2195 C 0.52323 0.53966 0.9298 0.0
H2196 H 0.77844 0.15982 0.11008 0.0
H2197 H 0.84384 0.20345 0.10977 0.0
H2198 H 0.77394 0.1925 0.14268 0.0
H2199 H 0.83935 0.23576 0.1424 0.0
H2200 H 0.82021 0.29917 0.18881 0.0
H2201 H 0.81922 0.26808 0.15197 0.0
H2202 H 0.78892 0.20879 0.18521 0.0
H2203 H 0.78984 0.2396 0.22164 0.0
C2204 C 0.79187 0.17628 0.11698 0.0
C2205 C 0.81154 0.17889 0.10736 0.0
C2206 C 0.78927 0.19501 0.13562 0.0
C2207 C 0.80623 0.21679 0.14497 0.0
C2208 C 0.82583 0.21944 0.13529 0.0
C2209 C 0.82847 0.20071 0.11675 0.0
C2210 C 0.81293 0.27954 0.18798 0.0
C2211 C 0.80513 0.2718 0.20806 0.0
C2212 C 0.8125 0.26174 0.16701 0.0
C2213 C 0.80415 0.23597 0.16579 0.0
C2214 C 0.79526 0.22847 0.18547 0.0
C2215 C 0.7958 0.24618 0.20638 0.0
H2216 H 0.1215 0.52841 0.3188 0.0
H2217 H 0.09294 0.56511 0.27012 0.0
H2218 H 0.10986 0.55349 0.35223 0.0
H2219 H 0.08045 0.58957 0.30396 0.0
H2220 H 0.11136 0.62342 0.40602 0.0
H2221 H 0.11944 0.61246 0.36509 0.0
H2222 H 0.05449 0.56475 0.34288 0.0
H2223 H 0.04649 0.57459 0.38369 0.0
C2224 C 0.11286 0.54188 0.31521 0.0
C2225 C 0.10853 0.54512 0.29189 0.0
C2226 C 0.10621 0.55619 0.33433 0.0
C2227 C 0.09478 0.57368 0.33047 0.0
C2228 C 0.08959 0.57639 0.30718 0.0
C2229 C 0.09657 0.56228 0.28795 0.0
C2230 C 0.09854 0.61131 0.39226 0.0
C2231 C 0.07854 0.59925 0.3983 0.0
C2232 C 0.10313 0.60529 0.36885 0.0
C2233 C 0.08758 0.58768 0.35118 0.0
C2234 C 0.0666 0.57855 0.35633 0.0
C2235 C 0.06208 0.58427 0.37978 0.0
H2236 H 0.84663 0.83653 0.60434 0.0
H2237 H 0.80077 0.88153 0.61293 0.0
H2238 H 0.83679 0.82096 0.63952 0.0
H2239 H 0.79137 0.86656 0.6487 0.0
H2240 H 0.76698 0.81934 0.70291 0.0
H2241 H 0.77441 0.8332 0.66597 0.0
H2242 H 0.8416 0.8333 0.6815 0.0
H2243 H 0.83384 0.81866 0.71775 0.0
C2244 C 0.83431 0.84302 0.61361 0.0
C2245 C 0.82453 0.86035 0.60554 0.0
C2246 C 0.82881 0.83427 0.63411 0.0
C2247 C 0.81344 0.84266 0.64748 0.0
C2248 C 0.80313 0.85939 0.63896 0.0
C2249 C 0.80855 0.86804 0.61832 0.0
C2250 C 0.78334 0.82243 0.69841 0.0
C2251 C 0.79986 0.81815 0.71348 0.0
C2252 C 0.78767 0.83052 0.67722 0.0
C2253 C 0.80866 0.83439 0.67037 0.0
C2254 C 0.82514 0.83016 0.68566 0.0
C2255 C 0.82077 0.82206 0.70675 0.0
H2256 H 0.76251 0.45849 0.50786 0.0
H2257 H 0.80671 0.52947 0.54453 0.0
H2258 H 0.73304 0.47912 0.50579 0.0
H2259 H 0.77755 0.54994 0.54211 0.0
H2260 H 0.71525 0.56899 0.56329 0.0
H2261 H 0.74506 0.54923 0.5615 0.0
H2262 H 0.71999 0.51074 0.48805 0.0
H2263 H 0.69008 0.53077 0.48974 0.0
C2264 C 0.76599 0.47848 0.51523 0.0
C2265 C 0.78688 0.49228 0.5266 0.0
C2266 C 0.74915 0.49031 0.51394 0.0
C2267 C 0.75294 0.51611 0.52402 0.0
C2268 C 0.77402 0.52996 0.5346 0.0
C2269 C 0.79075 0.5182 0.53589 0.0
C2270 C 0.71627 0.5567 0.54659 0.0
C2271 C 0.70033 0.55159 0.52662 0.0
C2272 C 0.73334 0.5453 0.54559 0.0
C2273 C 0.73491 0.52847 0.52461 0.0
C2274 C 0.71908 0.52342 0.50455 0.0
C2275 C 0.70198 0.53491 0.50552 0.0
H2276 H 0.22549 0.14435 0.54536 0.0
H2277 H 0.2119 0.15726 0.47477 0.0
H2278 H 0.18804 0.12079 0.54285 0.0
H2279 H 0.17393 0.13384 0.47241 0.0
H2280 H 0.11564 0.0635 0.46732 0.0
H2281 H 0.15186 0.091 0.46856 0.0
H2282 H 0.15169 0.12444 0.54297 0.0
H2283 H 0.11599 0.09649 0.54184 0.0
C2284 C 0.21445 0.14243 0.52935 0.0
C2285 C 0.22184 0.15276 0.51026 0.0
C2286 C 0.19281 0.12897 0.52797 0.0
C2287 C 0.17778 0.12535 0.50744 0.0
C2288 C 0.18505 0.13601 0.48842 0.0
C2289 C 0.2068 0.14962 0.48984 0.0
C2290 C 0.12332 0.07687 0.48387 0.0
C2291 C 0.11291 0.07779 0.50448 0.0
C2292 C 0.14405 0.09277 0.48456 0.0
C2293 C 0.1549 0.10993 0.50592 0.0
C2294 C 0.14409 0.11126 0.52629 0.0
C2295 C 0.12345 0.09538 0.52559 0.0
H2296 H 0.20174 0.94519 0.75972 0.0
H2297 H 0.25347 0.98925 0.81537 0.0
H2298 H 0.21926 0.91027 0.75532 0.0
H2299 H 0.27079 0.95496 0.81108 0.0
H2300 H 0.30931 0.89664 0.78938 0.0
H2301 H 0.29131 0.93041 0.79099 0.0
H2302 H 0.22931 0.87595 0.7699 0.0
H2303 H 0.24755 0.84195 0.76833 0.0
C2304 C 0.21699 0.94785 0.77083 0.0
C2305 C 0.22592 0.97099 0.78779 0.0
C2306 C 0.22711 0.92739 0.7685 0.0
C2307 C 0.24697 0.9289 0.78272 0.0
C2308 C 0.25592 0.95224 0.79929 0.0
C2309 C 0.24572 0.97236 0.80184 0.0
C2310 C 0.29182 0.89155 0.785 0.0
C2311 C 0.28033 0.8658 0.77871 0.0
C2312 C 0.28122 0.91133 0.7861 0.0
C2313 C 0.25834 0.90686 0.78075 0.0
C2314 C 0.24681 0.88102 0.77408 0.0
C2315 C 0.25744 0.86115 0.77326 0.0
H2316 H 0.4232 0.96515 0.03492 0.0
H2317 H 0.41267 0.03909 0.04367 0.0
H2318 H 0.46233 0.98346 0.04054 0.0
H2319 H 0.45204 0.05746 0.04964 0.0
H2320 H 0.52577 0.07888 0.08174 0.0
H2321 H 0.48714 0.05879 0.08156 0.0
H2322 H 0.48604 1.00927 1.01348 0.0
H2323 H 0.52406 0.02963 1.0132 0.0
C2324 C 0.42921 0.98529 0.03821 0.0
C2325 C 0.41486 1.00067 0.03878 0.0
C2326 C 0.45161 0.99575 0.04146 0.0
C2327 C 0.4601 0.02183 0.04581 0.0
C2328 C 0.44583 0.0373 0.04665 0.0
C2329 C 0.42337 0.02678 0.04292 0.0
C2330 C 0.51727 0.06353 0.06692 0.0
C2331 C 0.52773 0.05604 0.04731 0.0
C2332 C 0.49525 0.05216 0.06677 0.0
C2333 C 0.48371 0.03268 0.0474 0.0
C2334 C 0.4946 0.02424 0.0286 0.0
C2335 C 0.51632 0.03594 0.02845 0.0
H2336 H 0.87155 0.62219 0.87291 0.0
H2337 H 0.86197 0.59047 0.79665 0.0
H2338 H 0.8391 0.63758 0.86807 0.0
H2339 H 0.83031 0.60607 0.79184 0.0
H2340 H 0.77038 0.62743 0.7845 0.0
H2341 H 0.79364 0.60355 0.79934 0.0
H2342 H 0.83113 0.67076 0.85003 0.0
H2343 H 0.80757 0.69433 0.83564 0.0
C2344 C 0.86242 0.61826 0.85522 0.0
C2345 C 0.86952 0.60543 0.83513 0.0
C2346 C 0.84389 0.62709 0.85244 0.0
C2347 C 0.83208 0.623 0.82958 0.0
C2348 C 0.83872 0.60919 0.80977 0.0
C2349 C 0.85715 0.60053 0.81251 0.0
C2350 C 0.78323 0.63686 0.79927 0.0
C2351 C 0.7874 0.66274 0.80868 0.0
C2352 C 0.79658 0.62325 0.80773 0.0
C2353 C 0.81453 0.63539 0.82549 0.0
C2354 C 0.81741 0.66079 0.83643 0.0
C2355 C 0.80391 0.67433 0.82814 0.0
H2356 H 0.86654 0.69355 1.00324 0.0
H2357 H 0.82721 0.62871 0.0226 0.0
H2358 H 0.89782 0.67628 1.00562 0.0
H2359 H 0.85845 0.61107 0.02441 0.0
H2360 H 0.92308 0.59288 0.04079 0.0
H2361 H 0.89404 0.61406 0.04452 0.0
H2362 H 0.90944 0.64294 0.98212 0.0
H2363 H 0.93893 0.62264 0.97898 0.0
C2364 C 0.86459 0.67573 1.00831 0.0
C2365 C 0.84428 0.66253 1.01269 0.0
C2366 C 0.88254 0.66568 1.00943 0.0
C2367 C 0.88069 0.64207 0.01488 0.0
C2368 C 0.86059 0.62936 0.02031 0.0
C2369 C 0.84262 0.63946 0.01923 0.0
C2370 C 0.92052 0.6041 0.0281 0.0
C2371 C 0.93341 0.60597 1.00955 0.0
C2372 C 0.90366 0.61602 0.03008 0.0
C2373 C 0.89928 0.63024 1.01362 0.0
C2374 C 0.91243 0.63245 0.99534 0.0
C2375 C 0.92923 0.62051 0.99334 0.0
H2376 H 0.25222 0.11242 0.82916 0.0
H2377 H 0.20466 0.10642 0.76918 0.0
H2378 H 0.27133 0.15385 0.82521 0.0
H2379 H 0.22417 0.14839 0.76498 0.0
H2380 H 0.25847 0.23636 0.77666 0.0
H2381 H 0.23609 0.19513 0.78014 0.0
H2382 H 0.29428 0.17508 0.80229 0.0
H2383 H 0.31603 0.2154 0.79905 0.0
C2384 C 0.24575 0.11975 0.81491 0.0
C2385 C 0.22667 0.10525 0.79944 0.0
C2386 C 0.25695 0.14389 0.81252 0.0
C2387 C 0.24979 0.1552 0.79455 0.0
C2388 C 0.23048 0.14091 0.77919 0.0
C2389 C 0.21926 0.11648 0.7815 0.0
C2390 C 0.26645 0.22324 0.78245 0.0
C2391 C 0.28937 0.22987 0.7877 0.0
C2392 C 0.25355 0.19927 0.78431 0.0
C2393 C 0.263 0.18109 0.79179 0.0
C2394 C 0.28587 0.18808 0.79698 0.0
C2395 C 0.29857 0.2116 0.79494 0.0
H2396 H 0.40245 0.99051 0.35337 0.0
H2397 H 0.40245 0.98142 0.27686 0.0
H2398 H 0.37684 0.949 0.34625 0.0
H2399 H 0.37667 0.941 0.26988 0.0
H2400 H 0.34815 0.85822 0.26629 0.0
H2401 H 0.37387 0.89938 0.27365 0.0
H2402 H 0.33965 0.92744 0.33019 0.0
H2403 H 0.31442 0.88615 0.32333 0.0
C2404 C 0.397 0.97975 0.33513 0.0
C2405 C 0.40463 0.98926 0.31577 0.0
C2406 C 0.38224 0.95608 0.331 0.0
C2407 C 0.37476 0.94164 0.30745 0.0
C2408 C 0.38239 0.95131 0.28823 0.0
C2409 C 0.39716 0.97467 0.29231 0.0
C2410 C 0.34596 0.87329 0.28003 0.0
C2411 C 0.32932 0.86897 0.29423 0.0
C2412 C 0.36072 0.89688 0.28432 0.0
C2413 C 0.35894 0.91667 0.30271 0.0
C2414 C 0.3418 0.91249 0.31631 0.0
C2415 C 0.3272 0.88889 0.31217 0.0
H2416 H 0.61863 0.41241 0.61506 0.0
H2417 H 0.57777 0.36177 0.55284 0.0
H2418 H 0.61689 0.44801 0.59711 0.0
H2419 H 0.57651 0.39692 0.53459 0.0
H2420 H 0.54942 0.46335 0.52738 0.0
H2421 H 0.55771 0.42847 0.5416 0.0
H2422 H 0.62374 0.47239 0.56671 0.0
H2423 H 0.61526 0.50778 0.55272 0.0
C2424 C 0.61008 0.40876 0.59711 0.0
C2425 C 0.59839 0.38418 0.58539 0.0
C2426 C 0.60891 0.42923 0.58683 0.0
C2427 C 0.59606 0.42558 0.56455 0.0
C2428 C 0.58601 0.40072 0.55204 0.0
C2429 C 0.58703 0.38043 0.56236 0.0
C2430 C 0.56579 0.46567 0.53575 0.0
C2431 C 0.58161 0.48858 0.5388 0.0
C2432 C 0.57064 0.44544 0.54382 0.0
C2433 C 0.59152 0.44729 0.55523 0.0
C2434 C 0.60745 0.47017 0.55817 0.0
C2435 C 0.60259 0.49049 0.55001 0.0
H2436 H 0.45629 0.80022 0.36071 0.0
H2437 H 0.42533 0.73969 0.39195 0.0
H2438 H 0.42072 0.80375 0.34514 0.0
H2439 H 0.38965 0.74296 0.37596 0.0
H2440 H 0.33579 0.73504 0.31065 0.0
H2441 H 0.36932 0.73399 0.33373 0.0
H2442 H 0.3861 0.81459 0.35769 0.0
H2443 H 0.35221 0.81554 0.3349 0.0
C2444 C 0.44189 0.78782 0.3645 0.0
C2445 C 0.44376 0.76963 0.37759 0.0
C2446 C 0.42145 0.78993 0.35564 0.0
C2447 C 0.40223 0.77361 0.35921 0.0
C2448 C 0.40408 0.75575 0.37275 0.0
C2449 C 0.42456 0.75396 0.38203 0.0
C2450 C 0.34641 0.75249 0.32128 0.0
C2451 C 0.34128 0.77534 0.32096 0.0
C2452 C 0.36564 0.7519 0.33454 0.0
C2453 C 0.38055 0.77421 0.3475 0.0
C2454 C 0.37509 0.79706 0.34779 0.0
C2455 C 0.35558 0.7976 0.33489 0.0
H2456 H 0.1101 0.75942 0.09314 0.0
H2457 H 0.04032 0.74027 0.07625 0.0
H2458 H 0.11009 0.71734 0.0716 0.0
H2459 H 0.04008 0.69829 0.05619 0.0
H2460 H 0.04301 0.62889 1.00569 0.0
H2461 H 0.0465 0.67289 0.023 0.0
H2462 H 0.10242 0.67495 0.07187 0.0
H2463 H 0.09958 0.63121 0.05329 0.0
C2464 C 0.09476 0.74625 0.08489 0.0
C2465 C 0.07525 0.75344 0.08629 0.0
C2466 C 0.0947 0.72197 0.07265 0.0
C2467 C 0.07508 0.70408 0.06181 0.0
C2468 C 0.05564 0.71143 0.0635 0.0
C2469 C 0.05575 0.73568 0.07529 0.0
C2470 C 0.05619 0.63884 0.01995 0.0
C2471 C 0.07096 0.6265 0.02814 0.0
C2472 C 0.05812 0.66413 0.03014 0.0
C2473 C 0.07453 0.67774 0.04933 0.0
C2474 C 0.08968 0.66545 0.05704 0.0
C2475 C 0.08802 0.64024 0.04644 0.0
H2476 H 0.0734 0.24191 0.87674 0.0
H2477 H 0.0791 0.31752 0.86819 0.0
H2478 H 0.10798 0.24261 0.86163 0.0
H2479 H 0.11351 0.31808 0.85286 0.0
H2480 H 0.18416 0.31958 0.8468 0.0
H2481 H 0.15109 0.31838 0.86516 0.0
H2482 H 0.12297 0.24276 0.82374 0.0
H2483 H 0.1563 0.24371 0.80583 0.0
C2484 C 0.08204 0.25872 0.87171 0.0
C2485 C 0.0734 0.27965 0.87366 0.0
C2486 C 0.10182 0.25905 0.86291 0.0
C2487 C 0.11355 0.28038 0.85597 0.0
C2488 C 0.10506 0.30144 0.85829 0.0
C2489 C 0.08524 0.30106 0.86696 0.0
C2490 C 0.17108 0.30253 0.84189 0.0
C2491 C 0.17294 0.28173 0.82481 0.0
C2492 C 0.15199 0.30196 0.85222 0.0
C2493 C 0.13428 0.28053 0.84585 0.0
C2494 C 0.13633 0.25951 0.82921 0.0
C2495 C 0.15538 0.26013 0.81877 0.0
H2496 H 0.63722 0.79808 0.9287 0.0
H2497 H 0.58785 0.82016 0.96804 0.0
H2498 H 0.63946 0.76758 0.95324 0.0
H2499 H 0.59025 0.79006 0.99258 0.0
H2500 H 0.60661 0.74141 0.04105 0.0
H2501 H 0.61456 0.77728 0.02242 0.0
H2502 H 0.61059 0.72736 0.95378 0.0
H2503 H 0.6019 0.69145 0.97203 0.0
C2504 C 0.62737 0.79697 0.94305 0.0
C2505 C 0.61226 0.81134 0.94639 0.0
C2506 C 0.62852 0.77941 0.95694 0.0
C2507 C 0.61492 0.77635 0.97469 0.0
C2508 C 0.60103 0.7921 0.97916 0.0
C2509 C 0.5996 0.80926 0.96504 0.0
C2510 C 0.60741 0.73802 0.02198 0.0
C2511 C 0.60333 0.71341 1.00804 0.0
C2512 C 0.61215 0.75861 1.01138 0.0
C2513 C 0.61321 0.7551 0.98668 0.0
C2514 C 0.61021 0.73067 0.97294 0.0
C2515 C 0.60522 0.71006 0.98346 0.0
H2516 H 0.05951 0.78794 0.77319 0.0
H2517 H 0.07958 0.80817 0.70828 0.0
H2518 H 0.09676 0.78842 0.78688 0.0
H2519 H 0.11678 0.80868 0.72207 0.0
H2520 H 0.18464 0.82281 0.76157 0.0
H2521 H 0.14888 0.83036 0.75482 0.0
H2522 H 0.11929 0.75907 0.77041 0.0
H2523 H 0.1548 0.75105 0.77643 0.0
C2524 C 0.07191 0.79291 0.76203 0.0
C2525 C 0.06659 0.79776 0.73953 0.0
C2526 C 0.09319 0.79308 0.76985 0.0
C2527 C 0.10956 0.79842 0.75546 0.0
C2528 C 0.10448 0.80466 0.73359 0.0
C2529 C 0.08317 0.80423 0.72565 0.0
C2530 C 0.17051 0.80872 0.76354 0.0
C2531 C 0.17258 0.78618 0.76929 0.0
C2532 C 0.15009 0.81314 0.75981 0.0
C2533 C 0.13138 0.79528 0.76206 0.0
C2534 C 0.1335 0.7733 0.76887 0.0
C2535 C 0.15387 0.76874 0.77235 0.0
H2536 H 0.11573 0.40018 0.44477 0.0
H2537 H 0.06824 0.42123 0.40122 0.0
H2538 H 0.11767 0.43644 0.47688 0.0
H2539 H 0.07137 0.45877 0.43222 0.0
H2540 H 0.05706 0.50104 0.50214 0.0
H2541 H 0.0595 0.46955 0.46775 0.0
H2542 H 0.12671 0.47819 0.49486 0.0
H2543 H 0.12341 0.50844 0.53029 0.0
C2544 C 0.1063 0.41318 0.44182 0.0
C2545 C 0.09178 0.40799 0.42069 0.0
C2546 C 0.10741 0.43409 0.4602 0.0
C2547 C 0.09438 0.4506 0.45755 0.0
C2548 C 0.08108 0.44618 0.43547 0.0
C2549 C 0.07948 0.42486 0.41748 0.0
C2550 C 0.07235 0.4962 0.50065 0.0
C2551 C 0.08996 0.5069 0.51892 0.0
C2552 C 0.0739 0.47827 0.48072 0.0
C2553 C 0.09336 0.47106 0.4782 0.0
C2554 C 0.11128 0.48265 0.49624 0.0
C2555 C 0.1095 0.50015 0.51652 0.0
H2556 H 0.48238 0.28259 0.26737 0.0
H2557 H 0.44344 0.2502 0.19814 0.0
H2558 H 0.44937 0.27923 0.28624 0.0
H2559 H 0.41062 0.24717 0.21687 0.0
H2560 H 0.35275 0.24442 0.25492 0.0
H2561 H 0.3858 0.23239 0.24493 0.0
H2562 H 0.42441 0.30595 0.28298 0.0
H2563 H 0.39171 0.31782 0.2929 0.0
C2564 C 0.46684 0.27397 0.25625 0.0
C2565 C 0.46552 0.26718 0.23119 0.0
C2566 C 0.44792 0.2722 0.26706 0.0
C2567 C 0.42737 0.26343 0.253 0.0
C2568 C 0.42615 0.25401 0.22825 0.0
C2569 C 0.44504 0.25591 0.21746 0.0
C2570 C 0.36836 0.25776 0.26161 0.0
C2571 C 0.36964 0.2822 0.27436 0.0
C2572 C 0.38726 0.25089 0.25584 0.0
C2573 C 0.40774 0.26824 0.26306 0.0
C2574 C 0.40898 0.29201 0.27734 0.0
C2575 C 0.39017 0.29893 0.28282 0.0
H2576 H 0.67339 0.53142 0.37102 0.0
H2577 H 0.61858 0.54543 0.33276 0.0
H2578 H 0.65526 0.53359 0.40736 0.0
H2579 H 0.60052 0.54726 0.36852 0.0
H2580 H 0.56114 0.52058 0.42606 0.0
H2581 H 0.58188 0.52156 0.39271 0.0
H2582 H 0.64049 0.55822 0.44192 0.0
H2583 H 0.61916 0.55768 0.47593 0.0
C2584 C 0.65757 0.53516 0.37019 0.0
C2585 C 0.64782 0.53828 0.34825 0.0
C2586 C 0.64703 0.53646 0.39133 0.0
C2587 C 0.62592 0.54043 0.39162 0.0
C2588 C 0.61644 0.54381 0.3697 0.0
C2589 C 0.62706 0.54292 0.34883 0.0
C2590 C 0.57845 0.5291 0.43016 0.0
C2591 C 0.58799 0.53905 0.45442 0.0
C2592 C 0.59057 0.52976 0.41059 0.0
C2593 C 0.61331 0.54008 0.41375 0.0
C2594 C 0.62315 0.54991 0.4381 0.0
C2595 C 0.61078 0.54968 0.45791 0.0
H2596 H 0.30634 0.92156 0.07543 0.0
H2597 H 0.34299 0.86868 0.0505 0.0
H2598 H 0.28893 0.89405 0.10015 0.0
H2599 H 0.32569 0.84138 0.07506 0.0
H2600 H 0.28875 0.79252 0.11713 0.0
H2601 H 0.29168 0.81498 0.08484 0.0
H2602 H 0.30719 0.8855 0.13703 0.0
H2603 H 0.30474 0.86327 0.16923 0.0
C2604 C 0.3102 0.90376 0.07469 0.0
C2605 C 0.32627 0.89742 0.06137 0.0
C2606 C 0.30032 0.8881 0.0889 0.0
C2607 C 0.30613 0.86573 0.08969 0.0
C2608 C 0.32077 0.85841 0.07472 0.0
C2609 C 0.33082 0.87416 0.06079 0.0
C2610 C 0.29259 0.81282 0.12169 0.0
C2611 C 0.2969 0.82612 0.14577 0.0
C2612 C 0.2941 0.82562 0.1032 0.0
C2613 C 0.29977 0.85195 0.10845 0.0
C2614 C 0.30251 0.86518 0.13242 0.0
C2615 C 0.30115 0.8524 0.1509 0.0
H2616 H 0.97769 0.60944 0.87701 0.0
H2617 H 0.98151 0.54115 0.82973 0.0
H2618 H 1.00359 0.60345 0.90758 0.0
H2619 H 1.00717 0.53491 0.8607 0.0
H2620 H 0.06766 0.59481 0.945 0.0
H2621 H 0.04468 0.60096 0.9116 0.0
H2622 H 1.00224 0.52715 0.90488 0.0
H2623 H 0.02498 0.52117 0.9386 0.0
C2624 C 0.9842 0.59324 0.87311 0.0
C2625 C 0.97764 0.57577 0.85102 0.0
C2626 C 0.99905 0.58989 0.89056 0.0
C2627 C 1.00729 0.56872 0.88644 0.0
C2628 C 1.00095 0.55134 0.86426 0.0
C2629 C 0.98641 0.55499 0.84656 0.0
C2630 C 0.05348 0.57988 0.93628 0.0
C2631 C 0.04798 0.55757 0.94433 0.0
C2632 C 0.04036 0.58342 0.91726 0.0
C2633 C 0.02181 0.56448 0.90569 0.0
C2634 C 0.0166 0.54192 0.9134 0.0
C2635 C 0.02949 0.53858 0.93272 0.0
H2636 H 0.33693 0.27124 0.58152 0.0
H2637 H 0.27567 0.21592 0.57407 0.0
H2638 H 0.33525 0.28522 0.62393 0.0
H2639 H 0.27417 0.22976 0.61695 0.0
H2640 H 0.34102 0.28181 0.70242 0.0
H2641 H 0.33967 0.26976 0.65929 0.0
H2642 H 0.27076 0.26297 0.65008 0.0
H2643 H 0.27202 0.27476 0.69369 0.0
C2644 C 0.32297 0.26212 0.58884 0.0
C2645 C 0.30651 0.24227 0.57416 0.0
C2646 C 0.32209 0.27005 0.61336 0.0
C2647 C 0.30477 0.2584 0.62419 0.0
C2648 C 0.28777 0.23929 0.60935 0.0
C2649 C 0.28863 0.23132 0.58468 0.0
C2650 C 0.3255 0.27781 0.69134 0.0
C2651 C 0.30663 0.27939 0.7018 0.0
C2652 C 0.32476 0.27103 0.66641 0.0
C2653 C 0.30514 0.26555 0.65093 0.0
C2654 C 0.28617 0.2669 0.66133 0.0
C2655 C 0.28692 0.27381 0.6864 0.0
H2656 H 0.6509 0.50704 0.18622 0.0
H2657 H 0.62123 0.56416 0.21843 0.0
H2658 H 0.63532 0.50935 0.1462 0.0
H2659 H 0.60564 0.56612 0.17936 0.0
H2660 H 0.59248 0.58307 0.10624 0.0
H2661 H 0.60949 0.57967 0.14453 0.0
H2662 H 0.60542 0.50186 0.11508 0.0
H2663 H 0.58867 0.50553 0.07641 0.0
C2664 C 0.64114 0.52011 0.185 0.0
C2665 C 0.63771 0.53545 0.20628 0.0
C2666 C 0.63196 0.5214 0.16179 0.0
C2667 C 0.61904 0.5382 0.15869 0.0
C2668 C 0.61568 0.55328 0.18009 0.0
C2669 C 0.62469 0.55196 0.20301 0.0
C2670 C 0.5951 0.56512 0.10772 0.0
C2671 C 0.58882 0.54464 0.0876 0.0
C2672 C 0.6049 0.56304 0.13011 0.0
C2673 C 0.60903 0.54032 0.13384 0.0
C2674 C 0.60295 0.51985 0.11357 0.0
C2675 C 0.59308 0.52194 0.0911 0.0
H2676 H 0.31999 0.91345 0.96119 0.0
H2677 H 0.38665 0.91215 0.95641 0.0
H2678 H 0.30903 0.88556 0.92104 0.0
H2679 H 0.37568 0.88498 0.91612 0.0
H2680 H 0.33828 0.8627 0.83311 0.0
H2681 H 0.34955 0.89214 0.87225 0.0
H2682 H 0.31896 0.83418 0.9066 0.0
H2683 H 0.30836 0.80429 0.86753 0.0
C2684 C 0.33232 0.90766 0.95138 0.0
C2685 C 0.35417 0.91496 0.96188 0.0
C2686 C 0.32603 0.89161 0.92858 0.0
C2687 C 0.34156 0.88318 0.91575 0.0
C2688 C 0.36347 0.89129 0.92578 0.0
C2689 C 0.3697 0.90681 0.94875 0.0
C2690 C 0.33424 0.85612 0.84903 0.0
C2691 C 0.32266 0.83113 0.84733 0.0
C2692 C 0.34057 0.873 0.87133 0.0
C2693 C 0.33494 0.86534 0.89222 0.0
C2694 C 0.32332 0.84044 0.89061 0.0
C2695 C 0.3174 0.82337 0.86834 0.0
H2696 H 0.9491 0.58252 0.76517 0.0
H2697 H 0.92214 0.50381 0.7332 0.0
H2698 H 0.98346 0.58041 0.7505 0.0
H2699 H 0.95669 0.50121 0.71954 0.0
H2700 H 0.99897 0.52015 0.66168 0.0
H2701 H 0.97056 0.51661 0.68694 0.0
H2702 H 0.01595 0.56563 0.74711 0.0
H2703 H 0.04447 0.56992 0.72118 0.0
C2704 C 0.95089 0.56456 0.75586 0.0
C2705 C 0.93306 0.5434 0.74996 0.0
C2706 C 0.97056 0.56329 0.7475 0.0
C2707 C 0.97264 0.54075 0.73333 0.0
C2708 C 0.95541 0.51901 0.7298 0.0
C2709 C 0.93569 0.52042 0.73773 0.0
C2710 C 1.00294 0.53011 0.68032 0.0
C2711 C 0.02381 0.54564 0.68937 0.0
C2712 C 0.98672 0.52777 0.69497 0.0
C2713 C 0.99096 0.54078 0.71914 0.0
C2714 C 1.01214 0.5555 0.72853 0.0
C2715 C 0.02847 0.55784 0.71376 0.0
H2716 H 0.34037 0.26947 0.45933 0.0
H2717 H 0.27256 0.23169 0.43632 0.0
H2718 H 0.34227 0.28515 0.42361 0.0
H2719 H 0.27402 0.24926 0.40052 0.0
H2720 H 0.29051 0.26389 0.32617 0.0
H2721 H 0.28514 0.24837 0.36275 0.0
H2722 H 0.33579 0.31255 0.40275 0.0
H2723 H 0.34219 0.32633 0.36621 0.0
C2724 C 0.32555 0.26497 0.44692 0.0
C2725 C 0.30627 0.24916 0.45107 0.0
C2726 C 0.32661 0.27432 0.42618 0.0
C2727 C 0.30829 0.26891 0.40873 0.0
C2728 C 0.28866 0.25374 0.41317 0.0
C2729 C 0.28769 0.2439 0.43397 0.0
C2730 C 0.30061 0.2744 0.34281 0.0
C2731 C 0.31713 0.29603 0.34309 0.0
C2732 C 0.29738 0.26568 0.36397 0.0
C2733 C 0.31026 0.27875 0.38611 0.0
C2734 C 0.32602 0.30111 0.38625 0.0
C2735 C 0.32963 0.30929 0.36514 0.0
H2736 H 0.36421 0.61688 0.54606 0.0
H2737 H 0.33072 0.55965 0.57982 0.0
H2738 H 0.39534 0.60018 0.5465 0.0
H2739 H 0.3626 0.54256 0.58029 0.0
H2740 H 0.45394 0.57791 0.55793 0.0
H2741 H 0.42459 0.59437 0.57168 0.0
H2742 H 0.38051 0.52039 0.54919 0.0
H2743 H 0.41048 0.5032 0.53713 0.0
C2744 C 0.36366 0.60114 0.55427 0.0
C2745 C 0.34498 0.58981 0.56315 0.0
C2746 C 0.38167 0.5915 0.55455 0.0
C2747 C 0.38157 0.57015 0.56363 0.0
C2748 C 0.36312 0.55905 0.57315 0.0
C2749 C 0.34496 0.56889 0.573 0.0
C2750 C 0.43829 0.56478 0.55668 0.0
C2751 C 0.43467 0.53914 0.54602 0.0
C2752 C 0.42132 0.57439 0.56434 0.0
C2753 C 0.40013 0.5588 0.56103 0.0
C2754 C 0.39667 0.5329 0.55197 0.0
C2755 C 0.4138 0.52314 0.54464 0.0
H2756 H 0.90918 0.92049 0.55001 0.0
H2757 H 0.88732 0.98465 0.53884 0.0
H2758 H 0.94655 0.94277 0.54701 0.0
H2759 H 0.92459 1.00693 0.53666 0.0
H2760 H 0.99841 0.0437 0.57376 0.0
H2761 H 0.96195 0.01795 0.57457 0.0
H2762 H 0.96572 0.96807 0.50862 0.0
H2763 H 1.00194 0.99447 0.50716 0.0
C2764 C 0.91228 0.9392 0.54677 0.0
C2765 C 0.89521 0.95074 0.54462 0.0
C2766 C 0.93365 0.95191 0.54504 0.0
C2767 C 0.93839 0.97657 0.54169 0.0
C2768 C 0.92134 0.98795 0.53928 0.0
C2769 C 0.9 0.97511 0.54045 0.0
C2770 C 0.99158 0.02718 0.55947 0.0
C2771 C 1.00316 0.02114 0.54039 0.0
C2772 C 0.9707 1.01247 0.55996 0.0
C2773 C 0.96109 0.99103 0.5417 0.0
C2774 C 0.97286 0.98443 0.523 0.0
C2775 C 0.9936 0.99951 0.52221 0.0
H2776 H 0.88287 0.12084 0.23949 0.0
H2777 H 0.90838 0.15545 0.31329 0.0
H2778 H 0.86388 0.15412 0.23819 0.0
H2779 H 0.89027 0.18874 0.31181 0.0
H2780 H 0.86987 0.25992 0.29715 0.0
H2781 H 0.88885 0.22675 0.29661 0.0
H2782 H 0.83316 0.17278 0.25313 0.0
H2783 H 0.81392 0.20585 0.25438 0.0
C2784 C 0.88488 0.13559 0.25541 0.0
C2785 C 0.89775 0.13479 0.27648 0.0
C2786 C 0.87367 0.1549 0.25476 0.0
C2787 C 0.87513 0.175 0.27491 0.0
C2788 C 0.88842 0.17433 0.29565 0.0
C2789 C 0.899 0.1548 0.29649 0.0
C2790 C 0.86143 0.24103 0.2875 0.0
C2791 C 0.83985 0.2363 0.27601 0.0
C2792 C 0.8725 0.22162 0.28719 0.0
C2793 C 0.86302 0.19623 0.27478 0.0
C2794 C 0.84158 0.19164 0.26287 0.0
C2795 C 0.8303 0.21092 0.26373 0.0
H2796 H 0.75257 0.08272 0.0363 0.0
H2797 H 0.74471 0.09301 0.96405 0.0
H2798 H 0.72202 0.09988 0.04494 0.0
H2799 H 0.71456 0.11135 0.97281 0.0
H2800 H 0.64335 0.10099 0.98652 0.0
H2801 H 0.67859 0.09654 0.9779 0.0
H2802 H 0.70601 0.13343 0.05128 0.0
H2803 H 0.67013 0.13663 0.06029 0.0
C2804 C 0.74465 0.0894 0.02249 0.0
C2805 C 0.75096 0.08665 0.99956 0.0
C2806 C 0.72716 0.09938 0.02744 0.0
C2807 C 0.7157 0.10707 1.00959 0.0
C2808 C 0.72269 0.10521 0.98687 0.0
C2809 C 0.73996 0.09477 0.98182 0.0
C2810 C 0.65693 0.10866 1.00078 0.0
C2811 C 0.65382 0.11873 0.02425 0.0
C2812 C 0.67731 0.10624 0.99575 0.0
C2813 C 0.6952 0.11421 0.01397 0.0
C2814 C 0.69247 0.12642 0.03696 0.0
C2815 C 0.67194 0.12849 0.04209 0.0
H2816 H 0.21778 0.51092 0.29922 0.0
H2817 H 0.19586 0.47859 0.22377 0.0
H2818 H 0.24977 0.49532 0.29627 0.0
H2819 H 0.22834 0.46298 0.22085 0.0
H2820 H 0.26986 0.40938 0.24273 0.0
H2821 H 0.24122 0.43017 0.2374 0.0
H2822 H 0.28385 0.50036 0.2781 0.0
H2823 H 0.31272 0.47957 0.2833 0.0
C2824 C 0.21983 0.50057 0.28193 0.0
C2825 C 0.20413 0.49577 0.26176 0.0
C2826 C 0.23835 0.4919 0.2802 0.0
C2827 C 0.24163 0.47809 0.2583 0.0
C2828 C 0.22617 0.47357 0.23796 0.0
C2829 C 0.20762 0.4825 0.23964 0.0
C2830 C 0.2734 0.42941 0.24991 0.0
C2831 C 0.29351 0.44281 0.26365 0.0
C2832 C 0.25695 0.44131 0.24684 0.0
C2833 C 0.26025 0.4668 0.25754 0.0
C2834 C 0.28079 0.48057 0.26997 0.0
C2835 C 0.29727 0.46869 0.27299 0.0
H2836 H 0.27936 0.44198 0.99081 0.0
H2837 H 0.26949 0.4375 0.06335 0.0
H2838 H 0.24726 0.45743 0.98629 0.0
H2839 H 0.2375 0.45359 0.059 0.0
H2840 H 0.17041 0.46454 0.03576 0.0
H2841 H 0.20057 0.4453 0.03945 0.0
H2842 H 0.23675 0.49514 1.00022 0.0
H2843 H 0.20676 0.5142 0.9965 0.0
C2844 C 0.27032 0.44423 1.00582 0.0
C2845 C 0.27715 0.43861 0.02751 0.0
C2846 C 0.25193 0.45329 1.00327 0.0
C2847 C 0.23984 0.45711 0.02236 0.0
C2848 C 0.24627 0.45075 0.04384 0.0
C2849 C 0.2647 0.4416 0.04638 0.0
C2850 C 0.18484 0.47143 0.02798 0.0
C2851 C 0.18601 0.49085 0.01567 0.0
C2852 C 0.20216 0.4604 0.03012 0.0
C2853 C 0.22114 0.46851 0.02002 0.0
C2854 C 0.22227 0.48796 1.00778 0.0
C2855 C 0.205 0.49893 1.00563 0.0
H2856 H 0.86685 1.00833 0.29752 0.0
H2857 H 0.91167 0.98161 0.25405 0.0
H2858 H 0.84725 0.96551 0.29638 0.0
H2859 H 0.89163 0.93794 0.25272 0.0
H2860 H 0.85965 0.86113 0.27611 0.0
H2861 H 0.88135 0.90336 0.27491 0.0
H2862 H 0.82309 0.92884 0.27296 0.0
H2863 H 0.80189 0.88743 0.27417 0.0
C2864 C 0.87248 0.99333 0.28731 0.0
C2865 C 0.891 0.99918 0.27563 0.0
C2866 C 0.86101 0.96833 0.28661 0.0
C2867 C 0.8674 0.94741 0.27436 0.0
C2868 C 0.88595 0.95309 0.26253 0.0
C2869 C 0.89739 0.97838 0.263 0.0
C2870 C 0.85143 0.87564 0.27536 0.0
C2871 C 0.82867 0.87018 0.2753 0.0
C2872 C 0.86398 0.90015 0.27457 0.0
C2873 C 0.85436 0.92036 0.27402 0.0
C2874 C 0.83163 0.91456 0.27383 0.0
C2875 C 0.81925 0.89033 0.27442 0.0
H2876 H 0.70573 0.1058 0.79088 0.0
H2877 H 0.71808 0.09191 0.71743 0.0
H2878 H 0.72095 0.15053 0.79518 0.0
H2879 H 0.73453 0.13678 0.72199 0.0
H2880 H 0.77619 0.21996 0.80684 0.0
H2881 H 0.75616 0.17635 0.79949 0.0
H2882 H 0.7314 0.17889 0.72792 0.0
H2883 H 0.75241 0.22269 0.7351 0.0
C2884 C 0.71167 0.11243 0.77561 0.0
C2885 C 0.71097 0.09546 0.75392 0.0
C2886 C 0.72058 0.13804 0.77811 0.0
C2887 C 0.72952 0.14728 0.75914 0.0
C2888 C 0.72776 0.13038 0.73697 0.0
C2889 C 0.71839 0.10468 0.73433 0.0
C2890 C 0.76643 0.21129 0.78954 0.0
C2891 C 0.76581 0.22478 0.77158 0.0
C2892 C 0.75475 0.18625 0.78535 0.0
C2893 C 0.74184 0.17408 0.76319 0.0
C2894 C 0.74127 0.18759 0.74513 0.0
C2895 C 0.75324 0.21269 0.74926 0.0
loop_
_geom_bond_atom_site_label_1
_geom_bond_atom_site_label_2
_geom_bond_distance
_geom_bond_site_symmetry_2
_ccdc_geom_bond_type
Mg0 O1 2.028 . S
Mg0 O7 1.986 . S
Mg0 O9 2.114 . S
Mg0 O10 2.251 . S
Mg0 O13 2.010 . S
O1 Mg0 2.028 . S
O1 C4 1.250 . S
O2 Mg3 2.028 . S
O2 C4 1.248 . S
Mg3 O2 2.028 . S
Mg3 O8 2.032 . S
Mg3 O10 2.079 . S
C4 O1 1.250 . S
C4 O2 1.248 . S
C5 O6 1.264 . S
C5 O13 1.249 . S
O6 C5 1.264 . S
O7 Mg0 1.986 . S
O7 C11 1.246 . S
O8 Mg3 2.032 . S
O8 C11 1.259 . S
O9 Mg0 2.114 . S
O9 C12 1.252 . S
O10 Mg0 2.251 . S
O10 Mg3 2.079 . S
O10 C12 1.273 . S
C11 O7 1.246 . S
C11 O8 1.259 . S
C12 O9 1.252 . S
C12 O10 1.273 . S
O13 Mg0 2.010 . S
O13 C5 1.249 . S
Mg14 O15 2.028 . S
Mg14 O21 1.986 . S
Mg14 O23 2.114 1_455 S
Mg14 O24 2.251 1_455 S
Mg14 O27 2.010 . S
O15 Mg14 2.028 . S
O15 C18 1.250 1_455 S
O16 Mg17 2.028 . S
O16 C18 1.248 . S
Mg17 O16 2.028 . S
Mg17 O22 2.032 . S
Mg17 O24 2.079 . S
C18 O15 1.250 1_655 S
C18 O16 1.248 . S
C19 O20 1.264 . S
C19 O27 1.249 . S
O20 C19 1.264 . S
O21 Mg14 1.986 . S
O21 C25 1.246 1_455 S
O22 Mg17 2.032 . S
O22 C25 1.259 . S
O23 Mg14 2.114 1_655 S
O23 C26 1.252 . S
O24 Mg14 2.251 1_655 S
O24 Mg17 2.079 . S
O24 C26 1.273 . S
C25 O21 1.246 1_655 S
C25 O22 1.259 . S
C26 O23 1.252 . S
C26 O24 1.273 . S
O27 Mg14 2.010 . S
O27 C19 1.249 . S
Mg28 O29 2.028 . S
Mg28 O35 1.986 . S
Mg28 O37 2.114 . S
Mg28 O38 2.251 . S
Mg28 O41 2.010 . S
O29 Mg28 2.028 . S
O29 C32 1.250 . S
O30 Mg31 2.028 . S
O30 C32 1.248 . S
Mg31 O30 2.028 . S
Mg31 O36 2.032 . S
Mg31 O38 2.079 . S
C32 O29 1.250 . S
C32 O30 1.248 . S
C33 O34 1.264 . S
C33 O41 1.249 . S
O34 C33 1.264 . S
O35 Mg28 1.986 . S
O35 C39 1.246 . S
O36 Mg31 2.032 . S
O36 C39 1.259 . S
O37 Mg28 2.114 . S
O37 C40 1.252 . S
O38 Mg28 2.251 . S
O38 Mg31 2.079 . S
O38 C40 1.273 . S
C39 O35 1.246 . S
C39 O36 1.259 . S
C40 O37 1.252 . S
C40 O38 1.273 . S
O41 Mg28 2.010 . S
O41 C33 1.249 . S
Mg42 O43 2.028 . S
Mg42 O49 1.986 . S
Mg42 O51 2.114 . S
Mg42 O52 2.251 . S
Mg42 O55 2.010 . S
O43 Mg42 2.028 . S
O43 C46 1.250 . S
O44 Mg45 2.028 . S
O44 C46 1.248 . S
Mg45 O44 2.028 . S
Mg45 O50 2.032 . S
Mg45 O52 2.079 . S
C46 O43 1.250 . S
C46 O44 1.248 . S
C47 O48 1.264 . S
C47 O55 1.249 . S
O48 C47 1.264 . S
O49 Mg42 1.986 . S
O49 C53 1.246 . S
O50 Mg45 2.032 . S
O50 C53 1.259 . S
O51 Mg42 2.114 . S
O51 C54 1.252 . S
O52 Mg42 2.251 . S
O52 Mg45 2.079 . S
O52 C54 1.273 . S
C53 O49 1.246 . S
C53 O50 1.259 . S
C54 O51 1.252 . S
C54 O52 1.273 . S
O55 Mg42 2.010 . S
O55 C47 1.249 . S
Mg56 O57 2.028 . S
Mg56 O63 1.986 . S
Mg56 O65 2.114 . S
Mg56 O66 2.251 . S
Mg56 O69 2.010 . S
O57 Mg56 2.028 . S
O57 C60 1.250 . S
O58 Mg59 2.028 . S
O58 C60 1.248 . S
Mg59 O58 2.028 . S
Mg59 O64 2.032 . S
Mg59 O66 2.079 . S
C60 O57 1.250 . S
C60 O58 1.248 . S
C61 O62 1.264 . S
C61 O69 1.249 . S
O62 C61 1.264 . S
O63 Mg56 1.986 . S
O63 C67 1.246 . S
O64 Mg59 2.032 . S
O64 C67 1.259 . S
O65 Mg56 2.114 . S
O65 C68 1.252 . S
O66 Mg56 2.251 . S
O66 Mg59 2.079 . S
O66 C68 1.273 . S
C67 O63 1.246 . S
C67 O64 1.259 . S
C68 O65 1.252 . S
C68 O66 1.273 . S
O69 Mg56 2.010 . S
O69 C61 1.249 . S
Mg70 O71 2.028 . S
Mg70 O77 1.986 . S
Mg70 O79 2.114 . S
Mg70 O80 2.251 . S
Mg70 O83 2.010 . S
O71 Mg70 2.028 . S
O71 C74 1.250 . S
O72 Mg73 2.028 . S
O72 C74 1.248 . S
Mg73 O72 2.028 . S
Mg73 O78 2.032 . S
Mg73 O80 2.079 . S
C74 O71 1.250 . S
C74 O72 1.248 . S
C75 O76 1.264 . S
C75 O83 1.249 . S
O76 C75 1.264 . S
O77 Mg70 1.986 . S
O77 C81 1.246 . S
O78 Mg73 2.032 . S
O78 C81 1.259 . S
O79 Mg70 2.114 . S
O79 C82 1.252 . S
O80 Mg70 2.251 . S
O80 Mg73 2.079 . S
O80 C82 1.273 . S
C81 O77 1.246 . S
C81 O78 1.259 . S
C82 O79 1.252 . S
C82 O80 1.273 . S
O83 Mg70 2.010 . S
O83 C75 1.249 . S
Mg84 O85 2.028 . S
Mg84 O91 1.986 . S
Mg84 O93 2.114 . S
Mg84 O94 2.251 . S
Mg84 O97 2.010 . S
O85 Mg84 2.028 . S
O85 C88 1.250 . S
O86 Mg87 2.028 . S
O86 C88 1.248 . S
Mg87 O86 2.028 . S
Mg87 O92 2.032 . S
Mg87 O94 2.079 . S
C88 O85 1.250 . S
C88 O86 1.248 . S
C89 O90 1.264 . S
C89 O97 1.249 . S
O90 C89 1.264 . S
O91 Mg84 1.986 . S
O91 C95 1.246 . S
O92 Mg87 2.032 . S
O92 C95 1.259 . S
O93 Mg84 2.114 . S
O93 C96 1.252 . S
O94 Mg84 2.251 . S
O94 Mg87 2.079 . S
O94 C96 1.273 . S
C95 O91 1.246 . S
C95 O92 1.259 . S
C96 O93 1.252 . S
C96 O94 1.273 . S
O97 Mg84 2.010 . S
O97 C89 1.249 . S
Mg98 O99 2.028 . S
Mg98 O105 1.986 . S
Mg98 O107 2.114 1_455 S
Mg98 O108 2.251 1_455 S
Mg98 O111 2.010 . S
O99 Mg98 2.028 . S
O99 C102 1.250 . S
O100 Mg101 2.031 1_455 S
O100 C102 1.243 . S
Mg101 O100 2.031 1_655 S
Mg101 O106 2.032 . S
Mg101 O108 2.079 . S
C102 O99 1.250 . S
C102 O100 1.243 . S
C103 O104 1.264 . S
C103 O111 1.249 . S
O104 C103 1.264 . S
O105 Mg98 1.986 . S
O105 C109 1.246 . S
O106 Mg101 2.032 . S
O106 C109 1.259 1_655 S
O107 Mg98 2.114 1_655 S
O107 C110 1.252 . S
O108 Mg98 2.251 1_655 S
O108 Mg101 2.079 . S
O108 C110 1.273 . S
C109 O105 1.246 . S
C109 O106 1.259 1_455 S
C110 O107 1.252 . S
C110 O108 1.273 . S
O111 Mg98 2.010 . S
O111 C103 1.249 . S
Mg112 O113 2.028 1_545 S
Mg112 O119 1.986 . S
Mg112 O121 2.139 . S
Mg112 O122 2.251 . S
Mg112 O125 2.010 . S
O113 Mg112 2.028 1_565 S
O113 C116 1.250 . S
O114 Mg115 2.028 1_565 S
O114 C116 1.248 . S
Mg115 O114 2.028 1_545 S
Mg115 O120 2.032 . S
Mg115 O122 2.079 . S
C116 O113 1.250 . S
C116 O114 1.248 . S
C117 O118 1.264 . S
C117 O125 1.249 . S
O118 C117 1.264 . S
O119 Mg112 1.986 . S
O119 C123 1.246 . S
O120 Mg115 2.032 . S
O120 C123 1.259 . S
O121 Mg112 2.139 . S
O121 C124 1.262 . S
O122 Mg112 2.251 . S
O122 Mg115 2.079 . S
O122 C124 1.273 . S
C123 O119 1.246 . S
C123 O120 1.259 . S
C124 O121 1.262 . S
C124 O122 1.273 . S
O125 Mg112 2.010 . S
O125 C117 1.249 . S
Mg126 O127 2.028 . S
Mg126 O133 1.986 . S
Mg126 O135 2.114 . S
Mg126 O136 2.251 . S
Mg126 O139 2.010 . S
O127 Mg126 2.028 . S
O127 C130 1.250 . S
O128 Mg129 2.028 . S
O128 C130 1.248 . S
Mg129 O128 2.028 . S
Mg129 O134 2.032 . S
Mg129 O136 2.079 . S
C130 O127 1.250 . S
C130 O128 1.248 . S
C131 O132 1.264 . S
C131 O139 1.249 . S
O132 C131 1.264 . S
O133 Mg126 1.986 . S
O133 C137 1.246 . S
O134 Mg129 2.032 . S
O134 C137 1.259 . S
O135 Mg126 2.114 . S
O135 C138 1.252 . S
O136 Mg126 2.251 . S
O136 Mg129 2.079 . S
O136 C138 1.273 . S
C137 O133 1.246 . S
C137 O134 1.259 . S
C138 O135 1.252 . S
C138 O136 1.273 . S
O139 Mg126 2.010 . S
O139 C131 1.249 . S
Mg140 O141 2.028 1_565 S
Mg140 O147 1.986 . S
Mg140 O149 2.114 1_565 S
Mg140 O150 2.251 1_565 S
Mg140 O153 2.010 . S
O141 Mg140 2.028 1_545 S
O141 C144 1.250 . S
O142 Mg143 2.028 . S
O142 C144 1.248 . S
Mg143 O142 2.028 . S
Mg143 O148 2.032 1_545 S
Mg143 O150 2.079 . S
C144 O141 1.250 . S
C144 O142 1.248 . S
C145 O146 1.264 . S
C145 O153 1.249 . S
O146 C145 1.264 . S
O147 Mg140 1.986 . S
O147 C151 1.246 . S
O148 Mg143 2.032 1_565 S
O148 C151 1.259 . S
O149 Mg140 2.114 1_545 S
O149 C152 1.252 . S
O150 Mg140 2.251 1_545 S
O150 Mg143 2.079 . S
O150 C152 1.273 . S
C151 O147 1.246 . S
C151 O148 1.259 . S
C152 O149 1.252 . S
C152 O150 1.273 . S
O153 Mg140 2.010 . S
O153 C145 1.249 . S
Mg154 O155 2.028 1_554 S
Mg154 O161 1.986 . S
Mg154 O163 2.114 . S
Mg154 O164 2.251 . S
Mg154 O167 2.010 . S
O155 Mg154 2.028 1_556 S
O155 C158 1.250 . S
O156 Mg157 2.028 1_556 S
O156 C158 1.248 . S
Mg157 O156 2.028 1_554 S
Mg157 O162 2.032 . S
Mg157 O164 2.079 . S
C158 O155 1.250 . S
C158 O156 1.248 . S
C159 O160 1.264 . S
C159 O167 1.249 . S
O160 C159 1.264 . S
O161 Mg154 1.986 . S
O161 C165 1.246 . S
O162 Mg157 2.032 . S
O162 C165 1.259 . S
O163 Mg154 2.114 . S
O163 C166 1.252 . S
O164 Mg154 2.251 . S
O164 Mg157 2.079 . S
O164 C166 1.273 . S
C165 O161 1.246 . S
C165 O162 1.259 . S
C166 O163 1.252 . S
C166 O164 1.273 . S
O167 Mg154 2.010 . S
O167 C159 1.249 . S
Mg168 O169 2.028 1_554 S
Mg168 O175 1.986 . S
Mg168 O177 2.114 . S
Mg168 O178 2.251 . S
Mg168 O181 2.010 . S
O169 Mg168 2.028 1_556 S
O169 C172 1.250 . S
O170 Mg171 2.028 1_556 S
O170 C172 1.248 . S
Mg171 O170 2.028 1_554 S
Mg171 O176 2.032 . S
Mg171 O178 2.079 . S
C172 O169 1.250 . S
C172 O170 1.248 . S
C173 O174 1.264 . S
C173 O181 1.249 . S
O174 C173 1.264 . S
O175 Mg168 1.986 . S
O175 C179 1.246 . S
O176 Mg171 2.032 . S
O176 C179 1.259 . S
O177 Mg168 2.114 . S
O177 C180 1.252 . S
O178 Mg168 2.251 . S
O178 Mg171 2.079 . S
O178 C180 1.273 . S
C179 O175 1.246 . S
C179 O176 1.259 . S
C180 O177 1.252 . S
C180 O178 1.273 . S
O181 Mg168 2.010 . S
O181 C173 1.249 . S
Mg182 O183 2.028 . S
Mg182 O189 1.986 1_554 S
Mg182 O191 2.114 . S
Mg182 O192 2.251 . S
Mg182 O195 2.010 . S
O183 Mg182 2.028 . S
O183 C186 1.250 . S
O184 Mg185 2.028 . S
O184 C186 1.248 . S
Mg185 O184 2.028 . S
Mg185 O190 2.032 1_554 S
Mg185 O192 2.079 . S
C186 O183 1.250 . S
C186 O184 1.248 . S
C187 O188 1.264 1_554 S
C187 O195 1.249 . S
O188 C187 1.264 1_556 S
O189 Mg182 1.986 1_556 S
O189 C193 1.246 . S
O190 Mg185 2.032 1_556 S
O190 C193 1.259 . S
O191 Mg182 2.114 . S
O191 C194 1.252 . S
O192 Mg182 2.251 . S
O192 Mg185 2.079 . S
O192 C194 1.273 . S
C193 O189 1.246 . S
C193 O190 1.259 . S
C194 O191 1.252 . S
C194 O192 1.273 . S
O195 Mg182 2.010 . S
O195 C187 1.249 . S
Mg196 O197 2.028 . S
Mg196 O203 1.986 . S
Mg196 O205 2.114 . S
Mg196 O206 2.251 . S
Mg196 O209 2.010 . S
O197 Mg196 2.028 . S
O197 C200 1.250 . S
O198 Mg199 2.028 . S
O198 C200 1.248 . S
Mg199 O198 2.028 . S
Mg199 O204 2.032 . S
Mg199 O206 2.079 . S
C200 O197 1.250 . S
C200 O198 1.248 . S
C201 O202 1.264 . S
C201 O209 1.249 . S
O202 C201 1.264 . S
O203 Mg196 1.986 . S
O203 C207 1.246 . S
O204 Mg199 2.032 . S
O204 C207 1.259 . S
O205 Mg196 2.114 . S
O205 C208 1.252 . S
O206 Mg196 2.251 . S
O206 Mg199 2.079 . S
O206 C208 1.273 . S
C207 O203 1.246 . S
C207 O204 1.259 . S
C208 O205 1.252 . S
C208 O206 1.273 . S
O209 Mg196 2.010 . S
O209 C201 1.249 . S
Mg210 O211 2.028 . S
Mg210 O217 1.986 . S
Mg210 O219 2.114 . S
Mg210 O220 2.251 . S
Mg210 O223 2.010 . S
O211 Mg210 2.028 . S
O211 C214 1.250 . S
O212 Mg213 2.028 . S
O212 C214 1.248 . S
Mg213 O212 2.028 . S
Mg213 O218 2.032 . S
Mg213 O220 2.079 . S
C214 O211 1.250 . S
C214 O212 1.248 . S
C215 O216 1.264 . S
C215 O223 1.249 . S
O216 C215 1.264 . S
O217 Mg210 1.986 . S
O217 C221 1.246 . S
O218 Mg213 2.032 . S
O218 C221 1.259 . S
O219 Mg210 2.114 . S
O219 C222 1.252 . S
O220 Mg210 2.251 . S
O220 Mg213 2.079 . S
O220 C222 1.273 . S
C221 O217 1.246 . S
C221 O218 1.259 . S
C222 O219 1.252 . S
C222 O220 1.273 . S
O223 Mg210 2.010 . S
O223 C215 1.249 . S
Mg224 O225 2.028 . S
Mg224 O231 1.986 . S
Mg224 O233 2.114 . S
Mg224 O234 2.251 . S
Mg224 O237 2.010 . S
O225 Mg224 2.028 . S
O225 C228 1.250 . S
O226 Mg227 2.028 . S
O226 C228 1.248 . S
Mg227 O226 2.028 . S
Mg227 O232 2.032 . S
Mg227 O234 2.079 . S
C228 O225 1.250 . S
C228 O226 1.248 . S
C229 O230 1.264 . S
C229 O237 1.249 . S
O230 C229 1.264 . S
O231 Mg224 1.986 . S
O231 C235 1.246 . S
O232 Mg227 2.032 . S
O232 C235 1.259 . S
O233 Mg224 2.114 . S
O233 C236 1.252 . S
O234 Mg224 2.251 . S
O234 Mg227 2.079 . S
O234 C236 1.273 . S
C235 O231 1.246 . S
C235 O232 1.259 . S
C236 O233 1.252 . S
C236 O234 1.273 . S
O237 Mg224 2.010 . S
O237 C229 1.249 . S
Mg238 O239 2.028 . S
Mg238 O245 1.986 . S
Mg238 O247 2.114 . S
Mg238 O248 2.251 . S
Mg238 O251 2.010 . S
O239 Mg238 2.028 . S
O239 C242 1.250 . S
O240 Mg241 2.028 . S
O240 C242 1.248 . S
Mg241 O240 2.028 . S
Mg241 O246 2.032 . S
Mg241 O248 2.079 . S
C242 O239 1.250 . S
C242 O240 1.248 . S
C243 O244 1.264 . S
C243 O251 1.249 . S
O244 C243 1.264 . S
O245 Mg238 1.986 . S
O245 C249 1.246 . S
O246 Mg241 2.032 . S
O246 C249 1.259 . S
O247 Mg238 2.114 . S
O247 C250 1.252 . S
O248 Mg238 2.251 . S
O248 Mg241 2.079 . S
O248 C250 1.273 . S
C249 O245 1.246 . S
C249 O246 1.259 . S
C250 O247 1.252 . S
C250 O248 1.273 . S
O251 Mg238 2.010 . S
O251 C243 1.249 . S
Mg252 O253 2.028 . S
Mg252 O259 1.986 . S
Mg252 O261 2.114 . S
Mg252 O262 2.251 . S
Mg252 O265 2.010 . S
O253 Mg252 2.028 . S
O253 C256 1.250 . S
O254 Mg255 2.028 . S
O254 C256 1.248 . S
Mg255 O254 2.028 . S
Mg255 O260 2.032 . S
Mg255 O262 2.079 . S
C256 O253 1.250 . S
C256 O254 1.248 . S
C257 O258 1.264 . S
C257 O265 1.249 . S
O258 C257 1.264 . S
O259 Mg252 1.986 . S
O259 C263 1.246 . S
O260 Mg255 2.032 . S
O260 C263 1.259 . S
O261 Mg252 2.114 . S
O261 C264 1.252 . S
O262 Mg252 2.251 . S
O262 Mg255 2.079 . S
O262 C264 1.273 . S
C263 O259 1.246 . S
C263 O260 1.259 . S
C264 O261 1.252 . S
C264 O262 1.273 . S
O265 Mg252 2.010 . S
O265 C257 1.249 . S
Mg266 O267 2.028 . S
Mg266 O273 1.986 . S
Mg266 O275 2.114 . S
Mg266 O276 2.251 . S
Mg266 O279 2.010 . S
O267 Mg266 2.028 . S
O267 C270 1.250 . S
O268 Mg269 2.028 . S
O268 C270 1.248 . S
Mg269 O268 2.028 . S
Mg269 O274 2.032 . S
Mg269 O276 2.079 . S
C270 O267 1.250 . S
C270 O268 1.248 . S
C271 O272 1.264 . S
C271 O279 1.249 . S
O272 C271 1.264 . S
O273 Mg266 1.986 . S
O273 C277 1.246 . S
O274 Mg269 2.032 . S
O274 C277 1.259 . S
O275 Mg266 2.114 . S
O275 C278 1.252 . S
O276 Mg266 2.251 . S
O276 Mg269 2.079 . S
O276 C278 1.273 . S
C277 O273 1.246 . S
C277 O274 1.259 . S
C278 O275 1.252 . S
C278 O276 1.273 . S
O279 Mg266 2.010 . S
O279 C271 1.249 . S
Mg280 O281 2.028 1_556 S
Mg280 O287 1.986 . S
Mg280 O289 2.114 1_556 S
Mg280 O290 2.251 1_556 S
Mg280 O293 2.010 . S
O281 Mg280 2.028 1_554 S
O281 C284 1.250 . S
O282 Mg283 2.028 . S
O282 C284 1.248 . S
Mg283 O282 2.028 . S
Mg283 O288 2.032 1_554 S
Mg283 O290 2.079 . S
C284 O281 1.250 . S
C284 O282 1.248 . S
C285 O286 1.264 . S
C285 O293 1.249 . S
O286 C285 1.264 . S
O287 Mg280 1.986 . S
O287 C291 1.246 . S
O288 Mg283 2.032 1_556 S
O288 C291 1.259 . S
O289 Mg280 2.114 1_554 S
O289 C292 1.252 . S
O290 Mg280 2.251 1_554 S
O290 Mg283 2.079 . S
O290 C292 1.273 . S
C291 O287 1.246 . S
C291 O288 1.259 . S
C292 O289 1.252 . S
C292 O290 1.273 . S
O293 Mg280 2.010 . S
O293 C285 1.249 . S
Mg294 O295 2.028 . S
Mg294 O301 1.986 . S
Mg294 O303 2.114 . S
Mg294 O304 2.251 . S
Mg294 O307 2.010 . S
O295 Mg294 2.028 . S
O295 C298 1.250 . S
O296 Mg297 2.028 . S
O296 C298 1.248 . S
Mg297 O296 2.028 . S
Mg297 O302 2.032 . S
Mg297 O304 2.079 . S
C298 O295 1.250 . S
C298 O296 1.248 . S
C299 O300 1.264 . S
C299 O307 1.249 . S
O300 C299 1.264 . S
O301 Mg294 1.986 . S
O301 C305 1.246 . S
O302 Mg297 2.032 . S
O302 C305 1.259 . S
O303 Mg294 2.114 . S
O303 C306 1.252 . S
O304 Mg294 2.251 . S
O304 Mg297 2.079 . S
O304 C306 1.273 . S
C305 O301 1.246 . S
C305 O302 1.259 . S
C306 O303 1.252 . S
C306 O304 1.273 . S
O307 Mg294 2.010 . S
O307 C299 1.249 . S
Mg308 O309 2.028 . S
Mg308 O315 1.986 . S
Mg308 O317 2.114 . S
Mg308 O318 2.251 . S
Mg308 O321 2.010 . S
O309 Mg308 2.028 . S
O309 C312 1.250 . S
O310 Mg311 2.028 . S
O310 C312 1.248 . S
Mg311 O310 2.028 . S
Mg311 O316 2.032 . S
Mg311 O318 2.079 . S
C312 O309 1.250 . S
C312 O310 1.248 . S
C313 O314 1.264 . S
C313 O321 1.249 . S
O314 C313 1.264 . S
O315 Mg308 1.986 . S
O315 C319 1.246 . S
O316 Mg311 2.032 . S
O316 C319 1.259 . S
O317 Mg308 2.114 . S
O317 C320 1.252 . S
O318 Mg308 2.251 . S
O318 Mg311 2.079 . S
O318 C320 1.273 . S
C319 O315 1.246 . S
C319 O316 1.259 . S
C320 O317 1.252 . S
C320 O318 1.273 . S
O321 Mg308 2.010 . S
O321 C313 1.249 . S
Mg322 O323 2.028 . S
Mg322 O329 1.986 . S
Mg322 O331 2.114 . S
Mg322 O332 2.251 . S
Mg322 O335 2.010 . S
O323 Mg322 2.028 . S
O323 C326 1.250 . S
O324 Mg325 2.028 . S
O324 C326 1.248 . S
Mg325 O324 2.028 . S
Mg325 O330 2.032 . S
Mg325 O332 2.079 . S
C326 O323 1.250 . S
C326 O324 1.248 . S
C327 O328 1.264 . S
C327 O335 1.249 . S
O328 C327 1.264 . S
O329 Mg322 1.986 . S
O329 C333 1.246 . S
O330 Mg325 2.032 . S
O330 C333 1.259 . S
O331 Mg322 2.114 . S
O331 C334 1.252 . S
O332 Mg322 2.251 . S
O332 Mg325 2.079 . S
O332 C334 1.273 . S
C333 O329 1.246 . S
C333 O330 1.259 . S
C334 O331 1.252 . S
C334 O332 1.273 . S
O335 Mg322 2.010 . S
O335 C327 1.249 . S
La336 C338 2.928 1_455 S
La336 O356 2.521 1_455 S
La336 O357 2.628 1_456 S
La336 O358 2.554 . S
La336 O359 2.757 . S
La336 O360 2.470 . S
La336 O365 2.482 1_556 S
La336 O367 2.503 1_546 S
La337 C347 2.928 . S
La337 O359 2.482 1_554 S
La337 O361 2.503 . S
La337 O362 2.521 . S
La337 O363 2.628 . S
La337 O364 2.554 . S
La337 O365 2.757 . S
La337 O366 2.470 . S
C338 La336 2.928 1_655 S
C338 C339 1.503 . S
C338 O356 1.261 . S
C338 O357 1.243 1_556 S
C339 C338 1.503 . S
C339 C340 1.394 . S
C339 C344 1.373 . S
C340 C339 1.394 . S
C340 C341 1.380 . S
C340 H368 0.930 . S
C341 C340 1.380 . S
C341 C342 1.376 . S
C341 H369 0.930 . S
C342 C341 1.376 . S
C342 C343 1.370 . S
C343 C342 1.370 . S
C343 C344 1.396 . S
C343 H370 0.929 1_556 S
C344 C339 1.373 . S
C344 C343 1.396 . S
C344 H371 0.929 1_556 S
C345 O358 1.240 . S
C345 O359 1.289 . S
C346 O360 1.258 1_554 S
C346 O361 1.256 . S
C347 La337 2.928 . S
C347 C348 1.503 . S
C347 O362 1.261 . S
C347 O363 1.243 . S
C348 C347 1.503 . S
C348 C349 1.394 . S
C348 C353 1.373 . S
C349 C348 1.394 . S
C349 C350 1.380 . S
C349 H372 0.930 . S
C350 C349 1.380 . S
C350 C351 1.376 . S
C350 H373 0.930 . S
C351 C350 1.376 . S
C351 C352 1.370 1_545 S
C352 C351 1.370 1_565 S
C352 C353 1.396 1_565 S
C352 H374 0.929 . S
C353 C348 1.373 . S
C353 C352 1.396 1_545 S
C353 H375 0.929 1_545 S
C354 O364 1.240 . S
C354 O365 1.289 . S
C355 O366 1.258 1_565 S
C355 O367 1.256 . S
O356 La336 2.521 1_655 S
O356 C338 1.261 . S
O357 La336 2.628 1_654 S
O357 C338 1.243 1_554 S
O358 La336 2.554 . S
O358 C345 1.240 . S
O359 La336 2.757 . S
O359 La337 2.482 1_556 S
O359 C345 1.289 . S
O360 La336 2.470 . S
O360 C346 1.258 1_556 S
O361 La337 2.503 . S
O361 C346 1.256 . S
O362 La337 2.521 . S
O362 C347 1.261 . S
O363 La337 2.628 . S
O363 C347 1.243 . S
O364 La337 2.554 . S
O364 C354 1.240 . S
O365 La336 2.482 1_554 S
O365 La337 2.757 . S
O365 C354 1.289 . S
O366 La337 2.470 . S
O366 C355 1.258 1_545 S
O367 La336 2.503 1_564 S
O367 C355 1.256 . S
H368 C340 0.930 . S
H369 C341 0.930 . S
H370 C343 0.929 1_554 S
H371 C344 0.929 1_554 S
H372 C349 0.930 . S
H373 C350 0.930 . S
H374 C352 0.929 . S
H375 C353 0.929 1_565 S
La376 C378 2.928 . S
La376 O396 2.521 . S
La376 O397 2.628 . S
La376 O398 2.554 . S
La376 O399 2.757 . S
La376 O400 2.470 . S
La376 O405 2.482 . S
La376 O407 2.503 . S
La377 C387 2.928 . S
La377 O399 2.482 . S
La377 O401 2.503 . S
La377 O402 2.521 . S
La377 O403 2.628 . S
La377 O404 2.554 . S
La377 O405 2.757 . S
La377 O406 2.470 . S
C378 La376 2.928 . S
C378 C379 1.503 . S
C378 O396 1.261 . S
C378 O397 1.243 . S
C379 C378 1.503 . S
C379 C380 1.394 . S
C379 C384 1.373 . S
C380 C379 1.394 . S
C380 C381 1.380 . S
C380 H408 0.930 . S
C381 C380 1.380 . S
C381 C382 1.376 . S
C381 H409 0.930 . S
C382 C381 1.376 . S
C382 C383 1.370 . S
C383 C382 1.370 . S
C383 C384 1.396 . S
C383 H410 0.929 . S
C384 C379 1.373 . S
C384 C383 1.396 . S
C384 H411 0.929 . S
C385 O398 1.240 . S
C385 O399 1.289 . S
C386 O400 1.258 . S
C386 O401 1.256 . S
C387 La377 2.928 . S
C387 C388 1.503 . S
C387 O402 1.261 . S
C387 O403 1.243 . S
C388 C387 1.503 . S
C388 C389 1.394 . S
C388 C393 1.373 . S
C389 C388 1.394 . S
C389 C390 1.380 . S
C389 H412 0.930 . S
C390 C389 1.380 . S
C390 C391 1.376 . S
C390 H413 0.930 . S
C391 C390 1.376 . S
C391 C392 1.370 . S
C392 C391 1.370 . S
C392 C393 1.396 . S
C392 H414 0.929 . S
C393 C388 1.373 . S
C393 C392 1.396 . S
C393 H415 0.929 . S
C394 O404 1.240 . S
C394 O405 1.289 . S
C395 O406 1.258 . S
C395 O407 1.256 . S
O396 La376 2.521 . S
O396 C378 1.261 . S
O397 La376 2.628 . S
O397 C378 1.243 . S
O398 La376 2.554 . S
O398 C385 1.240 . S
O399 La376 2.757 . S
O399 La377 2.482 . S
O399 C385 1.289 . S
O400 La376 2.470 . S
O400 C386 1.258 . S
O401 La377 2.503 . S
O401 C386 1.256 . S
O402 La377 2.521 . S
O402 C387 1.261 . S
O403 La377 2.628 . S
O403 C387 1.243 . S
O404 La377 2.554 . S
O404 C394 1.240 . S
O405 La376 2.482 . S
O405 La377 2.757 . S
O405 C394 1.289 . S
O406 La377 2.470 . S
O406 C395 1.258 . S
O407 La376 2.503 . S
O407 C395 1.256 . S
H408 C380 0.930 . S
H409 C381 0.930 . S
H410 C383 0.929 . S
H411 C384 0.929 . S
H412 C389 0.930 . S
H413 C390 0.930 . S
H414 C392 0.929 . S
H415 C393 0.929 . S
La416 C418 2.928 . S
La416 O436 2.521 . S
La416 O437 2.628 . S
La416 O438 2.554 . S
La416 O439 2.757 . S
La416 O440 2.470 1_545 S
La416 O445 2.482 . S
La416 O447 2.503 . S
La417 C427 2.928 . S
La417 O439 2.482 . S
La417 O441 2.503 1_545 S
La417 O442 2.521 . S
La417 O443 2.628 . S
La417 O444 2.554 . S
La417 O445 2.757 . S
La417 O446 2.470 . S
C418 La416 2.928 . S
C418 C419 1.503 1_545 S
C418 O436 1.261 . S
C418 O437 1.243 . S
C419 C418 1.503 1_565 S
C419 C420 1.394 . S
C419 C424 1.373 . S
C420 C419 1.394 . S
C420 C421 1.380 . S
C420 H448 0.930 1_565 S
C421 C420 1.380 . S
C421 C422 1.376 . S
C421 H449 0.930 . S
C422 C421 1.376 . S
C422 C423 1.370 . S
C423 C422 1.370 . S
C423 C424 1.396 . S
C423 H450 0.929 . S
C424 C419 1.373 . S
C424 C423 1.396 . S
C424 H451 0.929 . S
C425 O438 1.240 . S
C425 O439 1.289 . S
C426 O440 1.258 . S
C426 O441 1.256 . S
C427 La417 2.928 . S
C427 C428 1.503 . S
C427 O442 1.261 . S
C427 O443 1.243 . S
C428 C427 1.503 . S
C428 C429 1.394 . S
C428 C433 1.373 . S
C429 C428 1.394 . S
C429 C430 1.380 . S
C429 H452 0.930 . S
C430 C429 1.380 . S
C430 C431 1.376 . S
C430 H453 0.930 . S
C431 C430 1.376 . S
C431 C432 1.370 . S
C432 C431 1.370 . S
C432 C433 1.396 . S
C432 H454 0.929 . S
C433 C428 1.373 . S
C433 C432 1.396 . S
C433 H455 0.929 . S
C434 O444 1.240 . S
C434 O445 1.289 . S
C435 O446 1.258 . S
C435 O447 1.256 . S
O436 La416 2.521 . S
O436 C418 1.261 . S
O437 La416 2.628 . S
O437 C418 1.243 . S
O438 La416 2.554 . S
O438 C425 1.240 . S
O439 La416 2.757 . S
O439 La417 2.482 . S
O439 C425 1.289 . S
O440 La416 2.470 1_565 S
O440 C426 1.258 . S
O441 La417 2.503 1_565 S
O441 C426 1.256 . S
O442 La417 2.521 . S
O442 C427 1.261 . S
O443 La417 2.628 . S
O443 C427 1.243 . S
O444 La417 2.554 . S
O444 C434 1.240 . S
O445 La416 2.482 . S
O445 La417 2.757 . S
O445 C434 1.289 . S
O446 La417 2.470 . S
O446 C435 1.258 . S
O447 La416 2.503 . S
O447 C435 1.256 . S
H448 C420 0.930 1_545 S
H449 C421 0.930 . S
H450 C423 0.929 . S
H451 C424 0.929 . S
H452 C429 0.930 . S
H453 C430 0.930 . S
H454 C432 0.929 . S
H455 C433 0.929 . S
La456 C458 2.928 . S
La456 O476 2.521 . S
La456 O477 2.628 . S
La456 O478 2.554 . S
La456 O479 2.757 . S
La456 O480 2.470 . S
La456 O485 2.482 . S
La456 O487 2.503 . S
La457 C467 2.928 . S
La457 O479 2.482 . S
La457 O481 2.503 . S
La457 O482 2.521 . S
La457 O483 2.628 . S
La457 O484 2.554 . S
La457 O485 2.757 . S
La457 O486 2.470 . S
C458 La456 2.928 . S
C458 C459 1.503 . S
C458 O476 1.261 . S
C458 O477 1.243 . S
C459 C458 1.503 . S
C459 C460 1.394 . S
C459 C464 1.373 . S
C460 C459 1.394 . S
C460 C461 1.380 . S
C460 H488 0.930 . S
C461 C460 1.380 . S
C461 C462 1.376 . S
C461 H489 0.930 . S
C462 C461 1.376 . S
C462 C463 1.370 . S
C463 C462 1.370 . S
C463 C464 1.396 . S
C463 H490 0.929 . S
C464 C459 1.373 . S
C464 C463 1.396 . S
C464 H491 0.929 . S
C465 O478 1.240 . S
C465 O479 1.289 . S
C466 O480 1.258 . S
C466 O481 1.256 . S
C467 La457 2.928 . S
C467 C468 1.503 . S
C467 O482 1.261 . S
C467 O483 1.243 . S
C468 C467 1.503 . S
C468 C469 1.394 . S
C468 C473 1.373 . S
C469 C468 1.394 . S
C469 C470 1.380 . S
C469 H492 0.930 . S
C470 C469 1.380 . S
C470 C471 1.376 . S
C470 H493 0.930 . S
C471 C470 1.376 . S
C471 C472 1.370 . S
C472 C471 1.370 . S
C472 C473 1.396 . S
C472 H494 0.929 . S
C473 C468 1.373 . S
C473 C472 1.396 . S
C473 H495 0.929 . S
C474 O484 1.240 . S
C474 O485 1.289 . S
C475 O486 1.258 . S
C475 O487 1.256 . S
O476 La456 2.521 . S
O476 C458 1.261 . S
O477 La456 2.628 . S
O477 C458 1.243 . S
O478 La456 2.554 . S
O478 C465 1.240 . S
O479 La456 2.757 . S
O479 La457 2.482 . S
O479 C465 1.289 . S
O480 La456 2.470 . S
O480 C466 1.258 . S
O481 La457 2.503 . S
O481 C466 1.256 . S
O482 La457 2.521 . S
O482 C467 1.261 . S
O483 La457 2.628 . S
O483 C467 1.243 . S
O484 La457 2.554 . S
O484 C474 1.240 . S
O485 La456 2.482 . S
O485 La457 2.757 . S
O485 C474 1.289 . S
O486 La457 2.470 . S
O486 C475 1.258 . S
O487 La456 2.503 . S
O487 C475 1.256 . S
H488 C460 0.930 . S
H489 C461 0.930 . S
H490 C463 0.929 . S
H491 C464 0.929 . S
H492 C469 0.930 . S
H493 C470 0.930 . S
H494 C472 0.929 . S
H495 C473 0.929 . S
La496 C498 2.928 . S
La496 O516 2.521 . S
La496 O517 2.628 . S
La496 O518 2.554 1_455 S
La496 O519 2.757 . S
La496 O520 2.470 . S
La496 O525 2.482 . S
La496 O527 2.503 . S
La497 C507 2.975 . S
La497 O519 2.454 1_565 S
La497 O521 2.472 1_565 S
La497 O522 2.567 . S
La497 O523 2.666 . S
La497 O524 2.540 1_565 S
La497 O525 2.711 1_565 S
La497 O526 2.463 1_565 S
C498 La496 2.928 . S
C498 C499 1.503 . S
C498 O516 1.261 . S
C498 O517 1.243 . S
C499 C498 1.503 . S
C499 C500 1.394 . S
C499 C504 1.373 . S
C500 C499 1.394 . S
C500 C501 1.380 . S
C500 H528 0.930 . S
C501 C500 1.380 . S
C501 C502 1.376 . S
C501 H529 0.915 1_455 S
C502 C501 1.376 . S
C502 C503 1.370 . S
C503 C502 1.370 . S
C503 C504 1.396 . S
C503 H530 0.929 . S
C504 C499 1.373 . S
C504 C503 1.396 . S
C504 H531 0.929 . S
C505 O518 1.242 . S
C505 O519 1.285 1_655 S
C506 O520 1.258 . S
C506 O521 1.256 . S
C507 La497 2.975 . S
C507 C508 1.503 . S
C507 O522 1.261 . S
C507 O523 1.243 . S
C508 C507 1.503 . S
C508 C509 1.394 . S
C508 C513 1.373 . S
C509 C508 1.394 . S
C509 C510 1.380 . S
C509 H532 0.930 . S
C510 C509 1.380 . S
C510 C511 1.376 . S
C510 H533 0.930 . S
C511 C510 1.376 . S
C511 C512 1.370 . S
C512 C511 1.370 . S
C512 C513 1.396 . S
C512 H534 0.929 . S
C513 C508 1.373 . S
C513 C512 1.396 . S
C513 H535 0.929 . S
C514 O524 1.240 . S
C514 O525 1.289 . S
C515 O526 1.258 . S
C515 O527 1.256 . S
O516 La496 2.521 . S
O516 C498 1.261 . S
O517 La496 2.628 . S
O517 C498 1.243 . S
O518 La496 2.554 1_655 S
O518 C505 1.242 . S
O519 La496 2.757 . S
O519 La497 2.454 1_545 S
O519 C505 1.285 1_455 S
O520 La496 2.470 . S
O520 C506 1.258 . S
O521 La497 2.472 1_545 S
O521 C506 1.256 . S
O522 La497 2.567 . S
O522 C507 1.261 . S
O523 La497 2.666 . S
O523 C507 1.243 . S
O524 La497 2.540 1_545 S
O524 C514 1.240 . S
O525 La496 2.482 . S
O525 La497 2.711 1_545 S
O525 C514 1.289 . S
O526 La497 2.463 1_545 S
O526 C515 1.258 . S
O527 La496 2.503 . S
O527 C515 1.256 . S
H528 C500 0.930 . S
H529 C501 0.915 1_655 S
H530 C503 0.929 . S
H531 C504 0.929 . S
H532 C509 0.930 . S
H533 C510 0.930 . S
H534 C512 0.929 . S
H535 C513 0.929 . S
La536 C538 2.928 . S
La536 O556 2.521 . S
La536 O557 2.628 . S
La536 O558 2.554 . S
La536 O559 2.757 . S
La536 O560 2.470 . S
La536 O565 2.482 . S
La536 O567 2.503 . S
La537 C547 2.928 . S
La537 O559 2.482 . S
La537 O561 2.503 . S
La537 O562 2.521 . S
La537 O563 2.628 . S
La537 O564 2.554 . S
La537 O565 2.757 . S
La537 O566 2.470 . S
C538 La536 2.928 . S
C538 C539 1.503 . S
C538 O556 1.261 . S
C538 O557 1.243 . S
C539 C538 1.503 . S
C539 C540 1.394 . S
C539 C544 1.373 . S
C540 C539 1.394 . S
C540 C541 1.380 . S
C540 H568 0.930 . S
C541 C540 1.380 . S
C541 C542 1.376 . S
C541 H569 0.930 . S
C542 C541 1.376 . S
C542 C543 1.370 . S
C543 C542 1.370 . S
C543 C544 1.396 . S
C543 H570 0.929 . S
C544 C539 1.373 . S
C544 C543 1.396 . S
C544 H571 0.929 . S
C545 O558 1.240 . S
C545 O559 1.289 . S
C546 O560 1.258 . S
C546 O561 1.256 . S
C547 La537 2.928 . S
C547 C548 1.503 . S
C547 O562 1.261 . S
C547 O563 1.243 . S
C548 C547 1.503 . S
C548 C549 1.394 . S
C548 C553 1.373 . S
C549 C548 1.394 . S
C549 C550 1.380 . S
C549 H572 0.930 . S
C550 C549 1.380 . S
C550 C551 1.376 . S
C550 H573 0.930 . S
C551 C550 1.376 . S
C551 C552 1.370 . S
C552 C551 1.370 . S
C552 C553 1.396 . S
C552 H574 0.929 . S
C553 C548 1.373 . S
C553 C552 1.396 . S
C553 H575 0.929 . S
C554 O564 1.240 . S
C554 O565 1.289 . S
C555 O566 1.258 . S
C555 O567 1.256 . S
O556 La536 2.521 . S
O556 C538 1.261 . S
O557 La536 2.628 . S
O557 C538 1.243 . S
O558 La536 2.554 . S
O558 C545 1.240 . S
O559 La536 2.757 . S
O559 La537 2.482 . S
O559 C545 1.289 . S
O560 La536 2.470 . S
O560 C546 1.258 . S
O561 La537 2.503 . S
O561 C546 1.256 . S
O562 La537 2.521 . S
O562 C547 1.261 . S
O563 La537 2.628 . S
O563 C547 1.243 . S
O564 La537 2.554 . S
O564 C554 1.240 . S
O565 La536 2.482 . S
O565 La537 2.757 . S
O565 C554 1.289 . S
O566 La537 2.470 . S
O566 C555 1.258 . S
O567 La536 2.503 . S
O567 C555 1.256 . S
H568 C540 0.930 . S
H569 C541 0.930 . S
H570 C543 0.929 . S
H571 C544 0.929 . S
H572 C549 0.930 . S
H573 C550 0.930 . S
H574 C552 0.929 . S
H575 C553 0.929 . S
La576 C578 2.928 . S
La576 O596 2.521 1_545 S
La576 O597 2.628 . S
La576 O598 2.554 1_545 S
La576 O599 2.757 1_554 S
La576 O600 2.471 . S
La576 O605 2.482 . S
La576 O607 2.503 . S
La577 C587 2.928 . S
La577 O599 2.482 . S
La577 O601 2.503 . S
La577 O602 2.521 . S
La577 O603 2.628 . S
La577 O604 2.554 1_556 S
La577 O605 2.757 1_556 S
La577 O606 2.455 1_556 S
C578 La576 2.928 . S
C578 C579 1.503 1_545 S
C578 O596 1.261 1_545 S
C578 O597 1.243 . S
C579 C578 1.503 1_565 S
C579 C580 1.394 . S
C579 C584 1.373 1_565 S
C580 C579 1.394 . S
C580 C581 1.380 . S
C580 H608 0.930 . S
C581 C580 1.380 . S
C581 C582 1.376 . S
C581 H609 0.930 . S
C582 C581 1.376 . S
C582 C583 1.370 1_565 S
C583 C582 1.370 1_545 S
C583 C584 1.396 . S
C583 H610 0.929 . S
C584 C579 1.373 1_545 S
C584 C583 1.396 . S
C584 H611 0.929 . S
C585 O598 1.240 1_556 S
C585 O599 1.289 1_565 S
C586 O600 1.263 . S
C586 O601 1.256 1_554 S
C587 La577 2.928 . S
C587 C588 1.503 . S
C587 O602 1.261 . S
C587 O603 1.243 . S
C588 C587 1.503 . S
C588 C589 1.394 . S
C588 C593 1.373 . S
C589 C588 1.394 . S
C589 C590 1.380 . S
C589 H612 0.930 . S
C590 C589 1.380 . S
C590 C591 1.376 . S
C590 H613 0.930 . S
C591 C590 1.376 . S
C591 C592 1.370 . S
C592 C591 1.370 . S
C592 C593 1.396 . S
C592 H614 0.929 . S
C593 C588 1.373 . S
C593 C592 1.396 . S
C593 H615 0.929 . S
C594 O604 1.240 . S
C594 O605 1.289 . S
C595 O606 1.289 . S
C595 O607 1.256 . S
O596 La576 2.521 1_565 S
O596 C578 1.261 1_565 S
O597 La576 2.628 . S
O597 C578 1.243 . S
O598 La576 2.554 1_565 S
O598 C585 1.240 1_554 S
O599 La576 2.757 1_556 S
O599 La577 2.482 . S
O599 C585 1.289 1_545 S
O600 La576 2.471 . S
O600 C586 1.263 . S
O601 La577 2.503 . S
O601 C586 1.256 1_556 S
O602 La577 2.521 . S
O602 C587 1.261 . S
O603 La577 2.628 . S
O603 C587 1.243 . S
O604 La577 2.554 1_554 S
O604 C594 1.240 . S
O605 La576 2.482 . S
O605 La577 2.757 1_554 S
O605 C594 1.289 . S
O606 La577 2.455 1_554 S
O606 C595 1.289 . S
O607 La576 2.503 . S
O607 C595 1.256 . S
H608 C580 0.930 . S
H609 C581 0.930 . S
H610 C583 0.929 . S
H611 C584 0.929 . S
H612 C589 0.930 . S
H613 C590 0.930 . S
H614 C592 0.929 . S
H615 C593 0.929 . S
La616 C618 2.928 . S
La616 O636 2.521 . S
La616 O637 2.628 . S
La616 O638 2.554 . S
La616 O639 2.757 . S
La616 O640 2.470 . S
La616 O645 2.482 . S
La616 O647 2.503 . S
La617 C627 2.928 . S
La617 O639 2.482 . S
La617 O641 2.503 . S
La617 O642 2.521 . S
La617 O643 2.628 . S
La617 O644 2.554 . S
La617 O645 2.757 . S
La617 O646 2.470 . S
C618 La616 2.928 . S
C618 C619 1.503 . S
C618 O636 1.261 . S
C618 O637 1.243 . S
C619 C618 1.503 . S
C619 C620 1.394 . S
C619 C624 1.373 . S
C620 C619 1.394 . S
C620 C621 1.380 . S
C620 H648 0.930 . S
C621 C620 1.380 . S
C621 C622 1.376 . S
C621 H649 0.930 . S
C622 C621 1.376 . S
C622 C623 1.370 . S
C623 C622 1.370 . S
C623 C624 1.396 . S
C623 H650 0.929 . S
C624 C619 1.373 . S
C624 C623 1.396 . S
C624 H651 0.929 . S
C625 O638 1.240 . S
C625 O639 1.289 . S
C626 O640 1.258 . S
C626 O641 1.256 . S
C627 La617 2.928 . S
C627 C628 1.503 . S
C627 O642 1.261 . S
C627 O643 1.243 . S
C628 C627 1.503 . S
C628 C629 1.394 . S
C628 C633 1.373 . S
C629 C628 1.394 . S
C629 C630 1.380 . S
C629 H652 0.930 . S
C630 C629 1.380 . S
C630 C631 1.376 . S
C630 H653 0.930 . S
C631 C630 1.376 . S
C631 C632 1.370 . S
C632 C631 1.370 . S
C632 C633 1.396 . S
C632 H654 0.929 . S
C633 C628 1.373 . S
C633 C632 1.396 . S
C633 H655 0.929 . S
C634 O644 1.240 . S
C634 O645 1.289 . S
C635 O646 1.258 . S
C635 O647 1.256 . S
O636 La616 2.521 . S
O636 C618 1.261 . S
O637 La616 2.628 . S
O637 C618 1.243 . S
O638 La616 2.554 . S
O638 C625 1.240 . S
O639 La616 2.757 . S
O639 La617 2.482 . S
O639 C625 1.289 . S
O640 La616 2.470 . S
O640 C626 1.258 . S
O641 La617 2.503 . S
O641 C626 1.256 . S
O642 La617 2.521 . S
O642 C627 1.261 . S
O643 La617 2.628 . S
O643 C627 1.243 . S
O644 La617 2.554 . S
O644 C634 1.240 . S
O645 La616 2.482 . S
O645 La617 2.757 . S
O645 C634 1.289 . S
O646 La617 2.470 . S
O646 C635 1.258 . S
O647 La616 2.503 . S
O647 C635 1.256 . S
H648 C620 0.930 . S
H649 C621 0.930 . S
H650 C623 0.929 . S
H651 C624 0.929 . S
H652 C629 0.930 . S
H653 C630 0.930 . S
H654 C632 0.929 . S
H655 C633 0.929 . S
La656 C658 2.928 . S
La656 O676 2.521 . S
La656 O677 2.625 1_554 S
La656 O678 2.554 . S
La656 O679 2.757 . S
La656 O680 2.470 1_554 S
La656 O685 2.482 . S
La656 O687 2.503 . S
La657 C667 2.928 . S
La657 O679 2.482 . S
La657 O681 2.503 1_554 S
La657 O682 2.521 . S
La657 O683 2.628 . S
La657 O684 2.554 . S
La657 O685 2.757 . S
La657 O686 2.470 . S
C658 La656 2.928 . S
C658 C659 1.503 1_554 S
C658 O676 1.261 . S
C658 O677 1.242 1_554 S
C659 C658 1.503 1_556 S
C659 C660 1.394 . S
C659 C664 1.373 . S
C660 C659 1.394 . S
C660 C661 1.380 . S
C660 H688 0.930 1_556 S
C661 C660 1.380 . S
C661 C662 1.376 . S
C661 H689 0.930 . S
C662 C661 1.376 . S
C662 C663 1.370 . S
C663 C662 1.370 . S
C663 C664 1.396 . S
C663 H690 0.929 . S
C664 C659 1.373 . S
C664 C663 1.396 . S
C664 H691 0.929 . S
C665 O678 1.240 . S
C665 O679 1.289 . S
C666 O680 1.258 . S
C666 O681 1.256 . S
C667 La657 2.928 . S
C667 C668 1.503 . S
C667 O682 1.261 . S
C667 O683 1.243 . S
C668 C667 1.503 . S
C668 C669 1.394 . S
C668 C673 1.373 . S
C669 C668 1.394 . S
C669 C670 1.380 . S
C669 H692 0.930 . S
C670 C669 1.380 . S
C670 C671 1.376 . S
C670 H693 0.930 . S
C671 C670 1.376 . S
C671 C672 1.370 . S
C672 C671 1.370 . S
C672 C673 1.396 . S
C672 H694 0.929 . S
C673 C668 1.373 . S
C673 C672 1.396 . S
C673 H695 0.929 . S
C674 O684 1.240 . S
C674 O685 1.289 . S
C675 O686 1.258 . S
C675 O687 1.256 . S
O676 La656 2.521 . S
O676 C658 1.261 . S
O677 La656 2.625 1_556 S
O677 C658 1.242 1_556 S
O678 La656 2.554 . S
O678 C665 1.240 . S
O679 La656 2.757 . S
O679 La657 2.482 . S
O679 C665 1.289 . S
O680 La656 2.470 1_556 S
O680 C666 1.258 . S
O681 La657 2.503 1_556 S
O681 C666 1.256 . S
O682 La657 2.521 . S
O682 C667 1.261 . S
O683 La657 2.628 . S
O683 C667 1.243 . S
O684 La657 2.554 . S
O684 C674 1.240 . S
O685 La656 2.482 . S
O685 La657 2.757 . S
O685 C674 1.289 . S
O686 La657 2.470 . S
O686 C675 1.258 . S
O687 La656 2.503 . S
O687 C675 1.256 . S
H688 C660 0.930 1_554 S
H689 C661 0.930 . S
H690 C663 0.929 . S
H691 C664 0.929 . S
H692 C669 0.930 . S
H693 C670 0.930 . S
H694 C672 0.929 . S
H695 C673 0.929 . S
La696 C698 2.928 . S
La696 O716 2.521 . S
La696 O717 2.628 . S
La696 O718 2.554 . S
La696 O719 2.757 . S
La696 O720 2.470 . S
La696 O725 2.482 . S
La696 O727 2.503 . S
La697 C707 2.928 . S
La697 O719 2.482 . S
La697 O721 2.503 . S
La697 O722 2.521 . S
La697 O723 2.628 . S
La697 O724 2.554 . S
La697 O725 2.757 . S
La697 O726 2.470 . S
C698 La696 2.928 . S
C698 C699 1.503 . S
C698 O716 1.261 . S
C698 O717 1.243 . S
C699 C698 1.503 . S
C699 C700 1.394 . S
C699 C704 1.373 . S
C700 C699 1.394 . S
C700 C701 1.380 . S
C700 H728 0.930 . S
C701 C700 1.380 . S
C701 C702 1.376 . S
C701 H729 0.930 . S
C702 C701 1.376 . S
C702 C703 1.370 . S
C703 C702 1.370 . S
C703 C704 1.396 . S
C703 H730 0.929 . S
C704 C699 1.373 . S
C704 C703 1.396 . S
C704 H731 0.929 . S
C705 O718 1.240 . S
C705 O719 1.289 . S
C706 O720 1.258 . S
C706 O721 1.256 . S
C707 La697 2.928 . S
C707 C708 1.503 . S
C707 O722 1.261 . S
C707 O723 1.243 . S
C708 C707 1.503 . S
C708 C709 1.394 . S
C708 C713 1.373 . S
C709 C708 1.394 . S
C709 C710 1.380 . S
C709 H732 0.930 . S
C710 C709 1.380 . S
C710 C711 1.376 . S
C710 H733 0.930 . S
C711 C710 1.376 . S
C711 C712 1.370 . S
C712 C711 1.370 . S
C712 C713 1.396 . S
C712 H734 0.929 . S
C713 C708 1.373 . S
C713 C712 1.396 . S
C713 H735 0.929 . S
C714 O724 1.240 . S
C714 O725 1.289 . S
C715 O726 1.258 . S
C715 O727 1.256 . S
O716 La696 2.521 . S
O716 C698 1.261 . S
O717 La696 2.628 . S
O717 C698 1.243 . S
O718 La696 2.554 . S
O718 C705 1.240 . S
O719 La696 2.757 . S
O719 La697 2.482 . S
O719 C705 1.289 . S
O720 La696 2.470 . S
O720 C706 1.258 . S
O721 La697 2.503 . S
O721 C706 1.256 . S
O722 La697 2.521 . S
O722 C707 1.261 . S
O723 La697 2.628 . S
O723 C707 1.243 . S
O724 La697 2.554 . S
O724 C714 1.240 . S
O725 La696 2.482 . S
O725 La697 2.757 . S
O725 C714 1.289 . S
O726 La697 2.470 . S
O726 C715 1.258 . S
O727 La696 2.503 . S
O727 C715 1.256 . S
H728 C700 0.930 . S
H729 C701 0.930 . S
H730 C703 0.929 . S
H731 C704 0.929 . S
H732 C709 0.930 . S
H733 C710 0.930 . S
H734 C712 0.929 . S
H735 C713 0.929 . S
La736 C738 2.928 . S
La736 O756 2.521 . S
La736 O757 2.628 . S
La736 O758 2.554 . S
La736 O759 2.757 . S
La736 O760 2.470 . S
La736 O765 2.482 . S
La736 O767 2.503 . S
La737 C747 2.928 . S
La737 O759 2.482 . S
La737 O761 2.503 . S
La737 O762 2.521 . S
La737 O763 2.628 . S
La737 O764 2.554 . S
La737 O765 2.757 . S
La737 O766 2.470 . S
C738 La736 2.928 . S
C738 C739 1.503 . S
C738 O756 1.261 . S
C738 O757 1.243 . S
C739 C738 1.503 . S
C739 C740 1.394 . S
C739 C744 1.373 1_455 S
C740 C739 1.394 . S
C740 C741 1.380 . S
C740 H768 0.930 . S
C741 C740 1.380 . S
C741 C742 1.376 1_455 S
C741 H769 0.930 . S
C742 C741 1.376 1_655 S
C742 C743 1.370 . S
C743 C742 1.370 . S
C743 C744 1.396 . S
C743 H770 0.929 . S
C744 C739 1.373 1_655 S
C744 C743 1.396 . S
C744 H771 0.929 . S
C745 O758 1.240 . S
C745 O759 1.289 . S
C746 O760 1.289 . S
C746 O761 1.264 . S
C747 La737 2.928 . S
C747 C748 1.503 . S
C747 O762 1.261 . S
C747 O763 1.243 . S
C748 C747 1.503 . S
C748 C749 1.394 . S
C748 C753 1.373 . S
C749 C748 1.394 . S
C749 C750 1.380 . S
C749 H772 0.930 . S
C750 C749 1.380 . S
C750 C751 1.376 . S
C750 H773 0.930 . S
C751 C750 1.376 . S
C751 C752 1.370 . S
C752 C751 1.370 . S
C752 C753 1.396 . S
C752 H774 0.929 . S
C753 C748 1.373 . S
C753 C752 1.396 . S
C753 H775 0.929 . S
C754 O764 1.240 . S
C754 O765 1.289 . S
C755 O766 1.258 . S
C755 O767 1.256 . S
O756 La736 2.521 . S
O756 C738 1.261 . S
O757 La736 2.628 . S
O757 C738 1.243 . S
O758 La736 2.554 . S
O758 C745 1.240 . S
O759 La736 2.757 . S
O759 La737 2.482 . S
O759 C745 1.289 . S
O760 La736 2.470 . S
O760 C746 1.289 . S
O761 La737 2.503 . S
O761 C746 1.264 . S
O762 La737 2.521 . S
O762 C747 1.261 . S
O763 La737 2.628 . S
O763 C747 1.243 . S
O764 La737 2.554 . S
O764 C754 1.240 . S
O765 La736 2.482 . S
O765 La737 2.757 . S
O765 C754 1.289 . S
O766 La737 2.470 . S
O766 C755 1.258 . S
O767 La736 2.503 . S
O767 C755 1.256 . S
H768 C740 0.930 . S
H769 C741 0.930 . S
H770 C743 0.929 . S
H771 C744 0.929 . S
H772 C749 0.930 . S
H773 C750 0.930 . S
H774 C752 0.929 . S
H775 C753 0.929 . S
La776 C778 2.928 . S
La776 O796 2.521 . S
La776 O797 2.628 . S
La776 O798 2.554 . S
La776 O799 2.757 . S
La776 O800 2.470 . S
La776 O805 2.482 . S
La776 O807 2.503 . S
La777 C787 2.928 . S
La777 O799 2.482 . S
La777 O801 2.503 . S
La777 O802 2.521 . S
La777 O803 2.628 . S
La777 O804 2.554 . S
La777 O805 2.757 . S
La777 O806 2.470 . S
C778 La776 2.928 . S
C778 C779 1.503 . S
C778 O796 1.261 . S
C778 O797 1.243 . S
C779 C778 1.503 . S
C779 C780 1.394 . S
C779 C784 1.373 . S
C780 C779 1.394 . S
C780 C781 1.380 . S
C780 H808 0.930 . S
C781 C780 1.380 . S
C781 C782 1.376 . S
C781 H809 0.930 . S
C782 C781 1.376 . S
C782 C783 1.370 . S
C783 C782 1.370 . S
C783 C784 1.396 . S
C783 H810 0.929 . S
C784 C779 1.373 . S
C784 C783 1.396 . S
C784 H811 0.929 . S
C785 O798 1.240 . S
C785 O799 1.289 . S
C786 O800 1.258 . S
C786 O801 1.256 . S
C787 La777 2.928 . S
C787 C788 1.503 . S
C787 O802 1.261 . S
C787 O803 1.243 . S
C788 C787 1.503 . S
C788 C789 1.394 . S
C788 C793 1.373 . S
C789 C788 1.394 . S
C789 C790 1.380 . S
C789 H812 0.930 . S
C790 C789 1.380 . S
C790 C791 1.376 . S
C790 H813 0.930 . S
C791 C790 1.376 . S
C791 C792 1.370 . S
C792 C791 1.370 . S
C792 C793 1.396 . S
C792 H814 0.929 . S
C793 C788 1.373 . S
C793 C792 1.396 . S
C793 H815 0.929 . S
C794 O804 1.240 . S
C794 O805 1.289 . S
C795 O806 1.258 . S
C795 O807 1.256 . S
O796 La776 2.521 . S
O796 C778 1.261 . S
O797 La776 2.628 . S
O797 C778 1.243 . S
O798 La776 2.554 . S
O798 C785 1.240 . S
O799 La776 2.757 . S
O799 La777 2.482 . S
O799 C785 1.289 . S
O800 La776 2.470 . S
O800 C786 1.258 . S
O801 La777 2.503 . S
O801 C786 1.256 . S
O802 La777 2.521 . S
O802 C787 1.261 . S
O803 La777 2.628 . S
O803 C787 1.243 . S
O804 La777 2.554 . S
O804 C794 1.240 . S
O805 La776 2.482 . S
O805 La777 2.757 . S
O805 C794 1.289 . S
O806 La777 2.470 . S
O806 C795 1.258 . S
O807 La776 2.503 . S
O807 C795 1.256 . S
H808 C780 0.930 . S
H809 C781 0.930 . S
H810 C783 0.929 . S
H811 C784 0.929 . S
H812 C789 0.930 . S
H813 C790 0.930 . S
H814 C792 0.929 . S
H815 C793 0.929 . S
La816 C818 2.928 . S
La816 O836 2.521 . S
La816 O837 2.628 . S
La816 O838 2.554 . S
La816 O839 2.757 . S
La816 O840 2.470 . S
La816 O845 2.482 . S
La816 O847 2.503 . S
La817 C827 2.928 . S
La817 O839 2.482 . S
La817 O841 2.503 . S
La817 O842 2.521 . S
La817 O843 2.628 . S
La817 O844 2.554 . S
La817 O845 2.757 . S
La817 O846 2.470 . S
C818 La816 2.928 . S
C818 C819 1.503 . S
C818 O836 1.261 . S
C818 O837 1.243 . S
C819 C818 1.503 . S
C819 C820 1.394 . S
C819 C824 1.373 . S
C820 C819 1.394 . S
C820 C821 1.380 . S
C820 H848 0.930 . S
C821 C820 1.380 . S
C821 C822 1.376 . S
C821 H849 0.930 . S
C822 C821 1.376 . S
C822 C823 1.370 . S
C823 C822 1.370 . S
C823 C824 1.396 . S
C823 H850 0.929 . S
C824 C819 1.373 . S
C824 C823 1.396 . S
C824 H851 0.929 . S
C825 O838 1.240 . S
C825 O839 1.289 . S
C826 O840 1.258 . S
C826 O841 1.256 . S
C827 La817 2.928 . S
C827 C828 1.503 . S
C827 O842 1.261 . S
C827 O843 1.243 . S
C828 C827 1.503 . S
C828 C829 1.394 . S
C828 C833 1.373 . S
C829 C828 1.394 . S
C829 C830 1.380 . S
C829 H852 0.930 . S
C830 C829 1.380 . S
C830 C831 1.376 . S
C830 H853 0.930 . S
C831 C830 1.376 . S
C831 C832 1.370 . S
C832 C831 1.370 . S
C832 C833 1.396 . S
C832 H854 0.929 . S
C833 C828 1.373 . S
C833 C832 1.396 . S
C833 H855 0.929 . S
C834 O844 1.240 . S
C834 O845 1.289 . S
C835 O846 1.258 . S
C835 O847 1.256 . S
O836 La816 2.521 . S
O836 C818 1.261 . S
O837 La816 2.628 . S
O837 C818 1.243 . S
O838 La816 2.554 . S
O838 C825 1.240 . S
O839 La816 2.757 . S
O839 La817 2.482 . S
O839 C825 1.289 . S
O840 La816 2.470 . S
O840 C826 1.258 . S
O841 La817 2.503 . S
O841 C826 1.256 . S
O842 La817 2.521 . S
O842 C827 1.261 . S
O843 La817 2.628 . S
O843 C827 1.243 . S
O844 La817 2.554 . S
O844 C834 1.240 . S
O845 La816 2.482 . S
O845 La817 2.757 . S
O845 C834 1.289 . S
O846 La817 2.470 . S
O846 C835 1.258 . S
O847 La816 2.503 . S
O847 C835 1.256 . S
H848 C820 0.930 . S
H849 C821 0.930 . S
H850 C823 0.929 . S
H851 C824 0.929 . S
H852 C829 0.930 . S
H853 C830 0.930 . S
H854 C832 0.929 . S
H855 C833 0.929 . S
La856 C858 2.928 . S
La856 O876 2.521 . S
La856 O877 2.628 . S
La856 O878 2.554 . S
La856 O879 2.757 . S
La856 O880 2.470 . S
La856 O885 2.482 . S
La856 O887 2.503 . S
La857 C867 2.928 . S
La857 O879 2.482 . S
La857 O881 2.503 . S
La857 O882 2.521 . S
La857 O883 2.628 . S
La857 O884 2.554 . S
La857 O885 2.757 . S
La857 O886 2.470 . S
C858 La856 2.928 . S
C858 C859 1.503 . S
C858 O876 1.261 . S
C858 O877 1.243 . S
C859 C858 1.503 . S
C859 C860 1.394 . S
C859 C864 1.373 . S
C860 C859 1.394 . S
C860 C861 1.380 . S
C860 H888 0.930 . S
C861 C860 1.380 . S
C861 C862 1.376 . S
C861 H889 0.930 . S
C862 C861 1.376 . S
C862 C863 1.370 . S
C863 C862 1.370 . S
C863 C864 1.396 . S
C863 H890 0.929 . S
C864 C859 1.373 . S
C864 C863 1.396 . S
C864 H891 0.929 . S
C865 O878 1.240 . S
C865 O879 1.289 . S
C866 O880 1.258 . S
C866 O881 1.256 . S
C867 La857 2.928 . S
C867 C868 1.503 . S
C867 O882 1.261 . S
C867 O883 1.243 . S
C868 C867 1.503 . S
C868 C869 1.394 . S
C868 C873 1.373 . S
C869 C868 1.394 . S
C869 C870 1.380 . S
C869 H892 0.930 . S
C870 C869 1.380 . S
C870 C871 1.376 . S
C870 H893 0.930 . S
C871 C870 1.376 . S
C871 C872 1.370 . S
C872 C871 1.370 . S
C872 C873 1.396 . S
C872 H894 0.929 . S
C873 C868 1.373 . S
C873 C872 1.396 . S
C873 H895 0.929 . S
C874 O884 1.240 . S
C874 O885 1.289 . S
C875 O886 1.258 . S
C875 O887 1.256 . S
O876 La856 2.521 . S
O876 C858 1.261 . S
O877 La856 2.628 . S
O877 C858 1.243 . S
O878 La856 2.554 . S
O878 C865 1.240 . S
O879 La856 2.757 . S
O879 La857 2.482 . S
O879 C865 1.289 . S
O880 La856 2.470 . S
O880 C866 1.258 . S
O881 La857 2.503 . S
O881 C866 1.256 . S
O882 La857 2.521 . S
O882 C867 1.261 . S
O883 La857 2.628 . S
O883 C867 1.243 . S
O884 La857 2.554 . S
O884 C874 1.240 . S
O885 La856 2.482 . S
O885 La857 2.757 . S
O885 C874 1.289 . S
O886 La857 2.470 . S
O886 C875 1.258 . S
O887 La856 2.503 . S
O887 C875 1.256 . S
H888 C860 0.930 . S
H889 C861 0.930 . S
H890 C863 0.929 . S
H891 C864 0.929 . S
H892 C869 0.930 . S
H893 C870 0.930 . S
H894 C872 0.929 . S
H895 C873 0.929 . S
La896 C898 2.928 . S
La896 O916 2.521 . S
La896 O917 2.628 . S
La896 O918 2.554 . S
La896 O919 2.757 . S
La896 O920 2.470 . S
La896 O925 2.482 . S
La896 O927 2.503 . S
La897 C907 2.928 . S
La897 O919 2.482 . S
La897 O921 2.503 . S
La897 O922 2.521 . S
La897 O923 2.628 . S
La897 O924 2.554 . S
La897 O925 2.757 . S
La897 O926 2.470 . S
C898 La896 2.928 . S
C898 C899 1.503 . S
C898 O916 1.261 . S
C898 O917 1.243 . S
C899 C898 1.503 . S
C899 C900 1.394 . S
C899 C904 1.373 . S
C900 C899 1.394 . S
C900 C901 1.380 . S
C900 H928 0.930 . S
C901 C900 1.380 . S
C901 C902 1.376 . S
C901 H929 0.930 . S
C902 C901 1.376 . S
C902 C903 1.370 . S
C903 C902 1.370 . S
C903 C904 1.396 . S
C903 H930 0.929 . S
C904 C899 1.373 . S
C904 C903 1.396 . S
C904 H931 0.929 . S
C905 O918 1.240 . S
C905 O919 1.289 . S
C906 O920 1.258 . S
C906 O921 1.256 . S
C907 La897 2.928 . S
C907 C908 1.503 . S
C907 O922 1.261 . S
C907 O923 1.243 . S
C908 C907 1.503 . S
C908 C909 1.394 . S
C908 C913 1.373 . S
C909 C908 1.394 . S
C909 C910 1.380 . S
C909 H932 0.930 . S
C910 C909 1.380 . S
C910 C911 1.376 . S
C910 H933 0.930 . S
C911 C910 1.376 . S
C911 C912 1.370 . S
C912 C911 1.370 . S
C912 C913 1.396 . S
C912 H934 0.929 . S
C913 C908 1.373 . S
C913 C912 1.396 . S
C913 H935 0.929 . S
C914 O924 1.240 . S
C914 O925 1.289 . S
C915 O926 1.258 . S
C915 O927 1.256 . S
O916 La896 2.521 . S
O916 C898 1.261 . S
O917 La896 2.628 . S
O917 C898 1.243 . S
O918 La896 2.554 . S
O918 C905 1.240 . S
O919 La896 2.757 . S
O919 La897 2.482 . S
O919 C905 1.289 . S
O920 La896 2.470 . S
O920 C906 1.258 . S
O921 La897 2.503 . S
O921 C906 1.256 . S
O922 La897 2.521 . S
O922 C907 1.261 . S
O923 La897 2.628 . S
O923 C907 1.243 . S
O924 La897 2.554 . S
O924 C914 1.240 . S
O925 La896 2.482 . S
O925 La897 2.757 . S
O925 C914 1.289 . S
O926 La897 2.470 . S
O926 C915 1.258 . S
O927 La896 2.503 . S
O927 C915 1.256 . S
H928 C900 0.930 . S
H929 C901 0.930 . S
H930 C903 0.929 . S
H931 C904 0.929 . S
H932 C909 0.930 . S
H933 C910 0.930 . S
H934 C912 0.929 . S
H935 C913 0.929 . S
La936 C938 2.928 1_554 S
La936 O956 2.521 1_554 S
La936 O957 2.628 . S
La936 O958 2.554 1_554 S
La936 O959 2.757 1_554 S
La936 O960 2.470 1_554 S
La936 O965 2.482 . S
La936 O967 2.503 . S
La937 C947 2.928 1_455 S
La937 O959 2.482 1_554 S
La937 O961 2.503 . S
La937 O962 2.521 1_455 S
La937 O963 2.628 1_455 S
La937 O964 2.554 . S
La937 O965 2.757 . S
La937 O966 2.470 . S
C938 La936 2.928 1_556 S
C938 C939 1.503 . S
C938 O956 1.261 . S
C938 O957 1.243 1_556 S
C939 C938 1.503 . S
C939 C940 1.394 . S
C939 C944 1.373 1_556 S
C940 C939 1.394 . S
C940 C941 1.380 . S
C940 H968 0.930 . S
C941 C940 1.380 . S
C941 C942 1.376 . S
C941 H969 0.930 . S
C942 C941 1.376 . S
C942 C943 1.370 . S
C943 C942 1.370 . S
C943 C944 1.396 1_556 S
C943 H970 0.929 1_556 S
C944 C939 1.373 1_554 S
C944 C943 1.396 1_554 S
C944 H971 0.929 . S
C945 O958 1.240 . S
C945 O959 1.289 . S
C946 O960 1.258 . S
C946 O961 1.256 1_556 S
C947 La937 2.928 1_655 S
C947 C948 1.503 . S
C947 O962 1.261 . S
C947 O963 1.243 . S
C948 C947 1.503 . S
C948 C949 1.394 . S
C948 C953 1.373 . S
C949 C948 1.394 . S
C949 C950 1.380 . S
C949 H972 0.930 . S
C950 C949 1.380 . S
C950 C951 1.376 . S
C950 H973 0.930 . S
C951 C950 1.376 . S
C951 C952 1.370 . S
C952 C951 1.370 . S
C952 C953 1.396 . S
C952 H974 0.929 . S
C953 C948 1.373 . S
C953 C952 1.396 . S
C953 H975 0.929 . S
C954 O964 1.240 . S
C954 O965 1.289 . S
C955 O966 1.258 . S
C955 O967 1.256 . S
O956 La936 2.521 1_556 S
O956 C938 1.261 . S
O957 La936 2.628 . S
O957 C938 1.243 1_554 S
O958 La936 2.554 1_556 S
O958 C945 1.240 . S
O959 La936 2.757 1_556 S
O959 La937 2.482 1_556 S
O959 C945 1.289 . S
O960 La936 2.470 1_556 S
O960 C946 1.258 . S
O961 La937 2.503 . S
O961 C946 1.256 1_554 S
O962 La937 2.521 1_655 S
O962 C947 1.261 . S
O963 La937 2.628 1_655 S
O963 C947 1.243 . S
O964 La937 2.554 . S
O964 C954 1.240 . S
O965 La936 2.482 . S
O965 La937 2.757 . S
O965 C954 1.289 . S
O966 La937 2.470 . S
O966 C955 1.258 . S
O967 La936 2.503 . S
O967 C955 1.256 . S
H968 C940 0.930 . S
H969 C941 0.930 . S
H970 C943 0.929 1_554 S
H971 C944 0.929 . S
H972 C949 0.930 . S
H973 C950 0.930 . S
H974 C952 0.929 . S
H975 C953 0.929 . S
H976 C984 0.950 . S
H977 C989 0.950 . S
H978 C986 0.950 . S
H979 C988 0.950 1_554 S
H980 C990 0.950 . S
H981 C992 0.950 . S
H982 C994 0.950 . S
H983 C995 0.950 . S
C984 H976 0.950 . S
C984 C985 1.386 . S
C984 C986 1.391 . S
C985 C984 1.386 . S
C985 C989 1.393 . S
C986 H978 0.950 . S
C986 C984 1.391 . S
C986 C987 1.400 . S
C987 C986 1.400 . S
C987 C988 1.398 . S
C987 C993 1.491 . S
C988 H979 0.950 1_556 S
C988 C987 1.398 . S
C988 C989 1.391 . S
C989 H977 0.950 . S
C989 C985 1.393 . S
C989 C988 1.391 . S
C990 H980 0.950 . S
C990 C991 1.386 1_554 S
C990 C992 1.391 . S
C991 C990 1.386 1_556 S
C991 C995 1.393 . S
C992 H981 0.950 . S
C992 C990 1.391 . S
C992 C993 1.400 1_554 S
C993 C987 1.491 . S
C993 C992 1.400 1_556 S
C993 C994 1.398 . S
C994 H982 0.950 . S
C994 C993 1.398 . S
C994 C995 1.391 . S
C995 H983 0.950 . S
C995 C991 1.393 . S
C995 C994 1.391 . S
H996 C1004 0.950 . S
H997 C1009 0.950 . S
H998 C1006 0.950 . S
H999 C1008 0.950 . S
H1000 C1010 0.950 . S
H1001 C1012 0.950 . S
H1002 C1014 0.950 . S
H1003 C1015 0.950 . S
C1004 H996 0.950 . S
C1004 C1005 1.386 . S
C1004 C1006 1.391 . S
C1005 C1004 1.386 . S
C1005 C1009 1.393 . S
C1006 H998 0.950 . S
C1006 C1004 1.391 . S
C1006 C1007 1.400 . S
C1007 C1006 1.400 . S
C1007 C1008 1.398 . S
C1007 C1013 1.491 . S
C1008 H999 0.950 . S
C1008 C1007 1.398 . S
C1008 C1009 1.391 . S
C1009 H997 0.950 . S
C1009 C1005 1.393 . S
C1009 C1008 1.391 . S
C1010 H1000 0.950 . S
C1010 C1011 1.386 . S
C1010 C1012 1.391 . S
C1011 C1010 1.386 . S
C1011 C1015 1.393 . S
C1012 H1001 0.950 . S
C1012 C1010 1.391 . S
C1012 C1013 1.400 . S
C1013 C1007 1.491 . S
C1013 C1012 1.400 . S
C1013 C1014 1.398 . S
C1014 H1002 0.950 . S
C1014 C1013 1.398 . S
C1014 C1015 1.391 . S
C1015 H1003 0.950 . S
C1015 C1011 1.393 . S
C1015 C1014 1.391 . S
H1016 C1024 0.950 . S
H1017 C1029 0.950 . S
H1018 C1026 0.950 . S
H1019 C1028 0.950 . S
H1020 C1030 0.950 . S
H1021 C1032 0.950 . S
H1022 C1034 0.950 . S
H1023 C1035 0.950 . S
C1024 H1016 0.950 . S
C1024 C1025 1.386 . S
C1024 C1026 1.391 . S
C1025 C1024 1.386 . S
C1025 C1029 1.393 . S
C1026 H1018 0.950 . S
C1026 C1024 1.391 . S
C1026 C1027 1.400 . S
C1027 C1026 1.400 . S
C1027 C1028 1.398 . S
C1027 C1033 1.491 . S
C1028 H1019 0.950 . S
C1028 C1027 1.398 . S
C1028 C1029 1.391 . S
C1029 H1017 0.950 . S
C1029 C1025 1.393 . S
C1029 C1028 1.391 . S
C1030 H1020 0.950 . S
C1030 C1031 1.386 . S
C1030 C1032 1.391 . S
C1031 C1030 1.386 . S
C1031 C1035 1.393 . S
C1032 H1021 0.950 . S
C1032 C1030 1.391 . S
C1032 C1033 1.400 . S
C1033 C1027 1.491 . S
C1033 C1032 1.400 . S
C1033 C1034 1.398 . S
C1034 H1022 0.950 . S
C1034 C1033 1.398 . S
C1034 C1035 1.391 . S
C1035 H1023 0.950 . S
C1035 C1031 1.393 . S
C1035 C1034 1.391 . S
H1036 C1044 0.950 . S
H1037 C1049 0.950 . S
H1038 C1046 0.950 . S
H1039 C1048 0.950 . S
H1040 C1050 0.950 . S
H1041 C1052 0.950 . S
H1042 C1054 0.950 . S
H1043 C1055 0.950 . S
C1044 H1036 0.950 . S
C1044 C1045 1.386 . S
C1044 C1046 1.391 . S
C1045 C1044 1.386 . S
C1045 C1049 1.393 . S
C1046 H1038 0.950 . S
C1046 C1044 1.391 . S
C1046 C1047 1.400 . S
C1047 C1046 1.400 . S
C1047 C1048 1.398 . S
C1047 C1053 1.491 . S
C1048 H1039 0.950 . S
C1048 C1047 1.398 . S
C1048 C1049 1.391 . S
C1049 H1037 0.950 . S
C1049 C1045 1.393 . S
C1049 C1048 1.391 . S
C1050 H1040 0.950 . S
C1050 C1051 1.386 . S
C1050 C1052 1.391 . S
C1051 C1050 1.386 . S
C1051 C1055 1.393 . S
C1052 H1041 0.950 . S
C1052 C1050 1.391 . S
C1052 C1053 1.400 . S
C1053 C1047 1.491 . S
C1053 C1052 1.400 . S
C1053 C1054 1.398 . S
C1054 H1042 0.950 . S
C1054 C1053 1.398 . S
C1054 C1055 1.391 . S
C1055 H1043 0.950 . S
C1055 C1051 1.393 . S
C1055 C1054 1.391 . S
H1056 C1064 0.950 . S
H1057 C1069 0.950 . S
H1058 C1066 0.950 . S
H1059 C1068 0.950 . S
H1060 C1070 0.950 . S
H1061 C1072 0.950 . S
H1062 C1074 0.950 . S
H1063 C1075 0.950 . S
C1064 H1056 0.950 . S
C1064 C1065 1.386 . S
C1064 C1066 1.391 . S
C1065 C1064 1.386 . S
C1065 C1069 1.393 . S
C1066 H1058 0.950 . S
C1066 C1064 1.391 . S
C1066 C1067 1.400 . S
C1067 C1066 1.400 . S
C1067 C1068 1.398 . S
C1067 C1073 1.491 . S
C1068 H1059 0.950 . S
C1068 C1067 1.398 . S
C1068 C1069 1.391 . S
C1069 H1057 0.950 . S
C1069 C1065 1.393 . S
C1069 C1068 1.391 . S
C1070 H1060 0.950 . S
C1070 C1071 1.386 . S
C1070 C1072 1.391 . S
C1071 C1070 1.386 . S
C1071 C1075 1.393 . S
C1072 H1061 0.950 . S
C1072 C1070 1.391 . S
C1072 C1073 1.400 . S
C1073 C1067 1.491 . S
C1073 C1072 1.400 . S
C1073 C1074 1.398 . S
C1074 H1062 0.950 . S
C1074 C1073 1.398 . S
C1074 C1075 1.391 . S
C1075 H1063 0.950 . S
C1075 C1071 1.393 . S
C1075 C1074 1.391 . S
H1076 C1084 0.950 . S
H1077 C1089 0.950 . S
H1078 C1086 0.950 . S
H1079 C1088 0.950 . S
H1080 C1090 0.950 . S
H1081 C1092 0.950 . S
H1082 C1094 0.950 . S
H1083 C1095 0.950 . S
C1084 H1076 0.950 . S
C1084 C1085 1.386 . S
C1084 C1086 1.391 . S
C1085 C1084 1.386 . S
C1085 C1089 1.393 . S
C1086 H1078 0.950 . S
C1086 C1084 1.391 . S
C1086 C1087 1.400 . S
C1087 C1086 1.400 . S
C1087 C1088 1.398 . S
C1087 C1093 1.491 . S
C1088 H1079 0.950 . S
C1088 C1087 1.398 . S
C1088 C1089 1.391 . S
C1089 H1077 0.950 . S
C1089 C1085 1.393 . S
C1089 C1088 1.391 . S
C1090 H1080 0.950 . S
C1090 C1091 1.386 . S
C1090 C1092 1.391 . S
C1091 C1090 1.386 . S
C1091 C1095 1.393 . S
C1092 H1081 0.950 . S
C1092 C1090 1.391 . S
C1092 C1093 1.400 . S
C1093 C1087 1.491 . S
C1093 C1092 1.400 . S
C1093 C1094 1.398 . S
C1094 H1082 0.950 . S
C1094 C1093 1.398 . S
C1094 C1095 1.391 . S
C1095 H1083 0.950 . S
C1095 C1091 1.393 . S
C1095 C1094 1.391 . S
H1096 C1104 0.950 . S
H1097 C1109 0.950 . S
H1098 C1106 0.950 . S
H1099 C1108 0.950 . S
H1100 C1110 0.950 . S
H1101 C1112 0.950 . S
H1102 C1114 0.950 . S
H1103 C1115 0.950 . S
C1104 H1096 0.950 . S
C1104 C1105 1.386 . S
C1104 C1106 1.391 . S
C1105 C1104 1.386 . S
C1105 C1109 1.393 . S
C1106 H1098 0.950 . S
C1106 C1104 1.391 . S
C1106 C1107 1.400 . S
C1107 C1106 1.400 . S
C1107 C1108 1.398 . S
C1107 C1113 1.491 . S
C1108 H1099 0.950 . S
C1108 C1107 1.398 . S
C1108 C1109 1.391 . S
C1109 H1097 0.950 . S
C1109 C1105 1.393 . S
C1109 C1108 1.391 . S
C1110 H1100 0.950 . S
C1110 C1111 1.386 . S
C1110 C1112 1.391 . S
C1111 C1110 1.386 . S
C1111 C1115 1.393 . S
C1112 H1101 0.950 . S
C1112 C1110 1.391 . S
C1112 C1113 1.400 . S
C1113 C1107 1.491 . S
C1113 C1112 1.400 . S
C1113 C1114 1.398 . S
C1114 H1102 0.950 . S
C1114 C1113 1.398 . S
C1114 C1115 1.391 . S
C1115 H1103 0.950 . S
C1115 C1111 1.393 . S
C1115 C1114 1.391 . S
H1116 C1124 0.950 . S
H1117 C1129 0.950 . S
H1118 C1126 0.950 . S
H1119 C1128 0.950 . S
H1120 C1130 0.950 . S
H1121 C1132 0.950 . S
H1122 C1134 0.950 . S
H1123 C1135 0.950 . S
C1124 H1116 0.950 . S
C1124 C1125 1.386 . S
C1124 C1126 1.391 . S
C1125 C1124 1.386 . S
C1125 C1129 1.393 . S
C1126 H1118 0.950 . S
C1126 C1124 1.391 . S
C1126 C1127 1.400 . S
C1127 C1126 1.400 . S
C1127 C1128 1.398 . S
C1127 C1133 1.491 . S
C1128 H1119 0.950 . S
C1128 C1127 1.398 . S
C1128 C1129 1.391 . S
C1129 H1117 0.950 . S
C1129 C1125 1.393 . S
C1129 C1128 1.391 . S
C1130 H1120 0.950 . S
C1130 C1131 1.386 . S
C1130 C1132 1.391 . S
C1131 C1130 1.386 . S
C1131 C1135 1.393 . S
C1132 H1121 0.950 . S
C1132 C1130 1.391 . S
C1132 C1133 1.400 . S
C1133 C1127 1.491 . S
C1133 C1132 1.400 . S
C1133 C1134 1.398 . S
C1134 H1122 0.950 . S
C1134 C1133 1.398 . S
C1134 C1135 1.391 . S
C1135 H1123 0.950 . S
C1135 C1131 1.393 . S
C1135 C1134 1.391 . S
H1136 C1144 0.950 1_455 S
H1137 C1149 0.950 . S
H1138 C1146 0.950 . S
H1139 C1148 0.950 . S
H1140 C1150 0.950 1_655 S
H1141 C1152 0.950 . S
H1142 C1154 0.950 . S
H1143 C1155 0.950 . S
C1144 H1136 0.950 1_655 S
C1144 C1145 1.386 . S
C1144 C1146 1.391 1_655 S
C1145 C1144 1.386 . S
C1145 C1149 1.393 . S
C1146 H1138 0.950 . S
C1146 C1144 1.391 1_455 S
C1146 C1147 1.400 1_455 S
C1147 C1146 1.400 1_655 S
C1147 C1148 1.398 . S
C1147 C1153 1.491 1_655 S
C1148 H1139 0.950 . S
C1148 C1147 1.398 . S
C1148 C1149 1.391 . S
C1149 H1137 0.950 . S
C1149 C1145 1.393 . S
C1149 C1148 1.391 . S
C1150 H1140 0.950 1_455 S
C1150 C1151 1.386 . S
C1150 C1152 1.391 1_455 S
C1151 C1150 1.386 . S
C1151 C1155 1.393 . S
C1152 H1141 0.950 . S
C1152 C1150 1.391 1_655 S
C1152 C1153 1.400 1_655 S
C1153 C1147 1.491 1_455 S
C1153 C1152 1.400 1_455 S
C1153 C1154 1.398 . S
C1154 H1142 0.950 . S
C1154 C1153 1.398 . S
C1154 C1155 1.391 . S
C1155 H1143 0.950 . S
C1155 C1151 1.393 . S
C1155 C1154 1.391 . S
H1156 C1164 0.950 . S
H1157 C1169 0.950 . S
H1158 C1166 0.950 . S
H1159 C1168 0.950 . S
H1160 C1170 0.950 . S
H1161 C1172 0.950 . S
H1162 C1174 0.950 . S
H1163 C1175 0.950 . S
C1164 H1156 0.950 . S
C1164 C1165 1.386 . S
C1164 C1166 1.391 . S
C1165 C1164 1.386 . S
C1165 C1169 1.393 . S
C1166 H1158 0.950 . S
C1166 C1164 1.391 . S
C1166 C1167 1.400 . S
C1167 C1166 1.400 . S
C1167 C1168 1.398 . S
C1167 C1173 1.491 . S
C1168 H1159 0.950 . S
C1168 C1167 1.398 . S
C1168 C1169 1.391 . S
C1169 H1157 0.950 . S
C1169 C1165 1.393 . S
C1169 C1168 1.391 . S
C1170 H1160 0.950 . S
C1170 C1171 1.386 . S
C1170 C1172 1.391 . S
C1171 C1170 1.386 . S
C1171 C1175 1.393 . S
C1172 H1161 0.950 . S
C1172 C1170 1.391 . S
C1172 C1173 1.400 . S
C1173 C1167 1.491 . S
C1173 C1172 1.400 . S
C1173 C1174 1.398 . S
C1174 H1162 0.950 . S
C1174 C1173 1.398 . S
C1174 C1175 1.391 . S
C1175 H1163 0.950 . S
C1175 C1171 1.393 . S
C1175 C1174 1.391 . S
H1176 C1184 0.950 . S
H1177 C1189 0.950 . S
H1178 C1186 0.950 . S
H1179 C1188 0.950 . S
H1180 C1190 0.950 . S
H1181 C1192 0.950 . S
H1182 C1194 0.950 . S
H1183 C1195 0.950 . S
C1184 H1176 0.950 . S
C1184 C1185 1.386 . S
C1184 C1186 1.391 . S
C1185 C1184 1.386 . S
C1185 C1189 1.393 . S
C1186 H1178 0.950 . S
C1186 C1184 1.391 . S
C1186 C1187 1.400 . S
C1187 C1186 1.400 . S
C1187 C1188 1.398 . S
C1187 C1193 1.491 . S
C1188 H1179 0.950 . S
C1188 C1187 1.398 . S
C1188 C1189 1.391 . S
C1189 H1177 0.950 . S
C1189 C1185 1.393 . S
C1189 C1188 1.391 . S
C1190 H1180 0.950 . S
C1190 C1191 1.386 . S
C1190 C1192 1.391 . S
C1191 C1190 1.386 . S
C1191 C1195 1.393 . S
C1192 H1181 0.950 . S
C1192 C1190 1.391 . S
C1192 C1193 1.400 . S
C1193 C1187 1.491 . S
C1193 C1192 1.400 . S
C1193 C1194 1.398 . S
C1194 H1182 0.950 . S
C1194 C1193 1.398 . S
C1194 C1195 1.391 . S
C1195 H1183 0.950 . S
C1195 C1191 1.393 . S
C1195 C1194 1.391 . S
H1196 C1204 0.950 . S
H1197 C1209 0.950 . S
H1198 C1206 0.950 . S
H1199 C1208 0.950 . S
H1200 C1210 0.950 . S
H1201 C1212 0.950 . S
H1202 C1214 0.950 . S
H1203 C1215 0.950 . S
C1204 H1196 0.950 . S
C1204 C1205 1.386 . S
C1204 C1206 1.391 . S
C1205 C1204 1.386 . S
C1205 C1209 1.393 . S
C1206 H1198 0.950 . S
C1206 C1204 1.391 . S
C1206 C1207 1.400 . S
C1207 C1206 1.400 . S
C1207 C1208 1.398 . S
C1207 C1213 1.491 . S
C1208 H1199 0.950 . S
C1208 C1207 1.398 . S
C1208 C1209 1.391 . S
C1209 H1197 0.950 . S
C1209 C1205 1.393 . S
C1209 C1208 1.391 . S
C1210 H1200 0.950 . S
C1210 C1211 1.386 . S
C1210 C1212 1.391 . S
C1211 C1210 1.386 . S
C1211 C1215 1.393 . S
C1212 H1201 0.950 . S
C1212 C1210 1.391 . S
C1212 C1213 1.400 . S
C1213 C1207 1.491 . S
C1213 C1212 1.400 . S
C1213 C1214 1.398 . S
C1214 H1202 0.950 . S
C1214 C1213 1.398 . S
C1214 C1215 1.391 . S
C1215 H1203 0.950 . S
C1215 C1211 1.393 . S
C1215 C1214 1.391 . S
H1216 C1224 0.950 1_455 S
H1217 C1229 0.950 . S
H1218 C1226 0.950 . S
H1219 C1228 0.950 . S
H1220 C1230 0.950 . S
H1221 C1232 0.950 . S
H1222 C1234 0.950 . S
H1223 C1235 0.950 . S
C1224 H1216 0.950 1_655 S
C1224 C1225 1.386 . S
C1224 C1226 1.391 1_655 S
C1225 C1224 1.386 . S
C1225 C1229 1.393 . S
C1226 H1218 0.950 . S
C1226 C1224 1.391 1_455 S
C1226 C1227 1.400 1_455 S
C1227 C1226 1.400 1_655 S
C1227 C1228 1.398 . S
C1227 C1233 1.491 1_655 S
C1228 H1219 0.950 . S
C1228 C1227 1.398 . S
C1228 C1229 1.391 . S
C1229 H1217 0.950 . S
C1229 C1225 1.393 . S
C1229 C1228 1.391 . S
C1230 H1220 0.950 . S
C1230 C1231 1.386 1_655 S
C1230 C1232 1.391 . S
C1231 C1230 1.386 1_455 S
C1231 C1235 1.393 . S
C1232 H1221 0.950 . S
C1232 C1230 1.391 . S
C1232 C1233 1.400 1_655 S
C1233 C1227 1.491 1_455 S
C1233 C1232 1.400 1_455 S
C1233 C1234 1.398 . S
C1234 H1222 0.950 . S
C1234 C1233 1.398 . S
C1234 C1235 1.391 . S
C1235 H1223 0.950 . S
C1235 C1231 1.393 . S
C1235 C1234 1.391 . S
H1236 C1244 0.950 . S
H1237 C1249 0.950 . S
H1238 C1246 0.950 . S
H1239 C1248 0.950 . S
H1240 C1250 0.950 . S
H1241 C1252 0.950 . S
H1242 C1254 0.950 . S
H1243 C1255 0.950 . S
C1244 H1236 0.950 . S
C1244 C1245 1.386 . S
C1244 C1246 1.391 . S
C1245 C1244 1.386 . S
C1245 C1249 1.393 . S
C1246 H1238 0.950 . S
C1246 C1244 1.391 . S
C1246 C1247 1.400 . S
C1247 C1246 1.400 . S
C1247 C1248 1.398 . S
C1247 C1253 1.491 . S
C1248 H1239 0.950 . S
C1248 C1247 1.398 . S
C1248 C1249 1.391 . S
C1249 H1237 0.950 . S
C1249 C1245 1.393 . S
C1249 C1248 1.391 . S
C1250 H1240 0.950 . S
C1250 C1251 1.386 . S
C1250 C1252 1.391 . S
C1251 C1250 1.386 . S
C1251 C1255 1.393 . S
C1252 H1241 0.950 . S
C1252 C1250 1.391 . S
C1252 C1253 1.400 . S
C1253 C1247 1.491 . S
C1253 C1252 1.400 . S
C1253 C1254 1.398 . S
C1254 H1242 0.950 . S
C1254 C1253 1.398 . S
C1254 C1255 1.391 . S
C1255 H1243 0.950 . S
C1255 C1251 1.393 . S
C1255 C1254 1.391 . S
H1256 C1264 0.950 . S
H1257 C1269 0.950 . S
H1258 C1266 0.950 . S
H1259 C1268 0.950 . S
H1260 C1270 0.950 . S
H1261 C1272 0.950 . S
H1262 C1274 0.950 . S
H1263 C1275 0.950 . S
C1264 H1256 0.950 . S
C1264 C1265 1.386 . S
C1264 C1266 1.391 . S
C1265 C1264 1.386 . S
C1265 C1269 1.393 . S
C1266 H1258 0.950 . S
C1266 C1264 1.391 . S
C1266 C1267 1.400 . S
C1267 C1266 1.400 . S
C1267 C1268 1.398 . S
C1267 C1273 1.491 . S
C1268 H1259 0.950 . S
C1268 C1267 1.398 . S
C1268 C1269 1.391 . S
C1269 H1257 0.950 . S
C1269 C1265 1.393 . S
C1269 C1268 1.391 . S
C1270 H1260 0.950 . S
C1270 C1271 1.386 . S
C1270 C1272 1.391 . S
C1271 C1270 1.386 . S
C1271 C1275 1.393 . S
C1272 H1261 0.950 . S
C1272 C1270 1.391 . S
C1272 C1273 1.400 . S
C1273 C1267 1.491 . S
C1273 C1272 1.400 . S
C1273 C1274 1.398 . S
C1274 H1262 0.950 . S
C1274 C1273 1.398 . S
C1274 C1275 1.391 . S
C1275 H1263 0.950 . S
C1275 C1271 1.393 . S
C1275 C1274 1.391 . S
H1276 C1284 0.950 . S
H1277 C1289 0.950 . S
H1278 C1286 0.950 . S
H1279 C1288 0.950 . S
H1280 C1290 0.950 . S
H1281 C1292 0.950 . S
H1282 C1294 0.950 . S
H1283 C1295 0.950 . S
C1284 H1276 0.950 . S
C1284 C1285 1.386 . S
C1284 C1286 1.391 . S
C1285 C1284 1.386 . S
C1285 C1289 1.393 . S
C1286 H1278 0.950 . S
C1286 C1284 1.391 . S
C1286 C1287 1.400 . S
C1287 C1286 1.400 . S
C1287 C1288 1.398 . S
C1287 C1293 1.491 . S
C1288 H1279 0.950 . S
C1288 C1287 1.398 . S
C1288 C1289 1.391 . S
C1289 H1277 0.950 . S
C1289 C1285 1.393 . S
C1289 C1288 1.391 . S
C1290 H1280 0.950 . S
C1290 C1291 1.386 . S
C1290 C1292 1.391 . S
C1291 C1290 1.386 . S
C1291 C1295 1.393 . S
C1292 H1281 0.950 . S
C1292 C1290 1.391 . S
C1292 C1293 1.400 . S
C1293 C1287 1.491 . S
C1293 C1292 1.400 . S
C1293 C1294 1.398 . S
C1294 H1282 0.950 . S
C1294 C1293 1.398 . S
C1294 C1295 1.391 . S
C1295 H1283 0.950 . S
C1295 C1291 1.393 . S
C1295 C1294 1.391 . S
H1296 C1304 0.950 . S
H1297 C1309 0.950 . S
H1298 C1306 0.950 . S
H1299 C1308 0.950 1_556 S
H1300 C1310 0.950 . S
H1301 C1312 0.950 . S
H1302 C1314 0.950 . S
H1303 C1315 0.950 . S
C1304 H1296 0.950 . S
C1304 C1305 1.386 . S
C1304 C1306 1.391 . S
C1305 C1304 1.386 . S
C1305 C1309 1.393 1_554 S
C1306 H1298 0.950 . S
C1306 C1304 1.391 . S
C1306 C1307 1.400 . S
C1307 C1306 1.400 . S
C1307 C1308 1.398 . S
C1307 C1313 1.491 . S
C1308 H1299 0.950 1_554 S
C1308 C1307 1.398 . S
C1308 C1309 1.391 1_554 S
C1309 H1297 0.950 . S
C1309 C1305 1.393 1_556 S
C1309 C1308 1.391 1_556 S
C1310 H1300 0.950 . S
C1310 C1311 1.386 . S
C1310 C1312 1.391 . S
C1311 C1310 1.386 . S
C1311 C1315 1.393 . S
C1312 H1301 0.950 . S
C1312 C1310 1.391 . S
C1312 C1313 1.400 . S
C1313 C1307 1.491 . S
C1313 C1312 1.400 . S
C1313 C1314 1.398 . S
C1314 H1302 0.950 . S
C1314 C1313 1.398 . S
C1314 C1315 1.391 . S
C1315 H1303 0.950 . S
C1315 C1311 1.393 . S
C1315 C1314 1.391 . S
H1316 C1324 0.950 . S
H1317 C1329 0.950 . S
H1318 C1326 0.950 . S
H1319 C1328 0.950 . S
H1320 C1330 0.950 . S
H1321 C1332 0.950 . S
H1322 C1334 0.950 . S
H1323 C1335 0.950 . S
C1324 H1316 0.950 . S
C1324 C1325 1.386 . S
C1324 C1326 1.391 . S
C1325 C1324 1.386 . S
C1325 C1329 1.393 1_554 S
C1326 H1318 0.950 . S
C1326 C1324 1.391 . S
C1326 C1327 1.400 . S
C1327 C1326 1.400 . S
C1327 C1328 1.398 1_554 S
C1327 C1333 1.491 . S
C1328 H1319 0.950 . S
C1328 C1327 1.398 1_556 S
C1328 C1329 1.391 . S
C1329 H1317 0.950 . S
C1329 C1325 1.393 1_556 S
C1329 C1328 1.391 . S
C1330 H1320 0.950 . S
C1330 C1331 1.386 1_556 S
C1330 C1332 1.391 . S
C1331 C1330 1.386 1_554 S
C1331 C1335 1.393 . S
C1332 H1321 0.950 . S
C1332 C1330 1.391 . S
C1332 C1333 1.400 1_556 S
C1333 C1327 1.491 . S
C1333 C1332 1.400 1_554 S
C1333 C1334 1.398 . S
C1334 H1322 0.950 . S
C1334 C1333 1.398 . S
C1334 C1335 1.391 . S
C1335 H1323 0.950 . S
C1335 C1331 1.393 . S
C1335 C1334 1.391 . S
H1336 C1344 0.950 . S
H1337 C1349 0.950 . S
H1338 C1346 0.950 . S
H1339 C1348 0.950 . S
H1340 C1350 0.950 . S
H1341 C1352 0.950 . S
H1342 C1354 0.950 . S
H1343 C1355 0.950 . S
C1344 H1336 0.950 . S
C1344 C1345 1.386 . S
C1344 C1346 1.391 . S
C1345 C1344 1.386 . S
C1345 C1349 1.393 . S
C1346 H1338 0.950 . S
C1346 C1344 1.391 . S
C1346 C1347 1.400 . S
C1347 C1346 1.400 . S
C1347 C1348 1.398 . S
C1347 C1353 1.491 . S
C1348 H1339 0.950 . S
C1348 C1347 1.398 . S
C1348 C1349 1.391 . S
C1349 H1337 0.950 . S
C1349 C1345 1.393 . S
C1349 C1348 1.391 . S
C1350 H1340 0.950 . S
C1350 C1351 1.386 . S
C1350 C1352 1.391 . S
C1351 C1350 1.386 . S
C1351 C1355 1.393 . S
C1352 H1341 0.950 . S
C1352 C1350 1.391 . S
C1352 C1353 1.400 . S
C1353 C1347 1.491 . S
C1353 C1352 1.400 . S
C1353 C1354 1.398 . S
C1354 H1342 0.950 . S
C1354 C1353 1.398 . S
C1354 C1355 1.391 . S
C1355 H1343 0.950 . S
C1355 C1351 1.393 . S
C1355 C1354 1.391 . S
H1356 C1364 0.950 . S
H1357 C1369 0.950 . S
H1358 C1366 0.950 . S
H1359 C1368 0.950 . S
H1360 C1370 0.950 . S
H1361 C1372 0.950 . S
H1362 C1374 0.950 . S
H1363 C1375 0.950 . S
C1364 H1356 0.950 . S
C1364 C1365 1.386 . S
C1364 C1366 1.391 . S
C1365 C1364 1.386 . S
C1365 C1369 1.393 . S
C1366 H1358 0.950 . S
C1366 C1364 1.391 . S
C1366 C1367 1.400 . S
C1367 C1366 1.400 . S
C1367 C1368 1.398 . S
C1367 C1373 1.491 . S
C1368 H1359 0.950 . S
C1368 C1367 1.398 . S
C1368 C1369 1.391 . S
C1369 H1357 0.950 . S
C1369 C1365 1.393 . S
C1369 C1368 1.391 . S
C1370 H1360 0.950 . S
C1370 C1371 1.386 . S
C1370 C1372 1.391 . S
C1371 C1370 1.386 . S
C1371 C1375 1.393 . S
C1372 H1361 0.950 . S
C1372 C1370 1.391 . S
C1372 C1373 1.400 . S
C1373 C1367 1.491 . S
C1373 C1372 1.400 . S
C1373 C1374 1.398 . S
C1374 H1362 0.950 . S
C1374 C1373 1.398 . S
C1374 C1375 1.391 . S
C1375 H1363 0.950 . S
C1375 C1371 1.393 . S
C1375 C1374 1.391 . S
H1376 C1384 0.950 . S
H1377 C1389 0.950 . S
H1378 C1386 0.950 . S
H1379 C1388 0.950 . S
H1380 C1390 0.950 . S
H1381 C1392 0.950 . S
H1382 C1394 0.950 . S
H1383 C1395 0.950 . S
C1384 H1376 0.950 . S
C1384 C1385 1.386 . S
C1384 C1386 1.391 . S
C1385 C1384 1.386 . S
C1385 C1389 1.393 . S
C1386 H1378 0.950 . S
C1386 C1384 1.391 . S
C1386 C1387 1.400 . S
C1387 C1386 1.400 . S
C1387 C1388 1.398 . S
C1387 C1393 1.491 . S
C1388 H1379 0.950 . S
C1388 C1387 1.398 . S
C1388 C1389 1.391 . S
C1389 H1377 0.950 . S
C1389 C1385 1.393 . S
C1389 C1388 1.391 . S
C1390 H1380 0.950 . S
C1390 C1391 1.386 . S
C1390 C1392 1.391 . S
C1391 C1390 1.386 . S
C1391 C1395 1.393 . S
C1392 H1381 0.950 . S
C1392 C1390 1.391 . S
C1392 C1393 1.400 . S
C1393 C1387 1.491 . S
C1393 C1392 1.400 . S
C1393 C1394 1.398 . S
C1394 H1382 0.950 . S
C1394 C1393 1.398 . S
C1394 C1395 1.391 . S
C1395 H1383 0.950 . S
C1395 C1391 1.393 . S
C1395 C1394 1.391 . S
H1396 C1404 0.950 . S
H1397 C1409 0.950 . S
H1398 C1406 0.950 . S
H1399 C1408 0.950 . S
H1400 C1410 0.950 . S
H1401 C1412 0.950 . S
H1402 C1414 0.950 . S
H1403 C1415 0.950 . S
C1404 H1396 0.950 . S
C1404 C1405 1.386 . S
C1404 C1406 1.391 . S
C1405 C1404 1.386 . S
C1405 C1409 1.393 . S
C1406 H1398 0.950 . S
C1406 C1404 1.391 . S
C1406 C1407 1.400 . S
C1407 C1406 1.400 . S
C1407 C1408 1.398 . S
C1407 C1413 1.491 . S
C1408 H1399 0.950 . S
C1408 C1407 1.398 . S
C1408 C1409 1.391 . S
C1409 H1397 0.950 . S
C1409 C1405 1.393 . S
C1409 C1408 1.391 . S
C1410 H1400 0.950 . S
C1410 C1411 1.386 . S
C1410 C1412 1.391 . S
C1411 C1410 1.386 . S
C1411 C1415 1.393 . S
C1412 H1401 0.950 . S
C1412 C1410 1.391 . S
C1412 C1413 1.400 . S
C1413 C1407 1.491 . S
C1413 C1412 1.400 . S
C1413 C1414 1.398 . S
C1414 H1402 0.950 . S
C1414 C1413 1.398 . S
C1414 C1415 1.391 . S
C1415 H1403 0.950 . S
C1415 C1411 1.393 . S
C1415 C1414 1.391 . S
H1416 C1424 0.950 . S
H1417 C1429 0.950 . S
H1418 C1426 0.950 . S
H1419 C1428 0.950 . S
H1420 C1430 0.950 . S
H1421 C1432 0.950 . S
H1422 C1434 0.950 . S
H1423 C1435 0.950 . S
C1424 H1416 0.950 . S
C1424 C1425 1.386 . S
C1424 C1426 1.391 . S
C1425 C1424 1.386 . S
C1425 C1429 1.393 . S
C1426 H1418 0.950 . S
C1426 C1424 1.391 . S
C1426 C1427 1.400 . S
C1427 C1426 1.400 . S
C1427 C1428 1.398 . S
C1427 C1433 1.491 . S
C1428 H1419 0.950 . S
C1428 C1427 1.398 . S
C1428 C1429 1.391 . S
C1429 H1417 0.950 . S
C1429 C1425 1.393 . S
C1429 C1428 1.391 . S
C1430 H1420 0.950 . S
C1430 C1431 1.386 . S
C1430 C1432 1.391 . S
C1431 C1430 1.386 . S
C1431 C1435 1.393 . S
C1432 H1421 0.950 . S
C1432 C1430 1.391 . S
C1432 C1433 1.400 . S
C1433 C1427 1.491 . S
C1433 C1432 1.400 . S
C1433 C1434 1.398 . S
C1434 H1422 0.950 . S
C1434 C1433 1.398 . S
C1434 C1435 1.391 . S
C1435 H1423 0.950 . S
C1435 C1431 1.393 . S
C1435 C1434 1.391 . S
H1436 C1444 0.950 . S
H1437 C1449 0.950 . S
H1438 C1446 0.950 . S
H1439 C1448 0.950 . S
H1440 C1450 0.950 . S
H1441 C1452 0.950 . S
H1442 C1454 0.950 . S
H1443 C1455 0.950 . S
C1444 H1436 0.950 . S
C1444 C1445 1.386 . S
C1444 C1446 1.391 . S
C1445 C1444 1.386 . S
C1445 C1449 1.393 . S
C1446 H1438 0.950 . S
C1446 C1444 1.391 . S
C1446 C1447 1.400 . S
C1447 C1446 1.400 . S
C1447 C1448 1.398 . S
C1447 C1453 1.491 . S
C1448 H1439 0.950 . S
C1448 C1447 1.398 . S
C1448 C1449 1.391 . S
C1449 H1437 0.950 . S
C1449 C1445 1.393 . S
C1449 C1448 1.391 . S
C1450 H1440 0.950 . S
C1450 C1451 1.386 . S
C1450 C1452 1.391 . S
C1451 C1450 1.386 . S
C1451 C1455 1.393 . S
C1452 H1441 0.950 . S
C1452 C1450 1.391 . S
C1452 C1453 1.400 . S
C1453 C1447 1.491 . S
C1453 C1452 1.400 . S
C1453 C1454 1.398 . S
C1454 H1442 0.950 . S
C1454 C1453 1.398 . S
C1454 C1455 1.391 . S
C1455 H1443 0.950 . S
C1455 C1451 1.393 . S
C1455 C1454 1.391 . S
H1456 C1464 0.950 . S
H1457 C1469 0.950 . S
H1458 C1466 0.950 . S
H1459 C1468 0.950 . S
H1460 C1470 0.950 1_556 S
H1461 C1472 0.950 . S
H1462 C1474 0.950 . S
H1463 C1475 0.950 . S
C1464 H1456 0.950 . S
C1464 C1465 1.386 . S
C1464 C1466 1.391 . S
C1465 C1464 1.386 . S
C1465 C1469 1.393 . S
C1466 H1458 0.950 . S
C1466 C1464 1.391 . S
C1466 C1467 1.400 . S
C1467 C1466 1.400 . S
C1467 C1468 1.398 . S
C1467 C1473 1.491 . S
C1468 H1459 0.950 . S
C1468 C1467 1.398 . S
C1468 C1469 1.391 . S
C1469 H1457 0.950 . S
C1469 C1465 1.393 . S
C1469 C1468 1.391 . S
C1470 H1460 0.950 1_554 S
C1470 C1471 1.386 . S
C1470 C1472 1.391 . S
C1471 C1470 1.386 . S
C1471 C1475 1.393 . S
C1472 H1461 0.950 . S
C1472 C1470 1.391 . S
C1472 C1473 1.400 . S
C1473 C1467 1.491 . S
C1473 C1472 1.400 . S
C1473 C1474 1.398 . S
C1474 H1462 0.950 . S
C1474 C1473 1.398 . S
C1474 C1475 1.391 . S
C1475 H1463 0.950 . S
C1475 C1471 1.393 . S
C1475 C1474 1.391 . S
H1476 C1484 0.950 . S
H1477 C1489 0.950 . S
H1478 C1486 0.950 . S
H1479 C1488 0.950 . S
H1480 C1490 0.950 . S
H1481 C1492 0.950 . S
H1482 C1494 0.950 . S
H1483 C1495 0.950 . S
C1484 H1476 0.950 . S
C1484 C1485 1.386 . S
C1484 C1486 1.391 . S
C1485 C1484 1.386 . S
C1485 C1489 1.393 . S
C1486 H1478 0.950 . S
C1486 C1484 1.391 . S
C1486 C1487 1.400 . S
C1487 C1486 1.400 . S
C1487 C1488 1.398 . S
C1487 C1493 1.491 . S
C1488 H1479 0.950 . S
C1488 C1487 1.398 . S
C1488 C1489 1.391 . S
C1489 H1477 0.950 . S
C1489 C1485 1.393 . S
C1489 C1488 1.391 . S
C1490 H1480 0.950 . S
C1490 C1491 1.386 . S
C1490 C1492 1.391 . S
C1491 C1490 1.386 . S
C1491 C1495 1.393 . S
C1492 H1481 0.950 . S
C1492 C1490 1.391 . S
C1492 C1493 1.400 . S
C1493 C1487 1.491 . S
C1493 C1492 1.400 . S
C1493 C1494 1.398 . S
C1494 H1482 0.950 . S
C1494 C1493 1.398 . S
C1494 C1495 1.391 . S
C1495 H1483 0.950 . S
C1495 C1491 1.393 . S
C1495 C1494 1.391 . S
H1496 C1504 0.950 . S
H1497 C1509 0.950 . S
H1498 C1506 0.950 . S
H1499 C1508 0.950 . S
H1500 C1510 0.950 . S
H1501 C1512 0.950 . S
H1502 C1514 0.950 . S
H1503 C1515 0.950 . S
C1504 H1496 0.950 . S
C1504 C1505 1.386 . S
C1504 C1506 1.391 . S
C1505 C1504 1.386 . S
C1505 C1509 1.393 . S
C1506 H1498 0.950 . S
C1506 C1504 1.391 . S
C1506 C1507 1.400 . S
C1507 C1506 1.400 . S
C1507 C1508 1.398 . S
C1507 C1513 1.491 . S
C1508 H1499 0.950 . S
C1508 C1507 1.398 . S
C1508 C1509 1.391 . S
C1509 H1497 0.950 . S
C1509 C1505 1.393 . S
C1509 C1508 1.391 . S
C1510 H1500 0.950 . S
C1510 C1511 1.386 . S
C1510 C1512 1.391 . S
C1511 C1510 1.386 . S
C1511 C1515 1.393 . S
C1512 H1501 0.950 . S
C1512 C1510 1.391 . S
C1512 C1513 1.400 . S
C1513 C1507 1.491 . S
C1513 C1512 1.400 . S
C1513 C1514 1.398 . S
C1514 H1502 0.950 . S
C1514 C1513 1.398 . S
C1514 C1515 1.391 . S
C1515 H1503 0.950 . S
C1515 C1511 1.393 . S
C1515 C1514 1.391 . S
H1516 C1524 0.950 . S
H1517 C1529 0.950 . S
H1518 C1526 0.950 . S
H1519 C1528 0.950 . S
H1520 C1530 0.950 . S
H1521 C1532 0.950 . S
H1522 C1534 0.950 . S
H1523 C1535 0.950 . S
C1524 H1516 0.950 . S
C1524 C1525 1.386 . S
C1524 C1526 1.391 . S
C1525 C1524 1.386 . S
C1525 C1529 1.393 . S
C1526 H1518 0.950 . S
C1526 C1524 1.391 . S
C1526 C1527 1.400 . S
C1527 C1526 1.400 . S
C1527 C1528 1.398 . S
C1527 C1533 1.491 . S
C1528 H1519 0.950 . S
C1528 C1527 1.398 . S
C1528 C1529 1.391 . S
C1529 H1517 0.950 . S
C1529 C1525 1.393 . S
C1529 C1528 1.391 . S
C1530 H1520 0.950 . S
C1530 C1531 1.386 . S
C1530 C1532 1.391 . S
C1531 C1530 1.386 . S
C1531 C1535 1.393 . S
C1532 H1521 0.950 . S
C1532 C1530 1.391 . S
C1532 C1533 1.400 . S
C1533 C1527 1.491 . S
C1533 C1532 1.400 . S
C1533 C1534 1.398 . S
C1534 H1522 0.950 . S
C1534 C1533 1.398 . S
C1534 C1535 1.391 . S
C1535 H1523 0.950 . S
C1535 C1531 1.393 . S
C1535 C1534 1.391 . S
H1536 C1544 0.950 . S
H1537 C1549 0.950 . S
H1538 C1546 0.950 . S
H1539 C1548 0.950 . S
H1540 C1550 0.950 . S
H1541 C1552 0.950 . S
H1542 C1554 0.950 . S
H1543 C1555 0.950 . S
C1544 H1536 0.950 . S
C1544 C1545 1.386 . S
C1544 C1546 1.391 . S
C1545 C1544 1.386 . S
C1545 C1549 1.393 . S
C1546 H1538 0.950 . S
C1546 C1544 1.391 . S
C1546 C1547 1.400 . S
C1547 C1546 1.400 . S
C1547 C1548 1.398 . S
C1547 C1553 1.491 . S
C1548 H1539 0.950 . S
C1548 C1547 1.398 . S
C1548 C1549 1.391 . S
C1549 H1537 0.950 . S
C1549 C1545 1.393 . S
C1549 C1548 1.391 . S
C1550 H1540 0.950 . S
C1550 C1551 1.386 . S
C1550 C1552 1.391 . S
C1551 C1550 1.386 . S
C1551 C1555 1.393 . S
C1552 H1541 0.950 . S
C1552 C1550 1.391 . S
C1552 C1553 1.400 . S
C1553 C1547 1.491 . S
C1553 C1552 1.400 . S
C1553 C1554 1.398 . S
C1554 H1542 0.950 . S
C1554 C1553 1.398 . S
C1554 C1555 1.391 . S
C1555 H1543 0.950 . S
C1555 C1551 1.393 . S
C1555 C1554 1.391 . S
H1556 C1564 0.950 . S
H1557 C1569 0.950 . S
H1558 C1566 0.950 . S
H1559 C1568 0.950 . S
H1560 C1570 0.950 . S
H1561 C1572 0.950 . S
H1562 C1574 0.950 . S
H1563 C1575 0.950 . S
C1564 H1556 0.950 . S
C1564 C1565 1.386 . S
C1564 C1566 1.391 . S
C1565 C1564 1.386 . S
C1565 C1569 1.393 . S
C1566 H1558 0.950 . S
C1566 C1564 1.391 . S
C1566 C1567 1.400 . S
C1567 C1566 1.400 . S
C1567 C1568 1.398 . S
C1567 C1573 1.491 . S
C1568 H1559 0.950 . S
C1568 C1567 1.398 . S
C1568 C1569 1.391 . S
C1569 H1557 0.950 . S
C1569 C1565 1.393 . S
C1569 C1568 1.391 . S
C1570 H1560 0.950 . S
C1570 C1571 1.386 . S
C1570 C1572 1.391 . S
C1571 C1570 1.386 . S
C1571 C1575 1.393 . S
C1572 H1561 0.950 . S
C1572 C1570 1.391 . S
C1572 C1573 1.400 . S
C1573 C1567 1.491 . S
C1573 C1572 1.400 . S
C1573 C1574 1.398 . S
C1574 H1562 0.950 . S
C1574 C1573 1.398 . S
C1574 C1575 1.391 . S
C1575 H1563 0.950 . S
C1575 C1571 1.393 . S
C1575 C1574 1.391 . S
H1576 C1584 0.950 . S
H1577 C1589 0.950 . S
H1578 C1586 0.950 . S
H1579 C1588 0.950 . S
H1580 C1590 0.950 . S
H1581 C1592 0.950 . S
H1582 C1594 0.950 . S
H1583 C1595 0.950 1_554 S
C1584 H1576 0.950 . S
C1584 C1585 1.386 . S
C1584 C1586 1.391 . S
C1585 C1584 1.386 . S
C1585 C1589 1.393 . S
C1586 H1578 0.950 . S
C1586 C1584 1.391 . S
C1586 C1587 1.400 . S
C1587 C1586 1.400 . S
C1587 C1588 1.398 . S
C1587 C1593 1.491 . S
C1588 H1579 0.950 . S
C1588 C1587 1.398 . S
C1588 C1589 1.391 . S
C1589 H1577 0.950 . S
C1589 C1585 1.393 . S
C1589 C1588 1.391 . S
C1590 H1580 0.950 . S
C1590 C1591 1.386 . S
C1590 C1592 1.391 . S
C1591 C1590 1.386 . S
C1591 C1595 1.393 . S
C1592 H1581 0.950 . S
C1592 C1590 1.391 . S
C1592 C1593 1.400 . S
C1593 C1587 1.491 . S
C1593 C1592 1.400 . S
C1593 C1594 1.398 . S
C1594 H1582 0.950 . S
C1594 C1593 1.398 . S
C1594 C1595 1.391 . S
C1595 H1583 0.950 1_556 S
C1595 C1591 1.393 . S
C1595 C1594 1.391 . S
H1596 C1604 0.950 . S
H1597 C1609 0.950 . S
H1598 C1606 0.950 . S
H1599 C1608 0.950 . S
H1600 C1610 0.950 . S
H1601 C1612 0.950 . S
H1602 C1614 0.950 . S
H1603 C1615 0.950 . S
C1604 H1596 0.950 . S
C1604 C1605 1.386 . S
C1604 C1606 1.391 . S
C1605 C1604 1.386 . S
C1605 C1609 1.393 . S
C1606 H1598 0.950 . S
C1606 C1604 1.391 . S
C1606 C1607 1.400 . S
C1607 C1606 1.400 . S
C1607 C1608 1.398 . S
C1607 C1613 1.491 . S
C1608 H1599 0.950 . S
C1608 C1607 1.398 . S
C1608 C1609 1.391 . S
C1609 H1597 0.950 . S
C1609 C1605 1.393 . S
C1609 C1608 1.391 . S
C1610 H1600 0.950 . S
C1610 C1611 1.386 . S
C1610 C1612 1.391 . S
C1611 C1610 1.386 . S
C1611 C1615 1.393 . S
C1612 H1601 0.950 . S
C1612 C1610 1.391 . S
C1612 C1613 1.400 . S
C1613 C1607 1.491 . S
C1613 C1612 1.400 . S
C1613 C1614 1.398 . S
C1614 H1602 0.950 . S
C1614 C1613 1.398 . S
C1614 C1615 1.391 . S
C1615 H1603 0.950 . S
C1615 C1611 1.393 . S
C1615 C1614 1.391 . S
H1616 C1624 0.950 . S
H1617 C1629 0.950 . S
H1618 C1626 0.950 . S
H1619 C1628 0.950 . S
H1620 C1630 0.950 . S
H1621 C1632 0.950 . S
H1622 C1634 0.950 . S
H1623 C1635 0.950 . S
C1624 H1616 0.950 . S
C1624 C1625 1.386 1_565 S
C1624 C1626 1.391 . S
C1625 C1624 1.386 1_545 S
C1625 C1629 1.393 . S
C1626 H1618 0.950 . S
C1626 C1624 1.391 . S
C1626 C1627 1.400 1_565 S
C1627 C1626 1.400 1_545 S
C1627 C1628 1.398 . S
C1627 C1633 1.491 . S
C1628 H1619 0.950 . S
C1628 C1627 1.398 . S
C1628 C1629 1.391 . S
C1629 H1617 0.950 . S
C1629 C1625 1.393 . S
C1629 C1628 1.391 . S
C1630 H1620 0.950 . S
C1630 C1631 1.386 . S
C1630 C1632 1.391 . S
C1631 C1630 1.386 . S
C1631 C1635 1.393 1_545 S
C1632 H1621 0.950 . S
C1632 C1630 1.391 . S
C1632 C1633 1.400 . S
C1633 C1627 1.491 . S
C1633 C1632 1.400 . S
C1633 C1634 1.398 1_545 S
C1634 H1622 0.950 . S
C1634 C1633 1.398 1_565 S
C1634 C1635 1.391 . S
C1635 H1623 0.950 . S
C1635 C1631 1.393 1_565 S
C1635 C1634 1.391 . S
H1636 C1644 0.950 . S
H1637 C1649 0.950 . S
H1638 C1646 0.950 . S
H1639 C1648 0.950 . S
H1640 C1650 0.950 . S
H1641 C1652 0.950 . S
H1642 C1654 0.950 . S
H1643 C1655 0.950 . S
C1644 H1636 0.950 . S
C1644 C1645 1.386 . S
C1644 C1646 1.391 . S
C1645 C1644 1.386 . S
C1645 C1649 1.393 . S
C1646 H1638 0.950 . S
C1646 C1644 1.391 . S
C1646 C1647 1.400 . S
C1647 C1646 1.400 . S
C1647 C1648 1.398 . S
C1647 C1653 1.491 . S
C1648 H1639 0.950 . S
C1648 C1647 1.398 . S
C1648 C1649 1.391 . S
C1649 H1637 0.950 . S
C1649 C1645 1.393 . S
C1649 C1648 1.391 . S
C1650 H1640 0.950 . S
C1650 C1651 1.386 . S
C1650 C1652 1.391 . S
C1651 C1650 1.386 . S
C1651 C1655 1.393 . S
C1652 H1641 0.950 . S
C1652 C1650 1.391 . S
C1652 C1653 1.400 . S
C1653 C1647 1.491 . S
C1653 C1652 1.400 . S
C1653 C1654 1.398 . S
C1654 H1642 0.950 . S
C1654 C1653 1.398 . S
C1654 C1655 1.391 . S
C1655 H1643 0.950 . S
C1655 C1651 1.393 . S
C1655 C1654 1.391 . S
H1656 C1664 0.950 1_565 S
H1657 C1669 0.950 . S
H1658 C1666 0.951 . S
H1659 C1668 0.950 . S
H1660 C1670 0.950 . S
H1661 C1672 0.950 . S
H1662 C1674 0.950 . S
H1663 C1675 0.950 . S
C1664 H1656 0.950 1_545 S
C1664 C1665 1.386 . S
C1664 C1666 1.391 . S
C1665 C1664 1.386 . S
C1665 C1669 1.393 . S
C1666 H1658 0.951 . S
C1666 C1664 1.391 . S
C1666 C1667 1.400 . S
C1667 C1666 1.400 . S
C1667 C1668 1.398 . S
C1667 C1673 1.491 . S
C1668 H1659 0.950 . S
C1668 C1667 1.398 . S
C1668 C1669 1.391 . S
C1669 H1657 0.950 . S
C1669 C1665 1.393 . S
C1669 C1668 1.391 . S
C1670 H1660 0.950 . S
C1670 C1671 1.386 . S
C1670 C1672 1.391 . S
C1671 C1670 1.386 . S
C1671 C1675 1.393 . S
C1672 H1661 0.950 . S
C1672 C1670 1.391 . S
C1672 C1673 1.400 . S
C1673 C1667 1.491 . S
C1673 C1672 1.400 . S
C1673 C1674 1.398 . S
C1674 H1662 0.950 . S
C1674 C1673 1.398 . S
C1674 C1675 1.391 . S
C1675 H1663 0.950 . S
C1675 C1671 1.393 . S
C1675 C1674 1.391 . S
H1676 C1684 0.950 . S
H1677 C1689 0.950 . S
H1678 C1686 0.950 . S
H1679 C1688 0.950 . S
H1680 C1690 0.950 . S
H1681 C1692 0.950 . S
H1682 C1694 0.950 . S
H1683 C1695 0.950 . S
C1684 H1676 0.950 . S
C1684 C1685 1.386 . S
C1684 C1686 1.391 . S
C1685 C1684 1.386 . S
C1685 C1689 1.393 . S
C1686 H1678 0.950 . S
C1686 C1684 1.391 . S
C1686 C1687 1.400 . S
C1687 C1686 1.400 . S
C1687 C1688 1.398 . S
C1687 C1693 1.491 . S
C1688 H1679 0.950 . S
C1688 C1687 1.398 . S
C1688 C1689 1.391 . S
C1689 H1677 0.950 . S
C1689 C1685 1.393 . S
C1689 C1688 1.391 . S
C1690 H1680 0.950 . S
C1690 C1691 1.386 . S
C1690 C1692 1.391 . S
C1691 C1690 1.386 . S
C1691 C1695 1.393 . S
C1692 H1681 0.950 . S
C1692 C1690 1.391 . S
C1692 C1693 1.400 . S
C1693 C1687 1.491 . S
C1693 C1692 1.400 . S
C1693 C1694 1.398 . S
C1694 H1682 0.950 . S
C1694 C1693 1.398 . S
C1694 C1695 1.391 . S
C1695 H1683 0.950 . S
C1695 C1691 1.393 . S
C1695 C1694 1.391 . S
H1696 C1704 0.950 . S
H1697 C1709 0.950 . S
H1698 C1706 0.950 . S
H1699 C1708 0.950 . S
H1700 C1710 0.950 . S
H1701 C1712 0.950 . S
H1702 C1714 0.950 . S
H1703 C1715 0.950 . S
C1704 H1696 0.950 . S
C1704 C1705 1.403 . S
C1704 C1706 1.391 . S
C1705 C1704 1.403 . S
C1705 C1709 1.401 . S
C1706 H1698 0.950 . S
C1706 C1704 1.391 . S
C1706 C1707 1.400 . S
C1707 C1706 1.400 . S
C1707 C1708 1.398 . S
C1707 C1713 1.491 . S
C1708 H1699 0.950 . S
C1708 C1707 1.398 . S
C1708 C1709 1.391 . S
C1709 H1697 0.950 . S
C1709 C1705 1.401 . S
C1709 C1708 1.391 . S
C1710 H1700 0.950 . S
C1710 C1711 1.386 . S
C1710 C1712 1.391 . S
C1711 C1710 1.386 . S
C1711 C1715 1.393 . S
C1712 H1701 0.950 . S
C1712 C1710 1.391 . S
C1712 C1713 1.400 . S
C1713 C1707 1.491 . S
C1713 C1712 1.400 . S
C1713 C1714 1.398 . S
C1714 H1702 0.950 . S
C1714 C1713 1.398 . S
C1714 C1715 1.391 . S
C1715 H1703 0.950 . S
C1715 C1711 1.393 . S
C1715 C1714 1.391 . S
H1716 C1724 0.950 . S
H1717 C1729 0.950 . S
H1718 C1726 0.950 . S
H1719 C1728 0.950 . S
H1720 C1730 0.950 . S
H1721 C1732 0.950 . S
H1722 C1734 0.950 . S
H1723 C1735 0.950 . S
C1724 H1716 0.950 . S
C1724 C1725 1.386 . S
C1724 C1726 1.391 . S
C1725 C1724 1.386 . S
C1725 C1729 1.393 . S
C1726 H1718 0.950 . S
C1726 C1724 1.391 . S
C1726 C1727 1.400 . S
C1727 C1726 1.400 . S
C1727 C1728 1.398 . S
C1727 C1733 1.491 . S
C1728 H1719 0.950 . S
C1728 C1727 1.398 . S
C1728 C1729 1.391 . S
C1729 H1717 0.950 . S
C1729 C1725 1.393 . S
C1729 C1728 1.391 . S
C1730 H1720 0.950 . S
C1730 C1731 1.386 . S
C1730 C1732 1.391 . S
C1731 C1730 1.386 . S
C1731 C1735 1.393 . S
C1732 H1721 0.950 . S
C1732 C1730 1.391 . S
C1732 C1733 1.400 . S
C1733 C1727 1.491 . S
C1733 C1732 1.400 . S
C1733 C1734 1.398 . S
C1734 H1722 0.950 . S
C1734 C1733 1.398 . S
C1734 C1735 1.391 . S
C1735 H1723 0.950 . S
C1735 C1731 1.393 . S
C1735 C1734 1.391 . S
H1736 C1744 0.950 . S
H1737 C1749 0.950 . S
H1738 C1746 0.950 . S
H1739 C1748 0.950 . S
H1740 C1750 0.950 . S
H1741 C1752 0.950 . S
H1742 C1754 0.950 . S
H1743 C1755 0.950 . S
C1744 H1736 0.950 . S
C1744 C1745 1.386 . S
C1744 C1746 1.391 . S
C1745 C1744 1.386 . S
C1745 C1749 1.393 . S
C1746 H1738 0.950 . S
C1746 C1744 1.391 . S
C1746 C1747 1.400 . S
C1747 C1746 1.400 . S
C1747 C1748 1.398 . S
C1747 C1753 1.491 . S
C1748 H1739 0.950 . S
C1748 C1747 1.398 . S
C1748 C1749 1.391 . S
C1749 H1737 0.950 . S
C1749 C1745 1.393 . S
C1749 C1748 1.391 . S
C1750 H1740 0.950 . S
C1750 C1751 1.386 . S
C1750 C1752 1.391 . S
C1751 C1750 1.386 . S
C1751 C1755 1.393 . S
C1752 H1741 0.950 . S
C1752 C1750 1.391 . S
C1752 C1753 1.400 . S
C1753 C1747 1.491 . S
C1753 C1752 1.400 . S
C1753 C1754 1.398 . S
C1754 H1742 0.950 . S
C1754 C1753 1.398 . S
C1754 C1755 1.391 . S
C1755 H1743 0.950 . S
C1755 C1751 1.393 . S
C1755 C1754 1.391 . S
H1756 C1764 0.950 . S
H1757 C1769 0.950 . S
H1758 C1766 0.950 . S
H1759 C1768 0.950 . S
H1760 C1770 0.950 . S
H1761 C1772 0.950 . S
H1762 C1774 0.950 . S
H1763 C1775 0.950 . S
C1764 H1756 0.950 . S
C1764 C1765 1.386 . S
C1764 C1766 1.391 . S
C1765 C1764 1.386 . S
C1765 C1769 1.393 . S
C1766 H1758 0.950 . S
C1766 C1764 1.391 . S
C1766 C1767 1.400 . S
C1767 C1766 1.400 . S
C1767 C1768 1.398 . S
C1767 C1773 1.491 . S
C1768 H1759 0.950 . S
C1768 C1767 1.398 . S
C1768 C1769 1.391 . S
C1769 H1757 0.950 . S
C1769 C1765 1.393 . S
C1769 C1768 1.391 . S
C1770 H1760 0.950 . S
C1770 C1771 1.386 . S
C1770 C1772 1.391 . S
C1771 C1770 1.386 . S
C1771 C1775 1.393 . S
C1772 H1761 0.950 . S
C1772 C1770 1.391 . S
C1772 C1773 1.400 . S
C1773 C1767 1.491 . S
C1773 C1772 1.400 . S
C1773 C1774 1.398 . S
C1774 H1762 0.950 . S
C1774 C1773 1.398 . S
C1774 C1775 1.391 . S
C1775 H1763 0.950 . S
C1775 C1771 1.393 . S
C1775 C1774 1.391 . S
H1776 C1784 0.950 . S
H1777 C1789 0.950 . S
H1778 C1786 0.950 . S
H1779 C1788 0.950 . S
H1780 C1790 0.950 . S
H1781 C1792 0.950 . S
H1782 C1794 0.950 1_554 S
H1783 C1795 0.950 . S
C1784 H1776 0.950 . S
C1784 C1785 1.386 . S
C1784 C1786 1.391 . S
C1785 C1784 1.386 . S
C1785 C1789 1.393 1_554 S
C1786 H1778 0.950 . S
C1786 C1784 1.391 . S
C1786 C1787 1.400 1_554 S
C1787 C1786 1.400 1_556 S
C1787 C1788 1.398 . S
C1787 C1793 1.491 . S
C1788 H1779 0.950 . S
C1788 C1787 1.398 . S
C1788 C1789 1.391 . S
C1789 H1777 0.950 . S
C1789 C1785 1.393 1_556 S
C1789 C1788 1.391 . S
C1790 H1780 0.950 . S
C1790 C1791 1.386 . S
C1790 C1792 1.391 . S
C1791 C1790 1.386 . S
C1791 C1795 1.393 . S
C1792 H1781 0.950 . S
C1792 C1790 1.391 . S
C1792 C1793 1.400 . S
C1793 C1787 1.491 . S
C1793 C1792 1.400 . S
C1793 C1794 1.398 . S
C1794 H1782 0.950 1_556 S
C1794 C1793 1.398 . S
C1794 C1795 1.391 . S
C1795 H1783 0.950 . S
C1795 C1791 1.393 . S
C1795 C1794 1.391 . S
H1796 C1804 0.950 . S
H1797 C1809 0.950 . S
H1798 C1806 0.950 . S
H1799 C1808 0.950 . S
H1800 C1810 0.950 . S
H1801 C1812 0.950 . S
H1802 C1814 0.950 . S
H1803 C1815 0.950 . S
C1804 H1796 0.950 . S
C1804 C1805 1.386 . S
C1804 C1806 1.391 . S
C1805 C1804 1.386 . S
C1805 C1809 1.393 . S
C1806 H1798 0.950 . S
C1806 C1804 1.391 . S
C1806 C1807 1.400 . S
C1807 C1806 1.400 . S
C1807 C1808 1.398 . S
C1807 C1813 1.491 . S
C1808 H1799 0.950 . S
C1808 C1807 1.398 . S
C1808 C1809 1.391 . S
C1809 H1797 0.950 . S
C1809 C1805 1.393 . S
C1809 C1808 1.391 . S
C1810 H1800 0.950 . S
C1810 C1811 1.386 . S
C1810 C1812 1.391 . S
C1811 C1810 1.386 . S
C1811 C1815 1.393 . S
C1812 H1801 0.950 . S
C1812 C1810 1.391 . S
C1812 C1813 1.400 . S
C1813 C1807 1.491 . S
C1813 C1812 1.400 . S
C1813 C1814 1.398 . S
C1814 H1802 0.950 . S
C1814 C1813 1.398 . S
C1814 C1815 1.391 . S
C1815 H1803 0.950 . S
C1815 C1811 1.393 . S
C1815 C1814 1.391 . S
H1816 C1824 0.950 . S
H1817 C1829 0.950 . S
H1818 C1826 0.950 . S
H1819 C1828 0.950 . S
H1820 C1830 0.950 . S
H1821 C1832 0.950 . S
H1822 C1834 0.950 . S
H1823 C1835 0.950 . S
C1824 H1816 0.950 . S
C1824 C1825 1.386 . S
C1824 C1826 1.391 . S
C1825 C1824 1.386 . S
C1825 C1829 1.393 . S
C1826 H1818 0.950 . S
C1826 C1824 1.391 . S
C1826 C1827 1.400 . S
C1827 C1826 1.400 . S
C1827 C1828 1.398 . S
C1827 C1833 1.491 . S
C1828 H1819 0.950 . S
C1828 C1827 1.398 . S
C1828 C1829 1.391 . S
C1829 H1817 0.950 . S
C1829 C1825 1.393 . S
C1829 C1828 1.391 . S
C1830 H1820 0.950 . S
C1830 C1831 1.386 . S
C1830 C1832 1.391 . S
C1831 C1830 1.386 . S
C1831 C1835 1.393 . S
C1832 H1821 0.950 . S
C1832 C1830 1.391 . S
C1832 C1833 1.400 . S
C1833 C1827 1.491 . S
C1833 C1832 1.400 . S
C1833 C1834 1.398 . S
C1834 H1822 0.950 . S
C1834 C1833 1.398 . S
C1834 C1835 1.391 . S
C1835 H1823 0.950 . S
C1835 C1831 1.393 . S
C1835 C1834 1.391 . S
H1836 C1844 0.950 . S
H1837 C1849 0.950 . S
H1838 C1846 0.950 . S
H1839 C1848 0.950 . S
H1840 C1850 0.950 . S
H1841 C1852 0.950 . S
H1842 C1854 0.950 . S
H1843 C1855 0.950 . S
C1844 H1836 0.950 . S
C1844 C1845 1.386 . S
C1844 C1846 1.391 . S
C1845 C1844 1.386 . S
C1845 C1849 1.393 . S
C1846 H1838 0.950 . S
C1846 C1844 1.391 . S
C1846 C1847 1.400 . S
C1847 C1846 1.400 . S
C1847 C1848 1.398 . S
C1847 C1853 1.491 . S
C1848 H1839 0.950 . S
C1848 C1847 1.398 . S
C1848 C1849 1.391 . S
C1849 H1837 0.950 . S
C1849 C1845 1.393 . S
C1849 C1848 1.391 . S
C1850 H1840 0.950 . S
C1850 C1851 1.386 . S
C1850 C1852 1.391 . S
C1851 C1850 1.386 . S
C1851 C1855 1.393 . S
C1852 H1841 0.950 . S
C1852 C1850 1.391 . S
C1852 C1853 1.400 . S
C1853 C1847 1.491 . S
C1853 C1852 1.400 . S
C1853 C1854 1.398 . S
C1854 H1842 0.950 . S
C1854 C1853 1.398 . S
C1854 C1855 1.391 . S
C1855 H1843 0.950 . S
C1855 C1851 1.393 . S
C1855 C1854 1.391 . S
H1856 C1864 0.950 . S
H1857 C1869 0.950 . S
H1858 C1866 0.950 . S
H1859 C1868 0.950 . S
H1860 C1870 0.950 . S
H1861 C1872 0.950 . S
H1862 C1874 0.950 1_545 S
H1863 C1875 0.950 . S
C1864 H1856 0.950 . S
C1864 C1865 1.386 . S
C1864 C1866 1.391 . S
C1865 C1864 1.386 . S
C1865 C1869 1.393 1_545 S
C1866 H1858 0.950 . S
C1866 C1864 1.391 . S
C1866 C1867 1.400 1_545 S
C1867 C1866 1.400 1_565 S
C1867 C1868 1.398 . S
C1867 C1873 1.491 . S
C1868 H1859 0.950 . S
C1868 C1867 1.398 . S
C1868 C1869 1.391 . S
C1869 H1857 0.950 . S
C1869 C1865 1.393 1_565 S
C1869 C1868 1.391 . S
C1870 H1860 0.950 . S
C1870 C1871 1.386 . S
C1870 C1872 1.391 . S
C1871 C1870 1.386 . S
C1871 C1875 1.393 . S
C1872 H1861 0.950 . S
C1872 C1870 1.391 . S
C1872 C1873 1.400 . S
C1873 C1867 1.491 . S
C1873 C1872 1.400 . S
C1873 C1874 1.398 . S
C1874 H1862 0.950 1_565 S
C1874 C1873 1.398 . S
C1874 C1875 1.391 . S
C1875 H1863 0.950 . S
C1875 C1871 1.393 . S
C1875 C1874 1.391 . S
H1876 C1884 0.950 . S
H1877 C1889 0.950 . S
H1878 C1886 0.950 . S
H1879 C1888 0.950 . S
H1880 C1890 0.950 . S
H1881 C1892 0.950 . S
H1882 C1894 0.950 . S
H1883 C1895 0.950 . S
C1884 H1876 0.950 . S
C1884 C1885 1.386 . S
C1884 C1886 1.391 . S
C1885 C1884 1.386 . S
C1885 C1889 1.393 . S
C1886 H1878 0.950 . S
C1886 C1884 1.391 . S
C1886 C1887 1.400 . S
C1887 C1886 1.400 . S
C1887 C1888 1.398 . S
C1887 C1893 1.491 . S
C1888 H1879 0.950 . S
C1888 C1887 1.398 . S
C1888 C1889 1.391 . S
C1889 H1877 0.950 . S
C1889 C1885 1.393 . S
C1889 C1888 1.391 . S
C1890 H1880 0.950 . S
C1890 C1891 1.386 . S
C1890 C1892 1.391 . S
C1891 C1890 1.386 . S
C1891 C1895 1.393 . S
C1892 H1881 0.950 . S
C1892 C1890 1.391 . S
C1892 C1893 1.400 . S
C1893 C1887 1.491 . S
C1893 C1892 1.400 . S
C1893 C1894 1.398 . S
C1894 H1882 0.950 . S
C1894 C1893 1.398 . S
C1894 C1895 1.391 . S
C1895 H1883 0.950 . S
C1895 C1891 1.393 . S
C1895 C1894 1.391 . S
H1896 C1904 0.950 . S
H1897 C1909 0.950 . S
H1898 C1906 0.950 . S
H1899 C1908 0.950 . S
H1900 C1910 0.950 . S
H1901 C1912 0.950 . S
H1902 C1914 0.950 . S
H1903 C1915 0.950 . S
C1904 H1896 0.950 . S
C1904 C1905 1.386 . S
C1904 C1906 1.391 . S
C1905 C1904 1.386 . S
C1905 C1909 1.393 . S
C1906 H1898 0.950 . S
C1906 C1904 1.391 . S
C1906 C1907 1.400 . S
C1907 C1906 1.400 . S
C1907 C1908 1.398 . S
C1907 C1913 1.491 . S
C1908 H1899 0.950 . S
C1908 C1907 1.398 . S
C1908 C1909 1.391 . S
C1909 H1897 0.950 . S
C1909 C1905 1.393 . S
C1909 C1908 1.391 . S
C1910 H1900 0.950 . S
C1910 C1911 1.386 . S
C1910 C1912 1.391 . S
C1911 C1910 1.386 . S
C1911 C1915 1.393 . S
C1912 H1901 0.950 . S
C1912 C1910 1.391 . S
C1912 C1913 1.400 . S
C1913 C1907 1.491 . S
C1913 C1912 1.400 . S
C1913 C1914 1.398 . S
C1914 H1902 0.950 . S
C1914 C1913 1.398 . S
C1914 C1915 1.391 . S
C1915 H1903 0.950 . S
C1915 C1911 1.393 . S
C1915 C1914 1.391 . S
H1916 C1924 0.950 . S
H1917 C1929 0.950 . S
H1918 C1926 0.950 . S
H1919 C1928 0.950 . S
H1920 C1930 0.950 . S
H1921 C1932 0.950 . S
H1922 C1934 0.950 . S
H1923 C1935 0.950 . S
C1924 H1916 0.950 . S
C1924 C1925 1.386 . S
C1924 C1926 1.391 . S
C1925 C1924 1.386 . S
C1925 C1929 1.393 . S
C1926 H1918 0.950 . S
C1926 C1924 1.391 . S
C1926 C1927 1.400 . S
C1927 C1926 1.400 . S
C1927 C1928 1.398 . S
C1927 C1933 1.491 . S
C1928 H1919 0.950 . S
C1928 C1927 1.398 . S
C1928 C1929 1.391 . S
C1929 H1917 0.950 . S
C1929 C1925 1.393 . S
C1929 C1928 1.391 . S
C1930 H1920 0.950 . S
C1930 C1931 1.386 . S
C1930 C1932 1.391 . S
C1931 C1930 1.386 . S
C1931 C1935 1.393 . S
C1932 H1921 0.950 . S
C1932 C1930 1.391 . S
C1932 C1933 1.400 . S
C1933 C1927 1.491 . S
C1933 C1932 1.400 . S
C1933 C1934 1.398 . S
C1934 H1922 0.950 . S
C1934 C1933 1.398 . S
C1934 C1935 1.391 . S
C1935 H1923 0.950 . S
C1935 C1931 1.393 . S
C1935 C1934 1.391 . S
H1936 C1944 0.950 . S
H1937 C1949 0.950 . S
H1938 C1946 0.950 . S
H1939 C1948 0.950 . S
H1940 C1950 0.950 . S
H1941 C1952 0.950 . S
H1942 C1954 0.950 . S
H1943 C1955 0.950 . S
C1944 H1936 0.950 . S
C1944 C1945 1.386 . S
C1944 C1946 1.391 . S
C1945 C1944 1.386 . S
C1945 C1949 1.393 . S
C1946 H1938 0.950 . S
C1946 C1944 1.391 . S
C1946 C1947 1.400 . S
C1947 C1946 1.400 . S
C1947 C1948 1.398 . S
C1947 C1953 1.491 . S
C1948 H1939 0.950 . S
C1948 C1947 1.398 . S
C1948 C1949 1.391 . S
C1949 H1937 0.950 . S
C1949 C1945 1.393 . S
C1949 C1948 1.391 . S
C1950 H1940 0.950 . S
C1950 C1951 1.386 . S
C1950 C1952 1.391 . S
C1951 C1950 1.386 . S
C1951 C1955 1.393 . S
C1952 H1941 0.950 . S
C1952 C1950 1.391 . S
C1952 C1953 1.400 . S
C1953 C1947 1.491 . S
C1953 C1952 1.400 . S
C1953 C1954 1.398 . S
C1954 H1942 0.950 . S
C1954 C1953 1.398 . S
C1954 C1955 1.391 . S
C1955 H1943 0.950 . S
C1955 C1951 1.393 . S
C1955 C1954 1.391 . S
H1956 C1964 0.950 . S
H1957 C1969 0.950 . S
H1958 C1966 0.950 . S
H1959 C1968 0.950 . S
H1960 C1970 0.950 . S
H1961 C1972 0.950 . S
H1962 C1974 0.950 . S
H1963 C1975 0.950 . S
C1964 H1956 0.950 . S
C1964 C1965 1.386 . S
C1964 C1966 1.391 . S
C1965 C1964 1.386 . S
C1965 C1969 1.393 . S
C1966 H1958 0.950 . S
C1966 C1964 1.391 . S
C1966 C1967 1.400 . S
C1967 C1966 1.400 . S
C1967 C1968 1.398 . S
C1967 C1973 1.491 . S
C1968 H1959 0.950 . S
C1968 C1967 1.398 . S
C1968 C1969 1.391 . S
C1969 H1957 0.950 . S
C1969 C1965 1.393 . S
C1969 C1968 1.391 . S
C1970 H1960 0.950 . S
C1970 C1971 1.386 . S
C1970 C1972 1.391 . S
C1971 C1970 1.386 . S
C1971 C1975 1.393 . S
C1972 H1961 0.950 . S
C1972 C1970 1.391 . S
C1972 C1973 1.400 . S
C1973 C1967 1.491 . S
C1973 C1972 1.400 . S
C1973 C1974 1.398 . S
C1974 H1962 0.950 . S
C1974 C1973 1.398 . S
C1974 C1975 1.391 . S
C1975 H1963 0.950 . S
C1975 C1971 1.393 . S
C1975 C1974 1.391 . S
H1976 C1984 0.950 1_655 S
H1977 C1989 0.950 . S
H1978 C1986 0.950 1_655 S
H1979 C1988 0.950 . S
H1980 C1990 0.950 . S
H1981 C1992 0.950 . S
H1982 C1994 0.950 . S
H1983 C1995 0.955 . S
C1984 H1976 0.950 1_455 S
C1984 C1985 1.386 . S
C1984 C1986 1.391 . S
C1985 C1984 1.386 . S
C1985 C1989 1.393 . S
C1986 H1978 0.950 1_455 S
C1986 C1984 1.391 . S
C1986 C1987 1.400 . S
C1987 C1986 1.400 . S
C1987 C1988 1.398 . S
C1987 C1993 1.491 . S
C1988 H1979 0.950 . S
C1988 C1987 1.398 . S
C1988 C1989 1.391 . S
C1989 H1977 0.950 . S
C1989 C1985 1.393 . S
C1989 C1988 1.391 . S
C1990 H1980 0.950 . S
C1990 C1991 1.386 . S
C1990 C1992 1.391 . S
C1991 C1990 1.386 . S
C1991 C1995 1.393 . S
C1992 H1981 0.950 . S
C1992 C1990 1.391 . S
C1992 C1993 1.400 . S
C1993 C1987 1.491 . S
C1993 C1992 1.400 . S
C1993 C1994 1.398 . S
C1994 H1982 0.950 . S
C1994 C1993 1.398 . S
C1994 C1995 1.391 . S
C1995 H1983 0.955 . S
C1995 C1991 1.393 . S
C1995 C1994 1.391 . S
H1996 C2004 0.950 . S
H1997 C2009 0.950 . S
H1998 C2006 0.950 . S
H1999 C2008 0.950 . S
H2000 C2010 0.950 . S
H2001 C2012 0.950 . S
H2002 C2014 0.950 . S
H2003 C2015 0.950 . S
C2004 H1996 0.950 . S
C2004 C2005 1.386 . S
C2004 C2006 1.391 . S
C2005 C2004 1.386 . S
C2005 C2009 1.393 . S
C2006 H1998 0.950 . S
C2006 C2004 1.391 . S
C2006 C2007 1.400 1_455 S
C2007 C2006 1.400 1_655 S
C2007 C2008 1.398 . S
C2007 C2013 1.491 . S
C2008 H1999 0.950 . S
C2008 C2007 1.398 . S
C2008 C2009 1.391 1_655 S
C2009 H1997 0.950 . S
C2009 C2005 1.393 . S
C2009 C2008 1.391 1_455 S
C2010 H2000 0.950 . S
C2010 C2011 1.386 . S
C2010 C2012 1.391 . S
C2011 C2010 1.386 . S
C2011 C2015 1.393 . S
C2012 H2001 0.950 . S
C2012 C2010 1.391 . S
C2012 C2013 1.400 . S
C2013 C2007 1.491 . S
C2013 C2012 1.400 . S
C2013 C2014 1.398 . S
C2014 H2002 0.950 . S
C2014 C2013 1.398 . S
C2014 C2015 1.391 . S
C2015 H2003 0.950 . S
C2015 C2011 1.393 . S
C2015 C2014 1.391 . S
H2016 C2024 0.950 . S
H2017 C2029 0.950 . S
H2018 C2026 0.950 . S
H2019 C2028 0.950 . S
H2020 C2030 0.950 . S
H2021 C2032 0.950 . S
H2022 C2034 0.950 . S
H2023 C2035 0.950 . S
C2024 H2016 0.950 . S
C2024 C2025 1.386 . S
C2024 C2026 1.391 . S
C2025 C2024 1.386 . S
C2025 C2029 1.393 . S
C2026 H2018 0.950 . S
C2026 C2024 1.391 . S
C2026 C2027 1.400 . S
C2027 C2026 1.400 . S
C2027 C2028 1.398 . S
C2027 C2033 1.491 . S
C2028 H2019 0.950 . S
C2028 C2027 1.398 . S
C2028 C2029 1.391 . S
C2029 H2017 0.950 . S
C2029 C2025 1.393 . S
C2029 C2028 1.391 . S
C2030 H2020 0.950 . S
C2030 C2031 1.386 . S
C2030 C2032 1.391 . S
C2031 C2030 1.386 . S
C2031 C2035 1.393 . S
C2032 H2021 0.950 . S
C2032 C2030 1.391 . S
C2032 C2033 1.400 . S
C2033 C2027 1.491 . S
C2033 C2032 1.400 . S
C2033 C2034 1.398 . S
C2034 H2022 0.950 . S
C2034 C2033 1.398 . S
C2034 C2035 1.391 . S
C2035 H2023 0.950 . S
C2035 C2031 1.393 . S
C2035 C2034 1.391 . S
H2036 C2044 0.950 . S
H2037 C2049 0.950 . S
H2038 C2046 0.973 . S
H2039 C2048 0.950 . S
H2040 C2050 0.950 . S
H2041 C2052 0.950 . S
H2042 C2054 0.950 . S
H2043 C2055 0.950 . S
C2044 H2036 0.950 . S
C2044 C2045 1.386 . S
C2044 C2046 1.391 . S
C2045 C2044 1.386 . S
C2045 C2049 1.393 . S
C2046 H2038 0.973 . S
C2046 C2044 1.391 . S
C2046 C2047 1.400 . S
C2047 C2046 1.400 . S
C2047 C2048 1.398 . S
C2047 C2053 1.491 1_455 S
C2048 H2039 0.950 . S
C2048 C2047 1.398 . S
C2048 C2049 1.391 . S
C2049 H2037 0.950 . S
C2049 C2045 1.393 . S
C2049 C2048 1.391 . S
C2050 H2040 0.950 . S
C2050 C2051 1.386 . S
C2050 C2052 1.391 . S
C2051 C2050 1.386 . S
C2051 C2055 1.393 . S
C2052 H2041 0.950 . S
C2052 C2050 1.391 . S
C2052 C2053 1.400 . S
C2053 C2047 1.491 1_655 S
C2053 C2052 1.400 . S
C2053 C2054 1.398 . S
C2054 H2042 0.950 . S
C2054 C2053 1.398 . S
C2054 C2055 1.391 . S
C2055 H2043 0.950 . S
C2055 C2051 1.393 . S
C2055 C2054 1.391 . S
H2056 C2064 0.950 . S
H2057 C2069 0.950 . S
H2058 C2066 0.950 . S
H2059 C2068 0.950 . S
H2060 C2070 0.950 . S
H2061 C2072 0.950 1_655 S
H2062 C2074 0.950 . S
H2063 C2075 0.950 . S
C2064 H2056 0.950 . S
C2064 C2065 1.386 1_455 S
C2064 C2066 1.391 . S
C2065 C2064 1.386 1_655 S
C2065 C2069 1.393 . S
C2066 H2058 0.950 . S
C2066 C2064 1.391 . S
C2066 C2067 1.400 . S
C2067 C2066 1.400 . S
C2067 C2068 1.398 1_455 S
C2067 C2073 1.491 . S
C2068 H2059 0.950 . S
C2068 C2067 1.398 1_655 S
C2068 C2069 1.391 . S
C2069 H2057 0.950 . S
C2069 C2065 1.393 . S
C2069 C2068 1.391 . S
C2070 H2060 0.950 . S
C2070 C2071 1.386 . S
C2070 C2072 1.391 . S
C2071 C2070 1.386 . S
C2071 C2075 1.393 . S
C2072 H2061 0.950 1_455 S
C2072 C2070 1.391 . S
C2072 C2073 1.400 . S
C2073 C2067 1.491 . S
C2073 C2072 1.400 . S
C2073 C2074 1.398 . S
C2074 H2062 0.950 . S
C2074 C2073 1.398 . S
C2074 C2075 1.391 . S
C2075 H2063 0.950 . S
C2075 C2071 1.393 . S
C2075 C2074 1.391 . S
H2076 C2084 0.950 . S
H2077 C2089 0.950 . S
H2078 C2086 0.950 . S
H2079 C2088 0.950 . S
H2080 C2090 0.950 . S
H2081 C2092 0.950 . S
H2082 C2094 0.950 . S
H2083 C2095 0.950 . S
C2084 H2076 0.950 . S
C2084 C2085 1.386 . S
C2084 C2086 1.391 . S
C2085 C2084 1.386 . S
C2085 C2089 1.393 . S
C2086 H2078 0.950 . S
C2086 C2084 1.391 . S
C2086 C2087 1.400 . S
C2087 C2086 1.400 . S
C2087 C2088 1.398 . S
C2087 C2093 1.491 . S
C2088 H2079 0.950 . S
C2088 C2087 1.398 . S
C2088 C2089 1.391 . S
C2089 H2077 0.950 . S
C2089 C2085 1.393 . S
C2089 C2088 1.391 . S
C2090 H2080 0.950 . S
C2090 C2091 1.386 . S
C2090 C2092 1.391 . S
C2091 C2090 1.386 . S
C2091 C2095 1.393 . S
C2092 H2081 0.950 . S
C2092 C2090 1.391 . S
C2092 C2093 1.400 . S
C2093 C2087 1.491 . S
C2093 C2092 1.400 . S
C2093 C2094 1.398 . S
C2094 H2082 0.950 . S
C2094 C2093 1.398 . S
C2094 C2095 1.391 . S
C2095 H2083 0.950 . S
C2095 C2091 1.393 . S
C2095 C2094 1.391 . S
H2096 C2104 0.950 . S
H2097 C2109 0.950 . S
H2098 C2106 0.950 . S
H2099 C2108 0.950 . S
H2100 C2110 0.950 . S
H2101 C2112 0.950 . S
H2102 C2114 0.950 . S
H2103 C2115 0.950 . S
C2104 H2096 0.950 . S
C2104 C2105 1.386 . S
C2104 C2106 1.391 . S
C2105 C2104 1.386 . S
C2105 C2109 1.393 . S
C2106 H2098 0.950 . S
C2106 C2104 1.391 . S
C2106 C2107 1.400 . S
C2107 C2106 1.400 . S
C2107 C2108 1.398 . S
C2107 C2113 1.491 . S
C2108 H2099 0.950 . S
C2108 C2107 1.398 . S
C2108 C2109 1.391 . S
C2109 H2097 0.950 . S
C2109 C2105 1.393 . S
C2109 C2108 1.391 . S
C2110 H2100 0.950 . S
C2110 C2111 1.386 . S
C2110 C2112 1.391 . S
C2111 C2110 1.386 . S
C2111 C2115 1.393 . S
C2112 H2101 0.950 . S
C2112 C2110 1.391 . S
C2112 C2113 1.400 . S
C2113 C2107 1.491 . S
C2113 C2112 1.400 . S
C2113 C2114 1.398 . S
C2114 H2102 0.950 . S
C2114 C2113 1.398 . S
C2114 C2115 1.391 . S
C2115 H2103 0.950 . S
C2115 C2111 1.393 . S
C2115 C2114 1.391 . S
H2116 C2124 0.950 . S
H2117 C2129 0.950 . S
H2118 C2126 0.950 . S
H2119 C2128 0.950 . S
H2120 C2130 0.950 . S
H2121 C2132 0.950 . S
H2122 C2134 0.950 . S
H2123 C2135 0.950 . S
C2124 H2116 0.950 . S
C2124 C2125 1.386 . S
C2124 C2126 1.391 . S
C2125 C2124 1.386 . S
C2125 C2129 1.393 . S
C2126 H2118 0.950 . S
C2126 C2124 1.391 . S
C2126 C2127 1.400 . S
C2127 C2126 1.400 . S
C2127 C2128 1.398 . S
C2127 C2133 1.491 . S
C2128 H2119 0.950 . S
C2128 C2127 1.398 . S
C2128 C2129 1.391 . S
C2129 H2117 0.950 . S
C2129 C2125 1.393 . S
C2129 C2128 1.391 . S
C2130 H2120 0.950 . S
C2130 C2131 1.386 . S
C2130 C2132 1.391 . S
C2131 C2130 1.386 . S
C2131 C2135 1.393 . S
C2132 H2121 0.950 . S
C2132 C2130 1.391 . S
C2132 C2133 1.400 . S
C2133 C2127 1.491 . S
C2133 C2132 1.400 . S
C2133 C2134 1.398 . S
C2134 H2122 0.950 . S
C2134 C2133 1.398 . S
C2134 C2135 1.391 . S
C2135 H2123 0.950 . S
C2135 C2131 1.393 . S
C2135 C2134 1.391 . S
H2136 C2144 0.950 . S
H2137 C2149 0.950 . S
H2138 C2146 0.950 . S
H2139 C2148 0.950 . S
H2140 C2150 0.950 . S
H2141 C2152 0.950 . S
H2142 C2154 0.950 . S
H2143 C2155 0.950 . S
C2144 H2136 0.950 . S
C2144 C2145 1.386 . S
C2144 C2146 1.391 . S
C2145 C2144 1.386 . S
C2145 C2149 1.393 . S
C2146 H2138 0.950 . S
C2146 C2144 1.391 . S
C2146 C2147 1.400 . S
C2147 C2146 1.400 . S
C2147 C2148 1.398 . S
C2147 C2153 1.491 . S
C2148 H2139 0.950 . S
C2148 C2147 1.398 . S
C2148 C2149 1.391 . S
C2149 H2137 0.950 . S
C2149 C2145 1.393 . S
C2149 C2148 1.391 . S
C2150 H2140 0.950 . S
C2150 C2151 1.386 . S
C2150 C2152 1.391 . S
C2151 C2150 1.386 . S
C2151 C2155 1.393 . S
C2152 H2141 0.950 . S
C2152 C2150 1.391 . S
C2152 C2153 1.400 . S
C2153 C2147 1.491 . S
C2153 C2152 1.400 . S
C2153 C2154 1.398 . S
C2154 H2142 0.950 . S
C2154 C2153 1.398 . S
C2154 C2155 1.391 . S
C2155 H2143 0.950 . S
C2155 C2151 1.393 . S
C2155 C2154 1.391 . S
H2156 C2164 0.950 . S
H2157 C2169 0.950 . S
H2158 C2166 0.950 . S
H2159 C2168 0.950 . S
H2160 C2170 0.950 . S
H2161 C2172 0.950 . S
H2162 C2174 0.950 . S
H2163 C2175 0.950 . S
C2164 H2156 0.950 . S
C2164 C2165 1.386 . S
C2164 C2166 1.391 . S
C2165 C2164 1.386 . S
C2165 C2169 1.393 . S
C2166 H2158 0.950 . S
C2166 C2164 1.391 . S
C2166 C2167 1.400 . S
C2167 C2166 1.400 . S
C2167 C2168 1.398 . S
C2167 C2173 1.491 . S
C2168 H2159 0.950 . S
C2168 C2167 1.398 . S
C2168 C2169 1.391 . S
C2169 H2157 0.950 . S
C2169 C2165 1.393 . S
C2169 C2168 1.391 . S
C2170 H2160 0.950 . S
C2170 C2171 1.386 . S
C2170 C2172 1.391 . S
C2171 C2170 1.386 . S
C2171 C2175 1.393 . S
C2172 H2161 0.950 . S
C2172 C2170 1.391 . S
C2172 C2173 1.400 . S
C2173 C2167 1.491 . S
C2173 C2172 1.400 . S
C2173 C2174 1.398 . S
C2174 H2162 0.950 . S
C2174 C2173 1.398 . S
C2174 C2175 1.391 . S
C2175 H2163 0.950 . S
C2175 C2171 1.393 . S
C2175 C2174 1.391 . S
H2176 C2184 0.950 . S
H2177 C2189 0.950 . S
H2178 C2186 0.950 . S
H2179 C2188 0.950 . S
H2180 C2190 0.950 . S
H2181 C2192 0.950 . S
H2182 C2194 0.950 . S
H2183 C2195 0.950 . S
C2184 H2176 0.950 . S
C2184 C2185 1.386 . S
C2184 C2186 1.391 . S
C2185 C2184 1.386 . S
C2185 C2189 1.393 . S
C2186 H2178 0.950 . S
C2186 C2184 1.391 . S
C2186 C2187 1.400 . S
C2187 C2186 1.400 . S
C2187 C2188 1.398 . S
C2187 C2193 1.491 . S
C2188 H2179 0.950 . S
C2188 C2187 1.398 . S
C2188 C2189 1.391 . S
C2189 H2177 0.950 . S
C2189 C2185 1.393 . S
C2189 C2188 1.391 . S
C2190 H2180 0.950 . S
C2190 C2191 1.386 . S
C2190 C2192 1.391 . S
C2191 C2190 1.386 . S
C2191 C2195 1.393 . S
C2192 H2181 0.950 . S
C2192 C2190 1.391 . S
C2192 C2193 1.400 . S
C2193 C2187 1.491 . S
C2193 C2192 1.400 . S
C2193 C2194 1.398 . S
C2194 H2182 0.950 . S
C2194 C2193 1.398 . S
C2194 C2195 1.391 . S
C2195 H2183 0.950 . S
C2195 C2191 1.393 . S
C2195 C2194 1.391 . S
H2196 C2204 0.950 . S
H2197 C2209 0.950 . S
H2198 C2206 0.950 . S
H2199 C2208 0.950 . S
H2200 C2210 0.950 . S
H2201 C2212 0.950 . S
H2202 C2214 0.950 . S
H2203 C2215 0.950 . S
C2204 H2196 0.950 . S
C2204 C2205 1.386 . S
C2204 C2206 1.391 . S
C2205 C2204 1.386 . S
C2205 C2209 1.393 . S
C2206 H2198 0.950 . S
C2206 C2204 1.391 . S
C2206 C2207 1.400 . S
C2207 C2206 1.400 . S
C2207 C2208 1.398 . S
C2207 C2213 1.491 . S
C2208 H2199 0.950 . S
C2208 C2207 1.398 . S
C2208 C2209 1.391 . S
C2209 H2197 0.950 . S
C2209 C2205 1.393 . S
C2209 C2208 1.391 . S
C2210 H2200 0.950 . S
C2210 C2211 1.386 . S
C2210 C2212 1.391 . S
C2211 C2210 1.386 . S
C2211 C2215 1.393 . S
C2212 H2201 0.950 . S
C2212 C2210 1.391 . S
C2212 C2213 1.400 . S
C2213 C2207 1.491 . S
C2213 C2212 1.400 . S
C2213 C2214 1.398 . S
C2214 H2202 0.950 . S
C2214 C2213 1.398 . S
C2214 C2215 1.391 . S
C2215 H2203 0.950 . S
C2215 C2211 1.393 . S
C2215 C2214 1.391 . S
H2216 C2224 0.950 . S
H2217 C2229 0.950 . S
H2218 C2226 0.950 . S
H2219 C2228 0.950 . S
H2220 C2230 0.950 . S
H2221 C2232 0.950 . S
H2222 C2234 0.950 . S
H2223 C2235 0.950 . S
C2224 H2216 0.950 . S
C2224 C2225 1.386 . S
C2224 C2226 1.391 . S
C2225 C2224 1.386 . S
C2225 C2229 1.393 . S
C2226 H2218 0.950 . S
C2226 C2224 1.391 . S
C2226 C2227 1.400 . S
C2227 C2226 1.400 . S
C2227 C2228 1.398 . S
C2227 C2233 1.491 . S
C2228 H2219 0.950 . S
C2228 C2227 1.398 . S
C2228 C2229 1.391 . S
C2229 H2217 0.950 . S
C2229 C2225 1.393 . S
C2229 C2228 1.391 . S
C2230 H2220 0.950 . S
C2230 C2231 1.386 . S
C2230 C2232 1.391 . S
C2231 C2230 1.386 . S
C2231 C2235 1.393 . S
C2232 H2221 0.950 . S
C2232 C2230 1.391 . S
C2232 C2233 1.400 . S
C2233 C2227 1.491 . S
C2233 C2232 1.400 . S
C2233 C2234 1.398 . S
C2234 H2222 0.950 . S
C2234 C2233 1.398 . S
C2234 C2235 1.391 . S
C2235 H2223 0.950 . S
C2235 C2231 1.393 . S
C2235 C2234 1.391 . S
H2236 C2244 0.950 . S
H2237 C2249 0.950 . S
H2238 C2246 0.950 . S
H2239 C2248 0.950 . S
H2240 C2250 0.950 . S
H2241 C2252 0.950 . S
H2242 C2254 0.950 . S
H2243 C2255 0.950 . S
C2244 H2236 0.950 . S
C2244 C2245 1.386 . S
C2244 C2246 1.391 . S
C2245 C2244 1.386 . S
C2245 C2249 1.393 . S
C2246 H2238 0.950 . S
C2246 C2244 1.391 . S
C2246 C2247 1.400 . S
C2247 C2246 1.400 . S
C2247 C2248 1.398 . S
C2247 C2253 1.491 . S
C2248 H2239 0.950 . S
C2248 C2247 1.398 . S
C2248 C2249 1.391 . S
C2249 H2237 0.950 . S
C2249 C2245 1.393 . S
C2249 C2248 1.391 . S
C2250 H2240 0.950 . S
C2250 C2251 1.386 . S
C2250 C2252 1.391 . S
C2251 C2250 1.386 . S
C2251 C2255 1.393 . S
C2252 H2241 0.950 . S
C2252 C2250 1.391 . S
C2252 C2253 1.400 . S
C2253 C2247 1.491 . S
C2253 C2252 1.400 . S
C2253 C2254 1.398 . S
C2254 H2242 0.950 . S
C2254 C2253 1.398 . S
C2254 C2255 1.391 . S
C2255 H2243 0.950 . S
C2255 C2251 1.393 . S
C2255 C2254 1.391 . S
H2256 C2264 0.950 . S
H2257 C2269 0.950 . S
H2258 C2266 0.950 . S
H2259 C2268 0.950 . S
H2260 C2270 0.950 . S
H2261 C2272 0.950 . S
H2262 C2274 0.950 . S
H2263 C2275 0.950 . S
C2264 H2256 0.950 . S
C2264 C2265 1.386 . S
C2264 C2266 1.391 . S
C2265 C2264 1.386 . S
C2265 C2269 1.393 . S
C2266 H2258 0.950 . S
C2266 C2264 1.391 . S
C2266 C2267 1.400 . S
C2267 C2266 1.400 . S
C2267 C2268 1.398 . S
C2267 C2273 1.491 . S
C2268 H2259 0.950 . S
C2268 C2267 1.398 . S
C2268 C2269 1.391 . S
C2269 H2257 0.950 . S
C2269 C2265 1.393 . S
C2269 C2268 1.391 . S
C2270 H2260 0.950 . S
C2270 C2271 1.386 . S
C2270 C2272 1.391 . S
C2271 C2270 1.386 . S
C2271 C2275 1.393 . S
C2272 H2261 0.950 . S
C2272 C2270 1.391 . S
C2272 C2273 1.400 . S
C2273 C2267 1.491 . S
C2273 C2272 1.400 . S
C2273 C2274 1.398 . S
C2274 H2262 0.950 . S
C2274 C2273 1.398 . S
C2274 C2275 1.391 . S
C2275 H2263 0.950 . S
C2275 C2271 1.393 . S
C2275 C2274 1.391 . S
H2276 C2284 0.950 . S
H2277 C2289 0.950 . S
H2278 C2286 0.950 . S
H2279 C2288 0.950 . S
H2280 C2290 0.950 . S
H2281 C2292 0.950 . S
H2282 C2294 0.950 . S
H2283 C2295 0.950 . S
C2284 H2276 0.950 . S
C2284 C2285 1.386 . S
C2284 C2286 1.391 . S
C2285 C2284 1.386 . S
C2285 C2289 1.393 . S
C2286 H2278 0.950 . S
C2286 C2284 1.391 . S
C2286 C2287 1.400 . S
C2287 C2286 1.400 . S
C2287 C2288 1.398 . S
C2287 C2293 1.491 . S
C2288 H2279 0.950 . S
C2288 C2287 1.398 . S
C2288 C2289 1.391 . S
C2289 H2277 0.950 . S
C2289 C2285 1.393 . S
C2289 C2288 1.391 . S
C2290 H2280 0.950 . S
C2290 C2291 1.386 . S
C2290 C2292 1.391 . S
C2291 C2290 1.386 . S
C2291 C2295 1.393 . S
C2292 H2281 0.950 . S
C2292 C2290 1.391 . S
C2292 C2293 1.400 . S
C2293 C2287 1.491 . S
C2293 C2292 1.400 . S
C2293 C2294 1.398 . S
C2294 H2282 0.950 . S
C2294 C2293 1.398 . S
C2294 C2295 1.391 . S
C2295 H2283 0.950 . S
C2295 C2291 1.393 . S
C2295 C2294 1.391 . S
H2296 C2304 0.950 . S
H2297 C2309 0.950 . S
H2298 C2306 0.950 . S
H2299 C2308 0.950 . S
H2300 C2310 0.950 . S
H2301 C2312 0.950 . S
H2302 C2314 0.950 . S
H2303 C2315 0.950 . S
C2304 H2296 0.950 . S
C2304 C2305 1.386 . S
C2304 C2306 1.391 . S
C2305 C2304 1.386 . S
C2305 C2309 1.393 . S
C2306 H2298 0.950 . S
C2306 C2304 1.391 . S
C2306 C2307 1.400 . S
C2307 C2306 1.400 . S
C2307 C2308 1.398 . S
C2307 C2313 1.491 . S
C2308 H2299 0.950 . S
C2308 C2307 1.398 . S
C2308 C2309 1.391 . S
C2309 H2297 0.950 . S
C2309 C2305 1.393 . S
C2309 C2308 1.391 . S
C2310 H2300 0.950 . S
C2310 C2311 1.386 . S
C2310 C2312 1.391 . S
C2311 C2310 1.386 . S
C2311 C2315 1.393 . S
C2312 H2301 0.950 . S
C2312 C2310 1.391 . S
C2312 C2313 1.400 . S
C2313 C2307 1.491 . S
C2313 C2312 1.400 . S
C2313 C2314 1.398 . S
C2314 H2302 0.950 . S
C2314 C2313 1.398 . S
C2314 C2315 1.391 . S
C2315 H2303 0.950 . S
C2315 C2311 1.393 . S
C2315 C2314 1.391 . S
H2316 C2324 0.950 . S
H2317 C2329 0.950 . S
H2318 C2326 0.950 . S
H2319 C2328 0.950 . S
H2320 C2330 0.950 . S
H2321 C2332 0.950 . S
H2322 C2334 0.950 . S
H2323 C2335 0.950 . S
C2324 H2316 0.950 . S
C2324 C2325 1.386 1_556 S
C2324 C2326 1.391 . S
C2325 C2324 1.386 1_554 S
C2325 C2329 1.393 . S
C2326 H2318 0.950 . S
C2326 C2324 1.391 . S
C2326 C2327 1.400 1_556 S
C2327 C2326 1.400 1_554 S
C2327 C2328 1.398 . S
C2327 C2333 1.491 . S
C2328 H2319 0.950 . S
C2328 C2327 1.398 . S
C2328 C2329 1.391 . S
C2329 H2317 0.950 . S
C2329 C2325 1.393 . S
C2329 C2328 1.391 . S
C2330 H2320 0.950 . S
C2330 C2331 1.386 1_565 S
C2330 C2332 1.391 . S
C2331 C2330 1.386 1_545 S
C2331 C2335 1.393 1_554 S
C2332 H2321 0.950 . S
C2332 C2330 1.391 . S
C2332 C2333 1.400 . S
C2333 C2327 1.491 . S
C2333 C2332 1.400 . S
C2333 C2334 1.398 1_554 S
C2334 H2322 0.950 . S
C2334 C2333 1.398 1_556 S
C2334 C2335 1.391 1_565 S
C2335 H2323 0.950 . S
C2335 C2331 1.393 1_556 S
C2335 C2334 1.391 1_545 S
H2336 C2344 0.950 . S
H2337 C2349 0.950 . S
H2338 C2346 0.950 . S
H2339 C2348 0.950 . S
H2340 C2350 0.950 . S
H2341 C2352 0.950 . S
H2342 C2354 0.950 . S
H2343 C2355 0.950 . S
C2344 H2336 0.950 . S
C2344 C2345 1.386 . S
C2344 C2346 1.391 . S
C2345 C2344 1.386 . S
C2345 C2349 1.393 . S
C2346 H2338 0.950 . S
C2346 C2344 1.391 . S
C2346 C2347 1.400 . S
C2347 C2346 1.400 . S
C2347 C2348 1.398 . S
C2347 C2353 1.491 . S
C2348 H2339 0.950 . S
C2348 C2347 1.398 . S
C2348 C2349 1.391 . S
C2349 H2337 0.950 . S
C2349 C2345 1.393 . S
C2349 C2348 1.391 . S
C2350 H2340 0.950 . S
C2350 C2351 1.386 . S
C2350 C2352 1.391 . S
C2351 C2350 1.386 . S
C2351 C2355 1.393 . S
C2352 H2341 0.950 . S
C2352 C2350 1.391 . S
C2352 C2353 1.400 . S
C2353 C2347 1.491 . S
C2353 C2352 1.400 . S
C2353 C2354 1.398 . S
C2354 H2342 0.950 . S
C2354 C2353 1.398 . S
C2354 C2355 1.391 . S
C2355 H2343 0.950 . S
C2355 C2351 1.393 . S
C2355 C2354 1.391 . S
H2356 C2364 0.950 . S
H2357 C2369 0.950 . S
H2358 C2366 0.950 . S
H2359 C2368 0.950 . S
H2360 C2370 0.950 . S
H2361 C2372 0.950 . S
H2362 C2374 0.950 . S
H2363 C2375 0.950 . S
C2364 H2356 0.950 . S
C2364 C2365 1.386 . S
C2364 C2366 1.391 . S
C2365 C2364 1.386 . S
C2365 C2369 1.393 . S
C2366 H2358 0.950 . S
C2366 C2364 1.391 . S
C2366 C2367 1.400 . S
C2367 C2366 1.400 . S
C2367 C2368 1.398 . S
C2367 C2373 1.491 . S
C2368 H2359 0.950 . S
C2368 C2367 1.398 . S
C2368 C2369 1.391 . S
C2369 H2357 0.950 . S
C2369 C2365 1.393 . S
C2369 C2368 1.391 . S
C2370 H2360 0.950 . S
C2370 C2371 1.386 . S
C2370 C2372 1.391 . S
C2371 C2370 1.386 . S
C2371 C2375 1.393 . S
C2372 H2361 0.950 . S
C2372 C2370 1.391 . S
C2372 C2373 1.400 . S
C2373 C2367 1.491 . S
C2373 C2372 1.400 . S
C2373 C2374 1.398 . S
C2374 H2362 0.950 . S
C2374 C2373 1.398 . S
C2374 C2375 1.391 . S
C2375 H2363 0.950 . S
C2375 C2371 1.393 . S
C2375 C2374 1.391 . S
H2376 C2384 0.950 . S
H2377 C2389 0.950 . S
H2378 C2386 0.950 . S
H2379 C2388 0.950 . S
H2380 C2390 0.950 . S
H2381 C2392 0.950 . S
H2382 C2394 0.950 . S
H2383 C2395 0.950 . S
C2384 H2376 0.950 . S
C2384 C2385 1.386 . S
C2384 C2386 1.391 . S
C2385 C2384 1.386 . S
C2385 C2389 1.393 . S
C2386 H2378 0.950 . S
C2386 C2384 1.391 . S
C2386 C2387 1.400 . S
C2387 C2386 1.400 . S
C2387 C2388 1.398 . S
C2387 C2393 1.491 . S
C2388 H2379 0.950 . S
C2388 C2387 1.398 . S
C2388 C2389 1.391 . S
C2389 H2377 0.950 . S
C2389 C2385 1.393 . S
C2389 C2388 1.391 . S
C2390 H2380 0.950 . S
C2390 C2391 1.386 . S
C2390 C2392 1.391 . S
C2391 C2390 1.386 . S
C2391 C2395 1.393 . S
C2392 H2381 0.950 . S
C2392 C2390 1.391 . S
C2392 C2393 1.400 . S
C2393 C2387 1.491 . S
C2393 C2392 1.400 . S
C2393 C2394 1.398 . S
C2394 H2382 0.950 . S
C2394 C2393 1.398 . S
C2394 C2395 1.391 . S
C2395 H2383 0.950 . S
C2395 C2391 1.393 . S
C2395 C2394 1.391 . S
H2396 C2404 0.950 . S
H2397 C2409 0.950 . S
H2398 C2406 0.950 . S
H2399 C2408 0.950 . S
H2400 C2410 0.950 . S
H2401 C2412 0.950 . S
H2402 C2414 0.950 . S
H2403 C2415 0.950 . S
C2404 H2396 0.950 . S
C2404 C2405 1.386 . S
C2404 C2406 1.391 . S
C2405 C2404 1.386 . S
C2405 C2409 1.393 . S
C2406 H2398 0.950 . S
C2406 C2404 1.391 . S
C2406 C2407 1.400 . S
C2407 C2406 1.400 . S
C2407 C2408 1.398 . S
C2407 C2413 1.491 . S
C2408 H2399 0.950 . S
C2408 C2407 1.398 . S
C2408 C2409 1.391 . S
C2409 H2397 0.950 . S
C2409 C2405 1.393 . S
C2409 C2408 1.391 . S
C2410 H2400 0.950 . S
C2410 C2411 1.386 . S
C2410 C2412 1.391 . S
C2411 C2410 1.386 . S
C2411 C2415 1.393 . S
C2412 H2401 0.950 . S
C2412 C2410 1.391 . S
C2412 C2413 1.400 . S
C2413 C2407 1.491 . S
C2413 C2412 1.400 . S
C2413 C2414 1.398 . S
C2414 H2402 0.950 . S
C2414 C2413 1.398 . S
C2414 C2415 1.391 . S
C2415 H2403 0.950 . S
C2415 C2411 1.393 . S
C2415 C2414 1.391 . S
H2416 C2424 0.950 . S
H2417 C2429 0.950 . S
H2418 C2426 0.950 . S
H2419 C2428 0.950 . S
H2420 C2430 0.950 . S
H2421 C2432 0.950 . S
H2422 C2434 0.950 . S
H2423 C2435 0.950 . S
C2424 H2416 0.950 . S
C2424 C2425 1.386 . S
C2424 C2426 1.391 . S
C2425 C2424 1.386 . S
C2425 C2429 1.393 . S
C2426 H2418 0.950 . S
C2426 C2424 1.391 . S
C2426 C2427 1.400 . S
C2427 C2426 1.400 . S
C2427 C2428 1.398 . S
C2427 C2433 1.491 . S
C2428 H2419 0.950 . S
C2428 C2427 1.398 . S
C2428 C2429 1.391 . S
C2429 H2417 0.950 . S
C2429 C2425 1.393 . S
C2429 C2428 1.391 . S
C2430 H2420 0.950 . S
C2430 C2431 1.386 . S
C2430 C2432 1.391 . S
C2431 C2430 1.386 . S
C2431 C2435 1.393 . S
C2432 H2421 0.950 . S
C2432 C2430 1.391 . S
C2432 C2433 1.400 . S
C2433 C2427 1.491 . S
C2433 C2432 1.400 . S
C2433 C2434 1.398 . S
C2434 H2422 0.950 . S
C2434 C2433 1.398 . S
C2434 C2435 1.391 . S
C2435 H2423 0.950 . S
C2435 C2431 1.393 . S
C2435 C2434 1.391 . S
H2436 C2444 0.950 . S
H2437 C2449 0.950 . S
H2438 C2446 0.950 . S
H2439 C2448 0.950 . S
H2440 C2450 0.950 . S
H2441 C2452 0.950 . S
H2442 C2454 0.950 . S
H2443 C2455 0.950 . S
C2444 H2436 0.950 . S
C2444 C2445 1.386 . S
C2444 C2446 1.391 . S
C2445 C2444 1.386 . S
C2445 C2449 1.393 . S
C2446 H2438 0.950 . S
C2446 C2444 1.391 . S
C2446 C2447 1.400 . S
C2447 C2446 1.400 . S
C2447 C2448 1.398 . S
C2447 C2453 1.491 . S
C2448 H2439 0.950 . S
C2448 C2447 1.398 . S
C2448 C2449 1.391 . S
C2449 H2437 0.950 . S
C2449 C2445 1.393 . S
C2449 C2448 1.391 . S
C2450 H2440 0.950 . S
C2450 C2451 1.386 . S
C2450 C2452 1.391 . S
C2451 C2450 1.386 . S
C2451 C2455 1.393 . S
C2452 H2441 0.950 . S
C2452 C2450 1.391 . S
C2452 C2453 1.400 . S
C2453 C2447 1.491 . S
C2453 C2452 1.400 . S
C2453 C2454 1.398 . S
C2454 H2442 0.950 . S
C2454 C2453 1.398 . S
C2454 C2455 1.391 . S
C2455 H2443 0.950 . S
C2455 C2451 1.393 . S
C2455 C2454 1.391 . S
H2456 C2464 0.950 . S
H2457 C2469 0.950 . S
H2458 C2466 0.950 . S
H2459 C2468 0.950 . S
H2460 C2470 0.950 . S
H2461 C2472 0.950 . S
H2462 C2474 0.950 . S
H2463 C2475 0.950 . S
C2464 H2456 0.950 . S
C2464 C2465 1.386 . S
C2464 C2466 1.391 . S
C2465 C2464 1.386 . S
C2465 C2469 1.393 . S
C2466 H2458 0.950 . S
C2466 C2464 1.391 . S
C2466 C2467 1.400 . S
C2467 C2466 1.400 . S
C2467 C2468 1.398 . S
C2467 C2473 1.491 . S
C2468 H2459 0.950 . S
C2468 C2467 1.398 . S
C2468 C2469 1.391 . S
C2469 H2457 0.950 . S
C2469 C2465 1.393 . S
C2469 C2468 1.391 . S
C2470 H2460 0.950 . S
C2470 C2471 1.386 . S
C2470 C2472 1.391 . S
C2471 C2470 1.386 . S
C2471 C2475 1.393 . S
C2472 H2461 0.950 . S
C2472 C2470 1.391 . S
C2472 C2473 1.400 . S
C2473 C2467 1.491 . S
C2473 C2472 1.400 . S
C2473 C2474 1.398 . S
C2474 H2462 0.950 . S
C2474 C2473 1.398 . S
C2474 C2475 1.391 . S
C2475 H2463 0.950 . S
C2475 C2471 1.393 . S
C2475 C2474 1.391 . S
H2476 C2484 0.950 . S
H2477 C2489 0.950 . S
H2478 C2486 0.950 . S
H2479 C2488 0.950 . S
H2480 C2490 0.950 . S
H2481 C2492 0.950 . S
H2482 C2494 0.950 . S
H2483 C2495 0.950 . S
C2484 H2476 0.950 . S
C2484 C2485 1.386 . S
C2484 C2486 1.391 . S
C2485 C2484 1.386 . S
C2485 C2489 1.393 . S
C2486 H2478 0.950 . S
C2486 C2484 1.391 . S
C2486 C2487 1.400 . S
C2487 C2486 1.400 . S
C2487 C2488 1.398 . S
C2487 C2493 1.491 . S
C2488 H2479 0.950 . S
C2488 C2487 1.398 . S
C2488 C2489 1.391 . S
C2489 H2477 0.950 . S
C2489 C2485 1.393 . S
C2489 C2488 1.391 . S
C2490 H2480 0.950 . S
C2490 C2491 1.386 . S
C2490 C2492 1.391 . S
C2491 C2490 1.386 . S
C2491 C2495 1.393 . S
C2492 H2481 0.950 . S
C2492 C2490 1.391 . S
C2492 C2493 1.400 . S
C2493 C2487 1.491 . S
C2493 C2492 1.400 . S
C2493 C2494 1.398 . S
C2494 H2482 0.950 . S
C2494 C2493 1.398 . S
C2494 C2495 1.391 . S
C2495 H2483 0.950 . S
C2495 C2491 1.393 . S
C2495 C2494 1.391 . S
H2496 C2504 0.950 . S
H2497 C2509 0.950 . S
H2498 C2506 0.950 . S
H2499 C2508 0.950 . S
H2500 C2510 0.950 . S
H2501 C2512 0.950 . S
H2502 C2514 0.950 . S
H2503 C2515 0.950 . S
C2504 H2496 0.950 . S
C2504 C2505 1.386 . S
C2504 C2506 1.391 . S
C2505 C2504 1.386 . S
C2505 C2509 1.393 . S
C2506 H2498 0.950 . S
C2506 C2504 1.391 . S
C2506 C2507 1.400 . S
C2507 C2506 1.400 . S
C2507 C2508 1.398 . S
C2507 C2513 1.491 . S
C2508 H2499 0.950 . S
C2508 C2507 1.398 . S
C2508 C2509 1.391 . S
C2509 H2497 0.950 . S
C2509 C2505 1.393 . S
C2509 C2508 1.391 . S
C2510 H2500 0.950 . S
C2510 C2511 1.386 . S
C2510 C2512 1.391 . S
C2511 C2510 1.386 . S
C2511 C2515 1.393 . S
C2512 H2501 0.950 . S
C2512 C2510 1.391 . S
C2512 C2513 1.400 . S
C2513 C2507 1.491 . S
C2513 C2512 1.400 . S
C2513 C2514 1.398 . S
C2514 H2502 0.950 . S
C2514 C2513 1.398 . S
C2514 C2515 1.391 . S
C2515 H2503 0.950 . S
C2515 C2511 1.393 . S
C2515 C2514 1.391 . S
H2516 C2524 0.950 . S
H2517 C2529 0.950 . S
H2518 C2526 0.950 . S
H2519 C2528 0.950 . S
H2520 C2530 0.950 . S
H2521 C2532 0.950 . S
H2522 C2534 0.950 . S
H2523 C2535 0.950 . S
C2524 H2516 0.950 . S
C2524 C2525 1.386 . S
C2524 C2526 1.391 . S
C2525 C2524 1.386 . S
C2525 C2529 1.393 . S
C2526 H2518 0.950 . S
C2526 C2524 1.391 . S
C2526 C2527 1.400 . S
C2527 C2526 1.400 . S
C2527 C2528 1.398 . S
C2527 C2533 1.491 . S
C2528 H2519 0.950 . S
C2528 C2527 1.398 . S
C2528 C2529 1.391 . S
C2529 H2517 0.950 . S
C2529 C2525 1.393 . S
C2529 C2528 1.391 . S
C2530 H2520 0.950 . S
C2530 C2531 1.386 . S
C2530 C2532 1.391 . S
C2531 C2530 1.386 . S
C2531 C2535 1.393 . S
C2532 H2521 0.950 . S
C2532 C2530 1.391 . S
C2532 C2533 1.400 . S
C2533 C2527 1.491 . S
C2533 C2532 1.400 . S
C2533 C2534 1.398 . S
C2534 H2522 0.950 . S
C2534 C2533 1.398 . S
C2534 C2535 1.391 . S
C2535 H2523 0.950 . S
C2535 C2531 1.393 . S
C2535 C2534 1.391 . S
H2536 C2544 0.950 . S
H2537 C2549 0.950 . S
H2538 C2546 0.950 . S
H2539 C2548 0.950 . S
H2540 C2550 0.950 . S
H2541 C2552 0.950 . S
H2542 C2554 0.950 . S
H2543 C2555 0.950 . S
C2544 H2536 0.950 . S
C2544 C2545 1.386 . S
C2544 C2546 1.391 . S
C2545 C2544 1.386 . S
C2545 C2549 1.393 . S
C2546 H2538 0.950 . S
C2546 C2544 1.391 . S
C2546 C2547 1.400 . S
C2547 C2546 1.400 . S
C2547 C2548 1.398 . S
C2547 C2553 1.491 . S
C2548 H2539 0.950 . S
C2548 C2547 1.398 . S
C2548 C2549 1.391 . S
C2549 H2537 0.950 . S
C2549 C2545 1.393 . S
C2549 C2548 1.391 . S
C2550 H2540 0.950 . S
C2550 C2551 1.386 . S
C2550 C2552 1.391 . S
C2551 C2550 1.386 . S
C2551 C2555 1.393 . S
C2552 H2541 0.950 . S
C2552 C2550 1.391 . S
C2552 C2553 1.400 . S
C2553 C2547 1.491 . S
C2553 C2552 1.400 . S
C2553 C2554 1.398 . S
C2554 H2542 0.950 . S
C2554 C2553 1.398 . S
C2554 C2555 1.391 . S
C2555 H2543 0.950 . S
C2555 C2551 1.393 . S
C2555 C2554 1.391 . S
H2556 C2564 0.950 . S
H2557 C2569 0.950 . S
H2558 C2566 0.950 . S
H2559 C2568 0.950 . S
H2560 C2570 0.950 . S
H2561 C2572 0.950 . S
H2562 C2574 0.950 . S
H2563 C2575 0.950 . S
C2564 H2556 0.950 . S
C2564 C2565 1.386 . S
C2564 C2566 1.391 . S
C2565 C2564 1.386 . S
C2565 C2569 1.393 . S
C2566 H2558 0.950 . S
C2566 C2564 1.391 . S
C2566 C2567 1.400 . S
C2567 C2566 1.400 . S
C2567 C2568 1.398 . S
C2567 C2573 1.491 . S
C2568 H2559 0.950 . S
C2568 C2567 1.398 . S
C2568 C2569 1.391 . S
C2569 H2557 0.950 . S
C2569 C2565 1.393 . S
C2569 C2568 1.391 . S
C2570 H2560 0.950 . S
C2570 C2571 1.386 . S
C2570 C2572 1.391 . S
C2571 C2570 1.386 . S
C2571 C2575 1.393 . S
C2572 H2561 0.950 . S
C2572 C2570 1.391 . S
C2572 C2573 1.400 . S
C2573 C2567 1.491 . S
C2573 C2572 1.400 . S
C2573 C2574 1.398 . S
C2574 H2562 0.950 . S
C2574 C2573 1.398 . S
C2574 C2575 1.391 . S
C2575 H2563 0.950 . S
C2575 C2571 1.393 . S
C2575 C2574 1.391 . S
H2576 C2584 0.950 . S
H2577 C2589 0.950 . S
H2578 C2586 0.950 . S
H2579 C2588 0.950 . S
H2580 C2590 0.950 . S
H2581 C2592 0.950 . S
H2582 C2594 0.950 . S
H2583 C2595 0.950 . S
C2584 H2576 0.950 . S
C2584 C2585 1.386 . S
C2584 C2586 1.391 . S
C2585 C2584 1.386 . S
C2585 C2589 1.393 . S
C2586 H2578 0.950 . S
C2586 C2584 1.391 . S
C2586 C2587 1.400 . S
C2587 C2586 1.400 . S
C2587 C2588 1.398 . S
C2587 C2593 1.491 . S
C2588 H2579 0.950 . S
C2588 C2587 1.398 . S
C2588 C2589 1.391 . S
C2589 H2577 0.950 . S
C2589 C2585 1.393 . S
C2589 C2588 1.391 . S
C2590 H2580 0.950 . S
C2590 C2591 1.386 . S
C2590 C2592 1.391 . S
C2591 C2590 1.386 . S
C2591 C2595 1.393 . S
C2592 H2581 0.950 . S
C2592 C2590 1.391 . S
C2592 C2593 1.400 . S
C2593 C2587 1.491 . S
C2593 C2592 1.400 . S
C2593 C2594 1.398 . S
C2594 H2582 0.950 . S
C2594 C2593 1.398 . S
C2594 C2595 1.391 . S
C2595 H2583 0.950 . S
C2595 C2591 1.393 . S
C2595 C2594 1.391 . S
H2596 C2604 0.950 . S
H2597 C2609 0.950 . S
H2598 C2606 0.950 . S
H2599 C2608 0.950 . S
H2600 C2610 0.950 . S
H2601 C2612 0.950 . S
H2602 C2614 0.950 . S
H2603 C2615 0.950 . S
C2604 H2596 0.950 . S
C2604 C2605 1.386 . S
C2604 C2606 1.391 . S
C2605 C2604 1.386 . S
C2605 C2609 1.393 . S
C2606 H2598 0.950 . S
C2606 C2604 1.391 . S
C2606 C2607 1.400 . S
C2607 C2606 1.400 . S
C2607 C2608 1.398 . S
C2607 C2613 1.491 . S
C2608 H2599 0.950 . S
C2608 C2607 1.398 . S
C2608 C2609 1.391 . S
C2609 H2597 0.950 . S
C2609 C2605 1.393 . S
C2609 C2608 1.391 . S
C2610 H2600 0.950 . S
C2610 C2611 1.386 . S
C2610 C2612 1.391 . S
C2611 C2610 1.386 . S
C2611 C2615 1.393 . S
C2612 H2601 0.950 . S
C2612 C2610 1.391 . S
C2612 C2613 1.400 . S
C2613 C2607 1.491 . S
C2613 C2612 1.400 . S
C2613 C2614 1.398 . S
C2614 H2602 0.950 . S
C2614 C2613 1.398 . S
C2614 C2615 1.391 . S
C2615 H2603 0.950 . S
C2615 C2611 1.393 . S
C2615 C2614 1.391 . S
H2616 C2624 0.950 . S
H2617 C2629 0.950 . S
H2618 C2626 0.950 . S
H2619 C2628 0.959 . S
H2620 C2630 0.950 . S
H2621 C2632 0.950 . S
H2622 C2634 0.950 . S
H2623 C2635 0.950 . S
C2624 H2616 0.950 . S
C2624 C2625 1.386 . S
C2624 C2626 1.391 . S
C2625 C2624 1.386 . S
C2625 C2629 1.393 . S
C2626 H2618 0.950 . S
C2626 C2624 1.391 . S
C2626 C2627 1.400 . S
C2627 C2626 1.400 . S
C2627 C2628 1.398 . S
C2627 C2633 1.491 . S
C2628 H2619 0.959 . S
C2628 C2627 1.398 . S
C2628 C2629 1.391 . S
C2629 H2617 0.950 . S
C2629 C2625 1.393 . S
C2629 C2628 1.391 . S
C2630 H2620 0.950 . S
C2630 C2631 1.386 . S
C2630 C2632 1.391 . S
C2631 C2630 1.386 . S
C2631 C2635 1.393 . S
C2632 H2621 0.950 . S
C2632 C2630 1.391 . S
C2632 C2633 1.400 1_455 S
C2633 C2627 1.491 . S
C2633 C2632 1.400 1_655 S
C2633 C2634 1.398 . S
C2634 H2622 0.950 . S
C2634 C2633 1.398 . S
C2634 C2635 1.391 1_655 S
C2635 H2623 0.950 . S
C2635 C2631 1.393 . S
C2635 C2634 1.391 1_455 S
H2636 C2644 0.950 . S
H2637 C2649 0.950 . S
H2638 C2646 0.950 . S
H2639 C2648 0.950 . S
H2640 C2650 0.950 . S
H2641 C2652 0.950 . S
H2642 C2654 0.950 . S
H2643 C2655 0.950 . S
C2644 H2636 0.950 . S
C2644 C2645 1.386 . S
C2644 C2646 1.391 . S
C2645 C2644 1.386 . S
C2645 C2649 1.393 . S
C2646 H2638 0.950 . S
C2646 C2644 1.391 . S
C2646 C2647 1.400 . S
C2647 C2646 1.400 . S
C2647 C2648 1.398 . S
C2647 C2653 1.491 . S
C2648 H2639 0.950 . S
C2648 C2647 1.398 . S
C2648 C2649 1.391 . S
C2649 H2637 0.950 . S
C2649 C2645 1.393 . S
C2649 C2648 1.391 . S
C2650 H2640 0.950 . S
C2650 C2651 1.386 . S
C2650 C2652 1.391 . S
C2651 C2650 1.386 . S
C2651 C2655 1.393 . S
C2652 H2641 0.950 . S
C2652 C2650 1.391 . S
C2652 C2653 1.400 . S
C2653 C2647 1.491 . S
C2653 C2652 1.400 . S
C2653 C2654 1.398 . S
C2654 H2642 0.950 . S
C2654 C2653 1.398 . S
C2654 C2655 1.391 . S
C2655 H2643 0.950 . S
C2655 C2651 1.393 . S
C2655 C2654 1.391 . S
H2656 C2664 0.950 . S
H2657 C2669 0.950 . S
H2658 C2666 0.950 . S
H2659 C2668 0.950 . S
H2660 C2670 0.950 . S
H2661 C2672 0.950 . S
H2662 C2674 0.950 . S
H2663 C2675 0.950 . S
C2664 H2656 0.950 . S
C2664 C2665 1.386 . S
C2664 C2666 1.391 . S
C2665 C2664 1.386 . S
C2665 C2669 1.393 . S
C2666 H2658 0.950 . S
C2666 C2664 1.391 . S
C2666 C2667 1.400 . S
C2667 C2666 1.400 . S
C2667 C2668 1.398 . S
C2667 C2673 1.491 . S
C2668 H2659 0.950 . S
C2668 C2667 1.398 . S
C2668 C2669 1.391 . S
C2669 H2657 0.950 . S
C2669 C2665 1.393 . S
C2669 C2668 1.391 . S
C2670 H2660 0.950 . S
C2670 C2671 1.386 . S
C2670 C2672 1.391 . S
C2671 C2670 1.386 . S
C2671 C2675 1.393 . S
C2672 H2661 0.950 . S
C2672 C2670 1.391 . S
C2672 C2673 1.400 . S
C2673 C2667 1.491 . S
C2673 C2672 1.400 . S
C2673 C2674 1.398 . S
C2674 H2662 0.950 . S
C2674 C2673 1.398 . S
C2674 C2675 1.391 . S
C2675 H2663 0.950 . S
C2675 C2671 1.393 . S
C2675 C2674 1.391 . S
H2676 C2684 0.950 . S
H2677 C2689 0.950 . S
H2678 C2686 0.950 . S
H2679 C2688 0.950 . S
H2680 C2690 0.950 . S
H2681 C2692 0.950 . S
H2682 C2694 0.950 . S
H2683 C2695 0.950 . S
C2684 H2676 0.950 . S
C2684 C2685 1.386 . S
C2684 C2686 1.391 . S
C2685 C2684 1.386 . S
C2685 C2689 1.393 . S
C2686 H2678 0.950 . S
C2686 C2684 1.391 . S
C2686 C2687 1.400 . S
C2687 C2686 1.400 . S
C2687 C2688 1.398 . S
C2687 C2693 1.491 . S
C2688 H2679 0.950 . S
C2688 C2687 1.398 . S
C2688 C2689 1.391 . S
C2689 H2677 0.950 . S
C2689 C2685 1.393 . S
C2689 C2688 1.391 . S
C2690 H2680 0.950 . S
C2690 C2691 1.386 . S
C2690 C2692 1.391 . S
C2691 C2690 1.386 . S
C2691 C2695 1.393 . S
C2692 H2681 0.950 . S
C2692 C2690 1.391 . S
C2692 C2693 1.400 . S
C2693 C2687 1.491 . S
C2693 C2692 1.400 . S
C2693 C2694 1.398 . S
C2694 H2682 0.950 . S
C2694 C2693 1.398 . S
C2694 C2695 1.391 . S
C2695 H2683 0.950 . S
C2695 C2691 1.393 . S
C2695 C2694 1.391 . S
H2696 C2704 0.950 . S
H2697 C2709 0.950 . S
H2698 C2706 0.950 . S
H2699 C2708 0.950 . S
H2700 C2710 0.950 . S
H2701 C2712 0.950 . S
H2702 C2714 0.927 1_455 S
H2703 C2715 0.902 1_455 S
C2704 H2696 0.950 . S
C2704 C2705 1.386 . S
C2704 C2706 1.391 . S
C2705 C2704 1.386 . S
C2705 C2709 1.393 . S
C2706 H2698 0.950 . S
C2706 C2704 1.391 . S
C2706 C2707 1.400 . S
C2707 C2706 1.400 . S
C2707 C2708 1.398 . S
C2707 C2713 1.491 . S
C2708 H2699 0.950 . S
C2708 C2707 1.398 . S
C2708 C2709 1.391 . S
C2709 H2697 0.950 . S
C2709 C2705 1.393 . S
C2709 C2708 1.391 . S
C2710 H2700 0.950 . S
C2710 C2711 1.386 . S
C2710 C2712 1.391 . S
C2711 C2710 1.386 . S
C2711 C2715 1.418 . S
C2712 H2701 0.950 . S
C2712 C2710 1.391 . S
C2712 C2713 1.400 . S
C2713 C2707 1.491 . S
C2713 C2712 1.400 . S
C2713 C2714 1.398 . S
C2714 H2702 0.927 1_655 S
C2714 C2713 1.398 . S
C2714 C2715 1.414 . S
C2715 H2703 0.902 1_655 S
C2715 C2711 1.418 . S
C2715 C2714 1.414 . S
H2716 C2724 0.950 . S
H2717 C2729 0.950 . S
H2718 C2726 0.950 . S
H2719 C2728 0.950 . S
H2720 C2730 0.950 . S
H2721 C2732 0.950 . S
H2722 C2734 0.950 . S
H2723 C2735 0.950 . S
C2724 H2716 0.950 . S
C2724 C2725 1.386 . S
C2724 C2726 1.391 . S
C2725 C2724 1.386 . S
C2725 C2729 1.393 . S
C2726 H2718 0.950 . S
C2726 C2724 1.391 . S
C2726 C2727 1.400 . S
C2727 C2726 1.400 . S
C2727 C2728 1.398 . S
C2727 C2733 1.491 . S
C2728 H2719 0.950 . S
C2728 C2727 1.398 . S
C2728 C2729 1.391 . S
C2729 H2717 0.950 . S
C2729 C2725 1.393 . S
C2729 C2728 1.391 . S
C2730 H2720 0.950 . S
C2730 C2731 1.386 . S
C2730 C2732 1.391 . S
C2731 C2730 1.386 . S
C2731 C2735 1.393 . S
C2732 H2721 0.950 . S
C2732 C2730 1.391 . S
C2732 C2733 1.400 . S
C2733 C2727 1.491 . S
C2733 C2732 1.400 . S
C2733 C2734 1.398 . S
C2734 H2722 0.950 . S
C2734 C2733 1.398 . S
C2734 C2735 1.391 . S
C2735 H2723 0.950 . S
C2735 C2731 1.393 . S
C2735 C2734 1.391 . S
H2736 C2744 0.950 . S
H2737 C2749 0.950 . S
H2738 C2746 0.950 . S
H2739 C2748 0.950 . S
H2740 C2750 0.950 . S
H2741 C2752 0.950 . S
H2742 C2754 0.950 . S
H2743 C2755 0.950 . S
C2744 H2736 0.950 . S
C2744 C2745 1.386 . S
C2744 C2746 1.391 . S
C2745 C2744 1.386 . S
C2745 C2749 1.393 . S
C2746 H2738 0.950 . S
C2746 C2744 1.391 . S
C2746 C2747 1.400 . S
C2747 C2746 1.400 . S
C2747 C2748 1.398 . S
C2747 C2753 1.491 . S
C2748 H2739 0.950 . S
C2748 C2747 1.398 . S
C2748 C2749 1.391 . S
C2749 H2737 0.950 . S
C2749 C2745 1.393 . S
C2749 C2748 1.391 . S
C2750 H2740 0.950 . S
C2750 C2751 1.386 . S
C2750 C2752 1.391 . S
C2751 C2750 1.386 . S
C2751 C2755 1.393 . S
C2752 H2741 0.950 . S
C2752 C2750 1.391 . S
C2752 C2753 1.400 . S
C2753 C2747 1.491 . S
C2753 C2752 1.400 . S
C2753 C2754 1.398 . S
C2754 H2742 0.950 . S
C2754 C2753 1.398 . S
C2754 C2755 1.391 . S
C2755 H2743 0.950 . S
C2755 C2751 1.393 . S
C2755 C2754 1.391 . S
H2756 C2764 0.950 . S
H2757 C2769 0.950 . S
H2758 C2766 0.950 . S
H2759 C2768 0.950 . S
H2760 C2770 0.950 . S
H2761 C2772 0.950 . S
H2762 C2774 0.950 . S
H2763 C2775 0.950 . S
C2764 H2756 0.950 . S
C2764 C2765 1.386 . S
C2764 C2766 1.391 . S
C2765 C2764 1.386 . S
C2765 C2769 1.393 . S
C2766 H2758 0.950 . S
C2766 C2764 1.391 . S
C2766 C2767 1.400 . S
C2767 C2766 1.400 . S
C2767 C2768 1.398 . S
C2767 C2773 1.491 . S
C2768 H2759 0.950 . S
C2768 C2767 1.398 . S
C2768 C2769 1.391 . S
C2769 H2757 0.950 . S
C2769 C2765 1.393 . S
C2769 C2768 1.391 . S
C2770 H2760 0.950 . S
C2770 C2771 1.394 . S
C2770 C2772 1.391 1_545 S
C2771 C2770 1.394 . S
C2771 C2775 1.374 1_545 S
C2772 H2761 0.950 . S
C2772 C2770 1.391 1_565 S
C2772 C2773 1.400 . S
C2773 C2767 1.491 . S
C2773 C2772 1.400 . S
C2773 C2774 1.398 . S
C2774 H2762 0.950 . S
C2774 C2773 1.398 . S
C2774 C2775 1.391 . S
C2775 H2763 0.950 . S
C2775 C2771 1.374 1_565 S
C2775 C2774 1.391 . S
H2776 C2784 0.950 . S
H2777 C2789 0.950 . S
H2778 C2786 0.950 . S
H2779 C2788 0.950 . S
H2780 C2790 0.950 . S
H2781 C2792 0.950 . S
H2782 C2794 0.950 . S
H2783 C2795 0.950 . S
C2784 H2776 0.950 . S
C2784 C2785 1.386 . S
C2784 C2786 1.391 . S
C2785 C2784 1.386 . S
C2785 C2789 1.393 . S
C2786 H2778 0.950 . S
C2786 C2784 1.391 . S
C2786 C2787 1.400 . S
C2787 C2786 1.400 . S
C2787 C2788 1.398 . S
C2787 C2793 1.491 . S
C2788 H2779 0.950 . S
C2788 C2787 1.398 . S
C2788 C2789 1.391 . S
C2789 H2777 0.950 . S
C2789 C2785 1.393 . S
C2789 C2788 1.391 . S
C2790 H2780 0.950 . S
C2790 C2791 1.386 . S
C2790 C2792 1.391 . S
C2791 C2790 1.386 . S
C2791 C2795 1.393 . S
C2792 H2781 0.950 . S
C2792 C2790 1.391 . S
C2792 C2793 1.400 . S
C2793 C2787 1.491 . S
C2793 C2792 1.400 . S
C2793 C2794 1.398 . S
C2794 H2782 0.950 . S
C2794 C2793 1.398 . S
C2794 C2795 1.391 . S
C2795 H2783 0.950 . S
C2795 C2791 1.393 . S
C2795 C2794 1.391 . S
H2796 C2804 0.950 . S
H2797 C2809 0.950 . S
H2798 C2806 0.950 . S
H2799 C2808 0.950 . S
H2800 C2810 0.950 . S
H2801 C2812 0.950 . S
H2802 C2814 0.950 . S
H2803 C2815 0.950 . S
C2804 H2796 0.950 . S
C2804 C2805 1.386 . S
C2804 C2806 1.391 . S
C2805 C2804 1.386 . S
C2805 C2809 1.393 1_554 S
C2806 H2798 0.950 . S
C2806 C2804 1.391 . S
C2806 C2807 1.400 . S
C2807 C2806 1.400 . S
C2807 C2808 1.398 1_554 S
C2807 C2813 1.491 . S
C2808 H2799 0.950 . S
C2808 C2807 1.398 1_556 S
C2808 C2809 1.391 . S
C2809 H2797 0.950 . S
C2809 C2805 1.393 1_556 S
C2809 C2808 1.391 . S
C2810 H2800 0.950 . S
C2810 C2811 1.386 1_556 S
C2810 C2812 1.391 . S
C2811 C2810 1.386 1_554 S
C2811 C2815 1.393 . S
C2812 H2801 0.950 . S
C2812 C2810 1.391 . S
C2812 C2813 1.400 1_556 S
C2813 C2807 1.491 . S
C2813 C2812 1.400 1_554 S
C2813 C2814 1.398 . S
C2814 H2802 0.950 . S
C2814 C2813 1.398 . S
C2814 C2815 1.391 . S
C2815 H2803 0.950 . S
C2815 C2811 1.393 . S
C2815 C2814 1.391 . S
H2816 C2824 0.950 . S
H2817 C2829 0.950 . S
H2818 C2826 0.950 . S
H2819 C2828 0.950 . S
H2820 C2830 0.950 . S
H2821 C2832 0.950 . S
H2822 C2834 0.950 . S
H2823 C2835 0.950 . S
C2824 H2816 0.950 . S
C2824 C2825 1.386 . S
C2824 C2826 1.391 . S
C2825 C2824 1.386 . S
C2825 C2829 1.393 . S
C2826 H2818 0.950 . S
C2826 C2824 1.391 . S
C2826 C2827 1.400 . S
C2827 C2826 1.400 . S
C2827 C2828 1.398 . S
C2827 C2833 1.491 . S
C2828 H2819 0.950 . S
C2828 C2827 1.398 . S
C2828 C2829 1.391 . S
C2829 H2817 0.950 . S
C2829 C2825 1.393 . S
C2829 C2828 1.391 . S
C2830 H2820 0.950 . S
C2830 C2831 1.386 . S
C2830 C2832 1.391 . S
C2831 C2830 1.386 . S
C2831 C2835 1.393 . S
C2832 H2821 0.950 . S
C2832 C2830 1.391 . S
C2832 C2833 1.400 . S
C2833 C2827 1.491 . S
C2833 C2832 1.400 . S
C2833 C2834 1.398 . S
C2834 H2822 0.950 . S
C2834 C2833 1.398 . S
C2834 C2835 1.391 . S
C2835 H2823 0.950 . S
C2835 C2831 1.393 . S
C2835 C2834 1.391 . S
H2836 C2844 0.950 . S
H2837 C2849 0.950 . S
H2838 C2846 0.950 . S
H2839 C2848 0.950 . S
H2840 C2850 0.950 1_554 S
H2841 C2852 0.950 . S
H2842 C2854 0.950 . S
H2843 C2855 0.950 . S
C2844 H2836 0.950 . S
C2844 C2845 1.386 1_556 S
C2844 C2846 1.391 . S
C2845 C2844 1.386 1_554 S
C2845 C2849 1.393 . S
C2846 H2838 0.950 . S
C2846 C2844 1.391 . S
C2846 C2847 1.400 . S
C2847 C2846 1.400 . S
C2847 C2848 1.398 1_556 S
C2847 C2853 1.491 . S
C2848 H2839 0.950 . S
C2848 C2847 1.398 1_554 S
C2848 C2849 1.391 . S
C2849 H2837 0.950 . S
C2849 C2845 1.393 . S
C2849 C2848 1.391 . S
C2850 H2840 0.950 1_556 S
C2850 C2851 1.386 . S
C2850 C2852 1.391 1_556 S
C2851 C2850 1.386 . S
C2851 C2855 1.393 . S
C2852 H2841 0.950 . S
C2852 C2850 1.391 1_554 S
C2852 C2853 1.400 1_554 S
C2853 C2847 1.491 . S
C2853 C2852 1.400 1_556 S
C2853 C2854 1.398 . S
C2854 H2842 0.950 . S
C2854 C2853 1.398 . S
C2854 C2855 1.391 . S
C2855 H2843 0.950 . S
C2855 C2851 1.393 . S
C2855 C2854 1.391 . S
H2856 C2864 0.950 . S
H2857 C2869 0.950 . S
H2858 C2866 0.950 . S
H2859 C2868 0.950 . S
H2860 C2870 0.950 . S
H2861 C2872 0.950 . S
H2862 C2874 0.950 . S
H2863 C2875 0.950 . S
C2864 H2856 0.950 . S
C2864 C2865 1.386 . S
C2864 C2866 1.391 . S
C2865 C2864 1.386 . S
C2865 C2869 1.393 . S
C2866 H2858 0.950 . S
C2866 C2864 1.391 . S
C2866 C2867 1.400 . S
C2867 C2866 1.400 . S
C2867 C2868 1.398 . S
C2867 C2873 1.491 . S
C2868 H2859 0.950 . S
C2868 C2867 1.398 . S
C2868 C2869 1.391 . S
C2869 H2857 0.950 . S
C2869 C2865 1.393 . S
C2869 C2868 1.391 . S
C2870 H2860 0.950 . S
C2870 C2871 1.386 . S
C2870 C2872 1.391 . S
C2871 C2870 1.386 . S
C2871 C2875 1.393 . S
C2872 H2861 0.950 . S
C2872 C2870 1.391 . S
C2872 C2873 1.400 . S
C2873 C2867 1.491 . S
C2873 C2872 1.400 . S
C2873 C2874 1.398 . S
C2874 H2862 0.950 . S
C2874 C2873 1.398 . S
C2874 C2875 1.391 . S
C2875 H2863 0.950 . S
C2875 C2871 1.393 . S
C2875 C2874 1.391 . S
H2876 C2884 0.950 . S
H2877 C2889 0.950 . S
H2878 C2886 0.950 . S
H2879 C2888 0.950 . S
H2880 C2890 0.950 . S
H2881 C2892 0.950 . S
H2882 C2894 0.950 . S
H2883 C2895 0.950 . S
C2884 H2876 0.950 . S
C2884 C2885 1.386 . S
C2884 C2886 1.391 . S
C2885 C2884 1.386 . S
C2885 C2889 1.393 . S
C2886 H2878 0.950 . S
C2886 C2884 1.391 . S
C2886 C2887 1.400 . S
C2887 C2886 1.400 . S
C2887 C2888 1.398 . S
C2887 C2893 1.491 . S
C2888 H2879 0.950 . S
C2888 C2887 1.398 . S
C2888 C2889 1.391 . S
C2889 H2877 0.950 . S
C2889 C2885 1.393 . S
C2889 C2888 1.391 . S
C2890 H2880 0.950 . S
C2890 C2891 1.386 . S
C2890 C2892 1.391 . S
C2891 C2890 1.386 . S
C2891 C2895 1.393 . S
C2892 H2881 0.950 . S
C2892 C2890 1.391 . S
C2892 C2893 1.400 . S
C2893 C2887 1.491 . S
C2893 C2892 1.400 . S
C2893 C2894 1.398 . S
C2894 H2882 0.950 . S
C2894 C2893 1.398 . S
C2894 C2895 1.391 . S
C2895 H2883 0.950 . S
C2895 C2891 1.393 . S
C2895 C2894 1.391 . S
C985 C109 2.200 . S
C991 C346 2.153 1_556 S
C1005 C61 1.819 . S
C1011 C394 2.063 . S
C1025 C74 1.172 . S
C1031 C426 1.164 . S
C1051 C471 1.381 . S
C1045 C96 1.403 . S
C1065 C25 1.221 1_455 S
C1071 C511 1.185 . S
C1091 C542 0.413 . S
C1085 C40 0.382 . S
C1111 C594 1.372 . S
C1105 C46 1.400 . S
C1125 C5 1.360 . S
C1131 C626 1.690 . S
C1151 C354 2.344 . S
C1145 C229 2.075 . S
C1165 C249 0.407 . S
C1171 C391 0.528 . S
C1191 C434 1.147 . S
C1185 C271 0.961 . S
C1211 C466 1.453 . S
C1205 C172 1.405 . S
C1225 C236 1.840 . S
C1231 C506 1.822 . S
C1251 C545 1.611 . S
C1245 C242 1.595 . S
C1271 C591 0.278 . S
C1265 C278 0.189 . S
C1291 C634 2.114 . S
C1285 C179 2.133 . S
C1311 C351 1.430 1_565 S
C1305 C159 1.142 . S
C1325 C285 1.646 1_554 S
C1331 C674 1.852 . S
C1351 C715 2.502 . S
C1345 C333 2.545 . S
C1371 C746 0.558 1_655 S
C1365 C320 0.632 . S
C1385 C123 1.425 . S
C1391 C631 1.354 . S
C1405 C138 1.576 . S
C1411 C431 1.544 . S
C1425 C326 2.327 . S
C1431 C794 2.303 . S
C1451 C826 0.547 . S
C1445 C298 0.561 . S
C1471 C355 2.145 . S
C1465 C67 2.136 . S
C1491 C825 1.995 . S
C1485 C110 1.993 . S
C1505 C88 1.157 . S
C1511 C435 1.160 . S
C1525 C75 1.124 . S
C1531 C782 1.308 . S
C1551 C502 1.177 . S
C1545 C11 1.164 . S
C1565 C47 0.602 . S
C1571 C711 0.395 . S
C1591 C585 1.227 . S
C1585 C32 1.134 . S
C1611 C875 1.749 . S
C1605 C26 1.808 . S
C1631 C345 2.455 . S
C1625 C152 2.474 . S
C1651 C822 0.574 . S
C1645 C319 0.561 . S
C1665 C124 1.126 . S
C1671 C425 1.120 . S
C1685 C284 1.457 . S
C1691 C795 1.464 . S
C1705 C145 1.697 1_545 S
C1711 C515 1.817 . S
C1731 C714 1.500 . S
C1725 C312 1.504 . S
C1745 C117 0.646 1_565 S
C1751 C582 0.387 . S
C1765 C291 2.033 . S
C1771 C865 2.037 . S
C1785 C194 1.524 . S
C1791 C342 1.491 . S
C1805 C180 1.834 . S
C1811 C665 1.827 . S
C1825 C263 2.420 . S
C1831 C546 2.372 . S
C1845 C243 0.603 . S
C1851 C755 0.525 . S
C1871 C862 1.428 . S
C1865 C277 1.396 . S
C1885 C215 1.398 . S
C1891 C422 1.525 . S
C1911 C465 2.204 . S
C1905 C256 2.160 . S
C1931 C395 0.641 . S
C1925 C200 0.618 . S
C1945 C81 2.200 . S
C1951 C906 2.149 . S
C1971 C834 2.060 . S
C1965 C89 1.837 . S
C1985 C102 1.178 . S
C1991 C946 1.161 . S
C2005 C68 1.404 . S
C2011 C791 1.391 . S
C2025 C53 1.222 . S
C2031 C671 1.177 . S
C2051 C702 0.406 . S
C2045 C12 0.387 . S
C2071 C754 1.374 . S
C2065 C18 1.401 . S
C2091 C866 1.668 . S
C2085 C33 1.324 . S
C2111 C914 2.351 . S
C2105 C257 2.054 . S
C2125 C193 0.414 . S
C2131 C831 0.535 . S
C2151 C954 1.157 . S
C2145 C201 0.975 . S
C2171 C786 1.438 . S
C2165 C214 1.423 . S
C2191 C666 1.818 . S
C2185 C264 1.841 . S
C2205 C186 1.595 . S
C2211 C705 1.611 . S
C2231 C751 0.340 . S
C2225 C208 0.169 . S
C2245 C221 2.131 . S
C2251 C874 2.102 . S
C2271 C911 1.429 . S
C2265 C313 1.165 . S
C2285 C131 1.640 . S
C2291 C514 1.852 . S
C2311 C555 2.496 . S
C2305 C151 2.546 . S
C2331 C586 0.595 . S
C2325 C166 0.631 . S
C2351 C871 1.355 . S
C2345 C305 1.427 . S
C2365 C292 1.573 . S
C2371 C951 1.537 . S
C2391 C474 2.314 . S
C2385 C144 2.321 . S
C2411 C386 0.513 . S
C2405 C116 0.500 . S
C2425 C95 2.135 . S
C2431 C915 2.138 . S
C2451 C385 1.996 . S
C2445 C82 1.997 . S
C2465 C60 1.167 . S
C2471 C955 1.171 . S
C2485 C103 1.124 . S
C2491 C462 1.308 . S
C2505 C39 1.192 . S
C2511 C662 1.201 . S
C2531 C551 0.410 . S
C2525 C19 0.685 . S
C2545 C4 1.116 . S
C2551 C745 1.209 . S
C2565 C54 1.806 . S
C2571 C635 1.757 . S
C2591 C905 2.461 . S
C2585 C334 2.474 . S
C2605 C165 0.562 . S
C2611 C382 0.577 . S
C2631 C945 1.123 . S
C2625 C306 1.125 . S
C2645 C130 1.455 . S
C2651 C475 1.464 . S
C2665 C327 1.702 . S
C2671 C675 1.814 . S
C2691 C554 1.506 . S
C2685 C158 1.508 . S
C2705 C299 0.735 . S
C2711 C742 0.292 . S
C2731 C625 2.033 . S
C2725 C137 2.021 . S
C2751 C902 1.476 . S
C2745 C250 1.506 . S
C2771 C505 1.841 . S
C2765 C222 1.830 . S
C2785 C235 2.419 . S
C2791 C706 2.368 . S
C2811 C595 0.553 . S
C2805 C187 0.677 . S
C2825 C207 1.397 . S
C2831 C622 1.429 . S
C2845 C173 1.425 . S
C2851 C942 1.520 . S
C2871 C785 2.205 . S
C2865 C228 2.176 1_565 S
C2891 C835 0.590 . S
C2885 C270 0.568 . S
