# Generated by pormake.
# Topology cor, (4,6)-cn, num edge types: 1
# Building blocks:
#     Node 0, Type 0, BuildingBlock: CEKHIL_clean_sbu_0, # of connection points: 4
#     Node 1, Type 0, BuildingBlock: CEKHIL_clean_sbu_0, # of connection points: 4
#     Node 2, Type 0, BuildingBlock: CEKHIL_clean_sbu_0, # of connection points: 4
#     Node 3, Type 0, BuildingBlock: CEKHIL_clean_sbu_0, # of connection points: 4
#     Node 4, Type 0, BuildingBlock: CEKHIL_clean_sbu_0, # of connection points: 4
#     Node 5, Type 0, BuildingBlock: CEKHIL_clean_sbu_0, # of connection points: 4
#     Node 6, Type 0, BuildingBlock: CEKHIL_clean_sbu_0, # of connection points: 4
#     Node 7, Type 0, BuildingBlock: CEKHIL_clean_sbu_0, # of connection points: 4
#     Node 8, Type 0, BuildingBlock: CEKHIL_clean_sbu_0, # of connection points: 4
#     Node 9, Type 0, BuildingBlock: CEKHIL_clean_sbu_0, # of connection points: 4
#     Node 10, Type 0, BuildingBlock: CEKHIL_clean_sbu_0, # of connection points: 4
#     Node 11, Type 0, BuildingBlock: CEKHIL_clean_sbu_0, # of connection points: 4
#     Node 12, Type 0, BuildingBlock: CEKHIL_clean_sbu_0, # of connection points: 4
#     Node 13, Type 0, BuildingBlock: CEKHIL_clean_sbu_0, # of connection points: 4
#     Node 14, Type 0, BuildingBlock: CEKHIL_clean_sbu_0, # of connection points: 4
#     Node 15, Type 0, BuildingBlock: CEKHIL_clean_sbu_0, # of connection points: 4
#     Node 16, Type 0, BuildingBlock: CEKHIL_clean_sbu_0, # of connection points: 4
#     Node 17, Type 0, BuildingBlock: CEKHIL_clean_sbu_0, # of connection points: 4
#     Node 18, Type 1, BuildingBlock: MIDCAF_clean_sbu_0, # of connection points: 6
#     Node 19, Type 1, BuildingBlock: MIDCAF_clean_sbu_0, # of connection points: 6
#     Node 20, Type 1, BuildingBlock: MIDCAF_clean_sbu_0, # of connection points: 6
#     Node 21, Type 1, BuildingBlock: MIDCAF_clean_sbu_0, # of connection points: 6
#     Node 22, Type 1, BuildingBlock: MIDCAF_clean_sbu_0, # of connection points: 6
#     Node 23, Type 1, BuildingBlock: MIDCAF_clean_sbu_0, # of connection points: 6
#     Node 24, Type 1, BuildingBlock: MIDCAF_clean_sbu_0, # of connection points: 6
#     Node 25, Type 1, BuildingBlock: MIDCAF_clean_sbu_0, # of connection points: 6
#     Node 26, Type 1, BuildingBlock: MIDCAF_clean_sbu_0, # of connection points: 6
#     Node 27, Type 1, BuildingBlock: MIDCAF_clean_sbu_0, # of connection points: 6
#     Node 28, Type 1, BuildingBlock: MIDCAF_clean_sbu_0, # of connection points: 6
#     Node 29, Type 1, BuildingBlock: MIDCAF_clean_sbu_0, # of connection points: 6
#     Edge 30, Type (0, 1), None
#     Edge 31, Type (0, 1), None
#     Edge 32, Type (0, 1), None
#     Edge 33, Type (0, 1), None
#     Edge 34, Type (0, 1), None
#     Edge 35, Type (0, 1), None
#     Edge 36, Type (0, 1), None
#     Edge 37, Type (0, 1), None
#     Edge 38, Type (0, 1), None
#     Edge 39, Type (0, 1), None
#     Edge 40, Type (0, 1), None
#     Edge 41, Type (0, 1), None
#     Edge 42, Type (0, 1), None
#     Edge 43, Type (0, 1), None
#     Edge 44, Type (0, 1), None
#     Edge 45, Type (0, 1), None
#     Edge 46, Type (0, 1), None
#     Edge 47, Type (0, 1), None
#     Edge 48, Type (0, 1), None
#     Edge 49, Type (0, 1), None
#     Edge 50, Type (0, 1), None
#     Edge 51, Type (0, 1), None
#     Edge 52, Type (0, 1), None
#     Edge 53, Type (0, 1), None
#     Edge 54, Type (0, 1), None
#     Edge 55, Type (0, 1), None
#     Edge 56, Type (0, 1), None
#     Edge 57, Type (0, 1), None
#     Edge 58, Type (0, 1), None
#     Edge 59, Type (0, 1), None
#     Edge 60, Type (0, 1), None
#     Edge 61, Type (0, 1), None
#     Edge 62, Type (0, 1), None
#     Edge 63, Type (0, 1), None
#     Edge 64, Type (0, 1), None
#     Edge 65, Type (0, 1), None
#     Edge 66, Type (0, 1), None
#     Edge 67, Type (0, 1), None
#     Edge 68, Type (0, 1), None
#     Edge 69, Type (0, 1), None
#     Edge 70, Type (0, 1), None
#     Edge 71, Type (0, 1), None
#     Edge 72, Type (0, 1), None
#     Edge 73, Type (0, 1), None
#     Edge 74, Type (0, 1), None
#     Edge 75, Type (0, 1), None
#     Edge 76, Type (0, 1), None
#     Edge 77, Type (0, 1), None
#     Edge 78, Type (0, 1), None
#     Edge 79, Type (0, 1), None
#     Edge 80, Type (0, 1), None
#     Edge 81, Type (0, 1), None
#     Edge 82, Type (0, 1), None
#     Edge 83, Type (0, 1), None
#     Edge 84, Type (0, 1), None
#     Edge 85, Type (0, 1), None
#     Edge 86, Type (0, 1), None
#     Edge 87, Type (0, 1), None
#     Edge 88, Type (0, 1), None
#     Edge 89, Type (0, 1), None
#     Edge 90, Type (0, 1), None
#     Edge 91, Type (0, 1), None
#     Edge 92, Type (0, 1), None
#     Edge 93, Type (0, 1), None
#     Edge 94, Type (0, 1), None
#     Edge 95, Type (0, 1), None
#     Edge 96, Type (0, 1), None
#     Edge 97, Type (0, 1), None
#     Edge 98, Type (0, 1), None
#     Edge 99, Type (0, 1), None
#     Edge 100, Type (0, 1), None
#     Edge 101, Type (0, 1), None
# Relax obj value: 0.112
# Max RMSD: 0.162
# Mean RMSD: 0.107
data_MOF--net-cor--node1-CEKHIL_clean_sbu_0--node2-MIDCAF_clean_sbu_0--edge1-none
_symmetry_space_group_name_H-M    P1
_symmetry_Int_Tables_number       1
_symmetry_cell_setting            triclinic
loop_
_symmetry_equiv_pos_as_xyz
'x, y, z'
_cell_length_a     18.006956
_cell_length_b     17.715799
_cell_length_c     43.225994
_cell_angle_alpha  90.464214
_cell_angle_beta   90.264241
_cell_angle_gamma 121.42386
loop_
_atom_site_label
_atom_site_type_symbol
_atom_site_fract_x
_atom_site_fract_y
_atom_site_fract_z
_atom_type_partial_charge
Co0 Co 0.67941 0.02149 0.28453 0.0
O1 O 0.62243 0.06114 0.25636 0.0
O2 O 0.73461 0.14662 0.28753 0.0
C3 C 0.55814 0.90597 0.30413 0.0
O4 O 0.75672 0.00805 0.31603 0.0
Co5 Co 0.64962 0.83212 0.27488 0.0
O6 O 0.72753 0.86839 0.31189 0.0
C7 C 0.76902 0.97605 0.23449 0.0
C8 C 0.67958 0.13987 0.26647 0.0
C9 C 0.77024 0.94626 0.32372 0.0
O10 O 0.76267 0.03266 0.25139 0.0
O11 O 0.72006 0.89223 0.23734 0.0
O12 O 0.58572 0.98457 0.31551 0.0
O13 O 0.59862 0.90277 0.28035 0.0
Co14 Co 0.02116 0.69136 0.29056 0.0
O15 O 0.05149 0.62454 0.31848 0.0
O16 O 0.14319 0.74099 0.29078 0.0
C17 C 0.9073 0.57461 0.26733 0.0
O18 O 0.01865 0.77797 0.25967 0.0
Co19 Co 0.84269 0.67833 0.29222 0.0
O20 O 0.87917 0.72927 0.24987 0.0
C21 C 0.97353 0.78044 0.34074 0.0
C22 C 0.1311 0.68057 0.31046 0.0
C23 C 0.95962 0.78108 0.24385 0.0
O24 O 0.03052 0.77173 0.3257 0.0
O25 O 0.89297 0.74083 0.33293 0.0
O26 O 0.98506 0.59961 0.25763 0.0
O27 O 0.90307 0.61557 0.29121 0.0
Co28 Co 0.34387 0.34462 0.28438 0.0
O29 O 0.43753 0.40883 0.25441 0.0
O30 O 0.41316 0.29341 0.28215 0.0
C31 C 0.35505 0.46338 0.30865 0.0
O32 O 0.25951 0.25983 0.31669 0.0
Co33 Co 0.17824 0.35489 0.28682 0.0
O34 O 0.15788 0.29183 0.32711 0.0
C35 C 0.19297 0.24819 0.2376 0.0
C36 C 0.45971 0.352 0.26158 0.0
C37 C 0.19375 0.24725 0.33246 0.0
O38 O 0.26317 0.26086 0.25084 0.0
O39 O 0.15396 0.28775 0.24636 0.0
O40 O 0.40889 0.43852 0.31647 0.0
O41 O 0.30382 0.42103 0.28568 0.0
Co42 Co 0.32803 0.0065 0.78685 0.0
O43 O 0.38501 0.96685 0.81502 0.0
O44 O 0.27283 0.88137 0.78385 0.0
C45 C 0.4493 0.12201 0.76724 0.0
O46 O 0.25071 0.01993 0.75534 0.0
Co47 Co 0.35782 0.19586 0.7965 0.0
O48 O 0.2799 0.1596 0.75949 0.0
C49 C 0.23842 0.05194 0.83689 0.0
C50 C 0.32786 0.88812 0.8049 0.0
C51 C 0.23719 0.08173 0.74766 0.0
O52 O 0.24477 -0.00467 0.81999 0.0
O53 O 0.28738 0.13576 0.83404 0.0
O54 O 0.42172 0.04342 0.75586 0.0
O55 O 0.40882 0.12521 0.79102 0.0
Co56 Co -0.01373 0.33662 0.78082 0.0
O57 O 0.95594 0.40345 0.7529 0.0
O58 O 0.86424 0.287 0.7806 0.0
C59 C 0.10014 0.45337 0.80405 0.0
O60 O -0.01122 0.25002 0.8117 0.0
Co61 Co 0.16475 0.34966 0.77915 0.0
O62 O 0.12827 0.29871 0.82151 0.0
C63 C 0.03391 0.24755 0.73063 0.0
C64 C 0.87634 0.34741 0.76092 0.0
C65 C 0.04782 0.24691 0.82752 0.0
O66 O 0.97691 0.25626 0.74567 0.0
O67 O 0.11447 0.28715 0.73844 0.0
O68 O 0.02238 0.42838 0.81374 0.0
O69 O 0.10436 0.41242 0.78017 0.0
Co70 Co 0.66356 0.68336 0.787 0.0
O71 O 0.5699 0.61916 0.81696 0.0
O72 O 0.59427 0.73457 0.78923 0.0
C73 C 0.65238 0.5646 0.76272 0.0
O74 O 0.74792 0.76815 0.75469 0.0
Co75 Co 0.8292 0.6731 0.78455 0.0
O76 O 0.84955 0.73616 0.74427 0.0
C77 C 0.81446 0.77979 0.83377 0.0
C78 C 0.54773 0.67599 0.8098 0.0
C79 C 0.81368 0.78074 0.73892 0.0
O80 O 0.74426 0.76713 0.82053 0.0
O81 O 0.85348 0.74024 0.82501 0.0
O82 O 0.59854 0.58946 0.75491 0.0
O83 O 0.70362 0.60695 0.78569 0.0
Co84 Co 0.34608 0.35483 0.61786 0.0
O85 O 0.2891 0.39448 0.58969 0.0
O86 O 0.40128 0.47996 0.62086 0.0
C87 C 0.22481 0.23931 0.63747 0.0
O88 O 0.42339 0.34139 0.64937 0.0
Co89 Co 0.3163 0.16546 0.60822 0.0
O90 O 0.39419 0.20172 0.64523 0.0
C91 C 0.4357 0.30939 0.56782 0.0
C92 C 0.34625 0.47321 0.59981 0.0
C93 C 0.43691 0.2796 0.65706 0.0
O94 O 0.42935 0.366 0.58472 0.0
O95 O 0.38674 0.22557 0.57067 0.0
O96 O 0.25239 0.3179 0.64885 0.0
O97 O 0.2653 0.23611 0.61369 0.0
Co98 Co 0.68784 0.0247 0.62389 0.0
O99 O 0.71817 0.95788 0.65181 0.0
O100 O 0.80987 0.07432 0.62411 0.0
C101 C 0.57397 0.90795 0.60066 0.0
O102 O 0.68533 0.1113 0.593 0.0
Co103 Co 0.50937 0.01167 0.62555 0.0
O104 O 0.54584 0.06261 0.58319 0.0
C105 C 0.6402 0.11378 0.67407 0.0
C106 C 0.79777 0.01391 0.64379 0.0
C107 C 0.6263 0.11441 0.57718 0.0
O108 O 0.6972 0.10506 0.65903 0.0
O109 O 0.55965 0.07417 0.66626 0.0
O110 O 0.65174 0.93294 0.59096 0.0
O111 O 0.56975 0.9489 0.62454 0.0
Co112 Co 0.01054 0.67795 0.61771 0.0
O113 O 0.10421 0.74216 0.58774 0.0
O114 O 0.07983 0.62675 0.61548 0.0
C115 C 0.02172 0.79671 0.64198 0.0
O116 O 0.92618 0.59317 0.65002 0.0
Co117 Co 0.84491 0.68822 0.62015 0.0
O118 O 0.82456 0.62517 0.66044 0.0
C119 C 0.85965 0.58153 0.57093 0.0
C120 C 0.12638 0.68533 0.59491 0.0
C121 C 0.86042 0.58058 0.66579 0.0
O122 O 0.92984 0.59419 0.58417 0.0
O123 O 0.82063 0.62108 0.57969 0.0
O124 O 0.07557 0.77186 0.6498 0.0
O125 O 0.97049 0.75437 0.61902 0.0
Co126 Co -0.00531 0.33983 0.12019 0.0
O127 O 0.05167 0.30018 0.14835 0.0
O128 O 0.93949 0.2147 0.11718 0.0
C129 C 0.11596 0.45535 0.10058 0.0
O130 O 0.91738 0.35327 0.08868 0.0
Co131 Co 0.02448 0.5292 0.12984 0.0
O132 O 0.94656 0.49293 0.09283 0.0
C133 C 0.90507 0.38527 0.17023 0.0
C134 C -0.00548 0.22145 0.13824 0.0
C135 C 0.90385 0.41506 0.081 0.0
O136 O 0.91143 0.32866 0.15332 0.0
O137 O 0.95404 0.46909 0.16738 0.0
O138 O 0.08838 0.37675 0.0892 0.0
O139 O 0.07548 0.45855 0.12436 0.0
Co140 Co 0.65294 0.66995 0.11415 0.0
O141 O 0.62261 0.73678 0.08623 0.0
O142 O 0.53091 0.62033 0.11393 0.0
C143 C 0.7668 0.7867 0.13738 0.0
O144 O 0.65544 0.58334 0.14503 0.0
Co145 Co 0.83141 0.68299 0.11248 0.0
O146 O 0.79493 0.63204 0.15484 0.0
C147 C 0.70058 0.58088 0.06397 0.0
C148 C 0.543 0.68074 0.09425 0.0
C149 C 0.71447 0.58024 0.16085 0.0
O150 O 0.64358 0.58959 0.07901 0.0
O151 O 0.78113 0.62049 0.07178 0.0
O152 O 0.68903 0.7617 0.14708 0.0
O153 O 0.77102 0.74575 0.1135 0.0
Co154 Co 0.33022 0.0167 0.12033 0.0
O155 O 0.23656 0.95249 0.1503 0.0
O156 O 0.26093 0.0679 0.12256 0.0
C157 C 0.31904 0.89794 0.09606 0.0
O158 O 0.41458 0.10148 0.08802 0.0
Co159 Co 0.49586 0.00643 0.11789 0.0
O160 O 0.51622 0.0695 0.0776 0.0
C161 C 0.48112 0.11312 0.16711 0.0
C162 C 0.21439 0.00932 0.14313 0.0
C163 C 0.48034 0.11407 0.07226 0.0
O164 O 0.41092 0.10046 0.15387 0.0
O165 O 0.52013 0.07357 0.15835 0.0
O166 O 0.2652 0.92279 0.08824 0.0
O167 O 0.37028 0.94029 0.11903 0.0
Co168 Co 0.01275 0.68815 0.95119 0.0
O169 O 0.95577 0.72781 0.92302 0.0
O170 O 0.06795 0.81328 0.95419 0.0
C171 C 0.89148 0.57263 0.9708 0.0
O172 O 0.09006 0.67471 0.9827 0.0
Co173 Co 0.98296 0.49879 0.94154 0.0
O174 O 0.06088 0.53505 0.97855 0.0
C175 C 0.10236 0.64272 0.90115 0.0
C176 C 0.01292 0.80654 0.93314 0.0
C177 C 0.10359 0.61292 0.99037 0.0
O178 O 0.09601 0.69932 0.91805 0.0
O179 O 0.0534 0.5589 0.904 0.0
O180 O 0.91906 0.65123 0.98218 0.0
O181 O 0.93196 0.56944 0.94702 0.0
Co182 Co 0.3545 0.35803 0.95723 0.0
O183 O 0.38483 0.29121 0.98514 0.0
O184 O 0.47653 0.40766 0.95745 0.0
C185 C 0.24064 0.24128 0.934 0.0
O186 O 0.35199 0.44464 0.92634 0.0
Co187 Co 0.17603 0.345 0.95889 0.0
O188 O 0.21251 0.39595 0.91653 0.0
C189 C 0.30686 0.4471 1.00741 0.0
C190 C 0.46444 0.34724 0.97713 0.0
C191 C 0.29296 0.44775 0.91052 0.0
O192 O 0.36386 0.43839 0.99237 0.0
O193 O 0.2263 0.4075 0.9996 0.0
O194 O 0.3184 0.26628 0.9243 0.0
O195 O 0.23641 0.28224 0.95788 0.0
Co196 Co 0.67721 0.01129 0.95105 0.0
O197 O 0.77088 0.0755 0.92108 0.0
O198 O 0.74651 0.96008 0.94881 0.0
C199 C 0.68839 0.13005 0.97532 0.0
O200 O 0.59286 0.9265 0.98335 0.0
Co201 Co 0.51158 0.02155 0.95349 0.0
O202 O 0.49122 0.95849 0.99377 0.0
C203 C 0.52632 0.91486 0.90427 0.0
C204 C 0.79305 0.01867 0.92825 0.0
C205 C 0.5271 0.91391 0.99912 0.0
O206 O 0.59652 0.92752 0.91751 0.0
O207 O 0.4873 0.95442 0.91303 0.0
O208 O 0.74224 0.10519 0.98313 0.0
O209 O 0.63716 0.0877 0.95235 0.0
Co210 Co 0.66135 0.67316 0.45352 0.0
O211 O 0.71833 0.63351 0.48168 0.0
O212 O 0.60615 0.54803 0.45051 0.0
C213 C 0.78262 0.78868 0.43391 0.0
O214 O 0.58404 0.6866 0.42201 0.0
Co215 Co 0.69114 0.86252 0.46316 0.0
O216 O 0.61324 0.82626 0.42615 0.0
C217 C 0.57173 0.7186 0.50355 0.0
C218 C 0.66118 0.55478 0.47157 0.0
C219 C 0.57053 0.74839 0.41432 0.0
O220 O 0.57809 0.66199 0.48665 0.0
O221 O 0.6207 0.80242 0.5007 0.0
O222 O 0.75504 0.71008 0.42253 0.0
O223 O 0.74214 0.79188 0.45769 0.0
Co224 Co 0.3196 0.00329 0.44749 0.0
O225 O 0.28927 0.07011 0.41957 0.0
O226 O 0.19757 0.95366 0.44727 0.0
C227 C 0.43346 0.12004 0.47072 0.0
O228 O 0.3221 0.91668 0.47837 0.0
Co229 Co 0.49807 0.01632 0.44582 0.0
O230 O 0.46159 0.96538 0.48818 0.0
C231 C 0.36723 0.91421 0.3973 0.0
C232 C 0.20966 0.01408 0.42758 0.0
C233 C 0.38113 0.91357 0.49419 0.0
O234 O 0.31024 0.92292 0.41234 0.0
O235 O 0.44779 0.95382 0.40511 0.0
O236 O 0.3557 0.09504 0.48041 0.0
O237 O 0.43769 0.07908 0.44684 0.0
Co238 Co -0.00311 0.35003 0.45366 0.0
O239 O 0.90323 0.28582 0.48363 0.0
O240 O 0.9276 0.40124 0.45589 0.0
C241 C 0.98571 0.23127 0.42939 0.0
O242 O 0.08125 0.43482 0.42136 0.0
Co243 Co 0.16253 0.33977 0.45122 0.0
O244 O 0.18288 0.40282 0.41094 0.0
C245 C 0.14779 0.44646 0.50044 0.0
C246 C 0.88106 0.34265 0.47646 0.0
C247 C 0.14701 0.4474 0.40559 0.0
O248 O 0.07759 0.43379 0.4872 0.0
O249 O 0.1868 0.4069 0.49168 0.0
O250 O 0.93187 0.25613 0.42158 0.0
O251 O 0.03694 0.27362 0.45236 0.0
Zn252 Zn -0.00923 -0.00257 0.13927 0.0
Zn253 Zn -0.00079 0.02736 0.23737 0.0
Zn254 Zn -0.00556 0.00401 0.18795 0.0
C255 C 0.97986 0.86747 0.23156 0.0
C256 C 0.13926 0.16307 0.22132 0.0
O257 O 0.03854 0.13917 0.17064 0.0
O258 O 0.94139 0.07164 0.13333 0.0
C259 C 0.84907 0.85616 0.15093 0.0
O260 O 0.02998 0.90997 0.20859 0.0
O261 O 0.94359 0.90155 0.24593 0.0
O262 O 0.13049 0.09759 0.23567 0.0
O263 O 0.07975 0.14815 0.20127 0.0
O264 O 0.91646 0.86866 0.13751 0.0
O265 O 0.85704 0.91234 0.1717 0.0
O266 O 0.08408 0.95739 0.17534 0.0
O267 O 0.11609 0.05356 0.13841 0.0
C268 C 0.13604 0.00682 0.15393 0.0
O269 O 0.86215 0.9535 0.20188 0.0
O270 O 0.9182 0.0739 0.23053 0.0
C271 C -0.00852 0.14147 0.14842 0.0
C272 C 0.85145 0.00711 0.21879 0.0
Zn273 Zn 0.01445 0.98379 0.33434 0.0
Zn274 Zn -0.00654 0.02071 0.43133 0.0
Zn275 Zn -0.00776 0.01493 0.38248 0.0
C276 C -0.00763 0.15905 0.41548 0.0
C277 C 0.85315 0.8721 0.42174 0.0
O278 O 0.95152 0.87416 0.37432 0.0
O279 O 0.07659 0.92546 0.35184 0.0
C280 C 0.13299 0.15534 0.34194 0.0
O281 O 0.93816 0.09869 0.39652 0.0
O282 O 0.04947 0.14863 0.42801 0.0
O283 O 0.86707 0.94152 0.43544 0.0
O284 O 0.9066 0.87852 0.40078 0.0
O285 O 0.07968 0.10657 0.32126 0.0
O286 O 0.1272 0.12343 0.36924 0.0
O287 O 0.89825 0.03586 0.35744 0.0
O288 O 0.88384 0.92253 0.331 0.0
C289 C 0.85216 0.96832 0.3396 0.0
O290 O 0.13097 0.0671 0.39639 0.0
O291 O 0.06659 0.97095 0.43366 0.0
C292 C 0.00619 0.85922 0.36058 0.0
C293 C 0.13373 0.01839 0.41801 0.0
Zn294 Zn 0.01666 0.03055 0.9321 0.0
Zn295 Zn 0.00824 0.00063 0.834 0.0
Zn296 Zn 0.013 0.02398 0.88343 0.0
C297 C 0.02758 0.16052 0.83981 0.0
C298 C 0.86818 0.86492 0.85006 0.0
O299 O 0.96889 0.88881 0.90073 0.0
O300 O 0.06604 0.95634 0.93805 0.0
C301 C 0.15837 0.17183 0.92044 0.0
O302 O 0.97745 0.11802 0.86278 0.0
O303 O 0.06385 0.12643 0.82545 0.0
O304 O 0.87695 0.93039 0.8357 0.0
O305 O 0.92769 0.87984 0.8701 0.0
O306 O 0.09098 0.15932 0.93387 0.0
O307 O 0.1504 0.11564 0.89968 0.0
O308 O 0.92336 0.07059 0.89604 0.0
O309 O 0.89134 0.97443 0.93296 0.0
C310 C 0.87139 0.02117 0.91745 0.0
O311 O 0.14529 0.07448 0.8695 0.0
O312 O 0.08924 0.95408 0.84085 0.0
C313 C 0.01595 0.88651 0.92296 0.0
C314 C 0.15599 0.02087 0.85259 0.0
Zn315 Zn -0.00702 0.0442 0.73704 0.0
Zn316 Zn 0.01398 0.00728 0.64004 0.0
Zn317 Zn 0.0152 0.01306 0.6889 0.0
C318 C 0.01506 0.86893 0.6559 0.0
C319 C 0.15429 0.15589 0.64964 0.0
O320 O 0.05591 0.15383 0.69705 0.0
O321 O 0.93084 0.10253 0.71953 0.0
C322 C 0.87444 0.87264 0.72944 0.0
O323 O 0.06928 0.92929 0.67485 0.0
O324 O 0.95796 0.87936 0.64336 0.0
O325 O 0.14036 0.08647 0.63593 0.0
O326 O 0.10084 0.14947 0.6706 0.0
O327 O 0.92775 0.92142 0.75012 0.0
O328 O 0.88023 0.90455 0.70214 0.0
O329 O 0.10919 0.99213 0.71394 0.0
O330 O 0.12359 0.10545 0.74037 0.0
C331 C 0.15527 0.05967 0.73178 0.0
O332 O 0.87647 0.96088 0.67499 0.0
O333 O 0.94084 0.05704 0.63771 0.0
C334 C 0.00125 0.16877 0.71079 0.0
C335 C 0.8737 0.0096 0.65337 0.0
Zn336 Zn 0.66589 0.3607 0.57071 0.0
Zn337 Zn 0.65744 0.33076 0.47261 0.0
Zn338 Zn 0.66111 0.33734 0.52128 0.0
C339 C 0.80271 0.34015 0.48726 0.0
C340 C 0.51574 0.18949 0.48427 0.0
O341 O 0.52882 0.28684 0.53521 0.0
O342 O 0.58488 0.40724 0.56386 0.0
C343 C 0.80594 0.49641 0.55465 0.0
O344 O 0.75075 0.29073 0.50867 0.0
O345 O 0.78276 0.38689 0.47174 0.0
O346 O 0.58313 0.20199 0.47084 0.0
O347 O 0.52371 0.24568 0.50503 0.0
O348 O 0.79717 0.43093 0.569 0.0
O349 O 0.74642 0.48148 0.5346 0.0
O350 O 0.69666 0.2433 0.54192 0.0
O351 O 0.61028 0.23489 0.57926 0.0
C352 C 0.64654 0.20081 0.5649 0.0
O353 O 0.70521 0.4725 0.50398 0.0
O354 O 0.60806 0.40497 0.46666 0.0
C355 C 0.51813 0.34045 0.55213 0.0
C356 C 0.65815 0.4748 0.48175 0.0
Zn357 Zn 0.66013 0.35405 0.76467 0.0
Zn358 Zn 0.68112 0.31713 0.66767 0.0
Zn359 Zn 0.65891 0.34826 0.71581 0.0
C360 C 0.51883 0.30165 0.67294 0.0
C361 C 0.79966 0.48868 0.67527 0.0
O362 O 0.79764 0.40044 0.72972 0.0
O363 O 0.73327 0.30428 0.767 0.0
C364 C 0.51982 0.20544 0.75507 0.0
O365 O 0.56492 0.36919 0.69078 0.0
O366 O 0.55051 0.25587 0.66434 0.0
O367 O 0.74634 0.4399 0.65459 0.0
O368 O 0.79388 0.45677 0.70257 0.0
O369 O 0.53375 0.27486 0.76877 0.0
O370 O 0.57328 0.21185 0.73411 0.0
O371 O 0.60483 0.43203 0.72986 0.0
O372 O 0.71615 0.48196 0.76135 0.0
C373 C 0.65904 0.49239 0.74881 0.0
O374 O 0.6182 0.20749 0.70765 0.0
O375 O 0.74326 0.25879 0.68517 0.0
C376 C 0.80041 0.35172 0.75134 0.0
C377 C 0.67286 0.19256 0.69392 0.0
Zn378 Zn 0.68332 0.36388 0.26544 0.0
Zn379 Zn 0.67489 0.33396 0.16734 0.0
Zn380 Zn 0.67965 0.35731 0.21676 0.0
C381 C 0.69424 0.49384 0.17314 0.0
C382 C 0.53483 0.19825 0.18339 0.0
O383 O 0.63555 0.22214 0.23407 0.0
O384 O 0.7327 0.28967 0.27138 0.0
C385 C 0.82502 0.50516 0.25378 0.0
O386 O 0.64411 0.45135 0.19612 0.0
O387 O 0.73051 0.45976 0.15878 0.0
O388 O 0.54361 0.26372 0.16904 0.0
O389 O 0.59434 0.21317 0.20344 0.0
O390 O 0.75763 0.49265 0.2672 0.0
O391 O 0.81705 0.44897 0.23302 0.0
O392 O 0.59001 0.40392 0.22937 0.0
O393 O 0.558 0.30776 0.2663 0.0
C394 C 0.53805 0.3545 0.25078 0.0
O395 O 0.81195 0.40781 0.20284 0.0
O396 O 0.75589 0.28741 0.17418 0.0
C397 C 0.68261 0.21985 0.25629 0.0
C398 C 0.82265 0.3542 0.18592 0.0
Zn399 Zn 0.65964 0.37753 0.07037 0.0
Zn400 Zn 0.68064 0.3406 0.97338 0.0
Zn401 Zn 0.68186 0.34639 1.02223 0.0
C402 C 0.68173 0.20226 0.98923 0.0
C403 C 0.82095 0.48921 0.98297 0.0
O404 O 0.72258 0.48717 1.03039 0.0
O405 O 0.59751 0.43587 0.05286 0.0
C406 C 0.5411 0.20598 0.06278 0.0
O407 O 0.73595 0.26262 1.00819 0.0
O408 O 0.62463 0.21269 0.9767 0.0
O409 O 0.80702 0.41979 0.96926 0.0
O410 O 0.7675 0.4828 1.00393 0.0
O411 O 0.5944 0.25476 0.08345 0.0
O412 O 0.5469 0.23789 1.03547 0.0
O413 O 0.77585 0.32547 0.04728 0.0
O414 O 0.79025 0.43879 0.07371 0.0
C415 C 0.82193 0.39301 0.06511 0.0
O416 O 0.54313 0.29422 1.00832 0.0
O417 O 0.60751 0.39037 0.97105 0.0
C418 C 0.66792 0.5021 0.04412 0.0
C419 C 0.54036 0.34293 0.9867 0.0
Zn420 Zn 0.33255 0.69403 0.90404 0.0
Zn421 Zn 0.32412 0.6641 0.80594 0.0
Zn422 Zn 0.32778 0.67068 0.85461 0.0
C423 C 0.46939 0.67349 0.82059 0.0
C424 C 0.18241 0.52283 0.8176 0.0
O425 O 0.19549 0.62017 0.86854 0.0
O426 O 0.25154 0.74057 0.89719 0.0
C427 C 0.47261 0.82974 0.88798 0.0
O428 O 0.41742 0.62406 0.842 0.0
O429 O 0.44944 0.72022 0.80508 0.0
O430 O 0.2498 0.53533 0.80417 0.0
O431 O 0.19038 0.57901 0.83836 0.0
O432 O 0.46383 0.76426 0.90234 0.0
O433 O 0.41309 0.81482 0.86794 0.0
O434 O 0.36333 0.57664 0.87526 0.0
O435 O 0.27693 0.56822 0.9126 0.0
C436 C 0.3132 0.53414 0.89823 0.0
O437 O 0.37189 0.80584 0.83731 0.0
O438 O 0.27473 0.73831 0.79999 0.0
C439 C 0.18479 0.67379 0.88546 0.0
C440 C 0.32483 0.80814 0.81508 0.0
Zn441 Zn 0.3268 0.68738 0.098 0.0
Zn442 Zn 0.3478 0.65045 1.00101 0.0
Zn443 Zn 0.32557 0.6816 0.04914 0.0
C444 C 0.18551 0.63498 1.00626 0.0
C445 C 0.46633 0.822 1.0086 0.0
O446 O 0.4643 0.73377 0.06306 0.0
O447 O 0.39993 0.63762 0.10033 0.0
C448 C 0.18648 0.53877 0.08841 0.0
O449 O 0.23159 0.70252 1.0241 0.0
O450 O 0.21719 0.5892 0.99767 0.0
O451 O 0.41304 0.77322 0.98792 0.0
O452 O 0.46054 0.7901 0.0359 0.0
O453 O 0.20042 0.60819 0.10211 0.0
O454 O 0.23993 0.54519 0.06745 0.0
O455 O 0.27149 0.76536 0.06319 0.0
O456 O 0.38281 0.8153 0.09468 0.0
C457 C 0.32571 0.82572 0.08214 0.0
O458 O 0.28485 0.54082 0.04099 0.0
O459 O 0.40993 0.59211 1.01852 0.0
C460 C 0.46707 0.68505 0.08467 0.0
C461 C 0.33952 0.52588 1.02726 0.0
Zn462 Zn 0.35 0.69722 0.59877 0.0
Zn463 Zn 0.34155 0.66729 0.50067 0.0
Zn464 Zn 0.34633 0.69064 0.5501 0.0
C465 C 0.3609 0.82718 0.50648 0.0
C466 C 0.2015 0.53158 0.51673 0.0
O467 O 0.30222 0.55548 0.5674 0.0
O468 O 0.39938 0.62301 0.60472 0.0
C469 C 0.4917 0.8385 0.58711 0.0
O470 O 0.31078 0.78468 0.52945 0.0
O471 O 0.39716 0.79309 0.49211 0.0
O472 O 0.21027 0.59705 0.50237 0.0
O473 O 0.26101 0.5465 0.53677 0.0
O474 O 0.42431 0.82599 0.60053 0.0
O475 O 0.48373 0.78231 0.56635 0.0
O476 O 0.25669 0.73725 0.56271 0.0
O477 O 0.22468 0.6411 0.59963 0.0
C478 C 0.20472 0.68783 0.58412 0.0
O479 O 0.47861 0.74115 0.53616 0.0
O480 O 0.42256 0.62075 0.50751 0.0
C481 C 0.34929 0.55318 0.58962 0.0
C482 C 0.48931 0.68753 0.51925 0.0
Zn483 Zn 0.3473 0.67394 0.30671 0.0
Zn484 Zn 0.32631 0.71086 0.4037 0.0
Zn485 Zn 0.34852 0.67972 0.35556 0.0
C486 C 0.4886 0.72633 0.39844 0.0
C487 C 0.20778 0.53931 0.39611 0.0
O488 O 0.20979 0.62755 0.34165 0.0
O489 O 0.27417 0.7237 0.30438 0.0
C490 C 0.48761 0.82255 0.3163 0.0
O491 O 0.44252 0.65879 0.3806 0.0
O492 O 0.45692 0.77212 0.40704 0.0
O493 O 0.26109 0.58808 0.41678 0.0
O494 O 0.21356 0.57122 0.36881 0.0
O495 O 0.47368 0.75313 0.3026 0.0
O496 O 0.43416 0.81613 0.33727 0.0
O497 O 0.40261 0.59596 0.34152 0.0
O498 O 0.29129 0.54602 0.31003 0.0
C499 C 0.34839 0.5356 0.32257 0.0
O500 O 0.38924 0.8205 0.36372 0.0
O501 O 0.26417 0.76919 0.3862 0.0
C502 C 0.20703 0.67626 0.32004 0.0
C503 C 0.33458 0.83543 0.37746 0.0
loop_
_geom_bond_atom_site_label_1
_geom_bond_atom_site_label_2
_geom_bond_distance
_geom_bond_site_symmetry_2
_ccdc_geom_bond_type
Co0 O1 2.216 . S
Co0 O2 2.091 . S
Co0 O4 2.004 . S
Co0 O10 2.021 . S
Co0 O12 2.137 1_545 S
Co0 O13 2.244 1_545 S
O1 Co0 2.216 . S
O1 C8 1.247 . S
O2 Co0 2.091 . S
O2 C8 1.261 . S
C3 O12 1.247 . S
C3 O13 1.272 . S
O4 Co0 2.004 . S
O4 C9 1.259 . S
Co5 O6 2.061 . S
Co5 O11 2.052 . S
Co5 O13 2.135 . S
O6 Co5 2.061 . S
O6 C9 1.235 1_565 S
C7 O10 1.238 1_565 S
C7 O11 1.241 . S
C8 O1 1.247 . S
C8 O2 1.261 . S
C9 O4 1.259 . S
C9 O6 1.235 1_545 S
O10 Co0 2.021 . S
O10 C7 1.238 1_545 S
O11 Co5 2.052 . S
O11 C7 1.241 . S
O12 Co0 2.137 1_565 S
O12 C3 1.247 . S
O13 Co0 2.244 1_565 S
O13 C3 1.272 . S
O13 Co5 2.135 . S
Co14 O15 2.216 . S
Co14 O16 2.091 . S
Co14 O18 2.004 . S
Co14 O24 2.021 . S
Co14 O26 2.137 1_455 S
Co14 O27 2.244 1_455 S
O15 Co14 2.216 . S
O15 C22 1.247 . S
O16 Co14 2.091 . S
O16 C22 1.261 . S
C17 O26 1.247 . S
C17 O27 1.272 . S
O18 Co14 2.004 . S
O18 C23 1.259 . S
Co19 O20 2.061 . S
Co19 O25 2.052 . S
Co19 O27 2.135 . S
O20 Co19 2.061 . S
O20 C23 1.235 1_655 S
C21 O24 1.238 1_655 S
C21 O25 1.241 . S
C22 O15 1.247 . S
C22 O16 1.261 . S
C23 O18 1.259 . S
C23 O20 1.235 1_455 S
O24 Co14 2.021 . S
O24 C21 1.238 1_455 S
O25 Co19 2.052 . S
O25 C21 1.241 . S
O26 Co14 2.137 1_655 S
O26 C17 1.247 . S
O27 Co14 2.244 1_655 S
O27 C17 1.272 . S
O27 Co19 2.135 . S
Co28 O29 2.216 . S
Co28 O30 2.091 . S
Co28 O32 2.004 . S
Co28 O38 2.021 . S
Co28 O40 2.137 . S
Co28 O41 2.244 . S
O29 Co28 2.216 . S
O29 C36 1.247 . S
O30 Co28 2.091 . S
O30 C36 1.261 . S
C31 O40 1.247 . S
C31 O41 1.272 . S
O32 Co28 2.004 . S
O32 C37 1.259 . S
Co33 O34 2.061 . S
Co33 O39 2.052 . S
Co33 O41 2.135 . S
O34 Co33 2.061 . S
O34 C37 1.235 . S
C35 O38 1.238 . S
C35 O39 1.241 . S
C36 O29 1.247 . S
C36 O30 1.261 . S
C37 O32 1.259 . S
C37 O34 1.235 . S
O38 Co28 2.021 . S
O38 C35 1.238 . S
O39 Co33 2.052 . S
O39 C35 1.241 . S
O40 Co28 2.137 . S
O40 C31 1.247 . S
O41 Co28 2.244 . S
O41 C31 1.272 . S
O41 Co33 2.135 . S
Co42 O43 2.222 . S
Co42 O44 2.103 . S
Co42 O46 2.002 . S
Co42 O52 2.017 . S
Co42 O54 2.138 1_565 S
Co42 O55 2.235 1_565 S
O43 Co42 2.222 . S
O43 C50 1.247 . S
O44 Co42 2.103 . S
O44 C50 1.261 . S
C45 O54 1.247 . S
C45 O55 1.272 . S
O46 Co42 2.002 . S
O46 C51 1.259 1_565 S
Co47 O48 2.061 . S
Co47 O53 2.052 . S
Co47 O55 2.135 . S
O48 Co47 2.061 . S
O48 C51 1.235 . S
C49 O52 1.238 1_545 S
C49 O53 1.241 . S
C50 O43 1.247 . S
C50 O44 1.261 . S
C51 O46 1.259 1_545 S
C51 O48 1.235 . S
O52 Co42 2.017 . S
O52 C49 1.238 1_565 S
O53 Co47 2.052 . S
O53 C49 1.241 . S
O54 Co42 2.138 1_545 S
O54 C45 1.247 . S
O55 Co42 2.235 1_545 S
O55 C45 1.272 . S
O55 Co47 2.135 . S
Co56 O57 2.216 . S
Co56 O58 2.091 . S
Co56 O60 2.004 . S
Co56 O66 2.021 . S
Co56 O68 2.137 1_655 S
Co56 O69 2.244 1_655 S
O57 Co56 2.216 . S
O57 C64 1.247 . S
O58 Co56 2.091 . S
O58 C64 1.261 . S
C59 O68 1.247 . S
C59 O69 1.272 . S
O60 Co56 2.004 . S
O60 C65 1.259 1_655 S
Co61 O62 2.061 . S
Co61 O67 2.052 . S
Co61 O69 2.135 . S
O62 Co61 2.061 . S
O62 C65 1.235 . S
C63 O66 1.238 1_455 S
C63 O67 1.241 . S
C64 O57 1.247 . S
C64 O58 1.261 . S
C65 O60 1.259 1_455 S
C65 O62 1.235 . S
O66 Co56 2.021 . S
O66 C63 1.238 1_655 S
O67 Co61 2.052 . S
O67 C63 1.241 . S
O68 Co56 2.137 1_455 S
O68 C59 1.247 . S
O69 Co56 2.244 1_455 S
O69 C59 1.272 . S
O69 Co61 2.135 . S
Co70 O71 2.216 . S
Co70 O72 2.091 . S
Co70 O74 2.004 . S
Co70 O80 2.021 . S
Co70 O82 2.137 . S
Co70 O83 2.244 . S
O71 Co70 2.216 . S
O71 C78 1.247 . S
O72 Co70 2.091 . S
O72 C78 1.261 . S
C73 O82 1.247 . S
C73 O83 1.272 . S
O74 Co70 2.004 . S
O74 C79 1.259 . S
Co75 O76 2.061 . S
Co75 O81 2.052 . S
Co75 O83 2.135 . S
O76 Co75 2.061 . S
O76 C79 1.235 . S
C77 O80 1.238 . S
C77 O81 1.241 . S
C78 O71 1.247 . S
C78 O72 1.261 . S
C79 O74 1.259 . S
C79 O76 1.235 . S
O80 Co70 2.021 . S
O80 C77 1.238 . S
O81 Co75 2.052 . S
O81 C77 1.241 . S
O82 Co70 2.137 . S
O82 C73 1.247 . S
O83 Co70 2.244 . S
O83 C73 1.272 . S
O83 Co75 2.135 . S
Co84 O85 2.216 . S
Co84 O86 2.091 . S
Co84 O88 2.004 . S
Co84 O94 2.021 . S
Co84 O96 2.137 . S
Co84 O97 2.244 . S
O85 Co84 2.216 . S
O85 C92 1.247 . S
O86 Co84 2.091 . S
O86 C92 1.261 . S
C87 O96 1.247 . S
C87 O97 1.272 . S
O88 Co84 2.004 . S
O88 C93 1.259 . S
Co89 O90 2.061 . S
Co89 O95 2.052 . S
Co89 O97 2.135 . S
O90 Co89 2.061 . S
O90 C93 1.235 . S
C91 O94 1.238 . S
C91 O95 1.241 . S
C92 O85 1.247 . S
C92 O86 1.261 . S
C93 O88 1.259 . S
C93 O90 1.235 . S
O94 Co84 2.021 . S
O94 C91 1.238 . S
O95 Co89 2.052 . S
O95 C91 1.241 . S
O96 Co84 2.137 . S
O96 C87 1.247 . S
O97 Co84 2.244 . S
O97 C87 1.272 . S
O97 Co89 2.135 . S
Co98 O99 2.216 1_545 S
Co98 O100 2.091 . S
Co98 O102 2.004 . S
Co98 O108 2.021 . S
Co98 O110 2.137 1_545 S
Co98 O111 2.244 1_545 S
O99 Co98 2.216 1_565 S
O99 C106 1.247 1_565 S
O100 Co98 2.091 . S
O100 C106 1.261 . S
C101 O110 1.247 . S
C101 O111 1.272 . S
O102 Co98 2.004 . S
O102 C107 1.259 . S
Co103 O104 2.061 . S
Co103 O109 2.052 . S
Co103 O111 2.135 1_545 S
O104 Co103 2.061 . S
O104 C107 1.235 . S
C105 O108 1.238 . S
C105 O109 1.241 . S
C106 O99 1.247 1_545 S
C106 O100 1.261 . S
C107 O102 1.259 . S
C107 O104 1.235 . S
O108 Co98 2.021 . S
O108 C105 1.238 . S
O109 Co103 2.052 . S
O109 C105 1.241 . S
O110 Co98 2.137 1_565 S
O110 C101 1.247 . S
O111 Co98 2.244 1_565 S
O111 C101 1.272 . S
O111 Co103 2.135 1_565 S
Co112 O113 2.216 1_655 S
Co112 O114 2.091 1_655 S
Co112 O116 2.004 . S
Co112 O122 2.021 . S
Co112 O124 2.137 1_655 S
Co112 O125 2.244 . S
O113 Co112 2.216 1_455 S
O113 C120 1.247 . S
O114 Co112 2.091 1_455 S
O114 C120 1.261 . S
C115 O124 1.247 . S
C115 O125 1.272 1_455 S
O116 Co112 2.004 . S
O116 C121 1.259 . S
Co117 O118 2.061 . S
Co117 O123 2.052 . S
Co117 O125 2.135 . S
O118 Co117 2.061 . S
O118 C121 1.235 . S
C119 O122 1.238 . S
C119 O123 1.241 . S
C120 O113 1.247 . S
C120 O114 1.261 . S
C121 O116 1.259 . S
C121 O118 1.235 . S
O122 Co112 2.021 . S
O122 C119 1.238 . S
O123 Co117 2.052 . S
O123 C119 1.241 . S
O124 Co112 2.137 1_455 S
O124 C115 1.247 . S
O125 Co112 2.244 . S
O125 C115 1.272 1_655 S
O125 Co117 2.135 . S
Co126 O127 2.216 1_655 S
Co126 O128 2.091 . S
Co126 O130 2.004 . S
Co126 O136 2.021 . S
Co126 O138 2.137 1_655 S
Co126 O139 2.244 1_655 S
O127 Co126 2.216 1_455 S
O127 C134 1.247 . S
O128 Co126 2.091 . S
O128 C134 1.261 1_655 S
C129 O138 1.247 . S
C129 O139 1.272 . S
O130 Co126 2.004 . S
O130 C135 1.259 . S
Co131 O132 2.061 . S
Co131 O137 2.052 . S
Co131 O139 2.135 1_655 S
O132 Co131 2.061 . S
O132 C135 1.235 . S
C133 O136 1.238 . S
C133 O137 1.241 . S
C134 O127 1.247 . S
C134 O128 1.261 1_455 S
C135 O130 1.259 . S
C135 O132 1.235 . S
O136 Co126 2.021 . S
O136 C133 1.238 . S
O137 Co131 2.052 . S
O137 C133 1.241 . S
O138 Co126 2.137 1_455 S
O138 C129 1.247 . S
O139 Co126 2.244 1_455 S
O139 C129 1.272 . S
O139 Co131 2.135 1_455 S
Co140 O141 2.216 . S
Co140 O142 2.091 . S
Co140 O144 2.004 . S
Co140 O150 2.021 . S
Co140 O152 2.137 . S
Co140 O153 2.244 . S
O141 Co140 2.216 . S
O141 C148 1.247 . S
O142 Co140 2.091 . S
O142 C148 1.261 . S
C143 O152 1.247 . S
C143 O153 1.272 . S
O144 Co140 2.004 . S
O144 C149 1.259 . S
Co145 O146 2.061 . S
Co145 O151 2.052 . S
Co145 O153 2.135 . S
O146 Co145 2.061 . S
O146 C149 1.235 . S
C147 O150 1.238 . S
C147 O151 1.241 . S
C148 O141 1.247 . S
C148 O142 1.261 . S
C149 O144 1.259 . S
C149 O146 1.235 . S
O150 Co140 2.021 . S
O150 C147 1.238 . S
O151 Co145 2.052 . S
O151 C147 1.241 . S
O152 Co140 2.137 . S
O152 C143 1.247 . S
O153 Co140 2.244 . S
O153 C143 1.272 . S
O153 Co145 2.135 . S
Co154 O155 2.216 1_545 S
Co154 O156 2.091 . S
Co154 O158 2.004 . S
Co154 O164 2.021 . S
Co154 O166 2.137 1_545 S
Co154 O167 2.244 1_545 S
O155 Co154 2.216 1_565 S
O155 C162 1.247 1_565 S
O156 Co154 2.091 . S
O156 C162 1.261 . S
C157 O166 1.247 . S
C157 O167 1.272 . S
O158 Co154 2.004 . S
O158 C163 1.259 . S
Co159 O160 2.061 . S
Co159 O165 2.052 . S
Co159 O167 2.135 1_545 S
O160 Co159 2.061 . S
O160 C163 1.235 . S
C161 O164 1.238 . S
C161 O165 1.241 . S
C162 O155 1.247 1_545 S
C162 O156 1.261 . S
C163 O158 1.259 . S
C163 O160 1.235 . S
O164 Co154 2.021 . S
O164 C161 1.238 . S
O165 Co159 2.052 . S
O165 C161 1.241 . S
O166 Co154 2.137 1_565 S
O166 C157 1.247 . S
O167 Co154 2.244 1_565 S
O167 C157 1.272 . S
O167 Co159 2.135 1_565 S
Co168 O169 2.216 1_455 S
Co168 O170 2.091 . S
Co168 O172 2.004 . S
Co168 O178 2.021 . S
Co168 O180 2.137 1_455 S
Co168 O181 2.244 1_455 S
O169 Co168 2.216 1_655 S
O169 C176 1.247 1_655 S
O170 Co168 2.091 . S
O170 C176 1.261 . S
C171 O180 1.247 . S
C171 O181 1.272 . S
O172 Co168 2.004 . S
O172 C177 1.259 . S
Co173 O174 2.061 . S
Co173 O179 2.052 . S
Co173 O181 2.135 1_455 S
O174 Co173 2.061 . S
O174 C177 1.235 . S
C175 O178 1.238 . S
C175 O179 1.241 . S
C176 O169 1.247 1_455 S
C176 O170 1.261 . S
C177 O172 1.259 . S
C177 O174 1.235 . S
O178 Co168 2.021 . S
O178 C175 1.238 . S
O179 Co173 2.052 . S
O179 C175 1.241 . S
O180 Co168 2.137 1_655 S
O180 C171 1.247 . S
O181 Co168 2.244 1_655 S
O181 C171 1.272 . S
O181 Co173 2.135 1_655 S
Co182 O183 2.216 . S
Co182 O184 2.091 . S
Co182 O186 2.004 . S
Co182 O192 2.021 . S
Co182 O194 2.137 . S
Co182 O195 2.244 . S
O183 Co182 2.216 . S
O183 C190 1.247 . S
O184 Co182 2.091 . S
O184 C190 1.261 . S
C185 O194 1.247 . S
C185 O195 1.272 . S
O186 Co182 2.004 . S
O186 C191 1.259 . S
Co187 O188 2.061 . S
Co187 O193 2.052 . S
Co187 O195 2.135 . S
O188 Co187 2.061 . S
O188 C191 1.235 . S
C189 O192 1.238 . S
C189 O193 1.241 . S
C190 O183 1.247 . S
C190 O184 1.261 . S
C191 O186 1.259 . S
C191 O188 1.235 . S
O192 Co182 2.021 . S
O192 C189 1.238 . S
O193 Co187 2.052 . S
O193 C189 1.241 . S
O194 Co182 2.137 . S
O194 C185 1.247 . S
O195 Co182 2.244 . S
O195 C185 1.272 . S
O195 Co187 2.135 . S
Co196 O197 2.216 1_565 S
Co196 O198 2.091 . S
Co196 O200 2.004 . S
Co196 O206 2.021 . S
Co196 O208 2.137 1_565 S
Co196 O209 2.244 1_565 S
O197 Co196 2.216 1_545 S
O197 C204 1.247 . S
O198 Co196 2.091 . S
O198 C204 1.261 1_565 S
C199 O208 1.247 . S
C199 O209 1.272 . S
O200 Co196 2.004 . S
O200 C205 1.259 . S
Co201 O202 2.061 . S
Co201 O207 2.052 . S
Co201 O209 2.135 1_565 S
O202 Co201 2.061 . S
O202 C205 1.235 . S
C203 O206 1.238 . S
C203 O207 1.241 . S
C204 O197 1.247 . S
C204 O198 1.261 1_545 S
C205 O200 1.259 . S
C205 O202 1.235 . S
O206 Co196 2.021 . S
O206 C203 1.238 . S
O207 Co201 2.052 . S
O207 C203 1.241 . S
O208 Co196 2.137 1_545 S
O208 C199 1.247 . S
O209 Co196 2.244 1_545 S
O209 C199 1.272 . S
O209 Co201 2.135 1_545 S
Co210 O211 2.216 . S
Co210 O212 2.091 . S
Co210 O214 2.004 . S
Co210 O220 2.021 . S
Co210 O222 2.137 . S
Co210 O223 2.244 . S
O211 Co210 2.216 . S
O211 C218 1.247 . S
O212 Co210 2.091 . S
O212 C218 1.261 . S
C213 O222 1.247 . S
C213 O223 1.272 . S
O214 Co210 2.004 . S
O214 C219 1.259 . S
Co215 O216 2.061 . S
Co215 O221 2.052 . S
Co215 O223 2.135 . S
O216 Co215 2.061 . S
O216 C219 1.235 . S
C217 O220 1.238 . S
C217 O221 1.241 . S
C218 O211 1.247 . S
C218 O212 1.261 . S
C219 O214 1.259 . S
C219 O216 1.235 . S
O220 Co210 2.021 . S
O220 C217 1.238 . S
O221 Co215 2.052 . S
O221 C217 1.241 . S
O222 Co210 2.137 . S
O222 C213 1.247 . S
O223 Co210 2.244 . S
O223 C213 1.272 . S
O223 Co215 2.135 . S
Co224 O225 2.216 1_565 S
Co224 O226 2.091 . S
Co224 O228 2.004 . S
Co224 O234 2.021 . S
Co224 O236 2.137 1_565 S
Co224 O237 2.244 1_565 S
O225 Co224 2.216 1_545 S
O225 C232 1.247 . S
O226 Co224 2.091 . S
O226 C232 1.261 1_565 S
C227 O236 1.247 . S
C227 O237 1.272 . S
O228 Co224 2.004 . S
O228 C233 1.259 . S
Co229 O230 2.061 . S
Co229 O235 2.052 . S
Co229 O237 2.135 1_565 S
O230 Co229 2.061 . S
O230 C233 1.235 . S
C231 O234 1.238 . S
C231 O235 1.241 . S
C232 O225 1.247 . S
C232 O226 1.261 1_545 S
C233 O228 1.259 . S
C233 O230 1.235 . S
O234 Co224 2.021 . S
O234 C231 1.238 . S
O235 Co229 2.052 . S
O235 C231 1.241 . S
O236 Co224 2.137 1_545 S
O236 C227 1.247 . S
O237 Co224 2.244 1_545 S
O237 C227 1.272 . S
O237 Co229 2.135 1_545 S
Co238 O239 2.216 1_455 S
Co238 O240 2.091 1_455 S
Co238 O242 2.004 . S
Co238 O248 2.021 . S
Co238 O250 2.137 1_455 S
Co238 O251 2.244 . S
O239 Co238 2.216 1_655 S
O239 C246 1.247 . S
O240 Co238 2.091 1_655 S
O240 C246 1.261 . S
C241 O250 1.247 1_455 S
C241 O251 1.272 . S
O242 Co238 2.004 . S
O242 C247 1.259 . S
Co243 O244 2.061 . S
Co243 O249 2.052 . S
Co243 O251 2.135 . S
O244 Co243 2.061 . S
O244 C247 1.235 . S
C245 O248 1.238 . S
C245 O249 1.241 . S
C246 O239 1.247 . S
C246 O240 1.261 . S
C247 O242 1.259 . S
C247 O244 1.235 . S
O248 Co238 2.021 . S
O248 C245 1.238 . S
O249 Co243 2.052 . S
O249 C245 1.241 . S
O250 Co238 2.137 1_655 S
O250 C241 1.247 1_655 S
O251 Co238 2.244 . S
O251 C241 1.272 . S
O251 Co243 2.135 . S
Zn252 O258 1.920 1_455 S
Zn252 O264 1.898 1_445 S
Zn252 O267 1.905 . S
Zn253 O261 1.905 1_445 S
Zn253 O262 1.898 . S
Zn253 O270 1.920 1_455 S
Zn254 O257 2.080 . S
Zn254 O260 2.114 1_545 S
Zn254 O263 2.120 . S
Zn254 O265 2.120 1_445 S
Zn254 O266 2.114 . S
Zn254 O269 2.080 1_455 S
C255 O260 1.166 1_655 S
C255 O261 1.182 . S
C256 O262 1.167 . S
C256 O263 1.299 . S
O257 Zn254 2.080 . S
O257 C271 1.305 1_455 S
O258 Zn252 1.920 1_655 S
O258 C271 1.234 . S
C259 O264 1.167 . S
C259 O265 1.299 . S
O260 Zn254 2.114 1_565 S
O260 C255 1.166 1_455 S
O261 Zn253 1.905 1_665 S
O261 C255 1.182 . S
O262 Zn253 1.898 . S
O262 C256 1.167 . S
O263 Zn254 2.120 . S
O263 C256 1.299 . S
O264 Zn252 1.898 1_665 S
O264 C259 1.167 . S
O265 Zn254 2.120 1_665 S
O265 C259 1.299 . S
O266 Zn254 2.114 . S
O266 C268 1.166 . S
O267 Zn252 1.905 . S
O267 C268 1.182 . S
C268 O266 1.166 . S
C268 O267 1.182 . S
O269 Zn254 2.080 1_655 S
O269 C272 1.305 . S
O270 Zn253 1.920 1_655 S
O270 C272 1.234 . S
C271 O257 1.305 1_655 S
C271 O258 1.234 . S
C272 O269 1.305 . S
C272 O270 1.234 . S
Zn273 O279 1.920 1_545 S
Zn273 O285 1.898 . S
Zn273 O288 1.905 1_445 S
Zn274 O282 1.905 . S
Zn274 O283 1.898 1_445 S
Zn274 O291 1.920 1_545 S
Zn275 O278 2.080 1_445 S
Zn275 O281 2.114 . S
Zn275 O284 2.120 1_445 S
Zn275 O286 2.120 . S
Zn275 O287 2.114 1_455 S
Zn275 O290 2.080 . S
C276 O281 1.166 . S
C276 O282 1.182 . S
C277 O283 1.167 . S
C277 O284 1.299 . S
O278 Zn275 2.080 1_665 S
O278 C292 1.305 1_655 S
O279 Zn273 1.920 1_565 S
O279 C292 1.234 . S
C280 O285 1.167 . S
C280 O286 1.299 . S
O281 Zn275 2.114 . S
O281 C276 1.166 . S
O282 Zn274 1.905 . S
O282 C276 1.182 . S
O283 Zn274 1.898 1_665 S
O283 C277 1.167 . S
O284 Zn275 2.120 1_665 S
O284 C277 1.299 . S
O285 Zn273 1.898 . S
O285 C280 1.167 . S
O286 Zn275 2.120 . S
O286 C280 1.299 . S
O287 Zn275 2.114 1_655 S
O287 C289 1.166 1_545 S
O288 Zn273 1.905 1_665 S
O288 C289 1.182 . S
C289 O287 1.166 1_565 S
C289 O288 1.182 . S
O290 Zn275 2.080 . S
O290 C293 1.305 1_545 S
O291 Zn274 1.920 1_565 S
O291 C293 1.234 . S
C292 O278 1.305 1_455 S
C292 O279 1.234 . S
C293 O290 1.305 1_565 S
C293 O291 1.234 . S
Zn294 O300 1.920 1_545 S
Zn294 O306 1.898 . S
Zn294 O309 1.905 1_445 S
Zn295 O303 1.905 . S
Zn295 O304 1.898 1_445 S
Zn295 O312 1.920 1_545 S
Zn296 O299 2.080 1_545 S
Zn296 O302 2.114 . S
Zn296 O305 2.120 1_445 S
Zn296 O307 2.120 . S
Zn296 O308 2.114 1_455 S
Zn296 O311 2.080 . S
C297 O302 1.166 . S
C297 O303 1.182 . S
C298 O304 1.167 . S
C298 O305 1.299 . S
O299 Zn296 2.080 1_565 S
O299 C313 1.305 . S
O300 Zn294 1.920 1_565 S
O300 C313 1.234 . S
C301 O306 1.167 . S
C301 O307 1.299 . S
O302 Zn296 2.114 . S
O302 C297 1.166 . S
O303 Zn295 1.905 . S
O303 C297 1.182 . S
O304 Zn295 1.898 1_665 S
O304 C298 1.167 . S
O305 Zn296 2.120 1_665 S
O305 C298 1.299 . S
O306 Zn294 1.898 . S
O306 C301 1.167 . S
O307 Zn296 2.120 . S
O307 C301 1.299 . S
O308 Zn296 2.114 1_655 S
O308 C310 1.166 1_545 S
O309 Zn294 1.905 1_665 S
O309 C310 1.182 . S
C310 O308 1.166 1_565 S
C310 O309 1.182 . S
O311 Zn296 2.080 . S
O311 C314 1.305 1_545 S
O312 Zn295 1.920 1_565 S
O312 C314 1.234 . S
C313 O299 1.305 . S
C313 O300 1.234 . S
C314 O311 1.305 1_565 S
C314 O312 1.234 . S
Zn315 O321 1.920 1_455 S
Zn315 O327 1.898 1_445 S
Zn315 O330 1.905 . S
Zn316 O324 1.905 1_445 S
Zn316 O325 1.898 . S
Zn316 O333 1.920 1_455 S
Zn317 O320 2.080 . S
Zn317 O323 2.114 1_545 S
Zn317 O326 2.120 . S
Zn317 O328 2.120 1_445 S
Zn317 O329 2.114 . S
Zn317 O332 2.080 1_455 S
C318 O323 1.166 1_655 S
C318 O324 1.182 . S
C319 O325 1.167 . S
C319 O326 1.299 . S
O320 Zn317 2.080 . S
O320 C334 1.305 1_455 S
O321 Zn315 1.920 1_655 S
O321 C334 1.234 . S
C322 O327 1.167 . S
C322 O328 1.299 . S
O323 Zn317 2.114 1_565 S
O323 C318 1.166 1_455 S
O324 Zn316 1.905 1_665 S
O324 C318 1.182 . S
O325 Zn316 1.898 . S
O325 C319 1.167 . S
O326 Zn317 2.120 . S
O326 C319 1.299 . S
O327 Zn315 1.898 1_665 S
O327 C322 1.167 . S
O328 Zn317 2.120 1_665 S
O328 C322 1.299 . S
O329 Zn317 2.114 . S
O329 C331 1.166 . S
O330 Zn315 1.905 . S
O330 C331 1.182 . S
C331 O329 1.166 . S
C331 O330 1.182 . S
O332 Zn317 2.080 1_655 S
O332 C335 1.305 . S
O333 Zn316 1.920 1_655 S
O333 C335 1.234 . S
C334 O320 1.305 1_655 S
C334 O321 1.234 . S
C335 O332 1.305 . S
C335 O333 1.234 . S
Zn336 O342 1.920 . S
Zn336 O348 1.898 . S
Zn336 O351 1.905 . S
Zn337 O345 1.905 . S
Zn337 O346 1.898 . S
Zn337 O354 1.920 . S
Zn338 O341 2.080 . S
Zn338 O344 2.114 . S
Zn338 O347 2.120 . S
Zn338 O349 2.120 . S
Zn338 O350 2.114 . S
Zn338 O353 2.080 . S
C339 O344 1.166 . S
C339 O345 1.182 . S
C340 O346 1.167 . S
C340 O347 1.299 . S
O341 Zn338 2.080 . S
O341 C355 1.305 . S
O342 Zn336 1.920 . S
O342 C355 1.234 . S
C343 O348 1.167 . S
C343 O349 1.299 . S
O344 Zn338 2.114 . S
O344 C339 1.166 . S
O345 Zn337 1.905 . S
O345 C339 1.182 . S
O346 Zn337 1.898 . S
O346 C340 1.167 . S
O347 Zn338 2.120 . S
O347 C340 1.299 . S
O348 Zn336 1.898 . S
O348 C343 1.167 . S
O349 Zn338 2.120 . S
O349 C343 1.299 . S
O350 Zn338 2.114 . S
O350 C352 1.166 . S
O351 Zn336 1.905 . S
O351 C352 1.182 . S
C352 O350 1.166 . S
C352 O351 1.182 . S
O353 Zn338 2.080 . S
O353 C356 1.305 . S
O354 Zn337 1.920 . S
O354 C356 1.234 . S
C355 O341 1.305 . S
C355 O342 1.234 . S
C356 O353 1.305 . S
C356 O354 1.234 . S
Zn357 O363 1.920 . S
Zn357 O369 1.898 . S
Zn357 O372 1.905 . S
Zn358 O366 1.905 . S
Zn358 O367 1.898 . S
Zn358 O375 1.920 . S
Zn359 O362 2.080 . S
Zn359 O365 2.114 . S
Zn359 O368 2.120 . S
Zn359 O370 2.120 . S
Zn359 O371 2.114 . S
Zn359 O374 2.080 . S
C360 O365 1.166 . S
C360 O366 1.182 . S
C361 O367 1.167 . S
C361 O368 1.299 . S
O362 Zn359 2.080 . S
O362 C376 1.305 . S
O363 Zn357 1.920 . S
O363 C376 1.234 . S
C364 O369 1.167 . S
C364 O370 1.299 . S
O365 Zn359 2.114 . S
O365 C360 1.166 . S
O366 Zn358 1.905 . S
O366 C360 1.182 . S
O367 Zn358 1.898 . S
O367 C361 1.167 . S
O368 Zn359 2.120 . S
O368 C361 1.299 . S
O369 Zn357 1.898 . S
O369 C364 1.167 . S
O370 Zn359 2.120 . S
O370 C364 1.299 . S
O371 Zn359 2.114 . S
O371 C373 1.166 . S
O372 Zn357 1.905 . S
O372 C373 1.182 . S
C373 O371 1.166 . S
C373 O372 1.182 . S
O374 Zn359 2.080 . S
O374 C377 1.305 . S
O375 Zn358 1.920 . S
O375 C377 1.234 . S
C376 O362 1.305 . S
C376 O363 1.234 . S
C377 O374 1.305 . S
C377 O375 1.234 . S
Zn378 O384 1.920 . S
Zn378 O390 1.898 . S
Zn378 O393 1.905 . S
Zn379 O387 1.905 . S
Zn379 O388 1.898 . S
Zn379 O396 1.920 . S
Zn380 O383 2.080 . S
Zn380 O386 2.114 . S
Zn380 O389 2.120 . S
Zn380 O391 2.120 . S
Zn380 O392 2.114 . S
Zn380 O395 2.080 . S
C381 O386 1.166 . S
C381 O387 1.182 . S
C382 O388 1.167 . S
C382 O389 1.299 . S
O383 Zn380 2.080 . S
O383 C397 1.305 . S
O384 Zn378 1.920 . S
O384 C397 1.234 . S
C385 O390 1.167 . S
C385 O391 1.299 . S
O386 Zn380 2.114 . S
O386 C381 1.166 . S
O387 Zn379 1.905 . S
O387 C381 1.182 . S
O388 Zn379 1.898 . S
O388 C382 1.167 . S
O389 Zn380 2.120 . S
O389 C382 1.299 . S
O390 Zn378 1.898 . S
O390 C385 1.167 . S
O391 Zn380 2.120 . S
O391 C385 1.299 . S
O392 Zn380 2.114 . S
O392 C394 1.166 . S
O393 Zn378 1.905 . S
O393 C394 1.182 . S
C394 O392 1.166 . S
C394 O393 1.182 . S
O395 Zn380 2.080 . S
O395 C398 1.305 . S
O396 Zn379 1.920 . S
O396 C398 1.234 . S
C397 O383 1.305 . S
C397 O384 1.234 . S
C398 O395 1.305 . S
C398 O396 1.234 . S
Zn399 O405 1.920 . S
Zn399 O411 1.898 . S
Zn399 O414 1.905 . S
Zn400 O408 1.905 . S
Zn400 O409 1.898 . S
Zn400 O417 1.920 . S
Zn401 O404 2.080 1_556 S
Zn401 O407 2.114 . S
Zn401 O410 2.120 . S
Zn401 O412 2.120 1_556 S
Zn401 O413 2.114 1_556 S
Zn401 O416 2.080 . S
C402 O407 1.166 . S
C402 O408 1.182 . S
C403 O409 1.167 . S
C403 O410 1.299 . S
O404 Zn401 2.080 1_554 S
O404 C418 1.305 . S
O405 Zn399 1.920 . S
O405 C418 1.234 . S
C406 O411 1.167 . S
C406 O412 1.299 . S
O407 Zn401 2.114 . S
O407 C402 1.166 . S
O408 Zn400 1.905 . S
O408 C402 1.182 . S
O409 Zn400 1.898 . S
O409 C403 1.167 . S
O410 Zn401 2.120 . S
O410 C403 1.299 . S
O411 Zn399 1.898 . S
O411 C406 1.167 . S
O412 Zn401 2.120 1_554 S
O412 C406 1.299 . S
O413 Zn401 2.114 1_554 S
O413 C415 1.166 . S
O414 Zn399 1.905 . S
O414 C415 1.182 . S
C415 O413 1.166 . S
C415 O414 1.182 . S
O416 Zn401 2.080 . S
O416 C419 1.305 . S
O417 Zn400 1.920 . S
O417 C419 1.234 . S
C418 O404 1.305 . S
C418 O405 1.234 . S
C419 O416 1.305 . S
C419 O417 1.234 . S
Zn420 O426 1.920 . S
Zn420 O432 1.898 . S
Zn420 O435 1.905 . S
Zn421 O429 1.905 . S
Zn421 O430 1.898 . S
Zn421 O438 1.920 . S
Zn422 O425 2.080 . S
Zn422 O428 2.114 . S
Zn422 O431 2.120 . S
Zn422 O433 2.120 . S
Zn422 O434 2.114 . S
Zn422 O437 2.080 . S
C423 O428 1.166 . S
C423 O429 1.182 . S
C424 O430 1.167 . S
C424 O431 1.299 . S
O425 Zn422 2.080 . S
O425 C439 1.305 . S
O426 Zn420 1.920 . S
O426 C439 1.234 . S
C427 O432 1.167 . S
C427 O433 1.299 . S
O428 Zn422 2.114 . S
O428 C423 1.166 . S
O429 Zn421 1.905 . S
O429 C423 1.182 . S
O430 Zn421 1.898 . S
O430 C424 1.167 . S
O431 Zn422 2.120 . S
O431 C424 1.299 . S
O432 Zn420 1.898 . S
O432 C427 1.167 . S
O433 Zn422 2.120 . S
O433 C427 1.299 . S
O434 Zn422 2.114 . S
O434 C436 1.166 . S
O435 Zn420 1.905 . S
O435 C436 1.182 . S
C436 O434 1.166 . S
C436 O435 1.182 . S
O437 Zn422 2.080 . S
O437 C440 1.305 . S
O438 Zn421 1.920 . S
O438 C440 1.234 . S
C439 O425 1.305 . S
C439 O426 1.234 . S
C440 O437 1.305 . S
C440 O438 1.234 . S
Zn441 O447 1.920 . S
Zn441 O453 1.898 . S
Zn441 O456 1.905 . S
Zn442 O450 1.905 . S
Zn442 O451 1.898 . S
Zn442 O459 1.920 . S
Zn443 O446 2.080 . S
Zn443 O449 2.114 1_554 S
Zn443 O452 2.120 1_554 S
Zn443 O454 2.120 . S
Zn443 O455 2.114 . S
Zn443 O458 2.080 1_554 S
C444 O449 1.166 . S
C444 O450 1.182 . S
C445 O451 1.167 . S
C445 O452 1.299 . S
O446 Zn443 2.080 . S
O446 C460 1.305 . S
O447 Zn441 1.920 . S
O447 C460 1.234 . S
C448 O453 1.167 . S
C448 O454 1.299 . S
O449 Zn443 2.114 1_556 S
O449 C444 1.166 . S
O450 Zn442 1.905 . S
O450 C444 1.182 . S
O451 Zn442 1.898 . S
O451 C445 1.167 . S
O452 Zn443 2.120 1_556 S
O452 C445 1.299 . S
O453 Zn441 1.898 . S
O453 C448 1.167 . S
O454 Zn443 2.120 . S
O454 C448 1.299 . S
O455 Zn443 2.114 . S
O455 C457 1.166 . S
O456 Zn441 1.905 . S
O456 C457 1.182 . S
C457 O455 1.166 . S
C457 O456 1.182 . S
O458 Zn443 2.080 1_556 S
O458 C461 1.305 . S
O459 Zn442 1.920 . S
O459 C461 1.234 . S
C460 O446 1.305 . S
C460 O447 1.234 . S
C461 O458 1.305 . S
C461 O459 1.234 . S
Zn462 O468 1.920 . S
Zn462 O474 1.898 . S
Zn462 O477 1.905 . S
Zn463 O471 1.905 . S
Zn463 O472 1.898 . S
Zn463 O480 1.920 . S
Zn464 O467 2.080 . S
Zn464 O470 2.114 . S
Zn464 O473 2.120 . S
Zn464 O475 2.120 . S
Zn464 O476 2.114 . S
Zn464 O479 2.080 . S
C465 O470 1.166 . S
C465 O471 1.182 . S
C466 O472 1.167 . S
C466 O473 1.299 . S
O467 Zn464 2.080 . S
O467 C481 1.305 . S
O468 Zn462 1.920 . S
O468 C481 1.234 . S
C469 O474 1.167 . S
C469 O475 1.299 . S
O470 Zn464 2.114 . S
O470 C465 1.166 . S
O471 Zn463 1.905 . S
O471 C465 1.182 . S
O472 Zn463 1.898 . S
O472 C466 1.167 . S
O473 Zn464 2.120 . S
O473 C466 1.299 . S
O474 Zn462 1.898 . S
O474 C469 1.167 . S
O475 Zn464 2.120 . S
O475 C469 1.299 . S
O476 Zn464 2.114 . S
O476 C478 1.166 . S
O477 Zn462 1.905 . S
O477 C478 1.182 . S
C478 O476 1.166 . S
C478 O477 1.182 . S
O479 Zn464 2.080 . S
O479 C482 1.305 . S
O480 Zn463 1.920 . S
O480 C482 1.234 . S
C481 O467 1.305 . S
C481 O468 1.234 . S
C482 O479 1.305 . S
C482 O480 1.234 . S
Zn483 O489 1.920 . S
Zn483 O495 1.898 . S
Zn483 O498 1.905 . S
Zn484 O492 1.905 . S
Zn484 O493 1.898 . S
Zn484 O501 1.920 . S
Zn485 O488 2.080 . S
Zn485 O491 2.114 . S
Zn485 O494 2.120 . S
Zn485 O496 2.120 . S
Zn485 O497 2.114 . S
Zn485 O500 2.080 . S
C486 O491 1.166 . S
C486 O492 1.182 . S
C487 O493 1.167 . S
C487 O494 1.299 . S
O488 Zn485 2.080 . S
O488 C502 1.305 . S
O489 Zn483 1.920 . S
O489 C502 1.234 . S
C490 O495 1.167 . S
C490 O496 1.299 . S
O491 Zn485 2.114 . S
O491 C486 1.166 . S
O492 Zn484 1.905 . S
O492 C486 1.182 . S
O493 Zn484 1.898 . S
O493 C487 1.167 . S
O494 Zn485 2.120 . S
O494 C487 1.299 . S
O495 Zn483 1.898 . S
O495 C490 1.167 . S
O496 Zn485 2.120 . S
O496 C490 1.299 . S
O497 Zn485 2.114 . S
O497 C499 1.166 . S
O498 Zn483 1.905 . S
O498 C499 1.182 . S
C499 O497 1.166 . S
C499 O498 1.182 . S
O500 Zn485 2.080 . S
O500 C503 1.305 . S
O501 Zn484 1.920 . S
O501 C503 1.234 . S
C502 O488 1.305 . S
C502 O489 1.234 . S
C503 O500 1.305 . S
C503 O501 1.234 . S
C35 C256 1.240 . S
C7 C272 1.286 1_565 S
C255 C23 1.042 1_655 S
C280 C37 1.005 . S
C9 C289 1.066 1_545 S
C292 C21 1.220 1_455 S
C77 C298 1.240 . S
C314 C49 1.286 1_565 S
C297 C65 1.041 . S
C79 C322 1.005 . S
C331 C51 1.066 . S
C334 C63 1.220 1_655 S
C343 C119 1.240 . S
C355 C91 1.286 . S
C352 C107 1.041 . S
C121 C361 1.005 . S
C360 C93 1.066 . S
C105 C377 1.220 . S
C382 C161 1.240 . S
C398 C133 1.286 . S
C149 C381 1.041 . S
C406 C163 1.005 . S
C415 C135 1.066 . S
C147 C418 1.220 . S
C203 C427 1.240 . S
C439 C175 1.286 . S
C436 C191 1.041 . S
C205 C445 1.005 . S
C444 C177 1.066 . S
C189 C461 1.220 . S
C466 C245 1.240 . S
C482 C217 1.286 . S
C233 C465 1.042 . S
C487 C247 1.005 . S
C486 C219 1.066 . S
C503 C231 1.220 . S
C268 C162 1.713 . S
C134 C271 1.669 1_455 S
C259 C143 1.679 . S
C241 C276 1.766 . S
C213 C277 1.744 . S
C293 C232 1.740 1_565 S
C310 C204 1.713 1_565 S
C313 C176 1.669 . S
C185 C301 1.679 . S
C318 C115 1.766 1_655 S
C87 C319 1.744 . S
C106 C335 1.740 . S
C246 C339 1.713 . S
C218 C356 1.670 . S
C340 C227 1.679 . S
C373 C73 1.766 . S
C364 C45 1.744 . S
C64 C376 1.740 . S
C394 C36 1.713 . S
C397 C8 1.669 . S
C17 C385 1.679 . S
C402 C199 1.766 . S
C403 C171 1.744 . S
C419 C190 1.740 . S
C423 C78 1.713 . S
C440 C50 1.669 . S
C59 C424 1.679 . S
C157 C457 1.766 . S
C129 C448 1.744 . S
C460 C148 1.740 . S
C120 C478 1.713 . S
C92 C481 1.669 . S
C469 C101 1.679 . S
C499 C31 1.766 . S
C490 C3 1.744 . S
C22 C502 1.740 . S
