# Generated by pormake.
# Topology apo, (3,6)-cn, num edge types: 1
# Building blocks:
#     Node 0, Type 0, BuildingBlock: OLANEW_clean_sbu_2, # of connection points: 3
#     Node 1, Type 0, BuildingBlock: OLANEW_clean_sbu_2, # of connection points: 3
#     Node 2, Type 0, BuildingBlock: OLANEW_clean_sbu_2, # of connection points: 3
#     Node 3, Type 0, BuildingBlock: OLANEW_clean_sbu_2, # of connection points: 3
#     Node 4, Type 0, BuildingBlock: OLANEW_clean_sbu_2, # of connection points: 3
#     Node 5, Type 0, BuildingBlock: OLANEW_clean_sbu_2, # of connection points: 3
#     Node 6, Type 0, BuildingBlock: OLANEW_clean_sbu_2, # of connection points: 3
#     Node 7, Type 0, BuildingBlock: OLANEW_clean_sbu_2, # of connection points: 3
#     Node 8, Type 1, BuildingBlock: KUMBUR_clean_sbu_1, # of connection points: 6
#     Node 9, Type 1, BuildingBlock: KUMBUR_clean_sbu_1, # of connection points: 6
#     Node 10, Type 1, BuildingBlock: KUMBUR_clean_sbu_1, # of connection points: 6
#     Node 11, Type 1, BuildingBlock: KUMBUR_clean_sbu_1, # of connection points: 6
#     Edge 12, Type (0, 1), BuildingBlock: TEMPAE_clean_linker_10, # of connection points: 2
#     Edge 13, Type (0, 1), BuildingBlock: TEMPAE_clean_linker_10, # of connection points: 2
#     Edge 14, Type (0, 1), BuildingBlock: TEMPAE_clean_linker_10, # of connection points: 2
#     Edge 15, Type (0, 1), BuildingBlock: TEMPAE_clean_linker_10, # of connection points: 2
#     Edge 16, Type (0, 1), BuildingBlock: TEMPAE_clean_linker_10, # of connection points: 2
#     Edge 17, Type (0, 1), BuildingBlock: TEMPAE_clean_linker_10, # of connection points: 2
#     Edge 18, Type (0, 1), BuildingBlock: TEMPAE_clean_linker_10, # of connection points: 2
#     Edge 19, Type (0, 1), BuildingBlock: TEMPAE_clean_linker_10, # of connection points: 2
#     Edge 20, Type (0, 1), BuildingBlock: TEMPAE_clean_linker_10, # of connection points: 2
#     Edge 21, Type (0, 1), BuildingBlock: TEMPAE_clean_linker_10, # of connection points: 2
#     Edge 22, Type (0, 1), BuildingBlock: TEMPAE_clean_linker_10, # of connection points: 2
#     Edge 23, Type (0, 1), BuildingBlock: TEMPAE_clean_linker_10, # of connection points: 2
#     Edge 24, Type (0, 1), BuildingBlock: TEMPAE_clean_linker_10, # of connection points: 2
#     Edge 25, Type (0, 1), BuildingBlock: TEMPAE_clean_linker_10, # of connection points: 2
#     Edge 26, Type (0, 1), BuildingBlock: TEMPAE_clean_linker_10, # of connection points: 2
#     Edge 27, Type (0, 1), BuildingBlock: TEMPAE_clean_linker_10, # of connection points: 2
#     Edge 28, Type (0, 1), BuildingBlock: TEMPAE_clean_linker_10, # of connection points: 2
#     Edge 29, Type (0, 1), BuildingBlock: TEMPAE_clean_linker_10, # of connection points: 2
#     Edge 30, Type (0, 1), BuildingBlock: TEMPAE_clean_linker_10, # of connection points: 2
#     Edge 31, Type (0, 1), BuildingBlock: TEMPAE_clean_linker_10, # of connection points: 2
#     Edge 32, Type (0, 1), BuildingBlock: TEMPAE_clean_linker_10, # of connection points: 2
#     Edge 33, Type (0, 1), BuildingBlock: TEMPAE_clean_linker_10, # of connection points: 2
#     Edge 34, Type (0, 1), BuildingBlock: TEMPAE_clean_linker_10, # of connection points: 2
#     Edge 35, Type (0, 1), BuildingBlock: TEMPAE_clean_linker_10, # of connection points: 2
# Relax obj value: 0.030
# Max RMSD: 0.223
# Mean RMSD: 0.133
data_MOF--net-apo--node1-OLANEW_clean_sbu_2--node2-KUMBUR_clean_sbu_1--edge1-TEMPAE_clean_linker_10
_symmetry_space_group_name_H-M    P1
_symmetry_Int_Tables_number       1
_symmetry_cell_setting            triclinic
loop_
_symmetry_equiv_pos_as_xyz
'x, y, z'
_cell_length_a     28.480619
_cell_length_b     45.238924
_cell_length_c     55.996483
_cell_angle_alpha  88.688622
_cell_angle_beta   90.014797
_cell_angle_gamma 90.774961
loop_
_atom_site_label
_atom_site_type_symbol
_atom_site_fract_x
_atom_site_fract_y
_atom_site_fract_z
_atom_type_partial_charge
O0 O 0.29929 0.38808 0.35804 0.0
Cd1 Cd 0.2656 0.34891 0.38397 0.0
O2 O 0.34395 0.40527 0.38682 0.0
Cd3 Cd 0.3204 0.377 0.41664 0.0
O4 O 0.32156 0.37639 0.45564 0.0
C5 C 0.3558 0.36486 0.46685 0.0
O6 O 0.38798 0.35102 0.45474 0.0
C7 C 0.3302 0.40639 0.36522 0.0
C8 C 0.22521 0.30281 0.35818 0.0
O9 O 0.20151 0.32562 0.36353 0.0
O10 O 0.26816 0.30181 0.36497 0.0
O11 O 0.327 0.14391 0.96766 0.0
Cd12 Cd 0.35383 0.1435 0.9261 0.0
O13 O 0.28376 0.10786 0.95436 0.0
Cd14 Cd 0.23726 0.06917 0.95199 0.0
O15 O 0.20201 0.03543 0.93092 0.0
C16 C 0.16593 0.04258 0.91886 0.0
O17 O 0.14938 0.06939 0.92077 0.0
C18 C 0.29675 0.12353 0.97181 0.0
C19 C 0.37972 0.19679 0.90351 0.0
O20 O 0.33712 0.1873 0.90289 0.0
O21 O 0.40951 0.18167 0.91565 0.0
O22 O 0.8195 0.11115 0.64465 0.0
Cd23 Cd 0.78713 0.15191 0.62065 0.0
O24 O 0.88662 0.11004 0.62512 0.0
Cd25 Cd 0.86836 0.14089 0.59605 0.0
O26 O 0.87434 0.15383 0.5582 0.0
C27 C 0.89935 0.13686 0.54581 0.0
O28 O 0.91865 0.11386 0.55647 0.0
C29 C 0.86032 0.1006 0.64208 0.0
C30 C 0.74536 0.19419 0.64925 0.0
O31 O 0.72216 0.17149 0.64229 0.0
O32 O 0.78835 0.19693 0.64269 0.0
O33 O 0.73356 0.30693 0.04839 0.0
Cd34 Cd 0.70947 0.28409 0.08644 0.0
O35 O 0.71682 0.35091 0.06087 0.0
Cd36 Cd 0.70623 0.39863 0.06292 0.0
O37 O 0.68584 0.43692 0.08356 0.0
C38 C 0.64392 0.43721 0.09134 0.0
O39 O 0.61498 0.41573 0.08542 0.0
C40 C 0.73022 0.33451 0.04409 0.0
C41 C 0.78209 0.2658 0.11632 0.0
O42 O 0.77095 0.25128 0.09774 0.0
O43 O 0.75966 0.28946 0.12062 0.0
O44 O 0.71713 0.6157 0.63703 0.0
Cd45 Cd 0.74658 0.65482 0.60968 0.0
O46 O 0.67488 0.59578 0.60854 0.0
Cd47 Cd 0.69666 0.62541 0.57922 0.0
O48 O 0.70249 0.63234 0.54066 0.0
C49 C 0.66484 0.63558 0.52875 0.0
O50 O 0.62486 0.63711 0.54033 0.0
C51 C 0.68837 0.59586 0.63019 0.0
C52 C 0.80016 0.69787 0.63264 0.0
O53 O 0.75547 0.70005 0.63082 0.0
O54 O 0.81952 0.67524 0.62366 0.0
O55 O 0.83596 0.88135 0.12944 0.0
Cd56 Cd 0.80527 0.84206 0.10415 0.0
O57 O 0.7741 0.90971 0.12656 0.0
Cd58 Cd 0.75277 0.88574 0.0949 0.0
O59 O 0.76833 0.88099 0.05698 0.0
C60 C 0.76324 0.9039 0.04372 0.0
O61 O 0.74617 0.92782 0.05317 0.0
C62 C 0.81381 0.90407 0.13584 0.0
C63 C 0.74095 0.80564 0.1289 0.0
O64 O 0.78527 0.80319 0.13212 0.0
O65 O 0.72659 0.82527 0.11385 0.0
O66 O 0.25875 0.89545 0.36826 0.0
Cd67 Cd 0.29301 0.85811 0.3954 0.0
O68 O 0.19447 0.89861 0.38989 0.0
Cd69 Cd 0.21704 0.87141 0.42041 0.0
O70 O 0.21347 0.85906 0.45838 0.0
C71 C 0.20553 0.87982 0.47272 0.0
O72 O 0.20214 0.90695 0.46406 0.0
C73 C 0.21806 0.90601 0.37136 0.0
C74 C 0.33729 0.81237 0.37151 0.0
O75 O 0.29334 0.81096 0.37641 0.0
O76 O 0.3603 0.83547 0.37779 0.0
O77 O 0.2671 0.58503 0.8701 0.0
Cd78 Cd 0.22275 0.61705 0.89631 0.0
O79 O 0.33498 0.59853 0.88543 0.0
Cd80 Cd 0.30568 0.62481 0.91384 0.0
O81 O 0.30491 0.6404 0.95043 0.0
C82 C 0.34395 0.64984 0.95843 0.0
O83 O 0.38044 0.65088 0.94406 0.0
C84 C 0.31168 0.58366 0.87039 0.0
C85 C 0.18615 0.66623 0.87203 0.0
O86 O 0.2269 0.66732 0.88174 0.0
O87 O 0.16285 0.64183 0.87374 0.0
Tb88 Tb 0.06995 0.10092 0.21775 0.0
C89 C 0.87796 0.07833 0.25824 0.0
N90 N 0.9024 0.10438 0.25694 0.0
C91 C 0.8353 0.12797 0.23925 0.0
C92 C 0.83226 0.07569 0.24876 0.0
C93 C 0.88026 0.12952 0.24926 0.0
C94 C 0.81161 0.1008 0.23847 0.0
C95 C 0.87274 0.02779 0.27364 0.0
C96 C 0.89768 0.05469 0.27053 0.0
C97 C 0.82819 0.02457 0.26318 0.0
C98 C 0.80804 0.04845 0.2507 0.0
Tb99 Tb 0.97693 0.10301 0.27268 0.0
N100 N 0.94161 0.0582 0.27955 0.0
C101 C 0.89334 0.00508 0.28728 0.0
C102 C 0.96115 0.03671 0.29373 0.0
C103 C 0.93752 0.00969 0.29759 0.0
H104 H 0.89652 0.15102 0.25111 0.0
H105 H 0.95342 0.99243 0.30844 0.0
H106 H 0.16368 0.07646 0.24606 0.0
H107 H 0.04403 0.19615 0.15903 0.0
H108 H 0.99521 0.04034 0.30174 0.0
H109 H 0.8753 0.98406 0.29013 0.0
H110 H 0.02415 0.14732 0.17669 0.0
H111 H 0.81866 0.14785 0.2325 0.0
H112 H 0.80872 0.0039 0.26499 0.0
H113 H 0.77316 0.04589 0.24322 0.0
H114 H 0.24414 0.09451 0.25474 0.0
H115 H 0.7766 0.09974 0.23094 0.0
H116 H 0.11951 0.22064 0.16896 0.0
N117 N 0.14426 0.11575 0.22719 0.0
C118 C 0.1588 0.14215 0.21766 0.0
C119 C 0.22033 0.10825 0.24448 0.0
C120 C 0.20428 0.15334 0.22207 0.0
C121 C 0.17476 0.09813 0.23964 0.0
C122 C 0.23499 0.13614 0.23591 0.0
N123 N 0.08494 0.14555 0.19893 0.0
C124 C 0.05598 0.15836 0.1823 0.0
C125 C 0.14156 0.18519 0.19287 0.0
C126 C 0.12779 0.1578 0.20336 0.0
C127 C 0.11034 0.19953 0.17734 0.0
C128 C 0.06765 0.18582 0.17176 0.0
H129 H 0.27029 0.14394 0.23969 0.0
H130 H 0.2524 0.19019 0.21562 0.0
H131 H 0.19748 0.21809 0.19001 0.0
O132 O 0.08879 0.09691 0.18168 0.0
O133 O 0.09122 0.1237 0.25054 0.0
O134 O 0.02243 0.1415 0.2663 0.0
O135 O 0.09425 0.05992 0.20616 0.0
O136 O 1.00026 0.11991 0.21207 0.0
O137 O 0.97744 0.1411 0.24726 0.0
O138 O 0.99567 0.10434 0.30905 0.0
O139 O 0.98297 0.06393 0.25016 0.0
O140 O 0.99779 0.0852 0.2137 0.0
O141 O 0.9286 0.11959 0.29717 0.0
O142 O 0.04589 0.08391 0.28061 0.0
O143 O 0.07421 0.06529 0.24488 0.0
C144 C 0.06832 0.1418 0.26427 0.0
C145 C 0.15125 0.06466 0.17516 0.0
C146 C 0.20593 0.06799 0.14148 0.0
C147 C 0.24086 0.05535 0.15609 0.0
C148 C 0.18663 0.05194 0.18938 0.0
C149 C 0.23115 0.04739 0.17984 0.0
C150 C 0.16111 0.07249 0.15122 0.0
C151 C 0.98097 0.14147 0.22377 0.0
C152 C 0.10402 0.07021 0.18481 0.0
C153 C 0.21771 0.18105 0.21229 0.0
C154 C 0.18639 0.19696 0.19775 0.0
C155 C 0.97947 0.06372 0.22683 0.0
C156 C 0.96233 0.14359 0.32977 0.0
C157 C 0.95785 0.16622 0.36885 0.0
C158 C 0.97097 0.19358 0.35822 0.0
C159 C 0.97465 0.17113 0.31941 0.0
C160 C 0.95392 0.14123 0.35441 0.0
C161 C 0.97917 0.19595 0.33364 0.0
C162 C 0.07179 0.06548 0.26844 0.0
C163 C 0.95715 0.11724 0.31512 0.0
H164 H 0.2759 0.05196 0.14924 0.0
H165 H 0.18007 0.04556 0.20784 0.0
H166 H 0.25833 0.03773 0.19093 0.0
H167 H 0.13364 0.08189 0.14012 0.0
H168 H 0.974 0.21324 0.36882 0.0
H169 H 0.98076 0.17343 0.30037 0.0
H170 H 0.9445 0.11988 0.36234 0.0
H171 H 0.98871 0.21714 0.32557 0.0
Tb172 Tb 0.47935 0.38336 0.73943 0.0
C173 C 0.66678 0.44156 0.76655 0.0
N174 N 0.65534 0.4124 0.76572 0.0
C175 C 0.72518 0.40338 0.74324 0.0
C176 C 0.70715 0.45308 0.75496 0.0
C177 C 0.68445 0.39306 0.75486 0.0
C178 C 0.73637 0.43356 0.74309 0.0
C179 C 0.64804 0.4902 0.78051 0.0
C180 C 0.63756 0.45975 0.77905 0.0
C181 C 0.68731 0.50211 0.7683 0.0
C182 C 0.7169 0.48356 0.7556 0.0
Tb183 Tb 0.58782 0.39772 0.78473 0.0
N184 N 0.60016 0.44729 0.7907 0.0
C185 C 0.61956 0.50753 0.79476 0.0
C186 C 0.57505 0.46365 0.80634 0.0
C187 C 0.58344 0.49407 0.8081 0.0
H188 H 0.67618 0.3697 0.7551 0.0
H189 H 0.56255 0.50699 0.82006 0.0
H190 H 0.39802 0.43221 0.75649 0.0
H191 H 0.46248 0.26584 0.72839 0.0
H192 H 0.54906 0.45335 0.81792 0.0
H193 H 0.62632 0.53103 0.79634 0.0
H194 H 0.49759 0.31579 0.72161 0.0
H195 H 0.74786 0.38805 0.7344 0.0
H196 H 0.69567 0.52551 0.769 0.0
H197 H 0.74745 0.49295 0.74656 0.0
H198 H 0.32736 0.43117 0.78169 0.0
H199 H 0.76774 0.44153 0.73394 0.0
H200 H 0.3929 0.25934 0.75464 0.0
N201 N 0.40952 0.38577 0.75989 0.0
C202 C 0.38941 0.35927 0.76606 0.0
C203 C 0.34495 0.41076 0.77782 0.0
C204 C 0.34763 0.35745 0.77954 0.0
C205 C 0.38593 0.4113 0.76403 0.0
C206 C 0.32626 0.38373 0.78608 0.0
N207 N 0.44892 0.33676 0.7442 0.0
C208 C 0.46717 0.31299 0.73302 0.0
C209 C 0.38807 0.30601 0.76193 0.0
C210 C 0.40911 0.33391 0.75741 0.0
C211 C 0.40799 0.28121 0.7516 0.0
C212 C 0.44734 0.28479 0.7368 0.0
H213 H 0.29418 0.38333 0.79648 0.0
H214 H 0.29587 0.3277 0.7958 0.0
H215 H 0.33125 0.28262 0.78025 0.0
O216 O 0.48961 0.3772 0.70269 0.0
O217 O 0.4994 0.35078 0.76721 0.0
O218 O 0.52141 0.37952 0.79821 0.0
O219 O 0.42318 0.39134 0.71589 0.0
O220 O 0.54761 0.36573 0.72929 0.0
O221 O 0.59046 0.35667 0.76422 0.0
O222 O 0.61794 0.40511 0.81836 0.0
O223 O 0.59222 0.4109 0.74677 0.0
O224 O 0.51817 0.42533 0.73599 0.0
O225 O 0.62284 0.36263 0.8022 0.0
O226 O 0.51799 0.41465 0.79386 0.0
O227 O 0.48064 0.42564 0.75809 0.0
C228 C 0.50107 0.35567 0.79014 0.0
C229 C 0.44617 0.40907 0.67785 0.0
C230 C 0.43179 0.42173 0.63589 0.0
C231 C 0.44188 0.45156 0.64076 0.0
C232 C 0.4562 0.43887 0.68236 0.0
C233 C 0.45419 0.45997 0.66382 0.0
C234 C 0.43438 0.40059 0.65468 0.0
C235 C 0.58014 0.35142 0.7416 0.0
C236 C 0.44806 0.38646 0.69702 0.0
C237 C 0.32764 0.32958 0.7852 0.0
C238 C 0.34772 0.3039 0.77631 0.0
C239 C 0.56399 0.42921 0.73562 0.0
C240 C 0.68094 0.37545 0.8309 0.0
C241 C 0.72897 0.3716 0.86698 0.0
C242 C 0.7692 0.36944 0.8526 0.0
C243 C 0.7213 0.37301 0.81682 0.0
C244 C 0.68501 0.37487 0.85586 0.0
C245 C 0.76527 0.37015 0.82768 0.0
C246 C 0.48884 0.43064 0.78081 0.0
C247 C 0.63382 0.37847 0.82054 0.0
H248 H 0.43966 0.4685 0.62684 0.0
H249 H 0.46535 0.4458 0.70015 0.0
H250 H 0.46189 0.48296 0.66737 0.0
H251 H 0.42772 0.3774 0.65132 0.0
H252 H 0.80352 0.36659 0.86058 0.0
H253 H 0.71893 0.37316 0.79757 0.0
H254 H 0.65367 0.37703 0.86665 0.0
H255 H 0.79637 0.36819 0.81676 0.0
Tb256 Tb 0.06664 0.88477 0.7367 0.0
C257 C 0.86197 0.85656 0.75285 0.0
N258 N 0.88635 0.88222 0.7562 0.0
C259 C 0.82812 0.90881 0.73361 0.0
C260 C 0.82078 0.85588 0.73888 0.0
C261 C 0.86803 0.90843 0.74816 0.0
C262 C 0.80485 0.88234 0.72857 0.0
C263 C 0.8509 0.80453 0.7632 0.0
C264 C 0.87665 0.8312 0.76479 0.0
C265 C 0.81071 0.80352 0.74872 0.0
C266 C 0.79579 0.82911 0.7365 0.0
Tb267 Tb 0.95203 0.87789 0.77982 0.0
N268 N 0.91606 0.83285 0.77833 0.0
C269 C 0.86605 0.77983 0.77648 0.0
C270 C 0.92997 0.80929 0.79214 0.0
C271 C 0.90555 0.78231 0.79118 0.0
H272 H 0.88292 0.92933 0.75341 0.0
H273 H 0.91709 0.76348 0.8018 0.0
H274 H 0.14989 0.85825 0.77161 0.0
H275 H 0.05957 0.98601 0.6835 0.0
H276 H 0.96011 0.81133 0.80373 0.0
H277 H 0.84722 0.7589 0.77574 0.0
H278 H 0.03867 0.93436 0.69408 0.0
H279 H 0.81462 0.92961 0.72681 0.0
H280 H 0.79056 0.78317 0.74712 0.0
H281 H 0.76421 0.82813 0.72574 0.0
H282 H 0.2217 0.87703 0.79151 0.0
H283 H 0.77343 0.88275 0.71766 0.0
H284 H 0.12304 0.0117 0.70537 0.0
N285 N 0.13373 0.89983 0.75539 0.0
C286 C 0.14841 0.92799 0.75067 0.0
C287 C 0.20118 0.89167 0.78022 0.0
C288 C 0.18908 0.93967 0.76146 0.0
C289 C 0.1606 0.8811 0.76898 0.0
C290 C 0.21513 0.92121 0.77672 0.0
N291 N 0.08554 0.93185 0.72367 0.0
C292 C 0.06458 0.94578 0.70465 0.0
C293 C 0.1374 0.97391 0.72853 0.0
C294 C 0.12284 0.94479 0.73457 0.0
C295 C 0.11304 0.98927 0.71056 0.0
C296 C 0.07707 0.9749 0.69824 0.0
H297 H 0.24658 0.92934 0.78542 0.0
H298 H 0.2335 0.97867 0.76466 0.0
H299 H 0.18826 0.00868 0.73574 0.0
O300 O 0.10336 0.88526 0.70394 0.0
O301 O 0.07227 0.90085 0.77349 0.0
O302 O 0.99795 0.91654 0.78255 0.0
O303 O 0.09999 0.84613 0.7262 0.0
O304 O 1.00005 0.90466 0.72511 0.0
O305 O 0.96333 0.9196 0.75942 0.0
O306 O 0.95392 0.87285 0.81726 0.0
O307 O 0.96979 0.84304 0.7547 0.0
O308 O 0.99926 0.86919 0.72265 0.0
O309 O 0.89403 0.89155 0.79974 0.0
O310 O 0.01583 0.85671 0.7935 0.0
O311 O 0.06101 0.84543 0.76021 0.0
C312 C 0.04328 0.91618 0.78642 0.0
C313 C 0.09799 0.83963 0.68446 0.0
C314 C 0.10172 0.83159 0.64148 0.0
C315 C 0.07081 0.80727 0.64446 0.0
C316 C 0.06738 0.81512 0.68697 0.0
C317 C 0.05402 0.79912 0.66708 0.0
C318 C 0.11531 0.84764 0.66167 0.0
C319 C 0.97502 0.9238 0.7368 0.0
C320 C 0.1116 0.85713 0.70536 0.0
C321 C 0.20265 0.96911 0.75636 0.0
C322 C 0.17678 0.98623 0.73995 0.0
C323 C 0.97579 0.84638 0.73157 0.0
C324 C 0.91375 0.9098 0.83736 0.0
C325 C 0.89727 0.92655 0.87753 0.0
C326 C 0.91403 0.95493 0.87083 0.0
C327 C 0.92952 0.93838 0.83083 0.0
C328 C 0.89755 0.904 0.86065 0.0
C329 C 0.92986 0.96076 0.84757 0.0
C330 C 0.04856 0.84135 0.7828 0.0
C331 C 0.91403 0.88586 0.82012 0.0
H332 H 0.06013 0.79428 0.62933 0.0
H333 H 0.05361 0.80827 0.70428 0.0
H334 H 0.03066 0.78028 0.6693 0.0
H335 H 0.13871 0.86663 0.65962 0.0
H336 H 0.91393 0.97276 0.88341 0.0
H337 H 0.94171 0.94334 0.81285 0.0
H338 H 0.88533 0.8819 0.86564 0.0
H339 H 0.9421 0.98274 0.84243 0.0
Tb340 Tb 0.44498 0.62102 0.22648 0.0
C341 C 0.6584 0.63986 0.2422 0.0
N342 N 0.634 0.614 0.24036 0.0
C343 C 0.69157 0.59615 0.21316 0.0
C344 C 0.70023 0.64505 0.22925 0.0
C345 C 0.65039 0.59196 0.22648 0.0
C346 C 0.71651 0.62287 0.21446 0.0
C347 C 0.66518 0.68832 0.25945 0.0
C348 C 0.64044 0.66139 0.25671 0.0
C349 C 0.70706 0.69358 0.24672 0.0
C350 C 0.72435 0.6721 0.23151 0.0
Tb351 Tb 0.56654 0.60978 0.26224 0.0
N352 N 0.59975 0.65547 0.26879 0.0
C353 C 0.64791 0.70876 0.27548 0.0
C354 C 0.58576 0.67413 0.28622 0.0
C355 C 0.60852 0.70137 0.28926 0.0
H356 H 0.6321 0.57098 0.22593 0.0
H357 H 0.59642 0.71628 0.30272 0.0
H358 H 0.38169 0.6624 0.26189 0.0
H359 H 0.41915 0.50905 0.19544 0.0
H360 H 0.55841 0.66787 0.29861 0.0
H361 H 0.66586 0.72971 0.2781 0.0
H362 H 0.45541 0.55836 0.19513 0.0
H363 H 0.70421 0.57869 0.20204 0.0
H364 H 0.72659 0.71409 0.24871 0.0
H365 H 0.75661 0.67653 0.22174 0.0
H366 H 0.31086 0.65632 0.28705 0.0
H367 H 0.74843 0.62605 0.20415 0.0
H368 H 0.35054 0.49789 0.22131 0.0
N369 N 0.37896 0.6184 0.24946 0.0
C370 C 0.35473 0.5923 0.24925 0.0
C371 C 0.32296 0.63809 0.2766 0.0
C372 C 0.31406 0.58784 0.26327 0.0
C373 C 0.36337 0.64139 0.26254 0.0
C374 C 0.2983 0.61116 0.27705 0.0
N375 N 0.41278 0.57444 0.22319 0.0
C376 C 0.42791 0.55357 0.2078 0.0
C377 C 0.34926 0.54176 0.23591 0.0
C378 C 0.37251 0.56949 0.23591 0.0
C379 C 0.36729 0.51952 0.22177 0.0
C380 C 0.40626 0.52565 0.20732 0.0
H381 H 0.26724 0.6086 0.28812 0.0
H382 H 0.25998 0.55622 0.27426 0.0
H383 H 0.29048 0.516 0.2501 0.0
O384 O 0.4267 0.62022 0.19011 0.0
O385 O 0.44568 0.59857 0.26178 0.0
O386 O 0.51507 0.57364 0.26331 0.0
O387 O 0.39319 0.65009 0.21375 0.0
O388 O 0.50276 0.5993 0.20812 0.0
O389 O 0.54576 0.57501 0.23758 0.0
O390 O 0.57864 0.60625 0.29951 0.0
O391 O 0.56911 0.63283 0.22743 0.0
O392 O 0.49828 0.65648 0.22263 0.0
O393 O 0.6185 0.58037 0.27443 0.0
O394 O 0.50834 0.6336 0.27928 0.0
O395 O 0.46812 0.65733 0.24859 0.0
C396 C 0.47014 0.57531 0.26799 0.0
C397 C 0.40778 0.66692 0.17423 0.0
C398 C 0.40476 0.68519 0.13292 0.0
C399 C 0.42854 0.71112 0.13976 0.0
C400 C 0.43154 0.69294 0.18072 0.0
C401 C 0.44176 0.71491 0.16353 0.0
C402 C 0.39433 0.66324 0.15039 0.0
C403 C 0.53264 0.57883 0.21514 0.0
C404 C 0.39901 0.6427 0.1917 0.0
C405 C 0.29114 0.56015 0.26349 0.0
C406 C 0.30867 0.53719 0.24984 0.0
C407 C 0.5438 0.65464 0.21896 0.0
C408 C 0.63807 0.57331 0.31639 0.0
C409 C 0.66204 0.57211 0.35828 0.0
C410 C 0.68892 0.54694 0.35394 0.0
C411 C 0.66529 0.54824 0.31245 0.0
C412 C 0.6366 0.58519 0.33935 0.0
C413 C 0.69048 0.53514 0.33116 0.0
C414 C 0.48208 0.65543 0.27096 0.0
C415 C 0.61149 0.58698 0.29653 0.0
H416 H 0.43776 0.72821 0.12666 0.0
H417 H 0.44249 0.6962 0.199 0.0
H418 H 0.46045 0.7348 0.1686 0.0
H419 H 0.37589 0.64315 0.14548 0.0
H420 H 0.70923 0.5366 0.36811 0.0
H421 H 0.667 0.53865 0.29492 0.0
H422 H 0.61547 0.60446 0.34255 0.0
H423 H 0.71138 0.51582 0.32798 0.0
C424 C 0.22754 0.94413 0.33835 0.0
C425 C 0.19827 0.9278 0.35406 0.0
C426 C 0.20927 0.96649 0.32331 0.0
C427 C 0.1605 0.97225 0.32371 0.0
C428 C 0.13062 0.95514 0.33894 0.0
C429 C 0.1499 0.93333 0.35405 0.0
C430 C 0.24229 0.98455 0.30753 0.0
C431 C 0.0783 0.96019 0.33956 0.0
C432 C 0.11291 0.04742 0.30523 0.0
C433 C 0.09694 0.04224 0.28202 0.0
C434 C 0.13528 0.02513 0.31865 0.0
C435 C 0.14065 0.99678 0.30884 0.0
C436 C 0.12485 0.99153 0.28532 0.0
C437 C 0.10367 0.01446 0.27208 0.0
C438 C 0.15248 0.03178 0.34349 0.0
C439 C 0.12887 0.96144 0.27444 0.0
H440 H 0.26496 0.94008 0.33834 0.0
H441 H 0.12698 0.92065 0.366 0.0
H442 H 0.23075 0.98365 0.28864 0.0
H443 H 0.24153 0.00807 0.31271 0.0
H444 H 0.27904 0.97674 0.30877 0.0
H445 H 0.05959 0.94381 0.35132 0.0
H446 H 0.07126 0.98266 0.34611 0.0
H447 H 0.06342 0.95896 0.32129 0.0
H448 H 0.10805 0.06897 0.31287 0.0
H449 H 0.09093 0.01032 0.2542 0.0
H450 H 0.18998 0.02578 0.34535 0.0
H451 H 0.13238 0.01824 0.35683 0.0
H452 H 0.1487 0.05548 0.34781 0.0
H453 H 0.16585 0.95409 0.27496 0.0
H454 H 0.11643 0.9613 0.25563 0.0
H455 H 0.10779 0.94503 0.28503 0.0
C456 C 0.38589 0.56379 0.85356 0.0
C457 C 0.33662 0.5635 0.85435 0.0
C458 C 0.41035 0.54318 0.84018 0.0
C459 C 0.38495 0.52164 0.82735 0.0
C460 C 0.33525 0.52176 0.82742 0.0
C461 C 0.31163 0.54277 0.84086 0.0
C462 C 0.46341 0.54387 0.84037 0.0
C463 C 0.30706 0.49903 0.81397 0.0
C464 C 0.44957 0.47956 0.77981 0.0
C465 C 0.46177 0.45375 0.79249 0.0
C466 C 0.42432 0.50187 0.79087 0.0
C467 C 0.41053 0.49797 0.81504 0.0
C468 C 0.42224 0.47168 0.82777 0.0
C469 C 0.44799 0.44994 0.81636 0.0
C470 C 0.41296 0.52974 0.77682 0.0
C471 C 0.4078 0.46657 0.8535 0.0
H472 H 0.40553 0.57982 0.86379 0.0
H473 H 0.27359 0.54237 0.84136 0.0
H474 H 0.47667 0.5234 0.84916 0.0
H475 H 0.47716 0.54455 0.82182 0.0
H476 H 0.47785 0.5632 0.84996 0.0
H477 H 0.26873 0.50313 0.81473 0.0
H478 H 0.31813 0.49896 0.79498 0.0
H479 H 0.31377 0.47665 0.82164 0.0
H480 H 0.46042 0.48247 0.76134 0.0
H481 H 0.45706 0.42979 0.82606 0.0
H482 H 0.42902 0.54916 0.78558 0.0
H483 H 0.37444 0.53305 0.77653 0.0
H484 H 0.42588 0.52917 0.75812 0.0
H485 H 0.42395 0.48381 0.86477 0.0
H486 H 0.41845 0.44452 0.86058 0.0
H487 H 0.36915 0.46839 0.85523 0.0
C488 C 0.68329 0.5723 0.67127 0.0
C489 C 0.67084 0.5724 0.64701 0.0
C490 C 0.66697 0.54983 0.68707 0.0
C491 C 0.63796 0.52681 0.67833 0.0
C492 C 0.62523 0.52683 0.65391 0.0
C493 C 0.64169 0.54961 0.6386 0.0
C494 C 0.68123 0.55054 0.71302 0.0
C495 C 0.59442 0.50263 0.64389 0.0
C496 C 0.62779 0.45245 0.71081 0.0
C497 C 0.58377 0.45445 0.72171 0.0
C498 C 0.6467 0.47625 0.69732 0.0
C499 C 0.62064 0.50254 0.69453 0.0
C500 C 0.57638 0.50478 0.70581 0.0
C501 C 0.55837 0.48062 0.71919 0.0
C502 C 0.69404 0.47301 0.68564 0.0
C503 C 0.54769 0.5325 0.70342 0.0
H504 H 0.70582 0.58976 0.67793 0.0
H505 H 0.63187 0.54939 0.61991 0.0
H506 H 0.65025 0.54693 0.7248 0.0
H507 H 0.70606 0.53239 0.71691 0.0
H508 H 0.69858 0.5718 0.71762 0.0
H509 H 0.58782 0.50585 0.62446 0.0
H510 H 0.61119 0.48085 0.64686 0.0
H511 H 0.56014 0.50178 0.65331 0.0
H512 H 0.64708 0.43202 0.71246 0.0
H513 H 0.52439 0.48224 0.72775 0.0
H514 H 0.71845 0.49055 0.69181 0.0
H515 H 0.69061 0.47578 0.66598 0.0
H516 H 0.70986 0.45115 0.6897 0.0
H517 H 0.5691 0.55204 0.70853 0.0
H518 H 0.51557 0.53144 0.71468 0.0
H519 H 0.53699 0.53598 0.68452 0.0
C520 C 0.88516 0.92548 0.15503 0.0
C521 C 0.83619 0.92511 0.15235 0.0
C522 C 0.90781 0.94718 0.16848 0.0
C523 C 0.88076 0.96864 0.18002 0.0
C524 C 0.83116 0.96754 0.17838 0.0
C525 C 0.80943 0.94599 0.16427 0.0
C526 C 0.96082 0.94786 0.16954 0.0
C527 C 0.80118 0.98957 0.19103 0.0
C528 C 0.9439 0.01282 0.22745 0.0
C529 C 0.95397 0.0394 0.21505 0.0
C530 C 0.9187 0.98991 0.21658 0.0
C531 C 0.90475 0.99331 0.19243 0.0
C532 C 0.91563 0.0199 0.17966 0.0
C533 C 0.93973 0.04272 0.19119 0.0
C534 C 0.9068 0.9622 0.23098 0.0
C535 C 0.90244 0.0241 0.15368 0.0
H536 H 0.90608 0.9095 0.14577 0.0
H537 H 0.77155 0.94565 0.16241 0.0
H538 H 0.97433 0.96878 0.16119 0.0
H539 H 0.97285 0.94733 0.18839 0.0
H540 H 0.97664 0.92901 0.16021 0.0
H541 H 0.76314 0.98409 0.18976 0.0
H542 H 0.81112 0.99045 0.21017 0.0
H543 H 0.80726 0.012 0.18312 0.0
H544 H 0.95607 0.0098 0.24563 0.0
H545 H 0.94752 0.06317 0.18144 0.0
H546 H 0.91833 0.9423 0.22149 0.0
H547 H 0.86815 0.96034 0.2332 0.0
H548 H 0.92325 0.96214 0.24897 0.0
H549 H 0.91883 0.00669 0.14294 0.0
H550 H 0.91372 0.04606 0.1463 0.0
H551 H 0.86386 0.02181 0.15152 0.0
C552 C 0.84468 0.05925 0.67172 0.0
C553 C 0.87677 0.07631 0.65807 0.0
C554 C 0.85955 0.0347 0.68542 0.0
C555 C 0.90773 0.02737 0.68579 0.0
C556 C 0.94047 0.04511 0.67271 0.0
C557 C 0.92455 0.06918 0.65884 0.0
C558 C 0.82355 0.01612 0.69897 0.0
C559 C 0.9922 0.03823 0.67281 0.0
C560 C 0.95316 0.97694 0.73562 0.0
C561 C 0.95684 0.95004 0.72393 0.0
C562 C 0.93715 0.00234 0.72345 0.0
C563 C 0.92377 0.00055 0.69916 0.0
C564 C 0.92658 0.9732 0.68744 0.0
C565 C 0.94331 0.94828 0.69996 0.0
C566 C 0.93541 0.03118 0.73642 0.0
C567 C 0.91211 0.97029 0.66166 0.0
H568 H 0.80768 0.06452 0.67113 0.0
H569 H 0.94961 0.08234 0.64845 0.0
H570 H 0.82313 0.99329 0.69213 0.0
H571 H 0.83304 0.01459 0.71816 0.0
H572 H 0.78763 0.02522 0.69734 0.0
H573 H 0.01364 0.05618 0.66418 0.0
H574 H 1.00496 0.0346 0.69136 0.0
H575 H 0.99801 0.01755 0.66304 0.0
H576 H 0.9638 0.97826 0.75416 0.0
H577 H 0.94565 0.92732 0.69104 0.0
H578 H 0.89931 0.04007 0.73582 0.0
H579 H 0.95882 0.04776 0.72741 0.0
H580 H 0.94637 0.02873 0.7554 0.0
H581 H 0.87539 0.97767 0.65922 0.0
H582 H 0.91476 0.94722 0.65546 0.0
H583 H 0.93469 0.98477 0.65011 0.0
C584 C 0.66122 0.48 0.11788 0.0
C585 C 0.62872 0.45991 0.10828 0.0
C586 C 0.64751 0.50026 0.13513 0.0
C587 C 0.60018 0.50051 0.14285 0.0
C588 C 0.56707 0.48072 0.13287 0.0
C589 C 0.58174 0.46065 0.11576 0.0
C590 C 0.68378 0.52105 0.1454 0.0
C591 C 0.51619 0.48047 0.14052 0.0
C592 C 0.56929 0.53132 0.20334 0.0
C593 C 0.55161 0.55913 0.19685 0.0
C594 C 0.5861 0.51223 0.18597 0.0
C595 C 0.58514 0.52119 0.16157 0.0
C596 C 0.568 0.54943 0.15498 0.0
C597 C 0.55137 0.56803 0.1727 0.0
C598 C 0.60407 0.48226 0.19369 0.0
C599 C 0.56653 0.55983 0.12917 0.0
H600 H 0.6976 0.47955 0.11225 0.0
H601 H 0.55634 0.4453 0.1084 0.0
H602 H 0.67259 0.5443 0.14277 0.0
H603 H 0.68699 0.51689 0.16493 0.0
H604 H 0.71889 0.51855 0.1371 0.0
H605 H 0.49467 0.46411 0.13067 0.0
H606 H 0.51356 0.47515 0.15992 0.0
H607 H 0.50099 0.50271 0.13754 0.0
H608 H 0.56934 0.52429 0.22198 0.0
H609 H 0.53809 0.58962 0.1676 0.0
H610 H 0.64033 0.47935 0.18698 0.0
H611 H 0.58183 0.46465 0.18584 0.0
H612 H 0.60413 0.47911 0.21343 0.0
H613 H 0.60203 0.55871 0.12113 0.0
H614 H 0.55376 0.58285 0.12713 0.0
H615 H 0.54307 0.54507 0.11887 0.0
C616 C 0.33091 0.43474 0.32601 0.0
C617 C 0.34962 0.42982 0.34893 0.0
C618 C 0.34815 0.45786 0.31109 0.0
C619 C 0.38481 0.47647 0.31935 0.0
C620 C 0.40418 0.47134 0.34231 0.0
C621 C 0.38639 0.44815 0.35678 0.0
C622 C 0.3263 0.46281 0.28679 0.0
C623 C 0.44355 0.49055 0.35173 0.0
C624 C 0.46389 0.52134 0.27743 0.0
C625 C 0.44655 0.54991 0.2801 0.0
C626 C 0.44272 0.49698 0.28926 0.0
C627 C 0.40346 0.50136 0.30419 0.0
C628 C 0.3849 0.53007 0.30632 0.0
C629 C 0.40691 0.55406 0.29435 0.0
C630 C 0.46313 0.46666 0.28628 0.0
C631 C 0.34275 0.5356 0.32183 0.0
H632 H 0.30233 0.42081 0.31984 0.0
H633 H 0.40127 0.44453 0.37441 0.0
H634 H 0.30395 0.48267 0.28718 0.0
H635 H 0.35365 0.46693 0.27295 0.0
H636 H 0.30408 0.44371 0.28143 0.0
H637 H 0.45493 0.4835 0.36994 0.0
H638 H 0.47429 0.48987 0.33959 0.0
H639 H 0.43215 0.51388 0.35228 0.0
H640 H 0.49418 0.51803 0.26612 0.0
H641 H 0.39373 0.57619 0.29659 0.0
H642 H 0.43524 0.45079 0.28088 0.0
H643 H 0.47753 0.45851 0.30359 0.0
H644 H 0.49162 0.46668 0.27273 0.0
H645 H 0.31327 0.52068 0.31689 0.0
H646 H 0.33074 0.55883 0.32024 0.0
H647 H 0.35154 0.53065 0.3408 0.0
C648 C 0.10472 0.02966 0.88865 0.0
C649 C 0.14563 0.02211 0.9012 0.0
C650 C 0.08705 0.01167 0.87054 0.0
C651 C 0.11094 0.98554 0.8648 0.0
C652 C 0.15162 0.97741 0.87776 0.0
C653 C 0.16841 0.99575 0.89586 0.0
C654 C 0.04318 0.02085 0.85734 0.0
C655 C 0.17807 0.94973 0.8721 0.0
C656 C 0.04585 0.92706 0.8296 0.0
C657 C 0.06183 0.93327 0.80638 0.0
C658 C 0.06141 0.9439 0.84885 0.0
C659 C 0.09423 0.96724 0.84469 0.0
C660 C 0.11074 0.97339 0.82119 0.0
C661 C 0.09401 0.95639 0.80227 0.0
C662 C 0.04261 0.93679 0.87355 0.0
C663 C 0.14563 0.99813 0.816 0.0
H664 H 0.08673 0.04989 0.89274 0.0
H665 H 0.20008 0.98974 0.90544 0.0
H666 H 0.05043 0.02307 0.83791 0.0
H667 H 0.01558 0.00352 0.85976 0.0
H668 H 0.02926 0.04212 0.86364 0.0
H669 H 0.2082 0.94601 0.88435 0.0
H670 H 0.15417 0.93018 0.87328 0.0
H671 H 0.19149 0.95128 0.8535 0.0
H672 H 0.02121 0.90895 0.83269 0.0
H673 H 0.10507 0.96173 0.78421 0.0
H674 H 0.02597 0.95658 0.88103 0.0
H675 H 0.07188 0.93055 0.88564 0.0
H676 H 0.01629 0.91842 0.8736 0.0
H677 H 0.13154 0.0194 0.82213 0.0
H678 H 0.15406 0.00044 0.79667 0.0
H679 H 0.17863 0.994 0.82598 0.0
C680 C 0.23733 0.10218 1.00076 0.0
C681 C 0.27995 0.11725 0.99649 0.0
C682 C 0.22275 0.09475 0.02414 0.0
C683 C 0.2514 0.10272 0.0437 0.0
C684 C 0.29375 0.11874 0.03952 0.0
C685 C 0.30742 0.12589 0.01599 0.0
C686 C 0.17705 0.07799 0.02788 0.0
C687 C 0.32526 0.1277 0.05989 0.0
C688 C 0.2004 0.10351 0.10647 0.0
C689 C 0.21634 0.07659 0.1162 0.0
C690 C 0.21089 0.11213 0.08279 0.0
C691 C 0.23808 0.09342 0.0685 0.0
C692 C 0.25379 0.06608 0.07813 0.0
C693 C 0.24272 0.058 0.10183 0.0
C694 C 0.19356 0.14147 0.07318 0.0
C695 C 0.28274 0.04547 0.06345 0.0
H696 H 0.21513 0.09634 0.98588 0.0
H697 H 0.34035 0.13764 0.01284 0.0
H698 H 0.18392 0.0562 0.03659 0.0
H699 H 0.15387 0.09025 0.04 0.0
H700 H 0.15808 0.07429 0.01085 0.0
H701 H 0.35606 0.14112 0.0537 0.0
H702 H 0.30526 0.14067 0.07293 0.0
H703 H 0.33814 0.10767 0.0695 0.0
H704 H 0.18046 0.11815 0.11754 0.0
H705 H 0.25454 0.03697 0.1091 0.0
H706 H 0.17313 0.13823 0.05656 0.0
H707 H 0.2239 0.15613 0.06855 0.0
H708 H 0.17112 0.15285 0.08624 0.0
H709 H 0.26344 0.03962 0.04697 0.0
H710 H 0.29147 0.02476 0.07343 0.0
H711 H 0.31595 0.0567 0.05784 0.0
C712 C 0.39813 0.3558 0.50546 0.0
C713 C 0.36262 0.37032 0.49262 0.0
C714 C 0.40797 0.36287 0.52925 0.0
C715 C 0.38205 0.38524 0.54034 0.0
C716 C 0.34535 0.39943 0.52769 0.0
C717 C 0.33586 0.39166 0.50404 0.0
C718 C 0.44688 0.34693 0.5423 0.0
C719 C 0.31718 0.42356 0.53885 0.0
C720 C 0.38425 0.39053 0.60796 0.0
C721 C 0.41867 0.41258 0.61136 0.0
C722 C 0.37223 0.38124 0.58498 0.0
C723 C 0.39456 0.39464 0.56485 0.0
C724 C 0.42889 0.41712 0.56809 0.0
C725 C 0.44076 0.42566 0.59128 0.0
C726 C 0.33571 0.35704 0.58225 0.0
C727 C 0.45321 0.43213 0.54704 0.0
H728 H 0.41881 0.33919 0.49681 0.0
H729 H 0.30846 0.40307 0.49423 0.0
H730 H 0.47559 0.36279 0.54651 0.0
H731 H 0.4337 0.33747 0.55953 0.0
H732 H 0.4617 0.32882 0.53169 0.0
H733 H 0.28856 0.43155 0.52697 0.0
H734 H 0.30153 0.4155 0.55596 0.0
H735 H 0.34066 0.44255 0.54296 0.0
H736 H 0.36632 0.38063 0.62328 0.0
H737 H 0.46789 0.44236 0.59368 0.0
H738 H 0.35082 0.33841 0.5724 0.0
H739 H 0.30567 0.36544 0.57159 0.0
H740 H 0.3223 0.34847 0.59973 0.0
H741 H 0.47271 0.4156 0.53675 0.0
H742 H 0.47822 0.44974 0.55257 0.0
H743 H 0.42682 0.4421 0.53482 0.0
C744 C 0.71633 0.37118 0.01048 0.0
C745 C 0.73897 0.34594 0.01945 0.0
C746 C 0.71816 0.37881 0.98599 0.0
C747 C 0.74288 0.3606 0.97017 0.0
C748 C 0.76798 0.3361 0.97938 0.0
C749 C 0.76574 0.32911 0.00386 0.0
C750 C 0.69116 0.40522 0.97687 0.0
C751 C 0.79478 0.31608 0.96318 0.0
C752 C 0.69914 0.35275 0.90661 0.0
C753 C 0.73228 0.36962 0.89349 0.0
C754 C 0.70164 0.3503 0.93158 0.0
C755 C 0.73833 0.36498 0.94383 0.0
C756 C 0.77169 0.38229 0.93077 0.0
C757 C 0.76832 0.38437 0.90573 0.0
C758 C 0.66549 0.33145 0.94479 0.0
C759 C 0.81118 0.39831 0.94323 0.0
H760 H 0.69484 0.38399 0.02223 0.0
H761 H 0.78356 0.30963 0.01068 0.0
H762 H 0.71284 0.41875 0.96418 0.0
H763 H 0.65962 0.39753 0.96703 0.0
H764 H 0.67956 0.41945 0.9916 0.0
H765 H 0.81619 0.29977 0.97336 0.0
H766 H 0.76972 0.30383 0.95175 0.0
H767 H 0.81832 0.32927 0.95115 0.0
H768 H 0.67163 0.3409 0.89729 0.0
H769 H 0.79373 0.39772 0.89574 0.0
H770 H 0.64801 0.34459 0.95863 0.0
H771 H 0.68296 0.31267 0.95409 0.0
H772 H 0.63816 0.32245 0.9327 0.0
H773 H 0.79682 0.41284 0.95707 0.0
H774 H 0.83296 0.41196 0.93062 0.0
H775 H 0.83415 0.38208 0.95248 0.0
C776 C 0.88661 0.16692 0.5081 0.0
C777 C 0.90694 0.14256 0.51989 0.0
C778 C 0.89378 0.17222 0.48352 0.0
C779 C 0.92194 0.15271 0.47045 0.0
C780 C 0.94258 0.12814 0.48227 0.0
C781 C 0.93483 0.12338 0.5068 0.0
C782 C 0.87116 0.19863 0.4715 0.0
C783 C 0.97278 0.10679 0.46898 0.0
C784 C 0.90864 0.14737 0.40318 0.0
C785 C 0.94776 0.16374 0.39486 0.0
C786 C 0.89919 0.14419 0.42771 0.0
C787 C 0.92966 0.15766 0.44436 0.0
C788 C 0.96877 0.17463 0.43607 0.0
C789 C 0.97732 0.17749 0.41142 0.0
C790 C 0.85702 0.12603 0.43582 0.0
C791 C 1.00218 0.18921 0.45327 0.0
H792 H 0.86502 0.18185 0.51807 0.0
H793 H 0.95072 0.10449 0.51571 0.0
H794 H 0.89849 0.2132 0.46315 0.0
H795 H 0.84755 0.19121 0.45699 0.0
H796 H 0.85049 0.21178 0.48418 0.0
H797 H 0.98661 0.08891 0.48084 0.0
H798 H 0.95214 0.09654 0.45446 0.0
H799 H 1.00289 0.1188 0.46051 0.0
H800 H 0.88522 0.1371 0.39045 0.0
H801 H 1.00783 0.18995 0.40511 0.0
H802 H 0.83431 0.13931 0.44743 0.0
H803 H 0.86868 0.1066 0.44659 0.0
H804 H 0.83571 0.11806 0.42058 0.0
H805 H 0.98258 0.20355 0.46548 0.0
H806 H 0.02962 0.20279 0.44393 0.0
H807 H 0.01969 0.17207 0.46447 0.0
C808 C 0.80757 0.88182 0.00992 0.0
C809 C 0.78016 0.90474 0.01868 0.0
C810 C 0.82687 0.88365 0.98683 0.0
C811 C 0.81821 0.90886 0.97212 0.0
C812 C 0.78956 0.93167 0.98063 0.0
C813 C 0.77103 0.92937 0.00382 0.0
C814 C 0.85741 0.85895 0.97839 0.0
C815 C 0.77913 0.95878 0.9654 0.0
C816 C 0.90237 0.93088 0.92198 0.0
C817 C 0.87826 0.92071 0.90188 0.0
C818 C 0.88377 0.9265 0.94502 0.0
C819 C 0.83982 0.91183 0.94798 0.0
C820 C 0.81568 0.90113 0.92777 0.0
C821 C 0.83527 0.90562 0.90496 0.0
C822 C 0.91079 0.93798 0.96615 0.0
C823 C 0.76858 0.88562 0.93018 0.0
H824 H 0.81493 0.86275 0.02131 0.0
H825 H 0.74975 0.94713 0.0104 0.0
H826 H 0.84352 0.85018 0.96141 0.0
H827 H 0.89341 0.86757 0.97474 0.0
H828 H 0.85959 0.84045 0.99172 0.0
H829 H 0.75476 0.97399 0.97432 0.0
H830 H 0.81225 0.97101 0.96122 0.0
H831 H 0.76338 0.95218 0.94816 0.0
H832 H 0.93588 0.94224 0.91966 0.0
H833 H 0.8163 0.898 0.88943 0.0
H834 H 0.91651 0.91984 0.97946 0.0
H835 H 0.89016 0.95518 0.97508 0.0
H836 H 0.94544 0.94767 0.96092 0.0
H837 H 0.77108 0.86652 0.94288 0.0
H838 H 0.75528 0.87756 0.91281 0.0
H839 H 0.74253 0.90097 0.93756 0.0
C840 C 0.70698 0.62717 0.49031 0.0
C841 C 0.66511 0.63302 0.50242 0.0
C842 C 0.70667 0.62038 0.46598 0.0
C843 C 0.66349 0.61948 0.45347 0.0
C844 C 0.62151 0.62709 0.46522 0.0
C845 C 0.62283 0.63377 0.48956 0.0
C846 C 0.75224 0.61259 0.45403 0.0
C847 C 0.57482 0.62657 0.45244 0.0
C848 C 0.66601 0.61513 0.38573 0.0
C849 C 0.66077 0.58459 0.38254 0.0
C850 C 0.66662 0.62694 0.40872 0.0
C851 C 0.66167 0.60774 0.4289 0.0
C852 C 0.65559 0.57696 0.42573 0.0
C853 C 0.65528 0.56577 0.4026 0.0
C854 C 0.6733 0.65985 0.41142 0.0
C855 C 0.64979 0.55577 0.4468 0.0
H856 H 0.73987 0.62672 0.50005 0.0
H857 H 0.59034 0.63849 0.49871 0.0
H858 H 0.7519 0.5887 0.44995 0.0
H859 H 0.75629 0.62504 0.43684 0.0
H860 H 0.78323 0.61733 0.46544 0.0
H861 H 0.54638 0.63616 0.46328 0.0
H862 H 0.57727 0.639 0.43517 0.0
H863 H 0.56495 0.60341 0.4484 0.0
H864 H 0.67068 0.62971 0.37026 0.0
H865 H 0.65054 0.54221 0.40019 0.0
H866 H 0.70626 0.66435 0.42134 0.0
H867 H 0.64408 0.66887 0.422 0.0
H868 H 0.67498 0.67186 0.39391 0.0
H869 H 0.68126 0.55692 0.45844 0.0
H870 H 0.64463 0.53253 0.44125 0.0
H871 H 0.61917 0.56212 0.45771 0.0
C872 C 0.3927 0.6682 0.99222 0.0
C873 C 0.34944 0.65742 0.98389 0.0
C874 C 0.39976 0.67367 0.01651 0.0
C875 C 0.3627 0.66818 0.03291 0.0
C876 C 0.3186 0.65792 0.02459 0.0
C877 C 0.31245 0.65269 1.00014 0.0
C878 C 0.44727 0.68472 0.0247 0.0
C879 C 0.2783 0.65177 0.04158 0.0
C880 C 0.39909 0.65306 0.09716 0.0
C881 C 0.39214 0.68062 0.10751 0.0
C882 C 0.38858 0.64854 0.07305 0.0
C883 C 0.3709 0.67219 0.05887 0.0
C884 C 0.36316 0.69994 0.06925 0.0
C885 C 0.37386 0.70382 0.09346 0.0
C886 C 0.39736 0.61862 0.06262 0.0
C887 C 0.34429 0.72564 0.05468 0.0
H888 H 0.42144 0.67201 0.9798 0.0
H889 H 0.27892 0.64434 0.99385 0.0
H890 H 0.44344 0.70545 0.03467 0.0
H891 H 0.46317 0.66817 0.03708 0.0
H892 H 0.47183 0.68898 0.00956 0.0
H893 H 0.24562 0.64519 0.03213 0.0
H894 H 0.2878 0.63375 0.05438 0.0
H895 H 0.27113 0.67164 0.05216 0.0
H896 H 0.41383 0.63515 0.1078 0.0
H897 H 0.36781 0.72504 0.10143 0.0
H898 H 0.42467 0.62068 0.04853 0.0
H899 H 0.36492 0.61006 0.05408 0.0
H900 H 0.4091 0.60217 0.07632 0.0
H901 H 0.36919 0.73166 0.04008 0.0
H902 H 0.33864 0.74545 0.06564 0.0
H903 H 0.3105 0.7193 0.04623 0.0
C904 C 0.19753 0.84435 0.50763 0.0
C905 C 0.19633 0.87342 0.49841 0.0
C906 C 0.18518 0.83786 0.53149 0.0
C907 C 0.1712 0.86099 0.54645 0.0
C908 C 0.17143 0.89048 0.53747 0.0
C909 C 0.18404 0.89634 0.51359 0.0
C910 C 0.18567 0.80614 0.54047 0.0
C911 C 0.15681 0.91575 0.55286 0.0
C912 C 0.08887 0.84071 0.59773 0.0
C913 C 0.11956 0.84005 0.61732 0.0
C914 C 0.10524 0.8477 0.57464 0.0
C915 C 0.15354 0.8541 0.571 0.0
C916 C 0.18467 0.85378 0.59072 0.0
C917 C 0.16728 0.84682 0.61368 0.0
C918 C 0.07081 0.84809 0.55412 0.0
C919 C 0.23641 0.86042 0.58752 0.0
H920 H 0.20718 0.82651 0.49608 0.0
H921 H 0.18319 0.9189 0.50667 0.0
H922 H 0.20662 0.80427 0.55713 0.0
H923 H 0.14936 0.79866 0.54484 0.0
H924 H 0.20043 0.79103 0.52713 0.0
H925 H 0.16178 0.93759 0.54367 0.0
H926 H 0.11922 0.91304 0.55776 0.0
H927 H 0.17726 0.91564 0.56972 0.0
H928 H 0.05185 0.83592 0.60051 0.0
H929 H 0.19121 0.84606 0.62872 0.0
H930 H 0.08119 0.83174 0.5407 0.0
H931 H 0.07135 0.87017 0.54507 0.0
H932 H 0.03432 0.84291 0.56001 0.0
H933 H 0.25205 0.84412 0.57545 0.0
H934 H 0.25579 0.85979 0.60474 0.0
H935 H 0.24153 0.8826 0.57898 0.0
C936 C 0.22814 0.25221 0.34088 0.0
C937 C 0.20354 0.27838 0.34459 0.0
C938 C 0.20783 0.22892 0.3281 0.0
C939 C 0.16199 0.23195 0.31867 0.0
C940 C 0.13703 0.25832 0.32232 0.0
C941 C 0.15802 0.28116 0.3353 0.0
C942 C 0.23539 0.20105 0.32469 0.0
C943 C 0.08816 0.26246 0.31243 0.0
C944 C 0.12304 0.18502 0.26666 0.0
C945 C 0.09482 0.16357 0.27815 0.0
C946 C 0.14596 0.20708 0.27969 0.0
C947 C 0.1401 0.2077 0.3048 0.0
C948 C 0.11188 0.18577 0.3165 0.0
C949 C 0.08963 0.16392 0.30298 0.0
C950 C 0.17545 0.23013 0.26651 0.0
C951 C 0.10462 0.18563 0.34321 0.0
H952 H 0.26326 0.24983 0.34806 0.0
H953 H 0.13876 0.3013 0.33804 0.0
H954 H 0.21562 0.18173 0.33227 0.0
H955 H 0.24023 0.19719 0.30536 0.0
H956 H 0.27049 0.20205 0.33332 0.0
H957 H 0.0736 0.28438 0.31667 0.0
H958 H 0.0885 0.26019 0.29274 0.0
H959 H 0.06428 0.245 0.31984 0.0
H960 H 0.12577 0.18528 0.24742 0.0
H961 H 0.06793 0.14711 0.3118 0.0
H962 H 0.21204 0.22969 0.27329 0.0
H963 H 0.16165 0.2525 0.26977 0.0
H964 H 0.17605 0.22666 0.24694 0.0
H965 H 0.139 0.18445 0.35247 0.0
H966 H 0.08214 0.16678 0.34955 0.0
H967 H 0.0879 0.20651 0.34848 0.0
C968 C 0.36291 0.23811 0.8743 0.0
C969 C 0.39485 0.22323 0.88923 0.0
C970 C 0.3779 0.26121 0.85881 0.0
C971 C 0.42599 0.26952 0.85819 0.0
C972 C 0.45806 0.25534 0.87385 0.0
C973 C 0.4421 0.2324 0.88919 0.0
C974 C 0.3426 0.27577 0.84239 0.0
C975 C 0.50959 0.26369 0.8738 0.0
C976 C 0.47773 0.30393 0.80148 0.0
C977 C 0.48087 0.33381 0.8073 0.0
C978 C 0.45888 0.28288 0.81768 0.0
C979 C 0.4434 0.29193 0.84037 0.0
C980 C 0.44621 0.32216 0.84628 0.0
C981 C 0.46505 0.34276 0.82966 0.0
C982 C 0.45608 0.25091 0.8106 0.0
C983 C 0.4296 0.33269 0.87018 0.0
H984 H 0.32633 0.23119 0.87419 0.0
H985 H 0.46701 0.2211 0.90071 0.0
H986 H 0.34752 0.30015 0.84191 0.0
H987 H 0.34787 0.26794 0.82398 0.0
H988 H 0.30588 0.27045 0.84781 0.0
H989 H 0.52948 0.25165 0.88795 0.0
H990 H 0.52518 0.2587 0.85621 0.0
H991 H 0.5141 0.2878 0.87643 0.0
H992 H 0.4907 0.29693 0.78436 0.0
H993 H 0.46719 0.36594 0.83413 0.0
H994 H 0.41911 0.24291 0.81149 0.0
H995 H 0.47667 0.23706 0.82329 0.0
H996 H 0.46952 0.24757 0.79225 0.0
H997 H 0.3923 0.32612 0.87302 0.0
H998 H 0.43293 0.35707 0.87172 0.0
H999 H 0.4503 0.32204 0.88471 0.0
C1000 C 0.67813 0.21154 0.67389 0.0
C1001 C 0.72299 0.21672 0.66418 0.0
C1002 C 0.65604 0.23295 0.68758 0.0
C1003 C 0.67913 0.26034 0.69147 0.0
C1004 C 0.7246 0.26559 0.68194 0.0
C1005 C 0.74608 0.24367 0.66851 0.0
C1006 C 0.60764 0.22645 0.69757 0.0
C1007 C 0.75013 0.29464 0.68546 0.0
C1008 C 0.60213 0.32598 0.70411 0.0
C1009 C 0.60655 0.32843 0.72897 0.0
C1010 C 0.62588 0.30414 0.69174 0.0
C1011 C 0.6547 0.28402 0.70449 0.0
C1012 C 0.65963 0.2864 0.72955 0.0
C1013 C 0.63561 0.30865 0.7415 0.0
C1014 C 0.61991 0.30252 0.66499 0.0
C1015 C 0.68986 0.26524 0.74375 0.0
H1016 H 0.66013 0.19073 0.67074 0.0
H1017 H 0.7807 0.24788 0.66104 0.0
H1018 H 0.60748 0.22962 0.71716 0.0
H1019 H 0.58209 0.24214 0.68962 0.0
H1020 H 0.59546 0.20355 0.69395 0.0
H1021 H 0.78598 0.29485 0.67764 0.0
H1022 H 0.72991 0.31289 0.67703 0.0
H1023 H 0.75295 0.29928 0.70478 0.0
H1024 H 0.58003 0.34122 0.69418 0.0
H1025 H 0.63919 0.31029 0.76069 0.0
H1026 H 0.60435 0.28079 0.66032 0.0
H1027 H 0.65464 0.30437 0.65607 0.0
H1028 H 0.59702 0.32024 0.65768 0.0
H1029 H 0.67656 0.24227 0.74168 0.0
H1030 H 0.69053 0.27027 0.76308 0.0
H1031 H 0.72637 0.26608 0.73685 0.0
C1032 C 0.8086 0.25452 0.15782 0.0
C1033 C 0.81724 0.25411 0.13321 0.0
C1034 C 0.83749 0.23901 0.17394 0.0
C1035 C 0.87679 0.22374 0.16522 0.0
C1036 C 0.88767 0.22531 0.14054 0.0
C1037 C 0.8571 0.23994 0.12473 0.0
C1038 C 0.8239 0.23711 0.2 0.0
C1039 C 0.93032 0.21031 0.13068 0.0
C1040 C 0.96545 0.19301 0.20986 0.0
C1041 C 0.9533 0.16297 0.21004 0.0
C1042 C 0.94127 0.21322 0.1951 0.0
C1043 C 0.90288 0.20311 0.18125 0.0
C1044 C 0.88971 0.17279 0.18216 0.0
C1045 C 0.91607 0.15294 0.19601 0.0
C1046 C 0.95782 0.24503 0.19367 0.0
C1047 C 0.84795 0.16121 0.16843 0.0
H1048 H 0.77749 0.26533 0.1643 0.0
H1049 H 0.86391 0.23988 0.10568 0.0
H1050 H 0.8127 0.21411 0.2047 0.0
H1051 H 0.8544 0.24256 0.21147 0.0
H1052 H 0.79472 0.25218 0.20423 0.0
H1053 H 0.93773 0.21739 0.11192 0.0
H1054 H 0.96168 0.21518 0.14176 0.0
H1055 H 0.92465 0.186 0.13124 0.0
H1056 H 0.99505 0.20041 0.22046 0.0
H1057 H 0.90714 0.12955 0.1962 0.0
H1058 H 0.92846 0.26006 0.19749 0.0
H1059 H 0.97017 0.25043 0.17527 0.0
H1060 H 0.98697 0.24955 0.20633 0.0
H1061 H 0.81645 0.17448 0.17226 0.0
H1062 H 0.83989 0.13763 0.17292 0.0
H1063 H 0.85488 0.16329 0.14897 0.0
C1064 C 0.8064 0.7437 0.65672 0.0
C1065 C 0.82847 0.72059 0.64503 0.0
C1066 C 0.83258 0.76476 0.66927 0.0
C1067 C 0.88213 0.76264 0.67033 0.0
C1068 C 0.90469 0.73972 0.6581 0.0
C1069 C 0.87761 0.71904 0.64557 0.0
C1070 C 0.8067 0.78833 0.68237 0.0
C1071 C 0.9574 0.73696 0.65812 0.0
C1072 C 0.94791 0.83128 0.69109 0.0
C1073 C 0.95493 0.82436 0.71536 0.0
C1074 C 0.92583 0.81098 0.67594 0.0
C1075 C 0.90976 0.78334 0.6854 0.0
C1076 C 0.9182 0.77594 0.7097 0.0
C1077 C 0.94127 0.79635 0.72425 0.0
C1078 C 0.91859 0.81938 0.65 0.0
C1079 C 0.9018 0.74673 0.72053 0.0
H1080 H 0.76843 0.74508 0.65644 0.0
H1081 H 0.89501 0.70146 0.63633 0.0
H1082 H 0.80429 0.78157 0.70147 0.0
H1083 H 0.82547 0.80996 0.6812 0.0
H1084 H 0.77045 0.79122 0.67546 0.0
H1085 H 0.97273 0.75468 0.64641 0.0
H1086 H 0.97187 0.73963 0.67636 0.0
H1087 H 0.96881 0.71532 0.65133 0.0
H1088 H 0.95899 0.85274 0.68398 0.0
H1089 H 0.9482 0.79042 0.74273 0.0
H1090 H 0.88044 0.82068 0.64614 0.0
H1091 H 0.93323 0.80214 0.63847 0.0
H1092 H 0.93543 0.84097 0.64512 0.0
H1093 H 0.86284 0.74587 0.72073 0.0
H1094 H 0.91466 0.74331 0.73911 0.0
H1095 H 0.91397 0.72818 0.7096 0.0
C1096 C 0.66645 0.7758 0.13134 0.0
C1097 C 0.70764 0.78617 0.14219 0.0
C1098 C 0.63664 0.75534 0.14333 0.0
C1099 C 0.64757 0.74595 0.16698 0.0
C1100 C 0.68791 0.75768 0.17837 0.0
C1101 C 0.71797 0.77711 0.16565 0.0
C1102 C 0.59472 0.74274 0.13033 0.0
C1103 C 0.70087 0.7489 0.20363 0.0
C1104 C 0.55353 0.70728 0.20513 0.0
C1105 C 0.56796 0.67785 0.2045 0.0
C1106 C 0.57881 0.72975 0.19281 0.0
C1107 C 0.61881 0.72241 0.17922 0.0
C1108 C 0.6327 0.69253 0.17812 0.0
C1109 C 0.60726 0.67067 0.19088 0.0
C1110 C 0.56403 0.76144 0.19521 0.0
C1111 C 0.67502 0.68366 0.16387 0.0
H1112 H 0.6586 0.78271 0.11312 0.0
H1113 H 0.74967 0.7853 0.17412 0.0
H1114 H 0.59931 0.71862 0.12813 0.0
H1115 H 0.56225 0.74561 0.1409 0.0
H1116 H 0.58987 0.75328 0.1124 0.0
H1117 H 0.72236 0.76638 0.21219 0.0
H1118 H 0.66942 0.74423 0.21486 0.0
H1119 H 0.72225 0.72863 0.2032 0.0
H1120 H 0.52353 0.71289 0.21596 0.0
H1121 H 0.61825 0.64784 0.19025 0.0
H1122 H 0.55874 0.7719 0.17733 0.0
H1123 H 0.59234 0.77411 0.2042 0.0
H1124 H 0.53113 0.76335 0.20569 0.0
H1125 H 0.67322 0.69321 0.14547 0.0
H1126 H 0.67811 0.65926 0.16283 0.0
H1127 H 0.70736 0.69248 0.17232 0.0
C1128 C 0.33418 0.76443 0.34993 0.0
C1129 C 0.36065 0.78818 0.35878 0.0
C1130 C 0.35554 0.74198 0.33704 0.0
C1131 C 0.40462 0.74318 0.333 0.0
C1132 C 0.43173 0.76664 0.34241 0.0
C1133 C 0.40941 0.78891 0.35511 0.0
C1134 C 0.32537 0.71742 0.32714 0.0
C1135 C 0.48417 0.76859 0.33858 0.0
C1136 C 0.46299 0.67302 0.31206 0.0
C1137 C 0.46504 0.67826 0.28731 0.0
C1138 C 0.44424 0.69417 0.32729 0.0
C1139 C 0.42693 0.72104 0.31747 0.0
C1140 C 0.42975 0.72661 0.29254 0.0
C1141 C 0.44894 0.70526 0.27782 0.0
C1142 C 0.44217 0.68756 0.35381 0.0
C1143 C 0.41163 0.75491 0.28131 0.0
H1144 H 0.29652 0.76363 0.35271 0.0
H1145 H 0.43021 0.80706 0.36199 0.0
H1146 H 0.32669 0.71832 0.30733 0.0
H1147 H 0.33905 0.69559 0.33302 0.0
H1148 H 0.28813 0.71887 0.33284 0.0
H1149 H 0.50066 0.78705 0.34845 0.0
H1150 H 0.50083 0.7476 0.34439 0.0
H1151 H 0.49183 0.77191 0.31927 0.0
H1152 H 0.47527 0.65218 0.31949 0.0
H1153 H 0.45079 0.70961 0.25872 0.0
H1154 H 0.40502 0.68634 0.35975 0.0
H1155 H 0.45949 0.70566 0.36371 0.0
H1156 H 0.45935 0.66638 0.35875 0.0
H1157 H 0.37348 0.75678 0.28488 0.0
H1158 H 0.41727 0.75605 0.26167 0.0
H1159 H 0.42934 0.77427 0.28935 0.0
C1160 C 0.19169 0.71926 0.85824 0.0
C1161 C 0.16651 0.69238 0.8593 0.0
C1162 C 0.17345 0.74419 0.84626 0.0
C1163 C 0.12903 0.74217 0.83502 0.0
C1164 C 0.10341 0.71514 0.83605 0.0
C1165 C 0.12243 0.69058 0.84819 0.0
C1166 C 0.20177 0.77266 0.84556 0.0
C1167 C 0.05599 0.71211 0.8242 0.0
C1168 C 0.0613 0.81229 0.82091 0.0
C1169 C 0.07038 0.81661 0.79643 0.0
C1170 C 0.08055 0.78834 0.83376 0.0
C1171 C 0.10957 0.76822 0.82186 0.0
C1172 C 0.11938 0.77265 0.79726 0.0
C1173 C 0.09975 0.79678 0.78486 0.0
C1174 C 0.06945 0.7844 0.86001 0.0
C1175 C 0.15011 0.75165 0.78393 0.0
H1176 H 0.22573 0.72087 0.8668 0.0
H1177 H 0.10273 0.66992 0.84891 0.0
H1178 H 0.20957 0.77932 0.82677 0.0
H1179 H 0.18116 0.79066 0.85341 0.0
H1180 H 0.23545 0.77068 0.85544 0.0
H1181 H 0.04034 0.68965 0.82684 0.0
H1182 H 0.03144 0.7285 0.83145 0.0
H1183 H 0.0593 0.71687 0.80474 0.0
H1184 H 0.03889 0.82754 0.83008 0.0
H1185 H 0.10707 0.79982 0.76597 0.0
H1186 H 0.10243 0.78374 0.87054 0.0
H1187 H 0.05078 0.763 0.86323 0.0
H1188 H 0.04728 0.80243 0.86675 0.0
H1189 H 0.18505 0.75021 0.7926 0.0
H1190 H 0.15514 0.75856 0.76493 0.0
H1191 H 0.1342 0.72912 0.78456 0.0
loop_
_geom_bond_atom_site_label_1
_geom_bond_atom_site_label_2
_geom_bond_distance
_geom_bond_site_symmetry_2
_ccdc_geom_bond_type
O0 Cd1 2.300 . S
O0 C7 1.275 . S
Cd1 O0 2.300 . S
Cd1 O9 2.381 . S
Cd1 O10 2.378 . S
O2 Cd3 2.385 . S
O2 C7 1.255 . S
Cd3 O2 2.385 . S
Cd3 O4 2.317 . S
O4 Cd3 2.317 . S
O4 C5 1.232 . S
C5 O4 1.232 . S
C5 O6 1.218 . S
O6 C5 1.218 . S
C7 O0 1.275 . S
C7 O2 1.255 . S
C8 O9 1.258 . S
C8 O10 1.256 . S
O9 Cd1 2.381 . S
O9 C8 1.258 . S
O10 Cd1 2.378 . S
O10 C8 1.256 . S
O11 Cd12 2.300 . S
O11 C18 1.275 . S
Cd12 O11 2.300 . S
Cd12 O20 2.381 . S
Cd12 O21 2.378 . S
O13 Cd14 2.385 . S
O13 C18 1.255 . S
Cd14 O13 2.385 . S
Cd14 O15 2.317 . S
O15 Cd14 2.317 . S
O15 C16 1.232 . S
C16 O15 1.232 . S
C16 O17 1.218 . S
O17 C16 1.218 . S
C18 O11 1.275 . S
C18 O13 1.255 . S
C19 O20 1.258 . S
C19 O21 1.256 . S
O20 Cd12 2.381 . S
O20 C19 1.258 . S
O21 Cd12 2.378 . S
O21 C19 1.256 . S
O22 Cd23 2.300 . S
O22 C29 1.275 . S
Cd23 O22 2.300 . S
Cd23 O31 2.381 . S
Cd23 O32 2.378 . S
O24 Cd25 2.385 . S
O24 C29 1.255 . S
Cd25 O24 2.385 . S
Cd25 O26 2.317 . S
O26 Cd25 2.317 . S
O26 C27 1.232 . S
C27 O26 1.232 . S
C27 O28 1.218 . S
O28 C27 1.218 . S
C29 O22 1.275 . S
C29 O24 1.255 . S
C30 O31 1.258 . S
C30 O32 1.256 . S
O31 Cd23 2.381 . S
O31 C30 1.258 . S
O32 Cd23 2.378 . S
O32 C30 1.256 . S
O33 Cd34 2.300 . S
O33 C40 1.275 . S
Cd34 O33 2.300 . S
Cd34 O42 2.381 . S
Cd34 O43 2.378 . S
O35 Cd36 2.385 . S
O35 C40 1.255 . S
Cd36 O35 2.385 . S
Cd36 O37 2.317 . S
O37 Cd36 2.317 . S
O37 C38 1.232 . S
C38 O37 1.232 . S
C38 O39 1.218 . S
O39 C38 1.218 . S
C40 O33 1.275 . S
C40 O35 1.255 . S
C41 O42 1.258 . S
C41 O43 1.256 . S
O42 Cd34 2.381 . S
O42 C41 1.258 . S
O43 Cd34 2.378 . S
O43 C41 1.256 . S
O44 Cd45 2.300 . S
O44 C51 1.275 . S
Cd45 O44 2.300 . S
Cd45 O53 2.381 . S
Cd45 O54 2.378 . S
O46 Cd47 2.385 . S
O46 C51 1.255 . S
Cd47 O46 2.385 . S
Cd47 O48 2.317 . S
O48 Cd47 2.317 . S
O48 C49 1.232 . S
C49 O48 1.232 . S
C49 O50 1.218 . S
O50 C49 1.218 . S
C51 O44 1.275 . S
C51 O46 1.255 . S
C52 O53 1.258 . S
C52 O54 1.256 . S
O53 Cd45 2.381 . S
O53 C52 1.258 . S
O54 Cd45 2.378 . S
O54 C52 1.256 . S
O55 Cd56 2.300 . S
O55 C62 1.275 . S
Cd56 O55 2.300 . S
Cd56 O64 2.381 . S
Cd56 O65 2.378 . S
O57 Cd58 2.385 . S
O57 C62 1.255 . S
Cd58 O57 2.385 . S
Cd58 O59 2.317 . S
O59 Cd58 2.317 . S
O59 C60 1.232 . S
C60 O59 1.232 . S
C60 O61 1.218 . S
O61 C60 1.218 . S
C62 O55 1.275 . S
C62 O57 1.255 . S
C63 O64 1.258 . S
C63 O65 1.256 . S
O64 Cd56 2.381 . S
O64 C63 1.258 . S
O65 Cd56 2.378 . S
O65 C63 1.256 . S
O66 Cd67 2.300 . S
O66 C73 1.275 . S
Cd67 O66 2.300 . S
Cd67 O75 2.381 . S
Cd67 O76 2.378 . S
O68 Cd69 2.385 . S
O68 C73 1.255 . S
Cd69 O68 2.385 . S
Cd69 O70 2.317 . S
O70 Cd69 2.317 . S
O70 C71 1.232 . S
C71 O70 1.232 . S
C71 O72 1.218 . S
O72 C71 1.218 . S
C73 O66 1.275 . S
C73 O68 1.255 . S
C74 O75 1.258 . S
C74 O76 1.256 . S
O75 Cd67 2.381 . S
O75 C74 1.258 . S
O76 Cd67 2.378 . S
O76 C74 1.256 . S
O77 Cd78 2.300 . S
O77 C84 1.275 . S
Cd78 O77 2.300 . S
Cd78 O86 2.381 . S
Cd78 O87 2.378 . S
O79 Cd80 2.385 . S
O79 C84 1.255 . S
Cd80 O79 2.385 . S
Cd80 O81 2.317 . S
O81 Cd80 2.317 . S
O81 C82 1.232 . S
C82 O81 1.232 . S
C82 O83 1.218 . S
O83 C82 1.218 . S
C84 O77 1.275 . S
C84 O79 1.255 . S
C85 O86 1.258 . S
C85 O87 1.256 . S
O86 Cd78 2.381 . S
O86 C85 1.258 . S
O87 Cd78 2.378 . S
O87 C85 1.256 . S
Tb88 N117 2.617 . S
Tb88 N123 2.572 . S
Tb88 O132 2.465 . S
Tb88 O133 2.387 . S
Tb88 O135 2.428 . S
Tb88 O136 2.308 . S
Tb88 O140 2.349 . S
Tb88 O143 2.393 . S
Tb88 C152 2.802 . S
C89 N90 1.379 . S
C89 C92 1.416 . S
C89 C96 1.424 . S
N90 C89 1.379 . S
N90 C93 1.334 . S
N90 Tb99 2.617 . S
C91 C93 1.390 . S
C91 C94 1.339 . S
C91 H111 0.930 . S
C92 C89 1.416 . S
C92 C94 1.416 . S
C92 C98 1.448 . S
C93 N90 1.334 . S
C93 C91 1.390 . S
C93 H104 0.930 . S
C94 C91 1.339 . S
C94 C92 1.416 . S
C94 H115 0.930 . S
C95 C96 1.413 . S
C95 C97 1.427 . S
C95 C101 1.416 . S
C96 C89 1.424 . S
C96 C95 1.413 . S
C96 N100 1.361 . S
C97 C95 1.427 . S
C97 C98 1.328 . S
C97 H112 0.929 . S
C98 C92 1.448 . S
C98 C97 1.328 . S
C98 H113 0.930 . S
Tb99 N90 2.617 . S
Tb99 N100 2.572 . S
Tb99 O134 2.349 1_655 S
Tb99 O137 2.393 . S
Tb99 O138 2.465 . S
Tb99 O139 2.387 . S
Tb99 O141 2.428 . S
Tb99 O142 2.308 1_655 S
Tb99 C163 2.802 . S
N100 C96 1.361 . S
N100 Tb99 2.572 . S
N100 C102 1.340 . S
C101 C95 1.416 . S
C101 C103 1.332 . S
C101 H109 0.931 1_545 S
C102 N100 1.340 . S
C102 C103 1.407 . S
C102 H108 0.930 . S
C103 C101 1.332 . S
C103 C102 1.407 . S
C103 H105 0.929 1_545 S
H104 C93 0.930 . S
H105 C103 0.929 1_565 S
H106 C121 0.930 . S
H107 C128 0.929 . S
H108 C102 0.930 . S
H109 C101 0.931 1_565 S
H110 C124 0.930 . S
H111 C91 0.930 . S
H112 C97 0.929 . S
H113 C98 0.930 . S
H114 C119 0.930 . S
H115 C94 0.930 . S
H116 C127 0.931 . S
N117 Tb88 2.617 . S
N117 C118 1.379 . S
N117 C121 1.334 . S
C118 N117 1.379 . S
C118 C120 1.416 . S
C118 C126 1.424 . S
C119 H114 0.930 . S
C119 C121 1.390 . S
C119 C122 1.339 . S
C120 C118 1.416 . S
C120 C122 1.416 . S
C120 C153 1.448 . S
C121 H106 0.930 . S
C121 N117 1.334 . S
C121 C119 1.390 . S
C122 C119 1.339 . S
C122 C120 1.416 . S
C122 H129 0.930 . S
N123 Tb88 2.572 . S
N123 C124 1.340 . S
N123 C126 1.361 . S
C124 H110 0.930 . S
C124 N123 1.340 . S
C124 C128 1.407 . S
C125 C126 1.413 . S
C125 C127 1.416 . S
C125 C154 1.427 . S
C126 C118 1.424 . S
C126 N123 1.361 . S
C126 C125 1.413 . S
C127 H116 0.931 . S
C127 C125 1.416 . S
C127 C128 1.332 . S
C128 H107 0.929 . S
C128 C124 1.407 . S
C128 C127 1.332 . S
H129 C122 0.930 . S
H130 C153 0.930 . S
H131 C154 0.929 . S
O132 Tb88 2.465 . S
O132 C152 1.264 . S
O133 Tb88 2.387 . S
O133 C144 1.264 . S
O134 Tb99 2.349 1_455 S
O134 C144 1.243 . S
O135 Tb88 2.428 . S
O135 C152 1.256 . S
O136 Tb88 2.308 . S
O136 C151 1.266 1_455 S
O137 Tb99 2.393 . S
O137 C151 1.248 . S
O138 Tb99 2.465 . S
O138 C163 1.264 . S
O139 Tb99 2.387 . S
O139 C155 1.264 . S
O140 Tb88 2.349 . S
O140 C155 1.243 1_455 S
O141 Tb99 2.428 . S
O141 C163 1.256 . S
O142 Tb99 2.308 1_455 S
O142 C162 1.266 . S
O143 Tb88 2.393 . S
O143 C162 1.248 . S
C144 O133 1.264 . S
C144 O134 1.243 . S
C145 C148 1.399 . S
C145 C150 1.383 . S
C145 C152 1.496 . S
C146 C147 1.399 . S
C146 C150 1.389 . S
C147 C146 1.399 . S
C147 C149 1.380 . S
C147 H164 0.929 . S
C148 C145 1.399 . S
C148 C149 1.392 . S
C148 H165 0.929 . S
C149 C147 1.380 . S
C149 C148 1.392 . S
C149 H166 0.929 . S
C150 C145 1.383 . S
C150 C146 1.389 . S
C150 H167 0.931 . S
C151 O136 1.266 1_655 S
C151 O137 1.248 . S
C152 Tb88 2.802 . S
C152 O132 1.264 . S
C152 O135 1.256 . S
C152 C145 1.496 . S
C153 C120 1.448 . S
C153 H130 0.930 . S
C153 C154 1.328 . S
C154 C125 1.427 . S
C154 H131 0.929 . S
C154 C153 1.328 . S
C155 O139 1.264 . S
C155 O140 1.243 1_655 S
C156 C159 1.399 . S
C156 C160 1.383 . S
C156 C163 1.496 . S
C157 C158 1.399 . S
C157 C160 1.389 . S
C158 C157 1.399 . S
C158 C161 1.380 . S
C158 H168 0.929 . S
C159 C156 1.399 . S
C159 C161 1.392 . S
C159 H169 0.929 . S
C160 C156 1.383 . S
C160 C157 1.389 . S
C160 H170 0.931 . S
C161 C158 1.380 . S
C161 C159 1.392 . S
C161 H171 0.929 . S
C162 O142 1.266 . S
C162 O143 1.248 . S
C163 Tb99 2.802 . S
C163 O138 1.264 . S
C163 O141 1.256 . S
C163 C156 1.496 . S
H164 C147 0.929 . S
H165 C148 0.929 . S
H166 C149 0.929 . S
H167 C150 0.931 . S
H168 C158 0.929 . S
H169 C159 0.929 . S
H170 C160 0.931 . S
H171 C161 0.929 . S
Tb172 N201 2.617 . S
Tb172 N207 2.572 . S
Tb172 O216 2.465 . S
Tb172 O217 2.387 . S
Tb172 O219 2.428 . S
Tb172 O220 2.308 . S
Tb172 O224 2.349 . S
Tb172 O227 2.393 . S
Tb172 C236 2.802 . S
C173 N174 1.379 . S
C173 C176 1.416 . S
C173 C180 1.424 . S
N174 C173 1.379 . S
N174 C177 1.334 . S
N174 Tb183 2.617 . S
C175 C177 1.390 . S
C175 C178 1.339 . S
C175 H195 0.930 . S
C176 C173 1.416 . S
C176 C178 1.416 . S
C176 C182 1.448 . S
C177 N174 1.334 . S
C177 C175 1.390 . S
C177 H188 0.930 . S
C178 C175 1.339 . S
C178 C176 1.416 . S
C178 H199 0.930 . S
C179 C180 1.413 . S
C179 C181 1.427 . S
C179 C185 1.416 . S
C180 C173 1.424 . S
C180 C179 1.413 . S
C180 N184 1.361 . S
C181 C179 1.427 . S
C181 C182 1.328 . S
C181 H196 0.929 . S
C182 C176 1.448 . S
C182 C181 1.328 . S
C182 H197 0.930 . S
Tb183 N174 2.617 . S
Tb183 N184 2.572 . S
Tb183 O218 2.349 . S
Tb183 O221 2.393 . S
Tb183 O222 2.465 . S
Tb183 O223 2.387 . S
Tb183 O225 2.428 . S
Tb183 O226 2.308 . S
Tb183 C247 2.802 . S
N184 C180 1.361 . S
N184 Tb183 2.572 . S
N184 C186 1.340 . S
C185 C179 1.416 . S
C185 C187 1.332 . S
C185 H193 0.931 . S
C186 N184 1.340 . S
C186 C187 1.407 . S
C186 H192 0.930 . S
C187 C185 1.332 . S
C187 C186 1.407 . S
C187 H189 0.929 . S
H188 C177 0.930 . S
H189 C187 0.929 . S
H190 C205 0.930 . S
H191 C212 0.929 . S
H192 C186 0.930 . S
H193 C185 0.931 . S
H194 C208 0.930 . S
H195 C175 0.930 . S
H196 C181 0.929 . S
H197 C182 0.930 . S
H198 C203 0.930 . S
H199 C178 0.930 . S
H200 C211 0.931 . S
N201 Tb172 2.617 . S
N201 C202 1.379 . S
N201 C205 1.334 . S
C202 N201 1.379 . S
C202 C204 1.416 . S
C202 C210 1.424 . S
C203 H198 0.930 . S
C203 C205 1.390 . S
C203 C206 1.339 . S
C204 C202 1.416 . S
C204 C206 1.416 . S
C204 C237 1.448 . S
C205 H190 0.930 . S
C205 N201 1.334 . S
C205 C203 1.390 . S
C206 C203 1.339 . S
C206 C204 1.416 . S
C206 H213 0.930 . S
N207 Tb172 2.572 . S
N207 C208 1.340 . S
N207 C210 1.361 . S
C208 H194 0.930 . S
C208 N207 1.340 . S
C208 C212 1.407 . S
C209 C210 1.413 . S
C209 C211 1.416 . S
C209 C238 1.427 . S
C210 C202 1.424 . S
C210 N207 1.361 . S
C210 C209 1.413 . S
C211 H200 0.931 . S
C211 C209 1.416 . S
C211 C212 1.332 . S
C212 H191 0.929 . S
C212 C208 1.407 . S
C212 C211 1.332 . S
H213 C206 0.930 . S
H214 C237 0.930 . S
H215 C238 0.929 . S
O216 Tb172 2.465 . S
O216 C236 1.264 . S
O217 Tb172 2.387 . S
O217 C228 1.264 . S
O218 Tb183 2.349 . S
O218 C228 1.243 . S
O219 Tb172 2.428 . S
O219 C236 1.256 . S
O220 Tb172 2.308 . S
O220 C235 1.266 . S
O221 Tb183 2.393 . S
O221 C235 1.248 . S
O222 Tb183 2.465 . S
O222 C247 1.264 . S
O223 Tb183 2.387 . S
O223 C239 1.264 . S
O224 Tb172 2.349 . S
O224 C239 1.243 . S
O225 Tb183 2.428 . S
O225 C247 1.256 . S
O226 Tb183 2.308 . S
O226 C246 1.266 . S
O227 Tb172 2.393 . S
O227 C246 1.248 . S
C228 O217 1.264 . S
C228 O218 1.243 . S
C229 C232 1.399 . S
C229 C234 1.383 . S
C229 C236 1.496 . S
C230 C231 1.399 . S
C230 C234 1.389 . S
C231 C230 1.399 . S
C231 C233 1.380 . S
C231 H248 0.929 . S
C232 C229 1.399 . S
C232 C233 1.392 . S
C232 H249 0.929 . S
C233 C231 1.380 . S
C233 C232 1.392 . S
C233 H250 0.929 . S
C234 C229 1.383 . S
C234 C230 1.389 . S
C234 H251 0.931 . S
C235 O220 1.266 . S
C235 O221 1.248 . S
C236 Tb172 2.802 . S
C236 O216 1.264 . S
C236 O219 1.256 . S
C236 C229 1.496 . S
C237 C204 1.448 . S
C237 H214 0.930 . S
C237 C238 1.328 . S
C238 C209 1.427 . S
C238 H215 0.929 . S
C238 C237 1.328 . S
C239 O223 1.264 . S
C239 O224 1.243 . S
C240 C243 1.399 . S
C240 C244 1.383 . S
C240 C247 1.496 . S
C241 C242 1.399 . S
C241 C244 1.389 . S
C242 C241 1.399 . S
C242 C245 1.380 . S
C242 H252 0.929 . S
C243 C240 1.399 . S
C243 C245 1.392 . S
C243 H253 0.929 . S
C244 C240 1.383 . S
C244 C241 1.389 . S
C244 H254 0.931 . S
C245 C242 1.380 . S
C245 C243 1.392 . S
C245 H255 0.929 . S
C246 O226 1.266 . S
C246 O227 1.248 . S
C247 Tb183 2.802 . S
C247 O222 1.264 . S
C247 O225 1.256 . S
C247 C240 1.496 . S
H248 C231 0.929 . S
H249 C232 0.929 . S
H250 C233 0.929 . S
H251 C234 0.931 . S
H252 C242 0.929 . S
H253 C243 0.929 . S
H254 C244 0.931 . S
H255 C245 0.929 . S
Tb256 N285 2.617 . S
Tb256 N291 2.572 . S
Tb256 O300 2.465 . S
Tb256 O301 2.387 . S
Tb256 O303 2.428 . S
Tb256 O304 2.308 . S
Tb256 O308 2.362 . S
Tb256 O311 2.393 . S
Tb256 C320 2.802 . S
C257 N258 1.379 . S
C257 C260 1.416 . S
C257 C264 1.424 . S
N258 C257 1.379 . S
N258 C261 1.334 . S
N258 Tb267 2.617 . S
C259 C261 1.390 . S
C259 C262 1.339 . S
C259 H279 0.930 . S
C260 C257 1.416 . S
C260 C262 1.416 . S
C260 C266 1.448 . S
C261 N258 1.334 . S
C261 C259 1.390 . S
C261 H272 0.930 . S
C262 C259 1.339 . S
C262 C260 1.416 . S
C262 H283 0.930 . S
C263 C264 1.413 . S
C263 C265 1.427 . S
C263 C269 1.416 . S
C264 C257 1.424 . S
C264 C263 1.413 . S
C264 N268 1.361 . S
C265 C263 1.427 . S
C265 C266 1.328 . S
C265 H280 0.929 . S
C266 C260 1.448 . S
C266 C265 1.328 . S
C266 H281 0.930 . S
Tb267 N258 2.617 . S
Tb267 N268 2.572 . S
Tb267 O302 2.349 1_655 S
Tb267 O305 2.393 . S
Tb267 O306 2.465 . S
Tb267 O307 2.387 . S
Tb267 O309 2.428 . S
Tb267 O310 2.308 1_655 S
Tb267 C331 2.802 . S
N268 C264 1.361 . S
N268 Tb267 2.572 . S
N268 C270 1.340 . S
C269 C263 1.416 . S
C269 C271 1.332 . S
C269 H277 0.931 . S
C270 N268 1.340 . S
C270 C271 1.407 . S
C270 H276 0.930 . S
C271 C269 1.332 . S
C271 C270 1.407 . S
C271 H273 0.929 . S
H272 C261 0.930 . S
H273 C271 0.929 . S
H274 C289 0.930 . S
H275 C296 0.929 1_545 S
H276 C270 0.930 . S
H277 C269 0.931 . S
H278 C292 0.930 . S
H279 C259 0.930 . S
H280 C265 0.929 . S
H281 C266 0.930 . S
H282 C287 0.930 . S
H283 C262 0.930 . S
H284 C295 0.931 1_545 S
N285 Tb256 2.617 . S
N285 C286 1.379 . S
N285 C289 1.334 . S
C286 N285 1.379 . S
C286 C288 1.416 . S
C286 C294 1.424 . S
C287 H282 0.930 . S
C287 C289 1.390 . S
C287 C290 1.339 . S
C288 C286 1.416 . S
C288 C290 1.416 . S
C288 C321 1.448 . S
C289 H274 0.930 . S
C289 N285 1.334 . S
C289 C287 1.390 . S
C290 C287 1.339 . S
C290 C288 1.416 . S
C290 H297 0.930 . S
N291 Tb256 2.572 . S
N291 C292 1.340 . S
N291 C294 1.361 . S
C292 H278 0.930 . S
C292 N291 1.340 . S
C292 C296 1.407 . S
C293 C294 1.413 . S
C293 C295 1.416 . S
C293 C322 1.427 . S
C294 C286 1.424 . S
C294 N291 1.361 . S
C294 C293 1.413 . S
C295 H284 0.931 1_565 S
C295 C293 1.416 . S
C295 C296 1.332 . S
C296 H275 0.929 1_565 S
C296 C292 1.407 . S
C296 C295 1.332 . S
H297 C290 0.930 . S
H298 C321 0.930 . S
H299 C322 0.929 . S
O300 Tb256 2.465 . S
O300 C320 1.264 . S
O301 Tb256 2.387 . S
O301 C312 1.264 . S
O302 Tb267 2.349 1_455 S
O302 C312 1.243 . S
O303 Tb256 2.428 . S
O303 C320 1.256 . S
O304 Tb256 2.308 . S
O304 C319 1.266 1_455 S
O305 Tb267 2.393 . S
O305 C319 1.248 . S
O306 Tb267 2.465 . S
O306 C331 1.264 . S
O307 Tb267 2.387 . S
O307 C323 1.264 . S
O308 Tb256 2.362 . S
O308 C323 1.228 1_455 S
O309 Tb267 2.428 . S
O309 C331 1.256 . S
O310 Tb267 2.308 1_455 S
O310 C330 1.266 . S
O311 Tb256 2.393 . S
O311 C330 1.248 . S
C312 O301 1.264 . S
C312 O302 1.243 . S
C313 C316 1.399 . S
C313 C318 1.383 . S
C313 C320 1.496 . S
C314 C315 1.399 . S
C314 C318 1.389 . S
C315 C314 1.399 . S
C315 C317 1.380 . S
C315 H332 0.929 . S
C316 C313 1.399 . S
C316 C317 1.392 . S
C316 H333 0.929 . S
C317 C315 1.380 . S
C317 C316 1.392 . S
C317 H334 0.929 . S
C318 C313 1.383 . S
C318 C314 1.389 . S
C318 H335 0.931 . S
C319 O304 1.266 1_655 S
C319 O305 1.248 . S
C320 Tb256 2.802 . S
C320 O300 1.264 . S
C320 O303 1.256 . S
C320 C313 1.496 . S
C321 C288 1.448 . S
C321 H298 0.930 . S
C321 C322 1.328 . S
C322 C293 1.427 . S
C322 H299 0.929 . S
C322 C321 1.328 . S
C323 O307 1.264 . S
C323 O308 1.228 1_655 S
C324 C327 1.399 . S
C324 C328 1.383 . S
C324 C331 1.496 . S
C325 C326 1.399 . S
C325 C328 1.389 . S
C326 C325 1.399 . S
C326 C329 1.380 . S
C326 H336 0.929 . S
C327 C324 1.399 . S
C327 C329 1.392 . S
C327 H337 0.929 . S
C328 C324 1.383 . S
C328 C325 1.389 . S
C328 H338 0.931 . S
C329 C326 1.380 . S
C329 C327 1.392 . S
C329 H339 0.929 . S
C330 O310 1.266 . S
C330 O311 1.248 . S
C331 Tb267 2.802 . S
C331 O306 1.264 . S
C331 O309 1.256 . S
C331 C324 1.496 . S
H332 C315 0.929 . S
H333 C316 0.929 . S
H334 C317 0.929 . S
H335 C318 0.931 . S
H336 C326 0.929 . S
H337 C327 0.929 . S
H338 C328 0.931 . S
H339 C329 0.929 . S
Tb340 N369 2.617 . S
Tb340 N375 2.572 . S
Tb340 O384 2.465 . S
Tb340 O385 2.387 . S
Tb340 O387 2.428 . S
Tb340 O388 2.308 . S
Tb340 O392 2.349 . S
Tb340 O395 2.393 . S
Tb340 C404 2.802 . S
C341 N342 1.379 . S
C341 C344 1.416 . S
C341 C348 1.424 . S
N342 C341 1.379 . S
N342 C345 1.334 . S
N342 Tb351 2.617 . S
C343 C345 1.390 . S
C343 C346 1.339 . S
C343 H363 0.930 . S
C344 C341 1.416 . S
C344 C346 1.416 . S
C344 C350 1.448 . S
C345 N342 1.334 . S
C345 C343 1.390 . S
C345 H356 0.930 . S
C346 C343 1.339 . S
C346 C344 1.416 . S
C346 H367 0.930 . S
C347 C348 1.413 . S
C347 C349 1.427 . S
C347 C353 1.416 . S
C348 C341 1.424 . S
C348 C347 1.413 . S
C348 N352 1.361 . S
C349 C347 1.427 . S
C349 C350 1.328 . S
C349 H364 0.929 . S
C350 C344 1.448 . S
C350 C349 1.328 . S
C350 H365 0.930 . S
Tb351 N342 2.617 . S
Tb351 N352 2.572 . S
Tb351 O386 2.349 . S
Tb351 O389 2.393 . S
Tb351 O390 2.465 . S
Tb351 O391 2.387 . S
Tb351 O393 2.428 . S
Tb351 O394 2.308 . S
Tb351 C415 2.802 . S
N352 C348 1.361 . S
N352 Tb351 2.572 . S
N352 C354 1.340 . S
C353 C347 1.416 . S
C353 C355 1.332 . S
C353 H361 0.931 . S
C354 N352 1.340 . S
C354 C355 1.407 . S
C354 H360 0.930 . S
C355 C353 1.332 . S
C355 C354 1.407 . S
C355 H357 0.929 . S
H356 C345 0.930 . S
H357 C355 0.929 . S
H358 C373 0.930 . S
H359 C380 0.929 . S
H360 C354 0.930 . S
H361 C353 0.931 . S
H362 C376 0.930 . S
H363 C343 0.930 . S
H364 C349 0.929 . S
H365 C350 0.930 . S
H366 C371 0.930 . S
H367 C346 0.930 . S
H368 C379 0.931 . S
N369 Tb340 2.617 . S
N369 C370 1.379 . S
N369 C373 1.334 . S
C370 N369 1.379 . S
C370 C372 1.416 . S
C370 C378 1.424 . S
C371 H366 0.930 . S
C371 C373 1.390 . S
C371 C374 1.339 . S
C372 C370 1.416 . S
C372 C374 1.416 . S
C372 C405 1.448 . S
C373 H358 0.930 . S
C373 N369 1.334 . S
C373 C371 1.390 . S
C374 C371 1.339 . S
C374 C372 1.416 . S
C374 H381 0.930 . S
N375 Tb340 2.572 . S
N375 C376 1.340 . S
N375 C378 1.361 . S
C376 H362 0.930 . S
C376 N375 1.340 . S
C376 C380 1.407 . S
C377 C378 1.413 . S
C377 C379 1.416 . S
C377 C406 1.427 . S
C378 C370 1.424 . S
C378 N375 1.361 . S
C378 C377 1.413 . S
C379 H368 0.931 . S
C379 C377 1.416 . S
C379 C380 1.332 . S
C380 H359 0.929 . S
C380 C376 1.407 . S
C380 C379 1.332 . S
H381 C374 0.930 . S
H382 C405 0.930 . S
H383 C406 0.929 . S
O384 Tb340 2.465 . S
O384 C404 1.264 . S
O385 Tb340 2.387 . S
O385 C396 1.264 . S
O386 Tb351 2.349 . S
O386 C396 1.243 . S
O387 Tb340 2.428 . S
O387 C404 1.256 . S
O388 Tb340 2.308 . S
O388 C403 1.266 . S
O389 Tb351 2.393 . S
O389 C403 1.248 . S
O390 Tb351 2.465 . S
O390 C415 1.264 . S
O391 Tb351 2.387 . S
O391 C407 1.264 . S
O392 Tb340 2.349 . S
O392 C407 1.243 . S
O393 Tb351 2.428 . S
O393 C415 1.256 . S
O394 Tb351 2.308 . S
O394 C414 1.266 . S
O395 Tb340 2.393 . S
O395 C414 1.248 . S
C396 O385 1.264 . S
C396 O386 1.243 . S
C397 C400 1.399 . S
C397 C402 1.383 . S
C397 C404 1.496 . S
C398 C399 1.399 . S
C398 C402 1.389 . S
C399 C398 1.399 . S
C399 C401 1.380 . S
C399 H416 0.929 . S
C400 C397 1.399 . S
C400 C401 1.392 . S
C400 H417 0.929 . S
C401 C399 1.380 . S
C401 C400 1.392 . S
C401 H418 0.929 . S
C402 C397 1.383 . S
C402 C398 1.389 . S
C402 H419 0.931 . S
C403 O388 1.266 . S
C403 O389 1.248 . S
C404 Tb340 2.802 . S
C404 O384 1.264 . S
C404 O387 1.256 . S
C404 C397 1.496 . S
C405 C372 1.448 . S
C405 H382 0.930 . S
C405 C406 1.328 . S
C406 C377 1.427 . S
C406 H383 0.929 . S
C406 C405 1.328 . S
C407 O391 1.264 . S
C407 O392 1.243 . S
C408 C411 1.399 . S
C408 C412 1.383 . S
C408 C415 1.496 . S
C409 C410 1.399 . S
C409 C412 1.389 . S
C410 C409 1.399 . S
C410 C413 1.380 . S
C410 H420 0.929 . S
C411 C408 1.399 . S
C411 C413 1.392 . S
C411 H421 0.929 . S
C412 C408 1.383 . S
C412 C409 1.389 . S
C412 H422 0.931 . S
C413 C410 1.380 . S
C413 C411 1.392 . S
C413 H423 0.929 . S
C414 O394 1.266 . S
C414 O395 1.248 . S
C415 Tb351 2.802 . S
C415 O390 1.264 . S
C415 O393 1.256 . S
C415 C408 1.496 . S
H416 C399 0.929 . S
H417 C400 0.929 . S
H418 C401 0.929 . S
H419 C402 0.931 . S
H420 C410 0.929 . S
H421 C411 0.929 . S
H422 C412 0.931 . S
H423 C413 0.929 . S
C424 C425 1.391 . S
C424 C426 1.394 . S
C424 H440 0.931 . S
C425 C424 1.391 . S
C425 C429 1.376 . S
C426 C424 1.394 . S
C426 C427 1.369 . S
C426 C430 1.531 . S
C427 C426 1.369 . S
C427 C428 1.410 . S
C427 C435 1.503 . S
C428 C427 1.410 . S
C428 C429 1.392 . S
C428 C431 1.511 . S
C429 C425 1.376 . S
C429 C428 1.392 . S
C429 H441 0.929 . S
C430 C426 1.531 . S
C430 H442 0.960 . S
C430 H443 0.962 . S
C430 H444 0.960 . S
C431 C428 1.511 . S
C431 H445 0.961 . S
C431 H446 0.961 1_565 S
C431 H447 0.961 . S
C432 C433 1.370 . S
C432 C434 1.363 . S
C432 H448 0.931 . S
C433 C432 1.370 . S
C433 C437 1.408 . S
C434 C432 1.363 . S
C434 C435 1.370 1_545 S
C434 C438 1.524 . S
C435 C427 1.503 . S
C435 C434 1.370 1_565 S
C435 C436 1.403 . S
C436 C435 1.403 . S
C436 C437 1.404 1_565 S
C436 C439 1.539 . S
C437 C433 1.408 . S
C437 C436 1.404 1_545 S
C437 H449 0.930 . S
C438 C434 1.524 . S
C438 H450 0.956 . S
C438 H451 0.961 . S
C438 H452 0.961 . S
C439 C436 1.539 . S
C439 H453 0.958 . S
C439 H454 0.961 . S
C439 H455 0.960 . S
H440 C424 0.931 . S
H441 C429 0.929 . S
H442 C430 0.960 . S
H443 C430 0.962 . S
H444 C430 0.960 . S
H445 C431 0.961 . S
H446 C431 0.961 1_545 S
H447 C431 0.961 . S
H448 C432 0.931 . S
H449 C437 0.930 . S
H450 C438 0.956 . S
H451 C438 0.961 . S
H452 C438 0.961 . S
H453 C439 0.958 . S
H454 C439 0.961 . S
H455 C439 0.960 . S
C456 C457 1.391 . S
C456 C458 1.394 . S
C456 H472 0.931 . S
C457 C456 1.391 . S
C457 C461 1.376 . S
C458 C456 1.394 . S
C458 C459 1.369 . S
C458 C462 1.531 . S
C459 C458 1.369 . S
C459 C460 1.410 . S
C459 C467 1.503 . S
C460 C459 1.410 . S
C460 C461 1.392 . S
C460 C463 1.511 . S
C461 C457 1.376 . S
C461 C460 1.392 . S
C461 H473 0.929 . S
C462 C458 1.531 . S
C462 H474 0.960 . S
C462 H475 0.962 . S
C462 H476 0.960 . S
C463 C460 1.511 . S
C463 H477 0.961 . S
C463 H478 0.961 . S
C463 H479 0.961 . S
C464 C465 1.370 . S
C464 C466 1.363 . S
C464 H480 0.931 . S
C465 C464 1.370 . S
C465 C469 1.408 . S
C466 C464 1.363 . S
C466 C467 1.370 . S
C466 C470 1.524 . S
C467 C459 1.503 . S
C467 C466 1.370 . S
C467 C468 1.403 . S
C468 C467 1.403 . S
C468 C469 1.404 . S
C468 C471 1.539 . S
C469 C465 1.408 . S
C469 C468 1.404 . S
C469 H481 0.930 . S
C470 C466 1.524 . S
C470 H482 0.956 . S
C470 H483 0.961 . S
C470 H484 0.961 . S
C471 C468 1.539 . S
C471 H485 0.958 . S
C471 H486 0.961 . S
C471 H487 0.960 . S
H472 C456 0.931 . S
H473 C461 0.929 . S
H474 C462 0.960 . S
H475 C462 0.962 . S
H476 C462 0.960 . S
H477 C463 0.961 . S
H478 C463 0.961 . S
H479 C463 0.961 . S
H480 C464 0.931 . S
H481 C469 0.930 . S
H482 C470 0.956 . S
H483 C470 0.961 . S
H484 C470 0.961 . S
H485 C471 0.958 . S
H486 C471 0.961 . S
H487 C471 0.960 . S
C488 C489 1.391 . S
C488 C490 1.394 . S
C488 H504 0.931 . S
C489 C488 1.391 . S
C489 C493 1.376 . S
C490 C488 1.394 . S
C490 C491 1.369 . S
C490 C494 1.531 . S
C491 C490 1.369 . S
C491 C492 1.410 . S
C491 C499 1.503 . S
C492 C491 1.410 . S
C492 C493 1.392 . S
C492 C495 1.511 . S
C493 C489 1.376 . S
C493 C492 1.392 . S
C493 H505 0.929 . S
C494 C490 1.531 . S
C494 H506 0.960 . S
C494 H507 0.962 . S
C494 H508 0.960 . S
C495 C492 1.511 . S
C495 H509 0.961 . S
C495 H510 0.961 . S
C495 H511 0.961 . S
C496 C497 1.370 . S
C496 C498 1.363 . S
C496 H512 0.931 . S
C497 C496 1.370 . S
C497 C501 1.408 . S
C498 C496 1.363 . S
C498 C499 1.370 . S
C498 C502 1.524 . S
C499 C491 1.503 . S
C499 C498 1.370 . S
C499 C500 1.403 . S
C500 C499 1.403 . S
C500 C501 1.404 . S
C500 C503 1.539 . S
C501 C497 1.408 . S
C501 C500 1.404 . S
C501 H513 0.930 . S
C502 C498 1.524 . S
C502 H514 0.956 . S
C502 H515 0.961 . S
C502 H516 0.961 . S
C503 C500 1.539 . S
C503 H517 0.958 . S
C503 H518 0.961 . S
C503 H519 0.960 . S
H504 C488 0.931 . S
H505 C493 0.929 . S
H506 C494 0.960 . S
H507 C494 0.962 . S
H508 C494 0.960 . S
H509 C495 0.961 . S
H510 C495 0.961 . S
H511 C495 0.961 . S
H512 C496 0.931 . S
H513 C501 0.930 . S
H514 C502 0.956 . S
H515 C502 0.961 . S
H516 C502 0.961 . S
H517 C503 0.958 . S
H518 C503 0.961 . S
H519 C503 0.960 . S
C520 C521 1.391 . S
C520 C522 1.394 . S
C520 H536 0.931 . S
C521 C520 1.391 . S
C521 C525 1.376 . S
C522 C520 1.394 . S
C522 C523 1.369 . S
C522 C526 1.531 . S
C523 C522 1.369 . S
C523 C524 1.410 . S
C523 C531 1.503 . S
C524 C523 1.410 . S
C524 C525 1.392 . S
C524 C527 1.511 1_565 S
C525 C521 1.376 . S
C525 C524 1.392 . S
C525 H537 0.929 . S
C526 C522 1.531 . S
C526 H538 0.960 . S
C526 H539 0.962 . S
C526 H540 0.960 . S
C527 C524 1.511 1_545 S
C527 H541 0.961 . S
C527 H542 0.961 . S
C527 H543 0.961 . S
C528 C529 1.370 . S
C528 C530 1.363 1_545 S
C528 H544 0.931 . S
C529 C528 1.370 . S
C529 C533 1.408 . S
C530 C528 1.363 1_565 S
C530 C531 1.370 . S
C530 C534 1.524 . S
C531 C523 1.503 . S
C531 C530 1.370 . S
C531 C532 1.403 1_565 S
C532 C531 1.403 1_545 S
C532 C533 1.404 . S
C532 C535 1.539 . S
C533 C529 1.408 . S
C533 C532 1.404 . S
C533 H545 0.930 . S
C534 C530 1.524 . S
C534 H546 0.956 . S
C534 H547 0.961 . S
C534 H548 0.961 . S
C535 C532 1.539 . S
C535 H549 0.958 . S
C535 H550 0.961 . S
C535 H551 0.960 . S
H536 C520 0.931 . S
H537 C525 0.929 . S
H538 C526 0.960 . S
H539 C526 0.962 . S
H540 C526 0.960 . S
H541 C527 0.961 . S
H542 C527 0.961 . S
H543 C527 0.961 . S
H544 C528 0.931 . S
H545 C533 0.930 . S
H546 C534 0.956 . S
H547 C534 0.961 . S
H548 C534 0.961 . S
H549 C535 0.958 . S
H550 C535 0.961 . S
H551 C535 0.960 . S
C552 C553 1.391 . S
C552 C554 1.394 . S
C552 H568 0.931 . S
C553 C552 1.391 . S
C553 C557 1.376 . S
C554 C552 1.394 . S
C554 C555 1.369 . S
C554 C558 1.531 1_545 S
C555 C554 1.369 . S
C555 C556 1.410 . S
C555 C563 1.503 . S
C556 C555 1.410 . S
C556 C557 1.392 . S
C556 C559 1.511 . S
C557 C553 1.376 . S
C557 C556 1.392 . S
C557 H569 0.929 . S
C558 C554 1.531 1_565 S
C558 H570 0.960 . S
C558 H571 0.962 . S
C558 H572 0.960 . S
C559 C556 1.511 . S
C559 H573 0.961 . S
C559 H574 0.961 . S
C559 H575 0.961 . S
C560 C561 1.370 . S
C560 C562 1.390 . S
C560 H576 0.931 . S
C561 C560 1.370 . S
C561 C565 1.408 . S
C562 C560 1.390 . S
C562 C563 1.361 1_565 S
C562 C566 1.508 1_565 S
C563 C555 1.503 . S
C563 C562 1.361 1_545 S
C563 C564 1.403 1_545 S
C564 C563 1.403 1_565 S
C564 C565 1.404 . S
C564 C567 1.539 1_565 S
C565 C561 1.408 . S
C565 C564 1.404 . S
C565 H577 0.930 . S
C566 C562 1.508 1_545 S
C566 H578 0.956 . S
C566 H579 0.961 . S
C566 H580 0.961 . S
C567 C564 1.539 1_545 S
C567 H581 0.958 1_545 S
C567 H582 0.961 1_655 S
C567 H583 0.960 . S
H568 C552 0.931 . S
H569 C557 0.929 . S
H570 C558 0.960 . S
H571 C558 0.962 . S
H572 C558 0.960 . S
H573 C559 0.961 . S
H574 C559 0.961 . S
H575 C559 0.961 . S
H576 C560 0.931 . S
H577 C565 0.930 . S
H578 C566 0.956 . S
H579 C566 0.961 . S
H580 C566 0.961 . S
H581 C567 0.958 1_565 S
H582 C567 0.961 1_455 S
H583 C567 0.960 . S
C584 C585 1.391 . S
C584 C586 1.394 . S
C584 H600 0.931 . S
C585 C584 1.391 . S
C585 C589 1.376 . S
C586 C584 1.394 . S
C586 C587 1.369 . S
C586 C590 1.531 . S
C587 C586 1.369 . S
C587 C588 1.410 . S
C587 C595 1.503 . S
C588 C587 1.410 . S
C588 C589 1.392 . S
C588 C591 1.511 . S
C589 C585 1.376 . S
C589 C588 1.392 . S
C589 H601 0.929 . S
C590 C586 1.531 . S
C590 H602 0.960 . S
C590 H603 0.962 . S
C590 H604 0.960 . S
C591 C588 1.511 . S
C591 H605 0.961 . S
C591 H606 0.961 . S
C591 H607 0.961 . S
C592 C593 1.370 . S
C592 C594 1.363 . S
C592 H608 0.931 . S
C593 C592 1.370 . S
C593 C597 1.408 . S
C594 C592 1.363 . S
C594 C595 1.370 . S
C594 C598 1.524 . S
C595 C587 1.503 . S
C595 C594 1.370 . S
C595 C596 1.403 . S
C596 C595 1.403 . S
C596 C597 1.404 . S
C596 C599 1.539 . S
C597 C593 1.408 . S
C597 C596 1.404 . S
C597 H609 0.930 . S
C598 C594 1.524 . S
C598 H610 0.956 . S
C598 H611 0.961 . S
C598 H612 0.961 . S
C599 C596 1.539 . S
C599 H613 0.958 . S
C599 H614 0.961 . S
C599 H615 0.960 . S
H600 C584 0.931 . S
H601 C589 0.929 . S
H602 C590 0.960 . S
H603 C590 0.962 . S
H604 C590 0.960 . S
H605 C591 0.961 . S
H606 C591 0.961 . S
H607 C591 0.961 . S
H608 C592 0.931 . S
H609 C597 0.930 . S
H610 C598 0.956 . S
H611 C598 0.961 . S
H612 C598 0.961 . S
H613 C599 0.958 . S
H614 C599 0.961 . S
H615 C599 0.960 . S
C616 C617 1.391 . S
C616 C618 1.394 . S
C616 H632 0.931 . S
C617 C616 1.391 . S
C617 C621 1.376 . S
C618 C616 1.394 . S
C618 C619 1.369 . S
C618 C622 1.531 . S
C619 C618 1.369 . S
C619 C620 1.410 . S
C619 C627 1.503 . S
C620 C619 1.410 . S
C620 C621 1.392 . S
C620 C623 1.511 . S
C621 C617 1.376 . S
C621 C620 1.392 . S
C621 H633 0.929 . S
C622 C618 1.531 . S
C622 H634 0.960 . S
C622 H635 0.962 . S
C622 H636 0.960 . S
C623 C620 1.511 . S
C623 H637 0.961 . S
C623 H638 0.961 . S
C623 H639 0.961 . S
C624 C625 1.370 . S
C624 C626 1.363 . S
C624 H640 0.931 . S
C625 C624 1.370 . S
C625 C629 1.408 . S
C626 C624 1.363 . S
C626 C627 1.370 . S
C626 C630 1.524 . S
C627 C619 1.503 . S
C627 C626 1.370 . S
C627 C628 1.403 . S
C628 C627 1.403 . S
C628 C629 1.404 . S
C628 C631 1.539 . S
C629 C625 1.408 . S
C629 C628 1.404 . S
C629 H641 0.930 . S
C630 C626 1.524 . S
C630 H642 0.956 . S
C630 H643 0.961 . S
C630 H644 0.961 . S
C631 C628 1.539 . S
C631 H645 0.958 . S
C631 H646 0.961 . S
C631 H647 0.960 . S
H632 C616 0.931 . S
H633 C621 0.929 . S
H634 C622 0.960 . S
H635 C622 0.962 . S
H636 C622 0.960 . S
H637 C623 0.961 . S
H638 C623 0.961 . S
H639 C623 0.961 . S
H640 C624 0.931 . S
H641 C629 0.930 . S
H642 C630 0.956 . S
H643 C630 0.961 . S
H644 C630 0.961 . S
H645 C631 0.958 . S
H646 C631 0.961 . S
H647 C631 0.960 . S
C648 C649 1.391 . S
C648 C650 1.394 . S
C648 H664 0.931 . S
C649 C648 1.391 . S
C649 C653 1.376 . S
C650 C648 1.394 . S
C650 C651 1.369 . S
C650 C654 1.531 . S
C651 C650 1.369 . S
C651 C652 1.410 . S
C651 C659 1.503 1_545 S
C652 C651 1.410 . S
C652 C653 1.392 . S
C652 C655 1.511 1_545 S
C653 C649 1.376 . S
C653 C652 1.392 . S
C653 H665 0.929 . S
C654 C650 1.531 . S
C654 H666 0.960 . S
C654 H667 0.962 . S
C654 H668 0.960 . S
C655 C652 1.511 1_565 S
C655 H669 0.961 . S
C655 H670 0.961 . S
C655 H671 0.961 . S
C656 C657 1.370 . S
C656 C658 1.363 . S
C656 H672 0.931 . S
C657 C656 1.370 . S
C657 C661 1.408 . S
C658 C656 1.363 . S
C658 C659 1.370 . S
C658 C662 1.524 . S
C659 C651 1.503 1_565 S
C659 C658 1.370 . S
C659 C660 1.400 1_565 S
C660 C659 1.400 1_545 S
C660 C661 1.386 1_545 S
C660 C663 1.558 . S
C661 C657 1.408 . S
C661 C660 1.386 1_565 S
C661 H673 0.930 . S
C662 C658 1.524 . S
C662 H674 0.956 . S
C662 H675 0.961 . S
C662 H676 0.961 . S
C663 C660 1.558 . S
C663 H677 0.958 . S
C663 H678 0.961 . S
C663 H679 0.960 . S
H664 C648 0.931 . S
H665 C653 0.929 . S
H666 C654 0.960 . S
H667 C654 0.962 . S
H668 C654 0.960 . S
H669 C655 0.961 . S
H670 C655 0.961 . S
H671 C655 0.961 . S
H672 C656 0.931 . S
H673 C661 0.930 . S
H674 C662 0.956 . S
H675 C662 0.961 . S
H676 C662 0.961 . S
H677 C663 0.958 . S
H678 C663 0.961 . S
H679 C663 0.960 . S
C680 C681 1.391 . S
C680 C682 1.394 . S
C680 H696 0.931 . S
C681 C680 1.391 . S
C681 C685 1.376 . S
C682 C680 1.394 . S
C682 C683 1.369 1_556 S
C682 C686 1.531 . S
C683 C682 1.369 1_554 S
C683 C684 1.410 . S
C683 C691 1.503 . S
C684 C683 1.410 . S
C684 C685 1.392 1_554 S
C684 C687 1.511 . S
C685 C681 1.376 . S
C685 C684 1.392 1_556 S
C685 H697 0.929 . S
C686 C682 1.531 . S
C686 H698 0.960 1_556 S
C686 H699 0.962 . S
C686 H700 0.960 . S
C687 C684 1.511 . S
C687 H701 0.961 . S
C687 H702 0.961 . S
C687 H703 0.961 . S
C688 C689 1.370 . S
C688 C690 1.363 . S
C688 H704 0.931 . S
C689 C688 1.370 . S
C689 C693 1.408 . S
C690 C688 1.363 . S
C690 C691 1.370 . S
C690 C694 1.524 . S
C691 C683 1.503 . S
C691 C690 1.370 . S
C691 C692 1.403 . S
C692 C691 1.403 . S
C692 C693 1.404 . S
C692 C695 1.539 . S
C693 C689 1.408 . S
C693 C692 1.404 . S
C693 H705 0.930 . S
C694 C690 1.524 . S
C694 H706 0.956 . S
C694 H707 0.961 . S
C694 H708 0.961 . S
C695 C692 1.539 . S
C695 H709 0.958 . S
C695 H710 0.961 . S
C695 H711 0.960 . S
H696 C680 0.931 . S
H697 C685 0.929 . S
H698 C686 0.960 1_554 S
H699 C686 0.962 . S
H700 C686 0.960 . S
H701 C687 0.961 . S
H702 C687 0.961 . S
H703 C687 0.961 . S
H704 C688 0.931 . S
H705 C693 0.930 . S
H706 C694 0.956 . S
H707 C694 0.961 . S
H708 C694 0.961 . S
H709 C695 0.958 . S
H710 C695 0.961 . S
H711 C695 0.960 . S
C712 C713 1.391 . S
C712 C714 1.394 . S
C712 H728 0.931 . S
C713 C712 1.391 . S
C713 C717 1.376 . S
C714 C712 1.394 . S
C714 C715 1.369 . S
C714 C718 1.531 . S
C715 C714 1.369 . S
C715 C716 1.410 . S
C715 C723 1.503 . S
C716 C715 1.410 . S
C716 C717 1.392 . S
C716 C719 1.511 . S
C717 C713 1.376 . S
C717 C716 1.392 . S
C717 H729 0.929 . S
C718 C714 1.531 . S
C718 H730 0.960 . S
C718 H731 0.962 . S
C718 H732 0.960 . S
C719 C716 1.511 . S
C719 H733 0.961 . S
C719 H734 0.961 . S
C719 H735 0.961 . S
C720 C721 1.370 . S
C720 C722 1.363 . S
C720 H736 0.931 . S
C721 C720 1.370 . S
C721 C725 1.408 . S
C722 C720 1.363 . S
C722 C723 1.370 . S
C722 C726 1.524 . S
C723 C715 1.503 . S
C723 C722 1.370 . S
C723 C724 1.403 . S
C724 C723 1.403 . S
C724 C725 1.404 . S
C724 C727 1.539 . S
C725 C721 1.408 . S
C725 C724 1.404 . S
C725 H737 0.930 . S
C726 C722 1.524 . S
C726 H738 0.956 . S
C726 H739 0.961 . S
C726 H740 0.961 . S
C727 C724 1.539 . S
C727 H741 0.958 . S
C727 H742 0.961 . S
C727 H743 0.960 . S
H728 C712 0.931 . S
H729 C717 0.929 . S
H730 C718 0.960 . S
H731 C718 0.962 . S
H732 C718 0.960 . S
H733 C719 0.961 . S
H734 C719 0.961 . S
H735 C719 0.961 . S
H736 C720 0.931 . S
H737 C725 0.930 . S
H738 C726 0.956 . S
H739 C726 0.961 . S
H740 C726 0.961 . S
H741 C727 0.958 . S
H742 C727 0.961 . S
H743 C727 0.960 . S
C744 C745 1.391 . S
C744 C746 1.394 . S
C744 H760 0.931 . S
C745 C744 1.391 . S
C745 C749 1.376 . S
C746 C744 1.394 . S
C746 C747 1.369 1_554 S
C746 C750 1.528 1_554 S
C747 C746 1.369 1_556 S
C747 C748 1.410 . S
C747 C755 1.503 . S
C748 C747 1.410 . S
C748 C749 1.392 1_556 S
C748 C751 1.511 . S
C749 C745 1.376 . S
C749 C748 1.392 1_554 S
C749 H761 0.929 . S
C750 C746 1.528 1_556 S
C750 H762 0.979 . S
C750 H763 0.959 1_556 S
C750 H764 0.948 1_556 S
C751 C748 1.511 . S
C751 H765 0.961 . S
C751 H766 0.961 . S
C751 H767 0.961 . S
C752 C753 1.370 . S
C752 C754 1.363 . S
C752 H768 0.931 . S
C753 C752 1.370 . S
C753 C757 1.408 . S
C754 C752 1.363 . S
C754 C755 1.370 . S
C754 C758 1.524 . S
C755 C747 1.503 . S
C755 C754 1.370 . S
C755 C756 1.403 . S
C756 C755 1.403 . S
C756 C757 1.404 . S
C756 C759 1.539 . S
C757 C753 1.408 . S
C757 C756 1.404 . S
C757 H769 0.930 . S
C758 C754 1.524 . S
C758 H770 0.956 . S
C758 H771 0.961 . S
C758 H772 0.961 . S
C759 C756 1.539 . S
C759 H773 0.958 . S
C759 H774 0.961 . S
C759 H775 0.960 . S
H760 C744 0.931 . S
H761 C749 0.929 . S
H762 C750 0.979 . S
H763 C750 0.959 1_554 S
H764 C750 0.948 1_554 S
H765 C751 0.961 . S
H766 C751 0.961 . S
H767 C751 0.961 . S
H768 C752 0.931 . S
H769 C757 0.930 . S
H770 C758 0.956 . S
H771 C758 0.961 . S
H772 C758 0.961 . S
H773 C759 0.958 . S
H774 C759 0.961 . S
H775 C759 0.960 . S
C776 C777 1.391 . S
C776 C778 1.394 . S
C776 H792 0.931 . S
C777 C776 1.391 . S
C777 C781 1.376 . S
C778 C776 1.394 . S
C778 C779 1.369 . S
C778 C782 1.531 . S
C779 C778 1.369 . S
C779 C780 1.410 . S
C779 C787 1.503 . S
C780 C779 1.410 . S
C780 C781 1.392 . S
C780 C783 1.511 . S
C781 C777 1.376 . S
C781 C780 1.392 . S
C781 H793 0.929 . S
C782 C778 1.531 . S
C782 H794 0.960 . S
C782 H795 0.962 . S
C782 H796 0.960 . S
C783 C780 1.511 . S
C783 H797 0.961 . S
C783 H798 0.961 . S
C783 H799 0.961 . S
C784 C785 1.370 . S
C784 C786 1.363 . S
C784 H800 0.931 . S
C785 C784 1.370 . S
C785 C789 1.408 . S
C786 C784 1.363 . S
C786 C787 1.370 . S
C786 C790 1.524 . S
C787 C779 1.503 . S
C787 C786 1.370 . S
C787 C788 1.403 . S
C788 C787 1.403 . S
C788 C789 1.404 . S
C788 C791 1.539 . S
C789 C785 1.408 . S
C789 C788 1.404 . S
C789 H801 0.930 . S
C790 C786 1.524 . S
C790 H802 0.956 . S
C790 H803 0.961 . S
C790 H804 0.961 . S
C791 C788 1.539 . S
C791 H805 0.958 . S
C791 H806 0.961 . S
C791 H807 0.960 . S
H792 C776 0.931 . S
H793 C781 0.929 . S
H794 C782 0.960 . S
H795 C782 0.962 . S
H796 C782 0.960 . S
H797 C783 0.961 . S
H798 C783 0.961 . S
H799 C783 0.961 . S
H800 C784 0.931 . S
H801 C789 0.930 . S
H802 C790 0.956 . S
H803 C790 0.961 . S
H804 C790 0.961 . S
H805 C791 0.958 . S
H806 C791 0.961 . S
H807 C791 0.960 . S
C808 C809 1.391 . S
C808 C810 1.394 1_554 S
C808 H824 0.931 . S
C809 C808 1.391 . S
C809 C813 1.376 . S
C810 C808 1.394 1_556 S
C810 C811 1.369 . S
C810 C814 1.531 . S
C811 C810 1.369 . S
C811 C812 1.410 . S
C811 C819 1.503 . S
C812 C811 1.410 . S
C812 C813 1.392 1_556 S
C812 C815 1.511 . S
C813 C809 1.376 . S
C813 C812 1.392 1_554 S
C813 H825 0.929 . S
C814 C810 1.531 . S
C814 H826 0.960 . S
C814 H827 0.962 . S
C814 H828 0.960 . S
C815 C812 1.511 . S
C815 H829 0.961 . S
C815 H830 0.961 . S
C815 H831 0.961 . S
C816 C817 1.370 . S
C816 C818 1.363 . S
C816 H832 0.931 . S
C817 C816 1.370 . S
C817 C821 1.408 . S
C818 C816 1.363 . S
C818 C819 1.370 . S
C818 C822 1.524 . S
C819 C811 1.503 . S
C819 C818 1.370 . S
C819 C820 1.403 . S
C820 C819 1.403 . S
C820 C821 1.404 . S
C820 C823 1.539 . S
C821 C817 1.408 . S
C821 C820 1.404 . S
C821 H833 0.930 . S
C822 C818 1.524 . S
C822 H834 0.956 . S
C822 H835 0.961 . S
C822 H836 0.961 . S
C823 C820 1.539 . S
C823 H837 0.958 . S
C823 H838 0.961 . S
C823 H839 0.960 . S
H824 C808 0.931 . S
H825 C813 0.929 . S
H826 C814 0.960 . S
H827 C814 0.962 . S
H828 C814 0.960 . S
H829 C815 0.961 . S
H830 C815 0.961 . S
H831 C815 0.961 . S
H832 C816 0.931 . S
H833 C821 0.930 . S
H834 C822 0.956 . S
H835 C822 0.961 . S
H836 C822 0.961 . S
H837 C823 0.958 . S
H838 C823 0.961 . S
H839 C823 0.960 . S
C840 C841 1.391 . S
C840 C842 1.394 . S
C840 H856 0.931 . S
C841 C840 1.391 . S
C841 C845 1.376 . S
C842 C840 1.394 . S
C842 C843 1.369 . S
C842 C846 1.531 . S
C843 C842 1.369 . S
C843 C844 1.410 . S
C843 C851 1.503 . S
C844 C843 1.410 . S
C844 C845 1.392 . S
C844 C847 1.511 . S
C845 C841 1.376 . S
C845 C844 1.392 . S
C845 H857 0.929 . S
C846 C842 1.531 . S
C846 H858 0.960 . S
C846 H859 0.962 . S
C846 H860 0.960 . S
C847 C844 1.511 . S
C847 H861 0.961 . S
C847 H862 0.961 . S
C847 H863 0.961 . S
C848 C849 1.370 . S
C848 C850 1.363 . S
C848 H864 0.931 . S
C849 C848 1.370 . S
C849 C853 1.408 . S
C850 C848 1.363 . S
C850 C851 1.370 . S
C850 C854 1.524 . S
C851 C843 1.503 . S
C851 C850 1.370 . S
C851 C852 1.403 . S
C852 C851 1.403 . S
C852 C853 1.404 . S
C852 C855 1.539 . S
C853 C849 1.408 . S
C853 C852 1.404 . S
C853 H865 0.930 . S
C854 C850 1.524 . S
C854 H866 0.956 . S
C854 H867 0.961 . S
C854 H868 0.961 . S
C855 C852 1.539 . S
C855 H869 0.958 . S
C855 H870 0.961 . S
C855 H871 0.960 . S
H856 C840 0.931 . S
H857 C845 0.929 . S
H858 C846 0.960 . S
H859 C846 0.962 . S
H860 C846 0.960 . S
H861 C847 0.961 . S
H862 C847 0.961 . S
H863 C847 0.961 . S
H864 C848 0.931 . S
H865 C853 0.930 . S
H866 C854 0.956 . S
H867 C854 0.961 . S
H868 C854 0.961 . S
H869 C855 0.958 . S
H870 C855 0.961 . S
H871 C855 0.960 . S
C872 C873 1.391 . S
C872 C874 1.394 1_556 S
C872 H888 0.931 . S
C873 C872 1.391 . S
C873 C877 1.376 . S
C874 C872 1.394 1_554 S
C874 C875 1.369 . S
C874 C878 1.531 . S
C875 C874 1.369 . S
C875 C876 1.410 . S
C875 C883 1.503 . S
C876 C875 1.410 . S
C876 C877 1.392 1_554 S
C876 C879 1.511 . S
C877 C873 1.376 . S
C877 C876 1.392 1_556 S
C877 H889 0.929 . S
C878 C874 1.531 . S
C878 H890 0.960 . S
C878 H891 0.962 . S
C878 H892 0.960 . S
C879 C876 1.511 . S
C879 H893 0.961 . S
C879 H894 0.961 . S
C879 H895 0.961 . S
C880 C881 1.370 . S
C880 C882 1.363 . S
C880 H896 0.931 . S
C881 C880 1.370 . S
C881 C885 1.408 . S
C882 C880 1.363 . S
C882 C883 1.370 . S
C882 C886 1.524 . S
C883 C875 1.503 . S
C883 C882 1.370 . S
C883 C884 1.403 . S
C884 C883 1.403 . S
C884 C885 1.404 . S
C884 C887 1.539 . S
C885 C881 1.408 . S
C885 C884 1.404 . S
C885 H897 0.930 . S
C886 C882 1.524 . S
C886 H898 0.956 . S
C886 H899 0.961 . S
C886 H900 0.961 . S
C887 C884 1.539 . S
C887 H901 0.958 . S
C887 H902 0.961 . S
C887 H903 0.960 . S
H888 C872 0.931 . S
H889 C877 0.929 . S
H890 C878 0.960 . S
H891 C878 0.962 . S
H892 C878 0.960 . S
H893 C879 0.961 . S
H894 C879 0.961 . S
H895 C879 0.961 . S
H896 C880 0.931 . S
H897 C885 0.930 . S
H898 C886 0.956 . S
H899 C886 0.961 . S
H900 C886 0.961 . S
H901 C887 0.958 . S
H902 C887 0.961 . S
H903 C887 0.960 . S
C904 C905 1.391 . S
C904 C906 1.394 . S
C904 H920 0.931 . S
C905 C904 1.391 . S
C905 C909 1.376 . S
C906 C904 1.394 . S
C906 C907 1.369 . S
C906 C910 1.531 . S
C907 C906 1.369 . S
C907 C908 1.410 . S
C907 C915 1.503 . S
C908 C907 1.410 . S
C908 C909 1.392 . S
C908 C911 1.511 . S
C909 C905 1.376 . S
C909 C908 1.392 . S
C909 H921 0.929 . S
C910 C906 1.531 . S
C910 H922 0.960 . S
C910 H923 0.962 . S
C910 H924 0.960 . S
C911 C908 1.511 . S
C911 H925 0.961 . S
C911 H926 0.961 . S
C911 H927 0.961 . S
C912 C913 1.370 . S
C912 C914 1.363 . S
C912 H928 0.931 . S
C913 C912 1.370 . S
C913 C917 1.408 . S
C914 C912 1.363 . S
C914 C915 1.370 . S
C914 C918 1.524 . S
C915 C907 1.503 . S
C915 C914 1.370 . S
C915 C916 1.403 . S
C916 C915 1.403 . S
C916 C917 1.404 . S
C916 C919 1.539 . S
C917 C913 1.408 . S
C917 C916 1.404 . S
C917 H929 0.930 . S
C918 C914 1.524 . S
C918 H930 0.956 . S
C918 H931 0.961 . S
C918 H932 0.961 . S
C919 C916 1.539 . S
C919 H933 0.958 . S
C919 H934 0.961 . S
C919 H935 0.960 . S
H920 C904 0.931 . S
H921 C909 0.929 . S
H922 C910 0.960 . S
H923 C910 0.962 . S
H924 C910 0.960 . S
H925 C911 0.961 . S
H926 C911 0.961 . S
H927 C911 0.961 . S
H928 C912 0.931 . S
H929 C917 0.930 . S
H930 C918 0.956 . S
H931 C918 0.961 . S
H932 C918 0.961 . S
H933 C919 0.958 . S
H934 C919 0.961 . S
H935 C919 0.960 . S
C936 C937 1.391 . S
C936 C938 1.394 . S
C936 H952 0.931 . S
C937 C936 1.391 . S
C937 C941 1.376 . S
C938 C936 1.394 . S
C938 C939 1.369 . S
C938 C942 1.531 . S
C939 C938 1.369 . S
C939 C940 1.410 . S
C939 C947 1.503 . S
C940 C939 1.410 . S
C940 C941 1.392 . S
C940 C943 1.511 . S
C941 C937 1.376 . S
C941 C940 1.392 . S
C941 H953 0.929 . S
C942 C938 1.531 . S
C942 H954 0.960 . S
C942 H955 0.962 . S
C942 H956 0.960 . S
C943 C940 1.511 . S
C943 H957 0.961 . S
C943 H958 0.961 . S
C943 H959 0.961 . S
C944 C945 1.370 . S
C944 C946 1.363 . S
C944 H960 0.931 . S
C945 C944 1.370 . S
C945 C949 1.408 . S
C946 C944 1.363 . S
C946 C947 1.370 . S
C946 C950 1.524 . S
C947 C939 1.503 . S
C947 C946 1.370 . S
C947 C948 1.403 . S
C948 C947 1.403 . S
C948 C949 1.404 . S
C948 C951 1.539 . S
C949 C945 1.408 . S
C949 C948 1.404 . S
C949 H961 0.930 . S
C950 C946 1.524 . S
C950 H962 0.956 . S
C950 H963 0.961 . S
C950 H964 0.961 . S
C951 C948 1.539 . S
C951 H965 0.958 . S
C951 H966 0.961 . S
C951 H967 0.960 . S
H952 C936 0.931 . S
H953 C941 0.929 . S
H954 C942 0.960 . S
H955 C942 0.962 . S
H956 C942 0.960 . S
H957 C943 0.961 . S
H958 C943 0.961 . S
H959 C943 0.961 . S
H960 C944 0.931 . S
H961 C949 0.930 . S
H962 C950 0.956 . S
H963 C950 0.961 . S
H964 C950 0.961 . S
H965 C951 0.958 . S
H966 C951 0.961 . S
H967 C951 0.960 . S
C968 C969 1.391 . S
C968 C970 1.394 . S
C968 H984 0.931 . S
C969 C968 1.391 . S
C969 C973 1.376 . S
C970 C968 1.394 . S
C970 C971 1.369 . S
C970 C974 1.531 . S
C971 C970 1.369 . S
C971 C972 1.410 . S
C971 C979 1.503 . S
C972 C971 1.410 . S
C972 C973 1.392 . S
C972 C975 1.511 . S
C973 C969 1.376 . S
C973 C972 1.392 . S
C973 H985 0.929 . S
C974 C970 1.531 . S
C974 H986 0.960 . S
C974 H987 0.962 . S
C974 H988 0.960 . S
C975 C972 1.511 . S
C975 H989 0.961 . S
C975 H990 0.961 . S
C975 H991 0.961 . S
C976 C977 1.370 . S
C976 C978 1.363 . S
C976 H992 0.931 . S
C977 C976 1.370 . S
C977 C981 1.408 . S
C978 C976 1.363 . S
C978 C979 1.370 . S
C978 C982 1.524 . S
C979 C971 1.503 . S
C979 C978 1.370 . S
C979 C980 1.403 . S
C980 C979 1.403 . S
C980 C981 1.404 . S
C980 C983 1.539 . S
C981 C977 1.408 . S
C981 C980 1.404 . S
C981 H993 0.930 . S
C982 C978 1.524 . S
C982 H994 0.956 . S
C982 H995 0.961 . S
C982 H996 0.961 . S
C983 C980 1.539 . S
C983 H997 0.958 . S
C983 H998 0.961 . S
C983 H999 0.960 . S
H984 C968 0.931 . S
H985 C973 0.929 . S
H986 C974 0.960 . S
H987 C974 0.962 . S
H988 C974 0.960 . S
H989 C975 0.961 . S
H990 C975 0.961 . S
H991 C975 0.961 . S
H992 C976 0.931 . S
H993 C981 0.930 . S
H994 C982 0.956 . S
H995 C982 0.961 . S
H996 C982 0.961 . S
H997 C983 0.958 . S
H998 C983 0.961 . S
H999 C983 0.960 . S
C1000 C1001 1.391 . S
C1000 C1002 1.394 . S
C1000 H1016 0.931 . S
C1001 C1000 1.391 . S
C1001 C1005 1.376 . S
C1002 C1000 1.394 . S
C1002 C1003 1.369 . S
C1002 C1006 1.531 . S
C1003 C1002 1.369 . S
C1003 C1004 1.410 . S
C1003 C1011 1.503 . S
C1004 C1003 1.410 . S
C1004 C1005 1.392 . S
C1004 C1007 1.511 . S
C1005 C1001 1.376 . S
C1005 C1004 1.392 . S
C1005 H1017 0.929 . S
C1006 C1002 1.531 . S
C1006 H1018 0.960 . S
C1006 H1019 0.962 . S
C1006 H1020 0.960 . S
C1007 C1004 1.511 . S
C1007 H1021 0.961 . S
C1007 H1022 0.961 . S
C1007 H1023 0.961 . S
C1008 C1009 1.370 . S
C1008 C1010 1.363 . S
C1008 H1024 0.931 . S
C1009 C1008 1.370 . S
C1009 C1013 1.408 . S
C1010 C1008 1.363 . S
C1010 C1011 1.370 . S
C1010 C1014 1.524 . S
C1011 C1003 1.503 . S
C1011 C1010 1.370 . S
C1011 C1012 1.403 . S
C1012 C1011 1.403 . S
C1012 C1013 1.404 . S
C1012 C1015 1.539 . S
C1013 C1009 1.408 . S
C1013 C1012 1.404 . S
C1013 H1025 0.930 . S
C1014 C1010 1.524 . S
C1014 H1026 0.956 . S
C1014 H1027 0.961 . S
C1014 H1028 0.961 . S
C1015 C1012 1.539 . S
C1015 H1029 0.958 . S
C1015 H1030 0.961 . S
C1015 H1031 0.960 . S
H1016 C1000 0.931 . S
H1017 C1005 0.929 . S
H1018 C1006 0.960 . S
H1019 C1006 0.962 . S
H1020 C1006 0.960 . S
H1021 C1007 0.961 . S
H1022 C1007 0.961 . S
H1023 C1007 0.961 . S
H1024 C1008 0.931 . S
H1025 C1013 0.930 . S
H1026 C1014 0.956 . S
H1027 C1014 0.961 . S
H1028 C1014 0.961 . S
H1029 C1015 0.958 . S
H1030 C1015 0.961 . S
H1031 C1015 0.960 . S
C1032 C1033 1.391 . S
C1032 C1034 1.394 . S
C1032 H1048 0.931 . S
C1033 C1032 1.391 . S
C1033 C1037 1.376 . S
C1034 C1032 1.394 . S
C1034 C1035 1.369 . S
C1034 C1038 1.531 . S
C1035 C1034 1.369 . S
C1035 C1036 1.410 . S
C1035 C1043 1.503 . S
C1036 C1035 1.410 . S
C1036 C1037 1.392 . S
C1036 C1039 1.511 . S
C1037 C1033 1.376 . S
C1037 C1036 1.392 . S
C1037 H1049 0.929 . S
C1038 C1034 1.531 . S
C1038 H1050 0.960 . S
C1038 H1051 0.962 . S
C1038 H1052 0.960 . S
C1039 C1036 1.511 . S
C1039 H1053 0.961 . S
C1039 H1054 0.961 . S
C1039 H1055 0.961 . S
C1040 C1041 1.370 . S
C1040 C1042 1.363 . S
C1040 H1056 0.931 1_655 S
C1041 C1040 1.370 . S
C1041 C1045 1.408 . S
C1042 C1040 1.363 . S
C1042 C1043 1.370 . S
C1042 C1046 1.524 . S
C1043 C1035 1.503 . S
C1043 C1042 1.370 . S
C1043 C1044 1.403 . S
C1044 C1043 1.403 . S
C1044 C1045 1.404 . S
C1044 C1047 1.539 . S
C1045 C1041 1.408 . S
C1045 C1044 1.404 . S
C1045 H1057 0.930 . S
C1046 C1042 1.524 . S
C1046 H1058 0.956 . S
C1046 H1059 0.961 . S
C1046 H1060 0.961 1_655 S
C1047 C1044 1.539 . S
C1047 H1061 0.958 . S
C1047 H1062 0.961 . S
C1047 H1063 0.960 . S
H1048 C1032 0.931 . S
H1049 C1037 0.929 . S
H1050 C1038 0.960 . S
H1051 C1038 0.962 . S
H1052 C1038 0.960 . S
H1053 C1039 0.961 . S
H1054 C1039 0.961 . S
H1055 C1039 0.961 . S
H1056 C1040 0.931 1_455 S
H1057 C1045 0.930 . S
H1058 C1046 0.956 . S
H1059 C1046 0.961 . S
H1060 C1046 0.961 1_455 S
H1061 C1047 0.958 . S
H1062 C1047 0.961 . S
H1063 C1047 0.960 . S
C1064 C1065 1.391 . S
C1064 C1066 1.394 . S
C1064 H1080 0.931 . S
C1065 C1064 1.391 . S
C1065 C1069 1.376 . S
C1066 C1064 1.394 . S
C1066 C1067 1.369 . S
C1066 C1070 1.531 . S
C1067 C1066 1.369 . S
C1067 C1068 1.410 . S
C1067 C1075 1.503 . S
C1068 C1067 1.410 . S
C1068 C1069 1.392 . S
C1068 C1071 1.511 . S
C1069 C1065 1.376 . S
C1069 C1068 1.392 . S
C1069 H1081 0.929 . S
C1070 C1066 1.531 . S
C1070 H1082 0.960 . S
C1070 H1083 0.962 . S
C1070 H1084 0.960 . S
C1071 C1068 1.511 . S
C1071 H1085 0.961 . S
C1071 H1086 0.961 . S
C1071 H1087 0.961 . S
C1072 C1073 1.370 . S
C1072 C1074 1.363 . S
C1072 H1088 0.931 . S
C1073 C1072 1.370 . S
C1073 C1077 1.408 . S
C1074 C1072 1.363 . S
C1074 C1075 1.370 . S
C1074 C1078 1.524 . S
C1075 C1067 1.503 . S
C1075 C1074 1.370 . S
C1075 C1076 1.403 . S
C1076 C1075 1.403 . S
C1076 C1077 1.404 . S
C1076 C1079 1.539 . S
C1077 C1073 1.408 . S
C1077 C1076 1.404 . S
C1077 H1089 0.930 . S
C1078 C1074 1.524 . S
C1078 H1090 0.956 . S
C1078 H1091 0.961 . S
C1078 H1092 0.961 . S
C1079 C1076 1.539 . S
C1079 H1093 0.958 . S
C1079 H1094 0.961 . S
C1079 H1095 0.960 . S
H1080 C1064 0.931 . S
H1081 C1069 0.929 . S
H1082 C1070 0.960 . S
H1083 C1070 0.962 . S
H1084 C1070 0.960 . S
H1085 C1071 0.961 . S
H1086 C1071 0.961 . S
H1087 C1071 0.961 . S
H1088 C1072 0.931 . S
H1089 C1077 0.930 . S
H1090 C1078 0.956 . S
H1091 C1078 0.961 . S
H1092 C1078 0.961 . S
H1093 C1079 0.958 . S
H1094 C1079 0.961 . S
H1095 C1079 0.960 . S
C1096 C1097 1.391 . S
C1096 C1098 1.394 . S
C1096 H1112 0.931 . S
C1097 C1096 1.391 . S
C1097 C1101 1.376 . S
C1098 C1096 1.394 . S
C1098 C1099 1.369 . S
C1098 C1102 1.531 . S
C1099 C1098 1.369 . S
C1099 C1100 1.410 . S
C1099 C1107 1.503 . S
C1100 C1099 1.410 . S
C1100 C1101 1.392 . S
C1100 C1103 1.511 . S
C1101 C1097 1.376 . S
C1101 C1100 1.392 . S
C1101 H1113 0.929 . S
C1102 C1098 1.531 . S
C1102 H1114 0.960 . S
C1102 H1115 0.962 . S
C1102 H1116 0.960 . S
C1103 C1100 1.511 . S
C1103 H1117 0.961 . S
C1103 H1118 0.961 . S
C1103 H1119 0.961 . S
C1104 C1105 1.370 . S
C1104 C1106 1.363 . S
C1104 H1120 0.931 . S
C1105 C1104 1.370 . S
C1105 C1109 1.408 . S
C1106 C1104 1.363 . S
C1106 C1107 1.370 . S
C1106 C1110 1.524 . S
C1107 C1099 1.503 . S
C1107 C1106 1.370 . S
C1107 C1108 1.403 . S
C1108 C1107 1.403 . S
C1108 C1109 1.404 . S
C1108 C1111 1.539 . S
C1109 C1105 1.408 . S
C1109 C1108 1.404 . S
C1109 H1121 0.930 . S
C1110 C1106 1.524 . S
C1110 H1122 0.956 . S
C1110 H1123 0.961 . S
C1110 H1124 0.961 . S
C1111 C1108 1.539 . S
C1111 H1125 0.958 . S
C1111 H1126 0.961 . S
C1111 H1127 0.960 . S
H1112 C1096 0.931 . S
H1113 C1101 0.929 . S
H1114 C1102 0.960 . S
H1115 C1102 0.962 . S
H1116 C1102 0.960 . S
H1117 C1103 0.961 . S
H1118 C1103 0.961 . S
H1119 C1103 0.961 . S
H1120 C1104 0.931 . S
H1121 C1109 0.930 . S
H1122 C1110 0.956 . S
H1123 C1110 0.961 . S
H1124 C1110 0.961 . S
H1125 C1111 0.958 . S
H1126 C1111 0.961 . S
H1127 C1111 0.960 . S
C1128 C1129 1.391 . S
C1128 C1130 1.394 . S
C1128 H1144 0.931 . S
C1129 C1128 1.391 . S
C1129 C1133 1.376 . S
C1130 C1128 1.394 . S
C1130 C1131 1.369 . S
C1130 C1134 1.531 . S
C1131 C1130 1.369 . S
C1131 C1132 1.410 . S
C1131 C1139 1.503 . S
C1132 C1131 1.410 . S
C1132 C1133 1.392 . S
C1132 C1135 1.511 . S
C1133 C1129 1.376 . S
C1133 C1132 1.392 . S
C1133 H1145 0.929 . S
C1134 C1130 1.531 . S
C1134 H1146 0.960 . S
C1134 H1147 0.962 . S
C1134 H1148 0.960 . S
C1135 C1132 1.511 . S
C1135 H1149 0.961 . S
C1135 H1150 0.961 . S
C1135 H1151 0.961 . S
C1136 C1137 1.370 . S
C1136 C1138 1.363 . S
C1136 H1152 0.931 . S
C1137 C1136 1.370 . S
C1137 C1141 1.408 . S
C1138 C1136 1.363 . S
C1138 C1139 1.370 . S
C1138 C1142 1.524 . S
C1139 C1131 1.503 . S
C1139 C1138 1.370 . S
C1139 C1140 1.403 . S
C1140 C1139 1.403 . S
C1140 C1141 1.404 . S
C1140 C1143 1.539 . S
C1141 C1137 1.408 . S
C1141 C1140 1.404 . S
C1141 H1153 0.930 . S
C1142 C1138 1.524 . S
C1142 H1154 0.956 . S
C1142 H1155 0.961 . S
C1142 H1156 0.961 . S
C1143 C1140 1.539 . S
C1143 H1157 0.958 . S
C1143 H1158 0.961 . S
C1143 H1159 0.960 . S
H1144 C1128 0.931 . S
H1145 C1133 0.929 . S
H1146 C1134 0.960 . S
H1147 C1134 0.962 . S
H1148 C1134 0.960 . S
H1149 C1135 0.961 . S
H1150 C1135 0.961 . S
H1151 C1135 0.961 . S
H1152 C1136 0.931 . S
H1153 C1141 0.930 . S
H1154 C1142 0.956 . S
H1155 C1142 0.961 . S
H1156 C1142 0.961 . S
H1157 C1143 0.958 . S
H1158 C1143 0.961 . S
H1159 C1143 0.960 . S
C1160 C1161 1.391 . S
C1160 C1162 1.394 . S
C1160 H1176 0.931 . S
C1161 C1160 1.391 . S
C1161 C1165 1.376 . S
C1162 C1160 1.394 . S
C1162 C1163 1.369 . S
C1162 C1166 1.531 . S
C1163 C1162 1.369 . S
C1163 C1164 1.410 . S
C1163 C1171 1.503 . S
C1164 C1163 1.410 . S
C1164 C1165 1.392 . S
C1164 C1167 1.511 . S
C1165 C1161 1.376 . S
C1165 C1164 1.392 . S
C1165 H1177 0.929 . S
C1166 C1162 1.531 . S
C1166 H1178 0.960 . S
C1166 H1179 0.962 . S
C1166 H1180 0.960 . S
C1167 C1164 1.511 . S
C1167 H1181 0.961 . S
C1167 H1182 0.961 . S
C1167 H1183 0.961 . S
C1168 C1169 1.370 . S
C1168 C1170 1.363 . S
C1168 H1184 0.931 . S
C1169 C1168 1.370 . S
C1169 C1173 1.408 . S
C1170 C1168 1.363 . S
C1170 C1171 1.370 . S
C1170 C1174 1.524 . S
C1171 C1163 1.503 . S
C1171 C1170 1.370 . S
C1171 C1172 1.403 . S
C1172 C1171 1.403 . S
C1172 C1173 1.404 . S
C1172 C1175 1.539 . S
C1173 C1169 1.408 . S
C1173 C1172 1.404 . S
C1173 H1185 0.930 . S
C1174 C1170 1.524 . S
C1174 H1186 0.956 . S
C1174 H1187 0.961 . S
C1174 H1188 0.961 . S
C1175 C1172 1.539 . S
C1175 H1189 0.958 . S
C1175 H1190 0.961 . S
C1175 H1191 0.960 . S
H1176 C1160 0.931 . S
H1177 C1165 0.929 . S
H1178 C1166 0.960 . S
H1179 C1166 0.962 . S
H1180 C1166 0.960 . S
H1181 C1167 0.961 . S
H1182 C1167 0.961 . S
H1183 C1167 0.961 . S
H1184 C1168 0.931 . S
H1185 C1173 0.930 . S
H1186 C1174 0.956 . S
H1187 C1174 0.961 . S
H1188 C1174 0.961 . S
H1189 C1175 0.958 . S
H1190 C1175 0.961 . S
H1191 C1175 0.960 . S
C425 C73 1.619 . S
C433 C162 1.646 . S
C465 C246 1.751 . S
C457 C84 1.729 . S
C497 C239 1.649 . S
C489 C51 1.607 . S
C521 C62 1.749 . S
C529 C155 1.762 . S
C561 C319 1.651 . S
C553 C29 1.595 . S
C593 C403 1.594 . S
C585 C38 1.431 . S
C617 C7 1.602 . S
C625 C396 1.649 . S
C649 C16 1.492 . S
C657 C312 1.593 . S
C689 C146 1.481 . S
C681 C18 1.653 . S
C721 C230 1.497 . S
C713 C5 1.440 . S
C753 C241 1.451 . S
C745 C40 1.648 . S
C785 C157 1.481 . S
C777 C27 1.391 . S
C817 C325 1.313 . S
C809 C60 1.328 . S
C841 C49 1.346 . S
C849 C409 1.368 . S
C881 C398 1.305 . S
C873 C82 1.361 . S
C905 C71 1.343 . S
C913 C314 1.326 . S
C945 C144 1.658 . S
C937 C8 1.645 . S
C977 C228 1.559 . S
C969 C19 1.563 . S
C1001 C30 1.617 . S
C1009 C235 1.634 . S
C1041 C151 1.534 . S
C1033 C41 1.544 . S
C1073 C323 1.425 . S
C1065 C52 1.416 . S
C1097 C63 1.552 . S
C1105 C407 1.549 . S
C1129 C74 1.405 . S
C1137 C414 1.379 . S
C1161 C85 1.535 . S
C1169 C330 1.503 . S
