# Generated by pormake.
# Topology zzz, (3,6)-cn, num edge types: 1
# Building blocks:
#     Node 0, Type 0, BuildingBlock: OLANEW_clean_sbu_2, # of connection points: 3
#     Node 1, Type 0, BuildingBlock: OLANEW_clean_sbu_2, # of connection points: 3
#     Node 2, Type 0, BuildingBlock: OLANEW_clean_sbu_2, # of connection points: 3
#     Node 3, Type 0, BuildingBlock: OLANEW_clean_sbu_2, # of connection points: 3
#     Node 4, Type 0, BuildingBlock: OLANEW_clean_sbu_2, # of connection points: 3
#     Node 5, Type 0, BuildingBlock: OLANEW_clean_sbu_2, # of connection points: 3
#     Node 6, Type 0, BuildingBlock: OLANEW_clean_sbu_2, # of connection points: 3
#     Node 7, Type 0, BuildingBlock: OLANEW_clean_sbu_2, # of connection points: 3
#     Node 8, Type 1, BuildingBlock: KUMJIN_clean_sbu_0, # of connection points: 6
#     Node 9, Type 1, BuildingBlock: KUMJIN_clean_sbu_0, # of connection points: 6
#     Node 10, Type 1, BuildingBlock: KUMJIN_clean_sbu_0, # of connection points: 6
#     Node 11, Type 1, BuildingBlock: KUMJIN_clean_sbu_0, # of connection points: 6
#     Edge 12, Type (0, 1), None
#     Edge 13, Type (0, 1), None
#     Edge 14, Type (0, 1), None
#     Edge 15, Type (0, 1), None
#     Edge 16, Type (0, 1), None
#     Edge 17, Type (0, 1), None
#     Edge 18, Type (0, 1), None
#     Edge 19, Type (0, 1), None
#     Edge 20, Type (0, 1), None
#     Edge 21, Type (0, 1), None
#     Edge 22, Type (0, 1), None
#     Edge 23, Type (0, 1), None
#     Edge 24, Type (0, 1), None
#     Edge 25, Type (0, 1), None
#     Edge 26, Type (0, 1), None
#     Edge 27, Type (0, 1), None
#     Edge 28, Type (0, 1), None
#     Edge 29, Type (0, 1), None
#     Edge 30, Type (0, 1), None
#     Edge 31, Type (0, 1), None
#     Edge 32, Type (0, 1), None
#     Edge 33, Type (0, 1), None
#     Edge 34, Type (0, 1), None
#     Edge 35, Type (0, 1), None
# Relax obj value: 0.283
# Max RMSD: 0.210
# Mean RMSD: 0.128
data_MOF--net-zzz--node1-OLANEW_clean_sbu_2--node2-KUMJIN_clean_sbu_0--edge1-none
_symmetry_space_group_name_H-M    P1
_symmetry_Int_Tables_number       1
_symmetry_cell_setting            triclinic
loop_
_symmetry_equiv_pos_as_xyz
'x, y, z'
_cell_length_a     27.72729
_cell_length_b     27.971184
_cell_length_c     8.3860398
_cell_angle_alpha  91.120092
_cell_angle_beta   91.481885
_cell_angle_gamma 90.522605
loop_
_atom_site_label
_atom_site_type_symbol
_atom_site_fract_x
_atom_site_fract_y
_atom_site_fract_z
_atom_type_partial_charge
O0 O 0.6743 0.53941 0.17044 0.0
Cd1 Cd 0.63984 0.46053 0.21149 0.0
O2 O 0.73635 0.58837 0.18717 0.0
Cd3 Cd 0.80825 0.58986 0.28999 0.0
O4 O 0.85054 0.54203 0.43669 0.0
C5 C 0.85995 0.55207 0.58215 0.0
O6 O 0.84491 0.59267 0.64325 0.0
C7 C 0.71945 0.54608 0.18335 0.0
C8 C 0.54429 0.4581 0.10414 0.0
O9 O 0.57569 0.48617 0.0494 0.0
O10 O 0.5564 0.43219 0.22057 0.0
O11 O 0.9746 0.71618 0.13574 0.0
Cd12 Cd 0.02856 0.66087 0.03064 0.0
O13 O 0.96741 0.77869 0.28697 0.0
Cd14 Cd -0.00593 0.82842 0.47032 0.0
O15 O 0.94013 0.83154 0.66969 0.0
C16 C 0.93899 0.86955 0.75459 0.0
O17 O 0.93818 0.82952 0.67215 0.0
C18 C -0.00906 0.75643 0.1827 0.0
C19 C -0.00291 0.5676 0.01971 0.0
O20 O 0.97714 0.59927 0.9332 0.0
O21 O 0.02943 0.58062 0.12339 0.0
O22 O 0.77009 0.05126 0.18805 0.0
Cd23 Cd 0.82119 -0.00409 0.31595 0.0
O24 O 0.72202 0.03097 0.37581 0.0
Cd25 Cd 0.66101 0.01904 0.52748 0.0
O26 O 0.65077 0.95915 0.70403 0.0
C27 C 0.60931 0.94477 0.74593 0.0
O28 O 0.65258 0.958 0.70735 0.0
C29 C 0.73039 0.05625 0.25531 0.0
C30 C 0.89932 -0.01109 0.12704 0.0
O31 O 0.88352 0.02907 0.17458 0.0
O32 O 0.87332 0.95175 0.14585 0.0
O33 O 0.49594 0.74343 0.17258 0.0
Cd34 Cd 0.52017 0.81978 0.26864 0.0
O35 O 0.50192 0.74069 0.43186 0.0
Cd36 Cd 0.49137 0.70527 0.65366 0.0
O37 O 0.48626 0.6343 0.7426 0.0
C38 C 0.52094 0.60525 0.7576 0.0
O39 O 0.56558 0.61955 0.73807 0.0
C40 C 0.4868 0.72227 0.29996 0.0
C41 C 0.48795 0.89005 0.07317 0.0
O42 O 0.45714 0.86459 0.14414 0.0
O43 O 0.53239 0.87847 0.08094 0.0
O44 O 0.25763 0.43215 0.49028 0.0
Cd45 Cd 0.32064 0.37658 0.51208 0.0
O46 O 0.21143 0.38037 0.36104 0.0
Cd47 Cd 0.15581 0.36539 0.18314 0.0
O48 O 0.09866 0.39693 0.04609 0.0
C49 C 0.10072 0.41087 0.90348 0.0
O50 O 0.13794 0.40062 0.81594 0.0
C51 C 0.21972 0.42303 0.40948 0.0
C52 C 0.39844 0.43831 0.46978 0.0
O53 O 0.36265 0.44909 0.55319 0.0
O54 O 0.39748 0.39757 0.39783 0.0
O55 O -0.02055 0.25342 0.4978 0.0
Cd56 Cd 0.04613 0.30106 0.58206 0.0
O57 O 0.03302 0.22362 0.34214 0.0
Cd58 Cd 0.06546 0.18367 0.14984 0.0
O59 O 0.03092 0.1351 0.98221 0.0
C60 C 0.05012 0.09888 0.9185 0.0
O61 O 0.09678 0.09246 0.92984 0.0
C62 C -0.01097 0.22643 0.38172 0.0
C63 C 0.00238 0.38616 0.52064 0.0
O64 O -0.00664 0.36145 0.64113 0.0
O65 O 0.03646 0.37237 0.43115 0.0
O66 O 0.20318 0.96896 0.29509 0.0
Cd67 Cd 0.13132 0.07261 0.20136 0.0
O68 O 0.27352 -0.00019 0.37536 0.0
Cd69 Cd 0.30995 0.02358 0.16374 0.0
O70 O 0.34217 -0.00099 0.94567 0.0
C71 C 0.37025 0.02215 0.85791 0.0
O72 O 0.37738 0.06818 0.88097 0.0
C73 C 0.2468 0.96332 0.3484 0.0
C74 C 0.08719 0.06164 0.29572 0.0
O75 O 0.07863 0.02059 0.39479 0.0
O76 O 0.06236 0.10085 0.25741 0.0
O77 O 0.42761 0.24847 0.26761 0.0
Cd78 Cd 0.42521 0.16727 0.13031 0.0
O79 O 0.43733 0.27236 0.02363 0.0
Cd80 Cd 0.39548 0.2309 0.84914 0.0
O81 O 0.43265 0.29754 0.77909 0.0
C82 C 0.4085 0.33579 0.79029 0.0
O83 O 0.36257 0.33263 0.82393 0.0
C84 C 0.44444 0.27895 0.17229 0.0
C85 C 0.40495 0.07835 0.2368 0.0
O86 O 0.44605 0.0629 0.31923 0.0
O87 O 0.3885 0.11562 0.17189 0.0
Eu88 Eu 0.04812 0.96043 0.88565 0.0
C89 C 0.86162 0.94453 0.59716 0.0
C90 C 0.87807 0.88435 0.39477 0.0
C91 C 0.80027 0.88478 0.51971 0.0
C92 C 0.89287 0.92473 0.48872 0.0
C93 C 0.81426 0.92583 0.60855 0.0
C94 C 0.83214 0.86408 0.41292 0.0
C95 C 0.79445 -0.00532 0.76959 0.0
N96 N 0.87586 -0.01561 0.68121 0.0
C97 C 0.8414 0.01206 0.75228 0.0
C98 C 0.78135 0.95048 0.70185 0.0
Eu99 Eu 0.95775 0.01061 0.64924 0.0
N100 N 0.93733 0.94512 0.47276 0.0
C101 C 0.96823 0.9265 0.36489 0.0
C102 C 0.90914 0.86671 0.28006 0.0
C103 C 0.95395 0.88858 0.26361 0.0
H104 H 0.85061 0.04719 0.80086 0.0
H105 H 0.9781 0.87594 0.17488 0.0
H106 H 0.82046 0.83317 0.34162 0.0
H107 H 0.76829 0.01564 0.83348 0.0
H108 H 0.00388 0.94054 0.35424 0.0
H109 H 0.00962 0.0978 0.55205 0.0
H110 H 0.89839 0.83718 0.20107 0.0
H111 H 0.14039 -0.02188 0.67703 0.0
H112 H -0.02116 0.04164 0.21563 0.0
H113 H 0.22175 0.01489 0.68524 0.0
H114 H 0.76424 0.86983 0.52834 0.0
H115 H 0.12131 0.09877 0.64416 0.0
H116 H 0.21303 0.08085 0.46632 0.0
H117 H 0.74506 0.93689 0.71476 0.0
H118 H 0.24547 0.07866 0.19998 0.0
N119 N 0.05709 -0.00255 0.16506 0.0
C120 C 0.0112 0.03183 0.27743 0.0
C121 C 0.10679 0.07303 0.55782 0.0
C122 C 0.15356 0.0317 0.41755 0.0
C123 C 0.03263 0.07356 0.49038 0.0
C124 C 0.12191 -0.00667 0.21086 0.0
H125 H 0.25388 0.05209 0.93191 0.0
N126 N 0.12855 -0.00959 0.92106 0.0
C127 C 0.20116 0.01295 0.79268 0.0
C128 C 0.15002 -0.00054 0.06949 0.0
C129 C 0.15513 -0.00739 0.78786 0.0
C130 C 0.21982 0.03286 0.93445 0.0
C131 C 0.19507 0.02828 0.0771 0.0
O132 O 0.09196 0.89699 0.82162 0.0
O133 O 0.97401 0.94614 0.79122 0.0
O134 O 0.92594 0.01046 0.88555 0.0
O135 O -0.0206 0.96569 0.03926 0.0
O136 O 0.02233 0.89154 0.7611 0.0
O137 O 0.07331 0.91273 0.0671 0.0
O138 O 0.92752 0.0834 0.62624 0.0
O139 O 0.03082 0.02706 0.76505 0.0
O140 O 0.0428 -0.0121 0.59741 0.0
O141 O 0.03925 -0.01038 0.58628 0.0
O142 O 0.97312 0.07266 0.81656 0.0
O143 O 0.93026 0.03655 0.42448 0.0
C144 C 0.97812 0.90407 0.74194 0.0
C145 C 0.08987 0.83258 0.01373 0.0
C146 C 0.03941 0.77248 0.13886 0.0
C147 C 0.04417 0.81332 0.04511 0.0
C148 C 0.08075 0.74801 0.18901 0.0
C149 C 0.13102 0.80769 0.06516 0.0
C150 C 0.1264 0.7653 0.15022 0.0
C151 C 0.93775 -0.01113 0.01614 0.0
C152 C 0.09502 0.88345 0.9706 0.0
C153 C 0.21461 0.05547 0.21724 0.0
C154 C 0.19697 0.05596 0.37952 0.0
C155 C 0.01824 0.06392 0.84162 0.0
C156 C 0.9124 0.11993 0.37346 0.0
C157 C 0.9532 0.14727 0.33816 0.0
C158 C 0.94975 0.196 0.31343 0.0
C159 C 0.90408 0.21553 0.2824 0.0
C160 C 0.86673 0.13942 0.34098 0.0
C161 C 0.86278 0.18649 0.28809 0.0
C162 C 0.07098 -0.00168 0.45709 0.0
C163 C 0.91565 0.07746 0.47682 0.0
H164 H 0.01228 0.8311 1.00098 0.0
H165 H 0.07772 0.71616 0.25974 0.0
H166 H 0.16673 0.82226 0.04653 0.0
H167 H 0.15835 0.74672 0.19101 0.0
H168 H -0.01169 0.13375 0.34895 0.0
H169 H 0.90023 0.25355 0.26373 0.0
H170 H 0.83421 0.11926 0.36451 0.0
H171 H 0.82752 0.20172 0.26638 0.0
Eu172 Eu 0.50251 0.03309 0.8204 0.0
C173 C 0.55122 0.86028 0.58358 0.0
C174 C 0.60806 0.88547 0.38757 0.0
C175 C 0.62609 0.81646 0.54769 0.0
C176 C 0.56347 0.89102 0.4643 0.0
C177 C 0.58196 0.82188 0.62364 0.0
C178 C 0.6392 0.84834 0.43017 0.0
C179 C 0.5214 0.7938 0.79937 0.0
N180 N 0.50886 0.86712 0.65794 0.0
C181 C 0.49203 0.83172 0.7538 0.0
C182 C 0.56706 0.78935 0.73667 0.0
Eu183 Eu 0.46329 0.93754 0.59008 0.0
N184 N 0.53281 0.92728 0.42697 0.0
C185 C 0.54499 0.95835 0.31144 0.0
C186 C 0.6203 0.91756 0.27047 0.0
C187 C 0.58831 0.95352 0.23112 0.0
H188 H 0.45578 0.83225 0.79772 0.0
H189 H 0.59603 -0.02436 0.13266 0.0
H190 H 0.67342 0.84383 0.37226 0.0
H191 H 0.50823 0.7673 0.87996 0.0
H192 H 0.52072 -0.01447 0.27495 0.0
H193 H 0.3598 0.00509 0.47765 0.0
H194 H 0.65368 0.91418 0.20685 0.0
H195 H 0.50123 0.13641 0.64369 0.0
H196 H 0.4067 0.9677 0.13941 0.0
H197 H 0.53536 0.21644 0.71529 0.0
H198 H 0.65012 0.78747 0.57794 0.0
H199 H 0.3945 0.1132 0.60941 0.0
H200 H 0.48156 0.19893 0.48365 0.0
H201 H 0.58954 0.75954 0.77075 0.0
H202 H 0.53589 0.22541 0.27986 0.0
N203 N 0.45988 0.04124 0.08625 0.0
C204 C 0.41894 0.00061 0.19633 0.0
C205 C 0.4078 0.09756 0.50045 0.0
C206 C 0.45855 0.13508 0.35611 0.0
C207 C 0.38676 0.02545 0.41808 0.0
C208 C 0.48026 0.10104 0.14491 0.0
H209 H 0.5543 0.23579 0.99603 0.0
N210 N 0.49252 0.11636 0.87883 0.0
C211 C 0.52323 0.19282 0.80705 0.0
C212 C 0.4992 0.12942 0.03646 0.0
C213 C 0.50166 0.14876 0.76521 0.0
C214 C 0.53339 0.20424 0.96772 0.0
C215 C 0.51684 0.17494 0.08862 0.0
O216 O 0.56554 0.07945 0.7794 0.0
O217 O 0.5258 0.96018 0.74894 0.0
O218 O 0.44907 0.91467 0.83993 0.0
O219 O 0.49869 0.96847 0.98041 0.0
O220 O 0.56923 0.01728 0.68221 0.0
O221 O 0.55846 0.03992 1.00394 0.0
O222 O 0.41922 0.87246 0.54759 0.0
O223 O 0.43842 0.00848 0.68824 0.0
O224 O 0.47569 0.02458 0.52949 0.0
O225 O 0.47423 0.02066 0.51833 0.0
O226 O 0.39425 0.94933 0.72478 0.0
O227 O 0.42376 0.92409 0.36711 0.0
C228 C 0.56658 0.97171 0.69925 0.0
C229 C 0.6284 0.09157 0.98554 0.0
C230 C 0.69453 0.08642 0.17902 0.0
C231 C 0.65728 0.06469 0.08861 0.0
C232 C 0.70359 0.13554 0.16533 0.0
C233 C 0.63872 0.14035 0.96781 0.0
C234 C 0.67568 0.16242 0.05969 0.0
C235 C 0.47344 0.92806 0.96917 0.0
C236 C 0.58262 0.07135 0.92366 0.0
C237 C 0.51596 0.19276 0.25252 0.0
C238 C 0.48507 0.17711 0.37705 0.0
C239 C 0.40011 -0.00536 0.75088 0.0
C240 C 0.34987 0.87868 0.38155 0.0
C241 C 0.32183 0.91721 0.33479 0.0
C242 C 0.27136 0.91658 0.34683 0.0
C243 C 0.24803 0.87336 0.37952 0.0
C244 C 0.32632 0.83545 0.41552 0.0
C245 C 0.27565 0.83253 0.40985 0.0
C246 C 0.46894 0.04936 0.38017 0.0
C247 C 0.40276 0.88484 0.40933 0.0
H248 H 0.65224 0.02655 0.09423 0.0
H249 H 0.73331 0.15257 0.23171 0.0
H250 H 0.61736 0.16166 0.88712 0.0
H251 H 0.68291 0.20027 0.04816 0.0
H252 H 0.33958 0.9491 0.29711 0.0
H253 H 0.20913 0.8716 0.3878 0.0
H254 H 0.34696 0.8044 0.44946 0.0
H255 H 0.25783 0.79916 0.43689 0.0
Eu256 Eu 0.52788 0.4466 0.66703 0.0
C257 C 0.30479 0.4761 0.88705 0.0
C258 C 0.26361 0.53052 0.71072 0.0
C259 C 0.21728 0.47821 0.87561 0.0
C260 C 0.30661 0.51154 0.77628 0.0
C261 C 0.2601 0.45732 0.93223 0.0
C262 C 0.2189 0.51453 0.76394 0.0
C263 C 0.30326 0.40292 0.10301 0.0
N264 N 0.3468 0.45955 0.94958 0.0
C265 C 0.34654 0.4249 0.06194 0.0
C266 C 0.25987 0.41881 0.03563 0.0
Eu267 Eu 0.41922 0.49653 0.86943 0.0
N268 N 0.35049 0.52661 0.72948 0.0
C269 C 0.35391 0.55966 0.61253 0.0
C270 C 0.26685 0.56501 0.59398 0.0
C271 C 0.3121 0.57911 0.54358 0.0
H272 H 0.38028 0.4124 0.11159 0.0
H273 H 0.31418 0.60526 0.45266 0.0
H274 H 0.18554 0.52981 0.71918 0.0
H275 H 0.30341 0.37387 0.18631 0.0
H276 H 0.38879 0.57158 0.57376 0.0
H277 H 0.67878 0.37565 1.0087 0.0
H278 H 0.23473 0.58055 0.54075 0.0
H279 H 0.52557 0.53252 0.39087 0.0
H280 H 0.59341 0.38198 0.9117 0.0
H281 H 0.57853 0.59888 0.30713 0.0
H282 H 0.18296 0.46792 0.9221 0.0
H283 H 0.73869 0.43587 0.92705 0.0
H284 H 0.75667 0.51096 0.77556 0.0
H285 H 0.22628 0.40189 0.06589 0.0
H286 H 0.7285 0.57327 0.59269 0.0
N287 N 0.60563 0.44464 0.78503 0.0
C288 C 0.61972 0.40817 0.87959 0.0
C289 C 0.70149 0.43882 0.88663 0.0
C290 C 0.68695 0.47553 0.78522 0.0
C291 C 0.66779 0.40462 0.93258 0.0
C292 C 0.63849 0.47618 0.73008 0.0
H293 H 0.66116 0.60773 0.42381 0.0
N294 N 0.5781 0.50455 0.55123 0.0
C295 C 0.59175 0.57335 0.39276 0.0
C296 C 0.62395 0.5081 0.61385 0.0
C297 C 0.56207 0.53555 0.43873 0.0
C298 C 0.63838 0.57835 0.45948 0.0
C299 C 0.65566 0.54452 0.56709 0.0
O300 O 0.57599 0.40915 0.51257 0.0
O301 O 0.45588 0.47882 0.63766 0.0
O302 O 0.40238 0.41972 0.80773 0.0
O303 O 0.47956 0.38757 0.77368 0.0
O304 O 0.48277 0.44759 0.43618 0.0
O305 O 0.53265 0.36819 0.67404 0.0
O306 O 0.42721 0.52936 0.10933 0.0
O307 O 0.49008 0.46225 0.88498 0.0
O308 O 0.54136 0.5212 0.77708 0.0
O309 O 0.46413 0.54264 0.71552 0.0
O310 O 0.45795 0.46969 0.09857 0.0
O311 O 0.41316 0.57397 0.90257 0.0
C312 C 0.444 0.46354 0.49975 0.0
C313 C 0.54828 0.3362 0.41486 0.0
C314 C 0.48782 0.30817 0.21832 0.0
C315 C 0.5003 0.32148 0.37701 0.0
C316 C 0.52266 0.31451 0.10057 0.0
C317 C 0.58401 0.33096 0.30112 0.0
C318 C 0.571 0.3209 0.144 0.0
C319 C 0.43166 0.38335 0.786 0.0
C320 C 0.5612 0.3668 0.55267 0.0
C321 C 0.70332 0.54597 0.62922 0.0
C322 C 0.71931 0.5107 0.73437 0.0
C323 C 0.49674 0.45599 0.0298 0.0
C324 C 0.41669 0.61379 0.15843 0.0
C325 C 0.45634 0.64331 0.20031 0.0
C326 C 0.45 0.68462 0.29399 0.0
C327 C 0.40395 0.69598 0.34754 0.0
C328 C 0.37043 0.62662 0.20528 0.0
C329 C 0.36423 0.66777 0.2999 0.0
C330 C 0.50834 0.55461 0.76147 0.0
C331 C 0.42432 0.57239 0.05383 0.0
H332 H 0.47318 0.32134 0.46764 0.0
H333 H 0.5142 0.30792 0.9753 0.0
H334 H 0.62145 0.33958 0.33046 0.0
H335 H 0.59855 0.3178 0.05574 0.0
H336 H 0.49165 0.63535 0.15416 0.0
H337 H 0.39818 0.72865 0.41572 0.0
H338 H 0.33929 0.60518 0.16762 0.0
H339 H 0.32846 0.67844 0.33397 0.0
Eu340 Eu 0.01478 0.52224 0.61325 0.0
C341 C 0.94364 0.32127 0.88866 0.0
C342 C 0.8871 0.28559 0.69726 0.0
C343 C 0.93981 0.23461 0.8516 0.0
C344 C 0.90917 0.32647 0.77076 0.0
C345 C 0.9604 0.27545 0.92686 0.0
C346 C 0.90226 0.23965 0.7393 0.0
C347 C 0.01424 0.31264 0.1226 0.0
N348 N 0.96235 0.36122 0.96173 0.0
C349 C -0.00651 0.35684 0.0896 0.0
C350 C -0.00182 0.27208 0.0373 0.0
Eu351 Eu 0.93858 0.43755 0.86201 0.0
N352 N 0.89794 0.37149 0.72567 0.0
C353 C 0.86161 0.37777 0.61515 0.0
C354 C 0.85056 0.29205 0.58343 0.0
C355 C 0.83732 0.33818 0.54399 0.0
H356 H 0.00599 0.3886 0.15398 0.0
H357 H 0.80813 0.34256 0.45856 0.0
H358 H 0.88609 0.20798 0.68281 0.0
H359 H 0.04306 0.30987 0.21106 0.0
H360 H 0.85038 0.41314 0.58339 0.0
H361 H 0.15068 0.62832 0.95406 0.0
H362 H 0.832 0.26175 0.52654 0.0
H363 H 0.93737 0.55867 0.32529 0.0
H364 H 0.10623 0.55413 0.8748 0.0
H365 H 0.89546 0.63384 0.25465 0.0
H366 H 0.95231 0.19912 0.88054 0.0
H367 H 0.12104 0.70662 0.86326 0.0
H368 H 0.05411 0.75341 0.7342 0.0
H369 H 0.01427 0.23803 0.05746 0.0
H370 H -0.02103 0.7534 0.57276 0.0
N371 N 0.0533 0.59013 0.73465 0.0
C372 C 0.09299 0.58821 0.83486 0.0
C373 C 0.10185 0.67421 0.82642 0.0
C374 C 0.05947 0.67613 0.73231 0.0
C375 C 0.11844 0.63007 0.87898 0.0
C376 C 0.0367 0.63284 0.68228 0.0
H377 H 0.91753 0.70917 0.39894 0.0
N378 N -0.02085 0.5918 0.51311 0.0
C379 C 0.92361 0.63414 0.34648 0.0
C380 C -0.00306 0.63357 0.57702 0.0
C381 C 0.9472 0.59193 0.38614 0.0
C382 C 0.9365 0.67666 0.42746 0.0
C383 C 0.97599 0.67727 0.53523 0.0
O384 O 0.03734 0.51659 0.36419 0.0
O385 O 0.96891 0.45683 0.62822 0.0
O386 O 0.01715 0.41679 0.8754 0.0
O387 O 0.06563 0.47659 0.76376 0.0
O388 O 0.00496 0.46398 0.42194 0.0
O389 O 0.08773 0.53963 0.55665 0.0
O390 O 0.90588 0.435 0.09717 0.0
O391 O -0.01178 0.49955 0.84585 0.0
O392 O 0.94118 0.55208 0.66599 0.0
O393 O 0.89837 0.48068 0.67267 0.0
O394 O 0.96155 0.4898 0.06775 0.0
O395 O 0.86392 0.46077 0.89073 0.0
C396 C -0.01726 0.43391 0.50813 0.0
C397 C 0.12285 0.51363 0.32328 0.0
C398 C 0.19356 0.46372 0.34327 0.0
C399 C 0.14457 0.47089 0.37161 0.0
C400 C 0.22017 0.49935 0.2673 0.0
C401 C 0.14885 0.54677 0.23541 0.0
C402 C 0.19749 0.53969 0.20803 0.0
C403 C 0.05919 0.43539 0.83723 0.0
C404 C 0.08093 0.53202 0.40386 0.0
C405 C -0.00431 0.72 0.59897 0.0
C406 C 0.03832 0.71976 0.69192 0.0
C407 C -0.01263 0.5175 0.98295 0.0
C408 C 0.82358 0.46039 0.14474 0.0
C409 C 0.79383 0.50025 0.12303 0.0
C410 C 0.75171 0.50549 0.2118 0.0
C411 C 0.73993 0.47083 0.32286 0.0
C412 C 0.81146 0.42645 0.25754 0.0
C413 C 0.76981 0.4318 0.34646 0.0
C414 C 0.90024 0.52775 0.65841 0.0
C415 C 0.86516 0.45208 0.04266 0.0
H416 H 0.12501 0.44598 0.44415 0.0
H417 H 0.25877 0.49602 0.25397 0.0
H418 H 0.1327 0.58029 0.2011 0.0
H419 H 0.21817 0.56655 0.14759 0.0
H420 H 0.8028 0.52653 0.03494 0.0
H421 H 0.70773 0.47385 0.39192 0.0
H422 H 0.83374 0.39528 0.27252 0.0
H423 H 0.75988 0.40556 0.43276 0.0
loop_
_geom_bond_atom_site_label_1
_geom_bond_atom_site_label_2
_geom_bond_distance
_geom_bond_site_symmetry_2
_ccdc_geom_bond_type
O0 Cd1 2.300 . S
O0 C7 1.275 . S
Cd1 O0 2.300 . S
Cd1 O9 2.381 . S
Cd1 O10 2.378 . S
O2 Cd3 2.385 . S
O2 C7 1.255 . S
Cd3 O2 2.385 . S
Cd3 O4 2.317 . S
O4 Cd3 2.317 . S
O4 C5 1.232 . S
C5 O4 1.232 . S
C5 O6 1.218 . S
O6 C5 1.218 . S
C7 O0 1.275 . S
C7 O2 1.255 . S
C8 O9 1.258 . S
C8 O10 1.256 . S
O9 Cd1 2.381 . S
O9 C8 1.258 . S
O10 Cd1 2.378 . S
O10 C8 1.256 . S
O11 Cd12 2.300 . S
O11 C18 1.275 . S
Cd12 O11 2.300 . S
Cd12 O20 2.381 . S
Cd12 O21 2.378 1_655 S
O13 Cd14 2.385 . S
O13 C18 1.255 1_455 S
Cd14 O13 2.385 . S
Cd14 O15 2.317 . S
O15 Cd14 2.317 . S
O15 C16 1.232 1_455 S
C16 O15 1.232 1_655 S
C16 O17 1.218 1_655 S
O17 C16 1.218 1_455 S
C18 O11 1.275 . S
C18 O13 1.255 1_655 S
C19 O20 1.258 . S
C19 O21 1.256 1_655 S
O20 Cd12 2.381 . S
O20 C19 1.258 . S
O21 Cd12 2.378 1_455 S
O21 C19 1.256 1_455 S
O22 Cd23 2.300 1_565 S
O22 C29 1.275 . S
Cd23 O22 2.300 1_545 S
Cd23 O31 2.381 1_545 S
Cd23 O32 2.378 . S
O24 Cd25 2.385 . S
O24 C29 1.255 1_545 S
Cd25 O24 2.385 . S
Cd25 O26 2.317 . S
O26 Cd25 2.317 . S
O26 C27 1.232 1_545 S
C27 O26 1.232 1_565 S
C27 O28 1.218 1_565 S
O28 C27 1.218 1_545 S
C29 O22 1.275 . S
C29 O24 1.255 1_565 S
C30 O31 1.258 . S
C30 O32 1.256 1_565 S
O31 Cd23 2.381 1_565 S
O31 C30 1.258 . S
O32 Cd23 2.378 . S
O32 C30 1.256 1_545 S
O33 Cd34 2.300 . S
O33 C40 1.275 . S
Cd34 O33 2.300 . S
Cd34 O42 2.381 . S
Cd34 O43 2.378 . S
O35 Cd36 2.385 . S
O35 C40 1.255 . S
Cd36 O35 2.385 . S
Cd36 O37 2.317 . S
O37 Cd36 2.317 . S
O37 C38 1.232 . S
C38 O37 1.232 . S
C38 O39 1.218 . S
O39 C38 1.218 . S
C40 O33 1.275 . S
C40 O35 1.255 . S
C41 O42 1.258 . S
C41 O43 1.256 . S
O42 Cd34 2.381 . S
O42 C41 1.258 . S
O43 Cd34 2.378 . S
O43 C41 1.256 . S
O44 Cd45 2.300 . S
O44 C51 1.275 . S
Cd45 O44 2.300 . S
Cd45 O53 2.381 . S
Cd45 O54 2.378 . S
O46 Cd47 2.385 1_554 S
O46 C51 1.255 . S
Cd47 O46 2.385 1_556 S
Cd47 O48 2.317 . S
O48 Cd47 2.317 . S
O48 C49 1.232 . S
C49 O48 1.232 . S
C49 O50 1.218 . S
O50 C49 1.218 . S
C51 O44 1.275 . S
C51 O46 1.255 . S
C52 O53 1.258 . S
C52 O54 1.256 . S
O53 Cd45 2.381 . S
O53 C52 1.258 . S
O54 Cd45 2.378 . S
O54 C52 1.256 . S
O55 Cd56 2.300 . S
O55 C62 1.275 . S
Cd56 O55 2.300 . S
Cd56 O64 2.381 . S
Cd56 O65 2.378 . S
O57 Cd58 2.385 1_554 S
O57 C62 1.255 . S
Cd58 O57 2.385 1_556 S
Cd58 O59 2.317 . S
O59 Cd58 2.317 . S
O59 C60 1.232 . S
C60 O59 1.232 . S
C60 O61 1.218 . S
O61 C60 1.218 . S
C62 O55 1.275 . S
C62 O57 1.255 . S
C63 O64 1.258 . S
C63 O65 1.256 . S
O64 Cd56 2.381 . S
O64 C63 1.258 . S
O65 Cd56 2.378 . S
O65 C63 1.256 . S
O66 Cd67 2.300 . S
O66 C73 1.275 . S
Cd67 O66 2.300 . S
Cd67 O75 2.381 . S
Cd67 O76 2.378 . S
O68 Cd69 2.385 1_554 S
O68 C73 1.255 . S
Cd69 O68 2.385 1_556 S
Cd69 O70 2.317 . S
O70 Cd69 2.317 . S
O70 C71 1.232 . S
C71 O70 1.232 . S
C71 O72 1.218 . S
O72 C71 1.218 . S
C73 O66 1.275 . S
C73 O68 1.255 . S
C74 O75 1.258 . S
C74 O76 1.256 . S
O75 Cd67 2.381 . S
O75 C74 1.258 . S
O76 Cd67 2.378 . S
O76 C74 1.256 . S
O77 Cd78 2.300 . S
O77 C84 1.275 . S
Cd78 O77 2.300 . S
Cd78 O86 2.381 . S
Cd78 O87 2.378 . S
O79 Cd80 2.385 1_554 S
O79 C84 1.255 . S
Cd80 O79 2.385 1_556 S
Cd80 O81 2.317 . S
O81 Cd80 2.317 . S
O81 C82 1.232 . S
C82 O81 1.232 . S
C82 O83 1.218 . S
O83 C82 1.218 . S
C84 O77 1.275 . S
C84 O79 1.255 . S
C85 O86 1.258 . S
C85 O87 1.256 . S
O86 Cd78 2.381 . S
O86 C85 1.258 . S
O87 Cd78 2.378 . S
O87 C85 1.256 . S
Eu88 N119 2.657 1_566 S
Eu88 N126 2.609 1_565 S
Eu88 O132 2.558 . S
Eu88 O133 2.612 1_455 S
Eu88 O135 2.339 1_455 S
Eu88 O136 2.563 . S
Eu88 O137 2.419 1_556 S
Eu88 O139 2.380 1_565 S
Eu88 O140 2.432 . S
Eu88 C152 2.848 1_556 S
C89 C92 1.429 . S
C89 C93 1.411 . S
C89 N96 1.377 1_565 S
C90 C92 1.420 . S
C90 C94 1.423 . S
C90 C102 1.392 . S
C91 C93 1.420 . S
C91 C94 1.351 . S
C91 H114 0.931 . S
C92 C89 1.429 . S
C92 C90 1.420 . S
C92 N100 1.362 . S
C93 C89 1.411 . S
C93 C91 1.420 . S
C93 C98 1.395 . S
C94 C90 1.423 . S
C94 C91 1.351 . S
C94 H106 0.930 . S
C95 C97 1.400 . S
C95 C98 1.386 1_545 S
C95 H107 0.930 . S
N96 C89 1.377 1_545 S
N96 C97 1.321 . S
N96 Eu99 2.609 . S
C97 C95 1.400 . S
C97 N96 1.321 . S
C97 H104 0.930 . S
C98 C93 1.395 . S
C98 C95 1.386 1_565 S
C98 H117 0.930 . S
Eu99 N96 2.609 . S
Eu99 N100 2.657 1_545 S
Eu99 O133 2.380 1_545 S
Eu99 O134 2.432 . S
Eu99 O138 2.558 . S
Eu99 O139 2.612 1_655 S
Eu99 O141 2.339 1_655 S
Eu99 O142 2.563 . S
Eu99 O143 2.419 . S
Eu99 C163 2.848 . S
N100 C92 1.362 . S
N100 Eu99 2.657 1_565 S
N100 C101 1.334 . S
C101 N100 1.334 . S
C101 C103 1.413 . S
C101 H108 0.929 1_655 S
C102 C90 1.392 . S
C102 C103 1.367 . S
C102 H110 0.930 . S
C103 C101 1.413 . S
C103 C102 1.367 . S
C103 H105 0.930 1_655 S
H104 C97 0.930 . S
H105 C103 0.930 1_455 S
H106 C94 0.930 . S
H107 C95 0.930 . S
H108 C101 0.929 1_455 S
H109 C123 0.930 1_655 S
H110 C102 0.930 . S
H111 C129 0.930 . S
H112 C120 0.929 1_655 S
H113 C127 0.930 . S
H114 C91 0.931 . S
H115 C121 0.930 . S
H116 C154 0.930 . S
H117 C98 0.930 . S
H118 C153 0.931 . S
N119 Eu88 2.657 1_544 S
N119 C120 1.334 . S
N119 C124 1.362 . S
C120 H112 0.929 1_455 S
C120 N119 1.334 . S
C120 C123 1.413 . S
C121 H115 0.930 . S
C121 C122 1.392 . S
C121 C123 1.367 . S
C122 C121 1.392 . S
C122 C124 1.420 . S
C122 C154 1.423 . S
C123 H109 0.930 1_455 S
C123 C120 1.413 . S
C123 C121 1.367 . S
C124 N119 1.362 . S
C124 C122 1.420 . S
C124 C128 1.429 . S
H125 C130 0.930 . S
N126 Eu88 2.609 1_545 S
N126 C128 1.377 1_556 S
N126 C129 1.321 1_545 S
C127 H113 0.930 . S
C127 C129 1.400 . S
C127 C130 1.386 1_566 S
C128 C124 1.429 . S
C128 N126 1.377 1_554 S
C128 C131 1.411 . S
C129 H111 0.930 . S
C129 N126 1.321 1_565 S
C129 C127 1.400 . S
C130 H125 0.930 . S
C130 C127 1.386 1_544 S
C130 C131 1.395 . S
C131 C128 1.411 . S
C131 C130 1.395 . S
C131 C153 1.420 . S
O132 Eu88 2.558 . S
O132 C152 1.257 1_556 S
O133 Eu88 2.612 1_655 S
O133 Eu99 2.380 1_565 S
O133 C144 1.276 . S
O134 Eu99 2.432 . S
O134 C151 1.264 . S
O135 Eu88 2.339 1_655 S
O135 C151 1.254 1_565 S
O136 Eu88 2.563 . S
O136 C144 1.235 1_455 S
O137 Eu88 2.419 1_554 S
O137 C152 1.249 . S
O138 Eu99 2.558 . S
O138 C163 1.257 . S
O139 Eu88 2.380 1_545 S
O139 Eu99 2.612 1_455 S
O139 C155 1.276 . S
O140 Eu88 2.432 . S
O140 C162 1.264 1_565 S
O141 Eu99 2.339 1_455 S
O141 C162 1.254 . S
O142 Eu99 2.563 . S
O142 C155 1.235 1_655 S
O143 Eu99 2.419 . S
O143 C163 1.249 . S
C144 O133 1.276 . S
C144 O136 1.235 1_655 S
C145 C147 1.393 . S
C145 C149 1.395 . S
C145 C152 1.492 . S
C146 C147 1.392 . S
C146 C148 1.386 . S
C147 C145 1.393 . S
C147 C146 1.392 . S
C147 H164 0.930 . S
C148 C146 1.386 . S
C148 C150 1.395 . S
C148 H165 0.930 . S
C149 C145 1.395 . S
C149 C150 1.379 . S
C149 H166 0.930 . S
C150 C148 1.395 . S
C150 C149 1.379 . S
C150 H167 0.930 . S
C151 O134 1.264 . S
C151 O135 1.254 1_545 S
C152 Eu88 2.848 1_554 S
C152 O132 1.257 1_554 S
C152 O137 1.249 . S
C152 C145 1.492 . S
C153 H118 0.931 . S
C153 C131 1.420 . S
C153 C154 1.351 . S
C154 H116 0.930 . S
C154 C122 1.423 . S
C154 C153 1.351 . S
C155 O139 1.276 . S
C155 O142 1.235 1_455 S
C156 C157 1.393 . S
C156 C160 1.395 . S
C156 C163 1.492 . S
C157 C156 1.393 . S
C157 C158 1.392 . S
C157 H168 0.930 . S
C158 C157 1.392 . S
C158 C159 1.386 . S
C159 C158 1.386 . S
C159 C161 1.395 . S
C159 H169 0.930 . S
C160 C156 1.395 . S
C160 C161 1.379 . S
C160 H170 0.930 . S
C161 C159 1.395 . S
C161 C160 1.379 . S
C161 H171 0.930 . S
C162 O140 1.264 1_545 S
C162 O141 1.254 . S
C163 Eu99 2.848 . S
C163 O138 1.257 . S
C163 O143 1.249 . S
C163 C156 1.492 . S
H164 C147 0.930 . S
H165 C148 0.930 . S
H166 C149 0.930 . S
H167 C150 0.930 . S
H168 C157 0.930 . S
H169 C159 0.930 . S
H170 C160 0.930 . S
H171 C161 0.930 . S
Eu172 N203 2.657 1_556 S
Eu172 N210 2.607 1_556 S
Eu172 O216 2.558 . S
Eu172 O217 2.612 1_545 S
Eu172 O219 2.339 1_545 S
Eu172 O220 2.563 . S
Eu172 O221 2.419 1_556 S
Eu172 O223 2.380 . S
Eu172 O224 2.432 . S
Eu172 C236 2.848 1_556 S
C173 C176 1.429 . S
C173 C177 1.411 . S
C173 N180 1.377 . S
C174 C176 1.420 . S
C174 C178 1.423 . S
C174 C186 1.392 . S
C175 C177 1.420 . S
C175 C178 1.351 . S
C175 H198 0.931 . S
C176 C173 1.429 . S
C176 C174 1.420 . S
C176 N184 1.362 . S
C177 C173 1.411 . S
C177 C175 1.420 . S
C177 C182 1.395 . S
C178 C174 1.423 . S
C178 C175 1.351 . S
C178 H190 0.930 . S
C179 C181 1.400 . S
C179 C182 1.386 . S
C179 H191 0.930 . S
N180 C173 1.377 . S
N180 C181 1.321 . S
N180 Eu183 2.609 . S
C181 C179 1.400 . S
C181 N180 1.321 . S
C181 H188 0.930 . S
C182 C177 1.395 . S
C182 C179 1.386 . S
C182 H201 0.930 . S
Eu183 N180 2.609 . S
Eu183 N184 2.657 . S
Eu183 O217 2.380 . S
Eu183 O218 2.432 . S
Eu183 O222 2.558 . S
Eu183 O223 2.612 1_565 S
Eu183 O225 2.339 1_565 S
Eu183 O226 2.563 . S
Eu183 O227 2.419 . S
Eu183 C247 2.848 . S
N184 C176 1.362 . S
N184 Eu183 2.657 . S
N184 C185 1.351 . S
C185 N184 1.351 . S
C185 C187 1.415 . S
C185 H192 0.910 1_565 S
C186 C174 1.392 . S
C186 C187 1.367 . S
C186 H194 0.930 . S
C187 C185 1.415 . S
C187 C186 1.367 . S
C187 H189 0.930 1_565 S
H188 C181 0.930 . S
H189 C187 0.930 1_545 S
H190 C178 0.930 . S
H191 C179 0.930 . S
H192 C185 0.910 1_545 S
H193 C207 0.930 1_565 S
H194 C186 0.930 . S
H195 C213 0.930 . S
H196 C204 0.929 1_565 S
H197 C211 0.930 . S
H198 C175 0.931 . S
H199 C205 0.930 . S
H200 C238 0.930 . S
H201 C182 0.930 . S
H202 C237 0.931 . S
N203 Eu172 2.657 1_554 S
N203 C204 1.334 . S
N203 C208 1.362 . S
C204 H196 0.929 1_545 S
C204 N203 1.334 . S
C204 C207 1.413 . S
C205 H199 0.930 . S
C205 C206 1.392 . S
C205 C207 1.367 . S
C206 C205 1.392 . S
C206 C208 1.420 . S
C206 C238 1.423 . S
C207 H193 0.930 1_545 S
C207 C204 1.413 . S
C207 C205 1.367 . S
C208 N203 1.362 . S
C208 C206 1.420 . S
C208 C212 1.429 . S
H209 C214 0.930 . S
N210 Eu172 2.607 1_554 S
N210 C212 1.382 . S
N210 C213 1.318 1_554 S
C211 H197 0.930 . S
C211 C213 1.400 . S
C211 C214 1.386 1_556 S
C212 C208 1.429 . S
C212 N210 1.382 . S
C212 C215 1.411 . S
C213 H195 0.930 . S
C213 N210 1.318 1_556 S
C213 C211 1.400 . S
C214 H209 0.930 . S
C214 C211 1.386 1_554 S
C214 C215 1.395 . S
C215 C212 1.411 . S
C215 C214 1.395 . S
C215 C237 1.420 . S
O216 Eu172 2.558 . S
O216 C236 1.257 1_556 S
O217 Eu172 2.612 1_565 S
O217 Eu183 2.380 . S
O217 C228 1.276 . S
O218 Eu183 2.432 . S
O218 C235 1.264 . S
O219 Eu172 2.339 1_565 S
O219 C235 1.254 . S
O220 Eu172 2.563 . S
O220 C228 1.235 1_545 S
O221 Eu172 2.419 1_554 S
O221 C236 1.249 . S
O222 Eu183 2.558 . S
O222 C247 1.257 . S
O223 Eu172 2.380 . S
O223 Eu183 2.612 1_545 S
O223 C239 1.276 . S
O224 Eu172 2.432 . S
O224 C246 1.264 . S
O225 Eu183 2.339 1_545 S
O225 C246 1.254 . S
O226 Eu183 2.563 . S
O226 C239 1.235 1_565 S
O227 Eu183 2.419 . S
O227 C247 1.249 . S
C228 O217 1.276 . S
C228 O220 1.235 1_565 S
C229 C231 1.393 . S
C229 C233 1.395 . S
C229 C236 1.492 . S
C230 C231 1.392 . S
C230 C232 1.386 . S
C231 C229 1.393 . S
C231 C230 1.392 . S
C231 H248 0.930 . S
C232 C230 1.386 . S
C232 C234 1.395 . S
C232 H249 0.930 . S
C233 C229 1.395 . S
C233 C234 1.379 . S
C233 H250 0.930 . S
C234 C232 1.395 . S
C234 C233 1.379 . S
C234 H251 0.930 . S
C235 O218 1.264 . S
C235 O219 1.254 . S
C236 Eu172 2.848 1_554 S
C236 O216 1.257 1_554 S
C236 O221 1.249 . S
C236 C229 1.492 . S
C237 H202 0.931 . S
C237 C215 1.420 . S
C237 C238 1.351 . S
C238 H200 0.930 . S
C238 C206 1.423 . S
C238 C237 1.351 . S
C239 O223 1.276 . S
C239 O226 1.235 1_545 S
C240 C241 1.393 . S
C240 C244 1.395 . S
C240 C247 1.492 . S
C241 C240 1.393 . S
C241 C242 1.392 . S
C241 H252 0.930 . S
C242 C241 1.392 . S
C242 C243 1.386 . S
C243 C242 1.386 . S
C243 C245 1.395 . S
C243 H253 0.930 . S
C244 C240 1.395 . S
C244 C245 1.379 . S
C244 H254 0.930 . S
C245 C243 1.395 . S
C245 C244 1.379 . S
C245 H255 0.930 . S
C246 O224 1.264 . S
C246 O225 1.254 . S
C247 Eu183 2.848 . S
C247 O222 1.257 . S
C247 O227 1.249 . S
C247 C240 1.492 . S
H248 C231 0.930 . S
H249 C232 0.930 . S
H250 C233 0.930 . S
H251 C234 0.930 . S
H252 C241 0.930 . S
H253 C243 0.930 . S
H254 C244 0.930 . S
H255 C245 0.930 . S
Eu256 N287 2.657 . S
Eu256 N294 2.609 . S
Eu256 O300 2.558 . S
Eu256 O301 2.612 . S
Eu256 O303 2.339 . S
Eu256 O304 2.563 . S
Eu256 O305 2.419 . S
Eu256 O307 2.380 . S
Eu256 O308 2.432 . S
Eu256 C320 2.848 . S
C257 C260 1.429 . S
C257 C261 1.411 . S
C257 N264 1.379 . S
C258 C260 1.420 . S
C258 C262 1.423 . S
C258 C270 1.392 . S
C259 C261 1.420 . S
C259 C262 1.351 . S
C259 H282 0.931 . S
C260 C257 1.429 . S
C260 C258 1.420 . S
C260 N268 1.362 . S
C261 C257 1.411 . S
C261 C259 1.420 . S
C261 C266 1.395 1_556 S
C262 C258 1.423 . S
C262 C259 1.351 . S
C262 H274 0.930 . S
C263 C265 1.400 . S
C263 C266 1.386 . S
C263 H275 0.930 . S
N264 C257 1.379 . S
N264 C265 1.317 1_556 S
N264 Eu267 2.610 . S
C265 C263 1.400 . S
C265 N264 1.317 1_554 S
C265 H272 0.930 . S
C266 C261 1.395 1_554 S
C266 C263 1.386 . S
C266 H285 0.930 . S
Eu267 N264 2.610 . S
Eu267 N268 2.657 . S
Eu267 O301 2.380 . S
Eu267 O302 2.432 . S
Eu267 O306 2.558 1_556 S
Eu267 O307 2.612 . S
Eu267 O309 2.339 . S
Eu267 O310 2.563 1_556 S
Eu267 O311 2.419 1_556 S
Eu267 C331 2.848 1_556 S
N268 C260 1.362 . S
N268 Eu267 2.657 . S
N268 C269 1.334 . S
C269 N268 1.334 . S
C269 C271 1.413 . S
C269 H276 0.929 . S
C270 C258 1.392 . S
C270 C271 1.367 . S
C270 H278 0.930 . S
C271 C269 1.413 . S
C271 C270 1.367 . S
C271 H273 0.930 . S
H272 C265 0.930 . S
H273 C271 0.930 . S
H274 C262 0.930 . S
H275 C263 0.930 . S
H276 C269 0.929 . S
H277 C291 0.930 1_554 S
H278 C270 0.930 . S
H279 C297 0.930 . S
H280 C288 0.929 . S
H281 C295 0.930 . S
H282 C259 0.931 . S
H283 C289 0.930 . S
H284 C322 0.930 . S
H285 C266 0.930 . S
H286 C321 0.931 . S
N287 Eu256 2.657 . S
N287 C288 1.334 . S
N287 C292 1.362 . S
C288 H280 0.929 . S
C288 N287 1.334 . S
C288 C291 1.413 . S
C289 H283 0.930 . S
C289 C290 1.392 . S
C289 C291 1.367 . S
C290 C289 1.392 . S
C290 C292 1.420 . S
C290 C322 1.423 . S
C291 H277 0.930 1_556 S
C291 C288 1.413 . S
C291 C289 1.367 . S
C292 N287 1.362 . S
C292 C290 1.420 . S
C292 C296 1.429 . S
H293 C298 0.930 . S
N294 Eu256 2.609 . S
N294 C296 1.377 . S
N294 C297 1.321 . S
C295 H281 0.930 . S
C295 C297 1.400 . S
C295 C298 1.386 . S
C296 C292 1.429 . S
C296 N294 1.377 . S
C296 C299 1.411 . S
C297 H279 0.930 . S
C297 N294 1.321 . S
C297 C295 1.400 . S
C298 H293 0.930 . S
C298 C295 1.386 . S
C298 C299 1.395 . S
C299 C296 1.411 . S
C299 C298 1.395 . S
C299 C321 1.420 . S
O300 Eu256 2.558 . S
O300 C320 1.257 . S
O301 Eu256 2.612 . S
O301 Eu267 2.380 . S
O301 C312 1.276 . S
O302 Eu267 2.432 . S
O302 C319 1.264 . S
O303 Eu256 2.339 . S
O303 C319 1.254 . S
O304 Eu256 2.563 . S
O304 C312 1.235 . S
O305 Eu256 2.419 . S
O305 C320 1.249 . S
O306 Eu267 2.558 1_554 S
O306 C331 1.257 . S
O307 Eu256 2.380 . S
O307 Eu267 2.612 . S
O307 C323 1.276 . S
O308 Eu256 2.432 . S
O308 C330 1.264 . S
O309 Eu267 2.339 . S
O309 C330 1.254 . S
O310 Eu267 2.563 1_554 S
O310 C323 1.235 1_554 S
O311 Eu267 2.419 1_554 S
O311 C331 1.249 . S
C312 O301 1.276 . S
C312 O304 1.235 . S
C313 C315 1.393 . S
C313 C317 1.395 . S
C313 C320 1.492 . S
C314 C315 1.392 . S
C314 C316 1.386 1_554 S
C315 C313 1.393 . S
C315 C314 1.392 . S
C315 H332 0.930 . S
C316 C314 1.386 1_556 S
C316 C318 1.395 . S
C316 H333 0.930 . S
C317 C313 1.395 . S
C317 C318 1.379 1_554 S
C317 H334 0.930 . S
C318 C316 1.395 . S
C318 C317 1.379 1_556 S
C318 H335 0.930 . S
C319 O302 1.264 . S
C319 O303 1.254 . S
C320 Eu256 2.848 . S
C320 O300 1.257 . S
C320 O305 1.249 . S
C320 C313 1.492 . S
C321 H286 0.931 . S
C321 C299 1.420 . S
C321 C322 1.351 . S
C322 H284 0.930 . S
C322 C290 1.423 . S
C322 C321 1.351 . S
C323 O307 1.276 . S
C323 O310 1.235 1_556 S
C324 C325 1.393 . S
C324 C328 1.395 . S
C324 C331 1.492 . S
C325 C324 1.393 . S
C325 C326 1.392 . S
C325 H336 0.930 . S
C326 C325 1.392 . S
C326 C327 1.386 . S
C327 C326 1.386 . S
C327 C329 1.395 . S
C327 H337 0.930 . S
C328 C324 1.395 . S
C328 C329 1.379 . S
C328 H338 0.930 . S
C329 C327 1.395 . S
C329 C328 1.379 . S
C329 H339 0.930 . S
C330 O308 1.264 . S
C330 O309 1.254 . S
C331 Eu267 2.848 1_554 S
C331 O306 1.257 . S
C331 O311 1.249 . S
C331 C324 1.492 . S
H332 C315 0.930 . S
H333 C316 0.930 . S
H334 C317 0.930 . S
H335 C318 0.930 . S
H336 C325 0.930 . S
H337 C327 0.930 . S
H338 C328 0.930 . S
H339 C329 0.930 . S
Eu340 N371 2.657 . S
Eu340 N378 2.609 . S
Eu340 O384 2.558 . S
Eu340 O385 2.612 . S
Eu340 O387 2.339 . S
Eu340 O388 2.563 . S
Eu340 O389 2.419 . S
Eu340 O391 2.375 1_455 S
Eu340 O392 2.432 1_455 S
Eu340 C404 2.848 . S
C341 C344 1.429 . S
C341 C345 1.411 . S
C341 N348 1.377 1_655 S
C342 C344 1.420 . S
C342 C346 1.423 . S
C342 C354 1.392 . S
C343 C345 1.420 . S
C343 C346 1.351 . S
C343 H366 0.931 . S
C344 C341 1.429 . S
C344 C342 1.420 . S
C344 N352 1.362 . S
C345 C341 1.411 . S
C345 C343 1.420 . S
C345 C350 1.395 1_656 S
C346 C342 1.423 . S
C346 C343 1.351 . S
C346 H358 0.930 . S
C347 C349 1.400 . S
C347 C350 1.386 . S
C347 H359 0.930 . S
N348 C341 1.377 1_455 S
N348 C349 1.321 1_556 S
N348 Eu351 2.609 1_455 S
C349 C347 1.400 . S
C349 N348 1.321 1_554 S
C349 H356 0.930 . S
C350 C345 1.395 1_454 S
C350 C347 1.386 . S
C350 H369 0.930 . S
Eu351 N348 2.609 1_655 S
Eu351 N352 2.657 . S
Eu351 O385 2.380 1_655 S
Eu351 O386 2.432 1_655 S
Eu351 O390 2.558 1_556 S
Eu351 O391 2.615 . S
Eu351 O393 2.339 . S
Eu351 O394 2.563 1_556 S
Eu351 O395 2.419 1_556 S
Eu351 C415 2.848 1_556 S
N352 C344 1.362 . S
N352 Eu351 2.657 . S
N352 C353 1.334 . S
C353 N352 1.334 . S
C353 C355 1.413 . S
C353 H360 0.929 . S
C354 C342 1.392 . S
C354 C355 1.367 . S
C354 H362 0.930 . S
C355 C353 1.413 . S
C355 C354 1.367 . S
C355 H357 0.930 . S
H356 C349 0.930 . S
H357 C355 0.930 . S
H358 C346 0.930 . S
H359 C347 0.930 . S
H360 C353 0.929 . S
H361 C375 0.930 1_554 S
H362 C354 0.930 . S
H363 C381 0.930 . S
H364 C372 0.929 . S
H365 C379 0.930 . S
H366 C343 0.931 . S
H367 C373 0.930 . S
H368 C406 0.930 . S
H369 C350 0.930 . S
H370 C405 0.931 . S
N371 Eu340 2.657 . S
N371 C372 1.334 . S
N371 C376 1.362 . S
C372 H364 0.929 . S
C372 N371 1.334 . S
C372 C375 1.413 . S
C373 H367 0.930 . S
C373 C374 1.392 . S
C373 C375 1.367 . S
C374 C373 1.392 . S
C374 C376 1.420 . S
C374 C406 1.423 . S
C375 H361 0.930 1_556 S
C375 C372 1.413 . S
C375 C373 1.367 . S
C376 N371 1.362 . S
C376 C374 1.420 . S
C376 C380 1.429 . S
H377 C382 0.930 . S
N378 Eu340 2.609 . S
N378 C380 1.377 . S
N378 C381 1.321 1_455 S
C379 H365 0.930 . S
C379 C381 1.400 . S
C379 C382 1.386 . S
C380 C376 1.429 . S
C380 N378 1.377 . S
C380 C383 1.411 . S
C381 H363 0.930 . S
C381 N378 1.321 1_655 S
C381 C379 1.400 . S
C382 H377 0.930 . S
C382 C379 1.386 . S
C382 C383 1.395 1_655 S
C383 C380 1.411 . S
C383 C382 1.395 1_455 S
C383 C405 1.420 . S
O384 Eu340 2.558 . S
O384 C404 1.257 . S
O385 Eu340 2.612 . S
O385 Eu351 2.380 1_455 S
O385 C396 1.276 . S
O386 Eu351 2.432 1_455 S
O386 C403 1.264 . S
O387 Eu340 2.339 . S
O387 C403 1.254 . S
O388 Eu340 2.563 . S
O388 C396 1.235 . S
O389 Eu340 2.419 . S
O389 C404 1.249 . S
O390 Eu351 2.558 1_554 S
O390 C415 1.257 . S
O391 Eu340 2.375 1_655 S
O391 Eu351 2.615 . S
O391 C407 1.279 . S
O392 Eu340 2.432 1_655 S
O392 C414 1.264 . S
O393 Eu351 2.339 . S
O393 C414 1.254 . S
O394 Eu351 2.563 1_554 S
O394 C407 1.235 1_554 S
O395 Eu351 2.419 1_554 S
O395 C415 1.249 . S
C396 O385 1.276 . S
C396 O388 1.235 . S
C397 C399 1.393 . S
C397 C401 1.395 . S
C397 C404 1.492 . S
C398 C399 1.392 . S
C398 C400 1.386 1_554 S
C399 C397 1.393 . S
C399 C398 1.392 . S
C399 H416 0.930 . S
C400 C398 1.386 1_556 S
C400 C402 1.395 . S
C400 H417 0.930 . S
C401 C397 1.395 . S
C401 C402 1.379 1_554 S
C401 H418 0.930 . S
C402 C400 1.395 . S
C402 C401 1.379 1_556 S
C402 H419 0.930 . S
C403 O386 1.264 . S
C403 O387 1.254 . S
C404 Eu340 2.848 . S
C404 O384 1.257 . S
C404 O389 1.249 . S
C404 C397 1.492 . S
C405 H370 0.931 . S
C405 C383 1.420 . S
C405 C406 1.351 . S
C406 H368 0.930 . S
C406 C374 1.423 . S
C406 C405 1.351 . S
C407 O391 1.279 . S
C407 O394 1.235 1_556 S
C408 C409 1.393 . S
C408 C412 1.395 . S
C408 C415 1.492 . S
C409 C408 1.393 . S
C409 C410 1.392 . S
C409 H420 0.930 . S
C410 C409 1.392 . S
C410 C411 1.386 . S
C411 C410 1.386 . S
C411 C413 1.395 . S
C411 H421 0.930 . S
C412 C408 1.395 . S
C412 C413 1.379 . S
C412 H422 0.930 . S
C413 C411 1.395 . S
C413 C412 1.379 . S
C413 H423 0.930 . S
C414 O392 1.264 . S
C414 O393 1.254 . S
C415 Eu351 2.848 1_554 S
C415 O390 1.257 . S
C415 O395 1.249 . S
C415 C408 1.492 . S
H416 C399 0.930 . S
H417 C400 0.930 . S
H418 C401 0.930 . S
H419 C402 0.930 . S
H420 C409 0.930 . S
H421 C411 0.930 . S
H422 C412 0.930 . S
H423 C413 0.930 . S
C74 C162 3.381 . S
C246 C85 3.389 . S
C312 C52 3.111 . S
C396 C63 3.109 . S
C151 C30 3.311 1_546 S
C41 C235 3.311 1_554 S
C8 C323 3.054 1_554 S
C19 C407 3.060 1_554 S
C158 C62 2.863 1_655 S
C242 C73 2.816 1_565 S
C314 C84 2.815 . S
C51 C398 2.860 . S
C18 C146 2.390 1_655 S
C230 C29 2.344 1_545 S
C326 C40 2.404 . S
C7 C410 2.446 . S
C60 C155 3.334 . S
C71 C239 3.295 . S
C319 C82 3.566 . S
C403 C49 3.597 . S
C16 C144 3.125 . S
C228 C27 3.129 . S
C330 C38 3.425 . S
C5 C414 3.422 . S
