# Generated by pormake.
# Topology pts, (4,4)-cn, num edge types: 1
# Building blocks:
#     Node 0, Type 0, BuildingBlock: KOZSID_clean_sbu_0, # of connection points: 4
#     Node 1, Type 0, BuildingBlock: KOZSID_clean_sbu_0, # of connection points: 4
#     Node 2, Type 1, BuildingBlock: UXUYUI_clean_sbu_0, # of connection points: 4
#     Node 3, Type 1, BuildingBlock: UXUYUI_clean_sbu_0, # of connection points: 4
#     Edge 4, Type (0, 1), BuildingBlock: MIFKUJ_clean_linker_0, # of connection points: 2
#     Edge 5, Type (0, 1), BuildingBlock: MIFKUJ_clean_linker_0, # of connection points: 2
#     Edge 6, Type (0, 1), BuildingBlock: MIFKUJ_clean_linker_0, # of connection points: 2
#     Edge 7, Type (0, 1), BuildingBlock: MIFKUJ_clean_linker_0, # of connection points: 2
#     Edge 8, Type (0, 1), BuildingBlock: MIFKUJ_clean_linker_0, # of connection points: 2
#     Edge 9, Type (0, 1), BuildingBlock: MIFKUJ_clean_linker_0, # of connection points: 2
#     Edge 10, Type (0, 1), BuildingBlock: MIFKUJ_clean_linker_0, # of connection points: 2
#     Edge 11, Type (0, 1), BuildingBlock: MIFKUJ_clean_linker_0, # of connection points: 2
# Relax obj value: 0.000
# Max RMSD: 0.019
# Mean RMSD: 0.014
data_MOF--net-pts--node1-KOZSID_clean_sbu_0--node2-UXUYUI_clean_sbu_0--edge1-MIFKUJ_clean_linker_0
_symmetry_space_group_name_H-M    P1
_symmetry_Int_Tables_number       1
_symmetry_cell_setting            triclinic
loop_
_symmetry_equiv_pos_as_xyz
'x, y, z'
_cell_length_a     40.257953
_cell_length_b     40.287767
_cell_length_c     58.452044
_cell_angle_alpha  87.330559
_cell_angle_beta   92.646042
_cell_angle_gamma 90.005686
loop_
_atom_site_label
_atom_site_type_symbol
_atom_site_fract_x
_atom_site_fract_y
_atom_site_fract_z
_atom_type_partial_charge
C0 C 0.58817 0.07133 0.0415 0.0
C1 C 0.59907 0.10191 0.04884 0.0
C2 C 0.58047 0.12548 0.03662 0.0
C3 C 0.55936 0.10805 0.02258 0.0
N4 N 0.56302 0.07469 0.02527 0.0
Co5 Co 0.53822 0.04011 0.00763 0.0
N6 N 0.51263 0.07491 0.98843 0.0
C7 C 0.51576 0.10826 0.98946 0.0
C8 C 0.49449 0.12587 0.97445 0.0
C9 C 0.47633 0.10242 0.96336 0.0
C10 C 0.48752 0.07172 0.97238 0.0
N11 N 0.51333 0.00553 0.99003 0.0
C12 C 0.48803 0.00888 0.97388 0.0
C13 C 0.47676 0.97822 0.9669 0.0
C14 C 0.4954 0.95468 0.97911 0.0
C15 C 0.51683 0.97216 0.99287 0.0
N16 N 0.5639 0.00531 0.02679 0.0
C17 C 0.56106 0.97197 0.02561 0.0
C18 C 0.5828 0.9544 0.0403 0.0
C19 C 0.60098 0.97788 0.05135 0.0
C20 C 0.58921 0.00855 0.0427 0.0
N21 N 0.50254 0.03934 0.03025 0.0
C22 C 0.44849 0.03834 0.05964 0.0
C23 C 0.46273 0.00886 0.05296 0.0
C24 C 0.48958 0.00992 0.03853 0.0
C25 C 0.46242 0.06831 0.0518 0.0
C26 C 0.48912 0.06825 0.03727 0.0
N27 N 0.57387 0.04088 0.98498 0.0
C28 C 0.61319 0.01184 0.96282 0.0
C29 C 0.62742 0.04177 0.95516 0.0
C30 C 0.61381 0.07126 0.96233 0.0
C31 C 0.58724 0.07026 0.97699 0.0
C32 C 0.58674 0.01196 0.97756 0.0
H33 H 0.57814 0.09363 0.98176 0.0
H34 H 0.57744 0.98829 0.98296 0.0
H35 H 0.49918 0.98657 0.03414 0.0
H36 H 0.49814 0.09194 0.03166 0.0
C37 C 0.53744 0.12227 0.00567 0.0
C38 C 0.60358 0.03995 0.04968 0.0
C39 C 0.4728 0.04035 0.96554 0.0
C40 C 0.53908 0.95797 0.0096 0.0
H41 H 0.61896 0.10669 0.06135 0.0
H42 H 0.58273 0.15219 0.0374 0.0
H43 H 0.49194 0.15258 0.97224 0.0
H44 H 0.45667 0.10735 0.95039 0.0
H45 H 0.45658 0.97327 0.95466 0.0
H46 H 0.49295 0.92797 0.97852 0.0
H47 H 0.58568 0.92769 0.0423 0.0
H48 H 0.62105 0.97303 0.06404 0.0
H49 H 0.45331 0.98495 0.0589 0.0
H50 H 0.45224 0.09188 0.05635 0.0
H51 H 0.6229 0.98825 0.95793 0.0
H52 H 0.62348 0.09516 0.95658 0.0
C53 C 0.07314 0.48945 0.54257 0.0
C54 C 0.1041 0.47878 0.55142 0.0
C55 C 0.12715 0.49751 0.54034 0.0
C56 C 0.10905 0.5186 0.5255 0.0
N57 N 0.07576 0.51484 0.52665 0.0
Co58 Co 0.04035 0.53989 0.50764 0.0
N59 N 0.07433 0.56492 0.48961 0.0
C60 C 0.10775 0.56133 0.49184 0.0
C61 C 0.12473 0.58187 0.47716 0.0
C62 C 0.10078 0.60004 0.46498 0.0
C63 C 0.07043 0.58966 0.47312 0.0
N64 N 0.00493 0.56517 0.48874 0.0
C65 C 0.00757 0.59044 0.4727 0.0
C66 C 0.97652 0.60241 0.46489 0.0
C67 C 0.95352 0.58414 0.47633 0.0
C68 C 0.97166 0.56229 0.49056 0.0
N69 N 0.00638 0.51452 0.52554 0.0
C70 C 0.97294 0.51755 0.52297 0.0
C71 C 0.95593 0.49552 0.5366 0.0
C72 C 0.97988 0.47691 0.54841 0.0
C73 C 0.0103 0.48884 0.54135 0.0
N74 N 0.04112 0.57565 0.53019 0.0
C75 C 0.04181 0.63011 0.55919 0.0
C76 C 0.01197 0.61506 0.55219 0.0
C77 C 0.01221 0.58807 0.53794 0.0
C78 C 0.07137 0.6167 0.55193 0.0
C79 C 0.07047 0.58975 0.53762 0.0
N80 N 0.03956 0.50419 0.48511 0.0
C81 C 0.0089 0.46507 0.462 0.0
C82 C 0.03832 0.45013 0.45581 0.0
C83 C 0.06839 0.46339 0.46411 0.0
C84 C 0.06844 0.49016 0.47854 0.0
C85 C 0.01008 0.49185 0.47645 0.0
H86 H 0.09219 0.49873 0.48445 0.0
H87 H 0.98676 0.50192 0.48054 0.0
H88 H 0.9886 0.57794 0.53325 0.0
H89 H 0.09385 0.58113 0.53249 0.0
C90 C 0.12252 0.54002 0.50891 0.0
C91 C 0.04209 0.47387 0.54928 0.0
C92 C 0.03878 0.60488 0.46514 0.0
C93 C 0.95823 0.53995 0.50659 0.0
H94 H 0.10947 0.45895 0.5642 0.0
H95 H 0.15394 0.49526 0.54231 0.0
H96 H 0.15139 0.58396 0.47584 0.0
H97 H 0.1052 0.61921 0.45188 0.0
H98 H 0.97095 0.62276 0.45259 0.0
H99 H 0.92676 0.58706 0.47492 0.0
H100 H 0.92926 0.49263 0.53733 0.0
H101 H 0.97535 0.45631 0.56039 0.0
H102 H 0.98839 0.62398 0.5577 0.0
H103 H 0.09518 0.62746 0.55675 0.0
H104 H 0.98492 0.45625 0.4557 0.0
H105 H 0.09192 0.45266 0.45999 0.0
Li106 Li 0.03623 0.0651 0.27338 0.0
Li107 Li 0.0353 0.00562 0.27345 0.0
Li108 Li 0.06617 0.03719 0.24479 0.0
Li109 Li 1.00279 0.03535 0.24214 0.0
C110 C 0.0908 0.05084 0.29556 0.0
N111 N 0.12096 0.08635 0.33012 0.0
C112 C 0.08651 0.04128 0.31854 0.0
C113 C 0.11045 0.07848 0.2902 0.0
C114 C 0.102 0.05952 0.33576 0.0
C115 C 0.12545 0.09613 0.3079 0.0
C116 C 0.97607 0.01859 0.29023 0.0
C117 C 0.92531 0.98853 0.29691 0.0
N118 N 0.93524 0.98339 0.31936 0.0
C119 C 0.9857 0.01307 0.31338 0.0
C120 C 0.9456 0.00624 0.28192 0.0
C121 C 0.96475 0.99518 0.32782 0.0
C122 C 0.04261 0.13444 0.28186 0.0
N123 N 0.03548 0.10415 0.29169 0.0
C124 C 0.02821 0.12864 0.32774 0.0
C125 C 0.02809 0.10094 0.31417 0.0
C126 C 0.03574 0.16025 0.31814 0.0
C127 C 0.04295 0.16286 0.29479 0.0
H128 H 0.04801 0.13661 0.26393 0.0
H129 H 0.0225 0.07679 0.32173 0.0
C130 C 0.06429 0.95542 0.30437 0.0
N131 N 0.03604 0.96397 0.2918 0.0
C132 C 0.06577 0.92601 0.31811 0.0
C133 C 0.00959 0.91376 0.305 0.0
C134 C 0.0092 0.94341 0.29154 0.0
C135 C 0.03806 0.90479 0.31874 0.0
H136 H 0.08584 0.97137 0.30365 0.0
H137 H 0.98733 0.95001 0.28091 0.0
C138 C 0.04561 0.09097 0.22052 0.0
N139 N 0.07121 0.12187 0.18198 0.0
C140 C 0.02957 0.08784 0.19901 0.0
C141 C 0.07455 0.11002 0.22244 0.0
C142 C 0.04291 0.10363 0.17973 0.0
C143 C 0.08715 0.12536 0.20275 0.0
C144 C 0.04099 0.96616 0.23872 0.0
C145 C 0.07324 0.95362 0.24253 0.0
C146 C 0.01451 0.94439 0.23487 0.0
C147 C 0.07844 0.91934 0.24254 0.0
C148 C 0.02075 0.91026 0.23501 0.0
N149 N 0.05231 0.89855 0.23882 0.0
C150 C 0.13567 0.03962 0.23604 0.0
C151 C 0.1001 0.03375 0.2031 0.0
C152 C 0.16365 0.03985 0.22268 0.0
N153 N 0.10461 0.03707 0.2261 0.0
C154 C 0.12739 0.03385 0.18908 0.0
C155 C 0.1598 0.03708 0.1988 0.0
H156 H 0.13882 0.04119 0.2544 0.0
H157 H 0.07523 0.03117 0.1956 0.0
C158 C 0.93832 0.05718 0.2263 0.0
N159 N 0.96348 0.03608 0.22214 0.0
C160 C 0.90909 0.05797 0.21235 0.0
C161 C 0.9324 0.01581 0.18977 0.0
C162 C 0.96114 0.01574 0.20421 0.0
C163 C 0.90572 0.03701 0.19379 0.0
H164 H 0.9409 0.07326 0.24058 0.0
H165 H 0.98161 0.99941 0.20113 0.0
O166 O 0.07519 0.03378 0.27843 0.0
O167 O 0.99621 0.03604 0.27577 0.0
O168 O 0.03324 0.07518 0.23954 0.0
O169 O 0.03532 0.99954 0.2393 0.0
H170 H 0.07099 0.02034 0.3231 0.0
H171 H 0.11371 0.08657 0.27256 0.0
H172 H 0.09876 0.05247 0.3536 0.0
H173 H 0.14055 0.11767 0.30397 0.0
H174 H 0.90172 0.97877 0.29069 0.0
H175 H 0.00945 0.02174 0.32004 0.0
H176 H 0.93777 0.01004 0.26405 0.0
H177 H 0.97206 0.9905 0.34572 0.0
H178 H 0.02292 0.12518 0.34569 0.0
H179 H 0.04837 0.18669 0.28647 0.0
H180 H 0.08857 0.91979 0.32793 0.0
H181 H 0.98758 0.89832 0.30489 0.0
H182 H 0.00717 0.07323 0.19716 0.0
H183 H 0.08741 0.1126 0.2389 0.0
H184 H 0.03081 0.1013 0.16297 0.0
H185 H 0.10966 0.13996 0.20397 0.0
H186 H 0.09395 0.97018 0.2457 0.0
H187 H 0.98936 0.9537 0.23215 0.0
H188 H 0.10323 0.90925 0.24558 0.0
H189 H 1.00049 0.89308 0.23219 0.0
H190 H 0.1881 0.04163 0.23105 0.0
H191 H 0.12308 0.03184 0.17078 0.0
H192 H 0.88947 0.07509 0.21594 0.0
H193 H 0.9309 0.99903 0.17582 0.0
Li194 Li 0.01143 0.04359 0.77174 0.0
Li195 Li 0.0723 0.0421 0.77363 0.0
Li196 Li 0.0423 0.07413 0.74113 0.0
Li197 Li 0.04319 0.0128 0.74364 0.0
C198 C 0.0451 0.09461 0.79622 0.0
N199 N 0.05065 0.11996 0.83937 0.0
C200 C 0.03757 0.07479 0.81553 0.0
C201 C 0.05534 0.12741 0.79886 0.0
C202 C 0.04055 0.08801 0.83719 0.0
C203 C 0.05803 0.13975 0.82082 0.0
C204 C 0.05468 0.9834 0.79425 0.0
C205 C 0.09918 0.94707 0.80886 0.0
N206 N 0.08353 0.94243 0.82888 0.0
C207 C 0.03895 0.97809 0.81493 0.0
C208 C 0.08495 0.96761 0.79114 0.0
C209 C 0.05397 0.95735 0.83224 0.0
C210 C 0.95565 0.01466 0.79343 0.0
N211 N 0.97122 0.04395 0.78862 0.0
C212 C 0.93063 0.0734 0.80857 0.0
C213 C 0.95908 0.07308 0.7957 0.0
C214 C 0.9143 0.04346 0.81423 0.0
C215 C 0.92713 0.01382 0.80629 0.0
H216 H 0.96567 0.99184 0.78752 0.0
H217 H 0.97162 0.09615 0.79149 0.0
C218 C 0.14114 0.05152 0.78422 0.0
N219 N 0.11206 0.04275 0.7938 0.0
C220 C 0.17082 0.05224 0.79766 0.0
C221 C 0.14025 0.03516 0.83073 0.0
C222 C 0.11117 0.0349 0.81668 0.0
C223 C 0.17074 0.04388 0.82131 0.0
H224 H 0.14131 0.05807 0.76608 0.0
H225 H 0.08799 0.02802 0.82412 0.0
C226 C 0.97518 0.05933 0.73089 0.0
N227 N 0.91658 0.09215 0.71796 0.0
C228 C 0.95138 0.04431 0.71665 0.0
C229 C 0.96924 0.09105 0.73855 0.0
C230 C 0.92188 0.06131 0.7103 0.0
C231 C 0.93944 0.10723 0.73183 0.0
C232 C 0.09851 0.03025 0.72379 0.0
C233 C 0.09171 0.03991 0.70078 0.0
C234 C 0.12255 0.00586 0.72951 0.0
C235 C 0.10873 0.02461 0.68382 0.0
C236 C 0.13902 0.99113 0.71206 0.0
N237 N 0.1318 1.0007 0.68976 0.0
C238 C 0.05792 0.14101 0.72808 0.0
C239 C 0.02753 0.11271 0.69935 0.0
C240 C 0.05804 0.17009 0.71402 0.0
N241 N 0.04258 0.11316 0.72067 0.0
C242 C 0.02741 0.14114 0.6846 0.0
C243 C 0.04263 0.17046 0.69194 0.0
H244 H 0.07017 0.14061 0.74492 0.0
H245 H 0.01557 0.09024 0.69378 0.0
C246 C 0.05008 0.94372 0.73457 0.0
N247 N 0.0428 0.97439 0.72493 0.0
C248 C 0.0504 0.91595 0.72106 0.0
C249 C 0.03509 0.95153 0.6879 0.0
C250 C 0.035 0.97863 0.70208 0.0
C251 C 0.04299 0.91957 0.69732 0.0
H252 H 0.05542 0.94064 0.75279 0.0
H253 H 0.0289 0.00318 0.69481 0.0
O254 O 0.04228 0.08211 0.77482 0.0
O255 O 0.04046 0.00384 0.77715 0.0
O256 O 0.00411 0.04292 0.73728 0.0
O257 O 0.08156 0.04443 0.74059 0.0
H258 H 0.02961 0.04941 0.81383 0.0
H259 H 0.06112 0.14325 0.78416 0.0
H260 H 0.03486 0.07285 0.85226 0.0
H261 H 0.06596 0.16509 0.82311 0.0
H262 H 0.12269 0.93488 0.8067 0.0
H263 H 0.01546 0.98995 0.81768 0.0
H264 H 0.09746 0.97141 0.77528 0.0
H265 H 0.04213 0.95315 0.84836 0.0
H266 H 0.92142 0.09695 0.81389 0.0
H267 H 0.91568 0.99008 0.81036 0.0
H268 H 0.19352 0.05967 0.78962 0.0
H269 H 0.13885 0.02806 0.84875 0.0
H270 H 0.95567 0.01976 0.71057 0.0
H271 H 0.98742 0.10309 0.74954 0.0
H272 H 0.90321 0.04999 0.69928 0.0
H273 H 0.9345 0.13177 0.73763 0.0
H274 H 0.07321 0.05873 0.69604 0.0
H275 H 0.12848 0.99842 0.74723 0.0
H276 H 0.10353 0.03166 0.66593 0.0
H277 H 0.15757 0.97211 0.71624 0.0
H278 H 0.07049 0.19196 0.72027 0.0
H279 H 0.01507 0.14035 0.66778 0.0
H280 H 0.05592 0.89179 0.72925 0.0
H281 H 0.02945 0.95571 0.66971 0.0
H282 H 0.39372 0.99795 0.05696 0.0
H283 H 0.34512 0.99766 0.08058 0.0
H284 H 0.3874 0.07761 0.11885 0.0
H285 H 0.43644 0.07761 0.09556 0.0
H286 H 0.36102 0.02959 0.14704 0.0
H287 H 0.32573 0.09281 0.07857 0.0
H288 H 0.31641 0.10326 0.03687 0.0
H289 H 0.25104 0.01919 0.03398 0.0
H290 H 0.26036 0.00794 0.07564 0.0
H291 H 0.21586 0.07566 0.20248 0.0
H292 H 0.26457 0.07547 0.17906 0.0
H293 H 0.2197 0.99921 0.13853 0.0
H294 H 0.17087 0.9992 0.16194 0.0
H295 H 0.24751 0.04509 0.11139 0.0
H296 H 0.28251 0.9813 0.17934 0.0
H297 H 0.29212 0.96961 0.2209 0.0
H298 H 0.35816 0.05307 0.22469 0.0
H299 H 0.34858 0.06555 0.18318 0.0
C300 C 0.39287 0.01528 0.07054 0.0
C301 C 0.41904 0.03784 0.07431 0.0
C302 C 0.36488 0.01528 0.08391 0.0
C303 C 0.36236 0.03786 0.10137 0.0
C304 C 0.38868 0.06004 0.10544 0.0
C305 C 0.41661 0.06017 0.09199 0.0
C306 C 0.3323 0.03834 0.11536 0.0
C307 C 0.33625 0.03344 0.13927 0.0
C308 C 0.29983 0.0425 0.10522 0.0
C309 C 0.29401 0.04934 0.08019 0.0
C310 C 0.30957 0.0764 0.06901 0.0
C311 C 0.30426 0.08249 0.04539 0.0
C312 C 0.28322 0.06185 0.03277 0.0
C313 C 0.26737 0.03513 0.04377 0.0
C314 C 0.27264 0.0289 0.06739 0.0
C315 C 0.21642 0.05861 0.18873 0.0
C316 C 0.18939 0.03731 0.18424 0.0
C317 C 0.24434 0.05856 0.17529 0.0
C318 C 0.24612 0.03701 0.15715 0.0
C319 C 0.21899 0.01608 0.1524 0.0
C320 C 0.191 0.01618 0.16579 0.0
C321 C 0.27619 0.03638 0.14313 0.0
C322 C 0.27227 0.04124 0.11919 0.0
C323 C 0.30869 0.03203 0.15324 0.0
C324 C 0.31455 0.02456 0.17819 0.0
C325 C 0.29887 0.99733 0.18907 0.0
C326 C 0.30435 0.99052 0.21261 0.0
C327 C 0.32567 0.01063 0.22544 0.0
C328 C 0.34162 0.03754 0.21474 0.0
C329 C 0.33619 0.04448 0.1912 0.0
H330 H 0.32988 0.00532 0.24367 0.0
H331 H 0.27914 0.0666 0.01448 0.0
H332 H 0.0606 0.41239 0.53703 0.0
H333 H 0.06187 0.3603 0.56064 0.0
H334 H 0.02665 0.41268 0.61758 0.0
H335 H 0.0261 0.46483 0.59402 0.0
H336 H 0.07578 0.37054 0.63155 0.0
H337 H 0.97487 0.36405 0.584 0.0
H338 H 0.94238 0.36493 0.54717 0.0
H339 H 0.9981 0.28157 0.52629 0.0
H340 H 0.03139 0.28059 0.56284 0.0
H341 H 0.02914 0.23408 0.70319 0.0
H342 H 0.02946 0.2847 0.67848 0.0
H343 H 0.05667 0.22736 0.62166 0.0
H344 H 0.05546 0.17647 0.64624 0.0
H345 H 0.01318 0.2714 0.60672 0.0
H346 H 0.11405 0.27667 0.65275 0.0
H347 H 0.1493 0.27563 0.68842 0.0
H348 H 0.09716 0.36032 0.71085 0.0
H349 H 0.06128 0.36159 0.67544 0.0
C350 C 0.05318 0.41261 0.5546 0.0
C351 C 0.04296 0.44236 0.56373 0.0
C352 C 0.05375 0.3829 0.56805 0.0
C353 C 0.04387 0.38238 0.59084 0.0
C354 C 0.03425 0.41236 0.60005 0.0
C355 C 0.0338 0.44207 0.58661 0.0
C356 C 0.04358 0.35072 0.60513 0.0
C357 C 0.06173 0.349 0.62625 0.0
C358 C 0.02616 0.32217 0.59793 0.0
C359 C 0.00583 0.32244 0.57608 0.0
C360 C 0.98036 0.34605 0.5715 0.0
C361 C 0.96181 0.34657 0.55066 0.0
C362 C 0.96826 0.32339 0.53437 0.0
C363 C 0.99321 0.29957 0.5389 0.0
C364 C 0.01192 0.29901 0.55968 0.0
C365 C 0.03534 0.23227 0.68546 0.0
C366 C 0.04249 0.20124 0.67673 0.0
C367 C 0.03561 0.26129 0.67132 0.0
C368 C 0.04373 0.26013 0.64822 0.0
C369 C 0.05038 0.22906 0.63939 0.0
C370 C 0.04968 0.19994 0.65346 0.0
C371 C 0.04517 0.29126 0.63332 0.0
C372 C 0.02728 0.29288 0.61206 0.0
C373 C 0.06317 0.31964 0.64025 0.0
C374 C 0.08478 0.31902 0.66153 0.0
C375 C 0.10995 0.29492 0.66536 0.0
C376 C 0.13006 0.29431 0.68552 0.0
C377 C 0.12542 0.31784 0.70191 0.0
C378 C 0.1007 0.34208 0.69815 0.0
C379 C 0.08049 0.34278 0.67803 0.0
H380 H 0.14102 0.31733 0.71751 0.0
H381 H 0.95388 0.32383 0.51825 0.0
H382 H 0.66723 0.03586 0.03643 0.0
H383 H 0.71864 0.03566 0.06077 0.0
H384 H 0.6607 0.04339 0.12063 0.0
H385 H 0.60937 0.04422 0.0961 0.0
H386 H 0.71301 0.08392 0.12291 0.0
H387 H 0.69592 0.96939 0.10675 0.0
H388 H 0.68617 0.92226 0.08188 0.0
H389 H 0.77849 0.94219 0.04996 0.0
H390 H 0.78853 0.98983 0.07439 0.0
H391 H 0.84119 0.04113 0.20668 0.0
H392 H 0.7903 0.04182 0.18221 0.0
H393 H 0.84845 0.03374 0.12257 0.0
H394 H 0.89953 0.03303 0.14697 0.0
H395 H 0.79608 0.99342 0.12009 0.0
H396 H 0.81293 0.10817 0.13589 0.0
H397 H 0.82234 0.15593 0.16026 0.0
H398 H 0.73041 0.13575 0.19263 0.0
H399 H 0.72067 0.08757 0.16865 0.0
C400 C 0.66567 0.03752 0.0548 0.0
C401 C 0.63462 0.03996 0.06452 0.0
C402 C 0.69494 0.03728 0.0687 0.0
C403 C 0.69362 0.03908 0.09263 0.0
C404 C 0.66243 0.04192 0.10227 0.0
C405 C 0.63316 0.04229 0.08832 0.0
C406 C 0.72471 0.03802 0.10759 0.0
C407 C 0.73094 0.06388 0.12251 0.0
C408 C 0.74858 0.01231 0.10675 0.0
C409 C 0.74283 0.98337 0.09227 0.0
C410 C 0.71404 0.96386 0.09433 0.0
C411 C 0.70847 0.93704 0.08031 0.0
C412 C 0.73166 0.92927 0.06432 0.0
C413 C 0.76053 0.94826 0.06235 0.0
C414 C 0.76618 0.97516 0.07628 0.0
C415 C 0.84323 0.03982 0.18834 0.0
C416 C 0.87458 0.03721 0.17883 0.0
C417 C 0.81404 0.04017 0.17434 0.0
C418 C 0.81543 0.03826 0.15045 0.0
C419 C 0.84665 0.03523 0.14093 0.0
C420 C 0.87587 0.03475 0.15493 0.0
C421 C 0.78438 0.03932 0.13543 0.0
C422 C 0.77815 0.01346 0.1205 0.0
C423 C 0.7605 0.06504 0.13625 0.0
C424 C 0.76624 0.09407 0.15063 0.0
C425 C 0.79484 0.11377 0.14832 0.0
C426 C 0.80022 0.14094 0.16205 0.0
C427 C 0.77703 0.14882 0.17803 0.0
C428 C 0.74837 0.12959 0.18027 0.0
C429 C 0.7429 0.10237 0.1666 0.0
H430 H 0.78123 0.16987 0.18863 0.0
H431 H 0.7273 0.9085 0.05348 0.0
H432 H 0.99907 0.68335 0.55581 0.0
H433 H 0.99959 0.73217 0.57911 0.0
H434 H 0.08592 0.6938 0.61806 0.0
H435 H 0.08502 0.64438 0.5952 0.0
H436 H 0.04126 0.71834 0.6459 0.0
H437 H 0.09285 0.75629 0.57719 0.0
H438 H 0.09734 0.76586 0.53547 0.0
H439 H 0.00946 0.82659 0.53246 0.0
H440 H 0.00417 0.81699 0.57414 0.0
H441 H 0.08659 0.86691 0.70018 0.0
H442 H 0.08629 0.8182 0.67681 0.0
H443 H 1.00035 0.85671 0.63751 0.0
H444 H 1.00025 0.90543 0.66097 0.0
H445 H 0.04495 0.83212 0.60978 0.0
H446 H 0.993 0.79394 0.67827 0.0
H447 H 0.98807 0.78417 0.71993 0.0
H448 H 0.07618 0.72376 0.72329 0.0
H449 H 0.0819 0.73356 0.68167 0.0
C450 C 0.018 0.68507 0.56947 0.0
C451 C 0.04203 0.65984 0.57357 0.0
C452 C 0.01847 0.71323 0.58265 0.0
C453 C 0.04304 0.71694 0.60021 0.0
C454 C 0.06679 0.69161 0.60457 0.0
C455 C 0.06639 0.66346 0.59135 0.0
C456 C 0.04386 0.74715 0.61407 0.0
C457 C 0.04255 0.7432 0.63801 0.0
C458 C 0.04472 0.77969 0.6038 0.0
C459 C 0.04793 0.78564 0.57876 0.0
C460 C 0.07433 0.77147 0.56761 0.0
C461 C 0.07704 0.77694 0.54397 0.0
C462 C 0.05365 0.79674 0.53131 0.0
C463 C 0.02754 0.81121 0.54228 0.0
C464 C 0.02469 0.80579 0.56591 0.0
C465 C 0.06739 0.86495 0.68672 0.0
C466 C 0.04331 0.89015 0.68263 0.0
C467 C 0.06731 0.83704 0.67331 0.0
C468 C 0.04305 0.83349 0.65553 0.0
C469 C 0.01935 0.85884 0.6511 0.0
C470 C 0.0194 0.88679 0.66451 0.0
C471 C 0.04237 0.80332 0.64162 0.0
C472 C 0.04369 0.80727 0.61767 0.0
C473 C 0.04148 0.77077 0.65187 0.0
C474 C 0.03806 0.76477 0.67689 0.0
C475 C 0.01147 0.77879 0.68792 0.0
C476 C 0.00851 0.77321 0.71152 0.0
C477 C 0.03184 0.75343 0.72426 0.0
C478 C 0.05815 0.73912 0.71341 0.0
C479 C 0.06125 0.74466 0.68981 0.0
H480 H 0.0295 0.74913 0.74253 0.0
H481 H 0.05579 0.80094 0.51302 0.0
H482 H 0.46551 0.02412 0.92075 0.0
H483 H 0.41426 0.02485 0.89624 0.0
H484 H 0.35923 0.05871 0.95239 0.0
H485 H 0.41047 0.0573 0.97696 0.0
H486 H 0.32532 0.01163 0.93096 0.0
H487 H 0.38086 0.1118 0.90797 0.0
H488 H 0.42762 0.14591 0.89463 0.0
H489 H 0.42735 0.0932 0.83244 0.0
H490 H 0.3809 0.05837 0.84558 0.0
H491 H 0.17942 0.06364 0.8656 0.0
H492 H 0.23049 0.06279 0.88988 0.0
H493 H 0.2846 0.02461 0.8348 0.0
H494 H 0.23352 0.02481 0.81048 0.0
H495 H 0.3188 0.07406 0.85569 0.0
H496 H 0.26281 0.97378 0.87932 0.0
H497 H 0.21587 0.94029 0.8931 0.0
H498 H 0.21661 0.99461 0.95461 0.0
H499 H 0.26327 0.02877 0.94104 0.0
C500 C 0.44238 0.0316 0.92777 0.0
C501 C 0.44172 0.04058 0.95065 0.0
C502 C 0.41317 0.03221 0.91378 0.0
C503 C 0.38283 0.04219 0.92236 0.0
C504 C 0.38224 0.05093 0.94535 0.0
C505 C 0.41145 0.05024 0.95934 0.0
C506 C 0.35174 0.04344 0.90742 0.0
C507 C 0.32379 0.02566 0.91465 0.0
C508 C 0.34981 0.0612 0.88589 0.0
C509 C 0.3776 0.08225 0.87786 0.0
C510 C 0.39093 0.1073 0.89152 0.0
C511 C 0.41736 0.12679 0.88399 0.0
C512 C 0.4305 0.12167 0.86272 0.0
C513 C 0.41717 0.0971 0.84892 0.0
C514 C 0.39078 0.07749 0.8564 0.0
C515 C 0.20206 0.0547 0.85866 0.0
C516 C 0.20214 0.04412 0.83603 0.0
C517 C 0.23132 0.05435 0.87259 0.0
C518 C 0.2614 0.04332 0.86428 0.0
C519 C 0.26174 0.03328 0.8416 0.0
C520 C 0.23247 0.03353 0.82767 0.0
C521 C 0.29245 0.04222 0.87924 0.0
C522 C 0.32037 0.06004 0.87201 0.0
C523 C 0.29431 0.02464 0.90082 0.0
C524 C 0.26631 0.00406 0.90905 0.0
C525 C 0.25278 0.97877 0.8957 0.0
C526 C 0.22626 0.95963 0.90349 0.0
C527 C 0.2132 0.96538 0.92469 0.0
C528 C 0.22671 0.99022 0.93817 0.0
C529 C 0.25321 0.00947 0.93045 0.0
H530 H 0.19267 0.95053 0.93069 0.0
H531 H 0.45096 0.1368 0.85691 0.0
H532 H 0.9954 0.39718 0.45707 0.0
H533 H 0.99471 0.34865 0.43351 0.0
H534 H 0.07953 0.38688 0.39839 0.0
H535 H 0.07968 0.43611 0.42137 0.0
H536 H 0.03442 0.36233 0.36852 0.0
H537 H 0.08798 0.32393 0.43992 0.0
H538 H 0.0932 0.31503 0.48196 0.0
H539 H 0.0045 0.25583 0.48069 0.0
H540 H 0.99853 0.2647 0.43863 0.0
H541 H 0.07887 0.21315 0.31699 0.0
H542 H 0.07892 0.26219 0.34009 0.0
H543 H 0.9937 0.22428 0.37487 0.0
H544 H 0.99323 0.17531 0.35168 0.0
H545 H 0.03898 0.24862 0.405 0.0
H546 H 0.98554 0.28682 0.33361 0.0
H547 H 0.97976 0.2965 0.29165 0.0
H548 H 0.06786 0.3566 0.29299 0.0
H549 H 0.07443 0.34689 0.33495 0.0
C550 C 0.0137 0.39552 0.44416 0.0
C551 C 0.03764 0.42065 0.44119 0.0
C552 C 0.01349 0.36752 0.43084 0.0
C553 C 0.03735 0.3638 0.41434 0.0
C554 C 0.06095 0.38906 0.41106 0.0
C555 C 0.06117 0.4171 0.42437 0.0
C556 C 0.03773 0.33358 0.40054 0.0
C557 C 0.0359 0.33749 0.37651 0.0
C558 C 0.03886 0.30106 0.4109 0.0
C559 C 0.04266 0.29522 0.43614 0.0
C560 C 0.06948 0.30917 0.44861 0.0
C561 C 0.07259 0.30411 0.47244 0.0
C562 C 0.04916 0.28494 0.48399 0.0
C563 C 0.02262 0.27069 0.47172 0.0
C564 C 0.01939 0.27568 0.44788 0.0
C565 C 0.05989 0.21534 0.32937 0.0
C566 C 0.03596 0.1902 0.33234 0.0
C567 C 0.06001 0.24342 0.34264 0.0
C568 C 0.03611 0.24718 0.35911 0.0
C569 C 0.01245 0.22197 0.36233 0.0
C570 C 0.0123 0.19388 0.34907 0.0
C571 C 0.03574 0.27737 0.37296 0.0
C572 C 0.03755 0.27345 0.397 0.0
C573 C 0.03458 0.30989 0.36261 0.0
C574 C 0.03066 0.31584 0.33739 0.0
C575 C 0.00383 0.30188 0.32494 0.0
C576 C 1.00039 0.30741 0.30116 0.0
C577 C 0.02348 0.32708 0.28965 0.0
C578 C 0.05002 0.34133 0.30192 0.0
C579 C 0.0536 0.33584 0.3257 0.0
H580 H 0.02077 0.33134 0.27124 0.0
H581 H 0.05163 0.28106 0.50244 0.0
H582 H 0.63818 0.00284 0.91884 0.0
H583 H 0.68627 0.00301 0.89476 0.0
H584 H 0.73069 0.08162 0.93334 0.0
H585 H 0.68261 0.08167 0.95741 0.0
H586 H 0.73823 0.09411 0.88915 0.0
H587 H 0.75718 0.9996 0.94099 0.0
H588 H 0.74343 0.94643 0.96095 0.0
H589 H 0.73308 0.89982 0.89643 0.0
H590 H 0.74632 0.95285 0.87605 0.0
H591 H 0.90277 0.08077 0.85122 0.0
H592 H 0.85377 0.08053 0.87436 0.0
H593 H 0.80905 0.00496 0.83316 0.0
H594 H 0.85789 0.00526 0.80975 0.0
H595 H 0.80137 0.99074 0.87821 0.0
H596 H 0.78343 0.0859 0.82657 0.0
H597 H 0.79794 0.13923 0.80714 0.0
H598 H 0.80735 0.1848 0.87208 0.0
H599 H 0.79334 0.1316 0.89193 0.0
C600 C 0.65828 0.02002 0.92232 0.0
C601 C 0.65649 0.04218 0.94015 0.0
C602 C 0.68582 0.0201 0.90851 0.0
C603 C 0.71245 0.04204 0.91236 0.0
C604 C 0.71052 0.06446 0.92996 0.0
C605 C 0.68292 0.06452 0.9437 0.0
C606 C 0.74222 0.04173 0.89804 0.0
C607 C 0.75226 0.07156 0.88702 0.0
C608 C 0.76026 0.01223 0.89478 0.0
C609 C 0.75242 0.98028 0.90699 0.0
C610 C 0.75173 0.97807 0.93105 0.0
C611 C 0.74406 0.94795 0.94244 0.0
C612 C 0.7373 0.91979 0.92996 0.0
C613 C 0.73827 0.92167 0.90607 0.0
C614 C 0.74588 0.95174 0.89459 0.0
C615 C 0.88239 0.06434 0.84686 0.0
C616 C 0.88434 0.04317 0.82846 0.0
C617 C 0.85436 0.06418 0.86018 0.0
C618 C 0.82746 0.04299 0.85539 0.0
C619 C 0.82946 0.02152 0.83724 0.0
C620 C 0.8575 0.02166 0.82389 0.0
C621 C 0.79736 0.04312 0.86938 0.0
C622 C 0.78728 0.01326 0.88033 0.0
C623 C 0.77938 0.07262 0.87266 0.0
C624 C 0.78763 0.10468 0.86075 0.0
C625 C 0.78883 0.10723 0.83672 0.0
C626 C 0.79693 0.13745 0.82563 0.0
C627 C 0.80365 0.16537 0.83837 0.0
C628 C 0.80219 0.16315 0.86223 0.0
C629 C 0.79414 0.13298 0.87341 0.0
H630 H 0.80991 0.18874 0.82975 0.0
H631 H 0.73137 0.89649 0.93881 0.0
H632 H 0.01564 0.61279 0.42049 0.0
H633 H 0.01532 0.66363 0.39569 0.0
H634 H 0.06273 0.71676 0.4507 0.0
H635 H 0.06171 0.66615 0.47572 0.0
H636 H 0.0166 0.75421 0.43052 0.0
H637 H 0.10554 0.68971 0.40375 0.0
H638 H 0.13191 0.6401 0.38926 0.0
H639 H 0.0652 0.64534 0.32972 0.0
H640 H 0.03809 0.69472 0.34402 0.0
H641 H 0.06554 0.89519 0.36241 0.0
H642 H 0.06625 0.84435 0.38694 0.0
H643 H 0.01221 0.79312 0.33385 0.0
H644 H 0.0123 0.84362 0.30892 0.0
H645 H 0.06199 0.75498 0.35302 0.0
H646 H 0.97351 0.82049 0.38059 0.0
H647 H 0.94844 0.87043 0.39558 0.0
H648 H 0.01666 0.86377 0.4543 0.0
H649 H 0.04247 0.81405 0.43948 0.0
C650 C 0.02579 0.63544 0.42723 0.0
C651 C 0.03858 0.63573 0.44997 0.0
C652 C 0.02588 0.66442 0.41303 0.0
C653 C 0.03946 0.69409 0.42115 0.0
C654 C 0.05213 0.6943 0.44397 0.0
C655 C 0.05168 0.66541 0.45823 0.0
C656 C 0.04024 0.72493 0.40597 0.0
C657 C 0.02697 0.75442 0.41371 0.0
C658 C 0.05317 0.72528 0.38379 0.0
C659 C 0.06959 0.69573 0.37506 0.0
C660 C 0.09635 0.68015 0.38764 0.0
C661 C 0.11144 0.65209 0.37945 0.0
C662 C 0.10019 0.63953 0.35861 0.0
C663 C 0.07387 0.65507 0.34587 0.0
C664 C 0.05864 0.68311 0.35401 0.0
C665 C 0.05409 0.87305 0.35583 0.0
C666 C 0.03877 0.87363 0.33366 0.0
C667 C 0.05422 0.84403 0.36999 0.0
C668 C 0.0389 0.81493 0.3624 0.0
C669 C 0.02406 0.81526 0.34016 0.0
C670 C 0.02389 0.84428 0.32599 0.0
C671 C 0.03835 0.78416 0.3776 0.0
C672 C 0.05166 0.75471 0.36985 0.0
C673 C 0.02572 0.78392 0.39984 0.0
C674 C 0.01013 0.81374 0.4088 0.0
C675 C 0.98334 0.82983 0.39661 0.0
C676 C 0.96897 0.85807 0.40509 0.0
C677 C 0.98101 0.87032 0.42585 0.0
C678 C 0.00739 0.85429 0.4382 0.0
C679 C 0.02189 0.82607 0.42978 0.0
H680 H 0.96985 0.89219 0.43239 0.0
H681 H 0.11191 0.6178 0.35229 0.0
loop_
_geom_bond_atom_site_label_1
_geom_bond_atom_site_label_2
_geom_bond_distance
_geom_bond_site_symmetry_2
_ccdc_geom_bond_type
C0 C1 1.443 . S
C0 N4 1.376 . S
C0 C38 1.389 . S
C1 C0 1.443 . S
C1 C2 1.340 . S
C1 H41 0.951 . S
C2 C1 1.340 . S
C2 C3 1.439 . S
C2 H42 0.950 . S
C3 C2 1.439 . S
C3 N4 1.374 . S
C3 C37 1.394 1_554 S
N4 C0 1.376 . S
N4 C3 1.374 . S
N4 Co5 2.008 . S
Co5 N4 2.008 . S
Co5 N6 1.995 1_554 S
Co5 N11 2.008 1_554 S
Co5 N16 1.995 . S
Co5 N21 2.282 . S
Co5 N27 2.282 1_554 S
N6 Co5 1.995 1_556 S
N6 C7 1.376 . S
N6 C10 1.383 . S
C7 N6 1.376 . S
C7 C8 1.446 . S
C7 C37 1.392 . S
C8 C7 1.446 . S
C8 C9 1.339 . S
C8 H43 0.949 . S
C9 C8 1.339 . S
C9 C10 1.439 . S
C9 H44 0.950 . S
C10 N6 1.383 . S
C10 C9 1.439 . S
C10 C39 1.392 . S
N11 Co5 2.008 1_556 S
N11 C12 1.376 . S
N11 C15 1.374 1_545 S
C12 N11 1.376 . S
C12 C13 1.443 1_545 S
C12 C39 1.389 . S
C13 C12 1.443 1_565 S
C13 C14 1.340 . S
C13 H45 0.951 . S
C14 C13 1.340 . S
C14 C15 1.439 . S
C14 H46 0.950 . S
C15 N11 1.374 1_565 S
C15 C14 1.439 . S
C15 C40 1.395 1_556 S
N16 Co5 1.995 . S
N16 C17 1.376 1_545 S
N16 C20 1.383 . S
C17 N16 1.376 1_565 S
C17 C18 1.446 . S
C17 C40 1.391 . S
C18 C17 1.446 . S
C18 C19 1.339 . S
C18 H47 0.949 . S
C19 C18 1.339 . S
C19 C20 1.439 1_565 S
C19 H48 0.950 . S
C20 N16 1.383 . S
C20 C19 1.439 1_545 S
C20 C38 1.392 . S
N21 Co5 2.282 . S
N21 C24 1.332 . S
N21 C26 1.332 . S
C22 C23 1.386 . S
C22 C25 1.388 . S
C23 C22 1.386 . S
C23 C24 1.382 . S
C23 H49 0.950 1_545 S
C24 N21 1.332 . S
C24 C23 1.382 . S
C24 H35 0.952 1_545 S
C25 C22 1.388 . S
C25 C26 1.382 . S
C25 H50 0.950 . S
C26 N21 1.332 . S
C26 C25 1.382 . S
C26 H36 0.948 . S
N27 Co5 2.282 1_556 S
N27 C31 1.332 . S
N27 C32 1.332 . S
C28 C29 1.388 . S
C28 C32 1.382 . S
C28 H51 0.950 1_545 S
C29 C28 1.388 . S
C29 C30 1.386 . S
C30 C29 1.386 . S
C30 C31 1.382 . S
C30 H52 0.950 . S
C31 N27 1.332 . S
C31 C30 1.382 . S
C31 H33 0.952 . S
C32 N27 1.332 . S
C32 C28 1.382 . S
C32 H34 0.948 1_545 S
H33 C31 0.952 . S
H34 C32 0.948 1_565 S
H35 C24 0.952 1_565 S
H36 C26 0.948 . S
C37 C3 1.394 1_556 S
C37 C7 1.392 . S
C38 C0 1.389 . S
C38 C20 1.392 . S
C39 C10 1.392 . S
C39 C12 1.389 . S
C40 C15 1.395 1_554 S
C40 C17 1.391 . S
H41 C1 0.951 . S
H42 C2 0.950 . S
H43 C8 0.949 . S
H44 C9 0.950 . S
H45 C13 0.951 . S
H46 C14 0.950 . S
H47 C18 0.949 . S
H48 C19 0.950 . S
H49 C23 0.950 1_565 S
H50 C25 0.950 . S
H51 C28 0.950 1_565 S
H52 C30 0.950 . S
C53 C54 1.443 . S
C53 N57 1.376 . S
C53 C91 1.389 . S
C54 C53 1.443 . S
C54 C55 1.340 . S
C54 H94 0.951 . S
C55 C54 1.340 . S
C55 C56 1.439 . S
C55 H95 0.950 . S
C56 C55 1.439 . S
C56 N57 1.374 . S
C56 C90 1.395 . S
N57 C53 1.376 . S
N57 C56 1.374 . S
N57 Co58 2.008 . S
Co58 N57 2.008 . S
Co58 N59 1.995 . S
Co58 N64 2.014 . S
Co58 N69 1.995 . S
Co58 N74 2.282 . S
Co58 N80 2.282 . S
N59 Co58 1.995 . S
N59 C60 1.376 . S
N59 C63 1.383 . S
C60 N59 1.376 . S
C60 C61 1.446 . S
C60 C90 1.391 . S
C61 C60 1.446 . S
C61 C62 1.339 . S
C61 H96 0.949 . S
C62 C61 1.339 . S
C62 C63 1.439 . S
C62 H97 0.950 . S
C63 N59 1.383 . S
C63 C62 1.439 . S
C63 C92 1.392 . S
N64 Co58 2.014 . S
N64 C65 1.378 . S
N64 C68 1.365 1_455 S
C65 N64 1.378 . S
C65 C66 1.443 1_455 S
C65 C92 1.389 . S
C66 C65 1.443 1_655 S
C66 C67 1.340 . S
C66 H98 0.951 . S
C67 C66 1.340 . S
C67 C68 1.439 . S
C67 H99 0.950 . S
C68 N64 1.365 1_655 S
C68 C67 1.439 . S
C68 C93 1.395 . S
N69 Co58 1.995 . S
N69 C70 1.376 1_455 S
N69 C73 1.383 . S
C70 N69 1.376 1_655 S
C70 C71 1.446 . S
C70 C93 1.391 . S
C71 C70 1.446 . S
C71 C72 1.339 . S
C71 H100 0.949 . S
C72 C71 1.339 . S
C72 C73 1.439 1_655 S
C72 H101 0.950 . S
C73 N69 1.383 . S
C73 C72 1.439 1_455 S
C73 C91 1.392 . S
N74 Co58 2.282 . S
N74 C77 1.332 . S
N74 C79 1.332 . S
C75 C76 1.386 . S
C75 C78 1.388 . S
C76 C75 1.386 . S
C76 C77 1.382 . S
C76 H102 0.950 1_455 S
C77 N74 1.332 . S
C77 C76 1.382 . S
C77 H88 0.952 1_455 S
C78 C75 1.388 . S
C78 C79 1.382 . S
C78 H103 0.950 . S
C79 N74 1.332 . S
C79 C78 1.382 . S
C79 H89 0.948 . S
N80 Co58 2.282 . S
N80 C84 1.332 . S
N80 C85 1.332 . S
C81 C82 1.388 . S
C81 C85 1.382 . S
C81 H104 0.950 1_455 S
C82 C81 1.388 . S
C82 C83 1.386 . S
C83 C82 1.386 . S
C83 C84 1.382 . S
C83 H105 0.950 . S
C84 N80 1.332 . S
C84 C83 1.382 . S
C84 H86 0.952 . S
C85 N80 1.332 . S
C85 C81 1.382 . S
C85 H87 0.948 1_455 S
H86 C84 0.952 . S
H87 C85 0.948 1_655 S
H88 C77 0.952 1_655 S
H89 C79 0.948 . S
C90 C56 1.395 . S
C90 C60 1.391 . S
C91 C53 1.389 . S
C91 C73 1.392 . S
C92 C63 1.392 . S
C92 C65 1.389 . S
C93 C68 1.395 . S
C93 C70 1.391 . S
H94 C54 0.951 . S
H95 C55 0.950 . S
H96 C61 0.949 . S
H97 C62 0.950 . S
H98 C66 0.951 . S
H99 C67 0.950 . S
H100 C71 0.949 . S
H101 C72 0.950 . S
H102 C76 0.950 1_655 S
H103 C78 0.950 . S
H104 C81 0.950 1_655 S
H105 C83 0.950 . S
Li106 N123 1.990 . S
Li106 O166 1.956 . S
Li106 O167 1.970 1_455 S
Li106 O168 1.961 . S
Li107 N131 1.990 . S
Li107 O166 1.970 1_565 S
Li107 O167 1.956 1_465 S
Li107 O169 1.961 . S
Li108 N153 1.990 . S
Li108 O166 1.961 . S
Li108 O168 1.956 . S
Li108 O169 1.970 1_545 S
Li109 N159 1.990 . S
Li109 O167 1.961 . S
Li109 O168 1.970 1_655 S
Li109 O169 1.956 1_645 S
C110 C112 1.348 . S
C110 C113 1.356 . S
C110 O166 1.325 . S
N111 C114 1.314 . S
N111 C115 1.279 . S
C112 C110 1.348 . S
C112 C114 1.353 . S
C112 H170 0.929 1_545 S
C113 C110 1.356 . S
C113 C115 1.358 . S
C113 H171 0.930 . S
C114 N111 1.314 . S
C114 C112 1.353 . S
C114 H172 0.930 1_545 S
C115 N111 1.279 . S
C115 C113 1.358 . S
C115 H173 0.930 . S
C116 C119 1.348 . S
C116 C120 1.356 . S
C116 O167 1.325 . S
C117 N118 1.279 . S
C117 C120 1.358 . S
C117 H174 0.930 1_545 S
N118 C117 1.279 . S
N118 C121 1.314 . S
C119 C116 1.348 . S
C119 C121 1.353 . S
C119 H175 0.929 . S
C120 C116 1.356 . S
C120 C117 1.358 . S
C120 H176 0.930 1_545 S
C121 N118 1.314 . S
C121 C119 1.353 . S
C121 H177 0.930 . S
C122 N123 1.314 . S
C122 C127 1.353 . S
C122 H128 0.926 1_455 S
N123 Li106 1.990 . S
N123 C122 1.314 . S
N123 C125 1.279 . S
C124 C125 1.358 . S
C124 C126 1.356 . S
C124 H178 0.930 . S
C125 N123 1.279 . S
C125 C124 1.358 . S
C125 H129 0.930 . S
C126 C124 1.356 . S
C126 C127 1.348 . S
C127 C122 1.353 . S
C127 C126 1.348 . S
C127 H179 0.929 1_455 S
H128 C122 0.926 1_655 S
H129 C125 0.930 . S
C130 N131 1.314 . S
C130 C132 1.353 . S
C130 H136 0.930 . S
N131 Li107 1.990 . S
N131 C130 1.314 . S
N131 C134 1.279 . S
C132 C130 1.353 . S
C132 C135 1.348 . S
C132 H180 0.929 . S
C133 C134 1.358 . S
C133 C135 1.356 . S
C133 H181 0.930 1_455 S
C134 N131 1.279 . S
C134 C133 1.358 . S
C134 H137 0.930 1_455 S
C135 C132 1.348 . S
C135 C133 1.356 . S
H136 C130 0.930 . S
H137 C134 0.930 1_655 S
C138 C140 1.348 . S
C138 C141 1.356 . S
C138 O168 1.325 . S
N139 C142 1.314 . S
N139 C143 1.279 . S
C140 C138 1.348 . S
C140 C142 1.353 . S
C140 H182 0.929 1_455 S
C141 C138 1.356 . S
C141 C143 1.358 . S
C141 H183 0.930 . S
C142 N139 1.314 . S
C142 C140 1.353 . S
C142 H184 0.930 1_455 S
C143 N139 1.279 . S
C143 C141 1.358 . S
C143 H185 0.930 . S
C144 C145 1.348 . S
C144 C146 1.356 . S
C144 O169 1.325 . S
C145 C144 1.348 . S
C145 C147 1.353 . S
C145 H186 0.929 . S
C146 C144 1.356 . S
C146 C148 1.358 . S
C146 H187 0.930 1_455 S
C147 C145 1.353 . S
C147 N149 1.314 . S
C147 H188 0.930 . S
C148 C146 1.358 . S
C148 N149 1.279 . S
C148 H189 0.930 1_455 S
N149 C147 1.314 . S
N149 C148 1.279 . S
C150 C152 1.353 . S
C150 N153 1.314 . S
C150 H156 0.926 1_545 S
C151 N153 1.279 . S
C151 C154 1.358 . S
C151 H157 0.930 . S
C152 C150 1.353 . S
C152 C155 1.348 . S
C152 H190 0.929 1_545 S
N153 Li108 1.990 . S
N153 C150 1.314 . S
N153 C151 1.279 . S
C154 C151 1.358 . S
C154 C155 1.356 . S
C154 H191 0.930 . S
C155 C152 1.348 . S
C155 C154 1.356 . S
H156 C150 0.926 1_565 S
H157 C151 0.930 . S
C158 N159 1.314 . S
C158 C160 1.353 . S
C158 H164 0.930 . S
N159 Li109 1.990 . S
N159 C158 1.314 . S
N159 C162 1.279 . S
C160 C158 1.353 . S
C160 C163 1.348 . S
C160 H192 0.929 . S
C161 C162 1.358 . S
C161 C163 1.356 . S
C161 H193 0.930 1_545 S
C162 N159 1.279 . S
C162 C161 1.358 . S
C162 H165 0.930 1_545 S
C163 C160 1.348 . S
C163 C161 1.356 . S
H164 C158 0.930 . S
H165 C162 0.930 1_565 S
O166 Li106 1.956 . S
O166 Li107 1.970 1_545 S
O166 Li108 1.961 . S
O166 C110 1.325 . S
O167 Li106 1.970 1_655 S
O167 Li107 1.956 1_645 S
O167 Li109 1.961 . S
O167 C116 1.325 . S
O168 Li106 1.961 . S
O168 Li108 1.956 . S
O168 Li109 1.970 1_455 S
O168 C138 1.325 . S
O169 Li107 1.961 . S
O169 Li108 1.970 1_565 S
O169 Li109 1.956 1_465 S
O169 C144 1.325 . S
H170 C112 0.929 1_565 S
H171 C113 0.930 . S
H172 C114 0.930 1_565 S
H173 C115 0.930 . S
H174 C117 0.930 1_565 S
H175 C119 0.929 . S
H176 C120 0.930 1_565 S
H177 C121 0.930 . S
H178 C124 0.930 . S
H179 C127 0.929 1_655 S
H180 C132 0.929 . S
H181 C133 0.930 1_655 S
H182 C140 0.929 1_655 S
H183 C141 0.930 . S
H184 C142 0.930 1_655 S
H185 C143 0.930 . S
H186 C145 0.929 . S
H187 C146 0.930 1_655 S
H188 C147 0.930 . S
H189 C148 0.930 1_655 S
H190 C152 0.929 1_565 S
H191 C154 0.930 . S
H192 C160 0.929 . S
H193 C161 0.930 1_565 S
Li194 N211 1.990 1_455 S
Li194 O254 1.956 . S
Li194 O255 1.970 . S
Li194 O256 1.961 . S
Li195 N219 1.990 . S
Li195 O254 1.970 . S
Li195 O255 1.956 . S
Li195 O257 1.961 . S
Li196 N241 1.990 . S
Li196 O254 1.961 . S
Li196 O256 1.956 . S
Li196 O257 1.970 . S
Li197 N247 1.990 1_545 S
Li197 O255 1.961 . S
Li197 O256 1.970 . S
Li197 O257 1.956 . S
C198 C200 1.348 . S
C198 C201 1.356 . S
C198 O254 1.325 . S
N199 C202 1.314 . S
N199 C203 1.279 . S
C200 C198 1.348 . S
C200 C202 1.353 . S
C200 H258 0.929 . S
C201 C198 1.356 . S
C201 C203 1.358 . S
C201 H259 0.930 . S
C202 N199 1.314 . S
C202 C200 1.353 . S
C202 H260 0.930 . S
C203 N199 1.279 . S
C203 C201 1.358 . S
C203 H261 0.930 . S
C204 C207 1.348 . S
C204 C208 1.356 . S
C204 O255 1.325 1_565 S
C205 N206 1.279 . S
C205 C208 1.358 . S
C205 H262 0.930 . S
N206 C205 1.279 . S
N206 C209 1.314 . S
C207 C204 1.348 . S
C207 C209 1.353 . S
C207 H263 0.929 . S
C208 C204 1.356 . S
C208 C205 1.358 . S
C208 H264 0.930 . S
C209 N206 1.314 . S
C209 C207 1.353 . S
C209 H265 0.930 . S
C210 N211 1.314 . S
C210 C215 1.353 . S
C210 H216 0.930 . S
N211 Li194 1.990 1_655 S
N211 C210 1.314 . S
N211 C213 1.279 . S
C212 C213 1.358 . S
C212 C214 1.356 . S
C212 H266 0.930 . S
C213 N211 1.279 . S
C213 C212 1.358 . S
C213 H217 0.930 . S
C214 C212 1.356 . S
C214 C215 1.348 . S
C215 C210 1.353 . S
C215 C214 1.348 . S
C215 H267 0.929 . S
H216 C210 0.930 . S
H217 C213 0.930 . S
C218 N219 1.314 . S
C218 C220 1.353 . S
C218 H224 0.930 . S
N219 Li195 1.990 . S
N219 C218 1.314 . S
N219 C222 1.279 . S
C220 C218 1.353 . S
C220 C223 1.348 . S
C220 H268 0.929 . S
C221 C222 1.358 . S
C221 C223 1.356 . S
C221 H269 0.930 . S
C222 N219 1.279 . S
C222 C221 1.358 . S
C222 H225 0.930 . S
C223 C220 1.348 . S
C223 C221 1.356 . S
H224 C218 0.930 . S
H225 C222 0.930 . S
C226 C228 1.348 . S
C226 C229 1.356 . S
C226 O256 1.325 1_655 S
N227 C230 1.314 . S
N227 C231 1.279 . S
C228 C226 1.348 . S
C228 C230 1.353 . S
C228 H270 0.929 . S
C229 C226 1.356 . S
C229 C231 1.358 . S
C229 H271 0.930 . S
C230 N227 1.314 . S
C230 C228 1.353 . S
C230 H272 0.930 . S
C231 N227 1.279 . S
C231 C229 1.358 . S
C231 H273 0.930 . S
C232 C233 1.348 . S
C232 C234 1.356 . S
C232 O257 1.325 . S
C233 C232 1.348 . S
C233 C235 1.353 . S
C233 H274 0.929 . S
C234 C232 1.356 . S
C234 C236 1.358 . S
C234 H275 0.930 . S
C235 C233 1.353 . S
C235 N237 1.314 . S
C235 H276 0.930 . S
C236 C234 1.358 . S
C236 N237 1.279 . S
C236 H277 0.930 . S
N237 C235 1.314 . S
N237 C236 1.279 . S
C238 C240 1.353 . S
C238 N241 1.314 . S
C238 H244 0.930 . S
C239 N241 1.279 . S
C239 C242 1.358 . S
C239 H245 0.930 . S
C240 C238 1.353 . S
C240 C243 1.348 . S
C240 H278 0.929 . S
N241 Li196 1.990 . S
N241 C238 1.314 . S
N241 C239 1.279 . S
C242 C239 1.358 . S
C242 C243 1.356 . S
C242 H279 0.930 . S
C243 C240 1.348 . S
C243 C242 1.356 . S
H244 C238 0.930 . S
H245 C239 0.930 . S
C246 N247 1.314 . S
C246 C248 1.353 . S
C246 H252 0.930 . S
N247 Li197 1.990 1_565 S
N247 C246 1.314 . S
N247 C250 1.279 . S
C248 C246 1.353 . S
C248 C251 1.348 . S
C248 H280 0.929 . S
C249 C250 1.358 . S
C249 C251 1.356 . S
C249 H281 0.930 . S
C250 N247 1.279 . S
C250 C249 1.358 . S
C250 H253 0.930 . S
C251 C248 1.348 . S
C251 C249 1.356 . S
H252 C246 0.930 . S
H253 C250 0.930 . S
O254 Li194 1.956 . S
O254 Li195 1.970 . S
O254 Li196 1.961 . S
O254 C198 1.325 . S
O255 Li194 1.970 . S
O255 Li195 1.956 . S
O255 Li197 1.961 . S
O255 C204 1.325 1_545 S
O256 Li194 1.961 . S
O256 Li196 1.956 . S
O256 Li197 1.970 . S
O256 C226 1.325 1_455 S
O257 Li195 1.961 . S
O257 Li196 1.970 . S
O257 Li197 1.956 . S
O257 C232 1.325 . S
H258 C200 0.929 . S
H259 C201 0.930 . S
H260 C202 0.930 . S
H261 C203 0.930 . S
H262 C205 0.930 . S
H263 C207 0.929 . S
H264 C208 0.930 . S
H265 C209 0.930 . S
H266 C212 0.930 . S
H267 C215 0.929 . S
H268 C220 0.929 . S
H269 C221 0.930 . S
H270 C228 0.929 . S
H271 C229 0.930 . S
H272 C230 0.930 . S
H273 C231 0.930 . S
H274 C233 0.929 . S
H275 C234 0.930 . S
H276 C235 0.930 . S
H277 C236 0.930 . S
H278 C240 0.929 . S
H279 C242 0.930 . S
H280 C248 0.929 . S
H281 C249 0.930 . S
H282 C300 0.951 . S
H283 C302 0.951 . S
H284 C304 0.950 . S
H285 C305 0.950 . S
H286 C307 0.950 . S
H287 C310 0.950 . S
H288 C311 0.950 . S
H289 C313 0.950 . S
H290 C314 0.950 . S
H291 C315 0.951 . S
H292 C317 0.951 . S
H293 C319 0.950 . S
H294 C320 0.950 . S
H295 C322 0.950 . S
H296 C325 0.950 . S
H297 C326 0.950 . S
H298 C328 0.950 . S
H299 C329 0.950 1_545 S
C300 H282 0.951 . S
C300 C301 1.366 . S
C300 C302 1.388 . S
C301 C300 1.366 . S
C301 C305 1.385 . S
C302 H283 0.951 . S
C302 C300 1.388 . S
C302 C303 1.366 . S
C303 C302 1.366 . S
C303 C304 1.414 . S
C303 C306 1.499 . S
C304 H284 0.950 . S
C304 C303 1.414 . S
C304 C305 1.374 . S
C305 H285 0.950 . S
C305 C301 1.385 . S
C305 C304 1.374 . S
C306 C303 1.499 . S
C306 C307 1.373 . S
C306 C308 1.389 . S
C307 H286 0.950 . S
C307 C306 1.373 . S
C307 C323 1.377 . S
C308 C306 1.389 . S
C308 C309 1.524 . S
C308 C322 1.377 . S
C309 C308 1.524 . S
C309 C310 1.397 . S
C309 C314 1.363 . S
C310 H287 0.950 . S
C310 C309 1.397 . S
C310 C311 1.334 . S
C311 H288 0.950 . S
C311 C310 1.334 . S
C311 C312 1.287 . S
C312 C311 1.287 . S
C312 C313 1.524 . S
C312 H331 0.913 . S
C313 H289 0.950 . S
C313 C312 1.524 . S
C313 C314 1.415 . S
C314 H290 0.950 . S
C314 C309 1.363 . S
C314 C313 1.415 . S
C315 H291 0.951 . S
C315 C316 1.366 . S
C315 C317 1.388 . S
C316 C315 1.366 . S
C316 C320 1.385 . S
C317 H292 0.951 . S
C317 C315 1.388 . S
C317 C318 1.366 . S
C318 C317 1.366 . S
C318 C319 1.414 . S
C318 C321 1.499 . S
C319 H293 0.950 . S
C319 C318 1.414 . S
C319 C320 1.374 . S
C320 H294 0.950 . S
C320 C316 1.385 . S
C320 C319 1.374 . S
C321 C318 1.499 . S
C321 C322 1.373 . S
C321 C323 1.389 . S
C322 H295 0.950 . S
C322 C308 1.377 . S
C322 C321 1.373 . S
C323 C307 1.377 . S
C323 C321 1.389 . S
C323 C324 1.524 1_545 S
C324 C323 1.524 1_565 S
C324 C325 1.397 . S
C324 C329 1.363 . S
C325 H296 0.950 . S
C325 C324 1.397 . S
C325 C326 1.334 . S
C326 H297 0.950 . S
C326 C325 1.334 . S
C326 C327 1.287 . S
C327 C326 1.287 . S
C327 C328 1.524 . S
C327 H330 0.999 . S
C328 H298 0.950 . S
C328 C327 1.524 . S
C328 C329 1.415 . S
C329 H299 0.950 1_565 S
C329 C324 1.363 . S
C329 C328 1.415 . S
H330 C327 0.999 . S
H331 C312 0.913 . S
H332 C350 0.951 . S
H333 C352 0.951 . S
H334 C354 0.950 . S
H335 C355 0.950 . S
H336 C357 0.950 . S
H337 C360 0.950 . S
H338 C361 0.950 . S
H339 C363 0.950 . S
H340 C364 0.950 . S
H341 C365 0.951 . S
H342 C367 0.951 . S
H343 C369 0.950 . S
H344 C370 0.950 . S
H345 C372 0.950 . S
H346 C375 0.950 . S
H347 C376 0.950 . S
H348 C378 0.950 . S
H349 C379 0.950 . S
C350 H332 0.951 . S
C350 C351 1.366 . S
C350 C352 1.388 . S
C351 C350 1.366 . S
C351 C355 1.385 . S
C352 H333 0.951 . S
C352 C350 1.388 . S
C352 C353 1.366 . S
C353 C352 1.366 . S
C353 C354 1.414 . S
C353 C356 1.499 . S
C354 H334 0.950 . S
C354 C353 1.414 . S
C354 C355 1.374 . S
C355 H335 0.950 . S
C355 C351 1.385 . S
C355 C354 1.374 . S
C356 C353 1.499 . S
C356 C357 1.373 . S
C356 C358 1.389 . S
C357 H336 0.950 . S
C357 C356 1.373 . S
C357 C373 1.377 . S
C358 C356 1.389 . S
C358 C359 1.524 . S
C358 C372 1.377 . S
C359 C358 1.524 . S
C359 C360 1.397 1_455 S
C359 C364 1.363 . S
C360 H337 0.950 . S
C360 C359 1.397 1_655 S
C360 C361 1.334 . S
C361 H338 0.950 . S
C361 C360 1.334 . S
C361 C362 1.287 . S
C362 C361 1.287 . S
C362 C363 1.524 1_655 S
C362 H381 0.913 . S
C363 H339 0.950 . S
C363 C362 1.524 1_455 S
C363 C364 1.415 . S
C364 H340 0.950 . S
C364 C359 1.363 . S
C364 C363 1.415 . S
C365 H341 0.951 . S
C365 C366 1.366 . S
C365 C367 1.388 . S
C366 C365 1.366 . S
C366 C370 1.385 . S
C367 H342 0.951 . S
C367 C365 1.388 . S
C367 C368 1.366 . S
C368 C367 1.366 . S
C368 C369 1.414 . S
C368 C371 1.499 . S
C369 H343 0.950 . S
C369 C368 1.414 . S
C369 C370 1.374 . S
C370 H344 0.950 . S
C370 C366 1.385 . S
C370 C369 1.374 . S
C371 C368 1.499 . S
C371 C372 1.373 . S
C371 C373 1.389 . S
C372 H345 0.950 . S
C372 C358 1.377 . S
C372 C371 1.373 . S
C373 C357 1.377 . S
C373 C371 1.389 . S
C373 C374 1.524 . S
C374 C373 1.524 . S
C374 C375 1.397 . S
C374 C379 1.363 . S
C375 H346 0.950 . S
C375 C374 1.397 . S
C375 C376 1.334 . S
C376 H347 0.950 . S
C376 C375 1.334 . S
C376 C377 1.287 . S
C377 C376 1.287 . S
C377 C378 1.524 . S
C377 H380 0.999 . S
C378 H348 0.950 . S
C378 C377 1.524 . S
C378 C379 1.415 . S
C379 H349 0.950 . S
C379 C374 1.363 . S
C379 C378 1.415 . S
H380 C377 0.999 . S
H381 C362 0.913 . S
H382 C400 0.951 . S
H383 C402 0.951 . S
H384 C404 0.950 . S
H385 C405 0.950 . S
H386 C407 0.950 . S
H387 C410 0.950 . S
H388 C411 0.950 . S
H389 C413 0.950 . S
H390 C414 0.950 . S
H391 C415 0.951 . S
H392 C417 0.951 . S
H393 C419 0.950 . S
H394 C420 0.950 . S
H395 C422 0.950 1_565 S
H396 C425 0.950 . S
H397 C426 0.950 . S
H398 C428 0.950 . S
H399 C429 0.950 . S
C400 H382 0.951 . S
C400 C401 1.366 . S
C400 C402 1.388 . S
C401 C400 1.366 . S
C401 C405 1.385 . S
C402 H383 0.951 . S
C402 C400 1.388 . S
C402 C403 1.366 . S
C403 C402 1.366 . S
C403 C404 1.414 . S
C403 C406 1.499 . S
C404 H384 0.950 . S
C404 C403 1.414 . S
C404 C405 1.374 . S
C405 H385 0.950 . S
C405 C401 1.385 . S
C405 C404 1.374 . S
C406 C403 1.499 . S
C406 C407 1.373 . S
C406 C408 1.389 . S
C407 H386 0.950 . S
C407 C406 1.373 . S
C407 C423 1.377 . S
C408 C406 1.389 . S
C408 C409 1.524 1_545 S
C408 C422 1.377 . S
C409 C408 1.524 1_565 S
C409 C410 1.397 . S
C409 C414 1.363 . S
C410 H387 0.950 . S
C410 C409 1.397 . S
C410 C411 1.334 . S
C411 H388 0.950 . S
C411 C410 1.334 . S
C411 C412 1.287 . S
C412 C411 1.287 . S
C412 C413 1.524 . S
C412 H431 0.913 . S
C413 H389 0.950 . S
C413 C412 1.524 . S
C413 C414 1.415 . S
C414 H390 0.950 . S
C414 C409 1.363 . S
C414 C413 1.415 . S
C415 H391 0.951 . S
C415 C416 1.366 . S
C415 C417 1.388 . S
C416 C415 1.366 . S
C416 C420 1.385 . S
C417 H392 0.951 . S
C417 C415 1.388 . S
C417 C418 1.366 . S
C418 C417 1.366 . S
C418 C419 1.414 . S
C418 C421 1.499 . S
C419 H393 0.950 . S
C419 C418 1.414 . S
C419 C420 1.374 . S
C420 H394 0.950 . S
C420 C416 1.385 . S
C420 C419 1.374 . S
C421 C418 1.499 . S
C421 C422 1.373 . S
C421 C423 1.389 . S
C422 H395 0.950 1_545 S
C422 C408 1.377 . S
C422 C421 1.373 . S
C423 C407 1.377 . S
C423 C421 1.389 . S
C423 C424 1.524 . S
C424 C423 1.524 . S
C424 C425 1.397 . S
C424 C429 1.363 . S
C425 H396 0.950 . S
C425 C424 1.397 . S
C425 C426 1.334 . S
C426 H397 0.950 . S
C426 C425 1.334 . S
C426 C427 1.287 . S
C427 C426 1.287 . S
C427 C428 1.524 . S
C427 H430 0.999 . S
C428 H398 0.950 . S
C428 C427 1.524 . S
C428 C429 1.415 . S
C429 H399 0.950 . S
C429 C424 1.363 . S
C429 C428 1.415 . S
H430 C427 0.999 . S
H431 C412 0.913 . S
H432 C450 0.951 . S
H433 C452 0.951 . S
H434 C454 0.950 . S
H435 C455 0.950 . S
H436 C457 0.950 . S
H437 C460 0.950 . S
H438 C461 0.950 . S
H439 C463 0.950 . S
H440 C464 0.950 . S
H441 C465 0.951 . S
H442 C467 0.951 . S
H443 C469 0.950 . S
H444 C470 0.950 . S
H445 C472 0.950 . S
H446 C475 0.950 . S
H447 C476 0.950 . S
H448 C478 0.950 . S
H449 C479 0.950 . S
C450 H432 0.951 . S
C450 C451 1.366 . S
C450 C452 1.388 . S
C451 C450 1.366 . S
C451 C455 1.385 . S
C452 H433 0.951 . S
C452 C450 1.388 . S
C452 C453 1.366 . S
C453 C452 1.366 . S
C453 C454 1.414 . S
C453 C456 1.499 . S
C454 H434 0.950 . S
C454 C453 1.414 . S
C454 C455 1.374 . S
C455 H435 0.950 . S
C455 C451 1.385 . S
C455 C454 1.374 . S
C456 C453 1.499 . S
C456 C457 1.373 . S
C456 C458 1.389 . S
C457 H436 0.950 . S
C457 C456 1.373 . S
C457 C473 1.377 . S
C458 C456 1.389 . S
C458 C459 1.524 . S
C458 C472 1.377 . S
C459 C458 1.524 . S
C459 C460 1.397 . S
C459 C464 1.363 . S
C460 H437 0.950 . S
C460 C459 1.397 . S
C460 C461 1.334 . S
C461 H438 0.950 . S
C461 C460 1.334 . S
C461 C462 1.287 . S
C462 C461 1.287 . S
C462 C463 1.524 . S
C462 H481 0.913 . S
C463 H439 0.950 . S
C463 C462 1.524 . S
C463 C464 1.415 . S
C464 H440 0.950 . S
C464 C459 1.363 . S
C464 C463 1.415 . S
C465 H441 0.951 . S
C465 C466 1.366 . S
C465 C467 1.388 . S
C466 C465 1.366 . S
C466 C470 1.385 . S
C467 H442 0.951 . S
C467 C465 1.388 . S
C467 C468 1.366 . S
C468 C467 1.366 . S
C468 C469 1.414 . S
C468 C471 1.499 . S
C469 H443 0.950 . S
C469 C468 1.414 . S
C469 C470 1.374 . S
C470 H444 0.950 . S
C470 C466 1.385 . S
C470 C469 1.374 . S
C471 C468 1.499 . S
C471 C472 1.373 . S
C471 C473 1.389 . S
C472 H445 0.950 . S
C472 C458 1.377 . S
C472 C471 1.373 . S
C473 C457 1.377 . S
C473 C471 1.389 . S
C473 C474 1.524 . S
C474 C473 1.524 . S
C474 C475 1.397 1_455 S
C474 C479 1.363 . S
C475 H446 0.950 . S
C475 C474 1.397 1_655 S
C475 C476 1.334 . S
C476 H447 0.950 . S
C476 C475 1.334 . S
C476 C477 1.287 . S
C477 C476 1.287 . S
C477 C478 1.524 1_655 S
C477 H480 0.999 . S
C478 H448 0.950 . S
C478 C477 1.524 1_455 S
C478 C479 1.415 . S
C479 H449 0.950 . S
C479 C474 1.363 . S
C479 C478 1.415 . S
H480 C477 0.999 . S
H481 C462 0.913 . S
H482 C500 0.951 . S
H483 C502 0.951 . S
H484 C504 0.950 . S
H485 C505 0.950 . S
H486 C507 0.950 . S
H487 C510 0.950 . S
H488 C511 0.950 . S
H489 C513 0.950 . S
H490 C514 0.950 . S
H491 C515 0.951 . S
H492 C517 0.951 . S
H493 C519 0.950 . S
H494 C520 0.950 . S
H495 C522 0.950 . S
H496 C525 0.950 . S
H497 C526 0.950 . S
H498 C528 0.950 . S
H499 C529 0.929 1_545 S
C500 H482 0.951 . S
C500 C501 1.366 . S
C500 C502 1.388 . S
C501 C500 1.366 . S
C501 C505 1.385 . S
C502 H483 0.951 . S
C502 C500 1.388 . S
C502 C503 1.366 . S
C503 C502 1.366 . S
C503 C504 1.414 . S
C503 C506 1.499 . S
C504 H484 0.950 . S
C504 C503 1.414 . S
C504 C505 1.374 . S
C505 H485 0.950 . S
C505 C501 1.385 . S
C505 C504 1.374 . S
C506 C503 1.499 . S
C506 C507 1.373 . S
C506 C508 1.389 . S
C507 H486 0.950 . S
C507 C506 1.373 . S
C507 C523 1.377 . S
C508 C506 1.389 . S
C508 C509 1.524 . S
C508 C522 1.377 . S
C509 C508 1.524 . S
C509 C510 1.397 . S
C509 C514 1.363 . S
C510 H487 0.950 . S
C510 C509 1.397 . S
C510 C511 1.334 . S
C511 H488 0.950 . S
C511 C510 1.334 . S
C511 C512 1.287 . S
C512 C511 1.287 . S
C512 C513 1.524 . S
C512 H531 0.913 . S
C513 H489 0.950 . S
C513 C512 1.524 . S
C513 C514 1.415 . S
C514 H490 0.950 . S
C514 C509 1.363 . S
C514 C513 1.415 . S
C515 H491 0.951 . S
C515 C516 1.366 . S
C515 C517 1.388 . S
C516 C515 1.366 . S
C516 C520 1.385 . S
C517 H492 0.951 . S
C517 C515 1.388 . S
C517 C518 1.366 . S
C518 C517 1.366 . S
C518 C519 1.414 . S
C518 C521 1.499 . S
C519 H493 0.950 . S
C519 C518 1.414 . S
C519 C520 1.374 . S
C520 H494 0.950 . S
C520 C516 1.385 . S
C520 C519 1.374 . S
C521 C518 1.499 . S
C521 C522 1.373 . S
C521 C523 1.389 . S
C522 H495 0.950 . S
C522 C508 1.377 . S
C522 C521 1.373 . S
C523 C507 1.377 . S
C523 C521 1.389 . S
C523 C524 1.524 1_545 S
C524 C523 1.524 1_565 S
C524 C525 1.397 . S
C524 C529 1.363 . S
C525 H496 0.950 . S
C525 C524 1.397 . S
C525 C526 1.334 . S
C526 H497 0.950 . S
C526 C525 1.334 . S
C526 C527 1.287 . S
C527 C526 1.287 . S
C527 C528 1.524 . S
C527 H530 0.999 . S
C528 H498 0.950 . S
C528 C527 1.524 . S
C528 C529 1.415 . S
C529 H499 0.929 1_565 S
C529 C524 1.363 . S
C529 C528 1.415 . S
H530 C527 0.999 . S
H531 C512 0.913 . S
H532 C550 0.951 . S
H533 C552 0.951 . S
H534 C554 0.950 . S
H535 C555 0.950 . S
H536 C557 0.950 . S
H537 C560 0.950 . S
H538 C561 0.950 . S
H539 C563 0.950 . S
H540 C564 0.950 . S
H541 C565 0.951 . S
H542 C567 0.951 . S
H543 C569 0.950 . S
H544 C570 0.950 . S
H545 C572 0.950 . S
H546 C575 0.950 . S
H547 C576 0.950 . S
H548 C578 0.950 1_455 S
H549 C579 0.950 . S
C550 H532 0.951 . S
C550 C551 1.366 . S
C550 C552 1.388 . S
C551 C550 1.366 . S
C551 C555 1.385 . S
C552 H533 0.951 . S
C552 C550 1.388 . S
C552 C553 1.366 . S
C553 C552 1.366 . S
C553 C554 1.414 . S
C553 C556 1.499 . S
C554 H534 0.950 . S
C554 C553 1.414 . S
C554 C555 1.374 . S
C555 H535 0.950 . S
C555 C551 1.385 . S
C555 C554 1.374 . S
C556 C553 1.499 . S
C556 C557 1.373 . S
C556 C558 1.389 . S
C557 H536 0.950 . S
C557 C556 1.373 . S
C557 C573 1.377 . S
C558 C556 1.389 . S
C558 C559 1.524 . S
C558 C572 1.377 . S
C559 C558 1.524 . S
C559 C560 1.397 . S
C559 C564 1.363 . S
C560 H537 0.950 . S
C560 C559 1.397 . S
C560 C561 1.334 . S
C561 H538 0.950 . S
C561 C560 1.334 . S
C561 C562 1.287 . S
C562 C561 1.287 . S
C562 C563 1.524 . S
C562 H581 0.913 . S
C563 H539 0.950 . S
C563 C562 1.524 . S
C563 C564 1.415 . S
C564 H540 0.950 . S
C564 C559 1.363 . S
C564 C563 1.415 . S
C565 H541 0.951 . S
C565 C566 1.366 . S
C565 C567 1.388 . S
C566 C565 1.366 . S
C566 C570 1.385 . S
C567 H542 0.951 . S
C567 C565 1.388 . S
C567 C568 1.366 . S
C568 C567 1.366 . S
C568 C569 1.414 . S
C568 C571 1.499 . S
C569 H543 0.950 . S
C569 C568 1.414 . S
C569 C570 1.374 . S
C570 H544 0.950 . S
C570 C566 1.385 . S
C570 C569 1.374 . S
C571 C568 1.499 . S
C571 C572 1.373 . S
C571 C573 1.389 . S
C572 H545 0.950 . S
C572 C558 1.377 . S
C572 C571 1.373 . S
C573 C557 1.377 . S
C573 C571 1.389 . S
C573 C574 1.524 . S
C574 C573 1.524 . S
C574 C575 1.397 1_455 S
C574 C579 1.363 . S
C575 H546 0.950 . S
C575 C574 1.397 1_655 S
C575 C576 1.334 . S
C576 H547 0.950 . S
C576 C575 1.334 . S
C576 C577 1.287 . S
C577 C576 1.287 . S
C577 C578 1.524 . S
C577 H580 0.999 . S
C578 H548 0.950 1_655 S
C578 C577 1.524 . S
C578 C579 1.415 1_655 S
C579 H549 0.950 . S
C579 C574 1.363 . S
C579 C578 1.415 1_455 S
H580 C577 0.999 . S
H581 C562 0.913 . S
H582 C600 0.951 . S
H583 C602 0.951 . S
H584 C604 0.950 . S
H585 C605 0.950 . S
H586 C607 0.950 . S
H587 C610 0.950 . S
H588 C611 0.950 . S
H589 C613 0.950 . S
H590 C614 0.950 . S
H591 C615 0.951 . S
H592 C617 0.951 . S
H593 C619 0.950 . S
H594 C620 0.950 . S
H595 C622 0.950 1_565 S
H596 C625 0.950 . S
H597 C626 0.950 . S
H598 C628 0.950 . S
H599 C629 0.950 . S
C600 H582 0.951 . S
C600 C601 1.366 . S
C600 C602 1.388 . S
C601 C600 1.366 . S
C601 C605 1.385 . S
C602 H583 0.951 . S
C602 C600 1.388 . S
C602 C603 1.366 . S
C603 C602 1.366 . S
C603 C604 1.414 . S
C603 C606 1.499 . S
C604 H584 0.950 . S
C604 C603 1.414 . S
C604 C605 1.374 . S
C605 H585 0.950 . S
C605 C601 1.385 . S
C605 C604 1.374 . S
C606 C603 1.499 . S
C606 C607 1.373 . S
C606 C608 1.389 . S
C607 H586 0.950 . S
C607 C606 1.373 . S
C607 C623 1.377 . S
C608 C606 1.389 . S
C608 C609 1.524 1_545 S
C608 C622 1.377 . S
C609 C608 1.524 1_565 S
C609 C610 1.397 . S
C609 C614 1.363 . S
C610 H587 0.950 . S
C610 C609 1.397 . S
C610 C611 1.334 . S
C611 H588 0.950 . S
C611 C610 1.334 . S
C611 C612 1.287 . S
C612 C611 1.287 . S
C612 C613 1.524 . S
C612 H631 0.913 . S
C613 H589 0.950 . S
C613 C612 1.524 . S
C613 C614 1.415 . S
C614 H590 0.950 . S
C614 C609 1.363 . S
C614 C613 1.415 . S
C615 H591 0.951 . S
C615 C616 1.366 . S
C615 C617 1.388 . S
C616 C615 1.366 . S
C616 C620 1.385 . S
C617 H592 0.951 . S
C617 C615 1.388 . S
C617 C618 1.366 . S
C618 C617 1.366 . S
C618 C619 1.414 . S
C618 C621 1.499 . S
C619 H593 0.950 . S
C619 C618 1.414 . S
C619 C620 1.374 . S
C620 H594 0.950 . S
C620 C616 1.385 . S
C620 C619 1.374 . S
C621 C618 1.499 . S
C621 C622 1.373 . S
C621 C623 1.389 . S
C622 H595 0.950 1_545 S
C622 C608 1.377 . S
C622 C621 1.373 . S
C623 C607 1.377 . S
C623 C621 1.389 . S
C623 C624 1.524 . S
C624 C623 1.524 . S
C624 C625 1.397 . S
C624 C629 1.363 . S
C625 H596 0.950 . S
C625 C624 1.397 . S
C625 C626 1.334 . S
C626 H597 0.950 . S
C626 C625 1.334 . S
C626 C627 1.287 . S
C627 C626 1.287 . S
C627 C628 1.524 . S
C627 H630 0.999 . S
C628 H598 0.950 . S
C628 C627 1.524 . S
C628 C629 1.415 . S
C629 H599 0.950 . S
C629 C624 1.363 . S
C629 C628 1.415 . S
H630 C627 0.999 . S
H631 C612 0.913 . S
H632 C650 0.951 1_655 S
H633 C652 0.951 1_655 S
H634 C654 0.950 . S
H635 C655 0.950 . S
H636 C657 0.950 . S
H637 C660 0.950 . S
H638 C661 0.950 . S
H639 C663 0.950 . S
H640 C664 0.950 . S
H641 C665 0.951 . S
H642 C667 0.951 . S
H643 C669 0.950 1_655 S
H644 C670 0.950 1_655 S
H645 C672 0.950 . S
H646 C675 0.950 . S
H647 C676 0.950 . S
H648 C678 0.950 . S
H649 C679 0.950 . S
C650 H632 0.951 1_455 S
C650 C651 1.366 . S
C650 C652 1.388 . S
C651 C650 1.366 . S
C651 C655 1.385 . S
C652 H633 0.951 1_455 S
C652 C650 1.388 . S
C652 C653 1.366 . S
C653 C652 1.366 . S
C653 C654 1.414 . S
C653 C656 1.499 . S
C654 H634 0.950 . S
C654 C653 1.414 . S
C654 C655 1.374 . S
C655 H635 0.950 . S
C655 C651 1.385 . S
C655 C654 1.374 . S
C656 C653 1.499 . S
C656 C657 1.373 . S
C656 C658 1.389 . S
C657 H636 0.950 . S
C657 C656 1.373 . S
C657 C673 1.377 . S
C658 C656 1.389 . S
C658 C659 1.524 . S
C658 C672 1.377 . S
C659 C658 1.524 . S
C659 C660 1.397 . S
C659 C664 1.363 1_455 S
C660 H637 0.950 . S
C660 C659 1.397 . S
C660 C661 1.334 . S
C661 H638 0.950 . S
C661 C660 1.334 . S
C661 C662 1.287 1_455 S
C662 C661 1.287 1_655 S
C662 C663 1.524 . S
C662 H681 0.913 . S
C663 H639 0.950 . S
C663 C662 1.524 . S
C663 C664 1.415 . S
C664 H640 0.950 . S
C664 C659 1.363 1_655 S
C664 C663 1.415 . S
C665 H641 0.951 . S
C665 C666 1.366 . S
C665 C667 1.388 . S
C666 C665 1.366 . S
C666 C670 1.385 . S
C667 H642 0.951 . S
C667 C665 1.388 . S
C667 C668 1.366 . S
C668 C667 1.366 . S
C668 C669 1.414 . S
C668 C671 1.499 . S
C669 H643 0.950 1_455 S
C669 C668 1.414 . S
C669 C670 1.374 . S
C670 H644 0.950 1_455 S
C670 C666 1.385 . S
C670 C669 1.374 . S
C671 C668 1.499 . S
C671 C672 1.373 . S
C671 C673 1.389 . S
C672 H645 0.950 . S
C672 C658 1.377 . S
C672 C671 1.373 . S
C673 C657 1.377 . S
C673 C671 1.389 . S
C673 C674 1.524 . S
C674 C673 1.524 . S
C674 C675 1.397 . S
C674 C679 1.363 . S
C675 H646 0.950 . S
C675 C674 1.397 . S
C675 C676 1.334 . S
C676 H647 0.950 . S
C676 C675 1.334 . S
C676 C677 1.287 . S
C677 C676 1.287 . S
C677 C678 1.524 . S
C677 H680 0.999 . S
C678 H648 0.950 . S
C678 C677 1.524 . S
C678 C679 1.415 . S
C679 H649 0.950 . S
C679 C674 1.363 . S
C679 C678 1.415 . S
H680 C677 0.999 . S
H681 C662 0.913 . S
C316 C155 1.489 . S
C301 C22 1.489 . S
C366 C243 1.487 . S
C351 C91 1.487 . S
C416 C163 1.487 . S
C401 C38 1.487 . S
C466 C251 1.490 . S
C451 C75 1.490 . S
C516 C223 1.487 . S
C501 C39 1.487 . S
C566 C126 1.490 . S
C551 C82 1.490 . S
C616 C214 1.490 . S
C601 C29 1.490 . S
C651 C92 1.487 . S
C666 C135 1.487 . S
