# Generated by pormake.
# Topology anh, (6,3)-cn, num edge types: 1
# Building blocks:
#     Node 0, Type 0, BuildingBlock: CUWYAW_clean_sbu_0, # of connection points: 6
#     Node 1, Type 0, BuildingBlock: CUWYAW_clean_sbu_0, # of connection points: 6
#     Node 2, Type 0, BuildingBlock: CUWYAW_clean_sbu_0, # of connection points: 6
#     Node 3, Type 1, BuildingBlock: WUSLED_clean_sbu_0, # of connection points: 3
#     Node 4, Type 1, BuildingBlock: WUSLED_clean_sbu_0, # of connection points: 3
#     Node 5, Type 1, BuildingBlock: WUSLED_clean_sbu_0, # of connection points: 3
#     Node 6, Type 1, BuildingBlock: WUSLED_clean_sbu_0, # of connection points: 3
#     Node 7, Type 1, BuildingBlock: WUSLED_clean_sbu_0, # of connection points: 3
#     Node 8, Type 1, BuildingBlock: WUSLED_clean_sbu_0, # of connection points: 3
#     Edge 9, Type (0, 1), BuildingBlock: CIFDUS_clean_linker_0, # of connection points: 2
#     Edge 10, Type (0, 1), BuildingBlock: CIFDUS_clean_linker_0, # of connection points: 2
#     Edge 11, Type (0, 1), BuildingBlock: CIFDUS_clean_linker_0, # of connection points: 2
#     Edge 12, Type (0, 1), BuildingBlock: CIFDUS_clean_linker_0, # of connection points: 2
#     Edge 13, Type (0, 1), BuildingBlock: CIFDUS_clean_linker_0, # of connection points: 2
#     Edge 14, Type (0, 1), BuildingBlock: CIFDUS_clean_linker_0, # of connection points: 2
#     Edge 15, Type (0, 1), BuildingBlock: CIFDUS_clean_linker_0, # of connection points: 2
#     Edge 16, Type (0, 1), BuildingBlock: CIFDUS_clean_linker_0, # of connection points: 2
#     Edge 17, Type (0, 1), BuildingBlock: CIFDUS_clean_linker_0, # of connection points: 2
#     Edge 18, Type (0, 1), BuildingBlock: CIFDUS_clean_linker_0, # of connection points: 2
#     Edge 19, Type (0, 1), BuildingBlock: CIFDUS_clean_linker_0, # of connection points: 2
#     Edge 20, Type (0, 1), BuildingBlock: CIFDUS_clean_linker_0, # of connection points: 2
#     Edge 21, Type (0, 1), BuildingBlock: CIFDUS_clean_linker_0, # of connection points: 2
#     Edge 22, Type (0, 1), BuildingBlock: CIFDUS_clean_linker_0, # of connection points: 2
#     Edge 23, Type (0, 1), BuildingBlock: CIFDUS_clean_linker_0, # of connection points: 2
#     Edge 24, Type (0, 1), BuildingBlock: CIFDUS_clean_linker_0, # of connection points: 2
#     Edge 25, Type (0, 1), BuildingBlock: CIFDUS_clean_linker_0, # of connection points: 2
#     Edge 26, Type (0, 1), BuildingBlock: CIFDUS_clean_linker_0, # of connection points: 2
# Relax obj value: 0.242
# Max RMSD: 0.182
# Mean RMSD: 0.151
data_MOF--net-anh--node1-CUWYAW_clean_sbu_0--node2-WUSLED_clean_sbu_0--edge1-CIFDUS_clean_linker_0
_symmetry_space_group_name_H-M    P1
_symmetry_Int_Tables_number       1
_symmetry_cell_setting            triclinic
loop_
_symmetry_equiv_pos_as_xyz
'x, y, z'
_cell_length_a     35.270939
_cell_length_b     35.285402
_cell_length_c     63.117664
_cell_angle_alpha  90.003957
_cell_angle_beta   90.511313
_cell_angle_gamma 120.44383
loop_
_atom_site_label
_atom_site_type_symbol
_atom_site_fract_x
_atom_site_fract_y
_atom_site_fract_z
_atom_type_partial_charge
C0 C 1.05171 0.44239 0.15771 0.0
Eu1 Eu 1.10078 0.52338 0.17049 0.0
C2 C 1.00698 0.4189 0.14872 0.0
C3 C 0.97738 0.37615 0.15551 0.0
C4 C 0.9324 0.35755 0.15146 0.0
C5 C 0.91658 0.38171 0.14068 0.0
C6 C 0.94669 0.42272 0.13208 0.0
C7 C 0.99162 0.44128 0.13612 0.0
C8 C 0.121 0.55076 0.21169 0.0
C9 C 1.03827 0.56993 0.17001 0.0
C10 C 0.18973 0.69964 0.19158 0.0
Eu11 Eu 0.14264 0.6206 0.17659 0.0
C12 C 0.23609 0.72819 0.19783 0.0
C13 C 0.2701 0.74332 0.18293 0.0
C14 C 0.31369 0.77145 0.18923 0.0
C15 C 0.32391 0.7845 0.21052 0.0
C16 C 0.28999 0.76826 0.22546 0.0
C17 C 0.24649 0.74053 0.21914 0.0
C18 C 0.11839 0.59354 0.13632 0.0
C19 C 0.20657 0.57711 0.16859 0.0
O20 O 1.08189 0.47328 0.14598 0.0
O21 O 1.05426 0.45461 0.17748 0.0
O22 O 0.12647 0.52023 0.20332 0.0
O23 O 1.10449 0.56466 0.19808 0.0
O24 O 1.04304 0.53603 0.16468 0.0
O25 O 1.07207 0.6063 0.1779 0.0
O26 O 0.16677 0.66527 0.20358 0.0
O27 O 0.18111 0.69105 0.17135 0.0
O28 O 0.11682 0.62642 0.14462 0.0
O29 O 0.13592 0.57931 0.14912 0.0
O30 O 0.20317 0.61114 0.17525 0.0
O31 O 0.17074 0.53894 0.16429 0.0
H32 H 0.98864 0.35847 0.16529 0.0
H33 H 0.9098 0.32601 0.1584 0.0
H34 H 0.93521 0.44183 0.12365 0.0
H35 H 1.01384 0.47438 0.13071 0.0
H36 H 0.26311 0.734 0.16638 0.0
H37 H 0.33931 0.78357 0.17745 0.0
H38 H 0.29684 0.77848 0.24191 0.0
H39 H 0.22083 0.72926 0.23089 0.0
C40 C 0.62031 0.1804 0.49685 0.0
Eu41 Eu 0.64441 0.12522 0.50877 0.0
C42 C 0.64806 0.22622 0.48999 0.0
C43 C 0.68923 0.25277 0.49969 0.0
C44 C 0.71632 0.2959 0.49325 0.0
C45 C 0.70294 0.31385 0.47696 0.0
C46 C 0.66215 0.28684 0.46677 0.0
C47 C 0.63493 0.24322 0.47323 0.0
C48 C 0.65033 0.10581 0.55014 0.0
C49 C 0.75389 0.18266 0.51009 0.0
C50 C 0.71453 1.0236 0.53004 0.0
Eu51 Eu 0.69448 0.07965 0.5155 0.0
C52 C 0.69268 0.97647 0.52505 0.0
C53 C 0.6767 0.96148 0.50441 0.0
C54 C 0.65238 0.9166 0.49996 0.0
C55 C 0.643 0.88593 0.51613 0.0
C56 C 0.6585 0.90091 0.53683 0.0
C57 C 0.68324 0.94592 0.54124 0.0
C58 C 0.69354 0.101 0.47484 0.0
C59 C 0.58612 1.01997 0.50512 0.0
O60 O 0.61934 0.15071 0.48415 0.0
O61 O 0.62467 0.17273 0.51673 0.0
O62 O 0.61468 0.10077 0.54128 0.0
O63 O 0.68115 0.12099 0.53686 0.0
O64 O 0.71683 0.17921 0.50278 0.0
O65 O 0.75274 0.14875 0.51973 0.0
O66 O 0.69041 1.03542 0.54063 0.0
O67 O 0.73577 1.05028 0.51443 0.0
O68 O 0.72587 0.09857 0.4833 0.0
O69 O 0.66144 0.08717 0.48732 0.0
O70 O 0.62331 1.02173 0.51096 0.0
O71 O 0.58547 1.0568 0.50212 0.0
H72 H 0.70031 0.24058 0.51265 0.0
H73 H 0.74687 0.31577 0.50188 0.0
H74 H 0.65095 0.29964 0.45413 0.0
H75 H 0.60359 0.22296 0.46529 0.0
H76 H 0.68244 0.98445 0.49174 0.0
H77 H 0.64061 0.90582 0.48393 0.0
H78 H 0.65216 0.87781 0.54951 0.0
H79 H 0.69455 0.95687 0.55731 0.0
C80 C 0.79494 0.68608 0.83784 0.0
Eu81 Eu 0.71165 0.65514 0.84332 0.0
C82 C 0.81852 0.66188 0.84057 0.0
C83 C 0.81011 0.63485 0.85834 0.0
C84 C 0.82373 0.60409 0.85881 0.0
C85 C 0.84565 0.59932 0.84147 0.0
C86 C 0.85616 0.62791 0.82416 0.0
C87 C 0.84259 0.65893 0.82371 0.0
C88 C 0.6747 0.63686 0.88256 0.0
C89 C 0.66929 0.54681 0.83968 0.0
C90 C 0.53294 0.55861 0.84923 0.0
Eu91 Eu 0.61688 0.59819 0.84208 0.0
C92 C 0.49493 0.56525 0.84852 0.0
C93 C 0.46261 0.54413 0.83269 0.0
C94 C 0.4224 0.54257 0.83409 0.0
C95 C 0.41362 0.56163 0.8515 0.0
C96 C 0.44737 0.58591 0.86637 0.0
C97 C 0.48766 0.58765 0.86492 0.0
C98 C 0.65389 0.61415 0.80353 0.0
C99 C 0.65946 0.70684 0.83812 0.0
O100 O 0.76642 0.67171 0.82222 0.0
O101 O 0.77927 0.69369 0.85501 0.0
O102 O 0.70548 0.67544 0.87662 0.0
O103 O 0.66487 0.6094 0.86762 0.0
O104 O 0.70347 0.58686 0.83681 0.0
O105 O 0.63105 0.54217 0.84502 0.0
O106 O 0.56296 0.57932 0.86395 0.0
O107 O 0.54943 0.55659 0.8311 0.0
O108 O 0.62196 0.57606 0.80924 0.0
O109 O 0.66356 0.64239 0.81794 0.0
O110 O 0.62465 0.66789 0.84287 0.0
O111 O 0.69813 0.71008 0.83531 0.0
H112 H 0.79106 0.63582 0.87147 0.0
H113 H 0.81601 0.58318 0.87257 0.0
H114 H 0.87298 0.6249 0.81056 0.0
H115 H 0.84876 0.67891 0.8097 0.0
H116 H 0.4674 0.52665 0.81985 0.0
H117 H 0.39719 0.52412 0.82226 0.0
H118 H 0.44156 0.60063 0.88009 0.0
H119 H 0.51196 0.60429 0.87735 0.0
C120 C 0.64311 0.26996 0.22531 0.0
C121 C 0.68149 0.30832 0.23175 0.0
C122 C 0.69917 0.32923 0.19486 0.0
C123 C 0.70934 0.33794 0.21658 0.0
C124 C 0.65795 0.29373 0.18878 0.0
C125 C 0.63012 0.26418 0.20396 0.0
U126 U 0.63143 0.20995 0.27794 0.0
O127 O 0.63291 0.14883 0.28135 0.0
O128 O 0.57412 0.1509 0.29073 0.0
C129 C 0.5915 0.12622 0.28692 0.0
C130 C 0.62306 0.23155 0.23914 0.0
C131 C 0.56495 0.08649 0.27412 0.0
C132 C 0.55099 1.0152 0.2621 0.0
C133 C 0.57379 1.05203 0.27519 0.0
C134 C 0.51019 1.04696 0.24673 0.0
C135 C 0.51872 1.01214 0.24782 0.0
C136 C 0.53331 0.08394 0.25965 0.0
C137 C 0.68857 0.25338 0.32861 0.0
C138 C 0.67333 0.19549 0.35373 0.0
C139 C 0.71807 0.27182 0.36445 0.0
C140 C 0.71336 0.28505 0.3441 0.0
C141 C 0.69809 0.22679 0.36942 0.0
C142 C 0.6687 0.20865 0.33359 0.0
C143 C 0.68159 0.26537 0.30727 0.0
O144 O 0.64998 0.21774 0.24466 0.0
O145 O 0.59858 0.23131 0.25481 0.0
O146 O 0.64112 0.25647 0.30354 0.0
O147 O 0.69716 0.25184 0.29202 0.0
H148 H 0.69207 0.31306 0.24819 0.0
H149 H 0.74096 0.36486 0.22178 0.0
H150 H 0.64911 0.28656 0.17218 0.0
H151 H 0.60056 0.23461 0.19877 0.0
H152 H 0.55865 0.98916 0.26316 0.0
H153 H 0.59871 1.05387 0.28601 0.0
H154 H 0.48498 1.04532 0.2362 0.0
H155 H 0.52644 0.11049 0.25827 0.0
H156 H 0.65663 0.16063 0.35711 0.0
H157 H 0.73743 0.29669 0.37623 0.0
H158 H 0.72878 0.31974 0.34051 0.0
H159 H 0.64905 0.18373 0.3219 0.0
C160 C 0.61072 0.5992 0.539 0.0
C161 C 0.59572 0.6152 0.55523 0.0
C162 C 0.56184 0.63949 0.529 0.0
C163 C 0.57139 0.63521 0.55028 0.0
C164 C 0.57106 0.61712 0.51323 0.0
C165 C 0.59602 0.59764 0.51818 0.0
U166 U 0.69542 0.60364 0.57725 0.0
O167 O 0.72681 0.56354 0.57987 0.0
O168 O 0.767 0.63434 0.57364 0.0
C169 C 0.76479 0.596 0.57331 0.0
C170 C 0.64831 0.59334 0.54308 0.0
C171 C 0.78026 0.58592 0.55375 0.0
C172 C 0.77254 0.57827 0.51545 0.0
C173 C 0.77104 0.59855 0.53412 0.0
C174 C 0.79693 0.53583 0.5355 0.0
C175 C 0.78292 0.5448 0.51614 0.0
C176 C 0.79542 0.55617 0.55421 0.0
C177 C 0.6842 0.62603 0.63572 0.0
C178 C 0.70898 0.60243 0.66631 0.0
C179 C 0.67735 0.64887 0.67101 0.0
C180 C 0.67214 0.64972 0.6491 0.0
C181 C 0.69446 0.62401 0.67987 0.0
C182 C 0.70404 0.60357 0.64437 0.0
C183 C 0.67097 0.62083 0.61332 0.0
O184 O 0.68453 0.63017 0.54796 0.0
O185 O 0.64112 0.56054 0.55551 0.0
O186 O 0.65484 0.5809 0.60562 0.0
O187 O 0.69782 0.65184 0.60034 0.0
H188 H 0.6067 0.6164 0.57144 0.0
H189 H 0.56495 0.65184 0.56294 0.0
H190 H 0.56307 0.6187 0.49676 0.0
H191 H 0.60705 0.58494 0.5055 0.0
H192 H 0.76186 0.58597 0.50075 0.0
H193 H 0.75899 0.62131 0.53334 0.0
H194 H 0.80467 0.50984 0.5366 0.0
H195 H 0.80231 0.54577 0.5692 0.0
H196 H 0.72267 0.58339 0.67272 0.0
H197 H 0.66547 0.66546 0.68106 0.0
H198 H 0.65665 0.66711 0.64268 0.0
H199 H 0.71378 0.58523 0.63424 0.0
C200 C 0.93289 0.37437 0.8893 0.0
C201 C 0.89998 0.37687 0.9004 0.0
C202 C 0.87901 0.39979 0.86821 0.0
C203 C 0.87301 0.3893 0.88989 0.0
C204 C 0.90887 0.39267 0.85677 0.0
C205 C 0.93574 0.38011 0.86729 0.0
U206 U 0.99767 0.39065 0.9403 0.0
O207 O 1.04418 0.36885 0.94921 0.0
O208 O 1.0669 0.43922 0.94638 0.0
C209 C 1.0781 0.40918 0.94838 0.0
C210 C 0.97003 0.37633 0.9008 0.0
C211 C 0.11395 0.41647 0.93434 0.0
C212 C 0.13904 0.41281 0.8991 0.0
C213 C 1.10497 0.39927 0.91364 0.0
C214 C 0.19121 0.46047 0.9259 0.0
C215 C 0.18227 0.44429 0.905 0.0
C216 C 0.15727 0.44661 0.94047 0.0
C217 C 0.96398 0.4123 0.99322 0.0
C218 C 0.98958 0.40469 0.02806 0.0
C219 C 0.98954 0.4714 0.01919 0.0
C220 C 0.97158 0.45388 0.9993 0.0
C221 C 0.99966 0.44743 0.03368 0.0
C222 C 0.97211 0.38736 0.00802 0.0
C223 C 0.95212 0.39781 0.9709 0.0
O224 O 0.99715 0.41548 0.90865 0.0
O225 O 0.96132 0.34431 0.91413 0.0
O226 O 0.9487 0.36006 0.96561 0.0
O227 O 0.97361 0.42888 0.9569 0.0
H228 H 0.89776 0.37305 0.91746 0.0
H229 H 0.85058 0.39486 0.89917 0.0
H230 H 0.91384 0.40015 0.84003 0.0
H231 H 0.96122 0.37856 0.85854 0.0
H232 H 0.13139 0.39995 0.88307 0.0
H233 H 1.07149 0.3767 0.90851 0.0
H234 H 0.22443 0.48425 0.93091 0.0
H235 H 0.1646 0.4607 0.95627 0.0
H236 H 0.99603 0.38489 0.03897 0.0
H237 H 0.99727 0.50459 0.02275 0.0
H238 H 0.96553 0.4738 0.98826 0.0
H239 H 0.96634 0.35504 1.00394 0.0
C240 C 1.05611 0.49286 0.46857 0.0
C241 C 1.02378 0.47493 0.45247 0.0
C242 C 0.97313 0.41274 0.47538 0.0
C243 C 0.98317 0.4355 0.45577 0.0
C244 C 1.00607 0.43105 0.4913 0.0
C245 C 1.04657 0.47005 0.48792 0.0
U246 U 0.16586 0.60383 0.44751 0.0
O247 O 0.19388 0.66765 0.46447 0.0
O248 O 0.22981 0.63233 0.46487 0.0
C249 C 0.2298 0.6681 0.47067 0.0
C250 C 1.09882 0.53608 0.46672 0.0
C251 C 0.27297 0.71142 0.4711 0.0
C252 C 0.34503 0.75854 0.48843 0.0
C253 C 0.30642 0.7172 0.48543 0.0
C254 C 0.31878 0.78991 0.46238 0.0
C255 C 0.35199 0.79615 0.4772 0.0
C256 C 0.27999 0.74851 0.45948 0.0
C257 C 0.15721 0.59503 0.38368 0.0
C258 C 0.15429 0.61553 0.3469 0.0
C259 C 0.1382 0.54191 0.35482 0.0
C260 C 0.1452 0.55259 0.37658 0.0
C261 C 0.14363 0.57354 0.33951 0.0
C262 C 0.16086 0.62598 0.36859 0.0
C263 C 0.17251 0.6105 0.40582 0.0
O264 O 0.13516 0.53678 0.46144 0.0
O265 O 1.09849 0.57164 0.46075 0.0
O266 O 0.15242 0.62638 0.41705 0.0
O267 O 0.18811 0.5903 0.41736 0.0
H268 H 1.02974 0.49148 0.43738 0.0
H269 H 0.95973 0.42287 0.44277 0.0
H270 H 1.00039 0.41599 0.50676 0.0
H271 H 1.07039 0.48303 0.50079 0.0
H272 H 0.36872 0.7611 0.5002 0.0
H273 H 0.3021 0.68975 0.49494 0.0
H274 H 0.32247 0.81716 0.45294 0.0
H275 H 0.25515 0.74578 0.44837 0.0
H276 H 0.15957 0.64124 0.3359 0.0
H277 H 0.12915 0.50891 0.35002 0.0
H278 H 0.14236 0.52799 0.38774 0.0
H279 H 0.17081 0.6592 0.37351 0.0
C280 C 0.66547 1.01788 0.80369 0.0
C281 C 0.62712 0.97578 0.80357 0.0
C282 C 0.66977 0.93867 0.80995 0.0
C283 C 0.62923 0.93699 0.80653 0.0
C284 C 0.70798 0.98096 0.80998 0.0
C285 C 0.70585 1.01948 0.80693 0.0
U286 U 0.66139 0.1273 0.78647 0.0
O287 O 0.62616 0.15396 0.80439 0.0
O288 O 0.69783 0.1911 0.80376 0.0
C289 C 0.66208 0.19053 0.81 0.0
C290 C 0.66349 1.05989 0.8044 0.0
C291 C 0.66144 0.23326 0.81011 0.0
C292 C 0.69585 0.31099 0.82135 0.0
C293 C 0.69796 0.2724 0.81795 0.0
C294 C 0.62082 0.27307 0.80878 0.0
C295 C 0.65691 0.31198 0.81723 0.0
C296 C 0.62295 0.23457 0.80539 0.0
C297 C 0.65818 0.11898 0.72272 0.0
C298 C 0.68791 0.13767 0.68685 0.0
C299 C 0.61597 0.07414 0.69222 0.0
C300 C 0.62032 0.08239 0.71418 0.0
C301 C 0.64913 0.10244 0.6781 0.0
C302 C 0.69228 0.14582 0.70879 0.0
C303 C 0.6595 0.13474 0.74486 0.0
O304 O 0.69874 0.09748 0.79962 0.0
O305 O 0.62688 1.05931 0.79942 0.0
O306 O 0.62402 0.11428 0.75653 0.0
O307 O 0.69623 0.15102 0.75598 0.0
H308 H 0.59515 0.97275 0.80168 0.0
H309 H 0.59885 0.90563 0.80617 0.0
H310 H 0.73997 0.9848 0.81306 0.0
H311 H 0.73613 1.05092 0.80788 0.0
H312 H 0.7244 0.33956 0.82804 0.0
H313 H 0.72797 0.27281 0.82221 0.0
H314 H 0.59034 0.27202 0.80492 0.0
H315 H 0.59384 0.20538 0.79955 0.0
H316 H 0.71407 0.16058 0.67668 0.0
H317 H 0.58593 1.04614 0.68627 0.0
H318 H 0.59316 1.06114 0.72432 0.0
H319 H 0.72153 0.17477 0.71474 0.0
C320 C 0.73784 0.59031 0.14378 0.0
C321 C 0.7498 0.56475 0.13138 0.0
C322 C 0.82059 0.59326 0.1508 0.0
C323 C 0.79048 0.56632 0.13478 0.0
C324 C 0.80796 0.61844 0.16314 0.0
C325 C 0.76775 0.61708 0.15965 0.0
U326 U 0.63202 0.58772 0.11763 0.0
O327 O 0.56308 0.54753 0.12857 0.0
O328 O 0.59614 0.61919 0.13075 0.0
C329 C 0.55982 0.58164 0.13429 0.0
C330 C 0.6934 0.58712 0.14239 0.0
C331 C 0.51529 0.57875 0.13359 0.0
C332 C 0.43513 0.53456 0.13875 0.0
C333 C 0.4763 0.53777 0.13568 0.0
C334 C 0.46979 0.61337 0.13765 0.0
C335 C 0.4307 0.57222 0.13993 0.0
C336 C 0.51118 0.61655 0.13464 0.0
C337 C 0.63654 0.59823 0.0537 0.0
C338 C 0.6369 0.64267 0.02389 0.0
C339 C 0.63682 0.57528 0.0171 0.0
C340 C 0.63579 0.56784 0.03901 0.0
C341 C 0.63876 0.61352 0.00915 0.0
C342 C 0.63608 0.63529 0.04583 0.0
C343 C 0.64636 0.59464 0.07644 0.0
O344 O 0.69213 0.62281 0.1378 0.0
O345 O 0.65974 0.55155 0.13423 0.0
O346 O 0.6248 0.5566 0.08616 0.0
O347 O 0.659 0.62862 0.08914 0.0
H348 H 0.7276 0.54323 0.11915 0.0
H349 H 0.79835 0.54652 0.12468 0.0
H350 H 0.8287 0.63879 0.17604 0.0
H351 H 0.75953 0.63652 0.16985 0.0
H352 H 0.40684 0.5021 0.14091 0.0
H353 H 0.47769 0.50781 0.1357 0.0
H354 H 0.46861 0.6434 0.13821 0.0
H355 H 0.54022 0.6489 0.13366 0.0
H356 H 0.63739 0.67205 0.01851 0.0
H357 H 0.63865 0.55218 1.00648 0.0
H358 H 0.63696 0.53936 0.04451 0.0
H359 H 0.63699 0.65962 0.05662 0.0
H360 H 0.22837 0.52087 0.14846 0.0
H361 H 0.28793 0.64621 0.18058 0.0
H362 H 0.36096 0.65618 0.17472 0.0
H363 H 0.4091 0.62931 0.16064 0.0
H364 H 0.34864 0.50538 0.12695 0.0
H365 H 0.27632 0.49528 0.13346 0.0
C366 C 0.2572 0.55039 0.1543 0.0
C367 C 0.25175 0.58253 0.16515 0.0
C368 C 0.29972 0.55632 0.15063 0.0
C369 C 0.29027 0.62063 0.17226 0.0
C370 C 0.33241 0.62643 0.16888 0.0
C371 C 0.38034 0.60017 0.15448 0.0
C372 C 0.38567 0.56795 0.14347 0.0
C373 C 0.33779 0.59456 0.15803 0.0
C374 C 0.34686 0.53052 0.13595 0.0
C375 C 0.30491 0.52473 0.13953 0.0
H376 H 0.77339 0.25222 0.48301 0.0
H377 H 0.83437 0.20714 0.52806 0.0
H378 H 0.90591 0.27234 0.52141 0.0
H379 H 0.95234 0.34211 0.50246 0.0
H380 H 0.89128 0.38793 0.45767 0.0
H381 H 0.82025 0.32227 0.46391 0.0
C382 C 0.80219 0.25671 0.49155 0.0
C383 C 0.79767 0.22424 0.50627 0.0
C384 C 0.84397 0.29459 0.48747 0.0
C385 C 0.83609 0.23103 0.51676 0.0
C386 C 0.87735 0.26858 0.51292 0.0
C387 C 0.92366 0.33857 0.49422 0.0
C388 C 0.92858 0.37122 0.47945 0.0
C389 C 0.88189 0.3007 0.49828 0.0
C390 C 0.89 0.36405 0.46883 0.0
C391 C 0.8487 0.32642 0.47264 0.0
H392 H 0.71767 0.78626 0.81958 0.0
H393 H 0.58961 0.71793 0.84816 0.0
H394 H 0.58096 0.78176 0.8421 0.0
H395 H 0.61003 0.85826 0.82891 0.0
H396 H 0.73672 0.92396 0.79858 0.0
H397 H 0.74526 0.86091 0.80528 0.0
C398 C 0.68783 0.78518 0.82461 0.0
C399 C 0.65451 0.74672 0.83454 0.0
C400 C 0.68272 0.82214 0.82079 0.0
C401 C 0.61602 0.74657 0.84057 0.0
C402 C 0.61102 0.78334 0.83707 0.0
C403 C 0.63943 0.85893 0.82353 0.0
C404 C 0.67293 0.89734 0.81345 0.0
C405 C 0.64412 0.8215 0.82716 0.0
C406 C 0.71063 0.89636 0.80688 0.0
C407 C 0.71553 0.85975 0.81056 0.0
H408 H 1.01529 0.63406 0.17583 0.0
H409 H 0.96212 0.50105 0.15351 0.0
H410 H 0.8924 0.49698 0.14475 0.0
H411 H 0.84423 0.52912 0.14488 0.0
H412 H 0.89889 0.66367 0.16565 0.0
H413 H 0.96824 0.66785 0.17414 0.0
C414 C 0.98841 0.60387 0.16927 0.0
C415 C 0.99467 0.56771 0.1656 0.0
C416 C 0.94762 0.60139 0.16435 0.0
C417 C 0.95893 0.52937 0.15676 0.0
C418 C 0.91866 0.52684 0.15181 0.0
C419 C 0.87123 0.55967 0.15104 0.0
C420 C 0.86473 0.59569 0.15484 0.0
C421 C 0.91227 0.56243 0.15568 0.0
C422 C 0.90116 0.6346 0.16302 0.0
C423 C 0.94155 0.6373 0.16778 0.0
H424 H 0.50165 0.99898 0.49208 0.0
H425 H 0.57797 0.93867 0.50862 0.0
H426 H 0.51463 0.86617 0.5014 0.0
H427 H 0.43709 0.81851 0.48997 0.0
H428 H 0.35955 0.87816 0.47454 0.0
H429 H 0.42309 0.95073 0.48132 0.0
C430 C 0.50454 0.97006 0.49417 0.0
C431 C 0.54541 0.97525 0.50097 0.0
C432 C 0.46733 0.92756 0.48998 0.0
C433 C 0.54763 0.93665 0.50347 0.0
C434 C 0.51109 0.89471 0.49929 0.0
C435 C 0.43356 0.84711 0.48822 0.0
C436 C 0.39247 0.84155 0.48144 0.0
C437 C 0.47063 0.88955 0.4925 0.0
C438 C 0.39013 0.88019 0.47916 0.0
C439 C 0.42674 0.92223 0.48328 0.0
H440 H 0.60701 0.45771 0.84311 0.0
H441 H 0.74245 0.54515 0.82639 0.0
H442 H 0.75067 0.48219 0.81789 0.0
H443 H 0.72008 0.40157 0.81511 0.0
H444 H 0.58466 0.31417 0.83205 0.0
H445 H 0.57649 0.37699 0.84049 0.0
C446 C 0.63852 0.46319 0.83779 0.0
C447 C 0.67404 0.50693 0.8356 0.0
C448 C 0.64333 0.42635 0.83292 0.0
C449 C 0.71436 0.51247 0.82846 0.0
C450 C 0.71921 0.47619 0.82356 0.0
C451 C 0.68873 0.39597 0.82074 0.0
C452 C 0.65296 0.35215 0.82256 0.0
C453 C 0.68402 0.43282 0.82575 0.0
C454 C 0.61277 0.34676 0.82987 0.0
C455 C 0.60805 0.38302 0.83494 0.0
H456 H 0.57391 0.81972 0.53684 0.0
H457 H 0.66117 0.84615 0.48432 0.0
H458 H 0.63394 0.76779 0.48013 0.0
H459 H 0.59786 0.69558 0.49614 0.0
H460 H 0.51159 0.66784 0.54932 0.0
H461 H 0.52517 0.74295 0.54818 0.0
C462 C 0.58625 0.80805 0.52427 0.0
C463 C 0.62008 0.83847 0.5112 0.0
C464 C 0.57093 0.76297 0.52217 0.0
C465 C 0.63527 0.82324 0.49463 0.0
C466 C 0.61985 0.77849 0.49229 0.0
C467 C 0.5803 0.70498 0.50695 0.0
C468 C 0.55479 0.67636 0.52324 0.0
C469 C 0.58927 0.74839 0.5066 0.0
C470 C 0.53241 0.6896 0.537 0.0
C471 C 0.54037 0.73263 0.53644 0.0
H472 H 0.79266 0.51482 0.85357 0.0
H473 H 0.92181 0.60359 0.82908 0.0
H474 H 0.94089 0.54615 0.83203 0.0
H475 H 0.92389 0.47441 0.8457 0.0
H476 H 0.79539 0.38606 0.87098 0.0
H477 H 0.77247 0.43952 0.86309 0.0
C478 C 0.82485 0.52146 0.84869 0.0
C479 C 0.85599 0.56353 0.84136 0.0
C480 C 0.83557 0.48842 0.85053 0.0
C481 C 0.89731 0.57149 0.83479 0.0
C482 C 0.90825 0.53872 0.83653 0.0
C483 C 0.89041 0.46621 0.84889 0.0
C484 C 0.8614 0.42646 0.85902 0.0
C485 C 0.87801 0.49749 0.84488 0.0
C486 C 0.81836 0.41663 0.86335 0.0
C487 C 0.80538 0.44724 0.85896 0.0
H488 H 0.37624 0.86146 0.19079 0.0
H489 H 0.37109 0.78474 0.24505 0.0
H490 H 0.4363 0.84838 0.26019 0.0
H491 H 0.48577 0.92796 0.2607 0.0
H492 H 0.49036 1.00522 0.20669 0.0
H493 H 0.43419 0.9389 0.18865 0.0
C494 C 0.39026 0.85832 0.2056 0.0
C495 C 0.36868 0.81885 0.21699 0.0
C496 C 0.42695 0.89525 0.21442 0.0
C497 C 0.3869 0.81517 0.23622 0.0
C498 C 0.42404 0.8515 0.24487 0.0
C499 C 0.47556 0.93024 0.24472 0.0
C500 C 0.49153 0.97156 0.23524 0.0
C501 C 0.44304 0.89214 0.23455 0.0
C502 C 0.47765 0.97387 0.21457 0.0
C503 C 0.4457 0.93598 0.2042 0.0
H504 H 0.67123 0.36882 0.47049 0.0
H505 H 0.79264 0.36772 0.47596 0.0
H506 H 0.83234 0.44595 0.48433 0.0
H507 H 0.8279 0.50821 0.49911 0.0
H508 H 0.70541 0.50748 0.49448 0.0
H509 H 0.67142 0.43737 0.47593 0.0
C510 C 0.70667 0.38594 0.47254 0.0
C511 C 0.72863 0.36206 0.47343 0.0
C512 C 0.7291 0.43073 0.47785 0.0
C513 C 0.7747 0.38508 0.47589 0.0
C514 C 0.79745 0.42986 0.48076 0.0
C515 C 0.79425 0.49334 0.49335 0.0
C516 C 0.76897 0.51242 0.49862 0.0
C517 C 0.77433 0.45215 0.48327 0.0
C518 C 0.72565 0.49342 0.49073 0.0
C519 C 0.70591 0.45295 0.48031 0.0
H520 H 0.34093 0.48119 0.84781 0.0
H521 H 0.38399 0.61448 0.86705 0.0
H522 H 0.31282 0.58988 0.88359 0.0
H523 H 0.24317 0.529 0.89694 0.0
H524 H 0.20164 0.39577 0.87843 0.0
H525 H 0.26723 0.42202 0.85668 0.0
C526 C 0.33433 0.50519 0.85495 0.0
C527 C 0.36788 0.54954 0.85645 0.0
C528 C 0.2939 0.49068 0.8648 0.0
C529 C 0.35886 0.58006 0.866 0.0
C530 C 0.31828 0.56599 0.87549 0.0
C531 C 0.24841 0.50585 0.88795 0.0
C532 C 0.21832 0.46054 0.88955 0.0
C533 C 0.28639 0.52113 0.87578 0.0
C534 C 0.22462 0.4308 0.87749 0.0
C535 C 0.26213 0.44577 0.86515 0.0
H536 H 0.88508 0.43098 0.1558 0.0
H537 H 0.84401 0.30184 0.13133 0.0
H538 H 0.76847 0.27628 0.14248 0.0
H539 H 0.71878 0.28795 0.16468 0.0
H540 H 0.76142 0.41649 0.19093 0.0
H541 H 0.83172 0.44597 0.17275 0.0
C542 C 0.85912 0.39796 0.15195 0.0
C543 C 0.86975 0.36849 0.14254 0.0
C544 C 0.81637 0.38346 0.15892 0.0
C545 C 0.83636 0.32503 0.13852 0.0
C546 C 0.79334 0.31048 0.14495 0.0
C547 C 0.7427 0.32281 0.16575 0.0
C548 C 0.7351 0.35 0.17925 0.0
C549 C 0.78349 0.33899 0.15595 0.0
C550 C 0.76675 0.39492 0.18076 0.0
C551 C 0.80697 0.41166 0.17048 0.0
H552 H 0.1256 0.53258 0.11329 0.0
H553 H 1.0522 0.59964 0.11766 0.0
H554 H 1.00663 0.5578 0.08737 0.0
H555 H 0.98837 0.50313 0.05937 0.0
H556 H 1.06446 0.4389 0.05354 0.0
H557 H 1.10695 0.4773 0.08511 0.0
C558 C 1.0996 0.53791 0.10755 0.0
C559 C 1.09237 0.56921 0.11753 0.0
C560 C 1.07363 0.51387 0.09004 0.0
C561 C 1.05872 0.57605 0.11002 0.0
C562 C 1.03246 0.55195 0.0928 0.0
C563 C 1.01445 0.4977 0.06486 0.0
C564 C 1.02313 0.46818 0.05393 0.0
C565 C 1.0398 0.52098 0.08261 0.0
C566 C 1.05643 0.46088 0.06171 0.0
C567 C 1.08119 0.48324 0.07966 0.0
H568 H 0.68876 0.17307 0.46527 0.0
H569 H 0.70682 1.07195 0.43758 0.0
H570 H 0.71294 0.10388 0.40235 0.0
H571 H 0.71116 0.15946 0.37966 0.0
H572 H 0.69206 0.26017 0.4076 0.0
H573 H 0.68953 0.23016 0.4428 0.0
C574 C 0.69283 0.15742 0.45149 0.0
C575 C 0.69553 0.11931 0.45374 0.0
C576 C 0.69689 0.17633 0.4315 0.0
C577 C 0.70366 0.10081 0.43597 0.0
C578 C 0.70734 0.11914 0.41594 0.0
C579 C 0.70617 0.17472 0.39344 0.0
C580 C 0.70129 0.21169 0.39096 0.0
C581 C 0.70367 0.15672 0.41352 0.0
C582 C 0.69613 0.23184 0.40904 0.0
C583 C 0.69413 0.2144 0.42915 0.0
H584 H 0.64578 0.55662 0.77333 0.0
H585 H 0.69956 0.69499 0.78523 0.0
H586 H 0.72058 0.71095 0.74799 0.0
H587 H 0.7181 0.68465 0.71152 0.0
H588 H 0.66426 0.54603 0.70005 0.0
H589 H 0.64969 0.53116 0.73773 0.0
C590 C 0.66236 0.59022 0.76776 0.0
C591 C 0.67051 0.62447 0.78177 0.0
C592 C 0.67444 0.59915 0.74646 0.0
C593 C 0.6927 0.66805 0.77458 0.0
C594 C 0.70466 0.67723 0.75333 0.0
C595 C 0.7036 0.6513 0.71735 0.0
C596 C 0.69208 0.6165 0.70303 0.0
C597 C 0.69484 0.64288 0.73903 0.0
C598 C 0.67381 0.57344 0.71078 0.0
C599 C 0.66507 0.56482 0.7323 0.0
H600 H 0.58921 0.08331 0.58127 0.0
H601 H 0.72557 0.12449 0.57167 0.0
H602 H 0.73714 0.12564 0.61004 0.0
H603 H 0.70905 0.11706 0.64658 0.0
H604 H 0.57273 0.07732 0.65586 0.0
H605 H 0.56073 1.07283 0.61767 0.0
C606 C 0.62142 0.09232 0.58756 0.0
C607 C 0.65651 0.10401 0.57351 0.0
C608 C 0.62791 0.09307 0.60973 0.0
C609 C 0.69798 0.11548 0.58203 0.0
C610 C 0.70464 0.11617 0.60403 0.0
C611 C 0.67669 0.10749 0.64031 0.0
C612 C 0.6419 0.0974 0.65443 0.0
C613 C 0.66995 0.10546 0.61809 0.0
C614 C 0.60013 0.08453 0.64569 0.0
C615 C 0.59322 0.08232 0.62372 0.0
H616 H 0.70011 0.69196 0.91671 0.0
H617 H 0.61841 0.55559 0.89916 0.0
H618 H 0.59872 0.53628 0.93637 0.0
H619 H 0.60627 0.55801 0.97424 0.0
H620 H 0.68984 0.69471 0.99135 0.0
H621 H 0.70635 0.71377 0.9542 0.0
C622 C 0.67784 0.658 0.92099 0.0
C623 C 0.66096 0.62527 0.90508 0.0
C624 C 0.66676 0.64712 0.94248 0.0
C625 C 0.63202 0.58147 0.91101 0.0
C626 C 0.62077 0.57041 0.93234 0.0
C627 C 0.62819 0.592 0.96991 0.0
C628 C 0.64644 0.62475 0.98592 0.0
C629 C 0.63823 0.60291 0.94829 0.0
C630 C 0.67438 0.66866 0.97966 0.0
C631 C 0.68429 0.67967 0.9583 0.0
H632 H 0.14861 0.51761 0.24373 0.0
H633 H 1.09851 0.60472 0.23215 0.0
H634 H 1.09993 0.6186 0.2702 0.0
H635 H 0.11429 0.60528 0.30697 0.0
H636 H 0.16703 0.5201 0.31844 0.0
H637 H 0.16449 0.50553 0.28059 0.0
C638 C 0.13812 0.53974 0.24952 0.0
C639 C 0.12352 0.56011 0.23495 0.0
C640 C 0.13894 0.54758 0.27157 0.0
C641 C 0.11004 0.58866 0.24287 0.0
C642 C 0.11072 0.59652 0.2647 0.0
C643 C 0.12568 0.58382 0.30131 0.0
C644 C 0.14061 0.56376 0.31601 0.0
C645 C 0.12501 0.57611 0.27926 0.0
C646 C 0.15441 0.53546 0.30793 0.0
C647 C 0.15344 0.52738 0.28611 0.0
loop_
_geom_bond_atom_site_label_1
_geom_bond_atom_site_label_2
_geom_bond_distance
_geom_bond_site_symmetry_2
_ccdc_geom_bond_type
C0 Eu1 2.835 . S
C0 C2 1.500 . S
C0 O20 1.257 . S
C0 O21 1.260 . S
Eu1 C0 2.835 . S
Eu1 O20 2.473 . S
Eu1 O21 2.480 . S
Eu1 O22 2.430 1_655 S
Eu1 O23 2.670 1_655 S
Eu1 O24 2.394 . S
Eu1 O29 2.355 1_655 S
Eu1 O31 2.374 1_655 S
C2 C0 1.500 . S
C2 C3 1.377 . S
C2 C7 1.377 . S
C3 C2 1.377 . S
C3 C4 1.395 . S
C3 H32 0.931 . S
C4 C3 1.395 . S
C4 C5 1.383 . S
C4 H33 0.931 . S
C5 C4 1.383 . S
C5 C6 1.394 . S
C6 C5 1.394 . S
C6 C7 1.378 . S
C6 H34 0.931 . S
C7 C2 1.377 . S
C7 C6 1.378 . S
C7 H35 0.931 . S
C8 O22 1.259 . S
C8 O23 1.270 . S
C9 O24 1.251 . S
C9 O25 1.251 . S
C10 Eu11 2.835 . S
C10 C12 1.500 . S
C10 O26 1.257 . S
C10 O27 1.260 . S
Eu11 C10 2.835 . S
Eu11 O23 2.355 . S
Eu11 O25 2.374 1_455 S
Eu11 O26 2.473 . S
Eu11 O27 2.480 . S
Eu11 O28 2.430 . S
Eu11 O29 2.670 . S
Eu11 O30 2.394 . S
C12 C10 1.500 . S
C12 C13 1.377 . S
C12 C17 1.377 . S
C13 C12 1.377 . S
C13 C14 1.395 . S
C13 H36 0.931 . S
C14 C13 1.395 . S
C14 C15 1.383 . S
C14 H37 0.931 . S
C15 C14 1.383 . S
C15 C16 1.394 . S
C16 C15 1.394 . S
C16 C17 1.378 . S
C16 H38 0.931 . S
C17 C12 1.377 . S
C17 C16 1.378 . S
C17 H39 0.931 . S
C18 O28 1.259 . S
C18 O29 1.270 . S
C19 O30 1.251 . S
C19 O31 1.251 . S
O20 C0 1.257 . S
O20 Eu1 2.473 . S
O21 C0 1.260 . S
O21 Eu1 2.480 . S
O22 Eu1 2.430 1_455 S
O22 C8 1.259 . S
O23 Eu1 2.670 1_455 S
O23 C8 1.270 . S
O23 Eu11 2.355 . S
O24 Eu1 2.394 . S
O24 C9 1.251 . S
O25 C9 1.251 . S
O25 Eu11 2.374 1_655 S
O26 C10 1.257 . S
O26 Eu11 2.473 . S
O27 C10 1.260 . S
O27 Eu11 2.480 . S
O28 Eu11 2.430 . S
O28 C18 1.259 . S
O29 Eu1 2.355 1_455 S
O29 Eu11 2.670 . S
O29 C18 1.270 . S
O30 Eu11 2.394 . S
O30 C19 1.251 . S
O31 Eu1 2.374 1_455 S
O31 C19 1.251 . S
H32 C3 0.931 . S
H33 C4 0.931 . S
H34 C6 0.931 . S
H35 C7 0.931 . S
H36 C13 0.931 . S
H37 C14 0.931 . S
H38 C16 0.931 . S
H39 C17 0.931 . S
C40 Eu41 2.835 . S
C40 C42 1.500 . S
C40 O60 1.257 . S
C40 O61 1.260 . S
Eu41 C40 2.835 . S
Eu41 O60 2.473 . S
Eu41 O61 2.480 . S
Eu41 O62 2.430 . S
Eu41 O63 2.670 . S
Eu41 O64 2.394 . S
Eu41 O69 2.355 . S
Eu41 O71 2.374 1_545 S
C42 C40 1.500 . S
C42 C43 1.377 . S
C42 C47 1.377 . S
C43 C42 1.377 . S
C43 C44 1.395 . S
C43 H72 0.931 . S
C44 C43 1.395 . S
C44 C45 1.383 . S
C44 H73 0.931 . S
C45 C44 1.383 . S
C45 C46 1.394 . S
C46 C45 1.394 . S
C46 C47 1.378 . S
C46 H74 0.931 . S
C47 C42 1.377 . S
C47 C46 1.378 . S
C47 H75 0.931 . S
C48 O62 1.259 . S
C48 O63 1.270 . S
C49 O64 1.251 . S
C49 O65 1.251 . S
C50 Eu51 2.802 1_565 S
C50 C52 1.500 . S
C50 O66 1.257 . S
C50 O67 1.260 . S
Eu51 C50 2.802 1_545 S
Eu51 O63 2.372 . S
Eu51 O65 2.400 . S
Eu51 O66 2.445 1_545 S
Eu51 O67 2.448 1_545 S
Eu51 O68 2.437 . S
Eu51 O69 2.699 . S
Eu51 O70 2.391 1_545 S
C52 C50 1.500 . S
C52 C53 1.377 . S
C52 C57 1.377 . S
C53 C52 1.377 . S
C53 C54 1.395 . S
C53 H76 0.931 . S
C54 C53 1.395 . S
C54 C55 1.383 . S
C54 H77 0.931 . S
C55 C54 1.383 . S
C55 C56 1.394 . S
C56 C55 1.394 . S
C56 C57 1.378 . S
C56 H78 0.931 . S
C57 C52 1.377 . S
C57 C56 1.378 . S
C57 H79 0.931 . S
C58 O68 1.259 . S
C58 O69 1.270 . S
C59 O70 1.251 . S
C59 O71 1.251 . S
O60 C40 1.257 . S
O60 Eu41 2.473 . S
O61 C40 1.260 . S
O61 Eu41 2.480 . S
O62 Eu41 2.430 . S
O62 C48 1.259 . S
O63 Eu41 2.670 . S
O63 C48 1.270 . S
O63 Eu51 2.372 . S
O64 Eu41 2.394 . S
O64 C49 1.251 . S
O65 C49 1.251 . S
O65 Eu51 2.400 . S
O66 C50 1.257 . S
O66 Eu51 2.445 1_565 S
O67 C50 1.260 . S
O67 Eu51 2.448 1_565 S
O68 Eu51 2.437 . S
O68 C58 1.259 . S
O69 Eu41 2.355 . S
O69 Eu51 2.699 . S
O69 C58 1.270 . S
O70 Eu51 2.391 1_565 S
O70 C59 1.251 . S
O71 Eu41 2.374 1_565 S
O71 C59 1.251 . S
H72 C43 0.931 . S
H73 C44 0.931 . S
H74 C46 0.931 . S
H75 C47 0.931 . S
H76 C53 0.931 . S
H77 C54 0.931 . S
H78 C56 0.931 . S
H79 C57 0.931 . S
C80 Eu81 2.835 . S
C80 C82 1.500 . S
C80 O100 1.257 . S
C80 O101 1.260 . S
Eu81 C80 2.835 . S
Eu81 O100 2.473 . S
Eu81 O101 2.480 . S
Eu81 O102 2.430 . S
Eu81 O103 2.670 . S
Eu81 O104 2.394 . S
Eu81 O109 2.355 . S
Eu81 O111 2.374 . S
C82 C80 1.500 . S
C82 C83 1.377 . S
C82 C87 1.377 . S
C83 C82 1.377 . S
C83 C84 1.395 . S
C83 H112 0.931 . S
C84 C83 1.395 . S
C84 C85 1.383 . S
C84 H113 0.931 . S
C85 C84 1.383 . S
C85 C86 1.394 . S
C86 C85 1.394 . S
C86 C87 1.378 . S
C86 H114 0.931 . S
C87 C82 1.377 . S
C87 C86 1.378 . S
C87 H115 0.931 . S
C88 O102 1.259 . S
C88 O103 1.270 . S
C89 O104 1.251 . S
C89 O105 1.251 . S
C90 Eu91 2.835 . S
C90 C92 1.500 . S
C90 O106 1.257 . S
C90 O107 1.260 . S
Eu91 C90 2.835 . S
Eu91 O103 2.355 . S
Eu91 O105 2.374 . S
Eu91 O106 2.473 . S
Eu91 O107 2.480 . S
Eu91 O108 2.430 . S
Eu91 O109 2.670 . S
Eu91 O110 2.394 . S
C92 C90 1.500 . S
C92 C93 1.377 . S
C92 C97 1.377 . S
C93 C92 1.377 . S
C93 C94 1.395 . S
C93 H116 0.931 . S
C94 C93 1.395 . S
C94 C95 1.383 . S
C94 H117 0.931 . S
C95 C94 1.383 . S
C95 C96 1.394 . S
C96 C95 1.394 . S
C96 C97 1.378 . S
C96 H118 0.931 . S
C97 C92 1.377 . S
C97 C96 1.378 . S
C97 H119 0.931 . S
C98 O108 1.259 . S
C98 O109 1.270 . S
C99 O110 1.251 . S
C99 O111 1.251 . S
O100 C80 1.257 . S
O100 Eu81 2.473 . S
O101 C80 1.260 . S
O101 Eu81 2.480 . S
O102 Eu81 2.430 . S
O102 C88 1.259 . S
O103 Eu81 2.670 . S
O103 C88 1.270 . S
O103 Eu91 2.355 . S
O104 Eu81 2.394 . S
O104 C89 1.251 . S
O105 C89 1.251 . S
O105 Eu91 2.374 . S
O106 C90 1.257 . S
O106 Eu91 2.473 . S
O107 C90 1.260 . S
O107 Eu91 2.480 . S
O108 Eu91 2.430 . S
O108 C98 1.259 . S
O109 Eu81 2.355 . S
O109 Eu91 2.670 . S
O109 C98 1.270 . S
O110 Eu91 2.394 . S
O110 C99 1.251 . S
O111 Eu81 2.374 . S
O111 C99 1.251 . S
H112 C83 0.931 . S
H113 C84 0.931 . S
H114 C86 0.931 . S
H115 C87 0.931 . S
H116 C93 0.931 . S
H117 C94 0.931 . S
H118 C96 0.931 . S
H119 C97 0.931 . S
C120 C121 1.264 . S
C120 C125 1.479 . S
C120 C130 1.465 . S
C121 C120 1.264 . S
C121 C123 1.339 . S
C121 H148 0.931 . S
C122 C123 1.395 . S
C122 C124 1.320 . S
C123 C121 1.339 . S
C123 C122 1.395 . S
C123 H149 0.929 . S
C124 C122 1.320 . S
C124 C125 1.405 . S
C124 H150 0.930 . S
C125 C120 1.479 . S
C125 C124 1.405 . S
C125 H151 0.931 . S
U126 O127 2.454 . S
U126 O128 2.458 1_545 S
U126 C129 2.984 1_545 S
U126 C130 2.847 . S
U126 C143 2.882 . S
U126 O144 2.441 . S
U126 O145 2.420 . S
U126 O146 2.455 . S
U126 O147 2.449 . S
O127 U126 2.454 . S
O127 C129 1.353 1_545 S
O128 U126 2.458 1_565 S
O128 C129 1.286 . S
C129 U126 2.984 1_565 S
C129 O127 1.353 1_565 S
C129 O128 1.286 . S
C129 C131 1.363 . S
C130 C120 1.465 . S
C130 U126 2.847 . S
C130 O144 1.249 . S
C130 O145 1.202 . S
C131 C129 1.363 . S
C131 C133 1.408 . S
C131 C136 1.342 . S
C132 C133 1.310 . S
C132 C135 1.461 . S
C132 H152 0.932 . S
C133 C131 1.408 . S
C133 C132 1.310 . S
C133 H153 0.930 . S
C134 C135 1.474 . S
C134 C136 1.285 . S
C134 H154 0.929 . S
C135 C132 1.461 . S
C135 C134 1.474 . S
C136 C131 1.342 . S
C136 C134 1.285 . S
C136 H155 0.930 . S
C137 C140 1.424 . S
C137 C142 1.245 . S
C137 C143 1.428 . S
C138 C141 1.260 . S
C138 C142 1.477 . S
C138 H156 0.932 . S
C139 C140 1.384 . S
C139 C141 1.479 . S
C139 H157 0.929 . S
C140 C137 1.424 . S
C140 C139 1.384 . S
C140 H158 0.928 . S
C141 C138 1.260 . S
C141 C139 1.479 . S
C142 C137 1.245 . S
C142 C138 1.477 . S
C142 H159 0.932 . S
C143 U126 2.882 . S
C143 C137 1.428 . S
C143 O146 1.301 . S
C143 O147 1.282 . S
O144 U126 2.441 . S
O144 C130 1.249 . S
O145 U126 2.420 . S
O145 C130 1.202 . S
O146 U126 2.455 . S
O146 C143 1.301 . S
O147 U126 2.449 . S
O147 C143 1.282 . S
H148 C121 0.931 . S
H149 C123 0.929 . S
H150 C124 0.930 . S
H151 C125 0.931 . S
H152 C132 0.932 . S
H153 C133 0.930 . S
H154 C134 0.929 . S
H155 C136 0.930 . S
H156 C138 0.932 . S
H157 C139 0.929 . S
H158 C140 0.928 . S
H159 C142 0.932 . S
C160 C161 1.264 . S
C160 C165 1.479 . S
C160 C170 1.465 . S
C161 C160 1.264 . S
C161 C163 1.339 . S
C161 H188 0.931 . S
C162 C163 1.395 . S
C162 C164 1.320 . S
C163 C161 1.339 . S
C163 C162 1.395 . S
C163 H189 0.929 . S
C164 C162 1.320 . S
C164 C165 1.405 . S
C164 H190 0.930 . S
C165 C160 1.479 . S
C165 C164 1.405 . S
C165 H191 0.931 . S
U166 O167 2.454 . S
U166 O168 2.458 . S
U166 C169 2.984 . S
U166 C170 2.847 . S
U166 C183 2.882 . S
U166 O184 2.441 . S
U166 O185 2.420 . S
U166 O186 2.455 . S
U166 O187 2.449 . S
O167 U166 2.454 . S
O167 C169 1.353 . S
O168 U166 2.458 . S
O168 C169 1.286 . S
C169 U166 2.984 . S
C169 O167 1.353 . S
C169 O168 1.286 . S
C169 C171 1.363 . S
C170 C160 1.465 . S
C170 U166 2.847 . S
C170 O184 1.249 . S
C170 O185 1.202 . S
C171 C169 1.363 . S
C171 C173 1.408 . S
C171 C176 1.342 . S
C172 C173 1.310 . S
C172 C175 1.461 . S
C172 H192 0.932 . S
C173 C171 1.408 . S
C173 C172 1.310 . S
C173 H193 0.930 . S
C174 C175 1.474 . S
C174 C176 1.285 . S
C174 H194 0.929 . S
C175 C172 1.461 . S
C175 C174 1.474 . S
C176 C171 1.342 . S
C176 C174 1.285 . S
C176 H195 0.930 . S
C177 C180 1.424 . S
C177 C182 1.245 . S
C177 C183 1.428 . S
C178 C181 1.260 . S
C178 C182 1.477 . S
C178 H196 0.932 . S
C179 C180 1.384 . S
C179 C181 1.479 . S
C179 H197 0.929 . S
C180 C177 1.424 . S
C180 C179 1.384 . S
C180 H198 0.928 . S
C181 C178 1.260 . S
C181 C179 1.479 . S
C182 C177 1.245 . S
C182 C178 1.477 . S
C182 H199 0.932 . S
C183 U166 2.882 . S
C183 C177 1.428 . S
C183 O186 1.301 . S
C183 O187 1.282 . S
O184 U166 2.441 . S
O184 C170 1.249 . S
O185 U166 2.420 . S
O185 C170 1.202 . S
O186 U166 2.455 . S
O186 C183 1.301 . S
O187 U166 2.449 . S
O187 C183 1.282 . S
H188 C161 0.931 . S
H189 C163 0.929 . S
H190 C164 0.930 . S
H191 C165 0.931 . S
H192 C172 0.932 . S
H193 C173 0.930 . S
H194 C174 0.929 . S
H195 C176 0.930 . S
H196 C178 0.932 . S
H197 C179 0.929 . S
H198 C180 0.928 . S
H199 C182 0.932 . S
C200 C201 1.264 . S
C200 C205 1.479 . S
C200 C210 1.465 . S
C201 C200 1.264 . S
C201 C203 1.339 . S
C201 H228 0.931 . S
C202 C203 1.395 . S
C202 C204 1.320 . S
C203 C201 1.339 . S
C203 C202 1.395 . S
C203 H229 0.929 . S
C204 C202 1.320 . S
C204 C205 1.405 . S
C204 H230 0.930 . S
C205 C200 1.479 . S
C205 C204 1.405 . S
C205 H231 0.931 . S
U206 O207 2.454 1_655 S
U206 O208 2.458 1_655 S
U206 C209 2.984 1_655 S
U206 C210 2.847 . S
U206 C223 2.882 . S
U206 O224 2.441 . S
U206 O225 2.420 . S
U206 O226 2.455 1_655 S
U206 O227 2.449 . S
O207 U206 2.454 1_455 S
O207 C209 1.353 . S
O208 U206 2.458 1_455 S
O208 C209 1.286 . S
C209 U206 2.984 1_455 S
C209 O207 1.353 . S
C209 O208 1.286 . S
C209 C211 1.363 . S
C210 C200 1.465 . S
C210 U206 2.847 . S
C210 O224 1.249 . S
C210 O225 1.202 . S
C211 C209 1.363 . S
C211 C213 1.408 . S
C211 C216 1.342 . S
C212 C213 1.310 . S
C212 C215 1.461 . S
C212 H232 0.932 . S
C213 C211 1.408 . S
C213 C212 1.310 . S
C213 H233 0.930 . S
C214 C215 1.474 . S
C214 C216 1.285 . S
C214 H234 0.929 . S
C215 C212 1.461 . S
C215 C214 1.474 . S
C216 C211 1.342 . S
C216 C214 1.285 . S
C216 H235 0.930 . S
C217 C220 1.424 . S
C217 C222 1.245 1_655 S
C217 C223 1.428 . S
C218 C221 1.260 . S
C218 C222 1.477 1_554 S
C218 H236 0.932 . S
C219 C220 1.384 1_554 S
C219 C221 1.479 1_655 S
C219 H237 0.929 . S
C220 C217 1.424 . S
C220 C219 1.384 1_556 S
C220 H238 0.928 . S
C221 C218 1.260 . S
C221 C219 1.479 1_455 S
C222 C217 1.245 1_455 S
C222 C218 1.477 1_556 S
C222 H239 0.932 . S
C223 U206 2.882 . S
C223 C217 1.428 . S
C223 O226 1.301 1_655 S
C223 O227 1.282 . S
O224 U206 2.441 . S
O224 C210 1.249 . S
O225 U206 2.420 . S
O225 C210 1.202 . S
O226 U206 2.455 1_455 S
O226 C223 1.301 1_455 S
O227 U206 2.449 . S
O227 C223 1.282 . S
H228 C201 0.931 . S
H229 C203 0.929 . S
H230 C204 0.930 . S
H231 C205 0.931 . S
H232 C212 0.932 . S
H233 C213 0.930 . S
H234 C214 0.929 . S
H235 C216 0.930 . S
H236 C218 0.932 . S
H237 C219 0.929 . S
H238 C220 0.928 . S
H239 C222 0.932 . S
C240 C241 1.264 . S
C240 C245 1.479 . S
C240 C250 1.465 . S
C241 C240 1.264 . S
C241 C243 1.339 . S
C241 H268 0.931 . S
C242 C243 1.395 . S
C242 C244 1.320 . S
C243 C241 1.339 . S
C243 C242 1.395 . S
C243 H269 0.929 . S
C244 C242 1.320 . S
C244 C245 1.405 . S
C244 H270 0.930 . S
C245 C240 1.479 . S
C245 C244 1.405 . S
C245 H271 0.931 . S
U246 O247 2.454 . S
U246 O248 2.458 . S
U246 C249 2.984 . S
U246 C250 2.847 1_455 S
U246 C263 2.882 . S
U246 O264 2.441 . S
U246 O265 2.420 1_455 S
U246 O266 2.455 . S
U246 O267 2.449 . S
O247 U246 2.454 . S
O247 C249 1.353 . S
O248 U246 2.458 . S
O248 C249 1.286 . S
C249 U246 2.984 . S
C249 O247 1.353 . S
C249 O248 1.286 . S
C249 C251 1.363 . S
C250 C240 1.465 . S
C250 U246 2.847 1_655 S
C250 O264 1.249 1_655 S
C250 O265 1.202 . S
C251 C249 1.363 . S
C251 C253 1.408 . S
C251 C256 1.342 . S
C252 C253 1.310 . S
C252 C255 1.461 . S
C252 H272 0.932 . S
C253 C251 1.408 . S
C253 C252 1.310 . S
C253 H273 0.930 . S
C254 C255 1.474 . S
C254 C256 1.285 . S
C254 H274 0.929 . S
C255 C252 1.461 . S
C255 C254 1.474 . S
C256 C251 1.342 . S
C256 C254 1.285 . S
C256 H275 0.930 . S
C257 C260 1.424 . S
C257 C262 1.245 . S
C257 C263 1.428 . S
C258 C261 1.260 . S
C258 C262 1.477 . S
C258 H276 0.932 . S
C259 C260 1.384 . S
C259 C261 1.479 . S
C259 H277 0.929 1_455 S
C260 C257 1.424 . S
C260 C259 1.384 . S
C260 H278 0.928 1_455 S
C261 C258 1.260 . S
C261 C259 1.479 . S
C262 C257 1.245 . S
C262 C258 1.477 . S
C262 H279 0.932 . S
C263 U246 2.882 . S
C263 C257 1.428 . S
C263 O266 1.301 . S
C263 O267 1.282 . S
O264 U246 2.441 . S
O264 C250 1.249 1_455 S
O265 U246 2.420 1_655 S
O265 C250 1.202 . S
O266 U246 2.455 . S
O266 C263 1.301 . S
O267 U246 2.449 . S
O267 C263 1.282 . S
H268 C241 0.931 . S
H269 C243 0.929 . S
H270 C244 0.930 . S
H271 C245 0.931 . S
H272 C252 0.932 . S
H273 C253 0.930 . S
H274 C254 0.929 . S
H275 C256 0.930 . S
H276 C258 0.932 . S
H277 C259 0.929 1_655 S
H278 C260 0.928 1_655 S
H279 C262 0.932 . S
C280 C281 1.264 . S
C280 C285 1.479 . S
C280 C290 1.465 . S
C281 C280 1.264 . S
C281 C283 1.339 . S
C281 H308 0.931 . S
C282 C283 1.395 . S
C282 C284 1.320 . S
C283 C281 1.339 . S
C283 C282 1.395 . S
C283 H309 0.929 . S
C284 C282 1.320 . S
C284 C285 1.405 . S
C284 H310 0.930 . S
C285 C280 1.479 . S
C285 C284 1.405 . S
C285 H311 0.931 . S
U286 O287 2.454 1_565 S
U286 O288 2.458 1_565 S
U286 C289 2.984 1_565 S
U286 C290 2.847 . S
U286 C303 2.882 . S
U286 O304 2.441 . S
U286 O305 2.420 . S
U286 O306 2.455 1_565 S
U286 O307 2.449 . S
O287 U286 2.454 1_545 S
O287 C289 1.353 . S
O288 U286 2.458 1_545 S
O288 C289 1.286 . S
C289 U286 2.984 1_545 S
C289 O287 1.353 . S
C289 O288 1.286 . S
C289 C291 1.363 . S
C290 C280 1.465 . S
C290 U286 2.847 . S
C290 O304 1.249 . S
C290 O305 1.202 . S
C291 C289 1.363 . S
C291 C293 1.408 . S
C291 C296 1.342 . S
C292 C293 1.310 . S
C292 C295 1.461 . S
C292 H312 0.932 . S
C293 C291 1.408 . S
C293 C292 1.310 . S
C293 H313 0.930 . S
C294 C295 1.474 . S
C294 C296 1.285 . S
C294 H314 0.929 . S
C295 C292 1.461 . S
C295 C294 1.474 . S
C296 C291 1.342 . S
C296 C294 1.285 . S
C296 H315 0.930 . S
C297 C300 1.434 . S
C297 C302 1.236 1_565 S
C297 C303 1.428 . S
C298 C301 1.260 . S
C298 C302 1.477 . S
C298 H316 0.932 . S
C299 C300 1.384 . S
C299 C301 1.479 1_565 S
C299 H317 0.929 . S
C300 C297 1.434 . S
C300 C299 1.384 . S
C300 H318 0.928 . S
C301 C298 1.260 . S
C301 C299 1.479 1_545 S
C302 C297 1.236 1_545 S
C302 C298 1.477 . S
C302 H319 0.932 . S
C303 U286 2.882 . S
C303 C297 1.428 . S
C303 O306 1.301 1_565 S
C303 O307 1.282 . S
O304 U286 2.441 . S
O304 C290 1.249 . S
O305 U286 2.420 . S
O305 C290 1.202 . S
O306 U286 2.455 1_545 S
O306 C303 1.301 1_545 S
O307 U286 2.449 . S
O307 C303 1.282 . S
H308 C281 0.931 . S
H309 C283 0.929 . S
H310 C284 0.930 . S
H311 C285 0.931 . S
H312 C292 0.932 . S
H313 C293 0.930 . S
H314 C294 0.929 . S
H315 C296 0.930 . S
H316 C298 0.932 . S
H317 C299 0.929 . S
H318 C300 0.928 . S
H319 C302 0.932 . S
C320 C321 1.264 . S
C320 C325 1.479 . S
C320 C330 1.465 . S
C321 C320 1.264 . S
C321 C323 1.339 . S
C321 H348 0.931 . S
C322 C323 1.395 . S
C322 C324 1.320 . S
C323 C321 1.339 . S
C323 C322 1.395 . S
C323 H349 0.929 . S
C324 C322 1.320 . S
C324 C325 1.405 . S
C324 H350 0.930 . S
C325 C320 1.479 . S
C325 C324 1.405 . S
C325 H351 0.931 . S
U326 O327 2.454 . S
U326 O328 2.458 . S
U326 C329 2.984 . S
U326 C330 2.847 . S
U326 C343 2.882 . S
U326 O344 2.441 . S
U326 O345 2.420 . S
U326 O346 2.455 . S
U326 O347 2.449 . S
O327 U326 2.454 . S
O327 C329 1.353 . S
O328 U326 2.458 . S
O328 C329 1.286 . S
C329 U326 2.984 . S
C329 O327 1.353 . S
C329 O328 1.286 . S
C329 C331 1.363 . S
C330 C320 1.465 . S
C330 U326 2.847 . S
C330 O344 1.249 . S
C330 O345 1.202 . S
C331 C329 1.363 . S
C331 C333 1.408 . S
C331 C336 1.342 . S
C332 C333 1.310 . S
C332 C335 1.461 . S
C332 H352 0.932 . S
C333 C331 1.408 . S
C333 C332 1.310 . S
C333 H353 0.930 . S
C334 C335 1.474 . S
C334 C336 1.285 . S
C334 H354 0.929 . S
C335 C332 1.461 . S
C335 C334 1.474 . S
C336 C331 1.342 . S
C336 C334 1.285 . S
C336 H355 0.930 . S
C337 C340 1.424 . S
C337 C342 1.245 . S
C337 C343 1.428 . S
C338 C341 1.260 . S
C338 C342 1.477 . S
C338 H356 0.932 . S
C339 C340 1.384 . S
C339 C341 1.479 . S
C339 H357 0.929 . S
C340 C337 1.424 . S
C340 C339 1.384 . S
C340 H358 0.928 . S
C341 C338 1.260 . S
C341 C339 1.479 . S
C342 C337 1.245 . S
C342 C338 1.477 . S
C342 H359 0.932 . S
C343 U326 2.882 . S
C343 C337 1.428 . S
C343 O346 1.301 . S
C343 O347 1.282 . S
O344 U326 2.441 . S
O344 C330 1.249 . S
O345 U326 2.420 . S
O345 C330 1.202 . S
O346 U326 2.455 . S
O346 C343 1.301 . S
O347 U326 2.449 . S
O347 C343 1.282 . S
H348 C321 0.931 . S
H349 C323 0.929 . S
H350 C324 0.930 . S
H351 C325 0.931 . S
H352 C332 0.932 . S
H353 C333 0.930 . S
H354 C334 0.929 . S
H355 C336 0.930 . S
H356 C338 0.932 . S
H357 C339 0.929 . S
H358 C340 0.928 . S
H359 C342 0.932 . S
H360 C366 0.930 . S
H361 C369 0.930 . S
H362 C370 0.930 . S
H363 C371 0.930 . S
H364 C374 0.930 . S
H365 C375 0.930 . S
C366 H360 0.930 . S
C366 C367 1.355 . S
C366 C368 1.415 . S
C367 C366 1.355 . S
C367 C369 1.419 . S
C368 C366 1.415 . S
C368 C373 1.425 . S
C368 C375 1.409 . S
C369 H361 0.930 . S
C369 C367 1.419 . S
C369 C370 1.362 . S
C370 H362 0.930 . S
C370 C369 1.362 . S
C370 C373 1.409 . S
C371 H363 0.930 . S
C371 C372 1.355 . S
C371 C373 1.415 . S
C372 C371 1.355 . S
C372 C374 1.419 . S
C373 C368 1.425 . S
C373 C370 1.409 . S
C373 C371 1.415 . S
C374 H364 0.930 . S
C374 C372 1.419 . S
C374 C375 1.362 . S
C375 H365 0.930 . S
C375 C368 1.409 . S
C375 C374 1.362 . S
H376 C382 0.930 . S
H377 C385 0.930 . S
H378 C386 0.930 . S
H379 C387 0.930 . S
H380 C390 0.930 . S
H381 C391 0.930 . S
C382 H376 0.930 . S
C382 C383 1.355 . S
C382 C384 1.415 . S
C383 C382 1.355 . S
C383 C385 1.419 . S
C384 C382 1.415 . S
C384 C389 1.425 . S
C384 C391 1.409 . S
C385 H377 0.930 . S
C385 C383 1.419 . S
C385 C386 1.362 . S
C386 H378 0.930 . S
C386 C385 1.362 . S
C386 C389 1.409 . S
C387 H379 0.930 . S
C387 C388 1.355 . S
C387 C389 1.415 . S
C388 C387 1.355 . S
C388 C390 1.419 . S
C389 C384 1.425 . S
C389 C386 1.409 . S
C389 C387 1.415 . S
C390 H380 0.930 . S
C390 C388 1.419 . S
C390 C391 1.362 . S
C391 H381 0.930 . S
C391 C384 1.409 . S
C391 C390 1.362 . S
H392 C398 0.930 . S
H393 C401 0.930 . S
H394 C402 0.930 . S
H395 C403 0.930 . S
H396 C406 0.930 . S
H397 C407 0.930 . S
C398 H392 0.930 . S
C398 C399 1.355 . S
C398 C400 1.415 . S
C399 C398 1.355 . S
C399 C401 1.419 . S
C400 C398 1.415 . S
C400 C405 1.425 . S
C400 C407 1.409 . S
C401 H393 0.930 . S
C401 C399 1.419 . S
C401 C402 1.362 . S
C402 H394 0.930 . S
C402 C401 1.362 . S
C402 C405 1.409 . S
C403 H395 0.930 . S
C403 C404 1.355 . S
C403 C405 1.415 . S
C404 C403 1.355 . S
C404 C406 1.419 . S
C405 C400 1.425 . S
C405 C402 1.409 . S
C405 C403 1.415 . S
C406 H396 0.930 . S
C406 C404 1.419 . S
C406 C407 1.362 . S
C407 H397 0.930 . S
C407 C400 1.409 . S
C407 C406 1.362 . S
H408 C414 0.930 . S
H409 C417 0.930 . S
H410 C418 0.930 . S
H411 C419 0.930 . S
H412 C422 0.930 . S
H413 C423 0.930 . S
C414 H408 0.930 . S
C414 C415 1.355 . S
C414 C416 1.415 . S
C415 C414 1.355 . S
C415 C417 1.419 . S
C416 C414 1.415 . S
C416 C421 1.425 . S
C416 C423 1.409 . S
C417 H409 0.930 . S
C417 C415 1.419 . S
C417 C418 1.362 . S
C418 H410 0.930 . S
C418 C417 1.362 . S
C418 C421 1.409 . S
C419 H411 0.930 . S
C419 C420 1.355 . S
C419 C421 1.415 . S
C420 C419 1.355 . S
C420 C422 1.419 . S
C421 C416 1.425 . S
C421 C418 1.409 . S
C421 C419 1.415 . S
C422 H412 0.930 . S
C422 C420 1.419 . S
C422 C423 1.362 . S
C423 H413 0.930 . S
C423 C416 1.409 . S
C423 C422 1.362 . S
H424 C430 0.930 . S
H425 C433 0.930 . S
H426 C434 0.930 . S
H427 C435 0.930 . S
H428 C438 0.930 . S
H429 C439 0.930 . S
C430 H424 0.930 . S
C430 C431 1.355 . S
C430 C432 1.415 . S
C431 C430 1.355 . S
C431 C433 1.419 . S
C432 C430 1.415 . S
C432 C437 1.425 . S
C432 C439 1.409 . S
C433 H425 0.930 . S
C433 C431 1.419 . S
C433 C434 1.362 . S
C434 H426 0.930 . S
C434 C433 1.362 . S
C434 C437 1.409 . S
C435 H427 0.930 . S
C435 C436 1.355 . S
C435 C437 1.415 . S
C436 C435 1.355 . S
C436 C438 1.419 . S
C437 C432 1.425 . S
C437 C434 1.409 . S
C437 C435 1.415 . S
C438 H428 0.930 . S
C438 C436 1.419 . S
C438 C439 1.362 . S
C439 H429 0.930 . S
C439 C432 1.409 . S
C439 C438 1.362 . S
H440 C446 0.930 . S
H441 C449 0.930 . S
H442 C450 0.930 . S
H443 C451 0.930 . S
H444 C454 0.930 . S
H445 C455 0.930 . S
C446 H440 0.930 . S
C446 C447 1.355 . S
C446 C448 1.415 . S
C447 C446 1.355 . S
C447 C449 1.419 . S
C448 C446 1.415 . S
C448 C453 1.425 . S
C448 C455 1.409 . S
C449 H441 0.930 . S
C449 C447 1.419 . S
C449 C450 1.362 . S
C450 H442 0.930 . S
C450 C449 1.362 . S
C450 C453 1.409 . S
C451 H443 0.930 . S
C451 C452 1.355 . S
C451 C453 1.415 . S
C452 C451 1.355 . S
C452 C454 1.419 . S
C453 C448 1.425 . S
C453 C450 1.409 . S
C453 C451 1.415 . S
C454 H444 0.930 . S
C454 C452 1.419 . S
C454 C455 1.362 . S
C455 H445 0.930 . S
C455 C448 1.409 . S
C455 C454 1.362 . S
H456 C462 0.930 . S
H457 C465 0.930 . S
H458 C466 0.930 . S
H459 C467 0.930 . S
H460 C470 0.930 . S
H461 C471 0.930 . S
C462 H456 0.930 . S
C462 C463 1.355 . S
C462 C464 1.415 . S
C463 C462 1.355 . S
C463 C465 1.419 . S
C464 C462 1.415 . S
C464 C469 1.425 . S
C464 C471 1.409 . S
C465 H457 0.930 . S
C465 C463 1.419 . S
C465 C466 1.362 . S
C466 H458 0.930 . S
C466 C465 1.362 . S
C466 C469 1.409 . S
C467 H459 0.930 . S
C467 C468 1.355 . S
C467 C469 1.415 . S
C468 C467 1.355 . S
C468 C470 1.419 . S
C469 C464 1.425 . S
C469 C466 1.409 . S
C469 C467 1.415 . S
C470 H460 0.930 . S
C470 C468 1.419 . S
C470 C471 1.362 . S
C471 H461 0.930 . S
C471 C464 1.409 . S
C471 C470 1.362 . S
H472 C478 0.930 . S
H473 C481 0.930 . S
H474 C482 0.930 . S
H475 C483 0.930 . S
H476 C486 0.930 . S
H477 C487 0.930 . S
C478 H472 0.930 . S
C478 C479 1.355 . S
C478 C480 1.415 . S
C479 C478 1.355 . S
C479 C481 1.419 . S
C480 C478 1.415 . S
C480 C485 1.425 . S
C480 C487 1.409 . S
C481 H473 0.930 . S
C481 C479 1.419 . S
C481 C482 1.362 . S
C482 H474 0.930 . S
C482 C481 1.362 . S
C482 C485 1.409 . S
C483 H475 0.930 . S
C483 C484 1.355 . S
C483 C485 1.415 . S
C484 C483 1.355 . S
C484 C486 1.419 . S
C485 C480 1.425 . S
C485 C482 1.409 . S
C485 C483 1.415 . S
C486 H476 0.930 . S
C486 C484 1.419 . S
C486 C487 1.362 . S
C487 H477 0.930 . S
C487 C480 1.409 . S
C487 C486 1.362 . S
H488 C494 0.930 . S
H489 C497 0.930 . S
H490 C498 0.930 . S
H491 C499 0.930 . S
H492 C502 0.930 . S
H493 C503 0.930 . S
C494 H488 0.930 . S
C494 C495 1.355 . S
C494 C496 1.415 . S
C495 C494 1.355 . S
C495 C497 1.419 . S
C496 C494 1.415 . S
C496 C501 1.425 . S
C496 C503 1.409 . S
C497 H489 0.930 . S
C497 C495 1.419 . S
C497 C498 1.362 . S
C498 H490 0.930 . S
C498 C497 1.362 . S
C498 C501 1.409 . S
C499 H491 0.930 . S
C499 C500 1.355 . S
C499 C501 1.415 . S
C500 C499 1.355 . S
C500 C502 1.419 . S
C501 C496 1.425 . S
C501 C498 1.409 . S
C501 C499 1.415 . S
C502 H492 0.930 . S
C502 C500 1.419 . S
C502 C503 1.362 . S
C503 H493 0.930 . S
C503 C496 1.409 . S
C503 C502 1.362 . S
H504 C510 0.930 . S
H505 C513 0.930 . S
H506 C514 0.930 . S
H507 C515 0.930 . S
H508 C518 0.930 . S
H509 C519 0.930 . S
C510 H504 0.930 . S
C510 C511 1.355 . S
C510 C512 1.415 . S
C511 C510 1.355 . S
C511 C513 1.419 . S
C512 C510 1.415 . S
C512 C517 1.425 . S
C512 C519 1.409 . S
C513 H505 0.930 . S
C513 C511 1.419 . S
C513 C514 1.362 . S
C514 H506 0.930 . S
C514 C513 1.362 . S
C514 C517 1.409 . S
C515 H507 0.930 . S
C515 C516 1.355 . S
C515 C517 1.415 . S
C516 C515 1.355 . S
C516 C518 1.419 . S
C517 C512 1.425 . S
C517 C514 1.409 . S
C517 C515 1.415 . S
C518 H508 0.930 . S
C518 C516 1.419 . S
C518 C519 1.362 . S
C519 H509 0.930 . S
C519 C512 1.409 . S
C519 C518 1.362 . S
H520 C526 0.930 . S
H521 C529 0.930 . S
H522 C530 0.930 . S
H523 C531 0.930 . S
H524 C534 0.930 . S
H525 C535 0.930 . S
C526 H520 0.930 . S
C526 C527 1.355 . S
C526 C528 1.415 . S
C527 C526 1.355 . S
C527 C529 1.419 . S
C528 C526 1.415 . S
C528 C533 1.425 . S
C528 C535 1.409 . S
C529 H521 0.930 . S
C529 C527 1.419 . S
C529 C530 1.362 . S
C530 H522 0.930 . S
C530 C529 1.362 . S
C530 C533 1.409 . S
C531 H523 0.930 . S
C531 C532 1.355 . S
C531 C533 1.415 . S
C532 C531 1.355 . S
C532 C534 1.419 . S
C533 C528 1.425 . S
C533 C530 1.409 . S
C533 C531 1.415 . S
C534 H524 0.930 . S
C534 C532 1.419 . S
C534 C535 1.362 . S
C535 H525 0.930 . S
C535 C528 1.409 . S
C535 C534 1.362 . S
H536 C542 0.930 . S
H537 C545 0.930 . S
H538 C546 0.930 . S
H539 C547 0.930 . S
H540 C550 0.930 . S
H541 C551 0.930 . S
C542 H536 0.930 . S
C542 C543 1.355 . S
C542 C544 1.415 . S
C543 C542 1.355 . S
C543 C545 1.419 . S
C544 C542 1.415 . S
C544 C549 1.425 . S
C544 C551 1.409 . S
C545 H537 0.930 . S
C545 C543 1.419 . S
C545 C546 1.362 . S
C546 H538 0.930 . S
C546 C545 1.362 . S
C546 C549 1.409 . S
C547 H539 0.930 . S
C547 C548 1.355 . S
C547 C549 1.415 . S
C548 C547 1.355 . S
C548 C550 1.419 . S
C549 C544 1.425 . S
C549 C546 1.409 . S
C549 C547 1.415 . S
C550 H540 0.930 . S
C550 C548 1.419 . S
C550 C551 1.362 . S
C551 H541 0.930 . S
C551 C544 1.409 . S
C551 C550 1.362 . S
H552 C558 0.930 . S
H553 C561 0.930 . S
H554 C562 0.930 . S
H555 C563 0.930 . S
H556 C566 0.930 . S
H557 C567 0.930 . S
C558 H552 0.930 . S
C558 C559 1.355 . S
C558 C560 1.415 . S
C559 C558 1.355 . S
C559 C561 1.419 1_455 S
C560 C558 1.415 . S
C560 C565 1.425 1_455 S
C560 C567 1.409 . S
C561 H553 0.930 . S
C561 C559 1.419 1_655 S
C561 C562 1.362 . S
C562 H554 0.930 . S
C562 C561 1.362 . S
C562 C565 1.409 . S
C563 H555 0.930 . S
C563 C564 1.355 1_655 S
C563 C565 1.415 . S
C564 C563 1.355 1_455 S
C564 C566 1.419 . S
C565 C560 1.425 1_655 S
C565 C562 1.409 . S
C565 C563 1.415 . S
C566 H556 0.930 . S
C566 C564 1.419 . S
C566 C567 1.362 . S
C567 H557 0.930 . S
C567 C560 1.409 . S
C567 C566 1.362 . S
H568 C574 0.930 . S
H569 C577 0.930 . S
H570 C578 0.930 . S
H571 C579 0.930 1_565 S
H572 C582 0.930 . S
H573 C583 0.930 . S
C574 H568 0.930 . S
C574 C575 1.355 . S
C574 C576 1.415 . S
C575 C574 1.355 . S
C575 C577 1.419 1_545 S
C576 C574 1.415 . S
C576 C581 1.425 . S
C576 C583 1.409 . S
C577 H569 0.930 . S
C577 C575 1.419 1_565 S
C577 C578 1.362 . S
C578 H570 0.930 . S
C578 C577 1.362 . S
C578 C581 1.409 1_565 S
C579 H571 0.930 1_545 S
C579 C580 1.355 . S
C579 C581 1.415 . S
C580 C579 1.355 . S
C580 C582 1.419 . S
C581 C576 1.425 . S
C581 C578 1.409 1_545 S
C581 C579 1.415 . S
C582 H572 0.930 . S
C582 C580 1.419 . S
C582 C583 1.362 . S
C583 H573 0.930 . S
C583 C576 1.409 . S
C583 C582 1.362 . S
H584 C590 0.930 . S
H585 C593 0.930 . S
H586 C594 0.930 . S
H587 C595 0.930 . S
H588 C598 0.930 . S
H589 C599 0.930 . S
C590 H584 0.930 . S
C590 C591 1.355 . S
C590 C592 1.415 . S
C591 C590 1.355 . S
C591 C593 1.419 . S
C592 C590 1.415 . S
C592 C597 1.425 . S
C592 C599 1.409 . S
C593 H585 0.930 . S
C593 C591 1.419 . S
C593 C594 1.362 . S
C594 H586 0.930 . S
C594 C593 1.362 . S
C594 C597 1.409 . S
C595 H587 0.930 . S
C595 C596 1.355 . S
C595 C597 1.415 . S
C596 C595 1.355 . S
C596 C598 1.419 . S
C597 C592 1.425 . S
C597 C594 1.409 . S
C597 C595 1.415 . S
C598 H588 0.930 . S
C598 C596 1.419 . S
C598 C599 1.362 . S
C599 H589 0.930 . S
C599 C592 1.409 . S
C599 C598 1.362 . S
H600 C606 0.930 1_565 S
H601 C609 0.930 . S
H602 C610 0.930 . S
H603 C611 0.930 . S
H604 C614 0.930 . S
H605 C615 0.930 . S
C606 H600 0.930 1_545 S
C606 C607 1.355 . S
C606 C608 1.415 . S
C607 C606 1.355 . S
C607 C609 1.419 . S
C608 C606 1.415 . S
C608 C613 1.425 . S
C608 C615 1.409 1_545 S
C609 H601 0.930 . S
C609 C607 1.419 . S
C609 C610 1.362 . S
C610 H602 0.930 . S
C610 C609 1.362 . S
C610 C613 1.409 . S
C611 H603 0.930 . S
C611 C612 1.355 . S
C611 C613 1.415 . S
C612 C611 1.355 . S
C612 C614 1.419 1_545 S
C613 C608 1.425 . S
C613 C610 1.409 . S
C613 C611 1.415 . S
C614 H604 0.930 . S
C614 C612 1.419 1_565 S
C614 C615 1.362 . S
C615 H605 0.930 . S
C615 C608 1.409 1_565 S
C615 C614 1.362 . S
H616 C622 0.930 . S
H617 C625 0.930 . S
H618 C626 0.930 . S
H619 C627 0.930 . S
H620 C630 0.930 . S
H621 C631 0.930 . S
C622 H616 0.930 . S
C622 C623 1.355 . S
C622 C624 1.415 . S
C623 C622 1.355 . S
C623 C625 1.419 . S
C624 C622 1.415 . S
C624 C629 1.425 . S
C624 C631 1.409 . S
C625 H617 0.930 . S
C625 C623 1.419 . S
C625 C626 1.362 . S
C626 H618 0.930 . S
C626 C625 1.362 . S
C626 C629 1.409 . S
C627 H619 0.930 . S
C627 C628 1.355 . S
C627 C629 1.415 . S
C628 C627 1.355 . S
C628 C630 1.419 . S
C629 C624 1.425 . S
C629 C626 1.409 . S
C629 C627 1.415 . S
C630 H620 0.930 . S
C630 C628 1.419 . S
C630 C631 1.362 . S
C631 H621 0.930 . S
C631 C624 1.409 . S
C631 C630 1.362 . S
H632 C638 0.930 . S
H633 C641 0.930 . S
H634 C642 0.930 . S
H635 C643 0.930 . S
H636 C646 0.930 . S
H637 C647 0.930 . S
C638 H632 0.930 . S
C638 C639 1.355 . S
C638 C640 1.415 . S
C639 C638 1.355 . S
C639 C641 1.419 . S
C640 C638 1.415 . S
C640 C645 1.425 . S
C640 C647 1.409 . S
C641 H633 0.930 . S
C641 C639 1.419 . S
C641 C642 1.362 . S
C642 H634 0.930 . S
C642 C641 1.362 . S
C642 C645 1.409 . S
C643 H635 0.930 . S
C643 C644 1.355 . S
C643 C645 1.415 . S
C644 C643 1.355 . S
C644 C646 1.419 . S
C645 C640 1.425 . S
C645 C642 1.409 . S
C645 C643 1.415 . S
C646 H636 0.930 . S
C646 C644 1.419 . S
C646 C647 1.362 . S
C647 H637 0.930 . S
C647 C640 1.409 . S
C647 C646 1.362 . S
C367 C19 3.100 . S
C372 C335 3.044 . S
C383 C49 3.156 . S
C388 C242 3.113 . S
C399 C99 3.085 . S
C404 C282 3.051 . S
C415 C9 3.167 . S
C420 C322 3.132 . S
C436 C255 3.028 . S
C431 C59 3.109 . S
C452 C295 3.096 . S
C447 C89 3.170 . S
C463 C55 0.354 . S
C468 C162 0.377 . S
C479 C85 0.335 . S
C484 C202 0.317 . S
C495 C15 0.514 . S
C500 C135 0.567 . S
C516 C175 0.292 . S
C511 C45 0.441 . S
C532 C215 0.424 . S
C527 C95 0.499 . S
C543 C5 0.472 . S
C548 C122 0.315 . S
C564 C221 1.096 . S
C559 C18 1.092 . S
C575 C58 1.058 . S
C580 C141 1.079 . S
C591 C98 1.099 . S
C596 C181 1.025 . S
C612 C301 1.773 . S
C607 C48 1.713 . S
C628 C341 1.786 1_556 S
C623 C88 1.701 . S
C639 C8 1.729 . S
C644 C261 1.792 . S
