# Generated by pormake.
# Topology ocu, (6,8)-cn, num edge types: 1
# Building blocks:
#     Node 0, Type 0, BuildingBlock: VOLQOD_clean_sbu_1, # of connection points: 6
#     Node 1, Type 0, BuildingBlock: VOLQOD_clean_sbu_1, # of connection points: 6
#     Node 2, Type 0, BuildingBlock: VOLQOD_clean_sbu_1, # of connection points: 6
#     Node 3, Type 0, BuildingBlock: VOLQOD_clean_sbu_1, # of connection points: 6
#     Node 4, Type 0, BuildingBlock: VOLQOD_clean_sbu_1, # of connection points: 6
#     Node 5, Type 0, BuildingBlock: VOLQOD_clean_sbu_1, # of connection points: 6
#     Node 6, Type 0, BuildingBlock: VOLQOD_clean_sbu_1, # of connection points: 6
#     Node 7, Type 0, BuildingBlock: VOLQOD_clean_sbu_1, # of connection points: 6
#     Node 8, Type 1, BuildingBlock: AJUNOK_clean_sbu_0, # of connection points: 8
#     Node 9, Type 1, BuildingBlock: AJUNOK_clean_sbu_0, # of connection points: 8
#     Node 10, Type 1, BuildingBlock: AJUNOK_clean_sbu_0, # of connection points: 8
#     Node 11, Type 1, BuildingBlock: AJUNOK_clean_sbu_0, # of connection points: 8
#     Node 12, Type 1, BuildingBlock: AJUNOK_clean_sbu_0, # of connection points: 8
#     Node 13, Type 1, BuildingBlock: AJUNOK_clean_sbu_0, # of connection points: 8
#     Edge 14, Type (0, 1), BuildingBlock: TEMPAE_clean_linker_10, # of connection points: 2
#     Edge 15, Type (0, 1), BuildingBlock: TEMPAE_clean_linker_10, # of connection points: 2
#     Edge 16, Type (0, 1), BuildingBlock: TEMPAE_clean_linker_10, # of connection points: 2
#     Edge 17, Type (0, 1), BuildingBlock: TEMPAE_clean_linker_10, # of connection points: 2
#     Edge 18, Type (0, 1), BuildingBlock: TEMPAE_clean_linker_10, # of connection points: 2
#     Edge 19, Type (0, 1), BuildingBlock: TEMPAE_clean_linker_10, # of connection points: 2
#     Edge 20, Type (0, 1), BuildingBlock: TEMPAE_clean_linker_10, # of connection points: 2
#     Edge 21, Type (0, 1), BuildingBlock: TEMPAE_clean_linker_10, # of connection points: 2
#     Edge 22, Type (0, 1), BuildingBlock: TEMPAE_clean_linker_10, # of connection points: 2
#     Edge 23, Type (0, 1), BuildingBlock: TEMPAE_clean_linker_10, # of connection points: 2
#     Edge 24, Type (0, 1), BuildingBlock: TEMPAE_clean_linker_10, # of connection points: 2
#     Edge 25, Type (0, 1), BuildingBlock: TEMPAE_clean_linker_10, # of connection points: 2
#     Edge 26, Type (0, 1), BuildingBlock: TEMPAE_clean_linker_10, # of connection points: 2
#     Edge 27, Type (0, 1), BuildingBlock: TEMPAE_clean_linker_10, # of connection points: 2
#     Edge 28, Type (0, 1), BuildingBlock: TEMPAE_clean_linker_10, # of connection points: 2
#     Edge 29, Type (0, 1), BuildingBlock: TEMPAE_clean_linker_10, # of connection points: 2
#     Edge 30, Type (0, 1), BuildingBlock: TEMPAE_clean_linker_10, # of connection points: 2
#     Edge 31, Type (0, 1), BuildingBlock: TEMPAE_clean_linker_10, # of connection points: 2
#     Edge 32, Type (0, 1), BuildingBlock: TEMPAE_clean_linker_10, # of connection points: 2
#     Edge 33, Type (0, 1), BuildingBlock: TEMPAE_clean_linker_10, # of connection points: 2
#     Edge 34, Type (0, 1), BuildingBlock: TEMPAE_clean_linker_10, # of connection points: 2
#     Edge 35, Type (0, 1), BuildingBlock: TEMPAE_clean_linker_10, # of connection points: 2
#     Edge 36, Type (0, 1), BuildingBlock: TEMPAE_clean_linker_10, # of connection points: 2
#     Edge 37, Type (0, 1), BuildingBlock: TEMPAE_clean_linker_10, # of connection points: 2
#     Edge 38, Type (0, 1), BuildingBlock: TEMPAE_clean_linker_10, # of connection points: 2
#     Edge 39, Type (0, 1), BuildingBlock: TEMPAE_clean_linker_10, # of connection points: 2
#     Edge 40, Type (0, 1), BuildingBlock: TEMPAE_clean_linker_10, # of connection points: 2
#     Edge 41, Type (0, 1), BuildingBlock: TEMPAE_clean_linker_10, # of connection points: 2
#     Edge 42, Type (0, 1), BuildingBlock: TEMPAE_clean_linker_10, # of connection points: 2
#     Edge 43, Type (0, 1), BuildingBlock: TEMPAE_clean_linker_10, # of connection points: 2
#     Edge 44, Type (0, 1), BuildingBlock: TEMPAE_clean_linker_10, # of connection points: 2
#     Edge 45, Type (0, 1), BuildingBlock: TEMPAE_clean_linker_10, # of connection points: 2
#     Edge 46, Type (0, 1), BuildingBlock: TEMPAE_clean_linker_10, # of connection points: 2
#     Edge 47, Type (0, 1), BuildingBlock: TEMPAE_clean_linker_10, # of connection points: 2
#     Edge 48, Type (0, 1), BuildingBlock: TEMPAE_clean_linker_10, # of connection points: 2
#     Edge 49, Type (0, 1), BuildingBlock: TEMPAE_clean_linker_10, # of connection points: 2
#     Edge 50, Type (0, 1), BuildingBlock: TEMPAE_clean_linker_10, # of connection points: 2
#     Edge 51, Type (0, 1), BuildingBlock: TEMPAE_clean_linker_10, # of connection points: 2
#     Edge 52, Type (0, 1), BuildingBlock: TEMPAE_clean_linker_10, # of connection points: 2
#     Edge 53, Type (0, 1), BuildingBlock: TEMPAE_clean_linker_10, # of connection points: 2
#     Edge 54, Type (0, 1), BuildingBlock: TEMPAE_clean_linker_10, # of connection points: 2
#     Edge 55, Type (0, 1), BuildingBlock: TEMPAE_clean_linker_10, # of connection points: 2
#     Edge 56, Type (0, 1), BuildingBlock: TEMPAE_clean_linker_10, # of connection points: 2
#     Edge 57, Type (0, 1), BuildingBlock: TEMPAE_clean_linker_10, # of connection points: 2
#     Edge 58, Type (0, 1), BuildingBlock: TEMPAE_clean_linker_10, # of connection points: 2
#     Edge 59, Type (0, 1), BuildingBlock: TEMPAE_clean_linker_10, # of connection points: 2
#     Edge 60, Type (0, 1), BuildingBlock: TEMPAE_clean_linker_10, # of connection points: 2
#     Edge 61, Type (0, 1), BuildingBlock: TEMPAE_clean_linker_10, # of connection points: 2
# Relax obj value: 0.275
# Max RMSD: 0.363
# Mean RMSD: 0.269
data_MOF--net-ocu--node1-VOLQOD_clean_sbu_1--node2-AJUNOK_clean_sbu_0--edge1-TEMPAE_clean_linker_10
_symmetry_space_group_name_H-M    P1
_symmetry_Int_Tables_number       1
_symmetry_cell_setting            triclinic
loop_
_symmetry_equiv_pos_as_xyz
'x, y, z'
_cell_length_a     42.238863
_cell_length_b     42.314865
_cell_length_c     35.678572
_cell_angle_alpha  96.883992
_cell_angle_beta   96.906737
_cell_angle_gamma 101.82207
loop_
_atom_site_label
_atom_site_type_symbol
_atom_site_fract_x
_atom_site_fract_y
_atom_site_fract_z
_atom_type_partial_charge
O0 O 0.29947 0.30064 0.30429 0.0
Zn1 Zn 0.26094 0.26434 0.30646 0.0
O2 O 0.24054 0.24248 0.25537 0.0
Zn3 Zn 0.19547 0.24614 0.2458 0.0
Zn4 Zn 0.26306 0.26144 0.21682 0.0
Zn5 Zn 0.24134 0.19682 0.25262 0.0
O6 O 0.1649 0.20507 0.25183 0.0
O7 O 0.19828 0.17218 0.26411 0.0
O8 O 0.22912 0.28371 0.33318 0.0
O9 O 0.18689 0.27831 0.28743 0.0
O10 O 0.18428 0.26045 0.1949 0.0
O11 O 0.23349 0.27852 0.17957 0.0
O12 O 0.27958 0.2273 0.186 0.0
O13 O 0.27889 0.23422 0.3382 0.0
O14 O 0.25675 0.18032 0.20426 0.0
O15 O 0.27374 0.19038 0.29523 0.0
C16 C 0.3122 0.31058 0.27613 0.0
C17 C 0.17047 0.17944 0.2641 0.0
C18 C 0.20251 0.27441 0.17294 0.0
C19 C 0.20127 0.28894 0.32145 0.0
C20 C 0.27364 0.1963 0.18253 0.0
C21 C 0.28452 0.20623 0.32848 0.0
O22 O 0.30086 0.29771 0.24174 0.0
O23 O 0.76226 0.18801 0.20064 0.0
Zn24 Zn 0.789 0.22025 0.24669 0.0
O25 O 0.76132 0.24493 0.27198 0.0
Zn26 Zn 0.7759 0.29114 0.27327 0.0
Zn27 Zn 0.71788 0.23302 0.24443 0.0
Zn28 Zn 0.76079 0.23707 0.32419 0.0
O29 O 0.78063 0.31593 0.32595 0.0
O30 O 0.78638 0.27661 0.3603 0.0
O31 O 0.8288 0.25129 0.23399 0.0
O32 O 0.82074 0.29905 0.25966 0.0
O33 O 0.74784 0.30916 0.23488 0.0
O34 O 0.71006 0.26484 0.20858 0.0
O35 O 0.68476 0.23152 0.28077 0.0
O36 O 0.80643 0.19314 0.28365 0.0
O37 O 0.7149 0.23024 0.33583 0.0
O38 O 0.78176 0.19955 0.3348 0.0
C39 C 0.73138 0.17643 0.19483 0.0
C40 C 0.78916 0.30675 0.35762 0.0
C41 C 0.72359 0.29475 0.20967 0.0
C42 C 0.83858 0.28213 0.24398 0.0
C43 C 0.68748 0.23018 0.31647 0.0
C44 C 0.8009 0.18624 0.31643 0.0
O45 O 0.71199 0.18965 0.2128 0.0
O46 O 0.68992 0.7128 0.25165 0.0
Zn47 Zn 0.73179 0.73994 0.28474 0.0
O48 O 0.75853 0.765 0.25167 0.0
Zn49 Zn 0.80405 0.76259 0.26046 0.0
Zn50 Zn 0.74342 0.75096 0.19781 0.0
Zn51 Zn 0.75381 0.80916 0.26044 0.0
O52 O 0.83277 0.80766 0.28012 0.0
O53 O 0.79668 0.83889 0.27386 0.0
O54 O 0.75907 0.71324 0.31352 0.0
O55 O 0.80887 0.73272 0.29962 0.0
O56 O 0.81851 0.74161 0.21302 0.0
O57 O 0.77213 0.72506 0.17256 0.0
O58 O 0.73653 0.78712 0.16779 0.0
O59 O 0.71709 0.7698 0.3255 0.0
O60 O 0.73029 0.82265 0.21552 0.0
O61 O 0.73183 0.81749 0.30552 0.0
C62 C 0.68045 0.71135 0.21596 0.0
C63 C 0.82569 0.83569 0.28276 0.0
C64 C 0.80242 0.7258 0.18143 0.0
C65 C 0.7898 0.71444 0.31729 0.0
C66 C 0.72773 0.813 0.17994 0.0
C67 C 0.7192 0.80052 0.32921 0.0
O68 O 0.69897 0.72447 0.19395 0.0
O69 O 0.30353 0.74587 0.29707 0.0
Zn70 Zn 0.2756 0.72938 0.24504 0.0
O71 O 0.25532 0.76315 0.22784 0.0
Zn72 Zn 0.20944 0.75523 0.23097 0.0
Zn73 Zn 0.27607 0.80163 0.26204 0.0
Zn74 Zn 0.26143 0.76992 0.17663 0.0
O75 O 0.18226 0.7539 0.17985 0.0
O76 O 0.21957 0.74948 0.14187 0.0
O77 O 0.24116 0.68989 0.25019 0.0
O78 O 0.19687 0.71047 0.24292 0.0
O79 O 0.19903 0.78447 0.27524 0.0
O80 O 0.2492 0.81006 0.30244 0.0
O81 O 0.2805 0.84022 0.23516 0.0
O82 O 0.30394 0.71764 0.20667 0.0
O83 O 0.27059 0.81851 0.17394 0.0
O84 O 0.29646 0.74691 0.15959 0.0
C85 C 0.32205 0.77417 0.3071 0.0
C86 C 0.18981 0.74697 0.14672 0.0
C87 C 0.21855 0.80319 0.30288 0.0
C88 C 0.21044 0.68707 0.24929 0.0
C89 C 0.27671 0.84331 0.20003 0.0
C90 C 0.3102 0.7263 0.17479 0.0
O91 O 0.31877 0.79755 0.28875 0.0
O92 O 0.27414 0.71507 0.69574 0.0
Zn93 Zn 0.28718 0.74454 0.74742 0.0
O94 O 0.2491 0.75839 0.76298 0.0
Zn95 Zn 0.25095 0.80333 0.75678 0.0
Zn96 Zn 0.21096 0.73119 0.73131 0.0
Zn97 Zn 0.24628 0.75393 0.8155 0.0
O98 O 0.24513 0.82974 0.80492 0.0
O99 O 0.25812 0.79821 0.84709 0.0
O100 O 0.32216 0.78371 0.74421 0.0
O101 O 0.29602 0.82423 0.74781 0.0
O102 O 0.21828 0.80687 0.71244 0.0
O103 O 0.19292 0.75516 0.6913 0.0
O104 O 0.17528 0.7163 0.76219 0.0
O105 O 0.30613 0.72068 0.78718 0.0
O106 O 0.2009 0.73282 0.82157 0.0
O107 O 0.27677 0.72649 0.83442 0.0
C108 C 0.24776 0.69325 0.68555 0.0
C109 C 0.2539 0.82575 0.83914 0.0
C110 C 0.19791 0.78536 0.68836 0.0
C111 C 0.32197 0.81382 0.74482 0.0
C112 C 0.17524 0.71912 0.79813 0.0
C113 C 0.29938 0.71565 0.82014 0.0
O114 O 0.22311 0.69306 0.70289 0.0
O115 O 0.19935 0.21517 0.762 0.0
Zn116 Zn 0.24389 0.24186 0.78444 0.0
O117 O 0.26602 0.25816 0.74271 0.0
Zn118 Zn 0.30767 0.24619 0.74555 0.0
Zn119 Zn 0.24207 0.24101 0.69218 0.0
Zn120 Zn 0.27241 0.30517 0.74963 0.0
O121 O 0.34415 0.28535 0.7525 0.0
O122 O 0.31857 0.32294 0.77438 0.0
O123 O 0.26973 0.21602 0.81637 0.0
O124 O 0.31556 0.22358 0.7908 0.0
O125 O 0.31014 0.21501 0.70025 0.0
O126 O 0.26302 0.2083 0.66198 0.0
O127 O 0.2364 0.27706 0.66167 0.0
O128 O 0.23369 0.27852 0.81953 0.0
O129 O 0.26092 0.32256 0.70078 0.0
O130 O 0.24346 0.31973 0.78638 0.0
C131 C 0.18361 0.21162 0.72847 0.0
C132 C 0.34462 0.31256 0.7722 0.0
C133 C 0.29093 0.20146 0.6698 0.0
C134 C 0.29898 0.21261 0.81577 0.0
C135 C 0.24505 0.30809 0.66854 0.0
C136 C 0.23183 0.3073 0.814 0.0
O137 O 0.19712 0.2205 0.70024 0.0
O138 O 0.80614 0.23775 0.83064 0.0
Zn139 Zn 0.77719 0.22396 0.77856 0.0
O140 O 0.75533 0.25838 0.76336 0.0
Zn141 Zn 0.70846 0.24902 0.76528 0.0
Zn142 Zn 0.77576 0.29867 0.7956 0.0
Zn143 Zn 0.76057 0.26421 0.71162 0.0
O144 O 0.68076 0.24392 0.7132 0.0
O145 O 0.71953 0.24486 0.67647 0.0
O146 O 0.74232 0.18444 0.78221 0.0
O147 O 0.69692 0.20391 0.7785 0.0
O148 O 0.69628 0.28211 0.80463 0.0
O149 O 0.74366 0.31832 0.82164 0.0
O150 O 0.80127 0.3298 0.76607 0.0
O151 O 0.805 0.21154 0.73881 0.0
O152 O 0.77665 0.31082 0.70662 0.0
O153 O 0.79274 0.23987 0.69266 0.0
C154 C 0.8144 0.26608 0.85038 0.0
C155 C 0.68955 0.23921 0.68044 0.0
C156 C 0.71357 0.3086 0.82425 0.0
C157 C 0.71159 0.18072 0.78227 0.0
C158 C 0.79639 0.33263 0.73082 0.0
C159 C 0.8082 0.21992 0.70604 0.0
O160 O 0.80517 0.29041 0.8388 0.0
O161 O 0.79068 0.80542 0.77901 0.0
Zn162 Zn 0.76388 0.76418 0.7938 0.0
O163 O 0.73802 0.73456 0.7483 0.0
Zn164 Zn 0.69132 0.73341 0.74608 0.0
Zn165 Zn 0.75146 0.74947 0.70243 0.0
Zn166 Zn 0.74574 0.69099 0.74896 0.0
O167 O 0.66626 0.68798 0.74936 0.0
O168 O 0.70485 0.65964 0.75669 0.0
O169 O 0.73358 0.77865 0.82824 0.0
O170 O 0.6846 0.76171 0.79269 0.0
O171 O 0.67234 0.75001 0.69869 0.0
O172 O 0.71504 0.75808 0.66784 0.0
O173 O 0.77185 0.71845 0.67204 0.0
O174 O 0.7946 0.74204 0.82394 0.0
O175 O 0.76198 0.6747 0.70108 0.0
O176 O 0.78155 0.69171 0.7917 0.0
C177 C 0.79443 0.81239 0.74584 0.0
C178 C 0.67502 0.66166 0.75519 0.0
C179 C 0.68539 0.75856 0.66996 0.0
C180 C 0.70286 0.77688 0.8233 0.0
C181 C 0.77276 0.68887 0.67413 0.0
C182 C 0.79868 0.7129 0.81884 0.0
O183 O 0.78154 0.79255 0.71575 0.0
Cd184 Cd 0.97999 0.97328 0.5594 0.0
Cd185 Cd 0.06104 0.03961 0.50463 0.0
C186 C 0.04519 0.94965 0.5781 0.0
N187 N 0.01937 0.94332 0.54967 0.0
C188 C 0.03979 0.90064 0.5172 0.0
C189 C 0.06627 0.90611 0.54689 0.0
C190 C 0.06903 0.93143 0.57722 0.0
C191 C 0.01643 0.91977 0.51913 0.0
H192 H 0.04667 0.96813 0.6023 0.0
H193 H -0.00442 0.91528 0.49687 0.0
C194 C 0.99352 -0.00519 0.46613 0.0
C195 C 0.02094 0.07663 0.44783 0.0
C196 C -0.00508 0.08925 0.43307 0.0
C197 C 0.97233 0.09637 0.45667 0.0
C198 C 0.97747 0.09266 0.49524 0.0
C199 C 0.00308 0.07866 0.50847 0.0
N200 N 0.02336 0.06981 0.48429 0.0
H201 H 0.03794 0.07009 0.4295 0.0
H202 H 0.00604 0.0737 0.53757 0.0
C203 C 0.06687 0.9675 0.46638 0.0
N204 N 0.08313 0.99286 0.4936 0.0
C205 C 0.12985 0.96878 0.49977 0.0
C206 C 0.11427 0.94393 0.46965 0.0
C207 C 0.08201 0.94279 0.45402 0.0
C208 C 0.11371 0.99336 0.51126 0.0
H209 H 0.04268 0.96674 0.45256 0.0
H210 H 0.12626 0.01375 0.53276 0.0
C211 C 0.03358 0.03354 0.59445 0.0
C212 C 0.93811 0.93303 0.59718 0.0
N213 N 0.94725 0.01138 0.55877 0.0
C214 C 0.9416 0.02041 0.59474 0.0
C215 C 0.92344 0.04371 0.60195 0.0
C216 C 0.91074 0.05797 0.57182 0.0
C217 C 0.91622 0.04794 0.53462 0.0
C218 C 0.93471 0.02424 0.52862 0.0
C219 C 0.11271 0.08946 0.49208 0.0
O220 O -0.00345 0.9922 0.5013 0.0
O221 O 0.01723 0.012 0.45385 0.0
O222 O 0.03879 0.02441 0.56111 0.0
O223 O 0.01356 0.01404 0.60915 0.0
O224 O 0.93113 0.93072 0.56093 0.0
O225 O 0.96534 0.95094 0.61336 0.0
O226 O 0.09739 0.09419 0.5201 0.0
O227 O 0.10653 0.06074 0.47393 0.0
H228 H 0.95172 0.00978 0.61815 0.0
H229 H 0.93925 0.01648 0.50017 0.0
H230 H 0.03684 0.88144 0.49324 0.0
H231 H 0.08849 0.93605 0.60125 0.0
H232 H 0.99189 0.09253 0.40329 0.0
H233 H 0.96097 0.09901 0.51432 0.0
H234 H 0.15483 0.97035 0.51249 0.0
H235 H 0.06909 0.92369 0.43106 0.0
H236 H 0.91988 0.05101 0.63104 0.0
H237 H 0.90648 0.05839 0.5107 0.0
Cd238 Cd 0.48534 0.99322 0.06263 0.0
Cd239 Cd 0.51851 0.00412 0.95109 0.0
C240 C 0.55253 0.97019 0.08853 0.0
N241 N 0.5227 0.95945 0.06658 0.0
C242 C 0.53675 0.90939 0.04365 0.0
C243 C 0.56833 0.92084 0.06418 0.0
C244 C 0.57599 0.95144 0.08723 0.0
C245 C 0.51428 0.92946 0.04485 0.0
H246 H 0.55845 0.99348 0.1068 0.0
H247 H 0.49026 0.92133 0.028 0.0
C248 C 0.45643 0.95714 0.96174 0.0
C249 C 0.45088 0.02146 0.91572 0.0
C250 C 0.42644 0.03873 0.9097 0.0
C251 C 0.42909 0.06918 0.93187 0.0
C252 C 0.45575 0.0805 0.96137 0.0
C253 C 0.47937 0.06194 0.96702 0.0
N254 N 0.47667 0.03311 0.9441 0.0
H255 H 0.44949 -0.00096 0.89698 0.0
H256 H 0.5004 0.071 0.98896 0.0
C257 C 0.53771 0.93378 0.95752 0.0
N258 N 0.54968 0.9666 0.96385 0.0
C259 C 0.60451 0.95962 0.97446 0.0
C260 C 0.59311 0.92564 0.96579 0.0
C261 C 0.55917 0.91269 0.95837 0.0
C262 C 0.58226 0.97972 0.97258 0.0
H263 H 0.51173 0.92388 0.94987 0.0
H264 H 0.59101 0.0059 0.97607 0.0
C265 C 0.54621 0.03799 0.04922 0.0
C266 C 0.44088 0.97108 0.11086 0.0
N267 N 0.45805 0.03308 0.04905 0.0
C268 C 0.46975 0.06563 0.06035 0.0
C269 C 0.44814 0.08661 0.0608 0.0
C270 C 0.41434 0.07389 0.04894 0.0
C271 C 0.40382 0.04047 0.03448 0.0
C272 C 0.42588 0.02035 0.03689 0.0
C273 C 0.55937 0.03498 0.9035 0.0
O274 O 0.47197 0.97213 0.99381 0.0
O275 O 0.47062 0.95957 0.93252 0.0
O276 O 0.52835 0.02206 0.01906 0.0
O277 O 0.535 0.03594 0.08042 0.0
O278 O 0.44252 0.95369 0.07992 0.0
O279 O 0.4621 -0.0024 0.12128 0.0
O280 O 0.55873 0.04823 0.93721 0.0
O281 O 0.53999 0.00749 0.89141 0.0
H282 H 0.49527 0.07503 0.07181 0.0
H283 H 0.41712 -0.00581 0.03183 0.0
H284 H 0.52985 0.88565 0.02606 0.0
H285 H 0.59978 0.9606 0.10451 0.0
H286 H 0.40612 0.02868 0.88703 0.0
H287 H 0.4591 0.10402 0.97887 0.0
H288 H 0.63044 0.97063 0.98048 0.0
H289 H 0.54932 0.88666 0.95092 0.0
H290 H 0.45771 0.11193 0.07299 0.0
H291 H 0.37841 0.02932 0.02401 0.0
Cd292 Cd -0.00525 0.47999 0.06338 0.0
Cd293 Cd 0.00905 0.51216 0.95125 0.0
C294 C 0.06808 0.46971 0.06953 0.0
N295 N 0.03817 0.45682 0.04855 0.0
C296 C 0.05578 0.40902 0.02487 0.0
C297 C 0.08582 0.42055 0.04897 0.0
C298 C 0.09259 0.45222 0.06948 0.0
C299 C 0.03215 0.42779 0.02504 0.0
H300 H 0.07233 0.49241 0.08867 0.0
H301 H 0.00834 0.41804 0.00849 0.0
C302 C 0.95857 0.45179 0.96402 0.0
C303 C 0.94406 0.53626 0.92988 0.0
C304 C 0.9244 0.5589 0.92752 0.0
C305 C 0.92979 0.58578 0.95646 0.0
C306 C 0.95314 0.58808 0.98855 0.0
C307 C 0.97157 0.56431 0.99027 0.0
N308 N 0.96764 0.53982 0.96047 0.0
H309 H 0.94218 0.51725 0.90605 0.0
H310 H 0.99003 0.56652 0.01458 0.0
C311 C 0.03499 0.44904 0.92019 0.0
N312 N 0.04397 0.47546 0.94796 0.0
C313 C 0.09427 0.46017 0.96773 0.0
C314 C 0.08597 0.43292 0.93871 0.0
C315 C 0.0556 0.42744 0.91506 0.0
C316 C 0.07289 0.48127 0.97174 0.0
H317 H 0.01212 0.44519 0.90122 0.0
H318 H 0.07958 0.50253 0.99356 0.0
C319 C 0.04218 0.54222 0.05098 0.0
C320 C 0.97049 0.43639 0.11312 0.0
N321 N 0.96177 0.51807 0.0699 0.0
C322 C 0.96927 0.5408 0.10179 0.0
C323 C 0.95002 0.56352 0.10784 0.0
C324 C 0.92267 0.56282 0.0809 0.0
C325 C 0.91541 0.53914 0.04817 0.0
C326 C 0.93526 0.51663 0.04338 0.0
C327 C 0.03221 0.55531 0.9017 0.0
O328 O 0.97504 0.46708 0.99537 0.0
O329 O 0.96403 0.46399 0.93399 0.0
O330 O 0.0266 0.52543 0.01988 0.0
O331 O 0.03651 0.53108 0.08158 0.0
O332 O 0.95432 0.43753 0.08117 0.0
O333 O -0.00216 0.45655 0.12286 0.0
O334 O 0.04243 0.56051 0.93721 0.0
O335 O 0.01291 0.52815 0.88786 0.0
H336 H 0.99008 0.54107 0.12278 0.0
H337 H 0.92948 0.49801 0.01852 0.0
H338 H 0.04953 0.38476 0.00852 0.0
H339 H 0.11571 0.4623 0.08784 0.0
H340 H 0.90684 0.5568 0.90207 0.0
H341 H 0.95782 0.60856 0.01134 0.0
H342 H 0.11711 0.46529 0.98706 0.0
H343 H 0.04825 0.4074 0.89168 0.0
H344 H 0.9564 0.58147 0.13343 0.0
H345 H 0.89435 0.53773 0.02694 0.0
Cd346 Cd 0.4897 0.47121 0.09393 0.0
Cd347 Cd 0.51341 0.5107 0.98238 0.0
C348 C 0.56572 0.46608 0.10111 0.0
N349 N 0.53572 0.45168 0.08119 0.0
C350 C 0.5563 0.40726 0.05323 0.0
C351 C 0.58697 0.42007 0.07574 0.0
C352 C 0.59181 0.4506 0.09887 0.0
C353 C 0.53079 0.42317 0.05703 0.0
H354 H 0.56887 0.48852 0.12057 0.0
H355 H 0.50659 0.41173 0.04224 0.0
C356 C 0.46326 0.44279 0.99135 0.0
C357 C 0.44456 0.52638 0.95523 0.0
C358 C 0.42248 0.54515 0.94456 0.0
C359 C 0.43037 0.57901 0.95682 0.0
C360 C 0.45929 0.59269 0.98242 0.0
C361 C 0.48066 0.57287 0.99261 0.0
N362 N 0.47327 0.54059 0.97812 0.0
H363 H 0.43952 0.50078 0.94361 0.0
H364 H 0.50406 0.5836 0.01 0.0
C365 C 0.54444 0.44876 0.96799 0.0
N366 N 0.55222 0.479 0.98902 0.0
C367 C 0.60737 0.47415 0.00607 0.0
C368 C 0.59991 0.44314 0.98386 0.0
C369 C 0.56785 0.43013 0.96556 0.0
C370 C 0.58279 0.49173 0.00857 0.0
H371 H 0.5206 0.43968 0.9512 0.0
H372 H 0.58848 0.51615 0.02439 0.0
C373 C 0.5256 0.53793 0.08218 0.0
C374 C 0.46572 0.43557 0.1509 0.0
N375 N 0.45244 0.50493 0.08715 0.0
C376 C 0.44558 0.51943 0.12038 0.0
C377 C 0.42686 0.54301 0.12 0.0
C378 C 0.41534 0.55173 0.08509 0.0
C379 C 0.42172 0.53574 0.05115 0.0
C380 C 0.44039 0.51209 0.05281 0.0
C381 C 0.54347 0.53988 0.92457 0.0
O382 O 0.47238 0.45261 0.02662 0.0
O383 O 0.47277 0.46035 0.96659 0.0
O384 O 0.51871 0.51882 0.05082 0.0
O385 O 0.52107 0.52597 0.11249 0.0
O386 O 0.45355 0.42753 0.11586 0.0
O387 O 0.48981 0.45992 0.15934 0.0
O388 O 0.55132 0.55306 0.95946 0.0
O389 O 0.52177 0.51339 0.91717 0.0
H390 H 0.4557 0.51348 0.14727 0.0
H391 H 0.44608 0.50036 0.02677 0.0
H392 H 0.55145 0.38426 0.03432 0.0
H393 H 0.61475 0.46138 0.11725 0.0
H394 H 0.40014 0.53351 0.92542 0.0
H395 H 0.46644 0.6187 0.99233 0.0
H396 H 0.63208 0.48502 0.02007 0.0
H397 H 0.56149 0.40665 0.94735 0.0
H398 H 0.42243 0.55518 0.14672 0.0
H399 H 0.41281 0.54191 0.02388 0.0
Cd400 Cd 0.00348 0.50285 0.56003 0.0
Cd401 Cd 0.0307 0.53957 0.45357 0.0
C402 C 0.07203 0.48595 0.59234 0.0
N403 N 0.04605 0.47536 0.564 0.0
C404 C 0.06595 0.42804 0.54374 0.0
C405 C 0.09291 0.43851 0.57273 0.0
C406 C 0.09595 0.46782 0.59714 0.0
C407 C 0.04254 0.44697 0.5399 0.0
H408 H 0.07376 0.50796 0.61198 0.0
H409 H 0.02125 0.4388 0.51817 0.0
C410 C 0.97884 0.47902 0.45932 0.0
C411 C 0.9626 0.55736 0.42636 0.0
C412 C 0.93647 0.57284 0.42454 0.0
C413 C 0.93743 0.60051 0.45111 0.0
C414 C 0.96532 0.61202 0.479 0.0
C415 C 0.99093 0.59546 0.48 0.0
N416 N 0.98902 0.56864 0.45387 0.0
H417 H 0.96189 0.53641 0.40548 0.0
H418 H 0.01226 0.60395 0.50164 0.0
C419 C 0.0537 0.47846 0.4195 0.0
N420 N 0.05731 0.49723 0.45404 0.0
C421 C 0.09807 0.47096 0.47982 0.0
C422 C 0.09481 0.45156 0.44433 0.0
C423 C 0.07219 0.45519 0.41404 0.0
C424 C 0.07889 0.494 0.48409 0.0
H425 H 0.03723 0.4824 0.39576 0.0
H426 H 0.08199 0.50982 0.51094 0.0
C427 C 0.05864 0.56197 0.55547 0.0
C428 C 0.96258 0.46322 0.60046 0.0
N429 N 0.97038 0.54019 0.55383 0.0
C430 C 0.97271 0.56289 0.58489 0.0
C431 C 0.95096 0.58357 0.58578 0.0
C432 C 0.92636 0.58071 0.55445 0.0
C433 C 0.92482 0.55727 0.5226 0.0
C434 C 0.94736 0.53743 0.52274 0.0
C435 C 0.0728 0.56697 0.4055 0.0
O436 O 0.99415 0.49406 0.49129 0.0
O437 O 0.98708 0.4906 0.42991 0.0
O438 O 0.04284 0.54928 0.52281 0.0
O439 O 0.04794 0.55097 0.58423 0.0
O440 O 0.96535 0.45383 0.56616 0.0
O441 O 0.98018 0.4907 0.61648 0.0
O442 O 0.0791 0.57632 0.44133 0.0
O443 O 0.04517 0.54824 0.39242 0.0
H444 H 0.99075 0.56409 0.60956 0.0
H445 H 0.94581 0.51952 0.49815 0.0
H446 H 0.06264 0.40517 0.52496 0.0
H447 H 0.1163 0.47621 0.62015 0.0
H448 H 0.91602 0.56362 0.40184 0.0
H449 H 0.96708 0.6332 0.50009 0.0
H450 H 0.11591 0.46909 0.50341 0.0
H451 H 0.06949 0.44071 0.38618 0.0
H452 H 0.95253 0.60054 0.61154 0.0
H453 H 0.90635 0.55419 0.49783 0.0
Cd454 Cd 0.48996 0.97219 0.54236 0.0
Cd455 Cd 0.51068 0.02533 0.44305 0.0
C456 C 0.55951 0.95528 0.53359 0.0
N457 N 0.52705 0.94177 0.52382 0.0
C458 C 0.53763 0.88831 0.5135 0.0
C459 C 0.5709 0.90128 0.52727 0.0
C460 C 0.58202 0.93538 0.53533 0.0
C461 C 0.51595 0.90912 0.51236 0.0
H462 H 0.56778 0.9812 0.54306 0.0
H463 H 0.49004 0.89874 0.50596 0.0
C464 C 0.46005 0.96196 0.44141 0.0
C465 C 0.43708 0.0377 0.44225 0.0
C466 C 0.41487 0.0576 0.44621 0.0
C467 C 0.4249 0.08807 0.46951 0.0
C468 C 0.45617 0.09654 0.49113 0.0
C469 C 0.47738 0.07552 0.487 0.0
N470 N 0.46796 0.04734 0.46181 0.0
H471 H 0.43026 0.01603 0.42122 0.0
H472 H 0.50231 0.08309 0.50134 0.0
C473 C 0.53604 0.96127 0.4138 0.0
N474 N 0.54688 0.98961 0.43852 0.0
C475 C 0.59743 0.97416 0.45714 0.0
C476 C 0.58658 0.94462 0.4319 0.0
C477 C 0.55524 0.93828 0.41048 0.0
C478 C 0.57701 -0.00358 0.46009 0.0
H479 H 0.51245 0.95636 0.39625 0.0
H480 H 0.58522 0.01913 0.47953 0.0
C481 C 0.53917 0.03867 0.54588 0.0
C482 C 0.46821 0.93428 0.59772 0.0
N483 N 0.45164 0.00546 0.54342 0.0
C484 C 0.46001 0.03316 0.56936 0.0
C485 C 0.43894 0.05442 0.57221 0.0
C486 C 0.40856 0.04708 0.54852 0.0
C487 C 0.40013 0.01797 0.52241 0.0
C488 C 0.42222 -0.00259 0.52025 0.0
C489 C 0.534 0.07916 0.40605 0.0
O490 O 0.47599 0.97325 0.47441 0.0
O491 O 0.46654 0.97842 0.4147 0.0
O492 O 0.52667 0.02838 0.51132 0.0
O493 O 0.53243 0.01975 0.57016 0.0
O494 O 0.4551 0.92646 0.5629 0.0
O495 O 0.49097 0.95981 0.60623 0.0
O496 O 0.53853 0.08038 0.4419 0.0
O497 O 0.52051 0.05168 0.38611 0.0
H498 H 0.48294 0.03866 0.58838 0.0
H499 H 0.41582 0.975 0.50022 0.0
H500 H 0.52788 0.86219 0.50748 0.0
H501 H 0.60755 0.94643 0.54558 0.0
H502 H 0.39115 0.05058 0.42845 0.0
H503 H 0.4648 0.12004 0.50906 0.0
H504 H 0.62155 0.9802 0.47395 0.0
H505 H 0.54563 0.91574 0.39097 0.0
H506 H 0.44613 0.07609 0.5935 0.0
H507 H 0.37693 0.01135 0.50364 0.0
C508 C 0.14256 0.13606 0.29884 0.0
C509 C 0.15241 0.16894 0.29483 0.0
C510 C 0.13336 0.12734 0.33349 0.0
C511 C 0.13662 0.15205 0.3653 0.0
C512 C 0.14544 0.18525 0.36075 0.0
C513 C 0.1522 0.19321 0.32524 0.0
C514 C 0.12175 0.09169 0.33656 0.0
C515 C 0.15078 0.21236 0.39409 0.0
C516 C 0.10048 0.13018 0.45344 0.0
C517 C 0.12444 0.11604 0.47101 0.0
C518 C 0.10401 0.14233 0.41903 0.0
C519 C 0.13359 0.14312 0.40393 0.0
C520 C 0.15979 0.13336 0.42484 0.0
C521 C 0.15441 0.11859 0.45741 0.0
C522 C 0.07455 0.15023 0.39687 0.0
C523 C 0.19268 0.1363 0.41137 0.0
H524 H 0.14299 0.11732 0.27547 0.0
H525 H 0.16054 0.21871 0.32242 0.0
H526 H 0.14202 0.08264 0.35126 0.0
H527 H 0.1013 0.08814 0.3536 0.0
H528 H 0.11349 0.07661 0.308 0.0
H529 H 0.15589 0.23696 0.38515 0.0
H530 H 0.12916 0.21006 0.40917 0.0
H531 H 0.17186 0.21056 0.4149 0.0
H532 H 0.07717 0.12781 0.46387 0.0
H533 H 0.17281 0.10735 0.47083 0.0
H534 H 0.06272 0.12907 0.37462 0.0
H535 H 0.08139 0.17168 0.38214 0.0
H536 H 0.05622 0.15483 0.41553 0.0
H537 H 0.19126 0.1163 0.38769 0.0
H538 H 0.21201 0.13462 0.43462 0.0
H539 H 0.20001 0.15981 0.40046 0.0
C540 C 0.81155 0.15242 0.36797 0.0
C541 C 0.82035 0.16561 0.33542 0.0
C542 C 0.83248 0.13681 0.38899 0.0
C543 C 0.8632 0.13521 0.37772 0.0
C544 C 0.87146 0.14711 0.34392 0.0
C545 C 0.84978 0.16176 0.32297 0.0
C546 C 0.82233 0.12327 0.42407 0.0
C547 C 0.90409 0.14613 0.33103 0.0
C548 C 0.93746 0.13677 0.44962 0.0
C549 C 0.94236 0.10532 0.44015 0.0
C550 C 0.91066 0.14638 0.43076 0.0
C551 C 0.88808 0.12367 0.40245 0.0
C552 C 0.89187 0.09114 0.39484 0.0
C553 C 0.9193 0.08247 0.41348 0.0
C554 C 0.90765 0.18135 0.4395 0.0
C555 C 0.86785 0.06591 0.36585 0.0
H556 H 0.78865 0.15495 0.37751 0.0
H557 H 0.85681 0.17184 0.29789 0.0
H558 H 0.8274 0.0986 0.42458 0.0
H559 H 0.83673 0.13923 0.45003 0.0
H560 H 0.79593 0.12173 0.42552 0.0
H561 H 0.90623 0.15532 0.30335 0.0
H562 H 0.9241 0.1613 0.35286 0.0
H563 H 0.90784 0.12083 0.32804 0.0
H564 H 0.95538 0.15422 0.47048 0.0
H565 H 0.92309 0.05795 0.40674 0.0
H566 H 0.88277 0.18227 0.44589 0.0
H567 H 0.91134 0.1937 0.41411 0.0
H568 H 0.92583 0.19524 0.46408 0.0
H569 H 0.84235 0.06678 0.36968 0.0
H570 H 0.87131 0.04079 0.36787 0.0
H571 H 0.8711 0.0712 0.33667 0.0
C572 C 0.88313 0.86502 0.3089 0.0
C573 C 0.84975 0.86477 0.30293 0.0
C574 C 0.90502 0.89043 0.33369 0.0
C575 C 0.89291 0.91547 0.35338 0.0
C576 C 0.85958 0.91629 0.34587 0.0
C577 C 0.83843 0.89109 0.32034 0.0
C578 C 0.9408 0.88957 0.34045 0.0
C579 C 0.84566 0.94224 0.36688 0.0
C580 C 0.94403 0.95 0.44888 0.0
C581 C 0.96441 0.97746 0.43961 0.0
C582 C 0.91919 0.9304 0.42141 0.0
C583 C 0.91474 0.93893 0.38425 0.0
C584 C 0.93331 0.96832 0.37594 0.0
C585 C 0.95822 0.98722 0.4038 0.0
C586 C 0.89913 0.89958 0.43147 0.0
C587 C 0.92823 0.97879 0.33708 0.0
H588 H 0.89193 0.8449 0.29522 0.0
H589 H 0.81258 0.89106 0.31602 0.0
H590 H 0.95617 0.91352 0.33752 0.0
H591 H 0.94747 0.8849 0.37001 0.0
H592 H 0.94674 0.87028 0.32026 0.0
H593 H 0.82099 0.94298 0.35266 0.0
H594 H 0.8435 0.93692 0.39629 0.0
H595 H 0.86196 0.96677 0.36931 0.0
H596 H 0.94855 0.94291 0.47691 0.0
H597 H 0.9735 0.00912 0.39714 0.0
H598 H 0.90581 0.87803 0.41619 0.0
H599 H 0.8727 0.8977 0.42225 0.0
H600 H 0.90317 0.89851 0.46261 0.0
H601 H 0.93733 0.96257 0.31614 0.0
H602 H 0.94136 0.0044 0.33712 0.0
H603 H 0.90184 0.97654 0.32715 0.0
C604 C 0.17388 0.80737 0.34233 0.0
C605 C 0.20575 0.81911 0.33517 0.0
C606 C 0.16073 0.82457 0.3705 0.0
C607 C 0.17961 0.85458 0.39105 0.0
C608 C 0.21254 0.86529 0.38576 0.0
C609 C 0.2253 0.84724 0.35815 0.0
C610 C 0.12593 0.81174 0.37645 0.0
C611 C 0.23348 0.89726 0.40675 0.0
C612 C 0.13243 0.91994 0.41139 0.0
C613 C 0.13228 0.92166 0.4508 0.0
C614 C 0.14805 0.89841 0.39193 0.0
C615 C 0.16337 0.87749 0.41226 0.0
C616 C 0.16355 0.87922 0.45221 0.0
C617 C 0.14841 0.9018 0.47115 0.0
C618 C 0.14813 0.89811 0.34953 0.0
C619 C 0.17897 0.85684 0.47473 0.0
H620 H 0.15894 0.7852 0.32533 0.0
H621 H 0.25014 0.85629 0.35316 0.0
H622 H 0.12384 0.81454 0.40733 0.0
H623 H 0.10982 0.82603 0.36263 0.0
H624 H 0.11686 0.78561 0.364 0.0
H625 H 0.25976 0.89943 0.40414 0.0
H626 H 0.22526 0.91773 0.39468 0.0
H627 H 0.23091 0.9001 0.43746 0.0
H628 H 0.12042 0.93575 0.39577 0.0
H629 H 0.14862 0.90348 0.5016 0.0
H630 H 0.13521 0.87377 0.33382 0.0
H631 H 0.17364 0.90268 0.34323 0.0
H632 H 0.1361 0.9168 0.33835 0.0
H633 H 0.16495 0.8313 0.46562 0.0
H634 H 0.17938 0.8632 0.50594 0.0
H635 H 0.20435 0.8577 0.46905 0.0
C636 C 0.18343 0.79168 0.62024 0.0
C637 C 0.17783 0.79614 0.6582 0.0
C638 C 0.16624 0.80511 0.59222 0.0
C639 C 0.14289 0.82293 0.60276 0.0
C640 C 0.13598 0.8256 0.64082 0.0
C641 C 0.15388 0.81249 0.66815 0.0
C642 C 0.17452 0.80158 0.55218 0.0
C643 C 0.11063 0.84355 0.65318 0.0
C644 C 0.12189 0.89598 0.56503 0.0
C645 C 0.08893 0.88361 0.5495 0.0
C646 C 0.1415 0.87538 0.57799 0.0
C647 C 0.12758 0.84175 0.57601 0.0
C648 C 0.09577 0.82852 0.55578 0.0
C649 C 0.07668 0.84968 0.54275 0.0
C650 C 0.17597 0.89021 0.59753 0.0
C651 C 0.0806 0.79254 0.55166 0.0
H652 H 0.20205 0.77883 0.61278 0.0
H653 H 0.14954 0.81546 0.69759 0.0
H654 H 0.15354 0.80216 0.53056 0.0
H655 H 0.19503 0.82208 0.5501 0.0
H656 H 0.18264 0.77847 0.54519 0.0
H657 H 0.10649 0.84111 0.68297 0.0
H658 H 0.11867 0.86989 0.65122 0.0
H659 H 0.08699 0.83411 0.63403 0.0
H660 H 0.13186 0.92209 0.56905 0.0
H661 H 0.05131 0.83981 0.53049 0.0
H662 H 0.19287 0.87478 0.5887 0.0
H663 H 0.17674 0.89156 0.6289 0.0
H664 H 0.1849 0.91524 0.59101 0.0
H665 H 0.09878 0.77776 0.54566 0.0
H666 H 0.0593 0.78514 0.52848 0.0
H667 H 0.07205 0.78687 0.57883 0.0
C668 C 0.13793 0.16675 0.73517 0.0
C669 C 0.14892 0.19578 0.7211 0.0
C670 C 0.10829 0.14586 0.7181 0.0
C671 C 0.08989 0.15483 0.6868 0.0
C672 C 0.09767 0.187 0.67842 0.0
C673 C 0.1278 0.20707 0.69515 0.0
C674 C 0.09951 0.11225 0.72937 0.0
C675 C 0.07674 0.19855 0.648 0.0
C676 C 0.07585 0.08485 0.60764 0.0
C677 C 0.04564 0.06713 0.61326 0.0
C678 C 0.08928 0.11551 0.62911 0.0
C679 C 0.07164 0.12848 0.65645 0.0
C680 C 0.0394 0.11226 0.65875 0.0
C681 C 0.02691 0.08134 0.63747 0.0
C682 C 0.12342 0.13265 0.62459 0.0
C683 C 0.01865 0.12625 0.68504 0.0
H684 H 0.15403 0.15868 0.75621 0.0
H685 H 0.1359 0.23043 0.6857 0.0
H686 H 0.07307 0.10554 0.73145 0.0
H687 H 0.10469 0.09403 0.70718 0.0
H688 H 0.11369 0.1107 0.75715 0.0
H689 H 0.07822 0.22517 0.65499 0.0
H690 H 0.08579 0.19433 0.62031 0.0
H691 H 0.05077 0.18528 0.64459 0.0
H692 H 0.08981 0.07387 0.58825 0.0
H693 H 0.00275 0.068 0.64048 0.0
H694 H 0.14036 0.13463 0.65151 0.0
H695 H 0.12357 0.15773 0.61841 0.0
H696 H 0.13307 0.1196 0.60115 0.0
H697 H 0.01917 0.11446 0.71119 0.0
H698 H 0.99275 0.12084 0.6711 0.0
H699 H 0.02723 0.15304 0.69348 0.0
C700 C 0.81499 0.19437 0.64184 0.0
C701 C 0.82695 0.20318 0.68094 0.0
C702 C 0.82907 0.17381 0.61839 0.0
C703 C 0.85635 0.16265 0.63425 0.0
C704 C 0.8703 0.17394 0.67293 0.0
C705 C 0.85502 0.19359 0.69607 0.0
C706 C 0.8131 0.16196 0.57755 0.0
C707 C 0.90019 0.16362 0.6905 0.0
C708 C 0.86679 0.07755 0.60153 0.0
C709 C 0.89278 0.08378 0.58059 0.0
C710 C 0.85366 0.10296 0.61742 0.0
C711 C 0.86712 0.13547 0.61258 0.0
C712 C 0.89209 0.14168 0.58945 0.0
C713 C 0.90461 0.11561 0.57356 0.0
C714 C 0.82656 0.09512 0.64117 0.0
C715 C 0.9071 0.17593 0.58357 0.0
H716 H 0.79322 0.20177 0.63007 0.0
H717 H 0.86458 0.20085 0.72616 0.0
H718 H 0.83171 0.16291 0.55803 0.0
H719 H 0.79982 0.1361 0.57494 0.0
H720 H 0.79536 0.17652 0.56801 0.0
H721 H 0.91091 0.17839 0.71875 0.0
H722 H 0.89346 0.13759 0.69437 0.0
H723 H 0.91914 0.16593 0.67136 0.0
H724 H 0.85768 0.05286 0.60684 0.0
H725 H 0.92496 0.12041 0.55768 0.0
H726 H 0.80616 0.10667 0.63201 0.0
H727 H 0.83591 0.10517 0.67158 0.0
H728 H 0.81678 0.06841 0.6391 0.0
H729 H 0.888 0.1899 0.57762 0.0
H730 H 0.9218 0.17607 0.55973 0.0
H731 H 0.92338 0.18885 0.61006 0.0
C732 C 0.84722 0.85247 0.75213 0.0
C733 C 0.81345 0.84405 0.7403 0.0
C734 C 0.86734 0.87414 0.73344 0.0
C735 C 0.85297 0.88705 0.70242 0.0
C736 C 0.8186 0.88237 0.69459 0.0
C737 C 0.79918 0.86076 0.71371 0.0
C738 C 0.90396 0.87981 0.74365 0.0
C739 C 0.80225 0.89654 0.66265 0.0
C740 C 0.90862 0.94308 0.65105 0.0
C741 C 0.91395 0.92097 0.62121 0.0
C742 C 0.88798 0.93276 0.67712 0.0
C743 C 0.87313 0.89929 0.67377 0.0
C744 C 0.87782 0.8769 0.64299 0.0
C745 C 0.89799 0.88816 0.61662 0.0
C746 C 0.88293 0.95755 0.70867 0.0
C747 C 0.86224 0.84093 0.63859 0.0
H748 H 0.85812 0.83953 0.77284 0.0
H749 H 0.77287 0.85433 0.705 0.0
H750 H 0.9134 0.86383 0.72277 0.0
H751 H 0.91597 0.90546 0.74233 0.0
H752 H 0.91102 0.87411 0.77267 0.0
H753 H 0.77648 0.89689 0.66594 0.0
H754 H 0.81564 0.92173 0.66132 0.0
H755 H 0.80218 0.88135 0.63502 0.0
H756 H 0.92089 0.96861 0.65416 0.0
H757 H 0.90233 0.87124 0.59349 0.0
H758 H 0.89671 0.95465 0.73606 0.0
H759 H 0.85674 0.95376 0.71217 0.0
H760 H 0.89155 0.98299 0.70324 0.0
H761 H 0.87092 0.83073 0.66416 0.0
H762 H 0.868 0.82688 0.61291 0.0
H763 H 0.83528 0.83731 0.63646 0.0
C764 C 0.28556 0.17809 0.11773 0.0
C765 C 0.29156 0.17923 0.15735 0.0
C766 C 0.30402 0.16282 0.09404 0.0
C767 C 0.32972 0.14984 0.11084 0.0
C768 C 0.33646 0.15215 0.15107 0.0
C769 C 0.31686 0.16635 0.1738 0.0
C770 C 0.29559 0.1598 0.05124 0.0
C771 C 0.36415 0.13929 0.17015 0.0
C772 C 0.35956 0.07855 0.06663 0.0
C773 C 0.38992 0.09374 0.0574 0.0
C774 C 0.33822 0.09678 0.08037 0.0
C775 C 0.34797 0.13117 0.08691 0.0
C776 C 0.37756 0.1469 0.07586 0.0
C777 C 0.39792 0.12796 0.06054 0.0
C778 C 0.30642 0.07902 0.09091 0.0
C779 C 0.389 0.1836 0.08293 0.0
H780 H 0.26612 0.1886 0.10537 0.0
H781 H 0.32174 0.16805 0.20462 0.0
H782 H 0.31698 0.17186 0.03894 0.0
H783 H 0.28943 0.13366 0.03842 0.0
H784 H 0.2746 0.17082 0.04275 0.0
H785 H 0.36817 0.14609 0.2017 0.0
H786 H 0.3587 0.11228 0.1634 0.0
H787 H 0.3872 0.14885 0.15922 0.0
H788 H 0.35291 0.05235 0.06557 0.0
H789 H 0.4207 0.14013 0.05248 0.0
H790 H 0.28618 0.09088 0.08205 0.0
H791 H 0.30884 0.07988 0.12234 0.0
H792 H 0.29968 0.05299 0.07756 0.0
H793 H 0.36897 0.1954 0.07328 0.0
H794 H 0.41021 0.19213 0.06823 0.0
H795 H 0.39636 0.1919 0.11406 0.0
C796 C 0.88328 0.33203 0.25337 0.0
C797 C 0.87008 0.29992 0.23508 0.0
C798 C 0.9077 0.3527 0.23902 0.0
C799 C 0.91925 0.34083 0.20571 0.0
C800 C 0.90965 0.30715 0.19077 0.0
C801 C 0.88489 0.28697 0.20555 0.0
C802 C 0.91761 0.38825 0.25651 0.0
C803 C 0.9226 0.29323 0.15635 0.0
C804 C 0.92452 0.39822 0.13221 0.0
C805 C 0.95803 0.41217 0.13723 0.0
C806 C 0.91189 0.37485 0.15426 0.0
C807 C 0.93344 0.36453 0.18143 0.0
C808 C 0.96748 0.37802 0.18611 0.0
C809 C 0.97937 0.40208 0.16419 0.0
C810 C 0.87531 0.36156 0.14877 0.0
C811 C 0.99126 0.3669 0.21388 0.0
H812 H 0.8728 0.34187 0.27726 0.0
H813 H 0.87544 0.26192 0.19196 0.0
H814 H 0.9439 0.39841 0.25612 0.0
H815 H 0.90337 0.40241 0.23961 0.0
H816 H 0.91266 0.39188 0.28644 0.0
H817 H 0.91988 0.26639 0.15461 0.0
H818 H 0.90865 0.29811 0.13009 0.0
H819 H 0.94875 0.30481 0.15696 0.0
H820 H 0.90802 0.40597 0.11133 0.0
H821 H 0.00541 0.41255 0.1676 0.0
H822 H 0.86585 0.36625 0.17613 0.0
H823 H 0.86959 0.33475 0.13978 0.0
H824 H 0.862 0.37267 0.12695 0.0
H825 H 0.98514 0.37087 0.24319 0.0
H826 H 0.01697 0.37992 0.21409 0.0
H827 H 0.98938 0.34031 0.20626 0.0
C828 C 0.69751 0.85614 0.16727 0.0
C829 C 0.71077 0.83023 0.15291 0.0
C830 C 0.67664 0.86942 0.14348 0.0
C831 C 0.66926 0.85696 0.10402 0.0
C832 C 0.68463 0.83264 0.08871 0.0
C833 C 0.70497 0.81923 0.11345 0.0
C834 C 0.66103 0.89557 0.16115 0.0
C835 C 0.67859 0.81959 0.04668 0.0
C836 C 0.58528 0.86859 0.07169 0.0
C837 C 0.593 0.90063 0.0637 0.0
C838 C 0.61007 0.85193 0.0803 0.0
C839 C 0.6431 0.86775 0.08059 0.0
C840 C 0.65037 0.89811 0.06709 0.0
C841 C 0.62525 0.91457 0.05952 0.0
C842 C 0.60123 0.819 0.09326 0.0
C843 C 0.68499 0.91464 0.06421 0.0
H844 H 0.70214 0.86513 0.19762 0.0
H845 H 0.71542 0.79946 0.10196 0.0
H846 H 0.66633 0.91758 0.14694 0.0
H847 H 0.63406 0.8866 0.15706 0.0
H848 H 0.66984 0.90288 0.19221 0.0
H849 H 0.70014 0.8112 0.03762 0.0
H850 H 0.6575 0.7983 0.04077 0.0
H851 H 0.67293 0.83824 0.02922 0.0
H852 H 0.56027 0.85761 0.07437 0.0
H853 H 0.63105 0.93899 0.05209 0.0
H854 H 0.60855 0.82166 0.12462 0.0
H855 H 0.61458 0.80186 0.07962 0.0
H856 H 0.57457 0.80814 0.08646 0.0
H857 H 0.69747 0.92732 0.09282 0.0
H858 H 0.68558 0.93304 0.04439 0.0
H859 H 0.69893 0.89652 0.05423 0.0
C860 C 0.13122 0.72088 0.12224 0.0
C861 C 0.16382 0.7283 0.1157 0.0
C862 C 0.10884 0.69388 0.10059 0.0
C863 C 0.11958 0.67384 0.07234 0.0
C864 C 0.15051 0.68466 0.06122 0.0
C865 C 0.17237 0.71199 0.08303 0.0
C866 C 0.07504 0.68446 0.11124 0.0
C867 C 0.16201 0.66516 0.02947 0.0
C868 C 0.09014 0.58532 0.08314 0.0
C869 C 0.06469 0.57431 0.05254 0.0
C870 C 0.10948 0.61707 0.08815 0.0
C871 C 0.10249 0.63884 0.06261 0.0
C872 C 0.07765 0.62749 0.03069 0.0
C873 C 0.05953 0.59508 0.02568 0.0
C874 C 0.13655 0.62769 0.12189 0.0
C875 C 0.06945 0.6493 0.00213 0.0
H876 H 0.12394 0.73411 0.14649 0.0
H877 H 0.19717 0.71833 0.07675 0.0
H878 H 0.05662 0.67499 0.0853 0.0
H879 H 0.07434 0.66477 0.12928 0.0
H880 H 0.06815 0.70545 0.12754 0.0
H881 H 0.18395 0.67952 0.02002 0.0
H882 H 0.16832 0.64311 0.0396 0.0
H883 H 0.14232 0.65692 0.0046 0.0
H884 H 0.09463 0.56919 0.10364 0.0
H885 H 0.04023 0.58673 0.00179 0.0
H886 H 0.13 0.64587 0.14295 0.0
H887 H 0.15966 0.63953 0.11257 0.0
H888 H 0.14106 0.60691 0.13646 0.0
H889 H 0.0746 0.67533 0.01512 0.0
H890 H 0.04332 0.6417 0.98902 0.0
H891 H 0.08439 0.64718 0.97879 0.0
C892 C 0.28601 0.88251 0.85423 0.0
C893 C 0.26907 0.8549 0.86733 0.0
C894 C 0.31246 0.90397 0.87775 0.0
C895 C 0.32088 0.89834 0.91562 0.0
C896 C 0.29956 0.87465 0.93102 0.0
C897 C 0.27424 0.8524 0.90632 0.0
C898 C 0.3337 0.93 0.86056 0.0
C899 C 0.30538 0.87085 0.9726 0.0
C900 C 0.41196 0.9074 0.94225 0.0
C901 C 0.42185 0.94052 0.95701 0.0
C902 C 0.3787 0.89287 0.93058 0.0
C903 C 0.35486 0.91184 0.93513 0.0
C904 C 0.36489 0.94495 0.95199 0.0
C905 C 0.39835 0.95914 0.96093 0.0
C906 C 0.3694 0.85799 0.9105 0.0
C907 C 0.34103 0.96635 0.95905 0.0
H908 H 0.28154 0.88504 0.82428 0.0
H909 H 0.26036 0.83166 0.91684 0.0
H910 H 0.33629 0.95424 0.87779 0.0
H911 H 0.35854 0.92506 0.86072 0.0
H912 H 0.32352 0.93122 0.8307 0.0
H913 H 0.28256 0.85838 0.98208 0.0
H914 H 0.32387 0.85595 0.97714 0.0
H915 H 0.31484 0.89503 0.99066 0.0
H916 H 0.43037 0.89339 0.93788 0.0
H917 H 0.40608 0.98532 0.96849 0.0
H918 H 0.35661 0.85703 0.88118 0.0
H919 H 0.35235 0.84271 0.9259 0.0
H920 H 0.39099 0.84702 0.90845 0.0
H921 H 0.34655 0.98801 0.9442 0.0
H922 H 0.34436 0.97559 0.99005 0.0
H923 H 0.31507 0.9536 0.94993 0.0
C924 C 0.19623 0.34716 0.8224 0.0
C925 C 0.21322 0.32549 0.83804 0.0
C926 C 0.17622 0.36268 0.8434 0.0
C927 C 0.17391 0.35733 0.88155 0.0
C928 C 0.19179 0.33615 0.89792 0.0
C929 C 0.2107 0.31998 0.87569 0.0
C930 C 0.15701 0.38438 0.8244 0.0
C931 C 0.19063 0.32991 0.93853 0.0
C932 C 0.14324 0.42532 0.93484 0.0
C933 C 0.10952 0.41174 0.93088 0.0
C934 C 0.16498 0.40687 0.92187 0.0
C935 C 0.15276 0.37428 0.90367 0.0
C936 C 0.11928 0.35964 0.90232 0.0
C937 C 0.09816 0.37842 0.91624 0.0
C938 C 0.20083 0.42286 0.92564 0.0
C939 C 0.10535 0.32469 0.88408 0.0
H940 H 0.19769 0.35115 0.79314 0.0
H941 H 0.22372 0.30316 0.88789 0.0
H942 H 0.13053 0.37556 0.82528 0.0
H943 H 0.16445 0.40964 0.84008 0.0
H944 H 0.16065 0.38512 0.79416 0.0
H945 H 0.21274 0.32186 0.95029 0.0
H946 H 0.18847 0.35194 0.95744 0.0
H947 H 0.16905 0.31011 0.93914 0.0
H948 H 0.15258 0.4509 0.94616 0.0
H949 H 0.07244 0.3672 0.91442 0.0
H950 H 0.20713 0.42741 0.89716 0.0
H951 H 0.21605 0.40645 0.9365 0.0
H952 H 0.20726 0.44649 0.94514 0.0
H953 H 0.10679 0.32238 0.85304 0.0
H954 H 0.07943 0.31614 0.88793 0.0
H955 H 0.11991 0.30839 0.8964 0.0
C956 C 0.7053 0.13053 0.81329 0.0
C957 C 0.69213 0.14925 0.78837 0.0
C958 C 0.6848 0.10499 0.82631 0.0
C959 C 0.65069 0.09816 0.81363 0.0
C960 C 0.63812 0.11415 0.78453 0.0
C961 C 0.65903 0.13981 0.77248 0.0
C962 C 0.69919 0.08809 0.8569 0.0
C963 C 0.60202 0.107 0.76946 0.0
C964 C 0.59117 0.03237 0.84908 0.0
C965 C 0.58238 0.05068 0.87998 0.0
C966 C 0.6141 0.04715 0.82749 0.0
C967 C 0.62784 0.08103 0.8368 0.0
C968 C 0.61887 0.09954 0.86797 0.0
C969 C 0.59644 0.08405 0.88935 0.0
C970 C 0.62358 0.02663 0.79491 0.0
C971 C 0.6327 0.13587 0.87857 0.0
H972 H 0.73104 0.13754 0.82511 0.0
H973 H 0.64906 0.15374 0.75223 0.0
H974 H 0.69559 0.0996 0.88524 0.0
H975 H 0.68686 0.06189 0.85317 0.0
H976 H 0.72585 0.0902 0.85692 0.0
H977 H 0.59732 0.11614 0.74187 0.0
H978 H 0.59115 0.08043 0.76547 0.0
H979 H 0.58932 0.1192 0.79044 0.0
H980 H 0.58054 0.00641 0.84217 0.0
H981 H 0.5896 0.0982 0.91324 0.0
H982 H 0.65048 0.0291 0.79892 0.0
H983 H 0.61678 0.03537 0.76762 0.0
H984 H 0.61156 0.00038 0.79243 0.0
H985 H 0.65977 0.14089 0.88495 0.0
H986 H 0.62331 0.14652 0.90383 0.0
H987 H 0.62634 0.14859 0.85423 0.0
C988 C 0.8388 0.6784 0.83031 0.0
C989 C 0.8237 0.70288 0.84458 0.0
C990 C 0.85988 0.6656 0.85452 0.0
C991 C 0.8655 0.67706 0.89422 0.0
C992 C 0.85194 0.70318 0.90859 0.0
C993 C 0.83129 0.71602 0.88344 0.0
C994 C 0.87476 0.63854 0.83777 0.0
C995 C 0.8578 0.71628 0.95066 0.0
C996 C 0.87956 0.60718 0.94518 0.0
C997 C 0.91364 0.61283 0.95042 0.0
C998 C 0.86351 0.63 0.93071 0.0
C999 C 0.88212 0.65864 0.92035 0.0
C1000 C 0.9167 0.66571 0.92881 0.0
C1001 C 0.93211 0.64264 0.94396 0.0
C1002 C 0.82661 0.6219 0.92315 0.0
C1003 C 0.93756 0.69592 0.91845 0.0
H1004 H 0.83356 0.66871 0.80013 0.0
H1005 H 0.81983 0.73515 0.89449 0.0
H1006 H 0.90153 0.64424 0.84742 0.0
H1007 H 0.86414 0.61542 0.84788 0.0
H1008 H 0.87035 0.63452 0.80605 0.0
H1009 H 0.84951 0.73942 0.95652 0.0
H1010 H 0.84432 0.698 0.96625 0.0
H1011 H 0.88414 0.72057 0.96228 0.0
H1012 H 0.86547 0.58414 0.95055 0.0
H1013 H 0.95859 0.64681 0.94796 0.0
H1014 H 0.81829 0.6147 0.89201 0.0
H1015 H 0.81695 0.64354 0.93254 0.0
H1016 H 0.81594 0.60152 0.93797 0.0
H1017 H 0.94018 0.69155 0.8878 0.0
H1018 H 0.96244 0.70204 0.93539 0.0
H1019 H 0.92616 0.7172 0.92288 0.0
C1020 C 0.1536 0.28019 0.12967 0.0
C1021 C 0.18755 0.28861 0.14117 0.0
C1022 C 0.13832 0.29787 0.1051 0.0
C1023 C 0.15743 0.32485 0.09222 0.0
C1024 C 0.19196 0.33109 0.10023 0.0
C1025 C 0.20668 0.31282 0.12463 0.0
C1026 C 0.10145 0.28984 0.09649 0.0
C1027 C 0.2132 0.35931 0.08648 0.0
C1028 C 0.11301 0.37443 0.0303 0.0
C1029 C 0.10715 0.3979 0.05831 0.0
C1030 C 0.13022 0.3508 0.04046 0.0
C1031 C 0.14149 0.35069 0.07947 0.0
C1032 C 0.13625 0.37484 0.10763 0.0
C1033 C 0.11913 0.39797 0.09671 0.0
C1034 C 0.1352 0.32538 0.00967 0.0
C1035 C 0.14765 0.37563 0.14966 0.0
H1036 H 0.13872 0.2609 0.1415 0.0
H1037 H 0.23301 0.31913 0.1328 0.0
H1038 H 0.09177 0.30708 0.11555 0.0
H1039 H 0.09306 0.29251 0.06661 0.0
H1040 H 0.09083 0.26461 0.1012 0.0
H1041 H 0.23908 0.35706 0.08851 0.0
H1042 H 0.20405 0.36103 0.05648 0.0
H1043 H 0.21242 0.38244 0.10428 0.0
H1044 H 0.1037 0.37422 0.0006 0.0
H1045 H 0.1139 0.41534 0.1187 0.0
H1046 H 0.11889 0.30155 0.01111 0.0
H1047 H 0.16071 0.32212 0.01395 0.0
H1048 H 0.12957 0.33184 0.98071 0.0
H1049 H 0.13512 0.35294 0.15921 0.0
H1050 H 0.14263 0.39681 0.16769 0.0
H1051 H 0.17432 0.37681 0.15474 0.0
C1052 C 0.11503 0.69528 0.7908 0.0
C1053 C 0.146 0.70326 0.8132 0.0
C1054 C 0.08836 0.67571 0.8031 0.0
C1055 C 0.09342 0.66287 0.83759 0.0
C1056 C 0.12391 0.67325 0.86175 0.0
C1057 C 0.14971 0.6937 0.84943 0.0
C1058 C 0.05541 0.66734 0.77823 0.0
C1059 C 0.13027 0.66054 0.89917 0.0
C1060 C 0.03565 0.61205 0.89043 0.0
C1061 C 0.04103 0.58108 0.87868 0.0
C1062 C 0.04914 0.63887 0.87357 0.0
C1063 C 0.06964 0.63454 0.84571 0.0
C1064 C 0.07269 0.60264 0.83154 0.0
C1065 C 0.05787 0.57605 0.84801 0.0
C1066 C 0.04352 0.67198 0.88798 0.0
C1067 C 0.09441 0.597 0.80188 0.0
H1068 H 0.11183 0.70351 0.76324 0.0
H1069 H 0.17348 0.70025 0.86714 0.0
H1070 H 0.05235 0.64344 0.76004 0.0
H1071 H 0.03531 0.66537 0.7958 0.0
H1072 H 0.05306 0.68594 0.75919 0.0
H1073 H 0.15503 0.67197 0.9151 0.0
H1074 H 0.11195 0.66525 0.91765 0.0
H1075 H 0.12795 0.63371 0.89371 0.0
H1076 H 0.02191 0.61552 0.91384 0.0
H1077 H 0.06167 0.55187 0.83907 0.0
H1078 H 0.04536 0.68833 0.86586 0.0
H1079 H 0.06215 0.68358 0.91311 0.0
H1080 H 0.01908 0.6697 0.89733 0.0
H1081 H 0.08829 0.60894 0.77681 0.0
H1082 H 0.09217 0.57062 0.79195 0.0
H1083 H 0.12032 0.60804 0.81411 0.0
C1084 C 0.34853 0.20456 0.85532 0.0
C1085 C 0.31457 0.19537 0.84395 0.0
C1086 C 0.3649 0.18616 0.87774 0.0
C1087 C 0.34712 0.15697 0.88756 0.0
C1088 C 0.31255 0.14889 0.87875 0.0
C1089 C 0.29654 0.16843 0.85726 0.0
C1090 C 0.40153 0.19682 0.88885 0.0
C1091 C 0.2928 0.11851 0.88994 0.0
C1092 C 0.39549 0.09106 0.88296 0.0
C1093 C 0.40595 0.09013 0.92156 0.0
C1094 C 0.37512 0.11159 0.87197 0.0
C1095 C 0.36523 0.13244 0.9002 0.0
C1096 C 0.375 0.13122 0.93936 0.0
C1097 C 0.39526 0.11004 0.94953 0.0
C1098 C 0.36509 0.11172 0.82986 0.0
C1099 C 0.36497 0.15228 0.971 0.0
H1100 H 0.36255 0.22572 0.84573 0.0
H1101 H 0.27024 0.16145 0.84888 0.0
H1102 H 0.40846 0.19525 0.91948 0.0
H1103 H 0.41359 0.18029 0.87194 0.0
H1104 H 0.41105 0.22221 0.8838 0.0
H1105 H 0.2661 0.11732 0.88456 0.0
H1106 H 0.2979 0.09664 0.8734 0.0
H1107 H 0.30009 0.11754 0.92067 0.0
H1108 H 0.4041 0.07641 0.86101 0.0
H1109 H 0.40288 0.10928 0.97942 0.0
H1110 H 0.37681 0.13544 0.82191 0.0
H1111 H 0.33821 0.10886 0.82334 0.0
H1112 H 0.37225 0.09191 0.8117 0.0
H1113 H 0.38718 0.16786 0.9892 0.0
H1114 H 0.35186 0.13642 0.98948 0.0
H1115 H 0.349 0.16818 0.96069 0.0
C1116 C 0.86931 0.27678 0.88778 0.0
C1117 C 0.8356 0.27271 0.8874 0.0
C1118 C 0.89106 0.30097 0.91456 0.0
C1119 C 0.87828 0.32145 0.94037 0.0
C1120 C 0.84509 0.3123 0.94522 0.0
C1121 C 0.82394 0.28781 0.91841 0.0
C1122 C 0.92684 0.30841 0.9106 0.0
C1123 C 0.83068 0.33207 0.97393 0.0
C1124 C 0.93695 0.40018 0.98993 0.0
C1125 C 0.93484 0.42031 0.96162 0.0
C1126 C 0.91771 0.36819 0.98469 0.0
C1127 C 0.89556 0.35639 0.95046 0.0
C1128 C 0.8915 0.37768 0.92325 0.0
C1129 C 0.91141 0.40916 0.92902 0.0
C1130 C 0.92276 0.34687 0.01488 0.0
C1131 C 0.86713 0.36683 0.88696 0.0
H1132 H 0.87838 0.26473 0.86408 0.0
H1133 H 0.79775 0.28411 0.91843 0.0
H1134 H 0.93175 0.32822 0.89288 0.0
H1135 H 0.9422 0.31689 0.93894 0.0
H1136 H 0.93411 0.28668 0.89654 0.0
H1137 H 0.80835 0.31706 0.98186 0.0
H1138 H 0.8486 0.3422 0.00012 0.0
H1139 H 0.82367 0.35278 0.96118 0.0
H1140 H 0.95471 0.40872 0.01538 0.0
H1141 H 0.90915 0.42486 0.90741 0.0
H1142 H 0.94333 0.33516 0.00947 0.0
H1143 H 0.90078 0.32732 0.01477 0.0
H1144 H 0.92942 0.36167 0.04375 0.0
H1145 H 0.8744 0.34728 0.86859 0.0
H1146 H 0.86542 0.38713 0.8703 0.0
H1147 H 0.84244 0.35674 0.89373 0.0
C1148 C 0.65646 0.79913 0.84414 0.0
C1149 C 0.68831 0.79454 0.8527 0.0
C1150 C 0.64357 0.81907 0.86963 0.0
C1151 C 0.66277 0.83433 0.90494 0.0
C1152 C 0.69413 0.8281 0.9149 0.0
C1153 C 0.70668 0.8085 0.88846 0.0
C1154 C 0.61015 0.82541 0.85764 0.0
C1155 C 0.7154 0.84336 0.95237 0.0
C1156 C 0.64103 0.91418 0.93664 0.0
C1157 C 0.61612 0.90428 0.95824 0.0
C1158 C 0.65851 0.89214 0.92174 0.0
C1159 C 0.65104 0.85945 0.92881 0.0
C1160 C 0.62833 0.85018 0.9538 0.0
C1161 C 0.61082 0.87265 0.96791 0.0
C1162 C 0.68276 0.90312 0.89549 0.0
C1163 C 0.62052 0.8159 0.96324 0.0
H1164 H 0.642 0.78832 0.8167 0.0
H1165 H 0.7312 0.80478 0.89557 0.0
H1166 H 0.59415 0.81957 0.87948 0.0
H1167 H 0.61244 0.85168 0.85526 0.0
H1168 H 0.59797 0.81081 0.82978 0.0
H1169 H 0.7305 0.82661 0.96261 0.0
H1170 H 0.73239 0.86594 0.94813 0.0
H1171 H 0.70089 0.84987 0.97484 0.0
H1172 H 0.64518 0.93847 0.92875 0.0
H1173 H 0.59199 0.86499 0.98512 0.0
H1174 H 0.67308 0.89074 0.86589 0.0
H1175 H 0.70623 0.89621 0.90409 0.0
H1176 H 0.68772 0.92994 0.89545 0.0
H1177 H 0.6012 0.80044 0.94088 0.0
H1178 H 0.61123 0.81541 0.99107 0.0
H1179 H 0.64231 0.80498 0.96425 0.0
C1180 C 0.85277 0.71204 0.15944 0.0
C1181 C 0.81856 0.70559 0.15631 0.0
C1182 C 0.86848 0.69042 0.13989 0.0
C1183 C 0.84961 0.66119 0.1176 0.0
C1184 C 0.81508 0.65581 0.11197 0.0
C1185 C 0.79993 0.6782 0.1312 0.0
C1186 C 0.90537 0.69792 0.14474 0.0
C1187 C 0.79417 0.62536 0.08762 0.0
C1188 C 0.89366 0.60579 0.06098 0.0
C1189 C 0.90148 0.58615 0.08814 0.0
C1190 C 0.87644 0.63027 0.06961 0.0
C1191 C 0.86589 0.63427 0.10583 0.0
C1192 C 0.87225 0.61318 0.13242 0.0
C1193 C 0.89025 0.5897 0.12341 0.0
C1194 C 0.86996 0.6516 0.03982 0.0
C1195 C 0.86067 0.61585 0.17091 0.0
H1196 H 0.86733 0.73356 0.17805 0.0
H1197 H 0.77347 0.67321 0.12825 0.0
H1198 H 0.91466 0.68124 0.16286 0.0
H1199 H 0.91376 0.69378 0.11661 0.0
H1200 H 0.9163 0.72349 0.15831 0.0
H1201 H 0.76783 0.62602 0.08353 0.0
H1202 H 0.80228 0.6222 0.05923 0.0
H1203 H 0.7971 0.6037 0.10129 0.0
H1204 H 0.90198 0.60282 0.0335 0.0
H1205 H 0.89576 0.57408 0.14414 0.0
H1206 H 0.89012 0.65532 0.02235 0.0
H1207 H 0.86688 0.67583 0.05248 0.0
H1208 H 0.84721 0.63919 0.02022 0.0
H1209 H 0.87326 0.63965 0.18823 0.0
H1210 H 0.86551 0.59605 0.18707 0.0
H1211 H 0.83402 0.61493 0.1673 0.0
C1212 C 0.27822 0.88123 0.15145 0.0
C1213 C 0.28367 0.87649 0.18969 0.0
C1214 C 0.29566 0.90929 0.13974 0.0
C1215 C 0.31973 0.93144 0.16671 0.0
C1216 C 0.31877 0.93083 0.206 0.0
C1217 C 0.30062 0.90296 0.21729 0.0
C1218 C 0.29293 0.91192 0.0978 0.0
C1219 C 0.3415 0.95635 0.23575 0.0
C1220 C 0.40266 0.93117 0.13775 0.0
C1221 C 0.41254 0.9629 0.13028 0.0
C1222 C 0.37291 0.92121 0.1508 0.0
C1223 C 0.35189 0.94338 0.15484 0.0
C1224 C 0.36194 0.97572 0.14723 0.0
C1225 C 0.39266 0.9853 0.13574 0.0
C1226 C 0.36388 0.88653 0.15915 0.0
C1227 C 0.3406 0.00023 0.15016 0.0
H1228 H 0.26319 0.86179 0.13019 0.0
H1229 H 0.30318 0.90044 0.24733 0.0
H1230 H 0.2995 0.93783 0.09325 0.0
H1231 H 0.30997 0.89868 0.08473 0.0
H1232 H 0.26773 0.90069 0.08301 0.0
H1233 H 0.33293 0.95666 0.26401 0.0
H1234 H 0.36623 0.9509 0.23874 0.0
H1235 H 0.34362 0.98093 0.2271 0.0
H1236 H 0.41813 0.91399 0.13286 0.0
H1237 H 0.40029 0.00977 0.12892 0.0
H1238 H 0.34276 0.87235 0.13815 0.0
H1239 H 0.35694 0.88627 0.18812 0.0
H1240 H 0.38429 0.87376 0.15756 0.0
H1241 H 0.31459 0.98882 0.15065 0.0
H1242 H 0.342 0.01439 0.12588 0.0
H1243 H 0.34995 0.01792 0.1767 0.0
C1244 C 0.72288 0.14666 0.12811 0.0
C1245 C 0.71636 0.14784 0.16578 0.0
C1246 C 0.70153 0.12478 0.09841 0.0
C1247 C 0.67327 0.1041 0.10702 0.0
C1248 C 0.66914 0.10262 0.14567 0.0
C1249 C 0.69069 0.12464 0.1745 0.0
C1250 C 0.70788 0.12599 0.05787 0.0
C1251 C 0.63998 0.08025 0.15656 0.0
C1252 C 0.58768 0.08962 0.05697 0.0
C1253 C 0.57995 0.05559 0.04968 0.0
C1254 C 0.61996 0.10665 0.07045 0.0
C1255 C 0.64471 0.08893 0.07714 0.0
C1256 C 0.63759 0.05488 0.06462 0.0
C1257 C 0.60498 0.03845 0.05196 0.0
C1258 C 0.62656 0.1431 0.08249 0.0
C1259 C 0.66347 0.03523 0.06892 0.0
H1260 H 0.74295 0.16451 0.12141 0.0
H1261 H 0.68608 0.12528 0.20382 0.0
H1262 H 0.69715 0.10231 0.03928 0.0
H1263 H 0.69677 0.14502 0.04621 0.0
H1264 H 0.73456 0.1326 0.05673 0.0
H1265 H 0.64164 0.08069 0.18793 0.0
H1266 H 0.6172 0.08776 0.14616 0.0
H1267 H 0.63782 0.05475 0.1431 0.0
H1268 H 0.56811 0.1027 0.05534 0.0
H1269 H 0.59883 0.012 0.04712 0.0
H1270 H 0.64948 0.15537 0.07322 0.0
H1271 H 0.62963 0.14852 0.11412 0.0
H1272 H 0.60624 0.15367 0.0705 0.0
H1273 H 0.6877 0.04963 0.06525 0.0
H1274 H 0.657 0.01248 0.04786 0.0
H1275 H 0.66555 0.02813 0.0979 0.0
C1276 C 0.61796 0.6364 0.76447 0.0
C1277 C 0.65105 0.63502 0.76662 0.0
C1278 C 0.59674 0.61641 0.7838 0.0
C1279 C 0.60905 0.59484 0.80606 0.0
C1280 C 0.64138 0.59081 0.80488 0.0
C1281 C 0.66197 0.61084 0.78499 0.0
C1282 C 0.56208 0.62068 0.78322 0.0
C1283 C 0.65532 0.56768 0.8277 0.0
C1284 C 0.57952 0.58563 0.90126 0.0
C1285 C 0.5591 0.55435 0.89377 0.0
C1286 C 0.59514 0.59927 0.87255 0.0
C1287 C 0.5905 0.58106 0.8355 0.0
C1288 C 0.56941 0.54968 0.82754 0.0
C1289 C 0.5539 0.53672 0.85679 0.0
C1290 C 0.61708 0.63305 0.88206 0.0
C1291 C 0.56376 0.52952 0.78848 0.0
H1292 H 0.60904 0.65449 0.74963 0.0
H1293 H 0.68734 0.60917 0.78638 0.0
H1294 H 0.54477 0.59686 0.78182 0.0
H1295 H 0.56042 0.63622 0.80994 0.0
H1296 H 0.55428 0.63259 0.75867 0.0
H1297 H 0.67863 0.5634 0.81892 0.0
H1298 H 0.66011 0.57816 0.85842 0.0
H1299 H 0.63767 0.54385 0.8246 0.0
H1300 H 0.5834 0.59948 0.92966 0.0
H1301 H 0.53809 0.5125 0.8508 0.0
H1302 H 0.60892 0.64918 0.86237 0.0
H1303 H 0.6425 0.63184 0.87815 0.0
H1304 H 0.61727 0.64438 0.91185 0.0
H1305 H 0.55703 0.54407 0.76613 0.0
H1306 H 0.54421 0.50705 0.78596 0.0
H1307 H 0.58668 0.52227 0.78259 0.0
C1308 C 0.3528 0.70436 0.8453 0.0
C1309 C 0.31869 0.69737 0.84273 0.0
C1310 C 0.3716 0.6873 0.86694 0.0
C1311 C 0.35569 0.66186 0.8851 0.0
C1312 C 0.32118 0.65481 0.8826 0.0
C1313 C 0.3031 0.67311 0.86196 0.0
C1314 C 0.4084 0.69621 0.86994 0.0
C1315 C 0.30331 0.62723 0.90061 0.0
C1316 C 0.3992 0.59359 0.89998 0.0
C1317 C 0.41051 0.60012 0.93935 0.0
C1318 C 0.3813 0.61345 0.88215 0.0
C1319 C 0.37486 0.64091 0.90408 0.0
C1320 C 0.38652 0.64802 0.94377 0.0
C1321 C 0.40409 0.62738 0.96104 0.0
C1322 C 0.36935 0.60504 0.83974 0.0
C1323 C 0.38052 0.67742 0.96788 0.0
H1324 H 0.3648 0.72351 0.8308 0.0
H1325 H 0.27665 0.66776 0.85979 0.0
H1326 H 0.41979 0.70041 0.90033 0.0
H1327 H 0.41716 0.67574 0.85527 0.0
H1328 H 0.41704 0.71845 0.85705 0.0
H1329 H 0.27645 0.62531 0.89663 0.0
H1330 H 0.30812 0.60375 0.88784 0.0
H1331 H 0.31244 0.6307 0.93162 0.0
H1332 H 0.40485 0.57313 0.88279 0.0
H1333 H 0.4127 0.63251 0.99147 0.0
H1334 H 0.38018 0.62528 0.82488 0.0
H1335 H 0.34239 0.60191 0.83419 0.0
H1336 H 0.37575 0.58232 0.82703 0.0
H1337 H 0.38839 0.69974 0.95489 0.0
H1338 H 0.39369 0.68118 0.99748 0.0
H1339 H 0.35396 0.67436 0.96907 0.0
C1340 C 0.3664 0.30162 0.83434 0.0
C1341 C 0.36892 0.32217 0.80632 0.0
C1342 C 0.3813 0.31285 0.87193 0.0
C1343 C 0.40042 0.34495 0.88091 0.0
C1344 C 0.40542 0.3649 0.85183 0.0
C1345 C 0.38875 0.35347 0.81479 0.0
C1346 C 0.37491 0.29089 0.9019 0.0
C1347 C 0.42648 0.39915 0.86041 0.0
C1348 C 0.4106 0.40532 0.96773 0.0
C1349 C 0.44427 0.40999 0.97812 0.0
C1350 C 0.39407 0.37971 0.93928 0.0
C1351 C 0.41233 0.35962 0.92089 0.0
C1352 C 0.44495 0.36078 0.93637 0.0
C1353 C 0.46081 0.38639 0.96512 0.0
C1354 C 0.35846 0.37745 0.92497 0.0
C1355 C 0.46446 0.33843 0.91871 0.0
H1356 H 0.35033 0.27762 0.8276 0.0
H1357 H 0.3901 0.36932 0.79302 0.0
H1358 H 0.39482 0.27751 0.90546 0.0
H1359 H 0.37415 0.30481 0.93005 0.0
H1360 H 0.35143 0.27255 0.89331 0.0
H1361 H 0.43041 0.41 0.83403 0.0
H1362 H 0.41462 0.41502 0.87854 0.0
H1363 H 0.45068 0.39916 0.87645 0.0
H1364 H 0.39805 0.42368 0.97847 0.0
H1365 H 0.48696 0.39015 0.97388 0.0
H1366 H 0.34512 0.35158 0.91689 0.0
H1367 H 0.35648 0.38963 0.89918 0.0
H1368 H 0.34644 0.3896 0.9468 0.0
H1369 H 0.44935 0.31326 0.91033 0.0
H1370 H 0.48661 0.33778 0.9386 0.0
H1371 H 0.47239 0.34732 0.89256 0.0
C1372 C 0.71898 0.3423 0.88787 0.0
C1373 C 0.69961 0.32766 0.85287 0.0
C1374 C 0.70672 0.36102 0.9155 0.0
C1375 C 0.6747 0.36609 0.90739 0.0
C1376 C 0.655 0.35122 0.87212 0.0
C1377 C 0.66751 0.33168 0.84553 0.0
C1378 C 0.72804 0.3754 0.95325 0.0
C1379 C 0.62093 0.35661 0.8621 0.0
C1380 C 0.62298 0.39343 0.97901 0.0
C1381 C 0.62566 0.42614 0.97405 0.0
C1382 C 0.64139 0.37419 0.96028 0.0
C1383 C 0.66187 0.38777 0.93491 0.0
C1384 C 0.66658 0.42154 0.93233 0.0
C1385 C 0.6486 0.44044 0.95234 0.0
C1386 C 0.63684 0.33874 0.96538 0.0
C1387 C 0.68806 0.43707 0.90559 0.0
H1388 H 0.7437 0.33877 0.89384 0.0
H1389 H 0.65259 0.3204 0.8185 0.0
H1390 H 0.73334 0.40244 0.95647 0.0
H1391 H 0.715 0.36812 0.97714 0.0
H1392 H 0.75162 0.3675 0.95596 0.0
H1393 H 0.60901 0.34383 0.83328 0.0
H1394 H 0.60544 0.34783 0.88338 0.0
H1395 H 0.6219 0.38312 0.86302 0.0
H1396 H 0.60507 0.38242 0.99571 0.0
H1397 H 0.65033 0.46569 0.94824 0.0
H1398 H 0.66048 0.33105 0.96694 0.0
H1399 H 0.62017 0.32341 0.94046 0.0
H1400 H 0.62604 0.33393 0.99161 0.0
H1401 H 0.71198 0.42997 0.90864 0.0
H1402 H 0.69249 0.46415 0.91068 0.0
H1403 H 0.67606 0.42832 0.87567 0.0
C1404 C 0.69019 0.33495 0.1976 0.0
C1405 C 0.70876 0.31375 0.18355 0.0
C1406 C 0.67345 0.35152 0.17306 0.0
C1407 C 0.676 0.3473 0.13357 0.0
C1408 C 0.69567 0.32659 0.11939 0.0
C1409 C 0.71155 0.30962 0.14462 0.0
C1410 C 0.65208 0.37268 0.18927 0.0
C1411 C 0.69938 0.32194 0.07765 0.0
C1412 C 0.60131 0.3659 0.08042 0.0
C1413 C 0.61169 0.39961 0.08003 0.0
C1414 C 0.62315 0.34746 0.09362 0.0
C1415 C 0.6561 0.36316 0.1075 0.0
C1416 C 0.66757 0.39616 0.10305 0.0
C1417 C 0.64523 0.41397 0.08908 0.0
C1418 C 0.60993 0.31206 0.09678 0.0
C1419 C 0.70272 0.41359 0.11658 0.0
H1420 H 0.68794 0.33772 0.22772 0.0
H1421 H 0.72603 0.29307 0.13398 0.0
H1422 H 0.65938 0.3978 0.18244 0.0
H1423 H 0.62621 0.36278 0.17607 0.0
H1424 H 0.65348 0.37401 0.22073 0.0
H1425 H 0.71647 0.30589 0.07145 0.0
H1426 H 0.67524 0.31109 0.06003 0.0
H1427 H 0.70853 0.34592 0.0686 0.0
H1428 H 0.57558 0.35421 0.07352 0.0
H1429 H 0.65379 0.43966 0.08747 0.0
H1430 H 0.60558 0.31004 0.12655 0.0
H1431 H 0.62763 0.29696 0.08994 0.0
H1432 H 0.58643 0.30185 0.07748 0.0
H1433 H 0.70658 0.41983 0.14815 0.0
H1434 H 0.70924 0.43654 0.10425 0.0
H1435 H 0.71958 0.3977 0.10905 0.0
C1436 C 0.63112 0.70923 0.17016 0.0
C1437 C 0.647 0.6951 0.19844 0.0
C1438 C 0.60316 0.69126 0.14584 0.0
C1439 C 0.59147 0.65828 0.14963 0.0
C1440 C 0.6053 0.64512 0.18093 0.0
C1441 C 0.633 0.66392 0.20526 0.0
C1442 C 0.58831 0.70694 0.11432 0.0
C1443 C 0.59288 0.61015 0.18659 0.0
C1444 C 0.51993 0.5931 0.10516 0.0
C1445 C 0.53631 0.57309 0.08437 0.0
C1446 C 0.53606 0.62477 0.1218 0.0
C1447 C 0.56929 0.63557 0.11812 0.0
C1448 C 0.58345 0.61771 0.091 0.0
C1449 C 0.56658 0.58621 0.07428 0.0
C1450 C 0.51911 0.64431 0.14774 0.0
C1451 C 0.61824 0.62953 0.08439 0.0
H1452 H 0.64168 0.73385 0.16562 0.0
H1453 H 0.64522 0.65328 0.2274 0.0
H1454 H 0.60237 0.70558 0.09006 0.0
H1455 H 0.56237 0.69476 0.10378 0.0
H1456 H 0.58984 0.7332 0.12427 0.0
H1457 H 0.6047 0.60459 0.21382 0.0
H1458 H 0.56605 0.60498 0.18655 0.0
H1459 H 0.59782 0.59336 0.16272 0.0
H1460 H 0.49582 0.58292 0.11163 0.0
H1461 H 0.57868 0.57067 0.05733 0.0
H1462 H 0.52876 0.67093 0.14911 0.0
H1463 H 0.52327 0.63807 0.17701 0.0
H1464 H 0.49228 0.63845 0.13799 0.0
H1465 H 0.62331 0.65594 0.08215 0.0
H1466 H 0.62342 0.61597 0.058 0.0
H1467 H 0.63524 0.62595 0.10897 0.0
C1468 C 0.32465 0.70078 0.11393 0.0
C1469 C 0.33135 0.70909 0.15379 0.0
C1470 C 0.33943 0.67789 0.09491 0.0
C1471 C 0.36154 0.6634 0.11634 0.0
C1472 C 0.37065 0.67419 0.15605 0.0
C1473 C 0.35527 0.6967 0.1743 0.0
C1474 C 0.32916 0.66737 0.05252 0.0
C1475 C 0.39479 0.66004 0.17987 0.0
C1476 C 0.36761 0.57549 0.09609 0.0
C1477 C 0.39853 0.57891 0.08483 0.0
C1478 C 0.3538 0.60267 0.10279 0.0
C1479 C 0.37187 0.63404 0.09917 0.0
C1480 C 0.4021 0.6371 0.08497 0.0
C1481 C 0.41507 0.60933 0.07781 0.0
C1482 C 0.32095 0.59814 0.11653 0.0
C1483 C 0.42205 0.66991 0.08036 0.0
H1484 H 0.30615 0.71029 0.09792 0.0
H1485 H 0.36085 0.70346 0.20506 0.0
H1486 H 0.34893 0.65945 0.03862 0.0
H1487 H 0.30774 0.64642 0.04765 0.0
H1488 H 0.32181 0.68738 0.03853 0.0
H1489 H 0.40199 0.67362 0.20933 0.0
H1490 H 0.38373 0.63421 0.18169 0.0
H1491 H 0.41715 0.66034 0.16636 0.0
H1492 H 0.35488 0.55175 0.10117 0.0
H1493 H 0.43907 0.61175 0.06904 0.0
H1494 H 0.30505 0.61163 0.10089 0.0
H1495 H 0.32436 0.60821 0.1473 0.0
H1496 H 0.30819 0.57201 0.11279 0.0
H1497 H 0.40615 0.68588 0.07002 0.0
H1498 H 0.43983 0.66741 0.06023 0.0
H1499 H 0.43599 0.68217 0.1085 0.0
C1500 C 0.34029 0.36778 0.2766 0.0
C1501 C 0.34211 0.33618 0.28271 0.0
C1502 C 0.36754 0.38911 0.26789 0.0
C1503 C 0.39649 0.37778 0.26411 0.0
C1504 C 0.39979 0.34788 0.27641 0.0
C1505 C 0.37225 0.32718 0.28544 0.0
C1506 C 0.3634 0.42142 0.2566 0.0
C1507 C 0.43049 0.33526 0.27399 0.0
C1508 C 0.42419 0.39222 0.16974 0.0
C1509 C 0.45089 0.41876 0.18056 0.0
C1510 C 0.40715 0.37814 0.197 0.0
C1511 C 0.41715 0.39086 0.23624 0.0
C1512 C 0.44509 0.41667 0.2476 0.0
C1513 C 0.46167 0.43041 0.2195 0.0
C1514 C 0.37757 0.3504 0.18347 0.0
C1515 C 0.45669 0.4306 0.2891 0.0
H1516 H 0.31685 0.37465 0.27489 0.0
H1517 H 0.37347 0.30265 0.2905 0.0
H1518 H 0.38657 0.4402 0.26419 0.0
H1519 H 0.35609 0.41835 0.22521 0.0
H1520 H 0.34406 0.43033 0.27052 0.0
H1521 H 0.43284 0.31752 0.29416 0.0
H1522 H 0.42942 0.32255 0.24463 0.0
H1523 H 0.45263 0.35543 0.28012 0.0
H1524 H 0.41591 0.38296 0.13973 0.0
H1525 H 0.48246 0.45089 0.22799 0.0
H1526 H 0.35522 0.358 0.19097 0.0
H1527 H 0.38007 0.32897 0.19775 0.0
H1528 H 0.37398 0.34261 0.15211 0.0
H1529 H 0.43908 0.44427 0.29993 0.0
H1530 H 0.48116 0.44747 0.29342 0.0
H1531 H 0.45785 0.41078 0.30658 0.0
C1532 C 0.79361 0.68231 0.61146 0.0
C1533 C 0.78913 0.67155 0.64659 0.0
C1534 C 0.81219 0.66803 0.58704 0.0
C1535 C 0.82743 0.64332 0.59877 0.0
C1536 C 0.82177 0.63146 0.63342 0.0
C1537 C 0.80236 0.64547 0.65666 0.0
C1538 C 0.81636 0.68011 0.54943 0.0
C1539 C 0.83763 0.60511 0.64703 0.0
C1540 C 0.86801 0.58598 0.5431 0.0
C1541 C 0.90107 0.60029 0.55673 0.0
C1542 C 0.84333 0.60174 0.55276 0.0
C1543 C 0.85201 0.63189 0.57746 0.0
C1544 C 0.88533 0.64802 0.58762 0.0
C1545 C 0.90947 0.63218 0.57659 0.0
C1546 C 0.80805 0.5846 0.53947 0.0
C1547 C 0.89571 0.68041 0.61358 0.0
H1548 H 0.783 0.70219 0.60329 0.0
H1549 H 0.79895 0.63704 0.68373 0.0
H1550 H 0.84083 0.69653 0.55177 0.0
H1551 H 0.81485 0.6594 0.52655 0.0
H1552 H 0.7976 0.69387 0.54082 0.0
H1553 H 0.83036 0.5984 0.67444 0.0
H1554 H 0.83088 0.58286 0.62533 0.0
H1555 H 0.86466 0.61354 0.651 0.0
H1556 H 0.86111 0.56151 0.52725 0.0
H1557 H 0.93501 0.64396 0.58573 0.0
H1558 H 0.79246 0.60233 0.53473 0.0
H1559 H 0.79884 0.57037 0.56163 0.0
H1560 H 0.8054 0.56738 0.51261 0.0
H1561 H 0.88157 0.69798 0.6037 0.0
H1562 H 0.92219 0.69133 0.61517 0.0
H1563 H 0.89066 0.67687 0.64279 0.0
C1564 C 0.34981 0.86689 0.72774 0.0
C1565 C 0.35184 0.83666 0.73897 0.0
C1566 C 0.37599 0.88553 0.71386 0.0
C1567 C 0.4048 0.87366 0.71159 0.0
C1568 C 0.4087 0.84574 0.72816 0.0
C1569 C 0.38193 0.82725 0.74133 0.0
C1570 C 0.37131 0.91585 0.69752 0.0
C1571 C 0.43985 0.83353 0.72847 0.0
C1572 C 0.43256 0.88664 0.61731 0.0
C1573 C 0.45622 0.9158 0.62749 0.0
C1574 C 0.4175 0.87125 0.64515 0.0
C1575 C 0.42627 0.88554 0.68402 0.0
C1576 C 0.45216 0.91344 0.69476 0.0
C1577 C 0.46686 0.92833 0.66622 0.0
C1578 C 0.39057 0.8409 0.63259 0.0
C1579 C 0.46297 0.92897 0.73587 0.0
H1580 H 0.32695 0.87484 0.72692 0.0
H1581 H 0.38409 0.80454 0.75151 0.0
H1582 H 0.39343 0.93586 0.70627 0.0
H1583 H 0.36734 0.91047 0.66586 0.0
H1584 H 0.34993 0.92449 0.70669 0.0
H1585 H 0.44256 0.81805 0.75119 0.0
H1586 H 0.43929 0.81853 0.70057 0.0
H1587 H 0.4616 0.85409 0.73281 0.0
H1588 H 0.42484 0.87651 0.58744 0.0
H1589 H 0.48562 0.95064 0.67427 0.0
H1590 H 0.3668 0.84635 0.63816 0.0
H1591 H 0.39501 0.82125 0.64913 0.0
H1592 H 0.38849 0.8316 0.60172 0.0
H1593 H 0.44752 0.94635 0.74343 0.0
H1594 H 0.48881 0.94289 0.74048 0.0
H1595 H 0.4604 0.91052 0.75556 0.0
C1596 C 0.20496 0.31198 0.61259 0.0
C1597 C 0.23065 0.32756 0.64191 0.0
C1598 C 0.18458 0.32975 0.59453 0.0
C1599 C 0.19027 0.3639 0.60578 0.0
C1600 C 0.21841 0.38015 0.632 0.0
C1601 C 0.23826 0.36177 0.64986 0.0
C1602 C 0.15512 0.31151 0.56626 0.0
C1603 C 0.22584 0.41666 0.64401 0.0
C1604 C 0.1399 0.41546 0.55494 0.0
C1605 C 0.11673 0.41803 0.57942 0.0
C1606 C 0.16373 0.39734 0.56253 0.0
C1607 C 0.16425 0.38163 0.59541 0.0
C1608 C 0.14031 0.38369 0.61972 0.0
C1609 C 0.11694 0.40204 0.61149 0.0
C1610 C 0.18881 0.39582 0.53605 0.0
C1611 C 0.1397 0.36696 0.65483 0.0
H1612 H 0.19905 0.28559 0.6058 0.0
H1613 H 0.25838 0.37413 0.67195 0.0
H1614 H 0.13294 0.30943 0.58043 0.0
H1615 H 0.15138 0.32484 0.54173 0.0
H1616 H 0.15742 0.2865 0.55532 0.0
H1617 H 0.25112 0.42611 0.65945 0.0
H1618 H 0.22268 0.42939 0.61885 0.0
H1619 H 0.20846 0.42283 0.66319 0.0
H1620 H 0.13992 0.42832 0.5305 0.0
H1621 H 0.09888 0.40415 0.63029 0.0
H1622 H 0.19146 0.37035 0.52895 0.0
H1623 H 0.21297 0.41052 0.5505 0.0
H1624 H 0.18236 0.40539 0.50916 0.0
H1625 H 0.13822 0.34048 0.64684 0.0
H1626 H 0.11872 0.36998 0.66987 0.0
H1627 H 0.16268 0.37711 0.67499 0.0
C1628 C 0.67562 0.18841 0.6351 0.0
C1629 C 0.66651 0.2169 0.6497 0.0
C1630 C 0.65287 0.16267 0.61218 0.0
C1631 C 0.62046 0.16611 0.60205 0.0
C1632 C 0.61197 0.1962 0.61347 0.0
C1633 C 0.6349 0.22102 0.63841 0.0
C1634 C 0.66285 0.13074 0.60204 0.0
C1635 C 0.57831 0.20152 0.60097 0.0
C1636 C 0.57257 0.09171 0.53352 0.0
C1637 C 0.55796 0.07251 0.55882 0.0
C1638 C 0.59043 0.12386 0.54636 0.0
C1639 C 0.59492 0.13635 0.58576 0.0
C1640 C 0.57927 0.11734 0.61116 0.0
C1641 C 0.56079 0.08583 0.59728 0.0
C1642 C 0.60558 0.1438 0.51806 0.0
C1643 C 0.58374 0.12933 0.65353 0.0
H1644 H 0.70003 0.18512 0.64423 0.0
H1645 H 0.628 0.24321 0.64956 0.0
H1646 H 0.6488 0.1116 0.61612 0.0
H1647 H 0.65719 0.12252 0.57083 0.0
H1648 H 0.68935 0.13257 0.61111 0.0
H1649 H 0.57802 0.2279 0.6045 0.0
H1650 H 0.56957 0.19077 0.57062 0.0
H1651 H 0.56081 0.18931 0.61836 0.0
H1652 H 0.57093 0.08128 0.50403 0.0
H1653 H 0.54908 0.07131 0.61692 0.0
H1654 H 0.6316 0.14248 0.51898 0.0
H1655 H 0.60477 0.16986 0.52512 0.0
H1656 H 0.59296 0.13454 0.48841 0.0
H1657 H 0.60976 0.13239 0.66597 0.0
H1658 H 0.56841 0.11221 0.66892 0.0
H1659 H 0.5774 0.15346 0.65876 0.0
C1660 C 0.82998 0.32283 0.41713 0.0
C1661 C 0.80855 0.33167 0.38909 0.0
C1662 C 0.85601 0.34636 0.43905 0.0
C1663 C 0.86032 0.37925 0.43274 0.0
C1664 C 0.83587 0.38881 0.40874 0.0
C1665 C 0.81026 0.36483 0.38706 0.0
C1666 C 0.88092 0.33522 0.46525 0.0
C1667 C 0.83888 0.42382 0.40219 0.0
C1668 C 0.92982 0.44852 0.48338 0.0
C1669 C 0.95088 0.45092 0.45581 0.0
C1670 C 0.90083 0.42419 0.47749 0.0
C1671 C 0.893 0.40173 0.44326 0.0
C1672 C 0.91521 0.40293 0.41637 0.0
C1673 C 0.94372 0.42769 0.42287 0.0
C1674 C 0.87782 0.42371 0.50681 0.0
C1675 C 0.90808 0.37909 0.37967 0.0
H1676 H 0.82842 0.29727 0.4195 0.0
H1677 H 0.79318 0.37191 0.36623 0.0
H1678 H 0.90126 0.33113 0.44962 0.0
H1679 H 0.89142 0.35387 0.49065 0.0
H1680 H 0.87007 0.31192 0.47491 0.0
H1681 H 0.81523 0.4282 0.38911 0.0
H1682 H 0.84758 0.44082 0.42934 0.0
H1683 H 0.85708 0.42968 0.38262 0.0
H1684 H 0.93499 0.46665 0.50858 0.0
H1685 H 0.96012 0.42934 0.40166 0.0
H1686 H 0.87085 0.39885 0.5145 0.0
H1687 H 0.85499 0.43022 0.49465 0.0
H1688 H 0.88875 0.44114 0.53322 0.0
H1689 H 0.90157 0.35364 0.38574 0.0
H1690 H 0.92922 0.38142 0.36364 0.0
H1691 H 0.88687 0.38343 0.36104 0.0
C1692 C 0.67779 0.80209 0.37413 0.0
C1693 C 0.70565 0.81751 0.36013 0.0
C1694 C 0.66042 0.82059 0.39597 0.0
C1695 C 0.67125 0.85506 0.40359 0.0
C1696 C 0.70169 0.86994 0.39376 0.0
C1697 C 0.71843 0.85099 0.37206 0.0
C1698 C 0.62872 0.80355 0.40715 0.0
C1699 C 0.71469 0.90646 0.40195 0.0
C1700 C 0.60868 0.90645 0.38863 0.0
C1701 C 0.608 0.92109 0.42583 0.0
C1702 C 0.62822 0.88407 0.38151 0.0
C1703 C 0.64786 0.87594 0.41235 0.0
C1704 C 0.647 0.89008 0.45017 0.0
C1705 C 0.62737 0.91286 0.45642 0.0
C1706 C 0.62843 0.86977 0.34062 0.0
C1707 C 0.66692 0.88136 0.48384 0.0
H1708 H 0.66809 0.7761 0.36555 0.0
H1709 H 0.74056 0.86287 0.36226 0.0
H1710 H 0.62381 0.81628 0.43416 0.0
H1711 H 0.60829 0.80339 0.3844 0.0
H1712 H 0.62892 0.77782 0.41049 0.0
H1713 H 0.74104 0.91336 0.3991 0.0
H1714 H 0.70085 0.91823 0.38138 0.0
H1715 H 0.71144 0.91635 0.43109 0.0
H1716 H 0.59436 0.91309 0.36473 0.0
H1717 H 0.62708 0.92405 0.48523 0.0
H1718 H 0.62212 0.84272 0.3373 0.0
H1719 H 0.65328 0.87721 0.3329 0.0
H1720 H 0.61086 0.87778 0.32008 0.0
H1721 H 0.66144 0.8545 0.48317 0.0
H1722 H 0.66202 0.89294 0.51155 0.0
H1723 H 0.69338 0.88918 0.48224 0.0
C1724 C 0.20372 0.63211 0.27118 0.0
C1725 C 0.19046 0.65844 0.2617 0.0
C1726 C 0.18676 0.6088 0.29084 0.0
C1727 C 0.15665 0.61286 0.30207 0.0
C1728 C 0.14209 0.63782 0.28977 0.0
C1729 C 0.15885 0.65979 0.269 0.0
C1730 C 0.202 0.58125 0.30156 0.0
C1731 C 0.11003 0.64323 0.30129 0.0
C1732 C 0.09173 0.55957 0.34245 0.0
C1733 C 0.09726 0.57542 0.38025 0.0
C1734 C 0.11381 0.56837 0.31728 0.0
C1735 C 0.1415 0.59409 0.33014 0.0
C1736 C 0.14898 0.60769 0.36929 0.0
C1737 C 0.12664 0.59816 0.39399 0.0
C1738 C 0.10578 0.55226 0.27617 0.0
C1739 C 0.17874 0.63474 0.38436 0.0
H1740 H 0.22785 0.63051 0.26482 0.0
H1741 H 0.14801 0.6796 0.26108 0.0
H1742 H 0.21422 0.58742 0.33162 0.0
H1743 H 0.18314 0.55832 0.29925 0.0
H1744 H 0.22062 0.57689 0.28322 0.0
H1745 H 0.10182 0.66341 0.28852 0.0
H1746 H 0.09055 0.62072 0.29243 0.0
H1747 H 0.1127 0.64924 0.33283 0.0
H1748 H 0.06965 0.54091 0.3321 0.0
H1749 H 0.13155 0.60959 0.42359 0.0
H1750 H 0.1283 0.54978 0.26409 0.0
H1751 H 0.09323 0.56753 0.259 0.0
H1752 H 0.08925 0.52772 0.27317 0.0
H1753 H 0.20041 0.63 0.3719 0.0
H1754 H 0.18454 0.63781 0.41598 0.0
H1755 H 0.17406 0.65805 0.37616 0.0
C1756 C 0.31268 0.20625 0.39445 0.0
C1757 C 0.30471 0.19217 0.35589 0.0
C1758 C 0.33235 0.19329 0.42039 0.0
C1759 C 0.34444 0.16585 0.40728 0.0
C1760 C 0.33657 0.15163 0.36838 0.0
C1761 C 0.31663 0.16483 0.34325 0.0
C1762 C 0.34011 0.20883 0.46173 0.0
C1763 C 0.34947 0.12261 0.35313 0.0
C1764 C 0.41941 0.14217 0.45315 0.0
C1765 C 0.4052 0.11276 0.46488 0.0
C1766 C 0.39985 0.16162 0.43723 0.0
C1767 C 0.3654 0.15154 0.43371 0.0
C1768 C 0.35123 0.12389 0.44964 0.0
C1769 C 0.37135 0.10454 0.46466 0.0
C1770 C 0.41597 0.19068 0.42018 0.0
C1771 C 0.31466 0.11261 0.44707 0.0
H1772 H 0.30346 0.22734 0.40445 0.0
H1773 H 0.31077 0.15392 0.31347 0.0
H1774 H 0.33126 0.19058 0.48012 0.0
H1775 H 0.36696 0.21707 0.47026 0.0
H1776 H 0.32876 0.23007 0.46736 0.0
H1777 H 0.34158 0.11493 0.32195 0.0
H1778 H 0.37661 0.12859 0.35875 0.0
H1779 H 0.34083 0.10161 0.36799 0.0
H1780 H 0.4456 0.14839 0.45296 0.0
H1781 H 0.36042 0.08183 0.47391 0.0
H1782 H 0.40424 0.21154 0.42603 0.0
H1783 H 0.41315 0.18397 0.38872 0.0
H1784 H 0.44252 0.19868 0.43131 0.0
H1785 H 0.30287 0.13364 0.45137 0.0
H1786 H 0.30815 0.09625 0.46844 0.0
H1787 H 0.30445 0.09885 0.41822 0.0
C1788 C 0.68487 0.78962 0.61463 0.0
C1789 C 0.66761 0.77312 0.64052 0.0
C1790 C 0.6702 0.80813 0.5906 0.0
C1791 C 0.63726 0.80972 0.59191 0.0
C1792 C 0.61899 0.79124 0.6159 0.0
C1793 C 0.63446 0.77334 0.64017 0.0
C1794 C 0.6905 0.8275 0.56548 0.0
C1795 C 0.58361 0.79197 0.61763 0.0
C1796 C 0.61106 0.888 0.57654 0.0
C1797 C 0.59206 0.87948 0.54029 0.0
C1798 C 0.62677 0.86582 0.5929 0.0
C1799 C 0.62335 0.83416 0.57263 0.0
C1800 C 0.60563 0.82585 0.53521 0.0
C1801 C 0.59019 0.84869 0.51941 0.0
C1802 C 0.64582 0.87587 0.6327 0.0
C1803 C 0.6022 0.79261 0.51239 0.0
H1804 H 0.71049 0.78951 0.61442 0.0
H1805 H 0.62087 0.76045 0.65975 0.0
H1806 H 0.67907 0.82024 0.5352 0.0
H1807 H 0.69142 0.85393 0.573 0.0
H1808 H 0.71596 0.82391 0.56812 0.0
H1809 H 0.57181 0.77333 0.63406 0.0
H1810 H 0.58204 0.81642 0.63145 0.0
H1811 H 0.56964 0.78776 0.58841 0.0
H1812 H 0.61225 0.91149 0.5932 0.0
H1813 H 0.57592 0.84218 0.49114 0.0
H1814 H 0.67096 0.87178 0.63303 0.0
H1815 H 0.63386 0.86065 0.65252 0.0
H1816 H 0.64753 0.90194 0.64374 0.0
H1817 H 0.62655 0.7893 0.50634 0.0
H1818 H 0.58571 0.78921 0.4848 0.0
H1819 H 0.59255 0.7732 0.52904 0.0
C1820 C 0.65993 0.21704 0.37231 0.0
C1821 C 0.65782 0.22487 0.33514 0.0
C1822 C 0.63185 0.20251 0.38638 0.0
C1823 C 0.60122 0.19608 0.36266 0.0
C1824 C 0.59837 0.21034 0.32895 0.0
C1825 C 0.62692 0.22402 0.31491 0.0
C1826 C 0.6356 0.1903 0.4244 0.0
C1827 C 0.56546 0.20801 0.30584 0.0
C1828 C 0.56187 0.10734 0.35814 0.0
C1829 C 0.5448 0.10866 0.38914 0.0
C1830 C 0.57831 0.13616 0.34706 0.0
C1831 C 0.57643 0.16686 0.36676 0.0
C1832 C 0.5558 0.16802 0.39507 0.0
C1833 C 0.54082 0.1388 0.40661 0.0
C1834 C 0.60008 0.13354 0.31665 0.0
C1835 C 0.55068 0.19972 0.41492 0.0
H1836 H 0.68366 0.21938 0.38913 0.0
H1837 H 0.62497 0.2319 0.28708 0.0
H1838 H 0.61832 0.19856 0.44236 0.0
H1839 H 0.62972 0.1632 0.41995 0.0
H1840 H 0.66079 0.19913 0.44029 0.0
H1841 H 0.56621 0.22828 0.28861 0.0
H1842 H 0.5583 0.18465 0.28595 0.0
H1843 H 0.54641 0.2086 0.32468 0.0
H1844 H 0.56457 0.08388 0.34461 0.0
H1845 H 0.52674 0.1396 0.43008 0.0
H1846 H 0.62587 0.1452 0.32876 0.0
H1847 H 0.59277 0.14647 0.29293 0.0
H1848 H 0.59894 0.10781 0.30459 0.0
H1849 H 0.56293 0.2041 0.44499 0.0
H1850 H 0.52417 0.19791 0.41583 0.0
H1851 H 0.56008 0.22096 0.40077 0.0
C1852 C 0.79693 0.69309 0.37977 0.0
C1853 C 0.80446 0.69445 0.34268 0.0
C1854 C 0.81463 0.67798 0.40562 0.0
C1855 C 0.83956 0.66307 0.39348 0.0
C1856 C 0.84582 0.66293 0.35531 0.0
C1857 C 0.82859 0.67905 0.33067 0.0
C1858 C 0.80754 0.67904 0.44614 0.0
C1859 C 0.87154 0.64662 0.3407 0.0
C1860 C 0.91666 0.65197 0.45001 0.0
C1861 C 0.91012 0.61788 0.44755 0.0
C1862 C 0.89222 0.6678 0.43688 0.0
C1863 C 0.86078 0.64901 0.42038 0.0
C1864 C 0.85298 0.61518 0.42257 0.0
C1865 C 0.87773 0.60007 0.43641 0.0
C1866 C 0.90119 0.70418 0.43681 0.0
C1867 C 0.81974 0.59409 0.40617 0.0
H1868 H 0.77839 0.70524 0.38911 0.0
H1869 H 0.83427 0.67996 0.30191 0.0
H1870 H 0.79942 0.65388 0.45249 0.0
H1871 H 0.83016 0.69067 0.46635 0.0
H1872 H 0.78834 0.69273 0.45152 0.0
H1873 H 0.87154 0.64648 0.30954 0.0
H1874 H 0.89612 0.65962 0.35579 0.0
H1875 H 0.86746 0.62103 0.34652 0.0
H1876 H 0.94144 0.66609 0.45918 0.0
H1877 H 0.87216 0.57384 0.43594 0.0
H1878 H 0.88076 0.71564 0.44357 0.0
H1879 H 0.9062 0.70902 0.40795 0.0
H1880 H 0.92338 0.71602 0.45768 0.0
H1881 H 0.79999 0.60726 0.41022 0.0
H1882 H 0.81478 0.57138 0.4193 0.0
H1883 H 0.8189 0.58704 0.37502 0.0
C1884 C 0.37459 0.78811 0.35061 0.0
C1885 C 0.34057 0.78359 0.34554 0.0
C1886 C 0.39389 0.81187 0.37982 0.0
C1887 C 0.37852 0.83239 0.40228 0.0
C1888 C 0.34427 0.82376 0.40153 0.0
C1889 C 0.32558 0.79902 0.37313 0.0
C1890 C 0.43059 0.81854 0.38249 0.0
C1891 C 0.32688 0.84409 0.42599 0.0
C1892 C 0.43204 0.90992 0.46155 0.0
C1893 C 0.43586 0.93045 0.43362 0.0
C1894 C 0.41275 0.87798 0.45261 0.0
C1895 C 0.39602 0.86693 0.41503 0.0
C1896 C 0.39752 0.88874 0.38766 0.0
C1897 C 0.41777 0.92 0.39716 0.0
C1898 C 0.41207 0.85612 0.48306 0.0
C1899 C 0.37878 0.87872 0.34764 0.0
H1900 H 0.38614 0.77587 0.32942 0.0
H1901 H 0.29911 0.79518 0.36916 0.0
H1902 H 0.43886 0.83831 0.36569 0.0
H1903 H 0.44244 0.8267 0.41258 0.0
H1904 H 0.43879 0.79651 0.37089 0.0
H1905 H 0.30216 0.83015 0.42877 0.0
H1906 H 0.34119 0.85272 0.45488 0.0
H1907 H 0.32396 0.86586 0.41253 0.0
H1908 H 0.44499 0.91846 0.4901 0.0
H1909 H 0.41994 0.93603 0.37562 0.0
H1910 H 0.43504 0.84713 0.48567 0.0
H1911 H 0.39113 0.8347 0.47671 0.0
H1912 H 0.41113 0.87008 0.51118 0.0
H1913 H 0.38919 0.8601 0.33172 0.0
H1914 H 0.37981 0.89965 0.33143 0.0
H1915 H 0.35273 0.86771 0.34853 0.0
C1916 C 0.15366 0.31157 0.33752 0.0
C1917 C 0.18601 0.30892 0.34752 0.0
C1918 C 0.14008 0.33307 0.36018 0.0
C1919 C 0.15948 0.35254 0.39332 0.0
C1920 C 0.1915 0.34861 0.40472 0.0
C1921 C 0.20424 0.3265 0.38187 0.0
C1922 C 0.10565 0.3364 0.34734 0.0
C1923 C 0.21269 0.36818 0.44043 0.0
C1924 C 0.13731 0.43414 0.4106 0.0
C1925 C 0.11599 0.42875 0.43737 0.0
C1926 C 0.15341 0.41011 0.39792 0.0
C1927 C 0.14775 0.38003 0.41233 0.0
C1928 C 0.12812 0.37548 0.44156 0.0
C1929 C 0.11212 0.39998 0.45358 0.0
C1930 C 0.17499 0.41622 0.36751 0.0
C1931 C 0.12254 0.34417 0.4585 0.0
H1932 H 0.13918 0.29751 0.31144 0.0
H1933 H 0.22905 0.32404 0.39021 0.0
H1934 H 0.09124 0.33508 0.37135 0.0
H1935 H 0.10642 0.3606 0.33799 0.0
H1936 H 0.09273 0.31718 0.32328 0.0
H1937 H 0.23896 0.36814 0.44017 0.0
H1938 H 0.21004 0.39387 0.44435 0.0
H1939 H 0.20505 0.35709 0.46543 0.0
H1940 H 0.14023 0.45666 0.3984 0.0
H1941 H 0.0954 0.396 0.47418 0.0
H1942 H 0.16368 0.39968 0.3406 0.0
H1943 H 0.19919 0.41085 0.37637 0.0
H1944 H 0.17881 0.44182 0.36161 0.0
H1945 H 0.10598 0.32449 0.43747 0.0
H1946 H 0.11136 0.34667 0.48504 0.0
H1947 H 0.14593 0.33649 0.46507 0.0
C1948 C 0.32186 0.15791 0.66104 0.0
C1949 C 0.30162 0.17653 0.64453 0.0
C1950 C 0.33506 0.13598 0.63854 0.0
C1951 C 0.32841 0.13284 0.59825 0.0
C1952 C 0.30741 0.15107 0.58123 0.0
C1953 C 0.29381 0.17242 0.60466 0.0
C1954 C 0.35704 0.1169 0.65809 0.0
C1955 C 0.29993 0.14857 0.53845 0.0
C1956 C 0.3977 0.10327 0.5588 0.0
C1957 C 0.38567 0.06932 0.55279 0.0
C1958 C 0.37788 0.12466 0.56926 0.0
C1959 C 0.34543 0.11183 0.57496 0.0
C1960 C 0.33222 0.0778 0.56551 0.0
C1961 C 0.35249 0.05691 0.55441 0.0
C1962 C 0.39266 0.16086 0.57734 0.0
C1963 C 0.29758 0.06314 0.57049 0.0
H1964 H 0.32768 0.16072 0.69187 0.0
H1965 H 0.2782 0.18683 0.59182 0.0
H1966 H 0.34831 0.09042 0.64746 0.0
H1967 H 0.38223 0.12445 0.65138 0.0
H1968 H 0.35812 0.1207 0.68962 0.0
H1969 H 0.28749 0.16784 0.52976 0.0
H1970 H 0.32273 0.15042 0.52557 0.0
H1971 H 0.28382 0.12441 0.52656 0.0
H1972 H 0.42308 0.11315 0.55669 0.0
H1973 H 0.34291 0.03073 0.54963 0.0
H1974 H 0.39866 0.16861 0.60868 0.0
H1975 H 0.37507 0.17487 0.56609 0.0
H1976 H 0.41544 0.16726 0.56458 0.0
H1977 H 0.29621 0.06301 0.60135 0.0
H1978 H 0.28915 0.03765 0.55552 0.0
H1979 H 0.28062 0.07793 0.55965 0.0
C1980 C 0.80947 0.37484 0.68902 0.0
C1981 C 0.81997 0.35613 0.71572 0.0
C1982 C 0.83191 0.39276 0.66925 0.0
C1983 C 0.86508 0.39054 0.67547 0.0
C1984 C 0.87555 0.37122 0.70208 0.0
C1985 C 0.85293 0.35482 0.72259 0.0
C1986 C 0.82012 0.41348 0.64134 0.0
C1987 C 0.91032 0.3668 0.70771 0.0
C1988 C 0.91991 0.41334 0.60201 0.0
C1989 C 0.93833 0.44403 0.61989 0.0
C1990 C 0.89555 0.39562 0.61947 0.0
C1991 C 0.88937 0.40928 0.65533 0.0
C1992 C 0.90774 0.44031 0.6733 0.0
C1993 C 0.93221 0.45723 0.65545 0.0
C1994 C 0.87641 0.36255 0.59933 0.0
C1995 C 0.90155 0.45562 0.71141 0.0
H1996 H 0.78371 0.37504 0.68329 0.0
H1997 H 0.8606 0.33927 0.74232 0.0
H1998 H 0.83485 0.43892 0.64836 0.0
H1999 H 0.82346 0.40398 0.61207 0.0
H2000 H 0.7939 0.41385 0.64135 0.0
H2001 H 0.91414 0.34993 0.72856 0.0
H2002 H 0.91667 0.35691 0.68003 0.0
H2003 H 0.92751 0.39071 0.71786 0.0
H2004 H 0.92443 0.40319 0.57429 0.0
H2005 H 0.94623 0.48107 0.66917 0.0
H2006 H 0.8516 0.36457 0.58718 0.0
H2007 H 0.8735 0.34452 0.61954 0.0
H2008 H 0.88829 0.35302 0.57559 0.0
H2009 H 0.8754 0.45667 0.70998 0.0
H2010 H 0.91681 0.48071 0.72051 0.0
H2011 H 0.9069 0.44042 0.73361 0.0
C2012 C 0.22949 0.68765 0.61716 0.0
C2013 C 0.24093 0.6732 0.64786 0.0
C2014 C 0.20397 0.66973 0.58894 0.0
C2015 C 0.1907 0.63661 0.5914 0.0
C2016 C 0.20736 0.62059 0.6175 0.0
C2017 C 0.23205 0.63932 0.64607 0.0
C2018 C 0.18777 0.68788 0.56119 0.0
C2019 C 0.19525 0.58488 0.61986 0.0
C2020 C 0.1004 0.60798 0.59395 0.0
C2021 C 0.09031 0.58569 0.56031 0.0
C2022 C 0.13248 0.62672 0.60264 0.0
C2023 C 0.15538 0.62237 0.57749 0.0
C2024 C 0.14476 0.60142 0.54222 0.0
C2025 C 0.11213 0.58352 0.53389 0.0
C2026 C 0.14231 0.64957 0.64013 0.0
C2027 C 0.16819 0.59637 0.51447 0.0
H2028 H 0.23651 0.71396 0.61855 0.0
H2029 H 0.2411 0.62813 0.66976 0.0
H2030 H 0.17571 0.67166 0.53438 0.0
H2031 H 0.16881 0.69802 0.57445 0.0
H2032 H 0.20579 0.70864 0.55427 0.0
H2033 H 0.21479 0.57459 0.63428 0.0
H2034 H 0.1746 0.58204 0.63662 0.0
H2035 H 0.18626 0.57054 0.59107 0.0
H2036 H 0.08343 0.60995 0.61418 0.0
H2037 H 0.10439 0.56623 0.50788 0.0
H2038 H 0.15569 0.67394 0.63566 0.0
H2039 H 0.15891 0.63973 0.65986 0.0
H2040 H 0.12088 0.65275 0.65424 0.0
H2041 H 0.18109 0.62017 0.5079 0.0
H2042 H 0.15558 0.58083 0.4873 0.0
H2043 H 0.18709 0.58459 0.52748 0.0
loop_
_geom_bond_atom_site_label_1
_geom_bond_atom_site_label_2
_geom_bond_distance
_geom_bond_site_symmetry_2
_ccdc_geom_bond_type
O0 Zn1 1.953 . S
O0 C16 1.225 . S
Zn1 O0 1.953 . S
Zn1 O2 1.949 . S
Zn1 O8 1.919 . S
Zn1 O13 1.924 . S
O2 Zn1 1.949 . S
O2 Zn3 1.923 . S
O2 Zn4 1.950 . S
O2 Zn5 1.945 . S
Zn3 O2 1.923 . S
Zn3 O6 1.933 . S
Zn3 O9 1.941 . S
Zn3 O10 1.965 . S
Zn4 O2 1.950 . S
Zn4 O11 1.938 . S
Zn4 O12 1.906 . S
Zn4 O22 1.953 . S
Zn5 O2 1.945 . S
Zn5 O7 1.932 . S
Zn5 O14 1.977 . S
Zn5 O15 1.910 . S
O6 Zn3 1.933 . S
O6 C17 1.226 . S
O7 Zn5 1.932 . S
O7 C17 1.307 . S
O8 Zn1 1.919 . S
O8 C19 1.253 . S
O9 Zn3 1.941 . S
O9 C19 1.283 . S
O10 Zn3 1.965 . S
O10 C18 1.303 . S
O11 Zn4 1.938 . S
O11 C18 1.247 . S
O12 Zn4 1.906 . S
O12 C20 1.304 . S
O13 Zn1 1.924 . S
O13 C21 1.311 . S
O14 Zn5 1.977 . S
O14 C20 1.272 . S
O15 Zn5 1.910 . S
O15 C21 1.231 . S
C16 O0 1.225 . S
C16 O22 1.298 . S
C17 O6 1.226 . S
C17 O7 1.307 . S
C18 O10 1.303 . S
C18 O11 1.247 . S
C19 O8 1.253 . S
C19 O9 1.283 . S
C20 O12 1.304 . S
C20 O14 1.272 . S
C21 O13 1.311 . S
C21 O15 1.231 . S
O22 Zn4 1.953 . S
O22 C16 1.298 . S
O23 Zn24 1.953 . S
O23 C39 1.225 . S
Zn24 O23 1.953 . S
Zn24 O25 1.949 . S
Zn24 O31 1.919 . S
Zn24 O36 1.924 . S
O25 Zn24 1.949 . S
O25 Zn26 1.923 . S
O25 Zn27 1.950 . S
O25 Zn28 1.945 . S
Zn26 O25 1.923 . S
Zn26 O29 1.933 . S
Zn26 O32 1.941 . S
Zn26 O33 1.965 . S
Zn27 O25 1.950 . S
Zn27 O34 1.938 . S
Zn27 O35 1.906 . S
Zn27 O45 1.953 . S
Zn28 O25 1.945 . S
Zn28 O30 1.932 . S
Zn28 O37 1.977 . S
Zn28 O38 1.910 . S
O29 Zn26 1.933 . S
O29 C40 1.226 . S
O30 Zn28 1.932 . S
O30 C40 1.307 . S
O31 Zn24 1.919 . S
O31 C42 1.253 . S
O32 Zn26 1.941 . S
O32 C42 1.283 . S
O33 Zn26 1.965 . S
O33 C41 1.303 . S
O34 Zn27 1.938 . S
O34 C41 1.247 . S
O35 Zn27 1.906 . S
O35 C43 1.304 . S
O36 Zn24 1.924 . S
O36 C44 1.311 . S
O37 Zn28 1.977 . S
O37 C43 1.272 . S
O38 Zn28 1.910 . S
O38 C44 1.231 . S
C39 O23 1.225 . S
C39 O45 1.298 . S
C40 O29 1.226 . S
C40 O30 1.307 . S
C41 O33 1.303 . S
C41 O34 1.247 . S
C42 O31 1.253 . S
C42 O32 1.283 . S
C43 O35 1.304 . S
C43 O37 1.272 . S
C44 O36 1.311 . S
C44 O38 1.231 . S
O45 Zn27 1.953 . S
O45 C39 1.298 . S
O46 Zn47 1.953 . S
O46 C62 1.225 . S
Zn47 O46 1.953 . S
Zn47 O48 1.949 . S
Zn47 O54 1.919 . S
Zn47 O59 1.924 . S
O48 Zn47 1.949 . S
O48 Zn49 1.923 . S
O48 Zn50 1.950 . S
O48 Zn51 1.945 . S
Zn49 O48 1.923 . S
Zn49 O52 1.933 . S
Zn49 O55 1.941 . S
Zn49 O56 1.965 . S
Zn50 O48 1.950 . S
Zn50 O57 1.938 . S
Zn50 O58 1.906 . S
Zn50 O68 1.953 . S
Zn51 O48 1.945 . S
Zn51 O53 1.932 . S
Zn51 O60 1.977 . S
Zn51 O61 1.910 . S
O52 Zn49 1.933 . S
O52 C63 1.226 . S
O53 Zn51 1.932 . S
O53 C63 1.307 . S
O54 Zn47 1.919 . S
O54 C65 1.253 . S
O55 Zn49 1.941 . S
O55 C65 1.283 . S
O56 Zn49 1.965 . S
O56 C64 1.303 . S
O57 Zn50 1.938 . S
O57 C64 1.247 . S
O58 Zn50 1.906 . S
O58 C66 1.304 . S
O59 Zn47 1.924 . S
O59 C67 1.311 . S
O60 Zn51 1.977 . S
O60 C66 1.272 . S
O61 Zn51 1.910 . S
O61 C67 1.231 . S
C62 O46 1.225 . S
C62 O68 1.298 . S
C63 O52 1.226 . S
C63 O53 1.307 . S
C64 O56 1.303 . S
C64 O57 1.247 . S
C65 O54 1.253 . S
C65 O55 1.283 . S
C66 O58 1.304 . S
C66 O60 1.272 . S
C67 O59 1.311 . S
C67 O61 1.231 . S
O68 Zn50 1.953 . S
O68 C62 1.298 . S
O69 Zn70 1.953 . S
O69 C85 1.225 . S
Zn70 O69 1.953 . S
Zn70 O71 1.949 . S
Zn70 O77 1.919 . S
Zn70 O82 1.924 . S
O71 Zn70 1.949 . S
O71 Zn72 1.923 . S
O71 Zn73 1.950 . S
O71 Zn74 1.945 . S
Zn72 O71 1.923 . S
Zn72 O75 1.933 . S
Zn72 O78 1.941 . S
Zn72 O79 1.965 . S
Zn73 O71 1.950 . S
Zn73 O80 1.938 . S
Zn73 O81 1.906 . S
Zn73 O91 1.953 . S
Zn74 O71 1.945 . S
Zn74 O76 1.932 . S
Zn74 O83 1.977 . S
Zn74 O84 1.910 . S
O75 Zn72 1.933 . S
O75 C86 1.226 . S
O76 Zn74 1.932 . S
O76 C86 1.307 . S
O77 Zn70 1.919 . S
O77 C88 1.253 . S
O78 Zn72 1.941 . S
O78 C88 1.283 . S
O79 Zn72 1.965 . S
O79 C87 1.303 . S
O80 Zn73 1.938 . S
O80 C87 1.247 . S
O81 Zn73 1.906 . S
O81 C89 1.304 . S
O82 Zn70 1.924 . S
O82 C90 1.311 . S
O83 Zn74 1.977 . S
O83 C89 1.272 . S
O84 Zn74 1.910 . S
O84 C90 1.231 . S
C85 O69 1.225 . S
C85 O91 1.298 . S
C86 O75 1.226 . S
C86 O76 1.307 . S
C87 O79 1.303 . S
C87 O80 1.247 . S
C88 O77 1.253 . S
C88 O78 1.283 . S
C89 O81 1.304 . S
C89 O83 1.272 . S
C90 O82 1.311 . S
C90 O84 1.231 . S
O91 Zn73 1.953 . S
O91 C85 1.298 . S
O92 Zn93 1.953 . S
O92 C108 1.225 . S
Zn93 O92 1.953 . S
Zn93 O94 1.949 . S
Zn93 O100 1.919 . S
Zn93 O105 1.924 . S
O94 Zn93 1.949 . S
O94 Zn95 1.923 . S
O94 Zn96 1.950 . S
O94 Zn97 1.945 . S
Zn95 O94 1.923 . S
Zn95 O98 1.933 . S
Zn95 O101 1.941 . S
Zn95 O102 1.965 . S
Zn96 O94 1.950 . S
Zn96 O103 1.938 . S
Zn96 O104 1.906 . S
Zn96 O114 1.953 . S
Zn97 O94 1.945 . S
Zn97 O99 1.932 . S
Zn97 O106 1.977 . S
Zn97 O107 1.910 . S
O98 Zn95 1.933 . S
O98 C109 1.226 . S
O99 Zn97 1.932 . S
O99 C109 1.307 . S
O100 Zn93 1.919 . S
O100 C111 1.253 . S
O101 Zn95 1.941 . S
O101 C111 1.283 . S
O102 Zn95 1.965 . S
O102 C110 1.303 . S
O103 Zn96 1.938 . S
O103 C110 1.247 . S
O104 Zn96 1.906 . S
O104 C112 1.304 . S
O105 Zn93 1.924 . S
O105 C113 1.311 . S
O106 Zn97 1.977 . S
O106 C112 1.272 . S
O107 Zn97 1.910 . S
O107 C113 1.231 . S
C108 O92 1.225 . S
C108 O114 1.298 . S
C109 O98 1.226 . S
C109 O99 1.307 . S
C110 O102 1.303 . S
C110 O103 1.247 . S
C111 O100 1.253 . S
C111 O101 1.283 . S
C112 O104 1.304 . S
C112 O106 1.272 . S
C113 O105 1.311 . S
C113 O107 1.231 . S
O114 Zn96 1.953 . S
O114 C108 1.298 . S
O115 Zn116 1.953 . S
O115 C131 1.225 . S
Zn116 O115 1.953 . S
Zn116 O117 1.949 . S
Zn116 O123 1.919 . S
Zn116 O128 1.924 . S
O117 Zn116 1.949 . S
O117 Zn118 1.923 . S
O117 Zn119 1.950 . S
O117 Zn120 1.945 . S
Zn118 O117 1.923 . S
Zn118 O121 1.933 . S
Zn118 O124 1.941 . S
Zn118 O125 1.965 . S
Zn119 O117 1.950 . S
Zn119 O126 1.938 . S
Zn119 O127 1.906 . S
Zn119 O137 1.953 . S
Zn120 O117 1.945 . S
Zn120 O122 1.932 . S
Zn120 O129 1.977 . S
Zn120 O130 1.910 . S
O121 Zn118 1.933 . S
O121 C132 1.226 . S
O122 Zn120 1.932 . S
O122 C132 1.307 . S
O123 Zn116 1.919 . S
O123 C134 1.253 . S
O124 Zn118 1.941 . S
O124 C134 1.283 . S
O125 Zn118 1.965 . S
O125 C133 1.303 . S
O126 Zn119 1.938 . S
O126 C133 1.247 . S
O127 Zn119 1.906 . S
O127 C135 1.304 . S
O128 Zn116 1.924 . S
O128 C136 1.311 . S
O129 Zn120 1.977 . S
O129 C135 1.272 . S
O130 Zn120 1.910 . S
O130 C136 1.231 . S
C131 O115 1.225 . S
C131 O137 1.298 . S
C132 O121 1.226 . S
C132 O122 1.307 . S
C133 O125 1.303 . S
C133 O126 1.247 . S
C134 O123 1.253 . S
C134 O124 1.283 . S
C135 O127 1.304 . S
C135 O129 1.272 . S
C136 O128 1.311 . S
C136 O130 1.231 . S
O137 Zn119 1.953 . S
O137 C131 1.298 . S
O138 Zn139 1.953 . S
O138 C154 1.225 . S
Zn139 O138 1.953 . S
Zn139 O140 1.949 . S
Zn139 O146 1.919 . S
Zn139 O151 1.924 . S
O140 Zn139 1.949 . S
O140 Zn141 1.923 . S
O140 Zn142 1.950 . S
O140 Zn143 1.945 . S
Zn141 O140 1.923 . S
Zn141 O144 1.933 . S
Zn141 O147 1.941 . S
Zn141 O148 1.965 . S
Zn142 O140 1.950 . S
Zn142 O149 1.938 . S
Zn142 O150 1.906 . S
Zn142 O160 1.953 . S
Zn143 O140 1.945 . S
Zn143 O145 1.932 . S
Zn143 O152 1.977 . S
Zn143 O153 1.910 . S
O144 Zn141 1.933 . S
O144 C155 1.226 . S
O145 Zn143 1.932 . S
O145 C155 1.307 . S
O146 Zn139 1.919 . S
O146 C157 1.253 . S
O147 Zn141 1.941 . S
O147 C157 1.283 . S
O148 Zn141 1.965 . S
O148 C156 1.303 . S
O149 Zn142 1.938 . S
O149 C156 1.247 . S
O150 Zn142 1.906 . S
O150 C158 1.304 . S
O151 Zn139 1.924 . S
O151 C159 1.311 . S
O152 Zn143 1.977 . S
O152 C158 1.272 . S
O153 Zn143 1.910 . S
O153 C159 1.231 . S
C154 O138 1.225 . S
C154 O160 1.298 . S
C155 O144 1.226 . S
C155 O145 1.307 . S
C156 O148 1.303 . S
C156 O149 1.247 . S
C157 O146 1.253 . S
C157 O147 1.283 . S
C158 O150 1.304 . S
C158 O152 1.272 . S
C159 O151 1.311 . S
C159 O153 1.231 . S
O160 Zn142 1.953 . S
O160 C154 1.298 . S
O161 Zn162 1.953 . S
O161 C177 1.225 . S
Zn162 O161 1.953 . S
Zn162 O163 1.949 . S
Zn162 O169 1.919 . S
Zn162 O174 1.924 . S
O163 Zn162 1.949 . S
O163 Zn164 1.923 . S
O163 Zn165 1.950 . S
O163 Zn166 1.945 . S
Zn164 O163 1.923 . S
Zn164 O167 1.933 . S
Zn164 O170 1.941 . S
Zn164 O171 1.965 . S
Zn165 O163 1.950 . S
Zn165 O172 1.938 . S
Zn165 O173 1.906 . S
Zn165 O183 1.953 . S
Zn166 O163 1.945 . S
Zn166 O168 1.932 . S
Zn166 O175 1.977 . S
Zn166 O176 1.910 . S
O167 Zn164 1.933 . S
O167 C178 1.226 . S
O168 Zn166 1.932 . S
O168 C178 1.307 . S
O169 Zn162 1.919 . S
O169 C180 1.253 . S
O170 Zn164 1.941 . S
O170 C180 1.283 . S
O171 Zn164 1.965 . S
O171 C179 1.303 . S
O172 Zn165 1.938 . S
O172 C179 1.247 . S
O173 Zn165 1.906 . S
O173 C181 1.304 . S
O174 Zn162 1.924 . S
O174 C182 1.311 . S
O175 Zn166 1.977 . S
O175 C181 1.272 . S
O176 Zn166 1.910 . S
O176 C182 1.231 . S
C177 O161 1.225 . S
C177 O183 1.298 . S
C178 O167 1.226 . S
C178 O168 1.307 . S
C179 O171 1.303 . S
C179 O172 1.247 . S
C180 O169 1.253 . S
C180 O170 1.283 . S
C181 O173 1.304 . S
C181 O175 1.272 . S
C182 O174 1.311 . S
C182 O176 1.231 . S
O183 Zn165 1.953 . S
O183 C177 1.298 . S
Cd184 N187 2.334 1_655 S
Cd184 N213 2.304 1_565 S
Cd184 O220 2.268 . S
Cd184 O223 2.273 1_665 S
Cd184 O224 2.417 . S
Cd184 O225 2.330 . S
Cd185 N200 2.304 1_455 S
Cd185 N204 2.334 1_545 S
Cd185 O221 2.273 1_445 S
Cd185 O222 2.268 . S
Cd185 O226 2.417 . S
Cd185 O227 2.330 . S
C186 N187 1.332 . S
C186 C190 1.381 . S
C186 H192 0.931 . S
N187 Cd184 2.334 1_455 S
N187 C186 1.332 . S
N187 C191 1.328 . S
C188 C189 1.396 . S
C188 C191 1.378 . S
C188 H230 0.931 . S
C189 C188 1.396 . S
C189 C190 1.382 . S
C190 C186 1.381 . S
C190 C189 1.382 . S
C190 H231 0.930 . S
C191 N187 1.328 . S
C191 C188 1.378 . S
C191 H193 0.930 . S
H192 C186 0.931 . S
H193 C191 0.930 . S
C194 O220 1.238 . S
C194 O221 1.253 . S
C195 C196 1.379 . S
C195 N200 1.337 . S
C195 H201 0.929 . S
C196 C195 1.379 . S
C196 C197 1.380 . S
C196 H232 0.929 . S
C197 C196 1.380 . S
C197 C198 1.399 . S
C198 C197 1.399 . S
C198 C199 1.376 . S
C198 H233 0.931 . S
C199 C198 1.376 . S
C199 N200 1.338 . S
C199 H202 0.930 1_655 S
N200 Cd185 2.304 1_655 S
N200 C195 1.337 . S
N200 C199 1.338 . S
H201 C195 0.929 . S
H202 C199 0.930 1_455 S
C203 N204 1.332 . S
C203 C207 1.381 . S
C203 H209 0.931 . S
N204 Cd185 2.334 1_565 S
N204 C203 1.332 . S
N204 C208 1.328 . S
C205 C206 1.396 . S
C205 C208 1.378 . S
C205 H234 0.931 . S
C206 C205 1.396 . S
C206 C207 1.382 . S
C207 C203 1.381 . S
C207 C206 1.382 . S
C207 H235 0.930 . S
C208 N204 1.328 . S
C208 C205 1.378 . S
C208 H210 0.930 1_565 S
H209 C203 0.931 . S
H210 C208 0.930 1_545 S
C211 O222 1.238 . S
C211 O223 1.253 . S
C212 O224 1.239 . S
C212 O225 1.230 . S
N213 Cd184 2.304 1_545 S
N213 C214 1.337 . S
N213 C218 1.338 . S
C214 N213 1.337 . S
C214 C215 1.379 . S
C214 H228 0.929 . S
C215 C214 1.379 . S
C215 C216 1.380 . S
C215 H236 0.929 . S
C216 C215 1.380 . S
C216 C217 1.399 . S
C217 C216 1.399 . S
C217 C218 1.376 . S
C217 H237 0.931 . S
C218 N213 1.338 . S
C218 C217 1.376 . S
C218 H229 0.930 . S
C219 O226 1.239 . S
C219 O227 1.230 . S
O220 Cd184 2.268 . S
O220 C194 1.238 . S
O221 Cd185 2.273 1_665 S
O221 C194 1.253 . S
O222 Cd185 2.268 . S
O222 C211 1.238 . S
O223 Cd184 2.273 1_445 S
O223 C211 1.253 . S
O224 Cd184 2.417 . S
O224 C212 1.239 . S
O225 Cd184 2.330 . S
O225 C212 1.230 . S
O226 Cd185 2.417 . S
O226 C219 1.239 . S
O227 Cd185 2.330 . S
O227 C219 1.230 . S
H228 C214 0.929 . S
H229 C218 0.930 . S
H230 C188 0.931 . S
H231 C190 0.930 . S
H232 C196 0.929 . S
H233 C198 0.931 . S
H234 C205 0.931 . S
H235 C207 0.930 . S
H236 C215 0.929 . S
H237 C217 0.931 . S
Cd238 N241 2.334 . S
Cd238 N267 2.304 1_565 S
Cd238 O274 2.268 1_554 S
Cd238 O277 2.273 1_565 S
Cd238 O278 2.417 . S
Cd238 O279 2.330 . S
Cd239 N254 2.304 . S
Cd239 N258 2.334 1_545 S
Cd239 O275 2.273 1_545 S
Cd239 O276 2.268 1_556 S
Cd239 O280 2.417 . S
Cd239 O281 2.330 . S
C240 N241 1.332 . S
C240 C244 1.381 . S
C240 H246 0.931 . S
N241 Cd238 2.334 . S
N241 C240 1.332 . S
N241 C245 1.328 . S
C242 C243 1.396 . S
C242 C245 1.378 . S
C242 H284 0.931 . S
C243 C242 1.396 . S
C243 C244 1.382 . S
C244 C240 1.381 . S
C244 C243 1.382 . S
C244 H285 0.930 . S
C245 N241 1.328 . S
C245 C242 1.378 . S
C245 H247 0.930 . S
H246 C240 0.931 . S
H247 C245 0.930 . S
C248 O274 1.238 . S
C248 O275 1.253 . S
C249 C250 1.379 . S
C249 N254 1.337 . S
C249 H255 0.929 . S
C250 C249 1.379 . S
C250 C251 1.380 . S
C250 H286 0.929 . S
C251 C250 1.380 . S
C251 C252 1.405 . S
C252 C251 1.405 . S
C252 C253 1.376 . S
C252 H287 0.925 1_556 S
C253 C252 1.376 . S
C253 N254 1.338 . S
C253 H256 0.930 1_556 S
N254 Cd239 2.304 . S
N254 C249 1.337 . S
N254 C253 1.338 . S
H255 C249 0.929 . S
H256 C253 0.930 1_554 S
C257 N258 1.332 . S
C257 C261 1.381 . S
C257 H263 0.931 . S
N258 Cd239 2.334 1_565 S
N258 C257 1.332 . S
N258 C262 1.328 . S
C259 C260 1.396 . S
C259 C262 1.378 . S
C259 H288 0.931 1_556 S
C260 C259 1.396 . S
C260 C261 1.382 . S
C261 C257 1.381 . S
C261 C260 1.382 . S
C261 H289 0.930 . S
C262 N258 1.328 . S
C262 C259 1.378 . S
C262 H264 0.930 1_566 S
H263 C257 0.931 . S
H264 C262 0.930 1_544 S
C265 O276 1.238 . S
C265 O277 1.253 . S
C266 O278 1.239 . S
C266 O279 1.230 . S
N267 Cd238 2.304 1_545 S
N267 C268 1.337 . S
N267 C272 1.338 . S
C268 N267 1.337 . S
C268 C269 1.379 . S
C268 H282 0.929 . S
C269 C268 1.379 . S
C269 C270 1.380 . S
C269 H290 0.929 . S
C270 C269 1.380 . S
C270 C271 1.399 . S
C271 C270 1.399 . S
C271 C272 1.376 . S
C271 H291 0.931 . S
C272 N267 1.338 . S
C272 C271 1.376 . S
C272 H283 0.930 . S
C273 O280 1.239 . S
C273 O281 1.230 . S
O274 Cd238 2.268 1_556 S
O274 C248 1.238 . S
O275 Cd239 2.273 1_565 S
O275 C248 1.253 . S
O276 Cd239 2.268 1_554 S
O276 C265 1.238 . S
O277 Cd238 2.273 1_545 S
O277 C265 1.253 . S
O278 Cd238 2.417 . S
O278 C266 1.239 . S
O279 Cd238 2.330 . S
O279 C266 1.230 . S
O280 Cd239 2.417 . S
O280 C273 1.239 . S
O281 Cd239 2.330 . S
O281 C273 1.230 . S
H282 C268 0.929 . S
H283 C272 0.930 . S
H284 C242 0.931 . S
H285 C244 0.930 . S
H286 C250 0.929 . S
H287 C252 0.925 1_554 S
H288 C259 0.931 1_554 S
H289 C261 0.930 . S
H290 C269 0.929 . S
H291 C271 0.931 . S
Cd292 N295 2.334 1_655 S
Cd292 N321 2.304 . S
Cd292 O328 2.268 1_554 S
Cd292 O331 2.273 1_655 S
Cd292 O332 2.417 . S
Cd292 O333 2.330 . S
Cd293 N308 2.304 1_455 S
Cd293 N312 2.334 . S
Cd293 O329 2.273 1_455 S
Cd293 O330 2.268 1_556 S
Cd293 O334 2.417 . S
Cd293 O335 2.330 . S
C294 N295 1.332 . S
C294 C298 1.381 . S
C294 H300 0.931 . S
N295 Cd292 2.334 1_455 S
N295 C294 1.332 . S
N295 C299 1.328 . S
C296 C297 1.396 . S
C296 C299 1.378 . S
C296 H338 0.931 1_554 S
C297 C296 1.396 . S
C297 C298 1.382 . S
C298 C294 1.381 . S
C298 C297 1.382 . S
C298 H339 0.930 . S
C299 N295 1.328 . S
C299 C296 1.378 . S
C299 H301 0.930 1_554 S
H300 C294 0.931 . S
H301 C299 0.930 1_556 S
C302 O328 1.238 . S
C302 O329 1.253 . S
C303 C304 1.379 . S
C303 N308 1.337 . S
C303 H309 0.929 . S
C304 C303 1.379 . S
C304 C305 1.380 . S
C304 H340 0.929 . S
C305 C304 1.380 . S
C305 C306 1.399 . S
C306 C305 1.399 . S
C306 C307 1.396 . S
C306 H341 0.931 1_556 S
C307 C306 1.396 . S
C307 N308 1.335 . S
C307 H310 0.913 1_656 S
N308 Cd293 2.304 1_655 S
N308 C303 1.337 . S
N308 C307 1.335 . S
H309 C303 0.929 . S
H310 C307 0.913 1_454 S
C311 N312 1.332 . S
C311 C315 1.381 . S
C311 H317 0.931 . S
N312 Cd293 2.334 . S
N312 C311 1.332 . S
N312 C316 1.328 . S
C313 C314 1.396 . S
C313 C316 1.378 . S
C313 H342 0.931 1_556 S
C314 C313 1.396 . S
C314 C315 1.382 . S
C315 C311 1.381 . S
C315 C314 1.382 . S
C315 H343 0.930 . S
C316 N312 1.328 . S
C316 C313 1.378 . S
C316 H318 0.930 1_556 S
H317 C311 0.931 . S
H318 C316 0.930 1_554 S
C319 O330 1.238 . S
C319 O331 1.253 . S
C320 O332 1.239 . S
C320 O333 1.230 . S
N321 Cd292 2.304 . S
N321 C322 1.337 . S
N321 C326 1.338 . S
C322 N321 1.337 . S
C322 C323 1.379 . S
C322 H336 0.929 . S
C323 C322 1.379 . S
C323 C324 1.380 . S
C323 H344 0.929 . S
C324 C323 1.380 . S
C324 C325 1.399 . S
C325 C324 1.399 . S
C325 C326 1.376 . S
C325 H345 0.931 1_554 S
C326 N321 1.338 . S
C326 C325 1.376 . S
C326 H337 0.930 1_554 S
C327 O334 1.239 . S
C327 O335 1.230 . S
O328 Cd292 2.268 1_556 S
O328 C302 1.238 . S
O329 Cd293 2.273 1_655 S
O329 C302 1.253 . S
O330 Cd293 2.268 1_554 S
O330 C319 1.238 . S
O331 Cd292 2.273 1_455 S
O331 C319 1.253 . S
O332 Cd292 2.417 . S
O332 C320 1.239 . S
O333 Cd292 2.330 . S
O333 C320 1.230 . S
O334 Cd293 2.417 . S
O334 C327 1.239 . S
O335 Cd293 2.330 . S
O335 C327 1.230 . S
H336 C322 0.929 . S
H337 C326 0.930 1_556 S
H338 C296 0.931 1_556 S
H339 C298 0.930 . S
H340 C304 0.929 . S
H341 C306 0.931 1_554 S
H342 C313 0.931 1_554 S
H343 C315 0.930 . S
H344 C323 0.929 . S
H345 C325 0.931 1_556 S
Cd346 N349 2.334 . S
Cd346 N375 2.304 . S
Cd346 O382 2.268 1_554 S
Cd346 O385 2.273 . S
Cd346 O386 2.417 . S
Cd346 O387 2.330 . S
Cd347 N362 2.304 . S
Cd347 N366 2.334 . S
Cd347 O383 2.273 . S
Cd347 O384 2.268 1_556 S
Cd347 O388 2.417 . S
Cd347 O389 2.330 . S
C348 N349 1.332 . S
C348 C352 1.381 . S
C348 H354 0.931 . S
N349 Cd346 2.334 . S
N349 C348 1.332 . S
N349 C353 1.328 . S
C350 C351 1.396 . S
C350 C353 1.378 . S
C350 H392 0.931 . S
C351 C350 1.396 . S
C351 C352 1.382 . S
C352 C348 1.381 . S
C352 C351 1.382 . S
C352 H393 0.930 . S
C353 N349 1.328 . S
C353 C350 1.378 . S
C353 H355 0.930 . S
H354 C348 0.931 . S
H355 C353 0.930 . S
C356 O382 1.238 . S
C356 O383 1.253 . S
C357 C358 1.379 . S
C357 N362 1.337 . S
C357 H363 0.929 . S
C358 C357 1.379 . S
C358 C359 1.380 . S
C358 H394 0.929 . S
C359 C358 1.380 . S
C359 C360 1.399 . S
C360 C359 1.399 . S
C360 C361 1.376 . S
C360 H395 0.931 1_556 S
C361 C360 1.376 . S
C361 N362 1.338 . S
C361 H364 0.930 1_556 S
N362 Cd347 2.304 . S
N362 C357 1.337 . S
N362 C361 1.338 . S
H363 C357 0.929 . S
H364 C361 0.930 1_554 S
C365 N366 1.332 . S
C365 C369 1.381 . S
C365 H371 0.931 . S
N366 Cd347 2.334 . S
N366 C365 1.332 . S
N366 C370 1.328 . S
C367 C368 1.396 . S
C367 C370 1.378 . S
C367 H396 0.931 1_556 S
C368 C367 1.396 . S
C368 C369 1.382 . S
C369 C365 1.381 . S
C369 C368 1.382 . S
C369 H397 0.930 . S
C370 N366 1.328 . S
C370 C367 1.378 . S
C370 H372 0.930 1_556 S
H371 C365 0.931 . S
H372 C370 0.930 1_554 S
C373 O384 1.238 . S
C373 O385 1.253 . S
C374 O386 1.239 . S
C374 O387 1.230 . S
N375 Cd346 2.304 . S
N375 C376 1.337 . S
N375 C380 1.338 . S
C376 N375 1.337 . S
C376 C377 1.379 . S
C376 H390 0.929 . S
C377 C376 1.379 . S
C377 C378 1.380 . S
C377 H398 0.929 . S
C378 C377 1.380 . S
C378 C379 1.399 . S
C379 C378 1.399 . S
C379 C380 1.376 . S
C379 H399 0.931 . S
C380 N375 1.338 . S
C380 C379 1.376 . S
C380 H391 0.930 . S
C381 O388 1.239 . S
C381 O389 1.230 . S
O382 Cd346 2.268 1_556 S
O382 C356 1.238 . S
O383 Cd347 2.273 . S
O383 C356 1.253 . S
O384 Cd347 2.268 1_554 S
O384 C373 1.238 . S
O385 Cd346 2.273 . S
O385 C373 1.253 . S
O386 Cd346 2.417 . S
O386 C374 1.239 . S
O387 Cd346 2.330 . S
O387 C374 1.230 . S
O388 Cd347 2.417 . S
O388 C381 1.239 . S
O389 Cd347 2.330 . S
O389 C381 1.230 . S
H390 C376 0.929 . S
H391 C380 0.930 . S
H392 C350 0.931 . S
H393 C352 0.930 . S
H394 C358 0.929 . S
H395 C360 0.931 1_554 S
H396 C367 0.931 1_554 S
H397 C369 0.930 . S
H398 C377 0.929 . S
H399 C379 0.931 . S
Cd400 N403 2.334 1_655 S
Cd400 N429 2.304 . S
Cd400 O436 2.268 . S
Cd400 O439 2.273 1_655 S
Cd400 O440 2.417 . S
Cd400 O441 2.330 . S
Cd401 N416 2.304 1_455 S
Cd401 N420 2.334 . S
Cd401 O437 2.273 1_455 S
Cd401 O438 2.268 . S
Cd401 O442 2.417 . S
Cd401 O443 2.330 . S
C402 N403 1.332 . S
C402 C406 1.381 . S
C402 H408 0.931 . S
N403 Cd400 2.334 1_455 S
N403 C402 1.332 . S
N403 C407 1.328 . S
C404 C405 1.396 . S
C404 C407 1.378 . S
C404 H446 0.931 . S
C405 C404 1.396 . S
C405 C406 1.382 . S
C406 C402 1.381 . S
C406 C405 1.382 . S
C406 H447 0.930 . S
C407 N403 1.328 . S
C407 C404 1.378 . S
C407 H409 0.930 . S
H408 C402 0.931 . S
H409 C407 0.930 . S
C410 O436 1.238 . S
C410 O437 1.253 . S
C411 C412 1.379 . S
C411 N416 1.337 . S
C411 H417 0.929 . S
C412 C411 1.379 . S
C412 C413 1.380 . S
C412 H448 0.929 . S
C413 C412 1.380 . S
C413 C414 1.399 . S
C414 C413 1.399 . S
C414 C415 1.376 . S
C414 H449 0.931 . S
C415 C414 1.376 . S
C415 N416 1.338 . S
C415 H418 0.930 1_655 S
N416 Cd401 2.304 1_655 S
N416 C411 1.337 . S
N416 C415 1.338 . S
H417 C411 0.929 . S
H418 C415 0.930 1_455 S
C419 N420 1.332 . S
C419 C423 1.381 . S
C419 H425 0.931 . S
N420 Cd401 2.334 . S
N420 C419 1.332 . S
N420 C424 1.328 . S
C421 C422 1.396 . S
C421 C424 1.378 . S
C421 H450 0.931 . S
C422 C421 1.396 . S
C422 C423 1.382 . S
C423 C419 1.381 . S
C423 C422 1.382 . S
C423 H451 0.930 . S
C424 N420 1.328 . S
C424 C421 1.378 . S
C424 H426 0.930 . S
H425 C419 0.931 . S
H426 C424 0.930 . S
C427 O438 1.238 . S
C427 O439 1.253 . S
C428 O440 1.239 . S
C428 O441 1.230 . S
N429 Cd400 2.304 . S
N429 C430 1.337 . S
N429 C434 1.338 . S
C430 N429 1.337 . S
C430 C431 1.379 . S
C430 H444 0.929 . S
C431 C430 1.379 . S
C431 C432 1.380 . S
C431 H452 0.929 . S
C432 C431 1.380 . S
C432 C433 1.399 . S
C433 C432 1.399 . S
C433 C434 1.376 . S
C433 H453 0.931 . S
C434 N429 1.338 . S
C434 C433 1.376 . S
C434 H445 0.930 . S
C435 O442 1.239 . S
C435 O443 1.230 . S
O436 Cd400 2.268 . S
O436 C410 1.238 . S
O437 Cd401 2.273 1_655 S
O437 C410 1.253 . S
O438 Cd401 2.268 . S
O438 C427 1.238 . S
O439 Cd400 2.273 1_455 S
O439 C427 1.253 . S
O440 Cd400 2.417 . S
O440 C428 1.239 . S
O441 Cd400 2.330 . S
O441 C428 1.230 . S
O442 Cd401 2.417 . S
O442 C435 1.239 . S
O443 Cd401 2.330 . S
O443 C435 1.230 . S
H444 C430 0.929 . S
H445 C434 0.930 . S
H446 C404 0.931 . S
H447 C406 0.930 . S
H448 C412 0.929 . S
H449 C414 0.931 . S
H450 C421 0.931 . S
H451 C423 0.930 . S
H452 C431 0.929 . S
H453 C433 0.931 . S
Cd454 N457 2.334 . S
Cd454 N483 2.304 1_565 S
Cd454 O490 2.268 . S
Cd454 O493 2.273 1_565 S
Cd454 O494 2.417 . S
Cd454 O495 2.330 . S
Cd455 N470 2.304 . S
Cd455 N474 2.334 1_545 S
Cd455 O491 2.273 1_545 S
Cd455 O492 2.268 . S
Cd455 O496 2.417 . S
Cd455 O497 2.330 . S
C456 N457 1.332 . S
C456 C460 1.381 . S
C456 H462 0.931 . S
N457 Cd454 2.334 . S
N457 C456 1.332 . S
N457 C461 1.328 . S
C458 C459 1.396 . S
C458 C461 1.378 . S
C458 H500 0.931 . S
C459 C458 1.396 . S
C459 C460 1.382 . S
C460 C456 1.381 . S
C460 C459 1.382 . S
C460 H501 0.930 . S
C461 N457 1.328 . S
C461 C458 1.378 . S
C461 H463 0.930 . S
H462 C456 0.931 . S
H463 C461 0.930 . S
C464 O490 1.238 . S
C464 O491 1.253 . S
C465 C466 1.379 . S
C465 N470 1.337 . S
C465 H471 0.929 . S
C466 C465 1.379 . S
C466 C467 1.380 . S
C466 H502 0.929 . S
C467 C466 1.380 . S
C467 C468 1.399 . S
C468 C467 1.399 . S
C468 C469 1.376 . S
C468 H503 0.931 . S
C469 C468 1.376 . S
C469 N470 1.338 . S
C469 H472 0.930 . S
N470 Cd455 2.304 . S
N470 C465 1.337 . S
N470 C469 1.338 . S
H471 C465 0.929 . S
H472 C469 0.930 . S
C473 N474 1.332 . S
C473 C477 1.381 . S
C473 H479 0.931 . S
N474 Cd455 2.334 1_565 S
N474 C473 1.332 . S
N474 C478 1.328 . S
C475 C476 1.396 . S
C475 C478 1.378 . S
C475 H504 0.931 . S
C476 C475 1.396 . S
C476 C477 1.382 . S
C477 C473 1.381 . S
C477 C476 1.382 . S
C477 H505 0.930 . S
C478 N474 1.328 . S
C478 C475 1.378 . S
C478 H480 0.930 1_565 S
H479 C473 0.931 . S
H480 C478 0.930 1_545 S
C481 O492 1.238 . S
C481 O493 1.253 . S
C482 O494 1.239 . S
C482 O495 1.230 . S
N483 Cd454 2.304 1_545 S
N483 C484 1.337 . S
N483 C488 1.338 . S
C484 N483 1.337 . S
C484 C485 1.379 . S
C484 H498 0.929 . S
C485 C484 1.379 . S
C485 C486 1.380 . S
C485 H506 0.929 . S
C486 C485 1.380 . S
C486 C487 1.399 . S
C487 C486 1.399 . S
C487 C488 1.376 . S
C487 H507 0.931 . S
C488 N483 1.338 . S
C488 C487 1.376 . S
C488 H499 0.930 . S
C489 O496 1.239 . S
C489 O497 1.230 . S
O490 Cd454 2.268 . S
O490 C464 1.238 . S
O491 Cd455 2.273 1_565 S
O491 C464 1.253 . S
O492 Cd455 2.268 . S
O492 C481 1.238 . S
O493 Cd454 2.273 1_545 S
O493 C481 1.253 . S
O494 Cd454 2.417 . S
O494 C482 1.239 . S
O495 Cd454 2.330 . S
O495 C482 1.230 . S
O496 Cd455 2.417 . S
O496 C489 1.239 . S
O497 Cd455 2.330 . S
O497 C489 1.230 . S
H498 C484 0.929 . S
H499 C488 0.930 . S
H500 C458 0.931 . S
H501 C460 0.930 . S
H502 C466 0.929 . S
H503 C468 0.931 . S
H504 C475 0.931 . S
H505 C477 0.930 . S
H506 C485 0.929 . S
H507 C487 0.931 . S
C508 C509 1.391 . S
C508 C510 1.394 . S
C508 H524 0.931 . S
C509 C508 1.391 . S
C509 C513 1.376 . S
C510 C508 1.394 . S
C510 C511 1.369 . S
C510 C514 1.531 . S
C511 C510 1.369 . S
C511 C512 1.410 . S
C511 C519 1.503 . S
C512 C511 1.410 . S
C512 C513 1.392 . S
C512 C515 1.511 . S
C513 C509 1.376 . S
C513 C512 1.392 . S
C513 H525 0.929 . S
C514 C510 1.531 . S
C514 H526 0.960 . S
C514 H527 0.962 . S
C514 H528 0.960 . S
C515 C512 1.511 . S
C515 H529 0.961 . S
C515 H530 0.961 . S
C515 H531 0.961 . S
C516 C517 1.370 . S
C516 C518 1.363 . S
C516 H532 0.931 . S
C517 C516 1.370 . S
C517 C521 1.408 . S
C518 C516 1.363 . S
C518 C519 1.370 . S
C518 C522 1.524 . S
C519 C511 1.503 . S
C519 C518 1.370 . S
C519 C520 1.403 . S
C520 C519 1.403 . S
C520 C521 1.404 . S
C520 C523 1.539 . S
C521 C517 1.408 . S
C521 C520 1.404 . S
C521 H533 0.930 . S
C522 C518 1.524 . S
C522 H534 0.956 . S
C522 H535 0.961 . S
C522 H536 0.961 . S
C523 C520 1.539 . S
C523 H537 0.958 . S
C523 H538 0.961 . S
C523 H539 0.960 . S
H524 C508 0.931 . S
H525 C513 0.929 . S
H526 C514 0.960 . S
H527 C514 0.962 . S
H528 C514 0.960 . S
H529 C515 0.961 . S
H530 C515 0.961 . S
H531 C515 0.961 . S
H532 C516 0.931 . S
H533 C521 0.930 . S
H534 C522 0.956 . S
H535 C522 0.961 . S
H536 C522 0.961 . S
H537 C523 0.958 . S
H538 C523 0.961 . S
H539 C523 0.960 . S
C540 C541 1.391 . S
C540 C542 1.394 . S
C540 H556 0.931 . S
C541 C540 1.391 . S
C541 C545 1.376 . S
C542 C540 1.394 . S
C542 C543 1.369 . S
C542 C546 1.531 . S
C543 C542 1.369 . S
C543 C544 1.410 . S
C543 C551 1.503 . S
C544 C543 1.410 . S
C544 C545 1.392 . S
C544 C547 1.511 . S
C545 C541 1.376 . S
C545 C544 1.392 . S
C545 H557 0.929 . S
C546 C542 1.531 . S
C546 H558 0.960 . S
C546 H559 0.962 . S
C546 H560 0.960 . S
C547 C544 1.511 . S
C547 H561 0.961 . S
C547 H562 0.961 . S
C547 H563 0.961 . S
C548 C549 1.370 . S
C548 C550 1.363 . S
C548 H564 0.931 . S
C549 C548 1.370 . S
C549 C553 1.408 . S
C550 C548 1.363 . S
C550 C551 1.370 . S
C550 C554 1.524 . S
C551 C543 1.503 . S
C551 C550 1.370 . S
C551 C552 1.403 . S
C552 C551 1.403 . S
C552 C553 1.404 . S
C552 C555 1.539 . S
C553 C549 1.408 . S
C553 C552 1.404 . S
C553 H565 0.930 . S
C554 C550 1.524 . S
C554 H566 0.956 . S
C554 H567 0.961 . S
C554 H568 0.961 . S
C555 C552 1.539 . S
C555 H569 0.958 . S
C555 H570 0.961 . S
C555 H571 0.960 . S
H556 C540 0.931 . S
H557 C545 0.929 . S
H558 C546 0.960 . S
H559 C546 0.962 . S
H560 C546 0.960 . S
H561 C547 0.961 . S
H562 C547 0.961 . S
H563 C547 0.961 . S
H564 C548 0.931 . S
H565 C553 0.930 . S
H566 C554 0.956 . S
H567 C554 0.961 . S
H568 C554 0.961 . S
H569 C555 0.958 . S
H570 C555 0.961 . S
H571 C555 0.960 . S
C572 C573 1.391 . S
C572 C574 1.394 . S
C572 H588 0.931 . S
C573 C572 1.391 . S
C573 C577 1.376 . S
C574 C572 1.394 . S
C574 C575 1.369 . S
C574 C578 1.531 . S
C575 C574 1.369 . S
C575 C576 1.410 . S
C575 C583 1.503 . S
C576 C575 1.410 . S
C576 C577 1.392 . S
C576 C579 1.511 . S
C577 C573 1.376 . S
C577 C576 1.392 . S
C577 H589 0.929 . S
C578 C574 1.531 . S
C578 H590 0.960 . S
C578 H591 0.962 . S
C578 H592 0.960 . S
C579 C576 1.511 . S
C579 H593 0.961 . S
C579 H594 0.961 . S
C579 H595 0.961 . S
C580 C581 1.370 . S
C580 C582 1.363 . S
C580 H596 0.931 . S
C581 C580 1.370 . S
C581 C585 1.408 . S
C582 C580 1.363 . S
C582 C583 1.370 . S
C582 C586 1.524 . S
C583 C575 1.503 . S
C583 C582 1.370 . S
C583 C584 1.403 . S
C584 C583 1.403 . S
C584 C585 1.404 . S
C584 C587 1.539 . S
C585 C581 1.408 . S
C585 C584 1.404 . S
C585 H597 0.930 . S
C586 C582 1.524 . S
C586 H598 0.956 . S
C586 H599 0.961 . S
C586 H600 0.961 . S
C587 C584 1.539 . S
C587 H601 0.958 . S
C587 H602 0.961 . S
C587 H603 0.960 . S
H588 C572 0.931 . S
H589 C577 0.929 . S
H590 C578 0.960 . S
H591 C578 0.962 . S
H592 C578 0.960 . S
H593 C579 0.961 . S
H594 C579 0.961 . S
H595 C579 0.961 . S
H596 C580 0.931 . S
H597 C585 0.930 . S
H598 C586 0.956 . S
H599 C586 0.961 . S
H600 C586 0.961 . S
H601 C587 0.958 . S
H602 C587 0.961 . S
H603 C587 0.960 . S
C604 C605 1.391 . S
C604 C606 1.394 . S
C604 H620 0.931 . S
C605 C604 1.391 . S
C605 C609 1.376 . S
C606 C604 1.394 . S
C606 C607 1.369 . S
C606 C610 1.531 . S
C607 C606 1.369 . S
C607 C608 1.410 . S
C607 C615 1.503 . S
C608 C607 1.410 . S
C608 C609 1.392 . S
C608 C611 1.511 . S
C609 C605 1.376 . S
C609 C608 1.392 . S
C609 H621 0.929 . S
C610 C606 1.531 . S
C610 H622 0.960 . S
C610 H623 0.962 . S
C610 H624 0.960 . S
C611 C608 1.511 . S
C611 H625 0.961 . S
C611 H626 0.961 . S
C611 H627 0.961 . S
C612 C613 1.370 . S
C612 C614 1.363 . S
C612 H628 0.931 . S
C613 C612 1.370 . S
C613 C617 1.408 . S
C614 C612 1.363 . S
C614 C615 1.370 . S
C614 C618 1.524 . S
C615 C607 1.503 . S
C615 C614 1.370 . S
C615 C616 1.403 . S
C616 C615 1.403 . S
C616 C617 1.404 . S
C616 C619 1.539 . S
C617 C613 1.408 . S
C617 C616 1.404 . S
C617 H629 0.930 . S
C618 C614 1.524 . S
C618 H630 0.956 . S
C618 H631 0.961 . S
C618 H632 0.961 . S
C619 C616 1.539 . S
C619 H633 0.958 . S
C619 H634 0.961 . S
C619 H635 0.960 . S
H620 C604 0.931 . S
H621 C609 0.929 . S
H622 C610 0.960 . S
H623 C610 0.962 . S
H624 C610 0.960 . S
H625 C611 0.961 . S
H626 C611 0.961 . S
H627 C611 0.961 . S
H628 C612 0.931 . S
H629 C617 0.930 . S
H630 C618 0.956 . S
H631 C618 0.961 . S
H632 C618 0.961 . S
H633 C619 0.958 . S
H634 C619 0.961 . S
H635 C619 0.960 . S
C636 C637 1.391 . S
C636 C638 1.394 . S
C636 H652 0.931 . S
C637 C636 1.391 . S
C637 C641 1.376 . S
C638 C636 1.394 . S
C638 C639 1.369 . S
C638 C642 1.531 . S
C639 C638 1.369 . S
C639 C640 1.410 . S
C639 C647 1.503 . S
C640 C639 1.410 . S
C640 C641 1.392 . S
C640 C643 1.511 . S
C641 C637 1.376 . S
C641 C640 1.392 . S
C641 H653 0.929 . S
C642 C638 1.531 . S
C642 H654 0.960 . S
C642 H655 0.962 . S
C642 H656 0.960 . S
C643 C640 1.511 . S
C643 H657 0.961 . S
C643 H658 0.961 . S
C643 H659 0.961 . S
C644 C645 1.370 . S
C644 C646 1.363 . S
C644 H660 0.931 . S
C645 C644 1.370 . S
C645 C649 1.408 . S
C646 C644 1.363 . S
C646 C647 1.370 . S
C646 C650 1.524 . S
C647 C639 1.503 . S
C647 C646 1.370 . S
C647 C648 1.403 . S
C648 C647 1.403 . S
C648 C649 1.404 . S
C648 C651 1.539 . S
C649 C645 1.408 . S
C649 C648 1.404 . S
C649 H661 0.930 . S
C650 C646 1.524 . S
C650 H662 0.956 . S
C650 H663 0.961 . S
C650 H664 0.961 . S
C651 C648 1.539 . S
C651 H665 0.958 . S
C651 H666 0.961 . S
C651 H667 0.960 . S
H652 C636 0.931 . S
H653 C641 0.929 . S
H654 C642 0.960 . S
H655 C642 0.962 . S
H656 C642 0.960 . S
H657 C643 0.961 . S
H658 C643 0.961 . S
H659 C643 0.961 . S
H660 C644 0.931 . S
H661 C649 0.930 . S
H662 C650 0.956 . S
H663 C650 0.961 . S
H664 C650 0.961 . S
H665 C651 0.958 . S
H666 C651 0.961 . S
H667 C651 0.960 . S
C668 C669 1.391 . S
C668 C670 1.394 . S
C668 H684 0.931 . S
C669 C668 1.391 . S
C669 C673 1.376 . S
C670 C668 1.394 . S
C670 C671 1.369 . S
C670 C674 1.531 . S
C671 C670 1.369 . S
C671 C672 1.410 . S
C671 C679 1.503 . S
C672 C671 1.410 . S
C672 C673 1.392 . S
C672 C675 1.511 . S
C673 C669 1.376 . S
C673 C672 1.392 . S
C673 H685 0.929 . S
C674 C670 1.531 . S
C674 H686 0.960 . S
C674 H687 0.962 . S
C674 H688 0.960 . S
C675 C672 1.511 . S
C675 H689 0.961 . S
C675 H690 0.961 . S
C675 H691 0.961 . S
C676 C677 1.370 . S
C676 C678 1.363 . S
C676 H692 0.931 . S
C677 C676 1.370 . S
C677 C681 1.408 . S
C678 C676 1.363 . S
C678 C679 1.370 . S
C678 C682 1.524 . S
C679 C671 1.503 . S
C679 C678 1.370 . S
C679 C680 1.403 . S
C680 C679 1.403 . S
C680 C681 1.404 . S
C680 C683 1.539 . S
C681 C677 1.408 . S
C681 C680 1.404 . S
C681 H693 0.930 . S
C682 C678 1.524 . S
C682 H694 0.956 . S
C682 H695 0.961 . S
C682 H696 0.961 . S
C683 C680 1.539 . S
C683 H697 0.958 . S
C683 H698 0.961 . S
C683 H699 0.960 . S
H684 C668 0.931 . S
H685 C673 0.929 . S
H686 C674 0.960 . S
H687 C674 0.962 . S
H688 C674 0.960 . S
H689 C675 0.961 . S
H690 C675 0.961 . S
H691 C675 0.961 . S
H692 C676 0.931 . S
H693 C681 0.930 . S
H694 C682 0.956 . S
H695 C682 0.961 . S
H696 C682 0.961 . S
H697 C683 0.958 . S
H698 C683 0.961 . S
H699 C683 0.960 . S
C700 C701 1.391 . S
C700 C702 1.394 . S
C700 H716 0.931 . S
C701 C700 1.391 . S
C701 C705 1.376 . S
C702 C700 1.394 . S
C702 C703 1.369 . S
C702 C706 1.531 . S
C703 C702 1.369 . S
C703 C704 1.410 . S
C703 C711 1.503 . S
C704 C703 1.410 . S
C704 C705 1.392 . S
C704 C707 1.511 . S
C705 C701 1.376 . S
C705 C704 1.392 . S
C705 H717 0.929 . S
C706 C702 1.531 . S
C706 H718 0.960 . S
C706 H719 0.962 . S
C706 H720 0.960 . S
C707 C704 1.511 . S
C707 H721 0.961 . S
C707 H722 0.961 . S
C707 H723 0.961 . S
C708 C709 1.370 . S
C708 C710 1.363 . S
C708 H724 0.931 . S
C709 C708 1.370 . S
C709 C713 1.408 . S
C710 C708 1.363 . S
C710 C711 1.370 . S
C710 C714 1.524 . S
C711 C703 1.503 . S
C711 C710 1.370 . S
C711 C712 1.403 . S
C712 C711 1.403 . S
C712 C713 1.404 . S
C712 C715 1.539 . S
C713 C709 1.408 . S
C713 C712 1.404 . S
C713 H725 0.930 . S
C714 C710 1.524 . S
C714 H726 0.956 . S
C714 H727 0.961 . S
C714 H728 0.961 . S
C715 C712 1.539 . S
C715 H729 0.958 . S
C715 H730 0.961 . S
C715 H731 0.960 . S
H716 C700 0.931 . S
H717 C705 0.929 . S
H718 C706 0.960 . S
H719 C706 0.962 . S
H720 C706 0.960 . S
H721 C707 0.961 . S
H722 C707 0.961 . S
H723 C707 0.961 . S
H724 C708 0.931 . S
H725 C713 0.930 . S
H726 C714 0.956 . S
H727 C714 0.961 . S
H728 C714 0.961 . S
H729 C715 0.958 . S
H730 C715 0.961 . S
H731 C715 0.960 . S
C732 C733 1.391 . S
C732 C734 1.394 . S
C732 H748 0.931 . S
C733 C732 1.391 . S
C733 C737 1.376 . S
C734 C732 1.394 . S
C734 C735 1.369 . S
C734 C738 1.531 . S
C735 C734 1.369 . S
C735 C736 1.410 . S
C735 C743 1.503 . S
C736 C735 1.410 . S
C736 C737 1.392 . S
C736 C739 1.511 . S
C737 C733 1.376 . S
C737 C736 1.392 . S
C737 H749 0.929 . S
C738 C734 1.531 . S
C738 H750 0.960 . S
C738 H751 0.962 . S
C738 H752 0.960 . S
C739 C736 1.511 . S
C739 H753 0.961 . S
C739 H754 0.961 . S
C739 H755 0.961 . S
C740 C741 1.370 . S
C740 C742 1.363 . S
C740 H756 0.931 . S
C741 C740 1.370 . S
C741 C745 1.408 . S
C742 C740 1.363 . S
C742 C743 1.370 . S
C742 C746 1.524 . S
C743 C735 1.503 . S
C743 C742 1.370 . S
C743 C744 1.403 . S
C744 C743 1.403 . S
C744 C745 1.404 . S
C744 C747 1.539 . S
C745 C741 1.408 . S
C745 C744 1.404 . S
C745 H757 0.930 . S
C746 C742 1.524 . S
C746 H758 0.956 . S
C746 H759 0.961 . S
C746 H760 0.961 . S
C747 C744 1.539 . S
C747 H761 0.958 . S
C747 H762 0.961 . S
C747 H763 0.960 . S
H748 C732 0.931 . S
H749 C737 0.929 . S
H750 C738 0.960 . S
H751 C738 0.962 . S
H752 C738 0.960 . S
H753 C739 0.961 . S
H754 C739 0.961 . S
H755 C739 0.961 . S
H756 C740 0.931 . S
H757 C745 0.930 . S
H758 C746 0.956 . S
H759 C746 0.961 . S
H760 C746 0.961 . S
H761 C747 0.958 . S
H762 C747 0.961 . S
H763 C747 0.960 . S
C764 C765 1.391 . S
C764 C766 1.394 . S
C764 H780 0.931 . S
C765 C764 1.391 . S
C765 C769 1.376 . S
C766 C764 1.394 . S
C766 C767 1.369 . S
C766 C770 1.531 . S
C767 C766 1.369 . S
C767 C768 1.410 . S
C767 C775 1.503 . S
C768 C767 1.410 . S
C768 C769 1.392 . S
C768 C771 1.511 . S
C769 C765 1.376 . S
C769 C768 1.392 . S
C769 H781 0.929 . S
C770 C766 1.531 . S
C770 H782 0.960 . S
C770 H783 0.962 . S
C770 H784 0.960 . S
C771 C768 1.511 . S
C771 H785 0.961 . S
C771 H786 0.961 . S
C771 H787 0.961 . S
C772 C773 1.370 . S
C772 C774 1.363 . S
C772 H788 0.931 . S
C773 C772 1.370 . S
C773 C777 1.408 . S
C774 C772 1.363 . S
C774 C775 1.370 . S
C774 C778 1.524 . S
C775 C767 1.503 . S
C775 C774 1.370 . S
C775 C776 1.403 . S
C776 C775 1.403 . S
C776 C777 1.404 . S
C776 C779 1.539 . S
C777 C773 1.408 . S
C777 C776 1.404 . S
C777 H789 0.930 . S
C778 C774 1.524 . S
C778 H790 0.956 . S
C778 H791 0.961 . S
C778 H792 0.961 . S
C779 C776 1.539 . S
C779 H793 0.958 . S
C779 H794 0.961 . S
C779 H795 0.960 . S
H780 C764 0.931 . S
H781 C769 0.929 . S
H782 C770 0.960 . S
H783 C770 0.962 . S
H784 C770 0.960 . S
H785 C771 0.961 . S
H786 C771 0.961 . S
H787 C771 0.961 . S
H788 C772 0.931 . S
H789 C777 0.930 . S
H790 C778 0.956 . S
H791 C778 0.961 . S
H792 C778 0.961 . S
H793 C779 0.958 . S
H794 C779 0.961 . S
H795 C779 0.960 . S
C796 C797 1.391 . S
C796 C798 1.394 . S
C796 H812 0.931 . S
C797 C796 1.391 . S
C797 C801 1.376 . S
C798 C796 1.394 . S
C798 C799 1.369 . S
C798 C802 1.531 . S
C799 C798 1.369 . S
C799 C800 1.410 . S
C799 C807 1.503 . S
C800 C799 1.410 . S
C800 C801 1.392 . S
C800 C803 1.511 . S
C801 C797 1.376 . S
C801 C800 1.392 . S
C801 H813 0.929 . S
C802 C798 1.531 . S
C802 H814 0.960 . S
C802 H815 0.962 . S
C802 H816 0.960 . S
C803 C800 1.511 . S
C803 H817 0.961 . S
C803 H818 0.961 . S
C803 H819 0.961 . S
C804 C805 1.370 . S
C804 C806 1.363 . S
C804 H820 0.931 . S
C805 C804 1.370 . S
C805 C809 1.408 . S
C806 C804 1.363 . S
C806 C807 1.370 . S
C806 C810 1.524 . S
C807 C799 1.503 . S
C807 C806 1.370 . S
C807 C808 1.403 . S
C808 C807 1.403 . S
C808 C809 1.404 . S
C808 C811 1.539 . S
C809 C805 1.408 . S
C809 C808 1.404 . S
C809 H821 0.930 . S
C810 C806 1.524 . S
C810 H822 0.956 . S
C810 H823 0.961 . S
C810 H824 0.961 . S
C811 C808 1.539 . S
C811 H825 0.958 . S
C811 H826 0.961 . S
C811 H827 0.960 . S
H812 C796 0.931 . S
H813 C801 0.929 . S
H814 C802 0.960 . S
H815 C802 0.962 . S
H816 C802 0.960 . S
H817 C803 0.961 . S
H818 C803 0.961 . S
H819 C803 0.961 . S
H820 C804 0.931 . S
H821 C809 0.930 . S
H822 C810 0.956 . S
H823 C810 0.961 . S
H824 C810 0.961 . S
H825 C811 0.958 . S
H826 C811 0.961 . S
H827 C811 0.960 . S
C828 C829 1.391 . S
C828 C830 1.394 . S
C828 H844 0.931 . S
C829 C828 1.391 . S
C829 C833 1.376 . S
C830 C828 1.394 . S
C830 C831 1.369 . S
C830 C834 1.531 . S
C831 C830 1.369 . S
C831 C832 1.410 . S
C831 C839 1.503 . S
C832 C831 1.410 . S
C832 C833 1.392 . S
C832 C835 1.511 . S
C833 C829 1.376 . S
C833 C832 1.392 . S
C833 H845 0.929 . S
C834 C830 1.531 . S
C834 H846 0.960 . S
C834 H847 0.962 . S
C834 H848 0.960 . S
C835 C832 1.511 . S
C835 H849 0.961 . S
C835 H850 0.961 . S
C835 H851 0.961 . S
C836 C837 1.370 . S
C836 C838 1.363 . S
C836 H852 0.931 . S
C837 C836 1.370 . S
C837 C841 1.408 . S
C838 C836 1.363 . S
C838 C839 1.370 . S
C838 C842 1.524 . S
C839 C831 1.503 . S
C839 C838 1.370 . S
C839 C840 1.403 . S
C840 C839 1.403 . S
C840 C841 1.404 . S
C840 C843 1.539 . S
C841 C837 1.408 . S
C841 C840 1.404 . S
C841 H853 0.930 . S
C842 C838 1.524 . S
C842 H854 0.956 . S
C842 H855 0.961 . S
C842 H856 0.961 . S
C843 C840 1.539 . S
C843 H857 0.958 . S
C843 H858 0.961 . S
C843 H859 0.960 . S
H844 C828 0.931 . S
H845 C833 0.929 . S
H846 C834 0.960 . S
H847 C834 0.962 . S
H848 C834 0.960 . S
H849 C835 0.961 . S
H850 C835 0.961 . S
H851 C835 0.961 . S
H852 C836 0.931 . S
H853 C841 0.930 . S
H854 C842 0.956 . S
H855 C842 0.961 . S
H856 C842 0.961 . S
H857 C843 0.958 . S
H858 C843 0.961 . S
H859 C843 0.960 . S
C860 C861 1.391 . S
C860 C862 1.394 . S
C860 H876 0.931 . S
C861 C860 1.391 . S
C861 C865 1.376 . S
C862 C860 1.394 . S
C862 C863 1.369 . S
C862 C866 1.531 . S
C863 C862 1.369 . S
C863 C864 1.410 . S
C863 C871 1.503 . S
C864 C863 1.410 . S
C864 C865 1.392 . S
C864 C867 1.511 . S
C865 C861 1.376 . S
C865 C864 1.392 . S
C865 H877 0.929 . S
C866 C862 1.531 . S
C866 H878 0.960 . S
C866 H879 0.962 . S
C866 H880 0.960 . S
C867 C864 1.511 . S
C867 H881 0.961 . S
C867 H882 0.961 . S
C867 H883 0.961 . S
C868 C869 1.370 . S
C868 C870 1.363 . S
C868 H884 0.931 . S
C869 C868 1.370 . S
C869 C873 1.408 . S
C870 C868 1.363 . S
C870 C871 1.370 . S
C870 C874 1.524 . S
C871 C863 1.503 . S
C871 C870 1.370 . S
C871 C872 1.403 . S
C872 C871 1.403 . S
C872 C873 1.404 . S
C872 C875 1.539 . S
C873 C869 1.408 . S
C873 C872 1.404 . S
C873 H885 0.930 . S
C874 C870 1.524 . S
C874 H886 0.956 . S
C874 H887 0.961 . S
C874 H888 0.961 . S
C875 C872 1.539 . S
C875 H889 0.958 . S
C875 H890 0.961 . S
C875 H891 0.960 . S
H876 C860 0.931 . S
H877 C865 0.929 . S
H878 C866 0.960 . S
H879 C866 0.962 . S
H880 C866 0.960 . S
H881 C867 0.961 . S
H882 C867 0.961 . S
H883 C867 0.961 . S
H884 C868 0.931 . S
H885 C873 0.930 . S
H886 C874 0.956 . S
H887 C874 0.961 . S
H888 C874 0.961 . S
H889 C875 0.958 . S
H890 C875 0.961 . S
H891 C875 0.960 . S
C892 C893 1.391 . S
C892 C894 1.394 . S
C892 H908 0.931 . S
C893 C892 1.391 . S
C893 C897 1.376 . S
C894 C892 1.394 . S
C894 C895 1.369 . S
C894 C898 1.531 . S
C895 C894 1.369 . S
C895 C896 1.410 . S
C895 C903 1.503 . S
C896 C895 1.410 . S
C896 C897 1.392 . S
C896 C899 1.511 . S
C897 C893 1.376 . S
C897 C896 1.392 . S
C897 H909 0.929 . S
C898 C894 1.531 . S
C898 H910 0.960 . S
C898 H911 0.962 . S
C898 H912 0.960 . S
C899 C896 1.511 . S
C899 H913 0.961 . S
C899 H914 0.961 . S
C899 H915 0.961 . S
C900 C901 1.370 . S
C900 C902 1.363 . S
C900 H916 0.931 . S
C901 C900 1.370 . S
C901 C905 1.408 . S
C902 C900 1.363 . S
C902 C903 1.370 . S
C902 C906 1.524 . S
C903 C895 1.503 . S
C903 C902 1.370 . S
C903 C904 1.403 . S
C904 C903 1.403 . S
C904 C905 1.404 . S
C904 C907 1.539 . S
C905 C901 1.408 . S
C905 C904 1.404 . S
C905 H917 0.930 . S
C906 C902 1.524 . S
C906 H918 0.956 . S
C906 H919 0.961 . S
C906 H920 0.961 . S
C907 C904 1.539 . S
C907 H921 0.958 . S
C907 H922 0.961 . S
C907 H923 0.960 . S
H908 C892 0.931 . S
H909 C897 0.929 . S
H910 C898 0.960 . S
H911 C898 0.962 . S
H912 C898 0.960 . S
H913 C899 0.961 . S
H914 C899 0.961 . S
H915 C899 0.961 . S
H916 C900 0.931 . S
H917 C905 0.930 . S
H918 C906 0.956 . S
H919 C906 0.961 . S
H920 C906 0.961 . S
H921 C907 0.958 . S
H922 C907 0.961 . S
H923 C907 0.960 . S
C924 C925 1.391 . S
C924 C926 1.394 . S
C924 H940 0.931 . S
C925 C924 1.391 . S
C925 C929 1.376 . S
C926 C924 1.394 . S
C926 C927 1.369 . S
C926 C930 1.531 . S
C927 C926 1.369 . S
C927 C928 1.410 . S
C927 C935 1.503 . S
C928 C927 1.410 . S
C928 C929 1.392 . S
C928 C931 1.511 . S
C929 C925 1.376 . S
C929 C928 1.392 . S
C929 H941 0.929 . S
C930 C926 1.531 . S
C930 H942 0.960 . S
C930 H943 0.962 . S
C930 H944 0.960 . S
C931 C928 1.511 . S
C931 H945 0.961 . S
C931 H946 0.961 . S
C931 H947 0.961 . S
C932 C933 1.370 . S
C932 C934 1.363 . S
C932 H948 0.931 . S
C933 C932 1.370 . S
C933 C937 1.408 . S
C934 C932 1.363 . S
C934 C935 1.370 . S
C934 C938 1.524 . S
C935 C927 1.503 . S
C935 C934 1.370 . S
C935 C936 1.403 . S
C936 C935 1.403 . S
C936 C937 1.404 . S
C936 C939 1.539 . S
C937 C933 1.408 . S
C937 C936 1.404 . S
C937 H949 0.930 . S
C938 C934 1.524 . S
C938 H950 0.956 . S
C938 H951 0.961 . S
C938 H952 0.961 . S
C939 C936 1.539 . S
C939 H953 0.958 . S
C939 H954 0.961 . S
C939 H955 0.960 . S
H940 C924 0.931 . S
H941 C929 0.929 . S
H942 C930 0.960 . S
H943 C930 0.962 . S
H944 C930 0.960 . S
H945 C931 0.961 . S
H946 C931 0.961 . S
H947 C931 0.961 . S
H948 C932 0.931 . S
H949 C937 0.930 . S
H950 C938 0.956 . S
H951 C938 0.961 . S
H952 C938 0.961 . S
H953 C939 0.958 . S
H954 C939 0.961 . S
H955 C939 0.960 . S
C956 C957 1.391 . S
C956 C958 1.394 . S
C956 H972 0.931 . S
C957 C956 1.391 . S
C957 C961 1.376 . S
C958 C956 1.394 . S
C958 C959 1.369 . S
C958 C962 1.531 . S
C959 C958 1.369 . S
C959 C960 1.410 . S
C959 C967 1.503 . S
C960 C959 1.410 . S
C960 C961 1.392 . S
C960 C963 1.511 . S
C961 C957 1.376 . S
C961 C960 1.392 . S
C961 H973 0.929 . S
C962 C958 1.531 . S
C962 H974 0.960 . S
C962 H975 0.962 . S
C962 H976 0.960 . S
C963 C960 1.511 . S
C963 H977 0.961 . S
C963 H978 0.961 . S
C963 H979 0.961 . S
C964 C965 1.370 . S
C964 C966 1.363 . S
C964 H980 0.931 . S
C965 C964 1.370 . S
C965 C969 1.408 . S
C966 C964 1.363 . S
C966 C967 1.370 . S
C966 C970 1.524 . S
C967 C959 1.503 . S
C967 C966 1.370 . S
C967 C968 1.403 . S
C968 C967 1.403 . S
C968 C969 1.404 . S
C968 C971 1.539 . S
C969 C965 1.408 . S
C969 C968 1.404 . S
C969 H981 0.930 . S
C970 C966 1.524 . S
C970 H982 0.956 . S
C970 H983 0.961 . S
C970 H984 0.961 . S
C971 C968 1.539 . S
C971 H985 0.958 . S
C971 H986 0.961 . S
C971 H987 0.960 . S
H972 C956 0.931 . S
H973 C961 0.929 . S
H974 C962 0.960 . S
H975 C962 0.962 . S
H976 C962 0.960 . S
H977 C963 0.961 . S
H978 C963 0.961 . S
H979 C963 0.961 . S
H980 C964 0.931 . S
H981 C969 0.930 . S
H982 C970 0.956 . S
H983 C970 0.961 . S
H984 C970 0.961 . S
H985 C971 0.958 . S
H986 C971 0.961 . S
H987 C971 0.960 . S
C988 C989 1.391 . S
C988 C990 1.394 . S
C988 H1004 0.931 . S
C989 C988 1.391 . S
C989 C993 1.376 . S
C990 C988 1.394 . S
C990 C991 1.369 . S
C990 C994 1.531 . S
C991 C990 1.369 . S
C991 C992 1.410 . S
C991 C999 1.503 . S
C992 C991 1.410 . S
C992 C993 1.392 . S
C992 C995 1.511 . S
C993 C989 1.376 . S
C993 C992 1.392 . S
C993 H1005 0.929 . S
C994 C990 1.531 . S
C994 H1006 0.960 . S
C994 H1007 0.962 . S
C994 H1008 0.960 . S
C995 C992 1.511 . S
C995 H1009 0.961 . S
C995 H1010 0.961 . S
C995 H1011 0.961 . S
C996 C997 1.370 . S
C996 C998 1.363 . S
C996 H1012 0.931 . S
C997 C996 1.370 . S
C997 C1001 1.408 . S
C998 C996 1.363 . S
C998 C999 1.370 . S
C998 C1002 1.524 . S
C999 C991 1.503 . S
C999 C998 1.370 . S
C999 C1000 1.403 . S
C1000 C999 1.403 . S
C1000 C1001 1.404 . S
C1000 C1003 1.539 . S
C1001 C997 1.408 . S
C1001 C1000 1.404 . S
C1001 H1013 0.930 . S
C1002 C998 1.524 . S
C1002 H1014 0.956 . S
C1002 H1015 0.961 . S
C1002 H1016 0.961 . S
C1003 C1000 1.539 . S
C1003 H1017 0.958 . S
C1003 H1018 0.961 . S
C1003 H1019 0.960 . S
H1004 C988 0.931 . S
H1005 C993 0.929 . S
H1006 C994 0.960 . S
H1007 C994 0.962 . S
H1008 C994 0.960 . S
H1009 C995 0.961 . S
H1010 C995 0.961 . S
H1011 C995 0.961 . S
H1012 C996 0.931 . S
H1013 C1001 0.930 . S
H1014 C1002 0.956 . S
H1015 C1002 0.961 . S
H1016 C1002 0.961 . S
H1017 C1003 0.958 . S
H1018 C1003 0.961 . S
H1019 C1003 0.960 . S
C1020 C1021 1.391 . S
C1020 C1022 1.394 . S
C1020 H1036 0.931 . S
C1021 C1020 1.391 . S
C1021 C1025 1.376 . S
C1022 C1020 1.394 . S
C1022 C1023 1.369 . S
C1022 C1026 1.531 . S
C1023 C1022 1.369 . S
C1023 C1024 1.410 . S
C1023 C1031 1.503 . S
C1024 C1023 1.410 . S
C1024 C1025 1.392 . S
C1024 C1027 1.511 . S
C1025 C1021 1.376 . S
C1025 C1024 1.392 . S
C1025 H1037 0.929 . S
C1026 C1022 1.531 . S
C1026 H1038 0.960 . S
C1026 H1039 0.962 . S
C1026 H1040 0.960 . S
C1027 C1024 1.511 . S
C1027 H1041 0.961 . S
C1027 H1042 0.961 . S
C1027 H1043 0.961 . S
C1028 C1029 1.370 . S
C1028 C1030 1.363 . S
C1028 H1044 0.931 . S
C1029 C1028 1.370 . S
C1029 C1033 1.408 . S
C1030 C1028 1.363 . S
C1030 C1031 1.370 . S
C1030 C1034 1.524 . S
C1031 C1023 1.503 . S
C1031 C1030 1.370 . S
C1031 C1032 1.403 . S
C1032 C1031 1.403 . S
C1032 C1033 1.404 . S
C1032 C1035 1.539 . S
C1033 C1029 1.408 . S
C1033 C1032 1.404 . S
C1033 H1045 0.930 . S
C1034 C1030 1.524 . S
C1034 H1046 0.956 . S
C1034 H1047 0.961 . S
C1034 H1048 0.961 . S
C1035 C1032 1.539 . S
C1035 H1049 0.958 . S
C1035 H1050 0.961 . S
C1035 H1051 0.960 . S
H1036 C1020 0.931 . S
H1037 C1025 0.929 . S
H1038 C1026 0.960 . S
H1039 C1026 0.962 . S
H1040 C1026 0.960 . S
H1041 C1027 0.961 . S
H1042 C1027 0.961 . S
H1043 C1027 0.961 . S
H1044 C1028 0.931 . S
H1045 C1033 0.930 . S
H1046 C1034 0.956 . S
H1047 C1034 0.961 . S
H1048 C1034 0.961 . S
H1049 C1035 0.958 . S
H1050 C1035 0.961 . S
H1051 C1035 0.960 . S
C1052 C1053 1.391 . S
C1052 C1054 1.394 . S
C1052 H1068 0.931 . S
C1053 C1052 1.391 . S
C1053 C1057 1.376 . S
C1054 C1052 1.394 . S
C1054 C1055 1.369 . S
C1054 C1058 1.531 . S
C1055 C1054 1.369 . S
C1055 C1056 1.410 . S
C1055 C1063 1.503 . S
C1056 C1055 1.410 . S
C1056 C1057 1.392 . S
C1056 C1059 1.511 . S
C1057 C1053 1.376 . S
C1057 C1056 1.392 . S
C1057 H1069 0.929 . S
C1058 C1054 1.531 . S
C1058 H1070 0.960 . S
C1058 H1071 0.962 . S
C1058 H1072 0.960 . S
C1059 C1056 1.511 . S
C1059 H1073 0.961 . S
C1059 H1074 0.961 . S
C1059 H1075 0.961 . S
C1060 C1061 1.370 . S
C1060 C1062 1.363 . S
C1060 H1076 0.931 . S
C1061 C1060 1.370 . S
C1061 C1065 1.408 . S
C1062 C1060 1.363 . S
C1062 C1063 1.370 . S
C1062 C1066 1.524 . S
C1063 C1055 1.503 . S
C1063 C1062 1.370 . S
C1063 C1064 1.403 . S
C1064 C1063 1.403 . S
C1064 C1065 1.404 . S
C1064 C1067 1.539 . S
C1065 C1061 1.408 . S
C1065 C1064 1.404 . S
C1065 H1077 0.930 . S
C1066 C1062 1.524 . S
C1066 H1078 0.956 . S
C1066 H1079 0.961 . S
C1066 H1080 0.961 . S
C1067 C1064 1.539 . S
C1067 H1081 0.958 . S
C1067 H1082 0.961 . S
C1067 H1083 0.960 . S
H1068 C1052 0.931 . S
H1069 C1057 0.929 . S
H1070 C1058 0.960 . S
H1071 C1058 0.962 . S
H1072 C1058 0.960 . S
H1073 C1059 0.961 . S
H1074 C1059 0.961 . S
H1075 C1059 0.961 . S
H1076 C1060 0.931 . S
H1077 C1065 0.930 . S
H1078 C1066 0.956 . S
H1079 C1066 0.961 . S
H1080 C1066 0.961 . S
H1081 C1067 0.958 . S
H1082 C1067 0.961 . S
H1083 C1067 0.960 . S
C1084 C1085 1.391 . S
C1084 C1086 1.394 . S
C1084 H1100 0.931 . S
C1085 C1084 1.391 . S
C1085 C1089 1.376 . S
C1086 C1084 1.394 . S
C1086 C1087 1.369 . S
C1086 C1090 1.531 . S
C1087 C1086 1.369 . S
C1087 C1088 1.410 . S
C1087 C1095 1.503 . S
C1088 C1087 1.410 . S
C1088 C1089 1.392 . S
C1088 C1091 1.511 . S
C1089 C1085 1.376 . S
C1089 C1088 1.392 . S
C1089 H1101 0.929 . S
C1090 C1086 1.531 . S
C1090 H1102 0.960 . S
C1090 H1103 0.962 . S
C1090 H1104 0.960 . S
C1091 C1088 1.511 . S
C1091 H1105 0.961 . S
C1091 H1106 0.961 . S
C1091 H1107 0.961 . S
C1092 C1093 1.370 . S
C1092 C1094 1.363 . S
C1092 H1108 0.931 . S
C1093 C1092 1.370 . S
C1093 C1097 1.408 . S
C1094 C1092 1.363 . S
C1094 C1095 1.370 . S
C1094 C1098 1.524 . S
C1095 C1087 1.503 . S
C1095 C1094 1.370 . S
C1095 C1096 1.403 . S
C1096 C1095 1.403 . S
C1096 C1097 1.404 . S
C1096 C1099 1.539 . S
C1097 C1093 1.408 . S
C1097 C1096 1.404 . S
C1097 H1109 0.930 1_556 S
C1098 C1094 1.524 . S
C1098 H1110 0.956 . S
C1098 H1111 0.961 . S
C1098 H1112 0.961 . S
C1099 C1096 1.539 . S
C1099 H1113 0.958 . S
C1099 H1114 0.961 1_556 S
C1099 H1115 0.960 . S
H1100 C1084 0.931 . S
H1101 C1089 0.929 . S
H1102 C1090 0.960 . S
H1103 C1090 0.962 . S
H1104 C1090 0.960 . S
H1105 C1091 0.961 . S
H1106 C1091 0.961 . S
H1107 C1091 0.961 . S
H1108 C1092 0.931 . S
H1109 C1097 0.930 1_554 S
H1110 C1098 0.956 . S
H1111 C1098 0.961 . S
H1112 C1098 0.961 . S
H1113 C1099 0.958 . S
H1114 C1099 0.961 1_554 S
H1115 C1099 0.960 . S
C1116 C1117 1.391 . S
C1116 C1118 1.394 . S
C1116 H1132 0.931 . S
C1117 C1116 1.391 . S
C1117 C1121 1.376 . S
C1118 C1116 1.394 . S
C1118 C1119 1.369 . S
C1118 C1122 1.531 . S
C1119 C1118 1.369 . S
C1119 C1120 1.410 . S
C1119 C1127 1.503 . S
C1120 C1119 1.410 . S
C1120 C1121 1.392 . S
C1120 C1123 1.511 . S
C1121 C1117 1.376 . S
C1121 C1120 1.392 . S
C1121 H1133 0.929 . S
C1122 C1118 1.531 . S
C1122 H1134 0.960 . S
C1122 H1135 0.962 . S
C1122 H1136 0.960 . S
C1123 C1120 1.511 . S
C1123 H1137 0.961 . S
C1123 H1138 0.961 . S
C1123 H1139 0.961 . S
C1124 C1125 1.370 . S
C1124 C1126 1.363 . S
C1124 H1140 0.931 . S
C1125 C1124 1.370 . S
C1125 C1129 1.408 . S
C1126 C1124 1.363 . S
C1126 C1127 1.370 . S
C1126 C1130 1.524 . S
C1127 C1119 1.503 . S
C1127 C1126 1.370 . S
C1127 C1128 1.403 . S
C1128 C1127 1.403 . S
C1128 C1129 1.404 . S
C1128 C1131 1.539 . S
C1129 C1125 1.408 . S
C1129 C1128 1.404 . S
C1129 H1141 0.930 . S
C1130 C1126 1.524 . S
C1130 H1142 0.956 . S
C1130 H1143 0.961 . S
C1130 H1144 0.961 . S
C1131 C1128 1.539 . S
C1131 H1145 0.958 . S
C1131 H1146 0.961 . S
C1131 H1147 0.960 . S
H1132 C1116 0.931 . S
H1133 C1121 0.929 . S
H1134 C1122 0.960 . S
H1135 C1122 0.962 . S
H1136 C1122 0.960 . S
H1137 C1123 0.961 . S
H1138 C1123 0.961 . S
H1139 C1123 0.961 . S
H1140 C1124 0.931 . S
H1141 C1129 0.930 . S
H1142 C1130 0.956 . S
H1143 C1130 0.961 . S
H1144 C1130 0.961 . S
H1145 C1131 0.958 . S
H1146 C1131 0.961 . S
H1147 C1131 0.960 . S
C1148 C1149 1.391 . S
C1148 C1150 1.394 . S
C1148 H1164 0.931 . S
C1149 C1148 1.391 . S
C1149 C1153 1.376 . S
C1150 C1148 1.394 . S
C1150 C1151 1.369 . S
C1150 C1154 1.531 . S
C1151 C1150 1.369 . S
C1151 C1152 1.410 . S
C1151 C1159 1.503 . S
C1152 C1151 1.410 . S
C1152 C1153 1.392 . S
C1152 C1155 1.511 . S
C1153 C1149 1.376 . S
C1153 C1152 1.392 . S
C1153 H1165 0.929 . S
C1154 C1150 1.531 . S
C1154 H1166 0.960 . S
C1154 H1167 0.962 . S
C1154 H1168 0.960 . S
C1155 C1152 1.511 . S
C1155 H1169 0.961 . S
C1155 H1170 0.961 . S
C1155 H1171 0.961 . S
C1156 C1157 1.370 . S
C1156 C1158 1.363 . S
C1156 H1172 0.931 . S
C1157 C1156 1.370 . S
C1157 C1161 1.408 . S
C1158 C1156 1.363 . S
C1158 C1159 1.370 . S
C1158 C1162 1.524 . S
C1159 C1151 1.503 . S
C1159 C1158 1.370 . S
C1159 C1160 1.403 . S
C1160 C1159 1.403 . S
C1160 C1161 1.404 . S
C1160 C1163 1.539 . S
C1161 C1157 1.408 . S
C1161 C1160 1.404 . S
C1161 H1173 0.930 . S
C1162 C1158 1.524 . S
C1162 H1174 0.956 . S
C1162 H1175 0.961 . S
C1162 H1176 0.961 . S
C1163 C1160 1.539 . S
C1163 H1177 0.958 . S
C1163 H1178 0.961 . S
C1163 H1179 0.960 . S
H1164 C1148 0.931 . S
H1165 C1153 0.929 . S
H1166 C1154 0.960 . S
H1167 C1154 0.962 . S
H1168 C1154 0.960 . S
H1169 C1155 0.961 . S
H1170 C1155 0.961 . S
H1171 C1155 0.961 . S
H1172 C1156 0.931 . S
H1173 C1161 0.930 . S
H1174 C1162 0.956 . S
H1175 C1162 0.961 . S
H1176 C1162 0.961 . S
H1177 C1163 0.958 . S
H1178 C1163 0.961 . S
H1179 C1163 0.960 . S
C1180 C1181 1.391 . S
C1180 C1182 1.394 . S
C1180 H1196 0.931 . S
C1181 C1180 1.391 . S
C1181 C1185 1.376 . S
C1182 C1180 1.394 . S
C1182 C1183 1.369 . S
C1182 C1186 1.531 . S
C1183 C1182 1.369 . S
C1183 C1184 1.410 . S
C1183 C1191 1.503 . S
C1184 C1183 1.410 . S
C1184 C1185 1.392 . S
C1184 C1187 1.511 . S
C1185 C1181 1.376 . S
C1185 C1184 1.392 . S
C1185 H1197 0.929 . S
C1186 C1182 1.531 . S
C1186 H1198 0.960 . S
C1186 H1199 0.962 . S
C1186 H1200 0.960 . S
C1187 C1184 1.511 . S
C1187 H1201 0.961 . S
C1187 H1202 0.961 . S
C1187 H1203 0.961 . S
C1188 C1189 1.370 . S
C1188 C1190 1.363 . S
C1188 H1204 0.931 . S
C1189 C1188 1.370 . S
C1189 C1193 1.408 . S
C1190 C1188 1.363 . S
C1190 C1191 1.370 . S
C1190 C1194 1.524 . S
C1191 C1183 1.503 . S
C1191 C1190 1.370 . S
C1191 C1192 1.403 . S
C1192 C1191 1.403 . S
C1192 C1193 1.404 . S
C1192 C1195 1.539 . S
C1193 C1189 1.408 . S
C1193 C1192 1.404 . S
C1193 H1205 0.930 . S
C1194 C1190 1.524 . S
C1194 H1206 0.956 . S
C1194 H1207 0.961 . S
C1194 H1208 0.961 . S
C1195 C1192 1.539 . S
C1195 H1209 0.958 . S
C1195 H1210 0.961 . S
C1195 H1211 0.960 . S
H1196 C1180 0.931 . S
H1197 C1185 0.929 . S
H1198 C1186 0.960 . S
H1199 C1186 0.962 . S
H1200 C1186 0.960 . S
H1201 C1187 0.961 . S
H1202 C1187 0.961 . S
H1203 C1187 0.961 . S
H1204 C1188 0.931 . S
H1205 C1193 0.930 . S
H1206 C1194 0.956 . S
H1207 C1194 0.961 . S
H1208 C1194 0.961 . S
H1209 C1195 0.958 . S
H1210 C1195 0.961 . S
H1211 C1195 0.960 . S
C1212 C1213 1.391 . S
C1212 C1214 1.394 . S
C1212 H1228 0.931 . S
C1213 C1212 1.391 . S
C1213 C1217 1.376 . S
C1214 C1212 1.394 . S
C1214 C1215 1.369 . S
C1214 C1218 1.531 . S
C1215 C1214 1.369 . S
C1215 C1216 1.410 . S
C1215 C1223 1.503 . S
C1216 C1215 1.410 . S
C1216 C1217 1.392 . S
C1216 C1219 1.511 . S
C1217 C1213 1.376 . S
C1217 C1216 1.392 . S
C1217 H1229 0.929 . S
C1218 C1214 1.531 . S
C1218 H1230 0.960 . S
C1218 H1231 0.962 . S
C1218 H1232 0.960 . S
C1219 C1216 1.511 . S
C1219 H1233 0.961 . S
C1219 H1234 0.961 . S
C1219 H1235 0.961 . S
C1220 C1221 1.370 . S
C1220 C1222 1.363 . S
C1220 H1236 0.931 . S
C1221 C1220 1.370 . S
C1221 C1225 1.408 . S
C1222 C1220 1.363 . S
C1222 C1223 1.370 . S
C1222 C1226 1.524 . S
C1223 C1215 1.503 . S
C1223 C1222 1.370 . S
C1223 C1224 1.403 . S
C1224 C1223 1.403 . S
C1224 C1225 1.404 . S
C1224 C1227 1.539 . S
C1225 C1221 1.408 . S
C1225 C1224 1.404 . S
C1225 H1237 0.930 . S
C1226 C1222 1.524 . S
C1226 H1238 0.956 . S
C1226 H1239 0.961 . S
C1226 H1240 0.961 . S
C1227 C1224 1.539 . S
C1227 H1241 0.958 . S
C1227 H1242 0.961 . S
C1227 H1243 0.960 . S
H1228 C1212 0.931 . S
H1229 C1217 0.929 . S
H1230 C1218 0.960 . S
H1231 C1218 0.962 . S
H1232 C1218 0.960 . S
H1233 C1219 0.961 . S
H1234 C1219 0.961 . S
H1235 C1219 0.961 . S
H1236 C1220 0.931 . S
H1237 C1225 0.930 . S
H1238 C1226 0.956 . S
H1239 C1226 0.961 . S
H1240 C1226 0.961 . S
H1241 C1227 0.958 . S
H1242 C1227 0.961 . S
H1243 C1227 0.960 . S
C1244 C1245 1.391 . S
C1244 C1246 1.394 . S
C1244 H1260 0.931 . S
C1245 C1244 1.391 . S
C1245 C1249 1.376 . S
C1246 C1244 1.394 . S
C1246 C1247 1.369 . S
C1246 C1250 1.531 . S
C1247 C1246 1.369 . S
C1247 C1248 1.410 . S
C1247 C1255 1.503 . S
C1248 C1247 1.410 . S
C1248 C1249 1.392 . S
C1248 C1251 1.511 . S
C1249 C1245 1.376 . S
C1249 C1248 1.392 . S
C1249 H1261 0.929 . S
C1250 C1246 1.531 . S
C1250 H1262 0.960 . S
C1250 H1263 0.962 . S
C1250 H1264 0.960 . S
C1251 C1248 1.511 . S
C1251 H1265 0.961 . S
C1251 H1266 0.961 . S
C1251 H1267 0.961 . S
C1252 C1253 1.370 . S
C1252 C1254 1.363 . S
C1252 H1268 0.931 . S
C1253 C1252 1.370 . S
C1253 C1257 1.408 . S
C1254 C1252 1.363 . S
C1254 C1255 1.370 . S
C1254 C1258 1.524 . S
C1255 C1247 1.503 . S
C1255 C1254 1.370 . S
C1255 C1256 1.403 . S
C1256 C1255 1.403 . S
C1256 C1257 1.404 . S
C1256 C1259 1.539 . S
C1257 C1253 1.408 . S
C1257 C1256 1.404 . S
C1257 H1269 0.930 . S
C1258 C1254 1.524 . S
C1258 H1270 0.956 . S
C1258 H1271 0.961 . S
C1258 H1272 0.961 . S
C1259 C1256 1.539 . S
C1259 H1273 0.958 . S
C1259 H1274 0.961 . S
C1259 H1275 0.960 . S
H1260 C1244 0.931 . S
H1261 C1249 0.929 . S
H1262 C1250 0.960 . S
H1263 C1250 0.962 . S
H1264 C1250 0.960 . S
H1265 C1251 0.961 . S
H1266 C1251 0.961 . S
H1267 C1251 0.961 . S
H1268 C1252 0.931 . S
H1269 C1257 0.930 . S
H1270 C1258 0.956 . S
H1271 C1258 0.961 . S
H1272 C1258 0.961 . S
H1273 C1259 0.958 . S
H1274 C1259 0.961 . S
H1275 C1259 0.960 . S
C1276 C1277 1.391 . S
C1276 C1278 1.394 . S
C1276 H1292 0.931 . S
C1277 C1276 1.391 . S
C1277 C1281 1.376 . S
C1278 C1276 1.394 . S
C1278 C1279 1.369 . S
C1278 C1282 1.531 . S
C1279 C1278 1.369 . S
C1279 C1280 1.410 . S
C1279 C1287 1.503 . S
C1280 C1279 1.410 . S
C1280 C1281 1.392 . S
C1280 C1283 1.511 . S
C1281 C1277 1.376 . S
C1281 C1280 1.392 . S
C1281 H1293 0.929 . S
C1282 C1278 1.531 . S
C1282 H1294 0.960 . S
C1282 H1295 0.962 . S
C1282 H1296 0.960 . S
C1283 C1280 1.511 . S
C1283 H1297 0.961 . S
C1283 H1298 0.961 . S
C1283 H1299 0.961 . S
C1284 C1285 1.370 . S
C1284 C1286 1.363 . S
C1284 H1300 0.931 . S
C1285 C1284 1.370 . S
C1285 C1289 1.408 . S
C1286 C1284 1.363 . S
C1286 C1287 1.370 . S
C1286 C1290 1.524 . S
C1287 C1279 1.503 . S
C1287 C1286 1.370 . S
C1287 C1288 1.403 . S
C1288 C1287 1.403 . S
C1288 C1289 1.404 . S
C1288 C1291 1.539 . S
C1289 C1285 1.408 . S
C1289 C1288 1.404 . S
C1289 H1301 0.930 . S
C1290 C1286 1.524 . S
C1290 H1302 0.956 . S
C1290 H1303 0.961 . S
C1290 H1304 0.961 . S
C1291 C1288 1.539 . S
C1291 H1305 0.958 . S
C1291 H1306 0.961 . S
C1291 H1307 0.960 . S
H1292 C1276 0.931 . S
H1293 C1281 0.929 . S
H1294 C1282 0.960 . S
H1295 C1282 0.962 . S
H1296 C1282 0.960 . S
H1297 C1283 0.961 . S
H1298 C1283 0.961 . S
H1299 C1283 0.961 . S
H1300 C1284 0.931 . S
H1301 C1289 0.930 . S
H1302 C1290 0.956 . S
H1303 C1290 0.961 . S
H1304 C1290 0.961 . S
H1305 C1291 0.958 . S
H1306 C1291 0.961 . S
H1307 C1291 0.960 . S
C1308 C1309 1.391 . S
C1308 C1310 1.394 . S
C1308 H1324 0.931 . S
C1309 C1308 1.391 . S
C1309 C1313 1.376 . S
C1310 C1308 1.394 . S
C1310 C1311 1.369 . S
C1310 C1314 1.531 . S
C1311 C1310 1.369 . S
C1311 C1312 1.410 . S
C1311 C1319 1.503 . S
C1312 C1311 1.410 . S
C1312 C1313 1.392 . S
C1312 C1315 1.511 . S
C1313 C1309 1.376 . S
C1313 C1312 1.392 . S
C1313 H1325 0.929 . S
C1314 C1310 1.531 . S
C1314 H1326 0.960 . S
C1314 H1327 0.962 . S
C1314 H1328 0.960 . S
C1315 C1312 1.511 . S
C1315 H1329 0.961 . S
C1315 H1330 0.961 . S
C1315 H1331 0.961 . S
C1316 C1317 1.370 . S
C1316 C1318 1.363 . S
C1316 H1332 0.931 . S
C1317 C1316 1.370 . S
C1317 C1321 1.408 . S
C1318 C1316 1.363 . S
C1318 C1319 1.370 . S
C1318 C1322 1.524 . S
C1319 C1311 1.503 . S
C1319 C1318 1.370 . S
C1319 C1320 1.403 . S
C1320 C1319 1.403 . S
C1320 C1321 1.404 . S
C1320 C1323 1.539 . S
C1321 C1317 1.408 . S
C1321 C1320 1.404 . S
C1321 H1333 0.930 . S
C1322 C1318 1.524 . S
C1322 H1334 0.956 . S
C1322 H1335 0.961 . S
C1322 H1336 0.961 . S
C1323 C1320 1.539 . S
C1323 H1337 0.958 . S
C1323 H1338 0.961 . S
C1323 H1339 0.960 . S
H1324 C1308 0.931 . S
H1325 C1313 0.929 . S
H1326 C1314 0.960 . S
H1327 C1314 0.962 . S
H1328 C1314 0.960 . S
H1329 C1315 0.961 . S
H1330 C1315 0.961 . S
H1331 C1315 0.961 . S
H1332 C1316 0.931 . S
H1333 C1321 0.930 . S
H1334 C1322 0.956 . S
H1335 C1322 0.961 . S
H1336 C1322 0.961 . S
H1337 C1323 0.958 . S
H1338 C1323 0.961 . S
H1339 C1323 0.960 . S
C1340 C1341 1.391 . S
C1340 C1342 1.394 . S
C1340 H1356 0.931 . S
C1341 C1340 1.391 . S
C1341 C1345 1.376 . S
C1342 C1340 1.394 . S
C1342 C1343 1.369 . S
C1342 C1346 1.531 . S
C1343 C1342 1.369 . S
C1343 C1344 1.410 . S
C1343 C1351 1.503 . S
C1344 C1343 1.410 . S
C1344 C1345 1.392 . S
C1344 C1347 1.511 . S
C1345 C1341 1.376 . S
C1345 C1344 1.392 . S
C1345 H1357 0.929 . S
C1346 C1342 1.531 . S
C1346 H1358 0.960 . S
C1346 H1359 0.962 . S
C1346 H1360 0.960 . S
C1347 C1344 1.511 . S
C1347 H1361 0.961 . S
C1347 H1362 0.961 . S
C1347 H1363 0.961 . S
C1348 C1349 1.370 . S
C1348 C1350 1.363 . S
C1348 H1364 0.931 . S
C1349 C1348 1.370 . S
C1349 C1353 1.408 . S
C1350 C1348 1.363 . S
C1350 C1351 1.370 . S
C1350 C1354 1.524 . S
C1351 C1343 1.503 . S
C1351 C1350 1.370 . S
C1351 C1352 1.403 . S
C1352 C1351 1.403 . S
C1352 C1353 1.404 . S
C1352 C1355 1.539 . S
C1353 C1349 1.408 . S
C1353 C1352 1.404 . S
C1353 H1365 0.930 . S
C1354 C1350 1.524 . S
C1354 H1366 0.956 . S
C1354 H1367 0.961 . S
C1354 H1368 0.961 . S
C1355 C1352 1.539 . S
C1355 H1369 0.958 . S
C1355 H1370 0.961 . S
C1355 H1371 0.960 . S
H1356 C1340 0.931 . S
H1357 C1345 0.929 . S
H1358 C1346 0.960 . S
H1359 C1346 0.962 . S
H1360 C1346 0.960 . S
H1361 C1347 0.961 . S
H1362 C1347 0.961 . S
H1363 C1347 0.961 . S
H1364 C1348 0.931 . S
H1365 C1353 0.930 . S
H1366 C1354 0.956 . S
H1367 C1354 0.961 . S
H1368 C1354 0.961 . S
H1369 C1355 0.958 . S
H1370 C1355 0.961 . S
H1371 C1355 0.960 . S
C1372 C1373 1.391 . S
C1372 C1374 1.394 . S
C1372 H1388 0.931 . S
C1373 C1372 1.391 . S
C1373 C1377 1.376 . S
C1374 C1372 1.394 . S
C1374 C1375 1.369 . S
C1374 C1378 1.531 . S
C1375 C1374 1.369 . S
C1375 C1376 1.410 . S
C1375 C1383 1.503 . S
C1376 C1375 1.410 . S
C1376 C1377 1.392 . S
C1376 C1379 1.511 . S
C1377 C1373 1.376 . S
C1377 C1376 1.392 . S
C1377 H1389 0.929 . S
C1378 C1374 1.531 . S
C1378 H1390 0.960 . S
C1378 H1391 0.962 . S
C1378 H1392 0.960 . S
C1379 C1376 1.511 . S
C1379 H1393 0.961 . S
C1379 H1394 0.961 . S
C1379 H1395 0.961 . S
C1380 C1381 1.370 . S
C1380 C1382 1.363 . S
C1380 H1396 0.931 . S
C1381 C1380 1.370 . S
C1381 C1385 1.408 . S
C1382 C1380 1.363 . S
C1382 C1383 1.370 . S
C1382 C1386 1.524 . S
C1383 C1375 1.503 . S
C1383 C1382 1.370 . S
C1383 C1384 1.403 . S
C1384 C1383 1.403 . S
C1384 C1385 1.404 . S
C1384 C1387 1.539 . S
C1385 C1381 1.408 . S
C1385 C1384 1.404 . S
C1385 H1397 0.930 . S
C1386 C1382 1.524 . S
C1386 H1398 0.956 . S
C1386 H1399 0.961 . S
C1386 H1400 0.961 . S
C1387 C1384 1.539 . S
C1387 H1401 0.958 . S
C1387 H1402 0.961 . S
C1387 H1403 0.960 . S
H1388 C1372 0.931 . S
H1389 C1377 0.929 . S
H1390 C1378 0.960 . S
H1391 C1378 0.962 . S
H1392 C1378 0.960 . S
H1393 C1379 0.961 . S
H1394 C1379 0.961 . S
H1395 C1379 0.961 . S
H1396 C1380 0.931 . S
H1397 C1385 0.930 . S
H1398 C1386 0.956 . S
H1399 C1386 0.961 . S
H1400 C1386 0.961 . S
H1401 C1387 0.958 . S
H1402 C1387 0.961 . S
H1403 C1387 0.960 . S
C1404 C1405 1.391 . S
C1404 C1406 1.394 . S
C1404 H1420 0.931 . S
C1405 C1404 1.391 . S
C1405 C1409 1.376 . S
C1406 C1404 1.394 . S
C1406 C1407 1.369 . S
C1406 C1410 1.531 . S
C1407 C1406 1.369 . S
C1407 C1408 1.410 . S
C1407 C1415 1.503 . S
C1408 C1407 1.410 . S
C1408 C1409 1.392 . S
C1408 C1411 1.511 . S
C1409 C1405 1.376 . S
C1409 C1408 1.392 . S
C1409 H1421 0.929 . S
C1410 C1406 1.531 . S
C1410 H1422 0.960 . S
C1410 H1423 0.962 . S
C1410 H1424 0.960 . S
C1411 C1408 1.511 . S
C1411 H1425 0.961 . S
C1411 H1426 0.961 . S
C1411 H1427 0.961 . S
C1412 C1413 1.370 . S
C1412 C1414 1.363 . S
C1412 H1428 0.931 . S
C1413 C1412 1.370 . S
C1413 C1417 1.408 . S
C1414 C1412 1.363 . S
C1414 C1415 1.370 . S
C1414 C1418 1.524 . S
C1415 C1407 1.503 . S
C1415 C1414 1.370 . S
C1415 C1416 1.403 . S
C1416 C1415 1.403 . S
C1416 C1417 1.404 . S
C1416 C1419 1.539 . S
C1417 C1413 1.408 . S
C1417 C1416 1.404 . S
C1417 H1429 0.930 . S
C1418 C1414 1.524 . S
C1418 H1430 0.956 . S
C1418 H1431 0.961 . S
C1418 H1432 0.961 . S
C1419 C1416 1.539 . S
C1419 H1433 0.958 . S
C1419 H1434 0.961 . S
C1419 H1435 0.960 . S
H1420 C1404 0.931 . S
H1421 C1409 0.929 . S
H1422 C1410 0.960 . S
H1423 C1410 0.962 . S
H1424 C1410 0.960 . S
H1425 C1411 0.961 . S
H1426 C1411 0.961 . S
H1427 C1411 0.961 . S
H1428 C1412 0.931 . S
H1429 C1417 0.930 . S
H1430 C1418 0.956 . S
H1431 C1418 0.961 . S
H1432 C1418 0.961 . S
H1433 C1419 0.958 . S
H1434 C1419 0.961 . S
H1435 C1419 0.960 . S
C1436 C1437 1.391 . S
C1436 C1438 1.394 . S
C1436 H1452 0.931 . S
C1437 C1436 1.391 . S
C1437 C1441 1.376 . S
C1438 C1436 1.394 . S
C1438 C1439 1.369 . S
C1438 C1442 1.531 . S
C1439 C1438 1.369 . S
C1439 C1440 1.410 . S
C1439 C1447 1.503 . S
C1440 C1439 1.410 . S
C1440 C1441 1.392 . S
C1440 C1443 1.511 . S
C1441 C1437 1.376 . S
C1441 C1440 1.392 . S
C1441 H1453 0.929 . S
C1442 C1438 1.531 . S
C1442 H1454 0.960 . S
C1442 H1455 0.962 . S
C1442 H1456 0.960 . S
C1443 C1440 1.511 . S
C1443 H1457 0.961 . S
C1443 H1458 0.961 . S
C1443 H1459 0.961 . S
C1444 C1445 1.370 . S
C1444 C1446 1.363 . S
C1444 H1460 0.931 . S
C1445 C1444 1.370 . S
C1445 C1449 1.408 . S
C1446 C1444 1.363 . S
C1446 C1447 1.370 . S
C1446 C1450 1.524 . S
C1447 C1439 1.503 . S
C1447 C1446 1.370 . S
C1447 C1448 1.403 . S
C1448 C1447 1.403 . S
C1448 C1449 1.404 . S
C1448 C1451 1.539 . S
C1449 C1445 1.408 . S
C1449 C1448 1.404 . S
C1449 H1461 0.930 . S
C1450 C1446 1.524 . S
C1450 H1462 0.956 . S
C1450 H1463 0.961 . S
C1450 H1464 0.961 . S
C1451 C1448 1.539 . S
C1451 H1465 0.958 . S
C1451 H1466 0.961 . S
C1451 H1467 0.960 . S
H1452 C1436 0.931 . S
H1453 C1441 0.929 . S
H1454 C1442 0.960 . S
H1455 C1442 0.962 . S
H1456 C1442 0.960 . S
H1457 C1443 0.961 . S
H1458 C1443 0.961 . S
H1459 C1443 0.961 . S
H1460 C1444 0.931 . S
H1461 C1449 0.930 . S
H1462 C1450 0.956 . S
H1463 C1450 0.961 . S
H1464 C1450 0.961 . S
H1465 C1451 0.958 . S
H1466 C1451 0.961 . S
H1467 C1451 0.960 . S
C1468 C1469 1.391 . S
C1468 C1470 1.394 . S
C1468 H1484 0.931 . S
C1469 C1468 1.391 . S
C1469 C1473 1.376 . S
C1470 C1468 1.394 . S
C1470 C1471 1.369 . S
C1470 C1474 1.531 . S
C1471 C1470 1.369 . S
C1471 C1472 1.410 . S
C1471 C1479 1.503 . S
C1472 C1471 1.410 . S
C1472 C1473 1.392 . S
C1472 C1475 1.511 . S
C1473 C1469 1.376 . S
C1473 C1472 1.392 . S
C1473 H1485 0.929 . S
C1474 C1470 1.531 . S
C1474 H1486 0.960 . S
C1474 H1487 0.962 . S
C1474 H1488 0.960 . S
C1475 C1472 1.511 . S
C1475 H1489 0.961 . S
C1475 H1490 0.961 . S
C1475 H1491 0.961 . S
C1476 C1477 1.370 . S
C1476 C1478 1.363 . S
C1476 H1492 0.931 . S
C1477 C1476 1.370 . S
C1477 C1481 1.408 . S
C1478 C1476 1.363 . S
C1478 C1479 1.370 . S
C1478 C1482 1.524 . S
C1479 C1471 1.503 . S
C1479 C1478 1.370 . S
C1479 C1480 1.403 . S
C1480 C1479 1.403 . S
C1480 C1481 1.404 . S
C1480 C1483 1.539 . S
C1481 C1477 1.408 . S
C1481 C1480 1.404 . S
C1481 H1493 0.930 . S
C1482 C1478 1.524 . S
C1482 H1494 0.956 . S
C1482 H1495 0.961 . S
C1482 H1496 0.961 . S
C1483 C1480 1.539 . S
C1483 H1497 0.958 . S
C1483 H1498 0.961 . S
C1483 H1499 0.960 . S
H1484 C1468 0.931 . S
H1485 C1473 0.929 . S
H1486 C1474 0.960 . S
H1487 C1474 0.962 . S
H1488 C1474 0.960 . S
H1489 C1475 0.961 . S
H1490 C1475 0.961 . S
H1491 C1475 0.961 . S
H1492 C1476 0.931 . S
H1493 C1481 0.930 . S
H1494 C1482 0.956 . S
H1495 C1482 0.961 . S
H1496 C1482 0.961 . S
H1497 C1483 0.958 . S
H1498 C1483 0.961 . S
H1499 C1483 0.960 . S
C1500 C1501 1.391 . S
C1500 C1502 1.394 . S
C1500 H1516 0.931 . S
C1501 C1500 1.391 . S
C1501 C1505 1.376 . S
C1502 C1500 1.394 . S
C1502 C1503 1.369 . S
C1502 C1506 1.531 . S
C1503 C1502 1.369 . S
C1503 C1504 1.410 . S
C1503 C1511 1.503 . S
C1504 C1503 1.410 . S
C1504 C1505 1.392 . S
C1504 C1507 1.511 . S
C1505 C1501 1.376 . S
C1505 C1504 1.392 . S
C1505 H1517 0.929 . S
C1506 C1502 1.531 . S
C1506 H1518 0.960 . S
C1506 H1519 0.962 . S
C1506 H1520 0.960 . S
C1507 C1504 1.511 . S
C1507 H1521 0.961 . S
C1507 H1522 0.961 . S
C1507 H1523 0.961 . S
C1508 C1509 1.370 . S
C1508 C1510 1.363 . S
C1508 H1524 0.931 . S
C1509 C1508 1.370 . S
C1509 C1513 1.408 . S
C1510 C1508 1.363 . S
C1510 C1511 1.370 . S
C1510 C1514 1.524 . S
C1511 C1503 1.503 . S
C1511 C1510 1.370 . S
C1511 C1512 1.403 . S
C1512 C1511 1.403 . S
C1512 C1513 1.404 . S
C1512 C1515 1.539 . S
C1513 C1509 1.408 . S
C1513 C1512 1.404 . S
C1513 H1525 0.930 . S
C1514 C1510 1.524 . S
C1514 H1526 0.956 . S
C1514 H1527 0.961 . S
C1514 H1528 0.961 . S
C1515 C1512 1.539 . S
C1515 H1529 0.958 . S
C1515 H1530 0.961 . S
C1515 H1531 0.960 . S
H1516 C1500 0.931 . S
H1517 C1505 0.929 . S
H1518 C1506 0.960 . S
H1519 C1506 0.962 . S
H1520 C1506 0.960 . S
H1521 C1507 0.961 . S
H1522 C1507 0.961 . S
H1523 C1507 0.961 . S
H1524 C1508 0.931 . S
H1525 C1513 0.930 . S
H1526 C1514 0.956 . S
H1527 C1514 0.961 . S
H1528 C1514 0.961 . S
H1529 C1515 0.958 . S
H1530 C1515 0.961 . S
H1531 C1515 0.960 . S
C1532 C1533 1.391 . S
C1532 C1534 1.394 . S
C1532 H1548 0.931 . S
C1533 C1532 1.391 . S
C1533 C1537 1.376 . S
C1534 C1532 1.394 . S
C1534 C1535 1.369 . S
C1534 C1538 1.531 . S
C1535 C1534 1.369 . S
C1535 C1536 1.410 . S
C1535 C1543 1.503 . S
C1536 C1535 1.410 . S
C1536 C1537 1.392 . S
C1536 C1539 1.511 . S
C1537 C1533 1.376 . S
C1537 C1536 1.392 . S
C1537 H1549 0.929 . S
C1538 C1534 1.531 . S
C1538 H1550 0.960 . S
C1538 H1551 0.962 . S
C1538 H1552 0.960 . S
C1539 C1536 1.511 . S
C1539 H1553 0.961 . S
C1539 H1554 0.961 . S
C1539 H1555 0.961 . S
C1540 C1541 1.370 . S
C1540 C1542 1.363 . S
C1540 H1556 0.931 . S
C1541 C1540 1.370 . S
C1541 C1545 1.408 . S
C1542 C1540 1.363 . S
C1542 C1543 1.370 . S
C1542 C1546 1.524 . S
C1543 C1535 1.503 . S
C1543 C1542 1.370 . S
C1543 C1544 1.403 . S
C1544 C1543 1.403 . S
C1544 C1545 1.404 . S
C1544 C1547 1.539 . S
C1545 C1541 1.408 . S
C1545 C1544 1.404 . S
C1545 H1557 0.930 . S
C1546 C1542 1.524 . S
C1546 H1558 0.956 . S
C1546 H1559 0.961 . S
C1546 H1560 0.961 . S
C1547 C1544 1.539 . S
C1547 H1561 0.958 . S
C1547 H1562 0.961 . S
C1547 H1563 0.960 . S
H1548 C1532 0.931 . S
H1549 C1537 0.929 . S
H1550 C1538 0.960 . S
H1551 C1538 0.962 . S
H1552 C1538 0.960 . S
H1553 C1539 0.961 . S
H1554 C1539 0.961 . S
H1555 C1539 0.961 . S
H1556 C1540 0.931 . S
H1557 C1545 0.930 . S
H1558 C1546 0.956 . S
H1559 C1546 0.961 . S
H1560 C1546 0.961 . S
H1561 C1547 0.958 . S
H1562 C1547 0.961 . S
H1563 C1547 0.960 . S
C1564 C1565 1.391 . S
C1564 C1566 1.394 . S
C1564 H1580 0.931 . S
C1565 C1564 1.391 . S
C1565 C1569 1.376 . S
C1566 C1564 1.394 . S
C1566 C1567 1.369 . S
C1566 C1570 1.531 . S
C1567 C1566 1.369 . S
C1567 C1568 1.410 . S
C1567 C1575 1.503 . S
C1568 C1567 1.410 . S
C1568 C1569 1.392 . S
C1568 C1571 1.511 . S
C1569 C1565 1.376 . S
C1569 C1568 1.392 . S
C1569 H1581 0.929 . S
C1570 C1566 1.531 . S
C1570 H1582 0.960 . S
C1570 H1583 0.962 . S
C1570 H1584 0.960 . S
C1571 C1568 1.511 . S
C1571 H1585 0.961 . S
C1571 H1586 0.961 . S
C1571 H1587 0.961 . S
C1572 C1573 1.370 . S
C1572 C1574 1.363 . S
C1572 H1588 0.931 . S
C1573 C1572 1.370 . S
C1573 C1577 1.408 . S
C1574 C1572 1.363 . S
C1574 C1575 1.370 . S
C1574 C1578 1.524 . S
C1575 C1567 1.503 . S
C1575 C1574 1.370 . S
C1575 C1576 1.403 . S
C1576 C1575 1.403 . S
C1576 C1577 1.404 . S
C1576 C1579 1.539 . S
C1577 C1573 1.408 . S
C1577 C1576 1.404 . S
C1577 H1589 0.930 . S
C1578 C1574 1.524 . S
C1578 H1590 0.956 . S
C1578 H1591 0.961 . S
C1578 H1592 0.961 . S
C1579 C1576 1.539 . S
C1579 H1593 0.958 . S
C1579 H1594 0.961 . S
C1579 H1595 0.960 . S
H1580 C1564 0.931 . S
H1581 C1569 0.929 . S
H1582 C1570 0.960 . S
H1583 C1570 0.962 . S
H1584 C1570 0.960 . S
H1585 C1571 0.961 . S
H1586 C1571 0.961 . S
H1587 C1571 0.961 . S
H1588 C1572 0.931 . S
H1589 C1577 0.930 . S
H1590 C1578 0.956 . S
H1591 C1578 0.961 . S
H1592 C1578 0.961 . S
H1593 C1579 0.958 . S
H1594 C1579 0.961 . S
H1595 C1579 0.960 . S
C1596 C1597 1.391 . S
C1596 C1598 1.394 . S
C1596 H1612 0.931 . S
C1597 C1596 1.391 . S
C1597 C1601 1.376 . S
C1598 C1596 1.394 . S
C1598 C1599 1.369 . S
C1598 C1602 1.531 . S
C1599 C1598 1.369 . S
C1599 C1600 1.410 . S
C1599 C1607 1.503 . S
C1600 C1599 1.410 . S
C1600 C1601 1.392 . S
C1600 C1603 1.511 . S
C1601 C1597 1.376 . S
C1601 C1600 1.392 . S
C1601 H1613 0.929 . S
C1602 C1598 1.531 . S
C1602 H1614 0.960 . S
C1602 H1615 0.962 . S
C1602 H1616 0.960 . S
C1603 C1600 1.511 . S
C1603 H1617 0.961 . S
C1603 H1618 0.961 . S
C1603 H1619 0.961 . S
C1604 C1605 1.370 . S
C1604 C1606 1.363 . S
C1604 H1620 0.931 . S
C1605 C1604 1.370 . S
C1605 C1609 1.408 . S
C1606 C1604 1.363 . S
C1606 C1607 1.370 . S
C1606 C1610 1.524 . S
C1607 C1599 1.503 . S
C1607 C1606 1.370 . S
C1607 C1608 1.403 . S
C1608 C1607 1.403 . S
C1608 C1609 1.404 . S
C1608 C1611 1.539 . S
C1609 C1605 1.408 . S
C1609 C1608 1.404 . S
C1609 H1621 0.930 . S
C1610 C1606 1.524 . S
C1610 H1622 0.956 . S
C1610 H1623 0.961 . S
C1610 H1624 0.961 . S
C1611 C1608 1.539 . S
C1611 H1625 0.958 . S
C1611 H1626 0.961 . S
C1611 H1627 0.960 . S
H1612 C1596 0.931 . S
H1613 C1601 0.929 . S
H1614 C1602 0.960 . S
H1615 C1602 0.962 . S
H1616 C1602 0.960 . S
H1617 C1603 0.961 . S
H1618 C1603 0.961 . S
H1619 C1603 0.961 . S
H1620 C1604 0.931 . S
H1621 C1609 0.930 . S
H1622 C1610 0.956 . S
H1623 C1610 0.961 . S
H1624 C1610 0.961 . S
H1625 C1611 0.958 . S
H1626 C1611 0.961 . S
H1627 C1611 0.960 . S
C1628 C1629 1.391 . S
C1628 C1630 1.394 . S
C1628 H1644 0.931 . S
C1629 C1628 1.391 . S
C1629 C1633 1.376 . S
C1630 C1628 1.394 . S
C1630 C1631 1.369 . S
C1630 C1634 1.531 . S
C1631 C1630 1.369 . S
C1631 C1632 1.410 . S
C1631 C1639 1.503 . S
C1632 C1631 1.410 . S
C1632 C1633 1.392 . S
C1632 C1635 1.511 . S
C1633 C1629 1.376 . S
C1633 C1632 1.392 . S
C1633 H1645 0.929 . S
C1634 C1630 1.531 . S
C1634 H1646 0.960 . S
C1634 H1647 0.962 . S
C1634 H1648 0.960 . S
C1635 C1632 1.511 . S
C1635 H1649 0.961 . S
C1635 H1650 0.961 . S
C1635 H1651 0.961 . S
C1636 C1637 1.370 . S
C1636 C1638 1.363 . S
C1636 H1652 0.931 . S
C1637 C1636 1.370 . S
C1637 C1641 1.408 . S
C1638 C1636 1.363 . S
C1638 C1639 1.370 . S
C1638 C1642 1.524 . S
C1639 C1631 1.503 . S
C1639 C1638 1.370 . S
C1639 C1640 1.403 . S
C1640 C1639 1.403 . S
C1640 C1641 1.404 . S
C1640 C1643 1.539 . S
C1641 C1637 1.408 . S
C1641 C1640 1.404 . S
C1641 H1653 0.930 . S
C1642 C1638 1.524 . S
C1642 H1654 0.956 . S
C1642 H1655 0.961 . S
C1642 H1656 0.961 . S
C1643 C1640 1.539 . S
C1643 H1657 0.958 . S
C1643 H1658 0.961 . S
C1643 H1659 0.960 . S
H1644 C1628 0.931 . S
H1645 C1633 0.929 . S
H1646 C1634 0.960 . S
H1647 C1634 0.962 . S
H1648 C1634 0.960 . S
H1649 C1635 0.961 . S
H1650 C1635 0.961 . S
H1651 C1635 0.961 . S
H1652 C1636 0.931 . S
H1653 C1641 0.930 . S
H1654 C1642 0.956 . S
H1655 C1642 0.961 . S
H1656 C1642 0.961 . S
H1657 C1643 0.958 . S
H1658 C1643 0.961 . S
H1659 C1643 0.960 . S
C1660 C1661 1.391 . S
C1660 C1662 1.394 . S
C1660 H1676 0.931 . S
C1661 C1660 1.391 . S
C1661 C1665 1.376 . S
C1662 C1660 1.394 . S
C1662 C1663 1.369 . S
C1662 C1666 1.531 . S
C1663 C1662 1.369 . S
C1663 C1664 1.410 . S
C1663 C1671 1.503 . S
C1664 C1663 1.410 . S
C1664 C1665 1.392 . S
C1664 C1667 1.511 . S
C1665 C1661 1.376 . S
C1665 C1664 1.392 . S
C1665 H1677 0.929 . S
C1666 C1662 1.531 . S
C1666 H1678 0.960 . S
C1666 H1679 0.962 . S
C1666 H1680 0.960 . S
C1667 C1664 1.511 . S
C1667 H1681 0.961 . S
C1667 H1682 0.961 . S
C1667 H1683 0.961 . S
C1668 C1669 1.370 . S
C1668 C1670 1.363 . S
C1668 H1684 0.931 . S
C1669 C1668 1.370 . S
C1669 C1673 1.408 . S
C1670 C1668 1.363 . S
C1670 C1671 1.370 . S
C1670 C1674 1.524 . S
C1671 C1663 1.503 . S
C1671 C1670 1.370 . S
C1671 C1672 1.403 . S
C1672 C1671 1.403 . S
C1672 C1673 1.404 . S
C1672 C1675 1.539 . S
C1673 C1669 1.408 . S
C1673 C1672 1.404 . S
C1673 H1685 0.930 . S
C1674 C1670 1.524 . S
C1674 H1686 0.956 . S
C1674 H1687 0.961 . S
C1674 H1688 0.961 . S
C1675 C1672 1.539 . S
C1675 H1689 0.958 . S
C1675 H1690 0.961 . S
C1675 H1691 0.960 . S
H1676 C1660 0.931 . S
H1677 C1665 0.929 . S
H1678 C1666 0.960 . S
H1679 C1666 0.962 . S
H1680 C1666 0.960 . S
H1681 C1667 0.961 . S
H1682 C1667 0.961 . S
H1683 C1667 0.961 . S
H1684 C1668 0.931 . S
H1685 C1673 0.930 . S
H1686 C1674 0.956 . S
H1687 C1674 0.961 . S
H1688 C1674 0.961 . S
H1689 C1675 0.958 . S
H1690 C1675 0.961 . S
H1691 C1675 0.960 . S
C1692 C1693 1.391 . S
C1692 C1694 1.394 . S
C1692 H1708 0.931 . S
C1693 C1692 1.391 . S
C1693 C1697 1.376 . S
C1694 C1692 1.394 . S
C1694 C1695 1.369 . S
C1694 C1698 1.531 . S
C1695 C1694 1.369 . S
C1695 C1696 1.410 . S
C1695 C1703 1.503 . S
C1696 C1695 1.410 . S
C1696 C1697 1.392 . S
C1696 C1699 1.511 . S
C1697 C1693 1.376 . S
C1697 C1696 1.392 . S
C1697 H1709 0.929 . S
C1698 C1694 1.531 . S
C1698 H1710 0.960 . S
C1698 H1711 0.962 . S
C1698 H1712 0.960 . S
C1699 C1696 1.511 . S
C1699 H1713 0.961 . S
C1699 H1714 0.961 . S
C1699 H1715 0.961 . S
C1700 C1701 1.370 . S
C1700 C1702 1.363 . S
C1700 H1716 0.931 . S
C1701 C1700 1.370 . S
C1701 C1705 1.408 . S
C1702 C1700 1.363 . S
C1702 C1703 1.370 . S
C1702 C1706 1.524 . S
C1703 C1695 1.503 . S
C1703 C1702 1.370 . S
C1703 C1704 1.403 . S
C1704 C1703 1.403 . S
C1704 C1705 1.404 . S
C1704 C1707 1.539 . S
C1705 C1701 1.408 . S
C1705 C1704 1.404 . S
C1705 H1717 0.930 . S
C1706 C1702 1.524 . S
C1706 H1718 0.956 . S
C1706 H1719 0.961 . S
C1706 H1720 0.961 . S
C1707 C1704 1.539 . S
C1707 H1721 0.958 . S
C1707 H1722 0.961 . S
C1707 H1723 0.960 . S
H1708 C1692 0.931 . S
H1709 C1697 0.929 . S
H1710 C1698 0.960 . S
H1711 C1698 0.962 . S
H1712 C1698 0.960 . S
H1713 C1699 0.961 . S
H1714 C1699 0.961 . S
H1715 C1699 0.961 . S
H1716 C1700 0.931 . S
H1717 C1705 0.930 . S
H1718 C1706 0.956 . S
H1719 C1706 0.961 . S
H1720 C1706 0.961 . S
H1721 C1707 0.958 . S
H1722 C1707 0.961 . S
H1723 C1707 0.960 . S
C1724 C1725 1.391 . S
C1724 C1726 1.394 . S
C1724 H1740 0.931 . S
C1725 C1724 1.391 . S
C1725 C1729 1.376 . S
C1726 C1724 1.394 . S
C1726 C1727 1.369 . S
C1726 C1730 1.531 . S
C1727 C1726 1.369 . S
C1727 C1728 1.410 . S
C1727 C1735 1.503 . S
C1728 C1727 1.410 . S
C1728 C1729 1.392 . S
C1728 C1731 1.511 . S
C1729 C1725 1.376 . S
C1729 C1728 1.392 . S
C1729 H1741 0.929 . S
C1730 C1726 1.531 . S
C1730 H1742 0.960 . S
C1730 H1743 0.962 . S
C1730 H1744 0.960 . S
C1731 C1728 1.511 . S
C1731 H1745 0.961 . S
C1731 H1746 0.961 . S
C1731 H1747 0.961 . S
C1732 C1733 1.370 . S
C1732 C1734 1.363 . S
C1732 H1748 0.931 . S
C1733 C1732 1.370 . S
C1733 C1737 1.408 . S
C1734 C1732 1.363 . S
C1734 C1735 1.370 . S
C1734 C1738 1.524 . S
C1735 C1727 1.503 . S
C1735 C1734 1.370 . S
C1735 C1736 1.403 . S
C1736 C1735 1.403 . S
C1736 C1737 1.404 . S
C1736 C1739 1.539 . S
C1737 C1733 1.408 . S
C1737 C1736 1.404 . S
C1737 H1749 0.930 . S
C1738 C1734 1.524 . S
C1738 H1750 0.956 . S
C1738 H1751 0.961 . S
C1738 H1752 0.961 . S
C1739 C1736 1.539 . S
C1739 H1753 0.958 . S
C1739 H1754 0.961 . S
C1739 H1755 0.960 . S
H1740 C1724 0.931 . S
H1741 C1729 0.929 . S
H1742 C1730 0.960 . S
H1743 C1730 0.962 . S
H1744 C1730 0.960 . S
H1745 C1731 0.961 . S
H1746 C1731 0.961 . S
H1747 C1731 0.961 . S
H1748 C1732 0.931 . S
H1749 C1737 0.930 . S
H1750 C1738 0.956 . S
H1751 C1738 0.961 . S
H1752 C1738 0.961 . S
H1753 C1739 0.958 . S
H1754 C1739 0.961 . S
H1755 C1739 0.960 . S
C1756 C1757 1.391 . S
C1756 C1758 1.394 . S
C1756 H1772 0.931 . S
C1757 C1756 1.391 . S
C1757 C1761 1.376 . S
C1758 C1756 1.394 . S
C1758 C1759 1.369 . S
C1758 C1762 1.531 . S
C1759 C1758 1.369 . S
C1759 C1760 1.410 . S
C1759 C1767 1.503 . S
C1760 C1759 1.410 . S
C1760 C1761 1.392 . S
C1760 C1763 1.511 . S
C1761 C1757 1.376 . S
C1761 C1760 1.392 . S
C1761 H1773 0.929 . S
C1762 C1758 1.531 . S
C1762 H1774 0.960 . S
C1762 H1775 0.962 . S
C1762 H1776 0.960 . S
C1763 C1760 1.511 . S
C1763 H1777 0.961 . S
C1763 H1778 0.961 . S
C1763 H1779 0.961 . S
C1764 C1765 1.370 . S
C1764 C1766 1.363 . S
C1764 H1780 0.931 . S
C1765 C1764 1.370 . S
C1765 C1769 1.408 . S
C1766 C1764 1.363 . S
C1766 C1767 1.370 . S
C1766 C1770 1.524 . S
C1767 C1759 1.503 . S
C1767 C1766 1.370 . S
C1767 C1768 1.403 . S
C1768 C1767 1.403 . S
C1768 C1769 1.404 . S
C1768 C1771 1.539 . S
C1769 C1765 1.408 . S
C1769 C1768 1.404 . S
C1769 H1781 0.930 . S
C1770 C1766 1.524 . S
C1770 H1782 0.956 . S
C1770 H1783 0.961 . S
C1770 H1784 0.961 . S
C1771 C1768 1.539 . S
C1771 H1785 0.958 . S
C1771 H1786 0.961 . S
C1771 H1787 0.960 . S
H1772 C1756 0.931 . S
H1773 C1761 0.929 . S
H1774 C1762 0.960 . S
H1775 C1762 0.962 . S
H1776 C1762 0.960 . S
H1777 C1763 0.961 . S
H1778 C1763 0.961 . S
H1779 C1763 0.961 . S
H1780 C1764 0.931 . S
H1781 C1769 0.930 . S
H1782 C1770 0.956 . S
H1783 C1770 0.961 . S
H1784 C1770 0.961 . S
H1785 C1771 0.958 . S
H1786 C1771 0.961 . S
H1787 C1771 0.960 . S
C1788 C1789 1.391 . S
C1788 C1790 1.394 . S
C1788 H1804 0.931 . S
C1789 C1788 1.391 . S
C1789 C1793 1.376 . S
C1790 C1788 1.394 . S
C1790 C1791 1.369 . S
C1790 C1794 1.531 . S
C1791 C1790 1.369 . S
C1791 C1792 1.410 . S
C1791 C1799 1.503 . S
C1792 C1791 1.410 . S
C1792 C1793 1.392 . S
C1792 C1795 1.511 . S
C1793 C1789 1.376 . S
C1793 C1792 1.392 . S
C1793 H1805 0.929 . S
C1794 C1790 1.531 . S
C1794 H1806 0.960 . S
C1794 H1807 0.962 . S
C1794 H1808 0.960 . S
C1795 C1792 1.511 . S
C1795 H1809 0.961 . S
C1795 H1810 0.961 . S
C1795 H1811 0.961 . S
C1796 C1797 1.370 . S
C1796 C1798 1.363 . S
C1796 H1812 0.931 . S
C1797 C1796 1.370 . S
C1797 C1801 1.408 . S
C1798 C1796 1.363 . S
C1798 C1799 1.370 . S
C1798 C1802 1.524 . S
C1799 C1791 1.503 . S
C1799 C1798 1.370 . S
C1799 C1800 1.403 . S
C1800 C1799 1.403 . S
C1800 C1801 1.404 . S
C1800 C1803 1.539 . S
C1801 C1797 1.408 . S
C1801 C1800 1.404 . S
C1801 H1813 0.930 . S
C1802 C1798 1.524 . S
C1802 H1814 0.956 . S
C1802 H1815 0.961 . S
C1802 H1816 0.961 . S
C1803 C1800 1.539 . S
C1803 H1817 0.958 . S
C1803 H1818 0.961 . S
C1803 H1819 0.960 . S
H1804 C1788 0.931 . S
H1805 C1793 0.929 . S
H1806 C1794 0.960 . S
H1807 C1794 0.962 . S
H1808 C1794 0.960 . S
H1809 C1795 0.961 . S
H1810 C1795 0.961 . S
H1811 C1795 0.961 . S
H1812 C1796 0.931 . S
H1813 C1801 0.930 . S
H1814 C1802 0.956 . S
H1815 C1802 0.961 . S
H1816 C1802 0.961 . S
H1817 C1803 0.958 . S
H1818 C1803 0.961 . S
H1819 C1803 0.960 . S
C1820 C1821 1.391 . S
C1820 C1822 1.394 . S
C1820 H1836 0.931 . S
C1821 C1820 1.391 . S
C1821 C1825 1.376 . S
C1822 C1820 1.394 . S
C1822 C1823 1.369 . S
C1822 C1826 1.531 . S
C1823 C1822 1.369 . S
C1823 C1824 1.410 . S
C1823 C1831 1.503 . S
C1824 C1823 1.410 . S
C1824 C1825 1.392 . S
C1824 C1827 1.511 . S
C1825 C1821 1.376 . S
C1825 C1824 1.392 . S
C1825 H1837 0.929 . S
C1826 C1822 1.531 . S
C1826 H1838 0.960 . S
C1826 H1839 0.962 . S
C1826 H1840 0.960 . S
C1827 C1824 1.511 . S
C1827 H1841 0.961 . S
C1827 H1842 0.961 . S
C1827 H1843 0.961 . S
C1828 C1829 1.370 . S
C1828 C1830 1.363 . S
C1828 H1844 0.931 . S
C1829 C1828 1.370 . S
C1829 C1833 1.408 . S
C1830 C1828 1.363 . S
C1830 C1831 1.370 . S
C1830 C1834 1.524 . S
C1831 C1823 1.503 . S
C1831 C1830 1.370 . S
C1831 C1832 1.403 . S
C1832 C1831 1.403 . S
C1832 C1833 1.404 . S
C1832 C1835 1.539 . S
C1833 C1829 1.408 . S
C1833 C1832 1.404 . S
C1833 H1845 0.930 . S
C1834 C1830 1.524 . S
C1834 H1846 0.956 . S
C1834 H1847 0.961 . S
C1834 H1848 0.961 . S
C1835 C1832 1.539 . S
C1835 H1849 0.958 . S
C1835 H1850 0.961 . S
C1835 H1851 0.960 . S
H1836 C1820 0.931 . S
H1837 C1825 0.929 . S
H1838 C1826 0.960 . S
H1839 C1826 0.962 . S
H1840 C1826 0.960 . S
H1841 C1827 0.961 . S
H1842 C1827 0.961 . S
H1843 C1827 0.961 . S
H1844 C1828 0.931 . S
H1845 C1833 0.930 . S
H1846 C1834 0.956 . S
H1847 C1834 0.961 . S
H1848 C1834 0.961 . S
H1849 C1835 0.958 . S
H1850 C1835 0.961 . S
H1851 C1835 0.960 . S
C1852 C1853 1.391 . S
C1852 C1854 1.394 . S
C1852 H1868 0.931 . S
C1853 C1852 1.391 . S
C1853 C1857 1.376 . S
C1854 C1852 1.394 . S
C1854 C1855 1.369 . S
C1854 C1858 1.531 . S
C1855 C1854 1.369 . S
C1855 C1856 1.410 . S
C1855 C1863 1.503 . S
C1856 C1855 1.410 . S
C1856 C1857 1.392 . S
C1856 C1859 1.511 . S
C1857 C1853 1.376 . S
C1857 C1856 1.392 . S
C1857 H1869 0.929 . S
C1858 C1854 1.531 . S
C1858 H1870 0.960 . S
C1858 H1871 0.962 . S
C1858 H1872 0.960 . S
C1859 C1856 1.511 . S
C1859 H1873 0.961 . S
C1859 H1874 0.961 . S
C1859 H1875 0.961 . S
C1860 C1861 1.370 . S
C1860 C1862 1.363 . S
C1860 H1876 0.931 . S
C1861 C1860 1.370 . S
C1861 C1865 1.408 . S
C1862 C1860 1.363 . S
C1862 C1863 1.370 . S
C1862 C1866 1.524 . S
C1863 C1855 1.503 . S
C1863 C1862 1.370 . S
C1863 C1864 1.403 . S
C1864 C1863 1.403 . S
C1864 C1865 1.404 . S
C1864 C1867 1.539 . S
C1865 C1861 1.408 . S
C1865 C1864 1.404 . S
C1865 H1877 0.930 . S
C1866 C1862 1.524 . S
C1866 H1878 0.956 . S
C1866 H1879 0.961 . S
C1866 H1880 0.961 . S
C1867 C1864 1.539 . S
C1867 H1881 0.958 . S
C1867 H1882 0.961 . S
C1867 H1883 0.960 . S
H1868 C1852 0.931 . S
H1869 C1857 0.929 . S
H1870 C1858 0.960 . S
H1871 C1858 0.962 . S
H1872 C1858 0.960 . S
H1873 C1859 0.961 . S
H1874 C1859 0.961 . S
H1875 C1859 0.961 . S
H1876 C1860 0.931 . S
H1877 C1865 0.930 . S
H1878 C1866 0.956 . S
H1879 C1866 0.961 . S
H1880 C1866 0.961 . S
H1881 C1867 0.958 . S
H1882 C1867 0.961 . S
H1883 C1867 0.960 . S
C1884 C1885 1.391 . S
C1884 C1886 1.394 . S
C1884 H1900 0.931 . S
C1885 C1884 1.391 . S
C1885 C1889 1.376 . S
C1886 C1884 1.394 . S
C1886 C1887 1.369 . S
C1886 C1890 1.531 . S
C1887 C1886 1.369 . S
C1887 C1888 1.410 . S
C1887 C1895 1.503 . S
C1888 C1887 1.410 . S
C1888 C1889 1.392 . S
C1888 C1891 1.511 . S
C1889 C1885 1.376 . S
C1889 C1888 1.392 . S
C1889 H1901 0.929 . S
C1890 C1886 1.531 . S
C1890 H1902 0.960 . S
C1890 H1903 0.962 . S
C1890 H1904 0.960 . S
C1891 C1888 1.511 . S
C1891 H1905 0.961 . S
C1891 H1906 0.961 . S
C1891 H1907 0.961 . S
C1892 C1893 1.370 . S
C1892 C1894 1.363 . S
C1892 H1908 0.931 . S
C1893 C1892 1.370 . S
C1893 C1897 1.408 . S
C1894 C1892 1.363 . S
C1894 C1895 1.370 . S
C1894 C1898 1.524 . S
C1895 C1887 1.503 . S
C1895 C1894 1.370 . S
C1895 C1896 1.403 . S
C1896 C1895 1.403 . S
C1896 C1897 1.404 . S
C1896 C1899 1.539 . S
C1897 C1893 1.408 . S
C1897 C1896 1.404 . S
C1897 H1909 0.930 . S
C1898 C1894 1.524 . S
C1898 H1910 0.956 . S
C1898 H1911 0.961 . S
C1898 H1912 0.961 . S
C1899 C1896 1.539 . S
C1899 H1913 0.958 . S
C1899 H1914 0.961 . S
C1899 H1915 0.960 . S
H1900 C1884 0.931 . S
H1901 C1889 0.929 . S
H1902 C1890 0.960 . S
H1903 C1890 0.962 . S
H1904 C1890 0.960 . S
H1905 C1891 0.961 . S
H1906 C1891 0.961 . S
H1907 C1891 0.961 . S
H1908 C1892 0.931 . S
H1909 C1897 0.930 . S
H1910 C1898 0.956 . S
H1911 C1898 0.961 . S
H1912 C1898 0.961 . S
H1913 C1899 0.958 . S
H1914 C1899 0.961 . S
H1915 C1899 0.960 . S
C1916 C1917 1.391 . S
C1916 C1918 1.394 . S
C1916 H1932 0.931 . S
C1917 C1916 1.391 . S
C1917 C1921 1.376 . S
C1918 C1916 1.394 . S
C1918 C1919 1.369 . S
C1918 C1922 1.531 . S
C1919 C1918 1.369 . S
C1919 C1920 1.410 . S
C1919 C1927 1.503 . S
C1920 C1919 1.410 . S
C1920 C1921 1.392 . S
C1920 C1923 1.511 . S
C1921 C1917 1.376 . S
C1921 C1920 1.392 . S
C1921 H1933 0.929 . S
C1922 C1918 1.531 . S
C1922 H1934 0.960 . S
C1922 H1935 0.962 . S
C1922 H1936 0.960 . S
C1923 C1920 1.511 . S
C1923 H1937 0.961 . S
C1923 H1938 0.961 . S
C1923 H1939 0.961 . S
C1924 C1925 1.370 . S
C1924 C1926 1.363 . S
C1924 H1940 0.931 . S
C1925 C1924 1.370 . S
C1925 C1929 1.408 . S
C1926 C1924 1.363 . S
C1926 C1927 1.370 . S
C1926 C1930 1.524 . S
C1927 C1919 1.503 . S
C1927 C1926 1.370 . S
C1927 C1928 1.403 . S
C1928 C1927 1.403 . S
C1928 C1929 1.404 . S
C1928 C1931 1.539 . S
C1929 C1925 1.408 . S
C1929 C1928 1.404 . S
C1929 H1941 0.930 . S
C1930 C1926 1.524 . S
C1930 H1942 0.956 . S
C1930 H1943 0.961 . S
C1930 H1944 0.961 . S
C1931 C1928 1.539 . S
C1931 H1945 0.958 . S
C1931 H1946 0.961 . S
C1931 H1947 0.960 . S
H1932 C1916 0.931 . S
H1933 C1921 0.929 . S
H1934 C1922 0.960 . S
H1935 C1922 0.962 . S
H1936 C1922 0.960 . S
H1937 C1923 0.961 . S
H1938 C1923 0.961 . S
H1939 C1923 0.961 . S
H1940 C1924 0.931 . S
H1941 C1929 0.930 . S
H1942 C1930 0.956 . S
H1943 C1930 0.961 . S
H1944 C1930 0.961 . S
H1945 C1931 0.958 . S
H1946 C1931 0.961 . S
H1947 C1931 0.960 . S
C1948 C1949 1.391 . S
C1948 C1950 1.394 . S
C1948 H1964 0.931 . S
C1949 C1948 1.391 . S
C1949 C1953 1.376 . S
C1950 C1948 1.394 . S
C1950 C1951 1.369 . S
C1950 C1954 1.531 . S
C1951 C1950 1.369 . S
C1951 C1952 1.410 . S
C1951 C1959 1.503 . S
C1952 C1951 1.410 . S
C1952 C1953 1.392 . S
C1952 C1955 1.511 . S
C1953 C1949 1.376 . S
C1953 C1952 1.392 . S
C1953 H1965 0.929 . S
C1954 C1950 1.531 . S
C1954 H1966 0.960 . S
C1954 H1967 0.962 . S
C1954 H1968 0.960 . S
C1955 C1952 1.511 . S
C1955 H1969 0.961 . S
C1955 H1970 0.961 . S
C1955 H1971 0.961 . S
C1956 C1957 1.370 . S
C1956 C1958 1.363 . S
C1956 H1972 0.931 . S
C1957 C1956 1.370 . S
C1957 C1961 1.408 . S
C1958 C1956 1.363 . S
C1958 C1959 1.370 . S
C1958 C1962 1.524 . S
C1959 C1951 1.503 . S
C1959 C1958 1.370 . S
C1959 C1960 1.403 . S
C1960 C1959 1.403 . S
C1960 C1961 1.404 . S
C1960 C1963 1.539 . S
C1961 C1957 1.408 . S
C1961 C1960 1.404 . S
C1961 H1973 0.930 . S
C1962 C1958 1.524 . S
C1962 H1974 0.956 . S
C1962 H1975 0.961 . S
C1962 H1976 0.961 . S
C1963 C1960 1.539 . S
C1963 H1977 0.958 . S
C1963 H1978 0.961 . S
C1963 H1979 0.960 . S
H1964 C1948 0.931 . S
H1965 C1953 0.929 . S
H1966 C1954 0.960 . S
H1967 C1954 0.962 . S
H1968 C1954 0.960 . S
H1969 C1955 0.961 . S
H1970 C1955 0.961 . S
H1971 C1955 0.961 . S
H1972 C1956 0.931 . S
H1973 C1961 0.930 . S
H1974 C1962 0.956 . S
H1975 C1962 0.961 . S
H1976 C1962 0.961 . S
H1977 C1963 0.958 . S
H1978 C1963 0.961 . S
H1979 C1963 0.960 . S
C1980 C1981 1.391 . S
C1980 C1982 1.394 . S
C1980 H1996 0.931 . S
C1981 C1980 1.391 . S
C1981 C1985 1.376 . S
C1982 C1980 1.394 . S
C1982 C1983 1.369 . S
C1982 C1986 1.531 . S
C1983 C1982 1.369 . S
C1983 C1984 1.410 . S
C1983 C1991 1.503 . S
C1984 C1983 1.410 . S
C1984 C1985 1.392 . S
C1984 C1987 1.511 . S
C1985 C1981 1.376 . S
C1985 C1984 1.392 . S
C1985 H1997 0.929 . S
C1986 C1982 1.531 . S
C1986 H1998 0.960 . S
C1986 H1999 0.962 . S
C1986 H2000 0.960 . S
C1987 C1984 1.511 . S
C1987 H2001 0.961 . S
C1987 H2002 0.961 . S
C1987 H2003 0.961 . S
C1988 C1989 1.370 . S
C1988 C1990 1.363 . S
C1988 H2004 0.931 . S
C1989 C1988 1.370 . S
C1989 C1993 1.408 . S
C1990 C1988 1.363 . S
C1990 C1991 1.370 . S
C1990 C1994 1.524 . S
C1991 C1983 1.503 . S
C1991 C1990 1.370 . S
C1991 C1992 1.403 . S
C1992 C1991 1.403 . S
C1992 C1993 1.404 . S
C1992 C1995 1.539 . S
C1993 C1989 1.408 . S
C1993 C1992 1.404 . S
C1993 H2005 0.930 . S
C1994 C1990 1.524 . S
C1994 H2006 0.956 . S
C1994 H2007 0.961 . S
C1994 H2008 0.961 . S
C1995 C1992 1.539 . S
C1995 H2009 0.958 . S
C1995 H2010 0.961 . S
C1995 H2011 0.960 . S
H1996 C1980 0.931 . S
H1997 C1985 0.929 . S
H1998 C1986 0.960 . S
H1999 C1986 0.962 . S
H2000 C1986 0.960 . S
H2001 C1987 0.961 . S
H2002 C1987 0.961 . S
H2003 C1987 0.961 . S
H2004 C1988 0.931 . S
H2005 C1993 0.930 . S
H2006 C1994 0.956 . S
H2007 C1994 0.961 . S
H2008 C1994 0.961 . S
H2009 C1995 0.958 . S
H2010 C1995 0.961 . S
H2011 C1995 0.960 . S
C2012 C2013 1.391 . S
C2012 C2014 1.394 . S
C2012 H2028 0.931 . S
C2013 C2012 1.391 . S
C2013 C2017 1.376 . S
C2014 C2012 1.394 . S
C2014 C2015 1.369 . S
C2014 C2018 1.531 . S
C2015 C2014 1.369 . S
C2015 C2016 1.410 . S
C2015 C2023 1.503 . S
C2016 C2015 1.410 . S
C2016 C2017 1.392 . S
C2016 C2019 1.511 . S
C2017 C2013 1.376 . S
C2017 C2016 1.392 . S
C2017 H2029 0.929 . S
C2018 C2014 1.531 . S
C2018 H2030 0.960 . S
C2018 H2031 0.962 . S
C2018 H2032 0.960 . S
C2019 C2016 1.511 . S
C2019 H2033 0.961 . S
C2019 H2034 0.961 . S
C2019 H2035 0.961 . S
C2020 C2021 1.370 . S
C2020 C2022 1.363 . S
C2020 H2036 0.931 . S
C2021 C2020 1.370 . S
C2021 C2025 1.408 . S
C2022 C2020 1.363 . S
C2022 C2023 1.370 . S
C2022 C2026 1.524 . S
C2023 C2015 1.503 . S
C2023 C2022 1.370 . S
C2023 C2024 1.403 . S
C2024 C2023 1.403 . S
C2024 C2025 1.404 . S
C2024 C2027 1.539 . S
C2025 C2021 1.408 . S
C2025 C2024 1.404 . S
C2025 H2037 0.930 . S
C2026 C2022 1.524 . S
C2026 H2038 0.956 . S
C2026 H2039 0.961 . S
C2026 H2040 0.961 . S
C2027 C2024 1.539 . S
C2027 H2041 0.958 . S
C2027 H2042 0.961 . S
C2027 H2043 0.960 . S
H2028 C2012 0.931 . S
H2029 C2017 0.929 . S
H2030 C2018 0.960 . S
H2031 C2018 0.962 . S
H2032 C2018 0.960 . S
H2033 C2019 0.961 . S
H2034 C2019 0.961 . S
H2035 C2019 0.961 . S
H2036 C2020 0.931 . S
H2037 C2025 0.930 . S
H2038 C2026 0.956 . S
H2039 C2026 0.961 . S
H2040 C2026 0.961 . S
H2041 C2027 0.958 . S
H2042 C2027 0.961 . S
H2043 C2027 0.960 . S
C517 C219 1.043 . S
C509 C17 1.034 . S
C549 C197 1.733 . S
C541 C44 1.757 . S
C581 C194 0.691 . S
C573 C63 0.716 . S
C605 C87 1.623 . S
C613 C206 1.539 . S
C637 C110 1.594 . S
C645 C189 1.506 . S
C677 C211 0.703 . S
C669 C131 0.733 . S
C701 C159 1.684 . S
C709 C216 1.725 . S
C733 C177 1.058 . S
C741 C212 1.065 . S
C773 C270 1.650 . S
C765 C20 1.536 . S
C797 C42 1.242 . S
C805 C320 1.229 . S
C837 C243 1.721 . S
C829 C66 1.648 . S
C869 C319 0.694 . S
C861 C86 0.730 . S
C893 C109 0.716 . S
C901 C248 0.675 . S
C933 C314 1.721 . S
C925 C136 1.681 . S
C957 C157 1.182 . S
C965 C273 1.212 . S
C989 C182 1.631 . S
C997 C305 1.644 . S
C1021 C18 1.641 . S
C1029 C297 1.576 . S
C1053 C112 1.098 . S
C1061 C327 1.296 . S
C1093 C251 1.588 . S
C1085 C134 1.612 . S
C1125 C302 0.880 . S
C1117 C154 0.827 . S
C1149 C180 1.612 . S
C1157 C260 1.586 . S
C1181 C64 1.641 . S
C1189 C324 1.579 . S
C1221 C266 1.287 . S
C1213 C89 1.204 . S
C1245 C39 0.899 . S
C1253 C265 0.883 . S
C1277 C178 1.056 . S
C1285 C381 1.050 . S
C1309 C113 1.686 . S
C1317 C359 1.761 . S
C1349 C356 0.699 . S
C1341 C132 0.694 . S
C1381 C368 1.513 . S
C1373 C156 1.619 . S
C1405 C41 1.582 . S
C1413 C351 1.494 . S
C1445 C373 0.722 . S
C1437 C62 0.691 . S
C1469 C90 1.696 . S
C1477 C378 1.721 . S
C1501 C16 1.081 . S
C1509 C374 1.073 . S
C1533 C181 1.515 . S
C1541 C432 1.639 . S
C1573 C482 1.234 . S
C1565 C111 1.219 . S
C1597 C135 1.582 . S
C1605 C405 1.707 . S
C1629 C155 0.662 . S
C1637 C481 0.682 . S
C1669 C410 0.670 . S
C1661 C40 0.639 . S
C1693 C67 1.642 . S
C1701 C476 1.735 . S
C1733 C435 1.203 . S
C1725 C88 1.205 . S
C1765 C467 1.661 . S
C1757 C21 1.569 . S
C1797 C459 1.597 . S
C1789 C179 1.636 . S
C1821 C43 1.217 . S
C1829 C489 1.268 . S
C1853 C65 1.581 . S
C1861 C413 1.574 . S
C1893 C464 0.878 . S
C1885 C85 0.834 . S
C1917 C19 1.613 . S
C1925 C422 1.586 . S
C1949 C133 1.650 . S
C1957 C486 1.594 . S
C1989 C428 1.300 . S
C1981 C158 1.142 . S
C2021 C427 0.888 . S
C2013 C108 0.914 . S
