# Generated by pormake.
# Topology cml, (3,6)-cn, num edge types: 1
# Building blocks:
#     Node 0, Type 0, BuildingBlock: OLANEW_clean_sbu_2, # of connection points: 3
#     Node 1, Type 0, BuildingBlock: OLANEW_clean_sbu_2, # of connection points: 3
#     Node 2, Type 0, BuildingBlock: OLANEW_clean_sbu_2, # of connection points: 3
#     Node 3, Type 0, BuildingBlock: OLANEW_clean_sbu_2, # of connection points: 3
#     Node 4, Type 0, BuildingBlock: OLANEW_clean_sbu_2, # of connection points: 3
#     Node 5, Type 0, BuildingBlock: OLANEW_clean_sbu_2, # of connection points: 3
#     Node 6, Type 0, BuildingBlock: OLANEW_clean_sbu_2, # of connection points: 3
#     Node 7, Type 0, BuildingBlock: OLANEW_clean_sbu_2, # of connection points: 3
#     Node 8, Type 1, BuildingBlock: OJICUG_clean_sbu_0, # of connection points: 6
#     Node 9, Type 1, BuildingBlock: OJICUG_clean_sbu_0, # of connection points: 6
#     Node 10, Type 1, BuildingBlock: OJICUG_clean_sbu_0, # of connection points: 6
#     Node 11, Type 1, BuildingBlock: OJICUG_clean_sbu_0, # of connection points: 6
#     Edge 12, Type (0, 1), BuildingBlock: XIVTED_clean_linker_0, # of connection points: 2
#     Edge 13, Type (0, 1), BuildingBlock: XIVTED_clean_linker_0, # of connection points: 2
#     Edge 14, Type (0, 1), BuildingBlock: XIVTED_clean_linker_0, # of connection points: 2
#     Edge 15, Type (0, 1), BuildingBlock: XIVTED_clean_linker_0, # of connection points: 2
#     Edge 16, Type (0, 1), BuildingBlock: XIVTED_clean_linker_0, # of connection points: 2
#     Edge 17, Type (0, 1), BuildingBlock: XIVTED_clean_linker_0, # of connection points: 2
#     Edge 18, Type (0, 1), BuildingBlock: XIVTED_clean_linker_0, # of connection points: 2
#     Edge 19, Type (0, 1), BuildingBlock: XIVTED_clean_linker_0, # of connection points: 2
#     Edge 20, Type (0, 1), BuildingBlock: XIVTED_clean_linker_0, # of connection points: 2
#     Edge 21, Type (0, 1), BuildingBlock: XIVTED_clean_linker_0, # of connection points: 2
#     Edge 22, Type (0, 1), BuildingBlock: XIVTED_clean_linker_0, # of connection points: 2
#     Edge 23, Type (0, 1), BuildingBlock: XIVTED_clean_linker_0, # of connection points: 2
#     Edge 24, Type (0, 1), BuildingBlock: XIVTED_clean_linker_0, # of connection points: 2
#     Edge 25, Type (0, 1), BuildingBlock: XIVTED_clean_linker_0, # of connection points: 2
#     Edge 26, Type (0, 1), BuildingBlock: XIVTED_clean_linker_0, # of connection points: 2
#     Edge 27, Type (0, 1), BuildingBlock: XIVTED_clean_linker_0, # of connection points: 2
#     Edge 28, Type (0, 1), BuildingBlock: XIVTED_clean_linker_0, # of connection points: 2
#     Edge 29, Type (0, 1), BuildingBlock: XIVTED_clean_linker_0, # of connection points: 2
#     Edge 30, Type (0, 1), BuildingBlock: XIVTED_clean_linker_0, # of connection points: 2
#     Edge 31, Type (0, 1), BuildingBlock: XIVTED_clean_linker_0, # of connection points: 2
#     Edge 32, Type (0, 1), BuildingBlock: XIVTED_clean_linker_0, # of connection points: 2
#     Edge 33, Type (0, 1), BuildingBlock: XIVTED_clean_linker_0, # of connection points: 2
#     Edge 34, Type (0, 1), BuildingBlock: XIVTED_clean_linker_0, # of connection points: 2
#     Edge 35, Type (0, 1), BuildingBlock: XIVTED_clean_linker_0, # of connection points: 2
# Relax obj value: 0.021
# Max RMSD: 0.072
# Mean RMSD: 0.061
data_MOF--net-cml--node1-OLANEW_clean_sbu_2--node2-OJICUG_clean_sbu_0--edge1-XIVTED_clean_linker_0
_symmetry_space_group_name_H-M    P1
_symmetry_Int_Tables_number       1
_symmetry_cell_setting            triclinic
loop_
_symmetry_equiv_pos_as_xyz
'x, y, z'
_cell_length_a     43.460605
_cell_length_b     41.897298
_cell_length_c     39.266204
_cell_angle_alpha  88.210964
_cell_angle_beta   87.700549
_cell_angle_gamma 88.64418
loop_
_atom_site_label
_atom_site_type_symbol
_atom_site_fract_x
_atom_site_fract_y
_atom_site_fract_z
_atom_type_partial_charge
O0 O 0.28191 0.42899 0.90594 0.0
Cd1 Cd 0.26085 0.37807 0.92735 0.0
O2 O 0.30877 0.41602 0.94998 0.0
Cd3 Cd 0.34536 0.41494 -0.01377 0.0
O4 O 0.37019 0.3999 0.03112 0.0
C5 C 0.35993 0.40921 0.05995 0.0
O6 O 0.3357 0.42857 0.06136 0.0
C7 C 0.30376 0.43526 0.92505 0.0
C8 C 0.20932 0.35289 0.8992 0.0
O9 O 0.20664 0.36995 0.92575 0.0
O10 O 0.23618 0.34915 0.88496 0.0
O11 O 0.72154 0.61916 0.55291 0.0
Cd12 Cd 0.74866 0.59582 0.50353 0.0
O13 O 0.73813 0.58044 0.58711 0.0
Cd14 Cd 0.75145 0.54943 0.54532 0.0
O15 O 0.73136 0.51477 0.51287 0.0
C16 C 0.70937 0.52524 0.49498 0.0
O17 O 0.70172 0.55574 0.49567 0.0
C18 C 0.72389 0.60706 0.58284 0.0
C19 C 0.79339 0.63567 0.4743 0.0
O20 O 0.79908 0.61731 0.50012 0.0
O21 O 0.76644 0.63527 0.46224 0.0
O22 O 0.69903 0.39347 0.93767 0.0
Cd23 Cd 0.71623 0.3431 0.96475 0.0
O24 O 0.71459 0.42373 0.97809 0.0
Cd25 Cd 0.72898 0.3831 0.01014 0.0
O26 O 0.71649 0.35821 0.05805 0.0
C27 C 0.71904 0.37398 0.08486 0.0
O28 O 0.73165 0.4022 0.08213 0.0
C29 C 0.70184 0.421 0.9498 0.0
C30 C 0.76983 0.31638 0.93508 0.0
O31 O 0.74348 0.3119 0.92273 0.0
O32 O 0.77092 0.33392 0.96116 0.0
O33 O 0.31986 0.59215 0.44269 0.0
Cd34 Cd 0.30203 0.64361 0.46461 0.0
O35 O 0.30969 0.56523 0.49061 0.0
Cd36 Cd 0.29734 0.60811 0.51859 0.0
O37 O 0.31328 0.63532 0.56059 0.0
C38 C 0.30925 0.62262 0.59017 0.0
O39 O 0.29324 0.59641 0.59356 0.0
C40 C 0.31948 0.5658 0.45967 0.0
C41 C 0.2442 0.66313 0.4426 0.0
O42 O 0.26864 0.6683 0.42409 0.0
O43 O 0.24704 0.64836 0.47143 0.0
O44 O 0.80786 0.90619 0.94304 0.0
Cd45 Cd 0.77896 0.8656 0.97672 0.0
O46 O 0.80438 0.93785 -0.01323 0.0
Cd47 Cd 0.78714 0.90195 0.02366 0.0
O48 O 0.80206 0.87726 0.07002 0.0
C49 C 0.80402 0.8946 0.09577 0.0
O50 O 0.7942 0.92448 0.09353 0.0
C51 C 0.81289 0.933 0.95596 0.0
C52 C 0.73384 0.83256 0.94437 0.0
O53 O 0.72825 0.8606 0.95557 0.0
O54 O 0.76103 0.82055 0.94743 0.0
O55 O 0.19492 0.14003 0.50627 0.0
Cd56 Cd 0.21983 0.12407 0.45216 0.0
O57 O 0.22179 0.10449 0.53576 0.0
Cd58 Cd 0.23902 0.08062 0.49012 0.0
O59 O 0.2224 0.04488 0.45658 0.0
C60 C 0.21312 0.01941 0.47168 0.0
O61 O 0.21672 0.0158 0.50467 0.0
C62 C 0.20208 0.12741 0.53487 0.0
C63 C 0.27206 0.15912 0.43404 0.0
O64 O 0.24595 0.16658 0.42157 0.0
O65 O 0.27343 0.13525 0.45518 0.0
O66 O 0.20692 0.90994 0.93783 0.0
Cd67 Cd 0.22383 0.86212 0.9701 0.0
O68 O 0.216 0.94301 0.97845 0.0
Cd69 Cd 0.22937 0.90498 0.01445 0.0
O70 O 0.21694 0.88056 0.06268 0.0
C71 C 0.19938 0.85669 0.06353 0.0
O72 O 0.19121 0.84499 0.03467 0.0
C73 C 0.2067 0.9382 0.94881 0.0
C74 C 0.27784 0.83269 0.94463 0.0
O75 O 0.25179 0.8276 0.93186 0.0
O76 O 0.2785 0.85215 0.96913 0.0
O77 O 0.81324 0.07874 0.45302 0.0
Cd78 Cd 0.79275 0.12629 0.48158 0.0
O79 O 0.78587 0.04336 0.48275 0.0
Cd80 Cd 0.76774 0.08062 0.51583 0.0
O81 O 0.78462 0.10465 0.55945 0.0
C82 C 0.78949 0.08637 0.58516 0.0
O83 O 0.78103 0.0565 0.58444 0.0
C84 C 0.8059 0.04986 0.45923 0.0
C85 C 0.73879 0.15219 0.45501 0.0
O86 O 0.7652 0.15849 0.44105 0.0
O87 O 0.73781 0.13321 0.48125 0.0
Sc88 Sc 0.00471 0.79185 0.30832 0.0
Sc89 Sc 0.01105 0.87548 0.31032 0.0
Sc90 Sc 0.00523 0.83047 0.38721 0.0
O91 O 0.00697 0.83253 0.3353 0.0
C92 C 0.95767 0.77666 0.37117 0.0
C93 C 0.96182 0.84034 0.2667 0.0
C94 C 0.96277 0.89185 0.3712 0.0
C95 C 0.05454 0.83144 0.26345 0.0
C96 C 0.04999 0.77151 0.36795 0.0
C97 C 0.05545 0.88427 0.37161 0.0
O98 O 0.96805 0.77238 0.34089 0.0
O99 O 0.97523 0.8649 0.2765 0.0
O100 O 0.97039 0.86823 0.39052 0.0
O101 O 0.04104 0.80564 0.27195 0.0
O102 O 0.03956 0.79248 0.38846 0.0
O103 O 0.0471 0.89092 0.34154 0.0
O104 O 0.03975 0.76838 0.3383 0.0
O105 O 0.04654 0.8582 0.27567 0.0
O106 O 0.04206 0.8636 0.39098 0.0
O107 O 0.96964 0.81201 0.27595 0.0
O108 O 0.96876 0.7968 0.39051 0.0
O109 O 0.97603 0.89757 0.3423 0.0
Sc110 Sc 0.00063 0.18348 0.77515 0.0
Sc111 Sc 0.01059 0.0999 0.78211 0.0
Sc112 Sc 0.00709 0.14512 0.85629 0.0
O113 O 0.00616 0.1429 0.80456 0.0
C114 C 0.0464 0.20563 0.83121 0.0
C115 C 0.05089 0.14412 0.7309 0.0
C116 C 0.05875 0.09109 0.84107 0.0
C117 C 0.95841 0.13501 0.73853 0.0
C118 C 0.95491 0.19752 0.83908 0.0
C119 C 0.96648 0.08337 0.84692 0.0
O120 O 0.03488 0.20807 0.80193 0.0
O121 O 0.04414 0.11724 0.74474 0.0
O122 O 0.04635 0.11253 0.85973 0.0
O123 O 0.96564 0.16323 0.74548 0.0
O124 O 0.96827 0.17799 0.85936 0.0
O125 O 0.9776 0.07796 0.81717 0.0
O126 O 0.96384 0.20185 0.80807 0.0
O127 O 0.973 0.11036 0.7494 0.0
O128 O 0.97494 0.10656 0.86429 0.0
O129 O 0.03675 0.16999 0.73857 0.0
O130 O 0.03867 0.18424 0.85348 0.0
O131 O 0.04833 0.08416 0.81253 0.0
Sc132 Sc 0.51366 0.29951 0.31308 0.0
Sc133 Sc 0.5169 0.38285 0.31972 0.0
Sc134 Sc 0.50845 0.33457 0.39426 0.0
O135 O 0.51297 0.33891 0.34238 0.0
C136 C 0.46181 0.28249 0.37044 0.0
C137 C 0.47417 0.34877 0.26831 0.0
C138 C 0.46527 0.39565 0.37804 0.0
C139 C 0.56576 0.34179 0.27558 0.0
C140 C 0.55402 0.27617 0.37607 0.0
C141 C 0.55736 0.39017 0.38483 0.0
O142 O 0.47417 0.27976 0.34071 0.0
O143 O 0.48473 0.37315 0.28175 0.0
O144 O 0.47344 0.37224 0.39737 0.0
O145 O 0.55301 0.31515 0.28211 0.0
O146 O 0.54264 0.29656 0.39664 0.0
O147 O 0.54935 0.39815 0.355 0.0
O148 O 0.54563 0.27431 0.34554 0.0
O149 O 0.55538 0.36795 0.28751 0.0
O150 O 0.54488 0.36756 0.40234 0.0
O151 O 0.48235 0.32036 0.2767 0.0
O152 O 0.47192 0.30087 0.3924 0.0
O153 O 0.47889 0.40216 0.34953 0.0
Sc154 Sc 0.51343 0.69498 0.80255 0.0
Sc155 Sc 0.51453 0.61099 0.80294 0.0
Sc156 Sc 0.51248 0.6501 0.88086 0.0
O157 O 0.5135 0.6521 0.82884 0.0
C158 C 0.55854 0.70717 0.86325 0.0
C159 C 0.56216 0.65374 0.7587 0.0
C160 C 0.55904 0.59206 0.8632 0.0
C161 C 0.46878 0.65458 0.75895 0.0
C162 C 0.46581 0.7086 0.86462 0.0
C163 C 0.46616 0.59495 0.86409 0.0
O164 O 0.54734 0.71428 0.83446 0.0
O165 O 0.5511 0.62718 0.76897 0.0
O166 O 0.54782 0.61282 0.88347 0.0
O167 O 0.47915 0.68109 0.76771 0.0
O168 O 0.4772 0.68732 0.8846 0.0
O169 O 0.47822 0.59078 0.83452 0.0
O170 O 0.47605 0.7136 0.83418 0.0
O171 O 0.47949 0.62784 0.76961 0.0
O172 O 0.4759 0.61538 0.88426 0.0
O173 O 0.55094 0.68057 0.76797 0.0
O174 O 0.54887 0.68424 0.88252 0.0
O175 O 0.54932 0.58895 0.83348 0.0
H176 H 0.1544 0.34168 0.93331 0.0
H177 H 0.08425 0.2404 0.78754 0.0
H178 H 0.20402 0.3242 0.83802 0.0
H179 H 0.06103 0.22449 0.89455 0.0
H180 H 0.12234 0.27928 0.80259 0.0
H181 H 0.11336 0.30742 0.91588 0.0
C182 C 0.15646 0.33103 0.90851 0.0
C183 C 0.18274 0.33565 0.88713 0.0
C184 C 0.10883 0.26726 0.8227 0.0
C185 C 0.13591 0.29652 0.86715 0.0
C186 C 0.08708 0.24516 0.81417 0.0
C187 C 0.06955 0.22908 0.83986 0.0
C188 C 0.11264 0.27378 0.85709 0.0
C189 C 0.07424 0.23612 0.87396 0.0
C190 C 0.13315 0.31131 0.89873 0.0
C191 C 0.18423 0.32112 0.85535 0.0
N192 N 0.09522 0.25809 0.88158 0.0
N193 N 0.16112 0.30217 0.84629 0.0
H194 H 0.84635 0.65364 0.50264 0.0
H195 H 0.91588 0.74322 0.3364 0.0
H196 H 0.79494 0.66545 0.41112 0.0
H197 H 0.942 0.76415 0.43814 0.0
H198 H 0.87505 0.70909 0.36114 0.0
H199 H 0.88582 0.6885 0.47704 0.0
C200 C 0.8434 0.66353 0.47712 0.0
C201 C 0.81732 0.65672 0.45899 0.0
C202 C 0.88971 0.72131 0.37792 0.0
C203 C 0.8625 0.69634 0.42948 0.0
C204 C 0.91304 0.74066 0.36387 0.0
C205 C 0.93236 0.75658 0.38524 0.0
C206 C 0.88615 0.71743 0.4135 0.0
C207 C 0.92757 0.7525 0.42067 0.0
C208 C 0.86586 0.6835 0.4626 0.0
C209 C 0.81464 0.67024 0.42603 0.0
N210 N 0.90513 0.73314 0.43367 0.0
N211 N 0.83709 0.68928 0.41219 0.0
H212 H 0.82582 0.30806 0.96392 0.0
H213 H 0.90897 0.22676 0.80279 0.0
H214 H 0.77795 0.28932 0.87269 0.0
H215 H 0.93933 0.21089 0.90542 0.0
H216 H 0.86427 0.25717 0.82548 0.0
H217 H 0.87145 0.28005 0.94008 0.0
C218 C 0.82497 0.29825 0.93878 0.0
C219 C 0.79802 0.30092 0.92029 0.0
C220 C 0.88076 0.247 0.84296 0.0
C221 C 0.85014 0.26907 0.89287 0.0
C222 C 0.90631 0.22976 0.83006 0.0
C223 C 0.92788 0.21617 0.85226 0.0
C224 C 0.87705 0.25116 0.87823 0.0
C225 C 0.92318 0.22074 0.88739 0.0
C226 C 0.85095 0.28215 0.9253 0.0
C227 C 0.7982 0.28766 0.88788 0.0
N228 N 0.89837 0.23799 0.89927 0.0
N229 N 0.8239 0.27239 0.87512 0.0
H230 H 0.19069 0.66956 0.48122 0.0
H231 H 0.09149 0.7385 0.32723 0.0
H232 H 0.22847 0.68359 0.37865 0.0
H233 H 0.06877 0.75806 0.43271 0.0
H234 H 0.13744 0.70852 0.34505 0.0
H235 H 0.14143 0.69243 0.4629 0.0
C236 C 0.18855 0.67718 0.45479 0.0
C237 C 0.21376 0.67488 0.43146 0.0
C238 C 0.12225 0.71923 0.36425 0.0
C239 C 0.15752 0.70079 0.41037 0.0
C240 C 0.09594 0.73618 0.35416 0.0
C241 C 0.07633 0.75099 0.37851 0.0
C242 C 0.12877 0.71667 0.39897 0.0
C243 C 0.08337 0.74728 0.41304 0.0
C244 C 0.16049 0.69032 0.44441 0.0
C245 C 0.20969 0.68515 0.39753 0.0
N246 N 0.10901 0.7305 0.42224 0.0
N247 N 0.1821 0.69766 0.38799 0.0
H248 H 0.73208 0.76791 0.93738 0.0
H249 H 0.57263 0.76878 0.84448 0.0
H250 H 0.67931 0.85485 0.91902 0.0
H251 H 0.60346 0.68883 0.90727 0.0
H252 H 0.61596 0.79956 0.86282 0.0
H253 H 0.6895 0.73724 0.91706 0.0
C254 C 0.71167 0.78057 0.92876 0.0
C255 C 0.70919 0.81398 0.92994 0.0
C256 C 0.61315 0.7753 0.87257 0.0
C257 C 0.66059 0.77907 0.90654 0.0
C258 C 0.58853 0.75768 0.86207 0.0
C259 C 0.58436 0.72622 0.87448 0.0
C260 C 0.63413 0.76113 0.89504 0.0
C261 C 0.60565 0.71308 0.89729 0.0
C262 C 0.68734 0.76304 0.91741 0.0
C263 C 0.68211 0.82912 0.91866 0.0
N264 N 0.62976 0.73052 0.90664 0.0
N265 N 0.6589 0.81156 0.90726 0.0
H266 H 0.28185 0.19796 0.37752 0.0
H267 H 0.44137 0.2631 0.43433 0.0
H268 H 0.32551 0.16177 0.46812 0.0
H269 H 0.41939 0.25926 0.32833 0.0
H270 H 0.39519 0.23268 0.44976 0.0
H271 H 0.32851 0.22758 0.3615 0.0
C272 C 0.30121 0.19634 0.39408 0.0
C273 C 0.29987 0.17738 0.42418 0.0
C274 C 0.40057 0.23845 0.42313 0.0
C275 C 0.35296 0.21137 0.4062 0.0
C276 C 0.42681 0.2559 0.41431 0.0
C277 C 0.43425 0.26367 0.37998 0.0
C278 C 0.38128 0.22929 0.39753 0.0
C279 C 0.41461 0.25359 0.35508 0.0
C280 C 0.32782 0.21309 0.38483 0.0
C281 C 0.32564 0.17601 0.44463 0.0
N282 N 0.38885 0.23715 0.36436 0.0
N283 N 0.35107 0.19299 0.43541 0.0
H284 H 0.28774 0.80346 0.88378 0.0
H285 H 0.44769 0.72121 0.93071 0.0
H286 H 0.33216 0.82336 0.9769 0.0
H287 H 0.42255 0.73991 0.82659 0.0
H288 H 0.40245 0.75278 0.95015 0.0
H289 H 0.33421 0.77415 0.86414 0.0
C290 C 0.30729 0.8017 0.90006 0.0
C291 C 0.30614 0.8159 0.93199 0.0
C292 C 0.40699 0.75003 0.92307 0.0
C293 C 0.35909 0.78207 0.90989 0.0
C294 C 0.43268 0.73193 0.91196 0.0
C295 C 0.43894 0.72797 0.87697 0.0
C296 C 0.38711 0.76368 0.89905 0.0
C297 C 0.41874 0.7425 0.85379 0.0
C298 C 0.33379 0.78508 0.8888 0.0
C299 C 0.33215 0.81291 0.95203 0.0
N300 N 0.3936 0.75947 0.86525 0.0
N301 N 0.3575 0.79607 0.94079 0.0
H302 H 0.73072 0.18108 0.39249 0.0
H303 H 0.56754 0.25854 0.44167 0.0
H304 H 0.68237 0.15808 0.48793 0.0
H305 H 0.59817 0.24516 0.33703 0.0
H306 H 0.61136 0.22557 0.46032 0.0
H307 H 0.68418 0.20862 0.37255 0.0
C308 C 0.71027 0.18172 0.40918 0.0
C309 C 0.71039 0.16733 0.44192 0.0
C310 C 0.6083 0.22966 0.43329 0.0
C311 C 0.65732 0.19909 0.41946 0.0
C312 C 0.58339 0.24856 0.42262 0.0
C313 C 0.57921 0.25464 0.38773 0.0
C314 C 0.62951 0.2173 0.40893 0.0
C315 C 0.60042 0.24097 0.36417 0.0
C316 C 0.68372 0.19732 0.39775 0.0
C317 C 0.68323 0.16879 0.46247 0.0
N318 N 0.62485 0.22324 0.37521 0.0
N319 N 0.65786 0.18472 0.45104 0.0
H320 H 0.31589 0.46392 0.86285 0.0
H321 H 0.4415 0.5824 0.92897 0.0
H322 H 0.33723 0.46946 0.96879 0.0
H323 H 0.42987 0.5619 0.82322 0.0
H324 H 0.39903 0.54649 0.94488 0.0
H325 H 0.35278 0.50588 0.84877 0.0
C326 C 0.32827 0.47405 0.88319 0.0
C327 C 0.32409 0.46255 0.91692 0.0
C328 C 0.40578 0.55003 0.91821 0.0
C329 C 0.36644 0.51063 0.90103 0.0
C330 C 0.42994 0.57056 0.90912 0.0
C331 C 0.43953 0.57494 0.87474 0.0
C332 C 0.39094 0.53408 0.8927 0.0
C333 C 0.42364 0.55899 0.85009 0.0
C334 C 0.34944 0.49792 0.87513 0.0
C335 C 0.34059 0.47674 0.94229 0.0
N336 N 0.40026 0.53932 0.85955 0.0
N337 N 0.36117 0.49994 0.93382 0.0
H338 H 0.70525 0.46015 0.50346 0.0
H339 H 0.58067 0.44683 0.36092 0.0
H340 H 0.67034 0.54062 0.44423 0.0
H341 H 0.59018 0.37584 0.44223 0.0
H342 H 0.62021 0.47797 0.38558 0.0
H343 H 0.66986 0.42548 0.47541 0.0
C344 C 0.69043 0.47044 0.48429 0.0
C345 C 0.69059 0.50332 0.47622 0.0
C346 C 0.6137 0.45556 0.39802 0.0
C347 C 0.65032 0.46395 0.44421 0.0
C348 C 0.59114 0.43766 0.38392 0.0
C349 C 0.58189 0.40868 0.39963 0.0
C350 C 0.62745 0.44441 0.42794 0.0
C351 C 0.5964 0.39815 0.42942 0.0
C352 C 0.67015 0.4507 0.46851 0.0
C353 C 0.67082 0.51545 0.45136 0.0
N354 N 0.61853 0.41603 0.44264 0.0
N355 N 0.65151 0.49577 0.43624 0.0
H356 H 0.6768 0.42547 0.88684 0.0
H357 H 0.58904 0.59091 0.92379 0.0
H358 H 0.6922 0.48073 0.97533 0.0
H359 H 0.58617 0.54254 0.82843 0.0
H360 H 0.62833 0.55208 0.94245 0.0
H361 H 0.64557 0.46963 0.86385 0.0
C362 C 0.67396 0.44705 0.90125 0.0
C363 C 0.68696 0.44926 0.93319 0.0
C364 C 0.61923 0.55016 0.91735 0.0
C365 C 0.65077 0.49981 0.90725 0.0
C366 C 0.59671 0.57227 0.90671 0.0
C367 C 0.58398 0.5699 0.87459 0.0
C368 C 0.62895 0.52538 0.89582 0.0
C369 C 0.59506 0.5453 0.8535 0.0
C370 C 0.65605 0.47227 0.88813 0.0
C371 C 0.68256 0.4779 0.95063 0.0
N372 N 0.61667 0.52393 0.86459 0.0
N373 N 0.66452 0.50189 0.93764 0.0
H374 H 0.34072 0.55745 0.39387 0.0
H375 H 0.43242 0.39519 0.43963 0.0
H376 H 0.33191 0.50815 0.49188 0.0
H377 H 0.43832 0.44457 0.34141 0.0
H378 H 0.39164 0.43304 0.45771 0.0
H379 H 0.37191 0.51273 0.37243 0.0
C380 C 0.34498 0.53703 0.41078 0.0
C381 C 0.33395 0.53676 0.44485 0.0
C382 C 0.40174 0.43539 0.43213 0.0
C383 C 0.37011 0.48555 0.42057 0.0
C384 C 0.42506 0.4138 0.42179 0.0
C385 C 0.43918 0.41687 0.38908 0.0
C386 C 0.39249 0.46022 0.40961 0.0
C387 C 0.42849 0.4414 0.36703 0.0
C388 C 0.3629 0.51149 0.39853 0.0
C389 C 0.34008 0.50951 0.46548 0.0
N390 N 0.406 0.46218 0.37777 0.0
N391 N 0.35808 0.48518 0.45315 0.0
H392 H 0.82564 -0.00698 0.97592 0.0
H393 H 0.94431 0.0295 0.8193 0.0
H394 H 0.84274 0.92888 0.89296 0.0
H395 H 0.93309 0.08822 0.90763 0.0
H396 H 0.90432 -0.00537 0.84338 0.0
H397 H 0.86123 0.03062 0.94822 0.0
C398 C 0.83662 0.98693 0.95167 0.0
C399 C 0.83129 0.95755 0.93689 0.0
C400 C 0.91058 0.01516 0.85747 0.0
C401 C 0.87248 0.00062 0.9051 0.0
C402 C 0.93349 0.03513 0.84377 0.0
C403 C 0.94231 0.06188 0.86151 0.0
C404 C 0.8962 0.02192 0.88915 0.0
C405 C 0.92726 0.06785 0.89307 0.0
C406 C 0.85709 0.00843 0.93592 0.0
C407 C 0.84616 0.95118 0.90534 0.0
N408 N 0.905 0.04804 0.90585 0.0
N409 N 0.86624 0.97244 0.89061 0.0
H410 H 0.19489 0.02281 0.40545 0.0
H411 H 0.08247 0.87503 0.43317 0.0
H412 H 0.18903 0.96364 0.49739 0.0
H413 H 0.0884 0.93288 0.34021 0.0
H414 H 0.12429 0.90497 0.45532 0.0
H415 H 0.1592 0.98756 0.37913 0.0
C416 C 0.1864 0.00221 0.41997 0.0
C417 C 0.19475 -0.00366 0.4538 0.0
C418 C 0.11655 0.91105 0.43001 0.0
C419 C 0.15372 0.9561 0.42394 0.0
C420 C 0.09257 0.89397 0.41733 0.0
C421 C 0.08163 0.90156 0.38483 0.0
C422 C 0.12972 0.93604 0.41017 0.0
C423 C 0.0959 0.92625 0.36547 0.0
C424 C 0.16595 0.98215 0.40496 0.0
C425 C 0.18306 0.96926 0.47135 0.0
N426 N 0.11907 0.94272 0.37851 0.0
N427 N 0.16298 0.95032 0.45632 0.0
H428 H 0.19495 -0.0003 0.96836 0.0
H429 H 0.09033 0.04209 0.80956 0.0
H430 H 0.18431 0.93713 0.88451 0.0
H431 H 0.0886 0.09683 0.90108 0.0
H432 H 0.13147 0.00832 0.83239 0.0
H433 H 0.1633 0.04027 0.93943 0.0
C434 C 0.1864 -0.00536 0.94361 0.0
C435 C 0.19204 0.96475 0.92904 0.0
C436 C 0.12225 0.02784 0.84739 0.0
C437 C 0.15555 0.01111 0.89592 0.0
C438 C 0.0987 0.04722 0.83437 0.0
C439 C 0.08559 0.07222 0.85358 0.0
C440 C 0.13294 0.0334 0.87987 0.0
C441 C 0.09773 0.07772 0.88546 0.0
C442 C 0.16817 0.0178 0.9272 0.0
C443 C 0.18036 0.95968 0.89687 0.0
N444 N 0.12056 0.05832 0.89769 0.0
N445 N 0.16246 0.9825 0.88155 0.0
H446 H 0.80871 0.98616 0.47763 0.0
H447 H 0.94365 0.94749 0.33957 0.0
H448 H 0.84411 0.05462 0.40239 0.0
H449 H 0.92321 0.88613 0.42766 0.0
H450 H 0.90194 0.98357 0.35767 0.0
H451 H 0.84462 0.94573 0.45436 0.0
C452 C 0.82362 0.99256 0.45584 0.0
C453 C 0.82356 0.02392 0.44208 0.0
C454 C 0.90651 0.9622 0.37305 0.0
C455 C 0.86481 0.97787 0.41561 0.0
C456 C 0.9304 0.94151 0.36275 0.0
C457 C 0.93722 0.91373 0.38226 0.0
C458 C 0.88907 0.95518 0.40305 0.0
C459 C 0.919 0.90736 0.41196 0.0
C460 C 0.84427 0.96953 0.44277 0.0
C461 C 0.84351 0.03085 0.41397 0.0
N462 N 0.89578 0.92797 0.42149 0.0
N463 N 0.86341 0.00808 0.40181 0.0
H464 H 0.4029 0.36092 0.06759 0.0
H465 H 0.43522 0.39982 0.25898 0.0
H466 H 0.35013 0.43154 0.12424 0.0
H467 H 0.46471 0.31089 0.21412 0.0
H468 H 0.40465 0.41242 0.20937 0.0
H469 H 0.42721 0.34305 0.12019 0.0
C470 C 0.39642 0.37266 0.09108 0.0
C471 C 0.3746 0.39791 0.09152 0.0
C472 C 0.41751 0.38998 0.21051 0.0
C473 C 0.40232 0.37757 0.15165 0.0
C474 C 0.43501 0.38279 0.23878 0.0
C475 C 0.45267 0.35436 0.24051 0.0
C476 C 0.41808 0.36887 0.18345 0.0
C477 C 0.45137 0.33305 0.21377 0.0
C478 C 0.41016 0.3623 0.1211 0.0
C479 C 0.3669 0.41206 0.12271 0.0
N480 N 0.4347 0.34095 0.18604 0.0
N481 N 0.38094 0.40188 0.15149 0.0
H482 H 0.72498 0.58781 0.64987 0.0
H483 H 0.58104 0.69796 0.70923 0.0
H484 H 0.68347 0.65863 0.58272 0.0
H485 H 0.60646 0.60714 0.75619 0.0
H486 H 0.62565 0.69256 0.66892 0.0
H487 H 0.68959 0.60461 0.69587 0.0
C488 C 0.70875 0.60725 0.64488 0.0
C489 C 0.70681 0.6214 0.61216 0.0
C490 C 0.6215 0.67405 0.68831 0.0
C491 C 0.66599 0.64056 0.6648 0.0
C492 C 0.59617 0.67712 0.71127 0.0
C493 C 0.58986 0.65272 0.73569 0.0
C494 C 0.64079 0.64672 0.6904 0.0
C495 C 0.61017 0.62625 0.73737 0.0
C496 C 0.68846 0.61675 0.67117 0.0
C497 C 0.68553 0.6468 0.60745 0.0
N498 N 0.63463 0.62395 0.71502 0.0
N499 N 0.6656 0.65531 0.63339 0.0
H500 H 0.68612 0.31955 0.09839 0.0
H501 H 0.60722 0.38967 0.26698 0.0
H502 H 0.7152 0.40524 0.14496 0.0
H503 H 0.58706 0.29649 0.23072 0.0
H504 H 0.64966 0.39348 0.22477 0.0
H505 H 0.65305 0.30794 0.14893 0.0
C506 C 0.68593 0.33567 0.11944 0.0
C507 C 0.70312 0.36367 0.11721 0.0
C508 C 0.63618 0.37204 0.2262 0.0
C509 C 0.66509 0.35071 0.17491 0.0
C510 C 0.61181 0.3699 0.25024 0.0
C511 C 0.59327 0.34288 0.25213 0.0
C512 C 0.64191 0.34717 0.20347 0.0
C513 C 0.60065 0.31783 0.23006 0.0
C514 C 0.667 0.32904 0.14827 0.0
C515 C 0.7021 0.38357 0.14535 0.0
N516 N 0.62416 0.32076 0.20633 0.0
N517 N 0.68309 0.37692 0.1728 0.0
H518 H 0.3101 0.59678 0.6548 0.0
H519 H 0.44954 0.70117 0.7129 0.0
H520 H 0.34918 0.67254 0.59103 0.0
H521 H 0.42751 0.60737 0.75415 0.0
H522 H 0.40632 0.69814 0.6746 0.0
H523 H 0.34577 0.60859 0.69881 0.0
C524 C 0.32588 0.61622 0.6502 0.0
C525 C 0.32698 0.63335 0.61893 0.0
C526 C 0.41097 0.67837 0.69222 0.0
C527 C 0.36807 0.64684 0.66923 0.0
C528 C 0.43554 0.68008 0.71404 0.0
C529 C 0.44237 0.6543 0.73639 0.0
C530 C 0.39289 0.65096 0.69333 0.0
C531 C 0.42343 0.6276 0.73695 0.0
C532 C 0.34634 0.62285 0.67531 0.0
C533 C 0.34777 0.6585 0.61462 0.0
N534 N 0.39963 0.62664 0.71577 0.0
N535 N 0.36776 0.6643 0.63938 0.0
H536 H 0.81487 0.92708 0.15309 0.0
H537 H 0.93455 0.79684 0.22686 0.0
H538 H 0.83376 0.83659 0.10593 0.0
H539 H 0.92892 0.89561 0.25536 0.0
H540 H 0.89193 0.80728 0.18855 0.0
H541 H 0.85012 0.91158 0.19769 0.0
C542 C 0.82614 0.90377 0.1523 0.0
C543 C 0.82164 0.88329 0.12545 0.0
C544 C 0.90003 0.82655 0.20335 0.0
C545 C 0.86234 0.86547 0.17642 0.0
C546 C 0.92431 0.82063 0.22521 0.0
C547 C 0.93558 0.84546 0.24408 0.0
C548 C 0.88675 0.8574 0.20074 0.0
C549 C 0.92134 0.8758 0.241 0.0
C550 C 0.8464 0.89498 0.17774 0.0
C551 C 0.83674 0.85325 0.126 0.0
N552 N 0.89776 0.88087 0.21976 0.0
N553 N 0.85666 0.84534 0.15093 0.0
H554 H 0.15766 0.17466 0.54331 0.0
H555 H 0.09697 0.09964 0.72065 0.0
H556 H 0.20637 0.09985 0.5986 0.0
H557 H 0.06294 0.19067 0.68152 0.0
H558 H 0.13742 0.09995 0.67587 0.0
H559 H 0.12352 0.18238 0.59365 0.0
C560 C 0.16151 0.16021 0.56616 0.0
C561 C 0.18473 0.13631 0.56655 0.0
C562 C 0.12129 0.12001 0.67718 0.0
C563 C 0.14547 0.14472 0.62398 0.0
C564 C 0.09803 0.11976 0.70265 0.0
C565 C 0.07633 0.14504 0.70468 0.0
C566 C 0.12271 0.1455 0.65314 0.0
C567 C 0.07913 0.17064 0.68086 0.0
C568 C 0.14198 0.16461 0.59487 0.0
C569 C 0.18868 0.11839 0.59695 0.0
N570 N 0.10169 0.17005 0.6558 0.0
N571 N 0.16899 0.12267 0.62423 0.0
H572 H 0.15869 0.80804 0.07492 0.0
H573 H 0.09978 0.87507 0.25293 0.0
H574 H 0.20449 0.88193 0.12644 0.0
H575 H 0.06805 0.78638 0.21532 0.0
H576 H 0.13971 0.87629 0.20763 0.0
H577 H 0.1272 0.79738 0.12689 0.0
C578 C 0.16247 0.8217 0.09728 0.0
C579 C 0.18397 0.84625 0.09614 0.0
C580 C 0.12425 0.85637 0.20941 0.0
C581 C 0.14777 0.83441 0.15549 0.0
C582 C 0.1013 0.85574 0.2352 0.0
C583 C 0.08031 0.83076 0.23769 0.0
C584 C 0.12601 0.83211 0.18549 0.0
C585 C 0.08369 0.80615 0.21426 0.0
C586 C 0.14446 0.81559 0.12695 0.0
C587 C 0.18799 0.86301 0.12598 0.0
N588 N 0.10586 0.80766 0.18881 0.0
N589 N 0.16976 0.85709 0.15424 0.0
H590 H 0.80674 0.05171 0.64147 0.0
H591 H 0.92646 0.17951 0.6998 0.0
H592 H 0.81743 0.14405 0.59097 0.0
H593 H 0.92799 0.07964 0.73067 0.0
H594 H 0.8815 0.1702 0.66591 0.0
H595 H 0.8453 0.06548 0.68154 0.0
C596 C 0.81691 0.07506 0.63903 0.0
C597 C 0.80912 0.0966 0.61253 0.0
C598 C 0.89172 0.15041 0.68021 0.0
C599 C 0.85359 0.11241 0.65823 0.0
C600 C 0.91736 0.15568 0.69952 0.0
C601 C 0.93123 0.13026 0.71787 0.0
C602 C 0.87972 0.11961 0.6796 0.0
C603 C 0.91835 0.09991 0.71666 0.0
C604 C 0.83907 0.08285 0.66185 0.0
C605 C 0.82293 0.12662 0.61086 0.0
N606 N 0.89338 0.09548 0.69789 0.0
N607 N 0.84474 0.13356 0.63323 0.0
loop_
_geom_bond_atom_site_label_1
_geom_bond_atom_site_label_2
_geom_bond_distance
_geom_bond_site_symmetry_2
_ccdc_geom_bond_type
O0 Cd1 2.300 . S
O0 C7 1.275 . S
Cd1 O0 2.300 . S
Cd1 O9 2.381 . S
Cd1 O10 2.378 . S
O2 Cd3 2.385 1_556 S
O2 C7 1.255 . S
Cd3 O2 2.385 1_554 S
Cd3 O4 2.317 . S
O4 Cd3 2.317 . S
O4 C5 1.232 . S
C5 O4 1.232 . S
C5 O6 1.218 . S
O6 C5 1.218 . S
C7 O0 1.275 . S
C7 O2 1.255 . S
C8 O9 1.258 . S
C8 O10 1.256 . S
O9 Cd1 2.381 . S
O9 C8 1.258 . S
O10 Cd1 2.378 . S
O10 C8 1.256 . S
O11 Cd12 2.300 . S
O11 C18 1.275 . S
Cd12 O11 2.300 . S
Cd12 O20 2.381 . S
Cd12 O21 2.378 . S
O13 Cd14 2.385 . S
O13 C18 1.255 . S
Cd14 O13 2.385 . S
Cd14 O15 2.317 . S
O15 Cd14 2.317 . S
O15 C16 1.232 . S
C16 O15 1.232 . S
C16 O17 1.218 . S
O17 C16 1.218 . S
C18 O11 1.275 . S
C18 O13 1.255 . S
C19 O20 1.258 . S
C19 O21 1.256 . S
O20 Cd12 2.381 . S
O20 C19 1.258 . S
O21 Cd12 2.378 . S
O21 C19 1.256 . S
O22 Cd23 2.300 . S
O22 C29 1.275 . S
Cd23 O22 2.300 . S
Cd23 O31 2.381 . S
Cd23 O32 2.378 . S
O24 Cd25 2.385 . S
O24 C29 1.255 1_554 S
Cd25 O24 2.385 . S
Cd25 O26 2.317 . S
O26 Cd25 2.317 . S
O26 C27 1.232 . S
C27 O26 1.232 . S
C27 O28 1.218 . S
O28 C27 1.218 . S
C29 O22 1.275 . S
C29 O24 1.255 1_556 S
C30 O31 1.258 . S
C30 O32 1.256 . S
O31 Cd23 2.381 . S
O31 C30 1.258 . S
O32 Cd23 2.378 . S
O32 C30 1.256 . S
O33 Cd34 2.300 . S
O33 C40 1.275 . S
Cd34 O33 2.300 . S
Cd34 O42 2.381 . S
Cd34 O43 2.378 . S
O35 Cd36 2.385 . S
O35 C40 1.255 . S
Cd36 O35 2.385 . S
Cd36 O37 2.317 . S
O37 Cd36 2.317 . S
O37 C38 1.232 . S
C38 O37 1.232 . S
C38 O39 1.218 . S
O39 C38 1.218 . S
C40 O33 1.275 . S
C40 O35 1.255 . S
C41 O42 1.258 . S
C41 O43 1.256 . S
O42 Cd34 2.381 . S
O42 C41 1.258 . S
O43 Cd34 2.378 . S
O43 C41 1.256 . S
O44 Cd45 2.300 . S
O44 C51 1.275 . S
Cd45 O44 2.300 . S
Cd45 O53 2.381 . S
Cd45 O54 2.378 . S
O46 Cd47 2.385 1_556 S
O46 C51 1.255 . S
Cd47 O46 2.385 1_554 S
Cd47 O48 2.317 . S
O48 Cd47 2.317 . S
O48 C49 1.232 . S
C49 O48 1.232 . S
C49 O50 1.218 . S
O50 C49 1.218 . S
C51 O44 1.275 . S
C51 O46 1.255 . S
C52 O53 1.258 . S
C52 O54 1.256 . S
O53 Cd45 2.381 . S
O53 C52 1.258 . S
O54 Cd45 2.378 . S
O54 C52 1.256 . S
O55 Cd56 2.300 . S
O55 C62 1.275 . S
Cd56 O55 2.300 . S
Cd56 O64 2.381 . S
Cd56 O65 2.378 . S
O57 Cd58 2.385 . S
O57 C62 1.255 . S
Cd58 O57 2.385 . S
Cd58 O59 2.317 . S
O59 Cd58 2.317 . S
O59 C60 1.232 . S
C60 O59 1.232 . S
C60 O61 1.218 . S
O61 C60 1.218 . S
C62 O55 1.275 . S
C62 O57 1.255 . S
C63 O64 1.258 . S
C63 O65 1.256 . S
O64 Cd56 2.381 . S
O64 C63 1.258 . S
O65 Cd56 2.378 . S
O65 C63 1.256 . S
O66 Cd67 2.300 . S
O66 C73 1.275 . S
Cd67 O66 2.300 . S
Cd67 O75 2.381 . S
Cd67 O76 2.378 . S
O68 Cd69 2.385 . S
O68 C73 1.255 1_554 S
Cd69 O68 2.385 . S
Cd69 O70 2.317 . S
O70 Cd69 2.317 . S
O70 C71 1.232 . S
C71 O70 1.232 . S
C71 O72 1.218 . S
O72 C71 1.218 . S
C73 O66 1.275 . S
C73 O68 1.255 1_556 S
C74 O75 1.258 . S
C74 O76 1.256 . S
O75 Cd67 2.381 . S
O75 C74 1.258 . S
O76 Cd67 2.378 . S
O76 C74 1.256 . S
O77 Cd78 2.300 . S
O77 C84 1.275 . S
Cd78 O77 2.300 . S
Cd78 O86 2.381 . S
Cd78 O87 2.378 . S
O79 Cd80 2.385 . S
O79 C84 1.255 . S
Cd80 O79 2.385 . S
Cd80 O81 2.317 . S
O81 Cd80 2.317 . S
O81 C82 1.232 . S
C82 O81 1.232 . S
C82 O83 1.218 . S
O83 C82 1.218 . S
C84 O77 1.275 . S
C84 O79 1.255 . S
C85 O86 1.258 . S
C85 O87 1.256 . S
O86 Cd78 2.381 . S
O86 C85 1.258 . S
O87 Cd78 2.378 . S
O87 C85 1.256 . S
Sc88 O91 2.025 . S
Sc88 O98 2.105 1_455 S
Sc88 O101 2.105 . S
Sc88 O104 2.105 . S
Sc88 O107 2.105 1_455 S
Sc89 O91 2.025 . S
Sc89 O99 2.105 1_455 S
Sc89 O103 2.105 . S
Sc89 O105 2.105 . S
Sc89 O109 2.105 1_455 S
Sc90 O91 2.025 . S
Sc90 O100 2.105 1_455 S
Sc90 O102 2.105 . S
Sc90 O106 2.105 . S
Sc90 O108 2.105 1_455 S
O91 Sc88 2.025 . S
O91 Sc89 2.025 . S
O91 Sc90 2.025 . S
C92 O98 1.268 . S
C92 O108 1.268 . S
C93 O99 1.268 . S
C93 O107 1.268 . S
C94 O100 1.268 . S
C94 O109 1.268 . S
C95 O101 1.268 . S
C95 O105 1.268 . S
C96 O102 1.268 . S
C96 O104 1.268 . S
C97 O103 1.268 . S
C97 O106 1.268 . S
O98 Sc88 2.105 1_655 S
O98 C92 1.268 . S
O99 Sc89 2.105 1_655 S
O99 C93 1.268 . S
O100 Sc90 2.105 1_655 S
O100 C94 1.268 . S
O101 Sc88 2.105 . S
O101 C95 1.268 . S
O102 Sc90 2.105 . S
O102 C96 1.268 . S
O103 Sc89 2.105 . S
O103 C97 1.268 . S
O104 Sc88 2.105 . S
O104 C96 1.268 . S
O105 Sc89 2.105 . S
O105 C95 1.268 . S
O106 Sc90 2.105 . S
O106 C97 1.268 . S
O107 Sc88 2.105 1_655 S
O107 C93 1.268 . S
O108 Sc90 2.105 1_655 S
O108 C92 1.268 . S
O109 Sc89 2.105 1_655 S
O109 C94 1.268 . S
Sc110 O113 2.025 . S
Sc110 O120 2.105 . S
Sc110 O123 2.105 1_455 S
Sc110 O126 2.105 1_455 S
Sc110 O129 2.105 . S
Sc111 O113 2.025 . S
Sc111 O121 2.105 . S
Sc111 O125 2.105 1_455 S
Sc111 O127 2.105 1_455 S
Sc111 O131 2.105 . S
Sc112 O113 2.025 . S
Sc112 O122 2.105 . S
Sc112 O124 2.105 1_455 S
Sc112 O128 2.105 1_455 S
Sc112 O130 2.105 . S
O113 Sc110 2.025 . S
O113 Sc111 2.025 . S
O113 Sc112 2.025 . S
C114 O120 1.268 . S
C114 O130 1.268 . S
C115 O121 1.268 . S
C115 O129 1.268 . S
C116 O122 1.268 . S
C116 O131 1.268 . S
C117 O123 1.268 . S
C117 O127 1.268 . S
C118 O124 1.268 . S
C118 O126 1.268 . S
C119 O125 1.268 . S
C119 O128 1.268 . S
O120 Sc110 2.105 . S
O120 C114 1.268 . S
O121 Sc111 2.105 . S
O121 C115 1.268 . S
O122 Sc112 2.105 . S
O122 C116 1.268 . S
O123 Sc110 2.105 1_655 S
O123 C117 1.268 . S
O124 Sc112 2.105 1_655 S
O124 C118 1.268 . S
O125 Sc111 2.105 1_655 S
O125 C119 1.268 . S
O126 Sc110 2.105 1_655 S
O126 C118 1.268 . S
O127 Sc111 2.105 1_655 S
O127 C117 1.268 . S
O128 Sc112 2.105 1_655 S
O128 C119 1.268 . S
O129 Sc110 2.105 . S
O129 C115 1.268 . S
O130 Sc112 2.105 . S
O130 C114 1.268 . S
O131 Sc111 2.105 . S
O131 C116 1.268 . S
Sc132 O135 2.025 . S
Sc132 O142 2.105 . S
Sc132 O145 2.105 . S
Sc132 O148 2.105 . S
Sc132 O151 2.105 . S
Sc133 O135 2.025 . S
Sc133 O143 2.105 . S
Sc133 O147 2.105 . S
Sc133 O149 2.105 . S
Sc133 O153 2.105 . S
Sc134 O135 2.025 . S
Sc134 O144 2.105 . S
Sc134 O146 2.105 . S
Sc134 O150 2.105 . S
Sc134 O152 2.105 . S
O135 Sc132 2.025 . S
O135 Sc133 2.025 . S
O135 Sc134 2.025 . S
C136 O142 1.268 . S
C136 O152 1.268 . S
C137 O143 1.268 . S
C137 O151 1.268 . S
C138 O144 1.268 . S
C138 O153 1.268 . S
C139 O145 1.268 . S
C139 O149 1.268 . S
C140 O146 1.268 . S
C140 O148 1.268 . S
C141 O147 1.268 . S
C141 O150 1.268 . S
O142 Sc132 2.105 . S
O142 C136 1.268 . S
O143 Sc133 2.105 . S
O143 C137 1.268 . S
O144 Sc134 2.105 . S
O144 C138 1.268 . S
O145 Sc132 2.105 . S
O145 C139 1.268 . S
O146 Sc134 2.105 . S
O146 C140 1.268 . S
O147 Sc133 2.105 . S
O147 C141 1.268 . S
O148 Sc132 2.105 . S
O148 C140 1.268 . S
O149 Sc133 2.105 . S
O149 C139 1.268 . S
O150 Sc134 2.105 . S
O150 C141 1.268 . S
O151 Sc132 2.105 . S
O151 C137 1.268 . S
O152 Sc134 2.105 . S
O152 C136 1.268 . S
O153 Sc133 2.105 . S
O153 C138 1.268 . S
Sc154 O157 2.025 . S
Sc154 O164 2.105 . S
Sc154 O167 2.105 . S
Sc154 O170 2.105 . S
Sc154 O173 2.105 . S
Sc155 O157 2.025 . S
Sc155 O165 2.105 . S
Sc155 O169 2.105 . S
Sc155 O171 2.105 . S
Sc155 O175 2.105 . S
Sc156 O157 2.025 . S
Sc156 O166 2.105 . S
Sc156 O168 2.105 . S
Sc156 O172 2.105 . S
Sc156 O174 2.105 . S
O157 Sc154 2.025 . S
O157 Sc155 2.025 . S
O157 Sc156 2.025 . S
C158 O164 1.268 . S
C158 O174 1.268 . S
C159 O165 1.268 . S
C159 O173 1.268 . S
C160 O166 1.268 . S
C160 O175 1.268 . S
C161 O167 1.268 . S
C161 O171 1.268 . S
C162 O168 1.268 . S
C162 O170 1.268 . S
C163 O169 1.268 . S
C163 O172 1.268 . S
O164 Sc154 2.105 . S
O164 C158 1.268 . S
O165 Sc155 2.105 . S
O165 C159 1.268 . S
O166 Sc156 2.105 . S
O166 C160 1.268 . S
O167 Sc154 2.105 . S
O167 C161 1.268 . S
O168 Sc156 2.105 . S
O168 C162 1.268 . S
O169 Sc155 2.105 . S
O169 C163 1.268 . S
O170 Sc154 2.105 . S
O170 C162 1.268 . S
O171 Sc155 2.105 . S
O171 C161 1.268 . S
O172 Sc156 2.105 . S
O172 C163 1.268 . S
O173 Sc154 2.105 . S
O173 C159 1.268 . S
O174 Sc156 2.105 . S
O174 C158 1.268 . S
O175 Sc155 2.105 . S
O175 C160 1.268 . S
H176 C182 0.930 . S
H177 C186 0.930 . S
H178 C191 0.929 . S
H179 C189 0.929 . S
H180 C184 0.929 . S
H181 C190 0.929 . S
C182 H176 0.930 . S
C182 C183 1.367 . S
C182 C190 1.378 . S
C183 C182 1.367 . S
C183 C191 1.433 . S
C184 H180 0.929 . S
C184 C186 1.378 . S
C184 C188 1.350 . S
C185 C188 1.463 . S
C185 C190 1.350 . S
C185 N193 1.427 . S
C186 H177 0.930 . S
C186 C184 1.378 . S
C186 C187 1.367 . S
C187 C186 1.367 . S
C187 C189 1.433 . S
C188 C184 1.350 . S
C188 C185 1.463 . S
C188 N192 1.427 . S
C189 H179 0.929 . S
C189 C187 1.433 . S
C189 N192 1.384 . S
C190 H181 0.929 . S
C190 C182 1.378 . S
C190 C185 1.350 . S
C191 H178 0.929 . S
C191 C183 1.433 . S
C191 N193 1.384 . S
N192 C188 1.427 . S
N192 C189 1.384 . S
N193 C185 1.427 . S
N193 C191 1.384 . S
H194 C200 0.930 . S
H195 C204 0.930 . S
H196 C209 0.929 . S
H197 C207 0.929 . S
H198 C202 0.929 . S
H199 C208 0.929 . S
C200 H194 0.930 . S
C200 C201 1.367 . S
C200 C208 1.378 . S
C201 C200 1.367 . S
C201 C209 1.433 . S
C202 H198 0.929 . S
C202 C204 1.378 . S
C202 C206 1.350 . S
C203 C206 1.463 . S
C203 C208 1.350 . S
C203 N211 1.427 . S
C204 H195 0.930 . S
C204 C202 1.378 . S
C204 C205 1.367 . S
C205 C204 1.367 . S
C205 C207 1.433 . S
C206 C202 1.350 . S
C206 C203 1.463 . S
C206 N210 1.427 . S
C207 H197 0.929 . S
C207 C205 1.433 . S
C207 N210 1.384 . S
C208 H199 0.929 . S
C208 C200 1.378 . S
C208 C203 1.350 . S
C209 H196 0.929 . S
C209 C201 1.433 . S
C209 N211 1.384 . S
N210 C206 1.427 . S
N210 C207 1.384 . S
N211 C203 1.427 . S
N211 C209 1.384 . S
H212 C218 0.930 . S
H213 C222 0.930 . S
H214 C227 0.929 . S
H215 C225 0.929 . S
H216 C220 0.929 . S
H217 C226 0.929 . S
C218 H212 0.930 . S
C218 C219 1.367 . S
C218 C226 1.378 . S
C219 C218 1.367 . S
C219 C227 1.433 . S
C220 H216 0.929 . S
C220 C222 1.378 . S
C220 C224 1.350 . S
C221 C224 1.463 . S
C221 C226 1.350 . S
C221 N229 1.427 . S
C222 H213 0.930 . S
C222 C220 1.378 . S
C222 C223 1.367 . S
C223 C222 1.367 . S
C223 C225 1.433 . S
C224 C220 1.350 . S
C224 C221 1.463 . S
C224 N228 1.427 . S
C225 H215 0.929 . S
C225 C223 1.433 . S
C225 N228 1.384 . S
C226 H217 0.929 . S
C226 C218 1.378 . S
C226 C221 1.350 . S
C227 H214 0.929 . S
C227 C219 1.433 . S
C227 N229 1.384 . S
N228 C224 1.427 . S
N228 C225 1.384 . S
N229 C221 1.427 . S
N229 C227 1.384 . S
H230 C236 0.930 . S
H231 C240 0.930 . S
H232 C245 0.929 . S
H233 C243 0.929 . S
H234 C238 0.929 . S
H235 C244 0.929 . S
C236 H230 0.930 . S
C236 C237 1.367 . S
C236 C244 1.378 . S
C237 C236 1.367 . S
C237 C245 1.433 . S
C238 H234 0.929 . S
C238 C240 1.378 . S
C238 C242 1.350 . S
C239 C242 1.463 . S
C239 C244 1.350 . S
C239 N247 1.427 . S
C240 H231 0.930 . S
C240 C238 1.378 . S
C240 C241 1.367 . S
C241 C240 1.367 . S
C241 C243 1.433 . S
C242 C238 1.350 . S
C242 C239 1.463 . S
C242 N246 1.427 . S
C243 H233 0.929 . S
C243 C241 1.433 . S
C243 N246 1.384 . S
C244 H235 0.929 . S
C244 C236 1.378 . S
C244 C239 1.350 . S
C245 H232 0.929 . S
C245 C237 1.433 . S
C245 N247 1.384 . S
N246 C242 1.427 . S
N246 C243 1.384 . S
N247 C239 1.427 . S
N247 C245 1.384 . S
H248 C254 0.930 . S
H249 C258 0.930 . S
H250 C263 0.929 . S
H251 C261 0.929 . S
H252 C256 0.929 . S
H253 C262 0.929 . S
C254 H248 0.930 . S
C254 C255 1.367 . S
C254 C262 1.378 . S
C255 C254 1.367 . S
C255 C263 1.433 . S
C256 H252 0.929 . S
C256 C258 1.378 . S
C256 C260 1.350 . S
C257 C260 1.463 . S
C257 C262 1.350 . S
C257 N265 1.427 . S
C258 H249 0.930 . S
C258 C256 1.378 . S
C258 C259 1.367 . S
C259 C258 1.367 . S
C259 C261 1.433 . S
C260 C256 1.350 . S
C260 C257 1.463 . S
C260 N264 1.427 . S
C261 H251 0.929 . S
C261 C259 1.433 . S
C261 N264 1.384 . S
C262 H253 0.929 . S
C262 C254 1.378 . S
C262 C257 1.350 . S
C263 H250 0.929 . S
C263 C255 1.433 . S
C263 N265 1.384 . S
N264 C260 1.427 . S
N264 C261 1.384 . S
N265 C257 1.427 . S
N265 C263 1.384 . S
H266 C272 0.930 . S
H267 C276 0.930 . S
H268 C281 0.929 . S
H269 C279 0.929 . S
H270 C274 0.929 . S
H271 C280 0.929 . S
C272 H266 0.930 . S
C272 C273 1.367 . S
C272 C280 1.378 . S
C273 C272 1.367 . S
C273 C281 1.433 . S
C274 H270 0.929 . S
C274 C276 1.378 . S
C274 C278 1.350 . S
C275 C278 1.463 . S
C275 C280 1.350 . S
C275 N283 1.427 . S
C276 H267 0.930 . S
C276 C274 1.378 . S
C276 C277 1.367 . S
C277 C276 1.367 . S
C277 C279 1.433 . S
C278 C274 1.350 . S
C278 C275 1.463 . S
C278 N282 1.427 . S
C279 H269 0.929 . S
C279 C277 1.433 . S
C279 N282 1.384 . S
C280 H271 0.929 . S
C280 C272 1.378 . S
C280 C275 1.350 . S
C281 H268 0.929 . S
C281 C273 1.433 . S
C281 N283 1.384 . S
N282 C278 1.427 . S
N282 C279 1.384 . S
N283 C275 1.427 . S
N283 C281 1.384 . S
H284 C290 0.930 . S
H285 C294 0.930 . S
H286 C299 0.929 . S
H287 C297 0.929 . S
H288 C292 0.929 . S
H289 C298 0.929 . S
C290 H284 0.930 . S
C290 C291 1.367 . S
C290 C298 1.378 . S
C291 C290 1.367 . S
C291 C299 1.433 . S
C292 H288 0.929 . S
C292 C294 1.378 . S
C292 C296 1.350 . S
C293 C296 1.463 . S
C293 C298 1.350 . S
C293 N301 1.427 . S
C294 H285 0.930 . S
C294 C292 1.378 . S
C294 C295 1.367 . S
C295 C294 1.367 . S
C295 C297 1.433 . S
C296 C292 1.350 . S
C296 C293 1.463 . S
C296 N300 1.427 . S
C297 H287 0.929 . S
C297 C295 1.433 . S
C297 N300 1.384 . S
C298 H289 0.929 . S
C298 C290 1.378 . S
C298 C293 1.350 . S
C299 H286 0.929 . S
C299 C291 1.433 . S
C299 N301 1.384 . S
N300 C296 1.427 . S
N300 C297 1.384 . S
N301 C293 1.427 . S
N301 C299 1.384 . S
H302 C308 0.930 . S
H303 C312 0.930 . S
H304 C317 0.929 . S
H305 C315 0.929 . S
H306 C310 0.929 . S
H307 C316 0.929 . S
C308 H302 0.930 . S
C308 C309 1.367 . S
C308 C316 1.378 . S
C309 C308 1.367 . S
C309 C317 1.433 . S
C310 H306 0.929 . S
C310 C312 1.378 . S
C310 C314 1.350 . S
C311 C314 1.463 . S
C311 C316 1.350 . S
C311 N319 1.427 . S
C312 H303 0.930 . S
C312 C310 1.378 . S
C312 C313 1.367 . S
C313 C312 1.367 . S
C313 C315 1.433 . S
C314 C310 1.350 . S
C314 C311 1.463 . S
C314 N318 1.427 . S
C315 H305 0.929 . S
C315 C313 1.433 . S
C315 N318 1.384 . S
C316 H307 0.929 . S
C316 C308 1.378 . S
C316 C311 1.350 . S
C317 H304 0.929 . S
C317 C309 1.433 . S
C317 N319 1.384 . S
N318 C314 1.427 . S
N318 C315 1.384 . S
N319 C311 1.427 . S
N319 C317 1.384 . S
H320 C326 0.930 . S
H321 C330 0.930 . S
H322 C335 0.939 . S
H323 C333 0.929 . S
H324 C328 0.929 . S
H325 C334 0.929 . S
C326 H320 0.930 . S
C326 C327 1.367 . S
C326 C334 1.378 . S
C327 C326 1.367 . S
C327 C335 1.433 . S
C328 H324 0.929 . S
C328 C330 1.378 . S
C328 C332 1.350 . S
C329 C332 1.463 . S
C329 C334 1.350 . S
C329 N337 1.427 . S
C330 H321 0.930 . S
C330 C328 1.378 . S
C330 C331 1.367 . S
C331 C330 1.367 . S
C331 C333 1.433 . S
C332 C328 1.350 . S
C332 C329 1.463 . S
C332 N336 1.427 . S
C333 H323 0.929 . S
C333 C331 1.433 . S
C333 N336 1.384 . S
C334 H325 0.929 . S
C334 C326 1.378 . S
C334 C329 1.350 . S
C335 H322 0.939 . S
C335 C327 1.433 . S
C335 N337 1.384 . S
N336 C332 1.427 . S
N336 C333 1.384 . S
N337 C329 1.427 . S
N337 C335 1.384 . S
H338 C344 0.930 . S
H339 C348 0.930 . S
H340 C353 0.929 . S
H341 C351 0.929 . S
H342 C346 0.929 . S
H343 C352 0.929 . S
C344 H338 0.930 . S
C344 C345 1.367 . S
C344 C352 1.378 . S
C345 C344 1.367 . S
C345 C353 1.433 . S
C346 H342 0.929 . S
C346 C348 1.378 . S
C346 C350 1.350 . S
C347 C350 1.463 . S
C347 C352 1.350 . S
C347 N355 1.427 . S
C348 H339 0.930 . S
C348 C346 1.378 . S
C348 C349 1.367 . S
C349 C348 1.367 . S
C349 C351 1.433 . S
C350 C346 1.350 . S
C350 C347 1.463 . S
C350 N354 1.427 . S
C351 H341 0.929 . S
C351 C349 1.433 . S
C351 N354 1.384 . S
C352 H343 0.929 . S
C352 C344 1.378 . S
C352 C347 1.350 . S
C353 H340 0.929 . S
C353 C345 1.433 . S
C353 N355 1.384 . S
N354 C350 1.427 . S
N354 C351 1.384 . S
N355 C347 1.427 . S
N355 C353 1.384 . S
H356 C362 0.930 . S
H357 C366 0.930 . S
H358 C371 0.929 . S
H359 C369 0.929 . S
H360 C364 0.929 . S
H361 C370 0.929 . S
C362 H356 0.930 . S
C362 C363 1.367 . S
C362 C370 1.378 . S
C363 C362 1.367 . S
C363 C371 1.433 . S
C364 H360 0.929 . S
C364 C366 1.378 . S
C364 C368 1.350 . S
C365 C368 1.463 . S
C365 C370 1.350 . S
C365 N373 1.427 . S
C366 H357 0.930 . S
C366 C364 1.378 . S
C366 C367 1.367 . S
C367 C366 1.367 . S
C367 C369 1.433 . S
C368 C364 1.350 . S
C368 C365 1.463 . S
C368 N372 1.427 . S
C369 H359 0.929 . S
C369 C367 1.433 . S
C369 N372 1.384 . S
C370 H361 0.929 . S
C370 C362 1.378 . S
C370 C365 1.350 . S
C371 H358 0.929 . S
C371 C363 1.433 . S
C371 N373 1.384 . S
N372 C368 1.427 . S
N372 C369 1.384 . S
N373 C365 1.427 . S
N373 C371 1.384 . S
H374 C380 0.930 . S
H375 C384 0.930 . S
H376 C389 0.929 . S
H377 C387 0.929 . S
H378 C382 0.929 . S
H379 C388 0.929 . S
C380 H374 0.930 . S
C380 C381 1.367 . S
C380 C388 1.378 . S
C381 C380 1.367 . S
C381 C389 1.433 . S
C382 H378 0.929 . S
C382 C384 1.378 . S
C382 C386 1.350 . S
C383 C386 1.463 . S
C383 C388 1.350 . S
C383 N391 1.427 . S
C384 H375 0.930 . S
C384 C382 1.378 . S
C384 C385 1.367 . S
C385 C384 1.367 . S
C385 C387 1.433 . S
C386 C382 1.350 . S
C386 C383 1.463 . S
C386 N390 1.427 . S
C387 H377 0.929 . S
C387 C385 1.433 . S
C387 N390 1.384 . S
C388 H379 0.929 . S
C388 C380 1.378 . S
C388 C383 1.350 . S
C389 H376 0.929 . S
C389 C381 1.433 . S
C389 N391 1.384 . S
N390 C386 1.427 . S
N390 C387 1.384 . S
N391 C383 1.427 . S
N391 C389 1.384 . S
H392 C398 0.930 1_554 S
H393 C402 0.930 . S
H394 C407 0.929 . S
H395 C405 0.929 . S
H396 C400 0.929 . S
H397 C406 0.929 1_545 S
C398 H392 0.930 1_556 S
C398 C399 1.367 . S
C398 C406 1.378 . S
C399 C398 1.367 . S
C399 C407 1.433 . S
C400 H396 0.929 . S
C400 C402 1.378 . S
C400 C404 1.350 . S
C401 C404 1.463 1_565 S
C401 C406 1.350 . S
C401 N409 1.427 . S
C402 H393 0.930 . S
C402 C400 1.378 . S
C402 C403 1.367 . S
C403 C402 1.367 . S
C403 C405 1.433 . S
C404 C400 1.350 . S
C404 C401 1.463 1_545 S
C404 N408 1.427 . S
C405 H395 0.929 . S
C405 C403 1.433 . S
C405 N408 1.384 . S
C406 H397 0.929 1_565 S
C406 C398 1.378 . S
C406 C401 1.350 . S
C407 H394 0.929 . S
C407 C399 1.433 . S
C407 N409 1.384 . S
N408 C404 1.427 . S
N408 C405 1.384 . S
N409 C401 1.427 . S
N409 C407 1.384 . S
H410 C416 0.929 1_565 S
H411 C420 0.930 . S
H412 C425 0.929 . S
H413 C423 0.929 . S
H414 C418 0.929 . S
H415 C424 0.929 . S
C416 H410 0.929 1_545 S
C416 C417 1.367 . S
C416 C424 1.378 1_545 S
C417 C416 1.367 . S
C417 C425 1.433 . S
C418 H414 0.929 . S
C418 C420 1.378 . S
C418 C422 1.350 . S
C419 C422 1.463 . S
C419 C424 1.350 . S
C419 N427 1.427 1_565 S
C420 H411 0.930 . S
C420 C418 1.378 . S
C420 C421 1.367 . S
C421 C420 1.367 . S
C421 C423 1.433 . S
C422 C418 1.350 . S
C422 C419 1.463 . S
C422 N426 1.427 . S
C423 H413 0.929 . S
C423 C421 1.433 . S
C423 N426 1.384 . S
C424 H415 0.929 . S
C424 C416 1.378 1_565 S
C424 C419 1.350 . S
C425 H412 0.929 . S
C425 C417 1.433 . S
C425 N427 1.384 . S
N426 C422 1.427 . S
N426 C423 1.384 . S
N427 C419 1.427 1_545 S
N427 C425 1.384 . S
H428 C434 0.930 . S
H429 C438 0.930 . S
H430 C443 0.929 . S
H431 C441 0.929 . S
H432 C436 0.929 . S
H433 C442 0.929 . S
C434 H428 0.930 . S
C434 C435 1.367 . S
C434 C442 1.378 . S
C435 C434 1.367 . S
C435 C443 1.433 . S
C436 H432 0.929 . S
C436 C438 1.378 . S
C436 C440 1.350 . S
C437 C440 1.463 1_565 S
C437 C442 1.350 . S
C437 N445 1.427 . S
C438 H429 0.930 . S
C438 C436 1.378 . S
C438 C439 1.367 . S
C439 C438 1.367 . S
C439 C441 1.433 . S
C440 C436 1.350 . S
C440 C437 1.463 1_545 S
C440 N444 1.427 . S
C441 H431 0.929 . S
C441 C439 1.433 . S
C441 N444 1.384 . S
C442 H433 0.929 . S
C442 C434 1.378 . S
C442 C437 1.350 . S
C443 H430 0.929 . S
C443 C435 1.433 . S
C443 N445 1.384 . S
N444 C440 1.427 . S
N444 C441 1.384 . S
N445 C437 1.427 . S
N445 C443 1.384 . S
H446 C452 0.930 . S
H447 C456 0.930 . S
H448 C461 0.929 . S
H449 C459 0.929 . S
H450 C454 0.929 1_545 S
H451 C460 0.929 1_565 S
C452 H446 0.930 . S
C452 C453 1.367 . S
C452 C460 1.378 . S
C453 C452 1.367 . S
C453 C461 1.433 . S
C454 H450 0.929 1_565 S
C454 C456 1.378 . S
C454 C458 1.350 . S
C455 C458 1.463 1_545 S
C455 C460 1.350 . S
C455 N463 1.427 . S
C456 H447 0.930 . S
C456 C454 1.378 . S
C456 C457 1.367 . S
C457 C456 1.367 . S
C457 C459 1.433 . S
C458 C454 1.350 . S
C458 C455 1.463 1_565 S
C458 N462 1.427 . S
C459 H449 0.929 . S
C459 C457 1.433 . S
C459 N462 1.384 . S
C460 H451 0.929 1_545 S
C460 C452 1.378 . S
C460 C455 1.350 . S
C461 H448 0.929 . S
C461 C453 1.433 . S
C461 N463 1.384 . S
N462 C458 1.427 . S
N462 C459 1.384 . S
N463 C455 1.427 . S
N463 C461 1.384 . S
H464 C470 0.930 . S
H465 C474 0.930 . S
H466 C479 0.929 . S
H467 C477 0.929 . S
H468 C472 0.929 . S
H469 C478 0.929 . S
C470 H464 0.930 . S
C470 C471 1.367 . S
C470 C478 1.378 . S
C471 C470 1.367 . S
C471 C479 1.433 . S
C472 H468 0.929 . S
C472 C474 1.378 . S
C472 C476 1.350 . S
C473 C476 1.463 . S
C473 C478 1.350 . S
C473 N481 1.427 . S
C474 H465 0.930 . S
C474 C472 1.378 . S
C474 C475 1.367 . S
C475 C474 1.367 . S
C475 C477 1.433 . S
C476 C472 1.350 . S
C476 C473 1.463 . S
C476 N480 1.427 . S
C477 H467 0.929 . S
C477 C475 1.433 . S
C477 N480 1.384 . S
C478 H469 0.929 . S
C478 C470 1.378 . S
C478 C473 1.350 . S
C479 H466 0.929 . S
C479 C471 1.433 . S
C479 N481 1.384 . S
N480 C476 1.427 . S
N480 C477 1.384 . S
N481 C473 1.427 . S
N481 C479 1.384 . S
H482 C488 0.930 . S
H483 C492 0.930 . S
H484 C497 0.929 . S
H485 C495 0.929 . S
H486 C490 0.929 . S
H487 C496 0.929 . S
C488 H482 0.930 . S
C488 C489 1.367 . S
C488 C496 1.378 . S
C489 C488 1.367 . S
C489 C497 1.433 . S
C490 H486 0.929 . S
C490 C492 1.378 . S
C490 C494 1.350 . S
C491 C494 1.463 . S
C491 C496 1.350 . S
C491 N499 1.427 . S
C492 H483 0.930 . S
C492 C490 1.378 . S
C492 C493 1.367 . S
C493 C492 1.367 . S
C493 C495 1.433 . S
C494 C490 1.350 . S
C494 C491 1.463 . S
C494 N498 1.427 . S
C495 H485 0.929 . S
C495 C493 1.433 . S
C495 N498 1.384 . S
C496 H487 0.929 . S
C496 C488 1.378 . S
C496 C491 1.350 . S
C497 H484 0.929 . S
C497 C489 1.433 . S
C497 N499 1.384 . S
N498 C494 1.427 . S
N498 C495 1.384 . S
N499 C491 1.427 . S
N499 C497 1.384 . S
H500 C506 0.930 . S
H501 C510 0.930 . S
H502 C515 0.929 . S
H503 C513 0.929 . S
H504 C508 0.929 . S
H505 C514 0.929 . S
C506 H500 0.930 . S
C506 C507 1.367 . S
C506 C514 1.378 . S
C507 C506 1.367 . S
C507 C515 1.433 . S
C508 H504 0.929 . S
C508 C510 1.378 . S
C508 C512 1.350 . S
C509 C512 1.463 . S
C509 C514 1.350 . S
C509 N517 1.427 . S
C510 H501 0.930 . S
C510 C508 1.378 . S
C510 C511 1.367 . S
C511 C510 1.367 . S
C511 C513 1.433 . S
C512 C508 1.350 . S
C512 C509 1.463 . S
C512 N516 1.427 . S
C513 H503 0.929 . S
C513 C511 1.433 . S
C513 N516 1.384 . S
C514 H505 0.929 . S
C514 C506 1.378 . S
C514 C509 1.350 . S
C515 H502 0.929 . S
C515 C507 1.433 . S
C515 N517 1.384 . S
N516 C512 1.427 . S
N516 C513 1.384 . S
N517 C509 1.427 . S
N517 C515 1.384 . S
H518 C524 0.930 . S
H519 C528 0.930 . S
H520 C533 0.929 . S
H521 C531 0.929 . S
H522 C526 0.929 . S
H523 C532 0.929 . S
C524 H518 0.930 . S
C524 C525 1.367 . S
C524 C532 1.378 . S
C525 C524 1.367 . S
C525 C533 1.433 . S
C526 H522 0.929 . S
C526 C528 1.378 . S
C526 C530 1.350 . S
C527 C530 1.463 . S
C527 C532 1.350 . S
C527 N535 1.427 . S
C528 H519 0.930 . S
C528 C526 1.378 . S
C528 C529 1.367 . S
C529 C528 1.367 . S
C529 C531 1.433 . S
C530 C526 1.350 . S
C530 C527 1.463 . S
C530 N534 1.427 . S
C531 H521 0.929 . S
C531 C529 1.433 . S
C531 N534 1.384 . S
C532 H523 0.929 . S
C532 C524 1.378 . S
C532 C527 1.350 . S
C533 H520 0.929 . S
C533 C525 1.433 . S
C533 N535 1.384 . S
N534 C530 1.427 . S
N534 C531 1.384 . S
N535 C527 1.427 . S
N535 C533 1.384 . S
H536 C542 0.930 . S
H537 C546 0.930 . S
H538 C551 0.929 . S
H539 C549 0.929 . S
H540 C544 0.929 . S
H541 C550 0.929 . S
C542 H536 0.930 . S
C542 C543 1.367 . S
C542 C550 1.378 . S
C543 C542 1.367 . S
C543 C551 1.433 . S
C544 H540 0.929 . S
C544 C546 1.378 . S
C544 C548 1.350 . S
C545 C548 1.463 . S
C545 C550 1.350 . S
C545 N553 1.427 . S
C546 H537 0.930 . S
C546 C544 1.378 . S
C546 C547 1.367 . S
C547 C546 1.367 . S
C547 C549 1.433 . S
C548 C544 1.350 . S
C548 C545 1.463 . S
C548 N552 1.427 . S
C549 H539 0.929 . S
C549 C547 1.433 . S
C549 N552 1.384 . S
C550 H541 0.929 . S
C550 C542 1.378 . S
C550 C545 1.350 . S
C551 H538 0.929 . S
C551 C543 1.433 . S
C551 N553 1.384 . S
N552 C548 1.427 . S
N552 C549 1.384 . S
N553 C545 1.427 . S
N553 C551 1.384 . S
H554 C560 0.930 . S
H555 C564 0.930 . S
H556 C569 0.929 . S
H557 C567 0.929 . S
H558 C562 0.929 . S
H559 C568 0.929 . S
C560 H554 0.930 . S
C560 C561 1.367 . S
C560 C568 1.378 . S
C561 C560 1.367 . S
C561 C569 1.433 . S
C562 H558 0.929 . S
C562 C564 1.378 . S
C562 C566 1.350 . S
C563 C566 1.463 . S
C563 C568 1.350 . S
C563 N571 1.427 . S
C564 H555 0.930 . S
C564 C562 1.378 . S
C564 C565 1.367 . S
C565 C564 1.367 . S
C565 C567 1.433 . S
C566 C562 1.350 . S
C566 C563 1.463 . S
C566 N570 1.427 . S
C567 H557 0.929 . S
C567 C565 1.433 . S
C567 N570 1.384 . S
C568 H559 0.929 . S
C568 C560 1.378 . S
C568 C563 1.350 . S
C569 H556 0.929 . S
C569 C561 1.433 . S
C569 N571 1.384 . S
N570 C566 1.427 . S
N570 C567 1.384 . S
N571 C563 1.427 . S
N571 C569 1.384 . S
H572 C578 0.930 . S
H573 C582 0.930 . S
H574 C587 0.929 . S
H575 C585 0.929 . S
H576 C580 0.929 . S
H577 C586 0.929 . S
C578 H572 0.930 . S
C578 C579 1.367 . S
C578 C586 1.378 . S
C579 C578 1.367 . S
C579 C587 1.433 . S
C580 H576 0.929 . S
C580 C582 1.378 . S
C580 C584 1.350 . S
C581 C584 1.463 . S
C581 C586 1.350 . S
C581 N589 1.427 . S
C582 H573 0.930 . S
C582 C580 1.378 . S
C582 C583 1.367 . S
C583 C582 1.367 . S
C583 C585 1.433 . S
C584 C580 1.350 . S
C584 C581 1.463 . S
C584 N588 1.427 . S
C585 H575 0.929 . S
C585 C583 1.433 . S
C585 N588 1.384 . S
C586 H577 0.929 . S
C586 C578 1.378 . S
C586 C581 1.350 . S
C587 H574 0.929 . S
C587 C579 1.433 . S
C587 N589 1.384 . S
N588 C584 1.427 . S
N588 C585 1.384 . S
N589 C581 1.427 . S
N589 C587 1.384 . S
H590 C596 0.930 . S
H591 C600 0.930 . S
H592 C605 0.929 . S
H593 C603 0.929 . S
H594 C598 0.929 . S
H595 C604 0.929 . S
C596 H590 0.930 . S
C596 C597 1.367 . S
C596 C604 1.378 . S
C597 C596 1.367 . S
C597 C605 1.433 . S
C598 H594 0.929 . S
C598 C600 1.378 . S
C598 C602 1.350 . S
C599 C602 1.463 . S
C599 C604 1.350 . S
C599 N607 1.427 . S
C600 H591 0.930 . S
C600 C598 1.378 . S
C600 C601 1.367 . S
C601 C600 1.367 . S
C601 C603 1.433 . S
C602 C598 1.350 . S
C602 C599 1.463 . S
C602 N606 1.427 . S
C603 H593 0.929 . S
C603 C601 1.433 . S
C603 N606 1.384 . S
C604 H595 0.929 . S
C604 C596 1.378 . S
C604 C599 1.350 . S
C605 H592 0.929 . S
C605 C597 1.433 . S
C605 N607 1.384 . S
N606 C602 1.427 . S
N606 C603 1.384 . S
N607 C599 1.427 . S
N607 C605 1.384 . S
C183 C8 1.694 . S
C187 C114 1.696 . S
C205 C92 1.401 . S
C201 C19 1.431 . S
C223 C118 1.519 . S
C219 C30 1.548 . S
C241 C96 1.526 . S
C237 C41 1.551 . S
C259 C158 1.687 . S
C255 C52 1.685 . S
C277 C136 1.395 . S
C273 C63 1.429 . S
C291 C74 1.549 . S
C295 C162 1.513 . S
C313 C140 1.521 . S
C309 C85 1.551 . S
C327 C7 1.662 . S
C331 C163 1.712 . S
C349 C141 1.327 . S
C345 C16 1.219 . S
C363 C29 1.577 . S
C367 C160 1.566 . S
C381 C40 1.514 . S
C385 C138 1.501 . S
C403 C119 1.716 . S
C399 C51 1.667 . S
C417 C60 1.226 . S
C421 C97 1.326 . S
C439 C116 1.575 . S
C435 C73 1.583 . S
C457 C94 1.505 . S
C453 C84 1.517 . S
C475 C137 1.467 . S
C471 C5 1.197 . S
C493 C159 1.461 . S
C489 C18 1.474 . S
C507 C27 1.360 . S
C511 C139 1.463 . S
C529 C161 1.459 . S
C525 C38 1.338 . S
C547 C93 1.468 . S
C543 C49 1.205 . S
C561 C62 1.474 . S
C565 C115 1.462 . S
C579 C71 1.368 . S
C583 C95 1.469 . S
C597 C82 1.331 . S
C601 C117 1.458 . S
