# Generated by pormake.
# Topology zzz, (3,6)-cn, num edge types: 1
# Building blocks:
#     Node 0, Type 0, BuildingBlock: WUSLED_clean_sbu_0, # of connection points: 3
#     Node 1, Type 0, BuildingBlock: WUSLED_clean_sbu_0, # of connection points: 3
#     Node 2, Type 0, BuildingBlock: WUSLED_clean_sbu_0, # of connection points: 3
#     Node 3, Type 0, BuildingBlock: WUSLED_clean_sbu_0, # of connection points: 3
#     Node 4, Type 0, BuildingBlock: WUSLED_clean_sbu_0, # of connection points: 3
#     Node 5, Type 0, BuildingBlock: WUSLED_clean_sbu_0, # of connection points: 3
#     Node 6, Type 0, BuildingBlock: WUSLED_clean_sbu_0, # of connection points: 3
#     Node 7, Type 0, BuildingBlock: WUSLED_clean_sbu_0, # of connection points: 3
#     Node 8, Type 1, BuildingBlock: INOVEN_clean_sbu_0, # of connection points: 6
#     Node 9, Type 1, BuildingBlock: INOVEN_clean_sbu_0, # of connection points: 6
#     Node 10, Type 1, BuildingBlock: INOVEN_clean_sbu_0, # of connection points: 6
#     Node 11, Type 1, BuildingBlock: INOVEN_clean_sbu_0, # of connection points: 6
#     Edge 12, Type (0, 1), BuildingBlock: CIFDUS_clean_linker_0, # of connection points: 2
#     Edge 13, Type (0, 1), BuildingBlock: CIFDUS_clean_linker_0, # of connection points: 2
#     Edge 14, Type (0, 1), BuildingBlock: CIFDUS_clean_linker_0, # of connection points: 2
#     Edge 15, Type (0, 1), BuildingBlock: CIFDUS_clean_linker_0, # of connection points: 2
#     Edge 16, Type (0, 1), BuildingBlock: CIFDUS_clean_linker_0, # of connection points: 2
#     Edge 17, Type (0, 1), BuildingBlock: CIFDUS_clean_linker_0, # of connection points: 2
#     Edge 18, Type (0, 1), BuildingBlock: CIFDUS_clean_linker_0, # of connection points: 2
#     Edge 19, Type (0, 1), BuildingBlock: CIFDUS_clean_linker_0, # of connection points: 2
#     Edge 20, Type (0, 1), BuildingBlock: CIFDUS_clean_linker_0, # of connection points: 2
#     Edge 21, Type (0, 1), BuildingBlock: CIFDUS_clean_linker_0, # of connection points: 2
#     Edge 22, Type (0, 1), BuildingBlock: CIFDUS_clean_linker_0, # of connection points: 2
#     Edge 23, Type (0, 1), BuildingBlock: CIFDUS_clean_linker_0, # of connection points: 2
#     Edge 24, Type (0, 1), BuildingBlock: CIFDUS_clean_linker_0, # of connection points: 2
#     Edge 25, Type (0, 1), BuildingBlock: CIFDUS_clean_linker_0, # of connection points: 2
#     Edge 26, Type (0, 1), BuildingBlock: CIFDUS_clean_linker_0, # of connection points: 2
#     Edge 27, Type (0, 1), BuildingBlock: CIFDUS_clean_linker_0, # of connection points: 2
#     Edge 28, Type (0, 1), BuildingBlock: CIFDUS_clean_linker_0, # of connection points: 2
#     Edge 29, Type (0, 1), BuildingBlock: CIFDUS_clean_linker_0, # of connection points: 2
#     Edge 30, Type (0, 1), BuildingBlock: CIFDUS_clean_linker_0, # of connection points: 2
#     Edge 31, Type (0, 1), BuildingBlock: CIFDUS_clean_linker_0, # of connection points: 2
#     Edge 32, Type (0, 1), BuildingBlock: CIFDUS_clean_linker_0, # of connection points: 2
#     Edge 33, Type (0, 1), BuildingBlock: CIFDUS_clean_linker_0, # of connection points: 2
#     Edge 34, Type (0, 1), BuildingBlock: CIFDUS_clean_linker_0, # of connection points: 2
#     Edge 35, Type (0, 1), BuildingBlock: CIFDUS_clean_linker_0, # of connection points: 2
# Relax obj value: 0.417
# Max RMSD: 0.262
# Mean RMSD: 0.246
data_MOF--net-zzz--node1-WUSLED_clean_sbu_0--node2-INOVEN_clean_sbu_0--edge1-CIFDUS_clean_linker_0
_symmetry_space_group_name_H-M    P1
_symmetry_Int_Tables_number       1
_symmetry_cell_setting            triclinic
loop_
_symmetry_equiv_pos_as_xyz
'x, y, z'
_cell_length_a     57.488066
_cell_length_b     57.468208
_cell_length_c     17.646869
_cell_angle_alpha  90.047333
_cell_angle_beta   89.862589
_cell_angle_gamma 90.474637
loop_
_atom_site_label
_atom_site_type_symbol
_atom_site_fract_x
_atom_site_fract_y
_atom_site_fract_z
_atom_type_partial_charge
C0 C 0.78366 0.52108 0.50748 0.0
C1 C 0.80025 0.50891 0.46441 0.0
C2 C 0.83237 0.52217 0.54708 0.0
C3 C 0.82413 0.50964 0.48335 0.0
C4 C 0.81562 0.53365 0.59178 0.0
C5 C 0.79175 0.53324 0.57196 0.0
U6 U 0.72927 0.51979 0.37018 0.0
O7 O 0.69556 0.50101 0.37708 0.0
O8 O 0.69608 0.53895 0.37442 0.0
C9 C 0.6834 0.51998 0.36547 0.0
C10 C 0.75797 0.5207 0.48855 0.0
C11 C 0.66777 0.51968 0.2971 0.0
C12 C 0.629 0.5217 0.23872 0.0
C13 C 0.64338 0.52094 0.30376 0.0
C14 C 0.66303 0.51939 0.15898 0.0
C15 C 0.63859 0.52137 0.16489 0.0
C16 C 0.6773 0.51862 0.22368 0.0
C17 C 0.76853 0.51764 0.19359 0.0
C18 C 0.78854 0.51686 0.07356 0.0
C19 C 0.80967 0.51042 0.19082 0.0
C20 C 0.78928 0.51337 0.23189 0.0
C21 C 0.80935 0.512 0.11128 0.0
C22 C 0.76816 0.5196 0.11473 0.0
C23 C 0.74671 0.51863 0.23377 0.0
O24 O 0.74922 0.53947 0.45725 0.0
O25 O 0.74913 0.50149 0.45927 0.0
O26 O 0.74126 0.49983 0.27241 0.0
O27 O 0.74251 0.53815 0.26984 0.0
H28 H 0.79478 0.49871 0.41602 0.0
H29 H 0.83623 0.5002 0.44794 0.0
H30 H 0.82103 0.54353 0.64106 0.0
H31 H 0.77952 0.54256 0.60732 0.0
H32 H 0.61039 0.52328 0.24643 0.0
H33 H 0.63543 0.5217 0.35939 0.0
H34 H 0.67131 0.51852 0.10389 0.0
H35 H 0.69594 0.51744 0.21616 0.0
H36 H 0.78801 0.51841 1.01242 0.0
H37 H 0.82551 0.50638 0.22107 0.0
H38 H 0.78954 0.51184 0.29292 0.0
H39 H 0.75204 0.52288 0.08499 0.0
C40 C 1.01594 0.78481 0.50771 0.0
C41 C 0.02625 0.80218 0.46202 0.0
C42 C 1.0135 0.83325 0.54885 0.0
C43 C 0.02478 0.82602 0.48178 0.0
C44 C 1.00375 0.81584 0.59554 0.0
C45 C 1.00482 0.79208 0.575 0.0
U46 U 0.01787 0.72982 0.37158 0.0
O47 O 0.03686 0.6965 0.3789 0.0
O48 O 0.9989 0.69633 0.37904 0.0
C49 C 0.01784 0.684 0.36855 0.0
C50 C 1.01688 0.75915 0.48853 0.0
C51 C 0.01764 0.66838 0.29998 0.0
C52 C 0.0216 0.62995 0.23994 0.0
C53 C 0.02287 0.64452 0.30467 0.0
C54 C 1.01058 0.66294 0.16407 0.0
C55 C 1.01493 0.63882 0.16859 0.0
C56 C 1.01189 0.67739 0.22837 0.0
C57 C 0.01983 0.76758 0.19202 0.0
C58 C 0.02464 0.78643 0.07115 0.0
C59 C 0.0241 0.80916 0.18755 0.0
C60 C 0.02086 0.78897 0.2294 0.0
C61 C 0.02615 0.80791 0.10824 0.0
C62 C 0.0215 0.76627 0.11315 0.0
C63 C 0.01872 0.74616 0.23396 0.0
O64 O 0.99818 0.74964 0.45824 0.0
O65 O 0.03617 0.75094 0.45863 0.0
O66 O 0.0376 0.74136 0.27243 0.0
O67 O 0.99927 0.74212 0.27111 0.0
H68 H 0.03545 0.79738 0.4109 0.0
H69 H 0.03254 0.83889 0.4445 0.0
H70 H 0.99482 0.82066 0.64727 0.0
H71 H 0.99684 0.77926 0.61206 0.0
H72 H 0.02512 0.61158 0.24643 0.0
H73 H 0.02759 0.63702 0.35873 0.0
H74 H 1.00599 0.6708 0.11046 0.0
H75 H 1.00806 0.69569 0.22212 0.0
H76 H 0.02599 0.78526 1.01002 0.0
H77 H 0.0255 0.82565 0.21712 0.0
H78 H 0.01959 0.78993 0.29049 0.0
H79 H 0.02077 0.74963 0.08426 0.0
C80 C 0.75186 1.01552 0.51723 0.0
C81 C 0.73372 0.02489 0.47337 0.0
C82 C 0.70408 1.01339 0.56866 0.0
C83 C 0.71025 0.02377 0.49848 0.0
C84 C 0.72253 1.00455 0.6127 0.0
C85 C 0.7458 1.00549 0.58732 0.0
U86 U 0.8057 0.01769 0.37518 0.0
O87 O 0.83942 0.03654 0.38133 0.0
O88 O 0.83886 0.99858 0.37981 0.0
C89 C 0.85156 1.01751 0.37025 0.0
C90 C 0.77721 1.01643 0.49425 0.0
C91 C 0.86727 0.01756 0.30189 0.0
C92 C 0.90557 0.02339 0.24175 0.0
C93 C 0.89118 0.02295 0.30709 0.0
C94 C 0.87254 1.01261 0.165 0.0
C95 C 0.89646 0.01851 0.16904 0.0
C96 C 0.85825 1.01232 0.22983 0.0
C97 C 0.7659 0.01882 0.20142 0.0
C98 C 0.74482 0.0225 0.08449 0.0
C99 C 0.72421 1.01473 0.20247 0.0
C100 C 0.7452 1.01486 0.24128 0.0
C101 C 0.72397 0.01845 0.12381 0.0
C102 C 0.76573 0.02271 0.12336 0.0
C103 C 0.78804 0.01864 0.2394 0.0
O104 O 0.78605 0.99777 0.46234 0.0
O105 O 0.78548 0.0358 0.46436 0.0
O106 O 0.79313 0.03757 0.27791 0.0
O107 O 0.79299 0.99922 0.27487 0.0
H108 H 0.73765 0.03308 0.41958 0.0
H109 H 0.69691 0.03073 0.46198 0.0
H110 H 0.71916 0.99701 0.66783 0.0
H111 H 0.75925 0.99842 0.62333 0.0
H112 H 0.92372 0.02812 0.24817 0.0
H113 H 0.89872 0.02705 0.36171 0.0
H114 H 0.86463 1.00807 0.11134 0.0
H115 H 0.84 1.00799 0.22344 0.0
H116 H 0.74493 0.02537 0.02381 0.0
H117 H 0.70819 1.01202 0.23387 0.0
H118 H 0.74535 1.01182 0.30183 0.0
H119 H 0.78179 0.02578 0.09248 0.0
C120 C 0.51666 0.75308 0.51828 0.0
C121 C 0.51267 0.73427 0.46852 0.0
C122 C 0.51688 0.70567 0.57177 0.0
C123 C 0.51317 0.71093 0.49456 0.0
C124 C 0.52048 0.72455 0.62156 0.0
C125 C 0.52063 0.74775 0.59514 0.0
U126 U 0.51609 0.80653 0.37371 0.0
O127 O 0.49685 0.83977 0.37802 0.0
O128 O 0.53479 0.84022 0.38014 0.0
C129 C 0.51583 0.85245 0.36938 0.0
C130 C 0.51627 0.77831 0.49362 0.0
C131 C 0.51628 0.86871 0.30241 0.0
C132 C 0.51243 0.90789 0.24777 0.0
C133 C 0.51121 0.89255 0.31046 0.0
C134 C 0.52366 0.87592 0.1673 0.0
C135 C 0.51903 0.89987 0.17533 0.0
C136 C 0.52215 0.86059 0.22952 0.0
C137 C 0.5169 0.76702 0.19819 0.0
C138 C 0.51332 0.7461 0.08059 0.0
C139 C 0.52077 0.72536 0.19799 0.0
C140 C 0.521 0.74632 0.23711 0.0
C141 C 0.51696 0.72515 0.11937 0.0
C142 C 0.51312 0.76695 0.12011 0.0
C143 C 0.51658 0.78901 0.23743 0.0
O144 O 0.5352 0.78711 0.4624 0.0
O145 O 0.49722 0.78621 0.46173 0.0
O146 O 0.49727 0.7935 0.27438 0.0
O147 O 0.5356 0.79429 0.27504 0.0
H148 H 0.5088 0.73757 0.40977 0.0
H149 H 0.50996 0.69697 0.45456 0.0
H150 H 0.52335 0.72134 0.68128 0.0
H151 H 0.52361 0.76169 0.63544 0.0
H152 H 0.50896 0.92619 0.25653 0.0
H153 H 0.50662 0.89941 0.36563 0.0
H154 H 0.52869 0.86903 0.11256 0.0
H155 H 0.52596 0.84236 0.22081 0.0
H156 H 0.5106 0.74637 0.01988 0.0
H157 H 0.52322 0.70936 0.22932 0.0
H158 H 0.52439 0.74647 0.29724 0.0
H159 H 0.51008 0.78303 0.08977 0.0
C160 C 0.25115 0.50787 0.90061 0.0
C161 C 0.23205 0.51344 0.94712 0.0
C162 C 0.2042 0.50688 0.8423 0.0
C163 C 0.20901 0.51266 0.91886 0.0
C164 C 0.22363 0.50188 0.79582 0.0
C165 C 0.2465 0.50217 0.82458 0.0
U166 U 0.30333 0.5061 0.04862 0.0
O167 O 0.33822 0.48999 0.0421 0.0
O168 O 0.33515 0.5278 0.04826 0.0
C169 C 0.34905 0.50986 0.05518 0.0
C170 C 0.27608 0.50885 0.92728 0.0
C171 C 0.36523 0.51058 0.12203 0.0
C172 C 0.40404 0.50531 0.17732 0.0
C173 C 0.38863 0.5038 0.11512 0.0
C174 C 0.37299 0.5203 0.25511 0.0
C175 C 0.39656 0.51392 0.2482 0.0
C176 C 0.35758 0.51853 0.19334 0.0
C177 C 0.26216 0.50111 0.21927 0.0
C178 C 0.24089 0.51088 0.33254 0.0
C179 C 0.22119 0.50923 0.21092 0.0
C180 C 0.24183 0.50252 0.17627 0.0
C181 C 0.2209 0.51431 0.28876 0.0
C182 C 0.2615 0.50437 0.2977 0.0
C183 C 0.28468 0.50114 0.18275 0.0
O184 O 0.28279 0.52696 0.96762 0.0
O185 O 0.28558 0.48939 0.95083 0.0
O186 O 0.28955 0.48335 0.13883 0.0
O187 O 0.29045 0.52138 0.15351 0.0
H188 H 0.23489 0.5186 1.00524 0.0
H189 H 0.19499 0.51646 0.9578 0.0
H190 H 0.22142 0.49804 0.73627 0.0
H191 H 0.26076 0.49823 0.78651 0.0
H192 H 0.422 0.50032 0.1693 0.0
H193 H 0.3951 0.49756 0.06118 0.0
H194 H 0.36636 0.52665 0.3087 0.0
H195 H 0.33965 0.52367 0.20123 0.0
H196 H 0.241 0.51477 0.39263 0.0
H197 H 0.20575 0.5114 0.17661 0.0
H198 H 0.24231 0.49976 0.11572 0.0
H199 H 0.27727 0.50349 0.33113 0.0
C200 C 0.02393 0.25397 0.89463 0.0
C201 C 0.03952 0.2373 0.92305 0.0
C202 C 0.0237 0.20678 0.83812 0.0
C203 C 0.03943 0.21417 0.89526 0.0
C204 C 1.00805 0.22363 0.8107 0.0
C205 C 1.00828 0.24668 0.83805 0.0
U206 U 0.02463 0.30712 0.0381 0.0
O207 O 1.00497 0.33996 0.03396 0.0
O208 O 0.04294 0.34107 0.03306 0.0
C209 C 0.0237 0.35291 0.04371 0.0
C210 C 0.02444 0.27925 0.91794 0.0
C211 C 0.02344 0.36845 0.11201 0.0
C212 C 0.02481 0.40723 0.17048 0.0
C213 C 0.02436 0.39285 0.1054 0.0
C214 C 0.023 0.37309 0.24995 0.0
C215 C 0.02452 0.39756 0.24404 0.0
C216 C 0.02251 0.35882 0.1852 0.0
C217 C 0.02529 0.26663 0.2109 0.0
C218 C 0.02072 0.2451 0.32703 0.0
C219 C 0.02912 0.22495 0.20893 0.0
C220 C 0.02937 0.24608 0.17065 0.0
C221 C 0.02467 0.22442 0.2872 0.0
C222 C 0.02107 0.26617 0.28886 0.0
C223 C 0.02504 0.28888 0.17325 0.0
O224 O 1.00546 0.28778 0.94882 0.0
O225 O 0.04354 0.28772 0.94894 0.0
O226 O 0.04409 0.29444 0.13597 0.0
O227 O 1.00576 0.29364 0.13689 0.0
H228 H 0.05202 0.24219 0.96615 0.0
H229 H 0.05212 0.20227 0.9179 0.0
H230 H 0.99525 0.21912 0.76825 0.0
H231 H 0.99616 0.259 0.8142 0.0
H232 H 0.02609 0.42589 0.16308 0.0
H233 H 0.02502 0.40081 0.04983 0.0
H234 H 0.02225 0.36482 0.30504 0.0
H235 H 0.02159 0.34013 0.19245 0.0
H236 H 1.01724 0.24492 0.38741 0.0
H237 H 0.03179 0.20902 0.1773 0.0
H238 H 0.03248 0.2464 0.11006 0.0
H239 H 0.01787 0.28209 0.32003 0.0
C240 C 0.28349 0.02997 0.90969 0.0
C241 C 0.29897 0.04477 0.94869 0.0
C242 C 0.33227 0.03137 0.87212 0.0
C243 C 0.32282 0.04554 0.93003 0.0
C244 C 0.31658 1.01686 0.83221 0.0
C245 C 0.29264 1.0162 0.85071 0.0
U246 U 0.22886 0.03008 0.04427 0.0
O247 O 0.1953 0.04848 0.03622 0.0
O248 O 0.19578 1.01045 0.0368 0.0
C249 C 0.18302 0.02921 0.04417 0.0
C250 C 0.25778 0.02947 0.92665 0.0
C251 C 0.16572 0.02893 0.10791 0.0
C252 C 0.12594 0.03443 0.1543 0.0
C253 C 0.14231 0.03439 0.09469 0.0
C254 C 0.156 0.0234 0.24222 0.0
C255 C 0.13244 0.029 0.22936 0.0
C256 C 0.17237 0.02342 0.18252 0.0
C257 C 0.26892 0.03002 0.21721 0.0
C258 C 0.29051 0.02855 0.33416 0.0
C259 C 0.30969 0.02062 0.21411 0.0
C260 C 0.28896 0.02456 0.17596 0.0
C261 C 0.31048 0.02222 0.29363 0.0
C262 C 0.26979 0.0324 0.29597 0.0
C263 C 0.24648 0.03089 0.18046 0.0
O264 O 0.24919 1.01054 0.95843 0.0
O265 O 0.24853 0.04854 0.95455 0.0
O266 O 0.24206 0.0499 0.14195 0.0
O267 O 0.24043 1.01163 0.14532 0.0
H268 H 0.29264 0.05588 0.99371 0.0
H269 H 0.33385 0.0575 0.96121 0.0
H270 H 0.32281 1.00555 0.7876 0.0
H271 H 0.28121 1.00481 0.81872 0.0
H272 H 0.10806 0.03852 0.14117 0.0
H273 H 0.13663 0.03866 0.03794 0.0
H274 H 0.16198 0.01943 0.29884 0.0
H275 H 0.19031 0.01926 0.19482 0.0
H276 H 0.29083 0.03018 0.39532 0.0
H277 H 0.32484 1.01551 0.1817 0.0
H278 H 0.28833 0.02251 0.11493 0.0
H279 H 0.25427 0.03655 0.32809 0.0
C280 C 0.50753 0.28359 0.90069 0.0
C281 C 0.5102 0.30264 0.95029 0.0
C282 C 0.50635 0.33085 0.84514 0.0
C283 C 0.50942 0.32584 0.92317 0.0
C284 C 0.50418 0.31151 0.79595 0.0
C285 C 0.50458 0.28847 0.82327 0.0
U286 U 0.50615 0.23067 0.04625 0.0
O287 O 0.52719 0.19873 0.04376 0.0
O288 O 0.48931 0.19592 0.03831 0.0
C289 C 0.50897 0.18484 0.0493 0.0
C290 C 0.50829 0.25854 0.926 0.0
C291 C 0.50933 0.16755 0.11326 0.0
C292 C 0.50335 0.12772 0.1601 0.0
C293 C 0.50275 0.14424 0.10096 0.0
C294 C 0.51716 0.15742 0.24594 0.0
C295 C 0.51059 0.13391 0.23397 0.0
C296 C 0.51648 0.17393 0.18678 0.0
C297 C 0.50295 0.27167 0.21673 0.0
C298 C 0.51721 0.29452 0.32132 0.0
C299 C 0.50337 0.31355 0.20723 0.0
C300 C 0.49805 0.29191 0.1759 0.0
C301 C 0.51363 0.3149 0.27931 0.0
C302 C 0.51184 0.27303 0.29013 0.0
C303 C 0.50255 0.24903 0.18097 0.0
O304 O 0.52664 0.25158 0.96389 0.0
O305 O 0.48889 0.249 0.9514 0.0
O306 O 0.48433 0.24385 0.13912 0.0
O307 O 0.52248 0.24333 0.14998 0.0
H308 H 0.51294 0.29962 1.01004 0.0
H309 H 0.51098 0.33981 0.96401 0.0
H310 H 0.50249 0.31394 0.73546 0.0
H311 H 0.50278 0.2743 0.78313 0.0
H312 H 0.49775 0.1101 0.14782 0.0
H313 H 0.49708 0.13873 0.04521 0.0
H314 H 0.52322 0.16313 0.30096 0.0
H315 H 0.52169 0.19173 0.19852 0.0
H316 H 0.5254 0.29506 0.37653 0.0
H317 H 0.50019 0.32912 0.17437 0.0
H318 H 0.49103 0.29091 0.11914 0.0
H319 H 0.5159 0.2574 0.32164 0.0
Gd320 Gd 0.04212 1.0147 0.76303 0.0
Gd321 Gd 1.00016 0.02241 0.65971 0.0
C322 C 1.01642 0.96924 0.68237 0.0
C323 C 0.06573 1.00023 0.87487 0.0
C324 C 0.05855 0.97957 0.91594 0.0
C325 C 0.07495 0.96454 0.94706 0.0
C326 C 0.03529 0.97239 0.90854 0.0
C327 C 0.04443 0.93572 0.96526 0.0
C328 C 0.0282 0.95074 0.93362 0.0
C329 C 0.06787 0.94256 0.97183 0.0
C330 C 0.05947 0.02279 0.62131 0.0
C331 C 0.02551 0.0674 0.74653 0.0
C332 C 0.97657 0.03628 0.5461 0.0
C333 C 0.98064 0.05853 0.50931 0.0
C334 C 0.96201 0.07152 0.48176 0.0
C335 C 1.00261 0.06895 0.51781 0.0
C336 C 0.98739 0.10536 0.47239 0.0
C337 C 1.00589 0.0922 0.50048 0.0
C338 C 0.96542 0.09485 0.46258 0.0
C339 C 0.98275 1.01555 0.80259 0.0
O340 O 0.03053 0.97771 0.73505 0.0
O341 O 1.00315 0.98326 0.64178 0.0
O342 O 0.07152 0.99558 0.80489 0.0
O343 O 0.05167 0.01801 0.88119 0.0
O344 O 0.07178 0.0205 0.68187 0.0
O345 O 0.03812 0.02267 0.64049 0.0
O346 O 1.01121 0.06002 0.69201 0.0
O347 O 0.03858 0.05273 0.78452 0.0
O348 O 0.96927 0.03858 0.61576 0.0
O349 O 0.99333 0.02107 0.53906 0.0
O350 O 0.97044 0.01762 0.74183 0.0
O351 O 1.00414 1.01533 0.78313 0.0
H352 H 0.09316 0.96946 0.94959 0.0
H353 H 0.02279 0.98301 0.87927 0.0
H354 H 1.0102 0.94545 0.9261 0.0
H355 H 0.08062 0.9309 0.99572 0.0
H356 H 0.94478 0.06386 0.47745 0.0
H357 H 1.01702 0.05941 0.54161 0.0
H358 H 0.02286 0.09995 0.51046 0.0
H359 H 0.95094 0.10463 0.44034 0.0
Gd360 Gd 0.52027 0.04026 0.76506 0.0
Gd361 Gd 0.51327 0.99918 0.65925 0.0
C362 C 0.56581 0.01777 0.67563 0.0
C363 C 0.53487 0.06186 0.88165 0.0
C364 C 0.55782 0.05749 0.91242 0.0
C365 C 0.57204 0.07613 0.93473 0.0
C366 C 0.56745 0.03537 0.90119 0.0
C367 C 0.60535 0.05051 0.93422 0.0
C368 C 0.59104 0.03198 0.91117 0.0
C369 C 0.59572 0.07261 0.94626 0.0
C370 C 0.51164 0.05992 0.62846 0.0
C371 C 0.46769 0.02456 0.73728 0.0
C372 C 0.49927 0.97475 0.54764 0.0
C373 C 0.47961 0.98091 0.50011 0.0
C374 C 0.46216 0.96437 0.48543 0.0
C375 C 0.47568 1.0045 0.48446 0.0
C376 C 0.43728 0.99496 0.43869 0.0
C377 C 0.45472 1.01145 0.4537 0.0
C378 C 0.44102 0.97137 0.45483 0.0
C379 C 0.52016 0.98182 0.80275 0.0
O380 O 0.55762 0.03245 0.7271 0.0
O381 O 0.55193 1.00318 0.63915 0.0
O382 O 0.53577 0.07105 0.81409 0.0
O383 O 0.51992 0.04456 0.887 0.0
O384 O 0.51356 0.07066 0.69245 0.0
O385 O 0.51223 0.03781 0.63958 0.0
O386 O 0.47612 1.01185 0.6808 0.0
O387 O 0.48169 0.0361 0.78342 0.0
O388 O 0.49312 0.97015 0.6174 0.0
O389 O 0.51767 0.98838 0.54261 0.0
O390 O 0.51777 0.96911 0.74296 0.0
O391 O 0.52009 1.00277 0.78099 0.0
H392 H 0.56498 0.09346 0.94063 0.0
H393 H 0.55697 0.02091 0.8809 0.0
H394 H 0.59812 1.01488 0.90014 0.0
H395 H 0.60645 0.0871 0.96484 0.0
H396 H 0.46457 0.94626 0.5004 0.0
H397 H 0.48839 0.01776 0.4991 0.0
H398 H 0.45191 0.02981 0.44343 0.0
H399 H 0.42762 0.95844 0.44397 0.0
Gd400 Gd 0.49734 0.52192 0.74853 0.0
Gd401 Gd 0.53658 0.51404 0.66186 0.0
C402 C 0.52389 0.56717 0.67058 0.0
C403 C 0.46913 0.53904 0.84557 0.0
C404 C 0.47294 0.56189 0.87891 0.0
C405 C 0.45434 0.57686 0.89234 0.0
C406 C 0.4959 0.57023 0.8841 0.0
C407 C 0.48176 0.6085 0.91436 0.0
C408 C 0.50025 0.59339 0.89988 0.0
C409 C 0.45873 0.60007 0.91103 0.0
C410 C 0.4846 0.50845 0.60608 0.0
C411 C 0.5109 0.46911 0.74072 0.0
C412 C 0.56514 0.49677 0.5659 0.0
C413 C 0.56176 0.47394 0.53177 0.0
C414 C 0.5806 0.4591 0.51975 0.0
C415 C 0.5389 0.46547 0.52429 0.0
C416 C 0.55359 0.42737 0.49676 0.0
C417 C 0.53484 0.44228 0.50777 0.0
C418 C 0.5765 0.43582 0.501 0.0
C419 C 0.54939 0.52529 0.80671 0.0
O420 O 0.50973 0.55968 0.72479 0.0
O421 O 0.53598 0.55189 0.63197 0.0
O422 O 0.46499 0.53955 0.77296 0.0
O423 O 0.48463 0.52358 0.86393 0.0
O424 O 0.47484 0.50114 0.66797 0.0
O425 O 0.50082 0.52272 0.62245 0.0
O426 O 0.52369 0.47654 0.68315 0.0
O427 O 0.49985 0.48433 0.7827 0.0
O428 O 0.5688 0.49606 0.63874 0.0
O429 O 0.5497 0.51224 0.54693 0.0
O430 O 0.55914 0.53356 0.74603 0.0
O431 O 0.53268 0.51202 0.78746 0.0
H432 H 0.43655 0.57073 0.88686 0.0
H433 H 0.51059 0.55905 0.87262 0.0
H434 H 0.51814 0.59946 0.90008 0.0
H435 H 0.44418 0.61133 0.92307 0.0
H436 H 0.5983 0.46534 0.5268 0.0
H437 H 0.52411 0.4766 0.5342 0.0
H438 H 0.51706 0.436 0.50293 0.0
H439 H 0.59106 0.42436 0.49108 0.0
Gd440 Gd 1.01411 0.49864 0.74959 0.0
Gd441 Gd 0.02048 0.53755 0.66094 0.0
C442 C 0.96796 0.52441 0.68373 0.0
C443 C 0.99787 0.47 0.84722 0.0
C444 C 0.97816 0.4758 0.89537 0.0
C445 C 0.96 0.45978 0.9056 0.0
C446 C 0.97536 0.49908 0.91789 0.0
C447 C 0.93628 0.49042 0.95934 0.0
C448 C 0.95458 0.50633 0.94945 0.0
C449 C 0.93914 0.46704 0.93788 0.0
C450 C 0.0242 0.48558 0.60424 0.0
C451 C 0.06645 0.51274 0.73489 0.0
C452 C 0.03734 0.5654 0.5618 0.0
C453 C 0.0601 0.56134 0.52749 0.0
C454 C 0.07685 0.57918 0.52574 0.0
C455 C 0.06672 0.53827 0.51254 0.0
C456 C 0.10665 0.55069 0.49932 0.0
C457 C 0.08982 0.53299 0.4991 0.0
C458 C 0.10007 0.57389 0.51084 0.0
C459 C 1.01148 0.55069 0.80715 0.0
O460 O 0.97701 0.51325 0.74212 0.0
O461 O 0.98215 0.53453 0.63515 0.0
O462 O 0.99266 0.46851 0.77551 0.0
O463 O 1.01673 0.48222 0.85957 0.0
O464 O 0.03295 0.47619 0.66429 0.0
O465 O 1.01072 0.50182 0.62404 0.0
O466 O 0.05823 0.52484 0.67714 0.0
O467 O 0.05177 0.50204 0.78019 0.0
O468 O 0.03819 0.56999 0.63411 0.0
O469 O 0.02129 0.55003 0.54507 0.0
O470 O 1.00216 0.56009 0.74778 0.0
O471 O 0.02456 0.53424 0.78612 0.0
H472 H 0.96165 0.44199 0.88614 0.0
H473 H 0.98882 0.51202 0.90774 0.0
H474 H 0.95259 0.52455 0.9638 0.0
H475 H 0.92519 0.45445 0.94535 0.0
H476 H 0.07214 0.59693 0.53902 0.0
H477 H 0.05427 0.52403 0.51519 0.0
H478 H 0.09455 0.51505 0.48858 0.0
H479 H 0.11296 0.58775 0.51016 0.0
H480 H 0.12902 1.00023 0.3541 0.0
H481 H 0.09578 0.0592 0.25082 0.0
H482 H 0.06831 0.06125 0.35652 0.0
H483 H 0.0553 0.04813 0.48569 0.0
H484 H 0.0896 0.98941 0.58662 0.0
H485 H 0.11467 0.98567 0.47621 0.0
C486 C 0.11588 1.01365 0.35447 0.0
C487 C 0.1149 0.02962 0.29374 0.0
C488 C 0.10005 1.01484 0.41601 0.0
C489 C 0.09716 0.04648 0.29573 0.0
C490 C 0.08138 0.04777 0.35679 0.0
C491 C 0.06779 0.03415 0.48248 0.0
C492 C 0.07027 0.01893 0.54482 0.0
C493 C 0.08274 0.03222 0.4181 0.0
C494 C 0.08709 1.00129 0.53974 0.0
C495 C 0.10163 0.99919 0.47653 0.0
H496 H 0.50204 0.14062 0.38606 0.0
H497 H 0.51998 0.08641 0.22793 0.0
H498 H 0.52061 0.05806 0.3314 0.0
H499 H 0.51769 0.04861 0.47145 0.0
H500 H 0.49938 0.10455 0.62368 0.0
H501 H 0.49812 0.13155 0.51973 0.0
C502 C 0.50639 0.12271 0.37356 0.0
C503 C 0.51106 0.11612 0.29799 0.0
C504 C 0.50683 0.10637 0.43358 0.0
C505 C 0.51604 0.09239 0.28465 0.0
C506 C 0.51655 0.076 0.34437 0.0
C507 C 0.51293 0.06654 0.48161 0.0
C508 C 0.50848 0.07408 0.55687 0.0
C509 C 0.51205 0.08271 0.41976 0.0
C510 C 0.50289 0.09776 0.56756 0.0
C511 C 0.50216 0.11353 0.50764 0.0
H512 H 0.43017 0.48377 0.3017 0.0
H513 H 0.40058 0.55123 0.34426 0.0
H514 H 0.42606 0.55645 0.45375 0.0
H515 H 0.45596 0.54123 0.54245 0.0
H516 H 0.48342 0.47271 0.50524 0.0
H517 H 0.46024 0.46874 0.38961 0.0
C518 C 0.42941 0.49971 0.33448 0.0
C519 C 0.41317 0.51701 0.31413 0.0
C520 C 0.444 0.50249 0.39892 0.0
C521 C 0.41251 0.53742 0.35846 0.0
C522 C 0.42723 0.54049 0.42126 0.0
C523 C 0.45713 0.5256 0.50823 0.0
C524 C 0.47202 0.50752 0.53168 0.0
C525 C 0.44294 0.52308 0.44273 0.0
C526 C 0.4727 0.48713 0.48773 0.0
C527 C 0.45921 0.48477 0.42174 0.0
H528 H 1.00518 0.44078 0.2777 0.0
H529 H 0.05015 0.38823 0.37041 0.0
H530 H 0.05421 0.41059 0.4867 0.0
H531 H 0.04493 0.44473 0.56466 0.0
H532 H 1.00007 0.49773 0.47552 0.0
H533 H 0.99634 0.47589 0.35639 0.0
C534 C 1.01599 0.43427 0.32307 0.0
C535 C 0.02708 0.41244 0.31453 0.0
C536 C 0.01837 0.44742 0.39109 0.0
C537 C 0.04092 0.40452 0.37493 0.0
C538 C 0.04343 0.41745 0.44177 0.0
C539 C 0.03442 0.45163 0.5191 0.0
C540 C 0.02287 0.47299 0.52957 0.0
C541 C 0.03219 0.43884 0.45086 0.0
C542 C 1.00926 0.48145 0.46946 0.0
C543 C 1.00707 0.46888 0.40115 0.0
H544 H 0.94397 1.00919 0.14451 0.0
H545 H 0.88245 0.03322 0.02893 0.0
H546 H 0.90342 0.03371 0.90986 0.0
H547 H 0.93834 0.02633 0.83549 0.0
H548 H 1.00194 1.00763 0.9475 0.0
H549 H 0.9812 1.00591 0.06926 0.0
C550 C 0.93512 1.0147 0.09355 0.0
C551 C 0.91104 0.02033 0.09699 0.0
C552 C 0.94766 1.0156 0.02358 0.0
C553 C 0.90041 0.02771 0.02925 0.0
C554 C 0.91254 0.02827 0.96044 0.0
C555 C 0.94786 0.02177 0.88628 0.0
C556 C 0.97168 1.01597 0.88052 0.0
C557 C 0.936 0.02191 0.95654 0.0
C558 C 0.98353 1.01102 0.9483 0.0
C559 C 0.9716 1.01038 0.01862 0.0
H560 H 0.48882 0.93172 0.10938 0.0
H561 H 0.55857 0.90528 0.09257 0.0
H562 H 0.56597 0.9298 0.98193 0.0
H563 H 0.55196 0.95668 0.88265 0.0
H564 H 0.48236 0.98325 0.89658 0.0
H565 H 0.47548 0.96086 0.01321 0.0
C566 C 0.50568 0.93148 0.0818 0.0
C567 C 0.52306 0.91633 0.10951 0.0
C568 C 0.50983 0.94566 0.01671 0.0
C569 C 0.54476 0.91636 0.07237 0.0
C570 C 0.54904 0.93049 1.0089 0.0
C571 C 0.53552 0.9581 0.91249 0.0
C572 C 0.51797 0.9723 0.88177 0.0
C573 C 0.53165 0.94496 0.97962 0.0
C574 C 0.49648 0.97321 0.92009 0.0
C575 C 0.49246 0.96012 0.98656 0.0
H576 H 0.59396 0.5041 0.13229 0.0
H577 H 0.64936 0.54599 0.03654 0.0
H578 H 0.62711 0.55093 0.92088 0.0
H579 H 0.59205 0.54362 0.84432 0.0
H580 H 0.53622 0.50188 0.93653 0.0
H581 H 0.55813 0.49701 0.0547 0.0
C582 C 0.60116 0.51444 0.08643 0.0
C583 C 0.62376 0.52437 0.09424 0.0
C584 C 0.58802 0.51741 0.01863 0.0
C585 C 0.63248 0.53759 0.03293 0.0
C586 C 0.61959 0.54064 0.96632 0.0
C587 C 0.58452 0.53357 0.89035 0.0
C588 C 0.56227 0.52331 0.88093 0.0
C589 C 0.59739 0.53064 0.95819 0.0
C590 C 0.55314 0.51017 0.94167 0.0
C591 C 0.56576 0.50731 1.0095 0.0
H592 H 0.04009 0.60006 0.1195 0.0
H593 H 0.98067 0.64188 0.06173 0.0
H594 H 0.97439 0.61877 0.94811 0.0
H595 H 0.98575 0.58706 0.86165 0.0
H596 H 0.04406 0.54397 0.919 0.0
H597 H 0.05057 0.56684 0.03454 0.0
C598 C 0.02566 0.60407 0.08246 0.0
C599 C 1.01118 0.62327 0.09982 0.0
C600 C 0.02187 0.59035 0.01616 0.0
C601 C 0.99261 0.62785 0.05001 0.0
C602 C 0.98882 0.61443 0.98472 0.0
C603 C 0.9998 0.58253 0.89964 0.0
C604 C 1.01434 0.56367 0.88093 0.0
C605 C 1.00338 0.59575 0.96665 0.0
C606 C 0.03245 0.55822 0.93147 0.0
C607 C 0.03624 0.57141 0.9978 0.0
H608 H 0.98937 0.21037 0.37624 0.0
H609 H 0.05547 0.18908 0.28418 0.0
H610 H 0.05007 0.15027 0.33827 0.0
H611 H 0.02503 0.12203 0.39984 0.0
H612 H 0.9591 0.1429 0.49484 0.0
H613 H 0.96576 0.18267 0.44972 0.0
C614 C 1.00273 0.19729 0.36941 0.0
C615 C 0.02267 0.20216 0.32628 0.0
C616 C 0.99935 0.17514 0.39965 0.0
C617 C 0.03988 0.1853 0.31666 0.0
C618 C 0.0368 0.16327 0.34743 0.0
C619 C 1.01233 0.13536 0.4124 0.0
C620 C 0.99159 0.12964 0.45015 0.0
C621 C 1.01637 0.15792 0.38729 0.0
C622 C 0.97504 0.14693 0.46456 0.0
C623 C 0.9789 0.16961 0.43938 0.0
H624 H 0.35386 0.03591 0.25706 0.0
H625 H 0.31486 0.99556 0.42052 0.0
H626 H 0.35095 0.98398 0.48237 0.0
H627 H 0.39373 0.98406 0.48567 0.0
H628 H 0.43225 0.02314 0.31775 0.0
H629 H 0.39609 0.03637 0.26107 0.0
C630 C 0.35331 0.02449 0.30601 0.0
C631 C 0.33194 1.01646 0.33407 0.0
C632 C 0.37396 0.01759 0.33995 0.0
C633 C 0.33125 1.00209 0.39846 0.0
C634 C 0.35182 0.99532 0.43338 0.0
C635 C 0.39407 0.99533 0.43633 0.0
C636 C 0.41537 1.00259 0.40529 0.0
C637 C 0.37327 1.00272 0.40385 0.0
C638 C 0.41588 1.0175 0.34242 0.0
C639 C 0.3953 0.02501 0.31001 0.0
H640 H 0.50963 0.33093 0.4223 0.0
H641 H 0.53794 0.34804 0.20221 0.0
H642 H 0.55535 0.38352 0.25366 0.0
H643 H 0.56176 0.40985 0.36046 0.0
H644 H 0.53276 0.3934 0.57946 0.0
H645 H 0.51722 0.35653 0.53022 0.0
C646 C 0.51974 0.34239 0.38585 0.0
C647 C 0.52246 0.3371 0.3088 0.0
C648 C 0.53 0.36237 0.41596 0.0
C649 C 0.53528 0.35211 0.26154 0.0
C650 C 0.54549 0.37215 0.29101 0.0
C651 C 0.55257 0.39778 0.39742 0.0
C652 C 0.54863 0.40365 0.47308 0.0
C653 C 0.54299 0.37737 0.36805 0.0
C654 C 0.53618 0.38862 0.52107 0.0
C655 C 0.52712 0.36785 0.4928 0.0
H656 H 0.1999 0.50187 0.41938 0.0
H657 H 0.19709 0.55126 0.23568 0.0
H658 H 0.16295 0.56938 0.29229 0.0
H659 H 0.13226 0.56891 0.38781 0.0
H660 H 0.13374 0.51849 0.56838 0.0
H661 H 0.17066 0.50328 0.52064 0.0
C662 C 0.19183 0.5167 0.39234 0.0
C663 C 0.20048 0.52505 0.32322 0.0
C664 C 0.17227 0.52688 0.4249 0.0
C665 C 0.19016 0.54427 0.28815 0.0
C666 C 0.17087 0.55474 0.32074 0.0
C667 C 0.14107 0.55502 0.4176 0.0
C668 C 0.13066 0.54476 0.48101 0.0
C669 C 0.16158 0.54592 0.3883 0.0
C670 C 0.14174 0.52652 0.51914 0.0
C671 C 0.16263 0.51777 0.49168 0.0
H672 H 1.00271 0.84759 0.12112 0.0
H673 H 0.05877 0.81507 0.99875 0.0
H674 H 0.06842 0.85211 0.93755 0.0
H675 H 0.06302 0.89437 0.92935 0.0
H676 H 1.00808 0.92673 0.05773 0.0
H677 H 0.99577 0.88894 0.10695 0.0
C678 C 1.01698 0.8487 0.08085 0.0
C679 C 0.03028 0.82909 0.06484 0.0
C680 C 0.0227 0.86991 0.04794 0.0
C681 C 0.04839 0.83023 1.01148 0.0
C682 C 0.05398 0.85132 0.97711 0.0
C683 C 0.04842 0.89298 0.96826 0.0
C684 C 0.03664 0.91296 0.99144 0.0
C685 C 0.04165 0.87137 0.9967 0.0
C686 C 1.01736 0.91131 0.03997 0.0
C687 C 1.01036 0.88984 0.06801 0.0
H688 H 0.71043 0.0509 0.02396 0.0
H689 H 0.68847 0.98732 0.13401 0.0
H690 H 0.64994 0.9907 0.07746 0.0
H691 H 0.62193 1.01388 1.00962 0.0
H692 H 0.64328 0.07752 0.89873 0.0
H693 H 0.68319 0.07193 0.94293 0.0
C694 C 0.69731 0.03757 0.03409 0.0
C695 C 0.70189 0.01906 0.08334 0.0
C696 C 0.67531 0.03976 1.00217 0.0
C697 C 0.68493 1.00191 0.09706 0.0
C698 C 0.66306 1.0038 0.06471 0.0
C699 C 0.63541 0.02623 0.99333 0.0
C700 C 0.62982 0.04615 0.95176 0.0
C701 C 0.65795 0.02297 0.01903 0.0
C702 C 0.64729 0.06225 0.93202 0.0
C703 C 0.67001 0.05902 0.95692 0.0
H704 H 0.48566 0.71305 1.0126 0.0
H705 H 0.54528 0.68785 0.1355 0.0
H706 H 0.54002 0.64943 0.07912 0.0
H707 H 0.51638 0.62275 1.00589 0.0
H708 H 0.4584 0.64805 0.87508 0.0
H709 H 0.46517 0.68727 0.92453 0.0
C710 C 0.49785 0.69931 0.02556 0.0
C711 C 0.51562 0.70301 0.07865 0.0
C712 C 0.49485 0.67747 0.99266 0.0
C713 C 0.53115 0.68509 0.09587 0.0
C714 C 0.52823 0.66325 0.06356 0.0
C715 C 0.50557 0.6369 0.98627 0.0
C716 C 0.48679 0.63255 0.93755 0.0
C717 C 0.5098 0.65919 0.01347 0.0
C718 C 0.47266 0.65098 0.91405 0.0
C719 C 0.47661 0.67335 0.94174 0.0
H720 H 0.85183 0.52899 0.14296 0.0
H721 H 0.81427 0.48621 0.98272 0.0
H722 H 0.85051 0.47734 0.91661 0.0
H723 H 0.89301 0.47959 0.91083 0.0
H724 H 0.93048 0.51936 0.07945 0.0
H725 H 0.89395 0.5317 0.13615 0.0
C726 C 0.85164 0.51765 0.09375 0.0
C727 C 0.83068 0.50806 0.06793 0.0
C728 C 0.87242 0.51205 0.05798 0.0
C729 C 0.83036 0.49387 1.0031 0.0
C730 C 0.85101 0.48866 0.96576 0.0
C731 C 0.89311 0.49078 0.96038 0.0
C732 C 0.91424 0.49836 0.99165 0.0
C733 C 0.87216 0.49727 0.99382 0.0
C734 C 0.91431 0.5134 0.05441 0.0
C735 C 0.8935 0.52037 0.08701 0.0
H736 H 0.0368 0.16577 0.90922 0.0
H737 H 1.01018 0.19058 0.69562 0.0
H738 H 1.00739 0.15074 0.64923 0.0
H739 H 1.01218 0.10781 0.66882 0.0
H740 H 0.04186 0.08445 0.87978 0.0
H741 H 0.04415 0.12421 0.92519 0.0
C742 C 0.03069 0.1628 0.85202 0.0
C743 C 0.02336 0.18187 0.80751 0.0
C744 C 0.02964 0.13962 0.82426 0.0
C745 C 1.01532 0.17676 0.73345 0.0
C746 C 1.0139 0.15373 0.70605 0.0
C747 C 0.01913 0.1114 0.7247 0.0
C748 C 0.02669 0.09268 0.77044 0.0
C749 C 0.02081 0.13486 0.75109 0.0
C750 C 0.03588 0.0981 0.84251 0.0
C751 C 0.03719 0.12104 0.86906 0.0
H752 H 0.35634 0.02425 0.73573 0.0
H753 H 0.36793 0.03738 0.97386 0.0
H754 H 0.40964 0.03784 0.95275 0.0
H755 H 0.44363 0.03382 0.86846 0.0
H756 H 0.43299 0.01788 0.63232 0.0
H757 H 0.39076 0.0191 0.65108 0.0
C758 C 0.36788 0.02708 0.78335 0.0
C759 C 0.35835 0.03119 0.85652 0.0
C760 C 0.39239 0.02681 0.77121 0.0
C761 C 0.37414 0.03488 0.91654 0.0
C762 C 0.39828 0.03492 0.9047 0.0
C763 C 0.43211 0.03072 0.82088 0.0
C764 C 0.44175 0.02583 0.7489 0.0
C765 C 0.40768 0.03094 0.83246 0.0
C766 C 0.42629 0.0216 0.68844 0.0
C767 C 0.40201 0.02231 0.6992 0.0
H768 H 0.52622 0.37164 0.90323 0.0
H769 H 0.48363 0.34746 0.71721 0.0
H770 H 0.48258 0.38666 0.66599 0.0
H771 H 0.49276 0.42899 0.6743 0.0
H772 H 0.53208 0.45337 0.8664 0.0
H773 H 0.53499 0.41355 0.91433 0.0
C774 C 0.51637 0.37473 0.85205 0.0
C775 C 0.50528 0.35578 0.81477 0.0
C776 C 0.51513 0.39782 0.82336 0.0
C777 C 0.49302 0.36094 0.74739 0.0
C778 C 0.49214 0.38368 0.71791 0.0
C779 C 0.50196 0.42552 0.72658 0.0
C780 C 0.51226 0.44428 0.76664 0.0
C781 C 0.50307 0.40237 0.75528 0.0
C782 C 0.52397 0.43938 0.83454 0.0
C783 C 0.52563 0.41653 0.86204 0.0
H784 H 0.16462 0.53059 0.89052 0.0
H785 H 0.18662 0.48084 0.7217 0.0
H786 H 0.1475 0.47959 0.67003 0.0
H787 H 0.10564 0.49126 0.67466 0.0
H788 H 0.08352 0.53849 0.8496 0.0
H789 H 0.12338 0.54152 0.89688 0.0
C790 C 0.16107 0.51914 0.84313 0.0
C791 C 0.17939 0.50597 0.81091 0.0
C792 C 0.13801 0.51789 0.81427 0.0
C793 C 0.17366 0.49174 0.74797 0.0
C794 C 0.15094 0.49076 0.7183 0.0
C795 C 0.10964 0.50234 0.72273 0.0
C796 C 0.09149 0.51483 0.75812 0.0
C797 C 0.13283 0.50366 0.75103 0.0
C798 C 0.09705 0.52881 0.82101 0.0
C799 C 0.11993 0.53051 0.84825 0.0
H800 H 0.03363 0.85922 0.66413 0.0
H801 H 0.98681 0.86502 0.47528 0.0
H802 H 0.98221 0.90671 0.50071 0.0
H803 H 0.99282 0.9425 0.57366 0.0
H804 H 0.04065 0.93634 0.76069 0.0
H805 H 0.04354 0.89471 0.73872 0.0
C806 C 0.0224 0.86961 0.62861 0.0
C807 C 1.01071 0.85882 0.56724 0.0
C808 C 0.02012 0.8939 0.64294 0.0
C809 C 0.99622 0.87275 0.5222 0.0
C810 C 0.99356 0.89669 0.53689 0.0
C811 C 1.00378 0.93209 0.60997 0.0
C812 C 1.0165 0.94311 0.66894 0.0
C813 C 1.00563 0.90765 0.59659 0.0
C814 C 0.03058 0.92886 0.71481 0.0
C815 C 0.03232 0.90478 0.70224 0.0
H816 H 0.66632 0.04267 0.54222 0.0
H817 H 0.68387 0.97887 0.65707 0.0
H818 H 0.64396 0.97479 0.70133 0.0
H819 H 0.60282 0.98841 0.70532 0.0
H820 H 0.58534 0.05211 0.59152 0.0
H821 H 0.62565 0.05661 0.54811 0.0
C822 C 0.66154 0.02769 0.57624 0.0
C823 C 0.67881 1.0112 0.59557 0.0
C824 C 0.63808 0.0252 0.6016 0.0
C825 C 0.67166 0.99225 0.64141 0.0
C826 C 0.64851 0.98969 0.66658 0.0
C827 C 0.60788 1.00327 0.67106 0.0
C828 C 0.59089 0.01991 0.65164 0.0
C829 C 0.63144 1.00594 0.6468 0.0
C830 C 0.59793 0.03909 0.60756 0.0
C831 C 0.62108 0.04166 0.58258 0.0
H832 H 0.5428 0.66781 0.5266 0.0
H833 H 0.48924 0.68744 0.68453 0.0
H834 H 0.4867 0.64725 0.73101 0.0
H835 H 0.49896 0.60556 0.72432 0.0
H836 H 0.55414 0.58708 0.56982 0.0
H837 H 0.55691 0.62717 0.52647 0.0
C838 C 0.53054 0.66331 0.5711 0.0
C839 C 0.51604 0.68084 0.60107 0.0
C840 C 0.52947 0.64006 0.59882 0.0
C841 C 0.50059 0.6745 0.65992 0.0
C842 C 0.49911 0.65139 0.6866 0.0
C843 C 0.5117 0.61027 0.6815 0.0
C844 C 0.52611 0.59276 0.65017 0.0
C845 C 0.51336 0.63385 0.65625 0.0
C846 C 0.54255 0.5997 0.59492 0.0
C847 C 0.54418 0.62283 0.56969 0.0
H848 H 0.85629 0.51887 0.68484 0.0
H849 H 0.86754 0.53015 0.44588 0.0
H850 H 0.90937 0.53301 0.4668 0.0
H851 H 0.94352 0.53154 0.55163 0.0
H852 H 0.93319 0.5179 0.78945 0.0
H853 H 0.89096 0.51698 0.77061 0.0
C854 C 0.86785 0.52205 0.63731 0.0
C855 C 0.85832 0.52413 0.56335 0.0
C856 C 0.89239 0.52332 0.64962 0.0
C857 C 0.87399 0.52811 0.50307 0.0
C858 C 0.8981 0.52988 0.51509 0.0
C859 C 0.93207 0.52855 0.59961 0.0
C860 C 0.94187 0.52497 0.67219 0.0
C861 C 0.9076 0.5274 0.5879 0.0
C862 C 0.92645 0.52077 0.733 0.0
C863 C 0.90213 0.52021 0.72214 0.0
loop_
_geom_bond_atom_site_label_1
_geom_bond_atom_site_label_2
_geom_bond_distance
_geom_bond_site_symmetry_2
_ccdc_geom_bond_type
C0 C1 1.264 . S
C0 C5 1.479 . S
C0 C10 1.465 . S
C1 C0 1.264 . S
C1 C3 1.339 . S
C1 H28 0.931 . S
C2 C3 1.395 . S
C2 C4 1.320 . S
C3 C1 1.339 . S
C3 C2 1.395 . S
C3 H29 0.929 . S
C4 C2 1.320 . S
C4 C5 1.405 . S
C4 H30 0.930 . S
C5 C0 1.479 . S
C5 C4 1.405 . S
C5 H31 0.931 . S
U6 O7 2.454 . S
U6 O8 2.458 . S
U6 C9 2.984 . S
U6 C10 2.847 . S
U6 C23 2.882 . S
U6 O24 2.441 . S
U6 O25 2.420 . S
U6 O26 2.455 . S
U6 O27 2.449 . S
O7 U6 2.454 . S
O7 C9 1.353 . S
O8 U6 2.458 . S
O8 C9 1.286 . S
C9 U6 2.984 . S
C9 O7 1.353 . S
C9 O8 1.286 . S
C9 C11 1.363 . S
C10 C0 1.465 . S
C10 U6 2.847 . S
C10 O24 1.249 . S
C10 O25 1.202 . S
C11 C9 1.363 . S
C11 C13 1.408 . S
C11 C16 1.342 . S
C12 C13 1.310 . S
C12 C15 1.461 . S
C12 H32 0.932 . S
C13 C11 1.408 . S
C13 C12 1.310 . S
C13 H33 0.930 . S
C14 C15 1.474 . S
C14 C16 1.285 . S
C14 H34 0.929 . S
C15 C12 1.461 . S
C15 C14 1.474 . S
C16 C11 1.342 . S
C16 C14 1.285 . S
C16 H35 0.930 . S
C17 C20 1.424 . S
C17 C22 1.245 . S
C17 C23 1.428 . S
C18 C21 1.260 . S
C18 C22 1.477 . S
C18 H36 0.932 . S
C19 C20 1.384 . S
C19 C21 1.479 . S
C19 H37 0.929 . S
C20 C17 1.424 . S
C20 C19 1.384 . S
C20 H38 0.928 . S
C21 C18 1.260 . S
C21 C19 1.479 . S
C22 C17 1.245 . S
C22 C18 1.477 . S
C22 H39 0.932 . S
C23 U6 2.882 . S
C23 C17 1.428 . S
C23 O26 1.301 . S
C23 O27 1.282 . S
O24 U6 2.441 . S
O24 C10 1.249 . S
O25 U6 2.420 . S
O25 C10 1.202 . S
O26 U6 2.455 . S
O26 C23 1.301 . S
O27 U6 2.449 . S
O27 C23 1.282 . S
H28 C1 0.931 . S
H29 C3 0.929 . S
H30 C4 0.930 . S
H31 C5 0.931 . S
H32 C12 0.932 . S
H33 C13 0.930 . S
H34 C14 0.929 . S
H35 C16 0.930 . S
H36 C18 0.932 . S
H37 C19 0.929 . S
H38 C20 0.928 . S
H39 C22 0.932 . S
C40 C41 1.264 . S
C40 C45 1.479 . S
C40 C50 1.465 . S
C41 C40 1.264 . S
C41 C43 1.339 . S
C41 H68 0.931 . S
C42 C43 1.401 . S
C42 C44 1.320 . S
C43 C41 1.339 . S
C43 C42 1.401 . S
C43 H69 0.929 . S
C44 C42 1.320 . S
C44 C45 1.409 . S
C44 H70 0.926 1_455 S
C45 C40 1.479 . S
C45 C44 1.409 . S
C45 H71 0.931 . S
U46 O47 2.454 . S
U46 O48 2.458 . S
U46 C49 2.984 . S
U46 C50 2.847 . S
U46 C63 2.882 . S
U46 O64 2.441 . S
U46 O65 2.420 . S
U46 O66 2.455 . S
U46 O67 2.449 . S
O47 U46 2.454 . S
O47 C49 1.353 . S
O48 U46 2.458 . S
O48 C49 1.286 . S
C49 U46 2.984 . S
C49 O47 1.353 . S
C49 O48 1.286 . S
C49 C51 1.363 . S
C50 C40 1.465 . S
C50 U46 2.847 . S
C50 O64 1.249 . S
C50 O65 1.202 . S
C51 C49 1.363 . S
C51 C53 1.408 . S
C51 C56 1.338 1_455 S
C52 C53 1.309 1_655 S
C52 C55 1.462 . S
C52 H72 0.932 . S
C53 C51 1.408 . S
C53 C52 1.309 1_455 S
C53 H73 0.930 . S
C54 C55 1.474 . S
C54 C56 1.289 . S
C54 H74 0.929 . S
C55 C52 1.462 . S
C55 C54 1.474 . S
C56 C51 1.338 1_655 S
C56 C54 1.289 . S
C56 H75 0.933 . S
C57 C60 1.424 . S
C57 C62 1.245 . S
C57 C63 1.428 . S
C58 C61 1.268 . S
C58 C62 1.477 . S
C58 H76 0.932 . S
C59 C60 1.384 . S
C59 C61 1.485 . S
C59 H77 0.929 . S
C60 C57 1.424 . S
C60 C59 1.384 . S
C60 H78 0.928 . S
C61 C58 1.268 . S
C61 C59 1.485 . S
C62 C57 1.245 . S
C62 C58 1.477 . S
C62 H79 0.932 . S
C63 U46 2.882 . S
C63 C57 1.428 . S
C63 O66 1.301 . S
C63 O67 1.282 . S
O64 U46 2.441 . S
O64 C50 1.249 . S
O65 U46 2.420 . S
O65 C50 1.202 . S
O66 U46 2.455 . S
O66 C63 1.301 . S
O67 U46 2.449 . S
O67 C63 1.282 . S
H68 C41 0.931 . S
H69 C43 0.929 . S
H70 C44 0.926 1_655 S
H71 C45 0.931 . S
H72 C52 0.932 . S
H73 C53 0.930 . S
H74 C54 0.929 . S
H75 C56 0.933 . S
H76 C58 0.932 . S
H77 C59 0.929 . S
H78 C60 0.928 . S
H79 C62 0.932 . S
C80 C81 1.264 . S
C80 C85 1.479 . S
C80 C90 1.465 . S
C81 C80 1.264 . S
C81 C83 1.339 . S
C81 H108 0.931 . S
C82 C83 1.395 1_565 S
C82 C84 1.320 . S
C83 C81 1.339 . S
C83 C82 1.395 1_545 S
C83 H109 0.929 . S
C84 C82 1.320 . S
C84 C85 1.403 1_565 S
C84 H110 0.932 . S
C85 C80 1.479 . S
C85 C84 1.403 1_545 S
C85 H111 0.931 . S
U86 O87 2.454 . S
U86 O88 2.458 . S
U86 C89 2.984 . S
U86 C90 2.847 . S
U86 C103 2.882 . S
U86 O104 2.441 . S
U86 O105 2.420 . S
U86 O106 2.455 . S
U86 O107 2.449 . S
O87 U86 2.454 . S
O87 C89 1.353 . S
O88 U86 2.458 . S
O88 C89 1.286 . S
C89 U86 2.984 . S
C89 O87 1.353 . S
C89 O88 1.286 . S
C89 C91 1.363 . S
C90 C80 1.465 . S
C90 U86 2.847 . S
C90 O104 1.249 . S
C90 O105 1.202 . S
C91 C89 1.363 . S
C91 C93 1.409 . S
C91 C96 1.342 1_545 S
C92 C93 1.307 1_565 S
C92 C95 1.461 . S
C92 H112 0.932 . S
C93 C91 1.409 . S
C93 C92 1.307 1_545 S
C93 H113 0.934 . S
C94 C95 1.474 . S
C94 C96 1.285 . S
C94 H114 0.929 . S
C95 C92 1.461 . S
C95 C94 1.474 . S
C96 C91 1.342 1_565 S
C96 C94 1.285 . S
C96 H115 0.930 . S
C97 C100 1.424 . S
C97 C102 1.245 . S
C97 C103 1.428 . S
C98 C101 1.261 . S
C98 C102 1.477 . S
C98 H116 0.932 . S
C99 C100 1.384 . S
C99 C101 1.479 . S
C99 H117 0.929 . S
C100 C97 1.424 . S
C100 C99 1.384 . S
C100 H118 0.928 . S
C101 C98 1.261 . S
C101 C99 1.479 . S
C102 C97 1.245 . S
C102 C98 1.477 . S
C102 H119 0.932 . S
C103 U86 2.882 . S
C103 C97 1.428 . S
C103 O106 1.301 . S
C103 O107 1.282 . S
O104 U86 2.441 . S
O104 C90 1.249 . S
O105 U86 2.420 . S
O105 C90 1.202 . S
O106 U86 2.455 . S
O106 C103 1.301 . S
O107 U86 2.449 . S
O107 C103 1.282 . S
H108 C81 0.931 . S
H109 C83 0.929 . S
H110 C84 0.932 . S
H111 C85 0.931 . S
H112 C92 0.932 . S
H113 C93 0.934 . S
H114 C94 0.929 . S
H115 C96 0.930 . S
H116 C98 0.932 . S
H117 C99 0.929 . S
H118 C100 0.928 . S
H119 C102 0.932 . S
C120 C121 1.264 . S
C120 C125 1.479 . S
C120 C130 1.465 . S
C121 C120 1.264 . S
C121 C123 1.339 . S
C121 H148 0.931 . S
C122 C123 1.395 . S
C122 C124 1.320 . S
C123 C121 1.339 . S
C123 C122 1.395 . S
C123 H149 0.929 . S
C124 C122 1.320 . S
C124 C125 1.405 . S
C124 H150 0.930 . S
C125 C120 1.479 . S
C125 C124 1.405 . S
C125 H151 0.931 . S
U126 O127 2.454 . S
U126 O128 2.458 . S
U126 C129 2.984 . S
U126 C130 2.847 . S
U126 C143 2.882 . S
U126 O144 2.441 . S
U126 O145 2.420 . S
U126 O146 2.455 . S
U126 O147 2.449 . S
O127 U126 2.454 . S
O127 C129 1.353 . S
O128 U126 2.458 . S
O128 C129 1.286 . S
C129 U126 2.984 . S
C129 O127 1.353 . S
C129 O128 1.286 . S
C129 C131 1.363 . S
C130 C120 1.465 . S
C130 U126 2.847 . S
C130 O144 1.249 . S
C130 O145 1.202 . S
C131 C129 1.363 . S
C131 C133 1.408 . S
C131 C136 1.342 . S
C132 C133 1.310 . S
C132 C135 1.461 . S
C132 H152 0.932 . S
C133 C131 1.408 . S
C133 C132 1.310 . S
C133 H153 0.930 . S
C134 C135 1.474 . S
C134 C136 1.285 . S
C134 H154 0.929 . S
C135 C132 1.461 . S
C135 C134 1.474 . S
C136 C131 1.342 . S
C136 C134 1.285 . S
C136 H155 0.930 . S
C137 C140 1.424 . S
C137 C142 1.245 . S
C137 C143 1.428 . S
C138 C141 1.260 . S
C138 C142 1.477 . S
C138 H156 0.932 . S
C139 C140 1.384 . S
C139 C141 1.479 . S
C139 H157 0.929 . S
C140 C137 1.424 . S
C140 C139 1.384 . S
C140 H158 0.928 . S
C141 C138 1.260 . S
C141 C139 1.479 . S
C142 C137 1.245 . S
C142 C138 1.477 . S
C142 H159 0.932 . S
C143 U126 2.882 . S
C143 C137 1.428 . S
C143 O146 1.301 . S
C143 O147 1.282 . S
O144 U126 2.441 . S
O144 C130 1.249 . S
O145 U126 2.420 . S
O145 C130 1.202 . S
O146 U126 2.455 . S
O146 C143 1.301 . S
O147 U126 2.449 . S
O147 C143 1.282 . S
H148 C121 0.931 . S
H149 C123 0.929 . S
H150 C124 0.930 . S
H151 C125 0.931 . S
H152 C132 0.932 . S
H153 C133 0.930 . S
H154 C134 0.929 . S
H155 C136 0.930 . S
H156 C138 0.932 . S
H157 C139 0.929 . S
H158 C140 0.928 . S
H159 C142 0.932 . S
C160 C161 1.264 . S
C160 C165 1.479 . S
C160 C170 1.465 . S
C161 C160 1.264 . S
C161 C163 1.339 . S
C161 H188 0.931 . S
C162 C163 1.395 . S
C162 C164 1.320 . S
C163 C161 1.339 . S
C163 C162 1.395 . S
C163 H189 0.929 . S
C164 C162 1.320 . S
C164 C165 1.405 . S
C164 H190 0.930 . S
C165 C160 1.479 . S
C165 C164 1.405 . S
C165 H191 0.931 . S
U166 O167 2.454 1_554 S
U166 O168 2.458 . S
U166 C169 2.984 . S
U166 C170 2.847 1_554 S
U166 C183 2.882 . S
U166 O184 2.441 1_554 S
U166 O185 2.420 1_554 S
U166 O186 2.455 . S
U166 O187 2.449 . S
O167 U166 2.454 1_556 S
O167 C169 1.353 1_556 S
O168 U166 2.458 . S
O168 C169 1.286 . S
C169 U166 2.984 . S
C169 O167 1.353 1_554 S
C169 O168 1.286 . S
C169 C171 1.363 . S
C170 C160 1.465 . S
C170 U166 2.847 1_556 S
C170 O184 1.249 . S
C170 O185 1.202 . S
C171 C169 1.363 . S
C171 C173 1.408 . S
C171 C176 1.342 . S
C172 C173 1.310 . S
C172 C175 1.461 . S
C172 H192 0.932 . S
C173 C171 1.408 . S
C173 C172 1.310 . S
C173 H193 0.930 1_554 S
C174 C175 1.474 . S
C174 C176 1.285 . S
C174 H194 0.929 . S
C175 C172 1.461 . S
C175 C174 1.474 . S
C176 C171 1.342 . S
C176 C174 1.285 . S
C176 H195 0.930 . S
C177 C180 1.424 . S
C177 C182 1.245 . S
C177 C183 1.428 . S
C178 C181 1.260 . S
C178 C182 1.477 . S
C178 H196 0.932 . S
C179 C180 1.384 . S
C179 C181 1.479 . S
C179 H197 0.929 . S
C180 C177 1.424 . S
C180 C179 1.384 . S
C180 H198 0.928 . S
C181 C178 1.260 . S
C181 C179 1.479 . S
C182 C177 1.245 . S
C182 C178 1.477 . S
C182 H199 0.932 . S
C183 U166 2.882 . S
C183 C177 1.428 . S
C183 O186 1.301 . S
C183 O187 1.282 . S
O184 U166 2.441 1_556 S
O184 C170 1.249 . S
O185 U166 2.420 1_556 S
O185 C170 1.202 . S
O186 U166 2.455 . S
O186 C183 1.301 . S
O187 U166 2.449 . S
O187 C183 1.282 . S
H188 C161 0.931 . S
H189 C163 0.929 . S
H190 C164 0.930 . S
H191 C165 0.931 . S
H192 C172 0.932 . S
H193 C173 0.930 1_556 S
H194 C174 0.929 . S
H195 C176 0.930 . S
H196 C178 0.932 . S
H197 C179 0.929 . S
H198 C180 0.928 . S
H199 C182 0.932 . S
C200 C201 1.264 . S
C200 C205 1.479 . S
C200 C210 1.465 . S
C201 C200 1.264 . S
C201 C203 1.339 . S
C201 H228 0.931 . S
C202 C203 1.395 . S
C202 C204 1.320 . S
C203 C201 1.339 . S
C203 C202 1.395 . S
C203 H229 0.929 . S
C204 C202 1.320 . S
C204 C205 1.405 . S
C204 H230 0.930 . S
C205 C200 1.479 . S
C205 C204 1.405 . S
C205 H231 0.931 . S
U206 O207 2.454 1_554 S
U206 O208 2.458 . S
U206 C209 2.984 . S
U206 C210 2.847 1_554 S
U206 C223 2.882 . S
U206 O224 2.441 1_554 S
U206 O225 2.420 1_554 S
U206 O226 2.455 . S
U206 O227 2.449 . S
O207 U206 2.454 1_556 S
O207 C209 1.353 1_556 S
O208 U206 2.458 . S
O208 C209 1.286 . S
C209 U206 2.984 . S
C209 O207 1.353 1_554 S
C209 O208 1.286 . S
C209 C211 1.363 . S
C210 C200 1.465 . S
C210 U206 2.847 1_556 S
C210 O224 1.249 . S
C210 O225 1.202 . S
C211 C209 1.363 . S
C211 C213 1.408 . S
C211 C216 1.342 . S
C212 C213 1.310 . S
C212 C215 1.461 . S
C212 H232 0.932 . S
C213 C211 1.408 . S
C213 C212 1.310 . S
C213 H233 0.930 1_554 S
C214 C215 1.474 . S
C214 C216 1.285 . S
C214 H234 0.936 . S
C215 C212 1.461 . S
C215 C214 1.474 . S
C216 C211 1.342 . S
C216 C214 1.285 . S
C216 H235 0.930 . S
C217 C220 1.424 . S
C217 C222 1.245 . S
C217 C223 1.428 . S
C218 C221 1.260 . S
C218 C222 1.477 . S
C218 H236 0.932 . S
C219 C220 1.384 . S
C219 C221 1.479 . S
C219 H237 0.929 . S
C220 C217 1.424 . S
C220 C219 1.384 . S
C220 H238 0.928 . S
C221 C218 1.260 . S
C221 C219 1.479 . S
C222 C217 1.245 . S
C222 C218 1.477 . S
C222 H239 0.932 . S
C223 U206 2.882 . S
C223 C217 1.428 . S
C223 O226 1.301 . S
C223 O227 1.282 . S
O224 U206 2.441 1_556 S
O224 C210 1.249 . S
O225 U206 2.420 1_556 S
O225 C210 1.202 . S
O226 U206 2.455 . S
O226 C223 1.301 . S
O227 U206 2.449 . S
O227 C223 1.282 . S
H228 C201 0.931 . S
H229 C203 0.929 . S
H230 C204 0.930 . S
H231 C205 0.931 . S
H232 C212 0.932 . S
H233 C213 0.930 1_556 S
H234 C214 0.936 . S
H235 C216 0.930 . S
H236 C218 0.932 . S
H237 C219 0.929 . S
H238 C220 0.928 . S
H239 C222 0.932 . S
C240 C241 1.264 . S
C240 C245 1.479 . S
C240 C250 1.465 . S
C241 C240 1.264 . S
C241 C243 1.339 . S
C241 H268 0.931 . S
C242 C243 1.395 . S
C242 C244 1.320 . S
C243 C241 1.339 . S
C243 C242 1.395 . S
C243 H269 0.929 . S
C244 C242 1.320 . S
C244 C245 1.405 . S
C244 H270 0.930 . S
C245 C240 1.479 . S
C245 C244 1.405 . S
C245 H271 0.931 . S
U246 O247 2.454 1_554 S
U246 O248 2.458 . S
U246 C249 2.984 . S
U246 C250 2.847 1_554 S
U246 C263 2.882 . S
U246 O264 2.441 1_554 S
U246 O265 2.420 1_554 S
U246 O266 2.455 . S
U246 O267 2.449 . S
O247 U246 2.454 1_556 S
O247 C249 1.353 1_556 S
O248 U246 2.458 . S
O248 C249 1.286 . S
C249 U246 2.984 . S
C249 O247 1.353 1_554 S
C249 O248 1.286 . S
C249 C251 1.363 . S
C250 C240 1.465 . S
C250 U246 2.847 1_556 S
C250 O264 1.249 . S
C250 O265 1.202 . S
C251 C249 1.363 . S
C251 C253 1.408 . S
C251 C256 1.342 . S
C252 C253 1.310 . S
C252 C255 1.461 . S
C252 H272 0.932 . S
C253 C251 1.408 . S
C253 C252 1.310 . S
C253 H273 0.930 1_554 S
C254 C255 1.474 . S
C254 C256 1.285 . S
C254 H274 0.929 . S
C255 C252 1.461 . S
C255 C254 1.474 . S
C256 C251 1.342 . S
C256 C254 1.285 . S
C256 H275 0.930 . S
C257 C260 1.424 . S
C257 C262 1.245 . S
C257 C263 1.428 . S
C258 C261 1.260 . S
C258 C262 1.477 . S
C258 H276 0.932 . S
C259 C260 1.384 . S
C259 C261 1.479 . S
C259 H277 0.929 . S
C260 C257 1.424 . S
C260 C259 1.384 . S
C260 H278 0.928 . S
C261 C258 1.260 . S
C261 C259 1.479 . S
C262 C257 1.245 . S
C262 C258 1.477 . S
C262 H279 0.932 . S
C263 U246 2.882 . S
C263 C257 1.428 . S
C263 O266 1.301 . S
C263 O267 1.282 . S
O264 U246 2.441 1_556 S
O264 C250 1.249 . S
O265 U246 2.420 1_556 S
O265 C250 1.202 . S
O266 U246 2.455 . S
O266 C263 1.301 . S
O267 U246 2.449 . S
O267 C263 1.282 . S
H268 C241 0.931 . S
H269 C243 0.929 . S
H270 C244 0.930 . S
H271 C245 0.931 . S
H272 C252 0.932 . S
H273 C253 0.930 1_556 S
H274 C254 0.929 . S
H275 C256 0.930 . S
H276 C258 0.932 . S
H277 C259 0.929 . S
H278 C260 0.928 . S
H279 C262 0.932 . S
C280 C281 1.264 . S
C280 C285 1.479 . S
C280 C290 1.465 . S
C281 C280 1.264 . S
C281 C283 1.339 . S
C281 H308 0.931 . S
C282 C283 1.395 . S
C282 C284 1.320 . S
C283 C281 1.339 . S
C283 C282 1.395 . S
C283 H309 0.929 . S
C284 C282 1.320 . S
C284 C285 1.405 . S
C284 H310 0.930 . S
C285 C280 1.479 . S
C285 C284 1.405 . S
C285 H311 0.931 . S
U286 O287 2.454 1_554 S
U286 O288 2.458 . S
U286 C289 2.984 . S
U286 C290 2.847 1_554 S
U286 C303 2.882 . S
U286 O304 2.441 1_554 S
U286 O305 2.420 1_554 S
U286 O306 2.455 . S
U286 O307 2.449 . S
O287 U286 2.454 1_556 S
O287 C289 1.353 1_556 S
O288 U286 2.458 . S
O288 C289 1.286 . S
C289 U286 2.984 . S
C289 O287 1.353 1_554 S
C289 O288 1.286 . S
C289 C291 1.363 . S
C290 C280 1.465 . S
C290 U286 2.847 1_556 S
C290 O304 1.249 . S
C290 O305 1.202 . S
C291 C289 1.363 . S
C291 C293 1.408 . S
C291 C296 1.342 . S
C292 C293 1.310 . S
C292 C295 1.461 . S
C292 H312 0.932 . S
C293 C291 1.408 . S
C293 C292 1.310 . S
C293 H313 0.930 1_554 S
C294 C295 1.474 . S
C294 C296 1.285 . S
C294 H314 0.929 . S
C295 C292 1.461 . S
C295 C294 1.474 . S
C296 C291 1.342 . S
C296 C294 1.285 . S
C296 H315 0.930 . S
C297 C300 1.424 . S
C297 C302 1.245 . S
C297 C303 1.428 . S
C298 C301 1.260 . S
C298 C302 1.477 . S
C298 H316 0.932 . S
C299 C300 1.384 . S
C299 C301 1.479 . S
C299 H317 0.929 . S
C300 C297 1.424 . S
C300 C299 1.384 . S
C300 H318 0.928 . S
C301 C298 1.260 . S
C301 C299 1.479 . S
C302 C297 1.245 . S
C302 C298 1.477 . S
C302 H319 0.932 . S
C303 U286 2.882 . S
C303 C297 1.428 . S
C303 O306 1.301 . S
C303 O307 1.282 . S
O304 U286 2.441 1_556 S
O304 C290 1.249 . S
O305 U286 2.420 1_556 S
O305 C290 1.202 . S
O306 U286 2.455 . S
O306 C303 1.301 . S
O307 U286 2.449 . S
O307 C303 1.282 . S
H308 C281 0.931 . S
H309 C283 0.929 . S
H310 C284 0.930 . S
H311 C285 0.931 . S
H312 C292 0.932 . S
H313 C293 0.930 1_556 S
H314 C294 0.929 . S
H315 C296 0.930 . S
H316 C298 0.932 . S
H317 C299 0.929 . S
H318 C300 0.928 . S
H319 C302 0.932 . S
Gd320 C323 2.818 . S
Gd320 O340 2.377 . S
Gd320 O342 2.448 . S
Gd320 O343 2.506 . S
Gd320 O344 2.435 . S
Gd320 O345 2.717 1_565 S
Gd320 O347 2.395 1_565 S
Gd320 O351 2.327 1_455 S
Gd321 C332 2.818 . S
Gd321 O341 2.395 1_545 S
Gd321 O345 2.327 1_655 S
Gd321 O346 2.377 . S
Gd321 O348 2.448 . S
Gd321 O349 2.506 . S
Gd321 O350 2.435 . S
Gd321 O351 2.717 1_545 S
C322 O340 1.240 1_655 S
C322 O341 1.240 . S
C323 Gd320 2.818 . S
C323 C324 1.510 . S
C323 O342 1.249 . S
C323 O343 1.252 . S
C324 C323 1.510 . S
C324 C325 1.404 . S
C324 C326 1.352 . S
C325 C324 1.404 . S
C325 C329 1.389 . S
C325 H352 0.930 . S
C326 C324 1.352 . S
C326 C328 1.374 . S
C326 H353 0.931 1_455 S
C327 C328 1.359 . S
C327 C329 1.364 . S
C328 C326 1.374 . S
C328 C327 1.359 . S
C328 H354 0.931 1_455 S
C329 C325 1.389 . S
C329 C327 1.364 . S
C329 H355 0.931 . S
C330 O344 1.235 1_545 S
C330 O345 1.270 . S
C331 O346 1.240 1_455 S
C331 O347 1.240 . S
C332 Gd321 2.818 . S
C332 C333 1.510 . S
C332 O348 1.249 . S
C332 O349 1.252 . S
C333 C332 1.510 . S
C333 C334 1.404 . S
C333 C335 1.352 . S
C334 C333 1.404 . S
C334 C338 1.389 . S
C334 H356 0.930 . S
C335 C333 1.352 . S
C335 C337 1.374 . S
C335 H357 0.931 1_655 S
C336 C337 1.359 . S
C336 C338 1.364 . S
C337 C335 1.374 . S
C337 C336 1.359 . S
C337 H358 0.931 1_655 S
C338 C334 1.389 . S
C338 C336 1.364 . S
C338 H359 0.931 . S
C339 O350 1.256 . S
C339 O351 1.257 1_545 S
O340 Gd320 2.377 . S
O340 C322 1.240 1_455 S
O341 Gd321 2.395 1_565 S
O341 C322 1.240 . S
O342 Gd320 2.448 . S
O342 C323 1.249 . S
O343 Gd320 2.506 . S
O343 C323 1.252 . S
O344 Gd320 2.435 . S
O344 C330 1.235 1_565 S
O345 Gd320 2.717 1_545 S
O345 Gd321 2.327 1_455 S
O345 C330 1.270 . S
O346 Gd321 2.377 . S
O346 C331 1.240 1_655 S
O347 Gd320 2.395 1_545 S
O347 C331 1.240 . S
O348 Gd321 2.448 . S
O348 C332 1.249 . S
O349 Gd321 2.506 . S
O349 C332 1.252 . S
O350 Gd321 2.435 . S
O350 C339 1.256 . S
O351 Gd320 2.327 1_655 S
O351 Gd321 2.717 1_565 S
O351 C339 1.257 1_565 S
H352 C325 0.930 . S
H353 C326 0.931 1_655 S
H354 C328 0.931 1_655 S
H355 C329 0.931 . S
H356 C334 0.930 . S
H357 C335 0.931 1_455 S
H358 C337 0.931 1_455 S
H359 C338 0.931 . S
Gd360 C363 2.818 . S
Gd360 O380 2.377 . S
Gd360 O382 2.448 . S
Gd360 O383 2.506 . S
Gd360 O384 2.435 . S
Gd360 O385 2.717 . S
Gd360 O387 2.395 . S
Gd360 O391 2.327 1_545 S
Gd361 C372 2.818 . S
Gd361 O381 2.395 . S
Gd361 O385 2.327 1_565 S
Gd361 O386 2.377 . S
Gd361 O388 2.448 . S
Gd361 O389 2.506 . S
Gd361 O390 2.435 . S
Gd361 O391 2.717 . S
C362 O380 1.240 1_565 S
C362 O381 1.240 . S
C363 Gd360 2.818 . S
C363 C364 1.510 . S
C363 O382 1.249 . S
C363 O383 1.252 . S
C364 C363 1.510 . S
C364 C365 1.404 . S
C364 C366 1.352 . S
C365 C364 1.404 . S
C365 C369 1.389 . S
C365 H392 0.930 . S
C366 C364 1.352 . S
C366 C368 1.374 . S
C366 H393 0.931 1_545 S
C367 C368 1.359 . S
C367 C369 1.364 . S
C368 C366 1.374 . S
C368 C367 1.359 . S
C368 H394 0.931 1_545 S
C369 C365 1.389 . S
C369 C367 1.364 . S
C369 H395 0.931 . S
C370 O384 1.256 . S
C370 O385 1.257 . S
C371 O386 1.240 1_545 S
C371 O387 1.240 . S
C372 Gd361 2.818 . S
C372 C373 1.510 . S
C372 O388 1.249 . S
C372 O389 1.252 . S
C373 C372 1.510 . S
C373 C374 1.404 . S
C373 C375 1.352 . S
C374 C373 1.404 . S
C374 C378 1.389 . S
C374 H396 0.930 . S
C375 C373 1.352 . S
C375 C377 1.374 . S
C375 H397 0.931 1_565 S
C376 C377 1.359 . S
C376 C378 1.364 . S
C377 C375 1.374 . S
C377 C376 1.359 . S
C377 H398 0.931 1_565 S
C378 C374 1.389 . S
C378 C376 1.364 . S
C378 H399 0.931 . S
C379 O390 1.256 . S
C379 O391 1.257 . S
O380 Gd360 2.377 . S
O380 C362 1.240 1_545 S
O381 Gd361 2.395 . S
O381 C362 1.240 . S
O382 Gd360 2.448 . S
O382 C363 1.249 . S
O383 Gd360 2.506 . S
O383 C363 1.252 . S
O384 Gd360 2.435 . S
O384 C370 1.256 . S
O385 Gd360 2.717 . S
O385 Gd361 2.327 1_545 S
O385 C370 1.257 . S
O386 Gd361 2.377 . S
O386 C371 1.240 1_565 S
O387 Gd360 2.395 . S
O387 C371 1.240 . S
O388 Gd361 2.448 . S
O388 C372 1.249 . S
O389 Gd361 2.506 . S
O389 C372 1.252 . S
O390 Gd361 2.435 . S
O390 C379 1.256 . S
O391 Gd360 2.327 1_565 S
O391 Gd361 2.717 . S
O391 C379 1.257 . S
H392 C365 0.930 . S
H393 C366 0.931 1_565 S
H394 C368 0.931 1_565 S
H395 C369 0.931 . S
H396 C374 0.930 . S
H397 C375 0.931 1_545 S
H398 C377 0.931 1_545 S
H399 C378 0.931 . S
Gd400 C403 2.818 . S
Gd400 O420 2.377 . S
Gd400 O422 2.448 . S
Gd400 O423 2.506 . S
Gd400 O424 2.435 . S
Gd400 O425 2.717 . S
Gd400 O427 2.395 . S
Gd400 O431 2.327 . S
Gd401 C412 2.818 . S
Gd401 O421 2.395 . S
Gd401 O425 2.327 . S
Gd401 O426 2.377 . S
Gd401 O428 2.448 . S
Gd401 O429 2.506 . S
Gd401 O430 2.435 . S
Gd401 O431 2.717 . S
C402 O420 1.240 . S
C402 O421 1.240 . S
C403 Gd400 2.818 . S
C403 C404 1.510 . S
C403 O422 1.249 . S
C403 O423 1.252 . S
C404 C403 1.510 . S
C404 C405 1.404 . S
C404 C406 1.352 . S
C405 C404 1.404 . S
C405 C409 1.389 . S
C405 H432 0.930 . S
C406 C404 1.352 . S
C406 C408 1.374 . S
C406 H433 0.931 . S
C407 C408 1.359 . S
C407 C409 1.364 . S
C408 C406 1.374 . S
C408 C407 1.359 . S
C408 H434 0.931 . S
C409 C405 1.389 . S
C409 C407 1.364 . S
C409 H435 0.931 . S
C410 O424 1.256 . S
C410 O425 1.257 . S
C411 O426 1.240 . S
C411 O427 1.240 . S
C412 Gd401 2.818 . S
C412 C413 1.510 . S
C412 O428 1.249 . S
C412 O429 1.252 . S
C413 C412 1.510 . S
C413 C414 1.404 . S
C413 C415 1.352 . S
C414 C413 1.404 . S
C414 C418 1.389 . S
C414 H436 0.930 . S
C415 C413 1.352 . S
C415 C417 1.374 . S
C415 H437 0.931 . S
C416 C417 1.359 . S
C416 C418 1.364 . S
C417 C415 1.374 . S
C417 C416 1.359 . S
C417 H438 0.931 . S
C418 C414 1.389 . S
C418 C416 1.364 . S
C418 H439 0.931 . S
C419 O430 1.256 . S
C419 O431 1.257 . S
O420 Gd400 2.377 . S
O420 C402 1.240 . S
O421 Gd401 2.395 . S
O421 C402 1.240 . S
O422 Gd400 2.448 . S
O422 C403 1.249 . S
O423 Gd400 2.506 . S
O423 C403 1.252 . S
O424 Gd400 2.435 . S
O424 C410 1.256 . S
O425 Gd400 2.717 . S
O425 Gd401 2.327 . S
O425 C410 1.257 . S
O426 Gd401 2.377 . S
O426 C411 1.240 . S
O427 Gd400 2.395 . S
O427 C411 1.240 . S
O428 Gd401 2.448 . S
O428 C412 1.249 . S
O429 Gd401 2.506 . S
O429 C412 1.252 . S
O430 Gd401 2.435 . S
O430 C419 1.256 . S
O431 Gd400 2.327 . S
O431 Gd401 2.717 . S
O431 C419 1.257 . S
H432 C405 0.930 . S
H433 C406 0.931 . S
H434 C408 0.931 . S
H435 C409 0.931 . S
H436 C414 0.930 . S
H437 C415 0.931 . S
H438 C417 0.931 . S
H439 C418 0.931 . S
Gd440 C443 2.818 . S
Gd440 O460 2.377 . S
Gd440 O462 2.448 . S
Gd440 O463 2.506 . S
Gd440 O464 2.435 . S
Gd440 O465 2.717 1_655 S
Gd440 O467 2.395 1_655 S
Gd440 O471 2.327 . S
Gd441 C452 2.818 . S
Gd441 O461 2.395 1_455 S
Gd441 O465 2.327 . S
Gd441 O466 2.377 . S
Gd441 O468 2.448 . S
Gd441 O469 2.506 . S
Gd441 O470 2.435 . S
Gd441 O471 2.717 1_455 S
C442 O460 1.240 . S
C442 O461 1.240 . S
C443 Gd440 2.818 . S
C443 C444 1.510 . S
C443 O462 1.249 . S
C443 O463 1.252 . S
C444 C443 1.510 . S
C444 C445 1.404 . S
C444 C446 1.352 . S
C445 C444 1.404 . S
C445 C449 1.389 . S
C445 H472 0.930 . S
C446 C444 1.352 . S
C446 C448 1.374 . S
C446 H473 0.931 . S
C447 C448 1.359 . S
C447 C449 1.364 . S
C448 C446 1.374 . S
C448 C447 1.359 . S
C448 H474 0.931 . S
C449 C445 1.389 . S
C449 C447 1.364 . S
C449 H475 0.931 . S
C450 O464 1.278 . S
C450 O465 1.246 1_655 S
C451 O466 1.240 . S
C451 O467 1.240 . S
C452 Gd441 2.818 . S
C452 C453 1.510 . S
C452 O468 1.249 . S
C452 O469 1.252 . S
C453 C452 1.510 . S
C453 C454 1.404 . S
C453 C455 1.352 . S
C454 C453 1.404 . S
C454 C458 1.389 . S
C454 H476 0.930 . S
C455 C453 1.352 . S
C455 C457 1.374 . S
C455 H477 0.931 . S
C456 C457 1.359 . S
C456 C458 1.364 . S
C457 C455 1.374 . S
C457 C456 1.359 . S
C457 H478 0.931 . S
C458 C454 1.389 . S
C458 C456 1.364 . S
C458 H479 0.931 . S
C459 O470 1.256 . S
C459 O471 1.257 1_455 S
O460 Gd440 2.377 . S
O460 C442 1.240 . S
O461 Gd441 2.395 1_655 S
O461 C442 1.240 . S
O462 Gd440 2.448 . S
O462 C443 1.249 . S
O463 Gd440 2.506 . S
O463 C443 1.252 . S
O464 Gd440 2.435 . S
O464 C450 1.278 . S
O465 Gd440 2.717 1_455 S
O465 Gd441 2.327 . S
O465 C450 1.246 1_455 S
O466 Gd441 2.377 . S
O466 C451 1.240 . S
O467 Gd440 2.395 1_455 S
O467 C451 1.240 . S
O468 Gd441 2.448 . S
O468 C452 1.249 . S
O469 Gd441 2.506 . S
O469 C452 1.252 . S
O470 Gd441 2.435 . S
O470 C459 1.256 . S
O471 Gd440 2.327 . S
O471 Gd441 2.717 1_655 S
O471 C459 1.257 1_655 S
H472 C445 0.930 . S
H473 C446 0.931 . S
H474 C448 0.931 . S
H475 C449 0.931 . S
H476 C454 0.930 . S
H477 C455 0.931 . S
H478 C457 0.931 . S
H479 C458 0.931 . S
H480 C486 0.930 . S
H481 C489 0.930 . S
H482 C490 0.930 . S
H483 C491 0.930 . S
H484 C494 0.930 . S
H485 C495 0.930 . S
C486 H480 0.930 . S
C486 C487 1.355 1_565 S
C486 C488 1.415 . S
C487 C486 1.355 1_545 S
C487 C489 1.419 . S
C488 C486 1.415 . S
C488 C493 1.425 1_565 S
C488 C495 1.409 . S
C489 H481 0.930 . S
C489 C487 1.419 . S
C489 C490 1.362 . S
C490 H482 0.930 . S
C490 C489 1.362 . S
C490 C493 1.409 . S
C491 H483 0.930 . S
C491 C492 1.355 . S
C491 C493 1.415 . S
C492 C491 1.355 . S
C492 C494 1.419 1_545 S
C493 C488 1.425 1_545 S
C493 C490 1.409 . S
C493 C491 1.415 . S
C494 H484 0.930 . S
C494 C492 1.419 1_565 S
C494 C495 1.362 . S
C495 H485 0.930 . S
C495 C488 1.409 . S
C495 C494 1.362 . S
H496 C502 0.930 . S
H497 C505 0.930 . S
H498 C506 0.930 . S
H499 C507 0.930 . S
H500 C510 0.930 . S
H501 C511 0.930 . S
C502 H496 0.930 . S
C502 C503 1.355 . S
C502 C504 1.415 . S
C503 C502 1.355 . S
C503 C505 1.419 . S
C504 C502 1.415 . S
C504 C509 1.425 . S
C504 C511 1.409 . S
C505 H497 0.930 . S
C505 C503 1.419 . S
C505 C506 1.362 . S
C506 H498 0.930 . S
C506 C505 1.362 . S
C506 C509 1.409 . S
C507 H499 0.930 . S
C507 C508 1.355 . S
C507 C509 1.415 . S
C508 C507 1.355 . S
C508 C510 1.419 . S
C509 C504 1.425 . S
C509 C506 1.409 . S
C509 C507 1.415 . S
C510 H500 0.930 . S
C510 C508 1.419 . S
C510 C511 1.362 . S
C511 H501 0.930 . S
C511 C504 1.409 . S
C511 C510 1.362 . S
H512 C518 0.930 . S
H513 C521 0.930 . S
H514 C522 0.930 . S
H515 C523 0.930 . S
H516 C526 0.930 . S
H517 C527 0.930 . S
C518 H512 0.930 . S
C518 C519 1.355 . S
C518 C520 1.415 . S
C519 C518 1.355 . S
C519 C521 1.419 . S
C520 C518 1.415 . S
C520 C525 1.425 . S
C520 C527 1.409 . S
C521 H513 0.930 . S
C521 C519 1.419 . S
C521 C522 1.362 . S
C522 H514 0.930 . S
C522 C521 1.362 . S
C522 C525 1.409 . S
C523 H515 0.930 . S
C523 C524 1.355 . S
C523 C525 1.415 . S
C524 C523 1.355 . S
C524 C526 1.419 . S
C525 C520 1.425 . S
C525 C522 1.409 . S
C525 C523 1.415 . S
C526 H516 0.930 . S
C526 C524 1.419 . S
C526 C527 1.362 . S
C527 H517 0.930 . S
C527 C520 1.409 . S
C527 C526 1.362 . S
H528 C534 0.930 . S
H529 C537 0.930 . S
H530 C538 0.930 . S
H531 C539 0.930 . S
H532 C542 0.930 . S
H533 C543 0.930 . S
C534 H528 0.930 . S
C534 C535 1.355 1_655 S
C534 C536 1.415 . S
C535 C534 1.355 1_455 S
C535 C537 1.419 . S
C536 C534 1.415 . S
C536 C541 1.425 1_655 S
C536 C543 1.409 . S
C537 H529 0.930 . S
C537 C535 1.419 . S
C537 C538 1.362 . S
C538 H530 0.930 . S
C538 C537 1.362 . S
C538 C541 1.409 . S
C539 H531 0.930 . S
C539 C540 1.364 . S
C539 C541 1.415 . S
C540 C539 1.364 . S
C540 C542 1.408 1_455 S
C541 C536 1.425 1_455 S
C541 C538 1.409 . S
C541 C539 1.415 . S
C542 H532 0.930 . S
C542 C540 1.408 1_655 S
C542 C543 1.362 . S
C543 H533 0.930 . S
C543 C536 1.409 . S
C543 C542 1.362 . S
H544 C550 0.930 . S
H545 C553 0.930 . S
H546 C554 0.930 . S
H547 C555 0.930 . S
H548 C558 0.930 . S
H549 C559 0.930 . S
C550 H544 0.930 . S
C550 C551 1.369 . S
C550 C552 1.415 . S
C551 C550 1.369 . S
C551 C553 1.402 1_565 S
C552 C550 1.415 . S
C552 C557 1.425 1_564 S
C552 C559 1.409 . S
C553 H545 0.930 . S
C553 C551 1.402 1_545 S
C553 C554 1.362 . S
C554 H546 0.930 . S
C554 C553 1.362 . S
C554 C557 1.409 1_554 S
C555 H547 0.930 . S
C555 C556 1.355 1_545 S
C555 C557 1.415 . S
C556 C555 1.355 1_565 S
C556 C558 1.419 . S
C557 C552 1.425 1_546 S
C557 C554 1.409 1_556 S
C557 C555 1.415 . S
C558 H548 0.930 . S
C558 C556 1.419 . S
C558 C559 1.362 1_556 S
C559 H549 0.930 . S
C559 C552 1.409 . S
C559 C558 1.362 1_554 S
H560 C566 0.930 . S
H561 C569 0.930 . S
H562 C570 0.930 . S
H563 C571 0.930 . S
H564 C574 0.930 . S
H565 C575 0.930 1_554 S
C566 H560 0.930 . S
C566 C567 1.355 . S
C566 C568 1.415 . S
C567 C566 1.355 . S
C567 C569 1.419 . S
C568 C566 1.415 . S
C568 C573 1.425 . S
C568 C575 1.409 1_554 S
C569 H561 0.930 . S
C569 C567 1.419 . S
C569 C570 1.362 . S
C570 H562 0.930 . S
C570 C569 1.362 . S
C570 C573 1.409 . S
C571 H563 0.930 . S
C571 C572 1.355 . S
C571 C573 1.415 1_556 S
C572 C571 1.355 . S
C572 C574 1.419 . S
C573 C568 1.425 . S
C573 C570 1.409 . S
C573 C571 1.415 1_554 S
C574 H564 0.930 . S
C574 C572 1.419 . S
C574 C575 1.362 . S
C575 H565 0.930 1_556 S
C575 C568 1.409 1_556 S
C575 C574 1.362 . S
H576 C582 0.930 . S
H577 C585 0.930 . S
H578 C586 0.930 . S
H579 C587 0.930 . S
H580 C590 0.930 . S
H581 C591 0.930 . S
C582 H576 0.930 . S
C582 C583 1.355 . S
C582 C584 1.415 . S
C583 C582 1.355 . S
C583 C585 1.419 . S
C584 C582 1.415 . S
C584 C589 1.425 1_554 S
C584 C591 1.409 . S
C585 H577 0.930 . S
C585 C583 1.419 . S
C585 C586 1.362 . S
C586 H578 0.930 . S
C586 C585 1.362 . S
C586 C589 1.409 1_554 S
C587 H579 0.930 . S
C587 C588 1.355 . S
C587 C589 1.415 . S
C588 C587 1.355 . S
C588 C590 1.419 . S
C589 C584 1.425 1_556 S
C589 C586 1.409 1_556 S
C589 C587 1.415 . S
C590 H580 0.930 . S
C590 C588 1.419 . S
C590 C591 1.362 1_556 S
C591 H581 0.930 . S
C591 C584 1.409 . S
C591 C590 1.362 1_554 S
H592 C598 0.930 . S
H593 C601 0.930 . S
H594 C602 0.930 . S
H595 C603 0.930 . S
H596 C606 0.930 . S
H597 C607 0.930 1_554 S
C598 H592 0.930 . S
C598 C599 1.355 1_455 S
C598 C600 1.415 . S
C599 C598 1.355 1_655 S
C599 C601 1.419 . S
C600 C598 1.415 . S
C600 C605 1.425 1_455 S
C600 C607 1.409 1_554 S
C601 H593 0.930 . S
C601 C599 1.419 . S
C601 C602 1.362 . S
C602 H594 0.930 . S
C602 C601 1.362 . S
C602 C605 1.409 . S
C603 H595 0.930 . S
C603 C604 1.359 . S
C603 C605 1.415 1_556 S
C604 C603 1.359 . S
C604 C606 1.414 1_655 S
C605 C600 1.425 1_655 S
C605 C602 1.409 . S
C605 C603 1.415 1_554 S
C606 H596 0.930 . S
C606 C604 1.414 1_455 S
C606 C607 1.362 . S
C607 H597 0.930 1_556 S
C607 C600 1.409 1_556 S
C607 C606 1.362 . S
H608 C614 0.930 . S
H609 C617 0.930 . S
H610 C618 0.930 . S
H611 C619 0.930 . S
H612 C622 0.930 . S
H613 C623 0.930 . S
C614 H608 0.930 . S
C614 C615 1.355 1_655 S
C614 C616 1.415 . S
C615 C614 1.355 1_455 S
C615 C617 1.419 . S
C616 C614 1.415 . S
C616 C621 1.425 . S
C616 C623 1.409 . S
C617 H609 0.930 . S
C617 C615 1.419 . S
C617 C618 1.362 . S
C618 H610 0.930 . S
C618 C617 1.362 . S
C618 C621 1.409 1_455 S
C619 H611 0.930 . S
C619 C620 1.355 . S
C619 C621 1.415 . S
C620 C619 1.355 . S
C620 C622 1.419 . S
C621 C616 1.425 . S
C621 C618 1.409 1_655 S
C621 C619 1.415 . S
C622 H612 0.930 . S
C622 C620 1.419 . S
C622 C623 1.362 . S
C623 H613 0.930 . S
C623 C616 1.409 . S
C623 C622 1.362 . S
H624 C630 0.930 . S
H625 C633 0.930 . S
H626 C634 0.930 . S
H627 C635 0.930 . S
H628 C638 0.930 . S
H629 C639 0.944 . S
C630 H624 0.930 . S
C630 C631 1.355 . S
C630 C632 1.415 1_545 S
C631 C630 1.355 . S
C631 C633 1.419 1_545 S
C632 C630 1.415 1_565 S
C632 C637 1.425 . S
C632 C639 1.406 1_565 S
C633 H625 0.930 . S
C633 C631 1.419 1_565 S
C633 C634 1.362 . S
C634 H626 0.930 . S
C634 C633 1.362 . S
C634 C637 1.409 . S
C635 H627 0.930 . S
C635 C636 1.355 . S
C635 C637 1.415 . S
C636 C635 1.355 . S
C636 C638 1.419 . S
C637 C632 1.425 . S
C637 C634 1.409 . S
C637 C635 1.415 . S
C638 H628 0.930 . S
C638 C636 1.419 . S
C638 C639 1.352 1_565 S
C639 H629 0.944 . S
C639 C632 1.406 1_545 S
C639 C638 1.352 1_545 S
H640 C646 0.930 . S
H641 C649 0.930 . S
H642 C650 0.930 . S
H643 C651 0.930 . S
H644 C654 0.930 . S
H645 C655 0.930 . S
C646 H640 0.930 . S
C646 C647 1.355 . S
C646 C648 1.415 . S
C647 C646 1.355 . S
C647 C649 1.419 . S
C648 C646 1.415 . S
C648 C653 1.425 . S
C648 C655 1.409 . S
C649 H641 0.930 . S
C649 C647 1.419 . S
C649 C650 1.362 . S
C650 H642 0.930 . S
C650 C649 1.362 . S
C650 C653 1.409 . S
C651 H643 0.930 . S
C651 C652 1.355 . S
C651 C653 1.415 . S
C652 C651 1.355 . S
C652 C654 1.419 . S
C653 C648 1.425 . S
C653 C650 1.409 . S
C653 C651 1.415 . S
C654 H644 0.930 . S
C654 C652 1.419 . S
C654 C655 1.362 . S
C655 H645 0.930 . S
C655 C648 1.409 . S
C655 C654 1.362 . S
H656 C662 0.930 . S
H657 C665 0.930 . S
H658 C666 0.930 . S
H659 C667 0.930 . S
H660 C670 0.930 . S
H661 C671 0.930 . S
C662 H656 0.930 . S
C662 C663 1.355 . S
C662 C664 1.415 . S
C663 C662 1.355 . S
C663 C665 1.419 . S
C664 C662 1.415 . S
C664 C669 1.425 . S
C664 C671 1.409 . S
C665 H657 0.930 . S
C665 C663 1.419 . S
C665 C666 1.362 . S
C666 H658 0.930 . S
C666 C665 1.362 . S
C666 C669 1.409 . S
C667 H659 0.930 . S
C667 C668 1.355 . S
C667 C669 1.415 . S
C668 C667 1.355 . S
C668 C670 1.419 . S
C669 C664 1.425 . S
C669 C666 1.409 . S
C669 C667 1.415 . S
C670 H660 0.930 . S
C670 C668 1.419 . S
C670 C671 1.362 . S
C671 H661 0.930 . S
C671 C664 1.409 . S
C671 C670 1.362 . S
H672 C678 0.930 . S
H673 C681 0.930 . S
H674 C682 0.930 . S
H675 C683 0.930 . S
H676 C686 0.930 . S
H677 C687 0.930 . S
C678 H672 0.930 . S
C678 C679 1.355 . S
C678 C680 1.415 1_655 S
C679 C678 1.355 . S
C679 C681 1.419 1_655 S
C680 C678 1.415 1_455 S
C680 C685 1.425 1_554 S
C680 C687 1.409 1_455 S
C681 H673 0.930 . S
C681 C679 1.419 1_455 S
C681 C682 1.362 1_554 S
C682 H674 0.930 . S
C682 C681 1.362 1_556 S
C682 C685 1.409 . S
C683 H675 0.930 . S
C683 C684 1.355 . S
C683 C685 1.415 . S
C684 C683 1.355 . S
C684 C686 1.419 . S
C685 C680 1.425 1_556 S
C685 C682 1.409 . S
C685 C683 1.415 . S
C686 H676 0.930 . S
C686 C684 1.419 . S
C686 C687 1.362 1_456 S
C687 H677 0.930 . S
C687 C680 1.409 1_655 S
C687 C686 1.362 1_654 S
H688 C694 0.930 . S
H689 C697 0.930 . S
H690 C698 0.930 . S
H691 C699 0.927 1_554 S
H692 C702 0.930 . S
H693 C703 0.930 . S
C694 H688 0.930 . S
C694 C695 1.355 1_545 S
C694 C696 1.415 1_554 S
C695 C694 1.355 1_565 S
C695 C697 1.419 . S
C696 C694 1.415 1_556 S
C696 C701 1.425 1_556 S
C696 C703 1.409 . S
C697 H689 0.930 . S
C697 C695 1.419 . S
C697 C698 1.362 . S
C698 H690 0.930 . S
C698 C697 1.362 . S
C698 C701 1.409 1_565 S
C699 H691 0.927 1_556 S
C699 C700 1.355 . S
C699 C701 1.415 1_556 S
C700 C699 1.355 . S
C700 C702 1.419 . S
C701 C696 1.425 1_554 S
C701 C698 1.409 1_545 S
C701 C699 1.415 1_554 S
C702 H692 0.930 . S
C702 C700 1.419 . S
C702 C703 1.362 . S
C703 H693 0.930 . S
C703 C696 1.409 . S
C703 C702 1.362 . S
H704 C710 0.930 1_556 S
H705 C713 0.930 . S
H706 C714 0.930 . S
H707 C715 0.930 1_554 S
H708 C718 0.930 . S
H709 C719 0.930 . S
C710 H704 0.930 1_554 S
C710 C711 1.355 . S
C710 C712 1.415 1_554 S
C711 C710 1.355 . S
C711 C713 1.419 . S
C712 C710 1.415 1_556 S
C712 C717 1.425 1_556 S
C712 C719 1.409 . S
C713 H705 0.930 . S
C713 C711 1.419 . S
C713 C714 1.362 . S
C714 H706 0.930 . S
C714 C713 1.362 . S
C714 C717 1.409 . S
C715 H707 0.930 1_556 S
C715 C716 1.355 . S
C715 C717 1.415 1_556 S
C716 C715 1.355 . S
C716 C718 1.419 . S
C717 C712 1.425 1_554 S
C717 C714 1.409 . S
C717 C715 1.415 1_554 S
C718 H708 0.930 . S
C718 C716 1.419 . S
C718 C719 1.362 . S
C719 H709 0.930 . S
C719 C712 1.409 . S
C719 C718 1.362 . S
H720 C726 0.930 . S
H721 C729 0.931 . S
H722 C730 0.930 . S
H723 C731 0.930 . S
H724 C734 0.930 . S
H725 C735 0.930 . S
C726 H720 0.930 . S
C726 C727 1.355 . S
C726 C728 1.415 . S
C727 C726 1.355 . S
C727 C729 1.414 1_554 S
C728 C726 1.415 . S
C728 C733 1.425 1_554 S
C728 C735 1.409 . S
C729 H721 0.931 . S
C729 C727 1.414 1_556 S
C729 C730 1.366 . S
C730 H722 0.930 . S
C730 C729 1.366 . S
C730 C733 1.409 . S
C731 H723 0.930 . S
C731 C732 1.355 . S
C731 C733 1.415 . S
C732 C731 1.355 . S
C732 C734 1.419 1_556 S
C733 C728 1.425 1_556 S
C733 C730 1.409 . S
C733 C731 1.415 . S
C734 H724 0.930 . S
C734 C732 1.419 1_554 S
C734 C735 1.362 . S
C735 H725 0.930 . S
C735 C728 1.409 . S
C735 C734 1.362 . S
H736 C742 0.930 . S
H737 C745 0.930 . S
H738 C746 0.930 . S
H739 C747 0.930 1_655 S
H740 C750 0.930 . S
H741 C751 0.930 . S
C742 H736 0.930 . S
C742 C743 1.355 . S
C742 C744 1.415 . S
C743 C742 1.355 . S
C743 C745 1.419 1_455 S
C744 C742 1.415 . S
C744 C749 1.425 . S
C744 C751 1.409 . S
C745 H737 0.930 . S
C745 C743 1.419 1_655 S
C745 C746 1.362 . S
C746 H738 0.930 . S
C746 C745 1.362 . S
C746 C749 1.409 1_655 S
C747 H739 0.930 1_455 S
C747 C748 1.355 . S
C747 C749 1.415 . S
C748 C747 1.355 . S
C748 C750 1.419 . S
C749 C744 1.425 . S
C749 C746 1.409 1_455 S
C749 C747 1.415 . S
C750 H740 0.930 . S
C750 C748 1.419 . S
C750 C751 1.362 . S
C751 H741 0.930 . S
C751 C744 1.409 . S
C751 C750 1.362 . S
H752 C758 0.930 . S
H753 C761 0.930 . S
H754 C762 0.930 . S
H755 C763 0.930 . S
H756 C766 0.930 . S
H757 C767 0.930 . S
C758 H752 0.930 . S
C758 C759 1.355 . S
C758 C760 1.415 . S
C759 C758 1.355 . S
C759 C761 1.419 . S
C760 C758 1.415 . S
C760 C765 1.425 . S
C760 C767 1.409 . S
C761 H753 0.930 . S
C761 C759 1.419 . S
C761 C762 1.362 . S
C762 H754 0.930 . S
C762 C761 1.362 . S
C762 C765 1.409 . S
C763 H755 0.930 . S
C763 C764 1.355 . S
C763 C765 1.415 . S
C764 C763 1.355 . S
C764 C766 1.419 . S
C765 C760 1.425 . S
C765 C762 1.409 . S
C765 C763 1.415 . S
C766 H756 0.930 . S
C766 C764 1.419 . S
C766 C767 1.362 . S
C767 H757 0.930 . S
C767 C760 1.409 . S
C767 C766 1.362 . S
H768 C774 0.930 . S
H769 C777 0.930 . S
H770 C778 0.930 . S
H771 C779 0.930 . S
H772 C782 0.930 . S
H773 C783 0.930 . S
C774 H768 0.930 . S
C774 C775 1.355 . S
C774 C776 1.415 . S
C775 C774 1.355 . S
C775 C777 1.419 . S
C776 C774 1.415 . S
C776 C781 1.425 . S
C776 C783 1.409 . S
C777 H769 0.930 . S
C777 C775 1.419 . S
C777 C778 1.362 . S
C778 H770 0.930 . S
C778 C777 1.362 . S
C778 C781 1.409 . S
C779 H771 0.930 . S
C779 C780 1.355 . S
C779 C781 1.415 . S
C780 C779 1.355 . S
C780 C782 1.419 . S
C781 C776 1.425 . S
C781 C778 1.409 . S
C781 C779 1.415 . S
C782 H772 0.930 . S
C782 C780 1.419 . S
C782 C783 1.362 . S
C783 H773 0.930 . S
C783 C776 1.409 . S
C783 C782 1.362 . S
H784 C790 0.930 . S
H785 C793 0.930 . S
H786 C794 0.930 . S
H787 C795 0.930 . S
H788 C798 0.930 . S
H789 C799 0.930 . S
C790 H784 0.930 . S
C790 C791 1.355 . S
C790 C792 1.415 . S
C791 C790 1.355 . S
C791 C793 1.419 . S
C792 C790 1.415 . S
C792 C797 1.425 . S
C792 C799 1.409 . S
C793 H785 0.930 . S
C793 C791 1.419 . S
C793 C794 1.362 . S
C794 H786 0.930 . S
C794 C793 1.362 . S
C794 C797 1.409 . S
C795 H787 0.930 . S
C795 C796 1.355 . S
C795 C797 1.415 . S
C796 C795 1.355 . S
C796 C798 1.419 . S
C797 C792 1.425 . S
C797 C794 1.409 . S
C797 C795 1.415 . S
C798 H788 0.930 . S
C798 C796 1.419 . S
C798 C799 1.362 . S
C799 H789 0.930 . S
C799 C792 1.409 . S
C799 C798 1.362 . S
H800 C806 0.928 . S
H801 C809 0.930 . S
H802 C810 0.930 . S
H803 C811 0.930 . S
H804 C814 0.930 . S
H805 C815 0.930 . S
C806 H800 0.928 . S
C806 C807 1.356 1_455 S
C806 C808 1.415 1_455 S
C807 C806 1.356 1_655 S
C807 C809 1.419 . S
C808 C806 1.415 1_655 S
C808 C813 1.425 . S
C808 C815 1.409 1_655 S
C809 H801 0.930 . S
C809 C807 1.419 . S
C809 C810 1.362 . S
C810 H802 0.930 . S
C810 C809 1.362 . S
C810 C813 1.409 . S
C811 H803 0.930 . S
C811 C812 1.355 . S
C811 C813 1.415 . S
C812 C811 1.355 . S
C812 C814 1.419 1_655 S
C813 C808 1.425 . S
C813 C810 1.409 . S
C813 C811 1.415 . S
C814 H804 0.930 . S
C814 C812 1.419 1_455 S
C814 C815 1.362 . S
C815 H805 0.930 . S
C815 C808 1.409 1_455 S
C815 C814 1.362 . S
H816 C822 0.930 . S
H817 C825 0.930 . S
H818 C826 0.930 . S
H819 C827 0.930 . S
H820 C830 0.930 . S
H821 C831 0.930 . S
C822 H816 0.930 . S
C822 C823 1.355 1_545 S
C822 C824 1.415 . S
C823 C822 1.355 1_565 S
C823 C825 1.419 . S
C824 C822 1.415 . S
C824 C829 1.425 1_545 S
C824 C831 1.409 . S
C825 H817 0.930 . S
C825 C823 1.419 . S
C825 C826 1.362 . S
C826 H818 0.930 . S
C826 C825 1.362 . S
C826 C829 1.409 . S
C827 H819 0.930 . S
C827 C828 1.355 . S
C827 C829 1.415 . S
C828 C827 1.355 . S
C828 C830 1.419 1_565 S
C829 C824 1.425 1_565 S
C829 C826 1.409 . S
C829 C827 1.415 . S
C830 H820 0.930 . S
C830 C828 1.419 1_545 S
C830 C831 1.362 . S
C831 H821 0.930 . S
C831 C824 1.409 . S
C831 C830 1.362 . S
H832 C838 0.930 . S
H833 C841 0.930 . S
H834 C842 0.930 . S
H835 C843 0.930 . S
H836 C846 0.930 . S
H837 C847 0.930 . S
C838 H832 0.930 . S
C838 C839 1.355 . S
C838 C840 1.415 . S
C839 C838 1.355 . S
C839 C841 1.419 . S
C840 C838 1.415 . S
C840 C845 1.425 . S
C840 C847 1.409 . S
C841 H833 0.930 . S
C841 C839 1.419 . S
C841 C842 1.362 . S
C842 H834 0.930 . S
C842 C841 1.362 . S
C842 C845 1.409 . S
C843 H835 0.930 . S
C843 C844 1.355 . S
C843 C845 1.415 . S
C844 C843 1.355 . S
C844 C846 1.419 . S
C845 C840 1.425 . S
C845 C842 1.409 . S
C845 C843 1.415 . S
C846 H836 0.930 . S
C846 C844 1.419 . S
C846 C847 1.362 . S
C847 H837 0.930 . S
C847 C840 1.409 . S
C847 C846 1.362 . S
H848 C854 0.930 . S
H849 C857 0.930 . S
H850 C858 0.930 . S
H851 C859 0.930 . S
H852 C862 0.930 . S
H853 C863 0.930 . S
C854 H848 0.930 . S
C854 C855 1.355 . S
C854 C856 1.415 . S
C855 C854 1.355 . S
C855 C857 1.419 . S
C856 C854 1.415 . S
C856 C861 1.425 . S
C856 C863 1.409 . S
C857 H849 0.930 . S
C857 C855 1.419 . S
C857 C858 1.362 . S
C858 H850 0.930 . S
C858 C857 1.362 . S
C858 C861 1.409 . S
C859 H851 0.930 . S
C859 C860 1.355 . S
C859 C861 1.415 . S
C860 C859 1.355 . S
C860 C862 1.419 . S
C861 C856 1.425 . S
C861 C858 1.409 . S
C861 C859 1.415 . S
C862 H852 0.930 . S
C862 C860 1.419 . S
C862 C863 1.362 . S
C863 H853 0.930 . S
C863 C856 1.409 . S
C863 C862 1.362 . S
C487 C255 2.430 . S
C492 C330 2.654 . S
C508 C370 2.660 . S
C503 C295 2.434 . S
C524 C410 2.645 . S
C519 C175 2.373 . S
C540 C450 2.631 1_455 S
C535 C215 2.377 . S
C556 C339 2.645 1_565 S
C551 C95 2.375 . S
C567 C135 2.385 . S
C572 C379 2.633 . S
C583 C15 2.363 . S
C588 C419 2.635 . S
C599 C55 2.375 . S
C604 C459 2.631 1_655 S
C620 C336 0.711 . S
C615 C221 0.623 . S
C636 C376 0.527 . S
C631 C261 0.598 . S
C652 C416 0.609 . S
C647 C301 0.503 . S
C663 C181 0.499 . S
C668 C456 0.540 . S
C679 C61 0.615 1_655 S
C684 C327 0.549 . S
C700 C367 0.666 . S
C695 C101 0.651 1_565 S
C716 C407 0.650 . S
C711 C141 0.634 . S
C727 C21 0.662 . S
C732 C447 0.581 . S
C743 C202 3.345 . S
C748 C331 3.735 . S
C759 C242 3.290 . S
C764 C371 3.719 . S
C780 C411 3.719 . S
C775 C282 3.317 . S
C796 C451 3.720 . S
C791 C162 3.319 . S
C807 C42 3.314 1_655 S
C812 C322 3.713 . S
C828 C362 3.727 . S
C823 C82 3.358 . S
C844 C402 3.735 . S
C839 C122 3.325 . S
C855 C2 3.308 . S
C860 C442 3.715 . S
