# Generated by pormake.
# Topology gar, (4,6)-cn, num edge types: 1
# Building blocks:
#     Node 0, Type 0, BuildingBlock: GALJAG_clean_sbu_0, # of connection points: 4
#     Node 1, Type 0, BuildingBlock: GALJAG_clean_sbu_0, # of connection points: 4
#     Node 2, Type 0, BuildingBlock: GALJAG_clean_sbu_0, # of connection points: 4
#     Node 3, Type 0, BuildingBlock: GALJAG_clean_sbu_0, # of connection points: 4
#     Node 4, Type 0, BuildingBlock: GALJAG_clean_sbu_0, # of connection points: 4
#     Node 5, Type 0, BuildingBlock: GALJAG_clean_sbu_0, # of connection points: 4
#     Node 6, Type 0, BuildingBlock: GALJAG_clean_sbu_0, # of connection points: 4
#     Node 7, Type 0, BuildingBlock: GALJAG_clean_sbu_0, # of connection points: 4
#     Node 8, Type 0, BuildingBlock: GALJAG_clean_sbu_0, # of connection points: 4
#     Node 9, Type 0, BuildingBlock: GALJAG_clean_sbu_0, # of connection points: 4
#     Node 10, Type 0, BuildingBlock: GALJAG_clean_sbu_0, # of connection points: 4
#     Node 11, Type 0, BuildingBlock: GALJAG_clean_sbu_0, # of connection points: 4
#     Node 12, Type 0, BuildingBlock: GALJAG_clean_sbu_0, # of connection points: 4
#     Node 13, Type 0, BuildingBlock: GALJAG_clean_sbu_0, # of connection points: 4
#     Node 14, Type 0, BuildingBlock: GALJAG_clean_sbu_0, # of connection points: 4
#     Node 15, Type 0, BuildingBlock: GALJAG_clean_sbu_0, # of connection points: 4
#     Node 16, Type 0, BuildingBlock: GALJAG_clean_sbu_0, # of connection points: 4
#     Node 17, Type 0, BuildingBlock: GALJAG_clean_sbu_0, # of connection points: 4
#     Node 18, Type 0, BuildingBlock: GALJAG_clean_sbu_0, # of connection points: 4
#     Node 19, Type 0, BuildingBlock: GALJAG_clean_sbu_0, # of connection points: 4
#     Node 20, Type 0, BuildingBlock: GALJAG_clean_sbu_0, # of connection points: 4
#     Node 21, Type 0, BuildingBlock: GALJAG_clean_sbu_0, # of connection points: 4
#     Node 22, Type 0, BuildingBlock: GALJAG_clean_sbu_0, # of connection points: 4
#     Node 23, Type 0, BuildingBlock: GALJAG_clean_sbu_0, # of connection points: 4
#     Node 24, Type 1, BuildingBlock: KUMJIN_clean_sbu_0, # of connection points: 6
#     Node 25, Type 1, BuildingBlock: KUMJIN_clean_sbu_0, # of connection points: 6
#     Node 26, Type 1, BuildingBlock: KUMJIN_clean_sbu_0, # of connection points: 6
#     Node 27, Type 1, BuildingBlock: KUMJIN_clean_sbu_0, # of connection points: 6
#     Node 28, Type 1, BuildingBlock: KUMJIN_clean_sbu_0, # of connection points: 6
#     Node 29, Type 1, BuildingBlock: KUMJIN_clean_sbu_0, # of connection points: 6
#     Node 30, Type 1, BuildingBlock: KUMJIN_clean_sbu_0, # of connection points: 6
#     Node 31, Type 1, BuildingBlock: KUMJIN_clean_sbu_0, # of connection points: 6
#     Node 32, Type 1, BuildingBlock: KUMJIN_clean_sbu_0, # of connection points: 6
#     Node 33, Type 1, BuildingBlock: KUMJIN_clean_sbu_0, # of connection points: 6
#     Node 34, Type 1, BuildingBlock: KUMJIN_clean_sbu_0, # of connection points: 6
#     Node 35, Type 1, BuildingBlock: KUMJIN_clean_sbu_0, # of connection points: 6
#     Node 36, Type 1, BuildingBlock: KUMJIN_clean_sbu_0, # of connection points: 6
#     Node 37, Type 1, BuildingBlock: KUMJIN_clean_sbu_0, # of connection points: 6
#     Node 38, Type 1, BuildingBlock: KUMJIN_clean_sbu_0, # of connection points: 6
#     Node 39, Type 1, BuildingBlock: KUMJIN_clean_sbu_0, # of connection points: 6
#     Edge 40, Type (0, 1), BuildingBlock: ZUJKAS_clean_linker_0, # of connection points: 2
#     Edge 41, Type (0, 1), BuildingBlock: ZUJKAS_clean_linker_0, # of connection points: 2
#     Edge 42, Type (0, 1), BuildingBlock: ZUJKAS_clean_linker_0, # of connection points: 2
#     Edge 43, Type (0, 1), BuildingBlock: ZUJKAS_clean_linker_0, # of connection points: 2
#     Edge 44, Type (0, 1), BuildingBlock: ZUJKAS_clean_linker_0, # of connection points: 2
#     Edge 45, Type (0, 1), BuildingBlock: ZUJKAS_clean_linker_0, # of connection points: 2
#     Edge 46, Type (0, 1), BuildingBlock: ZUJKAS_clean_linker_0, # of connection points: 2
#     Edge 47, Type (0, 1), BuildingBlock: ZUJKAS_clean_linker_0, # of connection points: 2
#     Edge 48, Type (0, 1), BuildingBlock: ZUJKAS_clean_linker_0, # of connection points: 2
#     Edge 49, Type (0, 1), BuildingBlock: ZUJKAS_clean_linker_0, # of connection points: 2
#     Edge 50, Type (0, 1), BuildingBlock: ZUJKAS_clean_linker_0, # of connection points: 2
#     Edge 51, Type (0, 1), BuildingBlock: ZUJKAS_clean_linker_0, # of connection points: 2
#     Edge 52, Type (0, 1), BuildingBlock: ZUJKAS_clean_linker_0, # of connection points: 2
#     Edge 53, Type (0, 1), BuildingBlock: ZUJKAS_clean_linker_0, # of connection points: 2
#     Edge 54, Type (0, 1), BuildingBlock: ZUJKAS_clean_linker_0, # of connection points: 2
#     Edge 55, Type (0, 1), BuildingBlock: ZUJKAS_clean_linker_0, # of connection points: 2
#     Edge 56, Type (0, 1), BuildingBlock: ZUJKAS_clean_linker_0, # of connection points: 2
#     Edge 57, Type (0, 1), BuildingBlock: ZUJKAS_clean_linker_0, # of connection points: 2
#     Edge 58, Type (0, 1), BuildingBlock: ZUJKAS_clean_linker_0, # of connection points: 2
#     Edge 59, Type (0, 1), BuildingBlock: ZUJKAS_clean_linker_0, # of connection points: 2
#     Edge 60, Type (0, 1), BuildingBlock: ZUJKAS_clean_linker_0, # of connection points: 2
#     Edge 61, Type (0, 1), BuildingBlock: ZUJKAS_clean_linker_0, # of connection points: 2
#     Edge 62, Type (0, 1), BuildingBlock: ZUJKAS_clean_linker_0, # of connection points: 2
#     Edge 63, Type (0, 1), BuildingBlock: ZUJKAS_clean_linker_0, # of connection points: 2
#     Edge 64, Type (0, 1), BuildingBlock: ZUJKAS_clean_linker_0, # of connection points: 2
#     Edge 65, Type (0, 1), BuildingBlock: ZUJKAS_clean_linker_0, # of connection points: 2
#     Edge 66, Type (0, 1), BuildingBlock: ZUJKAS_clean_linker_0, # of connection points: 2
#     Edge 67, Type (0, 1), BuildingBlock: ZUJKAS_clean_linker_0, # of connection points: 2
#     Edge 68, Type (0, 1), BuildingBlock: ZUJKAS_clean_linker_0, # of connection points: 2
#     Edge 69, Type (0, 1), BuildingBlock: ZUJKAS_clean_linker_0, # of connection points: 2
#     Edge 70, Type (0, 1), BuildingBlock: ZUJKAS_clean_linker_0, # of connection points: 2
#     Edge 71, Type (0, 1), BuildingBlock: ZUJKAS_clean_linker_0, # of connection points: 2
#     Edge 72, Type (0, 1), BuildingBlock: ZUJKAS_clean_linker_0, # of connection points: 2
#     Edge 73, Type (0, 1), BuildingBlock: ZUJKAS_clean_linker_0, # of connection points: 2
#     Edge 74, Type (0, 1), BuildingBlock: ZUJKAS_clean_linker_0, # of connection points: 2
#     Edge 75, Type (0, 1), BuildingBlock: ZUJKAS_clean_linker_0, # of connection points: 2
#     Edge 76, Type (0, 1), BuildingBlock: ZUJKAS_clean_linker_0, # of connection points: 2
#     Edge 77, Type (0, 1), BuildingBlock: ZUJKAS_clean_linker_0, # of connection points: 2
#     Edge 78, Type (0, 1), BuildingBlock: ZUJKAS_clean_linker_0, # of connection points: 2
#     Edge 79, Type (0, 1), BuildingBlock: ZUJKAS_clean_linker_0, # of connection points: 2
#     Edge 80, Type (0, 1), BuildingBlock: ZUJKAS_clean_linker_0, # of connection points: 2
#     Edge 81, Type (0, 1), BuildingBlock: ZUJKAS_clean_linker_0, # of connection points: 2
#     Edge 82, Type (0, 1), BuildingBlock: ZUJKAS_clean_linker_0, # of connection points: 2
#     Edge 83, Type (0, 1), BuildingBlock: ZUJKAS_clean_linker_0, # of connection points: 2
#     Edge 84, Type (0, 1), BuildingBlock: ZUJKAS_clean_linker_0, # of connection points: 2
#     Edge 85, Type (0, 1), BuildingBlock: ZUJKAS_clean_linker_0, # of connection points: 2
#     Edge 86, Type (0, 1), BuildingBlock: ZUJKAS_clean_linker_0, # of connection points: 2
#     Edge 87, Type (0, 1), BuildingBlock: ZUJKAS_clean_linker_0, # of connection points: 2
#     Edge 88, Type (0, 1), BuildingBlock: ZUJKAS_clean_linker_0, # of connection points: 2
#     Edge 89, Type (0, 1), BuildingBlock: ZUJKAS_clean_linker_0, # of connection points: 2
#     Edge 90, Type (0, 1), BuildingBlock: ZUJKAS_clean_linker_0, # of connection points: 2
#     Edge 91, Type (0, 1), BuildingBlock: ZUJKAS_clean_linker_0, # of connection points: 2
#     Edge 92, Type (0, 1), BuildingBlock: ZUJKAS_clean_linker_0, # of connection points: 2
#     Edge 93, Type (0, 1), BuildingBlock: ZUJKAS_clean_linker_0, # of connection points: 2
#     Edge 94, Type (0, 1), BuildingBlock: ZUJKAS_clean_linker_0, # of connection points: 2
#     Edge 95, Type (0, 1), BuildingBlock: ZUJKAS_clean_linker_0, # of connection points: 2
#     Edge 96, Type (0, 1), BuildingBlock: ZUJKAS_clean_linker_0, # of connection points: 2
#     Edge 97, Type (0, 1), BuildingBlock: ZUJKAS_clean_linker_0, # of connection points: 2
#     Edge 98, Type (0, 1), BuildingBlock: ZUJKAS_clean_linker_0, # of connection points: 2
#     Edge 99, Type (0, 1), BuildingBlock: ZUJKAS_clean_linker_0, # of connection points: 2
#     Edge 100, Type (0, 1), BuildingBlock: ZUJKAS_clean_linker_0, # of connection points: 2
#     Edge 101, Type (0, 1), BuildingBlock: ZUJKAS_clean_linker_0, # of connection points: 2
#     Edge 102, Type (0, 1), BuildingBlock: ZUJKAS_clean_linker_0, # of connection points: 2
#     Edge 103, Type (0, 1), BuildingBlock: ZUJKAS_clean_linker_0, # of connection points: 2
#     Edge 104, Type (0, 1), BuildingBlock: ZUJKAS_clean_linker_0, # of connection points: 2
#     Edge 105, Type (0, 1), BuildingBlock: ZUJKAS_clean_linker_0, # of connection points: 2
#     Edge 106, Type (0, 1), BuildingBlock: ZUJKAS_clean_linker_0, # of connection points: 2
#     Edge 107, Type (0, 1), BuildingBlock: ZUJKAS_clean_linker_0, # of connection points: 2
#     Edge 108, Type (0, 1), BuildingBlock: ZUJKAS_clean_linker_0, # of connection points: 2
#     Edge 109, Type (0, 1), BuildingBlock: ZUJKAS_clean_linker_0, # of connection points: 2
#     Edge 110, Type (0, 1), BuildingBlock: ZUJKAS_clean_linker_0, # of connection points: 2
#     Edge 111, Type (0, 1), BuildingBlock: ZUJKAS_clean_linker_0, # of connection points: 2
#     Edge 112, Type (0, 1), BuildingBlock: ZUJKAS_clean_linker_0, # of connection points: 2
#     Edge 113, Type (0, 1), BuildingBlock: ZUJKAS_clean_linker_0, # of connection points: 2
#     Edge 114, Type (0, 1), BuildingBlock: ZUJKAS_clean_linker_0, # of connection points: 2
#     Edge 115, Type (0, 1), BuildingBlock: ZUJKAS_clean_linker_0, # of connection points: 2
#     Edge 116, Type (0, 1), BuildingBlock: ZUJKAS_clean_linker_0, # of connection points: 2
#     Edge 117, Type (0, 1), BuildingBlock: ZUJKAS_clean_linker_0, # of connection points: 2
#     Edge 118, Type (0, 1), BuildingBlock: ZUJKAS_clean_linker_0, # of connection points: 2
#     Edge 119, Type (0, 1), BuildingBlock: ZUJKAS_clean_linker_0, # of connection points: 2
#     Edge 120, Type (0, 1), BuildingBlock: ZUJKAS_clean_linker_0, # of connection points: 2
#     Edge 121, Type (0, 1), BuildingBlock: ZUJKAS_clean_linker_0, # of connection points: 2
#     Edge 122, Type (0, 1), BuildingBlock: ZUJKAS_clean_linker_0, # of connection points: 2
#     Edge 123, Type (0, 1), BuildingBlock: ZUJKAS_clean_linker_0, # of connection points: 2
#     Edge 124, Type (0, 1), BuildingBlock: ZUJKAS_clean_linker_0, # of connection points: 2
#     Edge 125, Type (0, 1), BuildingBlock: ZUJKAS_clean_linker_0, # of connection points: 2
#     Edge 126, Type (0, 1), BuildingBlock: ZUJKAS_clean_linker_0, # of connection points: 2
#     Edge 127, Type (0, 1), BuildingBlock: ZUJKAS_clean_linker_0, # of connection points: 2
#     Edge 128, Type (0, 1), BuildingBlock: ZUJKAS_clean_linker_0, # of connection points: 2
#     Edge 129, Type (0, 1), BuildingBlock: ZUJKAS_clean_linker_0, # of connection points: 2
#     Edge 130, Type (0, 1), BuildingBlock: ZUJKAS_clean_linker_0, # of connection points: 2
#     Edge 131, Type (0, 1), BuildingBlock: ZUJKAS_clean_linker_0, # of connection points: 2
#     Edge 132, Type (0, 1), BuildingBlock: ZUJKAS_clean_linker_0, # of connection points: 2
#     Edge 133, Type (0, 1), BuildingBlock: ZUJKAS_clean_linker_0, # of connection points: 2
#     Edge 134, Type (0, 1), BuildingBlock: ZUJKAS_clean_linker_0, # of connection points: 2
#     Edge 135, Type (0, 1), BuildingBlock: ZUJKAS_clean_linker_0, # of connection points: 2
# Relax obj value: 0.129
# Max RMSD: 0.309
# Mean RMSD: 0.166
data_MOF--net-gar--node1-GALJAG_clean_sbu_0--node2-KUMJIN_clean_sbu_0--edge1-ZUJKAS_clean_linker_0
_symmetry_space_group_name_H-M    P1
_symmetry_Int_Tables_number       1
_symmetry_cell_setting            triclinic
loop_
_symmetry_equiv_pos_as_xyz
'x, y, z'
_cell_length_a     76.956838
_cell_length_b     71.902339
_cell_length_c     71.874769
_cell_angle_alpha  99.662964
_cell_angle_beta   93.011039
_cell_angle_gamma 101.3213
loop_
_atom_site_label
_atom_site_type_symbol
_atom_site_fract_x
_atom_site_fract_y
_atom_site_fract_z
_atom_type_partial_charge
In0 In 0.09684 0.31429 0.39382 0.0
O1 O 0.10839 0.30242 0.36717 0.0
O2 O 0.12637 0.31918 0.39017 0.0
C3 C 0.06605 0.31376 0.374 0.0
C4 C 0.09561 0.28598 0.41411 0.0
C5 C 0.10139 0.3508 0.41232 0.0
O6 O 0.081 0.31764 0.36761 0.0
O7 O 0.06649 0.3096 0.39037 0.0
O8 O 0.09412 0.33664 0.41941 0.0
O9 O 0.10656 0.34648 0.39614 0.0
C10 C 0.12426 0.31017 0.3733 0.0
O11 O 0.10432 0.30291 0.42003 0.0
O12 O 0.0877 0.28319 0.39774 0.0
In13 In 0.00993 0.77652 0.67414 0.0
O14 O 0.01125 0.78499 0.6453 0.0
O15 O 0.01515 0.80772 0.66921 0.0
C16 C 0.99961 0.73983 0.65582 0.0
C17 C 0.04352 0.78188 0.68956 0.0
C18 C 0.9833 0.77674 0.69699 0.0
O19 O 0.99288 0.75326 0.65128 0.0
O20 O 0.01136 0.74495 0.6696 0.0
O21 O 0.99671 0.76989 0.70052 0.0
O22 O 0.98375 0.7844 0.68243 0.0
C23 C 0.01448 0.80291 0.6514 0.0
O24 O 0.0317 0.78853 0.69849 0.0
O25 O 0.03842 0.77305 0.6729 0.0
In26 In 0.59486 0.81203 0.89763 0.0
O27 O 0.60422 0.80082 0.86927 0.0
O28 O 0.62369 0.81179 0.89267 0.0
C29 C 0.56342 0.81268 0.88007 0.0
C30 C 0.59079 0.78397 0.91862 0.0
C31 C 0.6032 0.84929 0.91466 0.0
O32 O 0.57532 0.80585 0.8715 0.0
O33 O 0.56725 0.81879 0.8976 0.0
O34 O 0.59732 0.8358 0.92329 0.0
O35 O 0.60531 0.84393 0.89745 0.0
C36 C 0.62041 0.80442 0.87534 0.0
O37 O 0.60394 0.79791 0.92139 0.0
O38 O 0.57973 0.78399 0.90508 0.0
In39 In 0.51499 0.28069 0.16736 0.0
O40 O 0.49691 0.25963 0.14365 0.0
O41 O 0.51063 0.24819 0.16406 0.0
C42 C 0.52395 0.30426 0.14256 0.0
C43 C 0.48804 0.28659 0.18842 0.0
C44 C 0.54719 0.28364 0.18555 0.0
O45 O 0.52216 0.28622 0.13837 0.0
O46 O 0.5213 0.31056 0.15943 0.0
O47 O 0.53674 0.29439 0.19146 0.0
O48 O 0.54137 0.27164 0.17061 0.0
C49 C 0.50019 0.24483 0.14921 0.0
O50 O 0.49861 0.27615 0.19228 0.0
O51 O 0.49144 0.29457 0.17433 0.0
In52 In 0.08384 0.81741 0.13104 0.0
O53 O 0.08849 0.79382 0.10644 0.0
O54 O 0.07316 0.78488 0.12813 0.0
C55 C 0.08353 0.84927 0.11422 0.0
C56 C 0.05335 0.81667 0.14866 0.0
C57 C 0.11522 0.82002 0.1523 0.0
O58 O 0.0797 0.83218 0.10508 0.0
O59 O 0.08812 0.85032 0.13152 0.0
O60 O 0.10057 0.82027 0.15929 0.0
O61 O 0.1143 0.81918 0.13457 0.0
C62 C 0.0799 0.77984 0.11299 0.0
O63 O 0.06865 0.82228 0.15742 0.0
O64 O 0.05339 0.81161 0.13095 0.0
In65 In 0.52228 0.77354 0.43039 0.0
O66 O 0.53648 0.76622 0.40361 0.0
O67 O 0.55258 0.78132 0.42844 0.0
C68 C 0.48982 0.77175 0.4115 0.0
C69 C 0.52329 0.74169 0.44699 0.0
C70 C 0.52622 0.81071 0.44935 0.0
O71 O 0.50418 0.77305 0.40366 0.0
O72 O 0.49158 0.77045 0.42877 0.0
O73 O 0.52123 0.79629 0.45718 0.0
O74 O 0.52953 0.80634 0.43237 0.0
C75 C 0.55198 0.77394 0.41113 0.0
O76 O 0.52739 0.75879 0.45608 0.0
O77 O 0.51816 0.74061 0.4298 0.0
In78 In 0.58717 0.31893 0.63153 0.0
O79 O 0.58663 0.29443 0.60565 0.0
O80 O 0.58173 0.28657 0.63227 0.0
C81 C 0.58696 0.35046 0.61414 0.0
C82 C 0.55601 0.31652 0.64834 0.0
C83 C 0.61971 0.3241 0.65155 0.0
O84 O 0.58547 0.33353 0.60498 0.0
O85 O 0.58922 0.35157 0.63183 0.0
O86 O 0.60608 0.32803 0.659 0.0
O87 O 0.61724 0.31845 0.63383 0.0
C88 C 0.58327 0.2809 0.61498 0.0
O89 O 0.57105 0.32017 0.65761 0.0
O90 O 0.55665 0.31418 0.63061 0.0
In91 In 0.02144 0.27226 0.93126 0.0
O92 O 0.02396 0.25648 0.95681 0.0
O93 O 0.0188 0.23931 0.92952 0.0
C94 C 0.02564 0.30965 0.94963 0.0
C95 C 0.05171 0.27501 0.91265 0.0
C96 C 0.98813 0.26905 0.91371 0.0
O97 O 0.02315 0.29554 0.95828 0.0
O98 O 0.02631 0.30489 0.93201 0.0
O99 O 1.00134 0.26616 0.90481 0.0
O100 O 0.99147 0.2727 0.93148 0.0
C101 C 0.02161 0.23972 0.94704 0.0
O102 O 0.03626 0.26944 0.90427 0.0
O103 O 0.05198 0.27904 0.93047 0.0
In104 In 0.42781 0.05113 0.29807 0.0
O105 O 0.44703 0.06548 0.27904 0.0
O106 O 0.44203 0.03492 0.27614 0.0
C107 C 0.4461 0.0626 0.33234 0.0
C108 C 0.4042 0.07132 0.28805 0.0
C109 C 0.40933 0.01549 0.29849 0.0
O110 O 0.45215 0.06777 0.31765 0.0
O111 O 0.43059 0.05244 0.32984 0.0
O112 O 0.4021 0.02988 0.29939 0.0
O113 O 0.42595 0.01912 0.29752 0.0
C114 C 0.45013 0.04974 0.27064 0.0
O115 O 0.40753 0.05696 0.27728 0.0
O116 O 0.41314 0.0759 0.30398 0.0
In117 In 0.29077 0.18845 0.51654 0.0
O118 O 0.30134 0.19706 0.54765 0.0
O119 O 0.285 0.21422 0.53716 0.0
C120 C 0.292 0.20303 0.4841 0.0
C121 C 0.31871 0.17105 0.51767 0.0
C122 C 0.25817 0.16523 0.51393 0.0
O123 O 0.29872 0.21308 0.49988 0.0
O124 O 0.28478 0.1859 0.48479 0.0
O125 O 0.27167 0.15915 0.50844 0.0
O126 O 0.26112 0.18298 0.52088 0.0
C127 C 0.29388 0.2112 0.55121 0.0
O128 O 0.30356 0.16382 0.52219 0.0
O129 O 0.31982 0.18715 0.51247 0.0
In130 In 0.17491 0.0157 0.7732 0.0
O131 O 0.15072 1.00297 0.7482 0.0
O132 O 0.16969 0.02656 0.74434 0.0
C133 C 0.15731 0.01879 0.80754 0.0
C134 C 0.19358 0.98392 0.77161 0.0
C135 C 0.19533 0.05352 0.77859 0.0
O136 O 0.14944 0.01115 0.79129 0.0
O137 O 0.17378 0.02469 0.80652 0.0
O138 O 0.20221 0.03873 0.77704 0.0
O139 O 0.17858 0.04926 0.77815 0.0
C140 C 0.15543 0.01506 0.73747 0.0
O141 O 0.19778 0.99808 0.76319 0.0
O142 O 0.18001 0.98548 0.78043 0.0
In143 In 0.31034 0.92833 0.02907 0.0
O144 O 0.29912 0.90688 0.04756 0.0
O145 O 0.32066 0.92986 0.05961 0.0
C146 C 0.3055 0.90023 0.99843 0.0
C147 C 0.28492 0.9488 0.03468 0.0
C148 C 0.34106 0.94931 0.02087 0.0
O149 O 0.31344 0.89903 0.01385 0.0
O150 O 0.29968 0.91549 0.99859 0.0
O151 O 0.32628 0.95391 0.01816 0.0
O152 O 0.34037 0.93431 0.02793 0.0
C153 C 0.30968 0.91508 0.06189 0.0
O154 O 0.30052 0.95458 0.0426 0.0
O155 O 0.28212 0.93262 0.02375 0.0
In156 In 0.30761 0.39946 0.04228 0.0
O157 O 0.29917 0.37272 0.05576 0.0
O158 O 0.3089 0.39951 0.07413 0.0
C159 C 0.30768 0.38158 1.00599 0.0
C160 C 0.27965 0.41722 0.04169 0.0
C161 C 0.34182 0.4191 0.04733 0.0
O162 O 0.30701 0.37266 0.01972 0.0
O163 O 0.30809 0.39939 0.01054 0.0
O164 O 0.32876 0.42727 0.04716 0.0
O165 O 0.33766 0.40095 0.04522 0.0
C166 C 0.30292 0.38165 0.0726 0.0
O167 O 0.29533 0.42604 0.04742 0.0
O168 O 0.2779 0.39926 0.03645 0.0
In169 In 0.7956 0.13555 0.02823 0.0
O170 O 0.81468 0.11895 0.04036 0.0
O171 O 0.81303 0.11856 0.01079 0.0
C172 C 0.76063 0.1195 0.02434 0.0
C173 C 0.80029 0.15851 0.06237 0.0
C174 C 0.79847 0.15787 1.00172 0.0
O175 O 0.7722 0.10961 0.02666 0.0
O176 O 0.76682 0.13694 0.02389 0.0
O177 O 0.80533 0.16391 0.01853 0.0
O178 O 0.79083 0.14029 0.99809 0.0
C179 C 0.82037 0.11357 0.02467 0.0
O180 O 0.81044 0.16161 0.0495 0.0
O181 O 0.78825 0.14342 0.05825 0.0
In182 In 0.19618 0.52916 0.24729 0.0
O183 O 0.21726 0.51212 0.23747 0.0
O184 O 0.20354 0.50555 0.26121 0.0
C185 C 0.21327 0.56619 0.25102 0.0
C186 C 0.1767 0.51609 0.21395 0.0
C187 C 0.17467 0.53374 0.27521 0.0
O188 O 0.22111 0.55322 0.2548 0.0
O189 O 0.19718 0.56028 0.24479 0.0
O190 O 0.16894 0.52724 0.25814 0.0
O191 O 0.1914 0.53763 0.27836 0.0
C192 C 0.21488 0.5017 0.24997 0.0
O193 O 0.17357 0.5087 0.22844 0.0
O194 O 0.19017 0.52974 0.21606 0.0
In195 In 0.80554 0.89472 0.53758 0.0
O196 O 0.79413 0.86885 0.55134 0.0
O197 O 0.8098 0.89357 0.5691 0.0
C198 C 0.80527 0.87554 0.50169 0.0
C199 C 0.7779 0.91307 0.53787 0.0
C200 C 0.8394 0.91539 0.54118 0.0
O201 O 0.80824 0.86828 0.51604 0.0
O202 O 0.80226 0.89233 0.50544 0.0
O203 O 0.82607 0.92317 0.54252 0.0
O204 O 0.83568 0.8972 0.53821 0.0
C205 C 0.8008 0.8767 0.56785 0.0
O206 O 0.79369 0.92165 0.54347 0.0
O207 O 0.77595 0.89514 0.53222 0.0
In208 In 0.93114 0.06936 0.27653 0.0
O209 O 0.95561 0.07752 0.25783 0.0
O210 O 0.93279 0.05916 0.24333 0.0
C211 C 0.9496 0.06966 0.31266 0.0
C212 C 0.91352 0.1018 0.27716 0.0
C213 C 0.91122 0.03133 0.27346 0.0
O214 O 0.957 0.07032 0.29739 0.0
O215 O 0.93329 0.07004 0.3101 0.0
O216 O 0.90427 0.04602 0.2749 0.0
O217 O 0.9279 0.0357 0.27312 0.0
C218 C 0.94852 0.0678 0.24194 0.0
O219 O 0.90576 0.08419 0.27367 0.0
O220 O 0.93012 0.10334 0.28064 0.0
In221 In 0.29462 0.64853 0.52286 0.0
O222 O 0.30638 0.62474 0.53284 0.0
O223 O 0.32137 0.64178 0.51549 0.0
C224 C 0.26203 0.62591 0.5211 0.0
C225 C 0.29607 0.67698 0.5527 0.0
C226 C 0.29635 0.66557 0.49237 0.0
O227 O 0.2685 0.63154 0.50676 0.0
O228 O 0.27234 0.63091 0.53609 0.0
O229 O 0.29879 0.67505 0.50907 0.0
O230 O 0.29337 0.64747 0.49107 0.0
C231 C 0.3203 0.62803 0.52443 0.0
O232 O 0.28243 0.67026 0.5413 0.0
O233 O 0.30933 0.66952 0.54893 0.0
In234 In 0.43287 0.57182 0.77975 0.0
O235 O 0.40826 0.58668 0.77294 0.0
O236 O 0.43096 0.60555 0.78678 0.0
C237 C 0.41211 0.53434 0.77774 0.0
C238 C 0.45058 0.57033 0.74531 0.0
C239 C 0.4517 0.57161 0.81554 0.0
O240 O 0.40618 0.54958 0.78207 0.0
O241 O 0.42813 0.5379 0.77392 0.0
O242 O 0.45895 0.57224 0.80016 0.0
O243 O 0.43543 0.57219 0.81321 0.0
C244 C 0.41517 0.60413 0.7798 0.0
O245 O 0.4572 0.58085 0.76103 0.0
O246 O 0.4352 0.56084 0.74683 0.0
In247 In 0.69917 0.03727 0.74975 0.0
O248 O 0.71973 0.02234 0.73569 0.0
O249 O 0.70803 0.01174 0.75903 0.0
C250 C 0.7228 0.07049 0.75188 0.0
C251 C 0.67297 0.03192 0.72203 0.0
C252 C 0.68075 0.03959 0.78046 0.0
O253 O 0.72225 0.06041 0.7647 0.0
O254 O 0.71165 0.06353 0.73768 0.0
O255 O 0.67706 0.02533 0.76701 0.0
O256 O 0.69408 0.05227 0.77869 0.0
C257 C 0.71899 0.01034 0.7467 0.0
O258 O 0.67701 0.04696 0.73455 0.0
O259 O 0.68254 0.0197 0.7231 0.0
In260 In 0.79236 0.68918 0.01309 0.0
O261 O 0.80472 0.66405 0.01786 0.0
O262 O 0.82209 0.68902 0.01228 0.0
C263 C 0.75897 0.66761 0.01037 0.0
C264 C 0.79511 0.71153 0.04795 0.0
C265 C 0.79467 0.70175 0.97956 0.0
O266 O 0.77221 0.66057 1.00576 0.0
O267 O 0.76251 0.68557 0.01634 0.0
O268 O 0.79884 0.71314 0.99527 0.0
O269 O 0.78944 0.68435 0.98089 0.0
C270 C 0.82041 0.67213 0.01577 0.0
O271 O 0.78935 0.71669 0.03326 0.0
O272 O 0.7997 0.69549 0.04493 0.0
In273 In 0.92014 0.55962 0.80487 0.0
O274 O 0.90013 0.57726 0.81661 0.0
O275 O 0.91898 0.58943 0.79921 0.0
C276 C 0.89851 0.52503 0.80338 0.0
C277 C 0.93317 0.55682 0.77084 0.0
C278 C 0.94469 0.56286 0.83388 0.0
O279 O 0.89278 0.53935 0.79952 0.0
O280 O 0.91501 0.5282 0.80788 0.0
O281 O 0.94754 0.55838 0.81682 0.0
O282 O 0.9294 0.56613 0.83648 0.0
C283 C 0.90586 0.59126 0.80858 0.0
O284 O 0.94133 0.56794 0.78546 0.0
O285 O 0.91809 0.54729 0.77323 0.0
In286 In 0.81041 0.44386 0.52541 0.0
O287 O 0.79579 0.42474 0.54426 0.0
O288 O 0.82385 0.43418 0.54982 0.0
C289 C 0.8046 0.41607 0.49453 0.0
C290 C 0.7879 0.46794 0.53231 0.0
C291 C 0.84188 0.46441 0.51893 0.0
O292 O 0.81168 0.41397 0.51006 0.0
O293 O 0.8003 0.43215 0.49464 0.0
O294 O 0.82999 0.4562 0.5058 0.0
O295 O 0.83778 0.46257 0.53538 0.0
C296 C 0.80969 0.42445 0.55422 0.0
O297 O 0.80406 0.47253 0.53845 0.0
O298 O 0.78306 0.45119 0.52268 0.0
In299 In 0.6742 0.51415 0.27513 0.0
O300 O 0.69997 0.49954 0.27506 0.0
O301 O 0.67559 0.48031 0.27179 0.0
C302 C 0.69373 0.55228 0.27759 0.0
C303 C 0.65502 0.51294 0.23922 0.0
C304 C 0.65731 0.51652 0.31021 0.0
O305 O 0.70066 0.53859 0.28131 0.0
O306 O 0.67723 0.54688 0.27297 0.0
O307 O 0.65023 0.506 0.29467 0.0
O308 O 0.67273 0.52556 0.30821 0.0
C309 C 0.69234 0.48194 0.27305 0.0
O310 O 0.64796 0.51277 0.25475 0.0
O311 O 0.67137 0.51255 0.24144 0.0
Eu312 Eu 0.03404 0.02755 0.01302 0.0
C313 C 0.0767 0.09893 0.06598 0.0
C314 C 0.07619 0.1239 0.04722 0.0
C315 C 0.07872 0.13214 0.08158 0.0
C316 C 0.07528 0.10435 0.04845 0.0
C317 C 0.079 0.1129 0.08273 0.0
C318 C 0.07731 0.13764 0.06386 0.0
C319 C 0.08421 0.08841 0.10035 0.0
N320 N 0.07732 0.0803 0.06662 0.0
C321 C 0.08192 0.0751 0.08338 0.0
C322 C 0.08239 0.1073 0.10007 0.0
Eu323 Eu 0.07352 0.0588 0.03715 0.0
N324 N 0.07457 0.09083 0.03263 0.0
C325 C 0.07637 0.09613 0.01534 0.0
C326 C 0.07679 0.12921 0.02936 0.0
C327 C 0.07723 0.11532 0.0134 0.0
H328 H 0.08365 0.06063 0.08371 0.0
H329 H 0.07814 0.11935 0.99958 0.0
H330 H 0.07779 0.15267 0.06318 0.0
H331 H 0.08745 0.08411 0.11362 0.0
H332 H 0.07664 0.08552 1.00289 0.0
H333 H 0.97083 1.00625 0.04259 0.0
H334 H 0.07747 0.14406 0.02782 0.0
H335 H 0.06364 0.99958 0.99722 0.0
H336 H 0.99501 0.02837 0.03113 0.0
H337 H 0.06583 0.9658 0.99271 0.0
H338 H 0.08027 0.14303 0.0943 0.0
H339 H 0.97261 0.97214 0.04167 0.0
H340 H 0.98871 0.94542 0.03226 0.0
H341 H 0.0843 0.11762 0.11324 0.0
H342 H 0.01391 0.93431 0.01778 0.0
N343 N 0.01076 1.00726 0.02486 0.0
C344 C 0.99603 0.01357 0.03103 0.0
C345 C 0.98336 0.98185 0.03688 0.0
C346 C 0.99801 0.97525 0.02963 0.0
C347 C 0.98229 1.00107 0.03741 0.0
C348 C 0.01169 0.98847 0.02359 0.0
H349 H 0.04267 0.94176 1.00313 0.0
N350 N 0.0388 0.99535 0.00961 0.0
C351 C 0.05448 0.9702 0.99903 0.0
C352 C 0.026 0.98229 0.01556 0.0
C353 C 0.05298 0.9895 1.00142 0.0
C354 C 0.04144 0.9567 1.00502 0.0
C355 C 0.02699 0.96263 0.01342 0.0
O356 O 0.03143 0.03206 0.98377 0.0
O357 O 0.0499 0.05772 0.01746 0.0
O358 O 0.05225 0.0605 0.059 0.0
O359 O 0.02828 0.03598 0.04486 0.0
O360 O 0.02325 0.05451 0.02209 0.0
O361 O 0.00876 0.01727 0.99535 0.0
O362 O 0.09671 0.04574 0.04026 0.0
O363 O 0.05994 0.02765 0.02794 0.0
O364 O 0.05504 0.0272 0.99119 0.0
O365 O 0.07825 0.05234 1.00505 0.0
O366 O 0.07072 0.03624 0.05592 0.0
O367 O 0.10037 0.07503 0.03576 0.0
C368 C 0.03766 0.06693 0.02137 0.0
C369 C 1.00397 0.0388 0.97487 0.0
C370 C 0.98108 0.05797 0.97919 0.0
C371 C 0.99058 0.04498 0.98534 0.0
C372 C 0.98554 0.06519 0.96265 0.0
C373 C 0.00812 0.04608 0.95835 0.0
C374 C 0.99902 0.05931 0.95238 0.0
C375 C 0.03629 0.04932 0.05977 0.0
C376 C 0.01438 0.02567 0.98152 0.0
C377 C 0.01347 0.94947 0.01952 0.0
C378 C 0.9991 0.95578 0.02774 0.0
C379 C 0.0619 0.02192 0.04361 0.0
C380 C 0.12321 0.06704 0.05411 0.0
C381 C 0.13658 0.0564 0.05271 0.0
C382 C 0.15157 0.06139 0.06592 0.0
C383 C 0.15278 0.07695 0.08099 0.0
C384 C 0.12472 0.08282 0.069 0.0
C385 C 0.13939 0.0876 0.08247 0.0
C386 C 0.07058 0.03888 0.99024 0.0
C387 C 0.10809 0.06146 0.03959 0.0
H388 H 0.98764 0.03979 0.99837 0.0
H389 H 0.97835 0.07502 0.95736 0.0
H390 H 0.01855 0.04168 0.9502 0.0
H391 H 1.00232 0.0649 0.93964 0.0
H392 H 0.1353 0.04418 0.04121 0.0
H393 H 0.16424 0.08115 0.09134 0.0
H394 H 0.11471 0.09152 0.07015 0.0
H395 H 0.1405 0.09974 0.09396 0.0
Eu396 Eu 0.30901 0.78517 0.26695 0.0
C397 C 0.29847 0.85171 0.3281 0.0
C398 C 0.31306 0.85481 0.35957 0.0
C399 C 0.30783 0.88336 0.34832 0.0
C400 C 0.30511 0.84334 0.34215 0.0
C401 C 0.29931 0.87182 0.33134 0.0
C402 C 0.31483 0.87489 0.36235 0.0
C403 C 0.28209 0.86768 0.30144 0.0
N404 N 0.29016 0.84013 0.31185 0.0
C405 C 0.28157 0.84789 0.29882 0.0
C406 C 0.29102 0.87971 0.31772 0.0
Eu407 Eu 0.28898 0.80627 0.30954 0.0
N408 N 0.30262 0.82387 0.33938 0.0
C409 C 0.30644 0.81488 0.35398 0.0
C410 C 0.31829 0.84569 0.37402 0.0
C411 C 0.31471 0.8256 0.3713 0.0
H412 H 0.27448 0.83925 0.28603 0.0
H413 H 0.31815 0.81837 0.38258 0.0
H414 H 0.321 0.88393 0.37556 0.0
H415 H 0.27548 0.87364 0.29088 0.0
H416 H 0.30338 0.7993 0.35203 0.0
H417 H 0.27273 0.75571 0.19745 0.0
H418 H 0.32447 0.85401 0.38755 0.0
H419 H 0.33107 0.76089 0.29534 0.0
H420 H 0.28809 0.7809 0.22391 0.0
H421 H 0.33535 0.72869 0.29583 0.0
H422 H 0.30871 0.89882 0.35094 0.0
H423 H 0.27262 0.72147 0.19824 0.0
H424 H 0.28382 0.69728 0.2141 0.0
H425 H 0.29115 0.89502 0.31979 0.0
H426 H 0.30088 0.69001 0.2408 0.0
N427 N 0.29402 0.76116 0.24105 0.0
C428 C 0.28694 0.76595 0.22507 0.0
C429 C 0.27866 0.73246 0.21029 0.0
C430 C 0.28738 0.72772 0.22583 0.0
C431 C 0.27865 0.75173 0.20981 0.0
C432 C 0.29492 0.74256 0.24131 0.0
H433 H 0.32009 0.70153 0.27107 0.0
N434 N 0.31281 0.75336 0.27028 0.0
C435 C 0.32663 0.73121 0.28463 0.0
C436 C 0.30469 0.73855 0.25627 0.0
C437 C 0.32404 0.74982 0.28416 0.0
C438 C 0.31795 0.71593 0.2707 0.0
C439 C 0.30706 0.71948 0.25613 0.0
O440 O 0.33797 0.79303 0.26672 0.0
O441 O 0.30748 0.81162 0.28736 0.0
O442 O 0.27164 0.8068 0.283 0.0
O443 O 0.28115 0.78838 0.25697 0.0
O444 O 0.30706 0.81397 0.25902 0.0
O445 O 0.32124 0.78735 0.24055 0.0
O446 O 0.26001 0.79765 0.30435 0.0
O447 O 0.29085 0.77985 0.28938 0.0
O448 O 0.32918 0.79123 0.29266 0.0
O449 O 0.31698 0.804 0.31987 0.0
O450 O 0.29059 0.77738 0.31756 0.0
O451 O 0.27214 0.80434 0.33295 0.0
C452 C 0.30753 0.82327 0.27612 0.0
C453 C 0.34692 0.81237 0.24388 0.0
C454 C 0.34866 0.83794 0.22504 0.0
C455 C 0.33922 0.82118 0.23045 0.0
C456 C 0.36582 0.8463 0.23388 0.0
C457 C 0.36408 0.8209 0.25244 0.0
C458 C 0.37338 0.83786 0.24756 0.0
C459 C 0.26973 0.79822 0.26496 0.0
C460 C 0.33717 0.79428 0.24885 0.0
C461 C 0.2992 0.70466 0.24105 0.0
C462 C 0.2895 0.7088 0.22585 0.0
C463 C 0.29098 0.76822 0.3006 0.0
C464 C 0.24595 0.7799 0.32601 0.0
C465 C 0.25226 0.76873 0.33802 0.0
C466 C 0.24102 0.75238 0.34217 0.0
C467 C 0.22337 0.74708 0.33402 0.0
C468 C 0.22832 0.77437 0.31784 0.0
C469 C 0.21711 0.75798 0.32181 0.0
C470 C 0.33009 0.79783 0.31112 0.0
C471 C 0.25752 0.79738 0.32201 0.0
H472 H 0.32581 0.81493 0.22413 0.0
H473 H 0.37362 0.85904 0.22991 0.0
H474 H 0.37029 0.81442 0.26286 0.0
H475 H 0.38664 0.84433 0.25419 0.0
H476 H 0.2658 0.77298 0.34454 0.0
H477 H 0.21447 0.73449 0.33705 0.0
H478 H 0.22323 0.78277 0.30846 0.0
H479 H 0.20352 0.7538 0.3155 0.0
Eu480 Eu 0.57498 0.04779 0.53115 0.0
C481 C 0.50597 1.0038 0.55124 0.0
C482 C 0.49826 0.97814 0.52379 0.0
C483 C 0.48965 0.97213 0.55464 0.0
C484 C 0.50648 0.99727 0.53208 0.0
C485 C 0.49702 0.99148 0.56261 0.0
C486 C 0.49028 0.96547 0.53526 0.0
C487 C 0.50114 0.01892 0.58816 0.0
N488 N 0.51288 0.02266 0.5584 0.0
C489 C 0.50969 0.0306 0.57625 0.0
C490 C 0.49505 0.99919 0.58141 0.0
Eu491 Eu 0.52752 0.04134 0.53736 0.0
N492 N 0.51413 0.00991 0.52135 0.0
C493 C 0.51307 1.00476 0.50211 0.0
C494 C 0.49784 0.9725 0.50413 0.0
C495 C 0.50502 0.98598 0.49321 0.0
H496 H 0.51438 0.04589 0.58144 0.0
H497 H 0.50448 0.98188 0.47797 0.0
H498 H 0.4841 0.95066 0.52918 0.0
H499 H 0.49918 0.02515 0.60248 0.0
H500 H 0.51856 0.01507 0.49359 0.0
H501 H 0.62274 0.06993 0.59421 0.0
H502 H 0.49168 0.95794 0.49722 0.0
H503 H 0.57445 0.07169 0.49407 0.0
H504 H 0.60237 0.0469 0.56927 0.0
H505 H 0.58265 0.10453 0.488 0.0
H506 H 0.48292 0.96239 0.56319 0.0
H507 H 0.62898 0.10478 0.59301 0.0
H508 H 0.6258 0.1311 0.57496 0.0
H509 H 0.48826 0.9902 0.5906 0.0
H510 H 0.61512 0.14047 0.54576 0.0
N511 N 0.5961 0.06866 0.55487 0.0
C512 C 0.60491 0.06213 0.5687 0.0
C513 C 0.61992 0.09476 0.58214 0.0
C514 C 0.61244 0.10107 0.5668 0.0
C515 C 0.61647 0.07511 0.58283 0.0
C516 C 0.60066 0.08743 0.55305 0.0
H517 H 0.5994 0.13062 0.51312 0.0
N518 N 0.58433 0.07889 0.52318 0.0
C519 C 0.58585 0.10153 0.50189 0.0
C520 C 0.59473 0.09267 0.53662 0.0
C521 C 0.58073 0.08286 0.50561 0.0
C522 C 0.59538 0.11616 0.51605 0.0
C523 C 0.60031 0.11176 0.53353 0.0
O524 O 0.59172 0.04425 0.50768 0.0
O525 O 0.54868 0.02653 0.52541 0.0
O526 O 0.54115 0.0336 0.56281 0.0
O527 O 0.57045 0.04982 0.56227 0.0
O528 O 0.56967 0.01813 0.53887 0.0
O529 O 0.59527 0.03042 0.53164 0.0
O530 O 0.509 0.05942 0.54771 0.0
O531 O 0.55252 0.06323 0.53603 0.0
O532 O 0.55979 0.04219 0.5021 0.0
O533 O 0.53287 0.05043 0.5094 0.0
O534 O 0.53754 0.06857 0.55899 0.0
O535 O 0.50468 0.04341 0.51908 0.0
C536 C 0.55339 0.01262 0.53171 0.0
C537 C 0.62085 0.04005 0.51619 0.0
C538 C 0.65005 0.03149 0.51928 0.0
C539 C 0.63135 0.02659 0.51896 0.0
C540 C 0.658 0.05015 0.51665 0.0
C541 C 0.62915 0.05864 0.51395 0.0
C542 C 0.64762 0.06358 0.51411 0.0
C543 C 0.55736 0.04103 0.5709 0.0
C544 C 0.60134 0.03441 0.51592 0.0
C545 C 0.61099 0.12569 0.54775 0.0
C546 C 0.61703 0.12036 0.56439 0.0
C547 C 0.55136 0.07523 0.55082 0.0
C548 C 0.47936 0.04941 0.53414 0.0
C549 C 0.46871 0.06285 0.53218 0.0
C550 C 0.45025 0.05808 0.53357 0.0
C551 C 0.44266 0.03973 0.5372 0.0
C552 C 0.47153 0.03116 0.53763 0.0
C553 C 0.45328 0.0264 0.53925 0.0
C554 C 0.54475 0.04716 0.49745 0.0
C555 C 0.4985 0.05457 0.53212 0.0
H556 H 0.62489 0.01241 0.52115 0.0
H557 H 0.67226 0.05437 0.51635 0.0
H558 H 0.62138 0.06933 0.51204 0.0
H559 H 0.65393 0.07789 0.51219 0.0
H560 H 0.47476 0.07685 0.52918 0.0
H561 H 0.42854 0.03573 0.53861 0.0
H562 H 0.47946 0.02056 0.53898 0.0
H563 H 0.44732 0.0123 0.54201 0.0
Eu564 Eu 0.28016 0.29961 0.7784 0.0
C565 C 0.34055 0.27004 0.81257 0.0
C566 C 0.35036 0.29508 0.84026 0.0
C567 C 0.35284 0.26213 0.84144 0.0
C568 C 0.34268 0.28915 0.82137 0.0
C569 C 0.34628 0.25652 0.8223 0.0
C570 C 0.35483 0.28136 0.85041 0.0
C571 C 0.34109 0.23368 0.7928 0.0
N572 N 0.33437 0.26505 0.79401 0.0
C573 C 0.33555 0.24756 0.78378 0.0
C574 C 0.34608 0.23802 0.81225 0.0
Eu575 Eu 0.32475 0.28915 0.77992 0.0
N576 N 0.33845 0.30216 0.81111 0.0
C577 C 0.34306 0.32147 0.81843 0.0
C578 C 0.35396 0.31471 0.84818 0.0
C579 C 0.35065 0.32798 0.83707 0.0
H580 H 0.33154 0.24411 0.76877 0.0
H581 H 0.35379 0.34326 0.84292 0.0
H582 H 0.36049 0.28563 0.865 0.0
H583 H 0.34144 0.21963 0.78477 0.0
H584 H 0.34055 0.33208 0.81034 0.0
H585 H 0.2424 0.24424 0.72031 0.0
H586 H 0.35979 0.31982 0.86263 0.0
H587 H 0.2771 0.34711 0.78487 0.0
H588 H 0.25684 0.25663 0.75209 0.0
H589 H 0.27288 0.3712 0.76549 0.0
H590 H 0.35704 0.25187 0.84921 0.0
H591 H 0.24055 0.26629 0.69777 0.0
H592 H 0.24685 0.2997 0.69101 0.0
H593 H 0.35043 0.22726 0.8192 0.0
H594 H 0.25592 0.33449 0.70315 0.0
N595 N 0.26486 0.28577 0.74788 0.0
C596 C 0.2569 0.26665 0.74258 0.0
C597 C 0.24751 0.27185 0.71167 0.0
C598 C 0.25467 0.29152 0.71739 0.0
C599 C 0.2484 0.25942 0.72441 0.0
C600 C 0.26307 0.29823 0.73595 0.0
H601 H 0.26529 0.36128 0.73095 0.0
N602 N 0.27419 0.32389 0.76132 0.0
C603 C 0.27185 0.35632 0.7588 0.0
C604 C 0.26817 0.31785 0.74278 0.0
C605 C 0.27446 0.34258 0.76969 0.0
C606 C 0.26761 0.35067 0.73934 0.0
C607 C 0.26499 0.33115 0.73122 0.0
O608 O 0.26568 0.31678 0.79782 0.0
O609 O 0.30572 0.30313 0.79682 0.0
O610 O 0.3054 0.26115 0.78436 0.0
O611 O 0.27703 0.26698 0.77803 0.0
O612 O 0.2824 0.29054 0.80672 0.0
O613 O 0.25288 0.288 0.78374 0.0
O614 O 0.33845 0.29699 0.75544 0.0
O615 O 0.3015 0.29102 0.76075 0.0
O616 O 0.30073 0.32899 0.78246 0.0
O617 O 0.3285 0.32127 0.77871 0.0
O618 O 0.31214 0.26628 0.75507 0.0
O619 O 0.35315 0.28915 0.77787 0.0
C620 C 0.29919 0.29651 0.81074 0.0
C621 C 0.23386 0.30917 0.79334 0.0
C622 C 0.20366 0.30838 0.80319 0.0
C623 C 0.2208 0.30439 0.80585 0.0
C624 C 0.20006 0.31766 0.7881 0.0
C625 C 0.22974 0.3181 0.77828 0.0
C626 C 0.21299 0.32248 0.77582 0.0
C627 C 0.28769 0.25532 0.78182 0.0
C628 C 0.25116 0.30339 0.79535 0.0
C629 C 0.25814 0.32447 0.71228 0.0
C630 C 0.25293 0.30467 0.70539 0.0
C631 C 0.30055 0.27531 0.74925 0.0
C632 C 0.36223 0.28176 0.74708 0.0
C633 C 0.37966 0.28884 0.74258 0.0
C634 C 0.38805 0.27726 0.72956 0.0
C635 C 0.37864 0.25871 0.72101 0.0
C636 C 0.35317 0.26326 0.73822 0.0
C637 C 0.36134 0.25184 0.72528 0.0
C638 C 0.31809 0.33403 0.78035 0.0
C639 C 0.3536 0.29358 0.76112 0.0
H640 H 0.22381 0.29704 0.81724 0.0
H641 H 0.18718 0.32124 0.78579 0.0
H642 H 0.23932 0.32145 0.76826 0.0
H643 H 0.20995 0.32946 0.76419 0.0
H644 H 0.38674 0.30312 0.74938 0.0
H645 H 0.3846 0.24957 0.71079 0.0
H646 H 0.33978 0.25758 0.74126 0.0
H647 H 0.35423 0.23758 0.7185 0.0
Eu648 Eu 0.04602 0.06066 0.53688 0.0
C649 C 0.07212 1.00507 0.47415 0.0
C650 C 0.0497 0.9996 0.44773 0.0
C651 C 0.08 0.99696 0.44187 0.0
C652 C 0.05482 1.00452 0.46738 0.0
C653 C 0.0848 1.00086 0.46147 0.0
C654 C 0.06248 0.99632 0.43501 0.0
C655 C 0.10558 1.00283 0.48844 0.0
N656 N 0.07629 1.00862 0.49319 0.0
C657 C 0.09256 1.00684 0.50046 0.0
C658 C 0.10178 1.0001 0.46886 0.0
Eu659 Eu 0.05348 0.0159 0.51245 0.0
N660 N 0.04271 1.00746 0.48002 0.0
C661 C 0.02502 1.004 0.47408 0.0
C662 C 0.03175 0.99737 0.4415 0.0
C663 C 0.01931 0.99923 0.45476 0.0
H664 H 0.09573 1.00874 0.51552 0.0
H665 H 1.00533 0.99704 0.45013 0.0
H666 H 0.05883 0.99272 0.41988 0.0
H667 H 0.11854 1.00182 0.4943 0.0
H668 H 0.01525 1.00527 0.4842 0.0
H669 H 0.09796 0.0823 0.59589 0.0
H670 H 0.0273 0.99362 0.42654 0.0
H671 H 1.00398 0.0669 0.53654 0.0
H672 H 0.08586 0.07217 0.56263 0.0
H673 H 0.98255 0.07526 0.55919 0.0
H674 H 0.0896 0.99386 0.43191 0.0
H675 H 0.07778 0.08705 0.62112 0.0
H676 H 0.04686 0.08822 0.63002 0.0
H677 H 0.11187 0.99689 0.45959 0.0
H678 H 0.01541 0.0864 0.62002 0.0
N679 N 0.05883 0.07033 0.56871 0.0
C680 C 0.07678 0.07406 0.57337 0.0
C681 C 0.07233 0.08247 0.60648 0.0
C682 C 0.05408 0.07984 0.60154 0.0
C683 C 0.08376 0.07988 0.59228 0.0
C684 C 0.04767 0.07384 0.58226 0.0
H685 H 0.99141 0.082 0.59363 0.0
N686 N 0.0247 0.0684 0.55789 0.0
C687 C 0.99583 0.07453 0.56432 0.0
C688 C 0.03003 0.07285 0.57666 0.0
C689 C 0.00804 0.0698 0.55151 0.0
C690 C 1.00086 0.07825 0.58374 0.0
C691 C 0.01823 0.07776 0.59014 0.0
O692 O 0.03768 0.08502 0.52722 0.0
O693 O 0.04488 0.04313 0.50717 0.0
O694 O 0.07519 0.03818 0.50435 0.0
O695 O 0.07478 0.06246 0.52987 0.0
O696 O 0.02371 0.05583 0.51326 0.0
O697 O 0.06494 0.08788 0.53841 0.0
O698 O 0.05762 0.99309 0.52768 0.0
O699 O 0.05446 0.03346 0.54226 0.0
O700 O 0.02461 0.03769 0.54492 0.0
O701 O 0.02459 0.01433 0.51847 0.0
O702 O 0.07585 0.02115 0.53595 0.0
O703 O 0.03756 0.98658 0.50409 0.0
C704 C 0.03021 0.0459 0.49979 0.0
C705 C 0.05345 0.11619 0.54103 0.0
C706 C 0.05678 0.14991 0.53813 0.0
C707 C 0.05659 0.13067 0.53015 0.0
C708 C 0.05403 0.15453 0.5574 0.0
C709 C 0.05061 0.12086 0.5602 0.0
C710 C 0.05094 0.14002 0.56834 0.0
C711 C 0.08246 0.0548 0.5153 0.0
C712 C 0.05322 0.09643 0.53175 0.0
C713 C 0.02431 0.08274 0.60944 0.0
C714 C 0.04221 0.08377 0.61514 0.0
C715 C 0.06934 0.031 0.54951 0.0
C716 C 0.05113 0.96134 0.51096 0.0
C717 C 0.04913 0.94831 0.52347 0.0
C718 C 0.05475 0.93077 0.51927 0.0
C719 C 0.06218 0.92627 0.50204 0.0
C720 C 0.05867 0.95683 0.49388 0.0
C721 C 0.06412 0.93928 0.48944 0.0
C722 C 0.01727 0.0212 0.53366 0.0
C723 C 0.04586 0.97979 0.51678 0.0
H724 H 0.05907 0.1269 0.51542 0.0
H725 H 0.05403 0.16924 0.56392 0.0
H726 H 0.04819 0.10979 0.56879 0.0
H727 H 0.04874 0.14363 0.58314 0.0
H728 H 0.04308 0.95188 0.53654 0.0
H729 H 0.06671 0.91288 0.49844 0.0
H730 H 0.0604 0.96682 0.48408 0.0
H731 H 0.06997 0.93581 0.47626 0.0
Eu732 Eu 0.32699 0.81269 0.77221 0.0
C733 C 0.27977 0.75041 0.80653 0.0
C734 C 0.28791 0.72047 0.79286 0.0
C735 C 0.27671 0.7239 0.82398 0.0
C736 C 0.28645 0.73956 0.7919 0.0
C737 C 0.27458 0.7426 0.82261 0.0
C738 C 0.28335 0.71286 0.80913 0.0
C739 C 0.26443 0.77179 0.83425 0.0
N740 N 0.27774 0.76838 0.80473 0.0
C741 C 0.26966 0.77888 0.818 0.0
C742 C 0.26706 0.75365 0.83667 0.0
Eu743 Eu 0.28743 0.77945 0.77699 0.0
N744 N 0.29056 0.74724 0.77627 0.0
C745 C 0.29497 0.73616 0.76059 0.0
C746 C 0.29339 0.70941 0.7772 0.0
C747 C 0.29668 0.7172 0.7609 0.0
H748 H 0.26761 0.79294 0.81634 0.0
H749 H 0.30061 0.70865 0.74858 0.0
H750 H 0.28453 0.69829 0.81018 0.0
H751 H 0.25842 0.78035 0.84493 0.0
H752 H 0.29756 0.74202 0.7479 0.0
H753 H 0.31133 0.88294 0.79837 0.0
H754 H 0.29471 0.69471 0.7774 0.0
H755 H 0.35314 0.80253 0.73766 0.0
H756 H 0.3153 0.85008 0.79997 0.0
H757 H 0.36456 0.81553 0.71002 0.0
H758 H 0.27292 0.71771 0.83628 0.0
H759 H 0.31756 0.8965 0.7694 0.0
H760 H 0.32915 0.89299 0.73728 0.0
H761 H 0.26295 0.74818 0.84925 0.0
H762 H 0.34375 0.87456 0.7131 0.0
N763 N 0.32289 0.84454 0.77184 0.0
C764 C 0.31796 0.8557 0.78718 0.0
C765 C 0.31916 0.88197 0.76996 0.0
C766 C 0.32547 0.87102 0.75483 0.0
C767 C 0.31574 0.8744 0.78637 0.0
C768 C 0.32741 0.85219 0.75632 0.0
H769 H 0.35741 0.84587 0.70305 0.0
N770 N 0.33892 0.82473 0.74578 0.0
C771 C 0.35634 0.82304 0.71904 0.0
C772 C 0.33574 0.84194 0.74284 0.0
C773 C 0.34981 0.8157 0.73472 0.0
C774 C 0.35222 0.84012 0.71511 0.0
C775 C 0.34217 0.85006 0.72733 0.0
O776 O 0.35481 0.81095 0.77727 0.0
O777 O 0.31731 0.78246 0.77855 0.0
O778 O 0.30345 0.78654 0.80522 0.0
O779 O 0.31783 0.81686 0.8019 0.0
O780 O 0.33671 0.78525 0.76026 0.0
O781 O 0.3444 0.83287 0.79489 0.0
O782 O 0.25949 0.78128 0.77494 0.0
O783 O 0.29685 0.80951 0.76998 0.0
O784 O 0.31404 0.80336 0.74251 0.0
O785 O 0.29467 0.77536 0.74656 0.0
O786 O 0.2782 0.80692 0.78926 0.0
O787 O 0.26858 0.75964 0.75527 0.0
C788 C 0.32734 0.77294 0.76882 0.0
C789 C 0.37447 0.84059 0.78825 0.0
C790 C 0.40681 0.84981 0.79101 0.0
C791 C 0.39111 0.837 0.79333 0.0
C792 C 0.40563 0.86644 0.78356 0.0
C793 C 0.37345 0.85724 0.78083 0.0
C794 C 0.389 0.87008 0.77849 0.0
C795 C 0.31235 0.804 0.81255 0.0
C796 C 0.35851 0.82637 0.79031 0.0
C797 C 0.3391 0.86819 0.72504 0.0
C798 C 0.33077 0.87867 0.73879 0.0
C799 C 0.28682 0.81895 0.7799 0.0
C800 C 0.23883 0.75246 0.76345 0.0
C801 C 0.22235 0.75708 0.75955 0.0
C802 C 0.20645 0.7447 0.76205 0.0
C803 C 0.20728 0.72738 0.76837 0.0
C804 C 0.2395 0.73518 0.76979 0.0
C805 C 0.22374 0.7227 0.77221 0.0
C806 C 0.30287 0.78691 0.73581 0.0
C807 C 0.25495 0.76638 0.76131 0.0
H808 H 0.39177 0.82425 0.79932 0.0
H809 H 0.41753 0.87651 0.78154 0.0
H810 H 0.36073 0.86035 0.77688 0.0
H811 H 0.38816 0.88287 0.77271 0.0
H812 H 0.22197 0.77035 0.75441 0.0
H813 H 0.19525 0.7176 0.77054 0.0
H814 H 0.2521 0.73134 0.77287 0.0
H815 H 0.22429 0.70939 0.77716 0.0
Eu816 Eu 0.55251 0.04687 0.03912 0.0
C817 C 0.50452 0.07769 0.98323 0.0
C818 C 0.48119 0.05051 0.96872 0.0
C819 C 0.47571 0.08303 0.97249 0.0
C820 C 0.49863 0.05801 0.97732 0.0
C821 C 0.4933 0.09046 0.98039 0.0
C822 C 0.46966 0.06309 0.96671 0.0
C823 C 0.51817 0.11701 0.99167 0.0
N824 N 0.5216 0.08442 0.99078 0.0
C825 C 0.5288 0.10377 0.99417 0.0
C826 C 0.50026 0.11034 0.98501 0.0
Eu827 Eu 0.53902 0.06115 0.99358 0.0
N828 N 0.51013 0.04625 0.97937 0.0
C829 C 0.50538 0.02697 0.97215 0.0
C830 C 0.47599 0.03063 0.96205 0.0
C831 C 0.48822 0.01885 0.96356 0.0
H832 H 0.54268 0.10892 0.99922 0.0
H833 H 0.48441 1.00349 0.95822 0.0
H834 H 0.45617 0.05757 0.9603 0.0
H835 H 0.52379 0.13233 0.99483 0.0
H836 H 0.51466 0.01768 0.97334 0.0
H837 H 0.58334 0.12315 0.07034 0.0
H838 H 0.46269 0.02429 0.95543 0.0
H839 H 0.57359 1.00905 0.03253 0.0
H840 H 0.56182 0.09786 0.05029 0.0
H841 H 0.60187 1.00151 0.04178 0.0
H842 H 0.46682 0.09261 0.97038 0.0
H843 H 0.61006 0.11592 0.08557 0.0
H844 H 0.62872 0.09211 0.08969 0.0
H845 H 0.49207 0.12062 0.983 0.0
H846 H 0.63438 0.05955 0.08077 0.0
N847 N 0.57437 0.0747 0.05521 0.0
C848 C 0.5725 0.09356 0.05749 0.0
C849 C 0.60022 0.10431 0.07709 0.0
C850 C 0.6029 0.08546 0.07371 0.0
C851 C 0.58514 0.10842 0.06859 0.0
C852 C 0.58974 0.0708 0.06238 0.0
H853 H 0.6249 0.02617 0.06235 0.0
N854 N 0.58061 0.03882 0.04568 0.0
C855 C 0.59968 0.01597 0.0461 0.0
C856 C 0.59299 0.05243 0.05735 0.0
C857 C 0.58368 0.02059 0.04042 0.0
C858 C 0.61256 0.02986 0.05781 0.0
C859 C 0.6093 0.04827 0.0637 0.0
O860 O 0.54617 0.01872 0.04778 0.0
O861 O 0.53227 0.04174 0.01427 0.0
O862 O 0.52709 0.07802 0.01744 0.0
O863 O 0.5388 0.07198 0.04633 0.0
O864 O 0.52267 0.03976 0.04049 0.0
O865 O 0.54661 0.04507 0.06801 0.0
O866 O 0.55605 0.07746 0.97602 0.0
O867 O 0.56097 0.05897 0.01397 0.0
O868 O 0.55702 0.0245 0.01464 0.0
O869 O 0.54529 0.03133 0.9864 0.0
O870 O 0.56353 0.08478 1.00431 0.0
O871 O 0.5402 0.04927 0.96376 0.0
C872 C 0.51836 0.03835 0.02274 0.0
C873 C 0.5522 0.01843 0.08081 0.0
C874 C 0.55332 0.01663 0.11441 0.0
C875 C 0.54778 0.02454 0.09915 0.0
C876 C 0.56375 1.00261 0.11122 0.0
C877 C 0.56239 1.00416 0.07772 0.0
C878 C 0.56833 0.99652 0.09295 0.0
C879 C 0.52933 0.08102 0.03623 0.0
C880 C 0.54471 0.02633 0.06532 0.0
C881 C 0.62192 0.06258 0.07565 0.0
C882 C 0.61866 0.08108 0.08078 0.0
C883 C 0.57115 0.07496 0.01443 0.0
C884 C 0.54669 0.07186 0.94352 0.0
C885 C 0.55694 0.06879 0.92832 0.0
C886 C 0.55383 0.07593 0.91173 0.0
C887 C 0.54031 0.08637 0.91053 0.0
C888 C 0.53304 0.08207 0.94216 0.0
C889 C 0.5299 0.08931 0.9257 0.0
C890 C 0.55307 0.02061 0.99607 0.0
C891 C 0.55096 0.06461 0.96068 0.0
H892 H 0.53925 0.03493 0.10139 0.0
H893 H 0.56814 0.99624 0.12277 0.0
H894 H 0.56548 0.99863 0.06364 0.0
H895 H 0.5762 0.98555 0.09052 0.0
H896 H 0.56764 0.06111 0.92957 0.0
H897 H 0.53772 0.09205 0.89786 0.0
H898 H 0.52496 0.08458 0.95374 0.0
H899 H 0.51941 0.09726 0.92472 0.0
Eu900 Eu 0.31275 0.30027 0.28341 0.0
C901 C 0.24558 0.25524 0.2306 0.0
C902 C 0.22071 0.25962 0.24892 0.0
C903 C 0.21676 0.25473 0.2146 0.0
C904 C 0.23889 0.25912 0.248 0.0
C905 C 0.23443 0.2525 0.2137 0.0
C906 C 0.20987 0.25816 0.2322 0.0
C907 C 0.25797 0.2423 0.1964 0.0
N908 N 0.26248 0.25236 0.23022 0.0
C909 C 0.26839 0.24485 0.21352 0.0
C910 C 0.24104 0.24652 0.19644 0.0
Eu911 Eu 0.27936 0.25749 0.25999 0.0
N912 N 0.24962 0.2603 0.26394 0.0
C913 C 0.24266 0.26022 0.28102 0.0
C914 C 0.21368 0.26024 0.26649 0.0
C915 C 0.22464 0.26008 0.28253 0.0
H916 H 0.28128 0.24112 0.21322 0.0
H917 H 0.21926 0.25966 0.2961 0.0
H918 H 0.19595 0.25883 0.23268 0.0
H919 H 0.26295 0.23691 0.18319 0.0
H920 H 0.25083 0.25994 0.29356 0.0
H921 H 0.33595 0.36427 0.25305 0.0
H922 H 0.19966 0.25999 0.26764 0.0
H923 H 0.33731 0.2684 0.29764 0.0
H924 H 0.31446 0.34083 0.2663 0.0
H925 H 0.36813 0.26595 0.30118 0.0
H926 H 0.20806 0.25288 0.20177 0.0
H927 H 0.36709 0.36044 0.2513 0.0
H928 H 0.39073 0.34282 0.25909 0.0
H929 H 0.2329 0.24426 0.18317 0.0
H930 H 0.39959 0.31703 0.27339 0.0
N931 N 0.33272 0.32286 0.27019 0.0
C932 C 0.32785 0.33866 0.26493 0.0
C933 C 0.35758 0.34986 0.2567 0.0
C934 C 0.36284 0.33451 0.26352 0.0
C935 C 0.34003 0.35208 0.25764 0.0
C936 C 0.34993 0.32106 0.27034 0.0
H937 H 0.39143 0.28907 0.28993 0.0
N938 N 0.34211 0.29364 0.28476 0.0
C939 C 0.36459 0.27743 0.29475 0.0
C940 C 0.35484 0.3063 0.27818 0.0
C941 C 0.34686 0.27916 0.29284 0.0
C942 C 0.37769 0.29041 0.28826 0.0
C943 C 0.37291 0.30487 0.27958 0.0
O944 O 0.30469 0.3066 0.31214 0.0
O945 O 0.28395 0.28598 0.27935 0.0
O946 O 0.28209 0.2783 0.23917 0.0
O947 O 0.30629 0.30346 0.25271 0.0
O948 O 0.29023 0.31469 0.27646 0.0
O949 O 0.32575 0.32646 0.30334 0.0
O950 O 0.28898 0.23067 0.25943 0.0
O951 O 0.3082 0.27045 0.26767 0.0
O952 O 0.31074 0.27653 0.30056 0.0
O953 O 0.28163 0.26049 0.2921 0.0
O954 O 0.30132 0.25304 0.24097 0.0
O955 O 0.26151 0.23091 0.26334 0.0
C956 C 0.27739 0.30009 0.27629 0.0
C957 C 0.30643 0.33919 0.32395 0.0
C958 C 0.29034 0.36408 0.31853 0.0
C959 C 0.29998 0.35008 0.31176 0.0
C960 C 0.28743 0.36726 0.33787 0.0
C961 C 0.30339 0.34246 0.34315 0.0
C962 C 0.29399 0.35653 0.35008 0.0
C963 C 0.29395 0.29435 0.23871 0.0
C964 C 0.31509 0.32343 0.31641 0.0
C965 C 0.38571 0.318 0.27249 0.0
C966 C 0.38066 0.33267 0.26431 0.0
C967 C 0.31413 0.26406 0.25235 0.0
C968 C 0.268 0.20227 0.24688 0.0
C969 C 0.27549 0.18674 0.24985 0.0
C970 C 0.27143 0.1693 0.23688 0.0
C971 C 0.25973 0.16749 0.22071 0.0
C972 C 0.25602 0.20028 0.23088 0.0
C973 C 0.25194 0.18291 0.21785 0.0
C974 C 0.29617 0.26496 0.3039 0.0
C975 C 0.27333 0.22039 0.26053 0.0
H976 H 0.30212 0.34733 0.2969 0.0
H977 H 0.28026 0.37814 0.34361 0.0
H978 H 0.30811 0.334 0.3527 0.0
H979 H 0.29167 0.35904 0.36493 0.0
H980 H 0.28491 0.18844 0.2621 0.0
H981 H 0.2566 0.15418 0.21043 0.0
H982 H 0.2499 0.21207 0.22842 0.0
H983 H 0.24282 0.18146 0.20545 0.0
Eu984 Eu 0.54728 0.5613 0.04021 0.0
C985 C 0.57401 0.50942 0.97486 0.0
C986 C 0.55059 0.50253 0.94929 0.0
C987 C 0.58106 0.50229 0.94216 0.0
C988 C 0.55631 0.50758 0.9688 0.0
C989 C 0.58655 0.50648 0.96162 0.0
C990 C 0.56311 0.50032 0.93601 0.0
C991 C 0.60874 0.51054 0.98783 0.0
N992 N 0.57882 0.51322 0.99375 0.0
C993 C 0.59582 0.51326 1.0004 0.0
C994 C 0.60414 0.50733 0.96835 0.0
Eu995 Eu 0.55624 0.518 0.0142 0.0
N996 N 0.54452 0.50951 0.98201 0.0
C997 C 0.52667 0.50516 0.97672 0.0
C998 C 0.53238 0.49922 0.94376 0.0
C999 C 0.52035 0.50026 0.95757 0.0
H1000 H 0.59958 0.51576 0.01542 0.0
H1001 H 0.50621 0.49734 0.95347 0.0
H1002 H 0.55898 0.4966 0.92097 0.0
H1003 H 0.62224 0.51093 0.99319 0.0
H1004 H 0.51718 0.50587 0.9872 0.0
H1005 H 0.59774 0.58298 0.10056 0.0
H1006 H 0.52745 0.49536 0.92893 0.0
H1007 H 0.50388 0.56306 0.03929 0.0
H1008 H 0.58654 0.57414 0.06694 0.0
H1009 H 0.48131 0.56779 0.0617 0.0
H1010 H 0.59052 0.5001 0.93177 0.0
H1011 H 0.57666 0.58484 0.12529 0.0
H1012 H 0.54517 0.58329 0.1335 0.0
H1013 H 0.61416 0.50514 0.95863 0.0
H1014 H 0.51351 0.57934 0.12293 0.0
N1015 N 0.55923 0.57021 0.07232 0.0
C1016 C 0.57711 0.5748 0.07747 0.0
C1017 C 0.57163 0.58085 0.11049 0.0
C1018 C 0.55338 0.57729 0.1051 0.0
C1019 C 0.58356 0.57988 0.09659 0.0
C1020 C 0.54753 0.57207 0.08564 0.0
H1021 H 0.48965 0.57387 0.09622 0.0
N1022 N 0.52482 0.56598 0.06085 0.0
C1023 C 0.49488 0.56837 0.06696 0.0
C1024 C 0.52976 0.56992 0.07972 0.0
C1025 C 0.50774 0.56571 0.0543 0.0
C1026 C 0.49962 0.57173 0.08643 0.0
C1027 C 0.51729 0.57281 0.09305 0.0
O1028 O 0.5379 0.58589 0.03244 0.0
O1029 O 0.54685 0.54502 0.01004 0.0
O1030 O 0.5761 0.54222 1.00629 0.0
O1031 O 0.57626 0.56428 0.03371 0.0
O1032 O 0.52519 0.55666 0.01628 0.0
O1033 O 0.5655 0.58915 0.04281 0.0
O1034 O 0.56525 0.49363 0.02305 0.0
O1035 O 0.55672 0.53434 0.04437 0.0
O1036 O 0.52755 0.53696 0.04819 0.0
O1037 O 0.52726 0.51496 0.02071 0.0
O1038 O 0.57837 0.52269 0.03809 0.0
O1039 O 0.53837 0.48979 0.01019 0.0
C1040 C 0.53208 0.54744 1.00265 0.0
C1041 C 0.55322 0.61695 0.04725 0.0
C1042 C 0.558 0.65125 0.04659 0.0
C1043 C 0.55822 0.63236 0.03785 0.0
C1044 C 0.55261 0.65457 0.06502 0.0
C1045 C 0.54803 0.62031 0.06572 0.0
C1046 C 0.54776 0.63912 0.07456 0.0
C1047 C 0.58356 0.55813 0.01822 0.0
C1048 C 0.55328 0.59761 0.03706 0.0
C1049 C 0.52292 0.57719 0.11247 0.0
C1050 C 0.54093 0.57943 0.11849 0.0
C1051 C 0.57156 0.53202 0.05172 0.0
C1052 C 0.55171 0.46262 1.00659 0.0
C1053 C 0.55233 0.44802 0.01702 0.0
C1054 C 0.55331 0.42944 0.00798 0.0
C1055 C 0.55363 0.42559 0.9882 0.0
C1056 C 0.55224 0.45878 0.98686 0.0
C1057 C 0.55321 0.44028 0.97773 0.0
C1058 C 0.52002 0.52107 0.03625 0.0
C1059 C 0.55034 0.48155 0.01689 0.0
H1060 H 0.56194 0.62955 0.02344 0.0
H1061 H 0.55228 0.66903 0.07205 0.0
H1062 H 0.54413 0.60849 0.07317 0.0
H1063 H 0.5437 0.64173 0.0888 0.0
H1064 H 0.55166 0.45105 0.03224 0.0
H1065 H 0.55432 0.41133 0.9809 0.0
H1066 H 0.55178 0.46994 0.97858 0.0
H1067 H 0.55355 0.43729 0.96249 0.0
Eu1068 Eu 0.82514 0.30977 0.27402 0.0
C1069 C 0.79126 0.23421 0.27698 0.0
C1070 C 0.77866 0.21338 0.2473 0.0
C1071 C 0.79348 0.20044 0.27133 0.0
C1072 C 0.78253 0.23173 0.25912 0.0
C1073 C 0.79634 0.21841 0.28348 0.0
C1074 C 0.78469 0.19794 0.25325 0.0
C1075 C 0.80577 0.23897 0.31392 0.0
N1076 N 0.7941 0.25183 0.28832 0.0
C1077 C 0.80086 0.25428 0.30674 0.0
C1078 C 0.80376 0.22102 0.30216 0.0
Eu1079 Eu 0.78475 0.27683 0.27526 0.0
N1080 N 0.77662 0.24683 0.25388 0.0
C1081 C 0.76486 0.2439 0.23818 0.0
C1082 C 0.76816 0.21088 0.23021 0.0
C1083 C 0.76092 0.22612 0.22583 0.0
H1084 H 0.80253 0.268 0.31602 0.0
H1085 H 0.75219 0.22414 0.21302 0.0
H1086 H 0.78205 0.18382 0.24426 0.0
H1087 H 0.81127 0.24108 0.32848 0.0
H1088 H 0.75899 0.25559 0.23492 0.0
H1089 H 0.80548 0.3755 0.30759 0.0
H1090 H 0.76494 0.19704 0.22073 0.0
H1091 H 0.85075 0.30541 0.23805 0.0
H1092 H 0.81187 0.3429 0.30551 0.0
H1093 H 0.8594 0.32157 0.21109 0.0
H1094 H 0.79758 0.18825 0.27598 0.0
H1095 H 0.80875 0.39196 0.27999 0.0
H1096 H 0.81856 0.39224 0.2472 0.0
H1097 H 0.80775 0.20923 0.3077 0.0
H1098 H 0.83317 0.37738 0.22065 0.0
N1099 N 0.81852 0.34088 0.27703 0.0
C1100 C 0.81345 0.35 0.29344 0.0
C1101 C 0.81162 0.37769 0.27903 0.0
C1102 C 0.81783 0.3687 0.26264 0.0
C1103 C 0.80984 0.36848 0.29467 0.0
C1104 C 0.8214 0.35013 0.26215 0.0
H1105 H 0.84882 0.35118 0.20723 0.0
N1106 N 0.83437 0.32479 0.24824 0.0
C1107 C 0.85081 0.32728 0.221 0.0
C1108 C 0.82956 0.34178 0.24722 0.0
C1109 C 0.84585 0.31813 0.23618 0.0
C1110 C 0.84477 0.34396 0.21885 0.0
C1111 C 0.83444 0.35174 0.23236 0.0
O1112 O 0.85313 0.30777 0.2769 0.0
O1113 O 0.81467 0.27929 0.27948 0.0
O1114 O 0.79123 0.29476 0.30448 0.0
O1115 O 0.82073 0.30988 0.3048 0.0
O1116 O 0.83374 0.28228 0.26038 0.0
O1117 O 0.84425 0.33069 0.29461 0.0
O1118 O 0.76779 0.26952 0.29768 0.0
O1119 O 0.79576 0.30903 0.2778 0.0
O1120 O 0.81317 0.30085 0.24367 0.0
O1121 O 0.79233 0.27305 0.24517 0.0
O1122 O 0.7735 0.29745 0.2592 0.0
O1123 O 0.75582 0.27247 0.27034 0.0
C1124 C 0.82437 0.26992 0.26892 0.0
C1125 C 0.87357 0.33728 0.28562 0.0
C1126 C 0.90589 0.34648 0.287 0.0
C1127 C 0.8904 0.33415 0.29071 0.0
C1128 C 0.90424 0.3621 0.27806 0.0
C1129 C 0.87213 0.35303 0.2769 0.0
C1130 C 0.88743 0.36533 0.27308 0.0
C1131 C 0.80635 0.30489 0.31341 0.0
C1132 C 0.85784 0.32363 0.28926 0.0
C1133 C 0.82974 0.36961 0.23207 0.0
C1134 C 0.82144 0.37808 0.2472 0.0
C1135 C 0.78415 0.31353 0.26667 0.0
C1136 C 0.73546 0.26433 0.2939 0.0
C1137 C 0.72071 0.26742 0.28345 0.0
C1138 C 0.70364 0.26357 0.28981 0.0
C1139 C 0.70146 0.25632 0.30672 0.0
C1140 C 0.73306 0.25721 0.31082 0.0
C1141 C 0.71611 0.25317 0.31712 0.0
C1142 C 0.80193 0.28486 0.23567 0.0
C1143 C 0.75329 0.26883 0.28722 0.0
H1144 H 0.89136 0.32221 0.29786 0.0
H1145 H 0.91592 0.37174 0.27483 0.0
H1146 H 0.85927 0.35588 0.27311 0.0
H1147 H 0.88626 0.3774 0.26625 0.0
H1148 H 0.72248 0.2728 0.27031 0.0
H1149 H 0.68848 0.25338 0.31205 0.0
H1150 H 0.74426 0.25475 0.31914 0.0
H1151 H 0.71433 0.24769 0.33019 0.0
Eu1152 Eu 0.05602 0.54612 0.53659 0.0
C1153 C 1.0056 0.57837 0.48493 0.0
C1154 C 0.98492 0.55029 0.46747 0.0
C1155 C 0.97549 0.5808 0.4753 0.0
C1156 C 1.00185 0.55903 0.47681 0.0
C1157 C 0.99262 0.58961 0.48386 0.0
C1158 C 0.97163 0.56115 0.46716 0.0
C1159 C 0.0149 0.61768 0.49839 0.0
N1160 N 0.02229 0.58644 0.49301 0.0
C1161 C 0.02732 0.60593 0.49907 0.0
C1162 C 0.9974 0.60945 0.49098 0.0
Eu1163 Eu 0.04238 0.56557 0.49428 0.0
N1164 N 0.01501 0.54899 0.47728 0.0
C1165 C 0.01256 0.53056 0.46744 0.0
C1166 C 0.982 0.53103 0.45831 0.0
C1167 C 0.99598 0.52123 0.45804 0.0
H1168 H 0.04082 0.61226 0.50494 0.0
H1169 H 0.99396 0.50644 0.45069 0.0
H1170 H 0.95848 0.55463 0.46024 0.0
H1171 H 0.01881 0.63305 0.50363 0.0
H1172 H 0.02321 0.52278 0.46726 0.0
H1173 H 0.10398 0.60479 0.58101 0.0
H1174 H 0.96915 0.52375 0.45104 0.0
H1175 H 0.0573 0.49939 0.52494 0.0
H1176 H 0.07588 0.58945 0.56161 0.0
H1177 H 0.07814 0.47785 0.5285 0.0
H1178 H 0.96526 0.58914 0.47452 0.0
H1179 H 0.12706 0.5859 0.58514 0.0
H1180 H 0.13637 0.554 0.57912 0.0
H1181 H 0.98781 0.61859 0.49043 0.0
H1182 H 0.12962 0.51967 0.56433 0.0
N1183 N 0.08329 0.56239 0.5539 0.0
C1184 C 0.08593 0.5811 0.56301 0.0
C1185 C 0.11483 0.57915 0.57638 0.0
C1186 C 0.11171 0.55973 0.5677 0.0
C1187 C 0.10183 0.58985 0.57411 0.0
C1188 C 0.09565 0.55169 0.55627 0.0
H1189 H 0.10801 0.49119 0.54533 0.0
N1190 N 0.07559 0.52479 0.53861 0.0
C1191 C 0.08216 0.49315 0.53408 0.0
C1192 C 0.09176 0.53233 0.5482 0.0
C1193 C 0.0704 0.50538 0.53207 0.0
C1194 C 0.09903 0.50074 0.54352 0.0
C1195 C 0.10389 0.52048 0.55106 0.0
O1196 O 0.04066 0.52589 0.55202 0.0
O1197 O 0.03463 0.54646 0.51497 0.0
O1198 O 0.02788 0.57663 0.51867 0.0
O1199 O 0.04691 0.57468 0.54432 0.0
O1200 O 0.03462 0.52017 0.52265 0.0
O1201 O 0.04969 0.55596 0.56533 0.0
O1202 O 0.0562 0.58629 0.47834 0.0
O1203 O 0.06362 0.56498 0.5158 0.0
O1204 O 0.0705 0.53499 0.51229 0.0
O1205 O 0.05164 0.53704 0.48641 0.0
O1206 O 0.06497 0.59095 0.50759 0.0
O1207 O 0.0488 0.55586 0.46558 0.0
C1208 C 0.02641 0.5292 0.51221 0.0
C1209 C 0.04678 0.53281 0.58516 0.0
C1210 C 0.03946 0.52797 0.61675 0.0
C1211 C 0.03528 0.53358 0.59954 0.0
C1212 C 0.05548 0.52175 0.61945 0.0
C1213 C 0.06266 0.52645 0.58795 0.0
C1214 C 0.06699 0.52099 0.60507 0.0
C1215 C 0.03352 0.58099 0.53685 0.0
C1216 C 0.04185 0.53872 0.56744 0.0
C1217 C 0.12013 0.52853 0.56196 0.0
C1218 C 0.12394 0.54806 0.57043 0.0
C1219 C 0.07285 0.58174 0.51816 0.0
C1220 C 0.04969 0.57835 0.44521 0.0
C1221 C 0.06069 0.57708 0.43043 0.0
C1222 C 0.05566 0.58137 0.41285 0.0
C1223 C 0.03929 0.58687 0.41018 0.0
C1224 C 0.03343 0.58398 0.4425 0.0
C1225 C 0.02827 0.58822 0.42501 0.0
C1226 C 0.06453 0.53013 0.49417 0.0
C1227 C 0.05546 0.57332 0.46309 0.0
H1228 H 0.02315 0.53876 0.59737 0.0
H1229 H 0.05898 0.51725 0.63254 0.0
H1230 H 0.07163 0.52566 0.57697 0.0
H1231 H 0.07926 0.51609 0.60717 0.0
H1232 H 0.07308 0.57235 0.43255 0.0
H1233 H 0.03511 0.59022 0.39672 0.0
H1234 H 0.02475 0.58504 0.45379 0.0
H1235 H 0.0157 0.59253 0.42293 0.0
Eu1236 Eu 0.77802 0.79798 0.27102 0.0
C1237 C 0.83639 0.76557 0.31168 0.0
C1238 C 0.84734 0.78994 0.33953 0.0
C1239 C 0.84778 0.75637 0.34024 0.0
C1240 C 0.83952 0.78457 0.32069 0.0
C1241 C 0.84106 0.75133 0.32112 0.0
C1242 C 0.85089 0.77566 0.34945 0.0
C1243 C 0.83441 0.72885 0.29141 0.0
N1244 N 0.8303 0.76132 0.29312 0.0
C1245 C 0.83004 0.7435 0.28267 0.0
C1246 C 0.83963 0.73268 0.31081 0.0
Eu1247 Eu 0.8225 0.78655 0.27921 0.0
N1248 N 0.83626 0.798 0.31054 0.0
C1249 C 0.84211 0.81719 0.31782 0.0
C1250 C 0.85208 0.80955 0.34753 0.0
C1251 C 0.84978 0.82324 0.33649 0.0
H1252 H 0.82588 0.74046 0.26768 0.0
H1253 H 0.85385 0.83847 0.34236 0.0
H1254 H 0.85668 0.77948 0.364 0.0
H1255 H 0.83371 0.71462 0.28319 0.0
H1256 H 0.84041 0.82801 0.30957 0.0
H1257 H 0.74804 0.74642 0.207 0.0
H1258 H 0.85806 0.81428 0.36197 0.0
H1259 H 0.77278 0.84325 0.28325 0.0
H1260 H 0.76106 0.75665 0.2399 0.0
H1261 H 0.76399 0.86898 0.26831 0.0
H1262 H 0.85123 0.7456 0.34782 0.0
H1263 H 0.74334 0.77077 0.18776 0.0
H1264 H 0.74373 0.80553 0.18633 0.0
H1265 H 0.84311 0.72135 0.31753 0.0
H1266 H 0.74798 0.83909 0.20313 0.0
N1267 N 0.7645 0.78672 0.23948 0.0
C1268 C 0.75912 0.76755 0.23188 0.0
C1269 C 0.74913 0.77539 0.20228 0.0
C1270 C 0.7533 0.79493 0.21061 0.0
C1271 C 0.75169 0.76162 0.21311 0.0
C1272 C 0.7609 0.80016 0.22953 0.0
H1273 H 0.75503 0.86279 0.23389 0.0
N1274 N 0.76921 0.82294 0.25748 0.0
C1275 C 0.76386 0.85501 0.25982 0.0
C1276 C 0.76335 0.81895 0.23887 0.0
C1277 C 0.76878 0.8404 0.26823 0.0
C1278 C 0.7589 0.85149 0.24038 0.0
C1279 C 0.75822 0.83315 0.22971 0.0
O1280 O 0.75972 0.80751 0.29119 0.0
O1281 O 0.79899 0.795 0.29235 0.0
O1282 O 0.80203 0.76098 0.28593 0.0
O1283 O 0.77578 0.76526 0.27096 0.0
O1284 O 0.78728 0.81875 0.29846 0.0
O1285 O 0.75315 0.77877 0.27485 0.0
O1286 O 0.84065 0.77631 0.25928 0.0
O1287 O 0.80173 0.78991 0.25784 0.0
O1288 O 0.79835 0.82441 0.26553 0.0
O1289 O 0.82514 0.81916 0.27853 0.0
O1290 O 0.81321 0.76602 0.2516 0.0
O1291 O 0.84802 0.80493 0.27595 0.0
C1292 C 0.79866 0.80975 0.30458 0.0
C1293 C 0.72919 0.79351 0.28365 0.0
C1294 C 0.69901 0.79149 0.29379 0.0
C1295 C 0.71693 0.7901 0.29728 0.0
C1296 C 0.69378 0.79669 0.27664 0.0
C1297 C 0.72354 0.7986 0.2667 0.0
C1298 C 0.70596 0.80023 0.26327 0.0
C1299 C 0.78509 0.75443 0.27904 0.0
C1300 C 0.74779 0.79156 0.287 0.0
C1301 C 0.75177 0.82833 0.2105 0.0
C1302 C 0.74935 0.80923 0.20094 0.0
C1303 C 0.80208 0.7753 0.24545 0.0
C1304 C 0.87133 0.78906 0.26737 0.0
C1305 C 0.88421 0.79343 0.25461 0.0
C1306 C 0.90178 0.79094 0.25814 0.0
C1307 C 0.90604 0.78373 0.27447 0.0
C1308 C 0.87605 0.7821 0.28358 0.0
C1309 C 0.89328 0.77939 0.28705 0.0
C1310 C 0.81562 0.83044 0.27147 0.0
C1311 C 0.85305 0.79187 0.2638 0.0
H1312 H 0.72124 0.78603 0.31034 0.0
H1313 H 0.68025 0.79823 0.27361 0.0
H1314 H 0.73271 0.80124 0.25608 0.0
H1315 H 0.70173 0.80423 0.25017 0.0
H1316 H 0.88061 0.79902 0.24219 0.0
H1317 H 0.91925 0.78124 0.27746 0.0
H1318 H 0.86643 0.77877 0.29358 0.0
H1319 H 0.89677 0.77389 0.29955 0.0
Eu1320 Eu 0.81385 0.2945 0.769 0.0
C1321 C 0.77059 0.34395 0.82162 0.0
C1322 C 0.79254 0.371 0.83893 0.0
C1323 C 0.76208 0.37444 0.83287 0.0
C1324 C 0.78794 0.35182 0.82896 0.0
C1325 C 0.75735 0.355 0.82396 0.0
C1326 C 0.77965 0.38243 0.84037 0.0
C1327 C 0.73542 0.32617 0.81075 0.0
N1328 N 0.76638 0.325 0.81359 0.0
C1329 C 0.74901 0.3158 0.8089 0.0
C1330 C 0.73964 0.34594 0.81804 0.0
Eu1331 Eu 0.78996 0.30823 0.81097 0.0
N1332 N 0.79998 0.34028 0.82765 0.0
C1333 C 0.81653 0.34664 0.83708 0.0
C1334 C 0.80974 0.37784 0.84787 0.0
C1335 C 0.82174 0.36556 0.84705 0.0
H1336 H 0.74572 0.30051 0.80324 0.0
H1337 H 0.83499 0.37062 0.85419 0.0
H1338 H 0.783 0.39726 0.84778 0.0
H1339 H 0.72173 0.31893 0.80656 0.0
H1340 H 0.82593 0.33729 0.83668 0.0
H1341 H 0.76734 0.2368 0.72122 0.0
H1342 H 0.81369 0.39237 0.85593 0.0
H1343 H 0.85735 0.29882 0.77949 0.0
H1344 H 0.7766 0.26765 0.74298 0.0
H1345 H 0.88041 0.27935 0.77444 0.0
H1346 H 0.75213 0.38323 0.83464 0.0
H1347 H 0.78833 0.215 0.71521 0.0
H1348 H 0.81856 0.20822 0.72187 0.0
H1349 H 0.72908 0.35393 0.8196 0.0
H1350 H 0.84905 0.21935 0.73709 0.0
N1351 N 0.80267 0.26355 0.75015 0.0
C1352 C 0.786 0.25841 0.74085 0.0
C1353 C 0.79247 0.22852 0.7251 0.0
C1354 C 0.80957 0.23384 0.73449 0.0
C1355 C 0.78061 0.2408 0.7284 0.0
C1356 C 0.8144 0.25175 0.74699 0.0
H1357 H 0.87225 0.24586 0.75662 0.0
N1358 N 0.83624 0.27613 0.76579 0.0
C1359 C 0.86673 0.27314 0.76908 0.0
C1360 C 0.83162 0.25811 0.75532 0.0
C1361 C 0.85366 0.28409 0.77196 0.0
C1362 C 0.86206 0.25423 0.75909 0.0
C1363 C 0.84442 0.24664 0.75166 0.0
O1364 O 0.83373 0.31083 0.75411 0.0
O1365 O 0.80768 0.31834 0.78975 0.0
O1366 O 0.77644 0.31769 0.78635 0.0
O1367 O 0.7858 0.29891 0.76054 0.0
O1368 O 0.83385 0.32118 0.78348 0.0
O1369 O 0.80671 0.30016 0.74105 0.0
O1370 O 0.77205 0.29014 0.82638 0.0
O1371 O 0.79634 0.28462 0.79023 0.0
O1372 O 0.82602 0.28399 0.7937 0.0
O1373 O 0.81829 0.30435 0.81936 0.0
O1374 O 0.7704 0.28064 0.79719 0.0
O1375 O 0.79749 0.30657 0.84021 0.0
C1376 C 0.82276 0.3294 0.79287 0.0
C1377 C 0.82969 0.30175 0.72076 0.0
C1378 C 0.83079 0.30317 0.68727 0.0
C1379 C 0.82491 0.30923 0.705 0.0
C1380 C 0.84154 0.28937 0.68547 0.0
C1381 C 0.8405 0.28804 0.71885 0.0
C1382 C 0.84631 0.28183 0.70123 0.0
C1383 C 0.77497 0.30989 0.76811 0.0
C1384 C 0.82297 0.30839 0.73887 0.0
C1385 C 0.83943 0.2284 0.74 0.0
C1386 C 0.82208 0.22208 0.73131 0.0
C1387 C 0.78159 0.27304 0.78733 0.0
C1388 C 0.77378 0.30067 0.85934 0.0
C1389 C 0.77088 0.28753 0.87165 0.0
C1390 C 0.76322 0.29208 0.88867 0.0
C1391 C 0.7583 0.30999 0.89319 0.0
C1392 C 0.76874 0.31849 0.86387 0.0
C1393 C 0.76095 0.32308 0.88072 0.0
C1394 C 0.82829 0.29237 0.81181 0.0
C1395 C 0.78238 0.29542 0.8421 0.0
H1396 H 0.81688 0.32012 0.70668 0.0
H1397 H 0.84621 0.28443 0.67194 0.0
H1398 H 0.84454 0.28222 0.73087 0.0
H1399 H 0.85461 0.27122 0.69981 0.0
H1400 H 0.77514 0.27393 0.86823 0.0
H1401 H 0.75249 0.31385 0.90633 0.0
H1402 H 0.77096 0.32887 0.85455 0.0
H1403 H 0.75714 0.33688 0.88422 0.0
Eu1404 Eu 0.80985 0.79717 0.77605 0.0
C1405 C 0.73658 0.74295 0.76229 0.0
C1406 C 0.7334 0.7171 0.78046 0.0
C1407 C 0.70791 0.73077 0.77347 0.0
C1408 C 0.74401 0.7301 0.77084 0.0
C1409 C 0.71826 0.74293 0.76304 0.0
C1410 C 0.71549 0.71796 0.78226 0.0
C1411 C 0.72108 0.76511 0.74116 0.0
N1412 N 0.74687 0.75442 0.7521 0.0
C1413 C 0.73914 0.76467 0.74083 0.0
C1414 C 0.71066 0.75452 0.75262 0.0
Eu1415 Eu 0.77756 0.75284 0.75301 0.0
N1416 N 0.76121 0.7292 0.76844 0.0
C1417 C 0.76799 0.71434 0.7735 0.0
C1418 C 0.74084 0.70298 0.78719 0.0
C1419 C 0.75811 0.70136 0.78336 0.0
H1420 H 0.7466 0.77261 0.73142 0.0
H1421 H 0.7638 0.69007 0.78792 0.0
H1422 H 0.7072 0.70822 0.78975 0.0
H1423 H 0.71519 0.77361 0.73252 0.0
H1424 H 0.7813 0.71285 0.77056 0.0
H1425 H 0.87002 0.80204 0.73862 0.0
H1426 H 0.73313 0.69277 0.79467 0.0
H1427 H 0.80764 0.81115 0.82259 0.0
H1428 H 0.83804 0.79871 0.74207 0.0
H1429 H 0.82656 0.81712 0.85257 0.0
H1430 H 0.69387 0.73066 0.77426 0.0
H1431 H 0.89102 0.80492 0.76666 0.0
H1432 H 0.89609 0.80773 0.80189 0.0
H1433 H 0.69666 0.75489 0.75282 0.0
H1434 H 0.88411 0.81114 0.83306 0.0
N1435 N 0.84046 0.79852 0.77169 0.0
C1436 C 0.84689 0.79952 0.75444 0.0
C1437 C 0.8769 0.80317 0.76825 0.0
C1438 C 0.87039 0.80316 0.78605 0.0
C1439 C 0.8651 0.80159 0.75241 0.0
C1440 C 0.85188 0.80094 0.78733 0.0
H1441 H 0.85819 0.81482 0.85213 0.0
N1442 N 0.82769 0.80342 0.80537 0.0
C1443 C 0.83196 0.81299 0.83925 0.0
C1444 C 0.84522 0.80322 0.80478 0.0
C1445 C 0.82122 0.8094 0.82221 0.0
C1446 C 0.84978 0.81163 0.83895 0.0
C1447 C 0.85677 0.80733 0.82154 0.0
O1448 O 0.80186 0.8246 0.78522 0.0
O1449 O 0.78123 0.78304 0.76746 0.0
O1450 O 0.77685 0.77833 0.73823 0.0
O1451 O 0.80644 0.79271 0.74393 0.0
O1452 O 0.78706 0.80047 0.79415 0.0
O1453 O 0.82048 0.82261 0.7641 0.0
O1454 O 0.7867 0.74728 0.72469 0.0
O1455 O 0.80599 0.76825 0.75748 0.0
O1456 O 0.8084 0.77613 0.79655 0.0
O1457 O 0.78301 0.75186 0.78454 0.0
O1458 O 0.80078 0.73934 0.75987 0.0
O1459 O 0.76446 0.72767 0.73183 0.0
C1460 C 0.77475 0.78926 0.78238 0.0
C1461 C 0.82326 0.85252 0.78415 0.0
C1462 C 0.82978 0.88735 0.78673 0.0
C1463 C 0.82015 0.86905 0.778 0.0
C1464 C 0.84261 0.88898 0.80187 0.0
C1465 C 0.83632 0.85417 0.79904 0.0
C1466 C 0.84595 0.87238 0.80787 0.0
C1467 C 0.79116 0.78939 0.73352 0.0
C1468 C 0.81243 0.83389 0.77486 0.0
C1469 C 0.87505 0.80814 0.82035 0.0
C1470 C 0.88187 0.80622 0.80262 0.0
C1471 C 0.81305 0.75453 0.76067 0.0
C1472 C 0.78381 0.71493 0.7113 0.0
C1473 C 0.79174 0.70505 0.7234 0.0
C1474 C 0.80204 0.69185 0.71637 0.0
C1475 C 0.80362 0.68787 0.69678 0.0
C1476 C 0.78539 0.71084 0.69179 0.0
C1477 C 0.79511 0.69715 0.68454 0.0
C1478 C 0.79587 0.76094 0.798 0.0
C1479 C 0.77567 0.73094 0.7193 0.0
H1480 H 0.80985 0.86767 0.76665 0.0
H1481 H 0.85004 0.90301 0.80894 0.0
H1482 H 0.83899 0.8415 0.80389 0.0
H1483 H 0.85592 0.87364 0.81946 0.0
H1484 H 0.79053 0.70823 0.73844 0.0
H1485 H 0.81142 0.67763 0.69098 0.0
H1486 H 0.77944 0.71848 0.68225 0.0
H1487 H 0.79639 0.69407 0.66947 0.0
Eu1488 Eu 0.53489 0.52792 0.51701 0.0
C1489 C 0.5792 0.60479 0.56463 0.0
C1490 C 0.58235 0.62753 0.54312 0.0
C1491 C 0.58295 0.63913 0.57694 0.0
C1492 C 0.57963 0.60839 0.54639 0.0
C1493 C 0.5815 0.62018 0.58018 0.0
C1494 C 0.58337 0.6428 0.55842 0.0
C1495 C 0.58361 0.5974 0.60093 0.0
N1496 N 0.57843 0.58644 0.56725 0.0
C1497 C 0.58146 0.58269 0.58505 0.0
C1498 C 0.58328 0.61619 0.5985 0.0
Eu1499 Eu 0.57472 0.56198 0.53983 0.0
N1500 N 0.57902 0.59334 0.53201 0.0
C1501 C 0.58273 0.59668 0.51432 0.0
C1502 C 0.58484 0.63084 0.52473 0.0
C1503 C 0.58536 0.61537 0.51034 0.0
H1504 H 0.5817 0.56817 0.58703 0.0
H1505 H 0.58773 0.61781 0.49614 0.0
H1506 H 0.58523 0.65756 0.55616 0.0
H1507 H 0.58551 0.59424 0.615 0.0
H1508 H 0.58319 0.58496 0.50298 0.0
H1509 H 0.52264 0.47042 0.55886 0.0
H1510 H 0.58695 0.64531 0.52162 0.0
H1511 H 0.52656 0.52315 0.47005 0.0
H1512 H 0.52687 0.50363 0.55304 0.0
H1513 H 0.52195 0.49783 0.44142 0.0
H1514 H 0.58452 0.65111 0.58869 0.0
H1515 H 0.52302 0.44356 0.53252 0.0
H1516 H 0.52387 0.43231 0.49763 0.0
H1517 H 0.5851 0.62761 0.61081 0.0
H1518 H 0.52359 0.43979 0.46545 0.0
N1519 N 0.53055 0.49611 0.52376 0.0
C1520 C 0.52716 0.4922 0.54135 0.0
C1521 C 0.52501 0.4582 0.52988 0.0
C1522 C 0.52701 0.46208 0.5116 0.0
C1523 C 0.52471 0.4733 0.54475 0.0
C1524 C 0.52957 0.48142 0.50894 0.0
H1525 H 0.52234 0.46412 0.44433 0.0
N1526 N 0.5301 0.50412 0.48898 0.0
C1527 C 0.52415 0.49419 0.45525 0.0
C1528 C 0.52937 0.48558 0.49092 0.0
C1529 C 0.52675 0.50849 0.47151 0.0
C1530 C 0.52447 0.4752 0.45694 0.0
C1531 C 0.5267 0.4706 0.47496 0.0
O1532 O 0.51093 0.53346 0.50326 0.0
O1533 O 0.548 0.55933 0.52505 0.0
O1534 O 0.55284 0.56526 0.56059 0.0
O1535 O 0.53213 0.53675 0.54945 0.0
O1536 O 0.5353 0.5501 0.49803 0.0
O1537 O 0.50967 0.52303 0.52979 0.0
O1538 O 0.59864 0.55786 0.55491 0.0
O1539 O 0.56169 0.53057 0.53182 0.0
O1540 O 0.5564 0.52438 0.49596 0.0
O1541 O 0.57794 0.55219 0.50752 0.0
O1542 O 0.57449 0.53985 0.55882 0.0
O1543 O 0.60031 0.56702 0.52778 0.0
C1544 C 0.54401 0.56487 0.5098 0.0
C1545 C 0.48351 0.51533 0.50912 0.0
C1546 C 0.45137 0.51187 0.50577 0.0
C1547 C 0.46836 0.5229 0.51243 0.0
C1548 C 0.44973 0.49305 0.49557 0.0
C1549 C 0.4818 0.49647 0.49913 0.0
C1550 C 0.46492 0.48538 0.49238 0.0
C1551 C 0.5385 0.55225 0.5629 0.0
C1552 C 0.50083 0.52775 0.51601 0.0
C1553 C 0.52543 0.45147 0.47753 0.0
C1554 C 0.52559 0.44721 0.49585 0.0
C1555 C 0.56576 0.52506 0.54708 0.0
C1556 C 0.62562 0.57732 0.54969 0.0
C1557 C 0.6416 0.57111 0.54777 0.0
C1558 C 0.65783 0.5835 0.5551 0.0
C1559 C 0.6579 0.60229 0.56449 0.0
C1560 C 0.62579 0.5962 0.55882 0.0
C1561 C 0.6419 0.60863 0.56621 0.0
C1562 C 0.57112 0.53696 0.49388 0.0
C1563 C 0.60904 0.56358 0.54238 0.0
H1564 H 0.46986 0.53762 0.51991 0.0
H1565 H 0.43676 0.48427 0.49024 0.0
H1566 H 0.49343 0.49041 0.4965 0.0
H1567 H 0.4636 0.47084 0.4846 0.0
H1568 H 0.64137 0.55641 0.5409 0.0
H1569 H 0.67029 0.61205 0.57033 0.0
H1570 H 0.61357 0.60129 0.56033 0.0
H1571 H 0.64198 0.62316 0.57334 0.0
Eu1572 Eu 0.07408 0.54663 0.02987 0.0
C1573 C 0.00758 0.50442 0.05712 0.0
C1574 C 0.99772 0.47817 0.03048 0.0
C1575 C 0.99176 0.47323 0.06236 0.0
C1576 C 1.00649 0.49734 0.03786 0.0
C1577 C 0.9997 0.49262 0.0695 0.0
C1578 C 0.99079 0.46601 0.04289 0.0
C1579 C 1.00608 0.52062 0.09459 0.0
N1580 N 0.01508 0.52328 0.06352 0.0
C1581 C 0.01356 0.53177 0.08172 0.0
C1582 C 0.99939 0.50088 0.08854 0.0
Eu1583 Eu 0.02787 0.54097 0.04085 0.0
N1584 N 0.01315 0.5095 0.02622 0.0
C1585 C 0.01051 0.50384 1.00702 0.0
C1586 C 0.99572 0.47197 0.01081 0.0
C1587 C 1.00187 0.48497 0.99903 0.0
H1588 H 0.01874 0.54706 0.08637 0.0
H1589 H 1.00008 0.48044 0.98379 0.0
H1590 H 0.98419 0.45117 0.0375 0.0
H1591 H 1.00541 0.52726 0.10914 0.0
H1592 H 0.01522 0.51378 0.99783 0.0
H1593 H 0.12192 0.58501 0.09009 0.0
H1594 H 0.9891 0.45734 1.00459 0.0
H1595 H 0.07268 0.56045 0.98638 0.0
H1596 H 0.10377 0.55657 0.06898 0.0
H1597 H 0.07736 0.59019 0.97358 0.0
H1598 H 0.98582 0.46387 0.07169 0.0
H1599 H 0.12444 0.61738 0.08177 0.0
H1600 H 0.11827 0.63737 0.05778 0.0
H1601 H 0.99346 0.49229 0.0985 0.0
H1602 H 0.10618 0.63874 0.02581 0.0
N1603 N 0.09426 0.57279 0.04984 0.0
C1604 C 0.10416 0.57067 0.06545 0.0
C1605 C 0.11615 0.60496 0.0726 0.0
C1606 C 0.10777 0.60672 0.05545 0.0
C1607 C 0.11473 0.58674 0.07736 0.0
C1608 C 0.09705 0.59008 0.04405 0.0
H1609 H 0.09114 0.62123 0.99425 0.0
N1610 N 0.08106 0.57429 0.01505 0.0
C1611 C 0.08067 0.59072 0.98851 0.0
C1612 C 0.09023 0.59085 0.0261 0.0
C1613 C 0.07749 0.57382 0.99608 0.0
C1614 C 0.08853 0.60816 1.00018 0.0
C1615 C 0.09396 0.6083 0.01907 0.0
O1616 O 0.08944 0.53895 1.00603 0.0
O1617 O 0.04766 0.52562 0.02643 0.0
O1618 O 0.0431 0.53221 0.06448 0.0
O1619 O 0.07223 0.54741 0.06147 0.0
O1620 O 0.0696 0.51679 0.03722 0.0
O1621 O 0.09653 0.5328 0.03351 0.0
O1622 O 0.01109 0.56052 0.05255 0.0
O1623 O 0.05249 0.56254 0.03769 0.0
O1624 O 0.05585 0.53858 1.00253 0.0
O1625 O 0.03108 0.54986 0.01244 0.0
O1626 O 0.0399 0.56772 0.06243 0.0
O1627 O 1.00334 0.54259 0.02501 0.0
C1628 C 0.05288 0.51153 0.03181 0.0
C1629 C 0.11977 0.53852 0.01397 0.0
C1630 C 0.14953 0.53127 0.01549 0.0
C1631 C 0.13115 0.5261 0.01724 0.0
C1632 C 0.1563 0.54917 0.01032 0.0
C1633 C 0.12683 0.55638 0.00907 0.0
C1634 C 0.14502 0.56161 0.0072 0.0
C1635 C 0.05988 0.53872 0.07106 0.0
C1636 C 0.10072 0.53258 0.01621 0.0
C1637 C 0.10352 0.62517 0.03086 0.0
C1638 C 0.11039 0.62439 0.04905 0.0
C1639 C 0.05278 0.5744 0.05298 0.0
C1640 C 0.98043 0.55143 0.04288 0.0
C1641 C 0.96991 0.56478 0.04013 0.0
C1642 C 0.9521 0.56177 0.04457 0.0
C1643 C 0.94502 0.54521 0.05191 0.0
C1644 C 0.97309 0.53491 0.05002 0.0
C1645 C 0.95548 0.53188 0.05457 0.0
C1646 C 0.04128 0.54502 0.99911 0.0
C1647 C 0.99901 0.55509 0.03828 0.0
H1648 H 0.12564 0.51252 0.02147 0.0
H1649 H 0.1703 0.55352 0.00849 0.0
H1650 H 0.11832 0.56626 1.00672 0.0
H1651 H 0.15041 0.57535 1.00329 0.0
H1652 H 0.97567 0.57759 0.03469 0.0
H1653 H 0.9313 0.54237 0.05527 0.0
H1654 H 0.98091 0.52436 0.05202 0.0
H1655 H 0.94988 0.5191 0.06008 0.0
H1656 H 0.02451 0.23612 0.98461 0.0
H1657 H 0.02705 0.20722 0.99776 0.0
H1658 H 0.02394 0.17448 0.94126 0.0
H1659 H 0.02127 0.20319 0.92805 0.0
H1660 H 1.00279 0.16911 0.9909 0.0
H1661 H 0.07007 0.16528 0.96823 0.0
H1662 H 0.06123 0.18691 0.96959 0.0
H1663 H 0.05398 0.16729 0.95001 0.0
C1664 C 0.02433 0.22276 0.97497 0.0
C1665 C 0.0227 0.22207 0.95523 0.0
C1666 C 0.02577 0.20621 0.98252 0.0
C1667 C 0.0259 0.18861 0.97056 0.0
C1668 C 0.02412 0.18787 0.95085 0.0
H1669 H 0.03964 0.07392 0.98537 0.0
H1670 H 0.03601 0.10316 0.97355 0.0
C1671 C 0.0225 0.20433 0.9433 0.0
C1672 C 0.02781 0.17103 0.97859 0.0
H1673 H 0.05516 0.13907 0.9812 0.0
C1674 C 0.01429 0.1626 0.98886 0.0
C1675 C 0.04273 0.16237 0.9759 0.0
C1676 C 0.05793 0.17095 0.96547 0.0
C1677 C 0.01506 0.1456 0.99604 0.0
C1678 C 0.03006 0.13697 0.99344 0.0
C1679 C 0.04363 0.14553 0.98328 0.0
C1680 C 0.03184 0.11894 1.0008 0.0
C1681 C 0.99945 0.13672 1.00576 0.0
C1682 C 0.03074 0.1178 0.02012 0.0
C1683 C 0.03263 0.10094 0.02684 0.0
C1684 C 0.03621 0.08505 0.01454 0.0
C1685 C 0.03721 0.08609 0.99524 0.0
C1686 C 0.03513 0.10283 0.98848 0.0
H1687 H 0.98709 0.14129 1.00143 0.0
H1688 H 0.997 0.12073 1.00259 0.0
H1689 H 1.00228 0.14152 0.02131 0.0
H1690 H 0.02863 0.13003 0.03009 0.0
H1691 H 0.03162 0.10044 0.04173 0.0
H1692 H 0.14796 0.81665 0.14016 0.0
H1693 H 0.17433 0.8133 0.15903 0.0
H1694 H 0.14632 0.8188 0.2094 0.0
H1695 H 0.1199 0.82183 0.19062 0.0
H1696 H 0.1954 0.83707 0.18953 0.0
H1697 H 0.16299 0.76895 0.21091 0.0
H1698 H 0.15308 0.77874 0.19245 0.0
H1699 H 0.15141 0.78819 0.21697 0.0
C1700 C 0.14744 0.81722 0.15527 0.0
C1701 C 0.13174 0.8194 0.16383 0.0
C1702 C 0.16254 0.81529 0.16606 0.0
C1703 C 0.16228 0.81538 0.18564 0.0
C1704 C 0.14679 0.81817 0.19428 0.0
H1705 H 0.23778 0.80507 0.27642 0.0
H1706 H 0.21229 0.80955 0.25711 0.0
C1707 C 0.1317 0.82006 0.18351 0.0
C1708 C 0.17815 0.81257 0.19701 0.0
H1709 H 0.19152 0.78414 0.22638 0.0
C1710 C 0.19456 0.82542 0.19749 0.0
C1711 C 0.17716 0.79736 0.20745 0.0
C1712 C 0.16027 0.7824 0.20682 0.0
C1713 C 0.20979 0.82377 0.20839 0.0
C1714 C 0.20875 0.80866 0.21893 0.0
C1715 C 0.19237 0.79577 0.21839 0.0
C1716 C 0.22444 0.80598 0.23064 0.0
C1717 C 0.22679 0.83855 0.20891 0.0
C1718 C 0.2398 0.80225 0.22227 0.0
C1719 C 0.25442 0.79961 0.23331 0.0
C1720 C 0.25406 0.80052 0.253 0.0
C1721 C 0.23862 0.80423 0.26133 0.0
C1722 C 0.22397 0.80677 0.25027 0.0
H1723 H 0.22429 0.8518 0.20418 0.0
H1724 H 0.2337 0.84262 0.22341 0.0
H1725 H 0.23581 0.83233 0.19927 0.0
H1726 H 0.24048 0.80131 0.20714 0.0
H1727 H 0.26612 0.79729 0.2264 0.0
H1728 H 0.52101 0.82458 0.48633 0.0
H1729 H 0.52291 0.85834 0.5014 0.0
H1730 H 0.53648 0.87671 0.44897 0.0
H1731 H 0.5346 0.84318 0.43389 0.0
H1732 H 0.5524 0.89009 0.50546 0.0
H1733 H 0.49513 0.90337 0.46333 0.0
H1734 H 0.4985 0.87939 0.46438 0.0
H1735 H 0.51098 0.89358 0.44931 0.0
C1736 C 0.52437 0.83582 0.47801 0.0
C1737 C 0.52761 0.83112 0.45887 0.0
C1738 C 0.52544 0.85512 0.48664 0.0
C1739 C 0.52954 0.87012 0.47626 0.0
C1740 C 0.53293 0.86544 0.45721 0.0
H1741 H 0.55 0.99486 0.49485 0.0
H1742 H 0.54301 0.96005 0.48235 0.0
C1743 C 0.53197 0.84621 0.44863 0.0
C1744 C 0.5309 0.89071 0.48539 0.0
H1745 H 0.51435 0.931 0.48195 0.0
C1746 C 0.54396 0.89899 0.50047 0.0
C1747 C 0.51994 0.9024 0.47884 0.0
C1748 C 0.50523 0.89423 0.46319 0.0
C1749 C 0.54681 0.9187 0.50867 0.0
C1750 C 0.53597 0.93047 0.50199 0.0
C1751 C 0.52267 0.92208 0.48713 0.0
C1752 C 0.5388 0.95166 0.50959 0.0
C1753 C 0.56194 0.92687 0.52387 0.0
C1754 C 0.53834 0.95872 0.52902 0.0
C1755 C 0.54245 0.97863 0.53616 0.0
C1756 C 0.54646 0.9919 0.52394 0.0
C1757 C 0.54648 0.98492 0.50449 0.0
C1758 C 0.54256 0.96502 0.49737 0.0
H1759 H 0.57174 0.91739 0.52379 0.0
H1760 H 0.56901 0.9414 0.52209 0.0
H1761 H 0.55657 0.9282 0.53795 0.0
H1762 H 0.5351 0.94882 0.53873 0.0
H1763 H 0.54264 0.98368 0.55126 0.0
H1764 H 0.55128 0.3172 0.68593 0.0
H1765 H 0.52317 0.31245 0.70074 0.0
H1766 H 0.49425 0.30735 0.64646 0.0
H1767 H 0.52227 0.31158 0.63151 0.0
H1768 H 0.49629 0.33207 0.70377 0.0
H1769 H 0.47058 0.2583 0.66289 0.0
H1770 H 0.49332 0.2708 0.66292 0.0
H1771 H 0.47596 0.27605 0.64813 0.0
C1772 C 0.53893 0.31506 0.67714 0.0
C1773 C 0.53902 0.31458 0.6575 0.0
C1774 C 0.52285 0.3124 0.68564 0.0
C1775 C 0.5065 0.30918 0.6747 0.0
C1776 C 0.50661 0.30931 0.65517 0.0
H1777 H 0.40233 0.31168 0.71899 0.0
H1778 H 0.43138 0.32068 0.70667 0.0
C1779 C 0.52267 0.31184 0.64664 0.0
C1780 C 0.48939 0.30539 0.68368 0.0
H1781 H 0.45043 0.27238 0.68157 0.0
C1782 C 0.48626 0.319 0.69894 0.0
C1783 C 0.47637 0.28822 0.6776 0.0
C1784 C 0.47925 0.27241 0.66212 0.0
C1785 C 0.47048 0.31599 0.70814 0.0
C1786 C 0.45725 0.29906 0.70168 0.0
C1787 C 0.46045 0.28544 0.68648 0.0
C1788 C 0.4402 0.2947 0.7107 0.0
C1789 C 0.46835 0.33074 0.72498 0.0
C1790 C 0.43535 0.27712 0.71707 0.0
C1791 C 0.41873 0.27189 0.72388 0.0
C1792 C 0.40649 0.28412 0.72455 0.0
C1793 C 0.41155 0.30205 0.71885 0.0
C1794 C 0.42819 0.30722 0.71184 0.0
H1795 H 0.48139 0.33979 0.73134 0.0
H1796 H 0.46009 0.34043 0.72034 0.0
H1797 H 0.46165 0.32371 0.73607 0.0
H1798 H 0.44434 0.26721 0.71643 0.0
H1799 H 0.4153 0.25805 0.72831 0.0
H1800 H 0.01281 0.7951 0.61298 0.0
H1801 H 0.02015 0.81789 0.59153 0.0
H1802 H 0.03132 0.86511 0.63908 0.0
H1803 H 0.0241 0.84229 0.66079 0.0
H1804 H 1.00463 0.85029 0.58722 0.0
H1805 H 0.07707 0.87114 0.6103 0.0
H1806 H 0.06301 0.8498 0.61564 0.0
H1807 H 0.06218 0.87316 0.62866 0.0
C1808 C 0.01677 0.81034 0.6189 0.0
C1809 C 0.01796 0.81694 0.63857 0.0
C1810 C 0.02095 0.82332 0.60662 0.0
C1811 C 0.02648 0.8431 0.61377 0.0
C1812 C 0.02733 0.84983 0.63336 0.0
H1813 H 0.06135 0.93978 0.55776 0.0
H1814 H 0.0544 0.91844 0.58062 0.0
C1815 C 0.02311 0.83682 0.6457 0.0
C1816 C 0.03134 0.85653 0.60055 0.0
H1817 H 0.06649 0.88653 0.58686 0.0
C1818 C 0.01813 0.85825 0.58712 0.0
C1819 C 0.04897 0.86687 0.60056 0.0
C1820 C 0.06371 0.86513 0.61445 0.0
C1821 C 0.02207 0.87016 0.57369 0.0
C1822 C 0.03979 0.88021 0.57342 0.0
C1823 C 0.05295 0.87867 0.58703 0.0
C1824 C 0.04484 0.89275 0.55941 0.0
C1825 C 0.00716 0.87217 0.56016 0.0
C1826 C 0.04227 0.88526 0.5399 0.0
C1827 C 0.04603 0.89747 0.52676 0.0
C1828 C 0.05256 0.91735 0.53296 0.0
C1829 C 0.05596 0.9246 0.55254 0.0
C1830 C 0.05211 0.91242 0.56562 0.0
H1831 H 0.99393 0.86781 0.56546 0.0
H1832 H 0.00872 0.88725 0.55777 0.0
H1833 H 0.00735 0.86269 0.54633 0.0
H1834 H 0.03707 0.87001 0.53483 0.0
H1835 H 0.04326 0.89147 0.51179 0.0
H1836 H 0.53726 0.82953 0.89501 0.0
H1837 H 0.51062 0.8344 0.878 0.0
H1838 H 0.52538 0.80479 0.82582 0.0
H1839 H 0.5522 0.80007 0.84267 0.0
H1840 H 0.51667 0.84052 0.82331 0.0
H1841 H 0.46513 0.7945 0.85646 0.0
H1842 H 0.48105 0.81181 0.87308 0.0
H1843 H 0.48822 0.79271 0.85796 0.0
C1844 C 0.53472 0.82386 0.87995 0.0
C1845 C 0.54675 0.81438 0.87014 0.0
C1846 C 0.51949 0.82659 0.87029 0.0
C1847 C 0.51599 0.81975 0.85073 0.0
C1848 C 0.52787 0.8101 0.84094 0.0
H1849 H 0.4173 0.81533 0.78478 0.0
H1850 H 0.44462 0.80799 0.79785 0.0
C1851 C 0.54313 0.80739 0.85058 0.0
C1852 C 0.50035 0.82345 0.84034 0.0
H1853 H 0.45506 0.81529 0.83775 0.0
C1854 C 0.50318 0.83492 0.82636 0.0
C1855 C 0.48283 0.81596 0.8443 0.0
C1856 C 0.47905 0.80291 0.85864 0.0
C1857 C 0.48886 0.83949 0.81646 0.0
C1858 C 0.47139 0.83251 0.82085 0.0
C1859 C 0.46854 0.82069 0.83454 0.0
C1860 C 0.45579 0.83739 0.81155 0.0
C1861 C 0.49249 0.85162 0.80134 0.0
C1862 C 0.45321 0.8564 0.8148 0.0
C1863 C 0.43756 0.86063 0.80749 0.0
C1864 C 0.42425 0.84586 0.79691 0.0
C1865 C 0.42721 0.82695 0.79314 0.0
C1866 C 0.44281 0.82274 0.8005 0.0
H1867 H 0.50612 0.8522 0.79677 0.0
H1868 H 0.48271 0.84592 0.78877 0.0
H1869 H 0.49117 0.86657 0.807 0.0
H1870 H 0.46301 0.86783 0.82356 0.0
H1871 H 0.43556 0.87528 0.8108 0.0
H1872 H 0.50864 0.21176 0.15675 0.0
H1873 H 0.50416 0.18094 0.13511 0.0
H1874 H 0.47366 0.20262 0.09469 0.0
H1875 H 0.47855 0.23386 0.11615 0.0
H1876 H 0.47597 0.15303 0.11579 0.0
H1877 H 0.5164 0.19222 0.0667 0.0
H1878 H 0.51408 0.20355 0.09052 0.0
H1879 H 0.49612 0.19981 0.07238 0.0
C1880 C 0.50069 0.20988 0.14342 0.0
C1881 C 0.49425 0.22529 0.13794 0.0
C1882 C 0.49808 0.19223 0.13109 0.0
C1883 C 0.48892 0.1897 0.11316 0.0
C1884 C 0.48109 0.20449 0.10833 0.0
H1885 H 0.50323 0.09743 0.0225 0.0
H1886 H 0.48949 0.12217 0.03964 0.0
C1887 C 0.48383 0.22226 0.12062 0.0
C1888 C 0.48964 0.17249 0.09901 0.0
H1889 H 0.51011 0.1586 0.05959 0.0
C1890 C 0.48313 0.15419 0.10329 0.0
C1891 C 0.49906 0.17412 0.08275 0.0
C1892 C 0.50695 0.19344 0.07779 0.0
C1893 C 0.48655 0.13752 0.09224 0.0
C1894 C 0.49677 0.13931 0.07665 0.0
C1895 C 0.50227 0.15741 0.07162 0.0
C1896 C 0.50368 0.12306 0.06664 0.0
C1897 C 0.47975 0.11819 0.09763 0.0
C1898 C 0.51628 0.11553 0.07619 0.0
C1899 C 0.52445 0.10166 0.06637 0.0
C1900 C 0.52018 0.09516 0.04679 0.0
C1901 C 0.50719 0.10244 0.03742 0.0
C1902 C 0.49912 0.1164 0.04722 0.0
H1903 H 0.46829 0.11851 0.10637 0.0
H1904 H 0.47565 0.10677 0.08484 0.0
H1905 H 0.49053 0.11427 0.10607 0.0
H1906 H 0.52021 0.12083 0.09114 0.0
H1907 H 0.53438 0.09639 0.07406 0.0
H1908 H 0.12181 0.29921 0.33505 0.0
H1909 H 0.14611 0.30138 0.31445 0.0
H1910 H 0.18405 0.32376 0.3633 0.0
H1911 H 0.15971 0.32227 0.38398 0.0
H1912 H 0.19167 0.34304 0.33339 0.0
H1913 H 0.17879 0.26344 0.31002 0.0
H1914 H 0.16005 0.27397 0.30553 0.0
H1915 H 0.16845 0.27471 0.32953 0.0
C1916 C 0.13534 0.30449 0.3414 0.0
C1917 C 0.13896 0.31033 0.36109 0.0
C1918 C 0.14917 0.30577 0.32962 0.0
C1919 C 0.16683 0.31254 0.33741 0.0
C1920 C 0.17047 0.31855 0.35706 0.0
H1921 H 0.26829 0.30084 0.31185 0.0
H1922 H 0.24052 0.30694 0.32422 0.0
C1923 C 0.15661 0.31751 0.36884 0.0
C1924 C 0.18161 0.31238 0.32521 0.0
H1925 H 0.20148 0.282 0.29656 0.0
C1926 C 0.19379 0.32971 0.32516 0.0
C1927 C 0.18432 0.29494 0.31461 0.0
C1928 C 0.17233 0.27568 0.31501 0.0
C1929 C 0.20897 0.32987 0.31513 0.0
C1930 C 0.21178 0.31237 0.30489 0.0
C1931 C 0.19921 0.29532 0.30429 0.0
C1932 C 0.22895 0.31078 0.29741 0.0
C1933 C 0.22234 0.34845 0.31614 0.0
C1934 C 0.2315 0.31104 0.27826 0.0
C1935 C 0.24743 0.30764 0.27119 0.0
C1936 C 0.26056 0.30346 0.28315 0.0
C1937 C 0.25811 0.30368 0.30236 0.0
C1938 C 0.24239 0.30729 0.30944 0.0
H1939 H 0.21714 0.36122 0.32251 0.0
H1940 H 0.23451 0.34796 0.32489 0.0
H1941 H 0.22622 0.35016 0.30176 0.0
H1942 H 0.22113 0.31357 0.26881 0.0
H1943 H 0.24933 0.30781 0.25638 0.0
H1944 H 0.93607 0.04587 0.20623 0.0
H1945 H 0.95082 0.0431 0.1767 0.0
H1946 H 0.99678 0.08431 0.20501 0.0
H1947 H 0.98223 0.08659 0.23465 0.0
H1948 H 0.96168 0.06383 0.15221 0.0
H1949 H 0.0239 0.0478 0.18074 0.0
H1950 H 1.00512 0.04847 0.1946 0.0
H1951 H 0.02038 0.07048 0.1928 0.0
C1952 C 0.94939 0.0543 0.20632 0.0
C1953 C 0.95778 0.06638 0.22334 0.0
C1954 C 0.95795 0.05273 0.18916 0.0
C1955 C 0.97544 0.06307 0.188 0.0
C1956 C 0.98368 0.07545 0.20498 0.0
H1957 H 0.04634 0.07646 0.09334 0.0
H1958 H 0.0322 0.07951 0.12323 0.0
C1959 C 0.97515 0.07695 0.22218 0.0
C1960 C 0.98464 0.06117 0.16918 0.0
H1961 H 0.02387 0.05522 0.1497 0.0
C1962 C 0.97526 0.06181 0.15187 0.0
C1963 C 1.0025 0.05848 0.16787 0.0
C1964 C 0.01351 0.05606 0.18494 0.0
C1965 C 0.98298 0.0603 0.13411 0.0
C1966 C 1.00085 0.05778 0.13287 0.0
C1967 C 0.01028 0.0572 0.15012 0.0
C1968 C 0.00984 0.05568 0.11401 0.0
C1969 C 0.97193 0.06196 0.11676 0.0
C1970 C 1.00261 0.04111 0.09817 0.0
C1971 C 0.011 0.03911 0.08092 0.0
C1972 C 0.02703 0.05166 0.07841 0.0
C1973 C 0.03423 0.06625 0.09428 0.0
C1974 C 0.02598 0.06808 0.11164 0.0
H1975 H 0.96069 0.06907 0.12055 0.0
H1976 H 0.98014 0.07027 0.10746 0.0
H1977 H 0.96627 0.0473 0.10858 0.0
H1978 H 0.99048 0.0309 0.09919 0.0
H1979 H 1.00489 0.02745 0.06956 0.0
H1980 H 0.29441 0.64873 0.45524 0.0
H1981 H 0.28895 0.66323 0.42763 0.0
H1982 H 0.28961 0.71743 0.46439 0.0
H1983 H 0.2956 0.70319 0.49198 0.0
H1984 H 0.25965 0.67648 0.42103 0.0
H1985 H 0.31849 0.73543 0.42323 0.0
H1986 H 0.31829 0.71649 0.4369 0.0
H1987 H 0.30848 0.73676 0.44526 0.0
C1988 C 0.29378 0.66385 0.45738 0.0
C1989 C 0.29538 0.67484 0.4757 0.0
C1990 C 0.29067 0.67211 0.44162 0.0
C1991 C 0.28905 0.69145 0.44395 0.0
C1992 C 0.29124 0.70262 0.46223 0.0
H1993 H 0.22537 0.74171 0.37285 0.0
H1994 H 0.23755 0.72612 0.3968 0.0
C1995 C 0.29454 0.69443 0.47798 0.0
C1996 C 0.28309 0.69925 0.42753 0.0
H1997 H 0.29244 0.73706 0.40412 0.0
C1998 C 0.26695 0.68959 0.41717 0.0
C1999 C 0.29267 0.71629 0.42247 0.0
C2000 C 0.31053 0.72673 0.43244 0.0
C2001 C 0.25988 0.69675 0.40217 0.0
C2002 C 0.269 0.7143 0.39773 0.0
C2003 C 0.2854 0.7237 0.40771 0.0
C2004 C 0.26151 0.72334 0.38304 0.0
C2005 C 0.24273 0.68542 0.39122 0.0
C2006 C 0.27113 0.72725 0.3676 0.0
C2007 C 0.26426 0.73628 0.35402 0.0
C2008 C 0.24768 0.74151 0.35569 0.0
C2009 C 0.23802 0.73746 0.37107 0.0
C2010 C 0.24496 0.72858 0.38473 0.0
H2011 H 0.24044 0.66996 0.3925 0.0
H2012 H 0.23144 0.69132 0.397 0.0
H2013 H 0.24271 0.68642 0.37597 0.0
H2014 H 0.28396 0.72335 0.3661 0.0
H2015 H 0.27194 0.73927 0.34225 0.0
H2016 H 0.66172 1.00097 0.69336 0.0
H2017 H 0.63674 0.99629 0.66922 0.0
H2018 H 0.62525 0.05088 0.69438 0.0
H2019 H 0.64998 0.0556 0.71856 0.0
H2020 H 0.59431 0.01955 0.68288 0.0
H2021 H 0.64124 0.02976 0.62711 0.0
H2022 H 0.64325 0.01129 0.64065 0.0
H2023 H 0.64855 0.03616 0.65203 0.0
C2024 C 0.6538 0.01191 0.69376 0.0
C2025 C 0.65787 0.02875 0.70766 0.0
C2026 C 0.63955 1.00918 0.68004 0.0
C2027 C 0.62927 0.02328 0.68008 0.0
C2028 C 0.63302 0.03981 0.69424 0.0
H2029 H 0.57836 0.06695 0.59844 0.0
H2030 H 0.5924 0.06001 0.62701 0.0
C2031 C 0.64722 0.04256 0.70792 0.0
C2032 C 0.61558 0.02183 0.66452 0.0
H2033 H 0.61106 0.02734 0.61851 0.0
C2034 C 0.59783 0.02091 0.66869 0.0
C2035 C 0.62039 0.02375 0.64614 0.0
C2036 C 0.63939 0.02543 0.64112 0.0
C2037 C 0.58483 0.02263 0.655 0.0
C2038 C 0.58987 0.02532 0.63692 0.0
C2039 C 0.60738 0.02528 0.6325 0.0
C2040 C 0.57794 0.03038 0.62282 0.0
C2041 C 0.56608 0.02258 0.66011 0.0
C2042 C 0.56458 0.01623 0.61164 0.0
C2043 C 0.55642 0.02025 0.59536 0.0
C2044 C 0.56189 0.0383 0.59011 0.0
C2045 C 0.57415 0.05287 0.60219 0.0
C2046 C 0.5821 0.04895 0.61848 0.0
H2047 H 0.56447 0.02103 0.67508 0.0
H2048 H 0.56228 0.0362 0.65779 0.0
H2049 H 0.55676 0.0105 0.65073 0.0
H2050 H 0.56139 1.00178 0.61476 0.0
H2051 H 0.547 1.00882 0.58611 0.0
H2052 H 0.30683 0.34345 0.99264 0.0
H2053 H 0.30846 0.32803 0.95983 0.0
H2054 H 0.31152 0.38279 0.94189 0.0
H2055 H 0.31005 0.39832 0.9746 0.0
H2056 H 0.28512 0.32683 0.92796 0.0
H2057 H 0.35384 0.36336 0.91881 0.0
H2058 H 0.34545 0.36319 0.9418 0.0
H2059 H 0.33971 0.3795 0.92725 0.0
C2060 C 0.30791 0.35221 0.9817 0.0
C2061 C 0.30838 0.37211 0.98619 0.0
C2062 C 0.30885 0.34338 0.96299 0.0
C2063 C 0.31044 0.35433 0.9485 0.0
C2064 C 0.31071 0.37416 0.95293 0.0
H2065 H 0.30671 0.33419 0.82715 0.0
H2066 H 0.31107 0.34742 0.86121 0.0
C2067 C 0.30974 0.38298 0.9716 0.0
C2068 C 0.31107 0.34491 0.92862 0.0
H2069 H 0.33619 0.34569 0.89083 0.0
C2070 C 0.29636 0.33078 0.91989 0.0
C2071 C 0.32573 0.35017 0.91813 0.0
C2072 C 0.34216 0.36477 0.92699 0.0
C2073 C 0.29565 0.3222 0.90074 0.0
C2074 C 0.31024 0.32761 0.89018 0.0
C2075 C 0.32507 0.34153 0.89899 0.0
C2076 C 0.30983 0.31974 0.86971 0.0
C2077 C 0.279 0.30797 0.8918 0.0
C2078 C 0.30822 0.29987 0.86322 0.0
C2079 C 0.30572 0.29234 0.8438 0.0
C2080 C 0.30533 0.30463 0.83064 0.0
C2081 C 0.30751 0.32455 0.8371 0.0
C2082 C 0.30992 0.33207 0.85649 0.0
H2083 H 0.26762 0.30867 0.9006 0.0
H2084 H 0.27516 0.31064 0.87752 0.0
H2085 H 0.28152 0.29314 0.89016 0.0
H2086 H 0.30834 0.29015 0.87319 0.0
H2087 H 0.30366 0.27688 0.83905 0.0
H2088 H 0.98484 0.06695 0.32157 0.0
H2089 H 0.99906 0.06212 0.35139 0.0
H2090 H 0.94999 0.06284 0.37731 0.0
H2091 H 0.93573 0.06727 0.3475 0.0
H2092 H 0.00772 0.0808 0.38676 0.0
H2093 H 0.95899 0.01563 0.39379 0.0
H2094 H 0.95894 0.02588 0.37257 0.0
H2095 H 0.94854 0.03566 0.39281 0.0
C2096 C 0.97697 0.06608 0.33357 0.0
C2097 C 0.95887 0.06751 0.3316 0.0
C2098 C 0.98523 0.06328 0.35089 0.0
C2099 C 0.97583 0.06154 0.36718 0.0
C2100 C 0.95783 0.0634 0.36528 0.0
H2101 H 0.99664 0.0457 0.4857 0.0
H2102 H 0.98512 0.04918 0.45449 0.0
C2103 C 0.94958 0.06619 0.34799 0.0
C2104 C 0.98474 0.05806 0.38592 0.0
H2105 H 0.97912 0.03017 0.42085 0.0
C2106 C 1.00139 0.06958 0.39403 0.0
C2107 C 0.97705 0.04344 0.39604 0.0
C2108 C 0.96 0.02931 0.38829 0.0
C2109 C 0.00988 0.06751 0.41164 0.0
C2110 C 1.00202 0.05307 0.4219 0.0
C2111 C 0.98552 0.04137 0.4136 0.0
C2112 C 0.00993 0.0504 0.44148 0.0
C2113 C 0.02697 0.08152 0.41939 0.0
C2114 C 0.02802 0.04941 0.4456 0.0
C2115 C 0.03483 0.0474 0.46398 0.0
C2116 C 0.02379 0.04597 0.47907 0.0
C2117 C 1.00575 0.04658 0.47474 0.0
C2118 C 0.99902 0.0486 0.45657 0.0
H2119 H 0.02859 0.09481 0.41312 0.0
H2120 H 0.02755 0.08572 0.43503 0.0
H2121 H 0.03836 0.07463 0.41582 0.0
H2122 H 0.03703 0.05009 0.43457 0.0
H2123 H 0.04878 0.04718 0.4664 0.0
H2124 H 0.32378 0.69453 0.57915 0.0
H2125 H 0.32266 0.71712 0.60851 0.0
H2126 H 0.26719 0.71491 0.59368 0.0
H2127 H 0.26814 0.69248 0.56432 0.0
H2128 H 0.30462 0.75586 0.61212 0.0
H2129 H 0.27673 0.69487 0.64797 0.0
H2130 H 0.29085 0.69171 0.62888 0.0
H2131 H 0.26863 0.69478 0.62394 0.0
C2132 C 0.31142 0.69905 0.58205 0.0
C2133 C 0.29603 0.69172 0.56955 0.0
C2134 C 0.31082 0.71195 0.59874 0.0
C2135 C 0.29484 0.71754 0.60308 0.0
C2136 C 0.27961 0.71071 0.59041 0.0
H2137 H 0.2719 0.76852 0.71522 0.0
H2138 H 0.26785 0.7542 0.68143 0.0
C2139 C 0.2802 0.6979 0.57372 0.0
C2140 C 0.29376 0.72944 0.62151 0.0
H2141 H 0.28275 0.726 0.66622 0.0
C2142 C 0.29974 0.74946 0.62398 0.0
C2143 C 0.28714 0.72089 0.63669 0.0
C2144 C 0.28047 0.69938 0.63442 0.0
C2145 C 0.29958 0.76125 0.64159 0.0
C2146 C 0.2937 0.75261 0.65707 0.0
C2147 C 0.28722 0.7326 0.65433 0.0
C2148 C 0.29547 0.76365 0.67659 0.0
C2149 C 0.30568 0.78279 0.64338 0.0
C2150 C 0.31227 0.7738 0.68497 0.0
C2151 C 0.31451 0.78212 0.70411 0.0
C2152 C 0.3001 0.78016 0.71525 0.0
C2153 C 0.28322 0.77026 0.70684 0.0
C2154 C 0.28089 0.76215 0.6876 0.0
H2155 H 0.3035 0.78742 0.62961 0.0
H2156 H 0.29863 0.79074 0.6541 0.0
H2157 H 0.32016 0.78688 0.64777 0.0
H2158 H 0.32384 0.77451 0.67695 0.0
H2159 H 0.32771 0.78902 0.71035 0.0
H2160 H 0.68636 0.06886 0.81095 0.0
H2161 H 0.66518 0.07595 0.83403 0.0
H2162 H 0.62778 0.02421 0.80749 0.0
H2163 H 0.64884 0.01699 0.78435 0.0
H2164 H 0.61527 0.06109 0.81212 0.0
H2165 H 0.64747 0.04688 0.87809 0.0
H2166 H 0.66126 0.06135 0.86414 0.0
H2167 H 0.65225 0.03638 0.85476 0.0
C2168 C 0.67375 0.05882 0.81025 0.0
C2169 C 0.66919 0.04239 0.79588 0.0
C2170 C 0.66171 0.06289 0.82342 0.0
C2171 C 0.64502 0.05057 0.82236 0.0
C2172 C 0.64066 0.03384 0.80844 0.0
H2173 H 0.56243 0.04214 0.8965 0.0
H2174 H 0.58449 0.03737 0.8739 0.0
C2175 C 0.65271 0.02971 0.79533 0.0
C2176 C 0.63163 0.05568 0.83503 0.0
H2177 H 0.62113 0.05889 0.88074 0.0
C2178 C 0.61651 0.06069 0.82714 0.0
C2179 C 0.63348 0.05514 0.85455 0.0
C2180 C 0.64942 0.04955 0.86348 0.0
C2181 C 0.60295 0.06495 0.83833 0.0
C2182 C 0.6047 0.06421 0.85782 0.0
C2183 C 0.61994 0.05947 0.86575 0.0
C2184 C 0.59038 0.06709 0.87007 0.0
C2185 C 0.58664 0.06968 0.82922 0.0
C2186 C 0.58623 0.08533 0.87501 0.0
C2187 C 0.57361 0.0881 0.88792 0.0
C2188 C 0.56516 0.07267 0.89609 0.0
C2189 C 0.56891 0.05429 0.89052 0.0
C2190 C 0.58146 0.05155 0.87766 0.0
H2191 H 0.58616 0.06676 0.8135 0.0
H2192 H 0.57438 0.06119 0.83363 0.0
H2193 H 0.58668 0.08519 0.83397 0.0
H2194 H 0.59317 0.0975 0.86938 0.0
H2195 H 0.57107 0.10243 0.89217 0.0
H2196 H 0.30933 0.39832 0.10997 0.0
H2197 H 0.30648 0.3823 0.13747 0.0
H2198 H 0.28879 0.32723 0.1004 0.0
H2199 H 0.29171 0.34314 0.07277 0.0
H2200 H 0.27558 0.35832 0.14797 0.0
H2201 H 0.33072 0.31942 0.13468 0.0
H2202 H 0.32808 0.33939 0.12333 0.0
H2203 H 0.3141 0.31599 0.11519 0.0
C2204 C 0.30483 0.38279 0.10766 0.0
C2205 C 0.30081 0.37197 0.08921 0.0
C2206 C 0.3032 0.37368 0.12338 0.0
C2207 C 0.29764 0.35357 0.12095 0.0
C2208 C 0.29338 0.34273 0.10256 0.0
H2209 H 0.2882 0.27544 0.20205 0.0
H2210 H 0.28744 0.28938 0.17332 0.0
C2211 C 0.29497 0.35185 0.08681 0.0
C2212 C 0.29623 0.34404 0.13774 0.0
H2213 H 0.31406 0.31312 0.1604 0.0
C2214 C 0.28398 0.34843 0.15071 0.0
C2215 C 0.30715 0.33107 0.1412 0.0
C2216 C 0.32087 0.32624 0.12798 0.0
C2217 C 0.28227 0.34012 0.16704 0.0
C2218 C 0.29343 0.32743 0.17071 0.0
C2219 C 0.30553 0.32286 0.15759 0.0
C2220 C 0.29302 0.31897 0.1882 0.0
C2221 C 0.26831 0.34476 0.18003 0.0
C2222 C 0.29649 0.33092 0.20614 0.0
C2223 C 0.29658 0.32291 0.22256 0.0
C2224 C 0.29341 0.30281 0.22137 0.0
C2225 C 0.29011 0.2909 0.20343 0.0
C2226 C 0.28992 0.29889 0.187 0.0
H2227 H 0.25757 0.34971 0.1725 0.0
H2228 H 0.26224 0.33203 0.1861 0.0
H2229 H 0.27458 0.35656 0.19187 0.0
H2230 H 0.29932 0.34646 0.20744 0.0
H2231 H 0.29894 0.33244 0.23617 0.0
H2232 H 0.28776 0.98261 0.05919 0.0
H2233 H 0.2648 1.00143 0.06527 0.0
H2234 H 0.22808 0.95969 0.02394 0.0
H2235 H 0.25094 0.94055 0.01798 0.0
H2236 H 0.24732 0.01773 0.03959 0.0
H2237 H 0.2 0.96519 0.07085 0.0
H2238 H 0.22274 0.9631 0.06796 0.0
H2239 H 0.2063 0.9558 0.048 0.0
C2240 C 0.27477 0.9774 0.05145 0.0
C2241 C 0.27107 0.9601 0.03817 0.0
C2242 C 0.2617 0.98815 0.05494 0.0
C2243 C 0.24473 0.98177 0.04524 0.0
C2244 C 0.24102 0.9646 0.03183 0.0
H2245 H 0.16588 0.04989 0.03319 0.0
H2246 H 0.18863 0.03061 0.02868 0.0
C2247 C 0.25409 0.95378 0.02837 0.0
C2248 C 0.23116 0.99352 0.04882 0.0
H2249 H 0.19013 0.99305 0.06472 0.0
C2250 C 0.23483 0.01238 0.04514 0.0
C2251 C 0.21502 0.98649 0.05624 0.0
C2252 C 0.21078 0.9666 0.06117 0.0
C2253 C 0.22264 0.0244 0.0485 0.0
C2254 C 0.20628 0.01721 0.05542 0.0
C2255 C 0.20269 0.99843 0.05934 0.0
C2256 C 0.19256 0.02884 0.0583 0.0
C2257 C 0.22744 0.04476 0.04479 0.0
C2258 C 0.18704 0.03387 0.07643 0.0
C2259 C 0.17388 0.04472 0.07904 0.0
C2260 C 0.16598 0.05052 0.06351 0.0
C2261 C 0.1716 0.04545 0.04539 0.0
C2262 C 0.18471 0.03461 0.04281 0.0
H2263 H 0.24203 0.0496 0.04445 0.0
H2264 H 0.22095 0.04538 0.03081 0.0
H2265 H 0.22275 0.05499 0.05576 0.0
H2266 H 0.19293 0.0294 0.08852 0.0
H2267 H 0.16965 0.04825 0.09311 0.0
H2268 H 0.72951 0.67845 0.02442 0.0
H2269 H 0.69972 0.65835 0.02328 0.0
H2270 H 0.71757 0.61009 0.9918 0.0
H2271 H 0.74752 0.62995 0.99339 0.0
H2272 H 0.6761 0.63942 0.99349 0.0
H2273 H 0.69581 0.58702 0.03486 0.0
H2274 H 0.71056 0.60943 0.03328 0.0
H2275 H 0.70753 0.58914 0.01412 0.0
C2276 C 0.72708 0.66355 0.01728 0.0
C2277 C 0.74085 0.65571 0.00913 0.0
C2278 C 0.71007 0.65209 0.01662 0.0
C2279 C 0.7065 0.63263 0.00774 0.0
C2280 C 0.72013 0.62492 0.99914 0.0
H2281 H 0.60323 0.55125 0.9879 0.0
H2282 H 0.63317 0.56859 0.98379 0.0
C2283 C 0.7372 0.63632 0.99997 0.0
C2284 C 0.6885 0.62051 0.00751 0.0
H2285 H 0.66583 0.58034 0.02197 0.0
C2286 C 0.67388 0.62646 0.99964 0.0
C2287 C 0.68562 0.60364 0.01564 0.0
C2288 C 0.70067 0.59699 0.02511 0.0
C2289 C 0.65645 0.61607 0.99981 0.0
C2290 C 0.65364 0.59931 0.00795 0.0
C2291 C 0.66818 0.59314 0.01556 0.0
C2292 C 0.63555 0.58892 0.01009 0.0
C2293 C 0.64104 0.62318 0.99169 0.0
C2294 C 0.62714 0.59471 0.02621 0.0
C2295 C 0.61019 0.5848 0.02871 0.0
C2296 C 0.60133 0.56886 0.0151 0.0
C2297 C 0.60976 0.56327 0.99878 0.0
C2298 C 0.62681 0.57318 0.99635 0.0
H2299 H 0.6455 0.63576 0.98473 0.0
H2300 H 0.6325 0.6114 0.98119 0.0
H2301 H 0.63274 0.62742 1.0032 0.0
H2302 H 0.63375 0.60686 0.03692 0.0
H2303 H 0.60413 0.58959 0.04141 0.0
H2304 H 0.67871 0.44214 0.26989 0.0
H2305 H 0.69442 0.41539 0.2695 0.0
H2306 H 0.74457 0.45552 0.27394 0.0
H2307 H 0.72889 0.48222 0.27479 0.0
H2308 H 0.71418 0.39728 0.2484 0.0
H2309 H 0.75935 0.42832 0.31293 0.0
H2310 H 0.74138 0.43926 0.30623 0.0
H2311 H 0.76217 0.44368 0.29562 0.0
C2312 C 0.69311 0.44543 0.2709 0.0
C2313 C 0.70221 0.4649 0.27252 0.0
C2314 C 0.70227 0.42985 0.27064 0.0
C2315 C 0.72114 0.43272 0.27213 0.0
C2316 C 0.7302 0.45219 0.27341 0.0
H2317 H 0.77751 0.33399 0.23857 0.0
H2318 H 0.76319 0.36181 0.23973 0.0
C2319 C 0.72105 0.46776 0.2737 0.0
C2320 C 0.73106 0.41556 0.27192 0.0
H2321 H 0.76575 0.40047 0.29392 0.0
C2322 C 0.72545 0.39823 0.25847 0.0
C2323 C 0.74583 0.41572 0.28501 0.0
C2324 C 0.75245 0.43264 0.30088 0.0
C2325 C 0.73394 0.382 0.25751 0.0
C2326 C 0.74908 0.38243 0.27016 0.0
C2327 C 0.75448 0.39958 0.28386 0.0
C2328 C 0.75909 0.36536 0.2696 0.0
C2329 C 0.72605 0.36414 0.2431 0.0
C2330 C 0.76274 0.35759 0.28596 0.0
C2331 C 0.77128 0.34148 0.2853 0.0
C2332 C 0.77717 0.33254 0.26834 0.0
C2333 C 0.77367 0.3404 0.25206 0.0
C2334 C 0.76511 0.35642 0.2527 0.0
H2335 H 0.71185 0.36357 0.23877 0.0
H2336 H 0.73341 0.36428 0.23024 0.0
H2337 H 0.72698 0.35085 0.24868 0.0
H2338 H 0.75854 0.36368 0.29937 0.0
H2339 H 0.77305 0.33582 0.29815 0.0
H2340 H 0.86847 0.48577 0.54474 0.0
H2341 H 0.89924 0.49812 0.53893 0.0
H2342 H 0.88656 0.476 0.47911 0.0
H2343 H 0.85565 0.46405 0.48476 0.0
H2344 H 0.92071 0.47462 0.52441 0.0
H2345 H 0.91639 0.52947 0.47933 0.0
H2346 H 0.8984 0.52041 0.4927 0.0
H2347 H 0.90211 0.50632 0.47071 0.0
C2348 C 0.87217 0.48389 0.53031 0.0
C2349 C 0.85974 0.47392 0.5152 0.0
C2350 C 0.88971 0.49093 0.52701 0.0
C2351 C 0.89511 0.48806 0.50858 0.0
C2352 C 0.88258 0.47869 0.49338 0.0
H2353 H 0.0085 0.49343 0.49563 0.0
H2354 H 0.97603 0.48199 0.49079 0.0
C2355 C 0.86496 0.47179 0.49665 0.0
C2356 C 0.91417 0.49315 0.50568 0.0
H2357 H 0.94447 0.52107 0.48349 0.0
C2358 C 0.92593 0.48475 0.51544 0.0
C2359 C 0.92082 0.50634 0.49393 0.0
C2360 C 0.90882 0.51631 0.48368 0.0
C2361 C 0.94428 0.48955 0.5142 0.0
C2362 C 0.95096 0.50266 0.50238 0.0
C2363 C 0.93919 0.51079 0.49229 0.0
C2364 C 0.97024 0.50975 0.50216 0.0
C2365 C 0.95637 0.48121 0.52624 0.0
C2366 C 0.97756 0.52921 0.50939 0.0
C2367 C 0.99591 0.53571 0.51197 0.0
C2368 C 0.00723 0.52291 0.50709 0.0
C2369 C 0.99994 0.50354 0.49931 0.0
C2370 C 0.9815 0.49704 0.49659 0.0
H2371 H 0.94932 0.47465 0.53742 0.0
H2372 H 0.96146 0.46977 0.51712 0.0
H2373 H 0.96795 0.49248 0.53316 0.0
H2374 H 0.96907 0.5392 0.51389 0.0
H2375 H 1.00115 0.55055 0.51852 0.0
H2376 H 0.382 0.06142 0.25583 0.0
H2377 H 0.35773 0.07649 0.24712 0.0
H2378 H 0.37011 0.11804 0.2992 0.0
H2379 H 0.39456 0.10297 0.30814 0.0
H2380 H 0.3278 0.08253 0.27075 0.0
H2381 H 0.36956 0.1492 0.25391 0.0
H2382 H 0.37795 0.12749 0.25436 0.0
H2383 H 0.37503 0.14237 0.27614 0.0
C2384 C 0.37965 0.07383 0.2654 0.0
C2385 C 0.39017 0.0811 0.28263 0.0
C2386 C 0.36575 0.08234 0.26043 0.0
C2387 C 0.36227 0.09832 0.27252 0.0
C2388 C 0.37277 0.10575 0.28969 0.0
H2389 H 0.27349 0.15411 0.26883 0.0
H2390 H 0.29418 0.13416 0.27665 0.0
C2391 C 0.38667 0.09716 0.29474 0.0
C2392 C 0.34752 0.10706 0.26699 0.0
H2393 H 0.33846 0.14641 0.25099 0.0
C2394 C 0.33006 0.09651 0.26645 0.0
C2395 C 0.35069 0.12517 0.26127 0.0
C2396 C 0.3693 0.13676 0.26129 0.0
C2397 C 0.31554 0.10373 0.26035 0.0
C2398 C 0.3187 0.12189 0.25471 0.0
C2399 C 0.33618 0.1324 0.25522 0.0
C2400 C 0.3041 0.13075 0.24893 0.0
C2401 C 0.29697 0.09186 0.25978 0.0
C2402 C 0.30262 0.135 0.23063 0.0
C2403 C 0.2908 0.14635 0.22613 0.0
C2404 C 0.28055 0.15376 0.23999 0.0
C2405 C 0.2813 0.14851 0.25794 0.0
C2406 C 0.29302 0.13709 0.26239 0.0
H2407 H 0.29704 0.07657 0.26051 0.0
H2408 H 0.29038 0.0979 0.27208 0.0
H2409 H 0.28891 0.09238 0.24667 0.0
H2410 H 0.31119 0.13026 0.22014 0.0
H2411 H 0.29057 0.15042 0.21228 0.0
H2412 H 0.31935 0.13737 0.52994 0.0
H2413 H 0.3446 0.12173 0.53254 0.0
H2414 H 0.37786 0.16742 0.51091 0.0
H2415 H 0.35254 0.18321 0.50817 0.0
H2416 H 0.38056 0.12939 0.4938 0.0
H2417 H 0.38806 0.14015 0.57224 0.0
H2418 H 0.36575 0.12956 0.56215 0.0
H2419 H 0.37567 0.15369 0.55953 0.0
C2420 C 0.33203 0.14413 0.52576 0.0
C2421 C 0.33399 0.16155 0.51892 0.0
C2422 C 0.34647 0.13523 0.52736 0.0
C2423 C 0.36314 0.1436 0.52222 0.0
C2424 C 0.36511 0.16084 0.51509 0.0
H2425 H 0.45678 0.09675 0.54828 0.0
H2426 H 0.43747 0.11952 0.54463 0.0
C2427 C 0.35066 0.16981 0.51354 0.0
C2428 C 0.37831 0.13395 0.52389 0.0
H2429 H 0.40263 0.11673 0.55562 0.0
C2430 C 0.38556 0.12681 0.50733 0.0
C2431 C 0.38498 0.13089 0.54158 0.0
C2432 C 0.37835 0.13913 0.55992 0.0
C2433 C 0.39872 0.11583 0.50791 0.0
C2434 C 0.40458 0.11175 0.52548 0.0
C2435 C 0.39797 0.11971 0.54214 0.0
C2436 C 0.41676 0.09835 0.52678 0.0
C2437 C 0.40611 0.10853 0.48971 0.0
C2438 C 0.41144 0.07892 0.51806 0.0
C2439 C 0.42239 0.06591 0.52013 0.0
C2440 C 0.43887 0.07209 0.53103 0.0
C2441 C 0.44424 0.09161 0.53965 0.0
C2442 C 0.43322 0.10461 0.53763 0.0
H2443 H 0.40419 0.11729 0.47872 0.0
H2444 H 0.42051 0.10867 0.49209 0.0
H2445 H 0.39905 0.09344 0.48416 0.0
H2446 H 0.39865 0.07372 0.50991 0.0
H2447 H 0.41796 0.05101 0.51318 0.0
H2448 H 0.68193 0.5823 0.26513 0.0
H2449 H 0.69794 0.61541 0.26569 0.0
H2450 H 0.74443 0.60299 0.29301 0.0
H2451 H 0.7286 0.56957 0.29172 0.0
H2452 H 0.711 0.645 0.29109 0.0
H2453 H 0.76937 0.62874 0.25507 0.0
H2454 H 0.75024 0.61018 0.25645 0.0
H2455 H 0.767 0.61862 0.27616 0.0
C2456 C 0.69562 0.5865 0.27115 0.0
C2457 C 0.70386 0.57289 0.27825 0.0
C2458 C 0.70487 0.60566 0.27151 0.0
C2459 C 0.72279 0.61219 0.27902 0.0
C2460 C 0.73094 0.59865 0.28647 0.0
H2461 H 0.7972 0.72719 0.29694 0.0
H2462 H 0.78265 0.69361 0.29706 0.0
C2463 C 0.72173 0.57937 0.28591 0.0
C2464 C 0.73252 0.63311 0.27947 0.0
H2465 H 0.77109 0.6615 0.26905 0.0
C2466 C 0.7241 0.64843 0.28612 0.0
C2467 C 0.74977 0.63824 0.27313 0.0
C2468 C 0.75956 0.62309 0.26463 0.0
C2469 C 0.73225 0.66813 0.28683 0.0
C2470 C 0.74946 0.67323 0.28049 0.0
C2471 C 0.75798 0.65798 0.274 0.0
C2472 C 0.75864 0.69411 0.28024 0.0
C2473 C 0.72237 0.68338 0.29487 0.0
C2474 C 0.75046 0.70613 0.27058 0.0
C2475 C 0.75891 0.72544 0.27036 0.0
C2476 C 0.77602 0.73366 0.27967 0.0
C2477 C 0.78424 0.72161 0.28931 0.0
C2478 C 0.7758 0.70223 0.28946 0.0
H2479 H 0.71227 0.67786 0.30419 0.0
H2480 H 0.73163 0.69629 0.30312 0.0
H2481 H 0.71531 0.68786 0.28306 0.0
H2482 H 0.73749 0.70051 0.26293 0.0
H2483 H 0.75195 0.73391 0.26268 0.0
H2484 H 0.90894 0.49176 0.80682 0.0
H2485 H 0.89013 0.45981 0.80487 0.0
H2486 H 0.84333 0.48291 0.79608 0.0
H2487 H 0.86215 0.51515 0.79787 0.0
H2488 H 0.84499 0.45652 0.82628 0.0
H2489 H 0.85985 0.42751 0.75357 0.0
H2490 H 0.87879 0.44105 0.76919 0.0
H2491 H 0.86175 0.453 0.76223 0.0
C2492 C 0.89465 0.49009 0.80448 0.0
C2493 C 0.88698 0.50589 0.80243 0.0
C2494 C 0.88395 0.47185 0.80334 0.0
C2495 C 0.86544 0.46912 0.80021 0.0
C2496 C 0.85764 0.48486 0.79844 0.0
H2497 H 0.79909 0.35245 0.78832 0.0
H2498 H 0.80601 0.38773 0.79163 0.0
C2499 C 0.86838 0.50317 0.79942 0.0
C2500 C 0.85449 0.44964 0.79884 0.0
H2501 H 0.84813 0.40444 0.77247 0.0
C2502 C 0.84525 0.44516 0.81435 0.0
C2503 C 0.85493 0.435 0.78321 0.0
C2504 C 0.86424 0.43933 0.766 0.0
C2505 C 0.83736 0.426 0.81512 0.0
C2506 C 0.83884 0.41125 0.80003 0.0
C2507 C 0.84714 0.4159 0.78404 0.0
C2508 C 0.83368 0.39073 0.80127 0.0
C2509 C 0.82844 0.42139 0.83241 0.0
C2510 C 0.84692 0.38101 0.80594 0.0
C2511 C 0.84305 0.361 0.80408 0.0
C2512 C 0.82584 0.3505 0.79765 0.0
C2513 C 0.81239 0.36031 0.79364 0.0
C2514 C 0.8163 0.38039 0.79549 0.0
H2515 H 0.82738 0.4346 0.84244 0.0
H2516 H 0.8149 0.41242 0.82813 0.0
H2517 H 0.83621 0.41291 0.83983 0.0
H2518 H 0.86044 0.38886 0.81026 0.0
H2519 H 0.85361 0.35367 0.80708 0.0
H2520 H 0.0757 0.85117 0.0768 0.0
H2521 H 0.07204 0.8795 0.06331 0.0
H2522 H 0.08287 0.91477 0.11904 0.0
H2523 H 0.08704 0.88669 0.13245 0.0
H2524 H 0.0489 0.9025 0.06824 0.0
H2525 H 0.11589 0.94776 0.09096 0.0
H2526 H 0.11048 0.92255 0.0926 0.0
H2527 H 0.10459 0.94038 0.11054 0.0
C2528 C 0.07751 0.86501 0.08616 0.0
C2529 C 0.08186 0.8666 0.10572 0.0
C2530 C 0.07534 0.88125 0.07842 0.0
C2531 C 0.07747 0.89956 0.09 0.0
C2532 C 0.08164 0.90108 0.10958 0.0
H2533 H 0.03876 1.00012 0.06296 0.0
H2534 H 0.04175 0.9698 0.07309 0.0
C2535 C 0.08393 0.8849 0.1173 0.0
C2536 C 0.0748 0.91685 0.08172 0.0
H2537 H 0.09419 0.96354 0.07938 0.0
C2538 C 0.05886 0.91581 0.07068 0.0
C2539 C 0.08782 0.9343 0.08451 0.0
C2540 C 0.10572 0.9363 0.09513 0.0
C2541 C 0.05547 0.93161 0.06278 0.0
C2542 C 0.0682 0.94925 0.06614 0.0
C2543 C 0.08427 0.95019 0.07688 0.0
C2544 C 0.06526 0.9668 0.05854 0.0
C2545 C 0.03856 0.92908 0.05026 0.0
C2546 C 0.07742 0.97551 0.04699 0.0
C2547 C 0.07563 0.9928 0.04113 0.0
C2548 C 0.06155 1.00181 0.04651 0.0
C2549 C 0.04935 0.99314 0.058 0.0
C2550 C 0.05108 0.97577 0.06381 0.0
H2551 H 0.03183 0.91367 0.04595 0.0
H2552 H 0.02922 0.9369 0.05789 0.0
H2553 H 0.04154 0.93519 0.03734 0.0
H2554 H 0.08857 0.96912 0.04282 0.0
H2555 H 0.08561 0.9995 0.03286 0.0
H2556 H 0.96007 0.28198 0.92958 0.0
H2557 H 0.93219 0.28516 0.91337 0.0
H2558 H 0.94869 0.26094 0.85988 0.0
H2559 H 0.97671 0.25796 0.87593 0.0
H2560 H 0.93065 0.3065 0.87903 0.0
H2561 H 0.89587 0.22937 0.86568 0.0
H2562 H 0.91308 0.23931 0.88484 0.0
H2563 H 0.91888 0.23494 0.8609 0.0
C2564 C 0.95771 0.27715 0.91438 0.0
C2565 C 0.97063 0.26964 0.90408 0.0
C2566 C 0.94178 0.27905 0.90513 0.0
C2567 C 0.93828 0.27322 0.88541 0.0
C2568 C 0.95102 0.26542 0.87511 0.0
H2569 H 0.84891 0.26546 0.8033 0.0
H2570 H 0.87539 0.26187 0.8213 0.0
C2571 C 0.96704 0.26373 0.88432 0.0
C2572 C 0.92158 0.27579 0.87551 0.0
H2573 H 0.88153 0.25098 0.85274 0.0
C2574 C 0.91984 0.2944 0.87334 0.0
C2575 C 0.90759 0.25998 0.86792 0.0
C2576 C 0.90876 0.23972 0.86996 0.0
C2577 C 0.90469 0.29759 0.86344 0.0
C2578 C 0.89047 0.28179 0.85604 0.0
C2579 C 0.89225 0.26317 0.85838 0.0
C2580 C 0.87397 0.28408 0.84524 0.0
C2581 C 0.9045 0.31782 0.86039 0.0
C2582 C 0.86384 0.29748 0.85266 0.0
C2583 C 0.84887 0.29999 0.84203 0.0
C2584 C 0.84342 0.28891 0.82383 0.0
C2585 C 0.853 0.27479 0.81691 0.0
C2586 C 0.86811 0.27254 0.82736 0.0
H2587 H 0.91819 0.32674 0.86155 0.0
H2588 H 0.8979 0.31777 0.84627 0.0
H2589 H 0.89716 0.32485 0.87145 0.0
H2590 H 0.86751 0.30609 0.86668 0.0
H2591 H 0.84171 0.31079 0.84803 0.0
H2592 H 0.57945 0.25056 0.63374 0.0
H2593 H 0.57648 0.21636 0.62075 0.0
H2594 H 0.57937 0.22935 0.56443 0.0
H2595 H 0.58289 0.26385 0.57751 0.0
H2596 H 0.55123 0.19228 0.59741 0.0
H2597 H 0.61449 0.19473 0.56344 0.0
H2598 H 0.61012 0.21513 0.57946 0.0
H2599 H 0.60087 0.20979 0.55518 0.0
C2600 C 0.57958 0.24621 0.61858 0.0
C2601 C 0.58147 0.26004 0.6067 0.0
C2602 C 0.57786 0.22656 0.61114 0.0
C2603 C 0.57796 0.22009 0.59158 0.0
C2604 C 0.57971 0.23387 0.57961 0.0
H2605 H 0.55278 0.10125 0.52692 0.0
H2606 H 0.5605 0.13667 0.53584 0.0
C2607 C 0.58157 0.25363 0.58709 0.0
C2608 C 0.57545 0.19888 0.58391 0.0
H2609 H 0.59398 0.16457 0.55766 0.0
C2610 C 0.56065 0.1863 0.58877 0.0
C2611 C 0.58765 0.19086 0.57254 0.0
C2612 C 0.60427 0.20328 0.56748 0.0
C2613 C 0.55774 0.16619 0.58267 0.0
C2614 C 0.56997 0.15821 0.57144 0.0
C2615 C 0.58462 0.17068 0.56627 0.0
C2616 C 0.56773 0.13689 0.56538 0.0
C2617 C 0.54149 0.15356 0.58823 0.0
C2618 C 0.56973 0.12521 0.57885 0.0
C2619 C 0.56547 0.10505 0.57374 0.0
C2620 C 0.55942 0.09611 0.55498 0.0
C2621 C 0.55795 0.10777 0.54134 0.0
C2622 C 0.56223 0.12799 0.54647 0.0
H2623 H 0.53161 0.16202 0.59368 0.0
H2624 H 0.53499 0.14235 0.57597 0.0
H2625 H 0.54556 0.1461 0.59954 0.0
H2626 H 0.57396 0.1317 0.59351 0.0
H2627 H 0.56635 0.09639 0.58459 0.0
H2628 H 0.58653 0.79163 0.42367 0.0
H2629 H 0.61261 0.79421 0.40528 0.0
H2630 H 0.57988 0.76046 0.35593 0.0
H2631 H 0.55377 0.7581 0.3741 0.0
H2632 H 0.62894 0.76654 0.38554 0.0
H2633 H 0.60308 0.80836 0.33632 0.0
H2634 H 0.59315 0.80464 0.35794 0.0
H2635 H 0.58818 0.78601 0.33717 0.0
C2636 C 0.58489 0.78475 0.4089 0.0
C2637 C 0.56802 0.77479 0.40032 0.0
C2638 C 0.59983 0.78621 0.39841 0.0
C2639 C 0.59821 0.77784 0.3791 0.0
C2640 C 0.58145 0.76743 0.37067 0.0
H2641 H 0.66497 0.77042 0.28649 0.0
H2642 H 0.64175 0.76684 0.30827 0.0
C2643 C 0.56652 0.76601 0.38112 0.0
C2644 C 0.61393 0.78007 0.36768 0.0
H2645 H 0.6287 0.79614 0.328 0.0
C2646 C 0.62895 0.77313 0.37302 0.0
C2647 C 0.61404 0.78878 0.3514 0.0
C2648 C 0.59883 0.79755 0.34544 0.0
C2649 C 0.64375 0.77402 0.36216 0.0
C2650 C 0.64366 0.78235 0.34565 0.0
C2651 C 0.62877 0.78962 0.34056 0.0
C2652 C 0.65852 0.78326 0.33302 0.0
C2653 C 0.65908 0.76548 0.36814 0.0
C2654 C 0.67589 0.79347 0.33963 0.0
C2655 C 0.6893 0.79552 0.32711 0.0
C2656 C 0.68555 0.7876 0.30769 0.0
C2657 C 0.66829 0.77694 0.30129 0.0
C2658 C 0.65497 0.77484 0.31376 0.0
H2659 H 0.65527 0.75549 0.37817 0.0
H2660 H 0.66413 0.75753 0.35566 0.0
H2661 H 0.6701 0.77728 0.37535 0.0
H2662 H 0.67894 0.80043 0.35433 0.0
H2663 H 0.70239 0.80397 0.33249 0.0
H2664 H 0.11016 0.2895 0.4502 0.0
H2665 H 0.10462 0.26588 0.47113 0.0
H2666 H 0.07129 0.22527 0.42607 0.0
H2667 H 0.07659 0.24894 0.40506 0.0
H2668 H 0.05537 0.23168 0.46023 0.0
H2669 H 0.12241 0.21582 0.47226 0.0
H2670 H 0.12193 0.24105 0.47624 0.0
H2671 H 0.1164 0.22695 0.4528 0.0
C2672 C 0.10188 0.27543 0.44466 0.0
C2673 C 0.09377 0.27104 0.42602 0.0
C2674 C 0.09881 0.26193 0.4566 0.0
C2675 C 0.08772 0.2438 0.45005 0.0
C2676 C 0.07997 0.23919 0.43131 0.0
H2677 H 0.04292 0.14747 0.50189 0.0
H2678 H 0.05039 0.17069 0.48094 0.0
C2679 C 0.08302 0.25269 0.41935 0.0
C2680 C 0.08305 0.23028 0.46322 0.0
H2681 H 0.10058 0.20427 0.49212 0.0
C2682 C 0.06522 0.22558 0.46713 0.0
C2683 C 0.09599 0.22254 0.47228 0.0
C2684 C 0.11524 0.22668 0.4681 0.0
C2685 C 0.05997 0.2135 0.48011 0.0
C2686 C 0.07289 0.20567 0.48912 0.0
C2687 C 0.09074 0.2104 0.48524 0.0
C2688 C 0.06804 0.19196 0.5021 0.0
C2689 C 0.04071 0.20952 0.48429 0.0
C2690 C 0.07573 0.19611 0.52086 0.0
C2691 C 0.07169 0.18271 0.53284 0.0
C2692 C 0.06 0.16491 0.52614 0.0
C2693 C 0.05212 0.16098 0.50741 0.0
C2694 C 0.05621 0.17431 0.49547 0.0
H2695 H 0.03382 0.22083 0.48072 0.0
H2696 H 0.03376 0.19553 0.47559 0.0
H2697 H 0.03946 0.20862 0.49945 0.0
H2698 H 0.08497 0.20965 0.52617 0.0
H2699 H 0.07812 0.18604 0.54711 0.0
H2700 H 0.5643 0.31012 0.21605 0.0
H2701 H 0.59283 0.31037 0.23308 0.0
H2702 H 0.59739 0.25879 0.19486 0.0
H2703 H 0.56928 0.25876 0.17754 0.0
H2704 H 0.60047 0.28326 0.25175 0.0
H2705 H 0.64633 0.29158 0.19554 0.0
H2706 H 0.62405 0.29589 0.19334 0.0
H2707 H 0.62785 0.2717 0.1882 0.0
C2708 C 0.57153 0.29899 0.21118 0.0
C2709 C 0.56463 0.28445 0.19548 0.0
C2710 C 0.5878 0.29916 0.22088 0.0
C2711 C 0.59737 0.28479 0.21502 0.0
C2712 C 0.5905 0.27032 0.1993 0.0
H2713 H 0.67042 0.24065 0.28136 0.0
H2714 H 0.645 0.24705 0.26343 0.0
C2715 C 0.57435 0.27024 0.18952 0.0
C2716 C 0.61382 0.28397 0.22619 0.0
H2717 H 0.65696 0.27973 0.22243 0.0
C2718 C 0.61289 0.28274 0.2454 0.0
C2719 C 0.63006 0.28349 0.21792 0.0
C2720 C 0.63221 0.28594 0.19766 0.0
C2721 C 0.62757 0.28033 0.25641 0.0
C2722 C 0.64346 0.27872 0.24786 0.0
C2723 C 0.64464 0.28068 0.22885 0.0
C2724 C 0.65892 0.27474 0.25841 0.0
C2725 C 0.62594 0.27956 0.27711 0.0
C2726 C 0.67525 0.28796 0.26106 0.0
C2727 C 0.68978 0.28433 0.27126 0.0
C2728 C 0.68823 0.26736 0.27889 0.0
C2729 C 0.67191 0.25401 0.27595 0.0
C2730 C 0.6574 0.25764 0.26571 0.0
H2731 H 0.61497 0.28632 0.28258 0.0
H2732 H 0.62298 0.26427 0.27895 0.0
H2733 H 0.63852 0.28696 0.28581 0.0
H2734 H 0.67667 0.30121 0.25545 0.0
H2735 H 0.70215 0.29496 0.27342 0.0
H2736 H 0.59682 0.86366 0.95051 0.0
H2737 H 0.59336 0.89641 0.96257 0.0
H2738 H 0.6098 0.91383 0.91053 0.0
H2739 H 0.61299 0.88089 0.89815 0.0
H2740 H 0.61506 0.93403 0.96747 0.0
H2741 H 0.55825 0.92177 0.91235 0.0
H2742 H 0.56841 0.90246 0.9176 0.0
H2743 H 0.57945 0.91933 0.90403 0.0
C2744 C 0.60005 0.87454 0.94177 0.0
C2745 C 0.60486 0.86969 0.92327 0.0
C2746 C 0.59811 0.89324 0.94869 0.0
C2747 C 0.60096 0.90734 0.93725 0.0
C2748 C 0.60721 0.90298 0.91939 0.0
H2749 H 0.56405 0.01624 0.96049 0.0
H2750 H 0.57721 0.9899 0.94492 0.0
C2751 C 0.6091 0.88422 0.9124 0.0
C2752 C 0.59554 0.92582 0.94339 0.0
H2753 H 0.56311 0.95033 0.93482 0.0
C2754 C 0.60387 0.93777 0.96022 0.0
C2755 C 0.58089 0.93055 0.93386 0.0
C2756 C 0.5711 0.91784 0.91603 0.0
C2757 C 0.59761 0.95413 0.96807 0.0
C2758 C 0.58249 0.95836 0.95898 0.0
C2759 C 0.57467 0.94693 0.94172 0.0
C2760 C 0.57387 0.9738 0.96782 0.0
C2761 C 0.60708 0.96658 0.98617 0.0
C2762 C 0.56699 0.97293 0.98541 0.0
C2763 C 0.55946 0.98782 0.99424 0.0
C2764 C 0.55859 1.00373 0.98554 0.0
C2765 C 0.56457 1.00408 0.96745 0.0
C2766 C 0.57219 0.98918 0.95864 0.0
H2767 H 0.62108 0.96493 0.98812 0.0
H2768 H 0.60702 0.98205 0.98637 0.0
H2769 H 0.60018 0.96216 0.9984 0.0
H2770 H 0.56762 0.96082 0.99239 0.0
H2771 H 0.5545 0.98698 0.00796 0.0
H2772 H 0.97851 0.75817 0.72705 0.0
H2773 H 0.95051 0.7484 0.74098 0.0
H2774 H 0.92412 0.7779 0.70424 0.0
H2775 H 0.95194 0.78756 0.69014 0.0
H2776 H 0.92716 0.76945 0.75905 0.0
H2777 H 0.89503 0.72195 0.69268 0.0
H2778 H 0.91876 0.73119 0.69659 0.0
H2779 H 0.90427 0.74588 0.68908 0.0
C2780 C 0.96678 0.76278 0.72213 0.0
C2781 C 0.96733 0.7735 0.70742 0.0
C2782 C 0.95082 0.75713 0.73004 0.0
C2783 C 0.93523 0.76202 0.72327 0.0
C2784 C 0.93597 0.77359 0.70931 0.0
H2785 H 0.8293 0.76207 0.7299 0.0
H2786 H 0.85937 0.7593 0.72285 0.0
C2787 C 0.95189 0.77925 0.7014 0.0
C2788 C 0.91803 0.755 0.73054 0.0
H2789 H 0.87541 0.73185 0.71551 0.0
C2790 C 0.9158 0.76109 0.74966 0.0
C2791 C 0.90354 0.74337 0.71838 0.0
C2792 C 0.90555 0.73502 0.69809 0.0
C2793 C 0.89893 0.7576 0.75652 0.0
C2794 C 0.88398 0.74776 0.74377 0.0
C2795 C 0.88671 0.73994 0.72515 0.0
C2796 C 0.86538 0.7481 0.74815 0.0
C2797 C 0.89749 0.76506 0.77716 0.0
C2798 C 0.85839 0.74226 0.76443 0.0
C2799 C 0.84139 0.74476 0.76886 0.0
C2800 C 0.83118 0.75282 0.7569 0.0
C2801 C 0.83746 0.75691 0.73984 0.0
C2802 C 0.85451 0.75495 0.73567 0.0
H2803 H 0.8972 0.75306 0.78512 0.0
H2804 H 0.90901 0.77678 0.78339 0.0
H2805 H 0.88519 0.77054 0.77935 0.0
H2806 H 0.86614 0.73609 0.77384 0.0
H2807 H 0.83625 0.7405 0.78161 0.0
H2808 H 0.12188 1.00542 0.81438 0.0
H2809 H 0.10772 1.00893 0.84438 0.0
H2810 H 0.15782 0.0401 0.87377 0.0
H2811 H 0.1719 0.03673 0.8439 0.0
H2812 H 0.11149 0.9971 0.87796 0.0
H2813 H 0.12794 0.07666 0.89514 0.0
H2814 H 0.13101 0.06358 0.87227 0.0
H2815 H 0.14725 0.06638 0.89206 0.0
C2816 C 0.12995 0.01312 0.82717 0.0
C2817 C 0.14823 0.02084 0.82622 0.0
C2818 C 0.12175 0.01513 0.84457 0.0
C2819 C 0.13131 0.0252 0.86193 0.0
C2820 C 0.14963 0.03272 0.86096 0.0
H2821 H 0.10482 0.05581 0.98228 0.0
H2822 H 0.1189 0.05208 0.95232 0.0
C2823 C 0.15784 0.03062 0.84362 0.0
C2824 C 0.12234 0.02744 0.88082 0.0
H2825 H 0.11614 0.06061 0.91939 0.0
C2826 C 0.1125 0.01108 0.88686 0.0
C2827 C 0.1234 0.04551 0.89311 0.0
C2828 C 0.13281 0.06406 0.88778 0.0
C2829 C 0.10439 0.01213 0.9044 0.0
C2830 C 0.10529 0.03024 0.91665 0.0
C2831 C 0.11513 0.0466 0.91055 0.0
C2832 C 0.09632 0.03254 0.9356 0.0
C2833 C 0.09553 0.99342 0.90986 0.0
C2834 C 0.07852 0.02329 0.9371 0.0
C2835 C 0.07044 0.02524 0.95452 0.0
C2836 C 0.07952 0.03691 0.97144 0.0
C2837 C 0.09715 0.0466 0.9699 0.0
C2838 C 0.10531 0.04446 0.95248 0.0
H2839 H 0.10117 0.98117 0.90298 0.0
H2840 H 0.09701 0.99415 0.92542 0.0
H2841 H 0.08116 0.99023 0.90501 0.0
H2842 H 0.07058 0.01461 0.92465 0.0
H2843 H 0.05683 0.01765 0.95462 0.0
H2844 H 0.83714 0.42449 0.57964 0.0
H2845 H 0.83796 0.40239 0.60198 0.0
H2846 H 0.78327 0.37499 0.58391 0.0
H2847 H 0.78225 0.39714 0.56157 0.0
H2848 H 0.81162 0.39394 0.63192 0.0
H2849 H 0.81613 0.33242 0.57499 0.0
H2850 H 0.82254 0.35723 0.57203 0.0
H2851 H 0.79946 0.34625 0.57148 0.0
C2852 C 0.82524 0.41389 0.58057 0.0
C2853 C 0.80965 0.41243 0.56887 0.0
C2854 C 0.82573 0.40133 0.5933 0.0
C2855 C 0.81073 0.38707 0.59435 0.0
C2856 C 0.79498 0.3859 0.58311 0.0
H2857 H 0.79866 0.31062 0.67659 0.0
H2858 H 0.79255 0.33002 0.65306 0.0
C2859 C 0.79442 0.39857 0.57047 0.0
C2860 C 0.81184 0.37301 0.60678 0.0
H2861 H 0.81656 0.32676 0.60636 0.0
C2862 C 0.81255 0.3792 0.6264 0.0
C2863 C 0.81322 0.35394 0.59936 0.0
C2864 C 0.8129 0.34695 0.57832 0.0
C2865 C 0.8147 0.36669 0.63891 0.0
C2866 C 0.81612 0.34761 0.63149 0.0
C2867 C 0.81534 0.34141 0.61187 0.0
C2868 C 0.81918 0.33421 0.64406 0.0
C2869 C 0.81591 0.37404 0.65998 0.0
C2870 C 0.83601 0.32972 0.64616 0.0
C2871 C 0.83958 0.31877 0.65963 0.0
C2872 C 0.82633 0.31216 0.6711 0.0
C2873 C 0.8092 0.31582 0.66815 0.0
C2874 C 0.80566 0.32682 0.65474 0.0
H2875 H 0.81721 0.38993 0.6634 0.0
H2876 H 0.80371 0.36713 0.66582 0.0
H2877 H 0.82747 0.37017 0.66719 0.0
H2878 H 0.84655 0.33536 0.63794 0.0
H2879 H 0.85293 0.3163 0.66171 0.0
H2880 H 0.47958 0.08461 0.34165 0.0
H2881 H 0.49953 0.08504 0.3695 0.0
H2882 H 0.45784 0.04665 0.39053 0.0
H2883 H 0.43772 0.04672 0.36322 0.0
H2884 H 0.47564 0.07375 0.41824 0.0
H2885 H 0.523 0.0404 0.37497 0.0
H2886 H 0.51983 0.06288 0.36912 0.0
H2887 H 0.50153 0.0424 0.36516 0.0
C2888 C 0.47462 0.07655 0.35241 0.0
C2889 C 0.45719 0.06552 0.35026 0.0
C2890 C 0.48607 0.07663 0.36816 0.0
C2891 C 0.48029 0.06543 0.38173 0.0
C2892 C 0.46259 0.05525 0.38009 0.0
H2893 H 0.53723 0.0209 0.46466 0.0
H2894 H 0.52344 0.02627 0.43489 0.0
C2895 C 0.4511 0.05536 0.36452 0.0
C2896 C 0.49261 0.06389 0.39755 0.0
H2897 H 0.53114 0.0495 0.40802 0.0
C2898 C 0.4878 0.06851 0.41602 0.0
C2899 C 0.50825 0.05662 0.3945 0.0
C2900 C 0.5134 0.05009 0.37487 0.0
C2901 C 0.49817 0.06602 0.4316 0.0
C2902 C 0.51418 0.05951 0.42863 0.0
C2903 C 0.51901 0.05482 0.41018 0.0
C2904 C 0.52564 0.05691 0.44464 0.0
C2905 C 0.4915 0.06976 0.45101 0.0
C2906 C 0.53223 0.07253 0.45939 0.0
C2907 C 0.53961 0.06939 0.47635 0.0
C2908 C 0.54118 0.05075 0.47843 0.0
C2909 C 0.53625 0.0354 0.46311 0.0
C2910 C 0.52839 0.03846 0.44622 0.0
H2911 H 0.47695 0.06927 0.45011 0.0
H2912 H 0.49429 0.05902 0.45959 0.0
H2913 H 0.4983 0.08434 0.45855 0.0
H2914 H 0.53058 0.08692 0.45823 0.0
H2915 H 0.54328 0.08135 0.48817 0.0
H2916 H 0.81067 0.70491 0.08037 0.0
H2917 H 0.80987 0.7215 0.11279 0.0
H2918 H 0.77982 0.75969 0.09217 0.0
H2919 H 0.7806 0.7431 0.05947 0.0
H2920 H 0.82164 0.76283 0.12896 0.0
H2921 H 0.74933 0.73378 0.13183 0.0
H2922 H 0.76214 0.72285 0.1144 0.0
H2923 H 0.75606 0.74526 0.11218 0.0
C2924 C 0.80399 0.71693 0.08268 0.0
C2925 C 0.79564 0.72266 0.06736 0.0
C2926 C 0.80357 0.7264 0.10122 0.0
C2927 C 0.79466 0.7417 0.10489 0.0
C2928 C 0.78662 0.74779 0.08963 0.0
H2929 H 0.80118 0.8033 0.22379 0.0
H2930 H 0.7976 0.7983 0.18888 0.0
C2931 C 0.78715 0.73837 0.07098 0.0
C2932 C 0.79354 0.75074 0.1248 0.0
H2933 H 0.76541 0.75153 0.16006 0.0
C2934 C 0.8093 0.76073 0.13571 0.0
C2935 C 0.77742 0.74779 0.13355 0.0
C2936 C 0.76023 0.73677 0.12251 0.0
C2937 C 0.80947 0.76728 0.15528 0.0
C2938 C 0.79347 0.76378 0.16413 0.0
C2939 C 0.7776 0.75438 0.15314 0.0
C2940 C 0.79356 0.76719 0.18505 0.0
C2941 C 0.82692 0.77692 0.16661 0.0
C2942 C 0.79209 0.75137 0.19432 0.0
C2943 C 0.7942 0.75419 0.21404 0.0
C2944 C 0.79743 0.77286 0.22491 0.0
C2945 C 0.79836 0.78875 0.21569 0.0
C2946 C 0.79642 0.78591 0.19583 0.0
H2947 H 0.83836 0.77744 0.15777 0.0
H2948 H 0.82636 0.7919 0.17312 0.0
H2949 H 0.82927 0.76912 0.17829 0.0
H2950 H 0.78998 0.73684 0.18625 0.0
H2951 H 0.79361 0.74175 0.22085 0.0
H2952 H 0.12841 0.98801 0.71342 0.0
H2953 H 0.11347 0.99103 0.68318 0.0
H2954 H 0.1432 0.0494 0.68943 0.0
H2955 H 0.15883 0.04589 0.71863 0.0
H2956 H 0.09207 1.00775 0.66885 0.0
H2957 H 0.15271 0.03717 0.63751 0.0
H2958 H 0.1538 0.02865 0.65957 0.0
H2959 H 0.15092 0.05293 0.65905 0.0
C2960 C 0.13196 1.00145 0.70827 0.0
C2961 C 0.14528 0.01655 0.71879 0.0
C2962 C 0.12325 1.00326 0.69074 0.0
C2963 C 0.12725 0.02032 0.68286 0.0
C2964 C 0.14007 0.03561 0.69393 0.0
H2965 H 0.05276 0.03485 0.58454 0.0
H2966 H 0.06557 0.03373 0.61639 0.0
C2967 C 0.14901 0.03366 0.71112 0.0
C2968 C 0.11806 0.02227 0.66357 0.0
H2969 H 0.1256 0.0408 0.62267 0.0
C2970 C 0.09959 0.01486 0.65876 0.0
C2971 C 0.1273 0.03117 0.64952 0.0
C2972 C 0.14728 0.03772 0.65157 0.0
C2973 C 0.09046 0.01616 0.6412 0.0
C2974 C 0.09956 0.02597 0.6276 0.0
C2975 C 0.11802 0.03334 0.63249 0.0
C2976 C 0.09095 0.02778 0.60791 0.0
C2977 C 0.07117 1.00613 0.63729 0.0
C2978 C 0.1006 0.02607 0.5917 0.0
C2979 C 0.09353 0.02779 0.5736 0.0
C2980 C 0.07617 0.03106 0.57018 0.0
C2981 C 0.06622 0.03265 0.58619 0.0
C2982 C 0.07359 0.0315 0.60466 0.0
H2983 H 0.0678 0.99452 0.64573 0.0
H2984 H 0.06272 0.01674 0.64137 0.0
H2985 H 0.06784 0.99965 0.62207 0.0
H2986 H 0.11381 0.02306 0.59283 0.0
H2987 H 0.10183 0.02623 0.56196 0.0
H2988 H 0.79719 0.42044 0.45835 0.0
H2989 H 0.79614 0.39676 0.42948 0.0
H2990 H 0.80629 0.35481 0.46289 0.0
H2991 H 0.80797 0.37873 0.49189 0.0
H2992 H 0.82727 0.35628 0.43453 0.0
H2993 H 0.7579 0.35099 0.4064 0.0
H2994 H 0.76995 0.37553 0.41114 0.0
H2995 H 0.76613 0.36248 0.43038 0.0
C2996 C 0.79896 0.40609 0.45955 0.0
C2997 C 0.80258 0.40134 0.4773 0.0
C2998 C 0.79825 0.39255 0.44306 0.0
C2999 C 0.80077 0.37393 0.4441 0.0
C3000 C 0.80418 0.36908 0.46184 0.0
H3001 H 0.78281 0.2917 0.33766 0.0
H3002 H 0.78208 0.30524 0.37105 0.0
C3003 C 0.80512 0.38271 0.47834 0.0
C3004 C 0.80094 0.36 0.42655 0.0
H3005 H 0.77767 0.34054 0.38382 0.0
C3006 C 0.81631 0.35255 0.42355 0.0
C3007 C 0.7865 0.35488 0.41241 0.0
C3008 C 0.76913 0.36123 0.41534 0.0
C3009 C 0.818 0.3409 0.40633 0.0
C3010 C 0.80412 0.33706 0.39167 0.0
C3011 C 0.78839 0.34368 0.39503 0.0
C3012 C 0.80594 0.3273 0.37233 0.0
C3013 C 0.83468 0.33298 0.40399 0.0
C3014 C 0.81972 0.3351 0.36209 0.0
C3015 C 0.82028 0.3273 0.34308 0.0
C3016 C 0.80684 0.31182 0.33392 0.0
C3017 C 0.79329 0.30373 0.34432 0.0
C3018 C 0.79287 0.3114 0.36339 0.0
H3019 H 0.84075 0.3314 0.41786 0.0
H3020 H 0.83194 0.31874 0.39437 0.0
H3021 H 0.84458 0.34316 0.39791 0.0
H3022 H 0.82966 0.34771 0.36857 0.0
H3023 H 0.83081 0.33393 0.33539 0.0
H3024 H 0.45871 0.01741 0.25151 0.0
H3025 H 0.47818 0.01504 0.22589 0.0
H3026 H 0.48786 0.07674 0.22942 0.0
H3027 H 0.46843 0.0793 0.25534 0.0
H3028 H 0.47364 0.02771 0.19076 0.0
H3029 H 0.53826 0.06415 0.23178 0.0
H3030 H 0.51876 0.05508 0.2431 0.0
H3031 H 0.52036 0.07692 0.23377 0.0
C3032 C 0.46504 0.0305 0.24692 0.0
C3033 C 0.46212 0.04855 0.25542 0.0
C3034 C 0.47614 0.02911 0.23229 0.0
C3035 C 0.48455 0.04572 0.22596 0.0
C3036 C 0.48167 0.06381 0.23436 0.0
H3037 H 0.55269 0.05276 0.1332 0.0
H3038 H 0.53656 0.06101 0.16089 0.0
C3039 C 0.47055 0.06523 0.24907 0.0
C3040 C 0.49587 0.04379 0.21013 0.0
H3041 H 0.53897 0.05264 0.19914 0.0
C3042 C 0.48791 0.03321 0.19254 0.0
C3043 C 0.51443 0.05115 0.21257 0.0
C3044 C 0.52357 0.06237 0.23133 0.0
C3045 C 0.49811 0.02948 0.17733 0.0
C3046 C 0.51676 0.0362 0.17996 0.0
C3047 C 0.52467 0.04735 0.19734 0.0
C3048 C 0.52819 0.0315 0.16478 0.0
C3049 C 0.48886 0.01838 0.15856 0.0
C3050 C 0.52934 0.01228 0.1584 0.0
C3051 C 0.53853 1.00754 0.14265 0.0
C3052 C 0.54667 0.02197 0.13309 0.0
C3053 C 0.54638 0.04135 0.14024 0.0
C3054 C 0.53722 0.04609 0.15602 0.0
H3055 H 0.4744 0.01839 0.15756 0.0
H3056 H 0.49483 0.02452 0.14661 0.0
H3057 H 0.49038 1.00317 0.15695 0.0
H3058 H 0.5226 1.00089 0.16521 0.0
H3059 H 0.53842 0.99249 0.13735 0.0
H3060 H 0.79006 0.67889 0.94471 0.0
H3061 H 0.79125 0.6888 0.91385 0.0
H3062 H 0.80202 0.74852 0.94131 0.0
H3063 H 0.80134 0.73866 0.97236 0.0
H3064 H 0.77062 0.70861 0.89746 0.0
H3065 H 0.84062 0.74894 0.90549 0.0
H3066 H 0.83192 0.73357 0.92172 0.0
H3067 H 0.82774 0.75757 0.92388 0.0
C3068 C 0.79281 0.69415 0.9442 0.0
C3069 C 0.79569 0.70801 0.96098 0.0
C3070 C 0.79347 0.69979 0.92653 0.0
C3071 C 0.79698 0.7194 0.92522 0.0
C3072 C 0.79973 0.73331 0.94195 0.0
H3073 H 0.79565 0.78205 0.83288 0.0
H3074 H 0.79634 0.77139 0.86341 0.0
C3075 C 0.79922 0.72766 0.95969 0.0
C3076 C 0.79715 0.72515 0.90628 0.0
H3077 H 0.82255 0.75197 0.87869 0.0
C3078 C 0.78203 0.71798 0.89332 0.0
C3079 C 0.81206 0.73733 0.90083 0.0
C3080 C 0.82907 0.74465 0.91363 0.0
C3081 C 0.78128 0.72298 0.87526 0.0
C3082 C 0.79608 0.73536 0.86997 0.0
C3083 C 0.81122 0.74248 0.88283 0.0
C3084 C 0.79588 0.74163 0.85135 0.0
C3085 C 0.76452 0.71536 0.86211 0.0
C3086 C 0.79552 0.72845 0.83444 0.0
C3087 C 0.79548 0.73466 0.81697 0.0
C3088 C 0.79587 0.75412 0.81622 0.0
C3089 C 0.79606 0.76718 0.83313 0.0
C3090 C 0.79621 0.76103 0.85055 0.0
H3091 H 0.75321 0.70886 0.86954 0.0
H3092 H 0.7607 0.72707 0.85556 0.0
H3093 H 0.76695 0.70411 0.85053 0.0
H3094 H 0.79545 0.71343 0.83478 0.0
H3095 H 0.79552 0.72437 0.80414 0.0
H3096 H 0.83658 0.10428 0.99279 0.0
H3097 H 0.86393 0.09213 0.99026 0.0
H3098 H 0.86643 0.08956 0.04985 0.0
H3099 H 0.83911 0.10222 0.05261 0.0
H3100 H 0.89823 0.10741 0.03901 0.0
H3101 H 0.87218 0.03829 0.99016 0.0
H3102 H 0.86619 0.05813 0.98106 0.0
H3103 H 0.85779 0.0521 1.00269 0.0
C3104 C 0.84277 0.10083 1.00531 0.0
C3105 C 0.83567 0.10408 0.02288 0.0
C3106 C 0.85837 0.09382 1.00382 0.0
C3107 C 0.86704 0.08965 0.0198 0.0
C3108 C 0.85985 0.09258 0.03734 0.0
H3109 H 0.9564 0.03452 0.99559 0.0
H3110 H 0.93013 0.04215 0.01001 0.0
C3111 C 0.84423 0.09971 0.03887 0.0
C3112 C 0.88412 0.0833 0.01817 0.0
H3113 H 0.90369 0.051 0.99117 0.0
C3114 C 0.89943 0.09488 0.02881 0.0
C3115 C 0.8856 0.06677 1.00511 0.0
C3116 C 0.86952 0.05301 0.99427 0.0
C3117 C 0.91635 0.09096 0.02589 0.0
C3118 C 0.91793 0.07532 0.01171 0.0
C3119 C 0.90251 0.06314 1.00189 0.0
C3120 C 0.93536 0.07181 1.00592 0.0
C3121 C 0.93232 0.1037 0.0379 0.0
C3122 C 0.94724 0.08607 0.99916 0.0
C3123 C 0.96248 0.08185 0.99114 0.0
C3124 C 0.96597 0.06319 0.98949 0.0
C3125 C 0.9543 0.04912 0.99684 0.0
C3126 C 0.93919 0.05341 1.005 0.0
H3127 H 0.92858 0.11025 0.05185 0.0
H3128 H 0.94282 0.09555 0.04032 0.0
H3129 H 0.93794 0.11564 0.03057 0.0
H3130 H 0.94438 0.10026 0.99933 0.0
H3131 H 0.9713 0.09308 0.98585 0.0
H3132 H 0.35356 0.45803 0.05169 0.0
H3133 H 0.3842 0.47579 0.05211 0.0
H3134 H 0.40276 0.42248 0.04672 0.0
H3135 H 0.37212 0.40458 0.04644 0.0
H3136 H 0.4238 0.45405 0.07403 0.0
H3137 H 0.41135 0.47373 1.00369 0.0
H3138 H 0.39623 0.47981 0.02083 0.0
H3139 H 0.39645 0.45492 0.01219 0.0
C3140 C 0.36417 0.45009 0.05072 0.0
C3141 C 0.36044 0.42989 0.0489 0.0
C3142 C 0.38165 0.46025 0.0509 0.0
C3143 C 0.39568 0.4504 0.04919 0.0
C3144 C 0.39208 0.43032 0.048 0.0
H3145 H 0.49921 0.48979 0.01302 0.0
H3146 H 0.46952 0.47279 0.01745 0.0
C3147 C 0.37459 0.42012 0.04781 0.0
C3148 C 0.41403 0.46099 0.04798 0.0
H3149 H 0.4395 0.48739 0.02024 0.0
C3150 C 0.42728 0.46137 0.0623 0.0
C3151 C 0.41851 0.4703 0.03254 0.0
C3152 C 0.40496 0.4696 0.01632 0.0
C3153 C 0.44495 0.47096 0.06163 0.0
C3154 C 0.44935 0.4806 0.04635 0.0
C3155 C 0.43607 0.48012 0.03202 0.0
C3156 C 0.46777 0.49061 0.04443 0.0
C3157 C 0.4588 0.47029 0.07701 0.0
C3158 C 0.47673 0.50628 0.05818 0.0
C3159 C 0.49387 0.51599 0.05578 0.0
C3160 C 0.50222 0.51039 0.03942 0.0
C3161 C 0.49322 0.49459 0.02577 0.0
C3162 C 0.47619 0.48484 0.02825 0.0
H3163 H 0.45425 0.45847 0.08493 0.0
H3164 H 0.47146 0.46829 0.07103 0.0
H3165 H 0.46152 0.48413 0.08725 0.0
H3166 H 0.47038 0.5112 0.07063 0.0
H3167 H 0.50048 0.52794 0.06668 0.0
H3168 H 0.42741 0.64382 0.79371 0.0
H3169 H 0.41214 0.67079 0.79321 0.0
H3170 H 0.36563 0.63114 0.76415 0.0
H3171 H 0.38075 0.60422 0.76502 0.0
H3172 H 0.39999 0.68897 0.76928 0.0
H3173 H 0.33912 0.65909 0.8004 0.0
H3174 H 0.35808 0.64779 0.7997 0.0
H3175 H 0.34226 0.64344 0.77922 0.0
C3176 C 0.41387 0.64068 0.7873 0.0
C3177 C 0.40557 0.62128 0.77955 0.0
C3178 C 0.40497 0.65639 0.78696 0.0
C3179 C 0.38715 0.65373 0.77901 0.0
C3180 C 0.37897 0.63431 0.77105 0.0
H3181 H 0.3436 0.75088 0.74339 0.0
H3182 H 0.35701 0.72329 0.74614 0.0
C3183 C 0.38786 0.61862 0.77138 0.0
C3184 C 0.37757 0.67105 0.7786 0.0
H3185 H 0.33818 0.68673 0.78638 0.0
C3186 C 0.38647 0.68823 0.7731 0.0
C3187 C 0.35986 0.6712 0.78382 0.0
C3188 C 0.34932 0.6545 0.79131 0.0
C3189 C 0.37846 0.70456 0.77225 0.0
C3190 C 0.36049 0.70438 0.77664 0.0
C3191 C 0.35172 0.68743 0.78264 0.0
C3192 C 0.35081 0.72133 0.77484 0.0
C3193 C 0.38981 0.72223 0.76707 0.0
C3194 C 0.34152 0.72986 0.78952 0.0
C3195 C 0.33344 0.74602 0.78785 0.0
C3196 C 0.33391 0.75428 0.77123 0.0
C3197 C 0.34273 0.74534 0.7565 0.0
C3198 C 0.35075 0.72938 0.75816 0.0
H3199 H 0.40419 0.72288 0.77047 0.0
H3200 H 0.38764 0.72169 0.75158 0.0
H3201 H 0.38643 0.73567 0.7746 0.0
H3202 H 0.34088 0.72434 0.80264 0.0
H3203 H 0.32711 0.75226 0.79977 0.0
H3204 H 0.23684 0.61595 0.49105 0.0
H3205 H 0.2046 0.60718 0.49228 0.0
H3206 H 0.21211 0.60805 0.55234 0.0
H3207 H 0.24436 0.61655 0.55121 0.0
H3208 H 0.1855 0.57761 0.53326 0.0
H3209 H 0.17734 0.64791 0.51583 0.0
H3210 H 0.18854 0.63433 0.49884 0.0
H3211 H 0.19874 0.64315 0.52259 0.0
C3212 C 0.23163 0.61392 0.50445 0.0
C3213 C 0.24306 0.61712 0.52108 0.0
C3214 C 0.21324 0.60909 0.50515 0.0
C3215 C 0.20606 0.60753 0.52249 0.0
C3216 C 0.21746 0.60944 0.53887 0.0
H3217 H 0.09511 0.61427 0.53787 0.0
H3218 H 0.12787 0.62079 0.54138 0.0
C3219 C 0.23585 0.61422 0.53818 0.0
C3220 C 0.18666 0.60458 0.52369 0.0
H3221 H 0.15083 0.62462 0.51618 0.0
C3222 C 0.1779 0.58791 0.52963 0.0
C3223 C 0.17691 0.61829 0.51936 0.0
C3224 C 0.18586 0.63703 0.51397 0.0
C3225 C 0.15947 0.58424 0.53079 0.0
C3226 C 0.14951 0.59747 0.52555 0.0
C3227 C 0.15841 0.61445 0.52016 0.0
C3228 C 0.1298 0.59344 0.52445 0.0
C3229 C 0.151 0.56625 0.53774 0.0
C3230 C 0.12008 0.57617 0.51355 0.0
C3231 C 0.1016 0.57234 0.51199 0.0
C3232 C 0.09237 0.58577 0.52106 0.0
C3233 C 0.10199 0.60348 0.53123 0.0
C3234 C 0.12063 0.60719 0.53317 0.0
H3235 H 0.16021 0.56247 0.54824 0.0
H3236 H 0.13865 0.56804 0.54433 0.0
H3237 H 0.14773 0.55399 0.52561 0.0
H3238 H 0.12679 0.56577 0.50589 0.0
H3239 H 0.09462 0.5592 0.50293 0.0
H3240 H 0.74732 1.00898 0.72571 0.0
H3241 H 0.76932 0.98879 0.7278 0.0
H3242 H 0.73994 0.96139 0.76886 0.0
H3243 H 0.71796 0.98149 0.76692 0.0
H3244 H 0.78913 0.98873 0.76369 0.0
H3245 H 0.75062 0.91636 0.72919 0.0
H3246 H 0.74457 0.93848 0.72511 0.0
H3247 H 0.73927 0.92948 0.74642 0.0
C3248 C 0.74542 0.99842 0.73494 0.0
C3249 C 0.73101 0.99678 0.74622 0.0
C3250 C 0.75798 0.98698 0.73613 0.0
C3251 C 0.75611 0.97362 0.74839 0.0
C3252 C 0.74142 0.97151 0.75916 0.0
H3253 H 0.82146 0.91854 0.80867 0.0
H3254 H 0.80671 0.94237 0.79751 0.0
C3255 C 0.72894 0.98302 0.75809 0.0
C3256 C 0.77014 0.96286 0.75111 0.0
H3257 H 0.77724 0.91727 0.74822 0.0
C3258 C 0.7867 0.97312 0.76005 0.0
C3259 C 0.76683 0.94258 0.74623 0.0
C3260 C 0.74941 0.93104 0.73605 0.0
C3261 C 0.79988 0.96345 0.76504 0.0
C3262 C 0.79624 0.94311 0.76101 0.0
C3263 C 0.77995 0.93292 0.7513 0.0
C3264 C 0.80853 0.93185 0.76777 0.0
C3265 C 0.81743 0.97501 0.77485 0.0
C3266 C 0.81479 0.91848 0.75474 0.0
C3267 C 0.82315 0.9049 0.76108 0.0
C3268 C 0.82524 0.90446 0.78052 0.0
C3269 C 0.82018 0.91877 0.79363 0.0
C3270 C 0.81177 0.93235 0.78727 0.0
H3271 H 0.81997 0.99006 0.77221 0.0
H3272 H 0.81718 0.97559 0.79036 0.0
H3273 H 0.82859 0.96822 0.77009 0.0
H3274 H 0.81234 0.91788 0.73965 0.0
H3275 H 0.82705 0.89403 0.75074 0.0
H3276 H 0.77918 0.95137 0.55009 0.0
H3277 H 0.75502 0.96875 0.54824 0.0
H3278 H 0.7189 0.91569 0.52277 0.0
H3279 H 0.7431 0.89815 0.52449 0.0
H3280 H 0.7182 0.9468 0.50337 0.0
H3281 H 0.71208 0.96842 0.58008 0.0
H3282 H 0.73442 0.97429 0.5735 0.0
H3283 H 0.72328 0.94943 0.57087 0.0
C3284 C 0.76606 0.94335 0.54425 0.0
C3285 C 0.76304 0.92338 0.53747 0.0
C3286 C 0.75224 0.9533 0.5433 0.0
C3287 C 0.7351 0.94348 0.53562 0.0
C3288 C 0.73201 0.92352 0.52887 0.0
H3289 H 0.64281 0.99213 0.5065 0.0
H3290 H 0.66169 0.96932 0.51108 0.0
C3291 C 0.74583 0.91353 0.52988 0.0
C3292 C 0.72072 0.95431 0.53378 0.0
H3293 H 0.69796 0.98462 0.55924 0.0
C3294 C 0.71359 0.9549 0.51557 0.0
C3295 C 0.71475 0.96485 0.54973 0.0
C3296 C 0.72139 0.96412 0.56967 0.0
C3297 C 0.70126 0.96647 0.51281 0.0
C3298 C 0.69557 0.97741 0.52876 0.0
C3299 C 0.70233 0.97632 0.54701 0.0
C3300 C 0.68345 0.9909 0.52684 0.0
C3301 C 0.69509 0.96752 0.49279 0.0
C3302 C 0.68899 0.01051 0.5349 0.0
C3303 C 0.67806 0.02354 0.53272 0.0
C3304 C 0.66129 0.01731 0.52232 0.0
C3305 C 0.65557 0.99752 0.51466 0.0
C3306 C 0.66648 0.98446 0.51703 0.0
H3307 H 0.70408 0.96233 0.48242 0.0
H3308 H 0.68164 0.95823 0.48893 0.0
H3309 H 0.69432 0.9825 0.49146 0.0
H3310 H 0.70195 0.01584 0.5427 0.0
H3311 H 0.68279 0.03852 0.53925 0.0
H3312 H 0.42266 0.49953 0.76876 0.0
H3313 H 0.4061 0.46682 0.76929 0.0
H3314 H 0.36108 0.48989 0.78794 0.0
H3315 H 0.37753 0.52261 0.78705 0.0
H3316 H 0.39305 0.4488 0.79623 0.0
H3317 H 0.33506 0.44779 0.74702 0.0
H3318 H 0.35475 0.46673 0.75014 0.0
H3319 H 0.33825 0.46715 0.76699 0.0
C3320 C 0.40917 0.49771 0.77282 0.0
C3321 C 0.40154 0.51403 0.7777 0.0
C3322 C 0.39962 0.47881 0.77318 0.0
C3323 C 0.38196 0.47531 0.77832 0.0
C3324 C 0.37437 0.49166 0.78336 0.0
H3325 H 0.30535 0.36802 0.79086 0.0
H3326 H 0.32021 0.40147 0.79054 0.0
C3327 C 0.38393 0.51059 0.78298 0.0
C3328 C 0.3719 0.45478 0.77891 0.0
H3329 H 0.33294 0.42147 0.76339 0.0
C3330 C 0.37994 0.44292 0.78892 0.0
C3331 C 0.35461 0.44659 0.76958 0.0
C3332 C 0.34521 0.45763 0.75767 0.0
C3333 C 0.37137 0.42377 0.79008 0.0
C3334 C 0.35416 0.41552 0.78062 0.0
C3335 C 0.34603 0.42741 0.77074 0.0
C3336 C 0.34466 0.39465 0.78052 0.0
C3337 C 0.38079 0.41274 0.80198 0.0
C3338 C 0.35293 0.37904 0.7747 0.0
C3339 C 0.34433 0.35976 0.77475 0.0
C3340 C 0.32692 0.35505 0.78044 0.0
C3341 C 0.31852 0.37065 0.78607 0.0
C3342 C 0.32717 0.39002 0.78599 0.0
H3343 H 0.39062 0.42262 0.81293 0.0
H3344 H 0.37123 0.40326 0.80916 0.0
H3345 H 0.38814 0.40362 0.79274 0.0
H3346 H 0.36612 0.3817 0.76986 0.0
H3347 H 0.35142 0.34845 0.77012 0.0
H3348 H 0.2476 0.58297 0.2648 0.0
H3349 H 0.26051 0.6176 0.27357 0.0
H3350 H 0.2105 0.63051 0.25569 0.0
H3351 H 0.19764 0.5961 0.24662 0.0
H3352 H 0.23977 0.65203 0.24267 0.0
H3353 H 0.24963 0.65398 0.32011 0.0
H3354 H 0.25955 0.63672 0.30563 0.0
H3355 H 0.23576 0.63382 0.30416 0.0
C3356 C 0.23942 0.59322 0.26265 0.0
C3357 C 0.22163 0.58687 0.25507 0.0
C3358 C 0.24675 0.61295 0.26782 0.0
C3359 C 0.23632 0.62654 0.26561 0.0
C3360 C 0.2187 0.62021 0.25762 0.0
H3361 H 0.26062 0.7526 0.27816 0.0
H3362 H 0.24527 0.71877 0.2713 0.0
C3363 C 0.21141 0.60056 0.2524 0.0
C3364 C 0.24378 0.64742 0.27121 0.0
H3365 H 0.26084 0.68271 0.30915 0.0
C3366 C 0.24449 0.65882 0.25719 0.0
C3367 C 0.24966 0.65612 0.29018 0.0
C3368 C 0.2485 0.6446 0.30595 0.0
C3369 C 0.25145 0.67872 0.26142 0.0
C3370 C 0.25761 0.68759 0.28045 0.0
C3371 C 0.25648 0.67607 0.29454 0.0
C3372 C 0.26579 0.70852 0.28611 0.0
C3373 C 0.25217 0.68957 0.24516 0.0
C3374 C 0.28148 0.7145 0.29843 0.0
C3375 C 0.28942 0.73403 0.30362 0.0
C3376 C 0.28258 0.74774 0.29549 0.0
C3377 C 0.26663 0.74202 0.28375 0.0
C3378 C 0.25796 0.72267 0.27969 0.0
H3379 H 0.25414 0.68032 0.23174 0.0
H3380 H 0.23929 0.69401 0.24302 0.0
H3381 H 0.26292 0.70258 0.24778 0.0
H3382 H 0.28774 0.70408 0.30396 0.0
H3383 H 0.30127 0.73836 0.31344 0.0
H3384 H 0.5311 0.73971 0.48441 0.0
H3385 H 0.5354 0.71141 0.49776 0.0
H3386 H 0.5245 0.67625 0.44203 0.0
H3387 H 0.52 0.70432 0.42866 0.0
H3388 H 0.51038 0.67276 0.49429 0.0
H3389 H 0.57434 0.6685 0.46325 0.0
H3390 H 0.5655 0.69021 0.4662 0.0
H3391 H 0.55643 0.67057 0.44713 0.0
C3392 C 0.52953 0.72593 0.475 0.0
C3393 C 0.5252 0.72438 0.45541 0.0
C3394 C 0.53199 0.70973 0.48267 0.0
C3395 C 0.53046 0.69163 0.47093 0.0
C3396 C 0.52595 0.69002 0.45142 0.0
H3397 H 0.54513 0.57688 0.47633 0.0
H3398 H 0.54202 0.60799 0.46893 0.0
C3399 C 0.5233 0.70613 0.44378 0.0
C3400 C 0.53367 0.67444 0.4789 0.0
H3401 H 0.56133 0.64237 0.47746 0.0
C3402 C 0.52159 0.66617 0.49074 0.0
C3403 C 0.54829 0.66579 0.47434 0.0
C3404 C 0.56201 0.67424 0.46216 0.0
C3405 C 0.52326 0.64909 0.49739 0.0
C3406 C 0.53778 0.64021 0.49258 0.0
C3407 C 0.55015 0.64893 0.48121 0.0
C3408 C 0.53975 0.6212 0.49782 0.0
C3409 C 0.50894 0.64029 0.50874 0.0
C3410 C 0.53964 0.61786 0.51665 0.0
C3411 C 0.54125 0.59975 0.52091 0.0
C3412 C 0.5435 0.58475 0.50651 0.0
C3413 C 0.54367 0.58818 0.48781 0.0
C3414 C 0.54192 0.60607 0.48355 0.0
H3415 H 0.49656 0.64578 0.50685 0.0
H3416 H 0.50567 0.62433 0.50466 0.0
H3417 H 0.5137 0.64412 0.52401 0.0
H3418 H 0.53844 0.62926 0.52811 0.0
H3419 H 0.5407 0.59747 0.5354 0.0
H3420 H 0.62899 0.33886 0.68927 0.0
H3421 H 0.65602 0.33792 0.70835 0.0
H3422 H 0.67538 0.30832 0.659 0.0
H3423 H 0.64866 0.30986 0.63977 0.0
H3424 H 0.66849 0.30875 0.71722 0.0
H3425 H 0.71904 0.34823 0.67807 0.0
H3426 H 0.69561 0.34752 0.6737 0.0
H3427 H 0.7051 0.32772 0.66307 0.0
C3428 C 0.63913 0.33242 0.68241 0.0
C3429 C 0.63669 0.32463 0.66291 0.0
C3430 C 0.6546 0.33181 0.69338 0.0
C3431 C 0.66806 0.32335 0.68518 0.0
C3432 C 0.66558 0.31548 0.66569 0.0
H3433 H 0.76423 0.29288 0.73089 0.0
H3434 H 0.73857 0.29638 0.71116 0.0
C3435 C 0.65019 0.31627 0.65467 0.0
C3436 C 0.68423 0.32204 0.6972 0.0
H3437 H 0.72985 0.33147 0.70068 0.0
C3438 C 0.68188 0.31389 0.71363 0.0
C3439 C 0.70185 0.32869 0.69267 0.0
C3440 C 0.70558 0.3387 0.67603 0.0
C3441 C 0.69647 0.31192 0.72532 0.0
C3442 C 0.71401 0.31833 0.72063 0.0
C3443 C 0.71642 0.32646 0.70426 0.0
C3444 C 0.72999 0.31671 0.73259 0.0
C3445 C 0.69301 0.30262 0.74246 0.0
C3446 C 0.73408 0.32732 0.75111 0.0
C3447 C 0.74888 0.3255 0.76242 0.0
C3448 C 0.7599 0.31282 0.7556 0.0
C3449 C 0.75602 0.30261 0.73682 0.0
C3450 C 0.74131 0.30459 0.72546 0.0
H3451 H 0.67894 0.29493 0.74202 0.0
H3452 H 0.70179 0.29224 0.74361 0.0
H3453 H 0.69598 0.31392 0.75543 0.0
H3454 H 0.72582 0.3371 0.75684 0.0
H3455 H 0.75168 0.3341 0.7765 0.0
H3456 H 0.02481 0.32417 0.98748 0.0
H3457 H 0.02674 0.35794 1.00247 0.0
H3458 H 0.03196 0.37518 0.94808 0.0
H3459 H 0.02991 0.3416 0.93306 0.0
H3460 H 0.05403 0.39019 1.00327 0.0
H3461 H 0.99193 0.4007 0.96778 0.0
H3462 H 0.99673 0.37711 0.96781 0.0
H3463 H 0.00667 0.39175 0.95163 0.0
C3464 C 0.02633 0.33516 0.97872 0.0
C3465 C 0.02714 0.33012 0.95904 0.0
C3466 C 0.02742 0.35448 0.98731 0.0
C3467 C 0.02916 0.36916 0.9764 0.0
C3468 C 0.03019 0.36415 0.95679 0.0
H3469 H 0.0466 0.49394 0.99485 0.0
H3470 H 0.03959 0.45913 0.98229 0.0
C3471 C 0.02915 0.3449 0.94822 0.0
C3472 C 0.03053 0.38978 0.98551 0.0
H3473 H 0.01179 0.42908 0.98434 0.0
C3474 C 0.04468 0.39863 0.99927 0.0
C3475 C 0.01839 0.4009 0.98028 0.0
C3476 C 1.00247 0.39212 0.9662 0.0
C3477 C 0.04738 0.41834 0.00744 0.0
C3478 C 0.03535 0.42953 1.00207 0.0
C3479 C 0.02103 0.42059 0.98851 0.0
C3480 C 0.03786 0.45066 0.00977 0.0
C3481 C 0.06355 0.42716 0.02119 0.0
C3482 C 0.0387 0.45764 0.02937 0.0
C3483 C 0.04275 0.47755 0.03653 0.0
C3484 C 0.04545 0.49088 0.02421 0.0
C3485 C 0.04407 0.48395 1.00461 0.0
C3486 C 0.04016 0.46406 0.99745 0.0
H3487 H 0.07373 0.41809 0.02005 0.0
H3488 H 0.06975 0.44176 0.01878 0.0
H3489 H 0.0595 0.42853 0.03587 0.0
H3490 H 0.03663 0.44769 0.03919 0.0
H3491 H 0.04407 0.48254 0.05172 0.0
H3492 H 0.01893 0.80379 0.133 0.0
H3493 H 0.99165 0.80112 0.14943 0.0
H3494 H 0.02294 0.82373 0.20287 0.0
H3495 H 0.05019 0.82663 0.18655 0.0
H3496 H 0.98171 0.77969 0.17743 0.0
H3497 H 0.98588 0.85737 0.20457 0.0
H3498 H 0.99907 0.84889 0.1862 0.0
H3499 H 1.0057 0.84928 0.21066 0.0
C3500 C 0.01998 0.80835 0.14824 0.0
C3501 C 0.03674 0.81553 0.15846 0.0
C3502 C 1.00437 0.80678 0.15761 0.0
C3503 C 1.00518 0.81251 0.17737 0.0
C3504 C 0.02191 0.81963 0.18759 0.0
H3505 H 0.93666 0.80894 0.26757 0.0
H3506 H 0.96037 0.81413 0.24659 0.0
C3507 C 0.03751 0.82117 0.17824 0.0
C3508 C 0.98864 0.81036 0.18744 0.0
H3509 H 0.96518 0.83526 0.21812 0.0
C3510 C 0.97796 0.79186 0.18615 0.0
C3511 C 0.98371 0.82624 0.1988 0.0
C3512 C 0.99408 0.84659 0.20003 0.0
C3513 C 0.96298 0.78871 0.19654 0.0
C3514 C 0.95831 0.80454 0.20828 0.0
C3515 C 0.96873 0.8231 0.20916 0.0
C3516 C 0.9434 0.80202 0.22071 0.0
C3517 C 0.95275 0.76832 0.19547 0.0
C3518 C 0.92578 0.79388 0.21319 0.0
C3519 C 0.91212 0.79073 0.22523 0.0
C3520 C 0.91581 0.7957 0.24505 0.0
C3521 C 0.93336 0.80454 0.25242 0.0
C3522 C 0.94695 0.80765 0.24042 0.0
H3523 H 0.96037 0.7575 0.18934 0.0
H3524 H 0.9493 0.76564 0.20973 0.0
H3525 H 0.94018 0.76606 0.1863 0.0
H3526 H 0.9226 0.78979 0.19801 0.0
H3527 H 0.89879 0.7839 0.21904 0.0
H3528 H 0.52671 0.34328 0.14738 0.0
H3529 H 0.53307 0.36378 0.1235 0.0
H3530 H 0.53733 0.3141 0.08242 0.0
H3531 H 0.53108 0.29356 0.10615 0.0
H3532 H 0.56543 0.34773 0.08443 0.0
H3533 H 0.4975 0.36305 0.07735 0.0
H3534 H 0.50805 0.36765 0.10107 0.0
H3535 H 0.50218 0.34337 0.08806 0.0
C3536 C 0.52905 0.33676 0.13327 0.0
C3537 C 0.52834 0.31684 0.12857 0.0
C3538 C 0.5326 0.34845 0.11966 0.0
C3539 C 0.53545 0.34034 0.10121 0.0
C3540 C 0.53509 0.32055 0.0966 0.0
H3541 H 0.5325 0.39318 1.00134 0.0
H3542 H 0.52925 0.36998 0.02302 0.0
C3543 C 0.5315 0.30887 0.11015 0.0
C3544 C 0.53877 0.35243 0.08659 0.0
H3545 H 0.5193 0.37942 0.06042 0.0
C3546 C 0.55537 0.35465 0.07912 0.0
C3547 C 0.52549 0.36118 0.07963 0.0
C3548 C 0.50723 0.35863 0.08679 0.0
C3549 C 0.55915 0.36573 0.06497 0.0
C3550 C 0.54601 0.37482 0.05829 0.0
C3551 C 0.52932 0.37236 0.06559 0.0
C3552 C 0.54946 0.38761 0.04426 0.0
C3553 C 0.57711 0.3675 0.05718 0.0
C3554 C 0.56209 0.40496 0.04897 0.0
C3555 C 0.56399 0.41812 0.03665 0.0
C3556 C 0.55323 0.41418 0.01946 0.0
C3557 C 0.54109 0.39645 0.01441 0.0
C3558 C 0.53914 0.38329 0.0268 0.0
H3559 H 0.58384 0.35584 0.06014 0.0
H3560 H 0.57588 0.36708 0.04165 0.0
H3561 H 0.58571 0.38153 0.06396 0.0
H3562 H 0.56998 0.40866 0.06251 0.0
H3563 H 0.5735 0.43167 0.04083 0.0
H3564 H 0.06326 0.32839 0.34179 0.0
H3565 H 0.03639 0.33377 0.32584 0.0
H3566 H 1.00482 0.3079 0.36634 0.0
H3567 H 0.03183 0.30305 0.3828 0.0
H3568 H 0.0067 0.30963 0.30876 0.0
H3569 H 0.99026 0.35928 0.36995 0.0
H3570 H 0.01128 0.35176 0.3694 0.0
H3571 H 0.99186 0.33613 0.37523 0.0
C3572 C 0.05059 0.32377 0.34727 0.0
C3573 C 0.0496 0.31542 0.36361 0.0
C3574 C 0.03526 0.32686 0.33814 0.0
C3575 C 0.01868 0.32157 0.34512 0.0
C3576 C 0.01756 0.31254 0.36102 0.0
H3577 H 0.9163 0.31199 0.28498 0.0
H3578 H 0.94417 0.30633 0.29827 0.0
C3579 C 0.03295 0.30964 0.37031 0.0
C3580 C 1.00266 0.32567 0.33574 0.0
H3581 H 0.96858 0.34917 0.34355 0.0
C3582 C 0.99838 0.31833 0.31633 0.0
C3583 C 0.99207 0.33736 0.34559 0.0
C3584 C 0.99667 0.34676 0.36614 0.0
C3585 C 0.98361 0.32212 0.30653 0.0
C3586 C 0.97257 0.33309 0.31657 0.0
C3587 C 0.97701 0.34066 0.33592 0.0
C3588 C 0.95614 0.3366 0.30746 0.0
C3589 C 0.98019 0.31461 0.28548 0.0
C3590 C 0.95348 0.3555 0.30847 0.0
C3591 C 0.93736 0.35877 0.30131 0.0
C3592 C 0.9236 0.34319 0.293 0.0
C3593 C 0.92653 0.3243 0.29153 0.0
C3594 C 0.94256 0.32104 0.29886 0.0
H3595 H 0.99258 0.31219 0.2791 0.0
H3596 H 0.97058 0.30056 0.28295 0.0
H3597 H 0.97451 0.32473 0.2781 0.0
H3598 H 0.96378 0.3677 0.31516 0.0
H3599 H 0.93546 0.37347 0.30289 0.0
H3600 H 0.0147 0.70997 0.66159 0.0
H3601 H 0.0117 0.67905 0.64044 0.0
H3602 H 0.97197 0.69382 0.60422 0.0
H3603 H 0.97529 0.72521 0.62514 0.0
H3604 H 0.98461 0.6478 0.62575 0.0
H3605 H 0.01146 0.68758 0.56969 0.0
H3606 H 0.01129 0.69951 0.5938 0.0
H3607 H 0.99109 0.69261 0.57834 0.0
C3608 C 1.00513 0.70655 0.64927 0.0
C3609 C 0.99547 0.7201 0.64478 0.0
C3610 C 1.00337 0.68884 0.63725 0.0
C3611 C 0.99188 0.68436 0.62061 0.0
C3612 C 0.98118 0.69723 0.61682 0.0
H3613 H 1.0028 0.59249 0.52812 0.0
H3614 H 0.98891 0.61544 0.54786 0.0
C3615 C 0.98304 0.71508 0.6288 0.0
C3616 C 0.99276 0.66719 0.60651 0.0
H3617 H 0.00855 0.65414 0.56384 0.0
C3618 C 0.98954 0.64909 0.61206 0.0
C3619 C 0.99926 0.669 0.58869 0.0
C3620 C 1.00362 0.6882 0.58225 0.0
C3621 C 0.99345 0.63291 0.60061 0.0
C3622 C 1.00076 0.635 0.58331 0.0
C3623 C 1.00294 0.65274 0.5772 0.0
C3624 C 0.00796 0.6196 0.57216 0.0
C3625 C 0.99026 0.61384 0.60731 0.0
C3626 C 0.02329 0.61447 0.57938 0.0
C3627 C 0.03151 0.60166 0.56802 0.0
C3628 C 0.02452 0.59386 0.54927 0.0
C3629 C 0.00879 0.59859 0.54234 0.0
C3630 C 1.00069 0.61151 0.55365 0.0
H3631 H 0.98057 0.61337 0.61824 0.0
H3632 H 0.98527 0.60174 0.59528 0.0
H3633 H 1.003 0.61165 0.61365 0.0
H3634 H 0.02922 0.62089 0.59358 0.0
H3635 H 0.04354 0.59824 0.5738 0.0
H3636 H 0.61715 0.79333 0.83692 0.0
H3637 H 0.64095 0.78838 0.81648 0.0
H3638 H 0.67891 0.80193 0.86565 0.0
H3639 H 0.65532 0.80727 0.8861 0.0
H3640 H 0.68915 0.82214 0.83684 0.0
H3641 H 0.66714 0.74331 0.80947 0.0
H3642 H 0.65096 0.75779 0.80661 0.0
H3643 H 0.65852 0.75538 0.82997 0.0
C3644 C 0.63056 0.7951 0.84335 0.0
C3645 C 0.63445 0.80067 0.86306 0.0
C3646 C 0.64408 0.79218 0.83168 0.0
C3647 C 0.66157 0.79458 0.83963 0.0
C3648 C 0.66543 0.79997 0.85931 0.0
H3649 H 0.75925 0.76847 0.80727 0.0
H3650 H 0.72952 0.76834 0.81806 0.0
C3651 C 0.65198 0.80301 0.87095 0.0
C3652 C 0.67616 0.79238 0.82755 0.0
H3653 H 0.69322 0.75933 0.79834 0.0
C3654 C 0.69 0.80846 0.82826 0.0
C3655 C 0.67712 0.77447 0.81647 0.0
C3656 C 0.66273 0.75667 0.81561 0.0
C3657 C 0.70511 0.807 0.8186 0.0
C3658 C 0.70617 0.78905 0.8077 0.0
C3659 C 0.69217 0.77306 0.80659 0.0
C3660 C 0.7225 0.78639 0.79883 0.0
C3661 C 0.72015 0.82443 0.82079 0.0
C3662 C 0.72803 0.79617 0.78417 0.0
C3663 C 0.74487 0.79611 0.77795 0.0
C3664 C 0.75614 0.78602 0.78612 0.0
C3665 C 0.75045 0.77585 0.80045 0.0
C3666 C 0.73357 0.77579 0.80659 0.0
H3667 H 0.71843 0.8362 0.83226 0.0
H3668 H 0.73309 0.82047 0.82392 0.0
H3669 H 0.72071 0.83007 0.80733 0.0
H3670 H 0.7196 0.80443 0.77809 0.0
H3671 H 0.74936 0.80449 0.76726 0.0
H3672 H 0.43974 0.5458 0.71051 0.0
H3673 H 0.45458 0.54311 0.68106 0.0
H3674 H 0.49741 0.58962 0.70746 0.0
H3675 H 0.48288 0.59177 0.73711 0.0
H3676 H 0.46289 0.5621 0.65503 0.0
H3677 H 0.5288 0.5573 0.68533 0.0
H3678 H 0.50997 0.55643 0.69924 0.0
H3679 H 0.52279 0.57928 0.69583 0.0
C3680 C 0.45241 0.55543 0.71021 0.0
C3681 C 0.45994 0.56894 0.72674 0.0
C3682 C 0.46102 0.5539 0.69307 0.0
C3683 C 0.47771 0.56576 0.69139 0.0
C3684 C 0.48505 0.57957 0.70786 0.0
H3685 H 0.5463 0.58177 0.59505 0.0
H3686 H 0.53223 0.58469 0.62501 0.0
C3687 C 0.4765 0.58099 0.72507 0.0
C3688 C 0.48695 0.56394 0.67254 0.0
H3689 H 0.52721 0.5624 0.65348 0.0
C3690 C 0.47696 0.56204 0.65493 0.0
C3691 C 0.50545 0.56376 0.67149 0.0
C3692 C 0.51734 0.56409 0.68894 0.0
C3693 C 0.48463 0.56044 0.63712 0.0
C3694 C 0.50311 0.56047 0.63613 0.0
C3695 C 0.51314 0.56242 0.65368 0.0
C3696 C 0.51213 0.55843 0.61725 0.0
C3697 C 0.47275 0.55922 0.61941 0.0
C3698 C 0.50616 0.54259 0.60218 0.0
C3699 C 0.51453 0.5407 0.58491 0.0
C3700 C 0.52935 0.55458 0.58162 0.0
C3701 C 0.53526 0.57047 0.59667 0.0
C3702 C 0.52703 0.57223 0.61405 0.0
H3703 H 0.46055 0.56477 0.62265 0.0
H3704 H 0.47986 0.5675 0.60936 0.0
H3705 H 0.46859 0.54392 0.6123 0.0
H3706 H 0.49504 0.53134 0.60383 0.0
H3707 H 0.50932 0.52814 0.57407 0.0
H3708 H 0.78205 0.14879 0.96587 0.0
H3709 H 0.77563 0.1714 0.9458 0.0
H3710 H 0.80466 0.21908 0.98764 0.0
H3711 H 0.81135 0.19663 0.00761 0.0
H3712 H 0.75633 0.1996 0.95702 0.0
H3713 H 0.82308 0.23221 0.93828 0.0
H3714 H 0.81875 0.20995 0.94735 0.0
H3715 H 0.82199 0.23274 0.96325 0.0
C3716 C 0.78743 0.16407 0.97056 0.0
C3717 C 0.79719 0.17098 0.98828 0.0
C3718 C 0.78368 0.17693 0.95914 0.0
C3719 C 0.78976 0.19685 0.96523 0.0
C3720 C 0.80012 0.20373 0.98256 0.0
H3721 H 0.77489 0.30009 0.9261 0.0
H3722 H 0.77888 0.27661 0.94621 0.0
C3723 C 0.80389 0.19089 0.99396 0.0
C3724 C 0.78405 0.21055 0.95429 0.0
H3725 H 0.79969 0.24853 0.9328 0.0
C3726 C 0.76577 0.21022 0.95158 0.0
C3727 C 0.79644 0.22437 0.9473 0.0
C3728 C 0.81615 0.22477 0.94901 0.0
C3729 C 0.75957 0.22367 0.94236 0.0
C3730 C 0.772 0.23766 0.93567 0.0
C3731 C 0.79025 0.23789 0.93824 0.0
C3732 C 0.76647 0.25171 0.92512 0.0
C3733 C 0.73986 0.22306 0.94011 0.0
C3734 C 0.75767 0.24538 0.90692 0.0
C3735 C 0.75537 0.25871 0.89548 0.0
C3736 C 0.76189 0.27853 0.90208 0.0
C3737 C 0.7696 0.2849 0.92078 0.0
C3738 C 0.77198 0.27154 0.93219 0.0
H3739 H 0.73248 0.21436 0.94969 0.0
H3740 H 0.73718 0.23785 0.943 0.0
H3741 H 0.73463 0.21645 0.9253 0.0
H3742 H 0.75353 0.23011 0.90116 0.0
H3743 H 0.74933 0.25349 0.88111 0.0
H3744 H 0.14568 0.4893 0.2078 0.0
H3745 H 0.12184 0.48578 0.18279 0.0
H3746 H 0.15477 0.52876 0.1574 0.0
H3747 H 0.17869 0.53232 0.18228 0.0
H3748 H 0.10677 0.51766 0.17826 0.0
H3749 H 0.13213 0.48686 0.1117 0.0
H3750 H 0.14126 0.48489 0.13481 0.0
H3751 H 0.14782 0.50677 0.12564 0.0
C3752 C 0.14801 0.49761 0.19659 0.0
C3753 C 0.16398 0.51116 0.19699 0.0
C3754 C 0.13438 0.49559 0.18236 0.0
C3755 C 0.13663 0.50692 0.16826 0.0
C3756 C 0.15293 0.51964 0.16801 0.0
H3757 H 0.08485 0.56127 0.09768 0.0
H3758 H 0.09986 0.55076 0.12367 0.0
C3759 C 0.16656 0.52171 0.18225 0.0
C3760 C 0.12135 0.50737 0.15524 0.0
H3761 H 0.10885 0.50452 0.10852 0.0
C3762 C 0.10697 0.51433 0.16299 0.0
C3763 C 0.1217 0.50298 0.13539 0.0
C3764 C 0.13648 0.49478 0.12638 0.0
C3765 C 0.09349 0.51826 0.15132 0.0
C3766 C 0.0945 0.51502 0.13158 0.0
C3767 C 0.10823 0.50694 0.12376 0.0
C3768 C 0.08295 0.52228 0.1189 0.0
C3769 C 0.07877 0.52679 0.16005 0.0
C3770 C 0.06811 0.50988 0.10827 0.0
C3771 C 0.05945 0.5159 0.09351 0.0
C3772 C 0.06588 0.53418 0.08911 0.0
C3773 C 0.07992 0.547 0.10067 0.0
C3774 C 0.08839 0.54108 0.11552 0.0
H3775 H 0.07867 0.52631 0.17541 0.0
H3776 H 0.08051 0.54206 0.1582 0.0
H3777 H 0.06568 0.51893 0.1527 0.0
H3778 H 0.06387 0.49528 0.11074 0.0
H3779 H 0.04862 0.5058 0.08472 0.0
H3780 H 0.81457 0.84083 0.4901 0.0
H3781 H 0.81614 0.82479 0.4574 0.0
H3782 H 0.79867 0.8714 0.4364 0.0
H3783 H 0.79712 0.88755 0.46891 0.0
H3784 H 0.78128 0.82301 0.42169 0.0
H3785 H 0.85267 0.85537 0.41755 0.0
H3786 H 0.84475 0.8484 0.43912 0.0
H3787 H 0.83898 0.86902 0.43146 0.0
C3788 C 0.811 0.84761 0.4785 0.0
C3789 C 0.80573 0.86546 0.48206 0.0
C3790 C 0.81192 0.83845 0.45988 0.0
C3791 C 0.80756 0.84699 0.4446 0.0
C3792 C 0.80212 0.86465 0.44808 0.0
H3793 H 0.80788 0.84381 0.3282 0.0
H3794 H 0.81204 0.84971 0.36279 0.0
C3795 C 0.80125 0.87384 0.46664 0.0
C3796 C 0.80872 0.83769 0.42487 0.0
H3797 H 0.83617 0.83838 0.38909 0.0
C3798 C 0.79334 0.82599 0.41459 0.0
C3799 C 0.82448 0.84177 0.41578 0.0
C3800 C 0.84126 0.8543 0.42643 0.0
C3801 C 0.79309 0.81893 0.3951 0.0
C3802 C 0.8087 0.82359 0.3858 0.0
C3803 C 0.82429 0.83469 0.39631 0.0
C3804 C 0.80832 0.81954 0.36487 0.0
C3805 C 0.77588 0.80752 0.38435 0.0
C3806 C 0.80527 0.8006 0.35456 0.0
C3807 C 0.80295 0.7972 0.3347 0.0
C3808 C 0.80382 0.81274 0.32503 0.0
C3809 C 0.80735 0.83163 0.33539 0.0
C3810 C 0.80976 0.83501 0.3551 0.0
H3811 H 0.76448 0.80716 0.39325 0.0
H3812 H 0.77283 0.81377 0.37175 0.0
H3813 H 0.77722 0.79247 0.37928 0.0
H3814 H 0.80422 0.78848 0.36187 0.0
H3815 H 0.7999 0.78249 0.32698 0.0
H3816 H 0.48695 0.56866 0.82428 0.0
H3817 H 0.5012 0.56376 0.85408 0.0
H3818 H 0.45224 0.56473 0.88014 0.0
H3819 H 0.43797 0.56926 0.85039 0.0
H3820 H 0.50989 0.58253 0.88959 0.0
H3821 H 0.46111 0.51733 0.89644 0.0
H3822 H 0.46112 0.52762 0.87524 0.0
H3823 H 0.45067 0.53738 0.89545 0.0
C3824 C 0.47912 0.56782 0.83631 0.0
C3825 C 0.46104 0.56936 0.8344 0.0
C3826 C 0.48739 0.56498 0.85361 0.0
C3827 C 0.47802 0.5633 0.86994 0.0
C3828 C 0.46005 0.56525 0.86809 0.0
H3829 H 0.49848 0.54712 0.98843 0.0
H3830 H 0.48705 0.55066 0.9572 0.0
C3831 C 0.4518 0.5681 0.85083 0.0
C3832 C 0.48691 0.55978 0.88867 0.0
H3833 H 0.48118 0.53185 0.92357 0.0
C3834 C 0.50354 0.57131 0.89684 0.0
C3835 C 0.47918 0.54515 0.89877 0.0
C3836 C 0.46215 0.53103 0.89095 0.0
C3837 C 0.51197 0.56923 0.91447 0.0
C3838 C 0.50408 0.55477 0.92471 0.0
C3839 C 0.4876 0.54307 0.91635 0.0
C3840 C 0.51193 0.55209 0.94432 0.0
C3841 C 0.52904 0.58326 0.92228 0.0
C3842 C 0.53004 0.55119 0.94852 0.0
C3843 C 0.53679 0.54918 0.96691 0.0
C3844 C 0.5257 0.54763 0.98194 0.0
C3845 C 0.50765 0.54811 0.97753 0.0
C3846 C 0.50097 0.55016 0.95934 0.0
H3847 H 0.53066 0.59656 0.91604 0.0
H3848 H 0.52959 0.58743 0.93792 0.0
H3849 H 0.54045 0.5764 0.91872 0.0
H3850 H 0.53909 0.55196 0.93754 0.0
H3851 H 0.55077 0.54908 0.96939 0.0
H3852 H 0.82589 0.19088 0.07532 0.0
H3853 H 0.82627 0.21503 0.10386 0.0
H3854 H 0.77688 0.18207 0.1173 0.0
H3855 H 0.77664 0.15769 0.08915 0.0
H3856 H 0.80144 0.23736 0.11326 0.0
H3857 H 0.80817 0.19084 0.16641 0.0
H3858 H 0.81187 0.1839 0.14186 0.0
H3859 H 0.78959 0.18102 0.14905 0.0
C3860 C 0.81526 0.18868 0.08452 0.0
C3861 C 0.80133 0.17235 0.08017 0.0
C3862 C 0.81544 0.2025 0.10072 0.0
C3863 C 0.80171 0.20018 0.11275 0.0
C3864 C 0.78779 0.1839 0.1084 0.0
H3865 H 0.77276 0.27052 0.21069 0.0
H3866 H 0.77229 0.25225 0.17853 0.0
C3867 C 0.78766 0.17001 0.09231 0.0
C3868 C 0.80175 0.21493 0.12971 0.0
H3869 H 0.80124 0.2213 0.17775 0.0
C3870 C 0.80148 0.2339 0.12737 0.0
C3871 C 0.80188 0.21033 0.14808 0.0
C3872 C 0.80307 0.19047 0.15157 0.0
C3873 C 0.80107 0.24835 0.14302 0.0
C3874 C 0.80087 0.24357 0.16122 0.0
C3875 C 0.80123 0.22471 0.1636 0.0
C3876 C 0.80093 0.25797 0.17831 0.0
C3877 C 0.80086 0.26859 0.14017 0.0
C3878 C 0.81717 0.26745 0.18843 0.0
C3879 C 0.81744 0.27758 0.2068 0.0
C3880 C 0.80149 0.27836 0.21518 0.0
C3881 C 0.78521 0.26994 0.20452 0.0
C3882 C 0.78492 0.2597 0.18617 0.0
H3883 H 0.8007 0.26991 0.12498 0.0
H3884 H 0.78897 0.27312 0.14606 0.0
H3885 H 0.81278 0.27865 0.14804 0.0
H3886 H 0.82962 0.2659 0.18262 0.0
H3887 H 0.83013 0.28331 0.2149 0.0
H3888 H 0.13854 0.525 0.27147 0.0
H3889 H 0.11845 0.53388 0.29507 0.0
H3890 H 0.16343 0.56017 0.33572 0.0
H3891 H 0.18371 0.55142 0.31211 0.0
H3892 H 0.11566 0.52474 0.33262 0.0
H3893 H 0.13495 0.60347 0.33243 0.0
H3894 H 0.13995 0.58552 0.31389 0.0
H3895 H 0.15287 0.59148 0.33641 0.0
C3896 C 0.14416 0.53257 0.28547 0.0
C3897 C 0.16266 0.53764 0.28996 0.0
C3898 C 0.13268 0.53761 0.2989 0.0
C3899 C 0.13953 0.5479 0.31695 0.0
C3900 C 0.15797 0.55248 0.32171 0.0
H3901 H 0.09154 0.59418 0.41492 0.0
H3902 H 0.11156 0.58642 0.39085 0.0
C3903 C 0.16949 0.54738 0.30828 0.0
C3904 C 0.12727 0.55404 0.33065 0.0
H3905 H 0.11444 0.59376 0.35406 0.0
C3906 C 0.11532 0.53981 0.33731 0.0
C3907 C 0.12698 0.57371 0.33663 0.0
C3908 C 0.13926 0.58948 0.3294 0.0
C3909 C 0.10317 0.54477 0.35013 0.0
C3910 C 0.10275 0.56445 0.356 0.0
C3911 C 0.11475 0.57869 0.34936 0.0
C3912 C 0.09045 0.57057 0.3697 0.0
C3913 C 0.0912 0.52895 0.35763 0.0
C3914 C 0.07196 0.5648 0.36545 0.0
C3915 C 0.06049 0.56911 0.37922 0.0
C3916 C 0.06741 0.57931 0.39735 0.0
C3917 C 0.08589 0.58602 0.40114 0.0
C3918 C 0.09732 0.58168 0.38741 0.0
H3919 H 0.09608 0.51526 0.35523 0.0
H3920 H 0.09013 0.53325 0.37303 0.0
H3921 H 0.07768 0.52616 0.35022 0.0
H3922 H 0.06645 0.55652 0.35168 0.0
H3923 H 0.04631 0.56374 0.37596 0.0
H3924 H 0.78173 0.84051 0.56866 0.0
H3925 H 0.77764 0.82462 0.59623 0.0
H3926 H 0.81056 0.8748 0.63178 0.0
H3927 H 0.81447 0.89084 0.60442 0.0
H3928 H 0.80277 0.81548 0.62008 0.0
H3929 H 0.76641 0.86586 0.66054 0.0
H3930 H 0.76963 0.86544 0.63578 0.0
H3931 H 0.78717 0.87785 0.65372 0.0
C3932 C 0.78801 0.84818 0.58238 0.0
C3933 C 0.79832 0.86698 0.5844 0.0
C3934 C 0.78568 0.83909 0.5981 0.0
C3935 C 0.79352 0.84866 0.61613 0.0
C3936 C 0.80402 0.86732 0.61811 0.0
H3937 H 0.81505 0.8188 0.72395 0.0
H3938 H 0.81424 0.83214 0.69485 0.0
C3939 C 0.80634 0.87642 0.60242 0.0
C3940 C 0.79121 0.83899 0.6328 0.0
H3941 H 0.77785 0.84439 0.67766 0.0
C3942 C 0.79712 0.82167 0.63258 0.0
C3943 C 0.78373 0.84702 0.64906 0.0
C3944 C 0.7762 0.86497 0.64977 0.0
C3945 C 0.79636 0.8126 0.64846 0.0
C3946 C 0.7895 0.82104 0.66489 0.0
C3947 C 0.78317 0.83804 0.66499 0.0
C3948 C 0.78965 0.8129 0.68244 0.0
C3949 C 0.80331 0.79433 0.64789 0.0
C3950 C 0.77598 0.79777 0.68507 0.0
C3951 C 0.7763 0.79018 0.70177 0.0
C3952 C 0.7904 0.79756 0.716 0.0
C3953 C 0.80404 0.81275 0.71325 0.0
C3954 C 0.80361 0.82041 0.69666 0.0
H3955 H 0.80861 0.78978 0.63415 0.0
H3956 H 0.81404 0.79647 0.65947 0.0
H3957 H 0.79247 0.78253 0.6503 0.0
H3958 H 0.7651 0.79182 0.67418 0.0
H3959 H 0.76568 0.77839 0.70341 0.0
H3960 H 0.75253 0.46088 0.52101 0.0
H3961 H 0.73239 0.48333 0.52645 0.0
H3962 H 0.77546 0.52714 0.55729 0.0
H3963 H 0.79573 0.50485 0.55184 0.0
H3964 H 0.72464 0.50344 0.56236 0.0
H3965 H 0.75498 0.55239 0.51514 0.0
H3966 H 0.75868 0.52819 0.51387 0.0
H3967 H 0.77007 0.54714 0.53256 0.0
C3968 C 0.7577 0.4753 0.52895 0.0
C3969 C 0.77568 0.48121 0.53593 0.0
C3970 C 0.7462 0.48805 0.53205 0.0
C3971 C 0.75257 0.50687 0.54206 0.0
C3972 C 0.77044 0.51272 0.5493 0.0
H3973 H 0.6837 0.58521 0.58314 0.0
H3974 H 0.7086 0.56841 0.58099 0.0
C3975 C 0.78194 0.49997 0.54623 0.0
C3976 C 0.74045 0.52037 0.54489 0.0
H3977 H 0.73169 0.56148 0.5323 0.0
C3978 C 0.7262 0.51621 0.55592 0.0
C3979 C 0.74255 0.53683 0.53625 0.0
C3980 C 0.7573 0.54141 0.52365 0.0
C3981 C 0.71383 0.52813 0.55849 0.0
C3982 C 0.71602 0.5447 0.54998 0.0
C3983 C 0.7303 0.54889 0.539 0.0
C3984 C 0.70268 0.55687 0.55103 0.0
C3985 C 0.6982 0.52259 0.56972 0.0
C3986 C 0.69172 0.55647 0.53473 0.0
C3987 C 0.67763 0.56603 0.5359 0.0
C3988 C 0.67439 0.57621 0.55339 0.0
C3989 C 0.68602 0.57754 0.5695 0.0
C3990 C 0.7001 0.56786 0.56832 0.0
H3991 H 0.69692 0.50772 0.57267 0.0
H3992 H 0.69993 0.53273 0.58346 0.0
H3993 H 0.68563 0.5236 0.562 0.0
H3994 H 0.69361 0.5481 0.52126 0.0
H3995 H 0.6689 0.56496 0.52327 0.0
H3996 H 0.24829 0.12727 0.49722 0.0
H3997 H 0.21845 0.10668 0.49358 0.0
H3998 H 0.19802 0.15406 0.52308 0.0
H3999 H 0.22768 0.1748 0.52643 0.0
H4000 H 0.19695 0.09597 0.52068 0.0
H4001 H 0.16374 0.13649 0.47577 0.0
H4002 H 0.18764 0.14053 0.47993 0.0
H4003 H 0.17485 0.15152 0.49723 0.0
C4004 C 0.23741 0.1333 0.50285 0.0
C4005 C 0.24028 0.15266 0.51202 0.0
C4006 C 0.22039 0.12154 0.50076 0.0
C4007 C 0.20595 0.12895 0.50772 0.0
C4008 C 0.20887 0.14819 0.51715 0.0
H4009 H 0.10207 0.08834 0.53607 0.0
H4010 H 0.13211 0.10459 0.53191 0.0
C4011 C 0.22585 0.15998 0.51918 0.0
C4012 C 0.18795 0.11643 0.50578 0.0
H4013 H 0.14455 0.11399 0.4908 0.0
C4014 C 0.18554 0.09972 0.51387 0.0
C4015 C 0.17309 0.12128 0.49675 0.0
C4016 C 0.17496 0.13833 0.48676 0.0
C4017 C 0.16853 0.08828 0.51397 0.0
C4018 C 0.15365 0.09371 0.50579 0.0
C4019 C 0.15607 0.10996 0.4971 0.0
C4020 C 0.13535 0.08369 0.50769 0.0
C4021 C 0.16636 0.07089 0.52347 0.0
C4022 C 0.12723 0.06664 0.49524 0.0
C4023 C 0.10991 0.05729 0.49746 0.0
C4024 C 0.10056 0.0648 0.51228 0.0
C4025 C 0.10881 0.08204 0.52455 0.0
C4026 C 0.12601 0.09139 0.52223 0.0
H4027 H 0.17931 0.06855 0.52916 0.0
H4028 H 0.15775 0.0727 0.53528 0.0
H4029 H 0.15966 0.05782 0.51318 0.0
H4030 H 0.1343 0.06059 0.48387 0.0
H4031 H 0.10389 0.04422 0.4876 0.0
H4032 H 0.22058 0.97385 0.74937 0.0
H4033 H 0.23611 0.94697 0.74923 0.0
H4034 H 0.20633 0.92931 0.79459 0.0
H4035 H 0.19026 0.95541 0.79398 0.0
H4036 H 0.25815 0.93463 0.76857 0.0
H4037 H 0.19876 0.87736 0.76676 0.0
H4038 H 0.19692 0.90135 0.7641 0.0
H4039 H 0.19996 0.89551 0.78739 0.0
C4040 C 0.21711 0.96414 0.75922 0.0
C4041 C 0.20367 0.96715 0.7715 0.0
C4042 C 0.2262 0.94852 0.7592 0.0
C4043 C 0.22248 0.93494 0.7715 0.0
C4044 C 0.20939 0.93841 0.78416 0.0
H4045 H 0.26801 0.8389 0.80424 0.0
H4046 H 0.25354 0.86572 0.80116 0.0
C4047 C 0.20014 0.95381 0.78398 0.0
C4048 C 0.23233 0.91774 0.77137 0.0
H4049 H 0.22646 0.8694 0.77499 0.0
C4050 C 0.25096 0.9204 0.76975 0.0
C4051 C 0.22367 0.89852 0.77276 0.0
C4052 C 0.20372 0.89294 0.77263 0.0
C4053 C 0.26075 0.9053 0.77011 0.0
C4054 C 0.25212 0.88635 0.77211 0.0
C4055 C 0.23354 0.88362 0.77355 0.0
C4056 C 0.26199 0.86957 0.77364 0.0
C4057 C 0.28058 0.90997 0.76903 0.0
C4058 C 0.27197 0.86176 0.75925 0.0
C4059 C 0.28029 0.84576 0.76088 0.0
C4060 C 0.27937 0.83703 0.77721 0.0
C4061 C 0.26944 0.84498 0.79146 0.0
C4062 C 0.26097 0.86058 0.7897 0.0
H4063 H 0.28592 0.92575 0.77083 0.0
H4064 H 0.28743 0.9042 0.78008 0.0
H4065 H 0.2838 0.90303 0.75501 0.0
H4066 H 0.27304 0.86773 0.7464 0.0
H4067 H 0.28729 0.84016 0.74926 0.0
H4068 H 0.34701 0.98542 0.01213 0.0
H4069 H 0.3755 1.00461 1.0059 0.0
H4070 H 0.40119 0.95768 0.01255 0.0
H4071 H 0.37295 0.93855 0.01909 0.0
H4072 H 0.40897 0.00977 0.03532 0.0
H4073 H 0.41573 0.97888 0.96041 0.0
H4074 H 0.39437 0.97929 0.96967 0.0
H4075 H 0.407 0.96223 0.97545 0.0
C4076 C 0.35872 0.97916 0.01209 0.0
C4077 C 0.35785 0.96057 0.01618 0.0
C4078 C 0.3749 0.99008 0.00847 0.0
C4079 C 0.39026 0.98238 0.00856 0.0
C4080 C 0.38934 0.96369 0.0122 0.0
H4081 H 0.50071 1.00242 0.00825 0.0
H4082 H 0.46839 0.99146 1.00199 0.0
C4083 C 0.37327 0.95287 0.01605 0.0
C4084 C 0.40772 0.99435 1.0068 0.0
H4085 H 0.44194 0.99784 0.97848 0.0
C4086 C 0.41613 1.00755 0.0228 0.0
C4087 C 0.41685 0.99116 0.99044 0.0
C4088 C 0.40806 0.97721 0.97291 0.0
C4089 C 0.434 0.01679 0.02338 0.0
C4090 C 0.44343 0.01311 0.0072 0.0
C4091 C 0.43465 1.00066 0.9908 0.0
C4092 C 0.46286 0.02018 0.00792 0.0
C4093 C 0.4429 0.02927 0.04175 0.0
C4094 C 0.47043 0.03994 0.01278 0.0
C4095 C 0.4888 0.0461 0.01673 0.0
C4096 C 0.49987 0.03268 0.01482 0.0
C4097 C 0.49238 0.01301 0.00915 0.0
C4098 C 0.47399 1.00679 1.0056 0.0
H4099 H 0.43479 0.02714 0.05387 0.0
H4100 H 0.45616 0.02613 0.04511 0.0
H4101 H 0.44477 0.04467 0.04043 0.0
H4102 H 0.4621 0.05051 0.01436 0.0
H4103 H 0.49423 0.06125 0.02172 0.0
H4104 H 0.87596 0.59738 0.82555 0.0
H4105 H 0.85717 0.61954 0.81823 0.0
H4106 H 0.89542 0.64222 0.78162 0.0
H4107 H 0.91442 0.62068 0.78929 0.0
H4108 H 0.87891 0.6701 0.80009 0.0
H4109 H 0.82991 0.6036 0.76607 0.0
H4110 H 0.83551 0.60603 0.79105 0.0
H4111 H 0.85212 0.60291 0.77478 0.0
C4112 C 0.88055 0.60747 0.81635 0.0
C4113 C 0.89645 0.60708 0.80768 0.0
C4114 C 0.86979 0.62003 0.81212 0.0
C4115 C 0.87472 0.63211 0.799 0.0
C4116 C 0.89133 0.63291 0.79169 0.0
H4117 H 0.83685 0.68899 0.71693 0.0
H4118 H 0.85357 0.67637 0.74009 0.0
C4119 C 0.90214 0.62053 0.79604 0.0
C4120 C 0.86192 0.64205 0.79085 0.0
H4121 H 0.82407 0.63309 0.76101 0.0
C4122 C 0.86676 0.66208 0.79179 0.0
C4123 C 0.84613 0.63148 0.77994 0.0
C4124 C 0.8406 0.60981 0.77772 0.0
C4125 C 0.85654 0.67173 0.78155 0.0
C4126 C 0.84123 0.661 0.77003 0.0
C4127 C 0.83586 0.64119 0.76988 0.0
C4128 C 0.83135 0.6696 0.75678 0.0
C4129 C 0.86237 0.69324 0.7828 0.0
C4130 C 0.81324 0.66945 0.75828 0.0
C4131 C 0.80362 0.67639 0.74495 0.0
C4132 C 0.81194 0.68339 0.7298 0.0
C4133 C 0.83006 0.6834 0.72829 0.0
C4134 C 0.83968 0.67652 0.74167 0.0
H4135 H 0.87112 0.70002 0.79595 0.0
H4136 H 0.86999 0.69612 0.77053 0.0
H4137 H 0.85072 0.7002 0.78238 0.0
H4138 H 0.80657 0.66392 0.76973 0.0
H4139 H 0.78965 0.6762 0.74643 0.0
H4140 H 0.81946 0.63665 0.02456 0.0
H4141 H 0.84428 0.62066 0.02824 0.0
H4142 H 0.88037 0.66948 0.01462 0.0
H4143 H 0.8555 0.6858 0.01117 0.0
H4144 H 0.86732 0.61044 1.00164 0.0
H4145 H 0.90377 0.66164 0.06468 0.0
H4146 H 0.88102 0.66137 0.05688 0.0
H4147 H 0.89891 0.67208 0.04448 0.0
C4148 C 0.83267 0.64403 0.02237 0.0
C4149 C 0.83555 0.66252 0.01765 0.0
C4150 C 0.84684 0.63485 0.02446 0.0
C4151 C 0.86418 0.64396 0.02191 0.0
C4152 C 0.86712 0.66234 0.01698 0.0
H4153 H 0.94983 0.57918 0.01371 0.0
H4154 H 0.93005 0.60076 0.0076 0.0
C4155 C 0.85291 0.67159 0.01492 0.0
C4156 C 0.879 0.6339 0.02428 0.0
H4157 H 0.91659 0.63541 0.05245 0.0
C4158 C 0.87818 0.61596 0.01263 0.0
C4159 C 0.89305 0.64111 0.03875 0.0
C4160 C 0.89427 0.66003 0.05205 0.0
C4161 C 0.89087 0.60484 0.01528 0.0
C4162 C 0.90488 0.61199 0.0298 0.0
C4163 C 0.90588 0.63007 0.04126 0.0
C4164 C 0.9179 0.60027 0.03403 0.0
C4165 C 0.88883 0.58519 1.00299 0.0
C4166 C 0.91794 0.59333 0.05113 0.0
C4167 C 0.92924 0.58107 0.05469 0.0
C4168 C 0.94081 0.57565 0.04125 0.0
C4169 C 0.94114 0.58316 0.02438 0.0
C4170 C 0.92977 0.59537 0.02081 0.0
H4171 H 0.87553 0.58034 0.99492 0.0
H4172 H 0.89907 0.58577 0.99268 0.0
H4173 H 0.89081 0.5743 0.01173 0.0
H4174 H 0.90891 0.59703 0.06154 0.0
H4175 H 0.92888 0.57577 0.06794 0.0
H4176 H 0.232 0.06791 0.78208 0.0
H4177 H 0.24811 0.10139 0.78364 0.0
H4178 H 0.19816 0.11936 0.7783 0.0
H4179 H 0.18217 0.08627 0.7774 0.0
H4180 H 0.25127 0.12652 0.76061 0.0
H4181 H 0.22042 0.15972 0.82172 0.0
H4182 H 0.21728 0.13393 0.81473 0.0
H4183 H 0.20394 0.14721 0.80292 0.0
C4184 C 0.22442 0.07902 0.78145 0.0
C4185 C 0.20564 0.07413 0.77986 0.0
C4186 C 0.2337 0.09832 0.78228 0.0
C4187 C 0.22459 0.11351 0.78158 0.0
C4188 C 0.20582 0.10846 0.7796 0.0
H4189 H 0.25186 0.23799 0.77799 0.0
H4190 H 0.23774 0.2044 0.77781 0.0
C4191 C 0.19657 0.08927 0.77893 0.0
C4192 C 0.23454 0.13435 0.78241 0.0
H4193 H 0.23643 0.18141 0.80384 0.0
C4194 C 0.24806 0.13843 0.77024 0.0
C4195 C 0.23069 0.15036 0.79488 0.0
C4196 C 0.21743 0.14759 0.80943 0.0
C4197 C 0.25719 0.15758 0.76977 0.0
C4198 C 0.2531 0.17357 0.78201 0.0
C4199 C 0.23971 0.16948 0.79429 0.0
C4200 C 0.2622 0.19453 0.78213 0.0
C4201 C 0.27077 0.16049 0.75558 0.0
C4202 C 0.28088 0.20096 0.78495 0.0
C4203 C 0.2891 0.22044 0.78503 0.0
C4204 C 0.27905 0.23439 0.78234 0.0
C4205 C 0.26034 0.22797 0.7799 0.0
C4206 C 0.25212 0.20854 0.77985 0.0
H4207 H 0.26885 0.14785 0.74386 0.0
H4208 H 0.27016 0.17354 0.74943 0.0
H4209 H 0.28428 0.16238 0.76279 0.0
H4210 H 0.2892 0.19093 0.78732 0.0
H4211 H 0.30341 0.2245 0.78725 0.0
H4212 H 0.42185 0.98228 0.29574 0.0
H4213 H 0.40441 0.94948 0.29354 0.0
H4214 H 0.35631 0.97166 0.2977 0.0
H4215 H 0.37363 1.00448 0.3001 0.0
H4216 H 0.35963 0.94441 0.32111 0.0
H4217 H 0.37153 0.91891 0.24638 0.0
H4218 H 0.39118 0.92936 0.26222 0.0
H4219 H 0.37591 0.94415 0.25704 0.0
C4220 C 0.40756 0.98015 0.29623 0.0
C4221 C 0.39905 0.99586 0.29797 0.0
C4222 C 0.39764 0.96144 0.29488 0.0
C4223 C 0.3791 0.95823 0.29516 0.0
C4224 C 0.37062 0.97392 0.29734 0.0
H4225 H 0.30397 0.85116 0.2561 0.0
H4226 H 0.32062 0.88464 0.26222 0.0
C4227 C 0.38052 0.99262 0.2987 0.0
C4228 C 0.36844 0.93851 0.29322 0.0
H4229 H 0.3557 0.89577 0.26242 0.0
C4230 C 0.35874 0.93372 0.30831 0.0
C4231 C 0.36725 0.9248 0.2764 0.0
C4232 C 0.37689 0.92953 0.25949 0.0
C4233 C 0.34775 0.91547 0.30702 0.0
C4234 C 0.34669 0.90161 0.29028 0.0
C4235 C 0.35651 0.90643 0.27523 0.0
C4236 C 0.33536 0.88205 0.28785 0.0
C4237 C 0.3369 0.91151 0.32329 0.0
C4238 C 0.33803 0.86959 0.30031 0.0
C4239 C 0.32835 0.85062 0.29697 0.0
C4240 C 0.316 0.8438 0.28102 0.0
C4241 C 0.31327 0.85625 0.26861 0.0
C4242 C 0.32279 0.87529 0.27208 0.0
H4243 H 0.33592 0.925 0.33293 0.0
H4244 H 0.32333 0.90353 0.31783 0.0
H4245 H 0.34316 0.90258 0.3317 0.0
H4246 H 0.34804 0.87428 0.31221 0.0
H4247 H 0.33098 0.8411 0.30648 0.0
H4248 H 0.58674 0.38732 0.63172 0.0
H4249 H 0.58267 0.41488 0.61738 0.0
H4250 H 0.57955 0.38019 0.56174 0.0
H4251 H 0.58314 0.35236 0.57611 0.0
H4252 H 0.60196 0.43486 0.59522 0.0
H4253 H 0.53634 0.40252 0.55541 0.0
H4254 H 0.54593 0.39116 0.57279 0.0
H4255 H 0.55324 0.38914 0.54929 0.0
C4256 C 0.58517 0.38549 0.61641 0.0
C4257 C 0.58524 0.36749 0.60512 0.0
C4258 C 0.58282 0.40134 0.60818 0.0
C4259 C 0.58043 0.39976 0.58837 0.0
C4260 C 0.58083 0.38186 0.57703 0.0
H4261 H 0.5697 0.49225 0.52208 0.0
H4262 H 0.57328 0.46109 0.5304 0.0
C4263 C 0.58309 0.36592 0.58529 0.0
C4264 C 0.57806 0.41703 0.57985 0.0
H4265 H 0.55022 0.43358 0.55051 0.0
C4266 C 0.59062 0.43446 0.58543 0.0
C4267 C 0.56333 0.41678 0.56692 0.0
C4268 C 0.54884 0.39897 0.56086 0.0
C4269 C 0.58887 0.45141 0.57871 0.0
C4270 C 0.57402 0.45125 0.56609 0.0
C4271 C 0.56165 0.43378 0.56009 0.0
C4272 C 0.57059 0.46947 0.56032 0.0
C4273 C 0.60299 0.46947 0.58525 0.0
C4274 C 0.56744 0.48442 0.57414 0.0
C4275 C 0.56531 0.50201 0.56941 0.0
C4276 C 0.56597 0.5052 0.55064 0.0
C4277 C 0.56879 0.49015 0.5366 0.0
C4278 C 0.57092 0.47238 0.54138 0.0
H4279 H 0.61565 0.46614 0.59054 0.0
H4280 H 0.60567 0.47774 0.5736 0.0
H4281 H 0.59832 0.4788 0.59702 0.0
H4282 H 0.56687 0.48258 0.58876 0.0
H4283 H 0.56329 0.51332 0.58059 0.0
H4284 H 0.48391 0.77681 0.37498 0.0
H4285 H 0.45655 0.78145 0.35916 0.0
H4286 H 0.42953 0.77448 0.40936 0.0
H4287 H 0.45702 0.77018 0.42541 0.0
H4288 H 0.42358 0.75826 0.35049 0.0
H4289 H 0.41827 0.82485 0.39953 0.0
H4290 H 0.43807 0.81494 0.39966 0.0
H4291 H 0.41912 0.80463 0.41094 0.0
C4292 C 0.47214 0.7762 0.38267 0.0
C4293 C 0.47273 0.77318 0.40153 0.0
C4294 C 0.45647 0.77889 0.37358 0.0
C4295 C 0.44095 0.77872 0.38311 0.0
C4296 C 0.44137 0.77519 0.40179 0.0
H4297 H 0.33435 0.79455 0.34867 0.0
H4298 H 0.36095 0.79007 0.36616 0.0
C4299 C 0.45708 0.77254 0.41092 0.0
C4300 C 0.42441 0.78205 0.37333 0.0
H4301 H 0.39427 0.81151 0.37608 0.0
C4302 C 0.41722 0.76994 0.35609 0.0
C4303 C 0.41596 0.79724 0.38058 0.0
C4304 C 0.42331 0.81129 0.3986 0.0
C4305 C 0.40183 0.77242 0.34608 0.0
C4306 C 0.3935 0.78777 0.35319 0.0
C4307 C 0.40059 0.79978 0.37053 0.0
C4308 C 0.37751 0.79162 0.34281 0.0
C4309 C 0.39444 0.75823 0.32815 0.0
C4310 C 0.37794 0.79463 0.324 0.0
C4311 C 0.3627 0.79717 0.31396 0.0
C4312 C 0.34667 0.79715 0.32255 0.0
C4313 C 0.34646 0.79495 0.34164 0.0
C4314 C 0.36168 0.79224 0.35165 0.0
H4315 H 0.39886 0.74437 0.32779 0.0
H4316 H 0.37967 0.7552 0.32665 0.0
H4317 H 0.39933 0.76435 0.31576 0.0
H4318 H 0.39006 0.79486 0.31696 0.0
H4319 H 0.36347 0.79901 0.29935 0.0
H4320 H 0.05936 0.74846 0.12337 0.0
H4321 H 0.05717 0.71436 0.11028 0.0
H4322 H 0.09431 0.72986 0.06982 0.0
H4323 H 0.09662 0.76421 0.08297 0.0
H4324 H 0.04629 0.69406 0.07344 0.0
H4325 H 0.11596 0.69075 0.09464 0.0
H4326 H 0.10602 0.71059 0.10437 0.0
H4327 H 0.11335 0.70895 0.08096 0.0
C4328 C 0.06708 0.74467 0.11166 0.0
C4329 C 0.07821 0.75913 0.10426 0.0
C4330 C 0.06579 0.72511 0.10417 0.0
C4331 C 0.07573 0.71941 0.0892 0.0
C4332 C 0.08672 0.73381 0.08157 0.0
H4333 H 0.0516 0.59875 0.02771 0.0
H4334 H 0.05868 0.63421 0.03464 0.0
C4335 C 0.08793 0.75347 0.08901 0.0
C4336 C 0.07428 0.6984 0.08162 0.0
H4337 H 0.09756 0.6621 0.07759 0.0
C4338 C 0.05754 0.68711 0.07421 0.0
C4339 C 0.08891 0.68923 0.08279 0.0
C4340 C 0.10707 0.7004 0.09124 0.0
C4341 C 0.05497 0.66701 0.06815 0.0
C4342 C 0.06959 0.65782 0.06927 0.0
C4343 C 0.08638 0.66912 0.07654 0.0
C4344 C 0.06736 0.63638 0.06422 0.0
C4345 C 0.03643 0.65567 0.06126 0.0
C4346 C 0.07057 0.62571 0.07826 0.0
C4347 C 0.06666 0.60548 0.07425 0.0
C4348 C 0.05986 0.59548 0.05602 0.0
C4349 C 0.05719 0.60611 0.04178 0.0
C4350 C 0.06104 0.62637 0.04581 0.0
H4351 H 0.02614 0.66418 0.0651 0.0
H4352 H 0.03539 0.65157 0.0456 0.0
H4353 H 0.03349 0.64224 0.06724 0.0
H4354 H 0.07541 0.63302 0.09256 0.0
H4355 H 0.06853 0.59761 0.08555 0.0
H4356 H 0.0864 0.28865 0.92745 0.0
H4357 H 0.11312 0.29355 0.91015 0.0
H4358 H 0.08084 0.27088 0.85733 0.0
H4359 H 0.05413 0.26625 0.87446 0.0
H4360 H 0.12834 0.26814 0.88546 0.0
H4361 H 0.10761 0.32278 0.84818 0.0
H4362 H 0.09669 0.31512 0.86804 0.0
H4363 H 0.09146 0.30054 0.84475 0.0
C4364 C 0.085 0.2847 0.91214 0.0
C4365 C 0.06808 0.2772 0.90234 0.0
C4366 C 0.1003 0.28748 0.90227 0.0
C4367 C 0.09902 0.28292 0.88238 0.0
C4368 C 0.08219 0.27494 0.87262 0.0
H4369 H 0.16879 0.29139 0.79242 0.0
H4370 H 0.14454 0.28465 0.81248 0.0
C4371 C 0.0669 0.27219 0.88247 0.0
C4372 C 0.11518 0.28666 0.87176 0.0
H4373 H 0.13256 0.3106 0.83747 0.0
C4374 C 0.12933 0.27752 0.87505 0.0
C4375 C 0.11657 0.29898 0.85822 0.0
C4376 C 0.10236 0.31008 0.85469 0.0
C4377 C 0.14447 0.27983 0.86472 0.0
C4378 C 0.14568 0.29188 0.85092 0.0
C4379 C 0.13166 0.30126 0.84792 0.0
C4380 C 0.16102 0.29466 0.83897 0.0
C4381 C 0.15875 0.26884 0.86825 0.0
C4382 C 0.17856 0.30237 0.84706 0.0
C4383 C 0.19257 0.30621 0.83553 0.0
C4384 C 0.18929 0.3027 0.81566 0.0
C4385 C 0.17179 0.29457 0.80765 0.0
C4386 C 0.15788 0.29064 0.81913 0.0
H4387 H 0.15378 0.25657 0.87546 0.0
H4388 H 0.16393 0.2632 0.85478 0.0
H4389 H 0.16996 0.27867 0.87753 0.0
H4390 H 0.18136 0.30599 0.86231 0.0
H4391 H 0.20584 0.31262 0.84217 0.0
H4392 H 0.56155 0.75545 0.91824 0.0
H4393 H 0.55616 0.73323 0.94067 0.0
H4394 H 0.60852 0.75743 0.96902 0.0
H4395 H 0.61388 0.77992 0.94692 0.0
H4396 H 0.57429 0.70562 0.94941 0.0
H4397 H 0.57591 0.76325 0.01182 0.0
H4398 H 0.57438 0.76748 0.98779 0.0
H4399 H 0.59548 0.76654 0.99918 0.0
C4400 C 0.57193 0.75595 0.92921 0.0
C4401 C 0.58806 0.7695 0.931 0.0
C4402 C 0.56883 0.74329 0.94198 0.0
C4403 C 0.5818 0.74402 0.9567 0.0
C4404 C 0.59819 0.757 0.95803 0.0
H4405 H 0.58675 0.65832 0.02641 0.0
H4406 H 0.5924 0.68135 1.00488 0.0
C4407 C 0.60127 0.76974 0.94534 0.0
C4408 C 0.57815 0.73129 0.97075 0.0
H4409 H 0.57538 0.73168 0.01804 0.0
C4410 C 0.57446 0.71128 0.9644 0.0
C4411 C 0.57811 0.7388 0.99024 0.0
C4412 C 0.58101 0.76019 0.99768 0.0
C4413 C 0.57111 0.69851 0.97714 0.0
C4414 C 0.5718 0.70603 0.99673 0.0
C4415 C 0.57508 0.72603 1.00302 0.0
C4416 C 0.56917 0.6933 0.01088 0.0
C4417 C 0.56667 0.67709 0.96951 0.0
C4418 C 0.55472 0.69312 0.02203 0.0
C4419 C 0.55153 0.68007 0.03446 0.0
C4420 C 0.56277 0.66707 0.03585 0.0
C4421 C 0.57774 0.66801 0.02538 0.0
C4422 C 0.58094 0.68106 0.01303 0.0
H4423 H 0.56211 0.6739 0.95417 0.0
H4424 H 0.57874 0.67108 0.97136 0.0
H4425 H 0.55615 0.66959 0.97727 0.0
H4426 H 0.54559 0.70261 0.02063 0.0
H4427 H 0.53985 0.67953 0.04228 0.0
H4428 H 0.05675 0.79612 0.72636 0.0
H4429 H 0.08548 0.79384 0.7413 0.0
H4430 H 0.09909 0.76653 0.68746 0.0
H4431 H 0.07063 0.76892 0.67246 0.0
H4432 H 0.09626 0.75897 0.74216 0.0
H4433 H 0.14415 0.80727 0.70742 0.0
H4434 H 0.12085 0.80817 0.70731 0.0
H4435 H 0.12808 0.79 0.69096 0.0
C4436 C 0.06603 0.78998 0.71768 0.0
C4437 C 0.06149 0.7827 0.69827 0.0
C4438 C 0.08238 0.78865 0.72622 0.0
C4439 C 0.09444 0.78021 0.71543 0.0
C4440 C 0.09011 0.77344 0.69596 0.0
H4441 H 0.17601 0.72122 0.74338 0.0
H4442 H 0.14838 0.73064 0.73407 0.0
C4443 C 0.0738 0.77473 0.68744 0.0
C4444 C 0.1109 0.77693 0.72467 0.0
H4445 H 0.15591 0.78481 0.72294 0.0
C4446 C 0.10934 0.76481 0.73816 0.0
C4447 C 0.12791 0.78466 0.71946 0.0
C4448 C 0.13041 0.7984 0.70563 0.0
C4449 C 0.12433 0.75964 0.7461 0.0
C4450 C 0.14122 0.76664 0.74023 0.0
C4451 C 0.14287 0.77933 0.72726 0.0
C4452 C 0.15735 0.76068 0.74705 0.0
C4453 C 0.12198 0.74665 0.76063 0.0
C4454 C 0.17147 0.77447 0.7574 0.0
C4455 C 0.18719 0.76913 0.76281 0.0
C4456 C 0.18915 0.74992 0.75775 0.0
C4457 C 0.17482 0.73606 0.74769 0.0
C4458 C 0.15906 0.74142 0.74234 0.0
H4459 H 0.10911 0.74645 0.76699 0.0
H4460 H 0.1222 0.73171 0.75371 0.0
H4461 H 0.13297 0.75131 0.77214 0.0
H4462 H 0.17036 0.78941 0.76115 0.0
H4463 H 0.19789 0.7801 0.7708 0.0
H4464 H 0.10995 0.38274 0.39645 0.0
H4465 H 0.10732 0.41546 0.40981 0.0
H4466 H 0.0925 0.39703 0.46196 0.0
H4467 H 0.09449 0.36403 0.44839 0.0
H4468 H 0.06914 0.4152 0.44835 0.0
H4469 H 0.13708 0.45858 0.44826 0.0
H4470 H 0.12871 0.44432 0.42546 0.0
H4471 H 0.13246 0.4326 0.4451 0.0
C4472 C 0.10646 0.38574 0.41089 0.0
C4473 C 0.10231 0.37089 0.42139 0.0
C4474 C 0.1051 0.40448 0.41855 0.0
C4475 C 0.09992 0.40869 0.43693 0.0
C4476 C 0.09656 0.39403 0.44774 0.0
H4477 H 0.09474 0.51785 0.5027 0.0
H4478 H 0.10378 0.48906 0.48696 0.0
C4479 C 0.0977 0.37523 0.44001 0.0
C4480 C 0.0961 0.4278 0.44408 0.0
H4481 H 0.11372 0.4761 0.45232 0.0
C4482 C 0.07892 0.42852 0.44934 0.0
C4483 C 0.10892 0.44509 0.44538 0.0
C4484 C 0.12787 0.44514 0.44093 0.0
C4485 C 0.07416 0.44609 0.45591 0.0
C4486 C 0.08677 0.46344 0.45657 0.0
C4487 C 0.10399 0.46275 0.45139 0.0
C4488 C 0.08272 0.48229 0.4642 0.0
C4489 C 0.05585 0.44585 0.46262 0.0
C4490 C 0.06834 0.48847 0.45612 0.0
C4491 C 0.06285 0.50473 0.46534 0.0
C4492 C 0.07183 0.51508 0.48262 0.0
C4493 C 0.0872 0.50982 0.4897 0.0
C4494 C 0.09252 0.49348 0.48063 0.0
H4495 H 0.04954 0.43144 0.46548 0.0
H4496 H 0.05644 0.45668 0.47575 0.0
H4497 H 0.04717 0.44941 0.4515 0.0
H4498 H 0.06092 0.48024 0.44314 0.0
H4499 H 0.05113 0.50862 0.45939 0.0
H4500 H 0.46484 0.31012 0.1845 0.0
H4501 H 0.43591 0.30863 0.19744 0.0
H4502 H 0.44522 0.26281 0.22601 0.0
H4503 H 0.47432 0.26465 0.21364 0.0
H4504 H 0.40864 0.27794 0.19001 0.0
H4505 H 0.42684 0.29651 0.26739 0.0
H4506 H 0.44299 0.30069 0.25043 0.0
H4507 H 0.43641 0.27709 0.25636 0.0
C4508 C 0.46086 0.30004 0.19389 0.0
C4509 C 0.47181 0.28754 0.19814 0.0
C4510 C 0.44435 0.29917 0.20121 0.0
C4511 C 0.43852 0.28576 0.21284 0.0
C4512 C 0.44964 0.2736 0.21746 0.0
H4513 H 0.33954 0.24453 0.25902 0.0
H4514 H 0.36968 0.24935 0.24851 0.0
C4515 C 0.46623 0.2746 0.21031 0.0
C4516 C 0.42027 0.28336 0.21884 0.0
H4517 H 0.39663 0.28092 0.25733 0.0
C4518 C 0.40598 0.27897 0.20478 0.0
C4519 C 0.41687 0.28447 0.23808 0.0
C4520 C 0.43161 0.29014 0.25393 0.0
C4521 C 0.38832 0.27533 0.20942 0.0
C4522 C 0.38494 0.27631 0.22867 0.0
C4523 C 0.39924 0.2805 0.24266 0.0
C4524 C 0.36668 0.2732 0.23466 0.0
C4525 C 0.3735 0.26984 0.19365 0.0
C4526 C 0.3551 0.28502 0.23038 0.0
C4527 C 0.33795 0.28218 0.23626 0.0
C4528 C 0.33243 0.26804 0.24719 0.0
C4529 C 0.34385 0.25598 0.25117 0.0
C4530 C 0.36095 0.25866 0.24512 0.0
H4531 H 0.37827 0.26424 0.17991 0.0
H4532 H 0.36243 0.25872 0.19687 0.0
H4533 H 0.36819 0.28279 0.19195 0.0
H4534 H 0.35935 0.29651 0.22257 0.0
H4535 H 0.32913 0.29111 0.2323 0.0
H4536 H 0.62424 0.4972 0.31898 0.0
H4537 H 0.61027 0.50054 0.34911 0.0
H4538 H 0.65613 0.54325 0.37515 0.0
H4539 H 0.66999 0.54003 0.34511 0.0
H4540 H 0.61768 0.49431 0.38459 0.0
H4541 H 0.6192 0.57237 0.39302 0.0
H4542 H 0.6241 0.55862 0.37127 0.0
H4543 H 0.64081 0.56678 0.391 0.0
C4544 C 0.63141 0.5074 0.33105 0.0
C4545 C 0.64843 0.51837 0.32908 0.0
C4546 C 0.62332 0.50932 0.34855 0.0
C4547 C 0.63167 0.5225 0.36499 0.0
C4548 C 0.64878 0.5333 0.36303 0.0
H4549 H 0.60199 0.55908 0.4832 0.0
H4550 H 0.61613 0.55506 0.45338 0.0
C4551 C 0.6569 0.53131 0.3456 0.0
C4552 C 0.62276 0.52465 0.38398 0.0
H4553 H 0.61107 0.55775 0.41934 0.0
C4554 C 0.61622 0.50826 0.39202 0.0
C4555 C 0.62064 0.54269 0.39443 0.0
C4556 C 0.62639 0.56111 0.38695 0.0
C4557 C 0.60837 0.50934 0.40975 0.0
C4558 C 0.60602 0.52738 0.42013 0.0
C4559 C 0.61255 0.54377 0.41201 0.0
C4560 C 0.59707 0.52965 0.43918 0.0
C4561 C 0.60343 0.49092 0.41743 0.0
C4562 C 0.58119 0.51709 0.44218 0.0
C4563 C 0.5732 0.51918 0.45968 0.0
C4564 C 0.5802 0.53432 0.47511 0.0
C4565 C 0.59589 0.54713 0.47205 0.0
C4566 C 0.60408 0.54484 0.45464 0.0
H4567 H 0.61155 0.48037 0.41191 0.0
H4568 H 0.60528 0.49362 0.43314 0.0
H4569 H 0.5893 0.48416 0.41278 0.0
H4570 H 0.57463 0.5056 0.43085 0.0
H4571 H 0.56134 0.5088 0.461 0.0
H4572 H 0.29114 0.8807 0.06837 0.0
H4573 H 0.29293 0.86739 0.09749 0.0
H4574 H 0.32965 0.91934 0.12473 0.0
H4575 H 0.32809 0.9327 0.09567 0.0
H4576 H 0.32827 0.8641 0.11412 0.0
H4577 H 0.29144 0.90657 0.16381 0.0
H4578 H 0.28722 0.90315 0.13835 0.0
H4579 H 0.30658 0.91996 0.15018 0.0
C4580 C 0.29941 0.88938 0.08065 0.0
C4581 C 0.30957 0.90767 0.07978 0.0
C4582 C 0.30036 0.88179 0.09724 0.0
C4583 C 0.31125 0.89252 0.11322 0.0
C4584 C 0.32096 0.91102 0.11258 0.0
H4585 H 0.35197 0.87602 0.22153 0.0
H4586 H 0.34147 0.88854 0.19438 0.0
C4587 C 0.32016 0.91854 0.09596 0.0
C4588 C 0.31415 0.88362 0.12984 0.0
H4589 H 0.309 0.88747 0.17707 0.0
C4590 C 0.3239 0.869 0.12786 0.0
C4591 C 0.30855 0.8903 0.14766 0.0
C4592 C 0.29775 0.90578 0.15023 0.0
C4593 C 0.32882 0.86127 0.14348 0.0
C4594 C 0.32329 0.86796 0.16144 0.0
C4595 C 0.3132 0.88237 0.16331 0.0
C4596 C 0.32836 0.86053 0.17849 0.0
C4597 C 0.34054 0.84664 0.14067 0.0
C4598 C 0.32406 0.84073 0.17876 0.0
C4599 C 0.33051 0.83348 0.19392 0.0
C4600 C 0.34095 0.84595 0.20947 0.0
C4601 C 0.34436 0.86594 0.20963 0.0
C4602 C 0.33818 0.87315 0.19423 0.0
H4603 H 0.34765 0.84732 0.12766 0.0
H4604 H 0.35056 0.84886 0.15295 0.0
H4605 H 0.33217 0.83193 0.13912 0.0
H4606 H 0.31611 0.83079 0.16698 0.0
H4607 H 0.32772 0.818 0.19309 0.0
H4608 H 0.94008 0.56656 0.87158 0.0
H4609 H 0.9612 0.56314 0.89688 0.0
H4610 H 0.99973 0.5549 0.85646 0.0
H4611 H 0.97875 0.5583 0.83108 0.0
H4612 H 0.97754 0.52814 0.89496 0.0
H4613 H 0.02594 0.59829 0.90242 0.0
H4614 H 1.00323 0.59508 0.8926 0.0
H4615 H 0.01885 0.58456 0.87896 0.0
C4616 C 0.95313 0.56428 0.86815 0.0
C4617 C 0.95781 0.56269 0.84942 0.0
C4618 C 0.96512 0.56226 0.88254 0.0
C4619 C 0.98194 0.55882 0.87841 0.0
C4620 C 0.98682 0.55769 0.85984 0.0
H4621 H 0.04814 0.52446 0.96559 0.0
H4622 H 0.03673 0.52675 0.93355 0.0
C4623 C 0.97482 0.55961 0.84542 0.0
C4624 C 0.99405 0.55563 0.89349 0.0
H4625 H 0.03097 0.57755 0.92327 0.0
C4626 C 0.98939 0.53875 0.90101 0.0
C4627 C 0.00946 0.56956 0.90113 0.0
C4628 C 0.01474 0.58798 0.8935 0.0
C4629 C 0.99942 0.53579 0.91665 0.0
C4630 C 0.01445 0.55006 0.92476 0.0
C4631 C 0.01953 0.56658 0.91675 0.0
C4632 C 0.02304 0.54963 0.94337 0.0
C4633 C 0.99333 0.51803 0.92513 0.0
C4634 C 0.01929 0.56197 0.95917 0.0
C4635 C 0.02556 0.56058 0.97724 0.0
C4636 C 0.03581 0.54692 0.97979 0.0
C4637 C 0.04021 0.53506 0.9639 0.0
C4638 C 0.03374 0.53634 0.94571 0.0
H4639 H 0.98069 0.50892 0.91776 0.0
H4640 H 1.00371 0.50924 0.92424 0.0
H4641 H 0.9914 0.52224 0.94035 0.0
H4642 H 0.01102 0.57228 0.95754 0.0
H4643 H 0.0222 0.57009 0.98926 0.0
H4644 H 0.27347 0.23693 0.56439 0.0
H4645 H 0.27296 0.25281 0.59734 0.0
H4646 H 0.31519 0.22619 0.61464 0.0
H4647 H 0.31573 0.21026 0.5819 0.0
H4648 H 0.26635 0.23198 0.62809 0.0
H4649 H 0.33128 0.28381 0.64055 0.0
H4650 H 0.32065 0.27337 0.61708 0.0
H4651 H 0.3325 0.25967 0.62996 0.0
C4652 C 0.28283 0.23473 0.57519 0.0
C4653 C 0.29464 0.22236 0.57059 0.0
C4654 C 0.2825 0.24377 0.59398 0.0
C4655 C 0.29417 0.24084 0.60837 0.0
C4656 C 0.30628 0.22891 0.6037 0.0
H4657 H 0.28974 0.24086 0.72635 0.0
H4658 H 0.28613 0.23415 0.69176 0.0
C4659 C 0.3065 0.21973 0.585 0.0
C4660 C 0.2928 0.24886 0.62849 0.0
H4661 H 0.31691 0.27694 0.66803 0.0
C4662 C 0.27728 0.24206 0.63679 0.0
C4663 C 0.30703 0.26206 0.63976 0.0
C4664 C 0.32377 0.27032 0.63139 0.0
C4665 C 0.2759 0.24743 0.65627 0.0
C4666 C 0.29049 0.2599 0.66779 0.0
C4667 C 0.30571 0.26739 0.65927 0.0
C4668 C 0.29086 0.26417 0.6888 0.0
C4669 C 0.25888 0.23938 0.66426 0.0
C4670 C 0.29499 0.2833 0.69876 0.0
C4671 C 0.29725 0.28714 0.71861 0.0
C4672 C 0.29521 0.2719 0.72877 0.0
C4673 C 0.29089 0.25284 0.71881 0.0
C4674 C 0.28874 0.249 0.69905 0.0
H4675 H 0.24731 0.23657 0.65352 0.0
H4676 H 0.25988 0.22543 0.66846 0.0
H4677 H 0.25636 0.2493 0.67686 0.0
H4678 H 0.29691 0.29524 0.69117 0.0
H4679 H 0.30116 0.30196 0.72597 0.0
H4680 H 0.66796 0.51421 0.20373 0.0
H4681 H 0.65294 0.51804 0.174 0.0
H4682 H 0.6046 0.51915 0.20128 0.0
H4683 H 0.61971 0.51566 0.23107 0.0
H4684 H 0.62711 0.49846 0.1492 0.0
H4685 H 0.60301 0.56421 0.17707 0.0
H4686 H 0.61836 0.55498 0.19102 0.0
H4687 H 0.59487 0.5447 0.18901 0.0
C4688 C 0.65412 0.51529 0.20354 0.0
C4689 C 0.64532 0.5146 0.22032 0.0
C4690 C 0.64538 0.51752 0.18626 0.0
C4691 C 0.62738 0.51942 0.18477 0.0
C4692 C 0.61851 0.51842 0.20151 0.0
H4693 H 0.55356 0.53036 0.0855 0.0
H4694 H 0.56609 0.52752 0.11716 0.0
C4695 C 0.62724 0.51615 0.21879 0.0
C4696 C 0.61804 0.52188 0.16581 0.0
H4697 H 0.59205 0.54886 0.14558 0.0
C4698 C 0.61955 0.50962 0.14863 0.0
C4699 C 0.60781 0.53625 0.16421 0.0
C4700 C 0.60602 0.55092 0.18125 0.0
C4701 C 0.61131 0.51103 0.13072 0.0
C4702 C 0.60124 0.52549 0.12908 0.0
C4703 C 0.59954 0.53766 0.14625 0.0
C4704 C 0.59317 0.52849 0.10976 0.0
C4705 C 0.61318 0.49641 0.11366 0.0
C4706 C 0.60381 0.53077 0.09455 0.0
C4707 C 0.59665 0.53255 0.07648 0.0
C4708 C 0.57841 0.53245 0.07242 0.0
C4709 C 0.56766 0.53076 0.08773 0.0
C4710 C 0.57493 0.52901 0.10602 0.0
H4711 H 0.61576 0.48293 0.11782 0.0
H4712 H 0.60105 0.49269 0.10359 0.0
H4713 H 0.62466 0.50248 0.10624 0.0
H4714 H 0.61791 0.5311 0.09655 0.0
H4715 H 0.60558 0.53382 0.0654 0.0
H4716 H 0.31872 0.8674 0.99435 0.0
H4717 H 0.31995 0.8453 0.96478 0.0
H4718 H 0.29157 0.87837 0.93404 0.0
H4719 H 0.29013 0.90042 0.9635 0.0
H4720 H 0.28046 0.83692 0.92325 0.0
H4721 H 0.35365 0.86398 0.92508 0.0
H4722 H 0.3455 0.8552 0.94566 0.0
H4723 H 0.33975 0.87663 0.93972 0.0
C4724 C 0.31253 0.8698 0.98132 0.0
C4725 C 0.30445 0.8857 0.98115 0.0
C4726 C 0.3133 0.85722 0.96448 0.0
C4727 C 0.30605 0.86042 0.94731 0.0
C4728 C 0.29725 0.87574 0.94722 0.0
H4729 H 0.32311 0.84059 0.83247 0.0
H4730 H 0.32267 0.85132 0.8664 0.0
C4731 C 0.29647 0.88832 0.96403 0.0
C4732 C 0.30853 0.84867 0.92917 0.0
H4733 H 0.3398 0.84149 0.89835 0.0
C4734 C 0.29343 0.83762 0.91786 0.0
C4735 C 0.32551 0.84989 0.92227 0.0
C4736 C 0.34206 0.86214 0.93369 0.0
C4737 C 0.29479 0.82819 0.89945 0.0
C4738 C 0.31173 0.82974 0.89241 0.0
C4739 C 0.32689 0.84025 0.90397 0.0
C4740 C 0.31368 0.82264 0.87235 0.0
C4741 C 0.27804 0.81753 0.8873 0.0
C4742 C 0.30928 0.8029 0.86466 0.0
C4743 C 0.30952 0.79668 0.84522 0.0
C4744 C 0.31408 0.81017 0.83327 0.0
C4745 C 0.31938 0.82985 0.84124 0.0
C4746 C 0.31916 0.83602 0.86063 0.0
H4747 H 0.26583 0.82023 0.89392 0.0
H4748 H 0.27787 0.82185 0.87317 0.0
H4749 H 0.27764 0.8018 0.88508 0.0
H4750 H 0.30532 0.79237 0.87361 0.0
H4751 H 0.30576 0.78139 0.83953 0.0
H4752 H 0.96554 0.57547 0.7633 0.0
H4753 H 0.98065 0.56887 0.73461 0.0
H4754 H 0.93484 0.52555 0.70911 0.0
H4755 H 0.9195 0.53202 0.73788 0.0
H4756 H 0.98032 0.52204 0.71717 0.0
H4757 H 0.95682 0.57004 0.67237 0.0
H4758 H 0.95992 0.57722 0.69784 0.0
H4759 H 0.94215 0.55764 0.68726 0.0
C4760 C 0.95856 0.56472 0.75151 0.0
C4761 C 0.94137 0.5542 0.75281 0.0
C4762 C 0.96721 0.56099 0.73518 0.0
C4763 C 0.95878 0.54678 0.71992 0.0
C4764 C 0.94144 0.53663 0.72084 0.0
H4765 H 1.00329 0.51643 0.61275 0.0
H4766 H 0.98272 0.51946 0.63738 0.0
C4767 C 0.93273 0.54034 0.73722 0.0
C4768 C 0.96875 0.54179 0.7036 0.0
H4769 H 0.97923 0.55399 0.66116 0.0
C4770 C 0.98 0.52883 0.7048 0.0
C4771 C 0.96812 0.5507 0.68761 0.0
C4772 C 0.95612 0.5647 0.686 0.0
C4773 C 0.99105 0.52482 0.69044 0.0
C4774 C 0.99098 0.53432 0.67476 0.0
C4775 C 0.97927 0.54682 0.67329 0.0
C4776 C 1.00342 0.53199 0.66005 0.0
C4777 C 1.00277 0.51055 0.69221 0.0
C4778 C 0.02182 0.53814 0.66473 0.0
C4779 C 0.03359 0.53651 0.65072 0.0
C4780 C 0.0271 0.52883 0.6318 0.0
C4781 C 0.00864 0.52259 0.6272 0.0
C4782 C 0.9969 0.52424 0.64122 0.0
H4783 H 0.99784 0.50084 0.70216 0.0
H4784 H 1.00357 0.50161 0.67822 0.0
H4785 H 0.01641 0.51851 0.69775 0.0
H4786 H 0.02705 0.54452 0.67917 0.0
H4787 H 0.04772 0.54171 0.65461 0.0
H4788 H 0.27764 0.18363 0.44917 0.0
H4789 H 0.27859 0.19545 0.41921 0.0
H4790 H 0.30831 0.2509 0.44817 0.0
H4791 H 0.30749 0.23912 0.47834 0.0
H4792 H 0.26581 0.2287 0.41051 0.0
H4793 H 0.33832 0.23435 0.40394 0.0
H4794 H 0.32642 0.22024 0.4196 0.0
H4795 H 0.33205 0.24605 0.42595 0.0
C4796 C 0.28441 0.19834 0.44919 0.0
C4797 C 0.29255 0.21044 0.4661 0.0
C4798 C 0.28491 0.20507 0.43207 0.0
C4799 C 0.29365 0.22396 0.43147 0.0
C4800 C 0.3017 0.23617 0.44833 0.0
H4801 H 0.31595 0.28309 0.33681 0.0
H4802 H 0.31444 0.27371 0.36786 0.0
C4803 C 0.30116 0.22946 0.46553 0.0
C4804 C 0.29413 0.2308 0.41315 0.0
H4805 H 0.32195 0.24413 0.38011 0.0
C4806 C 0.27807 0.23213 0.40383 0.0
C4807 C 0.31016 0.23532 0.40459 0.0
C4808 C 0.32775 0.23383 0.4139 0.0
C4809 C 0.27759 0.23807 0.3862 0.0
C4810 C 0.29359 0.24216 0.37735 0.0
C4811 C 0.30968 0.24094 0.38681 0.0
C4812 C 0.29405 0.2479 0.35841 0.0
C4813 C 0.26001 0.24034 0.37754 0.0
C4814 C 0.2832 0.23646 0.34263 0.0
C4815 C 0.28374 0.24205 0.3249 0.0
C4816 C 0.29557 0.25886 0.32251 0.0
C4817 C 0.30674 0.27001 0.33818 0.0
C4818 C 0.30589 0.26467 0.35596 0.0
H4819 H 0.25063 0.24279 0.3885 0.0
H4820 H 0.26175 0.25255 0.36971 0.0
H4821 H 0.25378 0.22691 0.3675 0.0
H4822 H 0.27439 0.22311 0.34396 0.0
H4823 H 0.27514 0.23308 0.313 0.0
H4824 H 0.34712 0.62747 0.50135 0.0
H4825 H 0.36839 0.60622 0.49941 0.0
H4826 H 0.34568 0.58097 0.54535 0.0
H4827 H 0.32393 0.60178 0.54693 0.0
H4828 H 0.39365 0.60243 0.52508 0.0
H4829 H 0.34367 0.53372 0.50517 0.0
H4830 H 0.33809 0.55694 0.5051 0.0
H4831 H 0.34034 0.5483 0.527 0.0
C4832 C 0.34668 0.6174 0.51106 0.0
C4833 C 0.33382 0.61612 0.52419 0.0
C4834 C 0.35882 0.60528 0.50993 0.0
C4835 C 0.35836 0.59176 0.52198 0.0
C4836 C 0.34592 0.59093 0.53557 0.0
H4837 H 0.44385 0.53219 0.53878 0.0
H4838 H 0.42051 0.55081 0.54317 0.0
C4839 C 0.33361 0.6029 0.53655 0.0
C4840 C 0.37102 0.57868 0.52028 0.0
H4841 H 0.37364 0.53119 0.51137 0.0
C4842 C 0.38928 0.58686 0.52209 0.0
C4843 C 0.36524 0.55837 0.51612 0.0
C4844 C 0.34577 0.54878 0.51305 0.0
C4845 C 0.40195 0.57527 0.51995 0.0
C4846 C 0.39618 0.55498 0.51631 0.0
C4847 C 0.37795 0.54677 0.51436 0.0
C4848 C 0.40898 0.54212 0.51415 0.0
C4849 C 0.42139 0.58482 0.5212 0.0
C4850 C 0.40964 0.53044 0.49659 0.0
C4851 C 0.42293 0.51973 0.49405 0.0
C4852 C 0.43569 0.52062 0.50906 0.0
C4853 C 0.43434 0.53151 0.5269 0.0
C4854 C 0.42107 0.54215 0.52942 0.0
H4855 H 0.42327 0.60019 0.51965 0.0
H4856 H 0.42782 0.58429 0.53523 0.0
H4857 H 0.42831 0.57717 0.51011 0.0
H4858 H 0.40032 0.53021 0.48468 0.0
H4859 H 0.42374 0.51155 0.48014 0.0
H4860 H 0.86959 0.90176 0.53435 0.0
H4861 H 0.89993 0.92057 0.53505 0.0
H4862 H 0.88127 0.97319 0.55141 0.0
H4863 H 0.85083 0.95451 0.55061 0.0
H4864 H 0.90916 0.95333 0.51245 0.0
H4865 H 0.92589 0.97442 0.59048 0.0
H4866 H 0.90921 0.95328 0.58004 0.0
H4867 H 0.90455 0.97684 0.58077 0.0
C4868 C 0.87196 0.91733 0.53823 0.0
C4869 C 0.85784 0.92667 0.54243 0.0
C4870 C 0.88928 0.92803 0.53861 0.0
C4871 C 0.89281 0.94822 0.54342 0.0
C4872 C 0.8788 0.95759 0.54786 0.0
H4873 H 0.99238 0.03377 0.55613 0.0
H4874 H 0.96196 0.01667 0.55814 0.0
C4875 C 0.86144 0.94691 0.54733 0.0
C4876 C 0.91101 0.95948 0.54289 0.0
H4877 H 0.94753 0.98622 0.57097 0.0
C4878 C 0.9176 0.96054 0.52522 0.0
C4879 C 0.92178 0.96908 0.55957 0.0
C4880 C 0.91514 0.96838 0.57886 0.0
C4881 C 0.93473 0.97104 0.52372 0.0
C4882 C 0.94587 0.98009 0.54045 0.0
C4883 C 0.93911 0.9792 0.55816 0.0
C4884 C 0.96457 0.99035 0.53984 0.0
C4885 C 0.94043 0.97269 0.50418 0.0
C4886 C 0.97642 0.98114 0.52944 0.0
C4887 C 0.99356 0.99115 0.52774 0.0
C4888 C 0.99951 0.01044 0.53689 0.0
C4889 C 0.98809 0.0192 0.54843 0.0
C4890 C 0.97071 1.00934 0.54971 0.0
H4891 H 0.92877 0.97093 0.49376 0.0
H4892 H 0.94934 0.98682 0.5041 0.0
H4893 H 0.94761 0.96105 0.49931 0.0
H4894 H 0.97235 0.96623 0.52243 0.0
H4895 H 1.00215 0.98372 0.51915 0.0
H4896 H 0.9277 0.14158 0.28113 0.0
H4897 H 0.91243 0.16857 0.28045 0.0
H4898 H 0.8619 0.12869 0.27165 0.0
H4899 H 0.87713 0.10179 0.27238 0.0
H4900 H 0.89192 0.18034 0.25527 0.0
H4901 H 0.84895 0.1669 0.31273 0.0
H4902 H 0.86694 0.15456 0.30791 0.0
H4903 H 0.8459 0.14648 0.29384 0.0
C4904 C 0.91331 0.13841 0.27915 0.0
C4905 C 0.90395 0.11897 0.27696 0.0
C4906 C 0.90443 0.15411 0.2787 0.0
C4907 C 0.88559 0.15143 0.27634 0.0
C4908 C 0.87626 0.13196 0.27402 0.0
H4909 H 0.82671 0.23906 0.24116 0.0
H4910 H 0.84075 0.21141 0.24287 0.0
C4911 C 0.88515 0.11625 0.2743 0.0
C4912 C 0.87596 0.16867 0.27593 0.0
H4913 H 0.84257 0.19016 0.2949 0.0
C4914 C 0.88114 0.18228 0.26402 0.0
C4915 C 0.8618 0.17218 0.28732 0.0
C4916 C 0.85564 0.1594 0.30132 0.0
C4917 C 0.87271 0.19828 0.2629 0.0
C4918 C 0.85827 0.20149 0.27391 0.0
C4919 C 0.85334 0.18816 0.28614 0.0
C4920 C 0.84847 0.21848 0.27303 0.0
C4921 C 0.87977 0.212 0.25004 0.0
C4922 C 0.84716 0.23224 0.2893 0.0
C4923 C 0.83893 0.24835 0.28828 0.0
C4924 C 0.83094 0.25124 0.27105 0.0
C4925 C 0.83213 0.23741 0.25486 0.0
C4926 C 0.84049 0.22146 0.25582 0.0
H4927 H 0.89352 0.21101 0.24667 0.0
H4928 H 0.87115 0.20832 0.23653 0.0
H4929 H 0.87975 0.22714 0.25656 0.0
H4930 H 0.85304 0.23091 0.3029 0.0
H4931 H 0.83922 0.25886 0.30104 0.0
H4932 H 0.74276 0.08329 0.02772 0.0
H4933 H 0.71035 0.07234 0.02758 0.0
H4934 H 0.70281 0.12802 0.01821 0.0
H4935 H 0.73481 0.139 0.01835 0.0
H4936 H 0.68559 0.11335 0.04983 0.0
H4937 H 0.67156 0.06194 0.98094 0.0
H4938 H 0.68941 0.05998 0.99726 0.0
H4939 H 0.69141 0.08075 0.98616 0.0
C4940 C 0.73413 0.09307 0.02546 0.0
C4941 C 0.74128 0.11198 0.02309 0.0
C4942 C 0.71569 0.08682 0.02536 0.0
C4943 C 0.7043 0.09942 0.02286 0.0
C4944 C 0.71143 0.11814 0.0202 0.0
H4945 H 0.59469 0.10941 0.0222 0.0
H4946 H 0.62724 0.11466 0.0256 0.0
C4947 C 0.72972 0.12435 0.02026 0.0
C4948 C 0.68492 0.09365 0.02358 0.0
H4949 H 0.64712 0.06755 0.99755 0.0
C4950 C 0.67712 0.10314 0.03854 0.0
C4951 C 0.67405 0.0804 0.00882 0.0
C4952 C 0.68191 0.07018 0.99228 0.0
C4953 C 0.65861 0.09999 0.03901 0.0
C4954 C 0.64761 0.08724 0.02387 0.0
C4955 C 0.65551 0.07731 0.00917 0.0
C4956 C 0.62793 0.0843 0.02258 0.0
C4957 C 0.65124 0.11056 0.05571 0.0
C4958 C 0.61751 0.06553 0.01899 0.0
C4959 C 0.59904 0.06257 0.0164 0.0
C4960 C 0.59059 0.07831 0.01803 0.0
C4961 C 0.60094 0.09708 0.02142 0.0
C4962 C 0.61949 0.10006 0.02354 0.0
H4963 H 0.66019 0.11253 0.06885 0.0
H4964 H 0.65031 0.12511 0.05306 0.0
H4965 H 0.63786 0.1029 0.05814 0.0
H4966 H 0.62367 0.05312 0.01789 0.0
H4967 H 0.59138 0.04793 0.01284 0.0
H4968 H 0.20994 0.47694 0.27465 0.0
H4969 H 0.2246 0.45019 0.27682 0.0
H4970 H 0.25484 0.46311 0.23004 0.0
H4971 H 0.24012 0.49019 0.22774 0.0
H4972 H 0.22659 0.41707 0.24607 0.0
H4973 H 0.29177 0.46448 0.27636 0.0
H4974 H 0.27148 0.47353 0.27701 0.0
H4975 H 0.28099 0.46849 0.25496 0.0
C4976 C 0.2197 0.47414 0.2648 0.0
C4977 C 0.22401 0.48571 0.25112 0.0
C4978 C 0.22797 0.45878 0.26598 0.0
C4979 C 0.24073 0.45475 0.25358 0.0
C4980 C 0.24502 0.46611 0.23974 0.0
H4981 H 0.30642 0.37849 0.28928 0.0
H4982 H 0.29474 0.39712 0.26795 0.0
C4983 C 0.23666 0.48154 0.23849 0.0
C4984 C 0.24997 0.43915 0.25616 0.0
H4985 H 0.28724 0.43197 0.27913 0.0
C4986 C 0.24002 0.42017 0.25287 0.0
C4987 C 0.26752 0.4433 0.26483 0.0
C4988 C 0.27866 0.46353 0.26859 0.0
C4989 C 0.24677 0.4054 0.25926 0.0
C4990 C 0.26369 0.40994 0.26953 0.0
C4991 C 0.2742 0.42858 0.27137 0.0
C4992 C 0.2698 0.39652 0.28061 0.0
C4993 C 0.23546 0.38527 0.25557 0.0
C4994 C 0.25964 0.39005 0.29482 0.0
C4995 C 0.26623 0.37937 0.30698 0.0
C4996 C 0.28317 0.37507 0.30529 0.0
C4997 C 0.29322 0.38135 0.29085 0.0
C4998 C 0.2866 0.39202 0.27865 0.0
H4999 H 0.22665 0.38262 0.24223 0.0
H5000 H 0.24376 0.37419 0.25464 0.0
H5001 H 0.22682 0.38357 0.26732 0.0
H5002 H 0.24683 0.3938 0.29692 0.0
H5003 H 0.25811 0.37464 0.31783 0.0
H5004 H 0.24471 0.40175 0.02906 0.0
H5005 H 0.22084 0.41929 0.02484 0.0
H5006 H 0.25728 0.47311 0.04711 0.0
H5007 H 0.28112 0.4558 0.05124 0.0
H5008 H 0.20664 0.44603 0.0515 0.0
H5009 H 0.23814 0.47995 0.99438 0.0
H5010 H 0.24459 0.45942 1.00204 0.0
H5011 H 0.25269 0.48328 0.01558 0.0
C5012 C 0.24758 0.41731 0.03315 0.0
C5013 C 0.26482 0.42742 0.04034 0.0
C5014 C 0.23394 0.4273 0.03075 0.0
C5015 C 0.23739 0.44751 0.03537 0.0
C5016 C 0.25443 0.45754 0.04314 0.0
H5017 H 0.18343 0.54094 0.03305 0.0
H5018 H 0.20359 0.51949 0.03785 0.0
C5019 C 0.26802 0.44761 0.04556 0.0
C5020 C 0.2234 0.45833 0.03172 0.0
H5021 H 0.21422 0.49271 0.00744 0.0
C5022 C 0.20817 0.4561 0.04174 0.0
C5023 C 0.22541 0.47136 0.01888 0.0
C5024 C 0.241 0.47355 1.00695 0.0
C5025 C 0.19522 0.46717 0.03978 0.0
C5026 C 0.19755 0.48062 0.02738 0.0
C5027 C 0.21256 0.48248 0.01705 0.0
C5028 C 0.18484 0.49332 0.02518 0.0
C5029 C 0.17944 0.46487 0.0514 0.0
C5030 C 0.16762 0.48569 0.01638 0.0
C5031 C 0.15611 0.49795 0.01335 0.0
C5032 C 0.1616 0.51809 0.01908 0.0
C5033 C 0.17882 0.52558 0.02813 0.0
C5034 C 0.19034 0.51333 0.03104 0.0
H5035 H 0.18113 0.45633 0.06265 0.0
H5036 H 0.17724 0.47921 0.0581 0.0
H5037 H 0.16733 0.45736 0.04199 0.0
H5038 H 0.16323 0.4703 0.01147 0.0
H5039 H 0.14306 0.49166 1.00609 0.0
H5040 H 0.87468 0.01732 0.27213 0.0
H5041 H 0.8585 0.98405 0.27156 0.0
H5042 H 0.90816 0.96505 0.27258 0.0
H5043 H 0.92432 0.99815 0.27316 0.0
H5044 H 0.85634 0.94925 0.24604 0.0
H5045 H 0.88569 0.94186 0.31569 0.0
H5046 H 0.88772 0.96491 0.30828 0.0
H5047 H 0.90185 0.94879 0.29966 0.0
C5048 C 0.88221 1.0061 0.27225 0.0
C5049 C 0.90097 0.01076 0.27276 0.0
C5050 C 0.87288 0.98691 0.2719 0.0
C5051 C 0.88191 0.97164 0.27234 0.0
C5052 C 0.90064 0.97629 0.27265 0.0
H5053 H 0.85157 0.84727 0.27831 0.0
H5054 H 0.86675 0.88038 0.27774 0.0
C5055 C 0.90995 0.9954 0.27285 0.0
C5056 C 0.87187 0.95099 0.27223 0.0
H5057 H 0.8683 0.91347 0.29688 0.0
C5058 C 0.85894 0.94151 0.25725 0.0
C5059 C 0.87509 0.94042 0.28665 0.0
C5060 C 0.88822 0.94952 0.30358 0.0
C5061 C 0.84969 0.92206 0.256 0.0
C5062 C 0.85276 0.91147 0.27055 0.0
C5063 C 0.86566 0.92108 0.28559 0.0
C5064 C 0.84307 0.89059 0.27043 0.0
C5065 C 0.83727 0.91291 0.23853 0.0
C5066 C 0.8244 0.88446 0.26666 0.0
C5067 C 0.81564 0.86515 0.26657 0.0
C5068 C 0.825 0.85112 0.27082 0.0
C5069 C 0.84363 0.85733 0.27493 0.0
C5070 C 0.85244 0.87654 0.27467 0.0
H5071 H 0.84096 0.92005 0.22632 0.0
H5072 H 0.83727 0.89732 0.23441 0.0
H5073 H 0.82356 0.91456 0.24135 0.0
H5074 H 0.81638 0.89468 0.26401 0.0
H5075 H 0.80141 0.86134 0.26338 0.0
H5076 H 0.74517 0.08958 0.78273 0.0
H5077 H 0.76006 0.12366 0.78895 0.0
H5078 H 0.7406 0.12936 0.73326 0.0
H5079 H 0.72562 0.09532 0.72689 0.0
H5080 H 0.7789 0.14896 0.74796 0.0
H5081 H 0.72632 0.16454 0.79515 0.0
H5082 H 0.73754 0.14558 0.79898 0.0
H5083 H 0.72324 0.14267 0.77772 0.0
C5084 C 0.74434 0.098 0.77167 0.0
C5085 C 0.7341 0.08991 0.75439 0.0
C5086 C 0.75282 0.11742 0.77527 0.0
C5087 C 0.7512 0.1289 0.76162 0.0
C5088 C 0.74192 0.12061 0.74394 0.0
H5089 H 0.75142 0.24845 0.7711 0.0
H5090 H 0.74599 0.21317 0.76408 0.0
C5091 C 0.73338 0.10122 0.74034 0.0
C5092 C 0.75777 0.1499 0.76625 0.0
H5093 H 0.74757 0.19094 0.79002 0.0
C5094 C 0.77222 0.15823 0.75727 0.0
C5095 C 0.74886 0.16173 0.77835 0.0
C5096 C 0.73306 0.1533 0.78809 0.0
C5097 C 0.7778 0.17832 0.75971 0.0
C5098 C 0.76861 0.19026 0.77143 0.0
C5099 C 0.75447 0.18178 0.78086 0.0
C5100 C 0.77275 0.21156 0.77361 0.0
C5101 C 0.79287 0.18649 0.74899 0.0
C5102 C 0.78964 0.22235 0.78102 0.0
C5103 C 0.7928 0.24248 0.7847 0.0
C5104 C 0.77906 0.25208 0.78121 0.0
C5105 C 0.76223 0.24131 0.7737 0.0
C5106 C 0.75915 0.22122 0.76974 0.0
H5107 H 0.79584 0.17552 0.73745 0.0
H5108 H 0.78948 0.19847 0.74276 0.0
H5109 H 0.80507 0.19217 0.75881 0.0
H5110 H 0.80018 0.21526 0.78468 0.0
H5111 H 0.80576 0.25045 0.791 0.0
loop_
_geom_bond_atom_site_label_1
_geom_bond_atom_site_label_2
_geom_bond_distance
_geom_bond_site_symmetry_2
_ccdc_geom_bond_type
In0 O1 2.294 . S
In0 O2 2.326 . S
In0 O6 2.266 . S
In0 O7 2.326 . S
In0 O8 2.266 . S
In0 O9 2.326 . S
In0 O11 2.294 . S
In0 O12 2.326 . S
O1 In0 2.294 . S
O1 C10 1.240 . S
O2 In0 2.326 . S
O2 C10 1.252 . S
C3 O6 1.252 . S
C3 O7 1.260 . S
C4 O11 1.240 . S
C4 O12 1.252 . S
C5 O8 1.252 . S
C5 O9 1.260 . S
O6 In0 2.266 . S
O6 C3 1.252 . S
O7 In0 2.326 . S
O7 C3 1.260 . S
O8 In0 2.266 . S
O8 C5 1.252 . S
O9 In0 2.326 . S
O9 C5 1.260 . S
C10 O1 1.240 . S
C10 O2 1.252 . S
O11 In0 2.294 . S
O11 C4 1.240 . S
O12 In0 2.326 . S
O12 C4 1.252 . S
In13 O14 2.295 . S
In13 O15 2.326 . S
In13 O19 2.266 1_455 S
In13 O20 2.326 1_455 S
In13 O21 2.260 1_455 S
In13 O22 2.317 1_455 S
In13 O24 2.299 . S
In13 O25 2.335 . S
O14 In13 2.295 . S
O14 C23 1.240 . S
O15 In13 2.326 . S
O15 C23 1.252 . S
C16 O19 1.252 . S
C16 O20 1.260 . S
C17 O24 1.240 . S
C17 O25 1.252 . S
C18 O21 1.252 . S
C18 O22 1.260 . S
O19 In13 2.266 1_655 S
O19 C16 1.252 . S
O20 In13 2.326 1_655 S
O20 C16 1.260 . S
O21 In13 2.260 1_655 S
O21 C18 1.252 . S
O22 In13 2.317 1_655 S
O22 C18 1.260 . S
C23 O14 1.240 . S
C23 O15 1.252 . S
O24 In13 2.299 . S
O24 C17 1.240 . S
O25 In13 2.335 . S
O25 C17 1.252 . S
In26 O27 2.294 . S
In26 O28 2.326 . S
In26 O32 2.266 . S
In26 O33 2.326 . S
In26 O34 2.266 . S
In26 O35 2.326 . S
In26 O37 2.294 . S
In26 O38 2.326 . S
O27 In26 2.294 . S
O27 C36 1.240 . S
O28 In26 2.326 . S
O28 C36 1.252 . S
C29 O32 1.252 . S
C29 O33 1.260 . S
C30 O37 1.240 . S
C30 O38 1.252 . S
C31 O34 1.252 . S
C31 O35 1.260 . S
O32 In26 2.266 . S
O32 C29 1.252 . S
O33 In26 2.326 . S
O33 C29 1.260 . S
O34 In26 2.266 . S
O34 C31 1.252 . S
O35 In26 2.326 . S
O35 C31 1.260 . S
C36 O27 1.240 . S
C36 O28 1.252 . S
O37 In26 2.294 . S
O37 C30 1.240 . S
O38 In26 2.326 . S
O38 C30 1.252 . S
In39 O40 2.294 . S
In39 O41 2.326 . S
In39 O45 2.266 . S
In39 O46 2.326 . S
In39 O47 2.266 . S
In39 O48 2.326 . S
In39 O50 2.294 . S
In39 O51 2.326 . S
O40 In39 2.294 . S
O40 C49 1.240 . S
O41 In39 2.326 . S
O41 C49 1.252 . S
C42 O45 1.252 . S
C42 O46 1.260 . S
C43 O50 1.240 . S
C43 O51 1.252 . S
C44 O47 1.252 . S
C44 O48 1.260 . S
O45 In39 2.266 . S
O45 C42 1.252 . S
O46 In39 2.326 . S
O46 C42 1.260 . S
O47 In39 2.266 . S
O47 C44 1.252 . S
O48 In39 2.326 . S
O48 C44 1.260 . S
C49 O40 1.240 . S
C49 O41 1.252 . S
O50 In39 2.294 . S
O50 C43 1.240 . S
O51 In39 2.326 . S
O51 C43 1.252 . S
In52 O53 2.294 . S
In52 O54 2.326 . S
In52 O58 2.266 . S
In52 O59 2.326 . S
In52 O60 2.266 . S
In52 O61 2.326 . S
In52 O63 2.294 . S
In52 O64 2.326 . S
O53 In52 2.294 . S
O53 C62 1.240 . S
O54 In52 2.326 . S
O54 C62 1.252 . S
C55 O58 1.252 . S
C55 O59 1.260 . S
C56 O63 1.240 . S
C56 O64 1.252 . S
C57 O60 1.252 . S
C57 O61 1.260 . S
O58 In52 2.266 . S
O58 C55 1.252 . S
O59 In52 2.326 . S
O59 C55 1.260 . S
O60 In52 2.266 . S
O60 C57 1.252 . S
O61 In52 2.326 . S
O61 C57 1.260 . S
C62 O53 1.240 . S
C62 O54 1.252 . S
O63 In52 2.294 . S
O63 C56 1.240 . S
O64 In52 2.326 . S
O64 C56 1.252 . S
In65 O66 2.294 . S
In65 O67 2.326 . S
In65 O71 2.266 . S
In65 O72 2.326 . S
In65 O73 2.266 . S
In65 O74 2.326 . S
In65 O76 2.294 . S
In65 O77 2.326 . S
O66 In65 2.294 . S
O66 C75 1.240 . S
O67 In65 2.326 . S
O67 C75 1.252 . S
C68 O71 1.252 . S
C68 O72 1.260 . S
C69 O76 1.240 . S
C69 O77 1.252 . S
C70 O73 1.252 . S
C70 O74 1.260 . S
O71 In65 2.266 . S
O71 C68 1.252 . S
O72 In65 2.326 . S
O72 C68 1.260 . S
O73 In65 2.266 . S
O73 C70 1.252 . S
O74 In65 2.326 . S
O74 C70 1.260 . S
C75 O66 1.240 . S
C75 O67 1.252 . S
O76 In65 2.294 . S
O76 C69 1.240 . S
O77 In65 2.326 . S
O77 C69 1.252 . S
In78 O79 2.294 . S
In78 O80 2.326 . S
In78 O84 2.266 . S
In78 O85 2.326 . S
In78 O86 2.266 . S
In78 O87 2.326 . S
In78 O89 2.294 . S
In78 O90 2.326 . S
O79 In78 2.294 . S
O79 C88 1.240 . S
O80 In78 2.326 . S
O80 C88 1.252 . S
C81 O84 1.252 . S
C81 O85 1.260 . S
C82 O89 1.240 . S
C82 O90 1.252 . S
C83 O86 1.252 . S
C83 O87 1.260 . S
O84 In78 2.266 . S
O84 C81 1.252 . S
O85 In78 2.326 . S
O85 C81 1.260 . S
O86 In78 2.266 . S
O86 C83 1.252 . S
O87 In78 2.326 . S
O87 C83 1.260 . S
C88 O79 1.240 . S
C88 O80 1.252 . S
O89 In78 2.294 . S
O89 C82 1.240 . S
O90 In78 2.326 . S
O90 C82 1.252 . S
In91 O92 2.294 . S
In91 O93 2.326 . S
In91 O97 2.266 . S
In91 O98 2.326 . S
In91 O99 2.266 1_455 S
In91 O100 2.326 1_455 S
In91 O102 2.294 . S
In91 O103 2.326 . S
O92 In91 2.294 . S
O92 C101 1.240 . S
O93 In91 2.326 . S
O93 C101 1.252 . S
C94 O97 1.252 . S
C94 O98 1.260 . S
C95 O102 1.240 . S
C95 O103 1.252 . S
C96 O99 1.252 . S
C96 O100 1.260 . S
O97 In91 2.266 . S
O97 C94 1.252 . S
O98 In91 2.326 . S
O98 C94 1.260 . S
O99 In91 2.266 1_655 S
O99 C96 1.252 . S
O100 In91 2.326 1_655 S
O100 C96 1.260 . S
C101 O92 1.240 . S
C101 O93 1.252 . S
O102 In91 2.294 . S
O102 C95 1.240 . S
O103 In91 2.326 . S
O103 C95 1.252 . S
In104 O105 2.294 . S
In104 O106 2.326 . S
In104 O110 2.266 . S
In104 O111 2.326 . S
In104 O112 2.266 . S
In104 O113 2.326 1_545 S
In104 O115 2.294 . S
In104 O116 2.326 . S
O105 In104 2.294 . S
O105 C114 1.240 . S
O106 In104 2.326 . S
O106 C114 1.252 . S
C107 O110 1.252 . S
C107 O111 1.260 . S
C108 O115 1.240 . S
C108 O116 1.252 . S
C109 O112 1.252 1_565 S
C109 O113 1.260 . S
O110 In104 2.266 . S
O110 C107 1.252 . S
O111 In104 2.326 . S
O111 C107 1.260 . S
O112 In104 2.266 . S
O112 C109 1.252 1_545 S
O113 In104 2.326 1_565 S
O113 C109 1.260 . S
C114 O105 1.240 . S
C114 O106 1.252 . S
O115 In104 2.294 . S
O115 C108 1.240 . S
O116 In104 2.326 . S
O116 C108 1.252 . S
In117 O118 2.294 . S
In117 O119 2.326 . S
In117 O123 2.266 . S
In117 O124 2.326 . S
In117 O125 2.266 . S
In117 O126 2.326 . S
In117 O128 2.294 . S
In117 O129 2.326 . S
O118 In117 2.294 . S
O118 C127 1.240 . S
O119 In117 2.326 . S
O119 C127 1.252 . S
C120 O123 1.252 . S
C120 O124 1.260 . S
C121 O128 1.240 . S
C121 O129 1.252 . S
C122 O125 1.252 . S
C122 O126 1.260 . S
O123 In117 2.266 . S
O123 C120 1.252 . S
O124 In117 2.326 . S
O124 C120 1.260 . S
O125 In117 2.266 . S
O125 C122 1.252 . S
O126 In117 2.326 . S
O126 C122 1.260 . S
C127 O118 1.240 . S
C127 O119 1.252 . S
O128 In117 2.294 . S
O128 C121 1.240 . S
O129 In117 2.326 . S
O129 C121 1.252 . S
In130 O131 2.294 1_545 S
In130 O132 2.326 1_545 S
In130 O136 2.266 . S
In130 O137 2.326 . S
In130 O138 2.264 . S
In130 O139 2.322 . S
In130 O141 2.296 1_545 S
In130 O142 2.330 1_545 S
O131 In130 2.294 1_565 S
O131 C140 1.240 . S
O132 In130 2.326 1_565 S
O132 C140 1.252 . S
C133 O136 1.252 . S
C133 O137 1.260 . S
C134 O141 1.240 . S
C134 O142 1.252 . S
C135 O138 1.252 . S
C135 O139 1.260 . S
O136 In130 2.266 . S
O136 C133 1.252 . S
O137 In130 2.326 . S
O137 C133 1.260 . S
O138 In130 2.264 . S
O138 C135 1.252 . S
O139 In130 2.322 . S
O139 C135 1.260 . S
C140 O131 1.240 . S
C140 O132 1.252 . S
O141 In130 2.296 1_565 S
O141 C134 1.240 . S
O142 In130 2.330 1_565 S
O142 C134 1.252 . S
In143 O144 2.294 . S
In143 O145 2.326 . S
In143 O149 2.266 1_554 S
In143 O150 2.326 1_554 S
In143 O151 2.266 . S
In143 O152 2.326 . S
In143 O154 2.294 . S
In143 O155 2.326 . S
O144 In143 2.294 . S
O144 C153 1.240 . S
O145 In143 2.326 . S
O145 C153 1.252 . S
C146 O149 1.252 . S
C146 O150 1.260 . S
C147 O154 1.240 . S
C147 O155 1.252 . S
C148 O151 1.252 . S
C148 O152 1.260 . S
O149 In143 2.266 1_556 S
O149 C146 1.252 . S
O150 In143 2.326 1_556 S
O150 C146 1.260 . S
O151 In143 2.266 . S
O151 C148 1.252 . S
O152 In143 2.326 . S
O152 C148 1.260 . S
C153 O144 1.240 . S
C153 O145 1.252 . S
O154 In143 2.294 . S
O154 C147 1.240 . S
O155 In143 2.326 . S
O155 C147 1.252 . S
In156 O157 2.294 . S
In156 O158 2.326 . S
In156 O162 2.266 . S
In156 O163 2.326 . S
In156 O164 2.266 . S
In156 O165 2.326 . S
In156 O167 2.294 . S
In156 O168 2.326 . S
O157 In156 2.294 . S
O157 C166 1.240 . S
O158 In156 2.326 . S
O158 C166 1.252 . S
C159 O162 1.252 . S
C159 O163 1.260 . S
C160 O167 1.240 . S
C160 O168 1.252 . S
C161 O164 1.252 . S
C161 O165 1.260 . S
O162 In156 2.266 . S
O162 C159 1.252 . S
O163 In156 2.326 . S
O163 C159 1.260 . S
O164 In156 2.266 . S
O164 C161 1.252 . S
O165 In156 2.326 . S
O165 C161 1.260 . S
C166 O157 1.240 . S
C166 O158 1.252 . S
O167 In156 2.294 . S
O167 C160 1.240 . S
O168 In156 2.326 . S
O168 C160 1.252 . S
In169 O170 2.294 . S
In169 O171 2.326 . S
In169 O175 2.266 . S
In169 O176 2.326 . S
In169 O177 2.266 . S
In169 O178 2.326 1_554 S
In169 O180 2.294 . S
In169 O181 2.326 . S
O170 In169 2.294 . S
O170 C179 1.240 . S
O171 In169 2.326 . S
O171 C179 1.252 . S
C172 O175 1.252 . S
C172 O176 1.260 . S
C173 O180 1.240 . S
C173 O181 1.252 . S
C174 O177 1.252 1_556 S
C174 O178 1.260 . S
O175 In169 2.266 . S
O175 C172 1.252 . S
O176 In169 2.326 . S
O176 C172 1.260 . S
O177 In169 2.266 . S
O177 C174 1.252 1_554 S
O178 In169 2.326 1_556 S
O178 C174 1.260 . S
C179 O170 1.240 . S
C179 O171 1.252 . S
O180 In169 2.294 . S
O180 C173 1.240 . S
O181 In169 2.326 . S
O181 C173 1.252 . S
In182 O183 2.294 . S
In182 O184 2.326 . S
In182 O188 2.266 . S
In182 O189 2.326 . S
In182 O190 2.266 . S
In182 O191 2.326 . S
In182 O193 2.294 . S
In182 O194 2.326 . S
O183 In182 2.294 . S
O183 C192 1.240 . S
O184 In182 2.326 . S
O184 C192 1.252 . S
C185 O188 1.252 . S
C185 O189 1.260 . S
C186 O193 1.240 . S
C186 O194 1.252 . S
C187 O190 1.252 . S
C187 O191 1.260 . S
O188 In182 2.266 . S
O188 C185 1.252 . S
O189 In182 2.326 . S
O189 C185 1.260 . S
O190 In182 2.266 . S
O190 C187 1.252 . S
O191 In182 2.326 . S
O191 C187 1.260 . S
C192 O183 1.240 . S
C192 O184 1.252 . S
O193 In182 2.294 . S
O193 C186 1.240 . S
O194 In182 2.326 . S
O194 C186 1.252 . S
In195 O196 2.294 . S
In195 O197 2.326 . S
In195 O201 2.266 . S
In195 O202 2.326 . S
In195 O203 2.266 . S
In195 O204 2.326 . S
In195 O206 2.294 . S
In195 O207 2.326 . S
O196 In195 2.294 . S
O196 C205 1.240 . S
O197 In195 2.326 . S
O197 C205 1.252 . S
C198 O201 1.252 . S
C198 O202 1.260 . S
C199 O206 1.240 . S
C199 O207 1.252 . S
C200 O203 1.252 . S
C200 O204 1.260 . S
O201 In195 2.266 . S
O201 C198 1.252 . S
O202 In195 2.326 . S
O202 C198 1.260 . S
O203 In195 2.266 . S
O203 C200 1.252 . S
O204 In195 2.326 . S
O204 C200 1.260 . S
C205 O196 1.240 . S
C205 O197 1.252 . S
O206 In195 2.294 . S
O206 C199 1.240 . S
O207 In195 2.326 . S
O207 C199 1.252 . S
In208 O209 2.294 . S
In208 O210 2.326 . S
In208 O214 2.266 . S
In208 O215 2.326 . S
In208 O216 2.266 . S
In208 O217 2.326 . S
In208 O219 2.294 . S
In208 O220 2.326 . S
O209 In208 2.294 . S
O209 C218 1.240 . S
O210 In208 2.326 . S
O210 C218 1.252 . S
C211 O214 1.252 . S
C211 O215 1.260 . S
C212 O219 1.240 . S
C212 O220 1.252 . S
C213 O216 1.252 . S
C213 O217 1.260 . S
O214 In208 2.266 . S
O214 C211 1.252 . S
O215 In208 2.326 . S
O215 C211 1.260 . S
O216 In208 2.266 . S
O216 C213 1.252 . S
O217 In208 2.326 . S
O217 C213 1.260 . S
C218 O209 1.240 . S
C218 O210 1.252 . S
O219 In208 2.294 . S
O219 C212 1.240 . S
O220 In208 2.326 . S
O220 C212 1.252 . S
In221 O222 2.294 . S
In221 O223 2.326 . S
In221 O227 2.266 . S
In221 O228 2.326 . S
In221 O229 2.266 . S
In221 O230 2.326 . S
In221 O232 2.294 . S
In221 O233 2.326 . S
O222 In221 2.294 . S
O222 C231 1.240 . S
O223 In221 2.326 . S
O223 C231 1.252 . S
C224 O227 1.252 . S
C224 O228 1.260 . S
C225 O232 1.240 . S
C225 O233 1.252 . S
C226 O229 1.252 . S
C226 O230 1.260 . S
O227 In221 2.266 . S
O227 C224 1.252 . S
O228 In221 2.326 . S
O228 C224 1.260 . S
O229 In221 2.266 . S
O229 C226 1.252 . S
O230 In221 2.326 . S
O230 C226 1.260 . S
C231 O222 1.240 . S
C231 O223 1.252 . S
O232 In221 2.294 . S
O232 C225 1.240 . S
O233 In221 2.326 . S
O233 C225 1.252 . S
In234 O235 2.294 . S
In234 O236 2.326 . S
In234 O240 2.266 . S
In234 O241 2.326 . S
In234 O242 2.266 . S
In234 O243 2.326 . S
In234 O245 2.294 . S
In234 O246 2.326 . S
O235 In234 2.294 . S
O235 C244 1.240 . S
O236 In234 2.326 . S
O236 C244 1.252 . S
C237 O240 1.252 . S
C237 O241 1.260 . S
C238 O245 1.240 . S
C238 O246 1.252 . S
C239 O242 1.252 . S
C239 O243 1.260 . S
O240 In234 2.266 . S
O240 C237 1.252 . S
O241 In234 2.326 . S
O241 C237 1.260 . S
O242 In234 2.266 . S
O242 C239 1.252 . S
O243 In234 2.326 . S
O243 C239 1.260 . S
C244 O235 1.240 . S
C244 O236 1.252 . S
O245 In234 2.294 . S
O245 C238 1.240 . S
O246 In234 2.326 . S
O246 C238 1.252 . S
In247 O248 2.294 . S
In247 O249 2.326 . S
In247 O253 2.266 . S
In247 O254 2.326 . S
In247 O255 2.266 . S
In247 O256 2.326 . S
In247 O258 2.294 . S
In247 O259 2.326 . S
O248 In247 2.294 . S
O248 C257 1.240 . S
O249 In247 2.326 . S
O249 C257 1.252 . S
C250 O253 1.252 . S
C250 O254 1.260 . S
C251 O258 1.240 . S
C251 O259 1.252 . S
C252 O255 1.252 . S
C252 O256 1.260 . S
O253 In247 2.266 . S
O253 C250 1.252 . S
O254 In247 2.326 . S
O254 C250 1.260 . S
O255 In247 2.266 . S
O255 C252 1.252 . S
O256 In247 2.326 . S
O256 C252 1.260 . S
C257 O248 1.240 . S
C257 O249 1.252 . S
O258 In247 2.294 . S
O258 C251 1.240 . S
O259 In247 2.326 . S
O259 C251 1.252 . S
In260 O261 2.294 . S
In260 O262 2.326 . S
In260 O266 2.266 1_554 S
In260 O267 2.325 1_554 S
In260 O268 2.264 1_554 S
In260 O269 2.322 1_554 S
In260 O271 2.296 . S
In260 O272 2.330 . S
O261 In260 2.294 . S
O261 C270 1.240 . S
O262 In260 2.326 . S
O262 C270 1.252 . S
C263 O266 1.252 . S
C263 O267 1.260 . S
C264 O271 1.240 . S
C264 O272 1.252 . S
C265 O268 1.252 . S
C265 O269 1.260 . S
O266 In260 2.266 1_556 S
O266 C263 1.252 . S
O267 In260 2.325 1_556 S
O267 C263 1.260 . S
O268 In260 2.264 1_556 S
O268 C265 1.252 . S
O269 In260 2.322 1_556 S
O269 C265 1.260 . S
C270 O261 1.240 . S
C270 O262 1.252 . S
O271 In260 2.296 . S
O271 C264 1.240 . S
O272 In260 2.330 . S
O272 C264 1.252 . S
In273 O274 2.294 . S
In273 O275 2.326 . S
In273 O279 2.266 . S
In273 O280 2.326 . S
In273 O281 2.266 . S
In273 O282 2.326 . S
In273 O284 2.294 . S
In273 O285 2.326 . S
O274 In273 2.294 . S
O274 C283 1.240 . S
O275 In273 2.326 . S
O275 C283 1.252 . S
C276 O279 1.252 . S
C276 O280 1.260 . S
C277 O284 1.240 . S
C277 O285 1.252 . S
C278 O281 1.252 . S
C278 O282 1.260 . S
O279 In273 2.266 . S
O279 C276 1.252 . S
O280 In273 2.326 . S
O280 C276 1.260 . S
O281 In273 2.266 . S
O281 C278 1.252 . S
O282 In273 2.326 . S
O282 C278 1.260 . S
C283 O274 1.240 . S
C283 O275 1.252 . S
O284 In273 2.294 . S
O284 C277 1.240 . S
O285 In273 2.326 . S
O285 C277 1.252 . S
In286 O287 2.294 . S
In286 O288 2.326 . S
In286 O292 2.266 . S
In286 O293 2.326 . S
In286 O294 2.266 . S
In286 O295 2.326 . S
In286 O297 2.294 . S
In286 O298 2.326 . S
O287 In286 2.294 . S
O287 C296 1.240 . S
O288 In286 2.326 . S
O288 C296 1.252 . S
C289 O292 1.252 . S
C289 O293 1.260 . S
C290 O297 1.240 . S
C290 O298 1.252 . S
C291 O294 1.252 . S
C291 O295 1.260 . S
O292 In286 2.266 . S
O292 C289 1.252 . S
O293 In286 2.326 . S
O293 C289 1.260 . S
O294 In286 2.266 . S
O294 C291 1.252 . S
O295 In286 2.326 . S
O295 C291 1.260 . S
C296 O287 1.240 . S
C296 O288 1.252 . S
O297 In286 2.294 . S
O297 C290 1.240 . S
O298 In286 2.326 . S
O298 C290 1.252 . S
In299 O300 2.294 . S
In299 O301 2.326 . S
In299 O305 2.266 . S
In299 O306 2.326 . S
In299 O307 2.266 . S
In299 O308 2.326 . S
In299 O310 2.294 . S
In299 O311 2.326 . S
O300 In299 2.294 . S
O300 C309 1.240 . S
O301 In299 2.326 . S
O301 C309 1.252 . S
C302 O305 1.252 . S
C302 O306 1.260 . S
C303 O310 1.240 . S
C303 O311 1.252 . S
C304 O307 1.252 . S
C304 O308 1.260 . S
O305 In299 2.266 . S
O305 C302 1.252 . S
O306 In299 2.326 . S
O306 C302 1.260 . S
O307 In299 2.266 . S
O307 C304 1.252 . S
O308 In299 2.326 . S
O308 C304 1.260 . S
C309 O300 1.240 . S
C309 O301 1.252 . S
O310 In299 2.294 . S
O310 C303 1.240 . S
O311 In299 2.326 . S
O311 C303 1.252 . S
Eu312 N343 2.657 . S
Eu312 N350 2.609 1_554 S
Eu312 O356 2.558 1_554 S
Eu312 O357 2.612 . S
Eu312 O359 2.339 . S
Eu312 O360 2.563 . S
Eu312 O361 2.419 . S
Eu312 O363 2.380 . S
Eu312 O364 2.432 1_554 S
Eu312 C376 2.848 1_455 S
C313 C316 1.429 . S
C313 C317 1.411 . S
C313 N320 1.377 . S
C314 C316 1.420 . S
C314 C318 1.423 . S
C314 C326 1.392 . S
C315 C317 1.420 . S
C315 C318 1.351 . S
C315 H338 0.931 . S
C316 C313 1.429 . S
C316 C314 1.420 . S
C316 N324 1.362 . S
C317 C313 1.411 . S
C317 C315 1.420 . S
C317 C322 1.395 . S
C318 C314 1.423 . S
C318 C315 1.351 . S
C318 H330 0.930 . S
C319 C321 1.400 . S
C319 C322 1.386 . S
C319 H331 0.930 . S
N320 C313 1.377 . S
N320 C321 1.321 . S
N320 Eu323 2.609 . S
C321 C319 1.400 . S
C321 N320 1.321 . S
C321 H328 0.930 . S
C322 C317 1.395 . S
C322 C319 1.386 . S
C322 H341 0.930 . S
Eu323 N320 2.609 . S
Eu323 N324 2.657 . S
Eu323 O357 2.380 . S
Eu323 O358 2.432 . S
Eu323 O362 2.558 . S
Eu323 O363 2.612 . S
Eu323 O365 2.339 . S
Eu323 O366 2.563 . S
Eu323 O367 2.419 . S
Eu323 C387 2.848 . S
N324 C316 1.362 . S
N324 Eu323 2.657 . S
N324 C325 1.334 . S
C325 N324 1.334 . S
C325 C327 1.413 . S
C325 H332 0.929 . S
C326 C314 1.392 . S
C326 C327 1.367 . S
C326 H334 0.930 . S
C327 C325 1.413 . S
C327 C326 1.367 . S
C327 H329 0.930 1_554 S
H328 C321 0.930 . S
H329 C327 0.930 1_556 S
H330 C318 0.930 . S
H331 C319 0.930 . S
H332 C325 0.929 . S
H333 C347 0.930 . S
H334 C326 0.930 . S
H335 C353 0.930 . S
H336 C344 0.929 . S
H337 C351 0.930 . S
H338 C315 0.931 . S
H339 C345 0.917 1_655 S
H340 C378 0.930 . S
H341 C322 0.930 . S
H342 C377 0.931 . S
N343 Eu312 2.657 . S
N343 C344 1.334 . S
N343 C348 1.362 1_545 S
C344 H336 0.929 . S
C344 N343 1.334 . S
C344 C347 1.413 1_545 S
C345 H339 0.917 1_455 S
C345 C346 1.392 . S
C345 C347 1.367 . S
C346 C345 1.392 . S
C346 C348 1.420 . S
C346 C378 1.423 1_455 S
C347 H333 0.930 . S
C347 C344 1.413 1_565 S
C347 C345 1.367 . S
C348 N343 1.362 1_565 S
C348 C346 1.420 . S
C348 C352 1.429 . S
H349 C354 0.930 1_655 S
N350 Eu312 2.609 1_556 S
N350 C352 1.377 1_546 S
N350 C353 1.321 . S
C351 H337 0.930 . S
C351 C353 1.400 1_565 S
C351 C354 1.386 . S
C352 C348 1.429 . S
C352 N350 1.377 1_564 S
C352 C355 1.411 1_554 S
C353 H335 0.930 . S
C353 N350 1.321 . S
C353 C351 1.400 1_545 S
C354 H349 0.930 1_455 S
C354 C351 1.386 . S
C354 C355 1.395 . S
C355 C352 1.411 1_556 S
C355 C354 1.395 . S
C355 C377 1.420 1_455 S
O356 Eu312 2.558 1_556 S
O356 C376 1.257 1_456 S
O357 Eu312 2.612 . S
O357 Eu323 2.380 . S
O357 C368 1.276 . S
O358 Eu323 2.432 . S
O358 C375 1.264 . S
O359 Eu312 2.339 . S
O359 C375 1.254 . S
O360 Eu312 2.563 . S
O360 C368 1.235 . S
O361 Eu312 2.419 . S
O361 C376 1.249 1_455 S
O362 Eu323 2.558 . S
O362 C387 1.257 . S
O363 Eu312 2.380 . S
O363 Eu323 2.612 . S
O363 C379 1.276 . S
O364 Eu312 2.432 1_556 S
O364 C386 1.264 . S
O365 Eu323 2.339 . S
O365 C386 1.254 1_554 S
O366 Eu323 2.563 . S
O366 C379 1.235 . S
O367 Eu323 2.419 . S
O367 C387 1.249 . S
C368 O357 1.276 . S
C368 O360 1.235 . S
C369 C371 1.393 . S
C369 C373 1.395 1_554 S
C369 C376 1.492 . S
C370 C371 1.392 . S
C370 C372 1.386 1_554 S
C371 C369 1.393 . S
C371 C370 1.392 . S
C371 H388 0.930 . S
C372 C370 1.386 1_556 S
C372 C374 1.395 . S
C372 H389 0.930 . S
C373 C369 1.395 1_556 S
C373 C374 1.379 . S
C373 H390 0.930 . S
C374 C372 1.395 . S
C374 C373 1.379 . S
C374 H391 0.930 . S
C375 O358 1.264 . S
C375 O359 1.254 . S
C376 Eu312 2.848 1_655 S
C376 O356 1.257 1_654 S
C376 O361 1.249 1_655 S
C376 C369 1.492 . S
C377 H342 0.931 . S
C377 C355 1.420 1_655 S
C377 C378 1.351 1_556 S
C378 H340 0.930 . S
C378 C346 1.423 1_655 S
C378 C377 1.351 1_554 S
C379 O363 1.276 . S
C379 O366 1.235 . S
C380 C381 1.393 . S
C380 C384 1.395 . S
C380 C387 1.492 . S
C381 C380 1.393 . S
C381 C382 1.392 . S
C381 H392 0.930 . S
C382 C381 1.392 . S
C382 C383 1.386 . S
C383 C382 1.386 . S
C383 C385 1.395 . S
C383 H393 0.930 . S
C384 C380 1.395 . S
C384 C385 1.379 . S
C384 H394 0.930 . S
C385 C383 1.395 . S
C385 C384 1.379 . S
C385 H395 0.930 . S
C386 O364 1.264 . S
C386 O365 1.254 1_556 S
C387 Eu323 2.848 . S
C387 O362 1.257 . S
C387 O367 1.249 . S
C387 C380 1.492 . S
H388 C371 0.930 . S
H389 C372 0.930 . S
H390 C373 0.930 . S
H391 C374 0.930 . S
H392 C381 0.930 . S
H393 C383 0.930 . S
H394 C384 0.930 . S
H395 C385 0.930 . S
Eu396 N427 2.657 . S
Eu396 N434 2.609 . S
Eu396 O440 2.558 . S
Eu396 O441 2.612 . S
Eu396 O443 2.339 . S
Eu396 O444 2.563 . S
Eu396 O445 2.419 . S
Eu396 O447 2.380 . S
Eu396 O448 2.432 . S
Eu396 C460 2.848 . S
C397 C400 1.429 . S
C397 C401 1.411 . S
C397 N404 1.377 . S
C398 C400 1.420 . S
C398 C402 1.423 . S
C398 C410 1.392 . S
C399 C401 1.420 . S
C399 C402 1.351 . S
C399 H422 0.931 . S
C400 C397 1.429 . S
C400 C398 1.420 . S
C400 N408 1.362 . S
C401 C397 1.411 . S
C401 C399 1.420 . S
C401 C406 1.395 . S
C402 C398 1.423 . S
C402 C399 1.351 . S
C402 H414 0.930 . S
C403 C405 1.400 . S
C403 C406 1.386 . S
C403 H415 0.930 . S
N404 C397 1.377 . S
N404 C405 1.321 . S
N404 Eu407 2.609 . S
C405 C403 1.400 . S
C405 N404 1.321 . S
C405 H412 0.930 . S
C406 C401 1.395 . S
C406 C403 1.386 . S
C406 H425 0.930 . S
Eu407 N404 2.609 . S
Eu407 N408 2.657 . S
Eu407 O441 2.380 . S
Eu407 O442 2.432 . S
Eu407 O446 2.558 . S
Eu407 O447 2.612 . S
Eu407 O449 2.339 . S
Eu407 O450 2.563 . S
Eu407 O451 2.419 . S
Eu407 C471 2.848 . S
N408 C400 1.362 . S
N408 Eu407 2.657 . S
N408 C409 1.334 . S
C409 N408 1.334 . S
C409 C411 1.413 . S
C409 H416 0.929 . S
C410 C398 1.392 . S
C410 C411 1.367 . S
C410 H418 0.930 . S
C411 C409 1.413 . S
C411 C410 1.367 . S
C411 H413 0.930 . S
H412 C405 0.930 . S
H413 C411 0.930 . S
H414 C402 0.930 . S
H415 C403 0.930 . S
H416 C409 0.929 . S
H417 C431 0.930 . S
H418 C410 0.930 . S
H419 C437 0.930 . S
H420 C428 0.929 . S
H421 C435 0.930 . S
H422 C399 0.931 . S
H423 C429 0.930 . S
H424 C462 0.930 . S
H425 C406 0.930 . S
H426 C461 0.931 . S
N427 Eu396 2.657 . S
N427 C428 1.334 . S
N427 C432 1.362 . S
C428 H420 0.929 . S
C428 N427 1.334 . S
C428 C431 1.413 . S
C429 H423 0.930 . S
C429 C430 1.392 . S
C429 C431 1.367 . S
C430 C429 1.392 . S
C430 C432 1.420 . S
C430 C462 1.423 . S
C431 H417 0.930 . S
C431 C428 1.413 . S
C431 C429 1.367 . S
C432 N427 1.362 . S
C432 C430 1.420 . S
C432 C436 1.429 . S
H433 C438 0.930 . S
N434 Eu396 2.609 . S
N434 C436 1.377 . S
N434 C437 1.321 . S
C435 H421 0.930 . S
C435 C437 1.400 . S
C435 C438 1.386 . S
C436 C432 1.429 . S
C436 N434 1.377 . S
C436 C439 1.411 . S
C437 H419 0.930 . S
C437 N434 1.321 . S
C437 C435 1.400 . S
C438 H433 0.930 . S
C438 C435 1.386 . S
C438 C439 1.395 . S
C439 C436 1.411 . S
C439 C438 1.395 . S
C439 C461 1.420 . S
O440 Eu396 2.558 . S
O440 C460 1.257 . S
O441 Eu396 2.612 . S
O441 Eu407 2.380 . S
O441 C452 1.276 . S
O442 Eu407 2.432 . S
O442 C459 1.264 . S
O443 Eu396 2.339 . S
O443 C459 1.254 . S
O444 Eu396 2.563 . S
O444 C452 1.235 . S
O445 Eu396 2.419 . S
O445 C460 1.249 . S
O446 Eu407 2.558 . S
O446 C471 1.257 . S
O447 Eu396 2.380 . S
O447 Eu407 2.612 . S
O447 C463 1.276 . S
O448 Eu396 2.432 . S
O448 C470 1.264 . S
O449 Eu407 2.339 . S
O449 C470 1.254 . S
O450 Eu407 2.563 . S
O450 C463 1.235 . S
O451 Eu407 2.419 . S
O451 C471 1.249 . S
C452 O441 1.276 . S
C452 O444 1.235 . S
C453 C455 1.393 . S
C453 C457 1.395 . S
C453 C460 1.492 . S
C454 C455 1.392 . S
C454 C456 1.386 . S
C455 C453 1.393 . S
C455 C454 1.392 . S
C455 H472 0.930 . S
C456 C454 1.386 . S
C456 C458 1.395 . S
C456 H473 0.930 . S
C457 C453 1.395 . S
C457 C458 1.379 . S
C457 H474 0.930 . S
C458 C456 1.395 . S
C458 C457 1.379 . S
C458 H475 0.930 . S
C459 O442 1.264 . S
C459 O443 1.254 . S
C460 Eu396 2.848 . S
C460 O440 1.257 . S
C460 O445 1.249 . S
C460 C453 1.492 . S
C461 H426 0.931 . S
C461 C439 1.420 . S
C461 C462 1.351 . S
C462 H424 0.930 . S
C462 C430 1.423 . S
C462 C461 1.351 . S
C463 O447 1.276 . S
C463 O450 1.235 . S
C464 C465 1.393 . S
C464 C468 1.395 . S
C464 C471 1.492 . S
C465 C464 1.393 . S
C465 C466 1.392 . S
C465 H476 0.930 . S
C466 C465 1.392 . S
C466 C467 1.386 . S
C467 C466 1.386 . S
C467 C469 1.395 . S
C467 H477 0.930 . S
C468 C464 1.395 . S
C468 C469 1.379 . S
C468 H478 0.930 . S
C469 C467 1.395 . S
C469 C468 1.379 . S
C469 H479 0.930 . S
C470 O448 1.264 . S
C470 O449 1.254 . S
C471 Eu407 2.848 . S
C471 O446 1.257 . S
C471 O451 1.249 . S
C471 C464 1.492 . S
H472 C455 0.930 . S
H473 C456 0.930 . S
H474 C457 0.930 . S
H475 C458 0.930 . S
H476 C465 0.930 . S
H477 C467 0.930 . S
H478 C468 0.930 . S
H479 C469 0.930 . S
Eu480 N511 2.657 . S
Eu480 N518 2.609 . S
Eu480 O524 2.558 . S
Eu480 O525 2.612 . S
Eu480 O527 2.339 . S
Eu480 O528 2.563 1_545 S
Eu480 O529 2.419 . S
Eu480 O531 2.380 . S
Eu480 O532 2.432 . S
Eu480 C544 2.848 . S
C481 C484 1.429 . S
C481 C485 1.411 . S
C481 N488 1.372 1_565 S
C482 C484 1.420 . S
C482 C486 1.423 . S
C482 C494 1.392 . S
C483 C485 1.420 . S
C483 C486 1.351 . S
C483 H506 0.931 . S
C484 C481 1.429 . S
C484 C482 1.420 . S
C484 N492 1.362 . S
C485 C481 1.411 . S
C485 C483 1.420 . S
C485 C490 1.395 . S
C486 C482 1.423 . S
C486 C483 1.351 . S
C486 H498 0.930 . S
C487 C489 1.400 1_565 S
C487 C490 1.386 . S
C487 H499 0.931 . S
N488 C481 1.372 1_545 S
N488 C489 1.322 . S
N488 Eu491 2.614 . S
C489 C487 1.400 1_545 S
C489 N488 1.322 . S
C489 H496 0.930 . S
C490 C485 1.395 . S
C490 C487 1.386 . S
C490 H509 0.930 . S
Eu491 N488 2.614 . S
Eu491 N492 2.657 1_545 S
Eu491 O525 2.380 . S
Eu491 O526 2.432 . S
Eu491 O530 2.558 . S
Eu491 O531 2.612 . S
Eu491 O533 2.339 . S
Eu491 O534 2.563 . S
Eu491 O535 2.419 . S
Eu491 C555 2.848 . S
N492 C484 1.362 . S
N492 Eu491 2.657 1_565 S
N492 C493 1.334 . S
C493 N492 1.334 . S
C493 C495 1.413 . S
C493 H500 0.929 . S
C494 C482 1.392 . S
C494 C495 1.367 . S
C494 H502 0.930 . S
C495 C493 1.413 . S
C495 C494 1.367 . S
C495 H497 0.930 . S
H496 C489 0.930 . S
H497 C495 0.930 . S
H498 C486 0.930 . S
H499 C487 0.931 . S
H500 C493 0.929 . S
H501 C515 0.930 . S
H502 C494 0.930 . S
H503 C521 0.930 . S
H504 C512 0.929 . S
H505 C519 0.930 . S
H506 C483 0.931 . S
H507 C513 0.930 . S
H508 C546 0.930 . S
H509 C490 0.930 . S
H510 C545 0.931 . S
N511 Eu480 2.657 . S
N511 C512 1.334 . S
N511 C516 1.362 . S
C512 H504 0.929 . S
C512 N511 1.334 . S
C512 C515 1.413 . S
C513 H507 0.930 . S
C513 C514 1.392 . S
C513 C515 1.367 . S
C514 C513 1.392 . S
C514 C516 1.420 . S
C514 C546 1.423 . S
C515 H501 0.930 . S
C515 C512 1.413 . S
C515 C513 1.367 . S
C516 N511 1.362 . S
C516 C514 1.420 . S
C516 C520 1.429 . S
H517 C522 0.930 . S
N518 Eu480 2.609 . S
N518 C520 1.377 . S
N518 C521 1.321 . S
C519 H505 0.930 . S
C519 C521 1.400 . S
C519 C522 1.386 . S
C520 C516 1.429 . S
C520 N518 1.377 . S
C520 C523 1.411 . S
C521 H503 0.930 . S
C521 N518 1.321 . S
C521 C519 1.400 . S
C522 H517 0.930 . S
C522 C519 1.386 . S
C522 C523 1.395 . S
C523 C520 1.411 . S
C523 C522 1.395 . S
C523 C545 1.420 . S
O524 Eu480 2.558 . S
O524 C544 1.257 . S
O525 Eu480 2.612 . S
O525 Eu491 2.380 . S
O525 C536 1.276 1_545 S
O526 Eu491 2.432 . S
O526 C543 1.264 . S
O527 Eu480 2.339 . S
O527 C543 1.254 . S
O528 Eu480 2.563 1_565 S
O528 C536 1.235 . S
O529 Eu480 2.419 . S
O529 C544 1.249 . S
O530 Eu491 2.558 . S
O530 C555 1.257 . S
O531 Eu480 2.380 . S
O531 Eu491 2.612 . S
O531 C547 1.276 . S
O532 Eu480 2.432 . S
O532 C554 1.264 . S
O533 Eu491 2.339 . S
O533 C554 1.254 . S
O534 Eu491 2.563 . S
O534 C547 1.235 . S
O535 Eu491 2.419 . S
O535 C555 1.249 . S
C536 O525 1.276 1_565 S
C536 O528 1.235 . S
C537 C539 1.393 1_545 S
C537 C541 1.395 . S
C537 C544 1.492 . S
C538 C539 1.392 . S
C538 C540 1.386 . S
C539 C537 1.393 1_565 S
C539 C538 1.392 . S
C539 H556 0.930 . S
C540 C538 1.386 . S
C540 C542 1.395 . S
C540 H557 0.930 . S
C541 C537 1.395 . S
C541 C542 1.379 1_545 S
C541 H558 0.930 . S
C542 C540 1.395 . S
C542 C541 1.379 1_565 S
C542 H559 0.930 . S
C543 O526 1.264 . S
C543 O527 1.254 . S
C544 Eu480 2.848 . S
C544 O524 1.257 . S
C544 O529 1.249 . S
C544 C537 1.492 . S
C545 H510 0.931 . S
C545 C523 1.420 . S
C545 C546 1.351 . S
C546 H508 0.930 . S
C546 C514 1.423 . S
C546 C545 1.351 . S
C547 O531 1.276 . S
C547 O534 1.235 . S
C548 C549 1.393 . S
C548 C552 1.395 . S
C548 C555 1.492 . S
C549 C548 1.393 . S
C549 C550 1.392 . S
C549 H560 0.930 . S
C550 C549 1.392 . S
C550 C551 1.386 . S
C551 C550 1.386 . S
C551 C553 1.395 . S
C551 H561 0.930 . S
C552 C548 1.395 . S
C552 C553 1.379 . S
C552 H562 0.930 . S
C553 C551 1.395 . S
C553 C552 1.379 . S
C553 H563 0.930 . S
C554 O532 1.264 . S
C554 O533 1.254 . S
C555 Eu491 2.848 . S
C555 O530 1.257 . S
C555 O535 1.249 . S
C555 C548 1.492 . S
H556 C539 0.930 . S
H557 C540 0.930 . S
H558 C541 0.930 . S
H559 C542 0.930 . S
H560 C549 0.930 . S
H561 C551 0.930 . S
H562 C552 0.930 . S
H563 C553 0.930 . S
Eu564 N595 2.657 . S
Eu564 N602 2.609 . S
Eu564 O608 2.558 . S
Eu564 O609 2.612 . S
Eu564 O611 2.339 . S
Eu564 O612 2.563 . S
Eu564 O613 2.419 . S
Eu564 O615 2.380 . S
Eu564 O616 2.432 . S
Eu564 C628 2.848 . S
C565 C568 1.429 . S
C565 C569 1.411 . S
C565 N572 1.377 . S
C566 C568 1.420 . S
C566 C570 1.423 . S
C566 C578 1.392 . S
C567 C569 1.420 . S
C567 C570 1.351 . S
C567 H590 0.931 . S
C568 C565 1.429 . S
C568 C566 1.420 . S
C568 N576 1.362 . S
C569 C565 1.411 . S
C569 C567 1.420 . S
C569 C574 1.395 . S
C570 C566 1.423 . S
C570 C567 1.351 . S
C570 H582 0.930 . S
C571 C573 1.400 . S
C571 C574 1.386 . S
C571 H583 0.930 . S
N572 C565 1.377 . S
N572 C573 1.321 . S
N572 Eu575 2.609 . S
C573 C571 1.400 . S
C573 N572 1.321 . S
C573 H580 0.930 . S
C574 C569 1.395 . S
C574 C571 1.386 . S
C574 H593 0.930 . S
Eu575 N572 2.609 . S
Eu575 N576 2.657 . S
Eu575 O609 2.380 . S
Eu575 O610 2.432 . S
Eu575 O614 2.558 . S
Eu575 O615 2.612 . S
Eu575 O617 2.339 . S
Eu575 O618 2.563 . S
Eu575 O619 2.419 . S
Eu575 C639 2.848 . S
N576 C568 1.362 . S
N576 Eu575 2.657 . S
N576 C577 1.334 . S
C577 N576 1.334 . S
C577 C579 1.413 . S
C577 H584 0.929 . S
C578 C566 1.392 . S
C578 C579 1.367 . S
C578 H586 0.930 . S
C579 C577 1.413 . S
C579 C578 1.367 . S
C579 H581 0.930 . S
H580 C573 0.930 . S
H581 C579 0.930 . S
H582 C570 0.930 . S
H583 C571 0.930 . S
H584 C577 0.929 . S
H585 C599 0.930 . S
H586 C578 0.930 . S
H587 C605 0.930 . S
H588 C596 0.929 . S
H589 C603 0.930 . S
H590 C567 0.931 . S
H591 C597 0.930 . S
H592 C630 0.930 . S
H593 C574 0.930 . S
H594 C629 0.931 . S
N595 Eu564 2.657 . S
N595 C596 1.334 . S
N595 C600 1.362 . S
C596 H588 0.929 . S
C596 N595 1.334 . S
C596 C599 1.413 . S
C597 H591 0.930 . S
C597 C598 1.392 . S
C597 C599 1.367 . S
C598 C597 1.392 . S
C598 C600 1.420 . S
C598 C630 1.423 . S
C599 H585 0.930 . S
C599 C596 1.413 . S
C599 C597 1.367 . S
C600 N595 1.362 . S
C600 C598 1.420 . S
C600 C604 1.429 . S
H601 C606 0.930 . S
N602 Eu564 2.609 . S
N602 C604 1.377 . S
N602 C605 1.321 . S
C603 H589 0.930 . S
C603 C605 1.400 . S
C603 C606 1.386 . S
C604 C600 1.429 . S
C604 N602 1.377 . S
C604 C607 1.411 . S
C605 H587 0.930 . S
C605 N602 1.321 . S
C605 C603 1.400 . S
C606 H601 0.930 . S
C606 C603 1.386 . S
C606 C607 1.395 . S
C607 C604 1.411 . S
C607 C606 1.395 . S
C607 C629 1.420 . S
O608 Eu564 2.558 . S
O608 C628 1.257 . S
O609 Eu564 2.612 . S
O609 Eu575 2.380 . S
O609 C620 1.276 . S
O610 Eu575 2.432 . S
O610 C627 1.264 . S
O611 Eu564 2.339 . S
O611 C627 1.254 . S
O612 Eu564 2.563 . S
O612 C620 1.235 . S
O613 Eu564 2.419 . S
O613 C628 1.249 . S
O614 Eu575 2.558 . S
O614 C639 1.257 . S
O615 Eu564 2.380 . S
O615 Eu575 2.612 . S
O615 C631 1.276 . S
O616 Eu564 2.432 . S
O616 C638 1.264 . S
O617 Eu575 2.339 . S
O617 C638 1.254 . S
O618 Eu575 2.563 . S
O618 C631 1.235 . S
O619 Eu575 2.419 . S
O619 C639 1.249 . S
C620 O609 1.276 . S
C620 O612 1.235 . S
C621 C623 1.393 . S
C621 C625 1.395 . S
C621 C628 1.492 . S
C622 C623 1.392 . S
C622 C624 1.386 . S
C623 C621 1.393 . S
C623 C622 1.392 . S
C623 H640 0.930 . S
C624 C622 1.386 . S
C624 C626 1.395 . S
C624 H641 0.930 . S
C625 C621 1.395 . S
C625 C626 1.379 . S
C625 H642 0.930 . S
C626 C624 1.395 . S
C626 C625 1.379 . S
C626 H643 0.930 . S
C627 O610 1.264 . S
C627 O611 1.254 . S
C628 Eu564 2.848 . S
C628 O608 1.257 . S
C628 O613 1.249 . S
C628 C621 1.492 . S
C629 H594 0.931 . S
C629 C607 1.420 . S
C629 C630 1.351 . S
C630 H592 0.930 . S
C630 C598 1.423 . S
C630 C629 1.351 . S
C631 O615 1.276 . S
C631 O618 1.235 . S
C632 C633 1.393 . S
C632 C636 1.395 . S
C632 C639 1.492 . S
C633 C632 1.393 . S
C633 C634 1.392 . S
C633 H644 0.930 . S
C634 C633 1.392 . S
C634 C635 1.386 . S
C635 C634 1.386 . S
C635 C637 1.395 . S
C635 H645 0.930 . S
C636 C632 1.395 . S
C636 C637 1.379 . S
C636 H646 0.930 . S
C637 C635 1.395 . S
C637 C636 1.379 . S
C637 H647 0.930 . S
C638 O616 1.264 . S
C638 O617 1.254 . S
C639 Eu575 2.848 . S
C639 O614 1.257 . S
C639 O619 1.249 . S
C639 C632 1.492 . S
H640 C623 0.930 . S
H641 C624 0.930 . S
H642 C625 0.930 . S
H643 C626 0.930 . S
H644 C633 0.930 . S
H645 C635 0.930 . S
H646 C636 0.930 . S
H647 C637 0.930 . S
Eu648 N679 2.657 . S
Eu648 N686 2.609 . S
Eu648 O692 2.558 . S
Eu648 O693 2.612 . S
Eu648 O695 2.339 . S
Eu648 O696 2.563 . S
Eu648 O697 2.419 . S
Eu648 O699 2.380 . S
Eu648 O700 2.432 . S
Eu648 C712 2.848 . S
C649 C652 1.429 . S
C649 C653 1.411 . S
C649 N656 1.377 . S
C650 C652 1.420 . S
C650 C654 1.423 . S
C650 C662 1.392 . S
C651 C653 1.420 . S
C651 C654 1.351 . S
C651 H674 0.931 . S
C652 C649 1.429 . S
C652 C650 1.420 . S
C652 N660 1.362 . S
C653 C649 1.411 . S
C653 C651 1.420 . S
C653 C658 1.395 . S
C654 C650 1.423 . S
C654 C651 1.351 . S
C654 H666 0.930 . S
C655 C657 1.400 . S
C655 C658 1.386 . S
C655 H667 0.930 . S
N656 C649 1.377 . S
N656 C657 1.321 . S
N656 Eu659 2.610 . S
C657 C655 1.400 . S
C657 N656 1.321 . S
C657 H664 0.930 . S
C658 C653 1.395 . S
C658 C655 1.386 . S
C658 H677 0.930 . S
Eu659 N656 2.610 . S
Eu659 N660 2.657 . S
Eu659 O693 2.378 1_565 S
Eu659 O694 2.431 1_565 S
Eu659 O698 2.560 . S
Eu659 O699 2.611 1_565 S
Eu659 O701 2.343 . S
Eu659 O702 2.564 1_565 S
Eu659 O703 2.421 . S
Eu659 C723 2.850 . S
N660 C652 1.362 . S
N660 Eu659 2.657 . S
N660 C661 1.334 . S
C661 N660 1.334 . S
C661 C663 1.413 . S
C661 H668 0.929 . S
C662 C650 1.392 . S
C662 C663 1.367 . S
C662 H670 0.930 . S
C663 C661 1.413 . S
C663 C662 1.367 . S
C663 H665 0.930 1_455 S
H664 C657 0.930 . S
H665 C663 0.930 1_655 S
H666 C654 0.930 . S
H667 C655 0.930 . S
H668 C661 0.929 . S
H669 C683 0.930 . S
H670 C662 0.930 . S
H671 C689 0.930 . S
H672 C680 0.929 . S
H673 C687 0.930 1_655 S
H674 C651 0.931 . S
H675 C681 0.930 . S
H676 C714 0.930 . S
H677 C658 0.930 . S
H678 C713 0.931 . S
N679 Eu648 2.657 . S
N679 C680 1.334 . S
N679 C684 1.362 . S
C680 H672 0.929 . S
C680 N679 1.334 . S
C680 C683 1.413 . S
C681 H675 0.930 . S
C681 C682 1.392 . S
C681 C683 1.367 . S
C682 C681 1.392 . S
C682 C684 1.420 . S
C682 C714 1.423 . S
C683 H669 0.930 . S
C683 C680 1.413 . S
C683 C681 1.367 . S
C684 N679 1.362 . S
C684 C682 1.420 . S
C684 C688 1.429 . S
H685 C690 0.930 . S
N686 Eu648 2.609 . S
N686 C688 1.377 . S
N686 C689 1.321 . S
C687 H673 0.930 1_455 S
C687 C689 1.400 . S
C687 C690 1.386 . S
C688 C684 1.429 . S
C688 N686 1.377 . S
C688 C691 1.411 . S
C689 H671 0.930 . S
C689 N686 1.321 . S
C689 C687 1.400 . S
C690 H685 0.930 . S
C690 C687 1.386 . S
C690 C691 1.395 . S
C691 C688 1.411 . S
C691 C690 1.395 . S
C691 C713 1.420 . S
O692 Eu648 2.558 . S
O692 C712 1.257 . S
O693 Eu648 2.612 . S
O693 Eu659 2.378 1_545 S
O693 C704 1.276 . S
O694 Eu659 2.431 1_545 S
O694 C711 1.264 . S
O695 Eu648 2.339 . S
O695 C711 1.254 . S
O696 Eu648 2.563 . S
O696 C704 1.235 . S
O697 Eu648 2.419 . S
O697 C712 1.249 . S
O698 Eu659 2.560 . S
O698 C723 1.257 . S
O699 Eu648 2.380 . S
O699 Eu659 2.611 1_545 S
O699 C715 1.276 . S
O700 Eu648 2.432 . S
O700 C722 1.264 . S
O701 Eu659 2.343 . S
O701 C722 1.236 1_565 S
O702 Eu659 2.564 1_545 S
O702 C715 1.235 . S
O703 Eu659 2.421 . S
O703 C723 1.249 . S
C704 O693 1.276 . S
C704 O696 1.235 . S
C705 C707 1.393 . S
C705 C709 1.395 . S
C705 C712 1.492 . S
C706 C707 1.392 . S
C706 C708 1.386 . S
C707 C705 1.393 . S
C707 C706 1.392 . S
C707 H724 0.930 . S
C708 C706 1.386 . S
C708 C710 1.395 . S
C708 H725 0.930 . S
C709 C705 1.395 . S
C709 C710 1.379 . S
C709 H726 0.930 . S
C710 C708 1.395 . S
C710 C709 1.379 . S
C710 H727 0.930 . S
C711 O694 1.264 . S
C711 O695 1.254 . S
C712 Eu648 2.848 . S
C712 O692 1.257 . S
C712 O697 1.249 . S
C712 C705 1.492 . S
C713 H678 0.931 . S
C713 C691 1.420 . S
C713 C714 1.351 . S
C714 H676 0.930 . S
C714 C682 1.423 . S
C714 C713 1.351 . S
C715 O699 1.276 . S
C715 O702 1.235 . S
C716 C717 1.393 . S
C716 C720 1.395 . S
C716 C723 1.492 . S
C717 C716 1.393 . S
C717 C718 1.392 . S
C717 H728 0.930 . S
C718 C717 1.392 . S
C718 C719 1.386 . S
C719 C718 1.386 . S
C719 C721 1.395 . S
C719 H729 0.930 . S
C720 C716 1.395 . S
C720 C721 1.379 . S
C720 H730 0.930 . S
C721 C719 1.395 . S
C721 C720 1.379 . S
C721 H731 0.930 . S
C722 O700 1.264 . S
C722 O701 1.236 1_545 S
C723 Eu659 2.850 . S
C723 O698 1.257 . S
C723 O703 1.249 . S
C723 C716 1.492 . S
H724 C707 0.930 . S
H725 C708 0.930 . S
H726 C709 0.930 . S
H727 C710 0.930 . S
H728 C717 0.930 . S
H729 C719 0.930 . S
H730 C720 0.930 . S
H731 C721 0.930 . S
Eu732 N763 2.657 . S
Eu732 N770 2.609 . S
Eu732 O776 2.558 . S
Eu732 O777 2.612 . S
Eu732 O779 2.339 . S
Eu732 O780 2.563 . S
Eu732 O781 2.419 . S
Eu732 O783 2.380 . S
Eu732 O784 2.432 . S
Eu732 C796 2.848 . S
C733 C736 1.429 . S
C733 C737 1.411 . S
C733 N740 1.377 . S
C734 C736 1.420 . S
C734 C738 1.423 . S
C734 C746 1.392 . S
C735 C737 1.420 . S
C735 C738 1.351 . S
C735 H758 0.931 . S
C736 C733 1.429 . S
C736 C734 1.420 . S
C736 N744 1.362 . S
C737 C733 1.411 . S
C737 C735 1.420 . S
C737 C742 1.395 . S
C738 C734 1.423 . S
C738 C735 1.351 . S
C738 H750 0.930 . S
C739 C741 1.400 . S
C739 C742 1.386 . S
C739 H751 0.930 . S
N740 C733 1.377 . S
N740 C741 1.321 . S
N740 Eu743 2.609 . S
C741 C739 1.400 . S
C741 N740 1.321 . S
C741 H748 0.930 . S
C742 C737 1.395 . S
C742 C739 1.386 . S
C742 H761 0.930 . S
Eu743 N740 2.609 . S
Eu743 N744 2.657 . S
Eu743 O777 2.380 . S
Eu743 O778 2.432 . S
Eu743 O782 2.558 . S
Eu743 O783 2.612 . S
Eu743 O785 2.339 . S
Eu743 O786 2.563 . S
Eu743 O787 2.419 . S
Eu743 C807 2.848 . S
N744 C736 1.362 . S
N744 Eu743 2.657 . S
N744 C745 1.334 . S
C745 N744 1.334 . S
C745 C747 1.413 . S
C745 H752 0.929 . S
C746 C734 1.392 . S
C746 C747 1.367 . S
C746 H754 0.930 . S
C747 C745 1.413 . S
C747 C746 1.367 . S
C747 H749 0.930 . S
H748 C741 0.930 . S
H749 C747 0.930 . S
H750 C738 0.930 . S
H751 C739 0.930 . S
H752 C745 0.929 . S
H753 C767 0.930 . S
H754 C746 0.930 . S
H755 C773 0.930 . S
H756 C764 0.929 . S
H757 C771 0.930 . S
H758 C735 0.931 . S
H759 C765 0.930 . S
H760 C798 0.930 . S
H761 C742 0.930 . S
H762 C797 0.931 . S
N763 Eu732 2.657 . S
N763 C764 1.334 . S
N763 C768 1.362 . S
C764 H756 0.929 . S
C764 N763 1.334 . S
C764 C767 1.413 . S
C765 H759 0.930 . S
C765 C766 1.392 . S
C765 C767 1.367 . S
C766 C765 1.392 . S
C766 C768 1.420 . S
C766 C798 1.423 . S
C767 H753 0.930 . S
C767 C764 1.413 . S
C767 C765 1.367 . S
C768 N763 1.362 . S
C768 C766 1.420 . S
C768 C772 1.429 . S
H769 C774 0.930 . S
N770 Eu732 2.609 . S
N770 C772 1.377 . S
N770 C773 1.321 . S
C771 H757 0.930 . S
C771 C773 1.400 . S
C771 C774 1.386 . S
C772 C768 1.429 . S
C772 N770 1.377 . S
C772 C775 1.411 . S
C773 H755 0.930 . S
C773 N770 1.321 . S
C773 C771 1.400 . S
C774 H769 0.930 . S
C774 C771 1.386 . S
C774 C775 1.395 . S
C775 C772 1.411 . S
C775 C774 1.395 . S
C775 C797 1.420 . S
O776 Eu732 2.558 . S
O776 C796 1.257 . S
O777 Eu732 2.612 . S
O777 Eu743 2.380 . S
O777 C788 1.276 . S
O778 Eu743 2.432 . S
O778 C795 1.264 . S
O779 Eu732 2.339 . S
O779 C795 1.254 . S
O780 Eu732 2.563 . S
O780 C788 1.235 . S
O781 Eu732 2.419 . S
O781 C796 1.249 . S
O782 Eu743 2.558 . S
O782 C807 1.257 . S
O783 Eu732 2.380 . S
O783 Eu743 2.612 . S
O783 C799 1.276 . S
O784 Eu732 2.432 . S
O784 C806 1.264 . S
O785 Eu743 2.339 . S
O785 C806 1.254 . S
O786 Eu743 2.563 . S
O786 C799 1.235 . S
O787 Eu743 2.419 . S
O787 C807 1.249 . S
C788 O777 1.276 . S
C788 O780 1.235 . S
C789 C791 1.393 . S
C789 C793 1.395 . S
C789 C796 1.492 . S
C790 C791 1.392 . S
C790 C792 1.386 . S
C791 C789 1.393 . S
C791 C790 1.392 . S
C791 H808 0.930 . S
C792 C790 1.386 . S
C792 C794 1.395 . S
C792 H809 0.930 . S
C793 C789 1.395 . S
C793 C794 1.379 . S
C793 H810 0.930 . S
C794 C792 1.395 . S
C794 C793 1.379 . S
C794 H811 0.930 . S
C795 O778 1.264 . S
C795 O779 1.254 . S
C796 Eu732 2.848 . S
C796 O776 1.257 . S
C796 O781 1.249 . S
C796 C789 1.492 . S
C797 H762 0.931 . S
C797 C775 1.420 . S
C797 C798 1.351 . S
C798 H760 0.930 . S
C798 C766 1.423 . S
C798 C797 1.351 . S
C799 O783 1.276 . S
C799 O786 1.235 . S
C800 C801 1.393 . S
C800 C804 1.395 . S
C800 C807 1.492 . S
C801 C800 1.393 . S
C801 C802 1.392 . S
C801 H812 0.930 . S
C802 C801 1.392 . S
C802 C803 1.386 . S
C803 C802 1.386 . S
C803 C805 1.395 . S
C803 H813 0.930 . S
C804 C800 1.395 . S
C804 C805 1.379 . S
C804 H814 0.930 . S
C805 C803 1.395 . S
C805 C804 1.379 . S
C805 H815 0.930 . S
C806 O784 1.264 . S
C806 O785 1.254 . S
C807 Eu743 2.848 . S
C807 O782 1.257 . S
C807 O787 1.249 . S
C807 C800 1.492 . S
H808 C791 0.930 . S
H809 C792 0.930 . S
H810 C793 0.930 . S
H811 C794 0.930 . S
H812 C801 0.930 . S
H813 C803 0.930 . S
H814 C804 0.930 . S
H815 C805 0.930 . S
Eu816 N847 2.657 . S
Eu816 N854 2.609 . S
Eu816 O860 2.558 . S
Eu816 O861 2.612 . S
Eu816 O863 2.339 . S
Eu816 O864 2.563 . S
Eu816 O865 2.419 . S
Eu816 O867 2.380 . S
Eu816 O868 2.432 . S
Eu816 C880 2.848 . S
C817 C820 1.429 . S
C817 C821 1.411 . S
C817 N824 1.377 . S
C818 C820 1.420 . S
C818 C822 1.423 . S
C818 C830 1.392 . S
C819 C821 1.420 . S
C819 C822 1.351 . S
C819 H842 0.931 . S
C820 C817 1.429 . S
C820 C818 1.420 . S
C820 N828 1.362 . S
C821 C817 1.411 . S
C821 C819 1.420 . S
C821 C826 1.395 . S
C822 C818 1.423 . S
C822 C819 1.351 . S
C822 H834 0.930 . S
C823 C825 1.400 . S
C823 C826 1.386 . S
C823 H835 0.930 . S
N824 C817 1.377 . S
N824 C825 1.321 . S
N824 Eu827 2.609 . S
C825 C823 1.400 . S
C825 N824 1.321 . S
C825 H832 0.930 . S
C826 C821 1.395 . S
C826 C823 1.386 . S
C826 H845 0.930 . S
Eu827 N824 2.609 . S
Eu827 N828 2.657 . S
Eu827 O861 2.380 1_556 S
Eu827 O862 2.432 1_556 S
Eu827 O866 2.558 . S
Eu827 O867 2.612 1_556 S
Eu827 O869 2.339 . S
Eu827 O870 2.563 . S
Eu827 O871 2.419 . S
Eu827 C891 2.848 . S
N828 C820 1.362 . S
N828 Eu827 2.657 . S
N828 C829 1.334 . S
C829 N828 1.334 . S
C829 C831 1.413 1_545 S
C829 H836 0.929 . S
C830 C818 1.392 . S
C830 C831 1.367 1_545 S
C830 H838 0.930 1_545 S
C831 C829 1.413 1_565 S
C831 C830 1.367 1_565 S
C831 H833 0.930 . S
H832 C825 0.930 . S
H833 C831 0.930 . S
H834 C822 0.930 . S
H835 C823 0.930 . S
H836 C829 0.929 . S
H837 C851 0.930 . S
H838 C830 0.930 1_565 S
H839 C857 0.930 1_565 S
H840 C848 0.929 . S
H841 C855 0.930 . S
H842 C819 0.931 . S
H843 C849 0.930 . S
H844 C882 0.930 . S
H845 C826 0.930 . S
H846 C881 0.931 . S
N847 Eu816 2.657 . S
N847 C848 1.334 . S
N847 C852 1.362 . S
C848 H840 0.929 . S
C848 N847 1.334 . S
C848 C851 1.413 . S
C849 H843 0.930 . S
C849 C850 1.392 . S
C849 C851 1.367 . S
C850 C849 1.392 . S
C850 C852 1.420 . S
C850 C882 1.423 . S
C851 H837 0.930 . S
C851 C848 1.413 . S
C851 C849 1.367 . S
C852 N847 1.362 . S
C852 C850 1.420 . S
C852 C856 1.429 . S
H853 C858 0.897 1_565 S
N854 Eu816 2.609 . S
N854 C856 1.377 . S
N854 C857 1.321 . S
C855 H841 0.930 . S
C855 C857 1.400 1_565 S
C855 C858 1.386 1_565 S
C856 C852 1.429 . S
C856 N854 1.377 . S
C856 C859 1.411 . S
C857 H839 0.930 1_545 S
C857 N854 1.321 . S
C857 C855 1.400 1_545 S
C858 H853 0.897 1_545 S
C858 C855 1.386 1_545 S
C858 C859 1.395 . S
C859 C856 1.411 . S
C859 C858 1.395 . S
C859 C881 1.420 . S
O860 Eu816 2.558 . S
O860 C880 1.257 . S
O861 Eu816 2.612 . S
O861 Eu827 2.380 1_554 S
O861 C872 1.276 . S
O862 Eu827 2.432 1_554 S
O862 C879 1.264 . S
O863 Eu816 2.339 . S
O863 C879 1.254 . S
O864 Eu816 2.563 . S
O864 C872 1.235 . S
O865 Eu816 2.419 . S
O865 C880 1.249 . S
O866 Eu827 2.558 . S
O866 C891 1.257 . S
O867 Eu816 2.380 . S
O867 Eu827 2.612 1_554 S
O867 C883 1.276 . S
O868 Eu816 2.432 . S
O868 C890 1.264 1_554 S
O869 Eu827 2.339 . S
O869 C890 1.254 . S
O870 Eu827 2.563 . S
O870 C883 1.235 1_556 S
O871 Eu827 2.419 . S
O871 C891 1.249 . S
C872 O861 1.276 . S
C872 O864 1.235 . S
C873 C875 1.393 . S
C873 C877 1.395 . S
C873 C880 1.492 . S
C874 C875 1.392 . S
C874 C876 1.386 . S
C875 C873 1.393 . S
C875 C874 1.392 . S
C875 H892 0.930 . S
C876 C874 1.386 . S
C876 C878 1.395 . S
C876 H893 0.930 . S
C877 C873 1.395 . S
C877 C878 1.379 . S
C877 H894 0.930 1_545 S
C878 C876 1.395 . S
C878 C877 1.379 . S
C878 H895 0.930 1_545 S
C879 O862 1.264 . S
C879 O863 1.254 . S
C880 Eu816 2.848 . S
C880 O860 1.257 . S
C880 O865 1.249 . S
C880 C873 1.492 . S
C881 H846 0.931 . S
C881 C859 1.420 . S
C881 C882 1.351 . S
C882 H844 0.930 . S
C882 C850 1.423 . S
C882 C881 1.351 . S
C883 O867 1.276 . S
C883 O870 1.235 1_554 S
C884 C885 1.393 . S
C884 C888 1.395 . S
C884 C891 1.492 . S
C885 C884 1.393 . S
C885 C886 1.392 . S
C885 H896 0.930 . S
C886 C885 1.392 . S
C886 C887 1.386 . S
C887 C886 1.386 . S
C887 C889 1.395 . S
C887 H897 0.930 . S
C888 C884 1.395 . S
C888 C889 1.379 . S
C888 H898 0.930 . S
C889 C887 1.395 . S
C889 C888 1.379 . S
C889 H899 0.930 . S
C890 O868 1.264 1_556 S
C890 O869 1.254 . S
C891 Eu827 2.848 . S
C891 O866 1.257 . S
C891 O871 1.249 . S
C891 C884 1.492 . S
H892 C875 0.930 . S
H893 C876 0.930 . S
H894 C877 0.930 1_565 S
H895 C878 0.930 1_565 S
H896 C885 0.930 . S
H897 C887 0.930 . S
H898 C888 0.930 . S
H899 C889 0.930 . S
Eu900 N931 2.657 . S
Eu900 N938 2.609 . S
Eu900 O944 2.558 . S
Eu900 O945 2.612 . S
Eu900 O947 2.339 . S
Eu900 O948 2.563 . S
Eu900 O949 2.419 . S
Eu900 O951 2.380 . S
Eu900 O952 2.432 . S
Eu900 C964 2.848 . S
C901 C904 1.429 . S
C901 C905 1.411 . S
C901 N908 1.377 . S
C902 C904 1.420 . S
C902 C906 1.423 . S
C902 C914 1.392 . S
C903 C905 1.420 . S
C903 C906 1.351 . S
C903 H926 0.931 . S
C904 C901 1.429 . S
C904 C902 1.420 . S
C904 N912 1.362 . S
C905 C901 1.411 . S
C905 C903 1.420 . S
C905 C910 1.395 . S
C906 C902 1.423 . S
C906 C903 1.351 . S
C906 H918 0.930 . S
C907 C909 1.400 . S
C907 C910 1.386 . S
C907 H919 0.930 . S
N908 C901 1.377 . S
N908 C909 1.321 . S
N908 Eu911 2.609 . S
C909 C907 1.400 . S
C909 N908 1.321 . S
C909 H916 0.930 . S
C910 C905 1.395 . S
C910 C907 1.386 . S
C910 H929 0.930 . S
Eu911 N908 2.609 . S
Eu911 N912 2.657 . S
Eu911 O945 2.380 . S
Eu911 O946 2.432 . S
Eu911 O950 2.558 . S
Eu911 O951 2.612 . S
Eu911 O953 2.339 . S
Eu911 O954 2.563 . S
Eu911 O955 2.419 . S
Eu911 C975 2.848 . S
N912 C904 1.362 . S
N912 Eu911 2.657 . S
N912 C913 1.334 . S
C913 N912 1.334 . S
C913 C915 1.413 . S
C913 H920 0.929 . S
C914 C902 1.392 . S
C914 C915 1.367 . S
C914 H922 0.930 . S
C915 C913 1.413 . S
C915 C914 1.367 . S
C915 H917 0.930 . S
H916 C909 0.930 . S
H917 C915 0.930 . S
H918 C906 0.930 . S
H919 C907 0.930 . S
H920 C913 0.929 . S
H921 C935 0.930 . S
H922 C914 0.930 . S
H923 C941 0.930 . S
H924 C932 0.929 . S
H925 C939 0.930 . S
H926 C903 0.931 . S
H927 C933 0.930 . S
H928 C966 0.930 . S
H929 C910 0.930 . S
H930 C965 0.931 . S
N931 Eu900 2.657 . S
N931 C932 1.334 . S
N931 C936 1.362 . S
C932 H924 0.929 . S
C932 N931 1.334 . S
C932 C935 1.413 . S
C933 H927 0.930 . S
C933 C934 1.392 . S
C933 C935 1.367 . S
C934 C933 1.392 . S
C934 C936 1.420 . S
C934 C966 1.423 . S
C935 H921 0.930 . S
C935 C932 1.413 . S
C935 C933 1.367 . S
C936 N931 1.362 . S
C936 C934 1.420 . S
C936 C940 1.429 . S
H937 C942 0.930 . S
N938 Eu900 2.609 . S
N938 C940 1.377 . S
N938 C941 1.321 . S
C939 H925 0.930 . S
C939 C941 1.400 . S
C939 C942 1.386 . S
C940 C936 1.429 . S
C940 N938 1.377 . S
C940 C943 1.411 . S
C941 H923 0.930 . S
C941 N938 1.321 . S
C941 C939 1.400 . S
C942 H937 0.930 . S
C942 C939 1.386 . S
C942 C943 1.395 . S
C943 C940 1.411 . S
C943 C942 1.395 . S
C943 C965 1.420 . S
O944 Eu900 2.558 . S
O944 C964 1.257 . S
O945 Eu900 2.612 . S
O945 Eu911 2.380 . S
O945 C956 1.276 . S
O946 Eu911 2.432 . S
O946 C963 1.264 . S
O947 Eu900 2.339 . S
O947 C963 1.254 . S
O948 Eu900 2.563 . S
O948 C956 1.235 . S
O949 Eu900 2.419 . S
O949 C964 1.249 . S
O950 Eu911 2.558 . S
O950 C975 1.257 . S
O951 Eu900 2.380 . S
O951 Eu911 2.612 . S
O951 C967 1.276 . S
O952 Eu900 2.432 . S
O952 C974 1.264 . S
O953 Eu911 2.339 . S
O953 C974 1.254 . S
O954 Eu911 2.563 . S
O954 C967 1.235 . S
O955 Eu911 2.419 . S
O955 C975 1.249 . S
C956 O945 1.276 . S
C956 O948 1.235 . S
C957 C959 1.393 . S
C957 C961 1.395 . S
C957 C964 1.492 . S
C958 C959 1.392 . S
C958 C960 1.386 . S
C959 C957 1.393 . S
C959 C958 1.392 . S
C959 H976 0.930 . S
C960 C958 1.386 . S
C960 C962 1.395 . S
C960 H977 0.930 . S
C961 C957 1.395 . S
C961 C962 1.379 . S
C961 H978 0.930 . S
C962 C960 1.395 . S
C962 C961 1.379 . S
C962 H979 0.930 . S
C963 O946 1.264 . S
C963 O947 1.254 . S
C964 Eu900 2.848 . S
C964 O944 1.257 . S
C964 O949 1.249 . S
C964 C957 1.492 . S
C965 H930 0.931 . S
C965 C943 1.420 . S
C965 C966 1.351 . S
C966 H928 0.930 . S
C966 C934 1.423 . S
C966 C965 1.351 . S
C967 O951 1.276 . S
C967 O954 1.235 . S
C968 C969 1.393 . S
C968 C972 1.395 . S
C968 C975 1.492 . S
C969 C968 1.393 . S
C969 C970 1.392 . S
C969 H980 0.930 . S
C970 C969 1.392 . S
C970 C971 1.386 . S
C971 C970 1.386 . S
C971 C973 1.395 . S
C971 H981 0.930 . S
C972 C968 1.395 . S
C972 C973 1.379 . S
C972 H982 0.930 . S
C973 C971 1.395 . S
C973 C972 1.379 . S
C973 H983 0.930 . S
C974 O952 1.264 . S
C974 O953 1.254 . S
C975 Eu911 2.848 . S
C975 O950 1.257 . S
C975 O955 1.249 . S
C975 C968 1.492 . S
H976 C959 0.930 . S
H977 C960 0.930 . S
H978 C961 0.930 . S
H979 C962 0.930 . S
H980 C969 0.930 . S
H981 C971 0.930 . S
H982 C972 0.930 . S
H983 C973 0.930 . S
Eu984 N1015 2.657 . S
Eu984 N1022 2.609 . S
Eu984 O1028 2.558 . S
Eu984 O1029 2.612 1_554 S
Eu984 O1031 2.339 . S
Eu984 O1032 2.563 1_554 S
Eu984 O1033 2.419 . S
Eu984 O1035 2.380 . S
Eu984 O1036 2.432 . S
Eu984 C1048 2.848 . S
C985 C988 1.429 . S
C985 C989 1.411 . S
C985 N992 1.377 . S
C986 C988 1.420 . S
C986 C990 1.423 . S
C986 C998 1.392 . S
C987 C989 1.420 . S
C987 C990 1.351 . S
C987 H1010 0.931 . S
C988 C985 1.429 . S
C988 C986 1.420 . S
C988 N996 1.362 . S
C989 C985 1.411 . S
C989 C987 1.420 . S
C989 C994 1.395 . S
C990 C986 1.423 . S
C990 C987 1.351 . S
C990 H1002 0.930 . S
C991 C993 1.400 . S
C991 C994 1.386 . S
C991 H1003 0.930 . S
N992 C985 1.377 . S
N992 C993 1.321 . S
N992 Eu995 2.609 1_556 S
C993 C991 1.400 . S
C993 N992 1.321 . S
C993 H1000 0.930 . S
C994 C989 1.395 . S
C994 C991 1.386 . S
C994 H1013 0.930 . S
Eu995 N992 2.609 1_554 S
Eu995 N996 2.657 1_554 S
Eu995 O1029 2.380 1_554 S
Eu995 O1030 2.432 . S
Eu995 O1034 2.558 . S
Eu995 O1035 2.612 . S
Eu995 O1037 2.339 . S
Eu995 O1038 2.563 . S
Eu995 O1039 2.419 . S
Eu995 C1059 2.848 . S
N996 C988 1.362 . S
N996 Eu995 2.657 1_556 S
N996 C997 1.334 . S
C997 N996 1.334 . S
C997 C999 1.413 . S
C997 H1004 0.929 . S
C998 C986 1.392 . S
C998 C999 1.367 . S
C998 H1006 0.930 . S
C999 C997 1.413 . S
C999 C998 1.367 . S
C999 H1001 0.930 . S
H1000 C993 0.930 . S
H1001 C999 0.930 . S
H1002 C990 0.930 . S
H1003 C991 0.930 . S
H1004 C997 0.929 . S
H1005 C1019 0.930 . S
H1006 C998 0.930 . S
H1007 C1025 0.930 . S
H1008 C1016 0.929 . S
H1009 C1023 0.930 . S
H1010 C987 0.931 . S
H1011 C1017 0.930 . S
H1012 C1050 0.930 . S
H1013 C994 0.930 . S
H1014 C1049 0.931 . S
N1015 Eu984 2.657 . S
N1015 C1016 1.334 . S
N1015 C1020 1.362 . S
C1016 H1008 0.929 . S
C1016 N1015 1.334 . S
C1016 C1019 1.413 . S
C1017 H1011 0.930 . S
C1017 C1018 1.392 . S
C1017 C1019 1.367 . S
C1018 C1017 1.392 . S
C1018 C1020 1.420 . S
C1018 C1050 1.423 . S
C1019 H1005 0.930 . S
C1019 C1016 1.413 . S
C1019 C1017 1.367 . S
C1020 N1015 1.362 . S
C1020 C1018 1.420 . S
C1020 C1024 1.429 . S
H1021 C1026 0.930 . S
N1022 Eu984 2.609 . S
N1022 C1024 1.377 . S
N1022 C1025 1.321 . S
C1023 H1009 0.930 . S
C1023 C1025 1.400 . S
C1023 C1026 1.386 . S
C1024 C1020 1.429 . S
C1024 N1022 1.377 . S
C1024 C1027 1.411 . S
C1025 H1007 0.930 . S
C1025 N1022 1.321 . S
C1025 C1023 1.400 . S
C1026 H1021 0.930 . S
C1026 C1023 1.386 . S
C1026 C1027 1.395 . S
C1027 C1024 1.411 . S
C1027 C1026 1.395 . S
C1027 C1049 1.420 . S
O1028 Eu984 2.558 . S
O1028 C1048 1.257 . S
O1029 Eu984 2.612 1_556 S
O1029 Eu995 2.380 1_556 S
O1029 C1040 1.276 . S
O1030 Eu995 2.432 . S
O1030 C1047 1.264 . S
O1031 Eu984 2.339 . S
O1031 C1047 1.254 . S
O1032 Eu984 2.563 1_556 S
O1032 C1040 1.235 . S
O1033 Eu984 2.419 . S
O1033 C1048 1.249 . S
O1034 Eu995 2.558 . S
O1034 C1059 1.257 . S
O1035 Eu984 2.380 . S
O1035 Eu995 2.612 . S
O1035 C1051 1.276 . S
O1036 Eu984 2.432 . S
O1036 C1058 1.264 . S
O1037 Eu995 2.339 . S
O1037 C1058 1.254 . S
O1038 Eu995 2.563 . S
O1038 C1051 1.235 . S
O1039 Eu995 2.419 . S
O1039 C1059 1.249 . S
C1040 O1029 1.276 . S
C1040 O1032 1.235 . S
C1041 C1043 1.393 1_554 S
C1041 C1045 1.395 . S
C1041 C1048 1.492 . S
C1042 C1043 1.392 . S
C1042 C1044 1.386 . S
C1043 C1041 1.393 1_556 S
C1043 C1042 1.392 . S
C1043 H1060 0.930 . S
C1044 C1042 1.386 . S
C1044 C1046 1.395 1_556 S
C1044 H1061 0.930 . S
C1045 C1041 1.395 . S
C1045 C1046 1.379 . S
C1045 H1062 0.930 . S
C1046 C1044 1.395 1_554 S
C1046 C1045 1.379 . S
C1046 H1063 0.930 . S
C1047 O1030 1.264 . S
C1047 O1031 1.254 . S
C1048 Eu984 2.848 . S
C1048 O1028 1.257 . S
C1048 O1033 1.249 . S
C1048 C1041 1.492 . S
C1049 H1014 0.931 . S
C1049 C1027 1.420 . S
C1049 C1050 1.351 . S
C1050 H1012 0.930 . S
C1050 C1018 1.423 . S
C1050 C1049 1.351 . S
C1051 O1035 1.276 . S
C1051 O1038 1.235 . S
C1052 C1053 1.393 . S
C1052 C1056 1.395 . S
C1052 C1059 1.492 . S
C1053 C1052 1.393 . S
C1053 C1054 1.392 . S
C1053 H1064 0.930 . S
C1054 C1053 1.392 . S
C1054 C1055 1.386 . S
C1055 C1054 1.386 . S
C1055 C1057 1.395 . S
C1055 H1065 0.930 . S
C1056 C1052 1.395 . S
C1056 C1057 1.379 . S
C1056 H1066 0.930 . S
C1057 C1055 1.395 . S
C1057 C1056 1.379 . S
C1057 H1067 0.930 . S
C1058 O1036 1.264 . S
C1058 O1037 1.254 . S
C1059 Eu995 2.848 . S
C1059 O1034 1.257 . S
C1059 O1039 1.249 . S
C1059 C1052 1.492 . S
H1060 C1043 0.930 . S
H1061 C1044 0.930 . S
H1062 C1045 0.930 . S
H1063 C1046 0.930 . S
H1064 C1053 0.930 . S
H1065 C1055 0.930 . S
H1066 C1056 0.930 . S
H1067 C1057 0.930 . S
Eu1068 N1099 2.657 . S
Eu1068 N1106 2.609 . S
Eu1068 O1112 2.558 . S
Eu1068 O1113 2.612 . S
Eu1068 O1115 2.339 . S
Eu1068 O1116 2.563 . S
Eu1068 O1117 2.419 . S
Eu1068 O1119 2.380 . S
Eu1068 O1120 2.432 . S
Eu1068 C1132 2.848 . S
C1069 C1072 1.429 . S
C1069 C1073 1.411 . S
C1069 N1076 1.377 . S
C1070 C1072 1.420 . S
C1070 C1074 1.423 . S
C1070 C1082 1.392 . S
C1071 C1073 1.420 . S
C1071 C1074 1.351 . S
C1071 H1094 0.931 . S
C1072 C1069 1.429 . S
C1072 C1070 1.420 . S
C1072 N1080 1.362 . S
C1073 C1069 1.411 . S
C1073 C1071 1.420 . S
C1073 C1078 1.395 . S
C1074 C1070 1.423 . S
C1074 C1071 1.351 . S
C1074 H1086 0.930 . S
C1075 C1077 1.400 . S
C1075 C1078 1.386 . S
C1075 H1087 0.930 . S
N1076 C1069 1.377 . S
N1076 C1077 1.321 . S
N1076 Eu1079 2.609 . S
C1077 C1075 1.400 . S
C1077 N1076 1.321 . S
C1077 H1084 0.930 . S
C1078 C1073 1.395 . S
C1078 C1075 1.386 . S
C1078 H1097 0.930 . S
Eu1079 N1076 2.609 . S
Eu1079 N1080 2.657 . S
Eu1079 O1113 2.380 . S
Eu1079 O1114 2.432 . S
Eu1079 O1118 2.558 . S
Eu1079 O1119 2.612 . S
Eu1079 O1121 2.339 . S
Eu1079 O1122 2.563 . S
Eu1079 O1123 2.419 . S
Eu1079 C1143 2.848 . S
N1080 C1072 1.362 . S
N1080 Eu1079 2.657 . S
N1080 C1081 1.334 . S
C1081 N1080 1.334 . S
C1081 C1083 1.413 . S
C1081 H1088 0.929 . S
C1082 C1070 1.392 . S
C1082 C1083 1.367 . S
C1082 H1090 0.930 . S
C1083 C1081 1.413 . S
C1083 C1082 1.367 . S
C1083 H1085 0.930 . S
H1084 C1077 0.930 . S
H1085 C1083 0.930 . S
H1086 C1074 0.930 . S
H1087 C1075 0.930 . S
H1088 C1081 0.929 . S
H1089 C1103 0.930 . S
H1090 C1082 0.930 . S
H1091 C1109 0.930 . S
H1092 C1100 0.929 . S
H1093 C1107 0.930 . S
H1094 C1071 0.931 . S
H1095 C1101 0.930 . S
H1096 C1134 0.930 . S
H1097 C1078 0.930 . S
H1098 C1133 0.931 . S
N1099 Eu1068 2.657 . S
N1099 C1100 1.334 . S
N1099 C1104 1.362 . S
C1100 H1092 0.929 . S
C1100 N1099 1.334 . S
C1100 C1103 1.413 . S
C1101 H1095 0.930 . S
C1101 C1102 1.392 . S
C1101 C1103 1.367 . S
C1102 C1101 1.392 . S
C1102 C1104 1.420 . S
C1102 C1134 1.423 . S
C1103 H1089 0.930 . S
C1103 C1100 1.413 . S
C1103 C1101 1.367 . S
C1104 N1099 1.362 . S
C1104 C1102 1.420 . S
C1104 C1108 1.429 . S
H1105 C1110 0.930 . S
N1106 Eu1068 2.609 . S
N1106 C1108 1.377 . S
N1106 C1109 1.321 . S
C1107 H1093 0.930 . S
C1107 C1109 1.400 . S
C1107 C1110 1.386 . S
C1108 C1104 1.429 . S
C1108 N1106 1.377 . S
C1108 C1111 1.411 . S
C1109 H1091 0.930 . S
C1109 N1106 1.321 . S
C1109 C1107 1.400 . S
C1110 H1105 0.930 . S
C1110 C1107 1.386 . S
C1110 C1111 1.395 . S
C1111 C1108 1.411 . S
C1111 C1110 1.395 . S
C1111 C1133 1.420 . S
O1112 Eu1068 2.558 . S
O1112 C1132 1.257 . S
O1113 Eu1068 2.612 . S
O1113 Eu1079 2.380 . S
O1113 C1124 1.276 . S
O1114 Eu1079 2.432 . S
O1114 C1131 1.264 . S
O1115 Eu1068 2.339 . S
O1115 C1131 1.254 . S
O1116 Eu1068 2.563 . S
O1116 C1124 1.235 . S
O1117 Eu1068 2.419 . S
O1117 C1132 1.249 . S
O1118 Eu1079 2.558 . S
O1118 C1143 1.257 . S
O1119 Eu1068 2.380 . S
O1119 Eu1079 2.612 . S
O1119 C1135 1.276 . S
O1120 Eu1068 2.432 . S
O1120 C1142 1.264 . S
O1121 Eu1079 2.339 . S
O1121 C1142 1.254 . S
O1122 Eu1079 2.563 . S
O1122 C1135 1.235 . S
O1123 Eu1079 2.419 . S
O1123 C1143 1.249 . S
C1124 O1113 1.276 . S
C1124 O1116 1.235 . S
C1125 C1127 1.393 . S
C1125 C1129 1.395 . S
C1125 C1132 1.492 . S
C1126 C1127 1.392 . S
C1126 C1128 1.386 . S
C1127 C1125 1.393 . S
C1127 C1126 1.392 . S
C1127 H1144 0.930 . S
C1128 C1126 1.386 . S
C1128 C1130 1.395 . S
C1128 H1145 0.930 . S
C1129 C1125 1.395 . S
C1129 C1130 1.379 . S
C1129 H1146 0.930 . S
C1130 C1128 1.395 . S
C1130 C1129 1.379 . S
C1130 H1147 0.930 . S
C1131 O1114 1.264 . S
C1131 O1115 1.254 . S
C1132 Eu1068 2.848 . S
C1132 O1112 1.257 . S
C1132 O1117 1.249 . S
C1132 C1125 1.492 . S
C1133 H1098 0.931 . S
C1133 C1111 1.420 . S
C1133 C1134 1.351 . S
C1134 H1096 0.930 . S
C1134 C1102 1.423 . S
C1134 C1133 1.351 . S
C1135 O1119 1.276 . S
C1135 O1122 1.235 . S
C1136 C1137 1.393 . S
C1136 C1140 1.395 . S
C1136 C1143 1.492 . S
C1137 C1136 1.393 . S
C1137 C1138 1.392 . S
C1137 H1148 0.930 . S
C1138 C1137 1.392 . S
C1138 C1139 1.386 . S
C1139 C1138 1.386 . S
C1139 C1141 1.395 . S
C1139 H1149 0.930 . S
C1140 C1136 1.395 . S
C1140 C1141 1.379 . S
C1140 H1150 0.930 . S
C1141 C1139 1.395 . S
C1141 C1140 1.379 . S
C1141 H1151 0.930 . S
C1142 O1120 1.264 . S
C1142 O1121 1.254 . S
C1143 Eu1079 2.848 . S
C1143 O1118 1.257 . S
C1143 O1123 1.249 . S
C1143 C1136 1.492 . S
H1144 C1127 0.930 . S
H1145 C1128 0.930 . S
H1146 C1129 0.930 . S
H1147 C1130 0.930 . S
H1148 C1137 0.930 . S
H1149 C1139 0.930 . S
H1150 C1140 0.930 . S
H1151 C1141 0.930 . S
Eu1152 N1183 2.657 . S
Eu1152 N1190 2.609 . S
Eu1152 O1196 2.558 . S
Eu1152 O1197 2.612 . S
Eu1152 O1199 2.339 . S
Eu1152 O1200 2.563 . S
Eu1152 O1201 2.419 . S
Eu1152 O1203 2.380 . S
Eu1152 O1204 2.432 . S
Eu1152 C1216 2.848 . S
C1153 C1156 1.429 . S
C1153 C1157 1.411 . S
C1153 N1160 1.377 1_655 S
C1154 C1156 1.420 . S
C1154 C1158 1.423 . S
C1154 C1166 1.392 . S
C1155 C1157 1.420 . S
C1155 C1158 1.351 . S
C1155 H1178 0.931 . S
C1156 C1153 1.429 . S
C1156 C1154 1.420 . S
C1156 N1164 1.362 1_655 S
C1157 C1153 1.411 . S
C1157 C1155 1.420 . S
C1157 C1162 1.395 . S
C1158 C1154 1.423 . S
C1158 C1155 1.351 . S
C1158 H1170 0.930 . S
C1159 C1161 1.400 1_655 S
C1159 C1162 1.386 . S
C1159 H1171 0.930 . S
N1160 C1153 1.377 1_455 S
N1160 C1161 1.321 . S
N1160 Eu1163 2.609 . S
C1161 C1159 1.400 1_455 S
C1161 N1160 1.321 . S
C1161 H1168 0.930 . S
C1162 C1157 1.395 . S
C1162 C1159 1.386 . S
C1162 H1181 0.930 . S
Eu1163 N1160 2.609 . S
Eu1163 N1164 2.657 . S
Eu1163 O1197 2.380 . S
Eu1163 O1198 2.432 . S
Eu1163 O1202 2.558 . S
Eu1163 O1203 2.612 . S
Eu1163 O1205 2.339 . S
Eu1163 O1206 2.563 . S
Eu1163 O1207 2.419 . S
Eu1163 C1227 2.848 . S
N1164 C1156 1.362 1_455 S
N1164 Eu1163 2.657 . S
N1164 C1165 1.334 . S
C1165 N1164 1.334 . S
C1165 C1167 1.413 1_455 S
C1165 H1172 0.929 . S
C1166 C1154 1.392 . S
C1166 C1167 1.367 . S
C1166 H1174 0.930 . S
C1167 C1165 1.413 1_655 S
C1167 C1166 1.367 . S
C1167 H1169 0.930 . S
H1168 C1161 0.930 . S
H1169 C1167 0.930 . S
H1170 C1158 0.930 . S
H1171 C1159 0.930 . S
H1172 C1165 0.929 . S
H1173 C1187 0.930 . S
H1174 C1166 0.930 . S
H1175 C1193 0.930 . S
H1176 C1184 0.929 . S
H1177 C1191 0.930 . S
H1178 C1155 0.931 . S
H1179 C1185 0.930 . S
H1180 C1218 0.930 . S
H1181 C1162 0.930 . S
H1182 C1217 0.931 . S
N1183 Eu1152 2.657 . S
N1183 C1184 1.334 . S
N1183 C1188 1.362 . S
C1184 H1176 0.929 . S
C1184 N1183 1.334 . S
C1184 C1187 1.413 . S
C1185 H1179 0.930 . S
C1185 C1186 1.392 . S
C1185 C1187 1.367 . S
C1186 C1185 1.392 . S
C1186 C1188 1.420 . S
C1186 C1218 1.423 . S
C1187 H1173 0.930 . S
C1187 C1184 1.413 . S
C1187 C1185 1.367 . S
C1188 N1183 1.362 . S
C1188 C1186 1.420 . S
C1188 C1192 1.429 . S
H1189 C1194 0.930 . S
N1190 Eu1152 2.609 . S
N1190 C1192 1.377 . S
N1190 C1193 1.321 . S
C1191 H1177 0.930 . S
C1191 C1193 1.400 . S
C1191 C1194 1.386 . S
C1192 C1188 1.429 . S
C1192 N1190 1.377 . S
C1192 C1195 1.411 . S
C1193 H1175 0.930 . S
C1193 N1190 1.321 . S
C1193 C1191 1.400 . S
C1194 H1189 0.930 . S
C1194 C1191 1.386 . S
C1194 C1195 1.395 . S
C1195 C1192 1.411 . S
C1195 C1194 1.395 . S
C1195 C1217 1.420 . S
O1196 Eu1152 2.558 . S
O1196 C1216 1.257 . S
O1197 Eu1152 2.612 . S
O1197 Eu1163 2.380 . S
O1197 C1208 1.324 . S
O1198 Eu1163 2.432 . S
O1198 C1215 1.264 . S
O1199 Eu1152 2.339 . S
O1199 C1215 1.254 . S
O1200 Eu1152 2.563 . S
O1200 C1208 1.248 . S
O1201 Eu1152 2.419 . S
O1201 C1216 1.249 . S
O1202 Eu1163 2.558 . S
O1202 C1227 1.257 . S
O1203 Eu1152 2.380 . S
O1203 Eu1163 2.612 . S
O1203 C1219 1.276 . S
O1204 Eu1152 2.432 . S
O1204 C1226 1.264 . S
O1205 Eu1163 2.339 . S
O1205 C1226 1.254 . S
O1206 Eu1163 2.563 . S
O1206 C1219 1.235 . S
O1207 Eu1163 2.419 . S
O1207 C1227 1.249 . S
C1208 O1197 1.324 . S
C1208 O1200 1.248 . S
C1209 C1211 1.393 . S
C1209 C1213 1.395 . S
C1209 C1216 1.492 . S
C1210 C1211 1.392 1_655 S
C1210 C1212 1.398 . S
C1211 C1209 1.393 . S
C1211 C1210 1.392 1_455 S
C1211 H1228 0.930 . S
C1212 C1210 1.398 . S
C1212 C1214 1.368 1_655 S
C1212 H1229 0.945 . S
C1213 C1209 1.395 . S
C1213 C1214 1.379 . S
C1213 H1230 0.930 . S
C1214 C1212 1.368 1_455 S
C1214 C1213 1.379 . S
C1214 H1231 0.930 . S
C1215 O1198 1.264 . S
C1215 O1199 1.254 . S
C1216 Eu1152 2.848 . S
C1216 O1196 1.257 . S
C1216 O1201 1.249 . S
C1216 C1209 1.492 . S
C1217 H1182 0.931 . S
C1217 C1195 1.420 . S
C1217 C1218 1.351 . S
C1218 H1180 0.930 . S
C1218 C1186 1.423 . S
C1218 C1217 1.351 . S
C1219 O1203 1.276 . S
C1219 O1206 1.235 . S
C1220 C1221 1.393 . S
C1220 C1224 1.395 . S
C1220 C1227 1.492 . S
C1221 C1220 1.393 . S
C1221 C1222 1.392 . S
C1221 H1232 0.930 . S
C1222 C1221 1.392 . S
C1222 C1223 1.386 . S
C1223 C1222 1.386 . S
C1223 C1225 1.395 . S
C1223 H1233 0.930 . S
C1224 C1220 1.395 . S
C1224 C1225 1.379 . S
C1224 H1234 0.930 . S
C1225 C1223 1.395 . S
C1225 C1224 1.379 . S
C1225 H1235 0.930 . S
C1226 O1204 1.264 . S
C1226 O1205 1.254 . S
C1227 Eu1163 2.848 . S
C1227 O1202 1.257 . S
C1227 O1207 1.249 . S
C1227 C1220 1.492 . S
H1228 C1211 0.930 . S
H1229 C1212 0.945 . S
H1230 C1213 0.930 . S
H1231 C1214 0.930 . S
H1232 C1221 0.930 . S
H1233 C1223 0.930 . S
H1234 C1224 0.930 . S
H1235 C1225 0.930 . S
Eu1236 N1267 2.657 . S
Eu1236 N1274 2.609 . S
Eu1236 O1280 2.558 . S
Eu1236 O1281 2.612 . S
Eu1236 O1283 2.339 . S
Eu1236 O1284 2.563 . S
Eu1236 O1285 2.419 . S
Eu1236 O1287 2.380 . S
Eu1236 O1288 2.432 . S
Eu1236 C1300 2.848 . S
C1237 C1240 1.429 . S
C1237 C1241 1.411 . S
C1237 N1244 1.377 . S
C1238 C1240 1.420 . S
C1238 C1242 1.423 . S
C1238 C1250 1.392 . S
C1239 C1241 1.420 . S
C1239 C1242 1.351 . S
C1239 H1262 0.931 . S
C1240 C1237 1.429 . S
C1240 C1238 1.420 . S
C1240 N1248 1.362 . S
C1241 C1237 1.411 . S
C1241 C1239 1.420 . S
C1241 C1246 1.395 . S
C1242 C1238 1.423 . S
C1242 C1239 1.351 . S
C1242 H1254 0.930 . S
C1243 C1245 1.400 . S
C1243 C1246 1.386 . S
C1243 H1255 0.930 . S
N1244 C1237 1.377 . S
N1244 C1245 1.321 . S
N1244 Eu1247 2.609 . S
C1245 C1243 1.400 . S
C1245 N1244 1.321 . S
C1245 H1252 0.930 . S
C1246 C1241 1.395 . S
C1246 C1243 1.386 . S
C1246 H1265 0.930 . S
Eu1247 N1244 2.609 . S
Eu1247 N1248 2.657 . S
Eu1247 O1281 2.380 . S
Eu1247 O1282 2.432 . S
Eu1247 O1286 2.558 . S
Eu1247 O1287 2.612 . S
Eu1247 O1289 2.339 . S
Eu1247 O1290 2.563 . S
Eu1247 O1291 2.419 . S
Eu1247 C1311 2.848 . S
N1248 C1240 1.362 . S
N1248 Eu1247 2.657 . S
N1248 C1249 1.334 . S
C1249 N1248 1.334 . S
C1249 C1251 1.413 . S
C1249 H1256 0.929 . S
C1250 C1238 1.392 . S
C1250 C1251 1.367 . S
C1250 H1258 0.930 . S
C1251 C1249 1.413 . S
C1251 C1250 1.367 . S
C1251 H1253 0.930 . S
H1252 C1245 0.930 . S
H1253 C1251 0.930 . S
H1254 C1242 0.930 . S
H1255 C1243 0.930 . S
H1256 C1249 0.929 . S
H1257 C1271 0.930 . S
H1258 C1250 0.930 . S
H1259 C1277 0.930 . S
H1260 C1268 0.929 . S
H1261 C1275 0.930 . S
H1262 C1239 0.931 . S
H1263 C1269 0.930 . S
H1264 C1302 0.930 . S
H1265 C1246 0.930 . S
H1266 C1301 0.931 . S
N1267 Eu1236 2.657 . S
N1267 C1268 1.334 . S
N1267 C1272 1.362 . S
C1268 H1260 0.929 . S
C1268 N1267 1.334 . S
C1268 C1271 1.413 . S
C1269 H1263 0.930 . S
C1269 C1270 1.392 . S
C1269 C1271 1.367 . S
C1270 C1269 1.392 . S
C1270 C1272 1.420 . S
C1270 C1302 1.423 . S
C1271 H1257 0.930 . S
C1271 C1268 1.413 . S
C1271 C1269 1.367 . S
C1272 N1267 1.362 . S
C1272 C1270 1.420 . S
C1272 C1276 1.429 . S
H1273 C1278 0.930 . S
N1274 Eu1236 2.609 . S
N1274 C1276 1.377 . S
N1274 C1277 1.321 . S
C1275 H1261 0.930 . S
C1275 C1277 1.400 . S
C1275 C1278 1.386 . S
C1276 C1272 1.429 . S
C1276 N1274 1.377 . S
C1276 C1279 1.411 . S
C1277 H1259 0.930 . S
C1277 N1274 1.321 . S
C1277 C1275 1.400 . S
C1278 H1273 0.930 . S
C1278 C1275 1.386 . S
C1278 C1279 1.395 . S
C1279 C1276 1.411 . S
C1279 C1278 1.395 . S
C1279 C1301 1.420 . S
O1280 Eu1236 2.558 . S
O1280 C1300 1.257 . S
O1281 Eu1236 2.612 . S
O1281 Eu1247 2.380 . S
O1281 C1292 1.276 . S
O1282 Eu1247 2.432 . S
O1282 C1299 1.264 . S
O1283 Eu1236 2.339 . S
O1283 C1299 1.254 . S
O1284 Eu1236 2.563 . S
O1284 C1292 1.235 . S
O1285 Eu1236 2.419 . S
O1285 C1300 1.249 . S
O1286 Eu1247 2.558 . S
O1286 C1311 1.257 . S
O1287 Eu1236 2.380 . S
O1287 Eu1247 2.612 . S
O1287 C1303 1.276 . S
O1288 Eu1236 2.432 . S
O1288 C1310 1.264 . S
O1289 Eu1247 2.339 . S
O1289 C1310 1.254 . S
O1290 Eu1247 2.563 . S
O1290 C1303 1.235 . S
O1291 Eu1247 2.419 . S
O1291 C1311 1.249 . S
C1292 O1281 1.276 . S
C1292 O1284 1.235 . S
C1293 C1295 1.393 . S
C1293 C1297 1.395 . S
C1293 C1300 1.492 . S
C1294 C1295 1.392 . S
C1294 C1296 1.386 . S
C1295 C1293 1.393 . S
C1295 C1294 1.392 . S
C1295 H1312 0.930 . S
C1296 C1294 1.386 . S
C1296 C1298 1.395 . S
C1296 H1313 0.930 . S
C1297 C1293 1.395 . S
C1297 C1298 1.379 . S
C1297 H1314 0.930 . S
C1298 C1296 1.395 . S
C1298 C1297 1.379 . S
C1298 H1315 0.930 . S
C1299 O1282 1.264 . S
C1299 O1283 1.254 . S
C1300 Eu1236 2.848 . S
C1300 O1280 1.257 . S
C1300 O1285 1.249 . S
C1300 C1293 1.492 . S
C1301 H1266 0.931 . S
C1301 C1279 1.420 . S
C1301 C1302 1.351 . S
C1302 H1264 0.930 . S
C1302 C1270 1.423 . S
C1302 C1301 1.351 . S
C1303 O1287 1.276 . S
C1303 O1290 1.235 . S
C1304 C1305 1.393 . S
C1304 C1308 1.395 . S
C1304 C1311 1.492 . S
C1305 C1304 1.393 . S
C1305 C1306 1.392 . S
C1305 H1316 0.930 . S
C1306 C1305 1.392 . S
C1306 C1307 1.386 . S
C1307 C1306 1.386 . S
C1307 C1309 1.395 . S
C1307 H1317 0.930 . S
C1308 C1304 1.395 . S
C1308 C1309 1.379 . S
C1308 H1318 0.930 . S
C1309 C1307 1.395 . S
C1309 C1308 1.379 . S
C1309 H1319 0.930 . S
C1310 O1288 1.264 . S
C1310 O1289 1.254 . S
C1311 Eu1247 2.848 . S
C1311 O1286 1.257 . S
C1311 O1291 1.249 . S
C1311 C1304 1.492 . S
H1312 C1295 0.930 . S
H1313 C1296 0.930 . S
H1314 C1297 0.930 . S
H1315 C1298 0.930 . S
H1316 C1305 0.930 . S
H1317 C1307 0.930 . S
H1318 C1308 0.930 . S
H1319 C1309 0.930 . S
Eu1320 N1351 2.657 . S
Eu1320 N1358 2.609 . S
Eu1320 O1364 2.558 . S
Eu1320 O1365 2.612 . S
Eu1320 O1367 2.339 . S
Eu1320 O1368 2.563 . S
Eu1320 O1369 2.419 . S
Eu1320 O1371 2.380 . S
Eu1320 O1372 2.432 . S
Eu1320 C1384 2.848 . S
C1321 C1324 1.429 . S
C1321 C1325 1.411 . S
C1321 N1328 1.377 . S
C1322 C1324 1.420 . S
C1322 C1326 1.423 . S
C1322 C1334 1.392 . S
C1323 C1325 1.420 . S
C1323 C1326 1.351 . S
C1323 H1346 0.931 . S
C1324 C1321 1.429 . S
C1324 C1322 1.420 . S
C1324 N1332 1.362 . S
C1325 C1321 1.411 . S
C1325 C1323 1.420 . S
C1325 C1330 1.395 . S
C1326 C1322 1.423 . S
C1326 C1323 1.351 . S
C1326 H1338 0.930 . S
C1327 C1329 1.400 . S
C1327 C1330 1.386 . S
C1327 H1339 0.930 . S
N1328 C1321 1.377 . S
N1328 C1329 1.321 . S
N1328 Eu1331 2.609 . S
C1329 C1327 1.400 . S
C1329 N1328 1.321 . S
C1329 H1336 0.930 . S
C1330 C1325 1.395 . S
C1330 C1327 1.386 . S
C1330 H1349 0.930 . S
Eu1331 N1328 2.609 . S
Eu1331 N1332 2.657 . S
Eu1331 O1365 2.380 . S
Eu1331 O1366 2.432 . S
Eu1331 O1370 2.558 . S
Eu1331 O1371 2.612 . S
Eu1331 O1373 2.339 . S
Eu1331 O1374 2.563 . S
Eu1331 O1375 2.419 . S
Eu1331 C1395 2.848 . S
N1332 C1324 1.362 . S
N1332 Eu1331 2.657 . S
N1332 C1333 1.334 . S
C1333 N1332 1.334 . S
C1333 C1335 1.413 . S
C1333 H1340 0.929 . S
C1334 C1322 1.392 . S
C1334 C1335 1.367 . S
C1334 H1342 0.930 . S
C1335 C1333 1.413 . S
C1335 C1334 1.367 . S
C1335 H1337 0.930 . S
H1336 C1329 0.930 . S
H1337 C1335 0.930 . S
H1338 C1326 0.930 . S
H1339 C1327 0.930 . S
H1340 C1333 0.929 . S
H1341 C1355 0.930 . S
H1342 C1334 0.930 . S
H1343 C1361 0.930 . S
H1344 C1352 0.929 . S
H1345 C1359 0.930 . S
H1346 C1323 0.931 . S
H1347 C1353 0.930 . S
H1348 C1386 0.930 . S
H1349 C1330 0.930 . S
H1350 C1385 0.931 . S
N1351 Eu1320 2.657 . S
N1351 C1352 1.334 . S
N1351 C1356 1.362 . S
C1352 H1344 0.929 . S
C1352 N1351 1.334 . S
C1352 C1355 1.413 . S
C1353 H1347 0.930 . S
C1353 C1354 1.392 . S
C1353 C1355 1.367 . S
C1354 C1353 1.392 . S
C1354 C1356 1.420 . S
C1354 C1386 1.423 . S
C1355 H1341 0.930 . S
C1355 C1352 1.413 . S
C1355 C1353 1.367 . S
C1356 N1351 1.362 . S
C1356 C1354 1.420 . S
C1356 C1360 1.429 . S
H1357 C1362 0.930 . S
N1358 Eu1320 2.609 . S
N1358 C1360 1.377 . S
N1358 C1361 1.321 . S
C1359 H1345 0.930 . S
C1359 C1361 1.400 . S
C1359 C1362 1.386 . S
C1360 C1356 1.429 . S
C1360 N1358 1.377 . S
C1360 C1363 1.411 . S
C1361 H1343 0.930 . S
C1361 N1358 1.321 . S
C1361 C1359 1.400 . S
C1362 H1357 0.930 . S
C1362 C1359 1.386 . S
C1362 C1363 1.395 . S
C1363 C1360 1.411 . S
C1363 C1362 1.395 . S
C1363 C1385 1.420 . S
O1364 Eu1320 2.558 . S
O1364 C1384 1.257 . S
O1365 Eu1320 2.612 . S
O1365 Eu1331 2.380 . S
O1365 C1376 1.276 . S
O1366 Eu1331 2.432 . S
O1366 C1383 1.264 . S
O1367 Eu1320 2.339 . S
O1367 C1383 1.254 . S
O1368 Eu1320 2.563 . S
O1368 C1376 1.235 . S
O1369 Eu1320 2.419 . S
O1369 C1384 1.249 . S
O1370 Eu1331 2.558 . S
O1370 C1395 1.257 . S
O1371 Eu1320 2.380 . S
O1371 Eu1331 2.612 . S
O1371 C1387 1.276 . S
O1372 Eu1320 2.432 . S
O1372 C1394 1.264 . S
O1373 Eu1331 2.339 . S
O1373 C1394 1.254 . S
O1374 Eu1331 2.563 . S
O1374 C1387 1.235 . S
O1375 Eu1331 2.419 . S
O1375 C1395 1.249 . S
C1376 O1365 1.276 . S
C1376 O1368 1.235 . S
C1377 C1379 1.393 . S
C1377 C1381 1.395 . S
C1377 C1384 1.492 . S
C1378 C1379 1.392 . S
C1378 C1380 1.386 . S
C1379 C1377 1.393 . S
C1379 C1378 1.392 . S
C1379 H1396 0.930 . S
C1380 C1378 1.386 . S
C1380 C1382 1.395 . S
C1380 H1397 0.930 . S
C1381 C1377 1.395 . S
C1381 C1382 1.379 . S
C1381 H1398 0.930 . S
C1382 C1380 1.395 . S
C1382 C1381 1.379 . S
C1382 H1399 0.930 . S
C1383 O1366 1.264 . S
C1383 O1367 1.254 . S
C1384 Eu1320 2.848 . S
C1384 O1364 1.257 . S
C1384 O1369 1.249 . S
C1384 C1377 1.492 . S
C1385 H1350 0.931 . S
C1385 C1363 1.420 . S
C1385 C1386 1.351 . S
C1386 H1348 0.930 . S
C1386 C1354 1.423 . S
C1386 C1385 1.351 . S
C1387 O1371 1.276 . S
C1387 O1374 1.235 . S
C1388 C1389 1.393 . S
C1388 C1392 1.395 . S
C1388 C1395 1.492 . S
C1389 C1388 1.393 . S
C1389 C1390 1.392 . S
C1389 H1400 0.930 . S
C1390 C1389 1.392 . S
C1390 C1391 1.386 . S
C1391 C1390 1.386 . S
C1391 C1393 1.395 . S
C1391 H1401 0.930 . S
C1392 C1388 1.395 . S
C1392 C1393 1.379 . S
C1392 H1402 0.930 . S
C1393 C1391 1.395 . S
C1393 C1392 1.379 . S
C1393 H1403 0.930 . S
C1394 O1372 1.264 . S
C1394 O1373 1.254 . S
C1395 Eu1331 2.848 . S
C1395 O1370 1.257 . S
C1395 O1375 1.249 . S
C1395 C1388 1.492 . S
H1396 C1379 0.930 . S
H1397 C1380 0.930 . S
H1398 C1381 0.930 . S
H1399 C1382 0.930 . S
H1400 C1389 0.930 . S
H1401 C1391 0.930 . S
H1402 C1392 0.930 . S
H1403 C1393 0.930 . S
Eu1404 N1435 2.657 . S
Eu1404 N1442 2.609 . S
Eu1404 O1448 2.558 . S
Eu1404 O1449 2.612 . S
Eu1404 O1451 2.339 . S
Eu1404 O1452 2.563 . S
Eu1404 O1453 2.419 . S
Eu1404 O1455 2.380 . S
Eu1404 O1456 2.432 . S
Eu1404 C1468 2.848 . S
C1405 C1408 1.429 . S
C1405 C1409 1.411 . S
C1405 N1412 1.377 . S
C1406 C1408 1.420 . S
C1406 C1410 1.423 . S
C1406 C1418 1.392 . S
C1407 C1409 1.420 . S
C1407 C1410 1.351 . S
C1407 H1430 0.931 . S
C1408 C1405 1.429 . S
C1408 C1406 1.420 . S
C1408 N1416 1.362 . S
C1409 C1405 1.411 . S
C1409 C1407 1.420 . S
C1409 C1414 1.395 . S
C1410 C1406 1.423 . S
C1410 C1407 1.351 . S
C1410 H1422 0.930 . S
C1411 C1413 1.400 . S
C1411 C1414 1.386 . S
C1411 H1423 0.930 . S
N1412 C1405 1.377 . S
N1412 C1413 1.321 . S
N1412 Eu1415 2.609 . S
C1413 C1411 1.400 . S
C1413 N1412 1.321 . S
C1413 H1420 0.930 . S
C1414 C1409 1.395 . S
C1414 C1411 1.386 . S
C1414 H1433 0.930 . S
Eu1415 N1412 2.609 . S
Eu1415 N1416 2.657 . S
Eu1415 O1449 2.380 . S
Eu1415 O1450 2.432 . S
Eu1415 O1454 2.558 . S
Eu1415 O1455 2.612 . S
Eu1415 O1457 2.339 . S
Eu1415 O1458 2.563 . S
Eu1415 O1459 2.419 . S
Eu1415 C1479 2.848 . S
N1416 C1408 1.362 . S
N1416 Eu1415 2.657 . S
N1416 C1417 1.334 . S
C1417 N1416 1.334 . S
C1417 C1419 1.413 . S
C1417 H1424 0.929 . S
C1418 C1406 1.392 . S
C1418 C1419 1.367 . S
C1418 H1426 0.930 . S
C1419 C1417 1.413 . S
C1419 C1418 1.367 . S
C1419 H1421 0.930 . S
H1420 C1413 0.930 . S
H1421 C1419 0.930 . S
H1422 C1410 0.930 . S
H1423 C1411 0.930 . S
H1424 C1417 0.929 . S
H1425 C1439 0.930 . S
H1426 C1418 0.930 . S
H1427 C1445 0.930 . S
H1428 C1436 0.929 . S
H1429 C1443 0.930 . S
H1430 C1407 0.931 . S
H1431 C1437 0.930 . S
H1432 C1470 0.930 . S
H1433 C1414 0.930 . S
H1434 C1469 0.931 . S
N1435 Eu1404 2.657 . S
N1435 C1436 1.334 . S
N1435 C1440 1.362 . S
C1436 H1428 0.929 . S
C1436 N1435 1.334 . S
C1436 C1439 1.413 . S
C1437 H1431 0.930 . S
C1437 C1438 1.392 . S
C1437 C1439 1.367 . S
C1438 C1437 1.392 . S
C1438 C1440 1.420 . S
C1438 C1470 1.423 . S
C1439 H1425 0.930 . S
C1439 C1436 1.413 . S
C1439 C1437 1.367 . S
C1440 N1435 1.362 . S
C1440 C1438 1.420 . S
C1440 C1444 1.429 . S
H1441 C1446 0.930 . S
N1442 Eu1404 2.609 . S
N1442 C1444 1.377 . S
N1442 C1445 1.321 . S
C1443 H1429 0.930 . S
C1443 C1445 1.400 . S
C1443 C1446 1.386 . S
C1444 C1440 1.429 . S
C1444 N1442 1.377 . S
C1444 C1447 1.411 . S
C1445 H1427 0.930 . S
C1445 N1442 1.321 . S
C1445 C1443 1.400 . S
C1446 H1441 0.930 . S
C1446 C1443 1.386 . S
C1446 C1447 1.395 . S
C1447 C1444 1.411 . S
C1447 C1446 1.395 . S
C1447 C1469 1.420 . S
O1448 Eu1404 2.558 . S
O1448 C1468 1.257 . S
O1449 Eu1404 2.612 . S
O1449 Eu1415 2.380 . S
O1449 C1460 1.276 . S
O1450 Eu1415 2.432 . S
O1450 C1467 1.264 . S
O1451 Eu1404 2.339 . S
O1451 C1467 1.254 . S
O1452 Eu1404 2.563 . S
O1452 C1460 1.235 . S
O1453 Eu1404 2.419 . S
O1453 C1468 1.249 . S
O1454 Eu1415 2.558 . S
O1454 C1479 1.257 . S
O1455 Eu1404 2.380 . S
O1455 Eu1415 2.612 . S
O1455 C1471 1.276 . S
O1456 Eu1404 2.432 . S
O1456 C1478 1.264 . S
O1457 Eu1415 2.339 . S
O1457 C1478 1.254 . S
O1458 Eu1415 2.563 . S
O1458 C1471 1.235 . S
O1459 Eu1415 2.419 . S
O1459 C1479 1.249 . S
C1460 O1449 1.276 . S
C1460 O1452 1.235 . S
C1461 C1463 1.393 . S
C1461 C1465 1.395 . S
C1461 C1468 1.492 . S
C1462 C1463 1.392 . S
C1462 C1464 1.386 . S
C1463 C1461 1.393 . S
C1463 C1462 1.392 . S
C1463 H1480 0.930 . S
C1464 C1462 1.386 . S
C1464 C1466 1.395 . S
C1464 H1481 0.930 . S
C1465 C1461 1.395 . S
C1465 C1466 1.379 . S
C1465 H1482 0.930 . S
C1466 C1464 1.395 . S
C1466 C1465 1.379 . S
C1466 H1483 0.930 . S
C1467 O1450 1.264 . S
C1467 O1451 1.254 . S
C1468 Eu1404 2.848 . S
C1468 O1448 1.257 . S
C1468 O1453 1.249 . S
C1468 C1461 1.492 . S
C1469 H1434 0.931 . S
C1469 C1447 1.420 . S
C1469 C1470 1.351 . S
C1470 H1432 0.930 . S
C1470 C1438 1.423 . S
C1470 C1469 1.351 . S
C1471 O1455 1.276 . S
C1471 O1458 1.235 . S
C1472 C1473 1.393 . S
C1472 C1476 1.395 . S
C1472 C1479 1.492 . S
C1473 C1472 1.393 . S
C1473 C1474 1.392 . S
C1473 H1484 0.930 . S
C1474 C1473 1.392 . S
C1474 C1475 1.386 . S
C1475 C1474 1.386 . S
C1475 C1477 1.395 . S
C1475 H1485 0.930 . S
C1476 C1472 1.395 . S
C1476 C1477 1.379 . S
C1476 H1486 0.930 . S
C1477 C1475 1.395 . S
C1477 C1476 1.379 . S
C1477 H1487 0.930 . S
C1478 O1456 1.264 . S
C1478 O1457 1.254 . S
C1479 Eu1415 2.848 . S
C1479 O1454 1.257 . S
C1479 O1459 1.249 . S
C1479 C1472 1.492 . S
H1480 C1463 0.930 . S
H1481 C1464 0.930 . S
H1482 C1465 0.930 . S
H1483 C1466 0.930 . S
H1484 C1473 0.930 . S
H1485 C1475 0.930 . S
H1486 C1476 0.930 . S
H1487 C1477 0.930 . S
Eu1488 N1519 2.657 . S
Eu1488 N1526 2.609 . S
Eu1488 O1532 2.558 . S
Eu1488 O1533 2.612 . S
Eu1488 O1535 2.339 . S
Eu1488 O1536 2.563 . S
Eu1488 O1537 2.419 . S
Eu1488 O1539 2.380 . S
Eu1488 O1540 2.432 . S
Eu1488 C1552 2.848 . S
C1489 C1492 1.429 . S
C1489 C1493 1.411 . S
C1489 N1496 1.377 . S
C1490 C1492 1.420 . S
C1490 C1494 1.423 . S
C1490 C1502 1.392 . S
C1491 C1493 1.420 . S
C1491 C1494 1.351 . S
C1491 H1514 0.931 . S
C1492 C1489 1.429 . S
C1492 C1490 1.420 . S
C1492 N1500 1.362 . S
C1493 C1489 1.411 . S
C1493 C1491 1.420 . S
C1493 C1498 1.395 . S
C1494 C1490 1.423 . S
C1494 C1491 1.351 . S
C1494 H1506 0.930 . S
C1495 C1497 1.400 . S
C1495 C1498 1.386 . S
C1495 H1507 0.930 . S
N1496 C1489 1.377 . S
N1496 C1497 1.321 . S
N1496 Eu1499 2.609 . S
C1497 C1495 1.400 . S
C1497 N1496 1.321 . S
C1497 H1504 0.930 . S
C1498 C1493 1.395 . S
C1498 C1495 1.386 . S
C1498 H1517 0.930 . S
Eu1499 N1496 2.609 . S
Eu1499 N1500 2.657 . S
Eu1499 O1533 2.380 . S
Eu1499 O1534 2.432 . S
Eu1499 O1538 2.558 . S
Eu1499 O1539 2.612 . S
Eu1499 O1541 2.339 . S
Eu1499 O1542 2.563 . S
Eu1499 O1543 2.419 . S
Eu1499 C1563 2.848 . S
N1500 C1492 1.362 . S
N1500 Eu1499 2.657 . S
N1500 C1501 1.334 . S
C1501 N1500 1.334 . S
C1501 C1503 1.413 . S
C1501 H1508 0.929 . S
C1502 C1490 1.392 . S
C1502 C1503 1.367 . S
C1502 H1510 0.930 . S
C1503 C1501 1.413 . S
C1503 C1502 1.367 . S
C1503 H1505 0.930 . S
H1504 C1497 0.930 . S
H1505 C1503 0.930 . S
H1506 C1494 0.930 . S
H1507 C1495 0.930 . S
H1508 C1501 0.929 . S
H1509 C1523 0.930 . S
H1510 C1502 0.930 . S
H1511 C1529 0.930 . S
H1512 C1520 0.929 . S
H1513 C1527 0.930 . S
H1514 C1491 0.931 . S
H1515 C1521 0.930 . S
H1516 C1554 0.930 . S
H1517 C1498 0.930 . S
H1518 C1553 0.931 . S
N1519 Eu1488 2.657 . S
N1519 C1520 1.334 . S
N1519 C1524 1.362 . S
C1520 H1512 0.929 . S
C1520 N1519 1.334 . S
C1520 C1523 1.413 . S
C1521 H1515 0.930 . S
C1521 C1522 1.392 . S
C1521 C1523 1.367 . S
C1522 C1521 1.392 . S
C1522 C1524 1.420 . S
C1522 C1554 1.423 . S
C1523 H1509 0.930 . S
C1523 C1520 1.413 . S
C1523 C1521 1.367 . S
C1524 N1519 1.362 . S
C1524 C1522 1.420 . S
C1524 C1528 1.429 . S
H1525 C1530 0.930 . S
N1526 Eu1488 2.609 . S
N1526 C1528 1.377 . S
N1526 C1529 1.321 . S
C1527 H1513 0.930 . S
C1527 C1529 1.400 . S
C1527 C1530 1.386 . S
C1528 C1524 1.429 . S
C1528 N1526 1.377 . S
C1528 C1531 1.411 . S
C1529 H1511 0.930 . S
C1529 N1526 1.321 . S
C1529 C1527 1.400 . S
C1530 H1525 0.930 . S
C1530 C1527 1.386 . S
C1530 C1531 1.395 . S
C1531 C1528 1.411 . S
C1531 C1530 1.395 . S
C1531 C1553 1.420 . S
O1532 Eu1488 2.558 . S
O1532 C1552 1.257 . S
O1533 Eu1488 2.612 . S
O1533 Eu1499 2.380 . S
O1533 C1544 1.276 . S
O1534 Eu1499 2.432 . S
O1534 C1551 1.264 . S
O1535 Eu1488 2.339 . S
O1535 C1551 1.254 . S
O1536 Eu1488 2.563 . S
O1536 C1544 1.235 . S
O1537 Eu1488 2.419 . S
O1537 C1552 1.249 . S
O1538 Eu1499 2.558 . S
O1538 C1563 1.257 . S
O1539 Eu1488 2.380 . S
O1539 Eu1499 2.612 . S
O1539 C1555 1.276 . S
O1540 Eu1488 2.432 . S
O1540 C1562 1.264 . S
O1541 Eu1499 2.339 . S
O1541 C1562 1.254 . S
O1542 Eu1499 2.563 . S
O1542 C1555 1.235 . S
O1543 Eu1499 2.419 . S
O1543 C1563 1.249 . S
C1544 O1533 1.276 . S
C1544 O1536 1.235 . S
C1545 C1547 1.393 . S
C1545 C1549 1.395 . S
C1545 C1552 1.492 . S
C1546 C1547 1.392 . S
C1546 C1548 1.386 . S
C1547 C1545 1.393 . S
C1547 C1546 1.392 . S
C1547 H1564 0.930 . S
C1548 C1546 1.386 . S
C1548 C1550 1.395 . S
C1548 H1565 0.930 . S
C1549 C1545 1.395 . S
C1549 C1550 1.379 . S
C1549 H1566 0.930 . S
C1550 C1548 1.395 . S
C1550 C1549 1.379 . S
C1550 H1567 0.930 . S
C1551 O1534 1.264 . S
C1551 O1535 1.254 . S
C1552 Eu1488 2.848 . S
C1552 O1532 1.257 . S
C1552 O1537 1.249 . S
C1552 C1545 1.492 . S
C1553 H1518 0.931 . S
C1553 C1531 1.420 . S
C1553 C1554 1.351 . S
C1554 H1516 0.930 . S
C1554 C1522 1.423 . S
C1554 C1553 1.351 . S
C1555 O1539 1.276 . S
C1555 O1542 1.235 . S
C1556 C1557 1.393 . S
C1556 C1560 1.395 . S
C1556 C1563 1.492 . S
C1557 C1556 1.393 . S
C1557 C1558 1.392 . S
C1557 H1568 0.930 . S
C1558 C1557 1.392 . S
C1558 C1559 1.386 . S
C1559 C1558 1.386 . S
C1559 C1561 1.395 . S
C1559 H1569 0.930 . S
C1560 C1556 1.395 . S
C1560 C1561 1.379 . S
C1560 H1570 0.930 . S
C1561 C1559 1.395 . S
C1561 C1560 1.379 . S
C1561 H1571 0.930 . S
C1562 O1540 1.264 . S
C1562 O1541 1.254 . S
C1563 Eu1499 2.848 . S
C1563 O1538 1.257 . S
C1563 O1543 1.249 . S
C1563 C1556 1.492 . S
H1564 C1547 0.930 . S
H1565 C1548 0.930 . S
H1566 C1549 0.930 . S
H1567 C1550 0.930 . S
H1568 C1557 0.930 . S
H1569 C1559 0.930 . S
H1570 C1560 0.930 . S
H1571 C1561 0.930 . S
Eu1572 N1603 2.657 . S
Eu1572 N1610 2.609 1_554 S
Eu1572 O1616 2.558 1_554 S
Eu1572 O1617 2.612 . S
Eu1572 O1619 2.339 . S
Eu1572 O1620 2.563 . S
Eu1572 O1621 2.419 . S
Eu1572 O1623 2.380 . S
Eu1572 O1624 2.432 1_554 S
Eu1572 C1636 2.848 . S
C1573 C1576 1.429 . S
C1573 C1577 1.411 . S
C1573 N1580 1.377 . S
C1574 C1576 1.420 . S
C1574 C1578 1.423 . S
C1574 C1586 1.392 . S
C1575 C1577 1.420 . S
C1575 C1578 1.351 . S
C1575 H1598 0.931 . S
C1576 C1573 1.429 . S
C1576 C1574 1.420 . S
C1576 N1584 1.362 . S
C1577 C1573 1.411 . S
C1577 C1575 1.420 . S
C1577 C1582 1.395 . S
C1578 C1574 1.423 . S
C1578 C1575 1.351 . S
C1578 H1590 0.930 . S
C1579 C1581 1.400 1_655 S
C1579 C1582 1.386 . S
C1579 H1591 0.930 . S
N1580 C1573 1.377 . S
N1580 C1581 1.321 1_655 S
N1580 Eu1583 2.609 1_655 S
C1581 C1579 1.400 1_455 S
C1581 N1580 1.321 1_455 S
C1581 H1588 0.930 . S
C1582 C1577 1.395 . S
C1582 C1579 1.386 . S
C1582 H1601 0.930 . S
Eu1583 N1580 2.609 1_455 S
Eu1583 N1584 2.657 1_455 S
Eu1583 O1617 2.380 . S
Eu1583 O1618 2.432 . S
Eu1583 O1622 2.558 1_455 S
Eu1583 O1623 2.612 . S
Eu1583 O1625 2.339 . S
Eu1583 O1626 2.563 . S
Eu1583 O1627 2.419 1_455 S
Eu1583 C1647 2.848 1_455 S
N1584 C1576 1.362 . S
N1584 Eu1583 2.657 1_655 S
N1584 C1585 1.334 . S
C1585 N1584 1.334 . S
C1585 C1587 1.413 1_554 S
C1585 H1592 0.887 1_554 S
C1586 C1574 1.392 . S
C1586 C1587 1.367 1_554 S
C1586 H1594 0.930 . S
C1587 C1585 1.413 1_556 S
C1587 C1586 1.367 1_556 S
C1587 H1589 0.930 . S
H1588 C1581 0.930 . S
H1589 C1587 0.930 . S
H1590 C1578 0.930 . S
H1591 C1579 0.930 . S
H1592 C1585 0.887 1_556 S
H1593 C1607 0.930 . S
H1594 C1586 0.930 . S
H1595 C1613 0.930 . S
H1596 C1604 0.929 . S
H1597 C1611 0.930 . S
H1598 C1575 0.931 . S
H1599 C1605 0.930 . S
H1600 C1638 0.930 . S
H1601 C1582 0.930 . S
H1602 C1637 0.898 1_556 S
N1603 Eu1572 2.657 . S
N1603 C1604 1.334 . S
N1603 C1608 1.362 . S
C1604 H1596 0.929 . S
C1604 N1603 1.334 . S
C1604 C1607 1.413 . S
C1605 H1599 0.930 . S
C1605 C1606 1.392 . S
C1605 C1607 1.367 . S
C1606 C1605 1.392 . S
C1606 C1608 1.420 . S
C1606 C1638 1.423 . S
C1607 H1593 0.930 . S
C1607 C1604 1.413 . S
C1607 C1605 1.367 . S
C1608 N1603 1.362 . S
C1608 C1606 1.420 . S
C1608 C1612 1.429 . S
H1609 C1614 0.930 . S
N1610 Eu1572 2.609 1_556 S
N1610 C1612 1.377 1_556 S
N1610 C1613 1.321 . S
C1611 H1597 0.930 . S
C1611 C1613 1.400 . S
C1611 C1614 1.386 . S
C1612 C1608 1.429 . S
C1612 N1610 1.377 1_554 S
C1612 C1615 1.411 1_554 S
C1613 H1595 0.930 . S
C1613 N1610 1.321 . S
C1613 C1611 1.400 . S
C1614 H1609 0.930 . S
C1614 C1611 1.386 . S
C1614 C1615 1.395 . S
C1615 C1612 1.411 1_556 S
C1615 C1614 1.395 . S
C1615 C1637 1.410 1_556 S
O1616 Eu1572 2.558 1_556 S
O1616 C1636 1.257 1_556 S
O1617 Eu1572 2.612 . S
O1617 Eu1583 2.380 . S
O1617 C1628 1.276 . S
O1618 Eu1583 2.432 . S
O1618 C1635 1.264 . S
O1619 Eu1572 2.339 . S
O1619 C1635 1.254 . S
O1620 Eu1572 2.563 . S
O1620 C1628 1.235 . S
O1621 Eu1572 2.419 . S
O1621 C1636 1.249 . S
O1622 Eu1583 2.558 1_655 S
O1622 C1647 1.257 . S
O1623 Eu1572 2.380 . S
O1623 Eu1583 2.612 . S
O1623 C1639 1.276 . S
O1624 Eu1572 2.432 1_556 S
O1624 C1646 1.264 . S
O1625 Eu1583 2.339 . S
O1625 C1646 1.254 1_554 S
O1626 Eu1583 2.563 . S
O1626 C1639 1.235 . S
O1627 Eu1583 2.419 1_655 S
O1627 C1647 1.249 . S
C1628 O1617 1.276 . S
C1628 O1620 1.235 . S
C1629 C1631 1.393 . S
C1629 C1633 1.395 1_554 S
C1629 C1636 1.492 . S
C1630 C1631 1.392 . S
C1630 C1632 1.386 1_554 S
C1631 C1629 1.393 . S
C1631 C1630 1.392 . S
C1631 H1648 0.930 . S
C1632 C1630 1.386 1_556 S
C1632 C1634 1.395 . S
C1632 H1649 0.930 . S
C1633 C1629 1.395 1_556 S
C1633 C1634 1.379 . S
C1633 H1650 0.930 . S
C1634 C1632 1.395 . S
C1634 C1633 1.379 . S
C1634 H1651 0.930 . S
C1635 O1618 1.264 . S
C1635 O1619 1.254 . S
C1636 Eu1572 2.848 . S
C1636 O1616 1.257 1_554 S
C1636 O1621 1.249 . S
C1636 C1629 1.492 . S
C1637 H1602 0.898 1_554 S
C1637 C1615 1.410 1_554 S
C1637 C1638 1.394 . S
C1638 H1600 0.930 . S
C1638 C1606 1.423 . S
C1638 C1637 1.394 . S
C1639 O1623 1.276 . S
C1639 O1626 1.235 . S
C1640 C1641 1.393 . S
C1640 C1644 1.395 . S
C1640 C1647 1.492 . S
C1641 C1640 1.393 . S
C1641 C1642 1.392 . S
C1641 H1652 0.930 . S
C1642 C1641 1.392 . S
C1642 C1643 1.386 . S
C1643 C1642 1.386 . S
C1643 C1645 1.395 . S
C1643 H1653 0.930 . S
C1644 C1640 1.395 . S
C1644 C1645 1.379 . S
C1644 H1654 0.930 . S
C1645 C1643 1.395 . S
C1645 C1644 1.379 . S
C1645 H1655 0.930 . S
C1646 O1624 1.264 . S
C1646 O1625 1.254 1_556 S
C1647 Eu1583 2.848 1_655 S
C1647 O1622 1.257 . S
C1647 O1627 1.249 . S
C1647 C1640 1.492 . S
H1648 C1631 0.930 . S
H1649 C1632 0.930 . S
H1650 C1633 0.930 . S
H1651 C1634 0.930 . S
H1652 C1641 0.930 . S
H1653 C1643 0.930 . S
H1654 C1644 0.930 . S
H1655 C1645 0.930 . S
H1656 C1664 0.929 . S
H1657 C1666 0.930 . S
H1658 C1668 0.930 . S
H1659 C1671 0.929 . S
H1660 C1674 0.930 . S
H1661 C1676 0.960 . S
H1662 C1676 0.960 . S
H1663 C1676 0.960 . S
C1664 H1656 0.929 . S
C1664 C1665 1.377 . S
C1664 C1666 1.384 . S
C1665 C1664 1.377 . S
C1665 C1671 1.390 . S
C1666 H1657 0.930 . S
C1666 C1664 1.384 . S
C1666 C1667 1.372 . S
C1667 C1666 1.372 . S
C1667 C1668 1.400 . S
C1667 C1672 1.490 . S
C1668 H1658 0.930 . S
C1668 C1667 1.400 . S
C1668 C1671 1.386 . S
H1669 C1685 0.930 1_556 S
H1670 C1686 0.931 . S
C1671 H1659 0.929 . S
C1671 C1665 1.390 . S
C1671 C1668 1.386 . S
C1672 C1667 1.490 . S
C1672 C1674 1.395 . S
C1672 C1675 1.403 . S
H1673 C1679 0.930 . S
C1674 H1660 0.930 . S
C1674 C1672 1.395 . S
C1674 C1677 1.403 1_556 S
C1675 C1672 1.403 . S
C1675 C1676 1.524 . S
C1675 C1679 1.400 . S
C1676 H1661 0.960 . S
C1676 H1662 0.960 . S
C1676 H1663 0.960 . S
C1676 C1675 1.524 . S
C1677 C1674 1.403 1_554 S
C1677 C1678 1.392 . S
C1677 C1681 1.495 . S
C1678 C1677 1.392 . S
C1678 C1679 1.385 1_554 S
C1678 C1680 1.478 . S
C1679 H1673 0.930 . S
C1679 C1675 1.400 . S
C1679 C1678 1.385 1_556 S
C1680 C1678 1.478 . S
C1680 C1682 1.381 . S
C1680 C1686 1.383 1_554 S
C1681 C1677 1.495 . S
C1681 H1687 0.959 1_455 S
C1681 H1688 0.967 . S
C1681 H1689 0.960 . S
C1682 C1680 1.381 . S
C1682 C1683 1.394 . S
C1682 H1690 0.930 . S
C1683 C1682 1.394 . S
C1683 C1684 1.383 . S
C1683 H1691 0.929 . S
C1684 C1683 1.383 . S
C1684 C1685 1.377 . S
C1685 H1669 0.930 1_554 S
C1685 C1684 1.377 . S
C1685 C1686 1.379 1_554 S
C1686 H1670 0.931 . S
C1686 C1680 1.383 1_556 S
C1686 C1685 1.379 1_556 S
H1687 C1681 0.959 1_655 S
H1688 C1681 0.967 . S
H1689 C1681 0.960 . S
H1690 C1682 0.930 . S
H1691 C1683 0.929 . S
H1692 C1700 0.929 . S
H1693 C1702 0.930 . S
H1694 C1704 0.930 . S
H1695 C1707 0.929 . S
H1696 C1710 0.930 . S
H1697 C1712 0.960 . S
H1698 C1712 0.960 . S
H1699 C1712 0.960 . S
C1700 H1692 0.929 . S
C1700 C1701 1.377 . S
C1700 C1702 1.384 . S
C1701 C1700 1.377 . S
C1701 C1707 1.390 . S
C1702 H1693 0.930 . S
C1702 C1700 1.384 . S
C1702 C1703 1.372 . S
C1703 C1702 1.372 . S
C1703 C1704 1.400 . S
C1703 C1708 1.490 . S
C1704 H1694 0.930 . S
C1704 C1703 1.400 . S
C1704 C1707 1.386 . S
H1705 C1721 0.930 . S
H1706 C1722 0.931 . S
C1707 H1695 0.929 . S
C1707 C1701 1.390 . S
C1707 C1704 1.386 . S
C1708 C1703 1.490 . S
C1708 C1710 1.395 . S
C1708 C1711 1.403 . S
H1709 C1715 0.930 . S
C1710 H1696 0.930 . S
C1710 C1708 1.395 . S
C1710 C1713 1.403 . S
C1711 C1708 1.403 . S
C1711 C1712 1.524 . S
C1711 C1715 1.400 . S
C1712 H1697 0.960 . S
C1712 H1698 0.960 . S
C1712 H1699 0.960 . S
C1712 C1711 1.524 . S
C1713 C1710 1.403 . S
C1713 C1714 1.392 . S
C1713 C1717 1.495 . S
C1714 C1713 1.392 . S
C1714 C1715 1.385 . S
C1714 C1716 1.478 . S
C1715 H1709 0.930 . S
C1715 C1711 1.400 . S
C1715 C1714 1.385 . S
C1716 C1714 1.478 . S
C1716 C1718 1.381 . S
C1716 C1722 1.383 . S
C1717 C1713 1.495 . S
C1717 H1723 0.959 . S
C1717 H1724 0.961 . S
C1717 H1725 0.960 . S
C1718 C1716 1.381 . S
C1718 C1719 1.394 . S
C1718 H1726 0.930 . S
C1719 C1718 1.394 . S
C1719 C1720 1.383 . S
C1719 H1727 0.929 . S
C1720 C1719 1.383 . S
C1720 C1721 1.377 . S
C1721 H1705 0.930 . S
C1721 C1720 1.377 . S
C1721 C1722 1.379 . S
C1722 H1706 0.931 . S
C1722 C1716 1.383 . S
C1722 C1721 1.379 . S
H1723 C1717 0.959 . S
H1724 C1717 0.961 . S
H1725 C1717 0.960 . S
H1726 C1718 0.930 . S
H1727 C1719 0.929 . S
H1728 C1736 0.929 . S
H1729 C1738 0.930 . S
H1730 C1740 0.930 . S
H1731 C1743 0.929 . S
H1732 C1746 0.930 . S
H1733 C1748 0.960 . S
H1734 C1748 0.960 . S
H1735 C1748 0.960 . S
C1736 H1728 0.929 . S
C1736 C1737 1.377 . S
C1736 C1738 1.384 . S
C1737 C1736 1.377 . S
C1737 C1743 1.390 . S
C1738 H1729 0.930 . S
C1738 C1736 1.384 . S
C1738 C1739 1.372 . S
C1739 C1738 1.372 . S
C1739 C1740 1.400 . S
C1739 C1744 1.490 . S
C1740 H1730 0.930 . S
C1740 C1739 1.400 . S
C1740 C1743 1.386 . S
H1741 C1757 0.930 . S
H1742 C1758 0.931 . S
C1743 H1731 0.929 . S
C1743 C1737 1.390 . S
C1743 C1740 1.386 . S
C1744 C1739 1.490 . S
C1744 C1746 1.395 . S
C1744 C1747 1.403 . S
H1745 C1751 0.930 . S
C1746 H1732 0.930 . S
C1746 C1744 1.395 . S
C1746 C1749 1.403 . S
C1747 C1744 1.403 . S
C1747 C1748 1.524 . S
C1747 C1751 1.400 . S
C1748 H1733 0.960 . S
C1748 H1734 0.960 . S
C1748 H1735 0.960 . S
C1748 C1747 1.524 . S
C1749 C1746 1.403 . S
C1749 C1750 1.392 . S
C1749 C1753 1.495 . S
C1750 C1749 1.392 . S
C1750 C1751 1.385 . S
C1750 C1752 1.478 . S
C1751 H1745 0.930 . S
C1751 C1747 1.400 . S
C1751 C1750 1.385 . S
C1752 C1750 1.478 . S
C1752 C1754 1.381 . S
C1752 C1758 1.383 . S
C1753 C1749 1.495 . S
C1753 H1759 0.959 . S
C1753 H1760 0.961 . S
C1753 H1761 0.960 . S
C1754 C1752 1.381 . S
C1754 C1755 1.394 . S
C1754 H1762 0.930 . S
C1755 C1754 1.394 . S
C1755 C1756 1.383 . S
C1755 H1763 0.929 . S
C1756 C1755 1.383 . S
C1756 C1757 1.377 . S
C1757 H1741 0.930 . S
C1757 C1756 1.377 . S
C1757 C1758 1.379 . S
C1758 H1742 0.931 . S
C1758 C1752 1.383 . S
C1758 C1757 1.379 . S
H1759 C1753 0.959 . S
H1760 C1753 0.961 . S
H1761 C1753 0.960 . S
H1762 C1754 0.930 . S
H1763 C1755 0.929 . S
H1764 C1772 0.929 . S
H1765 C1774 0.930 . S
H1766 C1776 0.930 . S
H1767 C1779 0.929 . S
H1768 C1782 0.930 . S
H1769 C1784 0.960 . S
H1770 C1784 0.960 . S
H1771 C1784 0.960 . S
C1772 H1764 0.929 . S
C1772 C1773 1.377 . S
C1772 C1774 1.384 . S
C1773 C1772 1.377 . S
C1773 C1779 1.390 . S
C1774 H1765 0.930 . S
C1774 C1772 1.384 . S
C1774 C1775 1.372 . S
C1775 C1774 1.372 . S
C1775 C1776 1.400 . S
C1775 C1780 1.490 . S
C1776 H1766 0.930 . S
C1776 C1775 1.400 . S
C1776 C1779 1.386 . S
H1777 C1793 0.930 . S
H1778 C1794 0.931 . S
C1779 H1767 0.929 . S
C1779 C1773 1.390 . S
C1779 C1776 1.386 . S
C1780 C1775 1.490 . S
C1780 C1782 1.395 . S
C1780 C1783 1.403 . S
H1781 C1787 0.930 . S
C1782 H1768 0.930 . S
C1782 C1780 1.395 . S
C1782 C1785 1.403 . S
C1783 C1780 1.403 . S
C1783 C1784 1.524 . S
C1783 C1787 1.400 . S
C1784 H1769 0.960 . S
C1784 H1770 0.960 . S
C1784 H1771 0.960 . S
C1784 C1783 1.524 . S
C1785 C1782 1.403 . S
C1785 C1786 1.392 . S
C1785 C1789 1.495 . S
C1786 C1785 1.392 . S
C1786 C1787 1.385 . S
C1786 C1788 1.478 . S
C1787 H1781 0.930 . S
C1787 C1783 1.400 . S
C1787 C1786 1.385 . S
C1788 C1786 1.478 . S
C1788 C1790 1.381 . S
C1788 C1794 1.383 . S
C1789 C1785 1.495 . S
C1789 H1795 0.959 . S
C1789 H1796 0.961 . S
C1789 H1797 0.960 . S
C1790 C1788 1.381 . S
C1790 C1791 1.394 . S
C1790 H1798 0.930 . S
C1791 C1790 1.394 . S
C1791 C1792 1.383 . S
C1791 H1799 0.929 . S
C1792 C1791 1.383 . S
C1792 C1793 1.377 . S
C1793 H1777 0.930 . S
C1793 C1792 1.377 . S
C1793 C1794 1.379 . S
C1794 H1778 0.931 . S
C1794 C1788 1.383 . S
C1794 C1793 1.379 . S
H1795 C1789 0.959 . S
H1796 C1789 0.961 . S
H1797 C1789 0.960 . S
H1798 C1790 0.930 . S
H1799 C1791 0.929 . S
H1800 C1808 0.929 . S
H1801 C1810 0.930 . S
H1802 C1812 0.930 . S
H1803 C1815 0.929 1_655 S
H1804 C1818 0.930 . S
H1805 C1820 0.960 . S
H1806 C1820 0.960 . S
H1807 C1820 0.960 . S
C1808 H1800 0.929 . S
C1808 C1809 1.377 . S
C1808 C1810 1.384 . S
C1809 C1808 1.377 . S
C1809 C1815 1.390 . S
C1810 H1801 0.930 . S
C1810 C1808 1.384 . S
C1810 C1811 1.372 . S
C1811 C1810 1.372 . S
C1811 C1812 1.400 . S
C1811 C1816 1.490 . S
C1812 H1802 0.930 . S
C1812 C1811 1.400 . S
C1812 C1815 1.386 . S
H1813 C1829 0.930 . S
H1814 C1830 0.931 . S
C1815 H1803 0.929 1_455 S
C1815 C1809 1.390 . S
C1815 C1812 1.386 . S
C1816 C1811 1.490 . S
C1816 C1818 1.395 . S
C1816 C1819 1.403 . S
H1817 C1823 0.930 . S
C1818 H1804 0.930 . S
C1818 C1816 1.395 . S
C1818 C1821 1.403 . S
C1819 C1816 1.403 . S
C1819 C1820 1.524 . S
C1819 C1823 1.400 . S
C1820 H1805 0.960 . S
C1820 H1806 0.960 . S
C1820 H1807 0.960 . S
C1820 C1819 1.524 . S
C1821 C1818 1.403 . S
C1821 C1822 1.392 . S
C1821 C1825 1.495 . S
C1822 C1821 1.392 . S
C1822 C1823 1.385 . S
C1822 C1824 1.478 . S
C1823 H1817 0.930 . S
C1823 C1819 1.400 . S
C1823 C1822 1.385 . S
C1824 C1822 1.478 . S
C1824 C1826 1.381 . S
C1824 C1830 1.383 . S
C1825 C1821 1.495 . S
C1825 H1831 0.959 . S
C1825 H1832 0.961 . S
C1825 H1833 0.960 . S
C1826 C1824 1.381 . S
C1826 C1827 1.394 . S
C1826 H1834 0.930 . S
C1827 C1826 1.394 . S
C1827 C1828 1.383 . S
C1827 H1835 0.929 . S
C1828 C1827 1.383 . S
C1828 C1829 1.377 . S
C1829 H1813 0.930 . S
C1829 C1828 1.377 . S
C1829 C1830 1.379 . S
C1830 H1814 0.931 . S
C1830 C1824 1.383 . S
C1830 C1829 1.379 . S
H1831 C1825 0.959 . S
H1832 C1825 0.961 . S
H1833 C1825 0.960 . S
H1834 C1826 0.930 . S
H1835 C1827 0.929 . S
H1836 C1844 0.929 . S
H1837 C1846 0.930 . S
H1838 C1848 0.930 . S
H1839 C1851 0.929 . S
H1840 C1854 0.930 . S
H1841 C1856 0.960 . S
H1842 C1856 0.960 . S
H1843 C1856 0.960 . S
C1844 H1836 0.929 . S
C1844 C1845 1.377 . S
C1844 C1846 1.384 . S
C1845 C1844 1.377 . S
C1845 C1851 1.390 . S
C1846 H1837 0.930 . S
C1846 C1844 1.384 . S
C1846 C1847 1.372 . S
C1847 C1846 1.372 . S
C1847 C1848 1.400 . S
C1847 C1852 1.490 . S
C1848 H1838 0.930 . S
C1848 C1847 1.400 . S
C1848 C1851 1.386 . S
H1849 C1865 0.930 . S
H1850 C1866 0.931 . S
C1851 H1839 0.929 . S
C1851 C1845 1.390 . S
C1851 C1848 1.386 . S
C1852 C1847 1.490 . S
C1852 C1854 1.395 . S
C1852 C1855 1.403 . S
H1853 C1859 0.930 . S
C1854 H1840 0.930 . S
C1854 C1852 1.395 . S
C1854 C1857 1.403 . S
C1855 C1852 1.403 . S
C1855 C1856 1.524 . S
C1855 C1859 1.400 . S
C1856 H1841 0.960 . S
C1856 H1842 0.960 . S
C1856 H1843 0.960 . S
C1856 C1855 1.524 . S
C1857 C1854 1.403 . S
C1857 C1858 1.392 . S
C1857 C1861 1.495 . S
C1858 C1857 1.392 . S
C1858 C1859 1.385 . S
C1858 C1860 1.478 . S
C1859 H1853 0.930 . S
C1859 C1855 1.400 . S
C1859 C1858 1.385 . S
C1860 C1858 1.478 . S
C1860 C1862 1.381 . S
C1860 C1866 1.383 . S
C1861 C1857 1.495 . S
C1861 H1867 0.959 . S
C1861 H1868 0.961 . S
C1861 H1869 0.960 . S
C1862 C1860 1.381 . S
C1862 C1863 1.394 . S
C1862 H1870 0.930 . S
C1863 C1862 1.394 . S
C1863 C1864 1.383 . S
C1863 H1871 0.929 . S
C1864 C1863 1.383 . S
C1864 C1865 1.377 . S
C1865 H1849 0.930 . S
C1865 C1864 1.377 . S
C1865 C1866 1.379 . S
C1866 H1850 0.931 . S
C1866 C1860 1.383 . S
C1866 C1865 1.379 . S
H1867 C1861 0.959 . S
H1868 C1861 0.961 . S
H1869 C1861 0.960 . S
H1870 C1862 0.930 . S
H1871 C1863 0.929 . S
H1872 C1880 0.929 . S
H1873 C1882 0.930 . S
H1874 C1884 0.930 . S
H1875 C1887 0.929 . S
H1876 C1890 0.930 . S
H1877 C1892 0.960 . S
H1878 C1892 0.960 . S
H1879 C1892 0.960 . S
C1880 H1872 0.929 . S
C1880 C1881 1.377 . S
C1880 C1882 1.384 . S
C1881 C1880 1.377 . S
C1881 C1887 1.390 . S
C1882 H1873 0.930 . S
C1882 C1880 1.384 . S
C1882 C1883 1.372 . S
C1883 C1882 1.372 . S
C1883 C1884 1.400 . S
C1883 C1888 1.490 . S
C1884 H1874 0.930 . S
C1884 C1883 1.400 . S
C1884 C1887 1.386 . S
H1885 C1901 0.930 . S
H1886 C1902 0.931 . S
C1887 H1875 0.929 . S
C1887 C1881 1.390 . S
C1887 C1884 1.386 . S
C1888 C1883 1.490 . S
C1888 C1890 1.395 . S
C1888 C1891 1.403 . S
H1889 C1895 0.930 . S
C1890 H1876 0.930 . S
C1890 C1888 1.395 . S
C1890 C1893 1.403 . S
C1891 C1888 1.403 . S
C1891 C1892 1.524 . S
C1891 C1895 1.400 . S
C1892 H1877 0.960 . S
C1892 H1878 0.960 . S
C1892 H1879 0.960 . S
C1892 C1891 1.524 . S
C1893 C1890 1.403 . S
C1893 C1894 1.392 . S
C1893 C1897 1.495 . S
C1894 C1893 1.392 . S
C1894 C1895 1.385 . S
C1894 C1896 1.478 . S
C1895 H1889 0.930 . S
C1895 C1891 1.400 . S
C1895 C1894 1.385 . S
C1896 C1894 1.478 . S
C1896 C1898 1.381 . S
C1896 C1902 1.383 . S
C1897 C1893 1.495 . S
C1897 H1903 0.959 . S
C1897 H1904 0.961 . S
C1897 H1905 0.960 . S
C1898 C1896 1.381 . S
C1898 C1899 1.394 . S
C1898 H1906 0.930 . S
C1899 C1898 1.394 . S
C1899 C1900 1.383 . S
C1899 H1907 0.929 . S
C1900 C1899 1.383 . S
C1900 C1901 1.377 . S
C1901 H1885 0.930 . S
C1901 C1900 1.377 . S
C1901 C1902 1.379 . S
C1902 H1886 0.931 . S
C1902 C1896 1.383 . S
C1902 C1901 1.379 . S
H1903 C1897 0.959 . S
H1904 C1897 0.961 . S
H1905 C1897 0.960 . S
H1906 C1898 0.930 . S
H1907 C1899 0.929 . S
H1908 C1916 0.929 . S
H1909 C1918 0.930 . S
H1910 C1920 0.930 . S
H1911 C1923 0.929 . S
H1912 C1926 0.930 . S
H1913 C1928 0.960 . S
H1914 C1928 0.960 . S
H1915 C1928 0.960 . S
C1916 H1908 0.929 . S
C1916 C1917 1.377 . S
C1916 C1918 1.384 . S
C1917 C1916 1.377 . S
C1917 C1923 1.390 . S
C1918 H1909 0.930 . S
C1918 C1916 1.384 . S
C1918 C1919 1.372 . S
C1919 C1918 1.372 . S
C1919 C1920 1.400 . S
C1919 C1924 1.490 . S
C1920 H1910 0.930 . S
C1920 C1919 1.400 . S
C1920 C1923 1.386 . S
H1921 C1937 0.930 . S
H1922 C1938 0.931 . S
C1923 H1911 0.929 . S
C1923 C1917 1.390 . S
C1923 C1920 1.386 . S
C1924 C1919 1.490 . S
C1924 C1926 1.395 . S
C1924 C1927 1.403 . S
H1925 C1931 0.930 . S
C1926 H1912 0.930 . S
C1926 C1924 1.395 . S
C1926 C1929 1.403 . S
C1927 C1924 1.403 . S
C1927 C1928 1.524 . S
C1927 C1931 1.400 . S
C1928 H1913 0.960 . S
C1928 H1914 0.960 . S
C1928 H1915 0.960 . S
C1928 C1927 1.524 . S
C1929 C1926 1.403 . S
C1929 C1930 1.392 . S
C1929 C1933 1.495 . S
C1930 C1929 1.392 . S
C1930 C1931 1.385 . S
C1930 C1932 1.478 . S
C1931 H1925 0.930 . S
C1931 C1927 1.400 . S
C1931 C1930 1.385 . S
C1932 C1930 1.478 . S
C1932 C1934 1.381 . S
C1932 C1938 1.383 . S
C1933 C1929 1.495 . S
C1933 H1939 0.959 . S
C1933 H1940 0.961 . S
C1933 H1941 0.960 . S
C1934 C1932 1.381 . S
C1934 C1935 1.394 . S
C1934 H1942 0.930 . S
C1935 C1934 1.394 . S
C1935 C1936 1.383 . S
C1935 H1943 0.929 . S
C1936 C1935 1.383 . S
C1936 C1937 1.377 . S
C1937 H1921 0.930 . S
C1937 C1936 1.377 . S
C1937 C1938 1.379 . S
C1938 H1922 0.931 . S
C1938 C1932 1.383 . S
C1938 C1937 1.379 . S
H1939 C1933 0.959 . S
H1940 C1933 0.961 . S
H1941 C1933 0.960 . S
H1942 C1934 0.930 . S
H1943 C1935 0.929 . S
H1944 C1952 0.929 . S
H1945 C1954 0.930 . S
H1946 C1956 0.870 1_455 S
H1947 C1959 0.929 . S
H1948 C1962 0.930 . S
H1949 C1964 0.960 . S
H1950 C1964 0.960 1_655 S
H1951 C1964 0.960 . S
C1952 H1944 0.929 . S
C1952 C1953 1.377 . S
C1952 C1954 1.384 . S
C1953 C1952 1.377 . S
C1953 C1959 1.390 . S
C1954 H1945 0.930 . S
C1954 C1952 1.384 . S
C1954 C1955 1.372 . S
C1955 C1954 1.372 . S
C1955 C1956 1.400 . S
C1955 C1960 1.490 . S
C1956 H1946 0.870 1_655 S
C1956 C1955 1.400 . S
C1956 C1959 1.386 . S
H1957 C1973 0.930 . S
H1958 C1974 0.931 . S
C1959 H1947 0.929 . S
C1959 C1953 1.390 . S
C1959 C1956 1.386 . S
C1960 C1955 1.490 . S
C1960 C1962 1.395 . S
C1960 C1963 1.355 1_655 S
H1961 C1967 0.930 . S
C1962 H1948 0.930 . S
C1962 C1960 1.395 . S
C1962 C1965 1.403 . S
C1963 C1960 1.355 1_455 S
C1963 C1964 1.544 . S
C1963 C1967 1.429 . S
C1964 H1949 0.960 . S
C1964 H1950 0.960 1_455 S
C1964 H1951 0.960 . S
C1964 C1963 1.544 . S
C1965 C1962 1.403 . S
C1965 C1966 1.392 1_655 S
C1965 C1969 1.495 . S
C1966 C1965 1.392 1_455 S
C1966 C1967 1.385 . S
C1966 C1968 1.478 . S
C1967 H1961 0.930 . S
C1967 C1963 1.429 . S
C1967 C1966 1.385 . S
C1968 C1966 1.478 . S
C1968 C1970 1.381 . S
C1968 C1974 1.383 . S
C1969 C1965 1.495 . S
C1969 H1975 0.959 . S
C1969 H1976 0.961 . S
C1969 H1977 0.960 . S
C1970 C1968 1.381 . S
C1970 C1971 1.394 . S
C1970 H1978 0.930 1_455 S
C1971 C1970 1.394 . S
C1971 C1972 1.383 . S
C1971 H1979 0.929 . S
C1972 C1971 1.383 . S
C1972 C1973 1.377 . S
C1973 H1957 0.930 . S
C1973 C1972 1.377 . S
C1973 C1974 1.379 . S
C1974 H1958 0.931 . S
C1974 C1968 1.383 . S
C1974 C1973 1.379 . S
H1975 C1969 0.959 . S
H1976 C1969 0.961 . S
H1977 C1969 0.960 . S
H1978 C1970 0.930 1_655 S
H1979 C1971 0.929 . S
H1980 C1988 0.929 . S
H1981 C1990 0.930 . S
H1982 C1992 0.930 . S
H1983 C1995 0.929 . S
H1984 C1998 0.930 . S
H1985 C2000 0.960 . S
H1986 C2000 0.960 . S
H1987 C2000 0.960 . S
C1988 H1980 0.929 . S
C1988 C1989 1.377 . S
C1988 C1990 1.384 . S
C1989 C1988 1.377 . S
C1989 C1995 1.390 . S
C1990 H1981 0.930 . S
C1990 C1988 1.384 . S
C1990 C1991 1.372 . S
C1991 C1990 1.372 . S
C1991 C1992 1.400 . S
C1991 C1996 1.490 . S
C1992 H1982 0.930 . S
C1992 C1991 1.400 . S
C1992 C1995 1.386 . S
H1993 C2009 0.930 . S
H1994 C2010 0.931 . S
C1995 H1983 0.929 . S
C1995 C1989 1.390 . S
C1995 C1992 1.386 . S
C1996 C1991 1.490 . S
C1996 C1998 1.395 . S
C1996 C1999 1.403 . S
H1997 C2003 0.930 . S
C1998 H1984 0.930 . S
C1998 C1996 1.395 . S
C1998 C2001 1.403 . S
C1999 C1996 1.403 . S
C1999 C2000 1.524 . S
C1999 C2003 1.400 . S
C2000 H1985 0.960 . S
C2000 H1986 0.960 . S
C2000 H1987 0.960 . S
C2000 C1999 1.524 . S
C2001 C1998 1.403 . S
C2001 C2002 1.392 . S
C2001 C2005 1.495 . S
C2002 C2001 1.392 . S
C2002 C2003 1.385 . S
C2002 C2004 1.478 . S
C2003 H1997 0.930 . S
C2003 C1999 1.400 . S
C2003 C2002 1.385 . S
C2004 C2002 1.478 . S
C2004 C2006 1.381 . S
C2004 C2010 1.383 . S
C2005 C2001 1.495 . S
C2005 H2011 0.959 . S
C2005 H2012 0.961 . S
C2005 H2013 0.960 . S
C2006 C2004 1.381 . S
C2006 C2007 1.394 . S
C2006 H2014 0.930 . S
C2007 C2006 1.394 . S
C2007 C2008 1.383 . S
C2007 H2015 0.929 . S
C2008 C2007 1.383 . S
C2008 C2009 1.377 . S
C2009 H1993 0.930 . S
C2009 C2008 1.377 . S
C2009 C2010 1.379 . S
C2010 H1994 0.931 . S
C2010 C2004 1.383 . S
C2010 C2009 1.379 . S
H2011 C2005 0.959 . S
H2012 C2005 0.961 . S
H2013 C2005 0.960 . S
H2014 C2006 0.930 . S
H2015 C2007 0.929 . S
H2016 C2024 0.929 . S
H2017 C2026 0.930 1_565 S
H2018 C2028 0.930 . S
H2019 C2031 0.929 . S
H2020 C2034 0.930 . S
H2021 C2036 0.960 . S
H2022 C2036 0.960 . S
H2023 C2036 0.960 . S
C2024 H2016 0.929 . S
C2024 C2025 1.377 . S
C2024 C2026 1.384 . S
C2025 C2024 1.377 . S
C2025 C2031 1.390 . S
C2026 H2017 0.930 1_545 S
C2026 C2024 1.384 . S
C2026 C2027 1.372 . S
C2027 C2026 1.372 . S
C2027 C2028 1.400 . S
C2027 C2032 1.490 . S
C2028 H2018 0.930 . S
C2028 C2027 1.400 . S
C2028 C2031 1.386 . S
H2029 C2045 0.930 . S
H2030 C2046 0.931 . S
C2031 H2019 0.929 . S
C2031 C2025 1.390 . S
C2031 C2028 1.386 . S
C2032 C2027 1.490 . S
C2032 C2034 1.395 . S
C2032 C2035 1.403 . S
H2033 C2039 0.930 . S
C2034 H2020 0.930 . S
C2034 C2032 1.395 . S
C2034 C2037 1.403 . S
C2035 C2032 1.403 . S
C2035 C2036 1.524 . S
C2035 C2039 1.400 . S
C2036 H2021 0.960 . S
C2036 H2022 0.960 . S
C2036 H2023 0.960 . S
C2036 C2035 1.524 . S
C2037 C2034 1.403 . S
C2037 C2038 1.392 . S
C2037 C2041 1.493 . S
C2038 C2037 1.392 . S
C2038 C2039 1.385 . S
C2038 C2040 1.478 . S
C2039 H2033 0.930 . S
C2039 C2035 1.400 . S
C2039 C2038 1.385 . S
C2040 C2038 1.478 . S
C2040 C2042 1.381 . S
C2040 C2046 1.383 . S
C2041 C2037 1.493 . S
C2041 H2047 0.962 1_545 S
C2041 H2048 0.957 . S
C2041 H2049 0.963 1_545 S
C2042 C2040 1.381 . S
C2042 C2043 1.391 . S
C2042 H2050 0.930 1_545 S
C2043 C2042 1.391 . S
C2043 C2044 1.395 . S
C2043 H2051 0.920 1_545 S
C2044 C2043 1.395 . S
C2044 C2045 1.377 . S
C2045 H2029 0.930 . S
C2045 C2044 1.377 . S
C2045 C2046 1.379 . S
C2046 H2030 0.931 . S
C2046 C2040 1.383 . S
C2046 C2045 1.379 . S
H2047 C2041 0.962 1_565 S
H2048 C2041 0.957 . S
H2049 C2041 0.963 1_565 S
H2050 C2042 0.930 1_565 S
H2051 C2043 0.920 1_565 S
H2052 C2060 0.929 . S
H2053 C2062 0.930 . S
H2054 C2064 0.930 . S
H2055 C2067 0.929 . S
H2056 C2070 0.930 . S
H2057 C2072 0.960 . S
H2058 C2072 0.960 . S
H2059 C2072 0.960 . S
C2060 H2052 0.929 . S
C2060 C2061 1.377 . S
C2060 C2062 1.384 . S
C2061 C2060 1.377 . S
C2061 C2067 1.390 . S
C2062 H2053 0.930 . S
C2062 C2060 1.384 . S
C2062 C2063 1.372 . S
C2063 C2062 1.372 . S
C2063 C2064 1.400 . S
C2063 C2068 1.490 . S
C2064 H2054 0.930 . S
C2064 C2063 1.400 . S
C2064 C2067 1.386 . S
H2065 C2081 0.930 . S
H2066 C2082 0.931 . S
C2067 H2055 0.929 . S
C2067 C2061 1.390 . S
C2067 C2064 1.386 . S
C2068 C2063 1.490 . S
C2068 C2070 1.395 . S
C2068 C2071 1.403 . S
H2069 C2075 0.930 . S
C2070 H2056 0.930 . S
C2070 C2068 1.395 . S
C2070 C2073 1.403 . S
C2071 C2068 1.403 . S
C2071 C2072 1.524 . S
C2071 C2075 1.400 . S
C2072 H2057 0.960 . S
C2072 H2058 0.960 . S
C2072 H2059 0.960 . S
C2072 C2071 1.524 . S
C2073 C2070 1.403 . S
C2073 C2074 1.392 . S
C2073 C2077 1.495 . S
C2074 C2073 1.392 . S
C2074 C2075 1.385 . S
C2074 C2076 1.478 . S
C2075 H2069 0.930 . S
C2075 C2071 1.400 . S
C2075 C2074 1.385 . S
C2076 C2074 1.478 . S
C2076 C2078 1.381 . S
C2076 C2082 1.383 . S
C2077 C2073 1.495 . S
C2077 H2083 0.959 . S
C2077 H2084 0.961 . S
C2077 H2085 0.960 . S
C2078 C2076 1.381 . S
C2078 C2079 1.394 . S
C2078 H2086 0.930 . S
C2079 C2078 1.394 . S
C2079 C2080 1.383 . S
C2079 H2087 0.929 . S
C2080 C2079 1.383 . S
C2080 C2081 1.377 . S
C2081 H2065 0.930 . S
C2081 C2080 1.377 . S
C2081 C2082 1.379 . S
C2082 H2066 0.931 . S
C2082 C2076 1.383 . S
C2082 C2081 1.379 . S
H2083 C2077 0.959 . S
H2084 C2077 0.961 . S
H2085 C2077 0.960 . S
H2086 C2078 0.930 . S
H2087 C2079 0.929 . S
H2088 C2096 0.929 . S
H2089 C2098 0.930 . S
H2090 C2100 0.930 . S
H2091 C2103 0.929 . S
H2092 C2106 0.930 . S
H2093 C2108 0.960 . S
H2094 C2108 0.960 . S
H2095 C2108 0.960 . S
C2096 H2088 0.929 . S
C2096 C2097 1.377 . S
C2096 C2098 1.384 . S
C2097 C2096 1.377 . S
C2097 C2103 1.390 . S
C2098 H2089 0.930 . S
C2098 C2096 1.384 . S
C2098 C2099 1.372 . S
C2099 C2098 1.372 . S
C2099 C2100 1.400 . S
C2099 C2104 1.490 . S
C2100 H2090 0.930 . S
C2100 C2099 1.400 . S
C2100 C2103 1.386 . S
H2101 C2117 0.930 . S
H2102 C2118 0.931 . S
C2103 H2091 0.929 . S
C2103 C2097 1.390 . S
C2103 C2100 1.386 . S
C2104 C2099 1.490 . S
C2104 C2106 1.395 1_655 S
C2104 C2107 1.403 . S
H2105 C2111 0.930 . S
C2106 H2092 0.930 . S
C2106 C2104 1.395 1_455 S
C2106 C2109 1.403 . S
C2107 C2104 1.403 . S
C2107 C2108 1.524 . S
C2107 C2111 1.400 . S
C2108 H2093 0.960 . S
C2108 H2094 0.960 . S
C2108 H2095 0.960 . S
C2108 C2107 1.524 . S
C2109 C2106 1.403 . S
C2109 C2110 1.392 . S
C2109 C2113 1.495 . S
C2110 C2109 1.392 . S
C2110 C2111 1.385 1_455 S
C2110 C2112 1.478 . S
C2111 H2105 0.930 . S
C2111 C2107 1.400 . S
C2111 C2110 1.385 1_655 S
C2112 C2110 1.478 . S
C2112 C2114 1.381 . S
C2112 C2118 1.383 . S
C2113 C2109 1.495 . S
C2113 H2119 0.959 . S
C2113 H2120 0.961 . S
C2113 H2121 0.960 . S
C2114 C2112 1.381 . S
C2114 C2115 1.394 . S
C2114 H2122 0.930 . S
C2115 C2114 1.394 . S
C2115 C2116 1.383 . S
C2115 H2123 0.929 . S
C2116 C2115 1.383 . S
C2116 C2117 1.377 . S
C2117 H2101 0.930 . S
C2117 C2116 1.377 . S
C2117 C2118 1.379 . S
C2118 H2102 0.931 . S
C2118 C2112 1.383 . S
C2118 C2117 1.379 . S
H2119 C2113 0.959 . S
H2120 C2113 0.961 . S
H2121 C2113 0.960 . S
H2122 C2114 0.930 . S
H2123 C2115 0.929 . S
H2124 C2132 0.929 . S
H2125 C2134 0.930 . S
H2126 C2136 0.930 . S
H2127 C2139 0.929 . S
H2128 C2142 0.930 . S
H2129 C2144 0.960 . S
H2130 C2144 0.960 . S
H2131 C2144 0.960 . S
C2132 H2124 0.929 . S
C2132 C2133 1.377 . S
C2132 C2134 1.384 . S
C2133 C2132 1.377 . S
C2133 C2139 1.390 . S
C2134 H2125 0.930 . S
C2134 C2132 1.384 . S
C2134 C2135 1.372 . S
C2135 C2134 1.372 . S
C2135 C2136 1.400 . S
C2135 C2140 1.490 . S
C2136 H2126 0.930 . S
C2136 C2135 1.400 . S
C2136 C2139 1.386 . S
H2137 C2153 0.930 . S
H2138 C2154 0.931 . S
C2139 H2127 0.929 . S
C2139 C2133 1.390 . S
C2139 C2136 1.386 . S
C2140 C2135 1.490 . S
C2140 C2142 1.395 . S
C2140 C2143 1.403 . S
H2141 C2147 0.930 . S
C2142 H2128 0.930 . S
C2142 C2140 1.395 . S
C2142 C2145 1.403 . S
C2143 C2140 1.403 . S
C2143 C2144 1.524 . S
C2143 C2147 1.400 . S
C2144 H2129 0.960 . S
C2144 H2130 0.960 . S
C2144 H2131 0.960 . S
C2144 C2143 1.524 . S
C2145 C2142 1.403 . S
C2145 C2146 1.392 . S
C2145 C2149 1.495 . S
C2146 C2145 1.392 . S
C2146 C2147 1.385 . S
C2146 C2148 1.478 . S
C2147 H2141 0.930 . S
C2147 C2143 1.400 . S
C2147 C2146 1.385 . S
C2148 C2146 1.478 . S
C2148 C2150 1.381 . S
C2148 C2154 1.383 . S
C2149 C2145 1.495 . S
C2149 H2155 0.959 . S
C2149 H2156 0.961 . S
C2149 H2157 0.960 . S
C2150 C2148 1.381 . S
C2150 C2151 1.394 . S
C2150 H2158 0.930 . S
C2151 C2150 1.394 . S
C2151 C2152 1.383 . S
C2151 H2159 0.929 . S
C2152 C2151 1.383 . S
C2152 C2153 1.377 . S
C2153 H2137 0.930 . S
C2153 C2152 1.377 . S
C2153 C2154 1.379 . S
C2154 H2138 0.931 . S
C2154 C2148 1.383 . S
C2154 C2153 1.379 . S
H2155 C2149 0.959 . S
H2156 C2149 0.961 . S
H2157 C2149 0.960 . S
H2158 C2150 0.930 . S
H2159 C2151 0.929 . S
H2160 C2168 0.929 . S
H2161 C2170 0.930 . S
H2162 C2172 0.930 . S
H2163 C2175 0.929 . S
H2164 C2178 0.930 . S
H2165 C2180 0.960 . S
H2166 C2180 0.960 . S
H2167 C2180 0.960 . S
C2168 H2160 0.929 . S
C2168 C2169 1.377 . S
C2168 C2170 1.384 . S
C2169 C2168 1.377 . S
C2169 C2175 1.390 . S
C2170 H2161 0.930 . S
C2170 C2168 1.384 . S
C2170 C2171 1.372 . S
C2171 C2170 1.372 . S
C2171 C2172 1.400 . S
C2171 C2176 1.490 . S
C2172 H2162 0.930 . S
C2172 C2171 1.400 . S
C2172 C2175 1.386 . S
H2173 C2189 0.930 . S
H2174 C2190 0.931 . S
C2175 H2163 0.929 . S
C2175 C2169 1.390 . S
C2175 C2172 1.386 . S
C2176 C2171 1.490 . S
C2176 C2178 1.395 . S
C2176 C2179 1.403 . S
H2177 C2183 0.930 . S
C2178 H2164 0.930 . S
C2178 C2176 1.395 . S
C2178 C2181 1.403 . S
C2179 C2176 1.403 . S
C2179 C2180 1.524 . S
C2179 C2183 1.400 . S
C2180 H2165 0.960 . S
C2180 H2166 0.960 . S
C2180 H2167 0.960 . S
C2180 C2179 1.524 . S
C2181 C2178 1.403 . S
C2181 C2182 1.392 . S
C2181 C2185 1.495 . S
C2182 C2181 1.392 . S
C2182 C2183 1.385 . S
C2182 C2184 1.478 . S
C2183 H2177 0.930 . S
C2183 C2179 1.400 . S
C2183 C2182 1.385 . S
C2184 C2182 1.478 . S
C2184 C2186 1.381 . S
C2184 C2190 1.383 . S
C2185 C2181 1.495 . S
C2185 H2191 0.959 . S
C2185 H2192 0.961 . S
C2185 H2193 0.960 . S
C2186 C2184 1.381 . S
C2186 C2187 1.394 . S
C2186 H2194 0.930 . S
C2187 C2186 1.394 . S
C2187 C2188 1.383 . S
C2187 H2195 0.929 . S
C2188 C2187 1.383 . S
C2188 C2189 1.377 . S
C2189 H2173 0.930 . S
C2189 C2188 1.377 . S
C2189 C2190 1.379 . S
C2190 H2174 0.931 . S
C2190 C2184 1.383 . S
C2190 C2189 1.379 . S
H2191 C2185 0.959 . S
H2192 C2185 0.961 . S
H2193 C2185 0.960 . S
H2194 C2186 0.930 . S
H2195 C2187 0.929 . S
H2196 C2204 0.929 . S
H2197 C2206 0.930 . S
H2198 C2208 0.930 . S
H2199 C2211 0.929 . S
H2200 C2214 0.930 . S
H2201 C2216 0.960 . S
H2202 C2216 0.960 . S
H2203 C2216 0.960 . S
C2204 H2196 0.929 . S
C2204 C2205 1.377 . S
C2204 C2206 1.384 . S
C2205 C2204 1.377 . S
C2205 C2211 1.390 . S
C2206 H2197 0.930 . S
C2206 C2204 1.384 . S
C2206 C2207 1.372 . S
C2207 C2206 1.372 . S
C2207 C2208 1.400 . S
C2207 C2212 1.490 . S
C2208 H2198 0.930 . S
C2208 C2207 1.400 . S
C2208 C2211 1.386 . S
H2209 C2225 0.930 . S
H2210 C2226 0.931 . S
C2211 H2199 0.929 . S
C2211 C2205 1.390 . S
C2211 C2208 1.386 . S
C2212 C2207 1.490 . S
C2212 C2214 1.395 . S
C2212 C2215 1.403 . S
H2213 C2219 0.930 . S
C2214 H2200 0.930 . S
C2214 C2212 1.395 . S
C2214 C2217 1.403 . S
C2215 C2212 1.403 . S
C2215 C2216 1.524 . S
C2215 C2219 1.400 . S
C2216 H2201 0.960 . S
C2216 H2202 0.960 . S
C2216 H2203 0.960 . S
C2216 C2215 1.524 . S
C2217 C2214 1.403 . S
C2217 C2218 1.392 . S
C2217 C2221 1.495 . S
C2218 C2217 1.392 . S
C2218 C2219 1.385 . S
C2218 C2220 1.478 . S
C2219 H2213 0.930 . S
C2219 C2215 1.400 . S
C2219 C2218 1.385 . S
C2220 C2218 1.478 . S
C2220 C2222 1.381 . S
C2220 C2226 1.383 . S
C2221 C2217 1.495 . S
C2221 H2227 0.959 . S
C2221 H2228 0.961 . S
C2221 H2229 0.960 . S
C2222 C2220 1.381 . S
C2222 C2223 1.394 . S
C2222 H2230 0.930 . S
C2223 C2222 1.394 . S
C2223 C2224 1.383 . S
C2223 H2231 0.929 . S
C2224 C2223 1.383 . S
C2224 C2225 1.377 . S
C2225 H2209 0.930 . S
C2225 C2224 1.377 . S
C2225 C2226 1.379 . S
C2226 H2210 0.931 . S
C2226 C2220 1.383 . S
C2226 C2225 1.379 . S
H2227 C2221 0.959 . S
H2228 C2221 0.961 . S
H2229 C2221 0.960 . S
H2230 C2222 0.930 . S
H2231 C2223 0.929 . S
H2232 C2240 0.929 . S
H2233 C2242 0.930 . S
H2234 C2244 0.948 . S
H2235 C2247 0.929 1_556 S
H2236 C2250 0.930 1_545 S
H2237 C2252 0.960 . S
H2238 C2252 0.960 . S
H2239 C2252 0.960 . S
C2240 H2232 0.929 . S
C2240 C2241 1.377 . S
C2240 C2242 1.384 . S
C2241 C2240 1.377 . S
C2241 C2247 1.390 . S
C2242 H2233 0.930 . S
C2242 C2240 1.384 . S
C2242 C2243 1.372 . S
C2243 C2242 1.372 . S
C2243 C2244 1.400 . S
C2243 C2248 1.490 . S
C2244 H2234 0.948 . S
C2244 C2243 1.400 . S
C2244 C2247 1.386 . S
H2245 C2261 0.930 . S
H2246 C2262 0.931 1_565 S
C2247 H2235 0.929 1_554 S
C2247 C2241 1.390 . S
C2247 C2244 1.386 . S
C2248 C2243 1.490 . S
C2248 C2250 1.395 . S
C2248 C2251 1.403 . S
H2249 C2255 0.930 . S
C2250 H2236 0.930 1_565 S
C2250 C2248 1.395 . S
C2250 C2253 1.403 1_565 S
C2251 C2248 1.403 . S
C2251 C2252 1.524 . S
C2251 C2255 1.400 . S
C2252 H2237 0.960 . S
C2252 H2238 0.960 . S
C2252 H2239 0.960 . S
C2252 C2251 1.524 . S
C2253 C2250 1.403 1_545 S
C2253 C2254 1.392 1_545 S
C2253 C2257 1.495 . S
C2254 C2253 1.392 1_565 S
C2254 C2255 1.385 . S
C2254 C2256 1.478 1_565 S
C2255 H2249 0.930 . S
C2255 C2251 1.400 . S
C2255 C2254 1.385 . S
C2256 C2254 1.478 1_545 S
C2256 C2258 1.381 . S
C2256 C2262 1.383 . S
C2257 C2253 1.495 . S
C2257 H2263 0.959 . S
C2257 H2264 0.961 . S
C2257 H2265 0.960 . S
C2258 C2256 1.381 . S
C2258 C2259 1.394 . S
C2258 H2266 0.930 . S
C2259 C2258 1.394 . S
C2259 C2260 1.383 . S
C2259 H2267 0.929 . S
C2260 C2259 1.383 . S
C2260 C2261 1.377 . S
C2261 H2245 0.930 . S
C2261 C2260 1.377 . S
C2261 C2262 1.379 . S
C2262 H2246 0.931 1_545 S
C2262 C2256 1.383 . S
C2262 C2261 1.379 . S
H2263 C2257 0.959 . S
H2264 C2257 0.961 . S
H2265 C2257 0.960 . S
H2266 C2258 0.930 . S
H2267 C2259 0.929 . S
H2268 C2276 0.929 . S
H2269 C2278 0.930 . S
H2270 C2280 0.930 . S
H2271 C2283 0.929 . S
H2272 C2286 0.930 . S
H2273 C2288 0.966 . S
H2274 C2288 0.976 . S
H2275 C2288 0.943 1_556 S
C2276 H2268 0.929 . S
C2276 C2277 1.377 1_554 S
C2276 C2278 1.384 . S
C2277 C2276 1.377 1_556 S
C2277 C2283 1.390 . S
C2278 H2269 0.930 . S
C2278 C2276 1.384 . S
C2278 C2279 1.372 1_554 S
C2279 C2278 1.372 1_556 S
C2279 C2280 1.400 . S
C2279 C2284 1.490 . S
C2280 H2270 0.930 . S
C2280 C2279 1.400 . S
C2280 C2283 1.386 . S
H2281 C2297 0.930 . S
H2282 C2298 0.931 . S
C2283 H2271 0.929 . S
C2283 C2277 1.390 . S
C2283 C2280 1.386 . S
C2284 C2279 1.490 . S
C2284 C2286 1.395 . S
C2284 C2287 1.403 . S
H2285 C2291 0.930 . S
C2286 H2272 0.930 . S
C2286 C2284 1.395 . S
C2286 C2289 1.403 . S
C2287 C2284 1.403 . S
C2287 C2288 1.520 1_556 S
C2287 C2291 1.400 . S
C2288 H2273 0.966 . S
C2288 H2274 0.976 . S
C2288 H2275 0.943 1_554 S
C2288 C2287 1.520 1_554 S
C2289 C2286 1.403 . S
C2289 C2290 1.392 . S
C2289 C2293 1.495 . S
C2290 C2289 1.392 . S
C2290 C2291 1.385 . S
C2290 C2292 1.478 . S
C2291 H2285 0.930 . S
C2291 C2287 1.400 . S
C2291 C2290 1.385 . S
C2292 C2290 1.478 . S
C2292 C2294 1.381 1_556 S
C2292 C2298 1.383 . S
C2293 C2289 1.495 . S
C2293 H2299 0.959 . S
C2293 H2300 0.961 . S
C2293 H2301 0.960 1_556 S
C2294 C2292 1.381 1_554 S
C2294 C2295 1.394 . S
C2294 H2302 0.930 . S
C2295 C2294 1.394 . S
C2295 C2296 1.383 1_554 S
C2295 H2303 0.929 . S
C2296 C2295 1.383 1_556 S
C2296 C2297 1.377 . S
C2297 H2281 0.930 . S
C2297 C2296 1.377 . S
C2297 C2298 1.379 . S
C2298 H2282 0.931 . S
C2298 C2292 1.383 . S
C2298 C2297 1.379 . S
H2299 C2293 0.959 . S
H2300 C2293 0.961 . S
H2301 C2293 0.960 1_554 S
H2302 C2294 0.930 . S
H2303 C2295 0.929 . S
H2304 C2312 0.929 . S
H2305 C2314 0.930 . S
H2306 C2316 0.930 . S
H2307 C2319 0.929 . S
H2308 C2322 0.930 . S
H2309 C2324 0.960 . S
H2310 C2324 0.960 . S
H2311 C2324 0.960 . S
C2312 H2304 0.929 . S
C2312 C2313 1.377 . S
C2312 C2314 1.384 . S
C2313 C2312 1.377 . S
C2313 C2319 1.390 . S
C2314 H2305 0.930 . S
C2314 C2312 1.384 . S
C2314 C2315 1.372 . S
C2315 C2314 1.372 . S
C2315 C2316 1.400 . S
C2315 C2320 1.490 . S
C2316 H2306 0.930 . S
C2316 C2315 1.400 . S
C2316 C2319 1.386 . S
H2317 C2333 0.930 . S
H2318 C2334 0.931 . S
C2319 H2307 0.929 . S
C2319 C2313 1.390 . S
C2319 C2316 1.386 . S
C2320 C2315 1.490 . S
C2320 C2322 1.395 . S
C2320 C2323 1.403 . S
H2321 C2327 0.930 . S
C2322 H2308 0.930 . S
C2322 C2320 1.395 . S
C2322 C2325 1.403 . S
C2323 C2320 1.403 . S
C2323 C2324 1.524 . S
C2323 C2327 1.400 . S
C2324 H2309 0.960 . S
C2324 H2310 0.960 . S
C2324 H2311 0.960 . S
C2324 C2323 1.524 . S
C2325 C2322 1.403 . S
C2325 C2326 1.392 . S
C2325 C2329 1.495 . S
C2326 C2325 1.392 . S
C2326 C2327 1.385 . S
C2326 C2328 1.478 . S
C2327 H2321 0.930 . S
C2327 C2323 1.400 . S
C2327 C2326 1.385 . S
C2328 C2326 1.478 . S
C2328 C2330 1.381 . S
C2328 C2334 1.383 . S
C2329 C2325 1.495 . S
C2329 H2335 0.959 . S
C2329 H2336 0.961 . S
C2329 H2337 0.960 . S
C2330 C2328 1.381 . S
C2330 C2331 1.394 . S
C2330 H2338 0.930 . S
C2331 C2330 1.394 . S
C2331 C2332 1.383 . S
C2331 H2339 0.929 . S
C2332 C2331 1.383 . S
C2332 C2333 1.377 . S
C2333 H2317 0.930 . S
C2333 C2332 1.377 . S
C2333 C2334 1.379 . S
C2334 H2318 0.931 . S
C2334 C2328 1.383 . S
C2334 C2333 1.379 . S
H2335 C2329 0.959 . S
H2336 C2329 0.961 . S
H2337 C2329 0.960 . S
H2338 C2330 0.930 . S
H2339 C2331 0.929 . S
H2340 C2348 0.929 . S
H2341 C2350 0.930 . S
H2342 C2352 0.930 . S
H2343 C2355 0.929 . S
H2344 C2358 0.930 . S
H2345 C2360 0.960 . S
H2346 C2360 0.960 . S
H2347 C2360 0.960 . S
C2348 H2340 0.929 . S
C2348 C2349 1.377 . S
C2348 C2350 1.384 . S
C2349 C2348 1.377 . S
C2349 C2355 1.390 . S
C2350 H2341 0.930 . S
C2350 C2348 1.384 . S
C2350 C2351 1.372 . S
C2351 C2350 1.372 . S
C2351 C2352 1.400 . S
C2351 C2356 1.490 . S
C2352 H2342 0.930 . S
C2352 C2351 1.400 . S
C2352 C2355 1.386 . S
H2353 C2369 0.930 . S
H2354 C2370 0.931 . S
C2355 H2343 0.929 . S
C2355 C2349 1.390 . S
C2355 C2352 1.386 . S
C2356 C2351 1.490 . S
C2356 C2358 1.395 . S
C2356 C2359 1.403 . S
H2357 C2363 0.930 . S
C2358 H2344 0.930 . S
C2358 C2356 1.395 . S
C2358 C2361 1.403 . S
C2359 C2356 1.403 . S
C2359 C2360 1.524 . S
C2359 C2363 1.400 . S
C2360 H2345 0.960 . S
C2360 H2346 0.960 . S
C2360 H2347 0.960 . S
C2360 C2359 1.524 . S
C2361 C2358 1.403 . S
C2361 C2362 1.392 . S
C2361 C2365 1.495 . S
C2362 C2361 1.392 . S
C2362 C2363 1.385 . S
C2362 C2364 1.478 . S
C2363 H2357 0.930 . S
C2363 C2359 1.400 . S
C2363 C2362 1.385 . S
C2364 C2362 1.478 . S
C2364 C2366 1.381 . S
C2364 C2370 1.383 . S
C2365 C2361 1.495 . S
C2365 H2371 0.959 . S
C2365 H2372 0.961 . S
C2365 H2373 0.960 . S
C2366 C2364 1.381 . S
C2366 C2367 1.394 . S
C2366 H2374 0.930 . S
C2367 C2366 1.394 . S
C2367 C2368 1.376 1_655 S
C2367 H2375 0.929 1_655 S
C2368 C2367 1.376 1_455 S
C2368 C2369 1.365 1_455 S
C2369 H2353 0.930 . S
C2369 C2368 1.365 1_655 S
C2369 C2370 1.379 . S
C2370 H2354 0.931 . S
C2370 C2364 1.383 . S
C2370 C2369 1.379 . S
H2371 C2365 0.959 . S
H2372 C2365 0.961 . S
H2373 C2365 0.960 . S
H2374 C2366 0.930 . S
H2375 C2367 0.929 1_455 S
H2376 C2384 0.929 . S
H2377 C2386 0.930 . S
H2378 C2388 0.930 . S
H2379 C2391 0.929 . S
H2380 C2394 0.930 . S
H2381 C2396 0.960 . S
H2382 C2396 0.960 . S
H2383 C2396 0.960 . S
C2384 H2376 0.929 . S
C2384 C2385 1.377 . S
C2384 C2386 1.384 . S
C2385 C2384 1.377 . S
C2385 C2391 1.390 . S
C2386 H2377 0.930 . S
C2386 C2384 1.384 . S
C2386 C2387 1.372 . S
C2387 C2386 1.372 . S
C2387 C2388 1.400 . S
C2387 C2392 1.490 . S
C2388 H2378 0.930 . S
C2388 C2387 1.400 . S
C2388 C2391 1.386 . S
H2389 C2405 0.930 . S
H2390 C2406 0.931 . S
C2391 H2379 0.929 . S
C2391 C2385 1.390 . S
C2391 C2388 1.386 . S
C2392 C2387 1.490 . S
C2392 C2394 1.395 . S
C2392 C2395 1.403 . S
H2393 C2399 0.930 . S
C2394 H2380 0.930 . S
C2394 C2392 1.395 . S
C2394 C2397 1.403 . S
C2395 C2392 1.403 . S
C2395 C2396 1.524 . S
C2395 C2399 1.400 . S
C2396 H2381 0.960 . S
C2396 H2382 0.960 . S
C2396 H2383 0.960 . S
C2396 C2395 1.524 . S
C2397 C2394 1.403 . S
C2397 C2398 1.392 . S
C2397 C2401 1.495 . S
C2398 C2397 1.392 . S
C2398 C2399 1.385 . S
C2398 C2400 1.478 . S
C2399 H2393 0.930 . S
C2399 C2395 1.400 . S
C2399 C2398 1.385 . S
C2400 C2398 1.478 . S
C2400 C2402 1.381 . S
C2400 C2406 1.383 . S
C2401 C2397 1.495 . S
C2401 H2407 0.959 . S
C2401 H2408 0.961 . S
C2401 H2409 0.960 . S
C2402 C2400 1.381 . S
C2402 C2403 1.394 . S
C2402 H2410 0.930 . S
C2403 C2402 1.394 . S
C2403 C2404 1.383 . S
C2403 H2411 0.929 . S
C2404 C2403 1.383 . S
C2404 C2405 1.377 . S
C2405 H2389 0.930 . S
C2405 C2404 1.377 . S
C2405 C2406 1.379 . S
C2406 H2390 0.931 . S
C2406 C2400 1.383 . S
C2406 C2405 1.379 . S
H2407 C2401 0.959 . S
H2408 C2401 0.961 . S
H2409 C2401 0.960 . S
H2410 C2402 0.930 . S
H2411 C2403 0.929 . S
H2412 C2420 0.929 . S
H2413 C2422 0.930 . S
H2414 C2424 0.930 . S
H2415 C2427 0.929 . S
H2416 C2430 0.930 . S
H2417 C2432 0.960 . S
H2418 C2432 0.960 . S
H2419 C2432 0.960 . S
C2420 H2412 0.929 . S
C2420 C2421 1.377 . S
C2420 C2422 1.384 . S
C2421 C2420 1.377 . S
C2421 C2427 1.390 . S
C2422 H2413 0.930 . S
C2422 C2420 1.384 . S
C2422 C2423 1.372 . S
C2423 C2422 1.372 . S
C2423 C2424 1.400 . S
C2423 C2428 1.490 . S
C2424 H2414 0.930 . S
C2424 C2423 1.400 . S
C2424 C2427 1.386 . S
H2425 C2441 0.930 . S
H2426 C2442 0.931 . S
C2427 H2415 0.929 . S
C2427 C2421 1.390 . S
C2427 C2424 1.386 . S
C2428 C2423 1.490 . S
C2428 C2430 1.395 . S
C2428 C2431 1.403 . S
H2429 C2435 0.930 . S
C2430 H2416 0.930 . S
C2430 C2428 1.395 . S
C2430 C2433 1.403 . S
C2431 C2428 1.403 . S
C2431 C2432 1.524 . S
C2431 C2435 1.400 . S
C2432 H2417 0.960 . S
C2432 H2418 0.960 . S
C2432 H2419 0.960 . S
C2432 C2431 1.524 . S
C2433 C2430 1.403 . S
C2433 C2434 1.392 . S
C2433 C2437 1.495 . S
C2434 C2433 1.392 . S
C2434 C2435 1.385 . S
C2434 C2436 1.478 . S
C2435 H2429 0.930 . S
C2435 C2431 1.400 . S
C2435 C2434 1.385 . S
C2436 C2434 1.478 . S
C2436 C2438 1.381 . S
C2436 C2442 1.383 . S
C2437 C2433 1.495 . S
C2437 H2443 0.959 . S
C2437 H2444 0.961 . S
C2437 H2445 0.960 . S
C2438 C2436 1.381 . S
C2438 C2439 1.394 . S
C2438 H2446 0.930 . S
C2439 C2438 1.394 . S
C2439 C2440 1.383 . S
C2439 H2447 0.929 . S
C2440 C2439 1.383 . S
C2440 C2441 1.377 . S
C2441 H2425 0.930 . S
C2441 C2440 1.377 . S
C2441 C2442 1.379 . S
C2442 H2426 0.931 . S
C2442 C2436 1.383 . S
C2442 C2441 1.379 . S
H2443 C2437 0.959 . S
H2444 C2437 0.961 . S
H2445 C2437 0.960 . S
H2446 C2438 0.930 . S
H2447 C2439 0.929 . S
H2448 C2456 0.929 . S
H2449 C2458 0.930 . S
H2450 C2460 0.930 . S
H2451 C2463 0.929 . S
H2452 C2466 0.930 . S
H2453 C2468 0.960 . S
H2454 C2468 0.960 . S
H2455 C2468 0.960 . S
C2456 H2448 0.929 . S
C2456 C2457 1.377 . S
C2456 C2458 1.384 . S
C2457 C2456 1.377 . S
C2457 C2463 1.390 . S
C2458 H2449 0.930 . S
C2458 C2456 1.384 . S
C2458 C2459 1.372 . S
C2459 C2458 1.372 . S
C2459 C2460 1.400 . S
C2459 C2464 1.490 . S
C2460 H2450 0.930 . S
C2460 C2459 1.400 . S
C2460 C2463 1.386 . S
H2461 C2477 0.930 . S
H2462 C2478 0.931 . S
C2463 H2451 0.929 . S
C2463 C2457 1.390 . S
C2463 C2460 1.386 . S
C2464 C2459 1.490 . S
C2464 C2466 1.395 . S
C2464 C2467 1.403 . S
H2465 C2471 0.930 . S
C2466 H2452 0.930 . S
C2466 C2464 1.395 . S
C2466 C2469 1.403 . S
C2467 C2464 1.403 . S
C2467 C2468 1.524 . S
C2467 C2471 1.400 . S
C2468 H2453 0.960 . S
C2468 H2454 0.960 . S
C2468 H2455 0.960 . S
C2468 C2467 1.524 . S
C2469 C2466 1.403 . S
C2469 C2470 1.392 . S
C2469 C2473 1.495 . S
C2470 C2469 1.392 . S
C2470 C2471 1.385 . S
C2470 C2472 1.478 . S
C2471 H2465 0.930 . S
C2471 C2467 1.400 . S
C2471 C2470 1.385 . S
C2472 C2470 1.478 . S
C2472 C2474 1.381 . S
C2472 C2478 1.383 . S
C2473 C2469 1.495 . S
C2473 H2479 0.959 . S
C2473 H2480 0.961 . S
C2473 H2481 0.960 . S
C2474 C2472 1.381 . S
C2474 C2475 1.394 . S
C2474 H2482 0.930 . S
C2475 C2474 1.394 . S
C2475 C2476 1.383 . S
C2475 H2483 0.929 . S
C2476 C2475 1.383 . S
C2476 C2477 1.377 . S
C2477 H2461 0.930 . S
C2477 C2476 1.377 . S
C2477 C2478 1.379 . S
C2478 H2462 0.931 . S
C2478 C2472 1.383 . S
C2478 C2477 1.379 . S
H2479 C2473 0.959 . S
H2480 C2473 0.961 . S
H2481 C2473 0.960 . S
H2482 C2474 0.930 . S
H2483 C2475 0.929 . S
H2484 C2492 0.929 . S
H2485 C2494 0.930 . S
H2486 C2496 0.930 . S
H2487 C2499 0.929 . S
H2488 C2502 0.930 . S
H2489 C2504 0.960 . S
H2490 C2504 0.960 . S
H2491 C2504 0.960 . S
C2492 H2484 0.929 . S
C2492 C2493 1.377 . S
C2492 C2494 1.384 . S
C2493 C2492 1.377 . S
C2493 C2499 1.390 . S
C2494 H2485 0.930 . S
C2494 C2492 1.384 . S
C2494 C2495 1.372 . S
C2495 C2494 1.372 . S
C2495 C2496 1.400 . S
C2495 C2500 1.490 . S
C2496 H2486 0.930 . S
C2496 C2495 1.400 . S
C2496 C2499 1.386 . S
H2497 C2513 0.930 . S
H2498 C2514 0.931 . S
C2499 H2487 0.929 . S
C2499 C2493 1.390 . S
C2499 C2496 1.386 . S
C2500 C2495 1.490 . S
C2500 C2502 1.395 . S
C2500 C2503 1.403 . S
H2501 C2507 0.930 . S
C2502 H2488 0.930 . S
C2502 C2500 1.395 . S
C2502 C2505 1.403 . S
C2503 C2500 1.403 . S
C2503 C2504 1.524 . S
C2503 C2507 1.400 . S
C2504 H2489 0.960 . S
C2504 H2490 0.960 . S
C2504 H2491 0.960 . S
C2504 C2503 1.524 . S
C2505 C2502 1.403 . S
C2505 C2506 1.392 . S
C2505 C2509 1.495 . S
C2506 C2505 1.392 . S
C2506 C2507 1.385 . S
C2506 C2508 1.478 . S
C2507 H2501 0.930 . S
C2507 C2503 1.400 . S
C2507 C2506 1.385 . S
C2508 C2506 1.478 . S
C2508 C2510 1.381 . S
C2508 C2514 1.383 . S
C2509 C2505 1.495 . S
C2509 H2515 0.959 . S
C2509 H2516 0.961 . S
C2509 H2517 0.960 . S
C2510 C2508 1.381 . S
C2510 C2511 1.394 . S
C2510 H2518 0.930 . S
C2511 C2510 1.394 . S
C2511 C2512 1.383 . S
C2511 H2519 0.929 . S
C2512 C2511 1.383 . S
C2512 C2513 1.377 . S
C2513 H2497 0.930 . S
C2513 C2512 1.377 . S
C2513 C2514 1.379 . S
C2514 H2498 0.931 . S
C2514 C2508 1.383 . S
C2514 C2513 1.379 . S
H2515 C2509 0.959 . S
H2516 C2509 0.961 . S
H2517 C2509 0.960 . S
H2518 C2510 0.930 . S
H2519 C2511 0.929 . S
H2520 C2528 0.929 . S
H2521 C2530 0.930 . S
H2522 C2532 0.930 . S
H2523 C2535 0.929 . S
H2524 C2538 0.930 . S
H2525 C2540 0.960 . S
H2526 C2540 0.960 . S
H2527 C2540 0.960 . S
C2528 H2520 0.929 . S
C2528 C2529 1.377 . S
C2528 C2530 1.384 . S
C2529 C2528 1.377 . S
C2529 C2535 1.390 . S
C2530 H2521 0.930 . S
C2530 C2528 1.384 . S
C2530 C2531 1.372 . S
C2531 C2530 1.372 . S
C2531 C2532 1.400 . S
C2531 C2536 1.490 . S
C2532 H2522 0.930 . S
C2532 C2531 1.400 . S
C2532 C2535 1.386 . S
H2533 C2549 0.930 . S
H2534 C2550 0.931 . S
C2535 H2523 0.929 . S
C2535 C2529 1.390 . S
C2535 C2532 1.386 . S
C2536 C2531 1.490 . S
C2536 C2538 1.395 . S
C2536 C2539 1.403 . S
H2537 C2543 0.930 . S
C2538 H2524 0.930 . S
C2538 C2536 1.395 . S
C2538 C2541 1.403 . S
C2539 C2536 1.403 . S
C2539 C2540 1.524 . S
C2539 C2543 1.400 . S
C2540 H2525 0.960 . S
C2540 H2526 0.960 . S
C2540 H2527 0.960 . S
C2540 C2539 1.524 . S
C2541 C2538 1.403 . S
C2541 C2542 1.392 . S
C2541 C2545 1.495 . S
C2542 C2541 1.392 . S
C2542 C2543 1.385 . S
C2542 C2544 1.478 . S
C2543 H2537 0.930 . S
C2543 C2539 1.400 . S
C2543 C2542 1.385 . S
C2544 C2542 1.478 . S
C2544 C2546 1.381 . S
C2544 C2550 1.383 . S
C2545 C2541 1.495 . S
C2545 H2551 0.959 . S
C2545 H2552 0.961 . S
C2545 H2553 0.960 . S
C2546 C2544 1.381 . S
C2546 C2547 1.394 . S
C2546 H2554 0.930 . S
C2547 C2546 1.394 . S
C2547 C2548 1.383 . S
C2547 H2555 0.929 . S
C2548 C2547 1.383 . S
C2548 C2549 1.377 . S
C2549 H2533 0.930 . S
C2549 C2548 1.377 . S
C2549 C2550 1.379 . S
C2550 H2534 0.931 . S
C2550 C2544 1.383 . S
C2550 C2549 1.379 . S
H2551 C2545 0.959 . S
H2552 C2545 0.961 . S
H2553 C2545 0.960 . S
H2554 C2546 0.930 . S
H2555 C2547 0.929 . S
H2556 C2564 0.929 . S
H2557 C2566 0.930 . S
H2558 C2568 0.930 . S
H2559 C2571 0.929 . S
H2560 C2574 0.930 . S
H2561 C2576 0.960 . S
H2562 C2576 0.960 . S
H2563 C2576 0.960 . S
C2564 H2556 0.929 . S
C2564 C2565 1.377 . S
C2564 C2566 1.384 . S
C2565 C2564 1.377 . S
C2565 C2571 1.390 . S
C2566 H2557 0.930 . S
C2566 C2564 1.384 . S
C2566 C2567 1.372 . S
C2567 C2566 1.372 . S
C2567 C2568 1.400 . S
C2567 C2572 1.490 . S
C2568 H2558 0.930 . S
C2568 C2567 1.400 . S
C2568 C2571 1.386 . S
H2569 C2585 0.930 . S
H2570 C2586 0.931 . S
C2571 H2559 0.929 . S
C2571 C2565 1.390 . S
C2571 C2568 1.386 . S
C2572 C2567 1.490 . S
C2572 C2574 1.395 . S
C2572 C2575 1.403 . S
H2573 C2579 0.930 . S
C2574 H2560 0.930 . S
C2574 C2572 1.395 . S
C2574 C2577 1.403 . S
C2575 C2572 1.403 . S
C2575 C2576 1.524 . S
C2575 C2579 1.400 . S
C2576 H2561 0.960 . S
C2576 H2562 0.960 . S
C2576 H2563 0.960 . S
C2576 C2575 1.524 . S
C2577 C2574 1.403 . S
C2577 C2578 1.392 . S
C2577 C2581 1.495 . S
C2578 C2577 1.392 . S
C2578 C2579 1.385 . S
C2578 C2580 1.478 . S
C2579 H2573 0.930 . S
C2579 C2575 1.400 . S
C2579 C2578 1.385 . S
C2580 C2578 1.478 . S
C2580 C2582 1.381 . S
C2580 C2586 1.383 . S
C2581 C2577 1.495 . S
C2581 H2587 0.959 . S
C2581 H2588 0.961 . S
C2581 H2589 0.960 . S
C2582 C2580 1.381 . S
C2582 C2583 1.394 . S
C2582 H2590 0.930 . S
C2583 C2582 1.394 . S
C2583 C2584 1.383 . S
C2583 H2591 0.929 . S
C2584 C2583 1.383 . S
C2584 C2585 1.377 . S
C2585 H2569 0.930 . S
C2585 C2584 1.377 . S
C2585 C2586 1.379 . S
C2586 H2570 0.931 . S
C2586 C2580 1.383 . S
C2586 C2585 1.379 . S
H2587 C2581 0.959 . S
H2588 C2581 0.961 . S
H2589 C2581 0.960 . S
H2590 C2582 0.930 . S
H2591 C2583 0.929 . S
H2592 C2600 0.929 . S
H2593 C2602 0.930 . S
H2594 C2604 0.930 . S
H2595 C2607 0.929 . S
H2596 C2610 0.930 . S
H2597 C2612 0.960 . S
H2598 C2612 0.960 . S
H2599 C2612 0.960 . S
C2600 H2592 0.929 . S
C2600 C2601 1.377 . S
C2600 C2602 1.384 . S
C2601 C2600 1.377 . S
C2601 C2607 1.390 . S
C2602 H2593 0.930 . S
C2602 C2600 1.384 . S
C2602 C2603 1.372 . S
C2603 C2602 1.372 . S
C2603 C2604 1.400 . S
C2603 C2608 1.490 . S
C2604 H2594 0.930 . S
C2604 C2603 1.400 . S
C2604 C2607 1.386 . S
H2605 C2621 0.930 . S
H2606 C2622 0.931 . S
C2607 H2595 0.929 . S
C2607 C2601 1.390 . S
C2607 C2604 1.386 . S
C2608 C2603 1.490 . S
C2608 C2610 1.395 . S
C2608 C2611 1.403 . S
H2609 C2615 0.930 . S
C2610 H2596 0.930 . S
C2610 C2608 1.395 . S
C2610 C2613 1.403 . S
C2611 C2608 1.403 . S
C2611 C2612 1.524 . S
C2611 C2615 1.400 . S
C2612 H2597 0.960 . S
C2612 H2598 0.960 . S
C2612 H2599 0.960 . S
C2612 C2611 1.524 . S
C2613 C2610 1.403 . S
C2613 C2614 1.392 . S
C2613 C2617 1.495 . S
C2614 C2613 1.392 . S
C2614 C2615 1.385 . S
C2614 C2616 1.478 . S
C2615 H2609 0.930 . S
C2615 C2611 1.400 . S
C2615 C2614 1.385 . S
C2616 C2614 1.478 . S
C2616 C2618 1.381 . S
C2616 C2622 1.383 . S
C2617 C2613 1.495 . S
C2617 H2623 0.959 . S
C2617 H2624 0.961 . S
C2617 H2625 0.960 . S
C2618 C2616 1.381 . S
C2618 C2619 1.394 . S
C2618 H2626 0.930 . S
C2619 C2618 1.394 . S
C2619 C2620 1.383 . S
C2619 H2627 0.929 . S
C2620 C2619 1.383 . S
C2620 C2621 1.377 . S
C2621 H2605 0.930 . S
C2621 C2620 1.377 . S
C2621 C2622 1.379 . S
C2622 H2606 0.931 . S
C2622 C2616 1.383 . S
C2622 C2621 1.379 . S
H2623 C2617 0.959 . S
H2624 C2617 0.961 . S
H2625 C2617 0.960 . S
H2626 C2618 0.930 . S
H2627 C2619 0.929 . S
H2628 C2636 0.929 . S
H2629 C2638 0.930 . S
H2630 C2640 0.930 . S
H2631 C2643 0.929 . S
H2632 C2646 0.930 . S
H2633 C2648 0.960 . S
H2634 C2648 0.960 . S
H2635 C2648 0.960 . S
C2636 H2628 0.929 . S
C2636 C2637 1.377 . S
C2636 C2638 1.384 . S
C2637 C2636 1.377 . S
C2637 C2643 1.390 . S
C2638 H2629 0.930 . S
C2638 C2636 1.384 . S
C2638 C2639 1.372 . S
C2639 C2638 1.372 . S
C2639 C2640 1.400 . S
C2639 C2644 1.490 . S
C2640 H2630 0.930 . S
C2640 C2639 1.400 . S
C2640 C2643 1.386 . S
H2641 C2657 0.930 . S
H2642 C2658 0.931 . S
C2643 H2631 0.929 . S
C2643 C2637 1.390 . S
C2643 C2640 1.386 . S
C2644 C2639 1.490 . S
C2644 C2646 1.395 . S
C2644 C2647 1.403 . S
H2645 C2651 0.930 . S
C2646 H2632 0.930 . S
C2646 C2644 1.395 . S
C2646 C2649 1.403 . S
C2647 C2644 1.403 . S
C2647 C2648 1.524 . S
C2647 C2651 1.400 . S
C2648 H2633 0.960 . S
C2648 H2634 0.960 . S
C2648 H2635 0.960 . S
C2648 C2647 1.524 . S
C2649 C2646 1.403 . S
C2649 C2650 1.392 . S
C2649 C2653 1.495 . S
C2650 C2649 1.392 . S
C2650 C2651 1.385 . S
C2650 C2652 1.478 . S
C2651 H2645 0.930 . S
C2651 C2647 1.400 . S
C2651 C2650 1.385 . S
C2652 C2650 1.478 . S
C2652 C2654 1.381 . S
C2652 C2658 1.383 . S
C2653 C2649 1.495 . S
C2653 H2659 0.959 . S
C2653 H2660 0.961 . S
C2653 H2661 0.960 . S
C2654 C2652 1.381 . S
C2654 C2655 1.394 . S
C2654 H2662 0.930 . S
C2655 C2654 1.394 . S
C2655 C2656 1.383 . S
C2655 H2663 0.929 . S
C2656 C2655 1.383 . S
C2656 C2657 1.377 . S
C2657 H2641 0.930 . S
C2657 C2656 1.377 . S
C2657 C2658 1.379 . S
C2658 H2642 0.931 . S
C2658 C2652 1.383 . S
C2658 C2657 1.379 . S
H2659 C2653 0.959 . S
H2660 C2653 0.961 . S
H2661 C2653 0.960 . S
H2662 C2654 0.930 . S
H2663 C2655 0.929 . S
H2664 C2672 0.929 . S
H2665 C2674 0.930 . S
H2666 C2676 0.930 . S
H2667 C2679 0.929 . S
H2668 C2682 0.930 . S
H2669 C2684 0.960 . S
H2670 C2684 0.960 . S
H2671 C2684 0.960 . S
C2672 H2664 0.929 . S
C2672 C2673 1.377 . S
C2672 C2674 1.384 . S
C2673 C2672 1.377 . S
C2673 C2679 1.390 . S
C2674 H2665 0.930 . S
C2674 C2672 1.384 . S
C2674 C2675 1.372 . S
C2675 C2674 1.372 . S
C2675 C2676 1.400 . S
C2675 C2680 1.490 . S
C2676 H2666 0.930 . S
C2676 C2675 1.400 . S
C2676 C2679 1.386 . S
H2677 C2693 0.930 . S
H2678 C2694 0.931 . S
C2679 H2667 0.929 . S
C2679 C2673 1.390 . S
C2679 C2676 1.386 . S
C2680 C2675 1.490 . S
C2680 C2682 1.395 . S
C2680 C2683 1.403 . S
H2681 C2687 0.930 . S
C2682 H2668 0.930 . S
C2682 C2680 1.395 . S
C2682 C2685 1.403 . S
C2683 C2680 1.403 . S
C2683 C2684 1.524 . S
C2683 C2687 1.400 . S
C2684 H2669 0.960 . S
C2684 H2670 0.960 . S
C2684 H2671 0.960 . S
C2684 C2683 1.524 . S
C2685 C2682 1.403 . S
C2685 C2686 1.392 . S
C2685 C2689 1.495 . S
C2686 C2685 1.392 . S
C2686 C2687 1.385 . S
C2686 C2688 1.478 . S
C2687 H2681 0.930 . S
C2687 C2683 1.400 . S
C2687 C2686 1.385 . S
C2688 C2686 1.478 . S
C2688 C2690 1.381 . S
C2688 C2694 1.383 . S
C2689 C2685 1.495 . S
C2689 H2695 0.959 . S
C2689 H2696 0.961 . S
C2689 H2697 0.960 . S
C2690 C2688 1.381 . S
C2690 C2691 1.394 . S
C2690 H2698 0.930 . S
C2691 C2690 1.394 . S
C2691 C2692 1.383 . S
C2691 H2699 0.929 . S
C2692 C2691 1.383 . S
C2692 C2693 1.377 . S
C2693 H2677 0.930 . S
C2693 C2692 1.377 . S
C2693 C2694 1.379 . S
C2694 H2678 0.931 . S
C2694 C2688 1.383 . S
C2694 C2693 1.379 . S
H2695 C2689 0.959 . S
H2696 C2689 0.961 . S
H2697 C2689 0.960 . S
H2698 C2690 0.930 . S
H2699 C2691 0.929 . S
H2700 C2708 0.929 . S
H2701 C2710 0.930 . S
H2702 C2712 0.930 . S
H2703 C2715 0.929 . S
H2704 C2718 0.930 . S
H2705 C2720 0.960 . S
H2706 C2720 0.960 . S
H2707 C2720 0.960 . S
C2708 H2700 0.929 . S
C2708 C2709 1.377 . S
C2708 C2710 1.384 . S
C2709 C2708 1.377 . S
C2709 C2715 1.390 . S
C2710 H2701 0.930 . S
C2710 C2708 1.384 . S
C2710 C2711 1.372 . S
C2711 C2710 1.372 . S
C2711 C2712 1.400 . S
C2711 C2716 1.490 . S
C2712 H2702 0.930 . S
C2712 C2711 1.400 . S
C2712 C2715 1.386 . S
H2713 C2729 0.930 . S
H2714 C2730 0.931 . S
C2715 H2703 0.929 . S
C2715 C2709 1.390 . S
C2715 C2712 1.386 . S
C2716 C2711 1.490 . S
C2716 C2718 1.395 . S
C2716 C2719 1.403 . S
H2717 C2723 0.930 . S
C2718 H2704 0.930 . S
C2718 C2716 1.395 . S
C2718 C2721 1.403 . S
C2719 C2716 1.403 . S
C2719 C2720 1.524 . S
C2719 C2723 1.400 . S
C2720 H2705 0.960 . S
C2720 H2706 0.960 . S
C2720 H2707 0.960 . S
C2720 C2719 1.524 . S
C2721 C2718 1.403 . S
C2721 C2722 1.392 . S
C2721 C2725 1.495 . S
C2722 C2721 1.392 . S
C2722 C2723 1.385 . S
C2722 C2724 1.478 . S
C2723 H2717 0.930 . S
C2723 C2719 1.400 . S
C2723 C2722 1.385 . S
C2724 C2722 1.478 . S
C2724 C2726 1.381 . S
C2724 C2730 1.383 . S
C2725 C2721 1.495 . S
C2725 H2731 0.959 . S
C2725 H2732 0.961 . S
C2725 H2733 0.960 . S
C2726 C2724 1.381 . S
C2726 C2727 1.394 . S
C2726 H2734 0.930 . S
C2727 C2726 1.394 . S
C2727 C2728 1.383 . S
C2727 H2735 0.929 . S
C2728 C2727 1.383 . S
C2728 C2729 1.377 . S
C2729 H2713 0.930 . S
C2729 C2728 1.377 . S
C2729 C2730 1.379 . S
C2730 H2714 0.931 . S
C2730 C2724 1.383 . S
C2730 C2729 1.379 . S
H2731 C2725 0.959 . S
H2732 C2725 0.961 . S
H2733 C2725 0.960 . S
H2734 C2726 0.930 . S
H2735 C2727 0.929 . S
H2736 C2744 0.929 . S
H2737 C2746 0.930 . S
H2738 C2748 0.930 . S
H2739 C2751 0.929 . S
H2740 C2754 0.930 . S
H2741 C2756 0.960 . S
H2742 C2756 0.960 . S
H2743 C2756 0.960 . S
C2744 H2736 0.929 . S
C2744 C2745 1.377 . S
C2744 C2746 1.384 . S
C2745 C2744 1.377 . S
C2745 C2751 1.390 . S
C2746 H2737 0.930 . S
C2746 C2744 1.384 . S
C2746 C2747 1.372 . S
C2747 C2746 1.372 . S
C2747 C2748 1.400 . S
C2747 C2752 1.490 . S
C2748 H2738 0.930 . S
C2748 C2747 1.400 . S
C2748 C2751 1.386 . S
H2749 C2765 0.930 . S
H2750 C2766 0.931 . S
C2751 H2739 0.929 . S
C2751 C2745 1.390 . S
C2751 C2748 1.386 . S
C2752 C2747 1.490 . S
C2752 C2754 1.395 . S
C2752 C2755 1.403 . S
H2753 C2759 0.930 . S
C2754 H2740 0.930 . S
C2754 C2752 1.395 . S
C2754 C2757 1.403 . S
C2755 C2752 1.403 . S
C2755 C2756 1.524 . S
C2755 C2759 1.400 . S
C2756 H2741 0.960 . S
C2756 H2742 0.960 . S
C2756 H2743 0.960 . S
C2756 C2755 1.524 . S
C2757 C2754 1.403 . S
C2757 C2758 1.392 . S
C2757 C2761 1.495 . S
C2758 C2757 1.392 . S
C2758 C2759 1.385 . S
C2758 C2760 1.478 . S
C2759 H2753 0.930 . S
C2759 C2755 1.400 . S
C2759 C2758 1.385 . S
C2760 C2758 1.478 . S
C2760 C2762 1.381 . S
C2760 C2766 1.383 . S
C2761 C2757 1.495 . S
C2761 H2767 0.959 . S
C2761 H2768 0.961 . S
C2761 H2769 0.960 . S
C2762 C2760 1.381 . S
C2762 C2763 1.394 . S
C2762 H2770 0.930 . S
C2763 C2762 1.394 . S
C2763 C2764 1.383 1_565 S
C2763 H2771 0.929 1_556 S
C2764 C2763 1.383 1_545 S
C2764 C2765 1.377 . S
C2765 H2749 0.930 . S
C2765 C2764 1.377 . S
C2765 C2766 1.379 1_545 S
C2766 H2750 0.931 . S
C2766 C2760 1.383 . S
C2766 C2765 1.379 1_565 S
H2767 C2761 0.959 . S
H2768 C2761 0.961 . S
H2769 C2761 0.960 . S
H2770 C2762 0.930 . S
H2771 C2763 0.929 1_554 S
H2772 C2780 0.929 . S
H2773 C2782 0.930 . S
H2774 C2784 0.930 . S
H2775 C2787 0.929 . S
H2776 C2790 0.930 . S
H2777 C2792 0.960 . S
H2778 C2792 0.960 . S
H2779 C2792 0.960 . S
C2780 H2772 0.929 . S
C2780 C2781 1.377 . S
C2780 C2782 1.384 . S
C2781 C2780 1.377 . S
C2781 C2787 1.390 . S
C2782 H2773 0.930 . S
C2782 C2780 1.384 . S
C2782 C2783 1.372 . S
C2783 C2782 1.372 . S
C2783 C2784 1.400 . S
C2783 C2788 1.490 . S
C2784 H2774 0.930 . S
C2784 C2783 1.400 . S
C2784 C2787 1.386 . S
H2785 C2801 0.930 . S
H2786 C2802 0.931 . S
C2787 H2775 0.929 . S
C2787 C2781 1.390 . S
C2787 C2784 1.386 . S
C2788 C2783 1.490 . S
C2788 C2790 1.395 . S
C2788 C2791 1.403 . S
H2789 C2795 0.930 . S
C2790 H2776 0.930 . S
C2790 C2788 1.395 . S
C2790 C2793 1.403 . S
C2791 C2788 1.403 . S
C2791 C2792 1.524 . S
C2791 C2795 1.400 . S
C2792 H2777 0.960 . S
C2792 H2778 0.960 . S
C2792 H2779 0.960 . S
C2792 C2791 1.524 . S
C2793 C2790 1.403 . S
C2793 C2794 1.392 . S
C2793 C2797 1.495 . S
C2794 C2793 1.392 . S
C2794 C2795 1.385 . S
C2794 C2796 1.478 . S
C2795 H2789 0.930 . S
C2795 C2791 1.400 . S
C2795 C2794 1.385 . S
C2796 C2794 1.478 . S
C2796 C2798 1.381 . S
C2796 C2802 1.383 . S
C2797 C2793 1.495 . S
C2797 H2803 0.959 . S
C2797 H2804 0.961 . S
C2797 H2805 0.960 . S
C2798 C2796 1.381 . S
C2798 C2799 1.394 . S
C2798 H2806 0.930 . S
C2799 C2798 1.394 . S
C2799 C2800 1.383 . S
C2799 H2807 0.929 . S
C2800 C2799 1.383 . S
C2800 C2801 1.377 . S
C2801 H2785 0.930 . S
C2801 C2800 1.377 . S
C2801 C2802 1.379 . S
C2802 H2786 0.931 . S
C2802 C2796 1.383 . S
C2802 C2801 1.379 . S
H2803 C2797 0.959 . S
H2804 C2797 0.961 . S
H2805 C2797 0.960 . S
H2806 C2798 0.930 . S
H2807 C2799 0.929 . S
H2808 C2816 0.929 . S
H2809 C2818 0.930 . S
H2810 C2820 0.930 . S
H2811 C2823 0.929 . S
H2812 C2826 0.930 . S
H2813 C2828 0.960 . S
H2814 C2828 0.960 . S
H2815 C2828 0.960 . S
C2816 H2808 0.929 . S
C2816 C2817 1.377 1_565 S
C2816 C2818 1.384 . S
C2817 C2816 1.377 1_545 S
C2817 C2823 1.390 . S
C2818 H2809 0.930 . S
C2818 C2816 1.384 . S
C2818 C2819 1.372 1_565 S
C2819 C2818 1.372 1_545 S
C2819 C2820 1.400 . S
C2819 C2824 1.490 . S
C2820 H2810 0.930 . S
C2820 C2819 1.400 . S
C2820 C2823 1.386 . S
H2821 C2837 0.930 . S
H2822 C2838 0.931 . S
C2823 H2811 0.929 . S
C2823 C2817 1.390 . S
C2823 C2820 1.386 . S
C2824 C2819 1.490 . S
C2824 C2826 1.395 1_545 S
C2824 C2827 1.403 . S
H2825 C2831 0.930 . S
C2826 H2812 0.930 . S
C2826 C2824 1.395 1_565 S
C2826 C2829 1.402 . S
C2827 C2824 1.403 . S
C2827 C2828 1.524 . S
C2827 C2831 1.400 . S
C2828 H2813 0.960 . S
C2828 H2814 0.960 . S
C2828 H2815 0.960 . S
C2828 C2827 1.524 . S
C2829 C2826 1.402 . S
C2829 C2830 1.359 1_565 S
C2829 C2833 1.530 . S
C2830 C2829 1.359 1_545 S
C2830 C2831 1.385 . S
C2830 C2832 1.478 . S
C2831 H2825 0.930 . S
C2831 C2827 1.400 . S
C2831 C2830 1.385 . S
C2832 C2830 1.478 . S
C2832 C2834 1.381 . S
C2832 C2838 1.383 . S
C2833 C2829 1.530 . S
C2833 H2839 0.959 . S
C2833 H2840 0.961 . S
C2833 H2841 0.960 . S
C2834 C2832 1.381 . S
C2834 C2835 1.394 . S
C2834 H2842 0.901 1_545 S
C2835 C2834 1.394 . S
C2835 C2836 1.383 . S
C2835 H2843 0.929 . S
C2836 C2835 1.383 . S
C2836 C2837 1.377 . S
C2837 H2821 0.930 . S
C2837 C2836 1.377 . S
C2837 C2838 1.379 . S
C2838 H2822 0.931 . S
C2838 C2832 1.383 . S
C2838 C2837 1.379 . S
H2839 C2833 0.959 . S
H2840 C2833 0.961 . S
H2841 C2833 0.960 . S
H2842 C2834 0.901 1_565 S
H2843 C2835 0.929 . S
H2844 C2852 0.929 . S
H2845 C2854 0.930 . S
H2846 C2856 0.930 . S
H2847 C2859 0.929 . S
H2848 C2862 0.930 . S
H2849 C2864 0.960 . S
H2850 C2864 0.960 . S
H2851 C2864 0.960 . S
C2852 H2844 0.929 . S
C2852 C2853 1.377 . S
C2852 C2854 1.384 . S
C2853 C2852 1.377 . S
C2853 C2859 1.390 . S
C2854 H2845 0.930 . S
C2854 C2852 1.384 . S
C2854 C2855 1.372 . S
C2855 C2854 1.372 . S
C2855 C2856 1.400 . S
C2855 C2860 1.490 . S
C2856 H2846 0.930 . S
C2856 C2855 1.400 . S
C2856 C2859 1.386 . S
H2857 C2873 0.930 . S
H2858 C2874 0.931 . S
C2859 H2847 0.929 . S
C2859 C2853 1.390 . S
C2859 C2856 1.386 . S
C2860 C2855 1.490 . S
C2860 C2862 1.395 . S
C2860 C2863 1.403 . S
H2861 C2867 0.930 . S
C2862 H2848 0.930 . S
C2862 C2860 1.395 . S
C2862 C2865 1.403 . S
C2863 C2860 1.403 . S
C2863 C2864 1.524 . S
C2863 C2867 1.400 . S
C2864 H2849 0.960 . S
C2864 H2850 0.960 . S
C2864 H2851 0.960 . S
C2864 C2863 1.524 . S
C2865 C2862 1.403 . S
C2865 C2866 1.392 . S
C2865 C2869 1.495 . S
C2866 C2865 1.392 . S
C2866 C2867 1.385 . S
C2866 C2868 1.478 . S
C2867 H2861 0.930 . S
C2867 C2863 1.400 . S
C2867 C2866 1.385 . S
C2868 C2866 1.478 . S
C2868 C2870 1.381 . S
C2868 C2874 1.383 . S
C2869 C2865 1.495 . S
C2869 H2875 0.959 . S
C2869 H2876 0.961 . S
C2869 H2877 0.960 . S
C2870 C2868 1.381 . S
C2870 C2871 1.394 . S
C2870 H2878 0.930 . S
C2871 C2870 1.394 . S
C2871 C2872 1.383 . S
C2871 H2879 0.929 . S
C2872 C2871 1.383 . S
C2872 C2873 1.377 . S
C2873 H2857 0.930 . S
C2873 C2872 1.377 . S
C2873 C2874 1.379 . S
C2874 H2858 0.931 . S
C2874 C2868 1.383 . S
C2874 C2873 1.379 . S
H2875 C2869 0.959 . S
H2876 C2869 0.961 . S
H2877 C2869 0.960 . S
H2878 C2870 0.930 . S
H2879 C2871 0.929 . S
H2880 C2888 0.929 . S
H2881 C2890 0.930 . S
H2882 C2892 0.930 . S
H2883 C2895 0.972 . S
H2884 C2898 0.930 . S
H2885 C2900 0.960 . S
H2886 C2900 0.960 . S
H2887 C2900 0.954 1_565 S
C2888 H2880 0.929 . S
C2888 C2889 1.377 . S
C2888 C2890 1.384 . S
C2889 C2888 1.377 . S
C2889 C2895 1.390 . S
C2890 H2881 0.930 . S
C2890 C2888 1.384 . S
C2890 C2891 1.372 . S
C2891 C2890 1.372 . S
C2891 C2892 1.400 . S
C2891 C2896 1.490 . S
C2892 H2882 0.930 . S
C2892 C2891 1.400 . S
C2892 C2895 1.386 . S
H2893 C2909 0.930 . S
H2894 C2910 0.931 . S
C2895 H2883 0.972 . S
C2895 C2889 1.390 . S
C2895 C2892 1.386 . S
C2896 C2891 1.490 . S
C2896 C2898 1.395 . S
C2896 C2899 1.403 . S
H2897 C2903 0.930 . S
C2898 H2884 0.930 . S
C2898 C2896 1.395 . S
C2898 C2901 1.403 . S
C2899 C2896 1.403 . S
C2899 C2900 1.524 . S
C2899 C2903 1.400 . S
C2900 H2885 0.960 . S
C2900 H2886 0.960 . S
C2900 H2887 0.954 1_545 S
C2900 C2899 1.524 . S
C2901 C2898 1.403 . S
C2901 C2902 1.392 . S
C2901 C2905 1.495 . S
C2902 C2901 1.392 . S
C2902 C2903 1.385 . S
C2902 C2904 1.478 . S
C2903 H2897 0.930 . S
C2903 C2899 1.400 . S
C2903 C2902 1.385 . S
C2904 C2902 1.478 . S
C2904 C2906 1.381 . S
C2904 C2910 1.383 . S
C2905 C2901 1.495 . S
C2905 H2911 0.959 . S
C2905 H2912 0.961 . S
C2905 H2913 0.960 . S
C2906 C2904 1.381 . S
C2906 C2907 1.394 . S
C2906 H2914 0.930 . S
C2907 C2906 1.394 . S
C2907 C2908 1.383 . S
C2907 H2915 0.929 . S
C2908 C2907 1.383 . S
C2908 C2909 1.377 . S
C2909 H2893 0.930 . S
C2909 C2908 1.377 . S
C2909 C2910 1.379 . S
C2910 H2894 0.931 . S
C2910 C2904 1.383 . S
C2910 C2909 1.379 . S
H2911 C2905 0.959 . S
H2912 C2905 0.961 . S
H2913 C2905 0.960 . S
H2914 C2906 0.930 . S
H2915 C2907 0.929 . S
H2916 C2924 0.929 . S
H2917 C2926 0.930 . S
H2918 C2928 0.930 . S
H2919 C2931 0.929 . S
H2920 C2934 0.930 . S
H2921 C2936 0.960 . S
H2922 C2936 0.960 . S
H2923 C2936 0.960 . S
C2924 H2916 0.929 . S
C2924 C2925 1.377 . S
C2924 C2926 1.384 . S
C2925 C2924 1.377 . S
C2925 C2931 1.390 . S
C2926 H2917 0.930 . S
C2926 C2924 1.384 . S
C2926 C2927 1.372 . S
C2927 C2926 1.372 . S
C2927 C2928 1.400 . S
C2927 C2932 1.490 . S
C2928 H2918 0.930 . S
C2928 C2927 1.400 . S
C2928 C2931 1.386 . S
H2929 C2945 0.930 . S
H2930 C2946 0.931 . S
C2931 H2919 0.929 . S
C2931 C2925 1.390 . S
C2931 C2928 1.386 . S
C2932 C2927 1.490 . S
C2932 C2934 1.395 . S
C2932 C2935 1.403 . S
H2933 C2939 0.930 . S
C2934 H2920 0.930 . S
C2934 C2932 1.395 . S
C2934 C2937 1.403 . S
C2935 C2932 1.403 . S
C2935 C2936 1.524 . S
C2935 C2939 1.400 . S
C2936 H2921 0.960 . S
C2936 H2922 0.960 . S
C2936 H2923 0.960 . S
C2936 C2935 1.524 . S
C2937 C2934 1.403 . S
C2937 C2938 1.392 . S
C2937 C2941 1.495 . S
C2938 C2937 1.392 . S
C2938 C2939 1.385 . S
C2938 C2940 1.478 . S
C2939 H2933 0.930 . S
C2939 C2935 1.400 . S
C2939 C2938 1.385 . S
C2940 C2938 1.478 . S
C2940 C2942 1.381 . S
C2940 C2946 1.383 . S
C2941 C2937 1.495 . S
C2941 H2947 0.959 . S
C2941 H2948 0.961 . S
C2941 H2949 0.960 . S
C2942 C2940 1.381 . S
C2942 C2943 1.394 . S
C2942 H2950 0.930 . S
C2943 C2942 1.394 . S
C2943 C2944 1.383 . S
C2943 H2951 0.929 . S
C2944 C2943 1.383 . S
C2944 C2945 1.377 . S
C2945 H2929 0.930 . S
C2945 C2944 1.377 . S
C2945 C2946 1.379 . S
C2946 H2930 0.931 . S
C2946 C2940 1.383 . S
C2946 C2945 1.379 . S
H2947 C2941 0.959 . S
H2948 C2941 0.961 . S
H2949 C2941 0.960 . S
H2950 C2942 0.930 . S
H2951 C2943 0.929 . S
H2952 C2960 0.929 . S
H2953 C2962 0.930 . S
H2954 C2964 0.930 . S
H2955 C2967 0.929 . S
H2956 C2970 0.930 . S
H2957 C2972 0.960 . S
H2958 C2972 0.960 . S
H2959 C2972 0.960 . S
C2960 H2952 0.929 . S
C2960 C2961 1.377 . S
C2960 C2962 1.384 . S
C2961 C2960 1.377 . S
C2961 C2967 1.390 1_565 S
C2962 H2953 0.930 . S
C2962 C2960 1.384 . S
C2962 C2963 1.372 . S
C2963 C2962 1.372 . S
C2963 C2964 1.400 1_565 S
C2963 C2968 1.474 1_565 S
C2964 H2954 0.930 . S
C2964 C2963 1.400 1_545 S
C2964 C2967 1.386 . S
H2965 C2981 0.930 . S
H2966 C2982 0.931 . S
C2967 H2955 0.929 . S
C2967 C2961 1.390 1_545 S
C2967 C2964 1.386 . S
C2968 C2963 1.474 1_545 S
C2968 C2970 1.393 1_545 S
C2968 C2971 1.421 . S
H2969 C2975 0.930 . S
C2970 H2956 0.930 . S
C2970 C2968 1.393 1_565 S
C2970 C2973 1.403 . S
C2971 C2968 1.421 . S
C2971 C2972 1.524 . S
C2971 C2975 1.400 . S
C2972 H2957 0.960 . S
C2972 H2958 0.960 . S
C2972 H2959 0.960 . S
C2972 C2971 1.524 . S
C2973 C2970 1.403 . S
C2973 C2974 1.392 1_565 S
C2973 C2977 1.495 . S
C2974 C2973 1.392 1_545 S
C2974 C2975 1.385 . S
C2974 C2976 1.478 . S
C2975 H2969 0.930 . S
C2975 C2971 1.400 . S
C2975 C2974 1.385 . S
C2976 C2974 1.478 . S
C2976 C2978 1.381 1_545 S
C2976 C2982 1.383 . S
C2977 C2973 1.495 . S
C2977 H2983 0.959 . S
C2977 H2984 0.961 1_565 S
C2977 H2985 0.960 . S
C2978 C2976 1.381 1_565 S
C2978 C2979 1.415 . S
C2978 H2986 0.930 . S
C2979 C2978 1.415 . S
C2979 C2980 1.337 1_565 S
C2979 H2987 0.957 . S
C2980 C2979 1.337 1_545 S
C2980 C2981 1.377 . S
C2981 H2965 0.930 . S
C2981 C2980 1.377 . S
C2981 C2982 1.379 . S
C2982 H2966 0.931 . S
C2982 C2976 1.383 . S
C2982 C2981 1.379 . S
H2983 C2977 0.959 . S
H2984 C2977 0.961 1_545 S
H2985 C2977 0.960 . S
H2986 C2978 0.930 . S
H2987 C2979 0.957 . S
H2988 C2996 0.929 . S
H2989 C2998 0.930 . S
H2990 C3000 0.930 . S
H2991 C3003 0.929 . S
H2992 C3006 0.930 . S
H2993 C3008 0.960 . S
H2994 C3008 0.960 . S
H2995 C3008 0.960 . S
C2996 H2988 0.929 . S
C2996 C2997 1.377 . S
C2996 C2998 1.384 . S
C2997 C2996 1.377 . S
C2997 C3003 1.390 . S
C2998 H2989 0.930 . S
C2998 C2996 1.384 . S
C2998 C2999 1.372 . S
C2999 C2998 1.372 . S
C2999 C3000 1.400 . S
C2999 C3004 1.490 . S
C3000 H2990 0.930 . S
C3000 C2999 1.400 . S
C3000 C3003 1.386 . S
H3001 C3017 0.930 . S
H3002 C3018 0.931 . S
C3003 H2991 0.929 . S
C3003 C2997 1.390 . S
C3003 C3000 1.386 . S
C3004 C2999 1.490 . S
C3004 C3006 1.395 . S
C3004 C3007 1.403 . S
H3005 C3011 0.930 . S
C3006 H2992 0.930 . S
C3006 C3004 1.395 . S
C3006 C3009 1.403 . S
C3007 C3004 1.403 . S
C3007 C3008 1.524 . S
C3007 C3011 1.400 . S
C3008 H2993 0.960 . S
C3008 H2994 0.960 . S
C3008 H2995 0.960 . S
C3008 C3007 1.524 . S
C3009 C3006 1.403 . S
C3009 C3010 1.392 . S
C3009 C3013 1.495 . S
C3010 C3009 1.392 . S
C3010 C3011 1.385 . S
C3010 C3012 1.478 . S
C3011 H3005 0.930 . S
C3011 C3007 1.400 . S
C3011 C3010 1.385 . S
C3012 C3010 1.478 . S
C3012 C3014 1.381 . S
C3012 C3018 1.383 . S
C3013 C3009 1.495 . S
C3013 H3019 0.959 . S
C3013 H3020 0.961 . S
C3013 H3021 0.960 . S
C3014 C3012 1.381 . S
C3014 C3015 1.394 . S
C3014 H3022 0.930 . S
C3015 C3014 1.394 . S
C3015 C3016 1.383 . S
C3015 H3023 0.929 . S
C3016 C3015 1.383 . S
C3016 C3017 1.377 . S
C3017 H3001 0.930 . S
C3017 C3016 1.377 . S
C3017 C3018 1.379 . S
C3018 H3002 0.931 . S
C3018 C3012 1.383 . S
C3018 C3017 1.379 . S
H3019 C3013 0.959 . S
H3020 C3013 0.961 . S
H3021 C3013 0.960 . S
H3022 C3014 0.930 . S
H3023 C3015 0.929 . S
H3024 C3032 0.923 1_565 S
H3025 C3034 0.927 . S
H3026 C3036 0.930 . S
H3027 C3039 0.929 . S
H3028 C3042 0.930 . S
H3029 C3044 0.960 . S
H3030 C3044 0.960 . S
H3031 C3044 0.960 . S
C3032 H3024 0.923 1_545 S
C3032 C3033 1.377 . S
C3032 C3034 1.384 . S
C3033 C3032 1.377 . S
C3033 C3039 1.390 . S
C3034 H3025 0.927 . S
C3034 C3032 1.384 . S
C3034 C3035 1.372 . S
C3035 C3034 1.372 . S
C3035 C3036 1.400 . S
C3035 C3040 1.490 . S
C3036 H3026 0.930 . S
C3036 C3035 1.400 . S
C3036 C3039 1.386 . S
H3037 C3053 0.930 . S
H3038 C3054 0.931 . S
C3039 H3027 0.929 . S
C3039 C3033 1.390 . S
C3039 C3036 1.386 . S
C3040 C3035 1.490 . S
C3040 C3042 1.395 . S
C3040 C3043 1.403 . S
H3041 C3047 0.930 . S
C3042 H3028 0.930 . S
C3042 C3040 1.395 . S
C3042 C3045 1.403 . S
C3043 C3040 1.403 . S
C3043 C3044 1.524 . S
C3043 C3047 1.400 . S
C3044 H3029 0.960 . S
C3044 H3030 0.960 . S
C3044 H3031 0.960 . S
C3044 C3043 1.524 . S
C3045 C3042 1.403 . S
C3045 C3046 1.392 . S
C3045 C3049 1.495 . S
C3046 C3045 1.392 . S
C3046 C3047 1.385 . S
C3046 C3048 1.478 . S
C3047 H3041 0.930 . S
C3047 C3043 1.400 . S
C3047 C3046 1.385 . S
C3048 C3046 1.478 . S
C3048 C3050 1.381 . S
C3048 C3054 1.383 . S
C3049 C3045 1.495 . S
C3049 H3055 0.959 . S
C3049 H3056 0.961 . S
C3049 H3057 0.960 . S
C3050 C3048 1.381 . S
C3050 C3051 1.394 . S
C3050 H3058 0.930 . S
C3051 C3050 1.394 . S
C3051 C3052 1.383 . S
C3051 H3059 0.929 . S
C3052 C3051 1.383 . S
C3052 C3053 1.377 . S
C3053 H3037 0.930 . S
C3053 C3052 1.377 . S
C3053 C3054 1.379 . S
C3054 H3038 0.931 . S
C3054 C3048 1.383 . S
C3054 C3053 1.379 . S
H3055 C3049 0.959 . S
H3056 C3049 0.961 . S
H3057 C3049 0.960 . S
H3058 C3050 0.930 . S
H3059 C3051 0.929 . S
H3060 C3068 0.929 . S
H3061 C3070 0.930 . S
H3062 C3072 0.930 . S
H3063 C3075 0.929 . S
H3064 C3078 0.930 . S
H3065 C3080 0.960 . S
H3066 C3080 0.960 . S
H3067 C3080 0.960 . S
C3068 H3060 0.929 . S
C3068 C3069 1.377 . S
C3068 C3070 1.384 . S
C3069 C3068 1.377 . S
C3069 C3075 1.390 . S
C3070 H3061 0.930 . S
C3070 C3068 1.384 . S
C3070 C3071 1.372 . S
C3071 C3070 1.372 . S
C3071 C3072 1.400 . S
C3071 C3076 1.490 . S
C3072 H3062 0.930 . S
C3072 C3071 1.400 . S
C3072 C3075 1.386 . S
H3073 C3089 0.930 . S
H3074 C3090 0.931 . S
C3075 H3063 0.929 . S
C3075 C3069 1.390 . S
C3075 C3072 1.386 . S
C3076 C3071 1.490 . S
C3076 C3078 1.395 . S
C3076 C3079 1.403 . S
H3077 C3083 0.930 . S
C3078 H3064 0.930 . S
C3078 C3076 1.395 . S
C3078 C3081 1.403 . S
C3079 C3076 1.403 . S
C3079 C3080 1.524 . S
C3079 C3083 1.400 . S
C3080 H3065 0.960 . S
C3080 H3066 0.960 . S
C3080 H3067 0.960 . S
C3080 C3079 1.524 . S
C3081 C3078 1.403 . S
C3081 C3082 1.392 . S
C3081 C3085 1.495 . S
C3082 C3081 1.392 . S
C3082 C3083 1.385 . S
C3082 C3084 1.478 . S
C3083 H3077 0.930 . S
C3083 C3079 1.400 . S
C3083 C3082 1.385 . S
C3084 C3082 1.478 . S
C3084 C3086 1.381 . S
C3084 C3090 1.383 . S
C3085 C3081 1.495 . S
C3085 H3091 0.959 . S
C3085 H3092 0.961 . S
C3085 H3093 0.960 . S
C3086 C3084 1.381 . S
C3086 C3087 1.394 . S
C3086 H3094 0.930 . S
C3087 C3086 1.394 . S
C3087 C3088 1.383 . S
C3087 H3095 0.929 . S
C3088 C3087 1.383 . S
C3088 C3089 1.377 . S
C3089 H3073 0.930 . S
C3089 C3088 1.377 . S
C3089 C3090 1.379 . S
C3090 H3074 0.931 . S
C3090 C3084 1.383 . S
C3090 C3089 1.379 . S
H3091 C3085 0.959 . S
H3092 C3085 0.961 . S
H3093 C3085 0.960 . S
H3094 C3086 0.930 . S
H3095 C3087 0.929 . S
H3096 C3104 0.929 . S
H3097 C3106 0.930 . S
H3098 C3108 0.930 . S
H3099 C3111 0.929 . S
H3100 C3114 0.930 . S
H3101 C3116 0.960 . S
H3102 C3116 0.909 1_556 S
H3103 C3116 0.960 . S
C3104 H3096 0.929 . S
C3104 C3105 1.377 . S
C3104 C3106 1.384 . S
C3105 C3104 1.377 . S
C3105 C3111 1.390 . S
C3106 H3097 0.930 . S
C3106 C3104 1.384 . S
C3106 C3107 1.372 . S
C3107 C3106 1.372 . S
C3107 C3108 1.400 . S
C3107 C3112 1.490 . S
C3108 H3098 0.930 . S
C3108 C3107 1.400 . S
C3108 C3111 1.386 . S
H3109 C3125 0.930 . S
H3110 C3126 0.931 . S
C3111 H3099 0.929 . S
C3111 C3105 1.390 . S
C3111 C3108 1.386 . S
C3112 C3107 1.490 . S
C3112 C3114 1.395 . S
C3112 C3115 1.403 . S
H3113 C3119 0.930 . S
C3114 H3100 0.930 . S
C3114 C3112 1.395 . S
C3114 C3117 1.403 . S
C3115 C3112 1.403 . S
C3115 C3116 1.524 . S
C3115 C3119 1.400 . S
C3116 H3101 0.960 . S
C3116 H3102 0.909 1_554 S
C3116 H3103 0.960 . S
C3116 C3115 1.524 . S
C3117 C3114 1.403 . S
C3117 C3118 1.392 . S
C3117 C3121 1.495 . S
C3118 C3117 1.392 . S
C3118 C3119 1.385 . S
C3118 C3120 1.478 . S
C3119 H3113 0.930 . S
C3119 C3115 1.400 . S
C3119 C3118 1.385 . S
C3120 C3118 1.478 . S
C3120 C3122 1.381 . S
C3120 C3126 1.383 . S
C3121 C3117 1.495 . S
C3121 H3127 0.959 . S
C3121 H3128 0.961 . S
C3121 H3129 0.960 . S
C3122 C3120 1.381 . S
C3122 C3123 1.394 . S
C3122 H3130 0.930 . S
C3123 C3122 1.394 . S
C3123 C3124 1.383 . S
C3123 H3131 0.929 . S
C3124 C3123 1.383 . S
C3124 C3125 1.377 . S
C3125 H3109 0.930 . S
C3125 C3124 1.377 . S
C3125 C3126 1.379 . S
C3126 H3110 0.931 . S
C3126 C3120 1.383 . S
C3126 C3125 1.379 . S
H3127 C3121 0.959 . S
H3128 C3121 0.961 . S
H3129 C3121 0.960 . S
H3130 C3122 0.930 . S
H3131 C3123 0.929 . S
H3132 C3140 0.929 . S
H3133 C3142 0.930 . S
H3134 C3144 0.930 . S
H3135 C3147 0.929 . S
H3136 C3150 0.930 . S
H3137 C3152 0.982 . S
H3138 C3152 0.960 . S
H3139 C3152 0.960 . S
C3140 H3132 0.929 . S
C3140 C3141 1.377 . S
C3140 C3142 1.384 . S
C3141 C3140 1.377 . S
C3141 C3147 1.390 . S
C3142 H3133 0.930 . S
C3142 C3140 1.384 . S
C3142 C3143 1.372 . S
C3143 C3142 1.372 . S
C3143 C3144 1.400 . S
C3143 C3148 1.490 . S
C3144 H3134 0.930 . S
C3144 C3143 1.400 . S
C3144 C3147 1.386 . S
H3145 C3161 0.930 . S
H3146 C3162 0.931 . S
C3147 H3135 0.929 . S
C3147 C3141 1.390 . S
C3147 C3144 1.386 . S
C3148 C3143 1.490 . S
C3148 C3150 1.395 . S
C3148 C3151 1.403 . S
H3149 C3155 0.930 . S
C3150 H3136 0.930 . S
C3150 C3148 1.395 . S
C3150 C3153 1.403 . S
C3151 C3148 1.403 . S
C3151 C3152 1.524 . S
C3151 C3155 1.400 . S
C3152 H3137 0.982 . S
C3152 H3138 0.960 . S
C3152 H3139 0.960 . S
C3152 C3151 1.524 . S
C3153 C3150 1.403 . S
C3153 C3154 1.392 . S
C3153 C3157 1.495 . S
C3154 C3153 1.392 . S
C3154 C3155 1.385 . S
C3154 C3156 1.478 . S
C3155 H3149 0.930 . S
C3155 C3151 1.400 . S
C3155 C3154 1.385 . S
C3156 C3154 1.478 . S
C3156 C3158 1.381 . S
C3156 C3162 1.383 . S
C3157 C3153 1.495 . S
C3157 H3163 0.959 . S
C3157 H3164 0.961 . S
C3157 H3165 0.960 . S
C3158 C3156 1.381 . S
C3158 C3159 1.394 . S
C3158 H3166 0.930 . S
C3159 C3158 1.394 . S
C3159 C3160 1.383 . S
C3159 H3167 0.929 . S
C3160 C3159 1.383 . S
C3160 C3161 1.377 . S
C3161 H3145 0.930 . S
C3161 C3160 1.377 . S
C3161 C3162 1.379 . S
C3162 H3146 0.931 . S
C3162 C3156 1.383 . S
C3162 C3161 1.379 . S
H3163 C3157 0.959 . S
H3164 C3157 0.961 . S
H3165 C3157 0.960 . S
H3166 C3158 0.930 . S
H3167 C3159 0.929 . S
H3168 C3176 0.929 . S
H3169 C3178 0.930 . S
H3170 C3180 0.930 . S
H3171 C3183 0.929 . S
H3172 C3186 0.930 . S
H3173 C3188 0.960 . S
H3174 C3188 0.960 . S
H3175 C3188 0.960 . S
C3176 H3168 0.929 . S
C3176 C3177 1.377 . S
C3176 C3178 1.384 . S
C3177 C3176 1.377 . S
C3177 C3183 1.390 . S
C3178 H3169 0.930 . S
C3178 C3176 1.384 . S
C3178 C3179 1.372 . S
C3179 C3178 1.372 . S
C3179 C3180 1.400 . S
C3179 C3184 1.490 . S
C3180 H3170 0.930 . S
C3180 C3179 1.400 . S
C3180 C3183 1.386 . S
H3181 C3197 0.930 . S
H3182 C3198 0.931 . S
C3183 H3171 0.929 . S
C3183 C3177 1.390 . S
C3183 C3180 1.386 . S
C3184 C3179 1.490 . S
C3184 C3186 1.395 . S
C3184 C3187 1.403 . S
H3185 C3191 0.930 . S
C3186 H3172 0.930 . S
C3186 C3184 1.395 . S
C3186 C3189 1.403 . S
C3187 C3184 1.403 . S
C3187 C3188 1.524 . S
C3187 C3191 1.400 . S
C3188 H3173 0.960 . S
C3188 H3174 0.960 . S
C3188 H3175 0.960 . S
C3188 C3187 1.524 . S
C3189 C3186 1.403 . S
C3189 C3190 1.392 . S
C3189 C3193 1.495 . S
C3190 C3189 1.392 . S
C3190 C3191 1.385 . S
C3190 C3192 1.478 . S
C3191 H3185 0.930 . S
C3191 C3187 1.400 . S
C3191 C3190 1.385 . S
C3192 C3190 1.478 . S
C3192 C3194 1.381 . S
C3192 C3198 1.383 . S
C3193 C3189 1.495 . S
C3193 H3199 0.959 . S
C3193 H3200 0.961 . S
C3193 H3201 0.960 . S
C3194 C3192 1.381 . S
C3194 C3195 1.394 . S
C3194 H3202 0.930 . S
C3195 C3194 1.394 . S
C3195 C3196 1.383 . S
C3195 H3203 0.929 . S
C3196 C3195 1.383 . S
C3196 C3197 1.377 . S
C3197 H3181 0.930 . S
C3197 C3196 1.377 . S
C3197 C3198 1.379 . S
C3198 H3182 0.931 . S
C3198 C3192 1.383 . S
C3198 C3197 1.379 . S
H3199 C3193 0.959 . S
H3200 C3193 0.961 . S
H3201 C3193 0.960 . S
H3202 C3194 0.930 . S
H3203 C3195 0.929 . S
H3204 C3212 0.929 . S
H3205 C3214 0.930 . S
H3206 C3216 0.930 . S
H3207 C3219 0.929 . S
H3208 C3222 0.930 . S
H3209 C3224 0.960 . S
H3210 C3224 0.960 . S
H3211 C3224 0.960 . S
C3212 H3204 0.929 . S
C3212 C3213 1.377 . S
C3212 C3214 1.384 . S
C3213 C3212 1.377 . S
C3213 C3219 1.390 . S
C3214 H3205 0.930 . S
C3214 C3212 1.384 . S
C3214 C3215 1.372 . S
C3215 C3214 1.372 . S
C3215 C3216 1.400 . S
C3215 C3220 1.490 . S
C3216 H3206 0.930 . S
C3216 C3215 1.400 . S
C3216 C3219 1.386 . S
H3217 C3233 0.930 . S
H3218 C3234 0.931 . S
C3219 H3207 0.929 . S
C3219 C3213 1.390 . S
C3219 C3216 1.386 . S
C3220 C3215 1.490 . S
C3220 C3222 1.395 . S
C3220 C3223 1.403 . S
H3221 C3227 0.930 . S
C3222 H3208 0.930 . S
C3222 C3220 1.395 . S
C3222 C3225 1.403 . S
C3223 C3220 1.403 . S
C3223 C3224 1.524 . S
C3223 C3227 1.400 . S
C3224 H3209 0.960 . S
C3224 H3210 0.960 . S
C3224 H3211 0.960 . S
C3224 C3223 1.524 . S
C3225 C3222 1.403 . S
C3225 C3226 1.392 . S
C3225 C3229 1.495 . S
C3226 C3225 1.392 . S
C3226 C3227 1.385 . S
C3226 C3228 1.478 . S
C3227 H3221 0.930 . S
C3227 C3223 1.400 . S
C3227 C3226 1.385 . S
C3228 C3226 1.478 . S
C3228 C3230 1.381 . S
C3228 C3234 1.383 . S
C3229 C3225 1.495 . S
C3229 H3235 0.959 . S
C3229 H3236 0.961 . S
C3229 H3237 0.960 . S
C3230 C3228 1.381 . S
C3230 C3231 1.394 . S
C3230 H3238 0.930 . S
C3231 C3230 1.394 . S
C3231 C3232 1.383 . S
C3231 H3239 0.929 . S
C3232 C3231 1.383 . S
C3232 C3233 1.377 . S
C3233 H3217 0.930 . S
C3233 C3232 1.377 . S
C3233 C3234 1.379 . S
C3234 H3218 0.931 . S
C3234 C3228 1.383 . S
C3234 C3233 1.379 . S
H3235 C3229 0.959 . S
H3236 C3229 0.961 . S
H3237 C3229 0.960 . S
H3238 C3230 0.930 . S
H3239 C3231 0.929 . S
H3240 C3248 0.929 1_545 S
H3241 C3250 0.930 . S
H3242 C3252 0.930 . S
H3243 C3255 0.929 . S
H3244 C3258 0.930 . S
H3245 C3260 0.960 . S
H3246 C3260 0.960 . S
H3247 C3260 0.960 . S
C3248 H3240 0.929 1_565 S
C3248 C3249 1.393 . S
C3248 C3250 1.384 . S
C3249 C3248 1.393 . S
C3249 C3255 1.432 . S
C3250 H3241 0.930 . S
C3250 C3248 1.384 . S
C3250 C3251 1.372 . S
C3251 C3250 1.372 . S
C3251 C3252 1.400 . S
C3251 C3256 1.490 . S
C3252 H3242 0.930 . S
C3252 C3251 1.400 . S
C3252 C3255 1.386 . S
H3253 C3269 0.930 . S
H3254 C3270 0.931 . S
C3255 H3243 0.929 . S
C3255 C3249 1.432 . S
C3255 C3252 1.386 . S
C3256 C3251 1.490 . S
C3256 C3258 1.395 . S
C3256 C3259 1.403 . S
H3257 C3263 0.930 . S
C3258 H3244 0.930 . S
C3258 C3256 1.395 . S
C3258 C3261 1.403 . S
C3259 C3256 1.403 . S
C3259 C3260 1.524 . S
C3259 C3263 1.400 . S
C3260 H3245 0.960 . S
C3260 H3246 0.960 . S
C3260 H3247 0.960 . S
C3260 C3259 1.524 . S
C3261 C3258 1.403 . S
C3261 C3262 1.392 . S
C3261 C3265 1.495 . S
C3262 C3261 1.392 . S
C3262 C3263 1.385 . S
C3262 C3264 1.478 . S
C3263 H3257 0.930 . S
C3263 C3259 1.400 . S
C3263 C3262 1.385 . S
C3264 C3262 1.478 . S
C3264 C3266 1.381 . S
C3264 C3270 1.383 . S
C3265 C3261 1.495 . S
C3265 H3271 0.959 . S
C3265 H3272 0.961 . S
C3265 H3273 0.960 . S
C3266 C3264 1.381 . S
C3266 C3267 1.394 . S
C3266 H3274 0.930 . S
C3267 C3266 1.394 . S
C3267 C3268 1.383 . S
C3267 H3275 0.929 . S
C3268 C3267 1.383 . S
C3268 C3269 1.377 . S
C3269 H3253 0.930 . S
C3269 C3268 1.377 . S
C3269 C3270 1.379 . S
C3270 H3254 0.931 . S
C3270 C3264 1.383 . S
C3270 C3269 1.379 . S
H3271 C3265 0.959 . S
H3272 C3265 0.961 . S
H3273 C3265 0.960 . S
H3274 C3266 0.930 . S
H3275 C3267 0.929 . S
H3276 C3284 0.929 . S
H3277 C3286 0.930 . S
H3278 C3288 0.930 . S
H3279 C3291 0.929 . S
H3280 C3294 0.930 . S
H3281 C3296 0.960 . S
H3282 C3296 0.960 . S
H3283 C3296 0.960 . S
C3284 H3276 0.929 . S
C3284 C3285 1.377 . S
C3284 C3286 1.384 . S
C3285 C3284 1.377 . S
C3285 C3291 1.390 . S
C3286 H3277 0.930 . S
C3286 C3284 1.384 . S
C3286 C3287 1.372 . S
C3287 C3286 1.372 . S
C3287 C3288 1.400 . S
C3287 C3292 1.490 . S
C3288 H3278 0.930 . S
C3288 C3287 1.400 . S
C3288 C3291 1.386 . S
H3289 C3305 0.930 . S
H3290 C3306 0.931 . S
C3291 H3279 0.929 . S
C3291 C3285 1.390 . S
C3291 C3288 1.386 . S
C3292 C3287 1.490 . S
C3292 C3294 1.395 . S
C3292 C3295 1.403 . S
H3293 C3299 0.930 . S
C3294 H3280 0.930 . S
C3294 C3292 1.395 . S
C3294 C3297 1.403 . S
C3295 C3292 1.403 . S
C3295 C3296 1.524 . S
C3295 C3299 1.400 . S
C3296 H3281 0.960 . S
C3296 H3282 0.960 . S
C3296 H3283 0.960 . S
C3296 C3295 1.524 . S
C3297 C3294 1.403 . S
C3297 C3298 1.392 . S
C3297 C3301 1.495 . S
C3298 C3297 1.392 . S
C3298 C3299 1.385 . S
C3298 C3300 1.478 . S
C3299 H3293 0.930 . S
C3299 C3295 1.400 . S
C3299 C3298 1.385 . S
C3300 C3298 1.478 . S
C3300 C3302 1.381 . S
C3300 C3306 1.383 . S
C3301 C3297 1.495 . S
C3301 H3307 0.959 . S
C3301 H3308 0.961 . S
C3301 H3309 0.960 . S
C3302 C3300 1.381 . S
C3302 C3303 1.394 . S
C3302 H3310 0.930 . S
C3303 C3302 1.394 . S
C3303 C3304 1.383 . S
C3303 H3311 0.929 . S
C3304 C3303 1.383 . S
C3304 C3305 1.377 . S
C3305 H3289 0.930 . S
C3305 C3304 1.377 . S
C3305 C3306 1.379 . S
C3306 H3290 0.931 . S
C3306 C3300 1.383 . S
C3306 C3305 1.379 . S
H3307 C3301 0.959 . S
H3308 C3301 0.961 . S
H3309 C3301 0.960 . S
H3310 C3302 0.930 . S
H3311 C3303 0.929 . S
H3312 C3320 0.929 . S
H3313 C3322 0.930 . S
H3314 C3324 0.930 . S
H3315 C3327 0.929 . S
H3316 C3330 0.930 . S
H3317 C3332 0.960 . S
H3318 C3332 0.960 . S
H3319 C3332 0.960 . S
C3320 H3312 0.929 . S
C3320 C3321 1.377 . S
C3320 C3322 1.384 . S
C3321 C3320 1.377 . S
C3321 C3327 1.390 . S
C3322 H3313 0.930 . S
C3322 C3320 1.384 . S
C3322 C3323 1.372 . S
C3323 C3322 1.372 . S
C3323 C3324 1.400 . S
C3323 C3328 1.490 . S
C3324 H3314 0.930 . S
C3324 C3323 1.400 . S
C3324 C3327 1.386 . S
H3325 C3341 0.930 . S
H3326 C3342 0.931 . S
C3327 H3315 0.929 . S
C3327 C3321 1.390 . S
C3327 C3324 1.386 . S
C3328 C3323 1.490 . S
C3328 C3330 1.395 . S
C3328 C3331 1.403 . S
H3329 C3335 0.930 . S
C3330 H3316 0.930 . S
C3330 C3328 1.395 . S
C3330 C3333 1.403 . S
C3331 C3328 1.403 . S
C3331 C3332 1.524 . S
C3331 C3335 1.400 . S
C3332 H3317 0.960 . S
C3332 H3318 0.960 . S
C3332 H3319 0.960 . S
C3332 C3331 1.524 . S
C3333 C3330 1.403 . S
C3333 C3334 1.392 . S
C3333 C3337 1.495 . S
C3334 C3333 1.392 . S
C3334 C3335 1.385 . S
C3334 C3336 1.478 . S
C3335 H3329 0.930 . S
C3335 C3331 1.400 . S
C3335 C3334 1.385 . S
C3336 C3334 1.478 . S
C3336 C3338 1.381 . S
C3336 C3342 1.383 . S
C3337 C3333 1.495 . S
C3337 H3343 0.959 . S
C3337 H3344 0.961 . S
C3337 H3345 0.960 . S
C3338 C3336 1.381 . S
C3338 C3339 1.394 . S
C3338 H3346 0.930 . S
C3339 C3338 1.394 . S
C3339 C3340 1.383 . S
C3339 H3347 0.929 . S
C3340 C3339 1.383 . S
C3340 C3341 1.377 . S
C3341 H3325 0.930 . S
C3341 C3340 1.377 . S
C3341 C3342 1.379 . S
C3342 H3326 0.931 . S
C3342 C3336 1.383 . S
C3342 C3341 1.379 . S
H3343 C3337 0.959 . S
H3344 C3337 0.961 . S
H3345 C3337 0.960 . S
H3346 C3338 0.930 . S
H3347 C3339 0.929 . S
H3348 C3356 0.929 . S
H3349 C3358 0.930 . S
H3350 C3360 0.930 . S
H3351 C3363 0.929 . S
H3352 C3366 0.930 . S
H3353 C3368 0.960 . S
H3354 C3368 0.960 . S
H3355 C3368 0.960 . S
C3356 H3348 0.929 . S
C3356 C3357 1.377 . S
C3356 C3358 1.384 . S
C3357 C3356 1.377 . S
C3357 C3363 1.390 . S
C3358 H3349 0.930 . S
C3358 C3356 1.384 . S
C3358 C3359 1.372 . S
C3359 C3358 1.372 . S
C3359 C3360 1.400 . S
C3359 C3364 1.490 . S
C3360 H3350 0.930 . S
C3360 C3359 1.400 . S
C3360 C3363 1.386 . S
H3361 C3377 0.930 . S
H3362 C3378 0.931 . S
C3363 H3351 0.929 . S
C3363 C3357 1.390 . S
C3363 C3360 1.386 . S
C3364 C3359 1.490 . S
C3364 C3366 1.395 . S
C3364 C3367 1.403 . S
H3365 C3371 0.930 . S
C3366 H3352 0.930 . S
C3366 C3364 1.395 . S
C3366 C3369 1.403 . S
C3367 C3364 1.403 . S
C3367 C3368 1.524 . S
C3367 C3371 1.400 . S
C3368 H3353 0.960 . S
C3368 H3354 0.960 . S
C3368 H3355 0.960 . S
C3368 C3367 1.524 . S
C3369 C3366 1.403 . S
C3369 C3370 1.392 . S
C3369 C3373 1.495 . S
C3370 C3369 1.392 . S
C3370 C3371 1.385 . S
C3370 C3372 1.478 . S
C3371 H3365 0.930 . S
C3371 C3367 1.400 . S
C3371 C3370 1.385 . S
C3372 C3370 1.478 . S
C3372 C3374 1.381 . S
C3372 C3378 1.383 . S
C3373 C3369 1.495 . S
C3373 H3379 0.959 . S
C3373 H3380 0.961 . S
C3373 H3381 0.960 . S
C3374 C3372 1.381 . S
C3374 C3375 1.394 . S
C3374 H3382 0.930 . S
C3375 C3374 1.394 . S
C3375 C3376 1.383 . S
C3375 H3383 0.929 . S
C3376 C3375 1.383 . S
C3376 C3377 1.377 . S
C3377 H3361 0.930 . S
C3377 C3376 1.377 . S
C3377 C3378 1.379 . S
C3378 H3362 0.931 . S
C3378 C3372 1.383 . S
C3378 C3377 1.379 . S
H3379 C3373 0.959 . S
H3380 C3373 0.961 . S
H3381 C3373 0.960 . S
H3382 C3374 0.930 . S
H3383 C3375 0.929 . S
H3384 C3392 0.929 . S
H3385 C3394 0.930 . S
H3386 C3396 0.930 . S
H3387 C3399 0.929 . S
H3388 C3402 0.930 . S
H3389 C3404 0.960 . S
H3390 C3404 0.960 . S
H3391 C3404 0.960 . S
C3392 H3384 0.929 . S
C3392 C3393 1.377 . S
C3392 C3394 1.384 . S
C3393 C3392 1.377 . S
C3393 C3399 1.390 . S
C3394 H3385 0.930 . S
C3394 C3392 1.384 . S
C3394 C3395 1.372 . S
C3395 C3394 1.372 . S
C3395 C3396 1.400 . S
C3395 C3400 1.490 . S
C3396 H3386 0.930 . S
C3396 C3395 1.400 . S
C3396 C3399 1.386 . S
H3397 C3413 0.930 . S
H3398 C3414 0.931 . S
C3399 H3387 0.929 . S
C3399 C3393 1.390 . S
C3399 C3396 1.386 . S
C3400 C3395 1.490 . S
C3400 C3402 1.395 . S
C3400 C3403 1.403 . S
H3401 C3407 0.930 . S
C3402 H3388 0.930 . S
C3402 C3400 1.395 . S
C3402 C3405 1.403 . S
C3403 C3400 1.403 . S
C3403 C3404 1.524 . S
C3403 C3407 1.400 . S
C3404 H3389 0.960 . S
C3404 H3390 0.960 . S
C3404 H3391 0.960 . S
C3404 C3403 1.524 . S
C3405 C3402 1.403 . S
C3405 C3406 1.392 . S
C3405 C3409 1.495 . S
C3406 C3405 1.392 . S
C3406 C3407 1.385 . S
C3406 C3408 1.478 . S
C3407 H3401 0.930 . S
C3407 C3403 1.400 . S
C3407 C3406 1.385 . S
C3408 C3406 1.478 . S
C3408 C3410 1.381 . S
C3408 C3414 1.383 . S
C3409 C3405 1.495 . S
C3409 H3415 0.959 . S
C3409 H3416 0.961 . S
C3409 H3417 0.960 . S
C3410 C3408 1.381 . S
C3410 C3411 1.394 . S
C3410 H3418 0.930 . S
C3411 C3410 1.394 . S
C3411 C3412 1.383 . S
C3411 H3419 0.929 . S
C3412 C3411 1.383 . S
C3412 C3413 1.377 . S
C3413 H3397 0.930 . S
C3413 C3412 1.377 . S
C3413 C3414 1.379 . S
C3414 H3398 0.931 . S
C3414 C3408 1.383 . S
C3414 C3413 1.379 . S
H3415 C3409 0.959 . S
H3416 C3409 0.961 . S
H3417 C3409 0.960 . S
H3418 C3410 0.930 . S
H3419 C3411 0.929 . S
H3420 C3428 0.929 . S
H3421 C3430 0.930 . S
H3422 C3432 0.930 . S
H3423 C3435 0.929 . S
H3424 C3438 0.930 . S
H3425 C3440 0.960 . S
H3426 C3440 0.960 . S
H3427 C3440 0.960 . S
C3428 H3420 0.929 . S
C3428 C3429 1.377 . S
C3428 C3430 1.384 . S
C3429 C3428 1.377 . S
C3429 C3435 1.390 . S
C3430 H3421 0.930 . S
C3430 C3428 1.384 . S
C3430 C3431 1.372 . S
C3431 C3430 1.372 . S
C3431 C3432 1.400 . S
C3431 C3436 1.490 . S
C3432 H3422 0.930 . S
C3432 C3431 1.400 . S
C3432 C3435 1.386 . S
H3433 C3449 0.930 . S
H3434 C3450 0.931 . S
C3435 H3423 0.929 . S
C3435 C3429 1.390 . S
C3435 C3432 1.386 . S
C3436 C3431 1.490 . S
C3436 C3438 1.395 . S
C3436 C3439 1.403 . S
H3437 C3443 0.930 . S
C3438 H3424 0.930 . S
C3438 C3436 1.395 . S
C3438 C3441 1.403 . S
C3439 C3436 1.403 . S
C3439 C3440 1.524 . S
C3439 C3443 1.400 . S
C3440 H3425 0.960 . S
C3440 H3426 0.960 . S
C3440 H3427 0.960 . S
C3440 C3439 1.524 . S
C3441 C3438 1.403 . S
C3441 C3442 1.392 . S
C3441 C3445 1.495 . S
C3442 C3441 1.392 . S
C3442 C3443 1.385 . S
C3442 C3444 1.478 . S
C3443 H3437 0.930 . S
C3443 C3439 1.400 . S
C3443 C3442 1.385 . S
C3444 C3442 1.478 . S
C3444 C3446 1.381 . S
C3444 C3450 1.383 . S
C3445 C3441 1.495 . S
C3445 H3451 0.959 . S
C3445 H3452 0.961 . S
C3445 H3453 0.960 . S
C3446 C3444 1.381 . S
C3446 C3447 1.394 . S
C3446 H3454 0.930 . S
C3447 C3446 1.394 . S
C3447 C3448 1.383 . S
C3447 H3455 0.929 . S
C3448 C3447 1.383 . S
C3448 C3449 1.377 . S
C3449 H3433 0.930 . S
C3449 C3448 1.377 . S
C3449 C3450 1.379 . S
C3450 H3434 0.931 . S
C3450 C3444 1.383 . S
C3450 C3449 1.379 . S
H3451 C3445 0.959 . S
H3452 C3445 0.961 . S
H3453 C3445 0.960 . S
H3454 C3446 0.930 . S
H3455 C3447 0.929 . S
H3456 C3464 0.929 . S
H3457 C3466 0.930 1_554 S
H3458 C3468 0.930 . S
H3459 C3471 0.929 . S
H3460 C3474 0.930 . S
H3461 C3476 0.960 . S
H3462 C3476 0.960 . S
H3463 C3476 0.960 . S
C3464 H3456 0.929 . S
C3464 C3465 1.377 . S
C3464 C3466 1.384 . S
C3465 C3464 1.377 . S
C3465 C3471 1.390 . S
C3466 H3457 0.930 1_556 S
C3466 C3464 1.384 . S
C3466 C3467 1.372 . S
C3467 C3466 1.372 . S
C3467 C3468 1.400 . S
C3467 C3472 1.490 . S
C3468 H3458 0.930 . S
C3468 C3467 1.400 . S
C3468 C3471 1.386 . S
H3469 C3485 0.930 1_556 S
H3470 C3486 0.931 . S
C3471 H3459 0.929 . S
C3471 C3465 1.390 . S
C3471 C3468 1.386 . S
C3472 C3467 1.490 . S
C3472 C3474 1.395 . S
C3472 C3475 1.403 . S
H3473 C3479 0.930 . S
C3474 H3460 0.930 . S
C3474 C3472 1.395 . S
C3474 C3477 1.403 1_556 S
C3475 C3472 1.403 . S
C3475 C3476 1.524 1_455 S
C3475 C3479 1.400 . S
C3476 H3461 0.960 . S
C3476 H3462 0.960 . S
C3476 H3463 0.960 . S
C3476 C3475 1.524 1_655 S
C3477 C3474 1.403 1_554 S
C3477 C3478 1.392 . S
C3477 C3481 1.495 . S
C3478 C3477 1.392 . S
C3478 C3479 1.385 1_554 S
C3478 C3480 1.478 . S
C3479 H3473 0.930 . S
C3479 C3475 1.400 . S
C3479 C3478 1.385 1_556 S
C3480 C3478 1.478 . S
C3480 C3482 1.381 . S
C3480 C3486 1.383 1_554 S
C3481 C3477 1.495 . S
C3481 H3487 0.959 . S
C3481 H3488 0.961 . S
C3481 H3489 0.960 . S
C3482 C3480 1.381 . S
C3482 C3483 1.394 . S
C3482 H3490 0.930 . S
C3483 C3482 1.394 . S
C3483 C3484 1.383 . S
C3483 H3491 0.929 . S
C3484 C3483 1.383 . S
C3484 C3485 1.377 . S
C3485 H3469 0.930 1_554 S
C3485 C3484 1.377 . S
C3485 C3486 1.379 1_554 S
C3486 H3470 0.931 . S
C3486 C3480 1.383 1_556 S
C3486 C3485 1.379 1_556 S
H3487 C3481 0.959 . S
H3488 C3481 0.961 . S
H3489 C3481 0.960 . S
H3490 C3482 0.930 . S
H3491 C3483 0.929 . S
H3492 C3500 0.929 . S
H3493 C3502 0.930 . S
H3494 C3504 0.930 . S
H3495 C3507 0.929 . S
H3496 C3510 0.930 . S
H3497 C3512 0.960 . S
H3498 C3512 0.960 . S
H3499 C3512 0.960 1_455 S
C3500 H3492 0.929 . S
C3500 C3501 1.377 . S
C3500 C3502 1.384 1_455 S
C3501 C3500 1.377 . S
C3501 C3507 1.390 . S
C3502 H3493 0.930 . S
C3502 C3500 1.384 1_655 S
C3502 C3503 1.372 . S
C3503 C3502 1.372 . S
C3503 C3504 1.400 1_655 S
C3503 C3508 1.490 . S
C3504 H3494 0.930 . S
C3504 C3503 1.400 1_455 S
C3504 C3507 1.386 . S
H3505 C3521 0.930 . S
H3506 C3522 0.931 . S
C3507 H3495 0.929 . S
C3507 C3501 1.390 . S
C3507 C3504 1.386 . S
C3508 C3503 1.490 . S
C3508 C3510 1.395 . S
C3508 C3511 1.403 . S
H3509 C3515 0.930 . S
C3510 H3496 0.930 . S
C3510 C3508 1.395 . S
C3510 C3513 1.403 . S
C3511 C3508 1.403 . S
C3511 C3512 1.524 . S
C3511 C3515 1.400 . S
C3512 H3497 0.960 . S
C3512 H3498 0.960 . S
C3512 H3499 0.960 1_655 S
C3512 C3511 1.524 . S
C3513 C3510 1.403 . S
C3513 C3514 1.392 . S
C3513 C3517 1.495 . S
C3514 C3513 1.392 . S
C3514 C3515 1.385 . S
C3514 C3516 1.478 . S
C3515 H3509 0.930 . S
C3515 C3511 1.400 . S
C3515 C3514 1.385 . S
C3516 C3514 1.478 . S
C3516 C3518 1.381 . S
C3516 C3522 1.383 . S
C3517 C3513 1.495 . S
C3517 H3523 0.959 . S
C3517 H3524 0.961 . S
C3517 H3525 0.960 . S
C3518 C3516 1.381 . S
C3518 C3519 1.394 . S
C3518 H3526 0.930 . S
C3519 C3518 1.394 . S
C3519 C3520 1.383 . S
C3519 H3527 0.929 . S
C3520 C3519 1.383 . S
C3520 C3521 1.377 . S
C3521 H3505 0.930 . S
C3521 C3520 1.377 . S
C3521 C3522 1.379 . S
C3522 H3506 0.931 . S
C3522 C3516 1.383 . S
C3522 C3521 1.379 . S
H3523 C3517 0.959 . S
H3524 C3517 0.961 . S
H3525 C3517 0.960 . S
H3526 C3518 0.930 . S
H3527 C3519 0.929 . S
H3528 C3536 0.929 . S
H3529 C3538 0.930 . S
H3530 C3540 0.930 . S
H3531 C3543 0.929 . S
H3532 C3546 0.930 . S
H3533 C3548 0.960 . S
H3534 C3548 0.960 . S
H3535 C3548 0.960 . S
C3536 H3528 0.929 . S
C3536 C3537 1.377 . S
C3536 C3538 1.384 . S
C3537 C3536 1.377 . S
C3537 C3543 1.390 . S
C3538 H3529 0.930 . S
C3538 C3536 1.384 . S
C3538 C3539 1.372 . S
C3539 C3538 1.372 . S
C3539 C3540 1.400 . S
C3539 C3544 1.490 . S
C3540 H3530 0.930 . S
C3540 C3539 1.400 . S
C3540 C3543 1.386 . S
H3541 C3557 0.930 . S
H3542 C3558 0.931 . S
C3543 H3531 0.929 . S
C3543 C3537 1.390 . S
C3543 C3540 1.386 . S
C3544 C3539 1.490 . S
C3544 C3546 1.395 . S
C3544 C3547 1.403 . S
H3545 C3551 0.930 . S
C3546 H3532 0.930 . S
C3546 C3544 1.395 . S
C3546 C3549 1.403 . S
C3547 C3544 1.403 . S
C3547 C3548 1.524 . S
C3547 C3551 1.400 . S
C3548 H3533 0.960 . S
C3548 H3534 0.960 . S
C3548 H3535 0.960 . S
C3548 C3547 1.524 . S
C3549 C3546 1.403 . S
C3549 C3550 1.392 . S
C3549 C3553 1.495 . S
C3550 C3549 1.392 . S
C3550 C3551 1.385 . S
C3550 C3552 1.478 . S
C3551 H3545 0.930 . S
C3551 C3547 1.400 . S
C3551 C3550 1.385 . S
C3552 C3550 1.478 . S
C3552 C3554 1.381 . S
C3552 C3558 1.383 . S
C3553 C3549 1.495 . S
C3553 H3559 0.959 . S
C3553 H3560 0.961 . S
C3553 H3561 0.960 . S
C3554 C3552 1.381 . S
C3554 C3555 1.394 . S
C3554 H3562 0.930 . S
C3555 C3554 1.394 . S
C3555 C3556 1.383 . S
C3555 H3563 0.929 . S
C3556 C3555 1.383 . S
C3556 C3557 1.377 . S
C3557 H3541 0.930 . S
C3557 C3556 1.377 . S
C3557 C3558 1.379 . S
C3558 H3542 0.931 . S
C3558 C3552 1.383 . S
C3558 C3557 1.379 . S
H3559 C3553 0.959 . S
H3560 C3553 0.961 . S
H3561 C3553 0.960 . S
H3562 C3554 0.930 . S
H3563 C3555 0.929 . S
H3564 C3572 0.929 . S
H3565 C3574 0.930 . S
H3566 C3576 0.930 . S
H3567 C3579 0.929 . S
H3568 C3582 0.950 . S
H3569 C3584 0.960 . S
H3570 C3584 0.960 . S
H3571 C3584 0.960 . S
C3572 H3564 0.929 . S
C3572 C3573 1.377 . S
C3572 C3574 1.384 . S
C3573 C3572 1.377 . S
C3573 C3579 1.390 . S
C3574 H3565 0.930 . S
C3574 C3572 1.384 . S
C3574 C3575 1.372 . S
C3575 C3574 1.372 . S
C3575 C3576 1.400 . S
C3575 C3580 1.490 . S
C3576 H3566 0.930 . S
C3576 C3575 1.400 . S
C3576 C3579 1.386 . S
H3577 C3593 0.930 . S
H3578 C3594 0.931 . S
C3579 H3567 0.929 . S
C3579 C3573 1.390 . S
C3579 C3576 1.386 . S
C3580 C3575 1.490 . S
C3580 C3582 1.395 . S
C3580 C3583 1.403 1_455 S
H3581 C3587 0.930 . S
C3582 H3568 0.950 . S
C3582 C3580 1.395 . S
C3582 C3585 1.383 1_455 S
C3583 C3580 1.403 1_655 S
C3583 C3584 1.524 . S
C3583 C3587 1.400 . S
C3584 H3569 0.960 . S
C3584 H3570 0.960 . S
C3584 H3571 0.960 . S
C3584 C3583 1.524 . S
C3585 C3582 1.383 1_655 S
C3585 C3586 1.392 . S
C3585 C3589 1.495 . S
C3586 C3585 1.392 . S
C3586 C3587 1.385 . S
C3586 C3588 1.478 . S
C3587 H3581 0.930 . S
C3587 C3583 1.400 . S
C3587 C3586 1.385 . S
C3588 C3586 1.478 . S
C3588 C3590 1.381 . S
C3588 C3594 1.383 . S
C3589 C3585 1.495 . S
C3589 H3595 0.959 . S
C3589 H3596 0.961 . S
C3589 H3597 0.960 . S
C3590 C3588 1.381 . S
C3590 C3591 1.394 . S
C3590 H3598 0.930 . S
C3591 C3590 1.394 . S
C3591 C3592 1.383 . S
C3591 H3599 0.929 . S
C3592 C3591 1.383 . S
C3592 C3593 1.377 . S
C3593 H3577 0.930 . S
C3593 C3592 1.377 . S
C3593 C3594 1.379 . S
C3594 H3578 0.931 . S
C3594 C3588 1.383 . S
C3594 C3593 1.379 . S
H3595 C3589 0.959 . S
H3596 C3589 0.961 . S
H3597 C3589 0.960 . S
H3598 C3590 0.930 . S
H3599 C3591 0.929 . S
H3600 C3608 0.929 . S
H3601 C3610 0.930 . S
H3602 C3612 0.930 . S
H3603 C3615 0.929 . S
H3604 C3618 0.919 1_655 S
H3605 C3620 0.960 . S
H3606 C3620 0.960 . S
H3607 C3620 0.960 1_655 S
C3608 H3600 0.929 . S
C3608 C3609 1.377 1_455 S
C3608 C3610 1.384 . S
C3609 C3608 1.377 1_655 S
C3609 C3615 1.390 . S
C3610 H3601 0.930 . S
C3610 C3608 1.384 . S
C3610 C3611 1.372 1_455 S
C3611 C3610 1.372 1_655 S
C3611 C3612 1.400 . S
C3611 C3616 1.490 1_655 S
C3612 H3602 0.930 . S
C3612 C3611 1.400 . S
C3612 C3615 1.386 . S
H3613 C3629 0.930 1_655 S
H3614 C3630 0.876 1_655 S
C3615 H3603 0.929 . S
C3615 C3609 1.390 . S
C3615 C3612 1.386 . S
C3616 C3611 1.490 1_455 S
C3616 C3618 1.390 . S
C3616 C3619 1.403 . S
H3617 C3623 0.930 . S
C3618 H3604 0.919 1_455 S
C3618 C3616 1.390 . S
C3618 C3621 1.421 . S
C3619 C3616 1.403 . S
C3619 C3620 1.524 . S
C3619 C3623 1.400 . S
C3620 H3605 0.960 . S
C3620 H3606 0.960 . S
C3620 H3607 0.960 1_455 S
C3620 C3619 1.524 . S
C3621 C3618 1.421 . S
C3621 C3622 1.392 . S
C3621 C3625 1.495 . S
C3622 C3621 1.392 . S
C3622 C3623 1.385 . S
C3622 C3624 1.478 . S
C3623 H3617 0.930 . S
C3623 C3619 1.400 . S
C3623 C3622 1.385 . S
C3624 C3622 1.478 . S
C3624 C3626 1.381 . S
C3624 C3630 1.414 . S
C3625 C3621 1.495 . S
C3625 H3631 0.959 1_455 S
C3625 H3632 0.961 1_455 S
C3625 H3633 0.960 . S
C3626 C3624 1.381 . S
C3626 C3627 1.394 . S
C3626 H3634 0.930 . S
C3627 C3626 1.394 . S
C3627 C3628 1.383 . S
C3627 H3635 0.929 . S
C3628 C3627 1.383 . S
C3628 C3629 1.377 . S
C3629 H3613 0.930 1_455 S
C3629 C3628 1.377 . S
C3629 C3630 1.405 . S
C3630 H3614 0.876 1_455 S
C3630 C3624 1.414 . S
C3630 C3629 1.405 . S
H3631 C3625 0.959 1_655 S
H3632 C3625 0.961 1_655 S
H3633 C3625 0.960 . S
H3634 C3626 0.930 . S
H3635 C3627 0.929 . S
H3636 C3644 0.929 . S
H3637 C3646 0.930 . S
H3638 C3648 0.930 . S
H3639 C3651 0.929 . S
H3640 C3654 0.930 . S
H3641 C3656 0.960 . S
H3642 C3656 0.960 . S
H3643 C3656 0.960 . S
C3644 H3636 0.929 . S
C3644 C3645 1.377 . S
C3644 C3646 1.384 . S
C3645 C3644 1.377 . S
C3645 C3651 1.390 . S
C3646 H3637 0.930 . S
C3646 C3644 1.384 . S
C3646 C3647 1.372 . S
C3647 C3646 1.372 . S
C3647 C3648 1.400 . S
C3647 C3652 1.490 . S
C3648 H3638 0.930 . S
C3648 C3647 1.400 . S
C3648 C3651 1.386 . S
H3649 C3665 0.930 . S
H3650 C3666 0.931 . S
C3651 H3639 0.929 . S
C3651 C3645 1.390 . S
C3651 C3648 1.386 . S
C3652 C3647 1.490 . S
C3652 C3654 1.395 . S
C3652 C3655 1.403 . S
H3653 C3659 0.930 . S
C3654 H3640 0.930 . S
C3654 C3652 1.395 . S
C3654 C3657 1.403 . S
C3655 C3652 1.403 . S
C3655 C3656 1.524 . S
C3655 C3659 1.400 . S
C3656 H3641 0.960 . S
C3656 H3642 0.960 . S
C3656 H3643 0.960 . S
C3656 C3655 1.524 . S
C3657 C3654 1.403 . S
C3657 C3658 1.392 . S
C3657 C3661 1.495 . S
C3658 C3657 1.392 . S
C3658 C3659 1.385 . S
C3658 C3660 1.478 . S
C3659 H3653 0.930 . S
C3659 C3655 1.400 . S
C3659 C3658 1.385 . S
C3660 C3658 1.478 . S
C3660 C3662 1.381 . S
C3660 C3666 1.383 . S
C3661 C3657 1.495 . S
C3661 H3667 0.959 . S
C3661 H3668 0.961 . S
C3661 H3669 0.960 . S
C3662 C3660 1.381 . S
C3662 C3663 1.394 . S
C3662 H3670 0.930 . S
C3663 C3662 1.394 . S
C3663 C3664 1.383 . S
C3663 H3671 0.929 . S
C3664 C3663 1.383 . S
C3664 C3665 1.377 . S
C3665 H3649 0.930 . S
C3665 C3664 1.377 . S
C3665 C3666 1.379 . S
C3666 H3650 0.931 . S
C3666 C3660 1.383 . S
C3666 C3665 1.379 . S
H3667 C3661 0.959 . S
H3668 C3661 0.961 . S
H3669 C3661 0.960 . S
H3670 C3662 0.930 . S
H3671 C3663 0.929 . S
H3672 C3680 0.929 . S
H3673 C3682 0.930 . S
H3674 C3684 0.930 . S
H3675 C3687 0.929 . S
H3676 C3690 0.930 . S
H3677 C3692 0.960 . S
H3678 C3692 0.960 . S
H3679 C3692 0.960 . S
C3680 H3672 0.929 . S
C3680 C3681 1.377 . S
C3680 C3682 1.384 . S
C3681 C3680 1.377 . S
C3681 C3687 1.390 . S
C3682 H3673 0.930 . S
C3682 C3680 1.384 . S
C3682 C3683 1.372 . S
C3683 C3682 1.372 . S
C3683 C3684 1.400 . S
C3683 C3688 1.490 . S
C3684 H3674 0.930 . S
C3684 C3683 1.400 . S
C3684 C3687 1.386 . S
H3685 C3701 0.930 . S
H3686 C3702 0.931 . S
C3687 H3675 0.929 . S
C3687 C3681 1.390 . S
C3687 C3684 1.386 . S
C3688 C3683 1.490 . S
C3688 C3690 1.395 . S
C3688 C3691 1.403 . S
H3689 C3695 0.930 . S
C3690 H3676 0.930 . S
C3690 C3688 1.395 . S
C3690 C3693 1.403 . S
C3691 C3688 1.403 . S
C3691 C3692 1.524 . S
C3691 C3695 1.400 . S
C3692 H3677 0.960 . S
C3692 H3678 0.960 . S
C3692 H3679 0.960 . S
C3692 C3691 1.524 . S
C3693 C3690 1.403 . S
C3693 C3694 1.392 . S
C3693 C3697 1.495 . S
C3694 C3693 1.392 . S
C3694 C3695 1.385 . S
C3694 C3696 1.478 . S
C3695 H3689 0.930 . S
C3695 C3691 1.400 . S
C3695 C3694 1.385 . S
C3696 C3694 1.478 . S
C3696 C3698 1.381 . S
C3696 C3702 1.383 . S
C3697 C3693 1.495 . S
C3697 H3703 0.959 . S
C3697 H3704 0.961 . S
C3697 H3705 0.960 . S
C3698 C3696 1.381 . S
C3698 C3699 1.394 . S
C3698 H3706 0.930 . S
C3699 C3698 1.394 . S
C3699 C3700 1.383 . S
C3699 H3707 0.929 . S
C3700 C3699 1.383 . S
C3700 C3701 1.377 . S
C3701 H3685 0.930 . S
C3701 C3700 1.377 . S
C3701 C3702 1.379 . S
C3702 H3686 0.931 . S
C3702 C3696 1.383 . S
C3702 C3701 1.379 . S
H3703 C3697 0.959 . S
H3704 C3697 0.961 . S
H3705 C3697 0.960 . S
H3706 C3698 0.930 . S
H3707 C3699 0.929 . S
H3708 C3716 0.929 . S
H3709 C3718 0.930 . S
H3710 C3720 0.930 . S
H3711 C3723 0.960 . S
H3712 C3726 0.930 . S
H3713 C3728 0.960 . S
H3714 C3728 0.960 . S
H3715 C3728 0.960 . S
C3716 H3708 0.929 . S
C3716 C3717 1.377 . S
C3716 C3718 1.384 . S
C3717 C3716 1.377 . S
C3717 C3723 1.390 . S
C3718 H3709 0.930 . S
C3718 C3716 1.384 . S
C3718 C3719 1.372 . S
C3719 C3718 1.372 . S
C3719 C3720 1.400 . S
C3719 C3724 1.490 . S
C3720 H3710 0.930 . S
C3720 C3719 1.400 . S
C3720 C3723 1.386 . S
H3721 C3737 0.930 . S
H3722 C3738 0.931 . S
C3723 H3711 0.960 . S
C3723 C3717 1.390 . S
C3723 C3720 1.386 . S
C3724 C3719 1.490 . S
C3724 C3726 1.395 . S
C3724 C3727 1.403 . S
H3725 C3731 0.930 . S
C3726 H3712 0.930 . S
C3726 C3724 1.395 . S
C3726 C3729 1.403 . S
C3727 C3724 1.403 . S
C3727 C3728 1.524 . S
C3727 C3731 1.400 . S
C3728 H3713 0.960 . S
C3728 H3714 0.960 . S
C3728 H3715 0.960 . S
C3728 C3727 1.524 . S
C3729 C3726 1.403 . S
C3729 C3730 1.392 . S
C3729 C3733 1.495 . S
C3730 C3729 1.392 . S
C3730 C3731 1.385 . S
C3730 C3732 1.478 . S
C3731 H3725 0.930 . S
C3731 C3727 1.400 . S
C3731 C3730 1.385 . S
C3732 C3730 1.478 . S
C3732 C3734 1.381 . S
C3732 C3738 1.383 . S
C3733 C3729 1.495 . S
C3733 H3739 0.959 . S
C3733 H3740 0.961 . S
C3733 H3741 0.960 . S
C3734 C3732 1.381 . S
C3734 C3735 1.394 . S
C3734 H3742 0.930 . S
C3735 C3734 1.394 . S
C3735 C3736 1.383 . S
C3735 H3743 0.929 . S
C3736 C3735 1.383 . S
C3736 C3737 1.377 . S
C3737 H3721 0.930 . S
C3737 C3736 1.377 . S
C3737 C3738 1.379 . S
C3738 H3722 0.931 . S
C3738 C3732 1.383 . S
C3738 C3737 1.379 . S
H3739 C3733 0.959 . S
H3740 C3733 0.961 . S
H3741 C3733 0.960 . S
H3742 C3734 0.930 . S
H3743 C3735 0.929 . S
H3744 C3752 0.929 . S
H3745 C3754 0.930 . S
H3746 C3756 0.930 . S
H3747 C3759 0.929 . S
H3748 C3762 0.930 . S
H3749 C3764 0.960 . S
H3750 C3764 0.960 . S
H3751 C3764 0.960 . S
C3752 H3744 0.929 . S
C3752 C3753 1.377 . S
C3752 C3754 1.384 . S
C3753 C3752 1.377 . S
C3753 C3759 1.390 . S
C3754 H3745 0.930 . S
C3754 C3752 1.384 . S
C3754 C3755 1.372 . S
C3755 C3754 1.372 . S
C3755 C3756 1.400 . S
C3755 C3760 1.490 . S
C3756 H3746 0.930 . S
C3756 C3755 1.400 . S
C3756 C3759 1.386 . S
H3757 C3773 0.930 . S
H3758 C3774 0.931 . S
C3759 H3747 0.929 . S
C3759 C3753 1.390 . S
C3759 C3756 1.386 . S
C3760 C3755 1.490 . S
C3760 C3762 1.395 . S
C3760 C3763 1.403 . S
H3761 C3767 0.930 . S
C3762 H3748 0.930 . S
C3762 C3760 1.395 . S
C3762 C3765 1.403 . S
C3763 C3760 1.403 . S
C3763 C3764 1.524 . S
C3763 C3767 1.400 . S
C3764 H3749 0.960 . S
C3764 H3750 0.960 . S
C3764 H3751 0.960 . S
C3764 C3763 1.524 . S
C3765 C3762 1.403 . S
C3765 C3766 1.392 . S
C3765 C3769 1.495 . S
C3766 C3765 1.392 . S
C3766 C3767 1.385 . S
C3766 C3768 1.478 . S
C3767 H3761 0.930 . S
C3767 C3763 1.400 . S
C3767 C3766 1.385 . S
C3768 C3766 1.478 . S
C3768 C3770 1.381 . S
C3768 C3774 1.383 . S
C3769 C3765 1.495 . S
C3769 H3775 0.959 . S
C3769 H3776 0.961 . S
C3769 H3777 0.960 . S
C3770 C3768 1.381 . S
C3770 C3771 1.394 . S
C3770 H3778 0.930 . S
C3771 C3770 1.394 . S
C3771 C3772 1.383 . S
C3771 H3779 0.929 . S
C3772 C3771 1.383 . S
C3772 C3773 1.377 . S
C3773 H3757 0.930 . S
C3773 C3772 1.377 . S
C3773 C3774 1.379 . S
C3774 H3758 0.931 . S
C3774 C3768 1.383 . S
C3774 C3773 1.379 . S
H3775 C3769 0.959 . S
H3776 C3769 0.961 . S
H3777 C3769 0.960 . S
H3778 C3770 0.930 . S
H3779 C3771 0.929 . S
H3780 C3788 0.929 . S
H3781 C3790 0.930 . S
H3782 C3792 0.930 . S
H3783 C3795 0.929 . S
H3784 C3798 0.930 . S
H3785 C3800 0.960 . S
H3786 C3800 0.960 . S
H3787 C3800 0.960 . S
C3788 H3780 0.929 . S
C3788 C3789 1.377 . S
C3788 C3790 1.384 . S
C3789 C3788 1.377 . S
C3789 C3795 1.390 . S
C3790 H3781 0.930 . S
C3790 C3788 1.384 . S
C3790 C3791 1.372 . S
C3791 C3790 1.372 . S
C3791 C3792 1.400 . S
C3791 C3796 1.490 . S
C3792 H3782 0.930 . S
C3792 C3791 1.400 . S
C3792 C3795 1.386 . S
H3793 C3809 0.930 . S
H3794 C3810 0.931 . S
C3795 H3783 0.929 . S
C3795 C3789 1.390 . S
C3795 C3792 1.386 . S
C3796 C3791 1.490 . S
C3796 C3798 1.395 . S
C3796 C3799 1.403 . S
H3797 C3803 0.930 . S
C3798 H3784 0.930 . S
C3798 C3796 1.395 . S
C3798 C3801 1.403 . S
C3799 C3796 1.403 . S
C3799 C3800 1.524 . S
C3799 C3803 1.400 . S
C3800 H3785 0.960 . S
C3800 H3786 0.960 . S
C3800 H3787 0.960 . S
C3800 C3799 1.524 . S
C3801 C3798 1.403 . S
C3801 C3802 1.392 . S
C3801 C3805 1.495 . S
C3802 C3801 1.392 . S
C3802 C3803 1.385 . S
C3802 C3804 1.478 . S
C3803 H3797 0.930 . S
C3803 C3799 1.400 . S
C3803 C3802 1.385 . S
C3804 C3802 1.478 . S
C3804 C3806 1.381 . S
C3804 C3810 1.383 . S
C3805 C3801 1.495 . S
C3805 H3811 0.959 . S
C3805 H3812 0.961 . S
C3805 H3813 0.960 . S
C3806 C3804 1.381 . S
C3806 C3807 1.394 . S
C3806 H3814 0.930 . S
C3807 C3806 1.394 . S
C3807 C3808 1.383 . S
C3807 H3815 0.929 . S
C3808 C3807 1.383 . S
C3808 C3809 1.377 . S
C3809 H3793 0.930 . S
C3809 C3808 1.377 . S
C3809 C3810 1.379 . S
C3810 H3794 0.931 . S
C3810 C3804 1.383 . S
C3810 C3809 1.379 . S
H3811 C3805 0.959 . S
H3812 C3805 0.961 . S
H3813 C3805 0.960 . S
H3814 C3806 0.930 . S
H3815 C3807 0.929 . S
H3816 C3824 0.929 . S
H3817 C3826 0.930 . S
H3818 C3828 0.930 . S
H3819 C3831 0.929 . S
H3820 C3834 0.930 . S
H3821 C3836 0.960 . S
H3822 C3836 0.960 . S
H3823 C3836 0.960 . S
C3824 H3816 0.929 . S
C3824 C3825 1.377 . S
C3824 C3826 1.384 . S
C3825 C3824 1.377 . S
C3825 C3831 1.390 . S
C3826 H3817 0.930 . S
C3826 C3824 1.384 . S
C3826 C3827 1.372 . S
C3827 C3826 1.372 . S
C3827 C3828 1.400 . S
C3827 C3832 1.490 . S
C3828 H3818 0.930 . S
C3828 C3827 1.400 . S
C3828 C3831 1.386 . S
H3829 C3845 0.930 . S
H3830 C3846 0.931 . S
C3831 H3819 0.929 . S
C3831 C3825 1.390 . S
C3831 C3828 1.386 . S
C3832 C3827 1.490 . S
C3832 C3834 1.395 . S
C3832 C3835 1.403 . S
H3833 C3839 0.930 . S
C3834 H3820 0.930 . S
C3834 C3832 1.395 . S
C3834 C3837 1.403 . S
C3835 C3832 1.403 . S
C3835 C3836 1.524 . S
C3835 C3839 1.400 . S
C3836 H3821 0.960 . S
C3836 H3822 0.960 . S
C3836 H3823 0.960 . S
C3836 C3835 1.524 . S
C3837 C3834 1.403 . S
C3837 C3838 1.392 . S
C3837 C3841 1.495 . S
C3838 C3837 1.392 . S
C3838 C3839 1.385 . S
C3838 C3840 1.478 . S
C3839 H3833 0.930 . S
C3839 C3835 1.400 . S
C3839 C3838 1.385 . S
C3840 C3838 1.478 . S
C3840 C3842 1.381 . S
C3840 C3846 1.383 . S
C3841 C3837 1.495 . S
C3841 H3847 0.959 . S
C3841 H3848 0.961 . S
C3841 H3849 0.960 . S
C3842 C3840 1.381 . S
C3842 C3843 1.394 . S
C3842 H3850 0.930 . S
C3843 C3842 1.394 . S
C3843 C3844 1.383 . S
C3843 H3851 0.929 . S
C3844 C3843 1.383 . S
C3844 C3845 1.377 . S
C3845 H3829 0.930 . S
C3845 C3844 1.377 . S
C3845 C3846 1.379 . S
C3846 H3830 0.931 . S
C3846 C3840 1.383 . S
C3846 C3845 1.379 . S
H3847 C3841 0.959 . S
H3848 C3841 0.961 . S
H3849 C3841 0.960 . S
H3850 C3842 0.930 . S
H3851 C3843 0.929 . S
H3852 C3860 0.929 . S
H3853 C3862 0.930 . S
H3854 C3864 0.930 . S
H3855 C3867 0.929 . S
H3856 C3870 0.930 . S
H3857 C3872 0.960 . S
H3858 C3872 0.960 . S
H3859 C3872 0.960 . S
C3860 H3852 0.929 . S
C3860 C3861 1.377 . S
C3860 C3862 1.384 . S
C3861 C3860 1.377 . S
C3861 C3867 1.390 . S
C3862 H3853 0.930 . S
C3862 C3860 1.384 . S
C3862 C3863 1.372 . S
C3863 C3862 1.372 . S
C3863 C3864 1.400 . S
C3863 C3868 1.490 . S
C3864 H3854 0.930 . S
C3864 C3863 1.400 . S
C3864 C3867 1.386 . S
H3865 C3881 0.930 . S
H3866 C3882 0.931 . S
C3867 H3855 0.929 . S
C3867 C3861 1.390 . S
C3867 C3864 1.386 . S
C3868 C3863 1.490 . S
C3868 C3870 1.395 . S
C3868 C3871 1.403 . S
H3869 C3875 0.930 . S
C3870 H3856 0.930 . S
C3870 C3868 1.395 . S
C3870 C3873 1.403 . S
C3871 C3868 1.403 . S
C3871 C3872 1.524 . S
C3871 C3875 1.400 . S
C3872 H3857 0.960 . S
C3872 H3858 0.960 . S
C3872 H3859 0.960 . S
C3872 C3871 1.524 . S
C3873 C3870 1.403 . S
C3873 C3874 1.392 . S
C3873 C3877 1.495 . S
C3874 C3873 1.392 . S
C3874 C3875 1.385 . S
C3874 C3876 1.478 . S
C3875 H3869 0.930 . S
C3875 C3871 1.400 . S
C3875 C3874 1.385 . S
C3876 C3874 1.478 . S
C3876 C3878 1.381 . S
C3876 C3882 1.383 . S
C3877 C3873 1.495 . S
C3877 H3883 0.959 . S
C3877 H3884 0.961 . S
C3877 H3885 0.960 . S
C3878 C3876 1.381 . S
C3878 C3879 1.394 . S
C3878 H3886 0.930 . S
C3879 C3878 1.394 . S
C3879 C3880 1.383 . S
C3879 H3887 0.929 . S
C3880 C3879 1.383 . S
C3880 C3881 1.377 . S
C3881 H3865 0.930 . S
C3881 C3880 1.377 . S
C3881 C3882 1.379 . S
C3882 H3866 0.931 . S
C3882 C3876 1.383 . S
C3882 C3881 1.379 . S
H3883 C3877 0.959 . S
H3884 C3877 0.961 . S
H3885 C3877 0.960 . S
H3886 C3878 0.930 . S
H3887 C3879 0.929 . S
H3888 C3896 0.929 . S
H3889 C3898 0.930 . S
H3890 C3900 0.930 . S
H3891 C3903 0.929 . S
H3892 C3906 0.930 . S
H3893 C3908 0.960 . S
H3894 C3908 0.960 . S
H3895 C3908 0.960 . S
C3896 H3888 0.929 . S
C3896 C3897 1.377 . S
C3896 C3898 1.384 . S
C3897 C3896 1.377 . S
C3897 C3903 1.390 . S
C3898 H3889 0.930 . S
C3898 C3896 1.384 . S
C3898 C3899 1.372 . S
C3899 C3898 1.372 . S
C3899 C3900 1.400 . S
C3899 C3904 1.490 . S
C3900 H3890 0.930 . S
C3900 C3899 1.400 . S
C3900 C3903 1.386 . S
H3901 C3917 0.930 . S
H3902 C3918 0.931 . S
C3903 H3891 0.929 . S
C3903 C3897 1.390 . S
C3903 C3900 1.386 . S
C3904 C3899 1.490 . S
C3904 C3906 1.395 . S
C3904 C3907 1.403 . S
H3905 C3911 0.930 . S
C3906 H3892 0.930 . S
C3906 C3904 1.395 . S
C3906 C3909 1.403 . S
C3907 C3904 1.403 . S
C3907 C3908 1.524 . S
C3907 C3911 1.400 . S
C3908 H3893 0.960 . S
C3908 H3894 0.960 . S
C3908 H3895 0.960 . S
C3908 C3907 1.524 . S
C3909 C3906 1.403 . S
C3909 C3910 1.392 . S
C3909 C3913 1.495 . S
C3910 C3909 1.392 . S
C3910 C3911 1.385 . S
C3910 C3912 1.478 . S
C3911 H3905 0.930 . S
C3911 C3907 1.400 . S
C3911 C3910 1.385 . S
C3912 C3910 1.478 . S
C3912 C3914 1.381 . S
C3912 C3918 1.383 . S
C3913 C3909 1.495 . S
C3913 H3919 0.959 . S
C3913 H3920 0.961 . S
C3913 H3921 0.960 . S
C3914 C3912 1.381 . S
C3914 C3915 1.394 . S
C3914 H3922 0.930 . S
C3915 C3914 1.394 . S
C3915 C3916 1.383 . S
C3915 H3923 0.929 . S
C3916 C3915 1.383 . S
C3916 C3917 1.377 . S
C3917 H3901 0.930 . S
C3917 C3916 1.377 . S
C3917 C3918 1.379 . S
C3918 H3902 0.931 . S
C3918 C3912 1.383 . S
C3918 C3917 1.379 . S
H3919 C3913 0.959 . S
H3920 C3913 0.961 . S
H3921 C3913 0.960 . S
H3922 C3914 0.930 . S
H3923 C3915 0.929 . S
H3924 C3932 0.929 . S
H3925 C3934 0.930 . S
H3926 C3936 0.930 . S
H3927 C3939 0.929 . S
H3928 C3942 0.930 . S
H3929 C3944 0.960 . S
H3930 C3944 0.960 . S
H3931 C3944 0.960 . S
C3932 H3924 0.929 . S
C3932 C3933 1.377 . S
C3932 C3934 1.384 . S
C3933 C3932 1.377 . S
C3933 C3939 1.390 . S
C3934 H3925 0.930 . S
C3934 C3932 1.384 . S
C3934 C3935 1.372 . S
C3935 C3934 1.372 . S
C3935 C3936 1.400 . S
C3935 C3940 1.490 . S
C3936 H3926 0.930 . S
C3936 C3935 1.400 . S
C3936 C3939 1.386 . S
H3937 C3953 0.930 . S
H3938 C3954 0.931 . S
C3939 H3927 0.929 . S
C3939 C3933 1.390 . S
C3939 C3936 1.386 . S
C3940 C3935 1.490 . S
C3940 C3942 1.395 . S
C3940 C3943 1.403 . S
H3941 C3947 0.930 . S
C3942 H3928 0.930 . S
C3942 C3940 1.395 . S
C3942 C3945 1.403 . S
C3943 C3940 1.403 . S
C3943 C3944 1.524 . S
C3943 C3947 1.400 . S
C3944 H3929 0.960 . S
C3944 H3930 0.960 . S
C3944 H3931 0.960 . S
C3944 C3943 1.524 . S
C3945 C3942 1.403 . S
C3945 C3946 1.392 . S
C3945 C3949 1.495 . S
C3946 C3945 1.392 . S
C3946 C3947 1.385 . S
C3946 C3948 1.478 . S
C3947 H3941 0.930 . S
C3947 C3943 1.400 . S
C3947 C3946 1.385 . S
C3948 C3946 1.478 . S
C3948 C3950 1.381 . S
C3948 C3954 1.383 . S
C3949 C3945 1.495 . S
C3949 H3955 0.959 . S
C3949 H3956 0.961 . S
C3949 H3957 0.960 . S
C3950 C3948 1.381 . S
C3950 C3951 1.394 . S
C3950 H3958 0.930 . S
C3951 C3950 1.394 . S
C3951 C3952 1.383 . S
C3951 H3959 0.929 . S
C3952 C3951 1.383 . S
C3952 C3953 1.377 . S
C3953 H3937 0.930 . S
C3953 C3952 1.377 . S
C3953 C3954 1.379 . S
C3954 H3938 0.931 . S
C3954 C3948 1.383 . S
C3954 C3953 1.379 . S
H3955 C3949 0.959 . S
H3956 C3949 0.961 . S
H3957 C3949 0.960 . S
H3958 C3950 0.930 . S
H3959 C3951 0.929 . S
H3960 C3968 0.929 . S
H3961 C3970 0.930 . S
H3962 C3972 0.930 . S
H3963 C3975 0.929 . S
H3964 C3978 0.930 . S
H3965 C3980 0.960 . S
H3966 C3980 0.960 . S
H3967 C3980 0.960 . S
C3968 H3960 0.929 . S
C3968 C3969 1.377 . S
C3968 C3970 1.384 . S
C3969 C3968 1.377 . S
C3969 C3975 1.390 . S
C3970 H3961 0.930 . S
C3970 C3968 1.384 . S
C3970 C3971 1.372 . S
C3971 C3970 1.372 . S
C3971 C3972 1.400 . S
C3971 C3976 1.490 . S
C3972 H3962 0.930 . S
C3972 C3971 1.400 . S
C3972 C3975 1.386 . S
H3973 C3989 0.930 . S
H3974 C3990 0.931 . S
C3975 H3963 0.929 . S
C3975 C3969 1.390 . S
C3975 C3972 1.386 . S
C3976 C3971 1.490 . S
C3976 C3978 1.395 . S
C3976 C3979 1.403 . S
H3977 C3983 0.930 . S
C3978 H3964 0.930 . S
C3978 C3976 1.395 . S
C3978 C3981 1.403 . S
C3979 C3976 1.403 . S
C3979 C3980 1.524 . S
C3979 C3983 1.400 . S
C3980 H3965 0.960 . S
C3980 H3966 0.960 . S
C3980 H3967 0.960 . S
C3980 C3979 1.524 . S
C3981 C3978 1.403 . S
C3981 C3982 1.392 . S
C3981 C3985 1.495 . S
C3982 C3981 1.392 . S
C3982 C3983 1.385 . S
C3982 C3984 1.478 . S
C3983 H3977 0.930 . S
C3983 C3979 1.400 . S
C3983 C3982 1.385 . S
C3984 C3982 1.478 . S
C3984 C3986 1.381 . S
C3984 C3990 1.383 . S
C3985 C3981 1.495 . S
C3985 H3991 0.959 . S
C3985 H3992 0.961 . S
C3985 H3993 0.960 . S
C3986 C3984 1.381 . S
C3986 C3987 1.394 . S
C3986 H3994 0.930 . S
C3987 C3986 1.394 . S
C3987 C3988 1.383 . S
C3987 H3995 0.929 . S
C3988 C3987 1.383 . S
C3988 C3989 1.377 . S
C3989 H3973 0.930 . S
C3989 C3988 1.377 . S
C3989 C3990 1.379 . S
C3990 H3974 0.931 . S
C3990 C3984 1.383 . S
C3990 C3989 1.379 . S
H3991 C3985 0.959 . S
H3992 C3985 0.961 . S
H3993 C3985 0.960 . S
H3994 C3986 0.930 . S
H3995 C3987 0.929 . S
H3996 C4004 0.929 . S
H3997 C4006 0.930 . S
H3998 C4008 0.930 . S
H3999 C4011 0.929 . S
H4000 C4014 0.930 . S
H4001 C4016 0.960 . S
H4002 C4016 0.960 . S
H4003 C4016 0.960 . S
C4004 H3996 0.929 . S
C4004 C4005 1.377 . S
C4004 C4006 1.384 . S
C4005 C4004 1.377 . S
C4005 C4011 1.390 . S
C4006 H3997 0.930 . S
C4006 C4004 1.384 . S
C4006 C4007 1.372 . S
C4007 C4006 1.372 . S
C4007 C4008 1.400 . S
C4007 C4012 1.490 . S
C4008 H3998 0.930 . S
C4008 C4007 1.400 . S
C4008 C4011 1.386 . S
H4009 C4025 0.930 . S
H4010 C4026 0.931 . S
C4011 H3999 0.929 . S
C4011 C4005 1.390 . S
C4011 C4008 1.386 . S
C4012 C4007 1.490 . S
C4012 C4014 1.395 . S
C4012 C4015 1.403 . S
H4013 C4019 0.930 . S
C4014 H4000 0.930 . S
C4014 C4012 1.395 . S
C4014 C4017 1.403 . S
C4015 C4012 1.403 . S
C4015 C4016 1.524 . S
C4015 C4019 1.400 . S
C4016 H4001 0.960 . S
C4016 H4002 0.960 . S
C4016 H4003 0.960 . S
C4016 C4015 1.524 . S
C4017 C4014 1.403 . S
C4017 C4018 1.392 . S
C4017 C4021 1.495 . S
C4018 C4017 1.392 . S
C4018 C4019 1.385 . S
C4018 C4020 1.478 . S
C4019 H4013 0.930 . S
C4019 C4015 1.400 . S
C4019 C4018 1.385 . S
C4020 C4018 1.478 . S
C4020 C4022 1.381 . S
C4020 C4026 1.383 . S
C4021 C4017 1.495 . S
C4021 H4027 0.959 . S
C4021 H4028 0.961 . S
C4021 H4029 0.960 . S
C4022 C4020 1.381 . S
C4022 C4023 1.394 . S
C4022 H4030 0.930 . S
C4023 C4022 1.394 . S
C4023 C4024 1.383 . S
C4023 H4031 0.929 . S
C4024 C4023 1.383 . S
C4024 C4025 1.377 . S
C4025 H4009 0.930 . S
C4025 C4024 1.377 . S
C4025 C4026 1.379 . S
C4026 H4010 0.931 . S
C4026 C4020 1.383 . S
C4026 C4025 1.379 . S
H4027 C4021 0.959 . S
H4028 C4021 0.961 . S
H4029 C4021 0.960 . S
H4030 C4022 0.930 . S
H4031 C4023 0.929 . S
H4032 C4040 0.929 . S
H4033 C4042 0.930 . S
H4034 C4044 0.930 . S
H4035 C4047 0.929 . S
H4036 C4050 0.930 . S
H4037 C4052 0.960 . S
H4038 C4052 0.960 . S
H4039 C4052 0.960 . S
C4040 H4032 0.929 . S
C4040 C4041 1.377 . S
C4040 C4042 1.384 . S
C4041 C4040 1.377 . S
C4041 C4047 1.390 . S
C4042 H4033 0.930 . S
C4042 C4040 1.384 . S
C4042 C4043 1.372 . S
C4043 C4042 1.372 . S
C4043 C4044 1.400 . S
C4043 C4048 1.490 . S
C4044 H4034 0.930 . S
C4044 C4043 1.400 . S
C4044 C4047 1.386 . S
H4045 C4061 0.930 . S
H4046 C4062 0.931 . S
C4047 H4035 0.929 . S
C4047 C4041 1.390 . S
C4047 C4044 1.386 . S
C4048 C4043 1.490 . S
C4048 C4050 1.395 . S
C4048 C4051 1.403 . S
H4049 C4055 0.930 . S
C4050 H4036 0.930 . S
C4050 C4048 1.395 . S
C4050 C4053 1.403 . S
C4051 C4048 1.403 . S
C4051 C4052 1.524 . S
C4051 C4055 1.400 . S
C4052 H4037 0.960 . S
C4052 H4038 0.960 . S
C4052 H4039 0.960 . S
C4052 C4051 1.524 . S
C4053 C4050 1.403 . S
C4053 C4054 1.392 . S
C4053 C4057 1.495 . S
C4054 C4053 1.392 . S
C4054 C4055 1.385 . S
C4054 C4056 1.478 . S
C4055 H4049 0.930 . S
C4055 C4051 1.400 . S
C4055 C4054 1.385 . S
C4056 C4054 1.478 . S
C4056 C4058 1.381 . S
C4056 C4062 1.383 . S
C4057 C4053 1.495 . S
C4057 H4063 0.959 . S
C4057 H4064 0.961 . S
C4057 H4065 0.960 . S
C4058 C4056 1.381 . S
C4058 C4059 1.394 . S
C4058 H4066 0.930 . S
C4059 C4058 1.394 . S
C4059 C4060 1.383 . S
C4059 H4067 0.929 . S
C4060 C4059 1.383 . S
C4060 C4061 1.377 . S
C4061 H4045 0.930 . S
C4061 C4060 1.377 . S
C4061 C4062 1.379 . S
C4062 H4046 0.931 . S
C4062 C4056 1.383 . S
C4062 C4061 1.379 . S
H4063 C4057 0.959 . S
H4064 C4057 0.961 . S
H4065 C4057 0.960 . S
H4066 C4058 0.930 . S
H4067 C4059 0.929 . S
H4068 C4076 0.929 . S
H4069 C4078 0.930 . S
H4070 C4080 0.930 . S
H4071 C4083 0.929 . S
H4072 C4086 0.930 . S
H4073 C4088 0.960 . S
H4074 C4088 0.960 . S
H4075 C4088 0.960 . S
C4076 H4068 0.929 . S
C4076 C4077 1.377 . S
C4076 C4078 1.384 . S
C4077 C4076 1.377 . S
C4077 C4083 1.390 . S
C4078 H4069 0.930 . S
C4078 C4076 1.384 . S
C4078 C4079 1.372 . S
C4079 C4078 1.372 . S
C4079 C4080 1.400 . S
C4079 C4084 1.490 . S
C4080 H4070 0.930 . S
C4080 C4079 1.400 . S
C4080 C4083 1.386 . S
H4081 C4097 0.930 . S
H4082 C4098 0.931 1_565 S
C4083 H4071 0.929 . S
C4083 C4077 1.390 . S
C4083 C4080 1.386 . S
C4084 C4079 1.490 . S
C4084 C4086 1.395 . S
C4084 C4087 1.403 1_554 S
H4085 C4091 0.930 . S
C4086 H4072 0.930 . S
C4086 C4084 1.395 . S
C4086 C4089 1.403 1_565 S
C4087 C4084 1.403 1_556 S
C4087 C4088 1.524 . S
C4087 C4091 1.400 . S
C4088 H4073 0.960 . S
C4088 H4074 0.960 . S
C4088 H4075 0.960 . S
C4088 C4087 1.524 . S
C4089 C4086 1.403 1_545 S
C4089 C4090 1.392 . S
C4089 C4093 1.495 . S
C4090 C4089 1.392 . S
C4090 C4091 1.385 1_544 S
C4090 C4092 1.478 . S
C4091 H4085 0.930 . S
C4091 C4087 1.400 . S
C4091 C4090 1.385 1_566 S
C4092 C4090 1.478 . S
C4092 C4094 1.381 . S
C4092 C4098 1.383 . S
C4093 C4089 1.495 . S
C4093 H4099 0.959 . S
C4093 H4100 0.961 . S
C4093 H4101 0.960 . S
C4094 C4092 1.381 . S
C4094 C4095 1.394 . S
C4094 H4102 0.930 . S
C4095 C4094 1.394 . S
C4095 C4096 1.383 . S
C4095 H4103 0.929 . S
C4096 C4095 1.383 . S
C4096 C4097 1.377 . S
C4097 H4081 0.930 . S
C4097 C4096 1.377 . S
C4097 C4098 1.379 . S
C4098 H4082 0.931 1_545 S
C4098 C4092 1.383 . S
C4098 C4097 1.379 . S
H4099 C4093 0.959 . S
H4100 C4093 0.961 . S
H4101 C4093 0.960 . S
H4102 C4094 0.930 . S
H4103 C4095 0.929 . S
H4104 C4112 0.929 . S
H4105 C4114 0.930 . S
H4106 C4116 0.930 . S
H4107 C4119 0.929 . S
H4108 C4122 0.930 . S
H4109 C4124 0.960 . S
H4110 C4124 0.960 . S
H4111 C4124 0.960 . S
C4112 H4104 0.929 . S
C4112 C4113 1.377 . S
C4112 C4114 1.384 . S
C4113 C4112 1.377 . S
C4113 C4119 1.390 . S
C4114 H4105 0.930 . S
C4114 C4112 1.384 . S
C4114 C4115 1.372 . S
C4115 C4114 1.372 . S
C4115 C4116 1.400 . S
C4115 C4120 1.490 . S
C4116 H4106 0.930 . S
C4116 C4115 1.400 . S
C4116 C4119 1.386 . S
H4117 C4133 0.930 . S
H4118 C4134 0.931 . S
C4119 H4107 0.929 . S
C4119 C4113 1.390 . S
C4119 C4116 1.386 . S
C4120 C4115 1.490 . S
C4120 C4122 1.395 . S
C4120 C4123 1.403 . S
H4121 C4127 0.930 . S
C4122 H4108 0.930 . S
C4122 C4120 1.395 . S
C4122 C4125 1.403 . S
C4123 C4120 1.403 . S
C4123 C4124 1.524 . S
C4123 C4127 1.400 . S
C4124 H4109 0.960 . S
C4124 H4110 0.960 . S
C4124 H4111 0.960 . S
C4124 C4123 1.524 . S
C4125 C4122 1.403 . S
C4125 C4126 1.392 . S
C4125 C4129 1.495 . S
C4126 C4125 1.392 . S
C4126 C4127 1.385 . S
C4126 C4128 1.478 . S
C4127 H4121 0.930 . S
C4127 C4123 1.400 . S
C4127 C4126 1.385 . S
C4128 C4126 1.478 . S
C4128 C4130 1.381 . S
C4128 C4134 1.383 . S
C4129 C4125 1.495 . S
C4129 H4135 0.959 . S
C4129 H4136 0.961 . S
C4129 H4137 0.960 . S
C4130 C4128 1.381 . S
C4130 C4131 1.394 . S
C4130 H4138 0.930 . S
C4131 C4130 1.394 . S
C4131 C4132 1.383 . S
C4131 H4139 0.929 . S
C4132 C4131 1.383 . S
C4132 C4133 1.377 . S
C4133 H4117 0.930 . S
C4133 C4132 1.377 . S
C4133 C4134 1.379 . S
C4134 H4118 0.931 . S
C4134 C4128 1.383 . S
C4134 C4133 1.379 . S
H4135 C4129 0.959 . S
H4136 C4129 0.961 . S
H4137 C4129 0.960 . S
H4138 C4130 0.930 . S
H4139 C4131 0.929 . S
H4140 C4148 0.929 . S
H4141 C4150 0.930 . S
H4142 C4152 0.930 . S
H4143 C4155 0.929 . S
H4144 C4158 0.930 . S
H4145 C4160 0.960 . S
H4146 C4160 0.960 . S
H4147 C4160 0.960 . S
C4148 H4140 0.929 . S
C4148 C4149 1.377 . S
C4148 C4150 1.384 . S
C4149 C4148 1.377 . S
C4149 C4155 1.390 1_554 S
C4150 H4141 0.930 . S
C4150 C4148 1.384 . S
C4150 C4151 1.372 . S
C4151 C4150 1.372 . S
C4151 C4152 1.400 1_554 S
C4151 C4156 1.490 . S
C4152 H4142 0.930 . S
C4152 C4151 1.400 1_556 S
C4152 C4155 1.386 . S
H4153 C4169 0.930 . S
H4154 C4170 0.931 . S
C4155 H4143 0.929 . S
C4155 C4149 1.390 1_556 S
C4155 C4152 1.386 . S
C4156 C4151 1.490 . S
C4156 C4158 1.395 . S
C4156 C4159 1.403 . S
H4157 C4163 0.930 . S
C4158 H4144 0.930 . S
C4158 C4156 1.395 . S
C4158 C4161 1.403 . S
C4159 C4156 1.403 . S
C4159 C4160 1.524 . S
C4159 C4163 1.400 . S
C4160 H4145 0.960 . S
C4160 H4146 0.960 . S
C4160 H4147 0.960 . S
C4160 C4159 1.524 . S
C4161 C4158 1.403 . S
C4161 C4162 1.392 . S
C4161 C4165 1.495 . S
C4162 C4161 1.392 . S
C4162 C4163 1.385 . S
C4162 C4164 1.478 . S
C4163 H4157 0.930 . S
C4163 C4159 1.400 . S
C4163 C4162 1.385 . S
C4164 C4162 1.478 . S
C4164 C4166 1.381 . S
C4164 C4170 1.383 . S
C4165 C4161 1.495 . S
C4165 H4171 0.959 . S
C4165 H4172 0.961 . S
C4165 H4173 0.960 . S
C4166 C4164 1.381 . S
C4166 C4167 1.394 . S
C4166 H4174 0.930 . S
C4167 C4166 1.394 . S
C4167 C4168 1.383 . S
C4167 H4175 0.929 . S
C4168 C4167 1.383 . S
C4168 C4169 1.377 . S
C4169 H4153 0.930 . S
C4169 C4168 1.377 . S
C4169 C4170 1.379 . S
C4170 H4154 0.931 . S
C4170 C4164 1.383 . S
C4170 C4169 1.379 . S
H4171 C4165 0.959 . S
H4172 C4165 0.961 . S
H4173 C4165 0.960 . S
H4174 C4166 0.930 . S
H4175 C4167 0.929 . S
H4176 C4184 0.929 . S
H4177 C4186 0.930 . S
H4178 C4188 0.930 . S
H4179 C4191 0.929 . S
H4180 C4194 0.930 . S
H4181 C4196 0.960 . S
H4182 C4196 0.960 . S
H4183 C4196 0.960 . S
C4184 H4176 0.929 . S
C4184 C4185 1.377 . S
C4184 C4186 1.384 . S
C4185 C4184 1.377 . S
C4185 C4191 1.390 . S
C4186 H4177 0.930 . S
C4186 C4184 1.384 . S
C4186 C4187 1.372 . S
C4187 C4186 1.372 . S
C4187 C4188 1.400 . S
C4187 C4192 1.490 . S
C4188 H4178 0.930 . S
C4188 C4187 1.400 . S
C4188 C4191 1.386 . S
H4189 C4205 0.930 . S
H4190 C4206 0.931 . S
C4191 H4179 0.929 . S
C4191 C4185 1.390 . S
C4191 C4188 1.386 . S
C4192 C4187 1.490 . S
C4192 C4194 1.395 . S
C4192 C4195 1.403 . S
H4193 C4199 0.930 . S
C4194 H4180 0.930 . S
C4194 C4192 1.395 . S
C4194 C4197 1.403 . S
C4195 C4192 1.403 . S
C4195 C4196 1.524 . S
C4195 C4199 1.400 . S
C4196 H4181 0.960 . S
C4196 H4182 0.960 . S
C4196 H4183 0.960 . S
C4196 C4195 1.524 . S
C4197 C4194 1.403 . S
C4197 C4198 1.392 . S
C4197 C4201 1.495 . S
C4198 C4197 1.392 . S
C4198 C4199 1.385 . S
C4198 C4200 1.478 . S
C4199 H4193 0.930 . S
C4199 C4195 1.400 . S
C4199 C4198 1.385 . S
C4200 C4198 1.478 . S
C4200 C4202 1.381 . S
C4200 C4206 1.383 . S
C4201 C4197 1.495 . S
C4201 H4207 0.959 . S
C4201 H4208 0.961 . S
C4201 H4209 0.960 . S
C4202 C4200 1.381 . S
C4202 C4203 1.394 . S
C4202 H4210 0.930 . S
C4203 C4202 1.394 . S
C4203 C4204 1.383 . S
C4203 H4211 0.929 . S
C4204 C4203 1.383 . S
C4204 C4205 1.377 . S
C4205 H4189 0.930 . S
C4205 C4204 1.377 . S
C4205 C4206 1.379 . S
C4206 H4190 0.931 . S
C4206 C4200 1.383 . S
C4206 C4205 1.379 . S
H4207 C4201 0.959 . S
H4208 C4201 0.961 . S
H4209 C4201 0.960 . S
H4210 C4202 0.930 . S
H4211 C4203 0.929 . S
H4212 C4220 0.929 . S
H4213 C4222 0.930 . S
H4214 C4224 0.930 . S
H4215 C4227 0.929 . S
H4216 C4230 0.930 . S
H4217 C4232 0.960 . S
H4218 C4232 0.960 . S
H4219 C4232 0.960 . S
C4220 H4212 0.929 . S
C4220 C4221 1.377 . S
C4220 C4222 1.384 . S
C4221 C4220 1.377 . S
C4221 C4227 1.390 . S
C4222 H4213 0.930 . S
C4222 C4220 1.384 . S
C4222 C4223 1.372 . S
C4223 C4222 1.372 . S
C4223 C4224 1.400 . S
C4223 C4228 1.490 . S
C4224 H4214 0.930 . S
C4224 C4223 1.400 . S
C4224 C4227 1.386 . S
H4225 C4241 0.930 . S
H4226 C4242 0.931 . S
C4227 H4215 0.929 . S
C4227 C4221 1.390 . S
C4227 C4224 1.386 . S
C4228 C4223 1.490 . S
C4228 C4230 1.395 . S
C4228 C4231 1.403 . S
H4229 C4235 0.930 . S
C4230 H4216 0.930 . S
C4230 C4228 1.395 . S
C4230 C4233 1.403 . S
C4231 C4228 1.403 . S
C4231 C4232 1.524 . S
C4231 C4235 1.400 . S
C4232 H4217 0.960 . S
C4232 H4218 0.960 . S
C4232 H4219 0.960 . S
C4232 C4231 1.524 . S
C4233 C4230 1.403 . S
C4233 C4234 1.392 . S
C4233 C4237 1.495 . S
C4234 C4233 1.392 . S
C4234 C4235 1.385 . S
C4234 C4236 1.478 . S
C4235 H4229 0.930 . S
C4235 C4231 1.400 . S
C4235 C4234 1.385 . S
C4236 C4234 1.478 . S
C4236 C4238 1.381 . S
C4236 C4242 1.383 . S
C4237 C4233 1.495 . S
C4237 H4243 0.959 . S
C4237 H4244 0.961 . S
C4237 H4245 0.960 . S
C4238 C4236 1.381 . S
C4238 C4239 1.394 . S
C4238 H4246 0.930 . S
C4239 C4238 1.394 . S
C4239 C4240 1.383 . S
C4239 H4247 0.929 . S
C4240 C4239 1.383 . S
C4240 C4241 1.377 . S
C4241 H4225 0.930 . S
C4241 C4240 1.377 . S
C4241 C4242 1.379 . S
C4242 H4226 0.931 . S
C4242 C4236 1.383 . S
C4242 C4241 1.379 . S
H4243 C4237 0.959 . S
H4244 C4237 0.961 . S
H4245 C4237 0.960 . S
H4246 C4238 0.930 . S
H4247 C4239 0.929 . S
H4248 C4256 0.929 . S
H4249 C4258 0.930 . S
H4250 C4260 0.930 . S
H4251 C4263 0.929 . S
H4252 C4266 0.930 . S
H4253 C4268 0.960 . S
H4254 C4268 0.960 . S
H4255 C4268 0.960 . S
C4256 H4248 0.929 . S
C4256 C4257 1.377 . S
C4256 C4258 1.384 . S
C4257 C4256 1.377 . S
C4257 C4263 1.390 . S
C4258 H4249 0.930 . S
C4258 C4256 1.384 . S
C4258 C4259 1.372 . S
C4259 C4258 1.372 . S
C4259 C4260 1.400 . S
C4259 C4264 1.490 . S
C4260 H4250 0.930 . S
C4260 C4259 1.400 . S
C4260 C4263 1.386 . S
H4261 C4277 0.930 . S
H4262 C4278 0.931 . S
C4263 H4251 0.929 . S
C4263 C4257 1.390 . S
C4263 C4260 1.386 . S
C4264 C4259 1.490 . S
C4264 C4266 1.395 . S
C4264 C4267 1.403 . S
H4265 C4271 0.930 . S
C4266 H4252 0.930 . S
C4266 C4264 1.395 . S
C4266 C4269 1.403 . S
C4267 C4264 1.403 . S
C4267 C4268 1.524 . S
C4267 C4271 1.400 . S
C4268 H4253 0.960 . S
C4268 H4254 0.960 . S
C4268 H4255 0.960 . S
C4268 C4267 1.524 . S
C4269 C4266 1.403 . S
C4269 C4270 1.392 . S
C4269 C4273 1.495 . S
C4270 C4269 1.392 . S
C4270 C4271 1.385 . S
C4270 C4272 1.478 . S
C4271 H4265 0.930 . S
C4271 C4267 1.400 . S
C4271 C4270 1.385 . S
C4272 C4270 1.478 . S
C4272 C4274 1.381 . S
C4272 C4278 1.383 . S
C4273 C4269 1.495 . S
C4273 H4279 0.959 . S
C4273 H4280 0.961 . S
C4273 H4281 0.960 . S
C4274 C4272 1.381 . S
C4274 C4275 1.394 . S
C4274 H4282 0.930 . S
C4275 C4274 1.394 . S
C4275 C4276 1.383 . S
C4275 H4283 0.929 . S
C4276 C4275 1.383 . S
C4276 C4277 1.377 . S
C4277 H4261 0.930 . S
C4277 C4276 1.377 . S
C4277 C4278 1.379 . S
C4278 H4262 0.931 . S
C4278 C4272 1.383 . S
C4278 C4277 1.379 . S
H4279 C4273 0.959 . S
H4280 C4273 0.961 . S
H4281 C4273 0.960 . S
H4282 C4274 0.930 . S
H4283 C4275 0.929 . S
H4284 C4292 0.929 . S
H4285 C4294 0.930 . S
H4286 C4296 0.930 . S
H4287 C4299 0.929 . S
H4288 C4302 0.930 . S
H4289 C4304 0.960 . S
H4290 C4304 0.960 . S
H4291 C4304 0.960 . S
C4292 H4284 0.929 . S
C4292 C4293 1.377 . S
C4292 C4294 1.384 . S
C4293 C4292 1.377 . S
C4293 C4299 1.390 . S
C4294 H4285 0.930 . S
C4294 C4292 1.384 . S
C4294 C4295 1.372 . S
C4295 C4294 1.372 . S
C4295 C4296 1.400 . S
C4295 C4300 1.490 . S
C4296 H4286 0.930 . S
C4296 C4295 1.400 . S
C4296 C4299 1.386 . S
H4297 C4313 0.930 . S
H4298 C4314 0.931 . S
C4299 H4287 0.929 . S
C4299 C4293 1.390 . S
C4299 C4296 1.386 . S
C4300 C4295 1.490 . S
C4300 C4302 1.395 . S
C4300 C4303 1.403 . S
H4301 C4307 0.930 . S
C4302 H4288 0.930 . S
C4302 C4300 1.395 . S
C4302 C4305 1.403 . S
C4303 C4300 1.403 . S
C4303 C4304 1.524 . S
C4303 C4307 1.400 . S
C4304 H4289 0.960 . S
C4304 H4290 0.960 . S
C4304 H4291 0.960 . S
C4304 C4303 1.524 . S
C4305 C4302 1.403 . S
C4305 C4306 1.392 . S
C4305 C4309 1.495 . S
C4306 C4305 1.392 . S
C4306 C4307 1.385 . S
C4306 C4308 1.478 . S
C4307 H4301 0.930 . S
C4307 C4303 1.400 . S
C4307 C4306 1.385 . S
C4308 C4306 1.478 . S
C4308 C4310 1.381 . S
C4308 C4314 1.383 . S
C4309 C4305 1.495 . S
C4309 H4315 0.959 . S
C4309 H4316 0.961 . S
C4309 H4317 0.960 . S
C4310 C4308 1.381 . S
C4310 C4311 1.394 . S
C4310 H4318 0.930 . S
C4311 C4310 1.394 . S
C4311 C4312 1.383 . S
C4311 H4319 0.929 . S
C4312 C4311 1.383 . S
C4312 C4313 1.377 . S
C4313 H4297 0.930 . S
C4313 C4312 1.377 . S
C4313 C4314 1.379 . S
C4314 H4298 0.931 . S
C4314 C4308 1.383 . S
C4314 C4313 1.379 . S
H4315 C4309 0.959 . S
H4316 C4309 0.961 . S
H4317 C4309 0.960 . S
H4318 C4310 0.930 . S
H4319 C4311 0.929 . S
H4320 C4328 0.929 . S
H4321 C4330 0.930 . S
H4322 C4332 0.930 . S
H4323 C4335 0.929 . S
H4324 C4338 0.930 . S
H4325 C4340 0.960 . S
H4326 C4340 0.960 . S
H4327 C4340 0.960 . S
C4328 H4320 0.929 . S
C4328 C4329 1.377 . S
C4328 C4330 1.384 . S
C4329 C4328 1.377 . S
C4329 C4335 1.390 . S
C4330 H4321 0.930 . S
C4330 C4328 1.384 . S
C4330 C4331 1.372 . S
C4331 C4330 1.372 . S
C4331 C4332 1.400 . S
C4331 C4336 1.490 . S
C4332 H4322 0.930 . S
C4332 C4331 1.400 . S
C4332 C4335 1.386 . S
H4333 C4349 0.930 . S
H4334 C4350 0.931 . S
C4335 H4323 0.929 . S
C4335 C4329 1.390 . S
C4335 C4332 1.386 . S
C4336 C4331 1.490 . S
C4336 C4338 1.395 . S
C4336 C4339 1.403 . S
H4337 C4343 0.930 . S
C4338 H4324 0.930 . S
C4338 C4336 1.395 . S
C4338 C4341 1.403 . S
C4339 C4336 1.403 . S
C4339 C4340 1.524 . S
C4339 C4343 1.400 . S
C4340 H4325 0.960 . S
C4340 H4326 0.960 . S
C4340 H4327 0.960 . S
C4340 C4339 1.524 . S
C4341 C4338 1.403 . S
C4341 C4342 1.392 . S
C4341 C4345 1.495 . S
C4342 C4341 1.392 . S
C4342 C4343 1.385 . S
C4342 C4344 1.478 . S
C4343 H4337 0.930 . S
C4343 C4339 1.400 . S
C4343 C4342 1.385 . S
C4344 C4342 1.478 . S
C4344 C4346 1.381 . S
C4344 C4350 1.383 . S
C4345 C4341 1.495 . S
C4345 H4351 0.959 . S
C4345 H4352 0.961 . S
C4345 H4353 0.960 . S
C4346 C4344 1.381 . S
C4346 C4347 1.394 . S
C4346 H4354 0.930 . S
C4347 C4346 1.394 . S
C4347 C4348 1.383 . S
C4347 H4355 0.929 . S
C4348 C4347 1.383 . S
C4348 C4349 1.377 . S
C4349 H4333 0.930 . S
C4349 C4348 1.377 . S
C4349 C4350 1.379 . S
C4350 H4334 0.931 . S
C4350 C4344 1.383 . S
C4350 C4349 1.379 . S
H4351 C4345 0.959 . S
H4352 C4345 0.961 . S
H4353 C4345 0.960 . S
H4354 C4346 0.930 . S
H4355 C4347 0.929 . S
H4356 C4364 0.929 . S
H4357 C4366 0.930 . S
H4358 C4368 0.930 . S
H4359 C4371 0.929 . S
H4360 C4374 0.930 . S
H4361 C4376 0.960 . S
H4362 C4376 0.960 . S
H4363 C4376 0.960 . S
C4364 H4356 0.929 . S
C4364 C4365 1.377 . S
C4364 C4366 1.384 . S
C4365 C4364 1.377 . S
C4365 C4371 1.390 . S
C4366 H4357 0.930 . S
C4366 C4364 1.384 . S
C4366 C4367 1.372 . S
C4367 C4366 1.372 . S
C4367 C4368 1.400 . S
C4367 C4372 1.490 . S
C4368 H4358 0.930 . S
C4368 C4367 1.400 . S
C4368 C4371 1.386 . S
H4369 C4385 0.930 . S
H4370 C4386 0.931 . S
C4371 H4359 0.929 . S
C4371 C4365 1.390 . S
C4371 C4368 1.386 . S
C4372 C4367 1.490 . S
C4372 C4374 1.395 . S
C4372 C4375 1.403 . S
H4373 C4379 0.930 . S
C4374 H4360 0.930 . S
C4374 C4372 1.395 . S
C4374 C4377 1.403 . S
C4375 C4372 1.403 . S
C4375 C4376 1.524 . S
C4375 C4379 1.400 . S
C4376 H4361 0.960 . S
C4376 H4362 0.960 . S
C4376 H4363 0.960 . S
C4376 C4375 1.524 . S
C4377 C4374 1.403 . S
C4377 C4378 1.392 . S
C4377 C4381 1.495 . S
C4378 C4377 1.392 . S
C4378 C4379 1.385 . S
C4378 C4380 1.478 . S
C4379 H4373 0.930 . S
C4379 C4375 1.400 . S
C4379 C4378 1.385 . S
C4380 C4378 1.478 . S
C4380 C4382 1.381 . S
C4380 C4386 1.383 . S
C4381 C4377 1.495 . S
C4381 H4387 0.959 . S
C4381 H4388 0.961 . S
C4381 H4389 0.960 . S
C4382 C4380 1.381 . S
C4382 C4383 1.394 . S
C4382 H4390 0.930 . S
C4383 C4382 1.394 . S
C4383 C4384 1.383 . S
C4383 H4391 0.929 . S
C4384 C4383 1.383 . S
C4384 C4385 1.377 . S
C4385 H4369 0.930 . S
C4385 C4384 1.377 . S
C4385 C4386 1.379 . S
C4386 H4370 0.931 . S
C4386 C4380 1.383 . S
C4386 C4385 1.379 . S
H4387 C4381 0.959 . S
H4388 C4381 0.961 . S
H4389 C4381 0.960 . S
H4390 C4382 0.930 . S
H4391 C4383 0.929 . S
H4392 C4400 0.929 . S
H4393 C4402 0.930 . S
H4394 C4404 0.930 . S
H4395 C4407 0.929 . S
H4396 C4410 0.930 . S
H4397 C4412 0.960 . S
H4398 C4412 0.960 . S
H4399 C4412 0.960 . S
C4400 H4392 0.929 . S
C4400 C4401 1.377 . S
C4400 C4402 1.384 . S
C4401 C4400 1.377 . S
C4401 C4407 1.390 . S
C4402 H4393 0.930 . S
C4402 C4400 1.384 . S
C4402 C4403 1.372 . S
C4403 C4402 1.372 . S
C4403 C4404 1.400 . S
C4403 C4408 1.490 . S
C4404 H4394 0.930 . S
C4404 C4403 1.400 . S
C4404 C4407 1.386 . S
H4405 C4421 0.930 . S
H4406 C4422 0.931 . S
C4407 H4395 0.929 . S
C4407 C4401 1.390 . S
C4407 C4404 1.386 . S
C4408 C4403 1.490 . S
C4408 C4410 1.395 . S
C4408 C4411 1.403 . S
H4409 C4415 0.930 . S
C4410 H4396 0.930 . S
C4410 C4408 1.395 . S
C4410 C4413 1.403 . S
C4411 C4408 1.403 . S
C4411 C4412 1.524 . S
C4411 C4415 1.400 . S
C4412 H4397 0.960 . S
C4412 H4398 0.960 . S
C4412 H4399 0.960 . S
C4412 C4411 1.524 . S
C4413 C4410 1.403 . S
C4413 C4414 1.392 . S
C4413 C4417 1.495 . S
C4414 C4413 1.392 . S
C4414 C4415 1.385 . S
C4414 C4416 1.478 . S
C4415 H4409 0.930 . S
C4415 C4411 1.400 . S
C4415 C4414 1.385 . S
C4416 C4414 1.478 . S
C4416 C4418 1.381 . S
C4416 C4422 1.383 . S
C4417 C4413 1.495 . S
C4417 H4423 0.959 . S
C4417 H4424 0.961 . S
C4417 H4425 0.960 . S
C4418 C4416 1.381 . S
C4418 C4419 1.394 . S
C4418 H4426 0.930 . S
C4419 C4418 1.394 . S
C4419 C4420 1.383 . S
C4419 H4427 0.929 . S
C4420 C4419 1.383 . S
C4420 C4421 1.377 . S
C4421 H4405 0.930 . S
C4421 C4420 1.377 . S
C4421 C4422 1.379 . S
C4422 H4406 0.931 . S
C4422 C4416 1.383 . S
C4422 C4421 1.379 . S
H4423 C4417 0.959 . S
H4424 C4417 0.961 . S
H4425 C4417 0.960 . S
H4426 C4418 0.930 . S
H4427 C4419 0.929 . S
H4428 C4436 0.929 . S
H4429 C4438 0.930 . S
H4430 C4440 0.930 . S
H4431 C4443 0.929 . S
H4432 C4446 0.930 . S
H4433 C4448 0.960 . S
H4434 C4448 0.960 . S
H4435 C4448 0.960 . S
C4436 H4428 0.929 . S
C4436 C4437 1.377 . S
C4436 C4438 1.384 . S
C4437 C4436 1.377 . S
C4437 C4443 1.390 . S
C4438 H4429 0.930 . S
C4438 C4436 1.384 . S
C4438 C4439 1.372 . S
C4439 C4438 1.372 . S
C4439 C4440 1.400 . S
C4439 C4444 1.490 . S
C4440 H4430 0.930 . S
C4440 C4439 1.400 . S
C4440 C4443 1.386 . S
H4441 C4457 0.930 . S
H4442 C4458 0.931 . S
C4443 H4431 0.929 . S
C4443 C4437 1.390 . S
C4443 C4440 1.386 . S
C4444 C4439 1.490 . S
C4444 C4446 1.395 . S
C4444 C4447 1.403 . S
H4445 C4451 0.930 . S
C4446 H4432 0.930 . S
C4446 C4444 1.395 . S
C4446 C4449 1.403 . S
C4447 C4444 1.403 . S
C4447 C4448 1.524 . S
C4447 C4451 1.400 . S
C4448 H4433 0.960 . S
C4448 H4434 0.960 . S
C4448 H4435 0.960 . S
C4448 C4447 1.524 . S
C4449 C4446 1.403 . S
C4449 C4450 1.392 . S
C4449 C4453 1.495 . S
C4450 C4449 1.392 . S
C4450 C4451 1.385 . S
C4450 C4452 1.478 . S
C4451 H4445 0.930 . S
C4451 C4447 1.400 . S
C4451 C4450 1.385 . S
C4452 C4450 1.478 . S
C4452 C4454 1.381 . S
C4452 C4458 1.383 . S
C4453 C4449 1.495 . S
C4453 H4459 0.959 . S
C4453 H4460 0.961 . S
C4453 H4461 0.960 . S
C4454 C4452 1.381 . S
C4454 C4455 1.394 . S
C4454 H4462 0.930 . S
C4455 C4454 1.394 . S
C4455 C4456 1.383 . S
C4455 H4463 0.929 . S
C4456 C4455 1.383 . S
C4456 C4457 1.377 . S
C4457 H4441 0.930 . S
C4457 C4456 1.377 . S
C4457 C4458 1.379 . S
C4458 H4442 0.931 . S
C4458 C4452 1.383 . S
C4458 C4457 1.379 . S
H4459 C4453 0.959 . S
H4460 C4453 0.961 . S
H4461 C4453 0.960 . S
H4462 C4454 0.930 . S
H4463 C4455 0.929 . S
H4464 C4472 0.929 . S
H4465 C4474 0.930 . S
H4466 C4476 0.930 . S
H4467 C4479 0.929 . S
H4468 C4482 0.930 . S
H4469 C4484 0.960 . S
H4470 C4484 0.960 . S
H4471 C4484 0.960 . S
C4472 H4464 0.929 . S
C4472 C4473 1.377 . S
C4472 C4474 1.384 . S
C4473 C4472 1.377 . S
C4473 C4479 1.390 . S
C4474 H4465 0.930 . S
C4474 C4472 1.384 . S
C4474 C4475 1.372 . S
C4475 C4474 1.372 . S
C4475 C4476 1.400 . S
C4475 C4480 1.490 . S
C4476 H4466 0.930 . S
C4476 C4475 1.400 . S
C4476 C4479 1.386 . S
H4477 C4493 0.930 . S
H4478 C4494 0.931 . S
C4479 H4467 0.929 . S
C4479 C4473 1.390 . S
C4479 C4476 1.386 . S
C4480 C4475 1.490 . S
C4480 C4482 1.395 . S
C4480 C4483 1.403 . S
H4481 C4487 0.930 . S
C4482 H4468 0.930 . S
C4482 C4480 1.395 . S
C4482 C4485 1.403 . S
C4483 C4480 1.403 . S
C4483 C4484 1.524 . S
C4483 C4487 1.400 . S
C4484 H4469 0.960 . S
C4484 H4470 0.960 . S
C4484 H4471 0.960 . S
C4484 C4483 1.524 . S
C4485 C4482 1.403 . S
C4485 C4486 1.392 . S
C4485 C4489 1.495 . S
C4486 C4485 1.392 . S
C4486 C4487 1.385 . S
C4486 C4488 1.478 . S
C4487 H4481 0.930 . S
C4487 C4483 1.400 . S
C4487 C4486 1.385 . S
C4488 C4486 1.478 . S
C4488 C4490 1.381 . S
C4488 C4494 1.383 . S
C4489 C4485 1.495 . S
C4489 H4495 0.959 . S
C4489 H4496 0.961 . S
C4489 H4497 0.960 . S
C4490 C4488 1.381 . S
C4490 C4491 1.394 . S
C4490 H4498 0.930 . S
C4491 C4490 1.394 . S
C4491 C4492 1.383 . S
C4491 H4499 0.929 . S
C4492 C4491 1.383 . S
C4492 C4493 1.377 . S
C4493 H4477 0.930 . S
C4493 C4492 1.377 . S
C4493 C4494 1.379 . S
C4494 H4478 0.931 . S
C4494 C4488 1.383 . S
C4494 C4493 1.379 . S
H4495 C4489 0.959 . S
H4496 C4489 0.961 . S
H4497 C4489 0.960 . S
H4498 C4490 0.930 . S
H4499 C4491 0.929 . S
H4500 C4508 0.929 . S
H4501 C4510 0.930 . S
H4502 C4512 0.930 . S
H4503 C4515 0.929 . S
H4504 C4518 0.930 . S
H4505 C4520 0.960 . S
H4506 C4520 0.960 . S
H4507 C4520 0.960 . S
C4508 H4500 0.929 . S
C4508 C4509 1.377 . S
C4508 C4510 1.384 . S
C4509 C4508 1.377 . S
C4509 C4515 1.390 . S
C4510 H4501 0.930 . S
C4510 C4508 1.384 . S
C4510 C4511 1.372 . S
C4511 C4510 1.372 . S
C4511 C4512 1.400 . S
C4511 C4516 1.490 . S
C4512 H4502 0.930 . S
C4512 C4511 1.400 . S
C4512 C4515 1.386 . S
H4513 C4529 0.930 . S
H4514 C4530 0.931 . S
C4515 H4503 0.929 . S
C4515 C4509 1.390 . S
C4515 C4512 1.386 . S
C4516 C4511 1.490 . S
C4516 C4518 1.395 . S
C4516 C4519 1.403 . S
H4517 C4523 0.930 . S
C4518 H4504 0.930 . S
C4518 C4516 1.395 . S
C4518 C4521 1.403 . S
C4519 C4516 1.403 . S
C4519 C4520 1.524 . S
C4519 C4523 1.400 . S
C4520 H4505 0.960 . S
C4520 H4506 0.960 . S
C4520 H4507 0.960 . S
C4520 C4519 1.524 . S
C4521 C4518 1.403 . S
C4521 C4522 1.392 . S
C4521 C4525 1.495 . S
C4522 C4521 1.392 . S
C4522 C4523 1.385 . S
C4522 C4524 1.478 . S
C4523 H4517 0.930 . S
C4523 C4519 1.400 . S
C4523 C4522 1.385 . S
C4524 C4522 1.478 . S
C4524 C4526 1.381 . S
C4524 C4530 1.383 . S
C4525 C4521 1.495 . S
C4525 H4531 0.959 . S
C4525 H4532 0.961 . S
C4525 H4533 0.960 . S
C4526 C4524 1.381 . S
C4526 C4527 1.394 . S
C4526 H4534 0.930 . S
C4527 C4526 1.394 . S
C4527 C4528 1.383 . S
C4527 H4535 0.929 . S
C4528 C4527 1.383 . S
C4528 C4529 1.377 . S
C4529 H4513 0.930 . S
C4529 C4528 1.377 . S
C4529 C4530 1.379 . S
C4530 H4514 0.931 . S
C4530 C4524 1.383 . S
C4530 C4529 1.379 . S
H4531 C4525 0.959 . S
H4532 C4525 0.961 . S
H4533 C4525 0.960 . S
H4534 C4526 0.930 . S
H4535 C4527 0.929 . S
H4536 C4544 0.929 . S
H4537 C4546 0.930 . S
H4538 C4548 0.930 . S
H4539 C4551 0.929 . S
H4540 C4554 0.930 . S
H4541 C4556 0.960 . S
H4542 C4556 0.960 . S
H4543 C4556 0.960 . S
C4544 H4536 0.929 . S
C4544 C4545 1.377 . S
C4544 C4546 1.384 . S
C4545 C4544 1.377 . S
C4545 C4551 1.390 . S
C4546 H4537 0.930 . S
C4546 C4544 1.384 . S
C4546 C4547 1.372 . S
C4547 C4546 1.372 . S
C4547 C4548 1.400 . S
C4547 C4552 1.490 . S
C4548 H4538 0.930 . S
C4548 C4547 1.400 . S
C4548 C4551 1.386 . S
H4549 C4565 0.930 . S
H4550 C4566 0.931 . S
C4551 H4539 0.929 . S
C4551 C4545 1.390 . S
C4551 C4548 1.386 . S
C4552 C4547 1.490 . S
C4552 C4554 1.395 . S
C4552 C4555 1.403 . S
H4553 C4559 0.930 . S
C4554 H4540 0.930 . S
C4554 C4552 1.395 . S
C4554 C4557 1.403 . S
C4555 C4552 1.403 . S
C4555 C4556 1.524 . S
C4555 C4559 1.400 . S
C4556 H4541 0.960 . S
C4556 H4542 0.960 . S
C4556 H4543 0.960 . S
C4556 C4555 1.524 . S
C4557 C4554 1.403 . S
C4557 C4558 1.392 . S
C4557 C4561 1.495 . S
C4558 C4557 1.392 . S
C4558 C4559 1.385 . S
C4558 C4560 1.478 . S
C4559 H4553 0.930 . S
C4559 C4555 1.400 . S
C4559 C4558 1.385 . S
C4560 C4558 1.478 . S
C4560 C4562 1.381 . S
C4560 C4566 1.383 . S
C4561 C4557 1.495 . S
C4561 H4567 0.959 . S
C4561 H4568 0.961 . S
C4561 H4569 0.960 . S
C4562 C4560 1.381 . S
C4562 C4563 1.394 . S
C4562 H4570 0.930 . S
C4563 C4562 1.394 . S
C4563 C4564 1.383 . S
C4563 H4571 0.929 . S
C4564 C4563 1.383 . S
C4564 C4565 1.377 . S
C4565 H4549 0.930 . S
C4565 C4564 1.377 . S
C4565 C4566 1.379 . S
C4566 H4550 0.931 . S
C4566 C4560 1.383 . S
C4566 C4565 1.379 . S
H4567 C4561 0.959 . S
H4568 C4561 0.961 . S
H4569 C4561 0.960 . S
H4570 C4562 0.930 . S
H4571 C4563 0.929 . S
H4572 C4580 0.929 . S
H4573 C4582 0.930 . S
H4574 C4584 0.930 . S
H4575 C4587 0.929 . S
H4576 C4590 0.930 . S
H4577 C4592 0.960 . S
H4578 C4592 0.960 . S
H4579 C4592 0.960 . S
C4580 H4572 0.929 . S
C4580 C4581 1.377 . S
C4580 C4582 1.384 . S
C4581 C4580 1.377 . S
C4581 C4587 1.390 . S
C4582 H4573 0.930 . S
C4582 C4580 1.384 . S
C4582 C4583 1.372 . S
C4583 C4582 1.372 . S
C4583 C4584 1.400 . S
C4583 C4588 1.490 . S
C4584 H4574 0.930 . S
C4584 C4583 1.400 . S
C4584 C4587 1.386 . S
H4585 C4601 0.930 . S
H4586 C4602 0.931 . S
C4587 H4575 0.929 . S
C4587 C4581 1.390 . S
C4587 C4584 1.386 . S
C4588 C4583 1.490 . S
C4588 C4590 1.395 . S
C4588 C4591 1.403 . S
H4589 C4595 0.930 . S
C4590 H4576 0.930 . S
C4590 C4588 1.395 . S
C4590 C4593 1.403 . S
C4591 C4588 1.403 . S
C4591 C4592 1.524 . S
C4591 C4595 1.400 . S
C4592 H4577 0.960 . S
C4592 H4578 0.960 . S
C4592 H4579 0.960 . S
C4592 C4591 1.524 . S
C4593 C4590 1.403 . S
C4593 C4594 1.392 . S
C4593 C4597 1.495 . S
C4594 C4593 1.392 . S
C4594 C4595 1.385 . S
C4594 C4596 1.478 . S
C4595 H4589 0.930 . S
C4595 C4591 1.400 . S
C4595 C4594 1.385 . S
C4596 C4594 1.478 . S
C4596 C4598 1.381 . S
C4596 C4602 1.383 . S
C4597 C4593 1.495 . S
C4597 H4603 0.959 . S
C4597 H4604 0.961 . S
C4597 H4605 0.960 . S
C4598 C4596 1.381 . S
C4598 C4599 1.394 . S
C4598 H4606 0.930 . S
C4599 C4598 1.394 . S
C4599 C4600 1.383 . S
C4599 H4607 0.929 . S
C4600 C4599 1.383 . S
C4600 C4601 1.377 . S
C4601 H4585 0.930 . S
C4601 C4600 1.377 . S
C4601 C4602 1.379 . S
C4602 H4586 0.931 . S
C4602 C4596 1.383 . S
C4602 C4601 1.379 . S
H4603 C4597 0.959 . S
H4604 C4597 0.961 . S
H4605 C4597 0.960 . S
H4606 C4598 0.930 . S
H4607 C4599 0.929 . S
H4608 C4616 0.929 . S
H4609 C4618 0.930 . S
H4610 C4620 0.930 . S
H4611 C4623 0.929 . S
H4612 C4626 0.930 . S
H4613 C4628 0.960 . S
H4614 C4628 0.960 . S
H4615 C4628 0.960 . S
C4616 H4608 0.929 . S
C4616 C4617 1.377 . S
C4616 C4618 1.384 . S
C4617 C4616 1.377 . S
C4617 C4623 1.390 . S
C4618 H4609 0.930 . S
C4618 C4616 1.384 . S
C4618 C4619 1.372 . S
C4619 C4618 1.372 . S
C4619 C4620 1.400 . S
C4619 C4624 1.490 . S
C4620 H4610 0.930 . S
C4620 C4619 1.400 . S
C4620 C4623 1.386 . S
H4621 C4637 0.930 . S
H4622 C4638 0.931 . S
C4623 H4611 0.929 . S
C4623 C4617 1.390 . S
C4623 C4620 1.386 . S
C4624 C4619 1.490 . S
C4624 C4626 1.395 . S
C4624 C4627 1.403 . S
H4625 C4631 0.930 . S
C4626 H4612 0.930 . S
C4626 C4624 1.395 . S
C4626 C4629 1.403 . S
C4627 C4624 1.403 . S
C4627 C4628 1.524 . S
C4627 C4631 1.400 . S
C4628 H4613 0.960 . S
C4628 H4614 0.960 . S
C4628 H4615 0.960 . S
C4628 C4627 1.524 . S
C4629 C4626 1.403 . S
C4629 C4630 1.392 . S
C4629 C4633 1.495 . S
C4630 C4629 1.392 . S
C4630 C4631 1.385 . S
C4630 C4632 1.478 . S
C4631 H4625 0.930 . S
C4631 C4627 1.400 . S
C4631 C4630 1.385 . S
C4632 C4630 1.478 . S
C4632 C4634 1.381 . S
C4632 C4638 1.383 1_655 S
C4633 C4629 1.495 . S
C4633 H4639 0.959 . S
C4633 H4640 0.961 . S
C4633 H4641 0.960 . S
C4634 C4632 1.381 . S
C4634 C4635 1.394 . S
C4634 H4642 0.930 . S
C4635 C4634 1.394 . S
C4635 C4636 1.383 1_655 S
C4635 H4643 0.929 . S
C4636 C4635 1.383 1_455 S
C4636 C4637 1.377 . S
C4637 H4621 0.930 . S
C4637 C4636 1.377 . S
C4637 C4638 1.379 . S
C4638 H4622 0.931 . S
C4638 C4632 1.383 1_455 S
C4638 C4637 1.379 . S
H4639 C4633 0.959 . S
H4640 C4633 0.961 . S
H4641 C4633 0.960 . S
H4642 C4634 0.930 . S
H4643 C4635 0.929 . S
H4644 C4652 0.929 . S
H4645 C4654 0.930 . S
H4646 C4656 0.930 . S
H4647 C4659 0.929 . S
H4648 C4662 0.930 . S
H4649 C4664 0.960 . S
H4650 C4664 0.960 . S
H4651 C4664 0.960 . S
C4652 H4644 0.929 . S
C4652 C4653 1.377 . S
C4652 C4654 1.384 . S
C4653 C4652 1.377 . S
C4653 C4659 1.390 . S
C4654 H4645 0.930 . S
C4654 C4652 1.384 . S
C4654 C4655 1.372 . S
C4655 C4654 1.372 . S
C4655 C4656 1.400 . S
C4655 C4660 1.490 . S
C4656 H4646 0.930 . S
C4656 C4655 1.400 . S
C4656 C4659 1.386 . S
H4657 C4673 0.930 . S
H4658 C4674 0.931 . S
C4659 H4647 0.929 . S
C4659 C4653 1.390 . S
C4659 C4656 1.386 . S
C4660 C4655 1.490 . S
C4660 C4662 1.395 . S
C4660 C4663 1.403 . S
H4661 C4667 0.930 . S
C4662 H4648 0.930 . S
C4662 C4660 1.395 . S
C4662 C4665 1.403 . S
C4663 C4660 1.403 . S
C4663 C4664 1.524 . S
C4663 C4667 1.400 . S
C4664 H4649 0.960 . S
C4664 H4650 0.960 . S
C4664 H4651 0.960 . S
C4664 C4663 1.524 . S
C4665 C4662 1.403 . S
C4665 C4666 1.392 . S
C4665 C4669 1.495 . S
C4666 C4665 1.392 . S
C4666 C4667 1.385 . S
C4666 C4668 1.478 . S
C4667 H4661 0.930 . S
C4667 C4663 1.400 . S
C4667 C4666 1.385 . S
C4668 C4666 1.478 . S
C4668 C4670 1.381 . S
C4668 C4674 1.383 . S
C4669 C4665 1.495 . S
C4669 H4675 0.959 . S
C4669 H4676 0.961 . S
C4669 H4677 0.960 . S
C4670 C4668 1.381 . S
C4670 C4671 1.394 . S
C4670 H4678 0.930 . S
C4671 C4670 1.394 . S
C4671 C4672 1.383 . S
C4671 H4679 0.929 . S
C4672 C4671 1.383 . S
C4672 C4673 1.377 . S
C4673 H4657 0.930 . S
C4673 C4672 1.377 . S
C4673 C4674 1.379 . S
C4674 H4658 0.931 . S
C4674 C4668 1.383 . S
C4674 C4673 1.379 . S
H4675 C4669 0.959 . S
H4676 C4669 0.961 . S
H4677 C4669 0.960 . S
H4678 C4670 0.930 . S
H4679 C4671 0.929 . S
H4680 C4688 0.929 . S
H4681 C4690 0.930 . S
H4682 C4692 0.930 . S
H4683 C4695 0.929 . S
H4684 C4698 0.930 . S
H4685 C4700 0.960 . S
H4686 C4700 0.960 . S
H4687 C4700 0.960 . S
C4688 H4680 0.929 . S
C4688 C4689 1.377 . S
C4688 C4690 1.384 . S
C4689 C4688 1.377 . S
C4689 C4695 1.390 . S
C4690 H4681 0.930 . S
C4690 C4688 1.384 . S
C4690 C4691 1.372 . S
C4691 C4690 1.372 . S
C4691 C4692 1.400 . S
C4691 C4696 1.490 . S
C4692 H4682 0.930 . S
C4692 C4691 1.400 . S
C4692 C4695 1.386 . S
H4693 C4709 0.930 . S
H4694 C4710 0.931 . S
C4695 H4683 0.929 . S
C4695 C4689 1.390 . S
C4695 C4692 1.386 . S
C4696 C4691 1.490 . S
C4696 C4698 1.395 . S
C4696 C4699 1.403 . S
H4697 C4703 0.930 . S
C4698 H4684 0.930 . S
C4698 C4696 1.395 . S
C4698 C4701 1.403 . S
C4699 C4696 1.403 . S
C4699 C4700 1.524 . S
C4699 C4703 1.400 . S
C4700 H4685 0.960 . S
C4700 H4686 0.960 . S
C4700 H4687 0.960 . S
C4700 C4699 1.524 . S
C4701 C4698 1.403 . S
C4701 C4702 1.392 . S
C4701 C4705 1.495 . S
C4702 C4701 1.392 . S
C4702 C4703 1.385 . S
C4702 C4704 1.478 . S
C4703 H4697 0.930 . S
C4703 C4699 1.400 . S
C4703 C4702 1.385 . S
C4704 C4702 1.478 . S
C4704 C4706 1.381 . S
C4704 C4710 1.383 . S
C4705 C4701 1.495 . S
C4705 H4711 0.959 . S
C4705 H4712 0.961 . S
C4705 H4713 0.960 . S
C4706 C4704 1.381 . S
C4706 C4707 1.394 . S
C4706 H4714 0.930 . S
C4707 C4706 1.394 . S
C4707 C4708 1.383 . S
C4707 H4715 0.929 . S
C4708 C4707 1.383 . S
C4708 C4709 1.377 . S
C4709 H4693 0.930 . S
C4709 C4708 1.377 . S
C4709 C4710 1.379 . S
C4710 H4694 0.931 . S
C4710 C4704 1.383 . S
C4710 C4709 1.379 . S
H4711 C4705 0.959 . S
H4712 C4705 0.961 . S
H4713 C4705 0.960 . S
H4714 C4706 0.930 . S
H4715 C4707 0.929 . S
H4716 C4724 0.929 . S
H4717 C4726 0.930 . S
H4718 C4728 0.930 . S
H4719 C4731 0.929 . S
H4720 C4734 0.930 . S
H4721 C4736 0.960 . S
H4722 C4736 0.960 . S
H4723 C4736 0.960 . S
C4724 H4716 0.929 . S
C4724 C4725 1.377 . S
C4724 C4726 1.384 . S
C4725 C4724 1.377 . S
C4725 C4731 1.390 . S
C4726 H4717 0.930 . S
C4726 C4724 1.384 . S
C4726 C4727 1.372 . S
C4727 C4726 1.372 . S
C4727 C4728 1.400 . S
C4727 C4732 1.490 . S
C4728 H4718 0.930 . S
C4728 C4727 1.400 . S
C4728 C4731 1.386 . S
H4729 C4745 0.930 . S
H4730 C4746 0.931 . S
C4731 H4719 0.929 . S
C4731 C4725 1.390 . S
C4731 C4728 1.386 . S
C4732 C4727 1.490 . S
C4732 C4734 1.395 . S
C4732 C4735 1.403 . S
H4733 C4739 0.930 . S
C4734 H4720 0.930 . S
C4734 C4732 1.395 . S
C4734 C4737 1.403 . S
C4735 C4732 1.403 . S
C4735 C4736 1.524 . S
C4735 C4739 1.400 . S
C4736 H4721 0.960 . S
C4736 H4722 0.960 . S
C4736 H4723 0.960 . S
C4736 C4735 1.524 . S
C4737 C4734 1.403 . S
C4737 C4738 1.392 . S
C4737 C4741 1.495 . S
C4738 C4737 1.392 . S
C4738 C4739 1.385 . S
C4738 C4740 1.478 . S
C4739 H4733 0.930 . S
C4739 C4735 1.400 . S
C4739 C4738 1.385 . S
C4740 C4738 1.478 . S
C4740 C4742 1.381 . S
C4740 C4746 1.383 . S
C4741 C4737 1.495 . S
C4741 H4747 0.959 . S
C4741 H4748 0.961 . S
C4741 H4749 0.960 . S
C4742 C4740 1.381 . S
C4742 C4743 1.394 . S
C4742 H4750 0.930 . S
C4743 C4742 1.394 . S
C4743 C4744 1.383 . S
C4743 H4751 0.929 . S
C4744 C4743 1.383 . S
C4744 C4745 1.377 . S
C4745 H4729 0.930 . S
C4745 C4744 1.377 . S
C4745 C4746 1.379 . S
C4746 H4730 0.931 . S
C4746 C4740 1.383 . S
C4746 C4745 1.379 . S
H4747 C4741 0.959 . S
H4748 C4741 0.961 . S
H4749 C4741 0.960 . S
H4750 C4742 0.930 . S
H4751 C4743 0.929 . S
H4752 C4760 0.929 . S
H4753 C4762 0.930 . S
H4754 C4764 0.930 . S
H4755 C4767 0.929 . S
H4756 C4770 0.930 . S
H4757 C4772 0.960 . S
H4758 C4772 0.960 . S
H4759 C4772 0.960 . S
C4760 H4752 0.929 . S
C4760 C4761 1.377 . S
C4760 C4762 1.384 . S
C4761 C4760 1.377 . S
C4761 C4767 1.390 . S
C4762 H4753 0.930 . S
C4762 C4760 1.384 . S
C4762 C4763 1.372 . S
C4763 C4762 1.372 . S
C4763 C4764 1.400 . S
C4763 C4768 1.490 . S
C4764 H4754 0.930 . S
C4764 C4763 1.400 . S
C4764 C4767 1.386 . S
H4765 C4781 0.930 . S
H4766 C4782 0.931 . S
C4767 H4755 0.929 . S
C4767 C4761 1.390 . S
C4767 C4764 1.386 . S
C4768 C4763 1.490 . S
C4768 C4770 1.395 . S
C4768 C4771 1.403 . S
H4769 C4775 0.930 . S
C4770 H4756 0.930 . S
C4770 C4768 1.395 . S
C4770 C4773 1.403 . S
C4771 C4768 1.403 . S
C4771 C4772 1.524 . S
C4771 C4775 1.400 . S
C4772 H4757 0.960 . S
C4772 H4758 0.960 . S
C4772 H4759 0.960 . S
C4772 C4771 1.524 . S
C4773 C4770 1.403 . S
C4773 C4774 1.392 . S
C4773 C4777 1.495 . S
C4774 C4773 1.392 . S
C4774 C4775 1.385 . S
C4774 C4776 1.478 . S
C4775 H4769 0.930 . S
C4775 C4771 1.400 . S
C4775 C4774 1.385 . S
C4776 C4774 1.478 . S
C4776 C4778 1.381 . S
C4776 C4782 1.383 . S
C4777 C4773 1.495 . S
C4777 H4783 0.959 . S
C4777 H4784 0.961 . S
C4777 H4785 0.960 . S
C4778 C4776 1.381 . S
C4778 C4779 1.416 . S
C4778 H4786 0.958 . S
C4779 C4778 1.416 . S
C4779 C4780 1.405 . S
C4779 H4787 0.888 1_655 S
C4780 C4779 1.405 . S
C4780 C4781 1.377 . S
C4781 H4765 0.930 . S
C4781 C4780 1.377 . S
C4781 C4782 1.379 . S
C4782 H4766 0.931 . S
C4782 C4776 1.383 . S
C4782 C4781 1.379 . S
H4783 C4777 0.959 . S
H4784 C4777 0.961 . S
H4785 C4777 0.960 . S
H4786 C4778 0.958 . S
H4787 C4779 0.888 1_455 S
H4788 C4796 0.929 . S
H4789 C4798 0.930 . S
H4790 C4800 0.930 . S
H4791 C4803 0.929 . S
H4792 C4806 0.930 . S
H4793 C4808 0.960 . S
H4794 C4808 0.960 . S
H4795 C4808 0.960 . S
C4796 H4788 0.929 . S
C4796 C4797 1.377 . S
C4796 C4798 1.384 . S
C4797 C4796 1.377 . S
C4797 C4803 1.390 . S
C4798 H4789 0.930 . S
C4798 C4796 1.384 . S
C4798 C4799 1.372 . S
C4799 C4798 1.372 . S
C4799 C4800 1.400 . S
C4799 C4804 1.490 . S
C4800 H4790 0.930 . S
C4800 C4799 1.400 . S
C4800 C4803 1.386 . S
H4801 C4817 0.930 . S
H4802 C4818 0.931 . S
C4803 H4791 0.929 . S
C4803 C4797 1.390 . S
C4803 C4800 1.386 . S
C4804 C4799 1.490 . S
C4804 C4806 1.395 . S
C4804 C4807 1.403 . S
H4805 C4811 0.930 . S
C4806 H4792 0.930 . S
C4806 C4804 1.395 . S
C4806 C4809 1.403 . S
C4807 C4804 1.403 . S
C4807 C4808 1.524 . S
C4807 C4811 1.400 . S
C4808 H4793 0.960 . S
C4808 H4794 0.960 . S
C4808 H4795 0.960 . S
C4808 C4807 1.524 . S
C4809 C4806 1.403 . S
C4809 C4810 1.392 . S
C4809 C4813 1.495 . S
C4810 C4809 1.392 . S
C4810 C4811 1.385 . S
C4810 C4812 1.478 . S
C4811 H4805 0.930 . S
C4811 C4807 1.400 . S
C4811 C4810 1.385 . S
C4812 C4810 1.478 . S
C4812 C4814 1.381 . S
C4812 C4818 1.383 . S
C4813 C4809 1.495 . S
C4813 H4819 0.959 . S
C4813 H4820 0.961 . S
C4813 H4821 0.960 . S
C4814 C4812 1.381 . S
C4814 C4815 1.394 . S
C4814 H4822 0.930 . S
C4815 C4814 1.394 . S
C4815 C4816 1.383 . S
C4815 H4823 0.929 . S
C4816 C4815 1.383 . S
C4816 C4817 1.377 . S
C4817 H4801 0.930 . S
C4817 C4816 1.377 . S
C4817 C4818 1.379 . S
C4818 H4802 0.931 . S
C4818 C4812 1.383 . S
C4818 C4817 1.379 . S
H4819 C4813 0.959 . S
H4820 C4813 0.961 . S
H4821 C4813 0.960 . S
H4822 C4814 0.930 . S
H4823 C4815 0.929 . S
H4824 C4832 0.929 . S
H4825 C4834 0.930 . S
H4826 C4836 0.930 . S
H4827 C4839 0.929 . S
H4828 C4842 0.930 . S
H4829 C4844 0.960 . S
H4830 C4844 0.960 . S
H4831 C4844 0.960 . S
C4832 H4824 0.929 . S
C4832 C4833 1.377 . S
C4832 C4834 1.384 . S
C4833 C4832 1.377 . S
C4833 C4839 1.390 . S
C4834 H4825 0.930 . S
C4834 C4832 1.384 . S
C4834 C4835 1.372 . S
C4835 C4834 1.372 . S
C4835 C4836 1.400 . S
C4835 C4840 1.490 . S
C4836 H4826 0.930 . S
C4836 C4835 1.400 . S
C4836 C4839 1.386 . S
H4837 C4853 0.930 . S
H4838 C4854 0.931 . S
C4839 H4827 0.929 . S
C4839 C4833 1.390 . S
C4839 C4836 1.386 . S
C4840 C4835 1.490 . S
C4840 C4842 1.395 . S
C4840 C4843 1.403 . S
H4841 C4847 0.930 . S
C4842 H4828 0.930 . S
C4842 C4840 1.395 . S
C4842 C4845 1.403 . S
C4843 C4840 1.403 . S
C4843 C4844 1.524 . S
C4843 C4847 1.400 . S
C4844 H4829 0.960 . S
C4844 H4830 0.960 . S
C4844 H4831 0.960 . S
C4844 C4843 1.524 . S
C4845 C4842 1.403 . S
C4845 C4846 1.392 . S
C4845 C4849 1.495 . S
C4846 C4845 1.392 . S
C4846 C4847 1.385 . S
C4846 C4848 1.478 . S
C4847 H4841 0.930 . S
C4847 C4843 1.400 . S
C4847 C4846 1.385 . S
C4848 C4846 1.478 . S
C4848 C4850 1.381 . S
C4848 C4854 1.383 . S
C4849 C4845 1.495 . S
C4849 H4855 0.959 . S
C4849 H4856 0.961 . S
C4849 H4857 0.960 . S
C4850 C4848 1.381 . S
C4850 C4851 1.394 . S
C4850 H4858 0.930 . S
C4851 C4850 1.394 . S
C4851 C4852 1.383 . S
C4851 H4859 0.929 . S
C4852 C4851 1.383 . S
C4852 C4853 1.377 . S
C4853 H4837 0.930 . S
C4853 C4852 1.377 . S
C4853 C4854 1.379 . S
C4854 H4838 0.931 . S
C4854 C4848 1.383 . S
C4854 C4853 1.379 . S
H4855 C4849 0.959 . S
H4856 C4849 0.961 . S
H4857 C4849 0.960 . S
H4858 C4850 0.930 . S
H4859 C4851 0.929 . S
H4860 C4868 0.929 . S
H4861 C4870 0.930 . S
H4862 C4872 0.930 . S
H4863 C4875 0.929 . S
H4864 C4878 0.930 . S
H4865 C4880 0.960 . S
H4866 C4880 0.960 . S
H4867 C4880 0.960 . S
C4868 H4860 0.929 . S
C4868 C4869 1.377 . S
C4868 C4870 1.384 . S
C4869 C4868 1.377 . S
C4869 C4875 1.390 . S
C4870 H4861 0.930 . S
C4870 C4868 1.384 . S
C4870 C4871 1.372 . S
C4871 C4870 1.372 . S
C4871 C4872 1.400 . S
C4871 C4876 1.490 . S
C4872 H4862 0.930 . S
C4872 C4871 1.400 . S
C4872 C4875 1.386 . S
H4873 C4889 0.930 1_545 S
H4874 C4890 0.931 . S
C4875 H4863 0.929 . S
C4875 C4869 1.390 . S
C4875 C4872 1.386 . S
C4876 C4871 1.490 . S
C4876 C4878 1.395 . S
C4876 C4879 1.403 . S
H4877 C4883 0.930 . S
C4878 H4864 0.930 . S
C4878 C4876 1.395 . S
C4878 C4881 1.403 . S
C4879 C4876 1.403 . S
C4879 C4880 1.524 . S
C4879 C4883 1.400 . S
C4880 H4865 0.960 . S
C4880 H4866 0.960 . S
C4880 H4867 0.960 . S
C4880 C4879 1.524 . S
C4881 C4878 1.403 . S
C4881 C4882 1.392 . S
C4881 C4885 1.495 . S
C4882 C4881 1.392 . S
C4882 C4883 1.385 . S
C4882 C4884 1.478 . S
C4883 H4877 0.930 . S
C4883 C4879 1.400 . S
C4883 C4882 1.385 . S
C4884 C4882 1.478 . S
C4884 C4886 1.381 . S
C4884 C4890 1.383 . S
C4885 C4881 1.495 . S
C4885 H4891 0.959 . S
C4885 H4892 0.961 . S
C4885 H4893 0.960 . S
C4886 C4884 1.381 . S
C4886 C4887 1.394 . S
C4886 H4894 0.930 . S
C4887 C4886 1.394 . S
C4887 C4888 1.383 . S
C4887 H4895 0.929 1_655 S
C4888 C4887 1.383 . S
C4888 C4889 1.377 . S
C4889 H4873 0.930 1_565 S
C4889 C4888 1.377 . S
C4889 C4890 1.379 . S
C4890 H4874 0.931 . S
C4890 C4884 1.383 . S
C4890 C4889 1.379 . S
H4891 C4885 0.959 . S
H4892 C4885 0.961 . S
H4893 C4885 0.960 . S
H4894 C4886 0.930 . S
H4895 C4887 0.929 1_455 S
H4896 C4904 0.929 . S
H4897 C4906 0.930 . S
H4898 C4908 0.930 . S
H4899 C4911 0.929 . S
H4900 C4914 0.930 . S
H4901 C4916 0.960 . S
H4902 C4916 0.960 . S
H4903 C4916 0.960 . S
C4904 H4896 0.929 . S
C4904 C4905 1.377 . S
C4904 C4906 1.384 . S
C4905 C4904 1.377 . S
C4905 C4911 1.390 . S
C4906 H4897 0.930 . S
C4906 C4904 1.384 . S
C4906 C4907 1.372 . S
C4907 C4906 1.372 . S
C4907 C4908 1.400 . S
C4907 C4912 1.490 . S
C4908 H4898 0.930 . S
C4908 C4907 1.400 . S
C4908 C4911 1.386 . S
H4909 C4925 0.930 . S
H4910 C4926 0.931 . S
C4911 H4899 0.929 . S
C4911 C4905 1.390 . S
C4911 C4908 1.386 . S
C4912 C4907 1.490 . S
C4912 C4914 1.395 . S
C4912 C4915 1.403 . S
H4913 C4919 0.930 . S
C4914 H4900 0.930 . S
C4914 C4912 1.395 . S
C4914 C4917 1.403 . S
C4915 C4912 1.403 . S
C4915 C4916 1.524 . S
C4915 C4919 1.400 . S
C4916 H4901 0.960 . S
C4916 H4902 0.960 . S
C4916 H4903 0.960 . S
C4916 C4915 1.524 . S
C4917 C4914 1.403 . S
C4917 C4918 1.392 . S
C4917 C4921 1.495 . S
C4918 C4917 1.392 . S
C4918 C4919 1.385 . S
C4918 C4920 1.478 . S
C4919 H4913 0.930 . S
C4919 C4915 1.400 . S
C4919 C4918 1.385 . S
C4920 C4918 1.478 . S
C4920 C4922 1.381 . S
C4920 C4926 1.383 . S
C4921 C4917 1.495 . S
C4921 H4927 0.959 . S
C4921 H4928 0.961 . S
C4921 H4929 0.960 . S
C4922 C4920 1.381 . S
C4922 C4923 1.394 . S
C4922 H4930 0.930 . S
C4923 C4922 1.394 . S
C4923 C4924 1.383 . S
C4923 H4931 0.929 . S
C4924 C4923 1.383 . S
C4924 C4925 1.377 . S
C4925 H4909 0.930 . S
C4925 C4924 1.377 . S
C4925 C4926 1.379 . S
C4926 H4910 0.931 . S
C4926 C4920 1.383 . S
C4926 C4925 1.379 . S
H4927 C4921 0.959 . S
H4928 C4921 0.961 . S
H4929 C4921 0.960 . S
H4930 C4922 0.930 . S
H4931 C4923 0.929 . S
H4932 C4940 0.929 . S
H4933 C4942 0.930 . S
H4934 C4944 0.916 1_556 S
H4935 C4947 0.929 1_556 S
H4936 C4950 0.930 . S
H4937 C4952 0.960 . S
H4938 C4952 0.960 . S
H4939 C4952 0.960 . S
C4940 H4932 0.929 . S
C4940 C4941 1.377 . S
C4940 C4942 1.384 . S
C4941 C4940 1.377 . S
C4941 C4947 1.390 . S
C4942 H4933 0.930 . S
C4942 C4940 1.384 . S
C4942 C4943 1.372 . S
C4943 C4942 1.372 . S
C4943 C4944 1.414 . S
C4943 C4948 1.490 . S
C4944 H4934 0.916 1_554 S
C4944 C4943 1.414 . S
C4944 C4947 1.384 . S
H4945 C4961 0.930 . S
H4946 C4962 0.931 . S
C4947 H4935 0.929 1_554 S
C4947 C4941 1.390 . S
C4947 C4944 1.384 . S
C4948 C4943 1.490 . S
C4948 C4950 1.395 . S
C4948 C4951 1.403 . S
H4949 C4955 0.930 1_556 S
C4950 H4936 0.930 . S
C4950 C4948 1.395 . S
C4950 C4953 1.403 . S
C4951 C4948 1.403 . S
C4951 C4952 1.524 1_554 S
C4951 C4955 1.400 . S
C4952 H4937 0.960 . S
C4952 H4938 0.960 . S
C4952 H4939 0.960 . S
C4952 C4951 1.524 1_556 S
C4953 C4950 1.403 . S
C4953 C4954 1.392 . S
C4953 C4957 1.495 . S
C4954 C4953 1.392 . S
C4954 C4955 1.385 . S
C4954 C4956 1.478 . S
C4955 H4949 0.930 1_554 S
C4955 C4951 1.400 . S
C4955 C4954 1.385 . S
C4956 C4954 1.478 . S
C4956 C4958 1.381 . S
C4956 C4962 1.383 1_554 S
C4957 C4953 1.495 . S
C4957 H4963 0.959 . S
C4957 H4964 0.961 . S
C4957 H4965 0.960 . S
C4958 C4956 1.381 . S
C4958 C4959 1.394 . S
C4958 H4966 0.930 . S
C4959 C4958 1.394 . S
C4959 C4960 1.383 . S
C4959 H4967 0.929 . S
C4960 C4959 1.383 . S
C4960 C4961 1.377 1_554 S
C4961 H4945 0.930 . S
C4961 C4960 1.377 1_556 S
C4961 C4962 1.379 . S
C4962 H4946 0.931 . S
C4962 C4956 1.383 1_556 S
C4962 C4961 1.379 . S
H4963 C4957 0.959 . S
H4964 C4957 0.961 . S
H4965 C4957 0.960 . S
H4966 C4958 0.930 . S
H4967 C4959 0.929 . S
H4968 C4976 0.929 . S
H4969 C4978 0.930 . S
H4970 C4980 0.930 . S
H4971 C4983 0.929 . S
H4972 C4986 0.930 . S
H4973 C4988 0.960 . S
H4974 C4988 0.960 . S
H4975 C4988 0.960 . S
C4976 H4968 0.929 . S
C4976 C4977 1.377 . S
C4976 C4978 1.384 . S
C4977 C4976 1.377 . S
C4977 C4983 1.390 . S
C4978 H4969 0.930 . S
C4978 C4976 1.384 . S
C4978 C4979 1.372 . S
C4979 C4978 1.372 . S
C4979 C4980 1.400 . S
C4979 C4984 1.490 . S
C4980 H4970 0.930 . S
C4980 C4979 1.400 . S
C4980 C4983 1.386 . S
H4981 C4997 0.930 . S
H4982 C4998 0.931 . S
C4983 H4971 0.929 . S
C4983 C4977 1.390 . S
C4983 C4980 1.386 . S
C4984 C4979 1.490 . S
C4984 C4986 1.395 . S
C4984 C4987 1.403 . S
H4985 C4991 0.930 . S
C4986 H4972 0.930 . S
C4986 C4984 1.395 . S
C4986 C4989 1.403 . S
C4987 C4984 1.403 . S
C4987 C4988 1.524 . S
C4987 C4991 1.400 . S
C4988 H4973 0.960 . S
C4988 H4974 0.960 . S
C4988 H4975 0.960 . S
C4988 C4987 1.524 . S
C4989 C4986 1.403 . S
C4989 C4990 1.392 . S
C4989 C4993 1.495 . S
C4990 C4989 1.392 . S
C4990 C4991 1.385 . S
C4990 C4992 1.478 . S
C4991 H4985 0.930 . S
C4991 C4987 1.400 . S
C4991 C4990 1.385 . S
C4992 C4990 1.478 . S
C4992 C4994 1.381 . S
C4992 C4998 1.383 . S
C4993 C4989 1.495 . S
C4993 H4999 0.959 . S
C4993 H5000 0.961 . S
C4993 H5001 0.960 . S
C4994 C4992 1.381 . S
C4994 C4995 1.394 . S
C4994 H5002 0.930 . S
C4995 C4994 1.394 . S
C4995 C4996 1.383 . S
C4995 H5003 0.929 . S
C4996 C4995 1.383 . S
C4996 C4997 1.377 . S
C4997 H4981 0.930 . S
C4997 C4996 1.377 . S
C4997 C4998 1.379 . S
C4998 H4982 0.931 . S
C4998 C4992 1.383 . S
C4998 C4997 1.379 . S
H4999 C4993 0.959 . S
H5000 C4993 0.961 . S
H5001 C4993 0.960 . S
H5002 C4994 0.930 . S
H5003 C4995 0.929 . S
H5004 C5012 0.929 . S
H5005 C5014 0.930 . S
H5006 C5016 0.930 . S
H5007 C5019 0.929 . S
H5008 C5022 0.930 . S
H5009 C5024 0.960 1_556 S
H5010 C5024 0.960 1_556 S
H5011 C5024 0.960 . S
C5012 H5004 0.929 . S
C5012 C5013 1.377 . S
C5012 C5014 1.384 . S
C5013 C5012 1.377 . S
C5013 C5019 1.390 . S
C5014 H5005 0.930 . S
C5014 C5012 1.384 . S
C5014 C5015 1.372 . S
C5015 C5014 1.372 . S
C5015 C5016 1.400 . S
C5015 C5020 1.490 . S
C5016 H5006 0.930 . S
C5016 C5015 1.400 . S
C5016 C5019 1.386 . S
H5017 C5033 0.930 . S
H5018 C5034 0.931 . S
C5019 H5007 0.929 . S
C5019 C5013 1.390 . S
C5019 C5016 1.386 . S
C5020 C5015 1.490 . S
C5020 C5022 1.395 . S
C5020 C5023 1.403 . S
H5021 C5027 0.930 . S
C5022 H5008 0.930 . S
C5022 C5020 1.395 . S
C5022 C5025 1.403 . S
C5023 C5020 1.403 . S
C5023 C5024 1.524 . S
C5023 C5027 1.400 . S
C5024 H5009 0.960 1_554 S
C5024 H5010 0.960 1_554 S
C5024 H5011 0.960 . S
C5024 C5023 1.524 . S
C5025 C5022 1.403 . S
C5025 C5026 1.392 . S
C5025 C5029 1.495 . S
C5026 C5025 1.392 . S
C5026 C5027 1.385 . S
C5026 C5028 1.478 . S
C5027 H5021 0.930 . S
C5027 C5023 1.400 . S
C5027 C5026 1.385 . S
C5028 C5026 1.478 . S
C5028 C5030 1.381 . S
C5028 C5034 1.383 . S
C5029 C5025 1.495 . S
C5029 H5035 0.959 . S
C5029 H5036 0.961 . S
C5029 H5037 0.960 . S
C5030 C5028 1.381 . S
C5030 C5031 1.394 . S
C5030 H5038 0.930 . S
C5031 C5030 1.394 . S
C5031 C5032 1.383 . S
C5031 H5039 0.929 . S
C5032 C5031 1.383 . S
C5032 C5033 1.377 . S
C5033 H5017 0.930 . S
C5033 C5032 1.377 . S
C5033 C5034 1.379 . S
C5034 H5018 0.931 . S
C5034 C5028 1.383 . S
C5034 C5033 1.379 . S
H5035 C5029 0.959 . S
H5036 C5029 0.961 . S
H5037 C5029 0.960 . S
H5038 C5030 0.930 . S
H5039 C5031 0.929 . S
H5040 C5048 0.929 1_545 S
H5041 C5050 0.930 . S
H5042 C5052 0.930 . S
H5043 C5055 0.929 . S
H5044 C5058 0.930 . S
H5045 C5060 0.960 . S
H5046 C5060 0.960 . S
H5047 C5060 0.960 . S
C5048 H5040 0.929 1_565 S
C5048 C5049 1.377 . S
C5048 C5050 1.384 . S
C5049 C5048 1.377 . S
C5049 C5055 1.390 . S
C5050 H5041 0.930 . S
C5050 C5048 1.384 . S
C5050 C5051 1.372 . S
C5051 C5050 1.372 . S
C5051 C5052 1.400 . S
C5051 C5056 1.490 . S
C5052 H5042 0.930 . S
C5052 C5051 1.400 . S
C5052 C5055 1.386 . S
H5053 C5069 0.930 . S
H5054 C5070 0.931 . S
C5055 H5043 0.929 . S
C5055 C5049 1.390 . S
C5055 C5052 1.386 . S
C5056 C5051 1.490 . S
C5056 C5058 1.395 . S
C5056 C5059 1.403 . S
H5057 C5063 0.930 . S
C5058 H5044 0.930 . S
C5058 C5056 1.395 . S
C5058 C5061 1.403 . S
C5059 C5056 1.403 . S
C5059 C5060 1.524 . S
C5059 C5063 1.400 . S
C5060 H5045 0.960 . S
C5060 H5046 0.960 . S
C5060 H5047 0.960 . S
C5060 C5059 1.524 . S
C5061 C5058 1.403 . S
C5061 C5062 1.392 . S
C5061 C5065 1.495 . S
C5062 C5061 1.392 . S
C5062 C5063 1.385 . S
C5062 C5064 1.478 . S
C5063 H5057 0.930 . S
C5063 C5059 1.400 . S
C5063 C5062 1.385 . S
C5064 C5062 1.478 . S
C5064 C5066 1.381 . S
C5064 C5070 1.383 . S
C5065 C5061 1.495 . S
C5065 H5071 0.959 . S
C5065 H5072 0.961 . S
C5065 H5073 0.960 . S
C5066 C5064 1.381 . S
C5066 C5067 1.394 . S
C5066 H5074 0.930 . S
C5067 C5066 1.394 . S
C5067 C5068 1.383 . S
C5067 H5075 0.929 . S
C5068 C5067 1.383 . S
C5068 C5069 1.377 . S
C5069 H5053 0.930 . S
C5069 C5068 1.377 . S
C5069 C5070 1.379 . S
C5070 H5054 0.931 . S
C5070 C5064 1.383 . S
C5070 C5069 1.379 . S
H5071 C5065 0.959 . S
H5072 C5065 0.961 . S
H5073 C5065 0.960 . S
H5074 C5066 0.930 . S
H5075 C5067 0.929 . S
H5076 C5084 0.929 . S
H5077 C5086 0.930 . S
H5078 C5088 0.930 . S
H5079 C5091 0.929 . S
H5080 C5094 0.930 . S
H5081 C5096 0.960 . S
H5082 C5096 0.960 . S
H5083 C5096 0.960 . S
C5084 H5076 0.929 . S
C5084 C5085 1.377 . S
C5084 C5086 1.384 . S
C5085 C5084 1.377 . S
C5085 C5091 1.390 . S
C5086 H5077 0.930 . S
C5086 C5084 1.384 . S
C5086 C5087 1.372 . S
C5087 C5086 1.372 . S
C5087 C5088 1.400 . S
C5087 C5092 1.490 . S
C5088 H5078 0.930 . S
C5088 C5087 1.400 . S
C5088 C5091 1.386 . S
H5089 C5105 0.930 . S
H5090 C5106 0.931 . S
C5091 H5079 0.929 . S
C5091 C5085 1.390 . S
C5091 C5088 1.386 . S
C5092 C5087 1.490 . S
C5092 C5094 1.395 . S
C5092 C5095 1.403 . S
H5093 C5099 0.930 . S
C5094 H5080 0.930 . S
C5094 C5092 1.395 . S
C5094 C5097 1.403 . S
C5095 C5092 1.403 . S
C5095 C5096 1.524 . S
C5095 C5099 1.400 . S
C5096 H5081 0.960 . S
C5096 H5082 0.960 . S
C5096 H5083 0.960 . S
C5096 C5095 1.524 . S
C5097 C5094 1.403 . S
C5097 C5098 1.392 . S
C5097 C5101 1.495 . S
C5098 C5097 1.392 . S
C5098 C5099 1.385 . S
C5098 C5100 1.478 . S
C5099 H5093 0.930 . S
C5099 C5095 1.400 . S
C5099 C5098 1.385 . S
C5100 C5098 1.478 . S
C5100 C5102 1.381 . S
C5100 C5106 1.383 . S
C5101 C5097 1.495 . S
C5101 H5107 0.959 . S
C5101 H5108 0.961 . S
C5101 H5109 0.960 . S
C5102 C5100 1.381 . S
C5102 C5103 1.394 . S
C5102 H5110 0.930 . S
C5103 C5102 1.394 . S
C5103 C5104 1.383 . S
C5103 H5111 0.929 . S
C5104 C5103 1.383 . S
C5104 C5105 1.377 . S
C5105 H5089 0.930 . S
C5105 C5104 1.377 . S
C5105 C5106 1.379 . S
C5106 H5090 0.931 . S
C5106 C5100 1.383 . S
C5106 C5105 1.379 . S
H5107 C5101 0.959 . S
H5108 C5101 0.961 . S
H5109 C5101 0.960 . S
H5110 C5102 0.930 . S
H5111 C5103 0.929 . S
C1665 C101 1.490 . S
C1684 C368 1.332 . S
C1701 C57 2.134 . S
C1720 C459 2.099 . S
C1737 C70 1.222 . S
C1756 C536 1.129 . S
C1792 C634 1.530 . S
C1773 C82 1.657 . S
C1809 C23 1.612 . S
C1828 C718 1.555 . S
C1864 C790 0.733 . S
C1845 C29 0.814 . S
C1900 C879 0.552 . S
C1881 C49 0.533 . S
C1917 C10 1.285 . S
C1936 C956 1.091 . S
C1972 C375 1.843 . S
C1953 C218 1.922 . S
C1989 C226 0.553 . S
C2008 C466 0.562 . S
C2044 C543 1.192 . S
C2025 C251 1.210 . S
C2080 C620 1.314 . S
C2061 C159 1.436 1_556 S
C2097 C211 1.961 . S
C2116 C704 1.809 . S
C2152 C806 1.033 . S
C2133 C225 1.101 . S
C2188 C886 0.635 . S
C2169 C252 0.689 . S
C2224 C963 1.288 . S
C2205 C166 1.375 . S
C2260 C382 1.414 . S
C2241 C147 1.524 . S
C2277 C263 1.911 . S
C2296 C1047 1.848 1_556 S
C2332 C1135 2.053 . S
C2313 C309 2.267 . S
C2368 C1208 0.496 . S
C2349 C291 0.141 . S
C2385 C108 0.792 . S
C2404 C970 0.783 . S
C2421 C121 1.447 . S
C2440 C550 1.439 . S
C2457 C302 2.242 . S
C2476 C1299 2.145 . S
C2512 C1376 0.730 . S
C2493 C276 0.554 . S
C2548 C379 1.704 1_565 S
C2529 C55 1.792 . S
C2584 C1394 2.356 . S
C2565 C96 2.431 . S
C2601 C88 1.680 . S
C2620 C547 1.571 . S
C2637 C75 1.943 . S
C2656 C1294 1.801 . S
C2692 C706 1.632 . S
C2673 C4 1.747 . S
C2709 C44 1.148 . S
C2728 C1138 1.005 . S
C2764 C890 1.030 . S
C2745 C31 1.010 . S
C2800 C1471 1.445 . S
C2781 C18 1.528 . S
C2836 C386 2.188 . S
C2817 C133 2.273 . S
C2872 C1378 0.794 . S
C2853 C296 0.799 . S
C2889 C107 1.443 . S
C2908 C554 1.408 . S
C2925 C264 1.853 . S
C2944 C1303 1.733 . S
C2961 C140 2.250 . S
C2980 C715 2.122 . S
C3016 C1131 1.272 . S
C2997 C289 1.329 . S
C3033 C114 0.983 . S
C3052 C874 0.942 . S
C3069 C265 1.734 . S
C3088 C1478 1.630 . S
C3105 C179 1.692 . S
C3124 C370 1.580 . S
C3141 C161 2.234 . S
C3160 C1058 2.163 . S
C3177 C244 2.577 . S
C3196 C788 2.401 . S
C3213 C224 0.709 . S
C3232 C1219 0.750 . S
C3268 C1462 0.737 . S
C3249 C257 0.754 1_565 S
C3285 C199 1.618 . S
C3304 C538 1.499 . S
C3340 C638 2.464 . S
C3321 C237 2.567 . S
C3376 C463 0.936 . S
C3357 C185 0.972 . S
C3393 C69 1.492 . S
C3412 C1544 1.392 . S
C3448 C1383 2.085 . S
C3429 C83 2.137 . S
C3465 C94 1.224 . S
C3484 C1628 1.116 . S
C3501 C56 1.658 . S
C3520 C1306 1.519 . S
C3537 C42 1.630 . S
C3556 C1054 1.544 . S
C3592 C1126 0.734 . S
C3573 C3 0.814 . S
C3628 C1215 0.567 . S
C3609 C16 0.543 . S
C3664 C1460 1.068 . S
C3645 C36 1.289 . S
C3700 C1551 1.839 . S
C3681 C238 1.922 . S
C3717 C174 0.557 . S
C3736 C1390 0.516 . S
C3772 C1635 1.186 . S
C3753 C186 1.211 . S
C3808 C1292 1.354 . S
C3789 C198 1.435 . S
C3844 C1040 1.796 . S
C3825 C239 1.962 . S
C3861 C173 1.099 . S
C3880 C1142 1.070 . S
C3916 C1222 0.752 . S
C3897 C187 0.680 . S
C3933 C205 1.372 . S
C3952 C1467 1.224 . S
C3988 C1558 1.446 . S
C3969 C290 1.522 . S
C4005 C122 1.917 . S
C4024 C711 1.840 . S
C4060 C799 2.104 . S
C4041 C134 2.282 . S
C4096 C872 0.569 . S
C4077 C148 0.131 . S
C4132 C1474 0.818 . S
C4113 C283 0.791 . S
C4149 C270 1.449 . S
C4168 C1642 1.392 . S
C4204 C627 2.154 . S
C4185 C135 2.237 . S
C4240 C452 0.728 . S
C4221 C109 0.553 . S
C4257 C81 1.788 . S
C4276 C1555 1.656 . S
C4312 C470 2.369 . S
C4293 C68 2.428 . S
C4329 C62 1.678 . S
C4348 C1639 1.584 . S
C4365 C95 1.942 . S
C4384 C622 1.801 . S
C4401 C30 1.746 . S
C4420 C1042 1.657 . S
C4456 C802 0.979 . S
C4437 C17 1.141 . S
C4473 C5 1.021 . S
C4492 C1226 0.984 . S
C4509 C43 1.518 . S
C4528 C967 1.376 . S
C4564 C1562 2.165 . S
C4545 C304 2.272 . S
C4581 C153 0.798 . S
C4600 C454 0.726 . S
C4636 C1646 1.365 . S
C4617 C278 1.446 . S
C4653 C127 1.854 . S
C4672 C631 1.739 . S
C4689 C303 2.240 . S
C4708 C1051 2.094 . S
C4744 C795 1.247 . S
C4725 C146 1.325 . S
C4761 C277 0.980 . S
C4780 C1210 0.846 . S
C4816 C974 1.621 . S
C4797 C120 1.731 . S
C4852 C1546 1.555 . S
C4833 C231 1.692 . S
C4888 C722 2.138 1_665 S
C4869 C200 2.234 . S
C4905 C212 2.581 . S
C4924 C1124 2.404 . S
C4960 C883 0.712 . S
C4941 C172 0.708 . S
C4977 C192 0.799 . S
C4996 C958 0.828 . S
C5013 C160 1.619 . S
C5032 C1630 1.552 . S
C5068 C1310 2.473 . S
C5049 C213 2.569 1_565 S
C5104 C1387 0.985 . S
C5085 C250 0.974 . S
