# Generated by pormake.
# Topology anh, (6,3)-cn, num edge types: 1
# Building blocks:
#     Node 0, Type 0, BuildingBlock: HISSIN_clean_sbu_0, # of connection points: 6
#     Node 1, Type 0, BuildingBlock: HISSIN_clean_sbu_0, # of connection points: 6
#     Node 2, Type 0, BuildingBlock: HISSIN_clean_sbu_0, # of connection points: 6
#     Node 3, Type 1, BuildingBlock: WUSLED_clean_sbu_0, # of connection points: 3
#     Node 4, Type 1, BuildingBlock: WUSLED_clean_sbu_0, # of connection points: 3
#     Node 5, Type 1, BuildingBlock: WUSLED_clean_sbu_0, # of connection points: 3
#     Node 6, Type 1, BuildingBlock: WUSLED_clean_sbu_0, # of connection points: 3
#     Node 7, Type 1, BuildingBlock: WUSLED_clean_sbu_0, # of connection points: 3
#     Node 8, Type 1, BuildingBlock: WUSLED_clean_sbu_0, # of connection points: 3
#     Edge 9, Type (0, 1), BuildingBlock: UVAHIK_clean_linker_0, # of connection points: 2
#     Edge 10, Type (0, 1), BuildingBlock: UVAHIK_clean_linker_0, # of connection points: 2
#     Edge 11, Type (0, 1), BuildingBlock: UVAHIK_clean_linker_0, # of connection points: 2
#     Edge 12, Type (0, 1), BuildingBlock: UVAHIK_clean_linker_0, # of connection points: 2
#     Edge 13, Type (0, 1), BuildingBlock: UVAHIK_clean_linker_0, # of connection points: 2
#     Edge 14, Type (0, 1), BuildingBlock: UVAHIK_clean_linker_0, # of connection points: 2
#     Edge 15, Type (0, 1), BuildingBlock: UVAHIK_clean_linker_0, # of connection points: 2
#     Edge 16, Type (0, 1), BuildingBlock: UVAHIK_clean_linker_0, # of connection points: 2
#     Edge 17, Type (0, 1), BuildingBlock: UVAHIK_clean_linker_0, # of connection points: 2
#     Edge 18, Type (0, 1), BuildingBlock: UVAHIK_clean_linker_0, # of connection points: 2
#     Edge 19, Type (0, 1), BuildingBlock: UVAHIK_clean_linker_0, # of connection points: 2
#     Edge 20, Type (0, 1), BuildingBlock: UVAHIK_clean_linker_0, # of connection points: 2
#     Edge 21, Type (0, 1), BuildingBlock: UVAHIK_clean_linker_0, # of connection points: 2
#     Edge 22, Type (0, 1), BuildingBlock: UVAHIK_clean_linker_0, # of connection points: 2
#     Edge 23, Type (0, 1), BuildingBlock: UVAHIK_clean_linker_0, # of connection points: 2
#     Edge 24, Type (0, 1), BuildingBlock: UVAHIK_clean_linker_0, # of connection points: 2
#     Edge 25, Type (0, 1), BuildingBlock: UVAHIK_clean_linker_0, # of connection points: 2
#     Edge 26, Type (0, 1), BuildingBlock: UVAHIK_clean_linker_0, # of connection points: 2
# Relax obj value: 0.188
# Max RMSD: 0.178
# Mean RMSD: 0.142
data_MOF--net-anh--node1-HISSIN_clean_sbu_0--node2-WUSLED_clean_sbu_0--edge1-UVAHIK_clean_linker_0
_symmetry_space_group_name_H-M    P1
_symmetry_Int_Tables_number       1
_symmetry_cell_setting            triclinic
loop_
_symmetry_equiv_pos_as_xyz
'x, y, z'
_cell_length_a     48.723617
_cell_length_b     48.6456
_cell_length_c     85.535145
_cell_angle_alpha  92.869654
_cell_angle_beta   90.676393
_cell_angle_gamma 120.0227
loop_
_atom_site_label
_atom_site_type_symbol
_atom_site_fract_x
_atom_site_fract_y
_atom_site_fract_z
_atom_type_partial_charge
Eu0 Eu 1.04072 0.50545 0.17486 0.0
Eu1 Eu 0.07819 0.58215 0.1774 0.0
C2 C 0.06147 0.54425 0.20849 0.0
C3 C 0.97482 0.42177 0.16657 0.0
C4 C 0.95064 0.42862 0.16985 0.0
C5 C 0.93689 0.3744 0.1509 0.0
C6 C 0.91979 0.40831 0.16396 0.0
C7 C 0.96784 0.3947 0.15695 0.0
C8 C 0.91245 0.38088 0.15444 0.0
C9 C 1.00748 0.44364 0.17254 0.0
O10 O 0.1188 0.57086 0.17731 0.0
O11 O 0.09164 0.51737 0.17011 0.0
C12 C 0.11872 0.54438 0.17281 0.0
O13 O 1.03584 0.52047 0.15101 0.0
O14 O 0.11478 0.62803 0.18802 0.0
O15 O 0.08447 0.62612 0.16872 0.0
O16 O 0.08266 0.56702 0.15283 0.0
C17 C 0.05921 0.54402 0.14433 0.0
O18 O 0.99993 0.51643 0.17592 0.0
O19 O 1.02688 0.56981 0.17206 0.0
O20 O 0.0616 0.56801 0.20182 0.0
O21 O 1.02743 0.4602 0.16209 0.0
O22 O 1.0105 0.46078 0.18539 0.0
O23 O 0.06064 0.52073 0.19988 0.0
C24 C 0.13816 0.66433 0.16866 0.0
C25 C 0.14863 0.65074 0.15703 0.0
C26 C 0.18245 0.71631 0.16426 0.0
C27 C 0.17605 0.66979 0.14914 0.0
C28 C 0.1549 0.69721 0.1721 0.0
C29 C 0.19356 0.70274 0.15284 0.0
C30 C 0.11026 0.64386 0.17738 0.0
C31 C 0.99986 0.54288 0.17305 0.0
H32 H 0.95547 0.4496 0.17709 0.0
H33 H 0.93212 0.35367 0.14347 0.0
H34 H 0.90156 0.41379 0.16722 0.0
H35 H 0.98632 0.38932 0.15409 0.0
H36 H 0.1359 0.62529 0.15425 0.0
H37 H 0.19573 0.74152 0.16764 0.0
H38 H 0.18386 0.65866 0.14037 0.0
H39 H 0.14712 0.70798 0.18108 0.0
Eu40 Eu 0.60536 1.03171 0.50875 0.0
Eu41 Eu 0.56374 0.06621 0.50898 0.0
C42 C 0.58513 0.05113 0.54227 0.0
C43 C 0.62407 0.96551 0.50239 0.0
C44 C 0.60402 0.94159 0.51207 0.0
C45 C 0.62138 0.92498 0.48362 0.0
C46 C 0.59284 0.90968 0.50758 0.0
C47 C 0.63275 0.95693 0.48817 0.0
C48 C 0.60132 0.90101 0.49329 0.0
C49 C 0.63469 0.99923 0.50651 0.0
O50 O 0.61441 0.10495 0.50313 0.0
O51 O 0.64395 0.08397 0.51218 0.0
C52 C 0.64239 0.10821 0.5069 0.0
O53 O 0.60868 0.0502 0.48482 0.0
O54 O 0.5567 0.10566 0.51654 0.0
O55 O 0.52428 0.06989 0.49914 0.0
O56 O 0.56032 0.04609 0.48438 0.0
C57 C 0.58443 0.048 0.47701 0.0
O58 O 0.55383 0.99133 0.50307 0.0
O59 O 0.52617 1.01474 0.51256 0.0
O60 O 0.5714 0.06446 0.53493 0.0
O61 O 0.63233 1.01494 0.49521 0.0
O62 O 0.62573 1.00603 0.51973 0.0
O63 O 0.59843 1.03696 0.53466 0.0
C64 C 0.54175 0.12326 0.49497 0.0
C65 C 0.56121 0.12674 0.48235 0.0
C66 C 0.54545 0.17348 0.48996 0.0
C67 C 0.57354 0.15393 0.47389 0.0
C68 C 0.53313 0.14624 0.49842 0.0
C69 C 0.56675 0.17814 0.47799 0.0
C70 C 0.53461 0.09827 0.50573 0.0
C71 C 0.52666 0.98914 0.50707 0.0
H72 H 0.59684 0.9474 0.52311 0.0
H73 H 0.62819 0.91905 0.47251 0.0
H74 H 0.57801 0.89184 0.51547 0.0
H75 H 0.64807 0.97497 0.48047 0.0
H76 H 0.56831 0.10926 0.47959 0.0
H77 H 0.54014 0.1919 0.49359 0.0
H78 H 0.5897 0.15677 0.4647 0.0
H79 H 0.5184 0.14402 0.50821 0.0
Eu80 Eu 0.54059 0.52873 0.84045 0.0
Eu81 Eu 0.61675 0.56931 0.84522 0.0
C82 C 0.57339 0.55062 0.8759 0.0
C83 C 0.46068 0.51771 0.83402 0.0
C84 C 0.47327 0.54878 0.8407 0.0
C85 C 0.41719 0.52112 0.82211 0.0
C86 C 0.45813 0.56602 0.83803 0.0
C87 C 0.43257 0.5039 0.82471 0.0
C88 C 0.42997 0.55244 0.82869 0.0
C89 C 0.47957 0.50207 0.83495 0.0
O90 O 0.60539 0.51797 0.8383 0.0
O91 O 0.55236 0.48915 0.84303 0.0
C92 C 0.57931 0.49021 0.83978 0.0
O93 O 0.55967 0.52308 0.81741 0.0
O94 O 0.66033 0.57705 0.85677 0.0
O95 O 0.6628 0.60712 0.83844 0.0
O96 O 0.60612 0.57006 0.81976 0.0
C97 C 0.58415 0.54608 0.81107 0.0
O98 O 0.55395 0.5803 0.83621 0.0
O99 O 0.60365 0.60839 0.84795 0.0
O100 O 0.60144 0.56139 0.87006 0.0
O101 O 0.49985 0.50917 0.82397 0.0
O102 O 0.49228 0.50359 0.8487 0.0
O103 O 0.54755 0.5395 0.86685 0.0
C104 C 0.70077 0.59028 0.83891 0.0
C105 C 0.70708 0.5961 0.82301 0.0
C106 C 0.73206 0.56413 0.83889 0.0
C107 C 0.72563 0.58586 0.81513 0.0
C108 C 0.71399 0.57477 0.84682 0.0
C109 C 0.7377 0.56928 0.82296 0.0
C110 C 0.67844 0.59765 0.84699 0.0
C111 C 0.57864 0.60776 0.84139 0.0
H112 H 0.49533 0.56009 0.84767 0.0
H113 H 0.39528 0.50991 0.81503 0.0
H114 H 0.46882 0.59021 0.84308 0.0
H115 H 0.42292 0.48013 0.81923 0.0
H116 H 0.69725 0.60803 0.81657 0.0
H117 H 0.74187 0.55208 0.84524 0.0
H118 H 0.73009 0.59035 0.80288 0.0
H119 H 0.70977 0.57021 0.85908 0.0
C120 C 0.56304 0.10675 0.20204 0.0
C121 C 0.58065 0.1384 0.20815 0.0
C122 C 0.60736 0.1537 0.1836 0.0
C123 C 0.60257 0.16183 0.19893 0.0
C124 C 0.589 0.12214 0.17742 0.0
C125 C 0.56693 0.09887 0.18658 0.0
U126 U 0.53644 0.06778 0.24125 0.0
O127 O 0.48794 1.03551 0.24846 0.0
O128 O 0.52173 1.01835 0.24584 0.0
C129 C 0.4919 1.01065 0.24693 0.0
C130 C 0.54201 0.08108 0.21173 0.0
C131 C 0.47071 0.98563 0.2352 0.0
C132 C 0.44956 0.97156 0.20834 0.0
C133 C 0.46443 0.99429 0.22075 0.0
C134 C 0.44637 0.93087 0.22471 0.0
C135 C 0.44087 0.93972 0.21009 0.0
C136 C 0.46127 0.95373 0.23719 0.0
C137 C 0.57751 0.10464 0.28068 0.0
C138 C 0.55368 0.09235 0.30604 0.0
C139 C 0.607 0.10174 0.30305 0.0
C140 C 0.60526 0.1072 0.28728 0.0
C141 C 0.58107 0.09387 0.31259 0.0
C142 C 0.55183 0.09748 0.29026 0.0
C143 C 0.575 0.10738 0.26367 0.0
O144 O 0.55502 0.06618 0.21819 0.0
O145 O 0.52423 0.0869 0.22123 0.0
O146 O 0.54974 0.10795 0.25848 0.0
O147 O 0.58189 0.08902 0.25476 0.0
H148 H 0.57807 0.14481 0.22014 0.0
H149 H 0.61674 0.18596 0.20399 0.0
H150 H 0.5922 0.11537 0.16562 0.0
H151 H 0.5535 0.07449 0.18172 0.0
H152 H 0.446 0.97918 0.19719 0.0
H153 H 0.47226 1.01894 0.21882 0.0
H154 H 0.43952 0.90639 0.22644 0.0
H155 H 0.46647 0.94675 0.24817 0.0
H156 H 0.53351 0.08704 0.3131 0.0
H157 H 0.62836 0.10282 0.30763 0.0
H158 H 0.62534 0.1126 0.28012 0.0
H159 H 0.53005 0.09531 0.28555 0.0
C160 C 0.62277 0.59041 0.53574 0.0
C161 C 0.61043 0.60678 0.5443 0.0
C162 C 0.60478 0.62901 0.5205 0.0
C163 C 0.60142 0.62591 0.53672 0.0
C164 C 0.61788 0.61314 0.51205 0.0
C165 C 0.62671 0.59383 0.51964 0.0
U166 U 0.63168 0.55402 0.57234 0.0
O167 O 0.61538 0.50395 0.57623 0.0
O168 O 0.66627 0.53907 0.57803 0.0
C169 C 0.64445 0.50877 0.57654 0.0
C170 C 0.63022 0.56866 0.5434 0.0
C171 C 0.64997 0.49042 0.56414 0.0
C172 C 0.6479 0.47634 0.53639 0.0
C173 C 0.64364 0.49375 0.54853 0.0
C174 C 0.66593 0.45257 0.55526 0.0
C175 C 0.6588 0.45538 0.53962 0.0
C176 C 0.66141 0.46999 0.5675 0.0
C177 C 0.6162 0.57887 0.61237 0.0
C178 C 0.60723 0.5466 0.63455 0.0
C179 C 0.61577 0.60008 0.63857 0.0
C180 C 0.61889 0.60373 0.62247 0.0
C181 C 0.60973 0.5714 0.64474 0.0
C182 C 0.6106 0.55037 0.61849 0.0
C183 C 0.61901 0.58266 0.59548 0.0
O184 O 0.6562 0.5822 0.55246 0.0
O185 O 0.60598 0.54511 0.54975 0.0
O186 O 0.59697 0.55857 0.58667 0.0
O187 O 0.64775 0.59352 0.59035 0.0
H188 H 0.6074 0.6044 0.55679 0.0
H189 H 0.59191 0.63836 0.54353 0.0
H190 H 0.62065 0.61514 0.49953 0.0
H191 H 0.63618 0.58121 0.51291 0.0
H192 H 0.64255 0.47919 0.52445 0.0
H193 H 0.63508 0.50967 0.54571 0.0
H194 H 0.67414 0.43633 0.55803 0.0
H195 H 0.66653 0.4673 0.5795 0.0
H196 H 0.60303 0.52444 0.63902 0.0
H197 H 0.61762 0.61949 0.64616 0.0
H198 H 0.62325 0.62588 0.6179 0.0
H199 H 0.60873 0.53101 0.61084 0.0
C200 C 1.05312 0.57366 0.86707 0.0
C201 C 1.02777 0.5755 0.87353 0.0
C202 C 1.00278 0.5659 0.84754 0.0
C203 C 1.00279 0.57174 0.86382 0.0
C204 C 1.02819 0.56393 0.84115 0.0
C205 C 1.0533 0.56791 0.85087 0.0
U206 U 0.09179 0.58048 0.90724 0.0
O207 O 0.12051 0.55982 0.91474 0.0
O208 O 0.14189 0.61173 0.9149 0.0
C209 C 0.14686 0.58754 0.91493 0.0
C210 C 0.07942 0.57751 0.87709 0.0
C211 C 0.17032 0.58929 0.90378 0.0
C212 C 0.18062 0.57484 0.87783 0.0
C213 C 0.15982 0.56993 0.88976 0.0
C214 C 0.22308 0.61847 0.89369 0.0
C215 C 0.21233 0.59939 0.87958 0.0
C216 C 0.20217 0.61342 0.90573 0.0
C217 C 1.0521 0.57557 0.94516 0.0
C218 C 0.08007 0.57798 0.96929 0.0
C219 C 1.02596 0.56762 0.96982 0.0
C220 C 1.02541 0.56958 0.95358 0.0
C221 C 1.05325 0.57164 0.97783 0.0
C222 C 0.07947 0.5799 0.95309 0.0
C223 C 1.05103 0.57585 0.92807 0.0
O224 O 0.09421 0.60439 0.88578 0.0
O225 O 0.07361 0.55252 0.88474 0.0
O226 O 1.05005 0.55099 0.92068 0.0
O227 O 0.07144 0.603 0.92238 0.0
H228 H 1.0273 0.57973 0.88606 0.0
H229 H 0.98322 0.57288 0.86905 0.0
H230 H 1.02876 0.5596 0.82864 0.0
H231 H 0.07282 0.56646 0.84577 0.0
H232 H 0.17161 0.56002 0.86703 0.0
H233 H 0.13517 0.55167 0.88771 0.0
H234 H 0.24756 0.63734 0.89537 0.0
H235 H 0.21056 0.62897 0.91633 0.0
H236 H 0.10127 0.58075 0.97508 0.0
H237 H 1.00507 0.56305 0.97611 0.0
H238 H 1.00409 0.56611 0.94758 0.0
H239 H 0.10021 0.58428 0.94668 0.0
C240 C 1.00274 0.46462 0.47465 0.0
C241 C 0.9734 0.46069 0.46918 0.0
C242 C 0.9432 0.40621 0.47851 0.0
C243 C 0.94432 0.43201 0.47095 0.0
C244 C 0.9727 0.41015 0.4837 0.0
C245 C 1.00167 0.43859 0.4818 0.0
U246 U 0.08004 0.5439 0.46044 0.0
O247 O 0.10276 0.59187 0.47299 0.0
O248 O 0.12909 0.56657 0.47095 0.0
C249 C 0.12989 0.59301 0.47591 0.0
C250 C 1.03377 0.49637 0.4752 0.0
C251 C 0.16069 0.62476 0.47548 0.0
C252 C 0.19279 0.68096 0.48551 0.0
C253 C 0.16347 0.65207 0.48361 0.0
C254 C 0.21803 0.6569 0.47084 0.0
C255 C 0.22095 0.68407 0.47935 0.0
C256 C 0.18862 0.62781 0.46905 0.0
C257 C 0.07483 0.54233 0.41234 0.0
C258 C 0.07398 0.56759 0.3885 0.0
C259 C 0.07155 0.51669 0.38653 0.0
C260 C 0.07318 0.51696 0.40296 0.0
C261 C 0.07209 0.5421 0.37896 0.0
C262 C 0.07504 0.56755 0.40491 0.0
C263 C 0.07671 0.54274 0.42975 0.0
O264 O 0.05994 0.49699 0.47096 0.0
O265 O 1.03356 0.52235 0.4718 0.0
O266 O 0.06516 0.55687 0.43878 0.0
O267 O 0.08989 0.52901 0.43723 0.0
H268 H 0.97275 0.48009 0.46385 0.0
H269 H 0.92251 0.43056 0.46684 0.0
H270 H 0.97355 0.39116 0.48936 0.0
H271 H 1.02341 0.44053 0.48641 0.0
H272 H 0.19329 0.70096 0.49193 0.0
H273 H 0.1429 0.65088 0.48897 0.0
H274 H 0.23879 0.65769 0.46595 0.0
H275 H 0.18799 0.60747 0.46293 0.0
H276 H 0.07518 0.58801 0.38334 0.0
H277 H 0.06945 0.49624 0.37981 0.0
H278 H 0.07278 0.49707 0.40833 0.0
H279 H 0.0766 0.5876 0.41182 0.0
C280 C 0.58379 0.96986 0.80996 0.0
C281 C 0.55992 0.94082 0.80254 0.0
C282 C 0.58266 0.91026 0.814 0.0
C283 C 0.55951 0.91172 0.80443 0.0
C284 C 0.6067 0.93952 0.82118 0.0
C285 C 0.60723 0.96851 0.81919 0.0
U286 U 0.58098 0.04421 0.79271 0.0
O287 O 0.55455 0.06739 0.80217 0.0
O288 O 0.6063 0.0947 0.80215 0.0
C289 C 0.58025 0.09507 0.80564 0.0
C290 C 0.58298 1.00082 0.80997 0.0
C291 C 0.579 0.12573 0.80499 0.0
C292 C 0.55331 0.15658 0.81332 0.0
C293 C 0.55315 0.12741 0.81125 0.0
C294 C 0.60499 0.18389 0.80254 0.0
C295 C 0.57939 0.18568 0.80923 0.0
C296 C 0.60492 0.15464 0.8006 0.0
C297 C 0.57742 0.04021 0.74536 0.0
C298 C 0.59662 0.07423 0.72328 0.0
C299 C 0.56104 1.01765 0.71848 0.0
C300 C 0.55976 1.01405 0.73463 0.0
C301 C 0.57988 0.04765 0.71252 0.0
C302 C 0.59568 0.07052 0.73956 0.0
C303 C 0.57892 1.03368 0.76206 0.0
O304 O 0.60833 1.02677 0.80596 0.0
O305 O 0.55667 0.99988 0.80537 0.0
O306 O 0.55332 1.02309 0.77027 0.0
O307 O 0.60549 0.05091 0.77049 0.0
H308 H 0.54108 0.94039 0.7955 0.0
H309 H 0.54032 0.89012 0.79872 0.0
H310 H 0.62539 0.94017 0.82844 0.0
H311 H 0.62583 0.99004 0.82528 0.0
H312 H 0.53279 0.1562 0.81826 0.0
H313 H 0.53292 0.10609 0.81507 0.0
H314 H 0.62578 0.20537 0.7993 0.0
H315 H 0.62567 0.1549 0.79603 0.0
H316 H 0.61141 0.09768 0.71909 0.0
H317 H 0.54753 0.99674 0.71059 0.0
H318 H 0.54572 0.99039 0.73874 0.0
H319 H 0.6098 0.09109 0.74754 0.0
C320 C 0.6369 0.54231 0.1397 0.0
C321 C 0.66031 0.55432 0.1284 0.0
C322 C 0.69608 0.54167 0.14364 0.0
C323 C 0.68918 0.55382 0.13028 0.0
C324 C 0.67235 0.52991 0.15487 0.0
C325 C 0.64359 0.53008 0.15289 0.0
U326 U 0.55671 0.54488 0.12626 0.0
O327 O 0.51206 0.52089 0.13906 0.0
O328 O 0.53894 0.57267 0.13982 0.0
C329 C 0.5132 0.54743 0.14409 0.0
C330 C 0.60644 0.54381 0.13907 0.0
C331 C 0.48241 0.54814 0.14474 0.0
C332 C 0.44312 0.55253 0.161 0.0
C333 C 0.47191 0.55242 0.15945 0.0
C334 C 0.43384 0.54414 0.13302 0.0
C335 C 0.42323 0.54851 0.14786 0.0
C336 C 0.46282 0.54392 0.13149 0.0
C337 C 0.55518 0.54051 0.07896 0.0
C338 C 0.53542 0.51601 0.05257 0.0
C339 C 0.58481 0.56592 0.05601 0.0
C340 C 0.58172 0.56554 0.07236 0.0
C341 C 0.56123 0.54156 0.04585 0.0
C342 C 0.53247 0.51553 0.06885 0.0
C343 C 0.54735 0.54234 0.09564 0.0
O344 O 0.60691 0.57 0.13543 0.0
O345 O 0.579 0.51808 0.13536 0.0
O346 O 0.53636 0.51685 0.10371 0.0
O347 O 0.56399 0.5691 0.10428 0.0
H348 H 0.65639 0.5642 0.11811 0.0
H349 H 0.70598 0.5629 0.12111 0.0
H350 H 0.67602 0.52105 0.16558 0.0
H351 H 0.62657 0.52107 0.16201 0.0
H352 H 0.43629 0.55523 0.17271 0.0
H353 H 0.48604 0.55545 0.16996 0.0
H354 H 0.41996 0.54123 0.12246 0.0
H355 H 0.46988 0.54045 0.11994 0.0
H356 H 0.51704 0.49656 0.04521 0.0
H357 H 0.60496 0.58607 0.0513 0.0
H358 H 0.59945 0.58544 0.07976 0.0
H359 H 0.51151 0.49615 0.07351 0.0
C360 C 0.15136 0.51686 0.16763 0.0
C361 C 0.1501 0.5451 0.17032 0.0
C362 C 0.18036 0.51745 0.16508 0.0
C363 C 0.2708 0.57266 0.16784 0.0
H364 H 0.27018 0.502 0.14459 0.0
C365 C 0.38788 0.56585 0.16263 0.0
C366 C 0.39197 0.54881 0.14982 0.0
C367 C 0.35894 0.56553 0.16483 0.0
C368 C 0.27128 0.5223 0.15099 0.0
H369 H 0.17972 0.59643 0.17208 0.0
H370 H 0.22954 0.59762 0.1673 0.0
H371 H 0.22072 0.50164 0.14848 0.0
H372 H 0.36682 0.51801 0.12919 0.0
H373 H 0.31743 0.51834 0.13265 0.0
H374 H 0.32144 0.5939 0.16983 0.0
C375 C 0.20825 0.57463 0.16756 0.0
C376 C 0.24231 0.52186 0.15349 0.0
C377 C 0.17925 0.574 0.17025 0.0
C378 C 0.3655 0.53179 0.13918 0.0
C379 C 0.33653 0.5316 0.14134 0.0
C380 C 0.29977 0.5732 0.16525 0.0
C381 C 0.20967 0.54635 0.16491 0.0
C382 C 0.24119 0.54697 0.16204 0.0
C383 C 0.33237 0.54837 0.15428 0.0
C384 C 0.30087 0.54798 0.15681 0.0
H385 H 0.12977 0.49399 0.16759 0.0
H386 H 0.1796 0.49489 0.16345 0.0
H387 H 0.27186 0.59253 0.17465 0.0
H388 H 0.40724 0.57992 0.17109 0.0
H389 H 0.3575 0.57858 0.1751 0.0
C390 C 0.703 0.14169 0.50581 0.0
C391 C 0.67295 0.13929 0.50431 0.0
C392 C 0.73139 0.17008 0.50295 0.0
C393 C 0.76314 0.2516 0.48567 0.0
H394 H 0.84231 0.26746 0.50505 0.0
C395 C 0.88556 0.36284 0.47048 0.0
C396 C 0.91181 0.37582 0.48133 0.0
C397 C 0.85677 0.33453 0.47312 0.0
C398 C 0.82061 0.26406 0.49958 0.0
H399 H 0.65034 0.16631 0.49851 0.0
H400 H 0.69921 0.21559 0.49407 0.0
H401 H 0.79338 0.21985 0.51032 0.0
H402 H 0.92657 0.36828 0.50395 0.0
H403 H 0.87719 0.32031 0.50867 0.0
H404 H 0.79032 0.29654 0.47545 0.0
C405 C 0.70115 0.19531 0.49714 0.0
C406 C 0.79201 0.23587 0.50244 0.0
C407 C 0.67269 0.16675 0.49986 0.0
C408 C 0.90762 0.35924 0.49503 0.0
C409 C 0.87881 0.33118 0.49774 0.0
C410 C 0.79175 0.27997 0.48291 0.0
C411 C 0.73137 0.1978 0.49857 0.0
C412 C 0.7624 0.2287 0.49554 0.0
C413 C 0.85255 0.31785 0.48684 0.0
C414 C 0.82137 0.28704 0.48978 0.0
H415 H 0.70468 0.12132 0.50902 0.0
H416 H 0.75341 0.16984 0.50395 0.0
H417 H 0.74156 0.24763 0.4798 0.0
H418 H 0.88738 0.37422 0.45968 0.0
H419 H 0.83799 0.32554 0.46413 0.0
C420 C 0.55125 0.63872 0.83336 0.0
C421 C 0.57857 0.63874 0.83914 0.0
C422 C 0.55136 0.66738 0.83079 0.0
C423 C 0.60053 0.75808 0.83903 0.0
H424 H 0.54149 0.75776 0.80826 0.0
C425 C 0.59183 0.8734 0.83128 0.0
C426 C 0.58162 0.87875 0.81677 0.0
C427 C 0.5911 0.84451 0.83393 0.0
C428 C 0.55854 0.7588 0.81683 0.0
H429 H 0.62774 0.67036 0.84655 0.0
H430 H 0.62831 0.71965 0.84181 0.0
H431 H 0.54156 0.70883 0.8126 0.0
H432 H 0.5627 0.85624 0.79363 0.0
H433 H 0.56194 0.80672 0.79805 0.0
H434 H 0.61833 0.80824 0.84286 0.0
C435 C 0.60622 0.69752 0.83955 0.0
C436 C 0.55824 0.73009 0.81955 0.0
C437 C 0.60601 0.66885 0.84224 0.0
C438 C 0.57051 0.85352 0.80506 0.0
C439 C 0.57 0.82465 0.80767 0.0
C440 C 0.60096 0.78681 0.83625 0.0
C441 C 0.57891 0.69766 0.83373 0.0
C442 C 0.5792 0.72885 0.83075 0.0
C443 C 0.58033 0.81931 0.82219 0.0
C444 C 0.57993 0.78804 0.82509 0.0
H445 H 0.52948 0.61637 0.83078 0.0
H446 H 0.52943 0.66556 0.82662 0.0
H447 H 0.61697 0.75899 0.84793 0.0
H448 H 0.59998 0.89147 0.84085 0.0
H449 H 0.59863 0.84193 0.84544 0.0
C450 C 0.9394 0.51366 0.16749 0.0
C451 C 0.96849 0.54236 0.17037 0.0
C452 C 0.91056 0.5134 0.16438 0.0
C453 C 0.8772 0.5684 0.1553 0.0
H454 H 0.79705 0.49287 0.16168 0.0
C455 C 0.75576 0.56261 0.1389 0.0
C456 C 0.72743 0.54135 0.14608 0.0
C457 C 0.78461 0.56253 0.14149 0.0
C458 C 0.81894 0.5146 0.15996 0.0
H459 H 0.98881 0.5935 0.17233 0.0
H460 H 0.93933 0.59321 0.16768 0.0
H461 H 0.84605 0.49357 0.16746 0.0
H462 H 0.70904 0.50243 0.16158 0.0
H463 H 0.75833 0.50351 0.16667 0.0
H464 H 0.8501 0.58995 0.14853 0.0
C465 C 0.93842 0.57052 0.16728 0.0
C466 C 0.84772 0.51479 0.16307 0.0
C467 C 0.96728 0.57076 0.17015 0.0
C468 C 0.72971 0.51992 0.15592 0.0
C469 C 0.75856 0.52011 0.15867 0.0
C470 C 0.84842 0.56835 0.15239 0.0
C471 C 0.90915 0.54185 0.16419 0.0
C472 C 0.87778 0.54167 0.16082 0.0
C473 C 0.78695 0.54138 0.15154 0.0
C474 C 0.81835 0.54144 0.15462 0.0
H475 H 0.93891 0.49114 0.16734 0.0
H476 H 0.88942 0.49054 0.16185 0.0
H477 H 0.89908 0.58969 0.15301 0.0
H478 H 0.75604 0.5799 0.13133 0.0
H479 H 0.80506 0.57917 0.13539 0.0
C480 C 0.49512 0.9288 0.50005 0.0
C481 C 0.49565 0.95738 0.50466 0.0
C482 C 0.46619 0.89952 0.49741 0.0
C483 C 0.37671 0.8599 0.5036 0.0
H484 H 0.37275 0.79343 0.4752 0.0
C485 C 0.26035 0.73429 0.49626 0.0
C486 C 0.25291 0.71509 0.48214 0.0
C487 C 0.28968 0.76302 0.49893 0.0
C488 C 0.37292 0.81161 0.48308 0.0
H489 H 0.4648 0.97647 0.50985 0.0
H490 H 0.41513 0.92651 0.50499 0.0
H491 H 0.42233 0.84353 0.47954 0.0
H492 H 0.27208 0.71265 0.45972 0.0
H493 H 0.32235 0.76241 0.46415 0.0
H494 H 0.32711 0.82858 0.50671 0.0
C495 C 0.437 0.92613 0.50374 0.0
C496 C 0.40201 0.84069 0.48581 0.0
C497 C 0.4659 0.95529 0.50648 0.0
C498 C 0.27647 0.7261 0.47084 0.0
C499 C 0.30576 0.75503 0.47346 0.0
C500 C 0.34762 0.83095 0.5008 0.0
C501 C 0.43627 0.89736 0.49913 0.0
C502 C 0.40476 0.86569 0.49616 0.0
C503 C 0.31319 0.77437 0.48759 0.0
C504 C 0.34486 0.8059 0.49049 0.0
H505 H 0.51721 0.92894 0.49849 0.0
H506 H 0.46753 0.87846 0.49418 0.0
H507 H 0.37703 0.87766 0.51185 0.0
H508 H 0.24364 0.72687 0.50552 0.0
H509 H 0.29393 0.77603 0.51016 0.0
C510 C 0.55182 0.42927 0.83648 0.0
C511 C 0.57993 0.45923 0.83696 0.0
C512 C 0.55209 0.40047 0.83347 0.0
C513 C 0.60452 0.36702 0.81893 0.0
H514 H 0.53766 0.28926 0.8345 0.0
C515 C 0.59481 0.24265 0.80223 0.0
C516 C 0.58002 0.21742 0.8123 0.0
C517 C 0.59502 0.27178 0.8051 0.0
C518 C 0.55693 0.31056 0.83011 0.0
H519 H 0.6307 0.48122 0.83459 0.0
H520 H 0.63142 0.43167 0.82981 0.0
H521 H 0.53829 0.3389 0.8401 0.0
H522 H 0.55464 0.20496 0.83382 0.0
H523 H 0.55546 0.25495 0.83892 0.0
H524 H 0.62376 0.33878 0.80943 0.0
C525 C 0.60873 0.43014 0.83143 0.0
C526 C 0.55699 0.33953 0.83316 0.0
C527 C 0.6084 0.45898 0.83434 0.0
C528 C 0.56578 0.22302 0.82547 0.0
C529 C 0.56621 0.25218 0.82841 0.0
C530 C 0.60456 0.33805 0.81596 0.0
C531 C 0.58055 0.40002 0.83087 0.0
C532 C 0.58073 0.36862 0.82763 0.0
C533 C 0.58069 0.27739 0.81828 0.0
C534 C 0.58074 0.30894 0.82146 0.0
H535 H 0.52924 0.42795 0.83827 0.0
H536 H 0.52957 0.37849 0.83292 0.0
H537 H 0.62321 0.38819 0.81414 0.0
H538 H 0.60583 0.23974 0.79185 0.0
H539 H 0.60609 0.28972 0.7967 0.0
C540 C 0.56017 0.8431 0.49248 0.0
C541 C 0.59077 0.86718 0.48907 0.0
C542 C 0.55211 0.81122 0.49096 0.0
C543 C 0.57906 0.75574 0.47653 0.0
H544 H 0.55269 0.7203 0.5169 0.0
C545 C 0.61483 0.67126 0.50222 0.0
C546 C 0.59471 0.6489 0.51251 0.0
C547 C 0.60646 0.69196 0.49578 0.0
C548 C 0.55923 0.72924 0.50538 0.0
H549 H 0.63605 0.87656 0.48025 0.0
H550 H 0.62195 0.82105 0.47754 0.0
H551 H 0.55076 0.76749 0.51101 0.0
H552 H 0.54922 0.62902 0.52333 0.0
H553 H 0.53435 0.66492 0.51192 0.0
H554 H 0.5888 0.71806 0.4712 0.0
C555 C 0.60411 0.82673 0.4813 0.0
C556 C 0.5581 0.75636 0.502 0.0
C557 C 0.61223 0.8586 0.4829 0.0
C558 C 0.56539 0.64649 0.51564 0.0
C559 C 0.55689 0.66699 0.50909 0.0
C560 C 0.58002 0.72842 0.47988 0.0
C561 C 0.57444 0.80286 0.4859 0.0
C562 C 0.56907 0.77052 0.48778 0.0
C563 C 0.57769 0.6905 0.49942 0.0
C564 C 0.5712 0.71558 0.49457 0.0
H565 H 0.54286 0.84897 0.4969 0.0
H566 H 0.52893 0.79319 0.49439 0.0
H567 H 0.58735 0.76605 0.46541 0.0
H568 H 0.63765 0.67369 0.49971 0.0
H569 H 0.62327 0.71012 0.48858 0.0
C570 C 0.75114 0.52727 0.8159 0.0
C571 C 0.75775 0.55871 0.81501 0.0
C572 C 0.77376 0.51901 0.81169 0.0
C573 C 0.83408 0.52023 0.8198 0.0
H574 H 0.90601 0.56901 0.79431 0.0
C575 C 0.96385 0.58203 0.83942 0.0
C576 C 0.97589 0.56128 0.83741 0.0
C577 C 0.9365 0.57594 0.83105 0.0
C578 C 0.88576 0.55464 0.80119 0.0
H579 H 0.79142 0.60541 0.80773 0.0
H580 H 0.83155 0.59161 0.80104 0.0
H581 H 0.85495 0.56517 0.78797 0.0
H582 H 0.96966 0.51866 0.82472 0.0
H583 H 0.92098 0.50771 0.81023 0.0
H584 H 0.86542 0.51101 0.83338 0.0
C585 C 0.80882 0.57294 0.80457 0.0
C586 C 0.85669 0.55263 0.7977 0.0
C587 C 0.78593 0.58102 0.80851 0.0
C588 C 0.96088 0.53509 0.82638 0.0
C589 C 0.93322 0.52882 0.81812 0.0
C590 C 0.86292 0.5219 0.82312 0.0
C591 C 0.80365 0.54228 0.80693 0.0
C592 C 0.83101 0.5368 0.80748 0.0
C593 C 0.92075 0.54901 0.82062 0.0
C594 C 0.88918 0.54022 0.81426 0.0
H595 H 0.72921 0.50959 0.82068 0.0
H596 H 0.76866 0.49496 0.81323 0.0
H597 H 0.81518 0.50825 0.82778 0.0
H598 H 0.97517 0.60253 0.84774 0.0
H599 H 0.92683 0.59152 0.83322 0.0
C600 C 0.23517 0.75415 0.14291 0.0
C601 C 0.225 0.72257 0.14619 0.0
C602 C 0.26715 0.77531 0.14076 0.0
C603 C 0.33917 0.78486 0.15817 0.0
H604 H 0.37254 0.86852 0.14237 0.0
C605 C 0.43587 0.89334 0.19344 0.0
C606 C 0.42651 0.91603 0.19659 0.0
C607 C 0.42126 0.87024 0.18107 0.0
C608 C 0.36382 0.84516 0.14673 0.0
H609 H 0.23961 0.68724 0.14756 0.0
H610 H 0.29526 0.72399 0.14338 0.0
H611 H 0.32614 0.82308 0.12915 0.0
H612 H 0.39534 0.93301 0.18894 0.0
H613 H 0.36951 0.89255 0.16764 0.0
H614 H 0.37505 0.80706 0.17642 0.0
C615 C 0.27868 0.73264 0.1429 0.0
C616 C 0.3373 0.81916 0.13915 0.0
C617 C 0.24669 0.71152 0.1452 0.0
C618 C 0.40322 0.91598 0.18675 0.0
C619 C 0.38863 0.89293 0.17442 0.0
C620 C 0.36563 0.81077 0.1657 0.0
C621 C 0.28957 0.7652 0.14177 0.0
C622 C 0.32336 0.7892 0.1455 0.0
C623 C 0.39698 0.86937 0.17164 0.0
C624 C 0.37682 0.84151 0.16071 0.0
H625 H 0.2188 0.76311 0.14315 0.0
H626 H 0.27454 0.80017 0.13988 0.0
H627 H 0.32919 0.76223 0.16346 0.0
H628 H 0.45427 0.89327 0.20063 0.0
H629 H 0.42833 0.85251 0.17915 0.0
C630 C 0.6188 0.22428 0.47155 0.0
C631 C 0.5856 0.21009 0.4719 0.0
C632 C 0.63768 0.2571 0.47059 0.0
C633 C 0.63522 0.33249 0.46891 0.0
H634 H 0.68423 0.35369 0.50815 0.0
C635 C 0.63571 0.41916 0.51556 0.0
C636 C 0.66103 0.43542 0.52666 0.0
C637 C 0.63671 0.39906 0.5037 0.0
C638 C 0.67161 0.34883 0.49694 0.0
H639 H 0.54603 0.21821 0.4691 0.0
H640 H 0.57886 0.27548 0.46786 0.0
H641 H 0.6679 0.30337 0.49404 0.0
H642 H 0.70793 0.44478 0.53366 0.0
H643 H 0.70995 0.4097 0.51273 0.0
H644 H 0.63746 0.37744 0.47243 0.0
C645 C 0.59046 0.26148 0.46829 0.0
C646 C 0.66221 0.3198 0.48877 0.0
C647 C 0.57157 0.22865 0.46921 0.0
C648 C 0.68792 0.4321 0.52535 0.0
C649 C 0.68909 0.41216 0.51335 0.0
C650 C 0.64488 0.36174 0.47704 0.0
C651 C 0.62368 0.27624 0.47007 0.0
C652 C 0.64225 0.31048 0.4752 0.0
C653 C 0.66318 0.39487 0.50258 0.0
C654 C 0.66143 0.36928 0.49166 0.0
H655 H 0.63041 0.21066 0.47357 0.0
H656 H 0.66323 0.26779 0.47173 0.0
H657 H 0.62033 0.32615 0.45833 0.0
H658 H 0.61453 0.42103 0.51641 0.0
H659 H 0.61596 0.38558 0.49591 0.0
C660 C 0.41116 0.58858 0.83913 0.0
C661 C 0.41349 0.57063 0.8264 0.0
C662 C 0.3939 0.60402 0.83753 0.0
C663 C 0.32421 0.59204 0.81623 0.0
H664 H 0.33914 0.6609 0.84628 0.0
C665 C 0.25471 0.63537 0.86203 0.0
C666 C 0.23396 0.6046 0.86666 0.0
C667 C 0.27589 0.63999 0.8502 0.0
C668 C 0.3345 0.64224 0.83741 0.0
H669 H 0.40111 0.55629 0.80173 0.0
H670 H 0.37021 0.58305 0.79899 0.0
H671 H 0.38364 0.65639 0.83709 0.0
H672 H 0.21835 0.55455 0.86231 0.0
H673 H 0.25559 0.56245 0.84221 0.0
H674 H 0.27495 0.5773 0.81693 0.0
C675 C 0.38181 0.58505 0.81021 0.0
C676 C 0.36009 0.63947 0.83226 0.0
C677 C 0.39923 0.56953 0.81182 0.0
C678 C 0.23392 0.57851 0.8589 0.0
C679 C 0.2551 0.58309 0.8472 0.0
C680 C 0.29867 0.59519 0.82112 0.0
C681 C 0.37841 0.6019 0.82317 0.0
C682 C 0.35481 0.61263 0.82283 0.0
C683 C 0.27683 0.61392 0.8429 0.0
C684 C 0.30332 0.61853 0.8329 0.0
H685 H 0.42142 0.5895 0.85058 0.0
H686 H 0.3911 0.61594 0.84791 0.0
H687 H 0.3193 0.57137 0.80871 0.0
H688 H 0.25474 0.65584 0.86765 0.0
H689 H 0.29212 0.664 0.84709 0.0
C690 C 0.85824 0.36947 0.14555 0.0
C691 C 0.87899 0.35826 0.14927 0.0
C692 C 0.82565 0.34843 0.14362 0.0
C693 C 0.7632 0.2644 0.13826 0.0
H694 H 0.72097 0.28625 0.17059 0.0
C695 C 0.65527 0.16998 0.16799 0.0
C696 C 0.63335 0.17739 0.17458 0.0
C697 C 0.68162 0.19298 0.16071 0.0
C698 C 0.73189 0.27998 0.16118 0.0
H699 H 0.88191 0.31581 0.15258 0.0
H700 H 0.82516 0.27914 0.14877 0.0
H701 H 0.77441 0.32524 0.16406 0.0
H702 H 0.62069 0.21396 0.17809 0.0
H703 H 0.66636 0.25415 0.16487 0.0
H704 H 0.72091 0.21894 0.13552 0.0
C705 C 0.83419 0.30423 0.14745 0.0
C706 C 0.76262 0.30238 0.15747 0.0
C707 C 0.86673 0.32529 0.14962 0.0
C708 C 0.63751 0.20784 0.17321 0.0
C709 C 0.66368 0.2308 0.16569 0.0
C710 C 0.7322 0.24213 0.14177 0.0
C711 C 0.81331 0.31577 0.14505 0.0
C712 C 0.77891 0.29438 0.14639 0.0
C713 C 0.68645 0.22385 0.15966 0.0
C714 C 0.71665 0.24922 0.15372 0.0
H715 H 0.86701 0.39465 0.14478 0.0
H716 H 0.80996 0.3578 0.14163 0.0
H717 H 0.77529 0.25785 0.12959 0.0
H718 H 0.6528 0.14676 0.16909 0.0
H719 H 0.69892 0.18685 0.15656 0.0
C720 C 0.08509 0.56963 0.11996 0.0
C721 C 0.05904 0.54528 0.12712 0.0
C722 C 0.08465 0.57171 0.10377 0.0
C723 C 1.04483 0.52564 0.0667 0.0
H724 H 0.07685 0.60927 0.05095 0.0
C725 C 1.02742 0.54418 1.00197 0.0
C726 C 1.05366 0.56865 0.99498 0.0
C727 C 1.0281 0.54094 0.01807 0.0
C728 C 0.06813 0.5858 0.05515 0.0
H729 H 1.01226 0.50375 0.12288 0.0
H730 H 1.01134 0.50766 0.09457 0.0
H731 H 0.07809 0.60396 0.07907 0.0
H732 H 0.10101 0.60915 0.99942 0.0
H733 H 0.10235 0.60324 0.02751 0.0
H734 H 1.03473 0.50751 0.04273 0.0
C735 C 1.03226 0.5249 0.10148 0.0
C736 C 0.06887 0.58274 0.07126 0.0
C737 C 1.03272 0.52276 0.11771 0.0
C738 C 0.08053 0.5899 0.00444 0.0
C739 C 0.08118 0.5867 0.02055 0.0
C740 C 1.04404 0.52869 0.05057 0.0
C741 C 0.05812 0.54957 0.09436 0.0
C742 C 0.05728 0.55264 0.07722 0.0
C743 C 0.05499 0.56216 0.02753 0.0
C744 C 0.05572 0.55881 0.04464 0.0
H745 H 0.10585 0.58725 0.12685 0.0
H746 H 0.10517 0.59066 0.09861 0.0
H747 H 1.03611 0.50217 0.07091 0.0
H748 H 1.00651 0.52723 0.99495 0.0
H749 H 1.00745 0.52198 0.02315 0.0
C750 C 0.55577 1.03579 0.45103 0.0
C751 C 0.58452 0.04893 0.45982 0.0
C752 C 0.55564 0.03803 0.43484 0.0
C753 C 0.60739 0.05857 0.40047 0.0
H754 H 0.54201 0.07188 0.38224 0.0
C755 C 0.61035 0.1038 0.33859 0.0
C756 C 0.58223 0.08668 0.3292 0.0
C757 C 0.61108 0.09729 0.35427 0.0
C758 C 0.56025 0.06793 0.38716 0.0
H759 H 0.63572 0.07448 0.45865 0.0
H760 H 0.63565 0.0797 0.43045 0.0
H761 H 0.54258 0.06436 0.4101 0.0
H762 H 0.53317 0.04841 0.32888 0.0
H763 H 0.5343 0.03795 0.35638 0.0
H764 H 0.62563 0.06354 0.37743 0.0
C765 C 0.6131 0.06677 0.43593 0.0
C766 C 0.56052 0.06341 0.40312 0.0
C767 C 0.6132 0.06395 0.45211 0.0
C768 C 0.55502 0.06263 0.33584 0.0
C769 C 0.55567 0.05645 0.35155 0.0
C770 C 0.60739 0.06364 0.38452 0.0
C771 C 0.58429 0.05411 0.42709 0.0
C772 C 0.58401 0.05855 0.41 0.0
C773 C 0.58363 0.07383 0.36092 0.0
C774 C 0.58375 0.06825 0.37774 0.0
H775 H 0.5333 1.02373 0.45668 0.0
H776 H 0.53298 1.02721 0.42843 0.0
H777 H 0.62556 0.05441 0.40526 0.0
H778 H 0.63164 0.12272 0.33394 0.0
H779 H 0.63286 0.11121 0.36133 0.0
C780 C 0.56329 0.5207 0.78408 0.0
C781 C 0.58681 0.54565 0.79389 0.0
C782 C 0.56547 0.52121 0.7678 0.0
C783 C 0.62252 0.55933 0.73674 0.0
H784 H 0.54703 0.53637 0.71109 0.0
C785 C 0.62784 0.59137 0.67259 0.0
C786 C 0.60623 0.56734 0.66176 0.0
C787 C 0.62504 0.58717 0.68864 0.0
C788 C 0.56822 0.54253 0.71809 0.0
H789 H 0.63128 0.59052 0.79431 0.0
H790 H 0.63476 0.59162 0.76605 0.0
H791 H 0.54309 0.53111 0.73932 0.0
H792 H 0.56435 0.52041 0.65916 0.0
H793 H 0.55944 0.51307 0.68725 0.0
H794 H 0.64772 0.57133 0.71554 0.0
C795 C 0.61488 0.5714 0.77088 0.0
C796 C 0.56597 0.53943 0.73425 0.0
C797 C 0.61274 0.57086 0.78711 0.0
C798 C 0.58151 0.5392 0.66727 0.0
C799 C 0.57855 0.53511 0.68332 0.0
C800 C 0.62478 0.56258 0.72062 0.0
C801 C 0.59121 0.54668 0.76103 0.0
C802 C 0.59316 0.54809 0.74377 0.0
C803 C 0.60042 0.55897 0.69415 0.0
C804 C 0.59772 0.55449 0.71116 0.0
H805 H 0.54306 0.50088 0.78894 0.0
H806 H 0.54704 0.50162 0.76052 0.0
H807 H 0.6438 0.56563 0.7437 0.0
H808 H 0.64723 0.61321 0.66866 0.0
H809 H 0.64202 0.6061 0.69674 0.0
C810 C 0.57622 0.07102 0.56857 0.0
C811 C 0.58551 0.05194 0.55981 0.0
C812 C 0.57653 0.07171 0.58502 0.0
C813 C 0.57375 1.02462 0.61835 0.0
H814 H 0.60623 0.10426 0.6433 0.0
C815 C 0.58769 1.02878 0.68586 0.0
C816 C 0.58269 0.05045 0.69516 0.0
C817 C 0.589 1.03007 0.66954 0.0
C818 C 0.59659 0.08167 0.63659 0.0
H819 H 0.60239 1.01854 0.56177 0.0
H820 H 0.60258 1.0195 0.59034 0.0
H821 H 0.60615 0.10417 0.61476 0.0
H822 H 0.57551 0.09081 0.69443 0.0
H823 H 0.57681 0.09262 0.66589 0.0
H824 H 0.56338 1.00187 0.63998 0.0
C825 C 0.59501 1.03394 0.58446 0.0
C826 C 0.59667 0.08168 0.62014 0.0
C827 C 0.59506 1.03353 0.56803 0.0
C828 C 0.57956 0.07386 0.68765 0.0
C829 C 0.58043 0.07491 0.67123 0.0
C830 C 0.57333 1.02455 0.63475 0.0
C831 C 0.58575 0.05304 0.59322 0.0
C832 C 0.58542 0.05316 0.61078 0.0
C833 C 0.58491 0.05283 0.66185 0.0
C834 C 0.58495 0.05309 0.64421 0.0
H835 H 0.56875 0.08557 0.56272 0.0
H836 H 0.56898 0.08648 0.59132 0.0
H837 H 0.56438 1.00212 0.61157 0.0
H838 H 0.59078 1.01078 0.69126 0.0
H839 H 0.59343 1.01319 0.66297 0.0
C840 C 0.59859 0.55992 0.90299 0.0
C841 C 0.57129 0.5506 0.89337 0.0
C842 C 0.59704 0.55921 0.91932 0.0
C843 C 0.54762 0.55708 0.95268 0.0
H844 H 0.59824 0.52929 0.97499 0.0
C845 C 0.53496 0.53447 0.01911 0.0
C846 C 0.56259 0.54325 0.02836 0.0
C847 C 0.5359 0.53584 1.00276 0.0
C848 C 0.58424 0.53752 0.96902 0.0
H849 H 0.52081 0.53353 0.8937 0.0
H850 H 0.51807 0.53225 0.92225 0.0
H851 H 0.59948 0.53036 0.94657 0.0
H852 H 0.61301 0.56053 0.02741 0.0
H853 H 0.61474 0.56309 0.99893 0.0
H854 H 0.53234 0.56417 0.97519 0.0
C855 C 0.54082 0.5403 0.91709 0.0
C856 C 0.58492 0.53812 0.95264 0.0
C857 C 0.54236 0.54088 0.90067 0.0
C858 C 0.59127 0.55368 0.02073 0.0
C859 C 0.59218 0.55485 0.00434 0.0
C860 C 0.54692 0.55647 0.96909 0.0
C861 C 0.56814 0.54922 0.92666 0.0
C862 C 0.56673 0.54801 0.94419 0.0
C863 C 0.56448 0.5459 0.99508 0.0
C864 C 0.56529 0.54675 0.97754 0.0
H865 H 0.62138 0.56764 0.89791 0.0
H866 H 0.61871 0.5668 0.92622 0.0
H867 H 0.53361 0.56527 0.94668 0.0
H868 H 0.51249 0.52677 0.02453 0.0
H869 H 0.51401 0.52849 0.99612 0.0
C870 C 0.06972 0.52309 0.23342 0.0
C871 C 0.06262 0.5441 0.22597 0.0
C872 C 0.07097 0.52304 0.24983 0.0
C873 C 1.04171 0.54371 0.28562 0.0
H874 H 0.11187 0.54283 0.30692 0.0
C875 C 0.05662 0.55712 0.3536 0.0
C876 C 0.07081 0.54209 0.36131 0.0
C877 C 0.05579 0.55748 0.3372 0.0
C878 C 0.09172 0.5425 0.30125 0.0
H879 H 1.05097 0.58135 0.23013 0.0
H880 H 1.05258 0.5808 0.25871 0.0
H881 H 0.10971 0.54263 0.27844 0.0
H882 H 0.09545 0.51571 0.35722 0.0
H883 H 0.09236 0.51474 0.32888 0.0
H884 H 1.02304 0.54259 0.30824 0.0
C885 C 0.05732 0.56445 0.25182 0.0
C886 C 0.09063 0.54256 0.28484 0.0
C887 C 0.05657 0.56487 0.23541 0.0
C888 C 0.08384 0.52717 0.35193 0.0
C889 C 0.08258 0.52712 0.33551 0.0
C890 C 1.04251 0.54315 0.30202 0.0
C891 C 0.06466 0.54361 0.25927 0.0
C892 C 0.06568 0.54331 0.27679 0.0
C893 C 0.06866 0.54241 0.32781 0.0
C894 C 0.06761 0.54267 0.31018 0.0
H895 H 0.07455 0.50677 0.22657 0.0
H896 H 0.07645 0.5065 0.25514 0.0
H897 H 1.02191 0.54387 0.27982 0.0
H898 H 1.04578 0.56848 0.3602 0.0
H899 H 1.04527 0.57 0.33193 0.0
loop_
_geom_bond_atom_site_label_1
_geom_bond_atom_site_label_2
_geom_bond_distance
_geom_bond_site_symmetry_2
_ccdc_geom_bond_type
Eu0 C9 2.828 . S
Eu0 O11 2.392 1_655 S
Eu0 O13 2.418 . S
Eu0 O18 2.373 . S
Eu0 O21 2.488 . S
Eu0 O22 2.471 . S
Eu0 O23 2.349 . S
Eu1 O10 2.373 . S
Eu1 O14 2.488 . S
Eu1 O15 2.471 . S
Eu1 O16 2.349 . S
Eu1 O19 2.392 1_455 S
Eu1 O20 2.418 . S
Eu1 C30 2.828 . S
C2 O20 1.244 . S
C2 O23 1.265 1_455 S
C3 C4 1.379 . S
C3 C7 1.373 . S
C3 C9 1.505 . S
C4 C3 1.379 . S
C4 C6 1.369 . S
C4 H32 0.930 . S
C5 C7 1.383 . S
C5 C8 1.382 . S
C5 H33 0.930 . S
C6 C4 1.369 . S
C6 C8 1.392 . S
C6 H34 0.930 . S
C7 C3 1.373 . S
C7 C5 1.383 . S
C7 H35 0.931 . S
C8 C5 1.382 . S
C8 C6 1.392 . S
C9 Eu0 2.828 . S
C9 C3 1.505 . S
C9 O21 1.249 . S
C9 O22 1.244 . S
O10 Eu1 2.373 . S
O10 C12 1.258 . S
O11 Eu0 2.392 1_455 S
O11 C12 1.242 . S
C12 O10 1.258 . S
C12 O11 1.242 . S
O13 Eu0 2.418 . S
O13 C17 1.244 . S
O14 Eu1 2.488 . S
O14 C30 1.249 . S
O15 Eu1 2.471 . S
O15 C30 1.244 . S
O16 Eu1 2.349 . S
O16 C17 1.265 1_455 S
C17 O13 1.244 . S
C17 O16 1.265 1_655 S
O18 Eu0 2.373 . S
O18 C31 1.258 . S
O19 Eu1 2.392 1_655 S
O19 C31 1.242 . S
O20 Eu1 2.418 . S
O20 C2 1.244 . S
O21 Eu0 2.488 . S
O21 C9 1.249 . S
O22 Eu0 2.471 . S
O22 C9 1.244 . S
O23 Eu0 2.349 . S
O23 C2 1.265 1_655 S
C24 C25 1.379 . S
C24 C28 1.373 . S
C24 C30 1.505 . S
C25 C24 1.379 . S
C25 C27 1.369 . S
C25 H36 0.930 . S
C26 C28 1.383 . S
C26 C29 1.382 . S
C26 H37 0.930 . S
C27 C25 1.369 . S
C27 C29 1.392 . S
C27 H38 0.930 . S
C28 C24 1.373 . S
C28 C26 1.383 . S
C28 H39 0.931 . S
C29 C26 1.382 . S
C29 C27 1.392 . S
C30 Eu1 2.828 . S
C30 O14 1.249 . S
C30 O15 1.244 . S
C30 C24 1.505 . S
C31 O18 1.258 . S
C31 O19 1.242 . S
H32 C4 0.930 . S
H33 C5 0.930 . S
H34 C6 0.930 . S
H35 C7 0.931 . S
H36 C25 0.930 . S
H37 C26 0.930 . S
H38 C27 0.930 . S
H39 C28 0.931 . S
Eu40 C49 2.828 . S
Eu40 O51 2.392 1_565 S
Eu40 O53 2.418 . S
Eu40 O58 2.373 . S
Eu40 O61 2.488 . S
Eu40 O62 2.471 . S
Eu40 O63 2.362 . S
Eu41 O50 2.373 . S
Eu41 O54 2.488 . S
Eu41 O55 2.471 . S
Eu41 O56 2.349 . S
Eu41 O59 2.392 1_545 S
Eu41 O60 2.418 . S
Eu41 C70 2.828 . S
C42 O60 1.244 . S
C42 O63 1.252 1_545 S
C43 C44 1.379 . S
C43 C47 1.373 . S
C43 C49 1.505 . S
C44 C43 1.379 . S
C44 C46 1.369 . S
C44 H72 0.930 . S
C45 C47 1.383 . S
C45 C48 1.382 . S
C45 H73 0.930 . S
C46 C44 1.369 . S
C46 C48 1.392 . S
C46 H74 0.930 . S
C47 C43 1.373 . S
C47 C45 1.383 . S
C47 H75 0.931 . S
C48 C45 1.382 . S
C48 C46 1.392 . S
C49 Eu40 2.828 . S
C49 C43 1.505 . S
C49 O61 1.249 . S
C49 O62 1.244 . S
O50 Eu41 2.373 . S
O50 C52 1.258 . S
O51 Eu40 2.392 1_545 S
O51 C52 1.242 . S
C52 O50 1.258 . S
C52 O51 1.242 . S
O53 Eu40 2.418 . S
O53 C57 1.244 1_565 S
O54 Eu41 2.488 . S
O54 C70 1.249 . S
O55 Eu41 2.471 . S
O55 C70 1.244 . S
O56 Eu41 2.349 . S
O56 C57 1.265 . S
C57 O53 1.244 1_545 S
C57 O56 1.265 . S
O58 Eu40 2.373 . S
O58 C71 1.258 . S
O59 Eu41 2.392 1_565 S
O59 C71 1.242 . S
O60 Eu41 2.418 . S
O60 C42 1.244 . S
O61 Eu40 2.488 . S
O61 C49 1.249 . S
O62 Eu40 2.471 . S
O62 C49 1.244 . S
O63 Eu40 2.362 . S
O63 C42 1.252 1_565 S
C64 C65 1.379 . S
C64 C68 1.373 . S
C64 C70 1.505 . S
C65 C64 1.379 . S
C65 C67 1.369 . S
C65 H76 0.930 . S
C66 C68 1.383 . S
C66 C69 1.382 . S
C66 H77 0.930 . S
C67 C65 1.369 . S
C67 C69 1.392 . S
C67 H78 0.930 . S
C68 C64 1.373 . S
C68 C66 1.383 . S
C68 H79 0.931 . S
C69 C66 1.382 . S
C69 C67 1.392 . S
C70 Eu41 2.828 . S
C70 O54 1.249 . S
C70 O55 1.244 . S
C70 C64 1.505 . S
C71 O58 1.258 . S
C71 O59 1.242 . S
H72 C44 0.930 . S
H73 C45 0.930 . S
H74 C46 0.930 . S
H75 C47 0.931 . S
H76 C65 0.930 . S
H77 C66 0.930 . S
H78 C67 0.930 . S
H79 C68 0.931 . S
Eu80 C89 2.828 . S
Eu80 O91 2.392 . S
Eu80 O93 2.418 . S
Eu80 O98 2.373 . S
Eu80 O101 2.488 . S
Eu80 O102 2.471 . S
Eu80 O103 2.349 . S
Eu81 O90 2.373 . S
Eu81 O94 2.488 . S
Eu81 O95 2.471 . S
Eu81 O96 2.349 . S
Eu81 O99 2.392 . S
Eu81 O100 2.418 . S
Eu81 C110 2.828 . S
C82 O100 1.244 . S
C82 O103 1.265 . S
C83 C84 1.379 . S
C83 C87 1.373 . S
C83 C89 1.505 . S
C84 C83 1.379 . S
C84 C86 1.369 . S
C84 H112 0.930 . S
C85 C87 1.383 . S
C85 C88 1.382 . S
C85 H113 0.930 . S
C86 C84 1.369 . S
C86 C88 1.392 . S
C86 H114 0.930 . S
C87 C83 1.373 . S
C87 C85 1.383 . S
C87 H115 0.931 . S
C88 C85 1.382 . S
C88 C86 1.392 . S
C89 Eu80 2.828 . S
C89 C83 1.505 . S
C89 O101 1.249 . S
C89 O102 1.244 . S
O90 Eu81 2.373 . S
O90 C92 1.258 . S
O91 Eu80 2.392 . S
O91 C92 1.242 . S
C92 O90 1.258 . S
C92 O91 1.242 . S
O93 Eu80 2.418 . S
O93 C97 1.244 . S
O94 Eu81 2.488 . S
O94 C110 1.249 . S
O95 Eu81 2.471 . S
O95 C110 1.244 . S
O96 Eu81 2.349 . S
O96 C97 1.265 . S
C97 O93 1.244 . S
C97 O96 1.265 . S
O98 Eu80 2.373 . S
O98 C111 1.258 . S
O99 Eu81 2.392 . S
O99 C111 1.242 . S
O100 Eu81 2.418 . S
O100 C82 1.244 . S
O101 Eu80 2.488 . S
O101 C89 1.249 . S
O102 Eu80 2.471 . S
O102 C89 1.244 . S
O103 Eu80 2.349 . S
O103 C82 1.265 . S
C104 C105 1.379 . S
C104 C108 1.373 . S
C104 C110 1.505 . S
C105 C104 1.379 . S
C105 C107 1.369 . S
C105 H116 0.930 . S
C106 C108 1.383 . S
C106 C109 1.382 . S
C106 H117 0.930 . S
C107 C105 1.369 . S
C107 C109 1.392 . S
C107 H118 0.930 . S
C108 C104 1.373 . S
C108 C106 1.383 . S
C108 H119 0.931 . S
C109 C106 1.382 . S
C109 C107 1.392 . S
C110 Eu81 2.828 . S
C110 O94 1.249 . S
C110 O95 1.244 . S
C110 C104 1.505 . S
C111 O98 1.258 . S
C111 O99 1.242 . S
H112 C84 0.930 . S
H113 C85 0.930 . S
H114 C86 0.930 . S
H115 C87 0.931 . S
H116 C105 0.930 . S
H117 C106 0.930 . S
H118 C107 0.930 . S
H119 C108 0.931 . S
C120 C121 1.264 . S
C120 C125 1.479 . S
C120 C130 1.465 . S
C121 C120 1.264 . S
C121 C123 1.339 . S
C121 H148 0.931 . S
C122 C123 1.395 . S
C122 C124 1.320 . S
C123 C121 1.339 . S
C123 C122 1.395 . S
C123 H149 0.929 . S
C124 C122 1.320 . S
C124 C125 1.405 . S
C124 H150 0.930 . S
C125 C120 1.479 . S
C125 C124 1.405 . S
C125 H151 0.931 . S
U126 O127 2.454 1_545 S
U126 O128 2.458 1_545 S
U126 C129 2.984 1_545 S
U126 C130 2.847 . S
U126 C143 2.882 . S
U126 O144 2.441 . S
U126 O145 2.420 . S
U126 O146 2.455 . S
U126 O147 2.449 . S
O127 U126 2.454 1_565 S
O127 C129 1.353 . S
O128 U126 2.458 1_565 S
O128 C129 1.286 . S
C129 U126 2.984 1_565 S
C129 O127 1.353 . S
C129 O128 1.286 . S
C129 C131 1.363 . S
C130 C120 1.465 . S
C130 U126 2.847 . S
C130 O144 1.249 . S
C130 O145 1.202 . S
C131 C129 1.363 . S
C131 C133 1.408 . S
C131 C136 1.342 . S
C132 C133 1.310 . S
C132 C135 1.461 . S
C132 H152 0.932 . S
C133 C131 1.408 . S
C133 C132 1.310 . S
C133 H153 0.930 . S
C134 C135 1.474 . S
C134 C136 1.285 . S
C134 H154 0.929 . S
C135 C132 1.461 . S
C135 C134 1.474 . S
C136 C131 1.342 . S
C136 C134 1.285 . S
C136 H155 0.930 . S
C137 C140 1.424 . S
C137 C142 1.245 . S
C137 C143 1.428 . S
C138 C141 1.260 . S
C138 C142 1.477 . S
C138 H156 0.932 1_545 S
C139 C140 1.384 . S
C139 C141 1.479 . S
C139 H157 0.929 . S
C140 C137 1.424 . S
C140 C139 1.384 . S
C140 H158 0.928 . S
C141 C138 1.260 . S
C141 C139 1.479 . S
C142 C137 1.245 . S
C142 C138 1.477 . S
C142 H159 0.932 1_545 S
C143 U126 2.882 . S
C143 C137 1.428 . S
C143 O146 1.301 . S
C143 O147 1.282 . S
O144 U126 2.441 . S
O144 C130 1.249 . S
O145 U126 2.420 . S
O145 C130 1.202 . S
O146 U126 2.455 . S
O146 C143 1.301 . S
O147 U126 2.449 . S
O147 C143 1.282 . S
H148 C121 0.931 . S
H149 C123 0.929 . S
H150 C124 0.930 . S
H151 C125 0.931 . S
H152 C132 0.932 . S
H153 C133 0.930 . S
H154 C134 0.929 . S
H155 C136 0.930 . S
H156 C138 0.932 1_565 S
H157 C139 0.929 . S
H158 C140 0.928 . S
H159 C142 0.932 1_565 S
C160 C161 1.264 . S
C160 C165 1.479 . S
C160 C170 1.465 . S
C161 C160 1.264 . S
C161 C163 1.339 . S
C161 H188 0.931 . S
C162 C163 1.395 . S
C162 C164 1.320 . S
C163 C161 1.339 . S
C163 C162 1.395 . S
C163 H189 0.929 . S
C164 C162 1.320 . S
C164 C165 1.405 . S
C164 H190 0.930 . S
C165 C160 1.479 . S
C165 C164 1.405 . S
C165 H191 0.931 . S
U166 O167 2.454 . S
U166 O168 2.458 . S
U166 C169 2.984 . S
U166 C170 2.847 . S
U166 C183 2.882 . S
U166 O184 2.441 . S
U166 O185 2.420 . S
U166 O186 2.455 . S
U166 O187 2.449 . S
O167 U166 2.454 . S
O167 C169 1.353 . S
O168 U166 2.458 . S
O168 C169 1.286 . S
C169 U166 2.984 . S
C169 O167 1.353 . S
C169 O168 1.286 . S
C169 C171 1.363 . S
C170 C160 1.465 . S
C170 U166 2.847 . S
C170 O184 1.249 . S
C170 O185 1.202 . S
C171 C169 1.363 . S
C171 C173 1.408 . S
C171 C176 1.342 . S
C172 C173 1.310 . S
C172 C175 1.461 . S
C172 H192 0.932 . S
C173 C171 1.408 . S
C173 C172 1.310 . S
C173 H193 0.930 . S
C174 C175 1.474 . S
C174 C176 1.285 . S
C174 H194 0.929 . S
C175 C172 1.461 . S
C175 C174 1.474 . S
C176 C171 1.342 . S
C176 C174 1.285 . S
C176 H195 0.930 . S
C177 C180 1.424 . S
C177 C182 1.245 . S
C177 C183 1.428 . S
C178 C181 1.260 . S
C178 C182 1.477 . S
C178 H196 0.932 . S
C179 C180 1.384 . S
C179 C181 1.479 . S
C179 H197 0.929 . S
C180 C177 1.424 . S
C180 C179 1.384 . S
C180 H198 0.928 . S
C181 C178 1.260 . S
C181 C179 1.479 . S
C182 C177 1.245 . S
C182 C178 1.477 . S
C182 H199 0.932 . S
C183 U166 2.882 . S
C183 C177 1.428 . S
C183 O186 1.301 . S
C183 O187 1.282 . S
O184 U166 2.441 . S
O184 C170 1.249 . S
O185 U166 2.420 . S
O185 C170 1.202 . S
O186 U166 2.455 . S
O186 C183 1.301 . S
O187 U166 2.449 . S
O187 C183 1.282 . S
H188 C161 0.931 . S
H189 C163 0.929 . S
H190 C164 0.930 . S
H191 C165 0.931 . S
H192 C172 0.932 . S
H193 C173 0.930 . S
H194 C174 0.929 . S
H195 C176 0.930 . S
H196 C178 0.932 . S
H197 C179 0.929 . S
H198 C180 0.928 . S
H199 C182 0.932 . S
C200 C201 1.264 . S
C200 C205 1.479 . S
C200 C210 1.465 . S
C201 C200 1.264 . S
C201 C203 1.339 . S
C201 H228 0.931 . S
C202 C203 1.395 . S
C202 C204 1.320 . S
C203 C201 1.339 . S
C203 C202 1.395 . S
C203 H229 0.929 . S
C204 C202 1.320 . S
C204 C205 1.405 . S
C204 H230 0.930 . S
C205 C200 1.479 . S
C205 C204 1.405 . S
C205 H231 0.931 . S
U206 O207 2.454 . S
U206 O208 2.458 . S
U206 C209 2.984 . S
U206 C210 2.847 1_455 S
U206 C223 2.882 . S
U206 O224 2.441 . S
U206 O225 2.420 1_455 S
U206 O226 2.455 . S
U206 O227 2.449 . S
O207 U206 2.454 . S
O207 C209 1.353 . S
O208 U206 2.458 . S
O208 C209 1.286 . S
C209 U206 2.984 . S
C209 O207 1.353 . S
C209 O208 1.286 . S
C209 C211 1.363 . S
C210 C200 1.465 . S
C210 U206 2.847 1_655 S
C210 O224 1.249 1_655 S
C210 O225 1.202 . S
C211 C209 1.363 . S
C211 C213 1.408 . S
C211 C216 1.342 . S
C212 C213 1.310 . S
C212 C215 1.461 . S
C212 H232 0.932 . S
C213 C211 1.408 . S
C213 C212 1.310 . S
C213 H233 0.930 . S
C214 C215 1.474 . S
C214 C216 1.285 . S
C214 H234 0.929 . S
C215 C212 1.461 . S
C215 C214 1.474 . S
C216 C211 1.342 . S
C216 C214 1.285 . S
C216 H235 0.930 . S
C217 C220 1.424 . S
C217 C222 1.245 . S
C217 C223 1.428 . S
C218 C221 1.260 . S
C218 C222 1.477 . S
C218 H236 0.932 . S
C219 C220 1.384 . S
C219 C221 1.479 . S
C219 H237 0.929 1_455 S
C220 C217 1.424 . S
C220 C219 1.384 . S
C220 H238 0.928 1_455 S
C221 C218 1.260 . S
C221 C219 1.479 . S
C222 C217 1.245 . S
C222 C218 1.477 . S
C222 H239 0.932 . S
C223 U206 2.882 . S
C223 C217 1.428 . S
C223 O226 1.301 . S
C223 O227 1.282 . S
O224 U206 2.441 . S
O224 C210 1.249 1_455 S
O225 U206 2.420 1_655 S
O225 C210 1.202 . S
O226 U206 2.455 . S
O226 C223 1.301 . S
O227 U206 2.449 . S
O227 C223 1.282 . S
H228 C201 0.931 . S
H229 C203 0.929 . S
H230 C204 0.930 . S
H231 C205 0.931 . S
H232 C212 0.932 . S
H233 C213 0.930 . S
H234 C214 0.929 . S
H235 C216 0.930 . S
H236 C218 0.932 . S
H237 C219 0.929 1_655 S
H238 C220 0.928 1_655 S
H239 C222 0.932 . S
C240 C241 1.264 . S
C240 C245 1.479 . S
C240 C250 1.465 . S
C241 C240 1.264 . S
C241 C243 1.339 . S
C241 H268 0.931 . S
C242 C243 1.395 . S
C242 C244 1.320 . S
C243 C241 1.339 . S
C243 C242 1.395 . S
C243 H269 0.929 . S
C244 C242 1.320 . S
C244 C245 1.405 . S
C244 H270 0.930 . S
C245 C240 1.479 . S
C245 C244 1.405 . S
C245 H271 0.931 . S
U246 O247 2.454 . S
U246 O248 2.458 . S
U246 C249 2.984 . S
U246 C250 2.847 1_455 S
U246 C263 2.882 . S
U246 O264 2.441 1_455 S
U246 O265 2.420 1_455 S
U246 O266 2.455 . S
U246 O267 2.449 1_455 S
O247 U246 2.454 . S
O247 C249 1.353 . S
O248 U246 2.458 . S
O248 C249 1.286 . S
C249 U246 2.984 . S
C249 O247 1.353 . S
C249 O248 1.286 . S
C249 C251 1.363 . S
C250 C240 1.465 . S
C250 U246 2.847 1_655 S
C250 O264 1.249 . S
C250 O265 1.202 . S
C251 C249 1.363 . S
C251 C253 1.408 . S
C251 C256 1.342 . S
C252 C253 1.310 . S
C252 C255 1.461 . S
C252 H272 0.932 . S
C253 C251 1.408 . S
C253 C252 1.310 . S
C253 H273 0.930 . S
C254 C255 1.474 . S
C254 C256 1.285 . S
C254 H274 0.929 . S
C255 C252 1.461 . S
C255 C254 1.474 . S
C256 C251 1.342 . S
C256 C254 1.285 . S
C256 H275 0.930 . S
C257 C260 1.424 1_455 S
C257 C262 1.245 . S
C257 C263 1.428 . S
C258 C261 1.260 . S
C258 C262 1.477 . S
C258 H276 0.932 . S
C259 C260 1.384 . S
C259 C261 1.479 1_655 S
C259 H277 0.929 . S
C260 C257 1.424 1_655 S
C260 C259 1.384 . S
C260 H278 0.928 . S
C261 C258 1.260 . S
C261 C259 1.479 1_455 S
C262 C257 1.245 . S
C262 C258 1.477 . S
C262 H279 0.932 . S
C263 U246 2.882 . S
C263 C257 1.428 . S
C263 O266 1.301 . S
C263 O267 1.282 1_455 S
O264 U246 2.441 1_655 S
O264 C250 1.249 . S
O265 U246 2.420 1_655 S
O265 C250 1.202 . S
O266 U246 2.455 . S
O266 C263 1.301 . S
O267 U246 2.449 1_655 S
O267 C263 1.282 1_655 S
H268 C241 0.931 . S
H269 C243 0.929 . S
H270 C244 0.930 . S
H271 C245 0.931 . S
H272 C252 0.932 . S
H273 C253 0.930 . S
H274 C254 0.929 . S
H275 C256 0.930 . S
H276 C258 0.932 . S
H277 C259 0.929 . S
H278 C260 0.928 . S
H279 C262 0.932 . S
C280 C281 1.264 . S
C280 C285 1.479 . S
C280 C290 1.465 . S
C281 C280 1.264 . S
C281 C283 1.339 . S
C281 H308 0.931 . S
C282 C283 1.395 . S
C282 C284 1.320 . S
C283 C281 1.339 . S
C283 C282 1.395 . S
C283 H309 0.929 . S
C284 C282 1.320 . S
C284 C285 1.405 . S
C284 H310 0.930 . S
C285 C280 1.479 . S
C285 C284 1.405 . S
C285 H311 0.931 . S
U286 O287 2.454 . S
U286 O288 2.458 . S
U286 C289 2.984 . S
U286 C290 2.847 1_545 S
U286 C303 2.882 . S
U286 O304 2.441 1_545 S
U286 O305 2.420 1_545 S
U286 O306 2.455 . S
U286 O307 2.449 1_545 S
O287 U286 2.454 . S
O287 C289 1.353 . S
O288 U286 2.458 . S
O288 C289 1.286 . S
C289 U286 2.984 . S
C289 O287 1.353 . S
C289 O288 1.286 . S
C289 C291 1.363 . S
C290 C280 1.465 . S
C290 U286 2.847 1_565 S
C290 O304 1.249 . S
C290 O305 1.202 . S
C291 C289 1.363 . S
C291 C293 1.408 . S
C291 C296 1.342 . S
C292 C293 1.310 . S
C292 C295 1.461 . S
C292 H312 0.932 . S
C293 C291 1.408 . S
C293 C292 1.310 . S
C293 H313 0.930 . S
C294 C295 1.474 . S
C294 C296 1.285 . S
C294 H314 0.929 . S
C295 C292 1.461 . S
C295 C294 1.474 . S
C296 C291 1.342 . S
C296 C294 1.285 . S
C296 H315 0.930 . S
C297 C300 1.424 1_545 S
C297 C302 1.245 . S
C297 C303 1.428 . S
C298 C301 1.260 . S
C298 C302 1.477 . S
C298 H316 0.932 . S
C299 C300 1.384 . S
C299 C301 1.479 1_565 S
C299 H317 0.929 . S
C300 C297 1.424 1_565 S
C300 C299 1.384 . S
C300 H318 0.928 . S
C301 C298 1.260 . S
C301 C299 1.479 1_545 S
C302 C297 1.245 . S
C302 C298 1.477 . S
C302 H319 0.932 . S
C303 U286 2.882 . S
C303 C297 1.428 . S
C303 O306 1.301 . S
C303 O307 1.282 1_545 S
O304 U286 2.441 1_565 S
O304 C290 1.249 . S
O305 U286 2.420 1_565 S
O305 C290 1.202 . S
O306 U286 2.455 . S
O306 C303 1.301 . S
O307 U286 2.449 1_565 S
O307 C303 1.282 1_565 S
H308 C281 0.931 . S
H309 C283 0.929 . S
H310 C284 0.930 . S
H311 C285 0.931 . S
H312 C292 0.932 . S
H313 C293 0.930 . S
H314 C294 0.929 . S
H315 C296 0.930 . S
H316 C298 0.932 . S
H317 C299 0.929 . S
H318 C300 0.928 . S
H319 C302 0.932 . S
C320 C321 1.264 . S
C320 C325 1.479 . S
C320 C330 1.465 . S
C321 C320 1.264 . S
C321 C323 1.339 . S
C321 H348 0.931 . S
C322 C323 1.395 . S
C322 C324 1.320 . S
C323 C321 1.339 . S
C323 C322 1.395 . S
C323 H349 0.929 . S
C324 C322 1.320 . S
C324 C325 1.405 . S
C324 H350 0.930 . S
C325 C320 1.479 . S
C325 C324 1.405 . S
C325 H351 0.931 . S
U326 O327 2.454 . S
U326 O328 2.458 . S
U326 C329 2.984 . S
U326 C330 2.847 . S
U326 C343 2.882 . S
U326 O344 2.441 . S
U326 O345 2.420 . S
U326 O346 2.455 . S
U326 O347 2.449 . S
O327 U326 2.454 . S
O327 C329 1.353 . S
O328 U326 2.458 . S
O328 C329 1.286 . S
C329 U326 2.984 . S
C329 O327 1.353 . S
C329 O328 1.286 . S
C329 C331 1.363 . S
C330 C320 1.465 . S
C330 U326 2.847 . S
C330 O344 1.249 . S
C330 O345 1.202 . S
C331 C329 1.363 . S
C331 C333 1.408 . S
C331 C336 1.342 . S
C332 C333 1.310 . S
C332 C335 1.461 . S
C332 H352 0.932 . S
C333 C331 1.408 . S
C333 C332 1.310 . S
C333 H353 0.930 . S
C334 C335 1.474 . S
C334 C336 1.285 . S
C334 H354 0.929 . S
C335 C332 1.461 . S
C335 C334 1.474 . S
C336 C331 1.342 . S
C336 C334 1.285 . S
C336 H355 0.930 . S
C337 C340 1.424 . S
C337 C342 1.245 . S
C337 C343 1.428 . S
C338 C341 1.260 . S
C338 C342 1.477 . S
C338 H356 0.932 . S
C339 C340 1.384 . S
C339 C341 1.479 . S
C339 H357 0.929 . S
C340 C337 1.424 . S
C340 C339 1.384 . S
C340 H358 0.928 . S
C341 C338 1.260 . S
C341 C339 1.479 . S
C342 C337 1.245 . S
C342 C338 1.477 . S
C342 H359 0.932 . S
C343 U326 2.882 . S
C343 C337 1.428 . S
C343 O346 1.301 . S
C343 O347 1.282 . S
O344 U326 2.441 . S
O344 C330 1.249 . S
O345 U326 2.420 . S
O345 C330 1.202 . S
O346 U326 2.455 . S
O346 C343 1.301 . S
O347 U326 2.449 . S
O347 C343 1.282 . S
H348 C321 0.931 . S
H349 C323 0.929 . S
H350 C324 0.930 . S
H351 C325 0.931 . S
H352 C332 0.932 . S
H353 C333 0.930 . S
H354 C334 0.929 . S
H355 C336 0.930 . S
H356 C338 0.932 . S
H357 C339 0.929 . S
H358 C340 0.928 . S
H359 C342 0.932 . S
C360 C361 1.349 . S
C360 C362 1.327 . S
C360 H385 0.950 . S
C361 C360 1.349 . S
C361 C377 1.349 . S
C362 C360 1.327 . S
C362 C381 1.429 . S
C362 H386 0.950 . S
C363 C380 1.574 . S
C363 C382 1.368 . S
C363 H387 0.949 . S
H364 C368 0.949 . S
C365 C366 1.349 . S
C365 C367 1.327 . S
C365 H388 0.950 . S
C366 C365 1.349 . S
C366 C378 1.349 . S
C367 C365 1.327 . S
C367 C383 1.429 . S
C367 H389 0.950 . S
C368 H364 0.949 . S
C368 C376 1.574 . S
C368 C384 1.368 . S
H369 C377 0.950 . S
H370 C375 0.950 . S
H371 C376 0.949 . S
H372 C378 0.950 . S
H373 C379 0.950 . S
H374 C380 0.949 . S
C375 H370 0.950 . S
C375 C377 1.327 . S
C375 C381 1.429 . S
C376 C368 1.574 . S
C376 H371 0.949 . S
C376 C382 1.368 . S
C377 C361 1.349 . S
C377 H369 0.950 . S
C377 C375 1.327 . S
C378 C366 1.349 . S
C378 H372 0.950 . S
C378 C379 1.327 . S
C379 H373 0.950 . S
C379 C378 1.327 . S
C379 C383 1.429 . S
C380 C363 1.574 . S
C380 H374 0.949 . S
C380 C384 1.368 . S
C381 C362 1.429 . S
C381 C375 1.429 . S
C381 C382 1.523 . S
C382 C363 1.368 . S
C382 C376 1.368 . S
C382 C381 1.523 . S
C383 C367 1.429 . S
C383 C379 1.429 . S
C383 C384 1.523 . S
C384 C368 1.368 . S
C384 C380 1.368 . S
C384 C383 1.523 . S
H385 C360 0.950 . S
H386 C362 0.950 . S
H387 C363 0.949 . S
H388 C365 0.950 . S
H389 C367 0.950 . S
C390 C391 1.349 . S
C390 C392 1.327 . S
C390 H415 0.950 . S
C391 C390 1.349 . S
C391 C407 1.349 . S
C392 C390 1.327 . S
C392 C411 1.429 . S
C392 H416 0.950 . S
C393 C410 1.574 . S
C393 C412 1.368 . S
C393 H417 0.949 . S
H394 C398 0.949 . S
C395 C396 1.349 . S
C395 C397 1.327 . S
C395 H418 0.950 . S
C396 C395 1.349 . S
C396 C408 1.349 . S
C397 C395 1.327 . S
C397 C413 1.429 . S
C397 H419 0.950 . S
C398 H394 0.949 . S
C398 C406 1.574 . S
C398 C414 1.368 . S
H399 C407 0.950 . S
H400 C405 0.950 . S
H401 C406 0.949 . S
H402 C408 0.950 . S
H403 C409 0.950 . S
H404 C410 0.949 . S
C405 H400 0.950 . S
C405 C407 1.327 . S
C405 C411 1.429 . S
C406 C398 1.574 . S
C406 H401 0.949 . S
C406 C412 1.368 . S
C407 C391 1.349 . S
C407 H399 0.950 . S
C407 C405 1.327 . S
C408 C396 1.349 . S
C408 H402 0.950 . S
C408 C409 1.327 . S
C409 H403 0.950 . S
C409 C408 1.327 . S
C409 C413 1.429 . S
C410 C393 1.574 . S
C410 H404 0.949 . S
C410 C414 1.368 . S
C411 C392 1.429 . S
C411 C405 1.429 . S
C411 C412 1.523 . S
C412 C393 1.368 . S
C412 C406 1.368 . S
C412 C411 1.523 . S
C413 C397 1.429 . S
C413 C409 1.429 . S
C413 C414 1.523 . S
C414 C398 1.368 . S
C414 C410 1.368 . S
C414 C413 1.523 . S
H415 C390 0.950 . S
H416 C392 0.950 . S
H417 C393 0.949 . S
H418 C395 0.950 . S
H419 C397 0.950 . S
C420 C421 1.349 . S
C420 C422 1.327 . S
C420 H445 0.950 . S
C421 C420 1.349 . S
C421 C437 1.349 . S
C422 C420 1.327 . S
C422 C441 1.429 . S
C422 H446 0.950 . S
C423 C440 1.574 . S
C423 C442 1.368 . S
C423 H447 0.949 . S
H424 C428 0.949 . S
C425 C426 1.349 . S
C425 C427 1.327 . S
C425 H448 0.950 . S
C426 C425 1.349 . S
C426 C438 1.349 . S
C427 C425 1.327 . S
C427 C443 1.429 . S
C427 H449 0.950 . S
C428 H424 0.949 . S
C428 C436 1.574 . S
C428 C444 1.368 . S
H429 C437 0.950 . S
H430 C435 0.950 . S
H431 C436 0.949 . S
H432 C438 0.950 . S
H433 C439 0.950 . S
H434 C440 0.949 . S
C435 H430 0.950 . S
C435 C437 1.327 . S
C435 C441 1.429 . S
C436 C428 1.574 . S
C436 H431 0.949 . S
C436 C442 1.368 . S
C437 C421 1.349 . S
C437 H429 0.950 . S
C437 C435 1.327 . S
C438 C426 1.349 . S
C438 H432 0.950 . S
C438 C439 1.327 . S
C439 H433 0.950 . S
C439 C438 1.327 . S
C439 C443 1.429 . S
C440 C423 1.574 . S
C440 H434 0.949 . S
C440 C444 1.368 . S
C441 C422 1.429 . S
C441 C435 1.429 . S
C441 C442 1.523 . S
C442 C423 1.368 . S
C442 C436 1.368 . S
C442 C441 1.523 . S
C443 C427 1.429 . S
C443 C439 1.429 . S
C443 C444 1.523 . S
C444 C428 1.368 . S
C444 C440 1.368 . S
C444 C443 1.523 . S
H445 C420 0.950 . S
H446 C422 0.950 . S
H447 C423 0.949 . S
H448 C425 0.950 . S
H449 C427 0.950 . S
C450 C451 1.349 . S
C450 C452 1.327 . S
C450 H475 0.950 . S
C451 C450 1.349 . S
C451 C467 1.349 . S
C452 C450 1.327 . S
C452 C471 1.429 . S
C452 H476 0.950 . S
C453 C470 1.574 . S
C453 C472 1.368 . S
C453 H477 0.949 . S
H454 C458 0.949 . S
C455 C456 1.349 . S
C455 C457 1.327 . S
C455 H478 0.950 . S
C456 C455 1.349 . S
C456 C468 1.349 . S
C457 C455 1.327 . S
C457 C473 1.429 . S
C457 H479 0.950 . S
C458 H454 0.949 . S
C458 C466 1.574 . S
C458 C474 1.368 . S
H459 C467 0.950 . S
H460 C465 0.950 . S
H461 C466 0.949 . S
H462 C468 0.950 . S
H463 C469 0.950 . S
H464 C470 0.949 . S
C465 H460 0.950 . S
C465 C467 1.327 . S
C465 C471 1.429 . S
C466 C458 1.574 . S
C466 H461 0.949 . S
C466 C472 1.368 . S
C467 C451 1.349 . S
C467 H459 0.950 . S
C467 C465 1.327 . S
C468 C456 1.349 . S
C468 H462 0.950 . S
C468 C469 1.327 . S
C469 H463 0.950 . S
C469 C468 1.327 . S
C469 C473 1.429 . S
C470 C453 1.574 . S
C470 H464 0.949 . S
C470 C474 1.368 . S
C471 C452 1.429 . S
C471 C465 1.429 . S
C471 C472 1.523 . S
C472 C453 1.368 . S
C472 C466 1.368 . S
C472 C471 1.523 . S
C473 C457 1.429 . S
C473 C469 1.429 . S
C473 C474 1.523 . S
C474 C458 1.368 . S
C474 C470 1.368 . S
C474 C473 1.523 . S
H475 C450 0.950 . S
H476 C452 0.950 . S
H477 C453 0.949 . S
H478 C455 0.950 . S
H479 C457 0.950 . S
C480 C481 1.349 . S
C480 C482 1.327 . S
C480 H505 0.950 . S
C481 C480 1.349 . S
C481 C497 1.349 . S
C482 C480 1.327 . S
C482 C501 1.429 . S
C482 H506 0.950 . S
C483 C500 1.574 . S
C483 C502 1.368 . S
C483 H507 0.949 . S
H484 C488 0.949 . S
C485 C486 1.349 . S
C485 C487 1.327 . S
C485 H508 0.950 . S
C486 C485 1.349 . S
C486 C498 1.349 . S
C487 C485 1.327 . S
C487 C503 1.429 . S
C487 H509 0.950 . S
C488 H484 0.949 . S
C488 C496 1.574 . S
C488 C504 1.368 . S
H489 C497 0.950 . S
H490 C495 0.950 . S
H491 C496 0.949 . S
H492 C498 0.950 . S
H493 C499 0.950 . S
H494 C500 0.949 . S
C495 H490 0.950 . S
C495 C497 1.327 . S
C495 C501 1.429 . S
C496 C488 1.574 . S
C496 H491 0.949 . S
C496 C502 1.368 . S
C497 C481 1.349 . S
C497 H489 0.950 . S
C497 C495 1.327 . S
C498 C486 1.349 . S
C498 H492 0.950 . S
C498 C499 1.327 . S
C499 H493 0.950 . S
C499 C498 1.327 . S
C499 C503 1.429 . S
C500 C483 1.574 . S
C500 H494 0.949 . S
C500 C504 1.368 . S
C501 C482 1.429 . S
C501 C495 1.429 . S
C501 C502 1.523 . S
C502 C483 1.368 . S
C502 C496 1.368 . S
C502 C501 1.523 . S
C503 C487 1.429 . S
C503 C499 1.429 . S
C503 C504 1.523 . S
C504 C488 1.368 . S
C504 C500 1.368 . S
C504 C503 1.523 . S
H505 C480 0.950 . S
H506 C482 0.950 . S
H507 C483 0.949 . S
H508 C485 0.950 . S
H509 C487 0.950 . S
C510 C511 1.349 . S
C510 C512 1.327 . S
C510 H535 0.950 . S
C511 C510 1.349 . S
C511 C527 1.349 . S
C512 C510 1.327 . S
C512 C531 1.429 . S
C512 H536 0.950 . S
C513 C530 1.574 . S
C513 C532 1.368 . S
C513 H537 0.949 . S
H514 C518 0.949 . S
C515 C516 1.349 . S
C515 C517 1.327 . S
C515 H538 0.950 . S
C516 C515 1.349 . S
C516 C528 1.349 . S
C517 C515 1.327 . S
C517 C533 1.429 . S
C517 H539 0.950 . S
C518 H514 0.949 . S
C518 C526 1.574 . S
C518 C534 1.368 . S
H519 C527 0.950 . S
H520 C525 0.950 . S
H521 C526 0.949 . S
H522 C528 0.950 . S
H523 C529 0.950 . S
H524 C530 0.949 . S
C525 H520 0.950 . S
C525 C527 1.327 . S
C525 C531 1.429 . S
C526 C518 1.574 . S
C526 H521 0.949 . S
C526 C532 1.368 . S
C527 C511 1.349 . S
C527 H519 0.950 . S
C527 C525 1.327 . S
C528 C516 1.349 . S
C528 H522 0.950 . S
C528 C529 1.327 . S
C529 H523 0.950 . S
C529 C528 1.327 . S
C529 C533 1.429 . S
C530 C513 1.574 . S
C530 H524 0.949 . S
C530 C534 1.368 . S
C531 C512 1.429 . S
C531 C525 1.429 . S
C531 C532 1.523 . S
C532 C513 1.368 . S
C532 C526 1.368 . S
C532 C531 1.523 . S
C533 C517 1.429 . S
C533 C529 1.429 . S
C533 C534 1.523 . S
C534 C518 1.368 . S
C534 C530 1.368 . S
C534 C533 1.523 . S
H535 C510 0.950 . S
H536 C512 0.950 . S
H537 C513 0.949 . S
H538 C515 0.950 . S
H539 C517 0.950 . S
C540 C541 1.349 . S
C540 C542 1.327 . S
C540 H565 0.950 . S
C541 C540 1.349 . S
C541 C557 1.349 . S
C542 C540 1.327 . S
C542 C561 1.429 . S
C542 H566 0.950 . S
C543 C560 1.574 . S
C543 C562 1.368 . S
C543 H567 0.949 . S
H544 C548 0.949 . S
C545 C546 1.349 . S
C545 C547 1.327 . S
C545 H568 0.950 . S
C546 C545 1.349 . S
C546 C558 1.349 . S
C547 C545 1.327 . S
C547 C563 1.429 . S
C547 H569 0.950 . S
C548 H544 0.949 . S
C548 C556 1.574 . S
C548 C564 1.368 . S
H549 C557 0.950 . S
H550 C555 0.950 . S
H551 C556 0.949 . S
H552 C558 0.950 . S
H553 C559 0.950 . S
H554 C560 0.949 . S
C555 H550 0.950 . S
C555 C557 1.327 . S
C555 C561 1.429 . S
C556 C548 1.574 . S
C556 H551 0.949 . S
C556 C562 1.368 . S
C557 C541 1.349 . S
C557 H549 0.950 . S
C557 C555 1.327 . S
C558 C546 1.349 . S
C558 H552 0.950 . S
C558 C559 1.327 . S
C559 H553 0.950 . S
C559 C558 1.327 . S
C559 C563 1.429 . S
C560 C543 1.574 . S
C560 H554 0.949 . S
C560 C564 1.368 . S
C561 C542 1.429 . S
C561 C555 1.429 . S
C561 C562 1.523 . S
C562 C543 1.368 . S
C562 C556 1.368 . S
C562 C561 1.523 . S
C563 C547 1.429 . S
C563 C559 1.429 . S
C563 C564 1.523 . S
C564 C548 1.368 . S
C564 C560 1.368 . S
C564 C563 1.523 . S
H565 C540 0.950 . S
H566 C542 0.950 . S
H567 C543 0.949 . S
H568 C545 0.950 . S
H569 C547 0.950 . S
C570 C571 1.349 . S
C570 C572 1.327 . S
C570 H595 0.950 . S
C571 C570 1.349 . S
C571 C587 1.349 . S
C572 C570 1.327 . S
C572 C591 1.429 . S
C572 H596 0.950 . S
C573 C590 1.574 . S
C573 C592 1.368 . S
C573 H597 0.949 . S
H574 C578 0.949 . S
C575 C576 1.349 . S
C575 C577 1.327 . S
C575 H598 0.950 . S
C576 C575 1.349 . S
C576 C588 1.349 . S
C577 C575 1.327 . S
C577 C593 1.429 . S
C577 H599 0.950 . S
C578 H574 0.949 . S
C578 C586 1.574 . S
C578 C594 1.368 . S
H579 C587 0.950 . S
H580 C585 0.950 . S
H581 C586 0.949 . S
H582 C588 0.950 . S
H583 C589 0.950 . S
H584 C590 0.949 . S
C585 H580 0.950 . S
C585 C587 1.327 . S
C585 C591 1.429 . S
C586 C578 1.574 . S
C586 H581 0.949 . S
C586 C592 1.368 . S
C587 C571 1.349 . S
C587 H579 0.950 . S
C587 C585 1.327 . S
C588 C576 1.349 . S
C588 H582 0.950 . S
C588 C589 1.327 . S
C589 H583 0.950 . S
C589 C588 1.327 . S
C589 C593 1.429 . S
C590 C573 1.574 . S
C590 H584 0.949 . S
C590 C594 1.368 . S
C591 C572 1.429 . S
C591 C585 1.429 . S
C591 C592 1.523 . S
C592 C573 1.368 . S
C592 C586 1.368 . S
C592 C591 1.523 . S
C593 C577 1.429 . S
C593 C589 1.429 . S
C593 C594 1.523 . S
C594 C578 1.368 . S
C594 C590 1.368 . S
C594 C593 1.523 . S
H595 C570 0.950 . S
H596 C572 0.950 . S
H597 C573 0.949 . S
H598 C575 0.950 . S
H599 C577 0.950 . S
C600 C601 1.349 . S
C600 C602 1.327 . S
C600 H625 0.950 . S
C601 C600 1.349 . S
C601 C617 1.349 . S
C602 C600 1.327 . S
C602 C621 1.429 . S
C602 H626 0.950 . S
C603 C620 1.574 . S
C603 C622 1.368 . S
C603 H627 0.949 . S
H604 C608 0.949 . S
C605 C606 1.349 . S
C605 C607 1.327 . S
C605 H628 0.950 . S
C606 C605 1.349 . S
C606 C618 1.349 . S
C607 C605 1.327 . S
C607 C623 1.429 . S
C607 H629 0.950 . S
C608 H604 0.949 . S
C608 C616 1.574 . S
C608 C624 1.368 . S
H609 C617 0.950 . S
H610 C615 0.950 . S
H611 C616 0.949 . S
H612 C618 0.950 . S
H613 C619 0.950 . S
H614 C620 0.949 . S
C615 H610 0.950 . S
C615 C617 1.327 . S
C615 C621 1.429 . S
C616 C608 1.574 . S
C616 H611 0.949 . S
C616 C622 1.368 . S
C617 C601 1.349 . S
C617 H609 0.950 . S
C617 C615 1.327 . S
C618 C606 1.349 . S
C618 H612 0.950 . S
C618 C619 1.327 . S
C619 H613 0.950 . S
C619 C618 1.327 . S
C619 C623 1.429 . S
C620 C603 1.574 . S
C620 H614 0.949 . S
C620 C624 1.368 . S
C621 C602 1.429 . S
C621 C615 1.429 . S
C621 C622 1.523 . S
C622 C603 1.368 . S
C622 C616 1.368 . S
C622 C621 1.523 . S
C623 C607 1.429 . S
C623 C619 1.429 . S
C623 C624 1.523 . S
C624 C608 1.368 . S
C624 C620 1.368 . S
C624 C623 1.523 . S
H625 C600 0.950 . S
H626 C602 0.950 . S
H627 C603 0.949 . S
H628 C605 0.950 . S
H629 C607 0.950 . S
C630 C631 1.349 . S
C630 C632 1.327 . S
C630 H655 0.950 . S
C631 C630 1.349 . S
C631 C647 1.349 . S
C632 C630 1.327 . S
C632 C651 1.429 . S
C632 H656 0.950 . S
C633 C650 1.574 . S
C633 C652 1.368 . S
C633 H657 0.949 . S
H634 C638 0.949 . S
C635 C636 1.349 . S
C635 C637 1.327 . S
C635 H658 0.950 . S
C636 C635 1.349 . S
C636 C648 1.349 . S
C637 C635 1.327 . S
C637 C653 1.429 . S
C637 H659 0.950 . S
C638 H634 0.949 . S
C638 C646 1.574 . S
C638 C654 1.368 . S
H639 C647 0.950 . S
H640 C645 0.950 . S
H641 C646 0.949 . S
H642 C648 0.950 . S
H643 C649 0.950 . S
H644 C650 0.949 . S
C645 H640 0.950 . S
C645 C647 1.327 . S
C645 C651 1.429 . S
C646 C638 1.574 . S
C646 H641 0.949 . S
C646 C652 1.368 . S
C647 C631 1.349 . S
C647 H639 0.950 . S
C647 C645 1.327 . S
C648 C636 1.349 . S
C648 H642 0.950 . S
C648 C649 1.327 . S
C649 H643 0.950 . S
C649 C648 1.327 . S
C649 C653 1.429 . S
C650 C633 1.574 . S
C650 H644 0.949 . S
C650 C654 1.368 . S
C651 C632 1.429 . S
C651 C645 1.429 . S
C651 C652 1.523 . S
C652 C633 1.368 . S
C652 C646 1.368 . S
C652 C651 1.523 . S
C653 C637 1.429 . S
C653 C649 1.429 . S
C653 C654 1.523 . S
C654 C638 1.368 . S
C654 C650 1.368 . S
C654 C653 1.523 . S
H655 C630 0.950 . S
H656 C632 0.950 . S
H657 C633 0.949 . S
H658 C635 0.950 . S
H659 C637 0.950 . S
C660 C661 1.349 . S
C660 C662 1.327 . S
C660 H685 0.950 . S
C661 C660 1.349 . S
C661 C677 1.349 . S
C662 C660 1.327 . S
C662 C681 1.429 . S
C662 H686 0.950 . S
C663 C680 1.574 . S
C663 C682 1.368 . S
C663 H687 0.949 . S
H664 C668 0.949 . S
C665 C666 1.349 . S
C665 C667 1.327 . S
C665 H688 0.950 . S
C666 C665 1.349 . S
C666 C678 1.349 . S
C667 C665 1.327 . S
C667 C683 1.429 . S
C667 H689 0.950 . S
C668 H664 0.949 . S
C668 C676 1.574 . S
C668 C684 1.368 . S
H669 C677 0.950 . S
H670 C675 0.950 . S
H671 C676 0.949 . S
H672 C678 0.950 . S
H673 C679 0.950 . S
H674 C680 0.949 . S
C675 H670 0.950 . S
C675 C677 1.327 . S
C675 C681 1.429 . S
C676 C668 1.574 . S
C676 H671 0.949 . S
C676 C682 1.368 . S
C677 C661 1.349 . S
C677 H669 0.950 . S
C677 C675 1.327 . S
C678 C666 1.349 . S
C678 H672 0.950 . S
C678 C679 1.327 . S
C679 H673 0.950 . S
C679 C678 1.327 . S
C679 C683 1.429 . S
C680 C663 1.574 . S
C680 H674 0.949 . S
C680 C684 1.368 . S
C681 C662 1.429 . S
C681 C675 1.429 . S
C681 C682 1.523 . S
C682 C663 1.368 . S
C682 C676 1.368 . S
C682 C681 1.523 . S
C683 C667 1.429 . S
C683 C679 1.429 . S
C683 C684 1.523 . S
C684 C668 1.368 . S
C684 C680 1.368 . S
C684 C683 1.523 . S
H685 C660 0.950 . S
H686 C662 0.950 . S
H687 C663 0.949 . S
H688 C665 0.950 . S
H689 C667 0.950 . S
C690 C691 1.349 . S
C690 C692 1.327 . S
C690 H715 0.950 . S
C691 C690 1.349 . S
C691 C707 1.349 . S
C692 C690 1.327 . S
C692 C711 1.429 . S
C692 H716 0.950 . S
C693 C710 1.574 . S
C693 C712 1.368 . S
C693 H717 0.949 . S
H694 C698 0.949 . S
C695 C696 1.349 . S
C695 C697 1.327 . S
C695 H718 0.950 . S
C696 C695 1.349 . S
C696 C708 1.349 . S
C697 C695 1.327 . S
C697 C713 1.429 . S
C697 H719 0.950 . S
C698 H694 0.949 . S
C698 C706 1.574 . S
C698 C714 1.368 . S
H699 C707 0.950 . S
H700 C705 0.950 . S
H701 C706 0.949 . S
H702 C708 0.950 . S
H703 C709 0.950 . S
H704 C710 0.949 . S
C705 H700 0.950 . S
C705 C707 1.327 . S
C705 C711 1.429 . S
C706 C698 1.574 . S
C706 H701 0.949 . S
C706 C712 1.368 . S
C707 C691 1.349 . S
C707 H699 0.950 . S
C707 C705 1.327 . S
C708 C696 1.349 . S
C708 H702 0.950 . S
C708 C709 1.327 . S
C709 H703 0.950 . S
C709 C708 1.327 . S
C709 C713 1.429 . S
C710 C693 1.574 . S
C710 H704 0.949 . S
C710 C714 1.368 . S
C711 C692 1.429 . S
C711 C705 1.429 . S
C711 C712 1.523 . S
C712 C693 1.368 . S
C712 C706 1.368 . S
C712 C711 1.523 . S
C713 C697 1.429 . S
C713 C709 1.429 . S
C713 C714 1.523 . S
C714 C698 1.368 . S
C714 C710 1.368 . S
C714 C713 1.523 . S
H715 C690 0.950 . S
H716 C692 0.950 . S
H717 C693 0.949 . S
H718 C695 0.950 . S
H719 C697 0.950 . S
C720 C721 1.349 . S
C720 C722 1.327 . S
C720 H745 0.950 . S
C721 C720 1.349 . S
C721 C737 1.349 1_455 S
C722 C720 1.327 . S
C722 C741 1.429 . S
C722 H746 0.950 . S
C723 C740 1.574 . S
C723 C742 1.368 1_655 S
C723 H747 0.949 . S
H724 C728 0.949 . S
C725 C726 1.349 . S
C725 C727 1.330 1_556 S
C725 H748 0.950 1_455 S
C726 C725 1.349 . S
C726 C738 1.320 1_556 S
C727 C725 1.330 1_554 S
C727 C743 1.443 . S
C727 H749 0.932 1_455 S
C728 H724 0.949 . S
C728 C736 1.574 . S
C728 C744 1.368 . S
H729 C737 0.950 . S
H730 C735 0.950 . S
H731 C736 0.949 . S
H732 C738 0.931 1_556 S
H733 C739 0.950 . S
H734 C740 0.949 . S
C735 H730 0.950 . S
C735 C737 1.327 . S
C735 C741 1.429 1_655 S
C736 C728 1.574 . S
C736 H731 0.949 . S
C736 C742 1.368 . S
C737 C721 1.349 1_655 S
C737 H729 0.950 . S
C737 C735 1.327 . S
C738 C726 1.320 1_554 S
C738 H732 0.931 1_554 S
C738 C739 1.376 . S
C739 H733 0.950 . S
C739 C738 1.376 . S
C739 C743 1.429 . S
C740 C723 1.574 . S
C740 H734 0.949 . S
C740 C744 1.368 1_655 S
C741 C722 1.429 . S
C741 C735 1.429 1_455 S
C741 C742 1.523 . S
C742 C723 1.368 1_455 S
C742 C736 1.368 . S
C742 C741 1.523 . S
C743 C727 1.443 . S
C743 C739 1.429 . S
C743 C744 1.523 . S
C744 C728 1.368 . S
C744 C740 1.368 1_455 S
C744 C743 1.523 . S
H745 C720 0.950 . S
H746 C722 0.950 . S
H747 C723 0.949 . S
H748 C725 0.950 1_655 S
H749 C727 0.932 1_655 S
C750 C751 1.349 1_565 S
C750 C752 1.327 . S
C750 H775 0.950 . S
C751 C750 1.349 1_545 S
C751 C767 1.349 . S
C752 C750 1.327 . S
C752 C771 1.429 1_565 S
C752 H776 0.950 . S
C753 C770 1.574 . S
C753 C772 1.368 . S
C753 H777 0.949 . S
H754 C758 0.949 . S
C755 C756 1.349 . S
C755 C757 1.327 . S
C755 H778 0.950 . S
C756 C755 1.349 . S
C756 C768 1.349 . S
C757 C755 1.327 . S
C757 C773 1.429 . S
C757 H779 0.950 . S
C758 H754 0.949 . S
C758 C766 1.574 . S
C758 C774 1.368 1_565 S
H759 C767 0.950 . S
H760 C765 0.950 . S
H761 C766 0.949 . S
H762 C768 0.950 1_565 S
H763 C769 0.950 . S
H764 C770 0.949 . S
C765 H760 0.950 . S
C765 C767 1.327 . S
C765 C771 1.429 . S
C766 C758 1.574 . S
C766 H761 0.949 . S
C766 C772 1.368 1_565 S
C767 C751 1.349 . S
C767 H759 0.950 . S
C767 C765 1.327 . S
C768 C756 1.349 . S
C768 H762 0.950 1_545 S
C768 C769 1.327 1_545 S
C769 H763 0.950 . S
C769 C768 1.327 1_565 S
C769 C773 1.429 1_565 S
C770 C753 1.574 . S
C770 H764 0.949 . S
C770 C774 1.368 . S
C771 C752 1.429 1_545 S
C771 C765 1.429 . S
C771 C772 1.523 . S
C772 C753 1.368 . S
C772 C766 1.368 1_545 S
C772 C771 1.523 . S
C773 C757 1.429 . S
C773 C769 1.429 1_545 S
C773 C774 1.523 . S
C774 C758 1.368 1_545 S
C774 C770 1.368 . S
C774 C773 1.523 . S
H775 C750 0.950 . S
H776 C752 0.950 . S
H777 C753 0.949 . S
H778 C755 0.950 . S
H779 C757 0.950 . S
C780 C781 1.349 . S
C780 C782 1.327 . S
C780 H805 0.950 . S
C781 C780 1.349 . S
C781 C797 1.349 . S
C782 C780 1.327 . S
C782 C801 1.429 . S
C782 H806 0.950 . S
C783 C800 1.574 . S
C783 C802 1.368 . S
C783 H807 0.949 . S
H784 C788 0.949 . S
C785 C786 1.349 . S
C785 C787 1.327 . S
C785 H808 0.950 . S
C786 C785 1.349 . S
C786 C798 1.349 . S
C787 C785 1.327 . S
C787 C803 1.429 . S
C787 H809 0.950 . S
C788 H784 0.949 . S
C788 C796 1.574 . S
C788 C804 1.368 . S
H789 C797 0.950 . S
H790 C795 0.950 . S
H791 C796 0.949 . S
H792 C798 0.950 . S
H793 C799 0.950 . S
H794 C800 0.949 . S
C795 H790 0.950 . S
C795 C797 1.327 . S
C795 C801 1.429 . S
C796 C788 1.574 . S
C796 H791 0.949 . S
C796 C802 1.368 . S
C797 C781 1.349 . S
C797 H789 0.950 . S
C797 C795 1.327 . S
C798 C786 1.349 . S
C798 H792 0.950 . S
C798 C799 1.327 . S
C799 H793 0.950 . S
C799 C798 1.327 . S
C799 C803 1.429 . S
C800 C783 1.574 . S
C800 H794 0.949 . S
C800 C804 1.368 . S
C801 C782 1.429 . S
C801 C795 1.429 . S
C801 C802 1.523 . S
C802 C783 1.368 . S
C802 C796 1.368 . S
C802 C801 1.523 . S
C803 C787 1.429 . S
C803 C799 1.429 . S
C803 C804 1.523 . S
C804 C788 1.368 . S
C804 C800 1.368 . S
C804 C803 1.523 . S
H805 C780 0.950 . S
H806 C782 0.950 . S
H807 C783 0.949 . S
H808 C785 0.950 . S
H809 C787 0.950 . S
C810 C811 1.349 . S
C810 C812 1.327 . S
C810 H835 0.950 . S
C811 C810 1.349 . S
C811 C827 1.349 1_545 S
C812 C810 1.327 . S
C812 C831 1.429 . S
C812 H836 0.950 . S
C813 C830 1.574 . S
C813 C832 1.368 1_565 S
C813 H837 0.949 . S
H814 C818 0.949 . S
C815 C816 1.349 1_565 S
C815 C817 1.327 . S
C815 H838 0.950 . S
C816 C815 1.349 1_545 S
C816 C828 1.349 . S
C817 C815 1.327 . S
C817 C833 1.429 1_565 S
C817 H839 0.950 . S
C818 H814 0.949 . S
C818 C826 1.574 . S
C818 C834 1.368 . S
H819 C827 0.950 . S
H820 C825 0.950 . S
H821 C826 0.949 . S
H822 C828 0.950 . S
H823 C829 0.950 . S
H824 C830 0.949 . S
C825 H820 0.950 . S
C825 C827 1.327 . S
C825 C831 1.429 1_565 S
C826 C818 1.574 . S
C826 H821 0.949 . S
C826 C832 1.368 . S
C827 C811 1.349 1_565 S
C827 H819 0.950 . S
C827 C825 1.327 . S
C828 C816 1.349 . S
C828 H822 0.950 . S
C828 C829 1.327 . S
C829 H823 0.950 . S
C829 C828 1.327 . S
C829 C833 1.429 . S
C830 C813 1.574 . S
C830 H824 0.949 . S
C830 C834 1.368 1_565 S
C831 C812 1.429 . S
C831 C825 1.429 1_545 S
C831 C832 1.523 . S
C832 C813 1.368 1_545 S
C832 C826 1.368 . S
C832 C831 1.523 . S
C833 C817 1.429 1_545 S
C833 C829 1.429 . S
C833 C834 1.523 . S
C834 C818 1.368 . S
C834 C830 1.368 1_545 S
C834 C833 1.523 . S
H835 C810 0.950 . S
H836 C812 0.950 . S
H837 C813 0.949 . S
H838 C815 0.950 . S
H839 C817 0.950 . S
C840 C841 1.349 . S
C840 C842 1.327 . S
C840 H865 0.950 . S
C841 C840 1.349 . S
C841 C857 1.349 . S
C842 C840 1.327 . S
C842 C861 1.429 . S
C842 H866 0.950 . S
C843 C860 1.574 . S
C843 C862 1.368 . S
C843 H867 0.949 . S
H844 C848 0.949 . S
C845 C846 1.354 . S
C845 C847 1.318 1_554 S
C845 H868 0.955 . S
C846 C845 1.354 . S
C846 C858 1.322 1_554 S
C847 C845 1.318 1_556 S
C847 C863 1.429 . S
C847 H869 0.950 . S
C848 H844 0.949 . S
C848 C856 1.574 . S
C848 C864 1.368 . S
H849 C857 0.950 . S
H850 C855 0.950 . S
H851 C856 0.949 . S
H852 C858 0.922 1_554 S
H853 C859 0.950 . S
H854 C860 0.949 . S
C855 H850 0.950 . S
C855 C857 1.327 . S
C855 C861 1.429 . S
C856 C848 1.574 . S
C856 H851 0.949 . S
C856 C862 1.368 . S
C857 C841 1.349 . S
C857 H849 0.950 . S
C857 C855 1.327 . S
C858 C846 1.322 1_556 S
C858 H852 0.922 1_556 S
C858 C859 1.384 . S
C859 H853 0.950 . S
C859 C858 1.384 . S
C859 C863 1.429 . S
C860 C843 1.574 . S
C860 H854 0.949 . S
C860 C864 1.368 . S
C861 C842 1.429 . S
C861 C855 1.429 . S
C861 C862 1.523 . S
C862 C843 1.368 . S
C862 C856 1.368 . S
C862 C861 1.523 . S
C863 C847 1.429 . S
C863 C859 1.429 . S
C863 C864 1.523 . S
C864 C848 1.368 . S
C864 C860 1.368 . S
C864 C863 1.523 . S
H865 C840 0.950 . S
H866 C842 0.950 . S
H867 C843 0.949 . S
H868 C845 0.955 . S
H869 C847 0.950 . S
C870 C871 1.354 . S
C870 C872 1.327 . S
C870 H895 0.950 . S
C871 C870 1.354 . S
C871 C887 1.344 1_455 S
C872 C870 1.327 . S
C872 C891 1.429 . S
C872 H896 0.950 . S
C873 C890 1.574 . S
C873 C892 1.368 . S
C873 H897 0.949 1_455 S
H874 C878 0.949 . S
C875 C876 1.349 . S
C875 C877 1.327 . S
C875 H898 0.950 . S
C876 C875 1.349 . S
C876 C888 1.349 . S
C877 C875 1.327 . S
C877 C893 1.429 . S
C877 H899 0.950 . S
C878 H874 0.949 . S
C878 C886 1.574 . S
C878 C894 1.368 . S
H879 C887 0.950 . S
H880 C885 0.971 . S
H881 C886 0.949 . S
H882 C888 0.950 . S
H883 C889 0.950 . S
H884 C890 0.949 . S
C885 H880 0.971 . S
C885 C887 1.329 . S
C885 C891 1.408 1_655 S
C886 C878 1.574 . S
C886 H881 0.949 . S
C886 C892 1.368 . S
C887 C871 1.344 1_655 S
C887 H879 0.950 . S
C887 C885 1.329 . S
C888 C876 1.349 . S
C888 H882 0.950 . S
C888 C889 1.327 . S
C889 H883 0.950 . S
C889 C888 1.327 . S
C889 C893 1.429 . S
C890 C873 1.574 . S
C890 H884 0.949 . S
C890 C894 1.368 . S
C891 C872 1.429 . S
C891 C885 1.408 1_455 S
C891 C892 1.523 . S
C892 C873 1.368 . S
C892 C886 1.368 . S
C892 C891 1.523 . S
C893 C877 1.429 . S
C893 C889 1.429 . S
C893 C894 1.523 . S
C894 C878 1.368 . S
C894 C890 1.368 . S
C894 C893 1.523 . S
H895 C870 0.950 . S
H896 C872 0.950 . S
H897 C873 0.949 1_655 S
H898 C875 0.950 . S
H899 C877 0.950 . S
C361 C12 2.913 . S
C366 C335 2.865 . S
C391 C52 2.881 . S
C396 C242 2.850 . S
C421 C111 2.955 . S
C426 C282 2.916 . S
C451 C31 3.138 . S
C456 C322 3.093 . S
C486 C255 3.109 . S
C481 C71 3.172 . S
C516 C295 3.033 . S
C511 C92 3.093 . S
C541 C48 0.390 . S
C546 C162 0.403 . S
C571 C109 0.398 . S
C576 C202 0.358 . S
C601 C29 0.393 . S
C606 C135 0.332 . S
C636 C175 0.279 . S
C631 C69 0.318 . S
C666 C215 0.302 . S
C661 C88 0.258 . S
C691 C8 0.239 . S
C696 C122 0.245 . S
C726 C221 1.104 . S
C721 C17 1.099 1_455 S
C751 C57 1.105 . S
C756 C141 1.118 . S
C781 C97 1.103 . S
C786 C181 1.109 . S
C816 C301 1.760 . S
C811 C42 1.709 . S
C846 C341 1.750 . S
C841 C82 1.716 . S
C871 C2 1.721 . S
C876 C261 1.758 . S
