# Generated by pormake.
# Topology iac, (4,6)-cn, num edge types: 1
# Building blocks:
#     Node 0, Type 0, BuildingBlock: NAHDIM_clean_sbu_0, # of connection points: 4
#     Node 1, Type 0, BuildingBlock: NAHDIM_clean_sbu_0, # of connection points: 4
#     Node 2, Type 0, BuildingBlock: NAHDIM_clean_sbu_0, # of connection points: 4
#     Node 3, Type 0, BuildingBlock: NAHDIM_clean_sbu_0, # of connection points: 4
#     Node 4, Type 0, BuildingBlock: NAHDIM_clean_sbu_0, # of connection points: 4
#     Node 5, Type 0, BuildingBlock: NAHDIM_clean_sbu_0, # of connection points: 4
#     Node 6, Type 0, BuildingBlock: NAHDIM_clean_sbu_0, # of connection points: 4
#     Node 7, Type 0, BuildingBlock: NAHDIM_clean_sbu_0, # of connection points: 4
#     Node 8, Type 0, BuildingBlock: NAHDIM_clean_sbu_0, # of connection points: 4
#     Node 9, Type 0, BuildingBlock: NAHDIM_clean_sbu_0, # of connection points: 4
#     Node 10, Type 0, BuildingBlock: NAHDIM_clean_sbu_0, # of connection points: 4
#     Node 11, Type 0, BuildingBlock: NAHDIM_clean_sbu_0, # of connection points: 4
#     Node 12, Type 0, BuildingBlock: NAHDIM_clean_sbu_0, # of connection points: 4
#     Node 13, Type 0, BuildingBlock: NAHDIM_clean_sbu_0, # of connection points: 4
#     Node 14, Type 0, BuildingBlock: NAHDIM_clean_sbu_0, # of connection points: 4
#     Node 15, Type 0, BuildingBlock: NAHDIM_clean_sbu_0, # of connection points: 4
#     Node 16, Type 0, BuildingBlock: NAHDIM_clean_sbu_0, # of connection points: 4
#     Node 17, Type 0, BuildingBlock: NAHDIM_clean_sbu_0, # of connection points: 4
#     Node 18, Type 0, BuildingBlock: NAHDIM_clean_sbu_0, # of connection points: 4
#     Node 19, Type 0, BuildingBlock: NAHDIM_clean_sbu_0, # of connection points: 4
#     Node 20, Type 0, BuildingBlock: NAHDIM_clean_sbu_0, # of connection points: 4
#     Node 21, Type 0, BuildingBlock: NAHDIM_clean_sbu_0, # of connection points: 4
#     Node 22, Type 0, BuildingBlock: NAHDIM_clean_sbu_0, # of connection points: 4
#     Node 23, Type 0, BuildingBlock: NAHDIM_clean_sbu_0, # of connection points: 4
#     Node 24, Type 1, BuildingBlock: JUFBIX_clean_sbu_0, # of connection points: 6
#     Node 25, Type 1, BuildingBlock: JUFBIX_clean_sbu_0, # of connection points: 6
#     Node 26, Type 1, BuildingBlock: JUFBIX_clean_sbu_0, # of connection points: 6
#     Node 27, Type 1, BuildingBlock: JUFBIX_clean_sbu_0, # of connection points: 6
#     Node 28, Type 1, BuildingBlock: JUFBIX_clean_sbu_0, # of connection points: 6
#     Node 29, Type 1, BuildingBlock: JUFBIX_clean_sbu_0, # of connection points: 6
#     Node 30, Type 1, BuildingBlock: JUFBIX_clean_sbu_0, # of connection points: 6
#     Node 31, Type 1, BuildingBlock: JUFBIX_clean_sbu_0, # of connection points: 6
#     Node 32, Type 1, BuildingBlock: JUFBIX_clean_sbu_0, # of connection points: 6
#     Node 33, Type 1, BuildingBlock: JUFBIX_clean_sbu_0, # of connection points: 6
#     Node 34, Type 1, BuildingBlock: JUFBIX_clean_sbu_0, # of connection points: 6
#     Node 35, Type 1, BuildingBlock: JUFBIX_clean_sbu_0, # of connection points: 6
#     Node 36, Type 1, BuildingBlock: JUFBIX_clean_sbu_0, # of connection points: 6
#     Node 37, Type 1, BuildingBlock: JUFBIX_clean_sbu_0, # of connection points: 6
#     Node 38, Type 1, BuildingBlock: JUFBIX_clean_sbu_0, # of connection points: 6
#     Node 39, Type 1, BuildingBlock: JUFBIX_clean_sbu_0, # of connection points: 6
#     Edge 40, Type (0, 1), BuildingBlock: XUDNAN_clean_linker_2, # of connection points: 2
#     Edge 41, Type (0, 1), BuildingBlock: XUDNAN_clean_linker_2, # of connection points: 2
#     Edge 42, Type (0, 1), BuildingBlock: XUDNAN_clean_linker_2, # of connection points: 2
#     Edge 43, Type (0, 1), BuildingBlock: XUDNAN_clean_linker_2, # of connection points: 2
#     Edge 44, Type (0, 1), BuildingBlock: XUDNAN_clean_linker_2, # of connection points: 2
#     Edge 45, Type (0, 1), BuildingBlock: XUDNAN_clean_linker_2, # of connection points: 2
#     Edge 46, Type (0, 1), BuildingBlock: XUDNAN_clean_linker_2, # of connection points: 2
#     Edge 47, Type (0, 1), BuildingBlock: XUDNAN_clean_linker_2, # of connection points: 2
#     Edge 48, Type (0, 1), BuildingBlock: XUDNAN_clean_linker_2, # of connection points: 2
#     Edge 49, Type (0, 1), BuildingBlock: XUDNAN_clean_linker_2, # of connection points: 2
#     Edge 50, Type (0, 1), BuildingBlock: XUDNAN_clean_linker_2, # of connection points: 2
#     Edge 51, Type (0, 1), BuildingBlock: XUDNAN_clean_linker_2, # of connection points: 2
#     Edge 52, Type (0, 1), BuildingBlock: XUDNAN_clean_linker_2, # of connection points: 2
#     Edge 53, Type (0, 1), BuildingBlock: XUDNAN_clean_linker_2, # of connection points: 2
#     Edge 54, Type (0, 1), BuildingBlock: XUDNAN_clean_linker_2, # of connection points: 2
#     Edge 55, Type (0, 1), BuildingBlock: XUDNAN_clean_linker_2, # of connection points: 2
#     Edge 56, Type (0, 1), BuildingBlock: XUDNAN_clean_linker_2, # of connection points: 2
#     Edge 57, Type (0, 1), BuildingBlock: XUDNAN_clean_linker_2, # of connection points: 2
#     Edge 58, Type (0, 1), BuildingBlock: XUDNAN_clean_linker_2, # of connection points: 2
#     Edge 59, Type (0, 1), BuildingBlock: XUDNAN_clean_linker_2, # of connection points: 2
#     Edge 60, Type (0, 1), BuildingBlock: XUDNAN_clean_linker_2, # of connection points: 2
#     Edge 61, Type (0, 1), BuildingBlock: XUDNAN_clean_linker_2, # of connection points: 2
#     Edge 62, Type (0, 1), BuildingBlock: XUDNAN_clean_linker_2, # of connection points: 2
#     Edge 63, Type (0, 1), BuildingBlock: XUDNAN_clean_linker_2, # of connection points: 2
#     Edge 64, Type (0, 1), BuildingBlock: XUDNAN_clean_linker_2, # of connection points: 2
#     Edge 65, Type (0, 1), BuildingBlock: XUDNAN_clean_linker_2, # of connection points: 2
#     Edge 66, Type (0, 1), BuildingBlock: XUDNAN_clean_linker_2, # of connection points: 2
#     Edge 67, Type (0, 1), BuildingBlock: XUDNAN_clean_linker_2, # of connection points: 2
#     Edge 68, Type (0, 1), BuildingBlock: XUDNAN_clean_linker_2, # of connection points: 2
#     Edge 69, Type (0, 1), BuildingBlock: XUDNAN_clean_linker_2, # of connection points: 2
#     Edge 70, Type (0, 1), BuildingBlock: XUDNAN_clean_linker_2, # of connection points: 2
#     Edge 71, Type (0, 1), BuildingBlock: XUDNAN_clean_linker_2, # of connection points: 2
#     Edge 72, Type (0, 1), BuildingBlock: XUDNAN_clean_linker_2, # of connection points: 2
#     Edge 73, Type (0, 1), BuildingBlock: XUDNAN_clean_linker_2, # of connection points: 2
#     Edge 74, Type (0, 1), BuildingBlock: XUDNAN_clean_linker_2, # of connection points: 2
#     Edge 75, Type (0, 1), BuildingBlock: XUDNAN_clean_linker_2, # of connection points: 2
#     Edge 76, Type (0, 1), BuildingBlock: XUDNAN_clean_linker_2, # of connection points: 2
#     Edge 77, Type (0, 1), BuildingBlock: XUDNAN_clean_linker_2, # of connection points: 2
#     Edge 78, Type (0, 1), BuildingBlock: XUDNAN_clean_linker_2, # of connection points: 2
#     Edge 79, Type (0, 1), BuildingBlock: XUDNAN_clean_linker_2, # of connection points: 2
#     Edge 80, Type (0, 1), BuildingBlock: XUDNAN_clean_linker_2, # of connection points: 2
#     Edge 81, Type (0, 1), BuildingBlock: XUDNAN_clean_linker_2, # of connection points: 2
#     Edge 82, Type (0, 1), BuildingBlock: XUDNAN_clean_linker_2, # of connection points: 2
#     Edge 83, Type (0, 1), BuildingBlock: XUDNAN_clean_linker_2, # of connection points: 2
#     Edge 84, Type (0, 1), BuildingBlock: XUDNAN_clean_linker_2, # of connection points: 2
#     Edge 85, Type (0, 1), BuildingBlock: XUDNAN_clean_linker_2, # of connection points: 2
#     Edge 86, Type (0, 1), BuildingBlock: XUDNAN_clean_linker_2, # of connection points: 2
#     Edge 87, Type (0, 1), BuildingBlock: XUDNAN_clean_linker_2, # of connection points: 2
#     Edge 88, Type (0, 1), BuildingBlock: XUDNAN_clean_linker_2, # of connection points: 2
#     Edge 89, Type (0, 1), BuildingBlock: XUDNAN_clean_linker_2, # of connection points: 2
#     Edge 90, Type (0, 1), BuildingBlock: XUDNAN_clean_linker_2, # of connection points: 2
#     Edge 91, Type (0, 1), BuildingBlock: XUDNAN_clean_linker_2, # of connection points: 2
#     Edge 92, Type (0, 1), BuildingBlock: XUDNAN_clean_linker_2, # of connection points: 2
#     Edge 93, Type (0, 1), BuildingBlock: XUDNAN_clean_linker_2, # of connection points: 2
#     Edge 94, Type (0, 1), BuildingBlock: XUDNAN_clean_linker_2, # of connection points: 2
#     Edge 95, Type (0, 1), BuildingBlock: XUDNAN_clean_linker_2, # of connection points: 2
#     Edge 96, Type (0, 1), BuildingBlock: XUDNAN_clean_linker_2, # of connection points: 2
#     Edge 97, Type (0, 1), BuildingBlock: XUDNAN_clean_linker_2, # of connection points: 2
#     Edge 98, Type (0, 1), BuildingBlock: XUDNAN_clean_linker_2, # of connection points: 2
#     Edge 99, Type (0, 1), BuildingBlock: XUDNAN_clean_linker_2, # of connection points: 2
#     Edge 100, Type (0, 1), BuildingBlock: XUDNAN_clean_linker_2, # of connection points: 2
#     Edge 101, Type (0, 1), BuildingBlock: XUDNAN_clean_linker_2, # of connection points: 2
#     Edge 102, Type (0, 1), BuildingBlock: XUDNAN_clean_linker_2, # of connection points: 2
#     Edge 103, Type (0, 1), BuildingBlock: XUDNAN_clean_linker_2, # of connection points: 2
#     Edge 104, Type (0, 1), BuildingBlock: XUDNAN_clean_linker_2, # of connection points: 2
#     Edge 105, Type (0, 1), BuildingBlock: XUDNAN_clean_linker_2, # of connection points: 2
#     Edge 106, Type (0, 1), BuildingBlock: XUDNAN_clean_linker_2, # of connection points: 2
#     Edge 107, Type (0, 1), BuildingBlock: XUDNAN_clean_linker_2, # of connection points: 2
#     Edge 108, Type (0, 1), BuildingBlock: XUDNAN_clean_linker_2, # of connection points: 2
#     Edge 109, Type (0, 1), BuildingBlock: XUDNAN_clean_linker_2, # of connection points: 2
#     Edge 110, Type (0, 1), BuildingBlock: XUDNAN_clean_linker_2, # of connection points: 2
#     Edge 111, Type (0, 1), BuildingBlock: XUDNAN_clean_linker_2, # of connection points: 2
#     Edge 112, Type (0, 1), BuildingBlock: XUDNAN_clean_linker_2, # of connection points: 2
#     Edge 113, Type (0, 1), BuildingBlock: XUDNAN_clean_linker_2, # of connection points: 2
#     Edge 114, Type (0, 1), BuildingBlock: XUDNAN_clean_linker_2, # of connection points: 2
#     Edge 115, Type (0, 1), BuildingBlock: XUDNAN_clean_linker_2, # of connection points: 2
#     Edge 116, Type (0, 1), BuildingBlock: XUDNAN_clean_linker_2, # of connection points: 2
#     Edge 117, Type (0, 1), BuildingBlock: XUDNAN_clean_linker_2, # of connection points: 2
#     Edge 118, Type (0, 1), BuildingBlock: XUDNAN_clean_linker_2, # of connection points: 2
#     Edge 119, Type (0, 1), BuildingBlock: XUDNAN_clean_linker_2, # of connection points: 2
#     Edge 120, Type (0, 1), BuildingBlock: XUDNAN_clean_linker_2, # of connection points: 2
#     Edge 121, Type (0, 1), BuildingBlock: XUDNAN_clean_linker_2, # of connection points: 2
#     Edge 122, Type (0, 1), BuildingBlock: XUDNAN_clean_linker_2, # of connection points: 2
#     Edge 123, Type (0, 1), BuildingBlock: XUDNAN_clean_linker_2, # of connection points: 2
#     Edge 124, Type (0, 1), BuildingBlock: XUDNAN_clean_linker_2, # of connection points: 2
#     Edge 125, Type (0, 1), BuildingBlock: XUDNAN_clean_linker_2, # of connection points: 2
#     Edge 126, Type (0, 1), BuildingBlock: XUDNAN_clean_linker_2, # of connection points: 2
#     Edge 127, Type (0, 1), BuildingBlock: XUDNAN_clean_linker_2, # of connection points: 2
#     Edge 128, Type (0, 1), BuildingBlock: XUDNAN_clean_linker_2, # of connection points: 2
#     Edge 129, Type (0, 1), BuildingBlock: XUDNAN_clean_linker_2, # of connection points: 2
#     Edge 130, Type (0, 1), BuildingBlock: XUDNAN_clean_linker_2, # of connection points: 2
#     Edge 131, Type (0, 1), BuildingBlock: XUDNAN_clean_linker_2, # of connection points: 2
#     Edge 132, Type (0, 1), BuildingBlock: XUDNAN_clean_linker_2, # of connection points: 2
#     Edge 133, Type (0, 1), BuildingBlock: XUDNAN_clean_linker_2, # of connection points: 2
#     Edge 134, Type (0, 1), BuildingBlock: XUDNAN_clean_linker_2, # of connection points: 2
#     Edge 135, Type (0, 1), BuildingBlock: XUDNAN_clean_linker_2, # of connection points: 2
# Relax obj value: 0.247
# Max RMSD: 0.238
# Mean RMSD: 0.154
data_MOF--net-iac--node1-NAHDIM_clean_sbu_0--node2-JUFBIX_clean_sbu_0--edge1-XUDNAN_clean_linker_2
_symmetry_space_group_name_H-M    P1
_symmetry_Int_Tables_number       1
_symmetry_cell_setting            triclinic
loop_
_symmetry_equiv_pos_as_xyz
'x, y, z'
_cell_length_a     55.347076
_cell_length_b     55.389786
_cell_length_c     53.600029
_cell_angle_alpha  89.099277
_cell_angle_beta   88.233303
_cell_angle_gamma 89.091999
loop_
_atom_site_label
_atom_site_type_symbol
_atom_site_fract_x
_atom_site_fract_y
_atom_site_fract_z
_atom_type_partial_charge
C0 C 0.98163 0.27268 0.17947 0.0
O1 O 0.98233 0.25427 0.16432 0.0
O2 O 0.03165 0.24726 0.14134 0.0
Zn3 Zn 0.03313 0.27962 0.16138 0.0
O4 O 0.03891 0.31066 0.13938 0.0
C5 C 0.06514 0.2626 0.20275 0.0
O6 O 0.04755 0.24735 0.20737 0.0
O7 O 1.00073 0.28511 0.18164 0.0
C8 C 0.02308 0.32574 0.1313 0.0
O9 O 1.00006 0.32092 0.13487 0.0
C10 C 0.02065 0.24561 0.12085 0.0
O11 O 0.01053 0.26526 0.11158 0.0
O12 O 0.06289 0.27772 0.18472 0.0
C13 C 0.08631 0.78884 0.39372 0.0
O14 O 0.09234 0.78223 0.41637 0.0
O15 O 0.04436 0.74647 0.42173 0.0
Zn16 Zn 0.03903 0.78152 0.41411 0.0
O17 O 0.04158 0.80096 0.44494 0.0
C18 C 0.00484 0.77053 0.37996 0.0
O19 O 0.02179 0.75414 0.37556 0.0
O20 O 0.06414 0.791 0.38882 0.0
C21 C 0.02437 0.80352 0.46092 0.0
O22 O 0.00334 0.79387 0.45693 0.0
C23 C 0.05449 0.73812 0.441 0.0
O24 O 0.06175 0.75297 0.458 0.0
O25 O 0.00751 0.78547 0.39739 0.0
C26 C 0.47589 0.77511 0.67945 0.0
O27 O 0.47314 0.76125 0.66011 0.0
O28 O 0.52377 0.74818 0.63809 0.0
Zn29 Zn 0.52636 0.78086 0.65782 0.0
O30 O 0.52395 0.81166 0.63436 0.0
C31 C 0.57085 0.79576 0.68758 0.0
O32 O 0.56323 0.81825 0.68545 0.0
O33 O 0.49659 0.78439 0.68261 0.0
C34 C 0.53987 0.82679 0.62661 0.0
O35 O 0.56255 0.823 0.63226 0.0
C36 C 0.51339 0.74694 0.61719 0.0
O37 O 0.50423 0.76696 0.60769 0.0
O38 O 0.55858 0.77901 0.67794 0.0
C39 C 0.59299 0.26577 0.88182 0.0
O40 O 0.58744 0.27063 0.90521 0.0
O41 O 0.54191 0.24794 0.91321 0.0
Zn42 Zn 0.54448 0.27151 0.88429 0.0
O43 O 0.54636 0.30512 0.89654 0.0
C44 C 0.50135 0.25158 0.86598 0.0
O45 O 0.50809 0.23316 0.87999 0.0
O46 O 0.5761 0.2648 0.86634 0.0
C47 C 0.52871 0.316 0.90729 0.0
O48 O 0.50812 0.3048 0.91094 0.0
C49 C 0.54412 0.25271 0.93614 0.0
O50 O 0.54739 0.27511 0.94283 0.0
O51 O 0.51523 0.26954 0.86334 0.0
C52 C 0.20009 0.95204 0.28761 0.0
O53 O 0.1958 0.96845 0.27029 0.0
O54 O 0.14872 0.98998 0.28238 0.0
Zn55 Zn 0.16464 0.98039 0.3146 0.0
O56 O 0.13873 0.96967 0.33947 0.0
C57 C 0.19613 0.0213 0.31444 0.0
O58 O 0.20093 0.01436 0.29148 0.0
O59 O 0.18866 0.95326 0.30849 0.0
C60 C 0.11979 0.98283 0.34166 0.0
O61 O 0.11798 0.00244 0.32773 0.0
C62 C 0.14327 0.01174 0.27666 0.0
O63 O 0.14802 0.02906 0.29212 0.0
O64 O 0.18152 0.00913 0.32819 0.0
C65 C 0.21809 0.91129 0.51596 0.0
O66 O 0.2138 0.89054 0.52731 0.0
O67 O 0.26368 0.88554 0.55337 0.0
Zn68 Zn 0.26616 0.89315 0.51672 0.0
O69 O 0.26514 0.86379 0.4958 0.0
C70 C 0.30896 0.90965 0.48932 0.0
O71 O 0.30262 0.89491 0.47179 0.0
O72 O 0.23947 0.91602 0.50856 0.0
C73 C 0.27836 0.84535 0.50011 0.0
O74 O 0.29252 0.84517 0.51935 0.0
C75 C 0.25403 0.86683 0.56305 0.0
O76 O 0.24527 0.85036 0.54862 0.0
O77 O 0.29654 0.91082 0.50958 0.0
C78 C 0.38682 0.11247 0.73973 0.0
O79 O 0.4092 0.11342 0.74709 0.0
O80 O 0.41423 0.05184 0.73864 0.0
Zn81 Zn 0.38902 0.06572 0.76167 0.0
O82 O 0.40404 0.07552 0.79306 0.0
C83 C 0.35536 0.02648 0.75671 0.0
O84 O 0.36373 0.02519 0.73355 0.0
O85 O 0.37449 0.09377 0.74443 0.0
C86 C 0.41102 0.05767 0.80622 0.0
O87 O 0.40723 0.03571 0.79841 0.0
C88 C 0.43648 0.05635 0.74097 0.0
O89 O 0.44328 0.06874 0.76015 0.0
O90 O 0.36348 0.04225 0.77099 0.0
C91 C 0.3212 0.15002 0.04018 0.0
O92 O 0.31665 0.17221 0.04745 0.0
O93 O 0.26651 0.16993 0.06785 0.0
Zn94 Zn 0.27031 0.15566 0.03191 0.0
O95 O 0.26896 0.1799 0.0014 0.0
C96 C 0.22575 0.1258 0.04314 0.0
O97 O 0.22693 0.13411 0.06588 0.0
O98 O 0.30396 0.13813 0.03127 0.0
C99 C 0.24843 0.18368 0.99165 0.0
O100 O 0.22925 0.17474 0.00328 0.0
C101 C 0.27025 0.19074 0.07689 0.0
O102 O 0.27637 0.20861 0.06169 0.0
O103 O 0.24227 0.1315 0.02698 0.0
C104 C 0.72599 0.45016 0.05377 0.0
O105 O 0.74226 0.45116 0.07103 0.0
O106 O 0.75468 0.39886 0.0731 0.0
Zn107 Zn 0.75906 0.4151 0.03995 0.0
O108 O 0.76446 0.38995 0.01393 0.0
C109 C 0.79888 0.44216 0.05829 0.0
O110 O 0.79062 0.43503 0.08039 0.0
O111 O 0.72935 0.43555 0.03589 0.0
C112 C 0.77904 0.37291 0.01966 0.0
O113 O 0.78818 0.37237 0.042 0.0
C114 C 0.7359 0.3862 0.0763 0.0
O115 O 0.72123 0.38381 0.05771 0.0
O116 O 0.78819 0.43589 0.03888 0.0
C117 C 0.85956 0.60181 0.25876 0.0
O118 O 0.88301 0.60192 0.25418 0.0
O119 O 0.88447 0.547 0.23652 0.0
Zn120 Zn 0.86803 0.55201 0.26967 0.0
O121 O 0.89249 0.55266 0.29614 0.0
C122 C 0.82431 0.5254 0.26736 0.0
O123 O 0.81868 0.5418 0.25045 0.0
O124 O 0.8496 0.58271 0.26699 0.0
C125 C 0.90038 0.53251 0.30437 0.0
O126 O 0.89138 0.51242 0.29617 0.0
C127 C 0.90686 0.55114 0.23336 0.0
O128 O 0.9196 0.55711 0.25252 0.0
O129 O 0.84466 0.52608 0.27754 0.0
C130 C 0.82221 0.64082 0.54869 0.0
O131 O 0.8248 0.66058 0.5615 0.0
O132 O 0.77142 0.6785 0.57528 0.0
Zn133 Zn 0.77198 0.65999 0.5414 0.0
O134 O 0.77725 0.68376 0.51128 0.0
C135 C 0.72442 0.63176 0.55076 0.0
O136 O 0.7276 0.6332 0.57487 0.0
O137 O 0.80165 0.63661 0.53955 0.0
C138 C 0.76396 0.68487 0.49219 0.0
O139 O 0.74495 0.67102 0.49168 0.0
C140 C 0.78206 0.69877 0.57596 0.0
O141 O 0.79238 0.70704 0.5552 0.0
O142 O 0.74006 0.64116 0.53557 0.0
C143 C 0.71412 0.48095 0.79438 0.0
O144 O 0.71741 0.50005 0.80802 0.0
O145 O 0.65239 0.51104 0.75172 0.0
Zn146 Zn 0.67927 0.51238 0.77576 0.0
O147 O 0.66545 0.52094 0.80962 0.0
C148 C 0.70058 0.55549 0.75154 0.0
O149 O 0.67963 0.55933 0.74121 0.0
O150 O 0.69741 0.48135 0.77863 0.0
C151 C 0.67349 0.53836 0.82193 0.0
O152 O 0.69155 0.55101 0.81253 0.0
C153 C 0.63541 0.52665 0.75397 0.0
O154 O 0.63625 0.54273 0.77167 0.0
O155 O 0.70371 0.53687 0.7652 0.0
C156 C 0.06876 0.796 0.88672 0.0
O157 O 0.07153 0.81019 0.9058 0.0
O158 O 0.02256 0.75525 0.93344 0.0
Zn159 Zn 0.02013 0.78694 0.91118 0.0
O160 O 0.02479 0.81668 0.93431 0.0
C161 C 0.97616 0.77795 0.87848 0.0
O162 O 0.98611 0.75697 0.87288 0.0
O163 O 0.04872 0.78505 0.88492 0.0
C164 C 0.02105 0.83883 0.92815 0.0
O165 O 0.0138 0.84388 0.90552 0.0
C166 C 0.01037 0.73575 0.93398 0.0
O167 O 0.99206 0.73396 0.91917 0.0
O168 O 0.98699 0.79186 0.89325 0.0
C169 C 0.97008 0.28204 0.63613 0.0
O170 O 0.9613 0.28572 0.61387 0.0
O171 O 0.00674 0.27033 0.58042 0.0
Zn172 Zn 0.01465 0.2906 0.6096 0.0
O173 O 0.00985 0.32564 0.60212 0.0
C174 C 0.05653 0.26254 0.62061 0.0
O175 O 0.04262 0.24514 0.61335 0.0
O176 O 0.99278 0.28238 0.63867 0.0
C177 C 0.00835 0.3398 0.62054 0.0
O178 O 0.01067 0.33092 0.64323 0.0
C179 C 0.02182 0.26715 0.56239 0.0
O180 O 0.04257 0.27837 0.56228 0.0
O181 O 0.04857 0.28416 0.62002 0.0
C182 C 0.57225 0.29028 0.3828 0.0
O183 O 0.575 0.30579 0.40074 0.0
O184 O 0.52642 0.25876 0.43368 0.0
Zn185 Zn 0.52256 0.28596 0.4061 0.0
O186 O 0.52408 0.32197 0.41896 0.0
C187 C 0.4748 0.29475 0.37818 0.0
O188 O 0.47905 0.318 0.37869 0.0
O189 O 0.55172 0.28023 0.38101 0.0
C190 C 0.5241 0.33074 0.44098 0.0
O191 O 0.52257 0.31592 0.46032 0.0
C192 C 0.5154 0.23863 0.43243 0.0
O193 O 0.50017 0.23589 0.41442 0.0
O194 O 0.48999 0.27995 0.38794 0.0
C195 C 0.45612 0.79093 0.16012 0.0
O196 O 0.45255 0.79933 0.13747 0.0
O197 O 0.51666 0.79397 0.12656 0.0
Zn198 Zn 0.50234 0.8139 0.15416 0.0
O199 O 0.49078 0.84587 0.14152 0.0
C200 C 0.53502 0.79998 0.1906 0.0
O201 O 0.52663 0.77884 0.18462 0.0
O202 O 0.47565 0.79551 0.17072 0.0
C203 C 0.50362 0.85631 0.12471 0.0
O204 O 0.52364 0.84575 0.11639 0.0
C205 C 0.50825 0.79366 0.10479 0.0
O206 O 0.48949 0.80741 0.09949 0.0
O207 O 0.52725 0.81879 0.17947 0.0
C208 C 0.86702 0.07951 0.73948 0.0
O209 O 0.86912 0.07424 0.71569 0.0
O210 O 0.93042 0.06182 0.71955 0.0
Zn211 Zn 0.90794 0.0474 0.74525 0.0
O212 O 0.92563 0.0399 0.77627 0.0
C213 C 0.89953 0.00299 0.71722 0.0
O214 O 0.92147 0.0048 0.70738 0.0
O215 O 0.88197 0.07067 0.7547 0.0
C216 C 0.93157 0.01942 0.78529 0.0
O217 O 0.92612 0.99967 0.77356 0.0
C218 C 0.94995 0.07157 0.72574 0.0
O219 O 0.9552 0.0726 0.74942 0.0
O220 O 0.89172 0.01845 0.73283 0.0
C221 C 0.83 0.12106 0.53636 0.0
O222 O 0.80809 0.11469 0.54351 0.0
O223 O 0.79496 0.18528 0.52736 0.0
Zn224 Zn 0.80583 0.15761 0.50614 0.0
O225 O 0.81687 0.16886 0.47241 0.0
C226 C 0.76238 0.13387 0.51996 0.0
O227 O 0.7655 0.14561 0.5407 0.0
O228 O 0.83288 0.13885 0.52139 0.0
C229 C 0.82405 0.19008 0.46747 0.0
O230 O 0.82455 0.206 0.48533 0.0
C231 C 0.80872 0.19489 0.54273 0.0
O232 O 0.83126 0.18728 0.544 0.0
O233 O 0.77768 0.13612 0.502 0.0
C234 C 0.67317 0.97949 0.33132 0.0
O235 O 0.65028 0.97999 0.33856 0.0
O236 O 0.63917 0.00397 0.27195 0.0
Zn237 Zn 0.65822 0.01765 0.29922 0.0
O238 O 0.63581 0.0289 0.32622 0.0
C239 C 0.69236 0.04207 0.26783 0.0
O240 O 0.69593 0.02041 0.25864 0.0
O241 O 0.68061 0.99363 0.31399 0.0
C242 C 0.61482 0.03782 0.32327 0.0
O243 O 0.6071 0.042 0.30065 0.0
C244 C 0.61965 0.99261 0.27603 0.0
O245 O 0.61312 0.98672 0.29907 0.0
O246 O 0.67693 0.04511 0.28555 0.0
C247 C 0.73075 0.95505 0.05004 0.0
O248 O 0.73596 0.95083 0.07346 0.0
O249 O 0.77253 0.9054 0.07086 0.0
Zn250 Zn 0.77481 0.92371 0.03658 0.0
O251 O 0.77424 0.89889 0.00756 0.0
C252 C 0.81412 0.95242 0.05513 0.0
O253 O 0.80009 0.95019 0.07523 0.0
O254 O 0.74461 0.94626 0.03279 0.0
C255 C 0.77172 0.90491 0.98462 0.0
O256 O 0.77014 0.92798 0.97869 0.0
C257 C 0.7535 0.89405 0.07765 0.0
O258 O 0.73549 0.89381 0.06224 0.0
O259 O 0.80712 0.94303 0.03502 0.0
C260 C 0.35071 0.64068 0.96657 0.0
O261 O 0.34033 0.66131 0.96045 0.0
O262 O 0.30506 0.658 0.01783 0.0
Zn263 Zn 0.30506 0.63397 0.99007 0.0
O264 O 0.28923 0.64975 0.96097 0.0
C265 C 0.26791 0.59834 0.99229 0.0
O266 O 0.26364 0.60667 0.96975 0.0
O267 O 0.33888 0.62523 0.97957 0.0
C268 C 0.27081 0.66342 0.96404 0.0
O269 O 0.26052 0.66518 0.98637 0.0
C270 C 0.30659 0.68073 0.01466 0.0
O271 O 0.31016 0.6897 0.99205 0.0
O272 O 0.28609 0.6059 0.00352 0.0
C273 C 0.18343 0.48543 0.80631 0.0
O274 O 0.20011 0.49828 0.81655 0.0
O275 O 0.1376 0.5458 0.77933 0.0
Zn276 Zn 0.16044 0.53114 0.80346 0.0
O277 O 0.14713 0.5345 0.83799 0.0
C278 C 0.20132 0.55107 0.77793 0.0
O279 O 0.19063 0.5423 0.75856 0.0
O280 O 0.1648 0.49596 0.79792 0.0
C281 C 0.16109 0.53436 0.85633 0.0
O282 O 0.1846 0.534 0.85219 0.0
C283 C 0.12276 0.5333 0.76766 0.0
O284 O 0.12176 0.50992 0.77198 0.0
O285 O 0.19183 0.54798 0.79956 0.0
C286 C 0.22308 0.42819 0.52281 0.0
O287 O 0.22597 0.40604 0.51474 0.0
O288 O 0.27938 0.40052 0.55959 0.0
Zn289 Zn 0.2748 0.42033 0.52638 0.0
O290 O 0.27415 0.39842 0.49471 0.0
C291 C 0.32329 0.44281 0.53339 0.0
O292 O 0.3256 0.42579 0.55053 0.0
O293 O 0.24186 0.43936 0.52918 0.0
C294 C 0.26985 0.37586 0.49611 0.0
O295 O 0.26674 0.36592 0.51836 0.0
C296 C 0.26296 0.3898 0.57274 0.0
O297 O 0.24072 0.39004 0.56486 0.0
O298 O 0.30366 0.44413 0.52136 0.0
C299 C 0.34979 0.56006 0.23468 0.0
O300 O 0.35683 0.55531 0.21162 0.0
O301 O 0.40707 0.54208 0.21235 0.0
Zn302 Zn 0.39379 0.53465 0.24676 0.0
O303 O 0.41708 0.54186 0.2734 0.0
C304 C 0.39545 0.48473 0.23312 0.0
O305 O 0.41135 0.49233 0.2162 0.0
O306 O 0.36286 0.55321 0.25262 0.0
C307 C 0.43989 0.54095 0.27007 0.0
O308 O 0.44924 0.53549 0.24802 0.0
C309 C 0.41933 0.55992 0.20436 0.0
O310 O 0.42527 0.57689 0.21978 0.0
O311 O 0.38606 0.49957 0.24857 0.0
Co312 Co 0.01835 0.04151 0.01815 0.0
C313 C 0.01494 0.07909 0.05308 0.0
Co314 Co 0.02684 0.02981 0.05612 0.0
C315 C 1.00118 0.03864 0.96894 0.0
C316 C 0.01892 0.07216 0.97418 0.0
N317 N 0.01203 0.05173 0.9862 0.0
N318 N 1.0013 0.04981 0.94645 0.0
C319 C 0.01227 0.07105 0.94967 0.0
H320 H 0.99362 0.02101 0.97276 0.0
H321 H 0.02882 0.08651 0.98249 0.0
C322 C 0.03024 0.99245 0.02062 0.0
N323 N 0.03318 0.01898 0.08791 0.0
C324 C 0.04771 0.02892 0.10452 0.0
C325 C 0.02489 0.99869 0.09918 0.0
N326 N 0.04897 0.01553 0.12569 0.0
C327 C 0.0346 0.99649 0.12241 0.0
C328 C 0.97781 0.02446 0.04471 0.0
O329 O 0.02506 0.00978 0.00591 0.0
O330 O 0.03243 0.99707 0.04367 0.0
O331 O 0.99324 0.02259 0.06178 0.0
O332 O 0.9847 0.03279 0.02344 0.0
O333 O 0.02138 0.06245 0.06828 0.0
H334 H 0.01278 0.98617 0.0909 0.0
H335 H 0.05769 0.04531 0.10084 0.0
O336 O 0.01163 0.07348 0.03047 0.0
O337 O 0.05199 0.05004 0.0129 0.0
O338 O 0.06032 0.03732 0.05056 0.0
C339 C 0.06731 0.04702 0.02998 0.0
H340 H 0.01604 0.08441 0.93518 0.0
H341 H 0.03131 0.98203 0.13584 0.0
Co342 Co 0.27163 0.7458 0.28033 0.0
C343 C 0.25944 0.70294 0.25827 0.0
Co344 Co 0.25723 0.75034 0.24267 0.0
C345 C 0.2761 0.75281 0.33274 0.0
C346 C 0.30037 0.72525 0.31916 0.0
N347 N 0.28313 0.74107 0.3119 0.0
N348 N 0.28835 0.74513 0.35285 0.0
C349 C 0.30367 0.72774 0.34431 0.0
H350 H 0.26215 0.7667 0.33298 0.0
H351 H 0.31007 0.71288 0.30691 0.0
C352 C 0.26931 0.79328 0.26478 0.0
N353 N 0.24615 0.75491 0.21087 0.0
C354 C 0.25495 0.74369 0.19036 0.0
C355 C 0.2305 0.77178 0.20233 0.0
N356 N 0.24585 0.7531 0.16925 0.0
C357 C 0.23036 0.77078 0.17664 0.0
C358 C 0.2222 0.75298 0.28 0.0
O359 O 0.27519 0.77978 0.28305 0.0
O360 O 0.26138 0.78394 0.24525 0.0
O361 O 0.22523 0.75383 0.25639 0.0
O362 O 0.24022 0.74884 0.29355 0.0
O363 O 0.2534 0.71645 0.24007 0.0
H364 H 0.22071 0.78468 0.21392 0.0
H365 H 0.26895 0.72984 0.19085 0.0
O366 O 0.26769 0.71228 0.27765 0.0
O367 O 0.30336 0.74287 0.26688 0.0
O368 O 0.2892 0.74726 0.2294 0.0
C369 C 0.30701 0.74397 0.24344 0.0
H370 H 0.31678 0.71787 0.3552 0.0
H371 H 0.22016 0.78253 0.16439 0.0
Co372 Co 0.50641 0.03401 0.52749 0.0
C373 C 0.5281 0.07898 0.5187 0.0
Co374 Co 0.54468 0.03376 0.5367 0.0
C375 C 0.46261 0.01761 0.50759 0.0
C376 C 0.45718 0.051 0.52673 0.0
N377 N 0.47425 0.03442 0.52027 0.0
N378 N 0.43889 0.02288 0.50599 0.0
C379 C 0.4353 0.04384 0.51809 0.0
H380 H 0.47124 0.00132 0.5005 0.0
H381 H 0.46038 0.06699 0.5374 0.0
C382 C 0.52299 0.98881 0.54556 0.0
N383 N 0.57683 0.0332 0.54394 0.0
C384 C 0.59517 0.0427 0.53017 0.0
C385 C 0.58708 0.02375 0.56449 0.0
N386 N 0.61645 0.03978 0.54141 0.0
C387 C 0.61151 0.02794 0.56306 0.0
C388 C 0.51482 0.04493 0.57656 0.0
O389 O 0.50456 1.00018 0.53742 0.0
O390 O 0.54281 1.00004 0.54631 0.0
O391 O 0.53682 0.04232 0.56982 0.0
O392 O 0.49853 0.04252 0.56068 0.0
O393 O 0.54648 0.06772 0.52711 0.0
H394 H 0.57734 0.01481 0.57971 0.0
H395 H 0.5928 0.05238 0.51268 0.0
O396 O 0.50836 0.06764 0.51758 0.0
O397 O 0.51425 0.02556 0.49436 0.0
O398 O 0.55253 0.02528 0.50343 0.0
C399 C 0.53624 0.02309 0.48751 0.0
H400 H 0.41806 0.05309 0.5208 0.0
H401 H 0.62456 0.02299 0.57695 0.0
Co402 Co 0.27593 0.29082 0.78681 0.0
C403 C 0.26553 0.3059 0.73784 0.0
Co404 Co 0.243 0.27469 0.77264 0.0
C405 C 0.32061 0.29011 0.80994 0.0
C406 C 0.31336 0.32598 0.79663 0.0
N407 N 0.30387 0.30372 0.7984 0.0
N408 N 0.34028 0.30265 0.81547 0.0
C409 C 0.33593 0.32534 0.80706 0.0
H410 H 0.31876 0.27089 0.81323 0.0
H411 H 0.30472 0.34142 0.78784 0.0
C412 C 0.25366 0.26003 0.82202 0.0
N413 N 0.21574 0.25975 0.76121 0.0
C414 C 0.20215 0.26547 0.74138 0.0
C415 C 0.2081 0.23771 0.76884 0.0
N416 N 0.18673 0.2477 0.73624 0.0
C417 C 0.19029 0.23033 0.75362 0.0
C418 C 0.28442 0.24843 0.76168 0.0
O419 O 0.27174 0.27355 0.81826 0.0
O420 O 0.23887 0.25801 0.8045 0.0
O421 O 0.26168 0.24883 0.75978 0.0
O422 O 0.2944 0.26499 0.77346 0.0
O423 O 0.24759 0.29193 0.74116 0.0
H424 H 0.21589 0.22691 0.7836 0.0
H425 H 0.20452 0.28159 0.72996 0.0
O426 O 0.28016 0.30808 0.75555 0.0
O427 O 0.25712 0.31676 0.79958 0.0
O428 O 0.22434 0.3007 0.78506 0.0
C429 C 0.23443 0.31769 0.79635 0.0
H430 H 0.3482 0.34029 0.8081 0.0
H431 H 0.18122 0.21316 0.75474 0.0
Co432 Co 0.02473 0.00765 0.54208 0.0
C433 C 0.03229 0.04539 0.57365 0.0
Co434 Co 0.03396 0.04176 0.52257 0.0
C435 C 0.0298 0.95759 0.55348 0.0
C436 C 1.00068 0.97319 0.57522 0.0
N437 N 0.01849 0.97874 0.55843 0.0
N438 N 0.01967 0.93901 0.56617 0.0
C439 C 1.00115 0.9486 0.57975 0.0
H440 H 0.04409 0.95556 0.53937 0.0
H441 H 0.98746 0.98598 0.58267 0.0
C442 C 0.02705 0.00408 0.49063 0.0
N443 N 0.03995 0.07069 0.50615 0.0
C444 C 0.02779 0.09156 0.51032 0.0
C445 C 0.05673 0.07609 0.4882 0.0
N446 N 0.03619 0.10977 0.49578 0.0
C447 C 0.0546 0.10029 0.48194 0.0
C448 C 0.07383 0.01394 0.53213 0.0
O449 O 0.02318 0.99205 0.5107 0.0
O450 O 0.03131 0.02648 0.49178 0.0
O451 O 0.06755 0.03391 0.52208 0.0
O452 O 0.05785 1.00064 0.5424 0.0
O453 O 0.03652 0.05713 0.55354 0.0
H454 H 0.06978 0.06335 0.48038 0.0
H455 H 0.01349 0.09357 0.52441 0.0
O456 O 0.0266 0.0233 0.57296 0.0
O457 O 0.9914 0.01489 0.54185 0.0
O458 O 1.00047 0.04917 0.52327 0.0
C459 C 0.98476 0.03519 0.53303 0.0
H460 H 0.98831 0.93842 0.59116 0.0
H461 H 0.06572 0.11016 0.46844 0.0
Co462 Co 0.27129 0.80912 0.787 0.0
C463 C 0.22468 0.7891 0.79074 0.0
Co464 Co 0.26832 0.77441 0.76821 0.0
C465 C 0.28233 0.85876 0.79383 0.0
C466 C 0.26118 0.84434 0.82448 0.0
N467 N 0.27226 0.83829 0.80267 0.0
N468 N 0.27776 0.87759 0.80907 0.0
C469 C 0.2645 0.86848 0.82846 0.0
H470 H 0.29255 0.8597 0.77634 0.0
H471 H 0.25077 0.83213 0.83635 0.0
C472 C 0.31508 0.79394 0.76467 0.0
N473 N 0.26747 0.74501 0.75252 0.0
C474 C 0.26395 0.72325 0.76348 0.0
C475 C 0.27337 0.74016 0.72845 0.0
N476 N 0.26777 0.70507 0.7474 0.0
C477 C 0.27338 0.71555 0.72521 0.0
C478 C 0.25945 0.81344 0.73727 0.0
O479 O 0.3055 0.81072 0.77788 0.0
O480 O 0.30193 0.77647 0.75864 0.0
O481 O 0.2601 0.79053 0.73817 0.0
O482 O 0.26374 0.82513 0.75676 0.0
O483 O 0.23451 0.77224 0.77786 0.0
H484 H 0.27835 0.75356 0.7144 0.0
H485 H 0.25909 0.72069 0.78304 0.0
O486 O 0.23742 0.80712 0.79607 0.0
O487 O 0.2785 0.79347 0.81712 0.0
O488 O 0.27636 0.75863 0.79876 0.0
C489 C 0.27918 0.77064 0.8184 0.0
H490 H 0.25704 0.87857 0.84407 0.0
H491 H 0.27812 0.70607 0.70819 0.0
Co492 Co 0.52541 0.05341 0.02528 0.0
C493 C 0.57215 0.0406 0.04088 0.0
Co494 Co 0.53265 0.06456 0.0633 0.0
C495 C 0.50917 0.05741 0.97537 0.0
C496 C 0.52858 0.02425 0.98183 0.0
N497 N 0.52101 0.04479 0.99296 0.0
N498 N 0.50887 0.04548 0.95369 0.0
C499 C 0.52109 0.0246 0.95764 0.0
H500 H 0.50029 0.07465 0.9787 0.0
H501 H 0.53862 0.00983 0.99084 0.0
C502 C 0.48588 0.07717 0.04755 0.0
N503 N 0.53703 0.07254 0.09597 0.0
C504 C 0.54678 0.05756 0.11303 0.0
C505 C 0.52779 0.0913 0.10912 0.0
N506 N 0.5436 0.06585 0.13634 0.0
C507 C 0.53165 0.08709 0.13414 0.0
C508 C 0.54414 0.09962 0.02897 0.0
O509 O 0.4926 0.06616 0.0278 0.0
O510 O 0.5008 0.07865 0.06504 0.0
O511 O 0.54507 0.09458 0.05213 0.0
O512 O 0.53632 0.08399 0.01424 0.0
O513 O 0.56489 0.05009 0.06129 0.0
H514 H 0.5177 0.10631 0.10123 0.0
H515 H 0.55446 0.03997 0.10866 0.0
O516 O 0.55783 0.04081 0.02278 0.0
O517 O 0.51439 0.02291 0.03633 0.0
O518 O 0.51969 0.03483 0.07451 0.0
C519 C 0.5128 0.01897 0.05965 0.0
H520 H 0.52421 0.0105 0.9441 0.0
H521 H 0.5255 0.09829 0.14951 0.0
Co522 Co 0.26764 0.24986 0.30325 0.0
C523 C 0.3154 0.26666 0.30354 0.0
Co524 Co 0.27209 0.28483 0.28399 0.0
C525 C 0.25283 0.20118 0.31715 0.0
C526 C 0.27353 0.21811 0.34487 0.0
N527 N 0.26442 0.22175 0.32203 0.0
N528 N 0.25424 0.18498 0.33619 0.0
C529 C 0.26726 0.19561 0.35363 0.0
H530 H 0.24325 0.19831 0.30016 0.0
H531 H 0.28409 0.23106 0.35458 0.0
C532 C 0.22432 0.26737 0.28411 0.0
N533 N 0.27571 0.31272 0.26518 0.0
C534 C 0.29238 0.32999 0.26721 0.0
C535 C 0.26514 0.31746 0.24323 0.0
N536 N 0.293 0.3449 0.24711 0.0
C537 C 0.27586 0.33719 0.232 0.0
C538 C 0.27698 0.2435 0.25296 0.0
O539 O 0.23376 0.2503 0.29687 0.0
O540 O 0.23764 0.2849 0.27701 0.0
O541 O 0.27818 0.26642 0.25379 0.0
O542 O 0.27327 0.23182 0.27333 0.0
O543 O 0.30654 0.28442 0.29129 0.0
H544 H 0.25171 0.30629 0.23507 0.0
H545 H 0.30512 0.33051 0.28212 0.0
O546 O 0.30157 0.2493 0.30963 0.0
O547 O 0.26174 0.26808 0.33291 0.0
O548 O 0.26598 0.30324 0.3143 0.0
C549 C 0.26218 0.29097 0.33432 0.0
H550 H 0.27219 0.18754 0.37132 0.0
H551 H 0.27217 0.34461 0.21368 0.0
Co552 Co 0.53591 0.54277 0.00371 0.0
C553 C 0.51308 0.55995 0.04704 0.0
Co554 Co 0.55006 0.57705 0.01682 0.0
C555 C 0.53484 0.49491 0.98413 0.0
C556 C 0.49939 0.50889 0.99301 0.0
N557 N 0.52302 0.51433 0.99352 0.0
N558 N 0.51952 0.47754 0.97763 0.0
C559 C 0.49717 0.48628 0.98325 0.0
H560 H 0.55433 0.49366 0.98213 0.0
H561 H 0.4847 0.5208 0.99895 0.0
C562 C 0.57277 0.55997 0.97351 0.0
N563 N 0.5628 0.60577 0.02669 0.0
C564 C 0.55103 0.62717 0.02817 0.0
C565 C 0.58592 0.61059 0.03198 0.0
N566 N 0.56583 0.64515 0.03388 0.0
C567 C 0.58779 0.63487 0.03664 0.0
C568 C 0.57367 0.53677 0.03552 0.0
O569 O 0.55765 0.54302 0.97582 0.0
O570 O 0.57246 0.57661 0.98953 0.0
O571 O 0.5724 0.55964 0.03641 0.0
O572 O 0.55906 0.52554 0.02228 0.0
O573 O 0.52753 0.57747 0.04433 0.0
H574 H 0.60058 0.59743 0.03186 0.0
H575 H 0.53191 0.6296 0.02508 0.0
O576 O 0.51426 0.54281 0.03159 0.0
O577 O 0.513 0.55984 0.9851 0.0
O578 O 0.52747 0.59419 0.99688 0.0
C579 C 0.51234 0.58269 0.98455 0.0
H580 H 0.48036 0.47734 0.97992 0.0
H581 H 0.60406 0.64432 0.04103 0.0
Co582 Co 0.77358 0.29829 0.28066 0.0
C583 C 0.72955 0.27433 0.28992 0.0
Co584 Co 0.77085 0.26435 0.26036 0.0
C585 C 0.77427 0.3491 0.28854 0.0
C586 C 0.77271 0.32957 0.32328 0.0
N587 N 0.77445 0.32657 0.29831 0.0
N588 N 0.77213 0.36595 0.30626 0.0
C589 C 0.77152 0.35391 0.32824 0.0
H590 H 0.77548 0.35321 0.26874 0.0
H591 H 0.77157 0.31505 0.33697 0.0
C592 C 0.81506 0.28859 0.25184 0.0
N593 N 0.76991 0.23655 0.24226 0.0
C594 C 0.76209 0.21468 0.24974 0.0
C595 C 0.77736 0.23384 0.21824 0.0
N596 N 0.76431 0.19838 0.23133 0.0
C597 C 0.77397 0.21035 0.21147 0.0
C598 C 0.75309 0.30358 0.23449 0.0
O599 O 0.80544 0.30393 0.26672 0.0
O600 O 0.80282 0.27031 0.24619 0.0
O601 O 0.75657 0.281 0.23381 0.0
O602 O 0.75963 0.31516 0.25326 0.0
O603 O 0.73874 0.25869 0.275 0.0
H604 H 0.78469 0.2481 0.20639 0.0
H605 H 0.75515 0.2108 0.26845 0.0
O606 O 0.74193 0.29272 0.29477 0.0
O607 O 0.7875 0.2811 0.30748 0.0
O608 O 0.78509 0.24733 0.28698 0.0
C609 C 0.79131 0.25849 0.30619 0.0
H610 H 0.76956 0.36211 0.34641 0.0
H611 H 0.77781 0.20283 0.19323 0.0
Co612 Co 0.02035 0.52918 0.51245 0.0
C613 C 0.06658 0.51849 0.52972 0.0
Co614 Co 0.02865 0.54869 0.54637 0.0
C615 C 0.00626 0.52302 0.46276 0.0
C616 C 0.01652 0.48895 0.47886 0.0
N617 N 0.01413 0.51268 0.48392 0.0
N618 N 0.00381 0.5069 0.44457 0.0
C619 C 0.00996 0.4853 0.45458 0.0
H620 H 1.00198 0.54208 0.46087 0.0
H621 H 0.02268 0.47527 0.49193 0.0
C622 C 0.98162 0.55779 0.52884 0.0
N623 N 0.0345 0.56603 0.57445 0.0
C624 C 0.04478 0.55863 0.59574 0.0
C625 C 0.02843 0.58942 0.57805 0.0
N626 N 0.04533 0.5765 0.61257 0.0
C627 C 0.03505 0.59591 0.60144 0.0
C628 C 0.04075 0.57375 0.50303 0.0
O629 O 0.98882 0.54326 0.51201 0.0
O630 O 0.9962 0.56306 0.54578 0.0
O631 O 0.04075 0.57446 0.52663 0.0
O632 O 0.03267 0.55525 0.49269 0.0
O633 O 0.06107 0.53367 0.54676 0.0
H634 H 0.01954 0.60096 0.56457 0.0
H635 H 0.05184 0.54051 0.59867 0.0
O636 O 0.05142 0.51473 0.51296 0.0
O637 O 0.00834 0.50342 0.53228 0.0
O638 O 0.0166 0.52278 0.56628 0.0
C639 C 0.00864 0.50416 0.55594 0.0
H640 H 0.00994 0.46824 0.44499 0.0
H641 H 0.0321 0.61344 0.60972 0.0
Co642 Co 0.78757 0.80147 0.28722 0.0
C643 C 0.76135 0.81629 0.24587 0.0
Co644 Co 0.75009 0.78917 0.28951 0.0
C645 C 0.83855 0.79718 0.29083 0.0
C646 C 0.8279 0.83344 0.28143 0.0
N647 N 0.81914 0.81112 0.28575 0.0
N648 N 0.85905 0.80989 0.29019 0.0
C649 C 0.85254 0.83278 0.28441 0.0
H650 H 0.83748 0.77829 0.29624 0.0
H651 H 0.81698 0.84928 0.27727 0.0
C652 C 0.77583 0.7742 0.3308 0.0
N653 N 0.71852 0.77941 0.29126 0.0
C654 C 0.69893 0.79243 0.28468 0.0
C655 C 0.70997 0.75773 0.29876 0.0
N656 N 0.67845 0.77972 0.28754 0.0
C657 C 0.68529 0.75784 0.29639 0.0
C658 C 0.78098 0.75705 0.26603 0.0
O659 O 0.7928 0.78558 0.31937 0.0
O660 O 0.75542 0.77339 0.32072 0.0
O661 O 0.75905 0.76069 0.27268 0.0
O662 O 0.79654 0.77281 0.27062 0.0
O663 O 0.74479 0.80503 0.25801 0.0
H664 H 0.72103 0.7427 0.30509 0.0
H665 H 0.69985 0.81059 0.277 0.0
O666 O 0.78217 0.81727 0.25526 0.0
O667 O 0.77858 0.82993 0.30396 0.0
O668 O 0.74117 0.81762 0.30655 0.0
C669 C 0.75683 0.83325 0.31133 0.0
H670 H 0.86461 0.84796 0.28308 0.0
H671 H 0.67339 0.74287 0.30047 0.0
Co672 Co 0.80588 0.27691 0.80076 0.0
C673 C 0.7983 0.23252 0.78 0.0
Co674 Co 0.78604 0.27876 0.76579 0.0
C675 C 0.81346 0.28723 0.85126 0.0
C676 C 0.84087 0.26266 0.83783 0.0
N677 N 0.82109 0.27522 0.83081 0.0
N678 N 0.82757 0.28286 0.87089 0.0
C679 C 0.84489 0.26729 0.8626 0.0
H680 H 0.79742 0.29865 0.85175 0.0
H681 H 0.85158 0.25091 0.82578 0.0
C682 C 0.79289 0.32322 0.78677 0.0
N683 N 0.77048 0.28109 0.73597 0.0
C684 C 0.77752 0.27067 0.71439 0.0
C685 C 0.75073 0.29447 0.73047 0.0
N686 N 0.76312 0.27711 0.69547 0.0
C687 C 0.74611 0.29202 0.70554 0.0
C688 C 0.75591 0.27381 0.80686 0.0
O689 O 0.804 0.31102 0.80316 0.0
O690 O 0.78385 0.31243 0.76868 0.0
O691 O 0.75584 0.27566 0.78323 0.0
O692 O 0.77584 0.27427 0.81783 0.0
O693 O 0.78825 0.24493 0.76302 0.0
H694 H 0.74064 0.30565 0.74362 0.0
H695 H 0.79299 0.25856 0.71269 0.0
O696 O 0.8074 0.243 0.79834 0.0
O697 O 0.83595 0.27929 0.78353 0.0
O698 O 0.81641 0.28165 0.74858 0.0
C699 C 0.83627 0.28112 0.75989 0.0
H700 H 0.85949 0.25995 0.8735 0.0
H701 H 0.73175 0.30098 0.69554 0.0
Co702 Co 0.77189 0.7743 0.79342 0.0
C703 C 0.8174 0.79497 0.7975 0.0
Co704 Co 0.7729 0.81124 0.77854 0.0
C705 C 0.76264 0.72423 0.79411 0.0
C706 C 0.78125 0.73415 0.82673 0.0
N707 N 0.77098 0.74338 0.8061 0.0
N708 N 0.76767 0.70329 0.80604 0.0
C709 C 0.77932 0.70938 0.8267 0.0
H710 H 0.75435 0.72554 0.7761 0.0
H711 H 0.79052 0.74464 0.84024 0.0
C712 C 0.72741 0.79009 0.7744 0.0
N713 N 0.77399 0.84196 0.76525 0.0
C714 C 0.79233 0.85161 0.75158 0.0
C715 C 0.75672 0.85935 0.76631 0.0
N716 N 0.78732 0.87444 0.74405 0.0
C717 C 0.76487 0.87938 0.75331 0.0
C718 C 0.78288 0.77614 0.74218 0.0
O719 O 0.738 0.77282 0.78588 0.0
O720 O 0.7392 0.80928 0.76981 0.0
O721 O 0.7818 0.79869 0.74623 0.0
O722 O 0.77964 0.76169 0.76057 0.0
O723 O 0.80662 0.81298 0.78745 0.0
H724 H 0.73936 0.85759 0.77595 0.0
H725 H 0.80927 0.84217 0.74776 0.0
O726 O 0.80573 0.77554 0.8008 0.0
O727 O 0.76422 0.78713 0.82622 0.0
O728 O 0.7642 0.82396 0.81081 0.0
C729 C 0.76235 0.80983 0.82971 0.0
H730 H 0.78646 0.69684 0.8404 0.0
H731 H 0.75503 0.89626 0.751 0.0
Co732 Co 0.52099 0.55059 0.50089 0.0
C733 C 0.51358 0.58412 0.53948 0.0
Co734 Co 0.52471 0.53429 0.53815 0.0
C735 C 0.5095 0.55683 0.4489 0.0
C736 C 0.52998 0.58599 0.46267 0.0
N737 N 0.51925 0.56517 0.46978 0.0
N738 N 0.51409 0.57147 0.42902 0.0
C739 C 0.52695 0.58984 0.43757 0.0
H740 H 0.50014 0.53986 0.44805 0.0
H741 H 0.54001 0.59729 0.47483 0.0
C742 C 0.53161 0.50099 0.49871 0.0
N743 N 0.52695 0.52004 0.56925 0.0
C744 C 0.53566 0.53013 0.58975 0.0
C745 C 0.52101 0.49737 0.57643 0.0
N746 N 0.53552 0.51467 0.60937 0.0
C747 C 0.52651 0.49394 0.60114 0.0
C748 C 0.47765 0.53164 0.51952 0.0
O749 O 0.52819 0.52005 0.48565 0.0
O750 O 0.53179 0.50298 0.5224 0.0
O751 O 0.49073 0.52667 0.53813 0.0
O752 O 0.48712 0.54305 0.50093 0.0
O753 O 0.51749 0.56575 0.55348 0.0
H754 H 0.51342 0.48412 0.56442 0.0
H755 H 0.54271 0.54824 0.59011 0.0
O756 O 0.51361 0.58107 0.51601 0.0
O757 O 0.55484 0.55797 0.50102 0.0
O758 O 0.55883 0.54205 0.53823 0.0
C759 C 0.5681 0.55336 0.51951 0.0
H760 H 0.53384 0.60482 0.42641 0.0
H761 H 0.52415 0.47756 0.61218 0.0
Co762 Co 0.02036 0.53152 0.03304 0.0
C763 C 0.03313 0.57983 0.02604 0.0
Co764 Co 0.04974 0.54169 0.05732 0.0
C765 C 0.97434 0.5124 0.02845 0.0
C766 C 0.98484 0.52965 0.99395 0.0
N767 N 0.99309 0.52315 0.01655 0.0
N768 N 0.95438 0.51268 0.01484 0.0
C769 C 0.96086 0.52314 0.99282 0.0
H770 H 0.97485 0.50592 0.0476 0.0
H771 H 0.99496 0.53998 0.98001 0.0
C772 C 0.03749 0.4934 0.06416 0.0
N773 N 0.07689 0.54994 0.07419 0.0
C774 C 0.09695 0.55872 0.06282 0.0
C775 C 0.08317 0.54511 0.09785 0.0
N776 N 0.11598 0.55887 0.07794 0.0
C777 C 0.10724 0.55057 0.10022 0.0
C778 C 0.0071 0.54974 0.08069 0.0
O779 O 0.02217 0.49897 0.04767 0.0
O780 O 0.05158 0.50969 0.07127 0.0
O781 O 0.02952 0.55146 0.08438 0.0
O782 O 1.00024 0.54184 0.06006 0.0
O783 O 0.04792 0.57395 0.04296 0.0
H784 H 0.0715 0.53677 0.11195 0.0
H785 H 0.09783 0.56313 0.04313 0.0
O786 O 0.01881 0.56382 0.01864 0.0
O787 O 0.04056 0.52162 0.00604 0.0
O788 O 0.06979 0.5316 0.03028 0.0
C789 C 0.06298 0.52364 0.00967 0.0
H790 H 0.94872 0.52743 0.97788 0.0
H791 H 0.11762 0.54748 0.11677 0.0
H792 H 0.03572 0.19874 0.13518 0.0
H793 H 0.99958 0.23867 0.07634 0.0
H794 H 0.99374 0.20094 0.05404 0.0
H795 H 0.06671 0.15529 0.09425 0.0
H796 H 0.06302 0.13006 0.1156 0.0
H797 H 0.06471 0.16025 0.12742 0.0
H798 H 0.02374 0.15458 0.15122 0.0
H799 H 0.02192 0.12441 0.13937 0.0
H800 H 0.99767 0.14588 0.13432 0.0
H801 H 0.99162 0.15934 0.0374 0.0
H802 H 0.99393 0.11619 0.02718 0.0
H803 H 0.0309 0.10114 0.09613 0.0
C804 C 0.02665 0.19954 0.11757 0.0
C805 C 0.01814 0.22201 0.10766 0.0
C806 C 0.00631 0.22199 0.08454 0.0
C807 C 0.00285 0.20052 0.07162 0.0
C808 C 0.01125 0.17882 0.08186 0.0
C809 C 0.02297 0.17803 0.10426 0.0
C810 C 0.03017 0.152 0.11082 0.0
C811 C 0.0578 0.14924 0.1121 0.0
C812 C 0.01763 0.14373 0.1354 0.0
C813 C 0.02063 0.13845 0.08864 0.0
C814 C 0.00982 0.15444 0.07222 0.0
C815 C 0.99999 0.14664 0.05016 0.0
C816 C 1.00138 0.12197 0.04452 0.0
C817 C 0.01243 0.10499 0.06082 0.0
C818 C 0.02205 0.11349 0.08335 0.0
H819 H 0.13462 0.77871 0.39637 0.0
H820 H 0.07897 0.7993 0.34441 0.0
H821 H 0.10809 0.79352 0.30917 0.0
H822 H 0.18613 0.80587 0.36031 0.0
H823 H 0.20617 0.78136 0.36886 0.0
H824 H 0.18179 0.79037 0.38991 0.0
H825 H 0.16646 0.74632 0.39091 0.0
H826 H 0.19048 0.73739 0.36948 0.0
H827 H 0.15949 0.73206 0.36204 0.0
H828 H 0.14225 0.78151 0.27942 0.0
H829 H 0.17994 0.76722 0.25786 0.0
H830 H 0.21202 0.75387 0.32983 0.0
C831 C 0.12869 0.78261 0.37765 0.0
C832 C 0.10456 0.78941 0.37313 0.0
C833 C 0.09743 0.79409 0.34831 0.0
C834 C 0.11381 0.79084 0.32816 0.0
C835 C 0.13722 0.78312 0.33321 0.0
C836 C 0.14476 0.77944 0.35737 0.0
C837 C 0.17043 0.76986 0.35778 0.0
C838 C 0.1871 0.78795 0.36993 0.0
C839 C 0.17177 0.74493 0.37082 0.0
C840 C 0.17587 0.76806 0.33011 0.0
C841 C 0.15666 0.77595 0.31616 0.0
C842 C 0.15752 0.77547 0.29014 0.0
C843 C 0.17886 0.76715 0.27807 0.0
C844 C 0.19882 0.75934 0.29216 0.0
C845 C 0.19707 0.75963 0.31848 0.0
H846 H 0.56837 0.86577 0.6129 0.0
H847 H 0.49525 0.83941 0.60844 0.0
H848 H 0.48332 0.87709 0.58633 0.0
H849 H 0.5519 0.92754 0.62455 0.0
H850 H 0.57679 0.93984 0.60625 0.0
H851 H 0.57976 0.91048 0.62085 0.0
H852 H 0.59118 0.89189 0.57799 0.0
H853 H 0.58824 0.92121 0.56325 0.0
H854 H 0.57116 0.89624 0.55234 0.0
H855 H 0.47915 0.9186 0.56504 0.0
H856 H 0.48295 0.95993 0.54741 0.0
H857 H 0.55869 0.95965 0.56609 0.0
C858 C 0.54986 0.86777 0.60713 0.0
C859 C 0.5328 0.84933 0.61243 0.0
C860 C 0.50874 0.85305 0.60466 0.0
C861 C 0.50178 0.87447 0.59203 0.0
C862 C 0.51901 0.89226 0.58724 0.0
C863 C 0.54258 0.88913 0.5946 0.0
C864 C 0.55748 0.91127 0.58774 0.0
C865 C 0.56704 0.92297 0.61125 0.0
C866 C 0.57824 0.90476 0.56923 0.0
C867 C 0.53865 0.92741 0.57543 0.0
C868 C 0.51658 0.91608 0.57525 0.0
C869 C 0.4964 0.92753 0.56509 0.0
C870 C 0.49875 0.9511 0.55505 0.0
C871 C 0.52112 0.96325 0.55517 0.0
C872 C 0.54132 0.95099 0.56549 0.0
H873 H 0.48138 0.28708 0.83638 0.0
H874 H 0.46432 0.22094 0.87741 0.0
H875 H 0.42116 0.2274 0.86909 0.0
H876 H 0.43123 0.32136 0.85733 0.0
H877 H 0.42613 0.33664 0.82797 0.0
H878 H 0.45609 0.32621 0.83538 0.0
H879 H 0.45888 0.30142 0.79475 0.0
H880 H 0.42911 0.31216 0.78696 0.0
H881 H 0.43553 0.28018 0.78856 0.0
H882 H 0.37998 0.24291 0.86026 0.0
H883 H 0.34307 0.26354 0.8463 0.0
H884 H 0.3865 0.31871 0.80896 0.0
C885 C 0.46863 0.27372 0.84322 0.0
C886 C 0.47622 0.25353 0.85761 0.0
C887 C 0.45896 0.2365 0.8663 0.0
C888 C 0.43438 0.24007 0.86178 0.0
C889 C 0.42743 0.26058 0.84831 0.0
C890 C 0.44402 0.27688 0.83871 0.0
C891 C 0.43163 0.29753 0.825 0.0
C892 C 0.43657 0.32187 0.83716 0.0
C893 C 0.43924 0.29783 0.79716 0.0
C894 C 0.40544 0.29049 0.82885 0.0
C895 C 0.40351 0.26918 0.84246 0.0
C896 C 0.38125 0.25934 0.84915 0.0
C897 C 0.36039 0.2712 0.84104 0.0
C898 C 0.36186 0.29252 0.82608 0.0
C899 C 0.38474 0.3025 0.82035 0.0
H900 H 0.98972 0.82573 0.4904 0.0
H901 H 0.06725 0.81513 0.4809 0.0
H902 H 0.07379 0.84354 0.51485 0.0
H903 H 0.99117 0.88631 0.49631 0.0
H904 H 0.96676 0.88907 0.51919 0.0
H905 H 0.96788 0.8639 0.49848 0.0
H906 H 0.9664 0.83437 0.5365 0.0
H907 H 0.96539 0.8596 0.55739 0.0
H908 H 0.98856 0.83658 0.56029 0.0
H909 H 0.07253 0.87804 0.54324 0.0
H910 H 0.06329 0.91724 0.56307 0.0
H911 H 0.98685 0.90587 0.55494 0.0
C912 C 0.00801 0.82878 0.49609 0.0
C913 C 0.02797 0.81819 0.48318 0.0
C914 C 0.0517 0.82308 0.4906 0.0
C915 C 0.05559 0.83902 0.51002 0.0
C916 C 0.03556 0.8498 0.52192 0.0
C917 C 0.0122 0.84485 0.51533 0.0
C918 C 0.99406 0.86144 0.52844 0.0
C919 C 0.97912 0.87604 0.50947 0.0
C920 C 0.97763 0.84714 0.54675 0.0
C921 C 0.01097 0.8774 0.54223 0.0
C922 C 0.03481 0.86997 0.53871 0.0
C923 C 0.05393 0.88362 0.5468 0.0
C924 C 0.04859 0.90581 0.55797 0.0
C925 C 0.02442 0.91411 0.56085 0.0
C926 C 0.00538 0.89934 0.55376 0.0
H927 H 0.431 0.7542 0.68046 0.0
H928 H 0.47196 0.8091 0.71663 0.0
H929 H 0.43574 0.81981 0.74271 0.0
H930 H 0.3751 0.78698 0.67814 0.0
H931 H 0.35662 0.76095 0.68445 0.0
H932 H 0.38585 0.75738 0.66916 0.0
H933 H 0.39852 0.72651 0.70332 0.0
H934 H 0.36928 0.72994 0.71867 0.0
H935 H 0.3963 0.73494 0.73567 0.0
H936 H 0.39354 0.82571 0.76377 0.0
H937 H 0.3508 0.82466 0.77895 0.0
H938 H 0.33819 0.76501 0.72975 0.0
C939 C 0.43249 0.76841 0.69395 0.0
C940 C 0.45452 0.7808 0.69638 0.0
C941 C 0.45545 0.79924 0.71437 0.0
C942 C 0.43488 0.8055 0.72926 0.0
C943 C 0.41341 0.79307 0.72618 0.0
C944 C 0.41221 0.77474 0.70907 0.0
C945 C 0.38707 0.76408 0.7093 0.0
C946 C 0.37548 0.76756 0.68374 0.0
C947 C 0.38785 0.73728 0.71721 0.0
C948 C 0.37419 0.77934 0.72905 0.0
C949 C 0.38961 0.79606 0.73854 0.0
C950 C 0.38145 0.81253 0.75654 0.0
C951 C 0.35707 0.81183 0.76506 0.0
C952 C 0.341 0.79467 0.75577 0.0
C953 C 0.34992 0.77825 0.73751 0.0
H954 H 0.53924 0.20465 0.92755 0.0
H955 H 0.55246 0.25548 0.98629 0.0
H956 H 0.55681 0.22143 0.01634 0.0
H957 H 0.50404 0.16356 0.96462 0.0
H958 H 0.51623 0.13723 0.94907 0.0
H959 H 0.51464 0.1657 0.93252 0.0
H960 H 0.56068 0.16262 0.92215 0.0
H961 H 0.56241 0.13427 0.93897 0.0
H962 H 0.58151 0.1588 0.94716 0.0
H963 H 0.559 0.18149 0.04 0.0
H964 H 0.55637 0.13933 0.05571 0.0
H965 H 0.54242 0.11558 0.98075 0.0
C966 C 0.54303 0.20872 0.94673 0.0
C967 C 0.54553 0.23272 0.95459 0.0
C968 C 0.55044 0.2372 0.97987 0.0
C969 C 0.55305 0.218 0.99703 0.0
C970 C 0.55077 0.19451 0.98853 0.0
C971 C 0.54574 0.18987 0.96398 0.0
C972 C 0.54356 0.16314 0.95956 0.0
C973 C 0.51811 0.15706 0.95095 0.0
C974 C 0.56322 0.15419 0.94085 0.0
C975 C 0.54787 0.15342 0.98554 0.0
C976 C 0.55217 0.17171 0.002 0.0
C977 C 0.55579 0.16701 0.02725 0.0
C978 C 0.55436 0.14302 0.03597 0.0
C979 C 0.54928 0.12418 0.01944 0.0
C980 C 0.54653 0.12952 0.99385 0.0
H981 H 0.10806 0.28881 0.1976 0.0
H982 H 0.07256 0.23395 0.24373 0.0
H983 H 0.10827 0.23076 0.26979 0.0
H984 H 0.16791 0.26182 0.1992 0.0
H985 H 0.18345 0.29009 0.20075 0.0
H986 H 0.15482 0.28886 0.18575 0.0
H987 H 0.13761 0.32222 0.21485 0.0
H988 H 0.1662 0.3235 0.22997 0.0
H989 H 0.13887 0.31801 0.24821 0.0
H990 H 0.14805 0.23213 0.29047 0.0
H991 H 0.18956 0.23796 0.3043 0.0
H992 H 0.2007 0.2923 0.24601 0.0
C993 C 0.10775 0.27623 0.21326 0.0
C994 C 0.0872 0.26165 0.21847 0.0
C995 C 0.08782 0.24536 0.23915 0.0
C996 C 0.10812 0.2434 0.25419 0.0
C997 C 0.12798 0.25786 0.24856 0.0
C998 C 0.12807 0.27399 0.22862 0.0
C999 C 0.15219 0.287 0.22661 0.0
C1000 C 0.16537 0.28162 0.20159 0.0
C1001 C 0.14849 0.31431 0.23012 0.0
C1002 C 0.16554 0.27557 0.24843 0.0
C1003 C 0.15112 0.25881 0.26077 0.0
C1004 C 0.15944 0.24532 0.28103 0.0
C1005 C 0.18314 0.24879 0.28878 0.0
C1006 C 0.19853 0.26574 0.27651 0.0
C1007 C 0.18938 0.27946 0.25612 0.0
H1008 H 0.1242 0.97982 0.24444 0.0
H1009 H 0.13349 0.05641 0.2565 0.0
H1010 H 0.11107 0.06583 0.21832 0.0
H1011 H 0.13019 0.982 0.17696 0.0
H1012 H 0.10745 0.95956 0.17296 0.0
H1013 H 0.12516 0.95896 0.20061 0.0
H1014 H 0.08584 0.96034 0.22816 0.0
H1015 H 0.06802 0.96105 0.20062 0.0
H1016 H 0.06409 0.98444 0.22346 0.0
H1017 H 0.08691 0.06681 0.17919 0.0
H1018 H 0.06218 0.05919 0.14258 0.0
H1019 H 0.0686 0.98207 0.15679 0.0
C1020 C 0.12172 0.99858 0.23897 0.0
C1021 C 0.13063 0.01739 0.25339 0.0
C1022 C 0.1268 0.0417 0.24571 0.0
C1023 C 0.11413 0.04724 0.22405 0.0
C1024 C 0.1054 0.02825 0.21037 0.0
C1025 C 0.10902 0.00442 0.21754 0.0
C1026 C 0.09717 0.98738 0.20005 0.0
C1027 C 0.11613 0.97101 0.18686 0.0
C1028 C 0.07762 0.97243 0.2139 0.0
C1029 C 0.08616 0.00535 0.18201 0.0
C1030 C 0.09123 0.02882 0.18815 0.0
C1031 C 0.08289 0.04849 0.17416 0.0
C1032 C 0.06896 0.044 0.15336 0.0
C1033 C 0.06341 0.02005 0.14691 0.0
C1034 C 0.07224 1.00057 0.16146 0.0
H1035 H 0.26084 0.8456 0.45321 0.0
H1036 H 0.29821 0.80012 0.50678 0.0
H1037 H 0.30181 0.76769 0.4756 0.0
H1038 H 0.22824 0.79758 0.42192 0.0
H1039 H 0.23249 0.8122 0.39185 0.0
H1040 H 0.2302 0.83001 0.41966 0.0
H1041 H 0.27134 0.84945 0.40715 0.0
H1042 H 0.27376 0.83115 0.37975 0.0
H1043 H 0.29758 0.83027 0.40195 0.0
H1044 H 0.30349 0.74139 0.43762 0.0
H1045 H 0.30449 0.72385 0.39566 0.0
H1046 H 0.26786 0.78806 0.36707 0.0
C1047 C 0.26933 0.82864 0.45861 0.0
C1048 C 0.27909 0.82524 0.48244 0.0
C1049 C 0.29056 0.80301 0.4886 0.0
C1050 C 0.29259 0.78449 0.47108 0.0
C1051 C 0.2831 0.7886 0.44757 0.0
C1052 C 0.27171 0.81015 0.44134 0.0
C1053 C 0.2649 0.81093 0.41425 0.0
C1054 C 0.23732 0.81277 0.4118 0.0
C1055 C 0.27767 0.83167 0.39995 0.0
C1056 C 0.27459 0.78658 0.40607 0.0
C1057 C 0.28473 0.77382 0.42557 0.0
C1058 C 0.29553 0.75119 0.42221 0.0
C1059 C 0.29617 0.74146 0.3982 0.0
C1060 C 0.28635 0.7545 0.37779 0.0
C1061 C 0.27523 0.77727 0.38207 0.0
H1062 H 0.42564 0.04174 0.6945 0.0
H1063 H 0.48567 0.06174 0.73979 0.0
H1064 H 0.51306 0.05998 0.70249 0.0
H1065 H 0.45952 0.00138 0.65194 0.0
H1066 H 0.44234 0.01142 0.62559 0.0
H1067 H 0.42854 0.01131 0.65647 0.0
H1068 H 0.41754 0.05674 0.65094 0.0
H1069 H 0.43173 0.05713 0.62029 0.0
H1070 H 0.44115 0.07795 0.64347 0.0
H1071 H 0.53308 0.05869 0.65952 0.0
H1072 H 0.54436 0.05661 0.61455 0.0
H1073 H 0.4702 0.03968 0.59828 0.0
C1074 C 0.44465 0.04518 0.69678 0.0
C1075 C 0.4536 0.05177 0.72001 0.0
C1076 C 0.47851 0.05656 0.72211 0.0
C1077 C 0.49416 0.05564 0.70107 0.0
C1078 C 0.48451 0.04996 0.67823 0.0
C1079 C 0.46036 0.04465 0.67605 0.0
C1080 C 0.45402 0.04065 0.64927 0.0
C1081 C 0.44562 0.01464 0.64561 0.0
C1082 C 0.43499 0.05923 0.64049 0.0
C1083 C 0.47831 0.04491 0.63662 0.0
C1084 C 0.49576 0.05003 0.65358 0.0
C1085 C 0.51959 0.05462 0.64608 0.0
C1086 C 0.52579 0.05352 0.62055 0.0
C1087 C 0.50809 0.04817 0.60301 0.0
C1088 C 0.48407 0.04407 0.61122 0.0
H1089 H 0.28273 0.20756 0.96045 0.0
H1090 H 0.20748 0.18624 0.96505 0.0
H1091 H 0.20144 0.20278 0.92303 0.0
H1092 H 0.27144 0.2645 0.92642 0.0
H1093 H 0.29867 0.26238 0.9072 0.0
H1094 H 0.29769 0.24879 0.93798 0.0
H1095 H 0.31056 0.20763 0.91917 0.0
H1096 H 0.31146 0.22112 0.88835 0.0
H1097 H 0.29303 0.1951 0.89486 0.0
H1098 H 0.20312 0.2197 0.87989 0.0
H1099 H 0.21185 0.23926 0.8391 0.0
H1100 H 0.28529 0.25242 0.86109 0.0
C1101 C 0.26498 0.20651 0.95265 0.0
C1102 C 0.24562 0.19543 0.9664 0.0
C1103 C 0.22269 0.19456 0.95528 0.0
C1104 C 0.21901 0.20389 0.93122 0.0
C1105 C 0.23832 0.21443 0.91816 0.0
C1106 C 0.26082 0.21612 0.92845 0.0
C1107 C 0.2782 0.2289 0.91011 0.0
C1108 C 0.28702 0.25255 0.92109 0.0
C1109 C 0.29958 0.21219 0.90269 0.0
C1110 C 0.26193 0.23385 0.88804 0.0
C1111 C 0.23907 0.2251 0.89317 0.0
C1112 C 0.22092 0.2268 0.87572 0.0
C1113 C 0.2261 0.23792 0.85248 0.0
C1114 C 0.2492 0.24756 0.84671 0.0
C1115 C 0.26737 0.24541 0.86488 0.0
H1116 H 0.08271 0.01241 0.35686 0.0
H1117 H 0.11516 0.94195 0.37111 0.0
H1118 H 0.08654 0.93588 0.4069 0.0
H1119 H 0.07967 0.0295 0.41672 0.0
H1120 H 0.0516 0.04631 0.41505 0.0
H1121 H 0.07024 0.04241 0.38742 0.0
H1122 H 0.03418 0.02364 0.3652 0.0
H1123 H 0.01542 0.02735 0.39303 0.0
H1124 H 0.01902 0.998 0.37922 0.0
H1125 H 0.05951 0.94046 0.44495 0.0
H1126 H 0.03996 0.95676 0.48327 0.0
H1127 H 0.02583 0.02447 0.44438 0.0
C1128 C 0.0833 0.99535 0.36697 0.0
C1129 C 0.10103 0.97759 0.36111 0.0
C1130 C 0.10162 0.95577 0.37521 0.0
C1131 C 0.0853 0.95208 0.39545 0.0
C1132 C 0.06845 0.97032 0.4012 0.0
C1133 C 0.06737 0.99154 0.38729 0.0
C1134 C 0.05047 0.00991 0.39942 0.0
C1135 C 0.0638 0.03338 0.40499 0.0
C1136 C 0.02846 0.01501 0.38325 0.0
C1137 C 0.04329 0.9963 0.42308 0.0
C1138 C 0.05317 0.9732 0.42345 0.0
C1139 C 0.05122 0.95829 0.44463 0.0
C1140 C 0.03997 0.96765 0.4663 0.0
C1141 C 0.03133 0.99184 0.46666 0.0
C1142 C 0.03199 0.00581 0.44445 0.0
H1143 H 0.24678 0.8251 0.59015 0.0
H1144 H 0.25863 0.9019 0.59767 0.0
H1145 H 0.2578 0.89698 0.6435 0.0
H1146 H 0.20711 0.81723 0.64567 0.0
H1147 H 0.22018 0.78821 0.65359 0.0
H1148 H 0.21947 0.79806 0.62142 0.0
H1149 H 0.2659 0.79165 0.61697 0.0
H1150 H 0.26674 0.78177 0.64908 0.0
H1151 H 0.28526 0.80649 0.6382 0.0
H1152 H 0.25782 0.88357 0.6881 0.0
H1153 H 0.26069 0.86219 0.72862 0.0
H1154 H 0.24979 0.79393 0.69206 0.0
C1155 C 0.24883 0.84092 0.60147 0.0
C1156 C 0.25265 0.86389 0.59042 0.0
C1157 C 0.25571 0.88412 0.60579 0.0
C1158 C 0.25513 0.88154 0.63182 0.0
C1159 C 0.25156 0.85861 0.64214 0.0
C1160 C 0.24856 0.83863 0.62748 0.0
C1161 C 0.24674 0.81576 0.64322 0.0
C1162 C 0.22189 0.80414 0.64083 0.0
C1163 C 0.26739 0.79788 0.63647 0.0
C1164 C 0.24956 0.826 0.66895 0.0
C1165 C 0.25202 0.85078 0.66793 0.0
C1166 C 0.25573 0.86419 0.6892 0.0
C1167 C 0.25732 0.85187 0.71212 0.0
C1168 C 0.2554 0.8264 0.71349 0.0
C1169 C 0.25115 0.81342 0.69164 0.0
H1170 H 0.43053 0.02287 0.83612 0.0
H1171 H 0.42337 0.10066 0.82678 0.0
H1172 H 0.44857 0.10624 0.8635 0.0
H1173 H 0.42785 0.02144 0.90305 0.0
H1174 H 0.44971 0.99709 0.90526 0.0
H1175 H 0.43086 0.99958 0.87854 0.0
H1176 H 0.46912 0.99971 0.84933 0.0
H1177 H 0.4881 0.99747 0.87597 0.0
H1178 H 0.49206 0.02188 0.85366 0.0
H1179 H 0.47484 0.10301 0.90116 0.0
H1180 H 0.49935 0.09118 0.93731 0.0
H1181 H 0.48876 0.01566 0.92103 0.0
C1182 C 0.43413 0.04111 0.84182 0.0
C1183 C 0.42501 0.06134 0.82868 0.0
C1184 C 0.43019 0.0849 0.83668 0.0
C1185 C 0.4445 0.08825 0.85744 0.0
C1186 C 0.45342 0.06785 0.86981 0.0
C1187 C 0.44836 0.04476 0.86232 0.0
C1188 C 0.46011 0.0258 0.87865 0.0
C1189 C 0.44099 0.01006 0.89218 0.0
C1190 C 0.47843 0.01031 0.86349 0.0
C1191 C 0.4726 0.04182 0.89656 0.0
C1192 C 0.46858 0.06601 0.89122 0.0
C1193 C 0.47809 0.08412 0.90554 0.0
C1194 C 0.49188 0.07725 0.92604 0.0
C1195 C 0.49597 0.05251 0.93189 0.0
C1196 C 0.48631 0.03469 0.91678 0.0
H1197 H 0.27616 0.233 0.10308 0.0
H1198 H 0.26406 0.15626 0.1139 0.0
H1199 H 0.26575 0.16119 0.15952 0.0
H1200 H 0.31788 0.2397 0.15257 0.0
H1201 H 0.30629 0.2689 0.16188 0.0
H1202 H 0.304 0.25955 0.13001 0.0
H1203 H 0.25768 0.26697 0.13254 0.0
H1204 H 0.25988 0.27653 0.16435 0.0
H1205 H 0.23991 0.25243 0.15702 0.0
H1206 H 0.26947 0.17436 0.20445 0.0
H1207 H 0.27249 0.19498 0.24473 0.0
H1208 H 0.28164 0.2634 0.20524 0.0
C1209 C 0.27375 0.21721 0.11501 0.0
C1210 C 0.26997 0.19417 0.10464 0.0
C1211 C 0.26692 0.1741 0.12114 0.0
C1212 C 0.26793 0.17671 0.14719 0.0
C1213 C 0.27192 0.19957 0.15672 0.0
C1214 C 0.27458 0.21952 0.14114 0.0
C1215 C 0.27835 0.24214 0.15625 0.0
C1216 C 0.3031 0.25322 0.14979 0.0
C1217 C 0.25772 0.26061 0.1523 0.0
C1218 C 0.27748 0.23179 0.18273 0.0
C1219 C 0.27385 0.20717 0.18256 0.0
C1220 C 0.27231 0.19364 0.20473 0.0
C1221 C 0.27415 0.20554 0.2276 0.0
C1222 C 0.27746 0.23087 0.22839 0.0
C1223 C 0.27932 0.24402 0.20546 0.0
H1224 H 0.19017 0.1061 0.0741 0.0
H1225 H 0.21191 0.11405 0.99598 0.0
H1226 H 0.17468 0.09354 0.98408 0.0
H1227 H 0.16352 0.04642 0.0691 0.0
H1228 H 0.13936 0.05289 0.09143 0.0
H1229 H 0.16805 0.06749 0.09376 0.0
H1230 H 0.14643 0.10929 0.09248 0.0
H1231 H 0.11772 0.0948 0.0901 0.0
H1232 H 0.12719 0.11685 0.06688 0.0
H1233 H 0.13311 0.07461 0.98063 0.0
H1234 H 0.09245 0.05689 0.9861 0.0
H1235 H 0.09871 0.05935 0.06647 0.0
C1236 C 0.18727 0.10334 0.05448 0.0
C1237 C 0.20417 0.11174 0.03599 0.0
C1238 C 0.19946 0.10772 0.01054 0.0
C1239 C 0.17826 0.09612 0.00359 0.0
C1240 C 0.1619 0.08832 0.02226 0.0
C1241 C 0.1663 0.09156 0.04722 0.0
C1242 C 0.14574 0.08168 0.06366 0.0
C1243 C 0.15471 0.06088 0.08048 0.0
C1244 C 0.13355 0.10186 0.07919 0.0
C1245 C 0.12894 0.0726 0.04409 0.0
C1246 C 0.1385 0.07672 0.0203 0.0
C1247 C 0.12566 0.07103 0.9992 0.0
C1248 C 0.10253 0.06096 0.00248 0.0
C1249 C 0.09243 0.05634 0.02668 0.0
C1250 C 0.10605 0.06215 0.0477 0.0
H1251 H 0.68433 0.44555 0.02804 0.0
H1252 H 0.71712 0.4875 0.08544 0.0
H1253 H 0.67947 0.51153 0.09053 0.0
H1254 H 0.65272 0.49377 0.99949 0.0
H1255 H 0.62647 0.47634 0.99307 0.0
H1256 H 0.65556 0.46163 0.99512 0.0
H1257 H 0.63799 0.43247 0.02917 0.0
H1258 H 0.60889 0.44737 0.0274 0.0
H1259 H 0.62353 0.44467 0.05692 0.0
H1260 H 0.63992 0.53322 0.08679 0.0
H1261 H 0.60113 0.55143 0.0738 0.0
H1262 H 0.59336 0.49395 0.02069 0.0
C1263 C 0.68356 0.45974 0.04172 0.0
C1264 C 0.70361 0.46473 0.0563 0.0
C1265 C 0.70191 0.48338 0.07408 0.0
C1266 C 0.68059 0.49705 0.07721 0.0
C1267 C 0.66109 0.49161 0.06264 0.0
C1268 C 0.66233 0.47339 0.04528 0.0
C1269 C 0.63913 0.47189 0.03127 0.0
C1270 C 0.64376 0.47618 0.00308 0.0
C1271 C 0.62665 0.44766 0.03652 0.0
C1272 C 0.62494 0.49258 0.04296 0.0
C1273 C 0.63786 0.50363 0.06113 0.0
C1274 C 0.62939 0.52447 0.07295 0.0
C1275 C 0.60739 0.53467 0.0655 0.0
C1276 C 0.59419 0.52385 0.04657 0.0
C1277 C 0.60278 0.5022 0.03571 0.0
H1278 H 0.8272 0.49428 0.30686 0.0
H1279 H 0.78507 0.51105 0.2417 0.0
H1280 H 0.7615 0.47403 0.24947 0.0
H1281 H 0.83464 0.43488 0.29674 0.0
H1282 H 0.83229 0.4249 0.32888 0.0
H1283 H 0.84222 0.45492 0.32141 0.0
H1284 H 0.80797 0.47275 0.34995 0.0
H1285 H 0.79795 0.44265 0.35767 0.0
H1286 H 0.77706 0.46464 0.34513 0.0
H1287 H 0.74867 0.43209 0.25914 0.0
H1288 H 0.74629 0.3889 0.27108 0.0
H1289 H 0.79566 0.39995 0.33075 0.0
C1290 C 0.81257 0.49051 0.29461 0.0
C1291 C 0.80794 0.50541 0.27365 0.0
C1292 C 0.7888 0.49988 0.25793 0.0
C1293 C 0.77528 0.47896 0.26227 0.0
C1294 C 0.78089 0.46418 0.28265 0.0
C1295 C 0.79886 0.4699 0.29879 0.0
C1296 C 0.80323 0.44982 0.31763 0.0
C1297 C 0.82965 0.44059 0.31604 0.0
C1298 C 0.79612 0.45796 0.34417 0.0
C1299 C 0.78597 0.43124 0.3086 0.0
C1300 C 0.77295 0.44002 0.28867 0.0
C1301 C 0.75818 0.42524 0.27517 0.0
C1302 C 0.75707 0.40078 0.28193 0.0
C1303 C 0.77062 0.39146 0.30196 0.0
C1304 C 0.78465 0.40698 0.31588 0.0
H1305 H 0.86757 0.64258 0.56874 0.0
H1306 H 0.82562 0.60248 0.51676 0.0
H1307 H 0.86161 0.57722 0.50637 0.0
H1308 H 0.92299 0.64304 0.53254 0.0
H1309 H 0.94216 0.63911 0.55893 0.0
H1310 H 0.91305 0.65382 0.56278 0.0
H1311 H 0.90107 0.62302 0.59765 0.0
H1312 H 0.93019 0.60828 0.594 0.0
H1313 H 0.90299 0.59115 0.59135 0.0
H1314 H 0.90265 0.55745 0.50014 0.0
H1315 H 0.94489 0.54283 0.50028 0.0
H1316 H 0.9606 0.5946 0.55735 0.0
C1317 C 0.86587 0.62839 0.55527 0.0
C1318 C 0.8436 0.6246 0.54356 0.0
C1319 C 0.84231 0.60578 0.52607 0.0
C1320 C 0.86273 0.59134 0.51999 0.0
C1321 C 0.8844 0.59574 0.53166 0.0
C1322 C 0.88607 0.61366 0.54912 0.0
C1323 C 0.91154 0.61454 0.55899 0.0
C1324 C 0.92311 0.63909 0.55294 0.0
C1325 C 0.91143 0.60891 0.58717 0.0
C1326 C 0.924 0.59444 0.54422 0.0
C1327 C 0.90798 0.58395 0.52848 0.0
C1328 C 0.91526 0.56543 0.51251 0.0
C1329 C 0.93942 0.55729 0.5127 0.0
C1330 C 0.95623 0.56744 0.52887 0.0
C1331 C 0.94826 0.58632 0.54485 0.0
H1332 H 0.21651 0.0574 0.2859 0.0
H1333 H 0.19515 0.03818 0.36219 0.0
H1334 H 0.20771 0.07831 0.37601 0.0
H1335 H 0.26888 0.09231 0.30015 0.0
H1336 H 0.26355 0.11451 0.2759 0.0
H1337 H 0.2538 0.08393 0.2723 0.0
H1338 H 0.21014 0.09961 0.26514 0.0
H1339 H 0.21973 0.13022 0.26894 0.0
H1340 H 0.19527 0.11845 0.28825 0.0
H1341 H 0.22217 0.12049 0.38138 0.0
H1342 H 0.23759 0.16203 0.37803 0.0
H1343 H 0.24852 0.15405 0.29809 0.0
C1344 C 0.21474 0.0615 0.30557 0.0
C1345 C 0.20501 0.04463 0.32303 0.0
C1346 C 0.20263 0.05083 0.34853 0.0
C1347 C 0.20969 0.07356 0.35654 0.0
C1348 C 0.21892 0.08987 0.33878 0.0
C1349 C 0.22145 0.08416 0.31383 0.0
C1350 C 0.23126 0.10518 0.29844 0.0
C1351 C 0.25583 0.09858 0.28597 0.0
C1352 C 0.21301 0.11387 0.27905 0.0
C1353 C 0.23393 0.12361 0.31866 0.0
C1354 C 0.22678 0.11438 0.34179 0.0
C1355 C 0.22786 0.1279 0.36339 0.0
C1356 C 0.23671 0.15141 0.36131 0.0
C1357 C 0.24425 0.1612 0.33782 0.0
C1358 C 0.24261 0.14712 0.31623 0.0
H1359 H 0.31894 0.9491 0.51637 0.0
H1360 H 0.34547 0.90681 0.45346 0.0
H1361 H 0.38061 0.93383 0.44836 0.0
H1362 H 0.33735 0.00784 0.49134 0.0
H1363 H 0.34522 0.01853 0.52158 0.0
H1364 H 0.32158 0.99678 0.51905 0.0
H1365 H 0.34378 0.9678 0.5495 0.0
H1366 H 0.36737 0.98946 0.55222 0.0
H1367 H 0.37478 0.95913 0.5426 0.0
H1368 H 0.41449 0.96347 0.45287 0.0
H1369 H 0.4439 0.9936 0.46613 0.0
H1370 H 0.39376 0.01655 0.52507 0.0
C1371 C 0.33204 0.94554 0.50139 0.0
C1372 C 0.32962 0.92582 0.48537 0.0
C1373 C 0.34704 0.92187 0.46592 0.0
C1374 C 0.36698 0.93713 0.46286 0.0
C1375 C 0.36887 0.95634 0.47918 0.0
C1376 C 0.35174 0.96064 0.49794 0.0
C1377 C 0.35822 0.98183 0.51364 0.0
C1378 C 0.33947 0.00247 0.51124 0.0
C1379 C 0.36122 0.97408 0.5411 0.0
C1380 C 0.38208 0.98848 0.50124 0.0
C1381 C 0.38792 0.97368 0.48133 0.0
C1382 C 0.40994 0.97538 0.46818 0.0
C1383 C 0.42653 0.99241 0.47587 0.0
C1384 C 0.42091 0.00746 0.49644 0.0
C1385 C 0.39823 0.0057 0.5089 0.0
H1386 H 0.87368 0.64883 0.25541 0.0
H1387 H 0.81139 0.60275 0.25028 0.0
H1388 H 0.78533 0.63853 0.24344 0.0
H1389 H 0.84517 0.69192 0.29127 0.0
H1390 H 0.86034 0.71755 0.27724 0.0
H1391 H 0.87482 0.68831 0.27679 0.0
H1392 H 0.87968 0.69141 0.22856 0.0
H1393 H 0.86499 0.7207 0.22895 0.0
H1394 H 0.85343 0.69707 0.21011 0.0
H1395 H 0.76531 0.67847 0.24313 0.0
H1396 H 0.75221 0.7202 0.25229 0.0
H1397 H 0.82723 0.74072 0.25798 0.0
C1398 C 0.85467 0.64632 0.25219 0.0
C1399 C 0.8445 0.62315 0.25326 0.0
C1400 C 0.81948 0.62044 0.24959 0.0
C1401 C 0.80459 0.6406 0.24541 0.0
C1402 C 0.81503 0.66329 0.24493 0.0
C1403 C 0.83948 0.66631 0.24828 0.0
C1404 C 0.84555 0.69272 0.25028 0.0
C1405 C 0.85713 0.69792 0.27538 0.0
C1406 C 0.86188 0.70096 0.22815 0.0
C1407 C 0.82052 0.70391 0.2488 0.0
C1408 C 0.80327 0.68667 0.24506 0.0
C1409 C 0.77864 0.69226 0.24555 0.0
C1410 C 0.77138 0.71598 0.25084 0.0
C1411 C 0.78872 0.73363 0.25578 0.0
C1412 C 0.81359 0.72767 0.25387 0.0
H1413 H 0.71824 0.44309 0.76265 0.0
H1414 H 0.7465 0.47105 0.83093 0.0
H1415 H 0.77326 0.43506 0.8345 0.0
H1416 H 0.71615 0.38238 0.78156 0.0
H1417 H 0.72504 0.37075 0.75138 0.0
H1418 H 0.70953 0.39943 0.7536 0.0
H1419 H 0.7446 0.41966 0.72818 0.0
H1420 H 0.76031 0.39099 0.72606 0.0
H1421 H 0.77508 0.41657 0.73886 0.0
H1422 H 0.79433 0.39434 0.83224 0.0
H1423 H 0.80762 0.3522 0.82442 0.0
H1424 H 0.76641 0.35259 0.75675 0.0
C1425 C 0.73014 0.44174 0.7783 0.0
C1426 C 0.73028 0.45975 0.79656 0.0
C1427 C 0.74616 0.45739 0.81671 0.0
C1428 C 0.76146 0.4371 0.81885 0.0
C1429 C 0.76082 0.41961 0.8005 0.0
C1430 C 0.74564 0.42183 0.78056 0.0
C1431 C 0.74759 0.40017 0.76386 0.0
C1432 C 0.72314 0.38744 0.76255 0.0
C1433 C 0.75749 0.40728 0.73769 0.0
C1434 C 0.76574 0.38506 0.7779 0.0
C1435 C 0.77335 0.39657 0.79888 0.0
C1436 C 0.78882 0.38529 0.81565 0.0
C1437 C 0.79628 0.3614 0.81104 0.0
C1438 C 0.78817 0.34922 0.7899 0.0
C1439 C 0.77319 0.3615 0.77291 0.0
H1440 H 0.01443 0.8879 0.92026 0.0
H1441 H 0.03578 0.83566 0.97689 0.0
H1442 H 0.04134 0.86893 0.00641 0.0
H1443 H 0.05625 0.93444 0.93588 0.0
H1444 H 0.03518 0.95885 0.92987 0.0
H1445 H 0.03314 0.93095 0.91329 0.0
H1446 H 0.98847 0.92705 0.92844 0.0
H1447 H 0.99047 0.95493 0.94502 0.0
H1448 H 0.98102 0.92785 0.9614 0.0
H1449 H 0.04386 0.90871 0.03035 0.0
H1450 H 0.0431 0.9506 0.04597 0.0
H1451 H 0.02061 0.97668 0.97342 0.0
C1452 C 0.02033 0.88336 0.93884 0.0
C1453 C 0.02466 0.85893 0.94612 0.0
C1454 C 0.03233 0.85406 0.97073 0.0
C1455 C 0.03555 0.87292 0.98767 0.0
C1456 C 0.03109 0.89674 0.97987 0.0
C1457 C 0.02365 0.90197 0.95598 0.0
C1458 C 0.01988 0.92904 0.9522 0.0
C1459 C 0.03715 0.93889 0.93159 0.0
C1460 C 0.99339 0.93506 0.94643 0.0
C1461 C 0.02634 0.93826 0.97767 0.0
C1462 C 0.03274 0.91939 0.99343 0.0
C1463 C 0.03897 0.92357 0.01806 0.0
C1464 C 0.03853 0.94749 0.0268 0.0
C1465 C 0.03199 0.96715 0.011 0.0
C1466 C 0.02595 0.96224 0.98604 0.0
H1467 H 0.92087 0.2775 0.63732 0.0
H1468 H 0.98249 0.28231 0.68515 0.0
H1469 H 0.95499 0.28215 0.72226 0.0
H1470 H 0.88138 0.31594 0.67082 0.0
H1471 H 0.85466 0.29842 0.66683 0.0
H1472 H 0.87898 0.29725 0.64378 0.0
H1473 H 0.88148 0.25098 0.64873 0.0
H1474 H 0.8577 0.25125 0.67253 0.0
H1475 H 0.88652 0.23752 0.67901 0.0
H1476 H 0.92059 0.2833 0.75404 0.0
H1477 H 0.88181 0.28406 0.77818 0.0
H1478 H 0.84305 0.27859 0.70931 0.0
C1479 C 0.92861 0.27832 0.65559 0.0
C1480 C 0.9538 0.27997 0.65834 0.0
C1481 C 0.96323 0.28096 0.6826 0.0
C1482 C 0.94777 0.28094 0.70379 0.0
C1483 C 0.92299 0.27973 0.70039 0.0
C1484 C 0.91349 0.27819 0.67693 0.0
C1485 C 0.88621 0.27715 0.67839 0.0
C1486 C 0.87464 0.29846 0.66411 0.0
C1487 C 0.87749 0.25277 0.66907 0.0
C1488 C 0.88181 0.27924 0.70622 0.0
C1489 C 0.90324 0.28043 0.71865 0.0
C1490 C 0.90368 0.2823 0.74452 0.0
C1491 C 0.88159 0.28278 0.75804 0.0
C1492 C 0.85944 0.28152 0.7456 0.0
C1493 C 0.85966 0.27978 0.71935 0.0
H1494 H 0.48965 0.19668 0.4386 0.0
H1495 H 0.55304 0.23234 0.46491 0.0
H1496 H 0.56291 0.19597 0.49044 0.0
H1497 H 0.47371 0.16577 0.49727 0.0
H1498 H 0.46364 0.1391 0.48206 0.0
H1499 H 0.46144 0.16811 0.46654 0.0
H1500 H 0.48622 0.15138 0.42868 0.0
H1501 H 0.48857 0.12236 0.44411 0.0
H1502 H 0.51553 0.13773 0.43348 0.0
H1503 H 0.56713 0.15377 0.51123 0.0
H1504 H 0.56379 0.11171 0.5272 0.0
H1505 H 0.49661 0.10447 0.48866 0.0
C1506 C 0.50554 0.19702 0.44988 0.0
C1507 C 0.52056 0.21759 0.44963 0.0
C1508 C 0.54113 0.21702 0.46477 0.0
C1509 C 0.54693 0.19633 0.4793 0.0
C1510 C 0.53188 0.17628 0.4788 0.0
C1511 C 0.51143 0.17664 0.46465 0.0
C1512 C 0.49817 0.15283 0.46724 0.0
C1513 C 0.47273 0.15669 0.47898 0.0
C1514 C 0.49707 0.14034 0.44187 0.0
C1515 C 0.51442 0.13883 0.48486 0.0
C1516 C 0.53387 0.15258 0.49123 0.0
C1517 C 0.55179 0.14305 0.50652 0.0
C1518 C 0.54976 0.11904 0.51551 0.0
C1519 C 0.52982 0.10467 0.5095 0.0
C1520 C 0.51193 0.11495 0.49398 0.0
H1521 H 0.56038 0.76293 0.21212 0.0
H1522 H 0.5524 0.84103 0.21095 0.0
H1523 H 0.58561 0.84391 0.24042 0.0
H1524 H 0.57715 0.75604 0.27819 0.0
H1525 H 0.59872 0.73221 0.27114 0.0
H1526 H 0.57226 0.73612 0.25261 0.0
H1527 H 0.59948 0.73935 0.21247 0.0
H1528 H 0.62593 0.73538 0.23083 0.0
H1529 H 0.62298 0.76154 0.21066 0.0
H1530 H 0.62202 0.83853 0.26654 0.0
H1531 H 0.65989 0.8253 0.2862 0.0
H1532 H 0.64422 0.7509 0.2695 0.0
C1533 C 0.56527 0.78062 0.21844 0.0
C1534 C 0.55377 0.80174 0.20937 0.0
C1535 C 0.56097 0.8246 0.21773 0.0
C1536 C 0.57971 0.82641 0.23456 0.0
C1537 C 0.59092 0.80521 0.24287 0.0
C1538 C 0.58397 0.78275 0.2351 0.0
C1539 C 0.60031 0.76291 0.24497 0.0
C1540 C 0.58627 0.74581 0.26279 0.0
C1541 C 0.61292 0.749 0.22345 0.0
C1542 C 0.618 0.77779 0.25887 0.0
C1543 C 0.61208 0.80211 0.25777 0.0
C1544 C 0.6267 0.81951 0.26779 0.0
C1545 C 0.64821 0.81186 0.27875 0.0
C1546 C 0.65494 0.78708 0.27938 0.0
C1547 C 0.63931 0.76987 0.26981 0.0
H1548 H 0.05582 0.24319 0.53383 0.0
H1549 H 0.97896 0.24629 0.55211 0.0
H1550 H 0.97339 0.20879 0.52893 0.0
H1551 H 0.05151 0.21295 0.4707 0.0
H1552 H 0.07819 0.19489 0.47646 0.0
H1553 H 0.0753 0.2249 0.48889 0.0
H1554 H 0.08245 0.20759 0.53329 0.0
H1555 H 0.08515 0.17764 0.52112 0.0
H1556 H 0.06314 0.18409 0.54569 0.0
H1557 H 0.97722 0.16764 0.51204 0.0
H1558 H 0.99025 0.12599 0.50197 0.0
H1559 H 0.06453 0.14903 0.49444 0.0
C1560 C 0.03768 0.23654 0.53203 0.0
C1561 C 0.01779 0.24771 0.54456 0.0
C1562 C 0.99443 0.23805 0.54251 0.0
C1563 C 0.99107 0.21683 0.52928 0.0
C1564 C 0.01123 0.20559 0.51807 0.0
C1565 C 0.03408 0.21523 0.51907 0.0
C1566 C 0.05319 0.19791 0.50871 0.0
C1567 C 0.06525 0.20829 0.48476 0.0
C1568 C 0.07207 0.19143 0.52838 0.0
C1569 C 0.03769 0.17651 0.50309 0.0
C1570 C 0.01347 0.18151 0.50814 0.0
C1571 C 0.99601 0.16371 0.50733 0.0
C1572 C 0.00356 0.14012 0.50177 0.0
C1573 C 0.02832 0.13453 0.49717 0.0
C1574 C 0.04545 0.15309 0.49712 0.0
H1575 H 0.61659 0.31217 0.37912 0.0
H1576 H 0.57602 0.25423 0.34769 0.0
H1577 H 0.61164 0.24327 0.32081 0.0
H1578 H 0.64831 0.32982 0.32194 0.0
H1579 H 0.67584 0.3366 0.33733 0.0
H1580 H 0.64715 0.33964 0.35387 0.0
H1581 H 0.66241 0.3108 0.3887 0.0
H1582 H 0.6911 0.30759 0.3722 0.0
H1583 H 0.67385 0.2812 0.38061 0.0
H1584 H 0.65314 0.23812 0.29773 0.0
H1585 H 0.69486 0.24073 0.27973 0.0
H1586 H 0.70742 0.30264 0.32593 0.0
C1587 C 0.61507 0.29718 0.36657 0.0
C1588 C 0.59332 0.28406 0.36566 0.0
C1589 C 0.59233 0.26464 0.34879 0.0
C1590 C 0.61256 0.25824 0.33346 0.0
C1591 C 0.63376 0.27147 0.335 0.0
C1592 C 0.63501 0.29067 0.35105 0.0
C1593 C 0.65971 0.30223 0.34911 0.0
C1594 C 0.65762 0.32864 0.34002 0.0
C1595 C 0.67252 0.30033 0.37414 0.0
C1596 C 0.67229 0.28654 0.32953 0.0
C1597 C 0.65713 0.2688 0.32164 0.0
C1598 C 0.66504 0.25205 0.30379 0.0
C1599 C 0.68885 0.25362 0.29367 0.0
C1600 C 0.70459 0.2719 0.30126 0.0
C1601 C 0.69598 0.28845 0.31955 0.0
H1602 H 0.51909 0.8784 0.0815 0.0
H1603 H 0.47371 0.8891 0.148 0.0
H1604 H 0.46667 0.9316 0.13534 0.0
H1605 H 0.54834 0.93213 0.08201 0.0
H1606 H 0.54925 0.93742 0.04873 0.0
H1607 H 0.54782 0.90707 0.06096 0.0
H1608 H 0.50924 0.89974 0.03607 0.0
H1609 H 0.51064 0.93013 0.02361 0.0
H1610 H 0.48356 0.91993 0.03979 0.0
H1611 H 0.47102 0.97383 0.11996 0.0
H1612 H 0.48327 0.01266 0.10041 0.0
H1613 H 0.52294 0.97416 0.04208 0.0
C1614 C 0.50725 0.88957 0.09309 0.0
C1615 C 0.49701 0.88063 0.11573 0.0
C1616 C 0.48163 0.89567 0.1305 0.0
C1617 C 0.4775 0.91978 0.12346 0.0
C1618 C 0.48843 0.92827 0.10134 0.0
C1619 C 0.5026 0.91352 0.0861 0.0
C1620 C 0.51356 0.92747 0.06419 0.0
C1621 C 0.54138 0.92593 0.06399 0.0
C1622 C 0.50365 0.9188 0.03945 0.0
C1623 C 0.50436 0.95261 0.07021 0.0
C1624 C 0.4898 0.95265 0.09166 0.0
C1625 C 0.48171 0.97401 0.10271 0.0
C1626 C 0.48885 0.9959 0.09163 0.0
C1627 C 0.50359 0.99611 0.06962 0.0
C1628 C 0.51102 0.97428 0.0585 0.0
H1629 H 0.9412 0.74891 0.85949 0.0
H1630 H 0.95807 0.82401 0.87114 0.0
H1631 H 0.92047 0.83649 0.85024 0.0
H1632 H 0.91451 0.75603 0.79936 0.0
H1633 H 0.89105 0.73439 0.80576 0.0
H1634 H 0.91951 0.73135 0.82102 0.0
H1635 H 0.89716 0.73135 0.86417 0.0
H1636 H 0.86863 0.73421 0.84903 0.0
H1637 H 0.87668 0.75591 0.87195 0.0
H1638 H 0.88123 0.84078 0.82631 0.0
H1639 H 0.84203 0.83653 0.80604 0.0
H1640 H 0.84908 0.75858 0.81243 0.0
C1641 C 0.93702 0.76801 0.85764 0.0
C1642 C 0.95283 0.78549 0.86689 0.0
C1643 C 0.94637 0.81025 0.8643 0.0
C1644 C 0.92505 0.81752 0.85232 0.0
C1645 C 0.90999 0.79984 0.84326 0.0
C1646 C 0.91553 0.77556 0.84616 0.0
C1647 C 0.89577 0.76015 0.83573 0.0
C1648 C 0.90582 0.74456 0.81419 0.0
C1649 C 0.88386 0.74448 0.85646 0.0
C1650 C 0.87832 0.77949 0.82633 0.0
C1651 C 0.88701 0.80228 0.83057 0.0
C1652 C 0.87427 0.82299 0.82308 0.0
C1653 C 0.852 0.82038 0.81141 0.0
C1654 C 0.84228 0.79724 0.80752 0.0
C1655 C 0.85587 0.77656 0.81505 0.0
H1656 H 0.94477 0.05747 0.81304 0.0
H1657 H 0.94578 0.97907 0.8121 0.0
H1658 H 0.96494 0.97818 0.85329 0.0
H1659 H 1.00186 0.06473 0.84229 0.0
H1660 H 0.99124 0.09024 0.86023 0.0
H1661 H 0.9785 0.08444 0.83044 0.0
H1662 H 0.93559 0.0837 0.85124 0.0
H1663 H 0.94818 0.08947 0.88109 0.0
H1664 H 0.92961 0.06342 0.87726 0.0
H1665 H 0.98296 0.98628 0.89523 0.0
H1666 H 0.99854 0.00249 0.9341 0.0
H1667 H 0.98465 0.07548 0.90698 0.0
C1668 C 0.94911 0.04004 0.82133 0.0
C1669 C 0.9438 0.01831 0.80936 0.0
C1670 C 0.94974 0.99594 0.82095 0.0
C1671 C 0.96061 0.99526 0.8443 0.0
C1672 C 0.96538 0.01711 0.85564 0.0
C1673 C 0.95985 0.03905 0.84447 0.0
C1674 C 0.96621 0.06 0.86061 0.0
C1675 C 0.98561 0.07577 0.84762 0.0
C1676 C 0.94354 0.07502 0.86799 0.0
C1677 C 0.97612 0.04646 0.88279 0.0
C1678 C 0.97555 0.02174 0.87961 0.0
C1679 C 0.98346 0.00559 0.89789 0.0
C1680 C 0.9921 0.01499 0.91999 0.0
C1681 C 0.99269 0.04029 0.92361 0.0
C1682 C 0.98468 0.05611 0.90465 0.0
H1683 H 0.83138 0.21449 0.58204 0.0
H1684 H 0.76277 0.21399 0.54491 0.0
H1685 H 0.74433 0.23889 0.57838 0.0
H1686 H 0.80819 0.20631 0.64086 0.0
H1687 H 0.82805 0.22573 0.65687 0.0
H1688 H 0.83821 0.21182 0.62825 0.0
H1689 H 0.84815 0.25269 0.60801 0.0
H1690 H 0.83834 0.26854 0.63573 0.0
H1691 H 0.82523 0.27612 0.60633 0.0
H1692 H 0.73223 0.25951 0.61843 0.0
H1693 H 0.72781 0.27479 0.66141 0.0
H1694 H 0.80456 0.26238 0.67148 0.0
C1695 C 0.81265 0.22012 0.58058 0.0
C1696 C 0.79855 0.21235 0.56086 0.0
C1697 C 0.77396 0.2198 0.55984 0.0
C1698 C 0.76332 0.23399 0.57873 0.0
C1699 C 0.77756 0.24072 0.59834 0.0
C1700 C 0.80175 0.23423 0.59924 0.0
C1701 C 0.81261 0.24208 0.62324 0.0
C1702 C 0.82235 0.2202 0.63816 0.0
C1703 C 0.83227 0.26095 0.618 0.0
C1704 C 0.79059 0.25325 0.63609 0.0
C1705 C 0.77059 0.25258 0.62136 0.0
C1706 C 0.74787 0.26054 0.62998 0.0
C1707 C 0.74554 0.26923 0.65439 0.0
C1708 C 0.7658 0.26972 0.6699 0.0
C1709 C 0.78863 0.26199 0.66031 0.0
H1710 H 0.627 0.03588 0.37184 0.0
H1711 H 0.56518 0.04087 0.32399 0.0
H1712 H 0.53778 0.03566 0.36104 0.0
H1713 H 0.60471 0.98983 0.41154 0.0
H1714 H 0.61719 0.00173 0.43939 0.0
H1715 H 0.63175 0.00757 0.40945 0.0
H1716 H 0.62875 0.05374 0.41676 0.0
H1717 H 0.61473 0.04799 0.44697 0.0
H1718 H 0.59979 0.06736 0.42473 0.0
H1719 H 0.51757 0.02779 0.40339 0.0
H1720 H 0.50591 0.02253 0.448 0.0
H1721 H 0.58172 0.02166 0.46676 0.0
C1722 C 0.60768 0.03624 0.36912 0.0
C1723 C 0.59815 0.03878 0.34512 0.0
C1724 C 0.5728 0.03917 0.34231 0.0
C1725 C 0.55715 0.036 0.36318 0.0
C1726 C 0.56727 0.03258 0.3865 0.0
C1727 C 0.59195 0.03306 0.38957 0.0
C1728 C 0.59846 0.02873 0.41641 0.0
C1729 C 0.61394 0.00559 0.41935 0.0
C1730 C 0.61117 0.05077 0.42683 0.0
C1731 C 0.57356 0.02569 0.42809 0.0
C1732 C 0.55577 0.02784 0.4106 0.0
C1733 C 0.53133 0.0261 0.41724 0.0
C1734 C 0.52492 0.02295 0.44258 0.0
C1735 C 0.54294 0.02166 0.46081 0.0
C1736 C 0.56753 0.02241 0.45328 0.0
H1737 H 0.78773 0.8873 0.11466 0.0
H1738 H 0.71321 0.87265 0.09758 0.0
H1739 H 0.70754 0.85221 0.13829 0.0
H1740 H 0.79927 0.83031 0.14683 0.0
H1741 H 0.81775 0.84313 0.17019 0.0
H1742 H 0.81629 0.85717 0.13971 0.0
H1743 H 0.80302 0.89758 0.15991 0.0
H1744 H 0.80442 0.88365 0.19046 0.0
H1745 H 0.7769 0.8984 0.18084 0.0
H1746 H 0.70927 0.83332 0.18061 0.0
H1747 H 0.71862 0.81619 0.22185 0.0
H1748 H 0.79223 0.84178 0.21307 0.0
C1749 C 0.77023 0.87981 0.11952 0.0
C1750 C 0.75092 0.88171 0.10266 0.0
C1751 C 0.72835 0.87154 0.10989 0.0
C1752 C 0.72489 0.85986 0.13311 0.0
C1753 C 0.74415 0.85828 0.14919 0.0
C1754 C 0.76643 0.86787 0.1428 0.0
C1755 C 0.78408 0.86323 0.16371 0.0
C1756 C 0.80563 0.84753 0.15456 0.0
C1757 C 0.79261 0.88714 0.17436 0.0
C1758 C 0.7682 0.84955 0.18272 0.0
C1759 C 0.74522 0.84703 0.17385 0.0
C1760 C 0.72721 0.83516 0.18774 0.0
C1761 C 0.73275 0.82546 0.21126 0.0
C1762 C 0.75619 0.82751 0.22094 0.0
C1763 C 0.77413 0.83986 0.20634 0.0
H1764 H 0.94168 0.08403 0.67755 0.0
H1765 H 0.99896 0.07196 0.72986 0.0
H1766 H 0.02916 0.07289 0.69504 0.0
H1767 H 0.96089 0.04622 0.6347 0.0
H1768 H 0.95323 0.0637 0.60732 0.0
H1769 H 0.93709 0.06882 0.63629 0.0
H1770 H 0.94822 0.1141 0.63399 0.0
H1771 H 0.96434 0.10905 0.60473 0.0
H1772 H 0.97947 0.12253 0.63024 0.0
H1773 H 0.05068 0.06307 0.65515 0.0
H1774 H 0.06221 0.04784 0.61308 0.0
H1775 H 0.99206 0.06954 0.58646 0.0
C1776 C 0.96069 0.0826 0.68169 0.0
C1777 C 0.96809 0.07787 0.70622 0.0
C1778 C 0.993 0.07581 0.71114 0.0
C1779 C 0.01027 0.07636 0.69148 0.0
C1780 C 1.0023 0.0797 0.66722 0.0
C1781 C 0.9781 0.0835 0.66233 0.0
C1782 C 0.97378 0.08356 0.63461 0.0
C1783 C 0.95518 0.06443 0.62787 0.0
C1784 C 0.966 0.10882 0.62535 0.0
C1785 C 0.99889 0.07703 0.62485 0.0
C1786 C 0.01525 0.0753 0.64384 0.0
C1787 C 0.03843 0.06543 0.63992 0.0
C1788 C 0.04483 0.05676 0.61613 0.0
C1789 C 0.02815 0.05836 0.59681 0.0
C1790 C 0.0053 0.06917 0.60097 0.0
H1791 H 0.82149 0.23561 0.44746 0.0
H1792 H 0.83472 0.16064 0.42832 0.0
H1793 H 0.83389 0.1716 0.38362 0.0
H1794 H 0.77866 0.24644 0.40552 0.0
H1795 H 0.78674 0.27698 0.3972 0.0
H1796 H 0.79413 0.26477 0.42729 0.0
H1797 H 0.83934 0.27444 0.41888 0.0
H1798 H 0.83204 0.28708 0.38879 0.0
H1799 H 0.85461 0.26339 0.39104 0.0
H1800 H 0.82399 0.18877 0.34233 0.0
H1801 H 0.8074 0.21158 0.30672 0.0
H1802 H 0.80035 0.27547 0.35247 0.0
C1803 C 0.8252 0.2217 0.43383 0.0
C1804 C 0.82828 0.19734 0.44123 0.0
C1805 C 0.83237 0.17945 0.42294 0.0
C1806 C 0.83205 0.1855 0.39753 0.0
C1807 C 0.82778 0.20953 0.3908 0.0
C1808 C 0.82473 0.22743 0.40838 0.0
C1809 C 0.81727 0.25121 0.3964 0.0
C1810 C 0.79275 0.26036 0.40725 0.0
C1811 C 0.837 0.27014 0.39893 0.0
C1812 C 0.81533 0.24351 0.36961 0.0
C1813 C 0.8219 0.21952 0.36669 0.0
C1814 C 0.81936 0.20772 0.34419 0.0
C1815 C 0.80975 0.22077 0.32415 0.0
C1816 C 0.80269 0.24529 0.32686 0.0
C1817 C 0.80591 0.25683 0.34977 0.0
H1818 H 0.62837 0.99293 0.22594 0.0
H1819 H 0.57073 0.99718 0.28239 0.0
H1820 H 0.54285 0.01277 0.25073 0.0
H1821 H 0.61783 0.04544 0.19817 0.0
H1822 H 0.62391 0.03688 0.16626 0.0
H1823 H 0.6378 0.02025 0.19116 0.0
H1824 H 0.61985 0.98034 0.17602 0.0
H1825 H 0.6065 0.99673 0.15045 0.0
H1826 H 0.58782 0.97859 0.17127 0.0
H1827 H 0.52482 0.03716 0.2161 0.0
H1828 H 0.51555 0.06174 0.17842 0.0
H1829 H 0.58435 0.04032 0.14434 0.0
C1830 C 0.60956 0.996 0.23131 0.0
C1831 C 0.60162 0.99379 0.25647 0.0
C1832 C 0.57705 0.99839 0.26309 0.0
C1833 C 0.56112 0.00743 0.24526 0.0
C1834 C 0.56999 0.0111 0.2209 0.0
C1835 C 0.59343 0.00475 0.21369 0.0
C1836 C 0.59928 0.01271 0.18709 0.0
C1837 C 0.62097 0.02984 0.18562 0.0
C1838 C 0.6036 0.99078 0.17021 0.0
C1839 C 0.57603 0.02585 0.18103 0.0
C1840 C 0.55927 0.02463 0.20066 0.0
C1841 C 0.53749 0.03763 0.20031 0.0
C1842 C 0.53252 0.05179 0.1791 0.0
C1843 C 0.54925 0.05268 0.15865 0.0
C1844 C 0.57117 0.03951 0.15967 0.0
H1845 H 0.7695 0.91241 0.93367 0.0
H1846 H 0.76957 0.85531 0.99001 0.0
H1847 H 0.7655 0.82502 0.95696 0.0
H1848 H 0.72595 0.88632 0.89372 0.0
H1849 H 0.74113 0.89613 0.8652 0.0
H1850 H 0.74382 0.91326 0.89324 0.0
H1851 H 0.79048 0.90953 0.88932 0.0
H1852 H 0.78793 0.89253 0.86119 0.0
H1853 H 0.80452 0.88003 0.88689 0.0
H1854 H 0.76146 0.80067 0.91704 0.0
H1855 H 0.75974 0.78463 0.87435 0.0
H1856 H 0.76251 0.85766 0.84401 0.0
C1857 C 0.76865 0.89354 0.93916 0.0
C1858 C 0.76983 0.88637 0.96466 0.0
C1859 C 0.76874 0.86139 0.97076 0.0
C1860 C 0.76636 0.84402 0.95205 0.0
C1861 C 0.76512 0.85176 0.92716 0.0
C1862 C 0.76636 0.87596 0.92071 0.0
C1863 C 0.76511 0.87958 0.89258 0.0
C1864 C 0.74267 0.89472 0.88579 0.0
C1865 C 0.7884 0.8911 0.88187 0.0
C1866 C 0.76296 0.85365 0.88413 0.0
C1867 C 0.76291 0.83786 0.90436 0.0
C1868 C 0.76143 0.81296 0.90114 0.0
C1869 C 0.76036 0.80398 0.87673 0.0
C1870 C 0.76079 0.81977 0.85561 0.0
C1871 C 0.76188 0.845 0.85961 0.0
H1872 H 0.84885 0.96402 0.01745 0.0
H1873 H 0.83377 0.96908 0.09726 0.0
H1874 H 0.87265 0.9887 0.10236 0.0
H1875 H 0.91303 0.95161 0.02155 0.0
H1876 H 0.92168 0.96973 0.99461 0.0
H1877 H 0.89229 0.95617 0.99655 0.0
H1878 H 0.87212 0.99818 0.99013 0.0
H1879 H 0.90147 0.01186 0.98821 0.0
H1880 H 0.87901 0.02238 0.01074 0.0
H1881 H 0.91364 0.00615 0.10003 0.0
H1882 H 0.95425 0.02172 0.08987 0.0
H1883 H 0.94416 0.0079 0.01142 0.0
C1884 C 0.85371 0.96934 0.03596 0.0
C1885 C 0.83794 0.96485 0.05695 0.0
C1886 C 0.8452 0.9722 0.0808 0.0
C1887 C 0.8674 0.98343 0.08397 0.0
C1888 C 0.88245 0.98753 0.06312 0.0
C1889 C 0.876 0.98089 0.03951 0.0
C1890 C 0.89594 0.98758 0.02042 0.0
C1891 C 0.90635 0.96492 0.00752 0.0
C1892 C 0.88657 0.0061 0.00124 0.0
C1893 C 0.91451 0.99877 0.03709 0.0
C1894 C 0.90623 0.9984 0.06166 0.0
C1895 C 0.92023 0.00674 0.08081 0.0
C1896 C 0.94336 0.01557 0.07484 0.0
C1897 C 0.95245 0.01635 0.04985 0.0
C1898 C 0.93762 0.00797 0.03067 0.0
H1899 H 0.37426 0.59732 0.96394 0.0
H1900 H 0.38516 0.67447 0.95633 0.0
H1901 H 0.42929 0.66741 0.95251 0.0
H1902 H 0.42012 0.58498 0.00207 0.0
H1903 H 0.42912 0.55637 0.98886 0.0
H1904 H 0.39858 0.56719 0.9861 0.0
H1905 H 0.40242 0.56356 0.93794 0.0
H1906 H 0.43311 0.55264 0.9406 0.0
H1907 H 0.42668 0.57858 0.92104 0.0
H1908 H 0.4716 0.6526 0.95894 0.0
H1909 H 0.5086 0.63083 0.97202 0.0
H1910 H 0.46998 0.5633 0.97197 0.0
C1911 C 0.38592 0.61265 0.96076 0.0
C1912 C 0.37646 0.63639 0.96049 0.0
C1913 C 0.39215 0.6561 0.95643 0.0
C1914 C 0.4172 0.65226 0.95418 0.0
C1915 C 0.42608 0.6286 0.95538 0.0
C1916 C 0.41085 0.6091 0.95805 0.0
C1917 C 0.42485 0.58569 0.96121 0.0
C1918 C 0.41775 0.57283 0.98603 0.0
C1919 C 0.42157 0.56915 0.93886 0.0
C1920 C 0.45024 0.59522 0.96147 0.0
C1921 C 0.45069 0.61998 0.95783 0.0
C1922 C 0.47166 0.63313 0.96095 0.0
C1923 C 0.49254 0.62067 0.96846 0.0
C1924 C 0.49217 0.59539 0.97259 0.0
C1925 C 0.47098 0.58254 0.96823 0.0
H1926 H 0.21329 0.57696 0.73587 0.0
H1927 H 0.23286 0.5649 0.81283 0.0
H1928 H 0.25945 0.60016 0.81005 0.0
H1929 H 0.27342 0.60466 0.71276 0.0
H1930 H 0.25743 0.62591 0.69324 0.0
H1931 H 0.24569 0.59604 0.69878 0.0
H1932 H 0.20501 0.61492 0.7145 0.0
H1933 H 0.21662 0.6447 0.70944 0.0
H1934 H 0.20483 0.6359 0.7399 0.0
H1935 H 0.27551 0.64081 0.80263 0.0
H1936 H 0.28156 0.68341 0.79027 0.0
H1937 H 0.25144 0.66994 0.71825 0.0
C1938 C 0.22409 0.58108 0.75172 0.0
C1939 C 0.22121 0.56822 0.7745 0.0
C1940 C 0.23495 0.57453 0.79517 0.0
C1941 C 0.25019 0.59444 0.79372 0.0
C1942 C 0.25157 0.60768 0.77142 0.0
C1943 C 0.23917 0.60108 0.75062 0.0
C1944 C 0.24063 0.62039 0.73033 0.0
C1945 C 0.25517 0.6112 0.70742 0.0
C1946 C 0.21527 0.62951 0.72316 0.0
C1947 C 0.25429 0.63954 0.74364 0.0
C1948 C 0.26093 0.63161 0.76709 0.0
C1949 C 0.27104 0.64701 0.78406 0.0
C1950 C 0.27414 0.67121 0.77702 0.0
C1951 C 0.26699 0.67976 0.75331 0.0
C1952 C 0.25756 0.66359 0.73622 0.0
H1953 H 0.20743 0.47521 0.53595 0.0
H1954 H 0.18151 0.4053 0.51363 0.0
H1955 H 0.13997 0.42088 0.51526 0.0
H1956 H 0.15583 0.48931 0.57872 0.0
H1957 H 0.1545 0.52092 0.57027 0.0
H1958 H 0.18293 0.5046 0.56835 0.0
H1959 H 0.18833 0.51739 0.52191 0.0
H1960 H 0.15996 0.53378 0.52371 0.0
H1961 H 0.16489 0.5109 0.50048 0.0
H1962 H 0.10165 0.44296 0.51726 0.0
H1963 H 0.06727 0.47136 0.51953 0.0
H1964 H 0.11482 0.5284 0.54147 0.0
C1965 C 0.19297 0.4632 0.53156 0.0
C1966 C 0.19805 0.43888 0.52463 0.0
C1967 C 0.17846 0.42391 0.51894 0.0
C1968 C 0.1546 0.43258 0.51985 0.0
C1969 C 0.1502 0.45642 0.52657 0.0
C1970 C 0.16864 0.47166 0.53238 0.0
C1971 C 0.15828 0.49673 0.53845 0.0
C1972 C 0.16318 0.50327 0.56556 0.0
C1973 C 0.16847 0.51583 0.52004 0.0
C1974 C 0.1313 0.49305 0.53481 0.0
C1975 C 0.12735 0.46951 0.52801 0.0
C1976 C 0.10446 0.46142 0.52268 0.0
C1977 C 0.08501 0.47778 0.52397 0.0
C1978 C 0.08822 0.50214 0.53067 0.0
C1979 C 0.11173 0.50984 0.53656 0.0
H1980 H 0.85198 0.99849 0.72971 0.0
H1981 H 0.9124 0.96063 0.69361 0.0
H1982 H 0.88721 0.92428 0.69058 0.0
H1983 H 0.8345 0.95255 0.76805 0.0
H1984 H 0.80246 0.95867 0.76686 0.0
H1985 H 0.82344 0.98272 0.76151 0.0
H1986 H 0.80467 0.99231 0.71866 0.0
H1987 H 0.78347 0.96825 0.72394 0.0
H1988 H 0.80257 0.96871 0.69609 0.0
H1989 H 0.85735 0.89063 0.69745 0.0
H1990 H 0.82604 0.86279 0.71369 0.0
H1991 H 0.78631 0.92326 0.7463 0.0
C1992 C 0.85982 0.98277 0.72059 0.0
C1993 C 0.88414 0.98232 0.71192 0.0
C1994 C 0.89373 0.96137 0.70024 0.0
C1995 C 0.87954 0.9407 0.6984 0.0
C1996 C 0.85581 0.94153 0.708 0.0
C1997 C 0.846 0.96216 0.71865 0.0
C1998 C 0.82116 0.95787 0.73015 0.0
C1999 C 0.82037 0.96326 0.7583 0.0
C2000 C 0.80183 0.97266 0.71638 0.0
C2001 C 0.8189 0.93124 0.72543 0.0
C2002 C 0.83879 0.92218 0.71219 0.0
C2003 C 0.84154 0.89762 0.70749 0.0
C2004 C 0.82377 0.88191 0.71702 0.0
C2005 C 0.8037 0.89081 0.7314 0.0
C2006 C 0.80107 0.91588 0.73499 0.0
H2007 H 0.73356 0.11628 0.5579 0.0
H2008 H 0.74488 0.11479 0.47743 0.0
H2009 H 0.70968 0.0882 0.47423 0.0
H2010 H 0.71532 0.05374 0.56543 0.0
H2011 H 0.6933 0.06057 0.58989 0.0
H2012 H 0.71987 0.07876 0.58579 0.0
H2013 H 0.69289 0.11727 0.5818 0.0
H2014 H 0.66628 0.09923 0.58597 0.0
H2015 H 0.66985 0.11849 0.55873 0.0
H2016 H 0.67148 0.06432 0.47975 0.0
H2017 H 0.63399 0.04367 0.49389 0.0
H2018 H 0.64925 0.05968 0.57064 0.0
C2019 C 0.7287 0.11031 0.53961 0.0
C2020 C 0.74181 0.11762 0.51791 0.0
C2021 C 0.73503 0.10931 0.4943 0.0
C2022 C 0.71511 0.09422 0.4923 0.0
C2023 C 0.7025 0.08742 0.51411 0.0
C2024 C 0.70914 0.09505 0.53731 0.0
C2025 C 0.69241 0.08554 0.55784 0.0
C2026 C 0.70605 0.06865 0.57579 0.0
C2027 C 0.6796 0.10637 0.5719 0.0
C2028 C 0.67499 0.07176 0.54253 0.0
C2029 C 0.68107 0.07303 0.51733 0.0
C2030 C 0.66673 0.06291 0.49945 0.0
C2031 C 0.6455 0.05134 0.50758 0.0
C2032 C 0.63904 0.04993 0.53331 0.0
C2033 C 0.65415 0.06001 0.55093 0.0
H2034 H 0.22245 0.45762 0.81897 0.0
H2035 H 0.14904 0.45346 0.79315 0.0
H2036 H 0.15245 0.40899 0.79335 0.0
H2037 H 0.24659 0.41151 0.7816 0.0
H2038 H 0.26711 0.4 0.80456 0.0
H2039 H 0.25785 0.43125 0.80486 0.0
H2040 H 0.24278 0.42621 0.85094 0.0
H2041 H 0.25178 0.39479 0.85064 0.0
H2042 H 0.22106 0.40325 0.85909 0.0
H2043 H 0.16472 0.36551 0.79347 0.0
H2044 H 0.18614 0.32627 0.79015 0.0
H2045 H 0.25147 0.35905 0.81588 0.0
C2046 C 0.20699 0.44737 0.81362 0.0
C2047 C 0.18547 0.45893 0.80613 0.0
C2048 C 0.16573 0.44492 0.79895 0.0
C2049 C 0.1674 0.41967 0.7992 0.0
C2050 C 0.18889 0.40883 0.80674 0.0
C2051 C 0.20837 0.42222 0.81369 0.0
C2052 C 0.23007 0.40628 0.81902 0.0
C2053 C 0.25166 0.41263 0.80145 0.0
C2054 C 0.23681 0.40772 0.84656 0.0
C2055 C 0.21996 0.38189 0.81326 0.0
C2056 C 0.19605 0.38369 0.80664 0.0
C2057 C 0.18335 0.36379 0.79891 0.0
C2058 C 0.19567 0.34159 0.7971 0.0
C2059 C 0.22046 0.33964 0.80279 0.0
C2060 C 0.23246 0.35991 0.81169 0.0
H2061 H 0.3285 0.59272 0.2033 0.0
H2062 H 0.3227 0.56158 0.27792 0.0
H2063 H 0.28973 0.59038 0.28854 0.0
H2064 H 0.32539 0.65029 0.22097 0.0
H2065 H 0.30827 0.66215 0.19532 0.0
H2066 H 0.32634 0.63525 0.19134 0.0
H2067 H 0.28858 0.61234 0.17764 0.0
H2068 H 0.27039 0.63937 0.18176 0.0
H2069 H 0.26186 0.61177 0.19774 0.0
H2070 H 0.26503 0.62689 0.29424 0.0
H2071 H 0.2517 0.66954 0.29508 0.0
H2072 H 0.27232 0.67776 0.21684 0.0
C2073 C 0.31957 0.59139 0.22152 0.0
C2074 C 0.32791 0.57487 0.23975 0.0
C2075 C 0.31647 0.57409 0.26369 0.0
C2076 C 0.29757 0.59022 0.2698 0.0
C2077 C 0.2903 0.60696 0.25173 0.0
C2078 C 0.30087 0.60762 0.228 0.0
C2079 C 0.29273 0.62987 0.21352 0.0
C2080 C 0.31447 0.64529 0.20482 0.0
C2081 C 0.27747 0.62291 0.19135 0.0
C2082 C 0.27735 0.64242 0.23342 0.0
C2083 C 0.27561 0.62852 0.25508 0.0
C2084 C 0.26553 0.63764 0.2772 0.0
C2085 C 0.25804 0.66187 0.27755 0.0
C2086 C 0.26062 0.6766 0.2559 0.0
C2087 C 0.26934 0.6665 0.23333 0.0
H2088 H 0.52964 0.69965 0.6295 0.0
H2089 H 0.49158 0.74101 0.57299 0.0
H2090 H 0.48669 0.70422 0.54897 0.0
H2091 H 0.5616 0.65938 0.58621 0.0
H2092 H 0.55905 0.6329 0.60604 0.0
H2093 H 0.55961 0.66243 0.61965 0.0
H2094 H 0.51908 0.65394 0.64324 0.0
H2095 H 0.51838 0.62442 0.62961 0.0
H2096 H 0.49328 0.64518 0.62594 0.0
H2097 H 0.48631 0.66384 0.52988 0.0
H2098 H 0.4907 0.62167 0.51666 0.0
H2099 H 0.52825 0.60379 0.5846 0.0
C2100 C 0.52025 0.70093 0.6121 0.0
C2101 C 0.51101 0.72361 0.60334 0.0
C2102 C 0.49889 0.72421 0.58037 0.0
C2103 C 0.49595 0.70326 0.56646 0.0
C2104 C 0.50515 0.6814 0.5755 0.0
C2105 C 0.51708 0.67991 0.59776 0.0
C2106 C 0.52534 0.6538 0.6027 0.0
C2107 C 0.55305 0.65203 0.60371 0.0
C2108 C 0.5133 0.64374 0.62681 0.0
C2109 C 0.5162 0.64108 0.57975 0.0
C2110 C 0.50465 0.65755 0.56441 0.0
C2111 C 0.49521 0.65075 0.54181 0.0
C2112 C 0.4978 0.62662 0.53444 0.0
C2113 C 0.50962 0.60912 0.54954 0.0
C2114 C 0.51876 0.61653 0.57274 0.0
H2115 H 0.61333 0.2686 0.83431 0.0
H2116 H 0.63041 0.25687 0.91218 0.0
H2117 H 0.67375 0.25587 0.9008 0.0
H2118 H 0.66309 0.2306 0.8079 0.0
H2119 H 0.6686 0.25093 0.78182 0.0
H2120 H 0.6386 0.24854 0.79561 0.0
H2121 H 0.63737 0.29475 0.80256 0.0
H2122 H 0.66742 0.29724 0.78902 0.0
H2123 H 0.66084 0.30834 0.81996 0.0
H2124 H 0.71461 0.25935 0.88228 0.0
H2125 H 0.75179 0.26536 0.8569 0.0
H2126 H 0.70919 0.2748 0.79054 0.0
C2127 C 0.62622 0.26534 0.84884 0.0
C2128 C 0.61858 0.2628 0.87411 0.0
C2129 C 0.63591 0.25894 0.8927 0.0
C2130 C 0.66056 0.25827 0.88644 0.0
C2131 C 0.66757 0.26144 0.86151 0.0
C2132 C 0.65102 0.26472 0.84292 0.0
C2133 C 0.66367 0.26887 0.81776 0.0
C2134 C 0.65816 0.24852 0.79971 0.0
C2135 C 0.65692 0.29378 0.80669 0.0
C2136 C 0.68982 0.26783 0.82533 0.0
C2137 C 0.69154 0.26342 0.85065 0.0
C2138 C 0.71359 0.26253 0.86237 0.0
C2139 C 0.73459 0.26607 0.84777 0.0
C2140 C 0.73337 0.27045 0.82172 0.0
C2141 C 0.71067 0.27132 0.81038 0.0
H2142 H 0.99486 0.35961 0.10637 0.0
H2143 H 0.06771 0.34674 0.13179 0.0
H2144 H 0.07907 0.38761 0.11706 0.0
H2145 H 0.01269 0.39413 0.04994 0.0
H2146 H 0.98703 0.41451 0.05225 0.0
H2147 H 0.98467 0.38406 0.06431 0.0
H2148 H 0.97099 0.40053 0.1075 0.0
H2149 H 0.97345 0.43102 0.09561 0.0
H2150 H 0.98977 0.42171 0.1228 0.0
H2151 H 0.08186 0.43113 0.10233 0.0
H2152 H 0.07702 0.4725 0.08528 0.0
H2153 H 0.00313 0.45715 0.06676 0.0
C2154 C 0.01329 0.36528 0.10865 0.0
C2155 C 0.03038 0.34974 0.12035 0.0
C2156 C 0.05427 0.35805 0.12285 0.0
C2157 C 0.06089 0.38136 0.1146 0.0
C2158 C 0.04356 0.39627 0.10351 0.0
C2159 C 0.02032 0.38845 0.10017 0.0
C2160 C 0.00524 0.40809 0.08749 0.0
C2161 C 0.99692 0.39969 0.06198 0.0
C2162 C 0.98358 0.41579 0.10436 0.0
C2163 C 0.02352 0.42827 0.08451 0.0
C2164 C 0.04545 0.42107 0.09409 0.0
C2165 C 0.06484 0.43681 0.09453 0.0
C2166 C 0.06187 0.46038 0.08486 0.0
C2167 C 0.03977 0.46819 0.07446 0.0
C2168 C 0.02036 0.45173 0.07426 0.0
H2169 H 0.97333 0.80873 0.37487 0.0
H2170 H 0.98914 0.73629 0.34851 0.0
H2171 H 0.95458 0.73945 0.32055 0.0
H2172 H 0.90906 0.8051 0.37499 0.0
H2173 H 0.90462 0.83582 0.3643 0.0
H2174 H 0.93074 0.82779 0.382 0.0
H2175 H 0.95856 0.845 0.34642 0.0
H2176 H 0.9325 0.85286 0.3285 0.0
H2177 H 0.95612 0.83385 0.3152 0.0
H2178 H 0.91726 0.74967 0.29717 0.0
H2179 H 0.87969 0.7667 0.2796 0.0
H2180 H 0.88962 0.833 0.31959 0.0
C2181 C 0.96946 0.79351 0.36328 0.0
C2182 C 0.98379 0.77223 0.36388 0.0
C2183 C 0.97835 0.75277 0.34829 0.0
C2184 C 0.95882 0.7544 0.33233 0.0
C2185 C 0.94516 0.77571 0.33202 0.0
C2186 C 0.95026 0.79495 0.34701 0.0
C2187 C 0.93269 0.81576 0.3432 0.0
C2188 C 0.91843 0.82144 0.36757 0.0
C2189 C 0.94576 0.83819 0.3327 0.0
C2190 C 0.91668 0.80507 0.32403 0.0
C2191 C 0.92416 0.78194 0.31783 0.0
C2192 C 0.91138 0.76787 0.30161 0.0
C2193 C 0.89014 0.77762 0.29177 0.0
C2194 C 0.88214 0.80119 0.29805 0.0
C2195 C 0.89579 0.81518 0.31404 0.0
H2196 H 0.49706 0.34302 0.93617 0.0
H2197 H 0.56738 0.34511 0.89794 0.0
H2198 H 0.57285 0.38662 0.91236 0.0
H2199 H 0.47956 0.40435 0.92314 0.0
H2200 H 0.46483 0.40879 0.95322 0.0
H2201 H 0.46642 0.37911 0.93998 0.0
H2202 H 0.48691 0.36247 0.9797 0.0
H2203 H 0.48538 0.39211 0.99306 0.0
H2204 H 0.51403 0.37634 0.99 0.0
H2205 H 0.57048 0.42797 0.93014 0.0
H2206 H 0.56044 0.46656 0.95043 0.0
H2207 H 0.49236 0.43702 0.9783 0.0
C2208 C 0.51359 0.35222 0.9308 0.0
C2209 C 0.53176 0.34087 0.91591 0.0
C2210 C 0.5532 0.35346 0.90937 0.0
C2211 C 0.5565 0.37704 0.91745 0.0
C2212 C 0.53826 0.38769 0.93214 0.0
C2213 C 0.51726 0.37572 0.93882 0.0
C2214 C 0.50053 0.39129 0.95484 0.0
C2215 C 0.47641 0.39617 0.94202 0.0
C2216 C 0.49649 0.37987 0.98095 0.0
C2217 C 0.51536 0.41394 0.9559 0.0
C2218 C 0.53705 0.41147 0.94271 0.0
C2219 C 0.55362 0.43009 0.9407 0.0
C2220 C 0.54781 0.45191 0.95245 0.0
C2221 C 0.52563 0.45487 0.9661 0.0
C2222 C 0.50933 0.4355 0.96785 0.0
H2223 H 0.93838 0.24862 0.1797 0.0
H2224 H 0.9719 0.31183 0.20958 0.0
H2225 H 0.93299 0.32323 0.23058 0.0
H2226 H 0.88058 0.27627 0.16787 0.0
H2227 H 0.86362 0.24983 0.17683 0.0
H2228 H 0.89406 0.24663 0.16431 0.0
H2229 H 0.90611 0.22201 0.2036 0.0
H2230 H 0.87568 0.22504 0.21618 0.0
H2231 H 0.90072 0.23473 0.23406 0.0
H2232 H 0.8897 0.32789 0.24817 0.0
H2233 H 0.84679 0.32465 0.26185 0.0
H2234 H 0.84163 0.25822 0.22062 0.0
C2235 C 0.93764 0.26486 0.1907 0.0
C2236 C 0.9584 0.27931 0.19292 0.0
C2237 C 0.95641 0.30039 0.20756 0.0
C2238 C 0.93431 0.30705 0.21954 0.0
C2239 C 0.91422 0.29246 0.2168 0.0
C2240 C 0.91575 0.27173 0.20281 0.0
C2241 C 0.89159 0.25904 0.20294 0.0
C2242 C 0.88189 0.25788 0.17641 0.0
C2243 C 0.89366 0.23371 0.21491 0.0
C2244 C 0.87617 0.27584 0.21918 0.0
C2245 C 0.88952 0.29506 0.22694 0.0
C2246 C 0.87915 0.31288 0.24217 0.0
C2247 C 0.85467 0.31091 0.24982 0.0
C2248 C 0.84063 0.29122 0.24235 0.0
C2249 C 0.85169 0.27357 0.22666 0.0
H2250 H 0.06409 0.71319 0.48414 0.0
H2251 H 0.04988 0.70361 0.40575 0.0
H2252 H 0.05046 0.65944 0.41216 0.0
H2253 H 0.1029 0.65809 0.49238 0.0
H2254 H 0.09013 0.65209 0.52316 0.0
H2255 H 0.09245 0.68276 0.51165 0.0
H2256 H 0.04644 0.68932 0.5201 0.0
H2257 H 0.044 0.65876 0.53157 0.0
H2258 H 0.02545 0.66918 0.50641 0.0
H2259 H 0.04767 0.61695 0.42787 0.0
H2260 H 0.04066 0.57932 0.45213 0.0
H2261 H 0.05647 0.61666 0.52024 0.0
C2262 C 0.06172 0.70178 0.46821 0.0
C2263 C 0.05705 0.71177 0.44446 0.0
C2264 C 0.0535 0.69629 0.42414 0.0
C2265 C 0.05394 0.67118 0.42754 0.0
C2266 C 0.05805 0.66188 0.45133 0.0
C2267 C 0.06194 0.67668 0.47132 0.0
C2268 C 0.06344 0.66227 0.49543 0.0
C2269 C 0.08874 0.6639 0.50629 0.0
C2270 C 0.04365 0.67036 0.51448 0.0
C2271 C 0.05889 0.63721 0.48601 0.0
C2272 C 0.05625 0.63728 0.46047 0.0
C2273 C 0.05012 0.61655 0.44782 0.0
C2274 C 0.04614 0.59529 0.46175 0.0
C2275 C 0.04812 0.59506 0.48803 0.0
C2276 C 0.05511 0.61619 0.50013 0.0
H2277 H 0.60665 0.82703 0.70098 0.0
H2278 H 0.58667 0.75164 0.70573 0.0
H2279 H 0.62338 0.74246 0.72955 0.0
H2280 H 0.67097 0.81582 0.69209 0.0
H2281 H 0.67949 0.84137 0.71009 0.0
H2282 H 0.65137 0.84208 0.69401 0.0
H2283 H 0.62825 0.85126 0.73559 0.0
H2284 H 0.65629 0.85044 0.75181 0.0
H2285 H 0.63186 0.83118 0.76206 0.0
H2286 H 0.66233 0.74161 0.75387 0.0
H2287 H 0.70135 0.74841 0.7735 0.0
H2288 H 0.69737 0.82411 0.75163 0.0
C2289 C 0.60992 0.80857 0.70706 0.0
C2290 C 0.59348 0.79008 0.70148 0.0
C2291 C 0.5988 0.76616 0.70965 0.0
C2292 C 0.61965 0.76078 0.72332 0.0
C2293 C 0.63535 0.77942 0.72858 0.0
C2294 C 0.63086 0.80281 0.72046 0.0
C2295 C 0.65106 0.81939 0.72788 0.0
C2296 C 0.66399 0.83031 0.70463 0.0
C2297 C 0.64127 0.83924 0.74538 0.0
C2298 C 0.66756 0.80175 0.74157 0.0
C2299 C 0.65804 0.77881 0.74193 0.0
C2300 C 0.6699 0.75951 0.75361 0.0
C2301 C 0.69211 0.76361 0.76487 0.0
C2302 C 0.70263 0.78683 0.76434 0.0
C2303 C 0.68993 0.80614 0.75255 0.0
H2304 H 0.62384 0.49232 0.72036 0.0
H2305 H 0.6032 0.56374 0.74651 0.0
H2306 H 0.57257 0.56701 0.71408 0.0
H2307 H 0.61957 0.50476 0.65669 0.0
H2308 H 0.60732 0.47597 0.64894 0.0
H2309 H 0.6261 0.47836 0.67555 0.0
H2310 H 0.59215 0.46006 0.70403 0.0
H2311 H 0.57324 0.45757 0.67744 0.0
H2312 H 0.56242 0.47384 0.70453 0.0
H2313 H 0.5479 0.56453 0.67595 0.0
H2314 H 0.52896 0.5552 0.63604 0.0
H2315 H 0.56395 0.48473 0.63618 0.0
C2316 C 0.61265 0.50851 0.71948 0.0
C2317 C 0.6159 0.5278 0.73588 0.0
C2318 C 0.60094 0.5487 0.73417 0.0
C2319 C 0.58349 0.55073 0.71583 0.0
C2320 C 0.58101 0.53154 0.69969 0.0
C2321 C 0.59496 0.5107 0.70153 0.0
C2322 C 0.58936 0.49311 0.68126 0.0
C2323 C 0.61193 0.48775 0.66463 0.0
C2324 C 0.57865 0.46976 0.69249 0.0
C2325 C 0.57062 0.50762 0.66728 0.0
C2326 C 0.56603 0.52973 0.67823 0.0
C2327 C 0.55093 0.54709 0.66749 0.0
C2328 C 0.54037 0.54173 0.64487 0.0
C2329 C 0.54482 0.51917 0.63346 0.0
C2330 C 0.55983 0.50182 0.645 0.0
H2331 H 0.77284 0.37526 0.96929 0.0
H2332 H 0.80467 0.33099 0.0276 0.0
H2333 H 0.82108 0.30286 0.99575 0.0
H2334 H 0.75642 0.32658 0.92933 0.0
H2335 H 0.76393 0.34322 0.90105 0.0
H2336 H 0.75389 0.35908 0.92865 0.0
H2337 H 0.79283 0.38457 0.92614 0.0
H2338 H 0.80303 0.36866 0.89865 0.0
H2339 H 0.82195 0.36948 0.92539 0.0
H2340 H 0.8345 0.27985 0.95708 0.0
H2341 H 0.84297 0.26365 0.91489 0.0
H2342 H 0.80402 0.32465 0.88274 0.0
C2343 C 0.783 0.3595 0.97542 0.0
C2344 C 0.78739 0.35522 0.00089 0.0
C2345 C 0.80107 0.33457 0.00813 0.0
C2346 C 0.81048 0.31851 0.9902 0.0
C2347 C 0.80614 0.32348 0.96518 0.0
C2348 C 0.7927 0.34347 0.95782 0.0
C2349 C 0.79114 0.34515 0.92977 0.0
C2350 C 0.76478 0.34339 0.92174 0.0
C2351 C 0.80295 0.36834 0.91939 0.0
C2352 C 0.80575 0.32296 0.92249 0.0
C2353 C 0.81423 0.31061 0.94309 0.0
C2354 C 0.82798 0.2894 0.94079 0.0
C2355 C 0.83286 0.28043 0.91676 0.0
C2356 C 0.82403 0.29273 0.89545 0.0
C2357 C 0.81065 0.31446 0.89855 0.0
H2358 H 0.95499 0.55235 0.22031 0.0
H2359 H 0.88342 0.55159 0.18929 0.0
H2360 H 0.90163 0.55493 0.14685 0.0
H2361 H 0.98184 0.59459 0.17572 0.0
H2362 H 0.0106 0.57887 0.17423 0.0
H2363 H 0.99204 0.57751 0.20242 0.0
H2364 H 0.99288 0.53072 0.20116 0.0
H2365 H 0.01168 0.53195 0.17318 0.0
H2366 H 0.98362 0.51585 0.17342 0.0
H2367 H 0.92716 0.55792 0.10819 0.0
H2368 H 0.95885 0.55625 0.075 0.0
H2369 H 0.01403 0.55392 0.1309 0.0
C2370 C 0.94316 0.55296 0.20459 0.0
C2371 C 0.91782 0.55181 0.20803 0.0
C2372 C 0.9029 0.55239 0.18703 0.0
C2373 C 0.91304 0.55447 0.16289 0.0
C2374 C 0.93807 0.55585 0.16015 0.0
C2375 C 0.95297 0.55483 0.18036 0.0
C2376 C 0.97937 0.55531 0.17213 0.0
C2377 C 0.99168 0.57792 0.1817 0.0
C2378 C 0.99266 0.53208 0.18046 0.0
C2379 C 0.97695 0.55649 0.14412 0.0
C2380 C 0.95294 0.55711 0.13768 0.0
C2381 C 0.94602 0.55747 0.11296 0.0
C2382 C 0.96415 0.55645 0.09428 0.0
C2383 C 0.98883 0.55479 0.10046 0.0
C2384 C 0.99531 0.55543 0.12567 0.0
H2385 H 0.73715 0.69371 0.45054 0.0
H2386 H 0.80514 0.71161 0.48338 0.0
H2387 H 0.81603 0.73611 0.44574 0.0
H2388 H 0.75963 0.6882 0.38755 0.0
H2389 H 0.73303 0.70149 0.37402 0.0
H2390 H 0.73064 0.68567 0.40358 0.0
H2391 H 0.71078 0.72354 0.42385 0.0
H2392 H 0.71301 0.73943 0.39432 0.0
H2393 H 0.7261 0.752 0.42152 0.0
H2394 H 0.81979 0.75809 0.4031 0.0
H2395 H 0.81509 0.77674 0.36116 0.0
H2396 H 0.74425 0.74484 0.35713 0.0
C2397 C 0.75433 0.70282 0.44995 0.0
C2398 C 0.77029 0.70062 0.47007 0.0
C2399 C 0.79254 0.71298 0.46834 0.0
C2400 C 0.79892 0.72691 0.44695 0.0
C2401 C 0.78282 0.72849 0.42739 0.0
C2402 C 0.76089 0.71687 0.42884 0.0
C2403 C 0.74665 0.72151 0.40545 0.0
C2404 C 0.74224 0.69781 0.39185 0.0
C2405 C 0.72272 0.73492 0.41166 0.0
C2406 C 0.76396 0.7375 0.3905 0.0
C2407 C 0.7848 0.74128 0.40336 0.0
C2408 C 0.80347 0.75527 0.393 0.0
C2409 C 0.80067 0.76578 0.36909 0.0
C2410 C 0.77929 0.76239 0.35574 0.0
C2411 C 0.76082 0.74794 0.36676 0.0
H2412 H 0.63644 0.51528 0.84697 0.0
H2413 H 0.68482 0.57594 0.8517 0.0
H2414 H 0.66486 0.58746 0.89165 0.0
H2415 H 0.58377 0.54523 0.87077 0.0
H2416 H 0.57253 0.51933 0.888 0.0
H2417 H 0.59128 0.51517 0.86032 0.0
H2418 H 0.62113 0.48857 0.88554 0.0
H2419 H 0.60238 0.4926 0.91328 0.0
H2420 H 0.63387 0.50039 0.91331 0.0
H2421 H 0.63879 0.59328 0.93003 0.0
H2422 H 0.60868 0.59264 0.9649 0.0
H2423 H 0.57753 0.52801 0.93513 0.0
C2424 C 0.64296 0.5309 0.85647 0.0
C2425 C 0.66218 0.54473 0.84624 0.0
C2426 C 0.67014 0.56506 0.85921 0.0
C2427 C 0.65894 0.57175 0.8819 0.0
C2428 C 0.63992 0.55784 0.89135 0.0
C2429 C 0.63205 0.53779 0.87913 0.0
C2430 C 0.61093 0.52621 0.89305 0.0
C2431 C 0.58829 0.52652 0.87708 0.0
C2432 C 0.61748 0.50041 0.90182 0.0
C2433 C 0.60797 0.54309 0.91484 0.0
C2434 C 0.62491 0.56117 0.91355 0.0
C2435 C 0.6255 0.57916 0.93133 0.0
C2436 C 0.60828 0.57866 0.95102 0.0
C2437 C 0.59076 0.56029 0.95269 0.0
C2438 C 0.59071 0.54227 0.93437 0.0
H2439 H 0.75669 0.39489 0.12071 0.0
H2440 H 0.7044 0.34955 0.08603 0.0
H2441 H 0.69885 0.32664 0.12561 0.0
H2442 H 0.78555 0.35021 0.15385 0.0
H2443 H 0.7903 0.36768 0.18132 0.0
H2444 H 0.78759 0.38263 0.15151 0.0
H2445 H 0.75243 0.40923 0.16946 0.0
H2446 H 0.75503 0.39431 0.19941 0.0
H2447 H 0.72645 0.39507 0.18416 0.0
H2448 H 0.70408 0.30484 0.16585 0.0
H2449 H 0.71825 0.28666 0.20525 0.0
H2450 H 0.76508 0.34758 0.21502 0.0
C2451 C 0.74374 0.38042 0.12159 0.0
C2452 C 0.73102 0.37388 0.10037 0.0
C2453 C 0.71426 0.35486 0.10215 0.0
C2454 C 0.71093 0.34182 0.12454 0.0
C2455 C 0.72413 0.34842 0.14501 0.0
C2456 C 0.73995 0.36748 0.14387 0.0
C2457 C 0.75324 0.36975 0.16795 0.0
C2458 C 0.78079 0.36741 0.16337 0.0
C2459 C 0.74637 0.3935 0.18102 0.0
C2460 C 0.74331 0.34823 0.18235 0.0
C2461 C 0.72637 0.3363 0.16885 0.0
C2462 C 0.71677 0.31435 0.17693 0.0
C2463 C 0.72498 0.30413 0.1992 0.0
C2464 C 0.7424 0.31602 0.21312 0.0
C2465 C 0.75121 0.33859 0.20496 0.0
H2466 H 0.91314 0.4949 0.33508 0.0
H2467 H 0.93183 0.56839 0.31384 0.0
H2468 H 0.96448 0.56735 0.34417 0.0
H2469 H 0.91999 0.50203 0.39901 0.0
H2470 H 0.93219 0.47215 0.4047 0.0
H2471 H 0.91246 0.47749 0.37909 0.0
H2472 H 0.94523 0.46003 0.34851 0.0
H2473 H 0.96515 0.45477 0.37408 0.0
H2474 H 0.97506 0.47267 0.34743 0.0
H2475 H 0.99258 0.55977 0.37849 0.0
H2476 H 0.01253 0.54724 0.41719 0.0
H2477 H 0.97506 0.4791 0.41721 0.0
C2478 C 0.92439 0.51061 0.33654 0.0
C2479 C 0.92012 0.53168 0.3221 0.0
C2480 C 0.93483 0.55208 0.32481 0.0
C2481 C 0.95353 0.55159 0.34179 0.0
C2482 C 0.95719 0.53059 0.35589 0.0
C2483 C 0.94297 0.51051 0.35359 0.0
C2484 C 0.94917 0.49114 0.37268 0.0
C2485 C 0.92715 0.48538 0.38989 0.0
C2486 C 0.95926 0.4683 0.3599 0.0
C2487 C 0.96859 0.50378 0.38656 0.0
C2488 C 0.97323 0.52633 0.37622 0.0
C2489 C 0.98929 0.54208 0.38664 0.0
C2490 C 1.00041 0.53488 0.40865 0.0
C2491 C 0.99521 0.51226 0.42011 0.0
C2492 C 0.97964 0.49627 0.40853 0.0
H2493 H 0.76933 0.68617 0.6257 0.0
H2494 H 0.79835 0.74454 0.57931 0.0
H2495 H 0.80254 0.76925 0.61641 0.0
H2496 H 0.73532 0.72449 0.66946 0.0
H2497 H 0.74189 0.70617 0.69658 0.0
H2498 H 0.74081 0.69249 0.66637 0.0
H2499 H 0.78407 0.6752 0.67162 0.0
H2500 H 0.78523 0.68891 0.70181 0.0
H2501 H 0.80825 0.69535 0.67822 0.0
H2502 H 0.80343 0.78849 0.65778 0.0
H2503 H 0.80056 0.80119 0.70163 0.0
H2504 H 0.77198 0.73111 0.7233 0.0
C2505 C 0.77647 0.70418 0.62338 0.0
C2506 C 0.7835 0.71325 0.59929 0.0
C2507 C 0.79286 0.73694 0.5973 0.0
C2508 C 0.79535 0.75125 0.61837 0.0
C2509 C 0.78851 0.74182 0.64169 0.0
C2510 C 0.77924 0.71887 0.64448 0.0
C2511 C 0.77339 0.71344 0.67202 0.0
C2512 C 0.74623 0.70888 0.67636 0.0
C2513 C 0.78865 0.69195 0.68147 0.0
C2514 C 0.78077 0.73693 0.68401 0.0
C2515 C 0.7894 0.75297 0.66602 0.0
C2516 C 0.7968 0.77604 0.67208 0.0
C2517 C 0.79512 0.78311 0.69711 0.0
C2518 C 0.78626 0.76719 0.71609 0.0
C2519 C 0.77919 0.74364 0.70935 0.0
H2520 H 0.6873 0.60933 0.57796 0.0
H2521 H 0.71164 0.62632 0.50203 0.0
H2522 H 0.67556 0.6067 0.48615 0.0
H2523 H 0.66239 0.55053 0.56505 0.0
H2524 H 0.63697 0.55402 0.5866 0.0
H2525 H 0.6649 0.56901 0.59221 0.0
H2526 H 0.64206 0.61012 0.59425 0.0
H2527 H 0.61407 0.59523 0.58874 0.0
H2528 H 0.62382 0.61973 0.56852 0.0
H2529 H 0.63595 0.58647 0.47832 0.0
H2530 H 0.59603 0.56724 0.47909 0.0
H2531 H 0.59702 0.56209 0.55991 0.0
C2532 C 0.68513 0.60887 0.55797 0.0
C2533 C 0.70257 0.61948 0.54128 0.0
C2534 C 0.69877 0.61841 0.51528 0.0
C2535 C 0.67826 0.60724 0.50604 0.0
C2536 C 0.6615 0.59703 0.52295 0.0
C2537 C 0.6647 0.5977 0.54838 0.0
C2538 C 0.64368 0.58563 0.5625 0.0
C2539 C 0.65252 0.56348 0.57748 0.0
C2540 C 0.63011 0.60376 0.5795 0.0
C2541 C 0.62814 0.57817 0.54105 0.0
C2542 C 0.63881 0.58498 0.51841 0.0
C2543 C 0.62758 0.58091 0.49595 0.0
C2544 C 0.60483 0.56991 0.49658 0.0
C2545 C 0.59334 0.5628 0.5195 0.0
C2546 C 0.60542 0.56683 0.54203 0.0
H2547 H 0.17209 0.90908 0.53549 0.0
H2548 H 0.22122 0.95609 0.49367 0.0
H2549 H 0.19017 0.98864 0.49452 0.0
H2550 H 0.1177 0.92941 0.50585 0.0
H2551 H 0.09944 0.92713 0.53416 0.0
H2552 H 0.12533 0.90746 0.52964 0.0
H2553 H 0.14263 0.92187 0.57116 0.0
H2554 H 0.11683 0.94167 0.57585 0.0
H2555 H 0.14692 0.95368 0.57576 0.0
H2556 H 0.1534 0.01618 0.5003 0.0
H2557 H 0.11335 0.03544 0.50903 0.0
H2558 H 0.09015 0.97022 0.5483 0.0
C2559 C 0.1763 0.92612 0.5263 0.0
C2560 C 0.19902 0.93006 0.51452 0.0
C2561 C 0.20385 0.95268 0.5028 0.0
C2562 C 0.18639 0.9713 0.50325 0.0
C2563 C 0.16432 0.96696 0.51551 0.0
C2564 C 0.15921 0.94486 0.52668 0.0
C2565 C 0.13422 0.94469 0.53869 0.0
C2566 C 0.11824 0.92608 0.52634 0.0
C2567 C 0.13523 0.94022 0.56705 0.0
C2568 C 0.12611 0.9702 0.53269 0.0
C2569 C 0.14358 0.98282 0.51925 0.0
C2570 C 0.13961 0.00651 0.51094 0.0
C2571 C 0.11691 0.01734 0.51608 0.0
C2572 C 0.09873 0.00441 0.52947 0.0
C2573 C 0.1037 0.98074 0.53822 0.0
H2574 H 0.33937 0.98571 0.73435 0.0
H2575 H 0.33391 0.02607 0.80319 0.0
H2576 H 0.31005 0.99352 0.82295 0.0
H2577 H 0.27815 0.95826 0.74022 0.0
H2578 H 0.28906 0.93008 0.72745 0.0
H2579 H 0.30291 0.95801 0.71756 0.0
H2580 H 0.3447 0.94077 0.73014 0.0
H2581 H 0.33097 0.91295 0.74031 0.0
H2582 H 0.34862 0.92971 0.7616 0.0
H2583 H 0.29182 0.95483 0.83697 0.0
H2584 H 0.27837 0.91312 0.84367 0.0
H2585 H 0.29396 0.89848 0.76528 0.0
C2586 C 0.33264 0.98796 0.75336 0.0
C2587 C 0.33852 0.00839 0.76721 0.0
C2588 C 0.32965 0.01054 0.79219 0.0
C2589 C 0.31601 0.99219 0.8036 0.0
C2590 C 0.31118 0.97195 0.7897 0.0
C2591 C 0.31892 0.96982 0.76504 0.0
C2592 C 0.3127 0.94543 0.7549 0.0
C2593 C 0.29462 0.94812 0.73379 0.0
C2594 C 0.33561 0.9314 0.74624 0.0
C2595 C 0.3011 0.93395 0.77799 0.0
C2596 C 0.30021 0.94961 0.79777 0.0
C2597 C 0.29188 0.94252 0.82148 0.0
C2598 C 0.28423 0.91872 0.82508 0.0
C2599 C 0.28494 0.90228 0.80505 0.0
C2600 C 0.29325 0.91029 0.78115 0.0
H2601 H 0.34902 0.11656 0.0124 0.0
H2602 H 0.34826 0.15906 0.07977 0.0
H2603 H 0.38903 0.14392 0.08908 0.0
H2604 H 0.38386 0.06459 0.03683 0.0
H2605 H 0.40133 0.06023 0.00826 0.0
H2606 H 0.37118 0.07293 0.00728 0.0
H2607 H 0.38768 0.11013 0.98281 0.0
H2608 H 0.41786 0.09756 0.98381 0.0
H2609 H 0.41157 0.12733 0.9957 0.0
H2610 H 0.42975 0.12546 0.09132 0.0
H2611 H 0.46937 0.10539 0.08572 0.0
H2612 H 0.44663 0.07535 0.01597 0.0
C2613 C 0.35738 0.12233 0.02926 0.0
C2614 C 0.34528 0.13894 0.04547 0.0
C2615 C 0.35706 0.14643 0.06706 0.0
C2616 C 0.38026 0.13787 0.07258 0.0
C2617 C 0.39185 0.12191 0.0562 0.0
C2618 C 0.381 0.11421 0.03489 0.0
C2619 C 0.39837 0.09786 0.01999 0.0
C2620 C 0.38807 0.07239 0.01798 0.0
C2621 C 0.40421 0.10888 0.99404 0.0
C2622 C 0.42051 0.09771 0.03629 0.0
C2623 C 0.41609 0.11161 0.05715 0.0
C2624 C 0.43345 0.11449 0.07507 0.0
C2625 C 0.45599 0.10295 0.07169 0.0
C2626 C 0.46134 0.0887 0.05041 0.0
C2627 C 0.44321 0.08608 0.03245 0.0
H2628 H 0.69359 0.60341 0.74065 0.0
H2629 H 0.74705 0.55148 0.76665 0.0
H2630 H 0.77276 0.58473 0.77928 0.0
H2631 H 0.73849 0.65258 0.72051 0.0
H2632 H 0.7176 0.67572 0.73125 0.0
H2633 H 0.70638 0.64821 0.71865 0.0
H2634 H 0.68053 0.64163 0.75931 0.0
H2635 H 0.69215 0.66864 0.77226 0.0
H2636 H 0.69521 0.64027 0.78889 0.0
H2637 H 0.78835 0.62243 0.79686 0.0
H2638 H 0.79503 0.66289 0.8139 0.0
H2639 H 0.7312 0.69006 0.77707 0.0
C2640 C 0.7112 0.59907 0.74791 0.0
C2641 C 0.71835 0.57492 0.75267 0.0
C2642 C 0.74125 0.5699 0.76283 0.0
C2643 C 0.75601 0.58866 0.77004 0.0
C2644 C 0.74773 0.61229 0.76662 0.0
C2645 C 0.72612 0.61762 0.75526 0.0
C2646 C 0.72007 0.64432 0.75642 0.0
C2647 C 0.72068 0.65588 0.73014 0.0
C2648 C 0.69555 0.64896 0.77004 0.0
C2649 C 0.74084 0.65282 0.77151 0.0
C2650 C 0.75681 0.6342 0.77687 0.0
C2651 C 0.77629 0.63732 0.79231 0.0
C2652 C 0.77974 0.66023 0.8022 0.0
C2653 C 0.76368 0.67959 0.7967 0.0
C2654 C 0.74404 0.67572 0.78115 0.0
H2655 H 0.82651 0.45057 0.01598 0.0
H2656 H 0.82093 0.4664 0.09507 0.0
H2657 H 0.85859 0.48962 0.09115 0.0
H2658 H 0.88916 0.44038 0.01361 0.0
H2659 H 0.89414 0.45369 0.98302 0.0
H2660 H 0.86541 0.44056 0.99132 0.0
H2661 H 0.84369 0.48093 0.98025 0.0
H2662 H 0.87239 0.49423 0.9719 0.0
H2663 H 0.8526 0.50835 0.99488 0.0
H2664 H 0.89755 0.50851 0.07957 0.0
H2665 H 0.93683 0.52084 0.06151 0.0
H2666 H 0.91809 0.49228 0.98988 0.0
C2667 C 0.83299 0.45926 0.03239 0.0
C2668 C 0.82078 0.45684 0.05582 0.0
C2669 C 0.83003 0.46807 0.07696 0.0
C2670 C 0.8513 0.48138 0.07489 0.0
C2671 C 0.86301 0.48322 0.05157 0.0
C2672 C 0.85428 0.47245 0.03069 0.0
C2673 C 0.87134 0.47568 0.00826 0.0
C2674 C 0.88056 0.45112 0.99849 0.0
C2675 C 0.85928 0.4907 0.9876 0.0
C2676 C 0.89132 0.48952 0.01997 0.0
C2677 C 0.88592 0.49389 0.04488 0.0
C2678 C 0.90193 0.50532 0.06007 0.0
C2679 C 0.92427 0.51209 0.04967 0.0
C2680 C 0.93051 0.50731 0.02435 0.0
C2681 C 0.91361 0.49632 0.00919 0.0
H2682 H 0.39496 0.15886 0.75208 0.0
H2683 H 0.34962 0.11411 0.70802 0.0
H2684 H 0.32171 0.14855 0.7016 0.0
H2685 H 0.35135 0.18275 0.78597 0.0
H2686 H 0.3625 0.21298 0.78856 0.0
H2687 H 0.38331 0.18843 0.78275 0.0
H2688 H 0.40006 0.20994 0.74276 0.0
H2689 H 0.37962 0.23501 0.74877 0.0
H2690 H 0.37956 0.22006 0.71914 0.0
H2691 H 0.29408 0.18252 0.7094 0.0
H2692 H 0.2697 0.21547 0.72824 0.0
H2693 H 0.33223 0.23853 0.76808 0.0
C2694 C 0.37987 0.15682 0.73993 0.0
C2695 C 0.37439 0.13411 0.73034 0.0
C2696 C 0.35405 0.13156 0.71535 0.0
C2697 C 0.33819 0.15103 0.71152 0.0
C2698 C 0.34307 0.17284 0.72276 0.0
C2699 C 0.36366 0.17604 0.73632 0.0
C2700 C 0.36248 0.19966 0.75017 0.0
C2701 C 0.36504 0.19568 0.77852 0.0
C2702 C 0.38156 0.21721 0.73956 0.0
C2703 C 0.33726 0.20814 0.74394 0.0
C2704 C 0.32664 0.19278 0.72757 0.0
C2705 C 0.3024 0.19515 0.72158 0.0
C2706 C 0.28863 0.21371 0.73261 0.0
C2707 C 0.29916 0.22948 0.74956 0.0
C2708 C 0.32385 0.22689 0.7549 0.0
H2709 H 0.20969 0.91233 0.31729 0.0
H2710 H 0.22866 0.94584 0.24571 0.0
H2711 H 0.25448 0.91065 0.23508 0.0
H2712 H 0.2695 0.88121 0.32703 0.0
H2713 H 0.25529 0.85487 0.34067 0.0
H2714 H 0.24127 0.88424 0.34448 0.0
H2715 H 0.20192 0.86852 0.3258 0.0
H2716 H 0.21582 0.83921 0.32212 0.0
H2717 H 0.20332 0.85471 0.29554 0.0
H2718 H 0.27244 0.86996 0.22921 0.0
H2719 H 0.28167 0.82618 0.22882 0.0
H2720 H 0.25318 0.81918 0.30474 0.0
C2721 C 0.21974 0.91251 0.29964 0.0
C2722 C 0.21719 0.93186 0.28234 0.0
C2723 C 0.23033 0.93125 0.25927 0.0
C2724 C 0.24518 0.9114 0.25311 0.0
C2725 C 0.24692 0.89241 0.27033 0.0
C2726 C 0.23471 0.89283 0.29321 0.0
C2727 C 0.23785 0.86908 0.30729 0.0
C2728 C 0.25182 0.87257 0.33129 0.0
C2729 C 0.21327 0.85719 0.313 0.0
C2730 C 0.25283 0.85493 0.28825 0.0
C2731 C 0.2581 0.86886 0.26719 0.0
C2732 C 0.2691 0.85904 0.24584 0.0
C2733 C 0.27426 0.83422 0.24575 0.0
C2734 C 0.26866 0.81965 0.26695 0.0
C2735 C 0.25848 0.83022 0.28869 0.0
H2736 H 0.52297 0.35577 0.48568 0.0
H2737 H 0.53024 0.36685 0.40548 0.0
H2738 H 0.53428 0.41069 0.41179 0.0
H2739 H 0.48761 0.41003 0.49826 0.0
H2740 H 0.5018 0.41596 0.5273 0.0
H2741 H 0.49977 0.38541 0.51661 0.0
H2742 H 0.54616 0.38014 0.51946 0.0
H2743 H 0.54833 0.41072 0.53007 0.0
H2744 H 0.56575 0.40106 0.50295 0.0
H2745 H 0.53718 0.45382 0.42675 0.0
H2746 H 0.53768 0.49253 0.44875 0.0
H2747 H 0.52867 0.45443 0.51972 0.0
C2748 C 0.52544 0.36737 0.46939 0.0
C2749 C 0.52629 0.35753 0.44496 0.0
C2750 C 0.52949 0.37364 0.42433 0.0
C2751 C 0.53185 0.39868 0.42776 0.0
C2752 C 0.53099 0.4077 0.452 0.0
C2753 C 0.52779 0.39254 0.47249 0.0
C2754 C 0.52717 0.40699 0.49654 0.0
C2755 C 0.50263 0.40444 0.5105 0.0
C2756 C 0.5481 0.39926 0.51324 0.0
C2757 C 0.53053 0.43264 0.48641 0.0
C2758 C 0.53273 0.43256 0.46064 0.0
C2759 C 0.53555 0.45399 0.44692 0.0
C2760 C 0.53586 0.47601 0.45969 0.0
C2761 C 0.53343 0.47684 0.48612 0.0
C2762 C 0.53092 0.45462 0.49958 0.0
H2763 H 0.40926 0.78449 0.14701 0.0
H2764 H 0.46054 0.76654 0.20439 0.0
H2765 H 0.4283 0.74665 0.22938 0.0
H2766 H 0.36267 0.80106 0.18659 0.0
H2767 H 0.33868 0.78893 0.1688 0.0
H2768 H 0.36644 0.79782 0.15327 0.0
H2769 H 0.3717 0.75496 0.13486 0.0
H2770 H 0.34384 0.74596 0.15038 0.0
H2771 H 0.37132 0.72896 0.15551 0.0
H2772 H 0.39016 0.73443 0.25077 0.0
H2773 H 0.34824 0.73077 0.2672 0.0
H2774 H 0.32162 0.75608 0.1959 0.0
C2775 C 0.41383 0.7758 0.16451 0.0
C2776 C 0.43735 0.77702 0.17376 0.0
C2777 C 0.44258 0.76584 0.19696 0.0
C2778 C 0.42445 0.75434 0.21122 0.0
C2779 C 0.40128 0.75399 0.2019 0.0
C2780 C 0.39591 0.76427 0.179 0.0
C2781 C 0.36906 0.76373 0.17455 0.0
C2782 C 0.35862 0.78941 0.17059 0.0
C2783 C 0.36367 0.74742 0.15252 0.0
C2784 C 0.36013 0.75267 0.19903 0.0
C2785 C 0.37903 0.74677 0.21435 0.0
C2786 C 0.37519 0.73847 0.23879 0.0
C2787 C 0.35135 0.73657 0.24799 0.0
C2788 C 0.33177 0.74307 0.23277 0.0
C2789 C 0.33626 0.75061 0.20781 0.0
H2790 H 0.99001 0.69035 0.93704 0.0
H2791 H 0.0462 0.73314 0.96859 0.0
H2792 H 0.05774 0.69837 0.99543 0.0
H2793 H 0.97253 0.6581 0.99387 0.0
H2794 H 0.96746 0.63005 0.97838 0.0
H2795 H 0.96343 0.65833 0.96185 0.0
H2796 H 0.99381 0.64408 0.92724 0.0
H2797 H 0.99794 0.61577 0.94368 0.0
H2798 H 0.02371 0.63411 0.93557 0.0
H2799 H 0.06338 0.65846 0.01897 0.0
H2800 H 0.06285 0.61716 0.0369 0.0
H2801 H 0.00319 0.59972 0.99001 0.0
C2802 C 0.00471 0.69252 0.94964 0.0
C2803 C 0.01712 0.71475 0.95061 0.0
C2804 C 0.03632 0.7165 0.96739 0.0
C2805 C 0.04303 0.69677 0.98276 0.0
C2806 C 0.03046 0.67518 0.98126 0.0
C2807 C 0.01169 0.67293 0.96509 0.0
C2808 C 1.00127 0.64764 0.96692 0.0
C2809 C 0.97459 0.6486 0.97578 0.0
C2810 C 0.00437 0.63464 0.94186 0.0
C2811 C 0.01706 0.63599 0.98665 0.0
C2812 C 0.03377 0.65222 0.99468 0.0
C2813 C 0.05034 0.64567 0.01278 0.0
C2814 C 0.04987 0.62206 0.02291 0.0
C2815 C 0.03297 0.60496 0.01504 0.0
C2816 C 0.01636 0.61222 0.99657 0.0
H2817 H 0.08572 0.2932 0.64512 0.0
H2818 H 0.07968 0.21865 0.62251 0.0
H2819 H 0.11587 0.20782 0.6462 0.0
H2820 H 0.15354 0.29416 0.64577 0.0
H2821 H 0.15311 0.31293 0.67294 0.0
H2822 H 0.1292 0.31569 0.65092 0.0
H2823 H 0.09753 0.30808 0.68671 0.0
H2824 H 0.12127 0.30512 0.70875 0.0
H2825 H 0.10001 0.28109 0.70576 0.0
H2826 H 0.14868 0.20394 0.67649 0.0
H2827 H 0.177 0.20742 0.7108 0.0
H2828 H 0.16197 0.28438 0.7141 0.0
C2829 C 0.0924 0.27472 0.64457 0.0
C2830 C 0.07992 0.25675 0.63194 0.0
C2831 C 0.08897 0.23271 0.63203 0.0
C2832 C 0.10957 0.2264 0.64535 0.0
C2833 C 0.12099 0.24439 0.65826 0.0
C2834 C 0.11291 0.26812 0.6578 0.0
C2835 C 0.12713 0.28351 0.67511 0.0
C2836 C 0.1416 0.3027 0.66029 0.0
C2837 C 0.11049 0.29512 0.69527 0.0
C2838 C 0.14371 0.26448 0.6862 0.0
C2839 C 0.14009 0.24213 0.67593 0.0
C2840 C 0.15195 0.22139 0.68441 0.0
C2841 C 0.1678 0.22351 0.70406 0.0
C2842 C 0.17155 0.24616 0.71509 0.0
C2843 C 0.15966 0.26695 0.70571 0.0
H2844 H 0.54729 0.7636 0.11016 0.0
H2845 H 0.49123 0.78392 0.05861 0.0
H2846 H 0.50457 0.75075 0.03097 0.0
H2847 H 0.5934 0.74235 0.06193 0.0
H2848 H 0.60318 0.71801 0.08213 0.0
H2849 H 0.5923 0.74604 0.09531 0.0
H2850 H 0.56068 0.72262 0.12246 0.0
H2851 H 0.57128 0.69464 0.10929 0.0
H2852 H 0.53982 0.70322 0.10753 0.0
H2853 H 0.51893 0.71175 0.01318 0.0
H2854 H 0.53437 0.67031 0.00568 0.0
H2855 H 0.58144 0.67572 0.06835 0.0
C2856 C 0.53823 0.76153 0.09272 0.0
C2857 C 0.51822 0.77629 0.08651 0.0
C2858 C 0.50667 0.77285 0.06367 0.0
C2859 C 0.51418 0.75412 0.04782 0.0
C2860 C 0.53344 0.73933 0.05495 0.0
C2861 C 0.54553 0.74301 0.07672 0.0
C2862 C 0.56391 0.72312 0.08151 0.0
C2863 C 0.58973 0.73297 0.08012 0.0
C2864 C 0.55858 0.71014 0.10667 0.0
C2865 C 0.5594 0.70698 0.05973 0.0
C2866 C 0.54202 0.71683 0.04442 0.0
C2867 C 0.53296 0.7041 0.02465 0.0
C2868 C 0.54165 0.68058 0.02066 0.0
C2869 C 0.55915 0.67009 0.03639 0.0
C2870 C 0.56852 0.68367 0.05574 0.0
H2871 H 0.11211 0.81985 0.8834 0.0
H2872 H 0.07241 0.76327 0.84841 0.0
H2873 H 0.10735 0.75585 0.8194 0.0
H2874 H 0.14163 0.84307 0.82671 0.0
H2875 H 0.16945 0.84929 0.84182 0.0
H2876 H 0.14119 0.85033 0.8594 0.0
H2877 H 0.15815 0.81928 0.89126 0.0
H2878 H 0.18643 0.81814 0.87376 0.0
H2879 H 0.17013 0.79074 0.88036 0.0
H2880 H 0.1481 0.75341 0.79522 0.0
H2881 H 0.1897 0.75731 0.77737 0.0
H2882 H 0.20204 0.81638 0.82738 0.0
C2883 C 0.11063 0.80596 0.86957 0.0
C2884 C 0.08933 0.79214 0.8683 0.0
C2885 C 0.08837 0.77417 0.84981 0.0
C2886 C 0.1082 0.7698 0.83324 0.0
C2887 C 0.12894 0.78363 0.83517 0.0
C2888 C 0.13018 0.80147 0.85279 0.0
C2889 C 0.15453 0.81378 0.85114 0.0
C2890 C 0.15151 0.84071 0.84436 0.0
C2891 C 0.16811 0.81027 0.87558 0.0
C2892 C 0.16693 0.80001 0.82995 0.0
C2893 C 0.15194 0.78261 0.821 0.0
C2894 C 0.15984 0.76714 0.80199 0.0
C2895 C 0.18355 0.76949 0.79194 0.0
C2896 C 0.1992 0.7873 0.8007 0.0
C2897 C 0.19053 0.80278 0.81993 0.0
H2898 H 1.00138 0.36334 0.57615 0.0
H2899 H 0.00667 0.37526 0.65566 0.0
H2900 H 1.00215 0.41921 0.64829 0.0
H2901 H 0.03621 0.41194 0.5563 0.0
H2902 H 0.01862 0.41928 0.5294 0.0
H2903 H 0.01949 0.3888 0.5414 0.0
H2904 H 0.97266 0.38918 0.54578 0.0
H2905 H 0.97169 0.41978 0.53386 0.0
H2906 H 0.95743 0.41248 0.56366 0.0
H2907 H 1.00158 0.46188 0.63166 0.0
H2908 H 0.00545 0.49977 0.60699 0.0
H2909 H 0.9994 0.45939 0.53874 0.0
C2910 C 1.00123 0.37513 0.59209 0.0
C2911 C 0.00437 0.36592 0.61647 0.0
C2912 C 0.00424 0.38196 0.6368 0.0
C2913 C 1.00158 0.40692 0.63282 0.0
C2914 C 0.99881 0.41544 0.60847 0.0
C2915 C 0.9985 0.4 0.58847 0.0
C2916 C 0.99702 0.41371 0.56397 0.0
C2917 C 0.01915 0.4081 0.54677 0.0
C2918 C 0.97328 0.40847 0.55106 0.0
C2919 C 0.99731 0.4393 0.57322 0.0
C2920 C 0.9981 0.43999 0.59895 0.0
C2921 C 1.00051 0.46161 0.61154 0.0
C2922 C 1.00271 0.48301 0.59738 0.0
C2923 C 1.00252 0.48251 0.57098 0.0
C2924 C 0.99917 0.46043 0.55891 0.0
H2925 H 0.43841 0.32146 0.35535 0.0
H2926 H 0.45974 0.24788 0.37447 0.0
H2927 H 0.4226 0.23307 0.35587 0.0
H2928 H 0.37465 0.31456 0.36842 0.0
H2929 H 0.36534 0.33367 0.34282 0.0
H2930 H 0.39386 0.33859 0.35707 0.0
H2931 H 0.41585 0.33473 0.31396 0.0
H2932 H 0.38736 0.32972 0.29963 0.0
H2933 H 0.41177 0.30803 0.29584 0.0
H2934 H 0.38232 0.22608 0.33652 0.0
H2935 H 0.34206 0.22737 0.31806 0.0
H2936 H 0.34627 0.30528 0.31016 0.0
C2937 C 0.43537 0.3022 0.35556 0.0
C2938 C 0.45228 0.28587 0.36648 0.0
C2939 C 0.44731 0.26084 0.3663 0.0
C2940 C 0.42618 0.25222 0.35572 0.0
C2941 C 0.40998 0.26875 0.34518 0.0
C2942 C 0.41429 0.29324 0.34497 0.0
C2943 C 0.39363 0.30715 0.33277 0.0
C2944 C 0.38113 0.32452 0.35138 0.0
C2945 C 0.4027 0.32071 0.30914 0.0
C2946 C 0.37698 0.28666 0.32627 0.0
C2947 C 0.38683 0.26468 0.33364 0.0
C2948 C 0.37458 0.24319 0.33053 0.0
C2949 C 0.35163 0.24412 0.31996 0.0
C2950 C 0.34091 0.26636 0.31231 0.0
C2951 C 0.35403 0.28792 0.31533 0.0
H2952 H 0.42814 0.53777 0.3198 0.0
H2953 H 0.48707 0.55507 0.2676 0.0
H2954 H 0.51291 0.5644 0.30297 0.0
H2955 H 0.43877 0.58318 0.36417 0.0
H2956 H 0.43142 0.56428 0.39093 0.0
H2957 H 0.41772 0.5589 0.36153 0.0
H2958 H 0.43356 0.51461 0.36266 0.0
H2959 H 0.44729 0.51985 0.39209 0.0
H2960 H 0.4654 0.50862 0.36613 0.0
H2961 H 0.53135 0.57395 0.34395 0.0
H2962 H 0.54214 0.58018 0.38784 0.0
H2963 H 0.47192 0.55436 0.41303 0.0
C2964 C 0.44649 0.54353 0.3158 0.0
C2965 C 0.45562 0.54588 0.29102 0.0
C2966 C 0.47978 0.55316 0.2865 0.0
C2967 C 0.49454 0.55852 0.30643 0.0
C2968 C 0.48491 0.55614 0.33067 0.0
C2969 C 0.46154 0.54854 0.33543 0.0
C2970 C 0.45564 0.54708 0.36316 0.0
C2971 C 0.43465 0.5644 0.37036 0.0
C2972 C 0.45016 0.52098 0.37149 0.0
C2973 C 0.47925 0.55537 0.37329 0.0
C2974 C 0.49585 0.56068 0.35426 0.0
C2975 C 0.51859 0.56965 0.35901 0.0
C2976 C 0.52451 0.57324 0.3839 0.0
C2977 C 0.50786 0.56761 0.40363 0.0
C2978 C 0.48503 0.55844 0.39822 0.0
H2979 H 0.30084 0.66815 0.06396 0.0
H2980 H 0.29753 0.72951 0.01269 0.0
H2981 H 0.28199 0.75519 0.04706 0.0
H2982 H 0.24697 0.68047 0.0972 0.0
H2983 H 0.25792 0.67107 0.12721 0.0
H2984 H 0.2708 0.65802 0.0992 0.0
H2985 H 0.31361 0.67099 0.11159 0.0
H2986 H 0.3008 0.68372 0.13984 0.0
H2987 H 0.31881 0.70216 0.11868 0.0
H2988 H 0.26374 0.77329 0.08644 0.0
H2989 H 0.24743 0.78313 0.1286 0.0
H2990 H 0.26243 0.70961 0.15332 0.0
C2991 C 0.29724 0.68708 0.06001 0.0
C2992 C 0.3004 0.69684 0.03566 0.0
C2993 C 0.29539 0.72168 0.03125 0.0
C2994 C 0.28647 0.73639 0.05062 0.0
C2995 C 0.2829 0.72599 0.07426 0.0
C2996 C 0.28846 0.70199 0.07909 0.0
C2997 C 0.28235 0.69499 0.1059 0.0
C2998 C 0.26338 0.67496 0.10745 0.0
C2999 C 0.30526 0.68753 0.11982 0.0
C3000 C 0.272 0.71868 0.11526 0.0
C3001 C 0.2725 0.73638 0.09682 0.0
C3002 C 0.2634 0.75961 0.10108 0.0
C3003 C 0.25395 0.76497 0.12499 0.0
C3004 C 0.25372 0.74715 0.14424 0.0
C3005 C 0.26267 0.7237 0.1391 0.0
H3006 H 0.11338 0.53182 0.87036 0.0
H3007 H 0.1856 0.53104 0.89994 0.0
H3008 H 0.16815 0.52434 0.94242 0.0
H3009 H 0.08459 0.56361 0.92043 0.0
H3010 H 0.05702 0.54682 0.91946 0.0
H3011 H 0.07546 0.55084 0.89152 0.0
H3012 H 0.07757 0.50438 0.88615 0.0
H3013 H 0.05943 0.50022 0.91433 0.0
H3014 H 0.08861 0.48549 0.91115 0.0
H3015 H 0.14292 0.51847 0.98133 0.0
H3016 H 0.11148 0.51782 0.01485 0.0
H3017 H 0.05581 0.52174 0.95952 0.0
C3018 C 0.12558 0.53024 0.88573 0.0
C3019 C 0.15085 0.53188 0.88188 0.0
C3020 C 0.16617 0.52982 0.9025 0.0
C3021 C 0.15646 0.52585 0.92663 0.0
C3022 C 0.13147 0.52388 0.92966 0.0
C3023 C 0.11624 0.5262 0.90982 0.0
C3024 C 0.08999 0.52435 0.91818 0.0
C3025 C 0.07595 0.5478 0.91204 0.0
C3026 C 0.07822 0.50229 0.90677 0.0
C3027 C 0.0928 0.52096 0.94595 0.0
C3028 C 0.11689 0.52049 0.95214 0.0
C3029 C 0.12402 0.51872 0.97674 0.0
C3030 C 0.10602 0.51827 0.99561 0.0
C3031 C 0.08124 0.51958 0.98968 0.0
C3032 C 0.07459 0.52027 0.96452 0.0
H3033 H 0.23313 0.36118 0.60267 0.0
H3034 H 0.30507 0.39135 0.59867 0.0
H3035 H 0.31345 0.37308 0.63997 0.0
H3036 H 0.22165 0.36955 0.66819 0.0
H3037 H 0.20592 0.34152 0.67291 0.0
H3038 H 0.20564 0.35666 0.64294 0.0
H3039 H 0.22269 0.31798 0.62186 0.0
H3040 H 0.22293 0.30275 0.65181 0.0
H3041 H 0.25029 0.30434 0.63275 0.0
H3042 H 0.31346 0.35274 0.68273 0.0
H3043 H 0.30599 0.33045 0.72237 0.0
H3044 H 0.23445 0.31212 0.69842 0.0
C3045 C 0.25071 0.3639 0.61039 0.0
C3046 C 0.26844 0.37784 0.59725 0.0
C3047 C 0.29119 0.38079 0.60818 0.0
C3048 C 0.2961 0.37049 0.63172 0.0
C3049 C 0.27818 0.35705 0.64419 0.0
C3050 C 0.25599 0.35356 0.63382 0.0
C3051 C 0.2399 0.33822 0.65109 0.0
C3052 C 0.21692 0.35234 0.65927 0.0
C3053 C 0.23359 0.31441 0.63863 0.0
C3054 C 0.25642 0.33378 0.6729 0.0
C3055 C 0.27838 0.3449 0.66856 0.0
C3056 C 0.29638 0.34387 0.6862 0.0
C3057 C 0.29192 0.33115 0.70876 0.0
C3058 C 0.26967 0.31935 0.71366 0.0
C3059 C 0.25173 0.32074 0.6953 0.0
H3060 H 0.45624 0.58658 0.18271 0.0
H3061 H 0.40211 0.53351 0.1667 0.0
H3062 H 0.41852 0.53046 0.12371 0.0
H3063 H 0.45814 0.61592 0.11971 0.0
H3064 H 0.49038 0.61999 0.12006 0.0
H3065 H 0.47272 0.62028 0.14888 0.0
H3066 H 0.5001 0.58623 0.16675 0.0
H3067 H 0.51771 0.5857 0.13797 0.0
H3068 H 0.50397 0.55842 0.14994 0.0
H3069 H 0.4427 0.5297 0.08444 0.0
H3070 H 0.47299 0.53227 0.04997 0.0
H3071 H 0.51176 0.58608 0.09036 0.0
C3072 C 0.44753 0.57476 0.16996 0.0
C3073 C 0.42788 0.56032 0.17802 0.0
C3074 C 0.41721 0.54471 0.16095 0.0
C3075 C 0.42633 0.5429 0.13645 0.0
C3076 C 0.44607 0.55688 0.12924 0.0
C3077 C 0.45649 0.57265 0.14534 0.0
C3078 C 0.47858 0.58433 0.13318 0.0
C3079 C 0.47471 0.61176 0.13028 0.0
C3080 C 0.50143 0.5783 0.14783 0.0
C3081 C 0.47924 0.57212 0.10805 0.0
C3082 C 0.46017 0.55651 0.10619 0.0
C3083 C 0.45754 0.54209 0.08547 0.0
C3084 C 0.47493 0.54358 0.06606 0.0
C3085 C 0.49468 0.5594 0.0675 0.0
C3086 C 0.49669 0.57404 0.08867 0.0
H3087 H 0.27885 0.65903 0.91387 0.0
H3088 H 0.25258 0.7089 0.97055 0.0
H3089 H 0.25253 0.74195 0.93913 0.0
H3090 H 0.31857 0.69749 0.88265 0.0
H3091 H 0.31247 0.68781 0.85154 0.0
H3092 H 0.30826 0.66728 0.87763 0.0
H3093 H 0.26376 0.66077 0.86597 0.0
H3094 H 0.26802 0.68079 0.83945 0.0
H3095 H 0.2439 0.68657 0.86203 0.0
H3096 H 0.26064 0.77021 0.90345 0.0
H3097 H 0.26856 0.79116 0.86326 0.0
H3098 H 0.28746 0.7226 0.82891 0.0
C3099 C 0.27246 0.67678 0.91945 0.0
C3100 C 0.26565 0.6815 0.94452 0.0
C3101 C 0.25755 0.7049 0.95133 0.0
C3102 C 0.25769 0.72381 0.93369 0.0
C3103 C 0.26553 0.71879 0.90936 0.0
C3104 C 0.27208 0.69574 0.902 0.0
C3105 C 0.28001 0.69531 0.87471 0.0
C3106 C 0.30639 0.68645 0.87146 0.0
C3107 C 0.2629 0.67996 0.85965 0.0
C3108 C 0.27748 0.72185 0.86808 0.0
C3109 C 0.26936 0.73506 0.88842 0.0
C3110 C 0.26663 0.76005 0.88726 0.0
C3111 C 0.27146 0.77179 0.86441 0.0
C3112 C 0.27862 0.75847 0.84299 0.0
C3113 C 0.282 0.73322 0.84499 0.0
H3114 H 0.09594 0.51096 0.73292 0.0
H3115 H 0.11813 0.58151 0.75709 0.0
H3116 H 0.09792 0.60054 0.7213 0.0
H3117 H 0.10666 0.52129 0.66942 0.0
H3118 H 0.08106 0.50479 0.65918 0.0
H3119 H 0.09466 0.49677 0.68828 0.0
H3120 H 0.05329 0.50238 0.71166 0.0
H3121 H 0.0395 0.5102 0.68254 0.0
H3122 H 0.03683 0.53055 0.70844 0.0
H3123 H 0.07898 0.61149 0.6811 0.0
H3124 H 0.06164 0.6138 0.63938 0.0
H3125 H 0.05118 0.53623 0.64165 0.0
C3126 C 0.0961 0.53045 0.731 0.0
C3127 C 0.10853 0.54477 0.7478 0.0
C3128 C 0.10867 0.57019 0.74444 0.0
C3129 C 0.09721 0.58118 0.72421 0.0
C3130 C 0.08563 0.56649 0.70764 0.0
C3131 C 0.08482 0.54171 0.71088 0.0
C3132 C 0.07252 0.52996 0.68947 0.0
C3133 C 0.08976 0.51216 0.67578 0.0
C3134 C 0.04914 0.51754 0.69858 0.0
C3135 C 0.06714 0.55196 0.67341 0.0
C3136 C 0.07464 0.57286 0.68434 0.0
C3137 C 0.07265 0.59531 0.67251 0.0
C3138 C 0.0627 0.59643 0.64882 0.0
C3139 C 0.05493 0.57522 0.6372 0.0
C3140 C 0.05708 0.55276 0.64986 0.0
H3141 H 0.28095 0.38642 0.44552 0.0
H3142 H 0.25072 0.33108 0.49506 0.0
H3143 H 0.24402 0.30543 0.45913 0.0
H3144 H 0.2409 0.37698 0.39363 0.0
H3145 H 0.26406 0.38113 0.36963 0.0
H3146 H 0.26616 0.39616 0.39906 0.0
H3147 H 0.30855 0.37695 0.40506 0.0
H3148 H 0.3066 0.36197 0.3756 0.0
H3149 H 0.31233 0.34461 0.40358 0.0
H3150 H 0.24066 0.2851 0.4189 0.0
H3151 H 0.24265 0.27002 0.3761 0.0
H3152 H 0.2755 0.33694 0.35018 0.0
C3153 C 0.27285 0.36894 0.44875 0.0
C3154 C 0.26635 0.36093 0.47339 0.0
C3155 C 0.25597 0.3378 0.47663 0.0
C3156 C 0.25197 0.32302 0.45623 0.0
C3157 C 0.25851 0.33133 0.43237 0.0
C3158 C 0.26888 0.35363 0.42837 0.0
C3159 C 0.27485 0.35747 0.40055 0.0
C3160 C 0.26064 0.37923 0.3901 0.0
C3161 C 0.30221 0.36042 0.39593 0.0
C3162 C 0.2662 0.33385 0.38976 0.0
C3163 C 0.25675 0.31923 0.40865 0.0
C3164 C 0.24798 0.2964 0.40394 0.0
C3165 C 0.2492 0.28798 0.37942 0.0
C3166 C 0.25913 0.30221 0.35951 0.0
C3167 C 0.2675 0.32569 0.36482 0.0
H3168 H 0.36636 0.44574 0.55772 0.0
H3169 H 0.32701 0.4782 0.49663 0.0
H3170 H 0.36147 0.50517 0.48714 0.0
H3171 H 0.39423 0.50059 0.57797 0.0
H3172 H 0.42233 0.48569 0.58547 0.0
H3173 H 0.39449 0.46925 0.58759 0.0
H3174 H 0.41276 0.43708 0.55764 0.0
H3175 H 0.44065 0.4534 0.55546 0.0
H3176 H 0.42503 0.44642 0.52753 0.0
H3177 H 0.40153 0.52782 0.48337 0.0
H3178 H 0.4426 0.54437 0.48625 0.0
H3179 H 0.45531 0.49786 0.55054 0.0
C3180 C 0.36486 0.45857 0.54238 0.0
C3181 C 0.34377 0.45973 0.52794 0.0
C3182 C 0.3428 0.47688 0.50804 0.0
C3183 C 0.36236 0.4923 0.50249 0.0
C3184 C 0.38286 0.49057 0.51705 0.0
C3185 C 0.38417 0.47417 0.53666 0.0
C3186 C 0.40828 0.47574 0.54936 0.0
C3187 C 0.4046 0.48327 0.57672 0.0
C3188 C 0.42252 0.45173 0.54737 0.0
C3189 C 0.42044 0.49553 0.53382 0.0
C3190 C 0.40553 0.50382 0.5152 0.0
C3191 C 0.4132 0.52154 0.49803 0.0
C3192 C 0.43662 0.53088 0.49983 0.0
C3193 C 0.45226 0.52271 0.51878 0.0
C3194 C 0.4438 0.50485 0.53605 0.0
H3195 H 0.87748 0.13106 0.52709 0.0
H3196 H 0.82997 0.07642 0.55924 0.0
H3197 H 0.86503 0.04871 0.56392 0.0
H3198 H 0.9128 0.09332 0.49066 0.0
H3199 H 0.94098 0.10828 0.49526 0.0
H3200 H 0.91294 0.12504 0.49772 0.0
H3201 H 0.92307 0.13829 0.54239 0.0
H3202 H 0.95139 0.1219 0.53977 0.0
H3203 H 0.93063 0.11568 0.56556 0.0
H3204 H 0.90462 0.02565 0.56085 0.0
H3205 H 0.94616 0.00996 0.55268 0.0
H3206 H 0.96674 0.07992 0.52183 0.0
C3207 C 0.87448 0.11346 0.53561 0.0
C3208 C 0.85104 0.10583 0.54274 0.0
C3209 C 0.84783 0.08264 0.55374 0.0
C3210 C 0.86761 0.06678 0.55644 0.0
C3211 C 0.89037 0.07457 0.54831 0.0
C3212 C 0.89394 0.09751 0.53847 0.0
C3213 C 0.91987 0.10108 0.52978 0.0
C3214 C 0.92174 0.10728 0.50169 0.0
C3215 C 0.93195 0.12037 0.54531 0.0
C3216 C 0.93013 0.07625 0.53531 0.0
C3217 C 0.91299 0.06127 0.54629 0.0
C3218 C 0.91826 0.03728 0.55248 0.0
C3219 C 0.9418 0.02849 0.54759 0.0
C3220 C 0.95958 0.04367 0.53644 0.0
C3221 C 0.95353 0.06779 0.5302 0.0
H3222 H 0.68728 0.08874 0.28226 0.0
H3223 H 0.72833 0.04243 0.23127 0.0
H3224 H 0.75138 0.07783 0.21568 0.0
H3225 H 0.68288 0.14014 0.24103 0.0
H3226 H 0.68578 0.1615 0.26575 0.0
H3227 H 0.67254 0.13253 0.27235 0.0
H3228 H 0.70396 0.12421 0.30651 0.0
H3229 H 0.71735 0.15312 0.29994 0.0
H3230 H 0.73576 0.12601 0.29846 0.0
H3231 H 0.77021 0.1186 0.20639 0.0
H3232 H 0.78314 0.16115 0.20415 0.0
H3233 H 0.72877 0.17959 0.26102 0.0
C3234 C 0.70108 0.08594 0.26777 0.0
C3235 C 0.70607 0.06286 0.25797 0.0
C3236 C 0.72424 0.06002 0.23902 0.0
C3237 C 0.7374 0.07998 0.23007 0.0
C3238 C 0.73203 0.10249 0.24028 0.0
C3239 C 0.71425 0.10552 0.25868 0.0
C3240 C 0.71195 0.13142 0.26679 0.0
C3241 C 0.6868 0.14201 0.26113 0.0
C3242 C 0.7176 0.13382 0.29457 0.0
C3243 C 0.73134 0.14258 0.25019 0.0
C3244 C 0.74273 0.12571 0.23497 0.0
C3245 C 0.76135 0.13197 0.21815 0.0
C3246 C 0.76849 0.15616 0.21693 0.0
C3247 C 0.75701 0.17364 0.23248 0.0
C3248 C 0.73817 0.16663 0.2492 0.0
H3249 H 0.69674 0.97607 0.08239 0.0
H3250 H 0.71321 0.96522 0.0036 0.0
H3251 H 0.67529 0.98658 0.99313 0.0
H3252 H 0.63271 0.9673 0.07984 0.0
H3253 H 0.62475 0.99028 0.10221 0.0
H3254 H 0.65348 0.97468 0.10374 0.0
H3255 H 0.67551 0.01555 0.10125 0.0
H3256 H 0.64681 0.03124 0.09979 0.0
H3257 H 0.66974 0.03623 0.07572 0.0
H3258 H 0.63485 0.00771 0.99103 0.0
H3259 H 0.59527 0.02803 0.99723 0.0
H3260 H 0.60453 0.02647 0.07738 0.0
C3261 C 0.69248 0.9783 0.06291 0.0
C3262 C 0.70818 0.96888 0.04381 0.0
C3263 C 0.7017 0.97222 0.0186 0.0
C3264 C 0.68011 0.98434 0.01245 0.0
C3265 C 0.66505 0.99323 0.03167 0.0
C3266 C 0.67096 0.99047 0.05641 0.0
C3267 C 0.65136 0.00159 0.07344 0.0
C3268 C 0.6399 0.98231 0.09083 0.0
C3269 C 0.66147 0.02239 0.08843 0.0
C3270 C 0.63348 0.01092 0.0544 0.0
C3271 C 0.64179 0.0058 0.03044 0.0
C3272 C 0.62828 0.01193 0.0097 0.0
C3273 C 0.60572 0.02349 0.01345 0.0
C3274 C 0.59668 0.02908 0.03778 0.0
C3275 C 0.61095 0.02275 0.05852 0.0
H3276 H 0.37078 0.4602 0.27012 0.0
H3277 H 0.39815 0.45411 0.19367 0.0
H3278 H 0.37688 0.41556 0.18995 0.0
H3279 H 0.37356 0.39397 0.28518 0.0
H3280 H 0.3463 0.39571 0.30439 0.0
H3281 H 0.36613 0.4212 0.30194 0.0
H3282 H 0.33024 0.44827 0.28792 0.0
H3283 H 0.31042 0.42286 0.28995 0.0
H3284 H 0.31354 0.43987 0.26112 0.0
H3285 H 0.34787 0.38152 0.19246 0.0
H3286 H 0.31659 0.35123 0.20275 0.0
H3287 H 0.3098 0.37817 0.2781 0.0
C3288 C 0.37274 0.45045 0.25279 0.0
C3289 C 0.38601 0.46009 0.23215 0.0
C3290 C 0.38816 0.44693 0.20975 0.0
C3291 C 0.37612 0.42507 0.20745 0.0
C3292 C 0.36249 0.41647 0.22789 0.0
C3293 C 0.36118 0.42845 0.25032 0.0
C3294 C 0.34442 0.41592 0.26905 0.0
C3295 C 0.35845 0.40612 0.29146 0.0
C3296 C 0.32342 0.43274 0.27749 0.0
C3297 C 0.3357 0.39563 0.25327 0.0
C3298 C 0.34638 0.39624 0.2296 0.0
C3299 C 0.33975 0.38053 0.21106 0.0
C3300 C 0.32185 0.36361 0.21696 0.0
C3301 C 0.31101 0.36251 0.24119 0.0
C3302 C 0.31818 0.37856 0.25958 0.0
H3303 H 0.2203 0.59603 0.98154 0.0
H3304 H 0.27223 0.57345 0.0366 0.0
H3305 H 0.23879 0.55926 0.06453 0.0
H3306 H 0.179 0.62088 0.0234 0.0
H3307 H 0.15247 0.61198 0.00739 0.0
H3308 H 0.18042 0.61657 0.99011 0.0
H3309 H 0.17877 0.57323 0.97276 0.0
H3310 H 0.15062 0.56847 0.98976 0.0
H3311 H 0.17578 0.54794 0.99412 0.0
H3312 H 0.19906 0.5508 0.08779 0.0
H3313 H 0.15691 0.54726 0.10349 0.0
H3314 H 0.13229 0.57944 0.03403 0.0
C3315 C 0.22476 0.58737 0.9991 0.0
C3316 C 0.24885 0.58559 0.00682 0.0
C3317 C 0.25385 0.57478 0.03027 0.0
C3318 C 0.235 0.56673 0.04626 0.0
C3319 C 0.21133 0.56975 0.03851 0.0
C3320 C 0.20621 0.57966 0.01538 0.0
C3321 C 0.17934 0.58291 0.01223 0.0
C3322 C 0.17242 0.60967 0.00805 0.0
C3323 C 0.17062 0.5672 0.99097 0.0
C3324 C 0.17013 0.57372 0.03737 0.0
C3325 C 0.18871 0.56588 0.05219 0.0
C3326 C 0.18433 0.55676 0.07626 0.0
C3327 C 0.16025 0.55505 0.08512 0.0
C3328 C 0.14085 0.56274 0.07003 0.0
C3329 C 0.14623 0.57271 0.04607 0.0
H3330 H 0.66167 0.93336 0.34317 0.0
H3331 H 0.72142 0.98287 0.33775 0.0
H3332 H 0.75017 0.94893 0.34333 0.0
H3333 H 0.69234 0.88459 0.38519 0.0
H3334 H 0.67886 0.86115 0.36756 0.0
H3335 H 0.6628 0.88934 0.37257 0.0
H3336 H 0.65842 0.89454 0.32478 0.0
H3337 H 0.67464 0.86674 0.31961 0.0
H3338 H 0.68519 0.89419 0.30472 0.0
H3339 H 0.77205 0.91071 0.33825 0.0
H3340 H 0.78549 0.87114 0.32229 0.0
H3341 H 0.71177 0.84572 0.32899 0.0
C3342 C 0.68073 0.93705 0.34455 0.0
C3343 C 0.68949 0.96051 0.3404 0.0
C3344 C 0.71452 0.96488 0.34114 0.0
C3345 C 0.73092 0.94575 0.34449 0.0
C3346 C 0.72191 0.92246 0.34695 0.0
C3347 C 0.69733 0.91802 0.34724 0.0
C3348 C 0.69249 0.89137 0.34475 0.0
C3349 C 0.68095 0.881 0.36897 0.0
C3350 C 0.67679 0.88645 0.32212 0.0
C3351 C 0.71805 0.88189 0.34078 0.0
C3352 C 0.73479 0.89992 0.34312 0.0
C3353 C 0.75923 0.89625 0.33709 0.0
C3354 C 0.76666 0.87378 0.32784 0.0
C3355 C 0.74961 0.85547 0.32436 0.0
C3356 C 0.7252 0.85936 0.33172 0.0
H3357 H 0.84435 0.11537 0.71296 0.0
H3358 H 0.84919 0.08322 0.78699 0.0
H3359 H 0.82411 0.1163 0.80434 0.0
H3360 H 0.85363 0.17207 0.72964 0.0
H3361 H 0.83301 0.18711 0.70891 0.0
H3362 H 0.8456 0.15808 0.70095 0.0
H3363 H 0.80254 0.14108 0.69707 0.0
H3364 H 0.7898 0.17027 0.70485 0.0
H3365 H 0.78097 0.14388 0.72279 0.0
H3366 H 0.80785 0.15604 0.81508 0.0
H3367 H 0.79921 0.19974 0.81817 0.0
H3368 H 0.80325 0.20664 0.73747 0.0
C3369 C 0.83923 0.11485 0.73262 0.0
C3370 C 0.84859 0.09684 0.74866 0.0
C3371 C 0.84219 0.09696 0.77442 0.0
C3372 C 0.82779 0.11555 0.78442 0.0
C3373 C 0.81979 0.13375 0.76837 0.0
C3374 C 0.82495 0.13345 0.74293 0.0
C3375 C 0.81717 0.15692 0.73046 0.0
C3376 C 0.83863 0.16926 0.71671 0.0
C3377 C 0.79638 0.15278 0.71275 0.0
C3378 C 0.80854 0.17098 0.7531 0.0
C3379 C 0.80973 0.15708 0.7747 0.0
C3380 C 0.80602 0.16694 0.79829 0.0
C3381 C 0.80135 0.19174 0.7999 0.0
C3382 C 0.80033 0.20625 0.77803 0.0
C3383 C 0.80329 0.19567 0.75438 0.0
loop_
_geom_bond_atom_site_label_1
_geom_bond_atom_site_label_2
_geom_bond_distance
_geom_bond_site_symmetry_2
_ccdc_geom_bond_type
C0 O1 1.160 . S
C0 O7 1.185 . S
O1 C0 1.160 . S
O2 Zn3 1.899 . S
O2 C10 1.284 . S
Zn3 O2 1.899 . S
Zn3 O4 2.032 . S
Zn3 O7 2.086 1_455 S
Zn3 O12 1.977 . S
O4 Zn3 2.032 . S
O4 C8 1.278 . S
C5 O6 1.203 . S
C5 O12 1.267 . S
O6 C5 1.203 . S
O7 C0 1.185 . S
O7 Zn3 2.086 1_655 S
C8 O4 1.278 . S
C8 O9 1.211 . S
O9 C8 1.211 . S
C10 O2 1.284 . S
C10 O11 1.273 . S
O11 C10 1.273 . S
O12 Zn3 1.977 . S
O12 C5 1.267 . S
C13 O14 1.160 . S
C13 O20 1.185 . S
O14 C13 1.160 . S
O15 Zn16 1.899 . S
O15 C23 1.284 . S
Zn16 O15 1.899 . S
Zn16 O17 2.032 . S
Zn16 O20 2.086 . S
Zn16 O25 1.977 . S
O17 Zn16 2.032 . S
O17 C21 1.278 . S
C18 O19 1.195 1_455 S
C18 O25 1.299 . S
O19 C18 1.195 1_655 S
O20 C13 1.185 . S
O20 Zn16 2.086 . S
C21 O17 1.278 . S
C21 O22 1.211 . S
O22 C21 1.211 . S
C23 O15 1.284 . S
C23 O24 1.273 . S
O24 C23 1.273 . S
O25 Zn16 1.977 . S
O25 C18 1.299 . S
C26 O27 1.160 . S
C26 O33 1.185 . S
O27 C26 1.160 . S
O28 Zn29 1.899 . S
O28 C36 1.284 . S
Zn29 O28 1.899 . S
Zn29 O30 2.032 . S
Zn29 O33 2.086 . S
Zn29 O38 1.977 . S
O30 Zn29 2.032 . S
O30 C34 1.278 . S
C31 O32 1.203 . S
C31 O38 1.267 . S
O32 C31 1.203 . S
O33 C26 1.185 . S
O33 Zn29 2.086 . S
C34 O30 1.278 . S
C34 O35 1.211 . S
O35 C34 1.211 . S
C36 O28 1.284 . S
C36 O37 1.273 . S
O37 C36 1.273 . S
O38 Zn29 1.977 . S
O38 C31 1.267 . S
C39 O40 1.160 . S
C39 O46 1.185 . S
O40 C39 1.160 . S
O41 Zn42 1.899 . S
O41 C49 1.284 . S
Zn42 O41 1.899 . S
Zn42 O43 2.032 . S
Zn42 O46 2.086 . S
Zn42 O51 1.977 . S
O43 Zn42 2.032 . S
O43 C47 1.278 . S
C44 O45 1.203 . S
C44 O51 1.267 . S
O45 C44 1.203 . S
O46 C39 1.185 . S
O46 Zn42 2.086 . S
C47 O43 1.278 . S
C47 O48 1.211 . S
O48 C47 1.211 . S
C49 O41 1.284 . S
C49 O50 1.273 . S
O50 C49 1.273 . S
O51 Zn42 1.977 . S
O51 C44 1.267 . S
C52 O53 1.160 . S
C52 O59 1.185 . S
O53 C52 1.160 . S
O54 Zn55 1.899 . S
O54 C62 1.284 . S
Zn55 O54 1.899 . S
Zn55 O56 2.032 1_545 S
Zn55 O59 2.086 1_545 S
Zn55 O64 1.977 . S
O56 Zn55 2.032 1_565 S
O56 C60 1.278 1_565 S
C57 O58 1.203 . S
C57 O64 1.267 . S
O58 C57 1.203 . S
O59 C52 1.185 . S
O59 Zn55 2.086 1_565 S
C60 O56 1.278 1_545 S
C60 O61 1.211 . S
O61 C60 1.211 . S
C62 O54 1.284 . S
C62 O63 1.273 . S
O63 C62 1.273 . S
O64 Zn55 1.977 . S
O64 C57 1.267 . S
C65 O66 1.160 . S
C65 O72 1.185 . S
O66 C65 1.160 . S
O67 Zn68 1.899 . S
O67 C75 1.284 . S
Zn68 O67 1.899 . S
Zn68 O69 2.032 . S
Zn68 O72 2.086 . S
Zn68 O77 1.977 . S
O69 Zn68 2.032 . S
O69 C73 1.278 . S
C70 O71 1.203 . S
C70 O77 1.267 . S
O71 C70 1.203 . S
O72 C65 1.185 . S
O72 Zn68 2.086 . S
C73 O69 1.278 . S
C73 O74 1.211 . S
O74 C73 1.211 . S
C75 O67 1.284 . S
C75 O76 1.273 . S
O76 C75 1.273 . S
O77 Zn68 1.977 . S
O77 C70 1.267 . S
C78 O79 1.160 . S
C78 O85 1.185 . S
O79 C78 1.160 . S
O80 Zn81 1.899 . S
O80 C88 1.284 . S
Zn81 O80 1.899 . S
Zn81 O82 2.032 . S
Zn81 O85 2.086 . S
Zn81 O90 1.977 . S
O82 Zn81 2.032 . S
O82 C86 1.278 . S
C83 O84 1.203 . S
C83 O90 1.267 . S
O84 C83 1.203 . S
O85 C78 1.185 . S
O85 Zn81 2.086 . S
C86 O82 1.278 . S
C86 O87 1.211 . S
O87 C86 1.211 . S
C88 O80 1.284 . S
C88 O89 1.273 . S
O89 C88 1.273 . S
O90 Zn81 1.977 . S
O90 C83 1.267 . S
C91 O92 1.160 . S
C91 O98 1.185 . S
O92 C91 1.160 . S
O93 Zn94 1.899 . S
O93 C101 1.284 . S
Zn94 O93 1.899 . S
Zn94 O95 2.032 . S
Zn94 O98 2.086 . S
Zn94 O103 1.977 . S
O95 Zn94 2.032 . S
O95 C99 1.278 1_554 S
C96 O97 1.203 . S
C96 O103 1.267 . S
O97 C96 1.203 . S
O98 C91 1.185 . S
O98 Zn94 2.086 . S
C99 O95 1.278 1_556 S
C99 O100 1.211 . S
O100 C99 1.211 . S
C101 O93 1.284 . S
C101 O102 1.273 . S
O102 C101 1.273 . S
O103 Zn94 1.977 . S
O103 C96 1.267 . S
C104 O105 1.160 . S
C104 O111 1.185 . S
O105 C104 1.160 . S
O106 Zn107 1.899 . S
O106 C114 1.284 . S
Zn107 O106 1.899 . S
Zn107 O108 2.032 . S
Zn107 O111 2.086 . S
Zn107 O116 1.977 . S
O108 Zn107 2.032 . S
O108 C112 1.278 . S
C109 O110 1.203 . S
C109 O116 1.267 . S
O110 C109 1.203 . S
O111 C104 1.185 . S
O111 Zn107 2.086 . S
C112 O108 1.278 . S
C112 O113 1.211 . S
O113 C112 1.211 . S
C114 O106 1.284 . S
C114 O115 1.273 . S
O115 C114 1.273 . S
O116 Zn107 1.977 . S
O116 C109 1.267 . S
C117 O118 1.160 . S
C117 O124 1.185 . S
O118 C117 1.160 . S
O119 Zn120 1.899 . S
O119 C127 1.284 . S
Zn120 O119 1.899 . S
Zn120 O121 2.032 . S
Zn120 O124 2.086 . S
Zn120 O129 1.977 . S
O121 Zn120 2.032 . S
O121 C125 1.278 . S
C122 O123 1.203 . S
C122 O129 1.267 . S
O123 C122 1.203 . S
O124 C117 1.185 . S
O124 Zn120 2.086 . S
C125 O121 1.278 . S
C125 O126 1.211 . S
O126 C125 1.211 . S
C127 O119 1.284 . S
C127 O128 1.273 . S
O128 C127 1.273 . S
O129 Zn120 1.977 . S
O129 C122 1.267 . S
C130 O131 1.160 . S
C130 O137 1.185 . S
O131 C130 1.160 . S
O132 Zn133 1.899 . S
O132 C140 1.284 . S
Zn133 O132 1.899 . S
Zn133 O134 2.032 . S
Zn133 O137 2.086 . S
Zn133 O142 1.977 . S
O134 Zn133 2.032 . S
O134 C138 1.278 . S
C135 O136 1.203 . S
C135 O142 1.267 . S
O136 C135 1.203 . S
O137 C130 1.185 . S
O137 Zn133 2.086 . S
C138 O134 1.278 . S
C138 O139 1.211 . S
O139 C138 1.211 . S
C140 O132 1.284 . S
C140 O141 1.273 . S
O141 C140 1.273 . S
O142 Zn133 1.977 . S
O142 C135 1.267 . S
C143 O144 1.160 . S
C143 O150 1.185 . S
O144 C143 1.160 . S
O145 Zn146 1.899 . S
O145 C153 1.284 . S
Zn146 O145 1.899 . S
Zn146 O147 2.032 . S
Zn146 O150 2.086 . S
Zn146 O155 1.977 . S
O147 Zn146 2.032 . S
O147 C151 1.278 . S
C148 O149 1.203 . S
C148 O155 1.267 . S
O149 C148 1.203 . S
O150 C143 1.185 . S
O150 Zn146 2.086 . S
C151 O147 1.278 . S
C151 O152 1.211 . S
O152 C151 1.211 . S
C153 O145 1.284 . S
C153 O154 1.273 . S
O154 C153 1.273 . S
O155 Zn146 1.977 . S
O155 C148 1.267 . S
C156 O157 1.160 . S
C156 O163 1.185 . S
O157 C156 1.160 . S
O158 Zn159 1.899 . S
O158 C166 1.284 . S
Zn159 O158 1.899 . S
Zn159 O160 2.032 . S
Zn159 O163 2.086 . S
Zn159 O168 1.977 1_455 S
O160 Zn159 2.032 . S
O160 C164 1.278 . S
C161 O162 1.203 . S
C161 O168 1.267 . S
O162 C161 1.203 . S
O163 C156 1.185 . S
O163 Zn159 2.086 . S
C164 O160 1.278 . S
C164 O165 1.211 1_455 S
O165 C164 1.211 1_655 S
C166 O158 1.284 . S
C166 O167 1.273 . S
O167 C166 1.273 . S
O168 Zn159 1.977 1_655 S
O168 C161 1.267 . S
C169 O170 1.160 . S
C169 O176 1.185 . S
O170 C169 1.160 . S
O171 Zn172 1.899 . S
O171 C179 1.284 1_655 S
Zn172 O171 1.899 . S
Zn172 O173 2.032 . S
Zn172 O176 2.086 . S
Zn172 O181 1.977 1_655 S
O173 Zn172 2.032 . S
O173 C177 1.278 1_655 S
C174 O175 1.203 . S
C174 O181 1.267 . S
O175 C174 1.203 . S
O176 C169 1.185 . S
O176 Zn172 2.086 . S
C177 O173 1.278 1_455 S
C177 O178 1.211 . S
O178 C177 1.211 . S
C179 O171 1.284 1_455 S
C179 O180 1.273 . S
O180 C179 1.273 . S
O181 Zn172 1.977 1_455 S
O181 C174 1.267 . S
C182 O183 1.160 . S
C182 O189 1.185 . S
O183 C182 1.160 . S
O184 Zn185 1.899 . S
O184 C192 1.284 . S
Zn185 O184 1.899 . S
Zn185 O186 2.032 . S
Zn185 O189 2.086 . S
Zn185 O194 1.977 . S
O186 Zn185 2.032 . S
O186 C190 1.278 . S
C187 O188 1.203 . S
C187 O194 1.267 . S
O188 C187 1.203 . S
O189 C182 1.185 . S
O189 Zn185 2.086 . S
C190 O186 1.278 . S
C190 O191 1.211 . S
O191 C190 1.211 . S
C192 O184 1.284 . S
C192 O193 1.273 . S
O193 C192 1.273 . S
O194 Zn185 1.977 . S
O194 C187 1.267 . S
C195 O196 1.160 . S
C195 O202 1.185 . S
O196 C195 1.160 . S
O197 Zn198 1.899 . S
O197 C205 1.284 . S
Zn198 O197 1.899 . S
Zn198 O199 2.032 . S
Zn198 O202 2.086 . S
Zn198 O207 1.977 . S
O199 Zn198 2.032 . S
O199 C203 1.278 . S
C200 O201 1.203 . S
C200 O207 1.267 . S
O201 C200 1.203 . S
O202 C195 1.185 . S
O202 Zn198 2.086 . S
C203 O199 1.278 . S
C203 O204 1.211 . S
O204 C203 1.211 . S
C205 O197 1.284 . S
C205 O206 1.273 . S
O206 C205 1.273 . S
O207 Zn198 1.977 . S
O207 C200 1.267 . S
C208 O209 1.160 . S
C208 O215 1.185 . S
O209 C208 1.160 . S
O210 Zn211 1.899 . S
O210 C218 1.284 . S
Zn211 O210 1.899 . S
Zn211 O212 2.032 . S
Zn211 O215 2.086 . S
Zn211 O220 1.977 . S
O212 Zn211 2.032 . S
O212 C216 1.278 . S
C213 O214 1.203 . S
C213 O220 1.267 . S
O214 C213 1.203 . S
O215 C208 1.185 . S
O215 Zn211 2.086 . S
C216 O212 1.278 . S
C216 O217 1.211 . S
O217 C216 1.211 . S
C218 O210 1.284 . S
C218 O219 1.273 . S
O219 C218 1.273 . S
O220 Zn211 1.977 . S
O220 C213 1.267 . S
C221 O222 1.160 . S
C221 O228 1.185 . S
O222 C221 1.160 . S
O223 Zn224 1.899 . S
O223 C231 1.284 . S
Zn224 O223 1.899 . S
Zn224 O225 2.032 . S
Zn224 O228 2.086 . S
Zn224 O233 1.977 . S
O225 Zn224 2.032 . S
O225 C229 1.278 . S
C226 O227 1.203 . S
C226 O233 1.267 . S
O227 C226 1.203 . S
O228 C221 1.185 . S
O228 Zn224 2.086 . S
C229 O225 1.278 . S
C229 O230 1.211 . S
O230 C229 1.211 . S
C231 O223 1.284 . S
C231 O232 1.273 . S
O232 C231 1.273 . S
O233 Zn224 1.977 . S
O233 C226 1.267 . S
C234 O235 1.160 . S
C234 O241 1.185 . S
O235 C234 1.160 . S
O236 Zn237 1.899 . S
O236 C244 1.284 . S
Zn237 O236 1.899 . S
Zn237 O238 2.032 1_545 S
Zn237 O241 2.086 1_545 S
Zn237 O246 1.977 . S
O238 Zn237 2.032 1_565 S
O238 C242 1.278 1_565 S
C239 O240 1.203 . S
C239 O246 1.267 . S
O240 C239 1.203 . S
O241 C234 1.185 . S
O241 Zn237 2.086 1_565 S
C242 O238 1.278 1_545 S
C242 O243 1.211 . S
O243 C242 1.211 . S
C244 O236 1.284 . S
C244 O245 1.273 . S
O245 C244 1.273 . S
O246 Zn237 1.977 . S
O246 C239 1.267 . S
C247 O248 1.160 . S
C247 O254 1.185 . S
O248 C247 1.160 . S
O249 Zn250 1.899 . S
O249 C257 1.284 . S
Zn250 O249 1.899 . S
Zn250 O251 2.032 1_554 S
Zn250 O254 2.086 . S
Zn250 O259 1.977 . S
O251 Zn250 2.032 1_556 S
O251 C255 1.278 . S
C252 O253 1.203 . S
C252 O259 1.267 . S
O253 C252 1.203 . S
O254 C247 1.185 . S
O254 Zn250 2.086 . S
C255 O251 1.278 . S
C255 O256 1.211 . S
O256 C255 1.211 . S
C257 O249 1.284 . S
C257 O258 1.273 . S
O258 C257 1.273 . S
O259 Zn250 1.977 . S
O259 C252 1.267 . S
C260 O261 1.160 . S
C260 O267 1.185 1_554 S
O261 C260 1.160 . S
O262 Zn263 1.899 . S
O262 C270 1.284 . S
Zn263 O262 1.899 . S
Zn263 O264 2.032 1_554 S
Zn263 O267 2.086 1_554 S
Zn263 O272 1.977 1_554 S
O264 Zn263 2.032 1_556 S
O264 C268 1.278 . S
C265 O266 1.203 . S
C265 O272 1.267 1_554 S
O266 C265 1.203 . S
O267 C260 1.185 1_556 S
O267 Zn263 2.086 1_556 S
C268 O264 1.278 . S
C268 O269 1.211 . S
O269 C268 1.211 . S
C270 O262 1.284 . S
C270 O271 1.273 . S
O271 C270 1.273 . S
O272 Zn263 1.977 1_556 S
O272 C265 1.267 1_556 S
C273 O274 1.160 . S
C273 O280 1.185 . S
O274 C273 1.160 . S
O275 Zn276 1.899 . S
O275 C283 1.284 . S
Zn276 O275 1.899 . S
Zn276 O277 2.032 . S
Zn276 O280 2.086 . S
Zn276 O285 1.977 . S
O277 Zn276 2.032 . S
O277 C281 1.278 . S
C278 O279 1.203 . S
C278 O285 1.267 . S
O279 C278 1.203 . S
O280 C273 1.185 . S
O280 Zn276 2.086 . S
C281 O277 1.278 . S
C281 O282 1.211 . S
O282 C281 1.211 . S
C283 O275 1.284 . S
C283 O284 1.273 . S
O284 C283 1.273 . S
O285 Zn276 1.977 . S
O285 C278 1.267 . S
C286 O287 1.160 . S
C286 O293 1.185 . S
O287 C286 1.160 . S
O288 Zn289 1.899 . S
O288 C296 1.284 . S
Zn289 O288 1.899 . S
Zn289 O290 2.032 . S
Zn289 O293 2.086 . S
Zn289 O298 1.977 . S
O290 Zn289 2.032 . S
O290 C294 1.278 . S
C291 O292 1.203 . S
C291 O298 1.267 . S
O292 C291 1.203 . S
O293 C286 1.185 . S
O293 Zn289 2.086 . S
C294 O290 1.278 . S
C294 O295 1.211 . S
O295 C294 1.211 . S
C296 O288 1.284 . S
C296 O297 1.273 . S
O297 C296 1.273 . S
O298 Zn289 1.977 . S
O298 C291 1.267 . S
C299 O300 1.160 . S
C299 O306 1.185 . S
O300 C299 1.160 . S
O301 Zn302 1.899 . S
O301 C309 1.284 . S
Zn302 O301 1.899 . S
Zn302 O303 2.032 . S
Zn302 O306 2.086 . S
Zn302 O311 1.977 . S
O303 Zn302 2.032 . S
O303 C307 1.278 . S
C304 O305 1.203 . S
C304 O311 1.267 . S
O305 C304 1.203 . S
O306 C299 1.185 . S
O306 Zn302 2.086 . S
C307 O303 1.278 . S
C307 O308 1.211 . S
O308 C307 1.211 . S
C309 O301 1.284 . S
C309 O310 1.273 . S
O310 C309 1.273 . S
O311 Zn302 1.977 . S
O311 C304 1.267 . S
Co312 N317 2.057 1_554 S
Co312 O329 2.021 1_554 S
Co312 O332 2.062 1_455 S
Co312 O336 2.117 . S
Co312 O337 2.019 . S
C313 O333 1.259 . S
C313 O336 1.258 . S
Co314 N323 2.057 . S
Co314 O330 2.091 1_545 S
Co314 O331 2.020 1_455 S
Co314 O333 2.021 . S
Co314 O338 2.062 . S
C315 N317 1.312 1_655 S
C315 N318 1.354 . S
C315 H320 0.928 1_655 S
C316 N317 1.375 1_655 S
C316 C319 1.350 . S
C316 H321 0.932 . S
N317 Co312 2.057 1_556 S
N317 C315 1.312 1_455 S
N317 C316 1.375 1_455 S
N318 C315 1.354 . S
N318 C319 1.373 . S
C319 C316 1.350 . S
C319 N318 1.373 . S
C319 H340 0.931 . S
H320 C315 0.928 1_455 S
H321 C316 0.932 . S
C322 O329 1.259 1_564 S
C322 O330 1.268 . S
N323 Co314 2.057 . S
N323 C324 1.316 . S
N323 C325 1.375 1_545 S
C324 N323 1.316 . S
C324 N326 1.347 . S
C324 H335 0.931 . S
C325 N323 1.375 1_565 S
C325 C327 1.350 . S
C325 H334 0.930 . S
N326 C324 1.347 . S
N326 C327 1.373 1_545 S
C327 C325 1.350 . S
C327 N326 1.373 1_565 S
C327 H341 0.931 . S
C328 O331 1.256 . S
C328 O332 1.255 . S
O329 Co312 2.021 1_556 S
O329 C322 1.259 1_546 S
O330 Co314 2.091 1_565 S
O330 C322 1.268 . S
O331 Co314 2.020 1_655 S
O331 C328 1.256 . S
O332 Co312 2.062 1_655 S
O332 C328 1.255 . S
O333 C313 1.259 . S
O333 Co314 2.021 . S
H334 C325 0.930 . S
H335 C324 0.931 . S
O336 Co312 2.117 . S
O336 C313 1.258 . S
O337 Co312 2.019 . S
O337 C339 1.278 . S
O338 Co314 2.062 . S
O338 C339 1.255 . S
C339 O337 1.278 . S
C339 O338 1.255 . S
H340 C319 0.931 . S
H341 C327 0.931 . S
Co342 N347 2.057 . S
Co342 O359 2.021 . S
Co342 O362 2.062 . S
Co342 O366 2.117 . S
Co342 O367 2.020 . S
C343 O363 1.259 . S
C343 O366 1.258 . S
Co344 N353 2.057 . S
Co344 O360 2.117 . S
Co344 O361 2.020 . S
Co344 O363 2.021 . S
Co344 O368 2.062 . S
C345 N347 1.316 . S
C345 N348 1.347 . S
C345 H350 0.931 . S
C346 N347 1.375 . S
C346 C349 1.350 . S
C346 H351 0.930 . S
N347 Co342 2.057 . S
N347 C345 1.316 . S
N347 C346 1.375 . S
N348 C345 1.347 . S
N348 C349 1.373 . S
C349 C346 1.350 . S
C349 N348 1.373 . S
C349 H370 0.931 . S
H350 C345 0.931 . S
H351 C346 0.930 . S
C352 O359 1.259 . S
C352 O360 1.258 . S
N353 Co344 2.057 . S
N353 C354 1.316 . S
N353 C355 1.375 . S
C354 N353 1.316 . S
C354 N356 1.347 . S
C354 H365 0.931 . S
C355 N353 1.375 . S
C355 C357 1.350 . S
C355 H364 0.930 . S
N356 C354 1.347 . S
N356 C357 1.373 . S
C357 C355 1.350 . S
C357 N356 1.373 . S
C357 H371 0.931 . S
C358 O361 1.256 . S
C358 O362 1.255 . S
O359 Co342 2.021 . S
O359 C352 1.259 . S
O360 Co344 2.117 . S
O360 C352 1.258 . S
O361 Co344 2.020 . S
O361 C358 1.256 . S
O362 Co342 2.062 . S
O362 C358 1.255 . S
O363 C343 1.259 . S
O363 Co344 2.021 . S
H364 C355 0.930 . S
H365 C354 0.931 . S
O366 Co342 2.117 . S
O366 C343 1.258 . S
O367 Co342 2.020 . S
O367 C369 1.256 . S
O368 Co344 2.062 . S
O368 C369 1.255 . S
C369 O367 1.256 . S
C369 O368 1.255 . S
H370 C349 0.931 . S
H371 C357 0.931 . S
Co372 N377 2.057 . S
Co372 O389 2.021 1_545 S
Co372 O392 2.062 . S
Co372 O396 2.117 . S
Co372 O397 2.020 . S
C373 O393 1.259 . S
C373 O396 1.258 . S
Co374 N383 2.057 . S
Co374 O390 2.117 . S
Co374 O391 2.020 . S
Co374 O393 2.021 . S
Co374 O398 2.062 . S
C375 N377 1.322 . S
C375 N378 1.348 . S
C375 H380 0.925 1_545 S
C376 N377 1.375 . S
C376 C379 1.350 . S
C376 H381 0.930 . S
N377 Co372 2.057 . S
N377 C375 1.322 . S
N377 C376 1.375 . S
N378 C375 1.348 . S
N378 C379 1.373 . S
C379 C376 1.350 . S
C379 N378 1.373 . S
C379 H400 0.931 . S
H380 C375 0.925 1_565 S
H381 C376 0.930 . S
C382 O389 1.259 . S
C382 O390 1.258 1_565 S
N383 Co374 2.057 . S
N383 C384 1.316 . S
N383 C385 1.375 . S
C384 N383 1.316 . S
C384 N386 1.347 . S
C384 H395 0.931 . S
C385 N383 1.375 . S
C385 C387 1.350 . S
C385 H394 0.930 . S
N386 C384 1.347 . S
N386 C387 1.373 . S
C387 C385 1.350 . S
C387 N386 1.373 . S
C387 H401 0.931 . S
C388 O391 1.256 . S
C388 O392 1.255 . S
O389 Co372 2.021 1_565 S
O389 C382 1.259 . S
O390 Co374 2.117 . S
O390 C382 1.258 1_545 S
O391 Co374 2.020 . S
O391 C388 1.256 . S
O392 Co372 2.062 . S
O392 C388 1.255 . S
O393 C373 1.259 . S
O393 Co374 2.021 . S
H394 C385 0.930 . S
H395 C384 0.931 . S
O396 Co372 2.117 . S
O396 C373 1.258 . S
O397 Co372 2.020 . S
O397 C399 1.256 . S
O398 Co374 2.062 . S
O398 C399 1.255 . S
C399 O397 1.256 . S
C399 O398 1.255 . S
H400 C379 0.931 . S
H401 C387 0.931 . S
Co402 N407 2.057 . S
Co402 O419 2.021 . S
Co402 O422 2.062 . S
Co402 O426 2.117 . S
Co402 O427 2.020 . S
C403 O423 1.259 . S
C403 O426 1.258 . S
Co404 N413 2.057 . S
Co404 O420 2.117 . S
Co404 O421 2.020 . S
Co404 O423 2.021 . S
Co404 O428 2.062 . S
C405 N407 1.316 . S
C405 N408 1.347 . S
C405 H410 0.931 . S
C406 N407 1.375 . S
C406 C409 1.350 . S
C406 H411 0.930 . S
N407 Co402 2.057 . S
N407 C405 1.316 . S
N407 C406 1.375 . S
N408 C405 1.347 . S
N408 C409 1.373 . S
C409 C406 1.350 . S
C409 N408 1.373 . S
C409 H430 0.931 . S
H410 C405 0.931 . S
H411 C406 0.930 . S
C412 O419 1.259 . S
C412 O420 1.258 . S
N413 Co404 2.057 . S
N413 C414 1.316 . S
N413 C415 1.375 . S
C414 N413 1.316 . S
C414 N416 1.347 . S
C414 H425 0.931 . S
C415 N413 1.375 . S
C415 C417 1.350 . S
C415 H424 0.930 . S
N416 C414 1.347 . S
N416 C417 1.373 . S
C417 C415 1.350 . S
C417 N416 1.373 . S
C417 H431 0.931 . S
C418 O421 1.256 . S
C418 O422 1.255 . S
O419 Co402 2.021 . S
O419 C412 1.259 . S
O420 Co404 2.117 . S
O420 C412 1.258 . S
O421 Co404 2.020 . S
O421 C418 1.256 . S
O422 Co402 2.062 . S
O422 C418 1.255 . S
O423 C403 1.259 . S
O423 Co404 2.021 . S
H424 C415 0.930 . S
H425 C414 0.931 . S
O426 Co402 2.117 . S
O426 C403 1.258 . S
O427 Co402 2.020 . S
O427 C429 1.256 . S
O428 Co404 2.062 . S
O428 C429 1.255 . S
C429 O427 1.256 . S
C429 O428 1.255 . S
H430 C409 0.931 . S
H431 C417 0.931 . S
Co432 N437 2.057 1_545 S
Co432 O449 2.021 . S
Co432 O452 2.062 . S
Co432 O456 2.117 . S
Co432 O457 2.020 1_455 S
C433 O453 1.259 . S
C433 O456 1.258 . S
Co434 N443 2.057 . S
Co434 O450 2.117 . S
Co434 O451 2.020 . S
Co434 O453 2.021 . S
Co434 O458 2.062 1_455 S
C435 N437 1.316 . S
C435 N438 1.347 . S
C435 H440 0.931 . S
C436 N437 1.375 1_655 S
C436 C439 1.350 . S
C436 H441 0.930 . S
N437 Co432 2.057 1_565 S
N437 C435 1.316 . S
N437 C436 1.375 1_455 S
N438 C435 1.347 . S
N438 C439 1.373 1_455 S
C439 C436 1.350 . S
C439 N438 1.373 1_655 S
C439 H460 0.931 . S
H440 C435 0.931 . S
H441 C436 0.930 . S
C442 O449 1.259 . S
C442 O450 1.258 . S
N443 Co434 2.057 . S
N443 C444 1.316 . S
N443 C445 1.375 . S
C444 N443 1.316 . S
C444 N446 1.347 . S
C444 H455 0.931 . S
C445 N443 1.375 . S
C445 C447 1.350 . S
C445 H454 0.930 . S
N446 C444 1.347 . S
N446 C447 1.373 . S
C447 C445 1.350 . S
C447 N446 1.373 . S
C447 H461 0.931 . S
C448 O451 1.256 . S
C448 O452 1.255 . S
O449 Co432 2.021 . S
O449 C442 1.259 . S
O450 Co434 2.117 . S
O450 C442 1.258 . S
O451 Co434 2.020 . S
O451 C448 1.256 . S
O452 Co432 2.062 . S
O452 C448 1.255 . S
O453 C433 1.259 . S
O453 Co434 2.021 . S
H454 C445 0.930 . S
H455 C444 0.931 . S
O456 Co432 2.117 . S
O456 C433 1.258 . S
O457 Co432 2.020 1_655 S
O457 C459 1.256 . S
O458 Co434 2.062 1_655 S
O458 C459 1.255 . S
C459 O457 1.256 . S
C459 O458 1.255 . S
H460 C439 0.931 . S
H461 C447 0.931 . S
Co462 N467 2.057 . S
Co462 O479 2.021 . S
Co462 O482 2.062 . S
Co462 O486 2.117 . S
Co462 O487 2.020 . S
C463 O483 1.259 . S
C463 O486 1.258 . S
Co464 N473 2.057 . S
Co464 O480 2.117 . S
Co464 O481 2.020 . S
Co464 O483 2.021 . S
Co464 O488 2.062 . S
C465 N467 1.316 . S
C465 N468 1.347 . S
C465 H470 0.931 . S
C466 N467 1.375 . S
C466 C469 1.350 . S
C466 H471 0.930 . S
N467 Co462 2.057 . S
N467 C465 1.316 . S
N467 C466 1.375 . S
N468 C465 1.347 . S
N468 C469 1.373 . S
C469 C466 1.350 . S
C469 N468 1.373 . S
C469 H490 0.931 . S
H470 C465 0.931 . S
H471 C466 0.930 . S
C472 O479 1.259 . S
C472 O480 1.258 . S
N473 Co464 2.057 . S
N473 C474 1.316 . S
N473 C475 1.375 . S
C474 N473 1.316 . S
C474 N476 1.347 . S
C474 H485 0.931 . S
C475 N473 1.375 . S
C475 C477 1.350 . S
C475 H484 0.930 . S
N476 C474 1.347 . S
N476 C477 1.373 . S
C477 C475 1.350 . S
C477 N476 1.373 . S
C477 H491 0.931 . S
C478 O481 1.256 . S
C478 O482 1.255 . S
O479 Co462 2.021 . S
O479 C472 1.259 . S
O480 Co464 2.117 . S
O480 C472 1.258 . S
O481 Co464 2.020 . S
O481 C478 1.256 . S
O482 Co462 2.062 . S
O482 C478 1.255 . S
O483 C463 1.259 . S
O483 Co464 2.021 . S
H484 C475 0.930 . S
H485 C474 0.931 . S
O486 Co462 2.117 . S
O486 C463 1.258 . S
O487 Co462 2.020 . S
O487 C489 1.256 . S
O488 Co464 2.062 . S
O488 C489 1.255 . S
C489 O487 1.256 . S
C489 O488 1.255 . S
H490 C469 0.931 . S
H491 C477 0.931 . S
Co492 N497 2.057 1_554 S
Co492 O509 2.021 . S
Co492 O512 2.062 1_554 S
Co492 O516 2.117 . S
Co492 O517 2.020 1_545 S
C493 O513 1.259 . S
C493 O516 1.258 . S
Co494 N503 2.057 . S
Co494 O510 2.117 . S
Co494 O511 2.020 . S
Co494 O513 2.021 . S
Co494 O518 2.062 . S
C495 N497 1.316 . S
C495 N498 1.347 . S
C495 H500 0.931 . S
C496 N497 1.375 . S
C496 C499 1.350 . S
C496 H501 0.930 . S
N497 Co492 2.057 1_556 S
N497 C495 1.316 . S
N497 C496 1.375 . S
N498 C495 1.347 . S
N498 C499 1.373 . S
C499 C496 1.350 . S
C499 N498 1.373 . S
C499 H520 0.931 . S
H500 C495 0.931 . S
H501 C496 0.930 . S
C502 O509 1.259 . S
C502 O510 1.258 . S
N503 Co494 2.057 . S
N503 C504 1.316 . S
N503 C505 1.375 . S
C504 N503 1.316 . S
C504 N506 1.347 . S
C504 H515 0.931 . S
C505 N503 1.375 . S
C505 C507 1.350 . S
C505 H514 0.930 . S
N506 C504 1.347 . S
N506 C507 1.373 . S
C507 C505 1.350 . S
C507 N506 1.373 . S
C507 H521 0.931 . S
C508 O511 1.256 . S
C508 O512 1.255 1_554 S
O509 Co492 2.021 . S
O509 C502 1.259 . S
O510 Co494 2.117 . S
O510 C502 1.258 . S
O511 Co494 2.020 . S
O511 C508 1.256 . S
O512 Co492 2.062 1_556 S
O512 C508 1.255 1_556 S
O513 C493 1.259 . S
O513 Co494 2.021 . S
H514 C505 0.930 . S
H515 C504 0.931 . S
O516 Co492 2.117 . S
O516 C493 1.258 . S
O517 Co492 2.020 1_565 S
O517 C519 1.256 . S
O518 Co494 2.062 . S
O518 C519 1.255 1_545 S
C519 O517 1.256 . S
C519 O518 1.255 1_565 S
H520 C499 0.931 . S
H521 C507 0.931 . S
Co522 N527 2.057 . S
Co522 O539 2.021 . S
Co522 O542 2.062 . S
Co522 O546 2.117 . S
Co522 O547 2.020 . S
C523 O543 1.259 . S
C523 O546 1.258 . S
Co524 N533 2.057 . S
Co524 O540 2.117 . S
Co524 O541 2.020 . S
Co524 O543 2.021 . S
Co524 O548 2.062 . S
C525 N527 1.316 . S
C525 N528 1.347 . S
C525 H530 0.931 . S
C526 N527 1.375 . S
C526 C529 1.350 . S
C526 H531 0.930 . S
N527 Co522 2.057 . S
N527 C525 1.316 . S
N527 C526 1.375 . S
N528 C525 1.347 . S
N528 C529 1.373 . S
C529 C526 1.350 . S
C529 N528 1.373 . S
C529 H550 0.931 . S
H530 C525 0.931 . S
H531 C526 0.930 . S
C532 O539 1.259 . S
C532 O540 1.258 . S
N533 Co524 2.057 . S
N533 C534 1.316 . S
N533 C535 1.375 . S
C534 N533 1.316 . S
C534 N536 1.347 . S
C534 H545 0.931 . S
C535 N533 1.375 . S
C535 C537 1.350 . S
C535 H544 0.930 . S
N536 C534 1.347 . S
N536 C537 1.373 . S
C537 C535 1.350 . S
C537 N536 1.373 . S
C537 H551 0.931 . S
C538 O541 1.256 . S
C538 O542 1.255 . S
O539 Co522 2.021 . S
O539 C532 1.259 . S
O540 Co524 2.117 . S
O540 C532 1.258 . S
O541 Co524 2.020 . S
O541 C538 1.256 . S
O542 Co522 2.062 . S
O542 C538 1.255 . S
O543 C523 1.259 . S
O543 Co524 2.021 . S
H544 C535 0.930 . S
H545 C534 0.931 . S
O546 Co522 2.117 . S
O546 C523 1.258 . S
O547 Co522 2.020 . S
O547 C549 1.256 . S
O548 Co524 2.062 . S
O548 C549 1.255 . S
C549 O547 1.256 . S
C549 O548 1.255 . S
H550 C529 0.931 . S
H551 C537 0.931 . S
Co552 N557 2.057 . S
Co552 O569 2.021 1_554 S
Co552 O572 2.062 . S
Co552 O576 2.117 . S
Co552 O577 2.020 . S
C553 O573 1.259 . S
C553 O576 1.258 . S
Co554 N563 2.057 . S
Co554 O570 2.117 1_554 S
Co554 O571 2.020 . S
Co554 O573 2.021 . S
Co554 O578 2.062 . S
C555 N557 1.316 1_556 S
C555 N558 1.352 . S
C555 H560 0.931 . S
C556 N557 1.375 . S
C556 C559 1.350 . S
C556 H561 0.930 . S
N557 Co552 2.057 . S
N557 C555 1.316 1_554 S
N557 C556 1.375 . S
N558 C555 1.352 . S
N558 C559 1.348 1_556 S
C559 C556 1.350 . S
C559 N558 1.348 1_554 S
C559 H580 0.931 . S
H560 C555 0.931 . S
H561 C556 0.930 . S
C562 O569 1.259 . S
C562 O570 1.258 . S
N563 Co554 2.057 . S
N563 C564 1.316 . S
N563 C565 1.375 . S
C564 N563 1.316 . S
C564 N566 1.347 . S
C564 H575 0.931 . S
C565 N563 1.375 . S
C565 C567 1.350 . S
C565 H574 0.930 . S
N566 C564 1.347 . S
N566 C567 1.373 . S
C567 C565 1.350 . S
C567 N566 1.373 . S
C567 H581 0.931 . S
C568 O571 1.256 . S
C568 O572 1.255 . S
O569 Co552 2.021 1_556 S
O569 C562 1.259 . S
O570 Co554 2.117 1_556 S
O570 C562 1.258 . S
O571 Co554 2.020 . S
O571 C568 1.256 . S
O572 Co552 2.062 . S
O572 C568 1.255 . S
O573 C553 1.259 . S
O573 Co554 2.021 . S
H574 C565 0.930 . S
H575 C564 0.931 . S
O576 Co552 2.117 . S
O576 C553 1.258 . S
O577 Co552 2.020 . S
O577 C579 1.256 . S
O578 Co554 2.062 . S
O578 C579 1.255 . S
C579 O577 1.256 . S
C579 O578 1.255 . S
H580 C559 0.931 . S
H581 C567 0.931 . S
Co582 N587 2.057 . S
Co582 O599 2.021 . S
Co582 O602 2.062 . S
Co582 O606 2.117 . S
Co582 O607 2.020 . S
C583 O603 1.259 . S
C583 O606 1.258 . S
Co584 N593 2.057 . S
Co584 O600 2.117 . S
Co584 O601 2.020 . S
Co584 O603 2.021 . S
Co584 O608 2.062 . S
C585 N587 1.316 . S
C585 N588 1.347 . S
C585 H590 0.931 . S
C586 N587 1.375 . S
C586 C589 1.350 . S
C586 H591 0.930 . S
N587 Co582 2.057 . S
N587 C585 1.316 . S
N587 C586 1.375 . S
N588 C585 1.347 . S
N588 C589 1.373 . S
C589 C586 1.350 . S
C589 N588 1.373 . S
C589 H610 0.931 . S
H590 C585 0.931 . S
H591 C586 0.930 . S
C592 O599 1.259 . S
C592 O600 1.258 . S
N593 Co584 2.057 . S
N593 C594 1.316 . S
N593 C595 1.375 . S
C594 N593 1.316 . S
C594 N596 1.347 . S
C594 H605 0.931 . S
C595 N593 1.375 . S
C595 C597 1.350 . S
C595 H604 0.930 . S
N596 C594 1.347 . S
N596 C597 1.373 . S
C597 C595 1.350 . S
C597 N596 1.373 . S
C597 H611 0.931 . S
C598 O601 1.256 . S
C598 O602 1.255 . S
O599 Co582 2.021 . S
O599 C592 1.259 . S
O600 Co584 2.117 . S
O600 C592 1.258 . S
O601 Co584 2.020 . S
O601 C598 1.256 . S
O602 Co582 2.062 . S
O602 C598 1.255 . S
O603 C583 1.259 . S
O603 Co584 2.021 . S
H604 C595 0.930 . S
H605 C594 0.931 . S
O606 Co582 2.117 . S
O606 C583 1.258 . S
O607 Co582 2.020 . S
O607 C609 1.256 . S
O608 Co584 2.062 . S
O608 C609 1.255 . S
C609 O607 1.256 . S
C609 O608 1.255 . S
H610 C589 0.931 . S
H611 C597 0.931 . S
Co612 N617 2.057 . S
Co612 O629 2.021 1_455 S
Co612 O632 2.062 . S
Co612 O636 2.117 . S
Co612 O637 2.020 . S
C613 O633 1.259 . S
C613 O636 1.258 . S
Co614 N623 2.057 . S
Co614 O630 2.117 1_455 S
Co614 O631 2.020 . S
Co614 O633 2.021 . S
Co614 O638 2.062 . S
C615 N617 1.316 1_655 S
C615 N618 1.347 . S
C615 H620 0.931 . S
C616 N617 1.375 . S
C616 C619 1.350 . S
C616 H621 0.930 . S
N617 Co612 2.057 . S
N617 C615 1.316 1_455 S
N617 C616 1.375 . S
N618 C615 1.347 . S
N618 C619 1.373 1_655 S
C619 C616 1.350 . S
C619 N618 1.373 1_455 S
C619 H640 0.931 . S
H620 C615 0.931 . S
H621 C616 0.930 . S
C622 O629 1.259 . S
C622 O630 1.258 . S
N623 Co614 2.057 . S
N623 C624 1.316 . S
N623 C625 1.375 . S
C624 N623 1.316 . S
C624 N626 1.347 . S
C624 H635 0.931 . S
C625 N623 1.375 . S
C625 C627 1.350 . S
C625 H634 0.930 . S
N626 C624 1.347 . S
N626 C627 1.373 . S
C627 C625 1.350 . S
C627 N626 1.373 . S
C627 H641 0.931 . S
C628 O631 1.256 . S
C628 O632 1.255 . S
O629 Co612 2.021 1_655 S
O629 C622 1.259 . S
O630 Co614 2.117 1_655 S
O630 C622 1.258 . S
O631 Co614 2.020 . S
O631 C628 1.256 . S
O632 Co612 2.062 . S
O632 C628 1.255 . S
O633 C613 1.259 . S
O633 Co614 2.021 . S
H634 C625 0.930 . S
H635 C624 0.931 . S
O636 Co612 2.117 . S
O636 C613 1.258 . S
O637 Co612 2.020 . S
O637 C639 1.256 . S
O638 Co614 2.062 . S
O638 C639 1.255 . S
C639 O637 1.256 . S
C639 O638 1.255 . S
H640 C619 0.931 . S
H641 C627 0.931 . S
Co642 N647 2.057 . S
Co642 O659 2.021 . S
Co642 O662 2.062 . S
Co642 O666 2.117 . S
Co642 O667 2.020 . S
C643 O663 1.259 . S
C643 O666 1.258 . S
Co644 N653 2.057 . S
Co644 O660 2.117 . S
Co644 O661 2.020 . S
Co644 O663 2.021 . S
Co644 O668 2.062 . S
C645 N647 1.316 . S
C645 N648 1.347 . S
C645 H650 0.931 . S
C646 N647 1.375 . S
C646 C649 1.350 . S
C646 H651 0.930 . S
N647 Co642 2.057 . S
N647 C645 1.316 . S
N647 C646 1.375 . S
N648 C645 1.347 . S
N648 C649 1.373 . S
C649 C646 1.350 . S
C649 N648 1.373 . S
C649 H670 0.931 . S
H650 C645 0.931 . S
H651 C646 0.930 . S
C652 O659 1.259 . S
C652 O660 1.258 . S
N653 Co644 2.057 . S
N653 C654 1.316 . S
N653 C655 1.375 . S
C654 N653 1.316 . S
C654 N656 1.347 . S
C654 H665 0.931 . S
C655 N653 1.375 . S
C655 C657 1.350 . S
C655 H664 0.930 . S
N656 C654 1.347 . S
N656 C657 1.373 . S
C657 C655 1.350 . S
C657 N656 1.373 . S
C657 H671 0.931 . S
C658 O661 1.256 . S
C658 O662 1.255 . S
O659 Co642 2.021 . S
O659 C652 1.259 . S
O660 Co644 2.117 . S
O660 C652 1.258 . S
O661 Co644 2.020 . S
O661 C658 1.256 . S
O662 Co642 2.062 . S
O662 C658 1.255 . S
O663 C643 1.259 . S
O663 Co644 2.021 . S
H664 C655 0.930 . S
H665 C654 0.931 . S
O666 Co642 2.117 . S
O666 C643 1.258 . S
O667 Co642 2.020 . S
O667 C669 1.256 . S
O668 Co644 2.062 . S
O668 C669 1.255 . S
C669 O667 1.256 . S
C669 O668 1.255 . S
H670 C649 0.931 . S
H671 C657 0.931 . S
Co672 N677 2.057 . S
Co672 O689 2.021 . S
Co672 O692 2.062 . S
Co672 O696 2.117 . S
Co672 O697 2.020 . S
C673 O693 1.259 . S
C673 O696 1.258 . S
Co674 N683 2.057 . S
Co674 O690 2.117 . S
Co674 O691 2.020 . S
Co674 O693 2.021 . S
Co674 O698 2.062 . S
C675 N677 1.316 . S
C675 N678 1.347 . S
C675 H680 0.931 . S
C676 N677 1.375 . S
C676 C679 1.350 . S
C676 H681 0.930 . S
N677 Co672 2.057 . S
N677 C675 1.316 . S
N677 C676 1.375 . S
N678 C675 1.347 . S
N678 C679 1.373 . S
C679 C676 1.350 . S
C679 N678 1.373 . S
C679 H700 0.931 . S
H680 C675 0.931 . S
H681 C676 0.930 . S
C682 O689 1.259 . S
C682 O690 1.258 . S
N683 Co674 2.057 . S
N683 C684 1.316 . S
N683 C685 1.375 . S
C684 N683 1.316 . S
C684 N686 1.347 . S
C684 H695 0.931 . S
C685 N683 1.375 . S
C685 C687 1.350 . S
C685 H694 0.930 . S
N686 C684 1.347 . S
N686 C687 1.373 . S
C687 C685 1.350 . S
C687 N686 1.373 . S
C687 H701 0.931 . S
C688 O691 1.256 . S
C688 O692 1.255 . S
O689 Co672 2.021 . S
O689 C682 1.259 . S
O690 Co674 2.117 . S
O690 C682 1.258 . S
O691 Co674 2.020 . S
O691 C688 1.256 . S
O692 Co672 2.062 . S
O692 C688 1.255 . S
O693 C673 1.259 . S
O693 Co674 2.021 . S
H694 C685 0.930 . S
H695 C684 0.931 . S
O696 Co672 2.117 . S
O696 C673 1.258 . S
O697 Co672 2.020 . S
O697 C699 1.256 . S
O698 Co674 2.062 . S
O698 C699 1.255 . S
C699 O697 1.256 . S
C699 O698 1.255 . S
H700 C679 0.931 . S
H701 C687 0.931 . S
Co702 N707 2.057 . S
Co702 O719 2.021 . S
Co702 O722 2.062 . S
Co702 O726 2.117 . S
Co702 O727 2.020 . S
C703 O723 1.259 . S
C703 O726 1.258 . S
Co704 N713 2.057 . S
Co704 O720 2.117 . S
Co704 O721 2.020 . S
Co704 O723 2.021 . S
Co704 O728 2.062 . S
C705 N707 1.316 . S
C705 N708 1.347 . S
C705 H710 0.931 . S
C706 N707 1.375 . S
C706 C709 1.350 . S
C706 H711 0.930 . S
N707 Co702 2.057 . S
N707 C705 1.316 . S
N707 C706 1.375 . S
N708 C705 1.347 . S
N708 C709 1.373 . S
C709 C706 1.350 . S
C709 N708 1.373 . S
C709 H730 0.931 . S
H710 C705 0.931 . S
H711 C706 0.930 . S
C712 O719 1.259 . S
C712 O720 1.258 . S
N713 Co704 2.057 . S
N713 C714 1.316 . S
N713 C715 1.375 . S
C714 N713 1.316 . S
C714 N716 1.347 . S
C714 H725 0.931 . S
C715 N713 1.375 . S
C715 C717 1.350 . S
C715 H724 0.930 . S
N716 C714 1.347 . S
N716 C717 1.373 . S
C717 C715 1.350 . S
C717 N716 1.373 . S
C717 H731 0.931 . S
C718 O721 1.256 . S
C718 O722 1.255 . S
O719 Co702 2.021 . S
O719 C712 1.259 . S
O720 Co704 2.117 . S
O720 C712 1.258 . S
O721 Co704 2.020 . S
O721 C718 1.256 . S
O722 Co702 2.062 . S
O722 C718 1.255 . S
O723 C703 1.259 . S
O723 Co704 2.021 . S
H724 C715 0.930 . S
H725 C714 0.931 . S
O726 Co702 2.117 . S
O726 C703 1.258 . S
O727 Co702 2.020 . S
O727 C729 1.256 . S
O728 Co704 2.062 . S
O728 C729 1.255 . S
C729 O727 1.256 . S
C729 O728 1.255 . S
H730 C709 0.931 . S
H731 C717 0.931 . S
Co732 N737 2.057 . S
Co732 O749 2.021 . S
Co732 O752 2.062 . S
Co732 O756 2.117 . S
Co732 O757 2.020 . S
C733 O753 1.259 . S
C733 O756 1.258 . S
Co734 N743 2.057 . S
Co734 O750 2.117 . S
Co734 O751 2.020 . S
Co734 O753 2.021 . S
Co734 O758 2.062 . S
C735 N737 1.316 . S
C735 N738 1.347 . S
C735 H740 0.931 . S
C736 N737 1.375 . S
C736 C739 1.350 . S
C736 H741 0.930 . S
N737 Co732 2.057 . S
N737 C735 1.316 . S
N737 C736 1.375 . S
N738 C735 1.347 . S
N738 C739 1.373 . S
C739 C736 1.350 . S
C739 N738 1.373 . S
C739 H760 0.931 . S
H740 C735 0.931 . S
H741 C736 0.930 . S
C742 O749 1.259 . S
C742 O750 1.258 . S
N743 Co734 2.057 . S
N743 C744 1.316 . S
N743 C745 1.375 . S
C744 N743 1.316 . S
C744 N746 1.347 . S
C744 H755 0.931 . S
C745 N743 1.375 . S
C745 C747 1.350 . S
C745 H754 0.930 . S
N746 C744 1.347 . S
N746 C747 1.373 . S
C747 C745 1.350 . S
C747 N746 1.373 . S
C747 H761 0.931 . S
C748 O751 1.256 . S
C748 O752 1.255 . S
O749 Co732 2.021 . S
O749 C742 1.259 . S
O750 Co734 2.117 . S
O750 C742 1.258 . S
O751 Co734 2.020 . S
O751 C748 1.256 . S
O752 Co732 2.062 . S
O752 C748 1.255 . S
O753 C733 1.259 . S
O753 Co734 2.021 . S
H754 C745 0.930 . S
H755 C744 0.931 . S
O756 Co732 2.117 . S
O756 C733 1.258 . S
O757 Co732 2.020 . S
O757 C759 1.256 . S
O758 Co734 2.062 . S
O758 C759 1.255 . S
C759 O757 1.256 . S
C759 O758 1.255 . S
H760 C739 0.931 . S
H761 C747 0.931 . S
Co762 N767 2.057 1_455 S
Co762 O779 2.021 . S
Co762 O782 2.062 1_455 S
Co762 O786 2.117 . S
Co762 O787 2.020 1_554 S
C763 O783 1.259 . S
C763 O786 1.258 . S
Co764 N773 2.057 . S
Co764 O780 2.117 . S
Co764 O781 2.020 . S
Co764 O783 2.021 . S
Co764 O788 2.059 1_554 S
C765 N767 1.316 . S
C765 N768 1.347 . S
C765 H770 0.931 . S
C766 N767 1.372 1_556 S
C766 C769 1.349 . S
C766 H771 0.932 . S
N767 Co762 2.057 1_655 S
N767 C765 1.316 . S
N767 C766 1.372 1_554 S
N768 C765 1.347 . S
N768 C769 1.358 1_554 S
C769 C766 1.349 . S
C769 N768 1.358 1_556 S
C769 H790 0.946 . S
H770 C765 0.931 . S
H771 C766 0.932 . S
C772 O779 1.259 . S
C772 O780 1.258 . S
N773 Co764 2.057 . S
N773 C774 1.316 . S
N773 C775 1.375 . S
C774 N773 1.316 . S
C774 N776 1.347 . S
C774 H785 0.931 . S
C775 N773 1.375 . S
C775 C777 1.350 . S
C775 H784 0.930 . S
N776 C774 1.347 . S
N776 C777 1.373 . S
C777 C775 1.350 . S
C777 N776 1.373 . S
C777 H791 0.931 . S
C778 O781 1.256 . S
C778 O782 1.255 1_455 S
O779 Co762 2.021 . S
O779 C772 1.259 . S
O780 Co764 2.117 . S
O780 C772 1.258 . S
O781 Co764 2.020 . S
O781 C778 1.256 . S
O782 Co762 2.062 1_655 S
O782 C778 1.255 1_655 S
O783 C763 1.259 . S
O783 Co764 2.021 . S
H784 C775 0.930 . S
H785 C774 0.931 . S
O786 Co762 2.117 . S
O786 C763 1.258 . S
O787 Co762 2.020 1_556 S
O787 C789 1.256 . S
O788 Co764 2.059 1_556 S
O788 C789 1.256 . S
C789 O787 1.256 . S
C789 O788 1.256 . S
H790 C769 0.946 . S
H791 C777 0.931 . S
H792 C804 0.930 . S
H793 C806 0.930 . S
H794 C807 0.930 1_655 S
H795 C811 0.959 . S
H796 C811 0.959 . S
H797 C811 0.961 . S
H798 C812 0.960 . S
H799 C812 0.961 . S
H800 C812 0.959 . S
H801 C815 0.955 . S
H802 C816 0.932 1_655 S
H803 C818 0.930 . S
C804 H792 0.930 . S
C804 C805 1.399 . S
C804 C809 1.399 . S
C805 C804 1.399 . S
C805 C806 1.376 . S
C806 H793 0.930 . S
C806 C805 1.376 . S
C806 C807 1.388 . S
C807 H794 0.930 1_455 S
C807 C806 1.388 . S
C807 C808 1.390 . S
C808 C807 1.390 . S
C808 C809 1.394 . S
C808 C814 1.465 . S
C809 C804 1.399 . S
C809 C808 1.394 . S
C809 C810 1.516 . S
C810 C809 1.516 . S
C810 C811 1.502 . S
C810 C812 1.561 . S
C810 C813 1.526 . S
C811 H795 0.959 . S
C811 H796 0.959 . S
C811 H797 0.961 . S
C811 C810 1.502 . S
C812 H798 0.960 . S
C812 H799 0.961 . S
C812 H800 0.959 . S
C812 C810 1.561 . S
C813 C810 1.526 . S
C813 C814 1.396 . S
C813 C818 1.390 . S
C814 C808 1.465 . S
C814 C813 1.396 . S
C814 C815 1.375 1_455 S
C815 H801 0.955 . S
C815 C814 1.375 1_655 S
C815 C816 1.385 1_655 S
C816 H802 0.932 1_455 S
C816 C815 1.385 1_455 S
C816 C817 1.388 . S
C817 C816 1.388 . S
C817 C818 1.387 . S
C818 H803 0.930 . S
C818 C813 1.390 . S
C818 C817 1.387 . S
H819 C831 0.930 . S
H820 C833 0.930 . S
H821 C834 0.930 . S
H822 C838 0.959 . S
H823 C838 0.959 . S
H824 C838 0.961 . S
H825 C839 0.960 . S
H826 C839 0.961 . S
H827 C839 0.959 . S
H828 C842 0.929 . S
H829 C843 0.931 . S
H830 C845 0.930 . S
C831 H819 0.930 . S
C831 C832 1.399 . S
C831 C836 1.399 . S
C832 C831 1.399 . S
C832 C833 1.376 . S
C833 H820 0.930 . S
C833 C832 1.376 . S
C833 C834 1.388 . S
C834 H821 0.930 . S
C834 C833 1.388 . S
C834 C835 1.390 . S
C835 C834 1.390 . S
C835 C836 1.394 . S
C835 C841 1.465 . S
C836 C831 1.399 . S
C836 C835 1.394 . S
C836 C837 1.516 . S
C837 C836 1.516 . S
C837 C838 1.502 . S
C837 C839 1.561 . S
C837 C840 1.526 . S
C838 H822 0.959 . S
C838 H823 0.959 . S
C838 H824 0.961 . S
C838 C837 1.502 . S
C839 H825 0.960 . S
C839 H826 0.961 . S
C839 H827 0.959 . S
C839 C837 1.561 . S
C840 C837 1.526 . S
C840 C841 1.396 . S
C840 C845 1.390 . S
C841 C835 1.465 . S
C841 C840 1.396 . S
C841 C842 1.399 . S
C842 H828 0.929 . S
C842 C841 1.399 . S
C842 C843 1.385 . S
C843 H829 0.931 . S
C843 C842 1.385 . S
C843 C844 1.389 . S
C844 C843 1.389 . S
C844 C845 1.387 . S
C845 H830 0.930 . S
C845 C840 1.390 . S
C845 C844 1.387 . S
H846 C858 0.930 . S
H847 C860 0.930 . S
H848 C861 0.930 . S
H849 C865 0.959 . S
H850 C865 0.959 . S
H851 C865 0.961 . S
H852 C866 0.960 . S
H853 C866 0.961 . S
H854 C866 0.959 . S
H855 C869 0.929 . S
H856 C870 0.931 . S
H857 C872 0.930 . S
C858 H846 0.930 . S
C858 C859 1.399 . S
C858 C863 1.399 . S
C859 C858 1.399 . S
C859 C860 1.376 . S
C860 H847 0.930 . S
C860 C859 1.376 . S
C860 C861 1.388 . S
C861 H848 0.930 . S
C861 C860 1.388 . S
C861 C862 1.390 . S
C862 C861 1.390 . S
C862 C863 1.394 . S
C862 C868 1.465 . S
C863 C858 1.399 . S
C863 C862 1.394 . S
C863 C864 1.516 . S
C864 C863 1.516 . S
C864 C865 1.502 . S
C864 C866 1.561 . S
C864 C867 1.526 . S
C865 H849 0.959 . S
C865 H850 0.959 . S
C865 H851 0.961 . S
C865 C864 1.502 . S
C866 H852 0.960 . S
C866 H853 0.961 . S
C866 H854 0.959 . S
C866 C864 1.561 . S
C867 C864 1.526 . S
C867 C868 1.396 . S
C867 C872 1.390 . S
C868 C862 1.465 . S
C868 C867 1.396 . S
C868 C869 1.399 . S
C869 H855 0.929 . S
C869 C868 1.399 . S
C869 C870 1.385 . S
C870 H856 0.931 . S
C870 C869 1.385 . S
C870 C871 1.389 . S
C871 C870 1.389 . S
C871 C872 1.387 . S
C872 H857 0.930 . S
C872 C867 1.390 . S
C872 C871 1.387 . S
H873 C885 0.930 . S
H874 C887 0.930 . S
H875 C888 0.930 . S
H876 C892 0.959 . S
H877 C892 0.959 . S
H878 C892 0.961 . S
H879 C893 0.960 . S
H880 C893 0.961 . S
H881 C893 0.959 . S
H882 C896 0.929 . S
H883 C897 0.931 . S
H884 C899 0.930 . S
C885 H873 0.930 . S
C885 C886 1.399 . S
C885 C890 1.399 . S
C886 C885 1.399 . S
C886 C887 1.376 . S
C887 H874 0.930 . S
C887 C886 1.376 . S
C887 C888 1.388 . S
C888 H875 0.930 . S
C888 C887 1.388 . S
C888 C889 1.390 . S
C889 C888 1.390 . S
C889 C890 1.394 . S
C889 C895 1.465 . S
C890 C885 1.399 . S
C890 C889 1.394 . S
C890 C891 1.516 . S
C891 C890 1.516 . S
C891 C892 1.502 . S
C891 C893 1.561 . S
C891 C894 1.526 . S
C892 H876 0.959 . S
C892 H877 0.959 . S
C892 H878 0.961 . S
C892 C891 1.502 . S
C893 H879 0.960 . S
C893 H880 0.961 . S
C893 H881 0.959 . S
C893 C891 1.561 . S
C894 C891 1.526 . S
C894 C895 1.396 . S
C894 C899 1.390 . S
C895 C889 1.465 . S
C895 C894 1.396 . S
C895 C896 1.399 . S
C896 H882 0.929 . S
C896 C895 1.399 . S
C896 C897 1.385 . S
C897 H883 0.931 . S
C897 C896 1.385 . S
C897 C898 1.389 . S
C898 C897 1.389 . S
C898 C899 1.387 . S
C899 H884 0.930 . S
C899 C894 1.390 . S
C899 C898 1.387 . S
H900 C912 0.930 . S
H901 C914 0.930 . S
H902 C915 0.930 . S
H903 C919 0.959 1_655 S
H904 C919 0.959 1_655 S
H905 C919 0.961 . S
H906 C920 0.960 . S
H907 C920 0.961 . S
H908 C920 0.959 . S
H909 C923 0.929 . S
H910 C924 0.931 . S
H911 C926 0.930 . S
C912 H900 0.930 . S
C912 C913 1.399 . S
C912 C917 1.399 . S
C913 C912 1.399 . S
C913 C914 1.376 . S
C914 H901 0.930 . S
C914 C913 1.376 . S
C914 C915 1.388 . S
C915 H902 0.930 . S
C915 C914 1.388 . S
C915 C916 1.390 . S
C916 C915 1.390 . S
C916 C917 1.394 . S
C916 C922 1.465 . S
C917 C912 1.399 . S
C917 C916 1.394 . S
C917 C918 1.516 . S
C918 C917 1.516 . S
C918 C919 1.502 . S
C918 C920 1.561 . S
C918 C921 1.526 . S
C919 H903 0.959 1_455 S
C919 H904 0.959 1_455 S
C919 H905 0.961 . S
C919 C918 1.502 . S
C920 H906 0.960 . S
C920 H907 0.961 . S
C920 H908 0.959 . S
C920 C918 1.561 . S
C921 C918 1.526 . S
C921 C922 1.396 . S
C921 C926 1.390 . S
C922 C916 1.465 . S
C922 C921 1.396 . S
C922 C923 1.399 . S
C923 H909 0.929 . S
C923 C922 1.399 . S
C923 C924 1.385 . S
C924 H910 0.931 . S
C924 C923 1.385 . S
C924 C925 1.389 . S
C925 C924 1.389 . S
C925 C926 1.387 . S
C926 H911 0.930 . S
C926 C921 1.390 . S
C926 C925 1.387 . S
H927 C939 0.930 . S
H928 C941 0.930 . S
H929 C942 0.930 . S
H930 C946 0.959 . S
H931 C946 0.959 . S
H932 C946 0.961 . S
H933 C947 0.960 . S
H934 C947 0.961 . S
H935 C947 0.959 . S
H936 C950 0.929 . S
H937 C951 0.931 . S
H938 C953 0.930 . S
C939 H927 0.930 . S
C939 C940 1.399 . S
C939 C944 1.399 . S
C940 C939 1.399 . S
C940 C941 1.376 . S
C941 H928 0.930 . S
C941 C940 1.376 . S
C941 C942 1.388 . S
C942 H929 0.930 . S
C942 C941 1.388 . S
C942 C943 1.390 . S
C943 C942 1.390 . S
C943 C944 1.394 . S
C943 C949 1.465 . S
C944 C939 1.399 . S
C944 C943 1.394 . S
C944 C945 1.516 . S
C945 C944 1.516 . S
C945 C946 1.502 . S
C945 C947 1.561 . S
C945 C948 1.526 . S
C946 H930 0.959 . S
C946 H931 0.959 . S
C946 H932 0.961 . S
C946 C945 1.502 . S
C947 H933 0.960 . S
C947 H934 0.961 . S
C947 H935 0.959 . S
C947 C945 1.561 . S
C948 C945 1.526 . S
C948 C949 1.396 . S
C948 C953 1.390 . S
C949 C943 1.465 . S
C949 C948 1.396 . S
C949 C950 1.399 . S
C950 H936 0.929 . S
C950 C949 1.399 . S
C950 C951 1.385 . S
C951 H937 0.931 . S
C951 C950 1.385 . S
C951 C952 1.389 . S
C952 C951 1.389 . S
C952 C953 1.387 . S
C953 H938 0.930 . S
C953 C948 1.390 . S
C953 C952 1.387 . S
H954 C966 0.930 . S
H955 C968 0.930 . S
H956 C969 0.930 . S
H957 C973 0.959 . S
H958 C973 0.959 . S
H959 C973 0.961 . S
H960 C974 0.960 . S
H961 C974 0.961 . S
H962 C974 0.959 . S
H963 C977 0.929 . S
H964 C978 0.931 . S
H965 C980 0.930 . S
C966 H954 0.930 . S
C966 C967 1.399 . S
C966 C971 1.399 . S
C967 C966 1.399 . S
C967 C968 1.376 . S
C968 H955 0.930 . S
C968 C967 1.376 . S
C968 C969 1.388 . S
C969 H956 0.930 . S
C969 C968 1.388 . S
C969 C970 1.390 . S
C970 C969 1.390 . S
C970 C971 1.394 . S
C970 C976 1.465 . S
C971 C966 1.399 . S
C971 C970 1.394 . S
C971 C972 1.516 . S
C972 C971 1.516 . S
C972 C973 1.502 . S
C972 C974 1.561 . S
C972 C975 1.526 . S
C973 H957 0.959 . S
C973 H958 0.959 . S
C973 H959 0.961 . S
C973 C972 1.502 . S
C974 H960 0.960 . S
C974 H961 0.961 . S
C974 H962 0.959 . S
C974 C972 1.561 . S
C975 C972 1.526 . S
C975 C976 1.396 . S
C975 C980 1.390 . S
C976 C970 1.465 . S
C976 C975 1.396 . S
C976 C977 1.399 1_556 S
C977 H963 0.929 . S
C977 C976 1.399 1_554 S
C977 C978 1.385 . S
C978 H964 0.931 . S
C978 C977 1.385 . S
C978 C979 1.389 . S
C979 C978 1.389 . S
C979 C980 1.387 1_554 S
C980 H965 0.930 . S
C980 C975 1.390 . S
C980 C979 1.387 1_556 S
H981 C993 0.930 . S
H982 C995 0.930 . S
H983 C996 0.930 . S
H984 C1000 0.959 . S
H985 C1000 0.959 . S
H986 C1000 0.961 . S
H987 C1001 0.960 . S
H988 C1001 0.961 . S
H989 C1001 0.959 . S
H990 C1004 0.929 . S
H991 C1005 0.931 . S
H992 C1007 0.930 . S
C993 H981 0.930 . S
C993 C994 1.399 . S
C993 C998 1.399 . S
C994 C993 1.399 . S
C994 C995 1.376 . S
C995 H982 0.930 . S
C995 C994 1.376 . S
C995 C996 1.388 . S
C996 H983 0.930 . S
C996 C995 1.388 . S
C996 C997 1.390 . S
C997 C996 1.390 . S
C997 C998 1.394 . S
C997 C1003 1.465 . S
C998 C993 1.399 . S
C998 C997 1.394 . S
C998 C999 1.516 . S
C999 C998 1.516 . S
C999 C1000 1.502 . S
C999 C1001 1.561 . S
C999 C1002 1.526 . S
C1000 H984 0.959 . S
C1000 H985 0.959 . S
C1000 H986 0.961 . S
C1000 C999 1.502 . S
C1001 H987 0.960 . S
C1001 H988 0.961 . S
C1001 H989 0.959 . S
C1001 C999 1.561 . S
C1002 C999 1.526 . S
C1002 C1003 1.396 . S
C1002 C1007 1.390 . S
C1003 C997 1.465 . S
C1003 C1002 1.396 . S
C1003 C1004 1.399 . S
C1004 H990 0.929 . S
C1004 C1003 1.399 . S
C1004 C1005 1.385 . S
C1005 H991 0.931 . S
C1005 C1004 1.385 . S
C1005 C1006 1.389 . S
C1006 C1005 1.389 . S
C1006 C1007 1.387 . S
C1007 H992 0.930 . S
C1007 C1002 1.390 . S
C1007 C1006 1.387 . S
H1008 C1020 0.930 . S
H1009 C1022 0.930 . S
H1010 C1023 0.930 . S
H1011 C1027 0.959 . S
H1012 C1027 0.959 . S
H1013 C1027 0.961 . S
H1014 C1028 0.960 . S
H1015 C1028 0.961 . S
H1016 C1028 0.959 . S
H1017 C1031 0.929 . S
H1018 C1032 0.931 . S
H1019 C1034 0.930 . S
C1020 H1008 0.930 . S
C1020 C1021 1.399 1_565 S
C1020 C1025 1.402 . S
C1021 C1020 1.399 1_545 S
C1021 C1022 1.376 . S
C1022 H1009 0.930 . S
C1022 C1021 1.376 . S
C1022 C1023 1.388 . S
C1023 H1010 0.930 . S
C1023 C1022 1.388 . S
C1023 C1024 1.390 . S
C1024 C1023 1.390 . S
C1024 C1025 1.370 1_545 S
C1024 C1030 1.465 . S
C1025 C1020 1.402 . S
C1025 C1024 1.370 1_565 S
C1025 C1026 1.534 . S
C1026 C1025 1.534 . S
C1026 C1027 1.502 . S
C1026 C1028 1.561 . S
C1026 C1029 1.526 . S
C1027 H1011 0.959 . S
C1027 H1012 0.959 . S
C1027 H1013 0.961 . S
C1027 C1026 1.502 . S
C1028 H1014 0.960 . S
C1028 H1015 0.961 . S
C1028 H1016 0.959 . S
C1028 C1026 1.561 . S
C1029 C1026 1.526 . S
C1029 C1030 1.396 1_565 S
C1029 C1034 1.390 . S
C1030 C1024 1.465 . S
C1030 C1029 1.396 1_545 S
C1030 C1031 1.399 . S
C1031 H1017 0.929 . S
C1031 C1030 1.399 . S
C1031 C1032 1.385 . S
C1032 H1018 0.931 . S
C1032 C1031 1.385 . S
C1032 C1033 1.389 . S
C1033 C1032 1.389 . S
C1033 C1034 1.387 1_545 S
C1034 H1019 0.930 . S
C1034 C1029 1.390 . S
C1034 C1033 1.387 1_565 S
H1035 C1047 0.930 . S
H1036 C1049 0.930 . S
H1037 C1050 0.930 . S
H1038 C1054 0.959 . S
H1039 C1054 0.959 . S
H1040 C1054 0.961 . S
H1041 C1055 0.960 . S
H1042 C1055 0.961 . S
H1043 C1055 0.959 . S
H1044 C1058 0.929 . S
H1045 C1059 0.931 . S
H1046 C1061 0.930 . S
C1047 H1035 0.930 . S
C1047 C1048 1.399 . S
C1047 C1052 1.399 . S
C1048 C1047 1.399 . S
C1048 C1049 1.376 . S
C1049 H1036 0.930 . S
C1049 C1048 1.376 . S
C1049 C1050 1.388 . S
C1050 H1037 0.930 . S
C1050 C1049 1.388 . S
C1050 C1051 1.390 . S
C1051 C1050 1.390 . S
C1051 C1052 1.394 . S
C1051 C1057 1.465 . S
C1052 C1047 1.399 . S
C1052 C1051 1.394 . S
C1052 C1053 1.516 . S
C1053 C1052 1.516 . S
C1053 C1054 1.502 . S
C1053 C1055 1.561 . S
C1053 C1056 1.526 . S
C1054 H1038 0.959 . S
C1054 H1039 0.959 . S
C1054 H1040 0.961 . S
C1054 C1053 1.502 . S
C1055 H1041 0.960 . S
C1055 H1042 0.961 . S
C1055 H1043 0.959 . S
C1055 C1053 1.561 . S
C1056 C1053 1.526 . S
C1056 C1057 1.396 . S
C1056 C1061 1.390 . S
C1057 C1051 1.465 . S
C1057 C1056 1.396 . S
C1057 C1058 1.399 . S
C1058 H1044 0.929 . S
C1058 C1057 1.399 . S
C1058 C1059 1.385 . S
C1059 H1045 0.931 . S
C1059 C1058 1.385 . S
C1059 C1060 1.389 . S
C1060 C1059 1.389 . S
C1060 C1061 1.387 . S
C1061 H1046 0.930 . S
C1061 C1056 1.390 . S
C1061 C1060 1.387 . S
H1062 C1074 0.930 . S
H1063 C1076 0.930 . S
H1064 C1077 0.930 . S
H1065 C1081 0.959 . S
H1066 C1081 0.959 . S
H1067 C1081 0.961 . S
H1068 C1082 0.960 . S
H1069 C1082 0.961 . S
H1070 C1082 0.959 . S
H1071 C1085 0.929 . S
H1072 C1086 0.931 . S
H1073 C1088 0.930 . S
C1074 H1062 0.930 . S
C1074 C1075 1.399 . S
C1074 C1079 1.399 . S
C1075 C1074 1.399 . S
C1075 C1076 1.376 . S
C1076 H1063 0.930 . S
C1076 C1075 1.376 . S
C1076 C1077 1.388 . S
C1077 H1064 0.930 . S
C1077 C1076 1.388 . S
C1077 C1078 1.390 . S
C1078 C1077 1.390 . S
C1078 C1079 1.394 . S
C1078 C1084 1.465 . S
C1079 C1074 1.399 . S
C1079 C1078 1.394 . S
C1079 C1080 1.516 . S
C1080 C1079 1.516 . S
C1080 C1081 1.502 . S
C1080 C1082 1.561 . S
C1080 C1083 1.526 . S
C1081 H1065 0.959 . S
C1081 H1066 0.959 . S
C1081 H1067 0.961 . S
C1081 C1080 1.502 . S
C1082 H1068 0.960 . S
C1082 H1069 0.961 . S
C1082 H1070 0.959 . S
C1082 C1080 1.561 . S
C1083 C1080 1.526 . S
C1083 C1084 1.396 . S
C1083 C1088 1.390 . S
C1084 C1078 1.465 . S
C1084 C1083 1.396 . S
C1084 C1085 1.399 . S
C1085 H1071 0.929 . S
C1085 C1084 1.399 . S
C1085 C1086 1.385 . S
C1086 H1072 0.931 . S
C1086 C1085 1.385 . S
C1086 C1087 1.389 . S
C1087 C1086 1.389 . S
C1087 C1088 1.387 . S
C1088 H1073 0.930 . S
C1088 C1083 1.390 . S
C1088 C1087 1.387 . S
H1089 C1101 0.930 . S
H1090 C1103 0.930 . S
H1091 C1104 0.930 . S
H1092 C1108 0.959 . S
H1093 C1108 0.959 . S
H1094 C1108 0.961 . S
H1095 C1109 0.960 . S
H1096 C1109 0.961 . S
H1097 C1109 0.959 . S
H1098 C1112 0.929 . S
H1099 C1113 0.931 . S
H1100 C1115 0.930 . S
C1101 H1089 0.930 . S
C1101 C1102 1.399 . S
C1101 C1106 1.399 . S
C1102 C1101 1.399 . S
C1102 C1103 1.376 . S
C1103 H1090 0.930 . S
C1103 C1102 1.376 . S
C1103 C1104 1.388 . S
C1104 H1091 0.930 . S
C1104 C1103 1.388 . S
C1104 C1105 1.390 . S
C1105 C1104 1.390 . S
C1105 C1106 1.394 . S
C1105 C1111 1.465 . S
C1106 C1101 1.399 . S
C1106 C1105 1.394 . S
C1106 C1107 1.516 . S
C1107 C1106 1.516 . S
C1107 C1108 1.502 . S
C1107 C1109 1.561 . S
C1107 C1110 1.526 . S
C1108 H1092 0.959 . S
C1108 H1093 0.959 . S
C1108 H1094 0.961 . S
C1108 C1107 1.502 . S
C1109 H1095 0.960 . S
C1109 H1096 0.961 . S
C1109 H1097 0.959 . S
C1109 C1107 1.561 . S
C1110 C1107 1.526 . S
C1110 C1111 1.396 . S
C1110 C1115 1.390 . S
C1111 C1105 1.465 . S
C1111 C1110 1.396 . S
C1111 C1112 1.399 . S
C1112 H1098 0.929 . S
C1112 C1111 1.399 . S
C1112 C1113 1.385 . S
C1113 H1099 0.931 . S
C1113 C1112 1.385 . S
C1113 C1114 1.389 . S
C1114 C1113 1.389 . S
C1114 C1115 1.387 . S
C1115 H1100 0.930 . S
C1115 C1110 1.390 . S
C1115 C1114 1.387 . S
H1116 C1128 0.930 . S
H1117 C1130 0.930 . S
H1118 C1131 0.930 . S
H1119 C1135 0.959 . S
H1120 C1135 0.959 . S
H1121 C1135 0.961 . S
H1122 C1136 0.960 . S
H1123 C1136 0.961 . S
H1124 C1136 0.959 . S
H1125 C1139 0.929 1_565 S
H1126 C1140 0.931 . S
H1127 C1142 0.930 . S
C1128 H1116 0.930 . S
C1128 C1129 1.399 . S
C1128 C1133 1.399 . S
C1129 C1128 1.399 . S
C1129 C1130 1.376 1_545 S
C1130 H1117 0.930 . S
C1130 C1129 1.376 1_565 S
C1130 C1131 1.388 . S
C1131 H1118 0.930 . S
C1131 C1130 1.388 . S
C1131 C1132 1.390 1_565 S
C1132 C1131 1.390 1_545 S
C1132 C1133 1.394 . S
C1132 C1138 1.465 . S
C1133 C1128 1.399 . S
C1133 C1132 1.394 . S
C1133 C1134 1.516 . S
C1134 C1133 1.516 . S
C1134 C1135 1.502 . S
C1134 C1136 1.561 . S
C1134 C1137 1.526 . S
C1135 H1119 0.959 . S
C1135 H1120 0.959 . S
C1135 H1121 0.961 . S
C1135 C1134 1.502 . S
C1136 H1122 0.960 . S
C1136 H1123 0.961 . S
C1136 H1124 0.959 . S
C1136 C1134 1.561 . S
C1137 C1134 1.526 . S
C1137 C1138 1.396 . S
C1137 C1142 1.390 . S
C1138 C1132 1.465 . S
C1138 C1137 1.396 . S
C1138 C1139 1.399 . S
C1139 H1125 0.929 1_545 S
C1139 C1138 1.399 . S
C1139 C1140 1.385 . S
C1140 H1126 0.931 . S
C1140 C1139 1.385 . S
C1140 C1141 1.389 . S
C1141 C1140 1.389 . S
C1141 C1142 1.387 . S
C1142 H1127 0.930 . S
C1142 C1137 1.390 . S
C1142 C1141 1.387 . S
H1143 C1155 0.930 . S
H1144 C1157 0.930 . S
H1145 C1158 0.930 . S
H1146 C1162 0.959 . S
H1147 C1162 0.959 . S
H1148 C1162 0.961 . S
H1149 C1163 0.960 . S
H1150 C1163 0.961 . S
H1151 C1163 0.959 . S
H1152 C1166 0.929 . S
H1153 C1167 0.931 . S
H1154 C1169 0.930 . S
C1155 H1143 0.930 . S
C1155 C1156 1.399 . S
C1155 C1160 1.399 . S
C1156 C1155 1.399 . S
C1156 C1157 1.376 . S
C1157 H1144 0.930 . S
C1157 C1156 1.376 . S
C1157 C1158 1.388 . S
C1158 H1145 0.930 . S
C1158 C1157 1.388 . S
C1158 C1159 1.390 . S
C1159 C1158 1.390 . S
C1159 C1160 1.394 . S
C1159 C1165 1.465 . S
C1160 C1155 1.399 . S
C1160 C1159 1.394 . S
C1160 C1161 1.516 . S
C1161 C1160 1.516 . S
C1161 C1162 1.502 . S
C1161 C1163 1.561 . S
C1161 C1164 1.526 . S
C1162 H1146 0.959 . S
C1162 H1147 0.959 . S
C1162 H1148 0.961 . S
C1162 C1161 1.502 . S
C1163 H1149 0.960 . S
C1163 H1150 0.961 . S
C1163 H1151 0.959 . S
C1163 C1161 1.561 . S
C1164 C1161 1.526 . S
C1164 C1165 1.396 . S
C1164 C1169 1.390 . S
C1165 C1159 1.465 . S
C1165 C1164 1.396 . S
C1165 C1166 1.399 . S
C1166 H1152 0.929 . S
C1166 C1165 1.399 . S
C1166 C1167 1.385 . S
C1167 H1153 0.931 . S
C1167 C1166 1.385 . S
C1167 C1168 1.389 . S
C1168 C1167 1.389 . S
C1168 C1169 1.387 . S
C1169 H1154 0.930 . S
C1169 C1164 1.390 . S
C1169 C1168 1.387 . S
H1170 C1182 0.930 . S
H1171 C1184 0.930 . S
H1172 C1185 0.930 . S
H1173 C1189 0.959 . S
H1174 C1189 0.959 . S
H1175 C1189 0.961 . S
H1176 C1190 0.960 . S
H1177 C1190 0.961 1_565 S
H1178 C1190 0.959 . S
H1179 C1193 0.929 . S
H1180 C1194 0.931 . S
H1181 C1196 0.930 1_565 S
C1182 H1170 0.930 . S
C1182 C1183 1.399 . S
C1182 C1187 1.399 . S
C1183 C1182 1.399 . S
C1183 C1184 1.376 . S
C1184 H1171 0.930 . S
C1184 C1183 1.376 . S
C1184 C1185 1.388 . S
C1185 H1172 0.930 . S
C1185 C1184 1.388 . S
C1185 C1186 1.390 . S
C1186 C1185 1.390 . S
C1186 C1187 1.394 . S
C1186 C1192 1.465 . S
C1187 C1182 1.399 . S
C1187 C1186 1.394 . S
C1187 C1188 1.516 . S
C1188 C1187 1.516 . S
C1188 C1189 1.502 1_545 S
C1188 C1190 1.561 . S
C1188 C1191 1.526 . S
C1189 H1173 0.959 . S
C1189 H1174 0.959 . S
C1189 H1175 0.961 . S
C1189 C1188 1.502 1_565 S
C1190 H1176 0.960 . S
C1190 H1177 0.961 1_545 S
C1190 H1178 0.959 . S
C1190 C1188 1.561 . S
C1191 C1188 1.526 . S
C1191 C1192 1.396 . S
C1191 C1196 1.390 . S
C1192 C1186 1.465 . S
C1192 C1191 1.396 . S
C1192 C1193 1.399 . S
C1193 H1179 0.929 . S
C1193 C1192 1.399 . S
C1193 C1194 1.385 . S
C1194 H1180 0.931 . S
C1194 C1193 1.385 . S
C1194 C1195 1.389 . S
C1195 C1194 1.389 . S
C1195 C1196 1.387 . S
C1196 H1181 0.930 1_545 S
C1196 C1191 1.390 . S
C1196 C1195 1.387 . S
H1197 C1209 0.930 . S
H1198 C1211 0.930 . S
H1199 C1212 0.930 . S
H1200 C1216 0.959 . S
H1201 C1216 0.959 . S
H1202 C1216 0.961 . S
H1203 C1217 0.960 . S
H1204 C1217 0.961 . S
H1205 C1217 0.959 . S
H1206 C1220 0.929 . S
H1207 C1221 0.931 . S
H1208 C1223 0.930 . S
C1209 H1197 0.930 . S
C1209 C1210 1.399 . S
C1209 C1214 1.399 . S
C1210 C1209 1.399 . S
C1210 C1211 1.376 . S
C1211 H1198 0.930 . S
C1211 C1210 1.376 . S
C1211 C1212 1.388 . S
C1212 H1199 0.930 . S
C1212 C1211 1.388 . S
C1212 C1213 1.390 . S
C1213 C1212 1.390 . S
C1213 C1214 1.394 . S
C1213 C1219 1.465 . S
C1214 C1209 1.399 . S
C1214 C1213 1.394 . S
C1214 C1215 1.516 . S
C1215 C1214 1.516 . S
C1215 C1216 1.502 . S
C1215 C1217 1.561 . S
C1215 C1218 1.526 . S
C1216 H1200 0.959 . S
C1216 H1201 0.959 . S
C1216 H1202 0.961 . S
C1216 C1215 1.502 . S
C1217 H1203 0.960 . S
C1217 H1204 0.961 . S
C1217 H1205 0.959 . S
C1217 C1215 1.561 . S
C1218 C1215 1.526 . S
C1218 C1219 1.396 . S
C1218 C1223 1.390 . S
C1219 C1213 1.465 . S
C1219 C1218 1.396 . S
C1219 C1220 1.399 . S
C1220 H1206 0.929 . S
C1220 C1219 1.399 . S
C1220 C1221 1.385 . S
C1221 H1207 0.931 . S
C1221 C1220 1.385 . S
C1221 C1222 1.389 . S
C1222 C1221 1.389 . S
C1222 C1223 1.387 . S
C1223 H1208 0.930 . S
C1223 C1218 1.390 . S
C1223 C1222 1.387 . S
H1224 C1236 0.930 . S
H1225 C1238 0.910 1_556 S
H1226 C1239 0.930 1_556 S
H1227 C1243 0.959 . S
H1228 C1243 0.959 . S
H1229 C1243 0.961 . S
H1230 C1244 0.960 . S
H1231 C1244 0.961 . S
H1232 C1244 0.959 . S
H1233 C1247 0.929 . S
H1234 C1248 0.931 . S
H1235 C1250 0.930 . S
C1236 H1224 0.930 . S
C1236 C1237 1.399 . S
C1236 C1241 1.399 . S
C1237 C1236 1.399 . S
C1237 C1238 1.376 . S
C1238 H1225 0.910 1_554 S
C1238 C1237 1.376 . S
C1238 C1239 1.388 . S
C1239 H1226 0.930 1_554 S
C1239 C1238 1.388 . S
C1239 C1240 1.390 . S
C1240 C1239 1.390 . S
C1240 C1241 1.394 . S
C1240 C1246 1.465 . S
C1241 C1236 1.399 . S
C1241 C1240 1.394 . S
C1241 C1242 1.516 . S
C1242 C1241 1.516 . S
C1242 C1243 1.502 . S
C1242 C1244 1.561 . S
C1242 C1245 1.526 . S
C1243 H1227 0.959 . S
C1243 H1228 0.959 . S
C1243 H1229 0.961 . S
C1243 C1242 1.502 . S
C1244 H1230 0.960 . S
C1244 H1231 0.961 . S
C1244 H1232 0.959 . S
C1244 C1242 1.561 . S
C1245 C1242 1.526 . S
C1245 C1246 1.396 . S
C1245 C1250 1.390 . S
C1246 C1240 1.465 . S
C1246 C1245 1.396 . S
C1246 C1247 1.399 1_554 S
C1247 H1233 0.929 . S
C1247 C1246 1.399 1_556 S
C1247 C1248 1.385 . S
C1248 H1234 0.931 . S
C1248 C1247 1.385 . S
C1248 C1249 1.389 1_556 S
C1249 C1248 1.389 1_554 S
C1249 C1250 1.387 . S
C1250 H1235 0.930 . S
C1250 C1245 1.390 . S
C1250 C1249 1.387 . S
H1251 C1263 0.930 . S
H1252 C1265 0.930 . S
H1253 C1266 0.930 . S
H1254 C1270 0.959 . S
H1255 C1270 0.959 1_556 S
H1256 C1270 0.961 1_556 S
H1257 C1271 0.960 . S
H1258 C1271 0.961 . S
H1259 C1271 0.959 1_554 S
H1260 C1274 0.929 . S
H1261 C1275 0.931 . S
H1262 C1277 0.930 . S
C1263 H1251 0.930 . S
C1263 C1264 1.399 . S
C1263 C1268 1.399 . S
C1264 C1263 1.399 . S
C1264 C1265 1.376 . S
C1265 H1252 0.930 . S
C1265 C1264 1.376 . S
C1265 C1266 1.388 . S
C1266 H1253 0.930 . S
C1266 C1265 1.388 . S
C1266 C1267 1.390 . S
C1267 C1266 1.390 . S
C1267 C1268 1.394 . S
C1267 C1273 1.465 . S
C1268 C1263 1.399 . S
C1268 C1267 1.394 . S
C1268 C1269 1.516 . S
C1269 C1268 1.516 . S
C1269 C1270 1.502 . S
C1269 C1271 1.561 1_554 S
C1269 C1272 1.526 . S
C1270 H1254 0.959 . S
C1270 H1255 0.959 1_554 S
C1270 H1256 0.961 1_554 S
C1270 C1269 1.502 . S
C1271 H1257 0.960 . S
C1271 H1258 0.961 . S
C1271 H1259 0.959 1_556 S
C1271 C1269 1.561 1_556 S
C1272 C1269 1.526 . S
C1272 C1273 1.396 . S
C1272 C1277 1.390 . S
C1273 C1267 1.465 . S
C1273 C1272 1.396 . S
C1273 C1274 1.399 . S
C1274 H1260 0.929 . S
C1274 C1273 1.399 . S
C1274 C1275 1.385 . S
C1275 H1261 0.931 . S
C1275 C1274 1.385 . S
C1275 C1276 1.389 . S
C1276 C1275 1.389 . S
C1276 C1277 1.387 . S
C1277 H1262 0.930 . S
C1277 C1272 1.390 . S
C1277 C1276 1.387 . S
H1278 C1290 0.930 . S
H1279 C1292 0.930 . S
H1280 C1293 0.930 . S
H1281 C1297 0.959 . S
H1282 C1297 0.959 . S
H1283 C1297 0.961 . S
H1284 C1298 0.960 . S
H1285 C1298 0.961 . S
H1286 C1298 0.959 . S
H1287 C1301 0.929 . S
H1288 C1302 0.931 . S
H1289 C1304 0.930 . S
C1290 H1278 0.930 . S
C1290 C1291 1.399 . S
C1290 C1295 1.399 . S
C1291 C1290 1.399 . S
C1291 C1292 1.376 . S
C1292 H1279 0.930 . S
C1292 C1291 1.376 . S
C1292 C1293 1.388 . S
C1293 H1280 0.930 . S
C1293 C1292 1.388 . S
C1293 C1294 1.390 . S
C1294 C1293 1.390 . S
C1294 C1295 1.394 . S
C1294 C1300 1.465 . S
C1295 C1290 1.399 . S
C1295 C1294 1.394 . S
C1295 C1296 1.516 . S
C1296 C1295 1.516 . S
C1296 C1297 1.502 . S
C1296 C1298 1.561 . S
C1296 C1299 1.526 . S
C1297 H1281 0.959 . S
C1297 H1282 0.959 . S
C1297 H1283 0.961 . S
C1297 C1296 1.502 . S
C1298 H1284 0.960 . S
C1298 H1285 0.961 . S
C1298 H1286 0.959 . S
C1298 C1296 1.561 . S
C1299 C1296 1.526 . S
C1299 C1300 1.396 . S
C1299 C1304 1.390 . S
C1300 C1294 1.465 . S
C1300 C1299 1.396 . S
C1300 C1301 1.399 . S
C1301 H1287 0.929 . S
C1301 C1300 1.399 . S
C1301 C1302 1.385 . S
C1302 H1288 0.931 . S
C1302 C1301 1.385 . S
C1302 C1303 1.389 . S
C1303 C1302 1.389 . S
C1303 C1304 1.387 . S
C1304 H1289 0.930 . S
C1304 C1299 1.390 . S
C1304 C1303 1.387 . S
H1305 C1317 0.930 . S
H1306 C1319 0.930 . S
H1307 C1320 0.930 . S
H1308 C1324 0.959 . S
H1309 C1324 0.959 . S
H1310 C1324 0.961 . S
H1311 C1325 0.960 . S
H1312 C1325 0.961 . S
H1313 C1325 0.959 . S
H1314 C1328 0.929 . S
H1315 C1329 0.931 . S
H1316 C1331 0.930 . S
C1317 H1305 0.930 . S
C1317 C1318 1.399 . S
C1317 C1322 1.399 . S
C1318 C1317 1.399 . S
C1318 C1319 1.376 . S
C1319 H1306 0.930 . S
C1319 C1318 1.376 . S
C1319 C1320 1.388 . S
C1320 H1307 0.930 . S
C1320 C1319 1.388 . S
C1320 C1321 1.390 . S
C1321 C1320 1.390 . S
C1321 C1322 1.394 . S
C1321 C1327 1.465 . S
C1322 C1317 1.399 . S
C1322 C1321 1.394 . S
C1322 C1323 1.516 . S
C1323 C1322 1.516 . S
C1323 C1324 1.502 . S
C1323 C1325 1.561 . S
C1323 C1326 1.526 . S
C1324 H1308 0.959 . S
C1324 H1309 0.959 . S
C1324 H1310 0.961 . S
C1324 C1323 1.502 . S
C1325 H1311 0.960 . S
C1325 H1312 0.961 . S
C1325 H1313 0.959 . S
C1325 C1323 1.561 . S
C1326 C1323 1.526 . S
C1326 C1327 1.396 . S
C1326 C1331 1.390 . S
C1327 C1321 1.465 . S
C1327 C1326 1.396 . S
C1327 C1328 1.399 . S
C1328 H1314 0.929 . S
C1328 C1327 1.399 . S
C1328 C1329 1.385 . S
C1329 H1315 0.931 . S
C1329 C1328 1.385 . S
C1329 C1330 1.389 . S
C1330 C1329 1.389 . S
C1330 C1331 1.387 . S
C1331 H1316 0.930 . S
C1331 C1326 1.390 . S
C1331 C1330 1.387 . S
H1332 C1344 0.930 . S
H1333 C1346 0.930 . S
H1334 C1347 0.930 . S
H1335 C1351 0.959 . S
H1336 C1351 0.959 . S
H1337 C1351 0.961 . S
H1338 C1352 0.960 . S
H1339 C1352 0.961 . S
H1340 C1352 0.959 . S
H1341 C1355 0.929 . S
H1342 C1356 0.931 . S
H1343 C1358 0.930 . S
C1344 H1332 0.930 . S
C1344 C1345 1.399 . S
C1344 C1349 1.399 . S
C1345 C1344 1.399 . S
C1345 C1346 1.376 . S
C1346 H1333 0.930 . S
C1346 C1345 1.376 . S
C1346 C1347 1.388 . S
C1347 H1334 0.930 . S
C1347 C1346 1.388 . S
C1347 C1348 1.390 . S
C1348 C1347 1.390 . S
C1348 C1349 1.394 . S
C1348 C1354 1.465 . S
C1349 C1344 1.399 . S
C1349 C1348 1.394 . S
C1349 C1350 1.516 . S
C1350 C1349 1.516 . S
C1350 C1351 1.502 . S
C1350 C1352 1.561 . S
C1350 C1353 1.526 . S
C1351 H1335 0.959 . S
C1351 H1336 0.959 . S
C1351 H1337 0.961 . S
C1351 C1350 1.502 . S
C1352 H1338 0.960 . S
C1352 H1339 0.961 . S
C1352 H1340 0.959 . S
C1352 C1350 1.561 . S
C1353 C1350 1.526 . S
C1353 C1354 1.396 . S
C1353 C1358 1.390 . S
C1354 C1348 1.465 . S
C1354 C1353 1.396 . S
C1354 C1355 1.399 . S
C1355 H1341 0.929 . S
C1355 C1354 1.399 . S
C1355 C1356 1.385 . S
C1356 H1342 0.931 . S
C1356 C1355 1.385 . S
C1356 C1357 1.389 . S
C1357 C1356 1.389 . S
C1357 C1358 1.387 . S
C1358 H1343 0.930 . S
C1358 C1353 1.390 . S
C1358 C1357 1.387 . S
H1359 C1371 0.930 . S
H1360 C1373 0.930 . S
H1361 C1374 0.930 . S
H1362 C1378 0.959 . S
H1363 C1378 0.959 . S
H1364 C1378 0.961 . S
H1365 C1379 0.960 . S
H1366 C1379 0.961 1_545 S
H1367 C1379 0.959 . S
H1368 C1382 0.929 . S
H1369 C1383 0.931 . S
H1370 C1385 0.930 . S
C1371 H1359 0.930 . S
C1371 C1372 1.399 . S
C1371 C1376 1.399 . S
C1372 C1371 1.399 . S
C1372 C1373 1.376 . S
C1373 H1360 0.930 . S
C1373 C1372 1.376 . S
C1373 C1374 1.388 . S
C1374 H1361 0.930 . S
C1374 C1373 1.388 . S
C1374 C1375 1.390 . S
C1375 C1374 1.390 . S
C1375 C1376 1.394 . S
C1375 C1381 1.465 . S
C1376 C1371 1.399 . S
C1376 C1375 1.394 . S
C1376 C1377 1.516 . S
C1377 C1376 1.516 . S
C1377 C1378 1.502 1_565 S
C1377 C1379 1.561 . S
C1377 C1380 1.526 . S
C1378 H1362 0.959 . S
C1378 H1363 0.959 . S
C1378 H1364 0.961 . S
C1378 C1377 1.502 1_545 S
C1379 H1365 0.960 . S
C1379 H1366 0.961 1_565 S
C1379 H1367 0.959 . S
C1379 C1377 1.561 . S
C1380 C1377 1.526 . S
C1380 C1381 1.396 . S
C1380 C1385 1.390 1_565 S
C1381 C1375 1.465 . S
C1381 C1380 1.396 . S
C1381 C1382 1.399 . S
C1382 H1368 0.929 . S
C1382 C1381 1.399 . S
C1382 C1383 1.385 . S
C1383 H1369 0.931 . S
C1383 C1382 1.385 . S
C1383 C1384 1.389 . S
C1384 C1383 1.389 . S
C1384 C1385 1.387 1_565 S
C1385 H1370 0.930 . S
C1385 C1380 1.390 1_545 S
C1385 C1384 1.387 1_545 S
H1386 C1398 0.930 . S
H1387 C1400 0.930 . S
H1388 C1401 0.930 . S
H1389 C1405 0.959 . S
H1390 C1405 0.959 . S
H1391 C1405 0.961 . S
H1392 C1406 0.960 . S
H1393 C1406 0.961 . S
H1394 C1406 0.959 . S
H1395 C1409 0.929 . S
H1396 C1410 0.931 . S
H1397 C1412 0.930 . S
C1398 H1386 0.930 . S
C1398 C1399 1.399 . S
C1398 C1403 1.399 . S
C1399 C1398 1.399 . S
C1399 C1400 1.376 . S
C1400 H1387 0.930 . S
C1400 C1399 1.376 . S
C1400 C1401 1.388 . S
C1401 H1388 0.930 . S
C1401 C1400 1.388 . S
C1401 C1402 1.390 . S
C1402 C1401 1.390 . S
C1402 C1403 1.394 . S
C1402 C1408 1.465 . S
C1403 C1398 1.399 . S
C1403 C1402 1.394 . S
C1403 C1404 1.516 . S
C1404 C1403 1.516 . S
C1404 C1405 1.502 . S
C1404 C1406 1.561 . S
C1404 C1407 1.526 . S
C1405 H1389 0.959 . S
C1405 H1390 0.959 . S
C1405 H1391 0.961 . S
C1405 C1404 1.502 . S
C1406 H1392 0.960 . S
C1406 H1393 0.961 . S
C1406 H1394 0.959 . S
C1406 C1404 1.561 . S
C1407 C1404 1.526 . S
C1407 C1408 1.396 . S
C1407 C1412 1.390 . S
C1408 C1402 1.465 . S
C1408 C1407 1.396 . S
C1408 C1409 1.399 . S
C1409 H1395 0.929 . S
C1409 C1408 1.399 . S
C1409 C1410 1.385 . S
C1410 H1396 0.931 . S
C1410 C1409 1.385 . S
C1410 C1411 1.389 . S
C1411 C1410 1.389 . S
C1411 C1412 1.387 . S
C1412 H1397 0.930 . S
C1412 C1407 1.390 . S
C1412 C1411 1.387 . S
H1413 C1425 0.930 . S
H1414 C1427 0.930 . S
H1415 C1428 0.930 . S
H1416 C1432 0.959 . S
H1417 C1432 0.959 . S
H1418 C1432 0.961 . S
H1419 C1433 0.960 . S
H1420 C1433 0.961 . S
H1421 C1433 0.959 . S
H1422 C1436 0.929 . S
H1423 C1437 0.931 . S
H1424 C1439 0.930 . S
C1425 H1413 0.930 . S
C1425 C1426 1.399 . S
C1425 C1430 1.399 . S
C1426 C1425 1.399 . S
C1426 C1427 1.376 . S
C1427 H1414 0.930 . S
C1427 C1426 1.376 . S
C1427 C1428 1.388 . S
C1428 H1415 0.930 . S
C1428 C1427 1.388 . S
C1428 C1429 1.390 . S
C1429 C1428 1.390 . S
C1429 C1430 1.394 . S
C1429 C1435 1.465 . S
C1430 C1425 1.399 . S
C1430 C1429 1.394 . S
C1430 C1431 1.516 . S
C1431 C1430 1.516 . S
C1431 C1432 1.502 . S
C1431 C1433 1.561 . S
C1431 C1434 1.526 . S
C1432 H1416 0.959 . S
C1432 H1417 0.959 . S
C1432 H1418 0.961 . S
C1432 C1431 1.502 . S
C1433 H1419 0.960 . S
C1433 H1420 0.961 . S
C1433 H1421 0.959 . S
C1433 C1431 1.561 . S
C1434 C1431 1.526 . S
C1434 C1435 1.396 . S
C1434 C1439 1.390 . S
C1435 C1429 1.465 . S
C1435 C1434 1.396 . S
C1435 C1436 1.399 . S
C1436 H1422 0.929 . S
C1436 C1435 1.399 . S
C1436 C1437 1.385 . S
C1437 H1423 0.931 . S
C1437 C1436 1.385 . S
C1437 C1438 1.389 . S
C1438 C1437 1.389 . S
C1438 C1439 1.387 . S
C1439 H1424 0.930 . S
C1439 C1434 1.390 . S
C1439 C1438 1.387 . S
H1440 C1452 0.930 . S
H1441 C1454 0.930 . S
H1442 C1455 0.930 1_554 S
H1443 C1459 0.959 . S
H1444 C1459 0.959 . S
H1445 C1459 0.961 . S
H1446 C1460 0.960 . S
H1447 C1460 0.961 . S
H1448 C1460 0.959 . S
H1449 C1463 0.929 . S
H1450 C1464 0.931 . S
H1451 C1466 0.930 . S
C1452 H1440 0.930 . S
C1452 C1453 1.399 . S
C1452 C1457 1.399 . S
C1453 C1452 1.399 . S
C1453 C1454 1.376 . S
C1454 H1441 0.930 . S
C1454 C1453 1.376 . S
C1454 C1455 1.388 . S
C1455 H1442 0.930 1_556 S
C1455 C1454 1.388 . S
C1455 C1456 1.390 . S
C1456 C1455 1.390 . S
C1456 C1457 1.394 . S
C1456 C1462 1.465 . S
C1457 C1452 1.399 . S
C1457 C1456 1.394 . S
C1457 C1458 1.516 . S
C1458 C1457 1.516 . S
C1458 C1459 1.502 . S
C1458 C1460 1.561 1_455 S
C1458 C1461 1.526 . S
C1459 H1443 0.959 . S
C1459 H1444 0.959 . S
C1459 H1445 0.961 . S
C1459 C1458 1.502 . S
C1460 H1446 0.960 . S
C1460 H1447 0.961 . S
C1460 H1448 0.959 . S
C1460 C1458 1.561 1_655 S
C1461 C1458 1.526 . S
C1461 C1462 1.396 . S
C1461 C1466 1.390 . S
C1462 C1456 1.465 . S
C1462 C1461 1.396 . S
C1462 C1463 1.399 1_556 S
C1463 H1449 0.929 . S
C1463 C1462 1.399 1_554 S
C1463 C1464 1.385 . S
C1464 H1450 0.931 . S
C1464 C1463 1.385 . S
C1464 C1465 1.389 1_554 S
C1465 C1464 1.389 1_556 S
C1465 C1466 1.387 . S
C1466 H1451 0.930 . S
C1466 C1461 1.390 . S
C1466 C1465 1.387 . S
H1467 C1479 0.930 . S
H1468 C1481 0.930 . S
H1469 C1482 0.930 . S
H1470 C1486 0.959 . S
H1471 C1486 0.959 . S
H1472 C1486 0.961 . S
H1473 C1487 0.960 . S
H1474 C1487 0.961 . S
H1475 C1487 0.959 . S
H1476 C1490 0.929 . S
H1477 C1491 0.931 . S
H1478 C1493 0.930 . S
C1479 H1467 0.930 . S
C1479 C1480 1.399 . S
C1479 C1484 1.399 . S
C1480 C1479 1.399 . S
C1480 C1481 1.376 . S
C1481 H1468 0.930 . S
C1481 C1480 1.376 . S
C1481 C1482 1.388 . S
C1482 H1469 0.930 . S
C1482 C1481 1.388 . S
C1482 C1483 1.390 . S
C1483 C1482 1.390 . S
C1483 C1484 1.394 . S
C1483 C1489 1.465 . S
C1484 C1479 1.399 . S
C1484 C1483 1.394 . S
C1484 C1485 1.516 . S
C1485 C1484 1.516 . S
C1485 C1486 1.502 . S
C1485 C1487 1.561 . S
C1485 C1488 1.526 . S
C1486 H1470 0.959 . S
C1486 H1471 0.959 . S
C1486 H1472 0.961 . S
C1486 C1485 1.502 . S
C1487 H1473 0.960 . S
C1487 H1474 0.961 . S
C1487 H1475 0.959 . S
C1487 C1485 1.561 . S
C1488 C1485 1.526 . S
C1488 C1489 1.396 . S
C1488 C1493 1.390 . S
C1489 C1483 1.465 . S
C1489 C1488 1.396 . S
C1489 C1490 1.399 . S
C1490 H1476 0.929 . S
C1490 C1489 1.399 . S
C1490 C1491 1.385 . S
C1491 H1477 0.931 . S
C1491 C1490 1.385 . S
C1491 C1492 1.389 . S
C1492 C1491 1.389 . S
C1492 C1493 1.387 . S
C1493 H1478 0.930 . S
C1493 C1488 1.390 . S
C1493 C1492 1.387 . S
H1494 C1506 0.930 . S
H1495 C1508 0.930 . S
H1496 C1509 0.930 . S
H1497 C1513 0.959 . S
H1498 C1513 0.959 . S
H1499 C1513 0.961 . S
H1500 C1514 0.960 . S
H1501 C1514 0.961 . S
H1502 C1514 0.959 . S
H1503 C1517 0.929 . S
H1504 C1518 0.931 . S
H1505 C1520 0.930 . S
C1506 H1494 0.930 . S
C1506 C1507 1.399 . S
C1506 C1511 1.399 . S
C1507 C1506 1.399 . S
C1507 C1508 1.376 . S
C1508 H1495 0.930 . S
C1508 C1507 1.376 . S
C1508 C1509 1.388 . S
C1509 H1496 0.930 . S
C1509 C1508 1.388 . S
C1509 C1510 1.390 . S
C1510 C1509 1.390 . S
C1510 C1511 1.394 . S
C1510 C1516 1.465 . S
C1511 C1506 1.399 . S
C1511 C1510 1.394 . S
C1511 C1512 1.516 . S
C1512 C1511 1.516 . S
C1512 C1513 1.502 . S
C1512 C1514 1.561 . S
C1512 C1515 1.526 . S
C1513 H1497 0.959 . S
C1513 H1498 0.959 . S
C1513 H1499 0.961 . S
C1513 C1512 1.502 . S
C1514 H1500 0.960 . S
C1514 H1501 0.961 . S
C1514 H1502 0.959 . S
C1514 C1512 1.561 . S
C1515 C1512 1.526 . S
C1515 C1516 1.396 . S
C1515 C1520 1.390 . S
C1516 C1510 1.465 . S
C1516 C1515 1.396 . S
C1516 C1517 1.399 . S
C1517 H1503 0.929 . S
C1517 C1516 1.399 . S
C1517 C1518 1.385 . S
C1518 H1504 0.931 . S
C1518 C1517 1.385 . S
C1518 C1519 1.389 . S
C1519 C1518 1.389 . S
C1519 C1520 1.387 . S
C1520 H1505 0.930 . S
C1520 C1515 1.390 . S
C1520 C1519 1.387 . S
H1521 C1533 0.930 . S
H1522 C1535 0.930 . S
H1523 C1536 0.930 . S
H1524 C1540 0.959 . S
H1525 C1540 0.959 . S
H1526 C1540 0.961 . S
H1527 C1541 0.960 . S
H1528 C1541 0.961 . S
H1529 C1541 0.959 . S
H1530 C1544 0.929 . S
H1531 C1545 0.931 . S
H1532 C1547 0.930 . S
C1533 H1521 0.930 . S
C1533 C1534 1.399 . S
C1533 C1538 1.399 . S
C1534 C1533 1.399 . S
C1534 C1535 1.376 . S
C1535 H1522 0.930 . S
C1535 C1534 1.376 . S
C1535 C1536 1.388 . S
C1536 H1523 0.930 . S
C1536 C1535 1.388 . S
C1536 C1537 1.390 . S
C1537 C1536 1.390 . S
C1537 C1538 1.394 . S
C1537 C1543 1.465 . S
C1538 C1533 1.399 . S
C1538 C1537 1.394 . S
C1538 C1539 1.516 . S
C1539 C1538 1.516 . S
C1539 C1540 1.502 . S
C1539 C1541 1.561 . S
C1539 C1542 1.526 . S
C1540 H1524 0.959 . S
C1540 H1525 0.959 . S
C1540 H1526 0.961 . S
C1540 C1539 1.502 . S
C1541 H1527 0.960 . S
C1541 H1528 0.961 . S
C1541 H1529 0.959 . S
C1541 C1539 1.561 . S
C1542 C1539 1.526 . S
C1542 C1543 1.396 . S
C1542 C1547 1.390 . S
C1543 C1537 1.465 . S
C1543 C1542 1.396 . S
C1543 C1544 1.399 . S
C1544 H1530 0.929 . S
C1544 C1543 1.399 . S
C1544 C1545 1.385 . S
C1545 H1531 0.931 . S
C1545 C1544 1.385 . S
C1545 C1546 1.389 . S
C1546 C1545 1.389 . S
C1546 C1547 1.387 . S
C1547 H1532 0.930 . S
C1547 C1542 1.390 . S
C1547 C1546 1.387 . S
H1548 C1560 0.928 1_655 S
H1549 C1562 0.930 . S
H1550 C1563 0.930 . S
H1551 C1567 0.959 . S
H1552 C1567 0.959 . S
H1553 C1567 0.961 . S
H1554 C1568 0.960 . S
H1555 C1568 0.961 . S
H1556 C1568 0.959 . S
H1557 C1571 0.929 . S
H1558 C1572 0.931 . S
H1559 C1574 0.930 . S
C1560 H1548 0.928 1_455 S
C1560 C1561 1.399 . S
C1560 C1565 1.399 . S
C1561 C1560 1.399 . S
C1561 C1562 1.376 . S
C1562 H1549 0.930 . S
C1562 C1561 1.376 . S
C1562 C1563 1.388 . S
C1563 H1550 0.930 . S
C1563 C1562 1.388 . S
C1563 C1564 1.390 . S
C1564 C1563 1.390 . S
C1564 C1565 1.394 . S
C1564 C1570 1.465 . S
C1565 C1560 1.399 . S
C1565 C1564 1.394 . S
C1565 C1566 1.516 . S
C1566 C1565 1.516 . S
C1566 C1567 1.502 1_455 S
C1566 C1568 1.561 . S
C1566 C1569 1.526 . S
C1567 H1551 0.959 . S
C1567 H1552 0.959 . S
C1567 H1553 0.961 . S
C1567 C1566 1.502 1_655 S
C1568 H1554 0.960 . S
C1568 H1555 0.961 . S
C1568 H1556 0.959 . S
C1568 C1566 1.561 . S
C1569 C1566 1.526 . S
C1569 C1570 1.396 . S
C1569 C1574 1.390 . S
C1570 C1564 1.465 . S
C1570 C1569 1.396 . S
C1570 C1571 1.399 . S
C1571 H1557 0.929 . S
C1571 C1570 1.399 . S
C1571 C1572 1.385 . S
C1572 H1558 0.931 . S
C1572 C1571 1.385 . S
C1572 C1573 1.389 . S
C1573 C1572 1.389 . S
C1573 C1574 1.387 . S
C1574 H1559 0.930 . S
C1574 C1569 1.390 . S
C1574 C1573 1.387 . S
H1575 C1587 0.930 . S
H1576 C1589 0.930 . S
H1577 C1590 0.930 . S
H1578 C1594 0.959 . S
H1579 C1594 0.959 . S
H1580 C1594 0.961 . S
H1581 C1595 0.960 . S
H1582 C1595 0.961 . S
H1583 C1595 0.959 . S
H1584 C1598 0.929 . S
H1585 C1599 0.931 . S
H1586 C1601 0.930 . S
C1587 H1575 0.930 . S
C1587 C1588 1.399 . S
C1587 C1592 1.399 . S
C1588 C1587 1.399 . S
C1588 C1589 1.376 . S
C1589 H1576 0.930 . S
C1589 C1588 1.376 . S
C1589 C1590 1.388 . S
C1590 H1577 0.930 . S
C1590 C1589 1.388 . S
C1590 C1591 1.390 . S
C1591 C1590 1.390 . S
C1591 C1592 1.394 . S
C1591 C1597 1.465 . S
C1592 C1587 1.399 . S
C1592 C1591 1.394 . S
C1592 C1593 1.516 . S
C1593 C1592 1.516 . S
C1593 C1594 1.502 . S
C1593 C1595 1.561 . S
C1593 C1596 1.526 . S
C1594 H1578 0.959 . S
C1594 H1579 0.959 . S
C1594 H1580 0.961 . S
C1594 C1593 1.502 . S
C1595 H1581 0.960 . S
C1595 H1582 0.961 . S
C1595 H1583 0.959 . S
C1595 C1593 1.561 . S
C1596 C1593 1.526 . S
C1596 C1597 1.396 . S
C1596 C1601 1.390 . S
C1597 C1591 1.465 . S
C1597 C1596 1.396 . S
C1597 C1598 1.399 . S
C1598 H1584 0.929 . S
C1598 C1597 1.399 . S
C1598 C1599 1.385 . S
C1599 H1585 0.931 . S
C1599 C1598 1.385 . S
C1599 C1600 1.389 . S
C1600 C1599 1.389 . S
C1600 C1601 1.387 . S
C1601 H1586 0.930 . S
C1601 C1596 1.390 . S
C1601 C1600 1.387 . S
H1602 C1614 0.930 . S
H1603 C1616 0.930 . S
H1604 C1617 0.930 . S
H1605 C1621 0.959 . S
H1606 C1621 0.959 . S
H1607 C1621 0.961 . S
H1608 C1622 0.960 . S
H1609 C1622 0.961 . S
H1610 C1622 0.959 . S
H1611 C1625 0.929 . S
H1612 C1626 0.931 . S
H1613 C1628 0.930 . S
C1614 H1602 0.930 . S
C1614 C1615 1.399 . S
C1614 C1619 1.399 . S
C1615 C1614 1.399 . S
C1615 C1616 1.376 . S
C1616 H1603 0.930 . S
C1616 C1615 1.376 . S
C1616 C1617 1.388 . S
C1617 H1604 0.930 . S
C1617 C1616 1.388 . S
C1617 C1618 1.390 . S
C1618 C1617 1.390 . S
C1618 C1619 1.394 . S
C1618 C1624 1.465 . S
C1619 C1614 1.399 . S
C1619 C1618 1.394 . S
C1619 C1620 1.516 . S
C1620 C1619 1.516 . S
C1620 C1621 1.502 . S
C1620 C1622 1.561 . S
C1620 C1623 1.526 . S
C1621 H1605 0.959 . S
C1621 H1606 0.959 . S
C1621 H1607 0.961 . S
C1621 C1620 1.502 . S
C1622 H1608 0.960 . S
C1622 H1609 0.961 . S
C1622 H1610 0.959 . S
C1622 C1620 1.561 . S
C1623 C1620 1.526 . S
C1623 C1624 1.396 . S
C1623 C1628 1.390 . S
C1624 C1618 1.465 . S
C1624 C1623 1.396 . S
C1624 C1625 1.399 . S
C1625 H1611 0.929 . S
C1625 C1624 1.399 . S
C1625 C1626 1.385 . S
C1626 H1612 0.931 . S
C1626 C1625 1.385 . S
C1626 C1627 1.389 . S
C1627 C1626 1.389 . S
C1627 C1628 1.387 . S
C1628 H1613 0.930 . S
C1628 C1623 1.390 . S
C1628 C1627 1.387 . S
H1629 C1641 0.930 . S
H1630 C1643 0.930 . S
H1631 C1644 0.930 . S
H1632 C1648 0.959 . S
H1633 C1648 0.959 . S
H1634 C1648 0.961 . S
H1635 C1649 0.960 . S
H1636 C1649 0.961 . S
H1637 C1649 0.959 . S
H1638 C1652 0.929 . S
H1639 C1653 0.931 . S
H1640 C1655 0.930 . S
C1641 H1629 0.930 . S
C1641 C1642 1.399 . S
C1641 C1646 1.399 . S
C1642 C1641 1.399 . S
C1642 C1643 1.376 . S
C1643 H1630 0.930 . S
C1643 C1642 1.376 . S
C1643 C1644 1.388 . S
C1644 H1631 0.930 . S
C1644 C1643 1.388 . S
C1644 C1645 1.390 . S
C1645 C1644 1.390 . S
C1645 C1646 1.394 . S
C1645 C1651 1.465 . S
C1646 C1641 1.399 . S
C1646 C1645 1.394 . S
C1646 C1647 1.516 . S
C1647 C1646 1.516 . S
C1647 C1648 1.502 . S
C1647 C1649 1.561 . S
C1647 C1650 1.526 . S
C1648 H1632 0.959 . S
C1648 H1633 0.959 . S
C1648 H1634 0.961 . S
C1648 C1647 1.502 . S
C1649 H1635 0.960 . S
C1649 H1636 0.961 . S
C1649 H1637 0.959 . S
C1649 C1647 1.561 . S
C1650 C1647 1.526 . S
C1650 C1651 1.396 . S
C1650 C1655 1.390 . S
C1651 C1645 1.465 . S
C1651 C1650 1.396 . S
C1651 C1652 1.399 . S
C1652 H1638 0.929 . S
C1652 C1651 1.399 . S
C1652 C1653 1.385 . S
C1653 H1639 0.931 . S
C1653 C1652 1.385 . S
C1653 C1654 1.389 . S
C1654 C1653 1.389 . S
C1654 C1655 1.387 . S
C1655 H1640 0.930 . S
C1655 C1650 1.390 . S
C1655 C1654 1.387 . S
H1656 C1668 0.930 . S
H1657 C1670 0.930 . S
H1658 C1671 0.930 . S
H1659 C1675 0.959 . S
H1660 C1675 0.959 . S
H1661 C1675 0.961 . S
H1662 C1676 0.960 . S
H1663 C1676 0.961 . S
H1664 C1676 0.959 . S
H1665 C1679 0.929 . S
H1666 C1680 0.931 . S
H1667 C1682 0.930 . S
C1668 H1656 0.930 . S
C1668 C1669 1.399 . S
C1668 C1673 1.399 . S
C1669 C1668 1.399 . S
C1669 C1670 1.376 . S
C1670 H1657 0.930 . S
C1670 C1669 1.376 . S
C1670 C1671 1.388 . S
C1671 H1658 0.930 . S
C1671 C1670 1.388 . S
C1671 C1672 1.390 . S
C1672 C1671 1.390 . S
C1672 C1673 1.394 . S
C1672 C1678 1.465 . S
C1673 C1668 1.399 . S
C1673 C1672 1.394 . S
C1673 C1674 1.516 . S
C1674 C1673 1.516 . S
C1674 C1675 1.502 . S
C1674 C1676 1.561 . S
C1674 C1677 1.526 . S
C1675 H1659 0.959 . S
C1675 H1660 0.959 . S
C1675 H1661 0.961 . S
C1675 C1674 1.502 . S
C1676 H1662 0.960 . S
C1676 H1663 0.961 . S
C1676 H1664 0.959 . S
C1676 C1674 1.561 . S
C1677 C1674 1.526 . S
C1677 C1678 1.396 . S
C1677 C1682 1.390 . S
C1678 C1672 1.465 . S
C1678 C1677 1.396 . S
C1678 C1679 1.399 . S
C1679 H1665 0.929 . S
C1679 C1678 1.399 . S
C1679 C1680 1.385 . S
C1680 H1666 0.931 . S
C1680 C1679 1.385 . S
C1680 C1681 1.389 . S
C1681 C1680 1.389 . S
C1681 C1682 1.387 . S
C1682 H1667 0.930 . S
C1682 C1677 1.390 . S
C1682 C1681 1.387 . S
H1683 C1695 0.930 . S
H1684 C1697 0.930 . S
H1685 C1698 0.930 . S
H1686 C1702 0.959 . S
H1687 C1702 0.959 . S
H1688 C1702 0.961 . S
H1689 C1703 0.960 . S
H1690 C1703 0.961 . S
H1691 C1703 0.959 . S
H1692 C1706 0.929 . S
H1693 C1707 0.931 . S
H1694 C1709 0.930 . S
C1695 H1683 0.930 . S
C1695 C1696 1.399 . S
C1695 C1700 1.399 . S
C1696 C1695 1.399 . S
C1696 C1697 1.376 . S
C1697 H1684 0.930 . S
C1697 C1696 1.376 . S
C1697 C1698 1.388 . S
C1698 H1685 0.930 . S
C1698 C1697 1.388 . S
C1698 C1699 1.390 . S
C1699 C1698 1.390 . S
C1699 C1700 1.394 . S
C1699 C1705 1.465 . S
C1700 C1695 1.399 . S
C1700 C1699 1.394 . S
C1700 C1701 1.516 . S
C1701 C1700 1.516 . S
C1701 C1702 1.502 . S
C1701 C1703 1.561 . S
C1701 C1704 1.526 . S
C1702 H1686 0.959 . S
C1702 H1687 0.959 . S
C1702 H1688 0.961 . S
C1702 C1701 1.502 . S
C1703 H1689 0.960 . S
C1703 H1690 0.961 . S
C1703 H1691 0.959 . S
C1703 C1701 1.561 . S
C1704 C1701 1.526 . S
C1704 C1705 1.396 . S
C1704 C1709 1.390 . S
C1705 C1699 1.465 . S
C1705 C1704 1.396 . S
C1705 C1706 1.399 . S
C1706 H1692 0.929 . S
C1706 C1705 1.399 . S
C1706 C1707 1.385 . S
C1707 H1693 0.931 . S
C1707 C1706 1.385 . S
C1707 C1708 1.389 . S
C1708 C1707 1.389 . S
C1708 C1709 1.387 . S
C1709 H1694 0.930 . S
C1709 C1704 1.390 . S
C1709 C1708 1.387 . S
H1710 C1722 0.930 . S
H1711 C1724 0.930 . S
H1712 C1725 0.930 . S
H1713 C1729 0.959 . S
H1714 C1729 0.959 . S
H1715 C1729 0.961 . S
H1716 C1730 0.960 . S
H1717 C1730 0.961 . S
H1718 C1730 0.959 . S
H1719 C1733 0.929 . S
H1720 C1734 0.931 . S
H1721 C1736 0.930 . S
C1722 H1710 0.930 . S
C1722 C1723 1.399 . S
C1722 C1727 1.399 . S
C1723 C1722 1.399 . S
C1723 C1724 1.376 1_545 S
C1724 H1711 0.930 . S
C1724 C1723 1.376 1_565 S
C1724 C1725 1.388 . S
C1725 H1712 0.930 . S
C1725 C1724 1.388 . S
C1725 C1726 1.390 1_565 S
C1726 C1725 1.390 1_545 S
C1726 C1727 1.394 . S
C1726 C1732 1.465 . S
C1727 C1722 1.399 . S
C1727 C1726 1.394 . S
C1727 C1728 1.516 . S
C1728 C1727 1.516 . S
C1728 C1729 1.502 . S
C1728 C1730 1.561 . S
C1728 C1731 1.526 . S
C1729 H1713 0.959 . S
C1729 H1714 0.959 . S
C1729 H1715 0.961 . S
C1729 C1728 1.502 . S
C1730 H1716 0.960 . S
C1730 H1717 0.961 . S
C1730 H1718 0.959 . S
C1730 C1728 1.561 . S
C1731 C1728 1.526 . S
C1731 C1732 1.396 . S
C1731 C1736 1.390 . S
C1732 C1726 1.465 . S
C1732 C1731 1.396 . S
C1732 C1733 1.399 1_545 S
C1733 H1719 0.929 . S
C1733 C1732 1.399 1_565 S
C1733 C1734 1.385 . S
C1734 H1720 0.931 . S
C1734 C1733 1.385 . S
C1734 C1735 1.389 1_565 S
C1735 C1734 1.389 1_545 S
C1735 C1736 1.387 . S
C1736 H1721 0.930 . S
C1736 C1731 1.390 . S
C1736 C1735 1.387 . S
H1737 C1749 0.930 . S
H1738 C1751 0.930 . S
H1739 C1752 0.930 . S
H1740 C1756 0.959 . S
H1741 C1756 0.959 . S
H1742 C1756 0.961 . S
H1743 C1757 0.960 . S
H1744 C1757 0.961 . S
H1745 C1757 0.959 . S
H1746 C1760 0.929 . S
H1747 C1761 0.931 . S
H1748 C1763 0.930 . S
C1749 H1737 0.930 . S
C1749 C1750 1.399 . S
C1749 C1754 1.399 . S
C1750 C1749 1.399 . S
C1750 C1751 1.376 . S
C1751 H1738 0.930 . S
C1751 C1750 1.376 . S
C1751 C1752 1.388 . S
C1752 H1739 0.930 . S
C1752 C1751 1.388 . S
C1752 C1753 1.390 . S
C1753 C1752 1.390 . S
C1753 C1754 1.394 . S
C1753 C1759 1.465 . S
C1754 C1749 1.399 . S
C1754 C1753 1.394 . S
C1754 C1755 1.516 . S
C1755 C1754 1.516 . S
C1755 C1756 1.502 . S
C1755 C1757 1.561 . S
C1755 C1758 1.526 . S
C1756 H1740 0.959 . S
C1756 H1741 0.959 . S
C1756 H1742 0.961 . S
C1756 C1755 1.502 . S
C1757 H1743 0.960 . S
C1757 H1744 0.961 . S
C1757 H1745 0.959 . S
C1757 C1755 1.561 . S
C1758 C1755 1.526 . S
C1758 C1759 1.396 . S
C1758 C1763 1.390 . S
C1759 C1753 1.465 . S
C1759 C1758 1.396 . S
C1759 C1760 1.399 . S
C1760 H1746 0.929 . S
C1760 C1759 1.399 . S
C1760 C1761 1.385 . S
C1761 H1747 0.931 . S
C1761 C1760 1.385 . S
C1761 C1762 1.389 . S
C1762 C1761 1.389 . S
C1762 C1763 1.387 . S
C1763 H1748 0.930 . S
C1763 C1758 1.390 . S
C1763 C1762 1.387 . S
H1764 C1776 0.930 . S
H1765 C1778 0.930 . S
H1766 C1779 0.930 . S
H1767 C1783 0.959 . S
H1768 C1783 0.959 . S
H1769 C1783 0.961 . S
H1770 C1784 0.960 . S
H1771 C1784 0.961 . S
H1772 C1784 0.959 . S
H1773 C1787 0.929 1_565 S
H1774 C1788 0.931 1_465 S
H1775 C1790 0.930 . S
C1776 H1764 0.930 . S
C1776 C1777 1.399 . S
C1776 C1781 1.399 . S
C1777 C1776 1.399 . S
C1777 C1778 1.376 . S
C1778 H1765 0.930 . S
C1778 C1777 1.376 . S
C1778 C1779 1.388 . S
C1779 H1766 0.930 . S
C1779 C1778 1.388 . S
C1779 C1780 1.390 . S
C1780 C1779 1.390 . S
C1780 C1781 1.394 . S
C1780 C1786 1.465 . S
C1781 C1776 1.399 . S
C1781 C1780 1.394 . S
C1781 C1782 1.516 . S
C1782 C1781 1.516 . S
C1782 C1783 1.502 . S
C1782 C1784 1.561 . S
C1782 C1785 1.526 . S
C1783 H1767 0.959 . S
C1783 H1768 0.959 . S
C1783 H1769 0.961 . S
C1783 C1782 1.502 . S
C1784 H1770 0.960 . S
C1784 H1771 0.961 . S
C1784 H1772 0.959 . S
C1784 C1782 1.561 . S
C1785 C1782 1.526 . S
C1785 C1786 1.396 . S
C1785 C1790 1.390 . S
C1786 C1780 1.465 . S
C1786 C1785 1.396 . S
C1786 C1787 1.399 . S
C1787 H1773 0.929 1_545 S
C1787 C1786 1.399 . S
C1787 C1788 1.385 . S
C1788 H1774 0.931 1_645 S
C1788 C1787 1.385 . S
C1788 C1789 1.389 . S
C1789 C1788 1.389 . S
C1789 C1790 1.387 . S
C1790 H1775 0.930 . S
C1790 C1785 1.390 . S
C1790 C1789 1.387 . S
H1791 C1803 0.930 . S
H1792 C1805 0.930 . S
H1793 C1806 0.930 . S
H1794 C1810 0.959 . S
H1795 C1810 0.959 . S
H1796 C1810 0.961 . S
H1797 C1811 0.960 . S
H1798 C1811 0.961 . S
H1799 C1811 0.959 . S
H1800 C1814 0.929 . S
H1801 C1815 0.931 . S
H1802 C1817 0.930 . S
C1803 H1791 0.930 . S
C1803 C1804 1.399 . S
C1803 C1808 1.399 . S
C1804 C1803 1.399 . S
C1804 C1805 1.376 . S
C1805 H1792 0.930 . S
C1805 C1804 1.376 . S
C1805 C1806 1.388 . S
C1806 H1793 0.930 . S
C1806 C1805 1.388 . S
C1806 C1807 1.390 . S
C1807 C1806 1.390 . S
C1807 C1808 1.394 . S
C1807 C1813 1.465 . S
C1808 C1803 1.399 . S
C1808 C1807 1.394 . S
C1808 C1809 1.516 . S
C1809 C1808 1.516 . S
C1809 C1810 1.502 . S
C1809 C1811 1.561 . S
C1809 C1812 1.526 . S
C1810 H1794 0.959 . S
C1810 H1795 0.959 . S
C1810 H1796 0.961 . S
C1810 C1809 1.502 . S
C1811 H1797 0.960 . S
C1811 H1798 0.961 . S
C1811 H1799 0.959 . S
C1811 C1809 1.561 . S
C1812 C1809 1.526 . S
C1812 C1813 1.396 . S
C1812 C1817 1.390 . S
C1813 C1807 1.465 . S
C1813 C1812 1.396 . S
C1813 C1814 1.399 . S
C1814 H1800 0.929 . S
C1814 C1813 1.399 . S
C1814 C1815 1.385 . S
C1815 H1801 0.931 . S
C1815 C1814 1.385 . S
C1815 C1816 1.389 . S
C1816 C1815 1.389 . S
C1816 C1817 1.387 . S
C1817 H1802 0.930 . S
C1817 C1812 1.390 . S
C1817 C1816 1.387 . S
H1818 C1830 0.930 1_565 S
H1819 C1832 0.930 . S
H1820 C1833 0.930 . S
H1821 C1837 0.959 . S
H1822 C1837 0.959 . S
H1823 C1837 0.961 . S
H1824 C1838 0.960 . S
H1825 C1838 0.961 . S
H1826 C1838 0.959 . S
H1827 C1841 0.929 . S
H1828 C1842 0.931 . S
H1829 C1844 0.930 . S
C1830 H1818 0.930 1_545 S
C1830 C1831 1.399 . S
C1830 C1835 1.399 . S
C1831 C1830 1.399 . S
C1831 C1832 1.376 . S
C1832 H1819 0.930 . S
C1832 C1831 1.376 . S
C1832 C1833 1.388 . S
C1833 H1820 0.930 . S
C1833 C1832 1.388 . S
C1833 C1834 1.390 . S
C1834 C1833 1.390 . S
C1834 C1835 1.394 . S
C1834 C1840 1.465 . S
C1835 C1830 1.399 . S
C1835 C1834 1.394 . S
C1835 C1836 1.516 . S
C1836 C1835 1.516 . S
C1836 C1837 1.502 . S
C1836 C1838 1.561 1_545 S
C1836 C1839 1.526 . S
C1837 H1821 0.959 . S
C1837 H1822 0.959 . S
C1837 H1823 0.961 . S
C1837 C1836 1.502 . S
C1838 H1824 0.960 . S
C1838 H1825 0.961 . S
C1838 H1826 0.959 . S
C1838 C1836 1.561 1_565 S
C1839 C1836 1.526 . S
C1839 C1840 1.396 . S
C1839 C1844 1.390 . S
C1840 C1834 1.465 . S
C1840 C1839 1.396 . S
C1840 C1841 1.399 . S
C1841 H1827 0.929 . S
C1841 C1840 1.399 . S
C1841 C1842 1.385 . S
C1842 H1828 0.931 . S
C1842 C1841 1.385 . S
C1842 C1843 1.389 . S
C1843 C1842 1.389 . S
C1843 C1844 1.387 . S
C1844 H1829 0.930 . S
C1844 C1839 1.390 . S
C1844 C1843 1.387 . S
H1845 C1857 0.930 . S
H1846 C1859 0.930 . S
H1847 C1860 0.930 . S
H1848 C1864 0.959 . S
H1849 C1864 0.959 . S
H1850 C1864 0.961 . S
H1851 C1865 0.960 . S
H1852 C1865 0.961 . S
H1853 C1865 0.959 . S
H1854 C1868 0.929 . S
H1855 C1869 0.931 . S
H1856 C1871 0.930 . S
C1857 H1845 0.930 . S
C1857 C1858 1.399 . S
C1857 C1862 1.399 . S
C1858 C1857 1.399 . S
C1858 C1859 1.376 . S
C1859 H1846 0.930 . S
C1859 C1858 1.376 . S
C1859 C1860 1.388 . S
C1860 H1847 0.930 . S
C1860 C1859 1.388 . S
C1860 C1861 1.390 . S
C1861 C1860 1.390 . S
C1861 C1862 1.394 . S
C1861 C1867 1.465 . S
C1862 C1857 1.399 . S
C1862 C1861 1.394 . S
C1862 C1863 1.516 . S
C1863 C1862 1.516 . S
C1863 C1864 1.502 . S
C1863 C1865 1.561 . S
C1863 C1866 1.526 . S
C1864 H1848 0.959 . S
C1864 H1849 0.959 . S
C1864 H1850 0.961 . S
C1864 C1863 1.502 . S
C1865 H1851 0.960 . S
C1865 H1852 0.961 . S
C1865 H1853 0.959 . S
C1865 C1863 1.561 . S
C1866 C1863 1.526 . S
C1866 C1867 1.396 . S
C1866 C1871 1.390 . S
C1867 C1861 1.465 . S
C1867 C1866 1.396 . S
C1867 C1868 1.399 . S
C1868 H1854 0.929 . S
C1868 C1867 1.399 . S
C1868 C1869 1.385 . S
C1869 H1855 0.931 . S
C1869 C1868 1.385 . S
C1869 C1870 1.389 . S
C1870 C1869 1.389 . S
C1870 C1871 1.387 . S
C1871 H1856 0.930 . S
C1871 C1866 1.390 . S
C1871 C1870 1.387 . S
H1872 C1884 0.957 . S
H1873 C1886 0.930 . S
H1874 C1887 0.930 . S
H1875 C1891 0.959 1_565 S
H1876 C1891 0.959 . S
H1877 C1891 0.963 . S
H1878 C1892 0.960 . S
H1879 C1892 0.961 . S
H1880 C1892 0.959 . S
H1881 C1895 0.929 . S
H1882 C1896 0.931 . S
H1883 C1898 0.930 . S
C1884 H1872 0.957 . S
C1884 C1885 1.399 . S
C1884 C1889 1.399 . S
C1885 C1884 1.399 . S
C1885 C1886 1.376 . S
C1886 H1873 0.930 . S
C1886 C1885 1.376 . S
C1886 C1887 1.388 . S
C1887 H1874 0.930 . S
C1887 C1886 1.388 . S
C1887 C1888 1.390 . S
C1888 C1887 1.390 . S
C1888 C1889 1.394 . S
C1888 C1894 1.465 . S
C1889 C1884 1.399 . S
C1889 C1888 1.394 . S
C1889 C1890 1.516 1_565 S
C1890 C1889 1.516 1_545 S
C1890 C1891 1.502 1_554 S
C1890 C1892 1.561 . S
C1890 C1893 1.523 1_545 S
C1891 H1875 0.959 1_545 S
C1891 H1876 0.959 . S
C1891 H1877 0.963 . S
C1891 C1890 1.502 1_556 S
C1892 H1878 0.960 . S
C1892 H1879 0.961 . S
C1892 H1880 0.959 . S
C1892 C1890 1.561 . S
C1893 C1890 1.523 1_565 S
C1893 C1894 1.431 . S
C1893 C1898 1.364 1_565 S
C1894 C1888 1.465 . S
C1894 C1893 1.431 . S
C1894 C1895 1.399 . S
C1895 H1881 0.929 . S
C1895 C1894 1.399 . S
C1895 C1896 1.385 . S
C1896 H1882 0.931 . S
C1896 C1895 1.385 . S
C1896 C1897 1.389 1_565 S
C1897 C1896 1.389 1_545 S
C1897 C1898 1.387 . S
C1898 H1883 0.930 . S
C1898 C1893 1.364 1_545 S
C1898 C1897 1.387 . S
H1899 C1911 0.930 . S
H1900 C1913 0.930 . S
H1901 C1914 0.930 . S
H1902 C1918 0.959 . S
H1903 C1918 0.959 . S
H1904 C1918 0.961 . S
H1905 C1919 0.960 . S
H1906 C1919 0.961 . S
H1907 C1919 0.959 . S
H1908 C1922 0.929 . S
H1909 C1923 0.931 . S
H1910 C1925 0.930 . S
C1911 H1899 0.930 . S
C1911 C1912 1.427 . S
C1911 C1916 1.399 . S
C1912 C1911 1.427 . S
C1912 C1913 1.339 1_556 S
C1913 H1900 0.930 . S
C1913 C1912 1.339 1_554 S
C1913 C1914 1.388 . S
C1914 H1901 0.930 . S
C1914 C1913 1.388 . S
C1914 C1915 1.390 . S
C1915 C1914 1.390 . S
C1915 C1916 1.394 1_554 S
C1915 C1921 1.465 . S
C1916 C1911 1.399 . S
C1916 C1915 1.394 1_556 S
C1916 C1917 1.516 . S
C1917 C1916 1.516 . S
C1917 C1918 1.502 . S
C1917 C1919 1.561 . S
C1917 C1920 1.526 . S
C1918 H1902 0.959 . S
C1918 H1903 0.959 . S
C1918 H1904 0.961 . S
C1918 C1917 1.502 . S
C1919 H1905 0.960 . S
C1919 H1906 0.961 . S
C1919 H1907 0.959 . S
C1919 C1917 1.561 . S
C1920 C1917 1.526 . S
C1920 C1921 1.396 1_556 S
C1920 C1925 1.390 . S
C1921 C1915 1.465 . S
C1921 C1920 1.396 1_554 S
C1921 C1922 1.399 . S
C1922 H1908 0.929 . S
C1922 C1921 1.399 . S
C1922 C1923 1.385 . S
C1923 H1909 0.931 . S
C1923 C1922 1.385 . S
C1923 C1924 1.389 . S
C1924 C1923 1.389 . S
C1924 C1925 1.387 1_554 S
C1925 H1910 0.930 . S
C1925 C1920 1.390 . S
C1925 C1924 1.387 1_556 S
H1926 C1938 0.930 . S
H1927 C1940 0.930 . S
H1928 C1941 0.930 . S
H1929 C1945 0.959 . S
H1930 C1945 0.959 . S
H1931 C1945 0.961 . S
H1932 C1946 0.960 . S
H1933 C1946 0.961 . S
H1934 C1946 0.959 . S
H1935 C1949 0.929 . S
H1936 C1950 0.931 . S
H1937 C1952 0.930 . S
C1938 H1926 0.930 . S
C1938 C1939 1.399 . S
C1938 C1943 1.399 . S
C1939 C1938 1.399 . S
C1939 C1940 1.376 . S
C1940 H1927 0.930 . S
C1940 C1939 1.376 . S
C1940 C1941 1.388 . S
C1941 H1928 0.930 . S
C1941 C1940 1.388 . S
C1941 C1942 1.390 . S
C1942 C1941 1.390 . S
C1942 C1943 1.394 . S
C1942 C1948 1.465 . S
C1943 C1938 1.399 . S
C1943 C1942 1.394 . S
C1943 C1944 1.516 . S
C1944 C1943 1.516 . S
C1944 C1945 1.502 . S
C1944 C1946 1.561 . S
C1944 C1947 1.526 . S
C1945 H1929 0.959 . S
C1945 H1930 0.959 . S
C1945 H1931 0.961 . S
C1945 C1944 1.502 . S
C1946 H1932 0.960 . S
C1946 H1933 0.961 . S
C1946 H1934 0.959 . S
C1946 C1944 1.561 . S
C1947 C1944 1.526 . S
C1947 C1948 1.396 . S
C1947 C1952 1.390 . S
C1948 C1942 1.465 . S
C1948 C1947 1.396 . S
C1948 C1949 1.399 . S
C1949 H1935 0.929 . S
C1949 C1948 1.399 . S
C1949 C1950 1.385 . S
C1950 H1936 0.931 . S
C1950 C1949 1.385 . S
C1950 C1951 1.389 . S
C1951 C1950 1.389 . S
C1951 C1952 1.387 . S
C1952 H1937 0.930 . S
C1952 C1947 1.390 . S
C1952 C1951 1.387 . S
H1953 C1965 0.930 . S
H1954 C1967 0.930 . S
H1955 C1968 0.930 . S
H1956 C1972 0.959 . S
H1957 C1972 0.959 . S
H1958 C1972 0.961 . S
H1959 C1973 0.960 . S
H1960 C1973 0.961 . S
H1961 C1973 0.959 . S
H1962 C1976 0.929 . S
H1963 C1977 0.931 . S
H1964 C1979 0.930 . S
C1965 H1953 0.930 . S
C1965 C1966 1.399 . S
C1965 C1970 1.399 . S
C1966 C1965 1.399 . S
C1966 C1967 1.376 . S
C1967 H1954 0.930 . S
C1967 C1966 1.376 . S
C1967 C1968 1.388 . S
C1968 H1955 0.930 . S
C1968 C1967 1.388 . S
C1968 C1969 1.390 . S
C1969 C1968 1.390 . S
C1969 C1970 1.394 . S
C1969 C1975 1.465 . S
C1970 C1965 1.399 . S
C1970 C1969 1.394 . S
C1970 C1971 1.516 . S
C1971 C1970 1.516 . S
C1971 C1972 1.502 . S
C1971 C1973 1.561 . S
C1971 C1974 1.526 . S
C1972 H1956 0.959 . S
C1972 H1957 0.959 . S
C1972 H1958 0.961 . S
C1972 C1971 1.502 . S
C1973 H1959 0.960 . S
C1973 H1960 0.961 . S
C1973 H1961 0.959 . S
C1973 C1971 1.561 . S
C1974 C1971 1.526 . S
C1974 C1975 1.396 . S
C1974 C1979 1.390 . S
C1975 C1969 1.465 . S
C1975 C1974 1.396 . S
C1975 C1976 1.399 . S
C1976 H1962 0.929 . S
C1976 C1975 1.399 . S
C1976 C1977 1.385 . S
C1977 H1963 0.931 . S
C1977 C1976 1.385 . S
C1977 C1978 1.389 . S
C1978 C1977 1.389 . S
C1978 C1979 1.387 . S
C1979 H1964 0.930 . S
C1979 C1974 1.390 . S
C1979 C1978 1.387 . S
H1980 C1992 0.930 1_545 S
H1981 C1994 0.930 . S
H1982 C1995 0.930 . S
H1983 C1999 0.959 . S
H1984 C1999 0.959 . S
H1985 C1999 0.961 . S
H1986 C2000 0.960 . S
H1987 C2000 0.961 . S
H1988 C2000 0.959 . S
H1989 C2003 0.929 . S
H1990 C2004 0.931 . S
H1991 C2006 0.930 . S
C1992 H1980 0.930 1_565 S
C1992 C1993 1.386 1_565 S
C1992 C1997 1.399 . S
C1993 C1992 1.386 1_545 S
C1993 C1994 1.355 1_545 S
C1994 H1981 0.930 . S
C1994 C1993 1.355 1_565 S
C1994 C1995 1.388 . S
C1995 H1982 0.930 . S
C1995 C1994 1.388 . S
C1995 C1996 1.390 . S
C1996 C1995 1.390 . S
C1996 C1997 1.394 . S
C1996 C2002 1.465 . S
C1997 C1992 1.399 . S
C1997 C1996 1.394 . S
C1997 C1998 1.516 . S
C1998 C1997 1.516 . S
C1998 C1999 1.502 . S
C1998 C2000 1.561 . S
C1998 C2001 1.526 . S
C1999 H1983 0.959 . S
C1999 H1984 0.959 . S
C1999 H1985 0.961 . S
C1999 C1998 1.502 . S
C2000 H1986 0.960 . S
C2000 H1987 0.961 . S
C2000 H1988 0.959 . S
C2000 C1998 1.561 . S
C2001 C1998 1.526 . S
C2001 C2002 1.396 . S
C2001 C2006 1.390 . S
C2002 C1996 1.465 . S
C2002 C2001 1.396 . S
C2002 C2003 1.399 . S
C2003 H1989 0.929 . S
C2003 C2002 1.399 . S
C2003 C2004 1.385 . S
C2004 H1990 0.931 . S
C2004 C2003 1.385 . S
C2004 C2005 1.389 . S
C2005 C2004 1.389 . S
C2005 C2006 1.387 . S
C2006 H1991 0.930 . S
C2006 C2001 1.390 . S
C2006 C2005 1.387 . S
H2007 C2019 0.930 . S
H2008 C2021 0.930 . S
H2009 C2022 0.930 . S
H2010 C2026 0.959 . S
H2011 C2026 0.959 . S
H2012 C2026 0.961 . S
H2013 C2027 0.960 . S
H2014 C2027 0.961 . S
H2015 C2027 0.959 . S
H2016 C2030 0.929 . S
H2017 C2031 0.931 . S
H2018 C2033 0.930 . S
C2019 H2007 0.930 . S
C2019 C2020 1.399 . S
C2019 C2024 1.399 . S
C2020 C2019 1.399 . S
C2020 C2021 1.376 . S
C2021 H2008 0.930 . S
C2021 C2020 1.376 . S
C2021 C2022 1.388 . S
C2022 H2009 0.930 . S
C2022 C2021 1.388 . S
C2022 C2023 1.390 . S
C2023 C2022 1.390 . S
C2023 C2024 1.394 . S
C2023 C2029 1.465 . S
C2024 C2019 1.399 . S
C2024 C2023 1.394 . S
C2024 C2025 1.516 . S
C2025 C2024 1.516 . S
C2025 C2026 1.502 . S
C2025 C2027 1.561 . S
C2025 C2028 1.526 . S
C2026 H2010 0.959 . S
C2026 H2011 0.959 . S
C2026 H2012 0.961 . S
C2026 C2025 1.502 . S
C2027 H2013 0.960 . S
C2027 H2014 0.961 . S
C2027 H2015 0.959 . S
C2027 C2025 1.561 . S
C2028 C2025 1.526 . S
C2028 C2029 1.396 . S
C2028 C2033 1.390 . S
C2029 C2023 1.465 . S
C2029 C2028 1.396 . S
C2029 C2030 1.399 . S
C2030 H2016 0.929 . S
C2030 C2029 1.399 . S
C2030 C2031 1.385 . S
C2031 H2017 0.931 . S
C2031 C2030 1.385 . S
C2031 C2032 1.389 . S
C2032 C2031 1.389 . S
C2032 C2033 1.387 . S
C2033 H2018 0.930 . S
C2033 C2028 1.390 . S
C2033 C2032 1.387 . S
H2034 C2046 0.930 . S
H2035 C2048 0.930 . S
H2036 C2049 0.930 . S
H2037 C2053 0.959 . S
H2038 C2053 0.959 . S
H2039 C2053 0.961 . S
H2040 C2054 0.960 . S
H2041 C2054 0.961 . S
H2042 C2054 0.959 . S
H2043 C2057 0.929 . S
H2044 C2058 0.931 . S
H2045 C2060 0.930 . S
C2046 H2034 0.930 . S
C2046 C2047 1.399 . S
C2046 C2051 1.399 . S
C2047 C2046 1.399 . S
C2047 C2048 1.376 . S
C2048 H2035 0.930 . S
C2048 C2047 1.376 . S
C2048 C2049 1.388 . S
C2049 H2036 0.930 . S
C2049 C2048 1.388 . S
C2049 C2050 1.390 . S
C2050 C2049 1.390 . S
C2050 C2051 1.394 . S
C2050 C2056 1.465 . S
C2051 C2046 1.399 . S
C2051 C2050 1.394 . S
C2051 C2052 1.516 . S
C2052 C2051 1.516 . S
C2052 C2053 1.502 . S
C2052 C2054 1.561 . S
C2052 C2055 1.526 . S
C2053 H2037 0.959 . S
C2053 H2038 0.959 . S
C2053 H2039 0.961 . S
C2053 C2052 1.502 . S
C2054 H2040 0.960 . S
C2054 H2041 0.961 . S
C2054 H2042 0.959 . S
C2054 C2052 1.561 . S
C2055 C2052 1.526 . S
C2055 C2056 1.396 . S
C2055 C2060 1.390 . S
C2056 C2050 1.465 . S
C2056 C2055 1.396 . S
C2056 C2057 1.399 . S
C2057 H2043 0.929 . S
C2057 C2056 1.399 . S
C2057 C2058 1.385 . S
C2058 H2044 0.931 . S
C2058 C2057 1.385 . S
C2058 C2059 1.389 . S
C2059 C2058 1.389 . S
C2059 C2060 1.387 . S
C2060 H2045 0.930 . S
C2060 C2055 1.390 . S
C2060 C2059 1.387 . S
H2061 C2073 0.930 . S
H2062 C2075 0.930 . S
H2063 C2076 0.930 . S
H2064 C2080 0.959 . S
H2065 C2080 0.959 . S
H2066 C2080 0.961 . S
H2067 C2081 0.960 . S
H2068 C2081 0.961 . S
H2069 C2081 0.959 . S
H2070 C2084 0.929 . S
H2071 C2085 0.931 . S
H2072 C2087 0.930 . S
C2073 H2061 0.930 . S
C2073 C2074 1.399 . S
C2073 C2078 1.399 . S
C2074 C2073 1.399 . S
C2074 C2075 1.376 . S
C2075 H2062 0.930 . S
C2075 C2074 1.376 . S
C2075 C2076 1.388 . S
C2076 H2063 0.930 . S
C2076 C2075 1.388 . S
C2076 C2077 1.390 . S
C2077 C2076 1.390 . S
C2077 C2078 1.394 . S
C2077 C2083 1.465 . S
C2078 C2073 1.399 . S
C2078 C2077 1.394 . S
C2078 C2079 1.516 . S
C2079 C2078 1.516 . S
C2079 C2080 1.502 . S
C2079 C2081 1.561 . S
C2079 C2082 1.526 . S
C2080 H2064 0.959 . S
C2080 H2065 0.959 . S
C2080 H2066 0.961 . S
C2080 C2079 1.502 . S
C2081 H2067 0.960 . S
C2081 H2068 0.961 . S
C2081 H2069 0.959 . S
C2081 C2079 1.561 . S
C2082 C2079 1.526 . S
C2082 C2083 1.396 . S
C2082 C2087 1.390 . S
C2083 C2077 1.465 . S
C2083 C2082 1.396 . S
C2083 C2084 1.399 . S
C2084 H2070 0.929 . S
C2084 C2083 1.399 . S
C2084 C2085 1.385 . S
C2085 H2071 0.931 . S
C2085 C2084 1.385 . S
C2085 C2086 1.389 . S
C2086 C2085 1.389 . S
C2086 C2087 1.387 . S
C2087 H2072 0.930 . S
C2087 C2082 1.390 . S
C2087 C2086 1.387 . S
H2088 C2100 0.930 . S
H2089 C2102 0.930 . S
H2090 C2103 0.930 . S
H2091 C2107 0.959 . S
H2092 C2107 0.959 . S
H2093 C2107 0.961 . S
H2094 C2108 0.960 . S
H2095 C2108 0.961 . S
H2096 C2108 0.959 . S
H2097 C2111 0.929 . S
H2098 C2112 0.931 . S
H2099 C2114 0.930 . S
C2100 H2088 0.930 . S
C2100 C2101 1.399 . S
C2100 C2105 1.399 . S
C2101 C2100 1.399 . S
C2101 C2102 1.376 . S
C2102 H2089 0.930 . S
C2102 C2101 1.376 . S
C2102 C2103 1.388 . S
C2103 H2090 0.930 . S
C2103 C2102 1.388 . S
C2103 C2104 1.390 . S
C2104 C2103 1.390 . S
C2104 C2105 1.394 . S
C2104 C2110 1.465 . S
C2105 C2100 1.399 . S
C2105 C2104 1.394 . S
C2105 C2106 1.516 . S
C2106 C2105 1.516 . S
C2106 C2107 1.502 . S
C2106 C2108 1.561 . S
C2106 C2109 1.526 . S
C2107 H2091 0.959 . S
C2107 H2092 0.959 . S
C2107 H2093 0.961 . S
C2107 C2106 1.502 . S
C2108 H2094 0.960 . S
C2108 H2095 0.961 . S
C2108 H2096 0.959 . S
C2108 C2106 1.561 . S
C2109 C2106 1.526 . S
C2109 C2110 1.396 . S
C2109 C2114 1.390 . S
C2110 C2104 1.465 . S
C2110 C2109 1.396 . S
C2110 C2111 1.399 . S
C2111 H2097 0.929 . S
C2111 C2110 1.399 . S
C2111 C2112 1.385 . S
C2112 H2098 0.931 . S
C2112 C2111 1.385 . S
C2112 C2113 1.389 . S
C2113 C2112 1.389 . S
C2113 C2114 1.387 . S
C2114 H2099 0.930 . S
C2114 C2109 1.390 . S
C2114 C2113 1.387 . S
H2115 C2127 0.930 . S
H2116 C2129 0.930 . S
H2117 C2130 0.930 . S
H2118 C2134 0.959 . S
H2119 C2134 0.959 . S
H2120 C2134 0.961 . S
H2121 C2135 0.960 . S
H2122 C2135 0.961 . S
H2123 C2135 0.959 . S
H2124 C2138 0.929 . S
H2125 C2139 0.931 . S
H2126 C2141 0.930 . S
C2127 H2115 0.930 . S
C2127 C2128 1.399 . S
C2127 C2132 1.399 . S
C2128 C2127 1.399 . S
C2128 C2129 1.376 . S
C2129 H2116 0.930 . S
C2129 C2128 1.376 . S
C2129 C2130 1.388 . S
C2130 H2117 0.930 . S
C2130 C2129 1.388 . S
C2130 C2131 1.390 . S
C2131 C2130 1.390 . S
C2131 C2132 1.394 . S
C2131 C2137 1.465 . S
C2132 C2127 1.399 . S
C2132 C2131 1.394 . S
C2132 C2133 1.516 . S
C2133 C2132 1.516 . S
C2133 C2134 1.502 . S
C2133 C2135 1.561 . S
C2133 C2136 1.526 . S
C2134 H2118 0.959 . S
C2134 H2119 0.959 . S
C2134 H2120 0.961 . S
C2134 C2133 1.502 . S
C2135 H2121 0.960 . S
C2135 H2122 0.961 . S
C2135 H2123 0.959 . S
C2135 C2133 1.561 . S
C2136 C2133 1.526 . S
C2136 C2137 1.396 . S
C2136 C2141 1.390 . S
C2137 C2131 1.465 . S
C2137 C2136 1.396 . S
C2137 C2138 1.399 . S
C2138 H2124 0.929 . S
C2138 C2137 1.399 . S
C2138 C2139 1.385 . S
C2139 H2125 0.931 . S
C2139 C2138 1.385 . S
C2139 C2140 1.389 . S
C2140 C2139 1.389 . S
C2140 C2141 1.387 . S
C2141 H2126 0.930 . S
C2141 C2136 1.390 . S
C2141 C2140 1.387 . S
H2142 C2154 0.930 . S
H2143 C2156 0.930 . S
H2144 C2157 0.930 . S
H2145 C2161 0.959 . S
H2146 C2161 0.959 . S
H2147 C2161 0.961 . S
H2148 C2162 0.960 . S
H2149 C2162 0.961 . S
H2150 C2162 0.959 . S
H2151 C2165 0.929 . S
H2152 C2166 0.931 . S
H2153 C2168 0.930 . S
C2154 H2142 0.930 . S
C2154 C2155 1.399 . S
C2154 C2159 1.399 . S
C2155 C2154 1.399 . S
C2155 C2156 1.376 . S
C2156 H2143 0.930 . S
C2156 C2155 1.376 . S
C2156 C2157 1.388 . S
C2157 H2144 0.930 . S
C2157 C2156 1.388 . S
C2157 C2158 1.390 . S
C2158 C2157 1.390 . S
C2158 C2159 1.394 . S
C2158 C2164 1.465 . S
C2159 C2154 1.399 . S
C2159 C2158 1.394 . S
C2159 C2160 1.516 . S
C2160 C2159 1.516 . S
C2160 C2161 1.502 . S
C2160 C2162 1.561 1_455 S
C2160 C2163 1.526 . S
C2161 H2145 0.959 . S
C2161 H2146 0.959 . S
C2161 H2147 0.961 . S
C2161 C2160 1.502 . S
C2162 H2148 0.960 . S
C2162 H2149 0.961 . S
C2162 H2150 0.959 . S
C2162 C2160 1.561 1_655 S
C2163 C2160 1.526 . S
C2163 C2164 1.396 . S
C2163 C2168 1.390 . S
C2164 C2158 1.465 . S
C2164 C2163 1.396 . S
C2164 C2165 1.399 . S
C2165 H2151 0.929 . S
C2165 C2164 1.399 . S
C2165 C2166 1.385 . S
C2166 H2152 0.931 . S
C2166 C2165 1.385 . S
C2166 C2167 1.389 . S
C2167 C2166 1.389 . S
C2167 C2168 1.387 . S
C2168 H2153 0.930 . S
C2168 C2163 1.390 . S
C2168 C2167 1.387 . S
H2169 C2181 0.930 . S
H2170 C2183 0.947 . S
H2171 C2184 0.930 . S
H2172 C2188 0.959 . S
H2173 C2188 0.959 . S
H2174 C2188 0.961 . S
H2175 C2189 0.960 . S
H2176 C2189 0.961 . S
H2177 C2189 0.959 . S
H2178 C2192 0.929 . S
H2179 C2193 0.931 . S
H2180 C2195 0.930 . S
C2181 H2169 0.930 . S
C2181 C2182 1.399 . S
C2181 C2186 1.399 . S
C2182 C2181 1.399 . S
C2182 C2183 1.376 . S
C2183 H2170 0.947 . S
C2183 C2182 1.376 . S
C2183 C2184 1.388 . S
C2184 H2171 0.930 . S
C2184 C2183 1.388 . S
C2184 C2185 1.390 . S
C2185 C2184 1.390 . S
C2185 C2186 1.394 . S
C2185 C2191 1.465 . S
C2186 C2181 1.399 . S
C2186 C2185 1.394 . S
C2186 C2187 1.516 . S
C2187 C2186 1.516 . S
C2187 C2188 1.502 . S
C2187 C2189 1.561 . S
C2187 C2190 1.526 . S
C2188 H2172 0.959 . S
C2188 H2173 0.959 . S
C2188 H2174 0.961 . S
C2188 C2187 1.502 . S
C2189 H2175 0.960 . S
C2189 H2176 0.961 . S
C2189 H2177 0.959 . S
C2189 C2187 1.561 . S
C2190 C2187 1.526 . S
C2190 C2191 1.396 . S
C2190 C2195 1.390 . S
C2191 C2185 1.465 . S
C2191 C2190 1.396 . S
C2191 C2192 1.399 . S
C2192 H2178 0.929 . S
C2192 C2191 1.399 . S
C2192 C2193 1.385 . S
C2193 H2179 0.931 . S
C2193 C2192 1.385 . S
C2193 C2194 1.389 . S
C2194 C2193 1.389 . S
C2194 C2195 1.387 . S
C2195 H2180 0.930 . S
C2195 C2190 1.390 . S
C2195 C2194 1.387 . S
H2196 C2208 0.930 . S
H2197 C2210 0.930 . S
H2198 C2211 0.930 . S
H2199 C2215 0.959 1_556 S
H2200 C2215 0.959 . S
H2201 C2215 0.961 . S
H2202 C2216 0.960 . S
H2203 C2216 0.961 . S
H2204 C2216 0.959 . S
H2205 C2219 0.929 . S
H2206 C2220 0.931 . S
H2207 C2222 0.930 1_554 S
C2208 H2196 0.930 . S
C2208 C2209 1.399 . S
C2208 C2213 1.399 . S
C2209 C2208 1.399 . S
C2209 C2210 1.376 . S
C2210 H2197 0.930 . S
C2210 C2209 1.376 . S
C2210 C2211 1.388 . S
C2211 H2198 0.930 . S
C2211 C2210 1.388 . S
C2211 C2212 1.390 . S
C2212 C2211 1.390 . S
C2212 C2213 1.394 . S
C2212 C2218 1.465 . S
C2213 C2208 1.399 . S
C2213 C2212 1.394 . S
C2213 C2214 1.516 . S
C2214 C2213 1.516 . S
C2214 C2215 1.502 1_556 S
C2214 C2216 1.561 1_556 S
C2214 C2217 1.526 . S
C2215 H2199 0.959 1_554 S
C2215 H2200 0.959 . S
C2215 H2201 0.961 . S
C2215 C2214 1.502 1_554 S
C2216 H2202 0.960 . S
C2216 H2203 0.961 . S
C2216 H2204 0.959 . S
C2216 C2214 1.561 1_554 S
C2217 C2214 1.526 . S
C2217 C2218 1.396 . S
C2217 C2222 1.390 . S
C2218 C2212 1.465 . S
C2218 C2217 1.396 . S
C2218 C2219 1.399 . S
C2219 H2205 0.929 . S
C2219 C2218 1.399 . S
C2219 C2220 1.385 . S
C2220 H2206 0.931 . S
C2220 C2219 1.385 . S
C2220 C2221 1.389 . S
C2221 C2220 1.389 . S
C2221 C2222 1.387 . S
C2222 H2207 0.930 1_556 S
C2222 C2217 1.390 . S
C2222 C2221 1.387 . S
H2223 C2235 0.930 . S
H2224 C2237 0.930 . S
H2225 C2238 0.930 . S
H2226 C2242 0.959 . S
H2227 C2242 0.959 . S
H2228 C2242 0.961 . S
H2229 C2243 0.960 . S
H2230 C2243 0.961 . S
H2231 C2243 0.959 . S
H2232 C2246 0.929 . S
H2233 C2247 0.931 . S
H2234 C2249 0.930 . S
C2235 H2223 0.930 . S
C2235 C2236 1.399 . S
C2235 C2240 1.399 . S
C2236 C2235 1.399 . S
C2236 C2237 1.376 . S
C2237 H2224 0.930 . S
C2237 C2236 1.376 . S
C2237 C2238 1.388 . S
C2238 H2225 0.930 . S
C2238 C2237 1.388 . S
C2238 C2239 1.390 . S
C2239 C2238 1.390 . S
C2239 C2240 1.394 . S
C2239 C2245 1.465 . S
C2240 C2235 1.399 . S
C2240 C2239 1.394 . S
C2240 C2241 1.516 . S
C2241 C2240 1.516 . S
C2241 C2242 1.502 . S
C2241 C2243 1.561 . S
C2241 C2244 1.526 . S
C2242 H2226 0.959 . S
C2242 H2227 0.959 . S
C2242 H2228 0.961 . S
C2242 C2241 1.502 . S
C2243 H2229 0.960 . S
C2243 H2230 0.961 . S
C2243 H2231 0.959 . S
C2243 C2241 1.561 . S
C2244 C2241 1.526 . S
C2244 C2245 1.396 . S
C2244 C2249 1.390 . S
C2245 C2239 1.465 . S
C2245 C2244 1.396 . S
C2245 C2246 1.399 . S
C2246 H2232 0.929 . S
C2246 C2245 1.399 . S
C2246 C2247 1.385 . S
C2247 H2233 0.931 . S
C2247 C2246 1.385 . S
C2247 C2248 1.389 . S
C2248 C2247 1.389 . S
C2248 C2249 1.387 . S
C2249 H2234 0.930 . S
C2249 C2244 1.390 . S
C2249 C2248 1.387 . S
H2250 C2262 0.930 . S
H2251 C2264 0.930 . S
H2252 C2265 0.930 . S
H2253 C2269 0.959 . S
H2254 C2269 0.959 . S
H2255 C2269 0.961 . S
H2256 C2270 0.960 . S
H2257 C2270 0.961 . S
H2258 C2270 0.959 . S
H2259 C2273 0.929 . S
H2260 C2274 0.931 . S
H2261 C2276 0.930 . S
C2262 H2250 0.930 . S
C2262 C2263 1.399 . S
C2262 C2267 1.399 . S
C2263 C2262 1.399 . S
C2263 C2264 1.376 . S
C2264 H2251 0.930 . S
C2264 C2263 1.376 . S
C2264 C2265 1.388 . S
C2265 H2252 0.930 . S
C2265 C2264 1.388 . S
C2265 C2266 1.390 . S
C2266 C2265 1.390 . S
C2266 C2267 1.394 . S
C2266 C2272 1.465 . S
C2267 C2262 1.399 . S
C2267 C2266 1.394 . S
C2267 C2268 1.516 . S
C2268 C2267 1.516 . S
C2268 C2269 1.502 . S
C2268 C2270 1.561 . S
C2268 C2271 1.526 . S
C2269 H2253 0.959 . S
C2269 H2254 0.959 . S
C2269 H2255 0.961 . S
C2269 C2268 1.502 . S
C2270 H2256 0.960 . S
C2270 H2257 0.961 . S
C2270 H2258 0.959 . S
C2270 C2268 1.561 . S
C2271 C2268 1.526 . S
C2271 C2272 1.396 . S
C2271 C2276 1.390 . S
C2272 C2266 1.465 . S
C2272 C2271 1.396 . S
C2272 C2273 1.399 . S
C2273 H2259 0.929 . S
C2273 C2272 1.399 . S
C2273 C2274 1.385 . S
C2274 H2260 0.931 . S
C2274 C2273 1.385 . S
C2274 C2275 1.389 . S
C2275 C2274 1.389 . S
C2275 C2276 1.387 . S
C2276 H2261 0.930 . S
C2276 C2271 1.390 . S
C2276 C2275 1.387 . S
H2277 C2289 0.930 . S
H2278 C2291 0.930 . S
H2279 C2292 0.930 . S
H2280 C2296 0.959 . S
H2281 C2296 0.959 . S
H2282 C2296 0.961 . S
H2283 C2297 0.960 . S
H2284 C2297 0.961 . S
H2285 C2297 0.959 . S
H2286 C2300 0.929 . S
H2287 C2301 0.931 . S
H2288 C2303 0.930 . S
C2289 H2277 0.930 . S
C2289 C2290 1.399 . S
C2289 C2294 1.399 . S
C2290 C2289 1.399 . S
C2290 C2291 1.376 . S
C2291 H2278 0.930 . S
C2291 C2290 1.376 . S
C2291 C2292 1.388 . S
C2292 H2279 0.930 . S
C2292 C2291 1.388 . S
C2292 C2293 1.390 . S
C2293 C2292 1.390 . S
C2293 C2294 1.394 . S
C2293 C2299 1.465 . S
C2294 C2289 1.399 . S
C2294 C2293 1.394 . S
C2294 C2295 1.516 . S
C2295 C2294 1.516 . S
C2295 C2296 1.502 . S
C2295 C2297 1.561 . S
C2295 C2298 1.526 . S
C2296 H2280 0.959 . S
C2296 H2281 0.959 . S
C2296 H2282 0.961 . S
C2296 C2295 1.502 . S
C2297 H2283 0.960 . S
C2297 H2284 0.961 . S
C2297 H2285 0.959 . S
C2297 C2295 1.561 . S
C2298 C2295 1.526 . S
C2298 C2299 1.396 . S
C2298 C2303 1.390 . S
C2299 C2293 1.465 . S
C2299 C2298 1.396 . S
C2299 C2300 1.399 . S
C2300 H2286 0.929 . S
C2300 C2299 1.399 . S
C2300 C2301 1.385 . S
C2301 H2287 0.931 . S
C2301 C2300 1.385 . S
C2301 C2302 1.389 . S
C2302 C2301 1.389 . S
C2302 C2303 1.387 . S
C2303 H2288 0.930 . S
C2303 C2298 1.390 . S
C2303 C2302 1.387 . S
H2304 C2316 0.930 . S
H2305 C2318 0.930 . S
H2306 C2319 0.930 . S
H2307 C2323 0.959 . S
H2308 C2323 0.959 . S
H2309 C2323 0.961 . S
H2310 C2324 0.960 . S
H2311 C2324 0.961 . S
H2312 C2324 0.959 . S
H2313 C2327 0.929 . S
H2314 C2328 0.931 . S
H2315 C2330 0.930 . S
C2316 H2304 0.930 . S
C2316 C2317 1.399 . S
C2316 C2321 1.399 . S
C2317 C2316 1.399 . S
C2317 C2318 1.376 . S
C2318 H2305 0.930 . S
C2318 C2317 1.376 . S
C2318 C2319 1.388 . S
C2319 H2306 0.930 . S
C2319 C2318 1.388 . S
C2319 C2320 1.390 . S
C2320 C2319 1.390 . S
C2320 C2321 1.394 . S
C2320 C2326 1.465 . S
C2321 C2316 1.399 . S
C2321 C2320 1.394 . S
C2321 C2322 1.516 . S
C2322 C2321 1.516 . S
C2322 C2323 1.502 . S
C2322 C2324 1.561 . S
C2322 C2325 1.526 . S
C2323 H2307 0.959 . S
C2323 H2308 0.959 . S
C2323 H2309 0.961 . S
C2323 C2322 1.502 . S
C2324 H2310 0.960 . S
C2324 H2311 0.961 . S
C2324 H2312 0.959 . S
C2324 C2322 1.561 . S
C2325 C2322 1.526 . S
C2325 C2326 1.396 . S
C2325 C2330 1.390 . S
C2326 C2320 1.465 . S
C2326 C2325 1.396 . S
C2326 C2327 1.399 . S
C2327 H2313 0.929 . S
C2327 C2326 1.399 . S
C2327 C2328 1.385 . S
C2328 H2314 0.931 . S
C2328 C2327 1.385 . S
C2328 C2329 1.389 . S
C2329 C2328 1.389 . S
C2329 C2330 1.387 . S
C2330 H2315 0.930 . S
C2330 C2325 1.390 . S
C2330 C2329 1.387 . S
H2331 C2343 0.930 . S
H2332 C2345 0.930 . S
H2333 C2346 0.930 . S
H2334 C2350 0.959 . S
H2335 C2350 0.959 . S
H2336 C2350 0.961 . S
H2337 C2351 0.960 . S
H2338 C2351 0.961 . S
H2339 C2351 0.959 . S
H2340 C2354 0.929 . S
H2341 C2355 0.931 . S
H2342 C2357 0.930 . S
C2343 H2331 0.930 . S
C2343 C2344 1.399 1_556 S
C2343 C2348 1.399 . S
C2344 C2343 1.399 1_554 S
C2344 C2345 1.376 . S
C2345 H2332 0.930 . S
C2345 C2344 1.376 . S
C2345 C2346 1.388 1_554 S
C2346 H2333 0.930 . S
C2346 C2345 1.388 1_556 S
C2346 C2347 1.390 . S
C2347 C2346 1.390 . S
C2347 C2348 1.394 . S
C2347 C2353 1.465 . S
C2348 C2343 1.399 . S
C2348 C2347 1.394 . S
C2348 C2349 1.516 . S
C2349 C2348 1.516 . S
C2349 C2350 1.502 . S
C2349 C2351 1.561 . S
C2349 C2352 1.526 . S
C2350 H2334 0.959 . S
C2350 H2335 0.959 . S
C2350 H2336 0.961 . S
C2350 C2349 1.502 . S
C2351 H2337 0.960 . S
C2351 H2338 0.961 . S
C2351 H2339 0.959 . S
C2351 C2349 1.561 . S
C2352 C2349 1.526 . S
C2352 C2353 1.396 . S
C2352 C2357 1.390 . S
C2353 C2347 1.465 . S
C2353 C2352 1.396 . S
C2353 C2354 1.399 . S
C2354 H2340 0.929 . S
C2354 C2353 1.399 . S
C2354 C2355 1.385 . S
C2355 H2341 0.931 . S
C2355 C2354 1.385 . S
C2355 C2356 1.389 . S
C2356 C2355 1.389 . S
C2356 C2357 1.387 . S
C2357 H2342 0.930 . S
C2357 C2352 1.390 . S
C2357 C2356 1.387 . S
H2358 C2370 0.930 . S
H2359 C2372 0.930 . S
H2360 C2373 0.930 . S
H2361 C2377 0.959 . S
H2362 C2377 0.959 . S
H2363 C2377 0.961 . S
H2364 C2378 0.960 . S
H2365 C2378 0.961 . S
H2366 C2378 0.959 . S
H2367 C2381 0.929 . S
H2368 C2382 0.931 . S
H2369 C2384 0.930 . S
C2370 H2358 0.930 . S
C2370 C2371 1.399 . S
C2370 C2375 1.399 . S
C2371 C2370 1.399 . S
C2371 C2372 1.376 . S
C2372 H2359 0.930 . S
C2372 C2371 1.376 . S
C2372 C2373 1.388 . S
C2373 H2360 0.930 . S
C2373 C2372 1.388 . S
C2373 C2374 1.390 . S
C2374 C2373 1.390 . S
C2374 C2375 1.394 . S
C2374 C2380 1.465 . S
C2375 C2370 1.399 . S
C2375 C2374 1.394 . S
C2375 C2376 1.516 . S
C2376 C2375 1.516 . S
C2376 C2377 1.502 . S
C2376 C2378 1.561 . S
C2376 C2379 1.526 . S
C2377 H2361 0.959 . S
C2377 H2362 0.959 . S
C2377 H2363 0.961 . S
C2377 C2376 1.502 . S
C2378 H2364 0.960 . S
C2378 H2365 0.961 . S
C2378 H2366 0.959 . S
C2378 C2376 1.561 . S
C2379 C2376 1.526 . S
C2379 C2380 1.396 . S
C2379 C2384 1.390 . S
C2380 C2374 1.465 . S
C2380 C2379 1.396 . S
C2380 C2381 1.399 . S
C2381 H2367 0.929 . S
C2381 C2380 1.399 . S
C2381 C2382 1.385 1_655 S
C2382 H2368 0.931 . S
C2382 C2381 1.385 1_455 S
C2382 C2383 1.384 1_455 S
C2383 C2382 1.384 1_655 S
C2383 C2384 1.408 . S
C2384 H2369 0.930 . S
C2384 C2379 1.390 . S
C2384 C2383 1.408 . S
H2385 C2397 0.930 . S
H2386 C2399 0.930 . S
H2387 C2400 0.930 . S
H2388 C2404 0.959 . S
H2389 C2404 0.959 . S
H2390 C2404 0.961 . S
H2391 C2405 0.960 . S
H2392 C2405 0.961 . S
H2393 C2405 0.959 . S
H2394 C2408 0.929 . S
H2395 C2409 0.931 . S
H2396 C2411 0.930 . S
C2397 H2385 0.930 . S
C2397 C2398 1.399 . S
C2397 C2402 1.399 . S
C2398 C2397 1.399 . S
C2398 C2399 1.376 . S
C2399 H2386 0.930 . S
C2399 C2398 1.376 . S
C2399 C2400 1.388 . S
C2400 H2387 0.930 . S
C2400 C2399 1.388 . S
C2400 C2401 1.390 . S
C2401 C2400 1.390 . S
C2401 C2402 1.394 . S
C2401 C2407 1.465 . S
C2402 C2397 1.399 . S
C2402 C2401 1.394 . S
C2402 C2403 1.516 . S
C2403 C2402 1.516 . S
C2403 C2404 1.502 . S
C2403 C2405 1.561 . S
C2403 C2406 1.526 . S
C2404 H2388 0.959 . S
C2404 H2389 0.959 . S
C2404 H2390 0.961 . S
C2404 C2403 1.502 . S
C2405 H2391 0.960 . S
C2405 H2392 0.961 . S
C2405 H2393 0.959 . S
C2405 C2403 1.561 . S
C2406 C2403 1.526 . S
C2406 C2407 1.396 . S
C2406 C2411 1.390 . S
C2407 C2401 1.465 . S
C2407 C2406 1.396 . S
C2407 C2408 1.399 . S
C2408 H2394 0.929 . S
C2408 C2407 1.399 . S
C2408 C2409 1.385 . S
C2409 H2395 0.931 . S
C2409 C2408 1.385 . S
C2409 C2410 1.389 . S
C2410 C2409 1.389 . S
C2410 C2411 1.387 . S
C2411 H2396 0.930 . S
C2411 C2406 1.390 . S
C2411 C2410 1.387 . S
H2412 C2424 0.930 . S
H2413 C2426 0.930 . S
H2414 C2427 0.930 . S
H2415 C2431 0.959 . S
H2416 C2431 0.959 . S
H2417 C2431 0.961 . S
H2418 C2432 0.960 . S
H2419 C2432 0.961 . S
H2420 C2432 0.959 . S
H2421 C2435 0.929 . S
H2422 C2436 0.931 . S
H2423 C2438 0.930 . S
C2424 H2412 0.930 . S
C2424 C2425 1.399 . S
C2424 C2429 1.399 . S
C2425 C2424 1.399 . S
C2425 C2426 1.376 . S
C2426 H2413 0.930 . S
C2426 C2425 1.376 . S
C2426 C2427 1.388 . S
C2427 H2414 0.930 . S
C2427 C2426 1.388 . S
C2427 C2428 1.390 . S
C2428 C2427 1.390 . S
C2428 C2429 1.394 . S
C2428 C2434 1.465 . S
C2429 C2424 1.399 . S
C2429 C2428 1.394 . S
C2429 C2430 1.516 . S
C2430 C2429 1.516 . S
C2430 C2431 1.502 . S
C2430 C2432 1.561 . S
C2430 C2433 1.526 . S
C2431 H2415 0.959 . S
C2431 H2416 0.959 . S
C2431 H2417 0.961 . S
C2431 C2430 1.502 . S
C2432 H2418 0.960 . S
C2432 H2419 0.961 . S
C2432 H2420 0.959 . S
C2432 C2430 1.561 . S
C2433 C2430 1.526 . S
C2433 C2434 1.396 . S
C2433 C2438 1.390 . S
C2434 C2428 1.465 . S
C2434 C2433 1.396 . S
C2434 C2435 1.399 . S
C2435 H2421 0.929 . S
C2435 C2434 1.399 . S
C2435 C2436 1.385 . S
C2436 H2422 0.931 . S
C2436 C2435 1.385 . S
C2436 C2437 1.389 . S
C2437 C2436 1.389 . S
C2437 C2438 1.387 . S
C2438 H2423 0.930 . S
C2438 C2433 1.390 . S
C2438 C2437 1.387 . S
H2439 C2451 0.930 . S
H2440 C2453 0.930 . S
H2441 C2454 0.930 . S
H2442 C2458 0.959 . S
H2443 C2458 0.959 . S
H2444 C2458 0.961 . S
H2445 C2459 0.960 . S
H2446 C2459 0.961 . S
H2447 C2459 0.959 . S
H2448 C2462 0.929 . S
H2449 C2463 0.931 . S
H2450 C2465 0.930 . S
C2451 H2439 0.930 . S
C2451 C2452 1.399 . S
C2451 C2456 1.399 . S
C2452 C2451 1.399 . S
C2452 C2453 1.376 . S
C2453 H2440 0.930 . S
C2453 C2452 1.376 . S
C2453 C2454 1.388 . S
C2454 H2441 0.930 . S
C2454 C2453 1.388 . S
C2454 C2455 1.390 . S
C2455 C2454 1.390 . S
C2455 C2456 1.394 . S
C2455 C2461 1.465 . S
C2456 C2451 1.399 . S
C2456 C2455 1.394 . S
C2456 C2457 1.516 . S
C2457 C2456 1.516 . S
C2457 C2458 1.502 . S
C2457 C2459 1.561 . S
C2457 C2460 1.526 . S
C2458 H2442 0.959 . S
C2458 H2443 0.959 . S
C2458 H2444 0.961 . S
C2458 C2457 1.502 . S
C2459 H2445 0.960 . S
C2459 H2446 0.961 . S
C2459 H2447 0.959 . S
C2459 C2457 1.561 . S
C2460 C2457 1.526 . S
C2460 C2461 1.396 . S
C2460 C2465 1.390 . S
C2461 C2455 1.465 . S
C2461 C2460 1.396 . S
C2461 C2462 1.399 . S
C2462 H2448 0.929 . S
C2462 C2461 1.399 . S
C2462 C2463 1.385 . S
C2463 H2449 0.931 . S
C2463 C2462 1.385 . S
C2463 C2464 1.389 . S
C2464 C2463 1.389 . S
C2464 C2465 1.387 . S
C2465 H2450 0.930 . S
C2465 C2460 1.390 . S
C2465 C2464 1.387 . S
H2466 C2478 0.930 . S
H2467 C2480 0.930 . S
H2468 C2481 0.930 . S
H2469 C2485 0.959 . S
H2470 C2485 0.959 . S
H2471 C2485 0.961 . S
H2472 C2486 0.960 . S
H2473 C2486 0.961 . S
H2474 C2486 0.959 . S
H2475 C2489 0.929 . S
H2476 C2490 0.931 1_455 S
H2477 C2492 0.930 . S
C2478 H2466 0.930 . S
C2478 C2479 1.399 . S
C2478 C2483 1.399 . S
C2479 C2478 1.399 . S
C2479 C2480 1.376 . S
C2480 H2467 0.930 . S
C2480 C2479 1.376 . S
C2480 C2481 1.388 . S
C2481 H2468 0.930 . S
C2481 C2480 1.388 . S
C2481 C2482 1.390 . S
C2482 C2481 1.390 . S
C2482 C2483 1.394 . S
C2482 C2488 1.465 . S
C2483 C2478 1.399 . S
C2483 C2482 1.394 . S
C2483 C2484 1.516 . S
C2484 C2483 1.516 . S
C2484 C2485 1.502 . S
C2484 C2486 1.561 . S
C2484 C2487 1.526 . S
C2485 H2469 0.959 . S
C2485 H2470 0.959 . S
C2485 H2471 0.961 . S
C2485 C2484 1.502 . S
C2486 H2472 0.960 . S
C2486 H2473 0.961 . S
C2486 H2474 0.959 . S
C2486 C2484 1.561 . S
C2487 C2484 1.526 . S
C2487 C2488 1.396 . S
C2487 C2492 1.390 . S
C2488 C2482 1.465 . S
C2488 C2487 1.396 . S
C2488 C2489 1.399 . S
C2489 H2475 0.929 . S
C2489 C2488 1.399 . S
C2489 C2490 1.385 . S
C2490 H2476 0.931 1_655 S
C2490 C2489 1.385 . S
C2490 C2491 1.389 . S
C2491 C2490 1.389 . S
C2491 C2492 1.387 . S
C2492 H2477 0.930 . S
C2492 C2487 1.390 . S
C2492 C2491 1.387 . S
H2493 C2505 0.930 . S
H2494 C2507 0.930 . S
H2495 C2508 0.930 . S
H2496 C2512 0.959 . S
H2497 C2512 0.959 . S
H2498 C2512 0.961 . S
H2499 C2513 0.960 . S
H2500 C2513 0.961 . S
H2501 C2513 0.959 . S
H2502 C2516 0.929 . S
H2503 C2517 0.931 . S
H2504 C2519 0.930 . S
C2505 H2493 0.930 . S
C2505 C2506 1.399 . S
C2505 C2510 1.399 . S
C2506 C2505 1.399 . S
C2506 C2507 1.376 . S
C2507 H2494 0.930 . S
C2507 C2506 1.376 . S
C2507 C2508 1.388 . S
C2508 H2495 0.930 . S
C2508 C2507 1.388 . S
C2508 C2509 1.390 . S
C2509 C2508 1.390 . S
C2509 C2510 1.394 . S
C2509 C2515 1.465 . S
C2510 C2505 1.399 . S
C2510 C2509 1.394 . S
C2510 C2511 1.516 . S
C2511 C2510 1.516 . S
C2511 C2512 1.502 . S
C2511 C2513 1.561 . S
C2511 C2514 1.526 . S
C2512 H2496 0.959 . S
C2512 H2497 0.959 . S
C2512 H2498 0.961 . S
C2512 C2511 1.502 . S
C2513 H2499 0.960 . S
C2513 H2500 0.961 . S
C2513 H2501 0.959 . S
C2513 C2511 1.561 . S
C2514 C2511 1.526 . S
C2514 C2515 1.396 . S
C2514 C2519 1.390 . S
C2515 C2509 1.465 . S
C2515 C2514 1.396 . S
C2515 C2516 1.399 . S
C2516 H2502 0.929 . S
C2516 C2515 1.399 . S
C2516 C2517 1.385 . S
C2517 H2503 0.931 . S
C2517 C2516 1.385 . S
C2517 C2518 1.389 . S
C2518 C2517 1.389 . S
C2518 C2519 1.387 . S
C2519 H2504 0.930 . S
C2519 C2514 1.390 . S
C2519 C2518 1.387 . S
H2520 C2532 0.930 . S
H2521 C2534 0.930 . S
H2522 C2535 0.930 . S
H2523 C2539 0.959 . S
H2524 C2539 0.959 . S
H2525 C2539 0.961 . S
H2526 C2540 0.960 . S
H2527 C2540 0.961 . S
H2528 C2540 0.959 . S
H2529 C2543 0.929 . S
H2530 C2544 0.931 . S
H2531 C2546 0.930 . S
C2532 H2520 0.930 . S
C2532 C2533 1.399 . S
C2532 C2537 1.399 . S
C2533 C2532 1.399 . S
C2533 C2534 1.376 . S
C2534 H2521 0.930 . S
C2534 C2533 1.376 . S
C2534 C2535 1.388 . S
C2535 H2522 0.930 . S
C2535 C2534 1.388 . S
C2535 C2536 1.390 . S
C2536 C2535 1.390 . S
C2536 C2537 1.394 . S
C2536 C2542 1.465 . S
C2537 C2532 1.399 . S
C2537 C2536 1.394 . S
C2537 C2538 1.516 . S
C2538 C2537 1.516 . S
C2538 C2539 1.502 . S
C2538 C2540 1.561 . S
C2538 C2541 1.526 . S
C2539 H2523 0.959 . S
C2539 H2524 0.959 . S
C2539 H2525 0.961 . S
C2539 C2538 1.502 . S
C2540 H2526 0.960 . S
C2540 H2527 0.961 . S
C2540 H2528 0.959 . S
C2540 C2538 1.561 . S
C2541 C2538 1.526 . S
C2541 C2542 1.396 . S
C2541 C2546 1.390 . S
C2542 C2536 1.465 . S
C2542 C2541 1.396 . S
C2542 C2543 1.399 . S
C2543 H2529 0.929 . S
C2543 C2542 1.399 . S
C2543 C2544 1.385 . S
C2544 H2530 0.931 . S
C2544 C2543 1.385 . S
C2544 C2545 1.389 . S
C2545 C2544 1.389 . S
C2545 C2546 1.387 . S
C2546 H2531 0.930 . S
C2546 C2541 1.390 . S
C2546 C2545 1.387 . S
H2547 C2559 0.930 . S
H2548 C2561 0.930 . S
H2549 C2562 0.930 . S
H2550 C2566 0.959 . S
H2551 C2566 0.959 . S
H2552 C2566 0.961 . S
H2553 C2567 0.960 . S
H2554 C2567 0.961 . S
H2555 C2567 0.959 . S
H2556 C2570 0.929 . S
H2557 C2571 0.931 . S
H2558 C2573 0.930 . S
C2559 H2547 0.930 . S
C2559 C2560 1.399 . S
C2559 C2564 1.399 . S
C2560 C2559 1.399 . S
C2560 C2561 1.376 . S
C2561 H2548 0.930 . S
C2561 C2560 1.376 . S
C2561 C2562 1.388 . S
C2562 H2549 0.930 . S
C2562 C2561 1.388 . S
C2562 C2563 1.390 . S
C2563 C2562 1.390 . S
C2563 C2564 1.394 . S
C2563 C2569 1.465 . S
C2564 C2559 1.399 . S
C2564 C2563 1.394 . S
C2564 C2565 1.516 . S
C2565 C2564 1.516 . S
C2565 C2566 1.502 . S
C2565 C2567 1.561 . S
C2565 C2568 1.526 . S
C2566 H2550 0.959 . S
C2566 H2551 0.959 . S
C2566 H2552 0.961 . S
C2566 C2565 1.502 . S
C2567 H2553 0.960 . S
C2567 H2554 0.961 . S
C2567 H2555 0.959 . S
C2567 C2565 1.561 . S
C2568 C2565 1.526 . S
C2568 C2569 1.396 . S
C2568 C2573 1.390 . S
C2569 C2563 1.465 . S
C2569 C2568 1.396 . S
C2569 C2570 1.399 1_565 S
C2570 H2556 0.929 . S
C2570 C2569 1.399 1_545 S
C2570 C2571 1.385 . S
C2571 H2557 0.931 . S
C2571 C2570 1.385 . S
C2571 C2572 1.389 . S
C2572 C2571 1.389 . S
C2572 C2573 1.387 1_545 S
C2573 H2558 0.930 . S
C2573 C2568 1.390 . S
C2573 C2572 1.387 1_565 S
H2574 C2586 0.930 . S
H2575 C2588 0.930 1_545 S
H2576 C2589 0.930 . S
H2577 C2593 0.959 . S
H2578 C2593 0.959 . S
H2579 C2593 0.961 . S
H2580 C2594 0.960 . S
H2581 C2594 0.961 . S
H2582 C2594 0.959 . S
H2583 C2597 0.929 . S
H2584 C2598 0.931 . S
H2585 C2600 0.930 . S
C2586 H2574 0.930 . S
C2586 C2587 1.395 . S
C2586 C2591 1.399 . S
C2587 C2586 1.395 . S
C2587 C2588 1.376 . S
C2588 H2575 0.930 1_565 S
C2588 C2587 1.376 . S
C2588 C2589 1.388 . S
C2589 H2576 0.930 . S
C2589 C2588 1.388 . S
C2589 C2590 1.390 . S
C2590 C2589 1.390 . S
C2590 C2591 1.394 . S
C2590 C2596 1.465 . S
C2591 C2586 1.399 . S
C2591 C2590 1.394 . S
C2591 C2592 1.516 . S
C2592 C2591 1.516 . S
C2592 C2593 1.502 . S
C2592 C2594 1.561 . S
C2592 C2595 1.526 . S
C2593 H2577 0.959 . S
C2593 H2578 0.959 . S
C2593 H2579 0.961 . S
C2593 C2592 1.502 . S
C2594 H2580 0.960 . S
C2594 H2581 0.961 . S
C2594 H2582 0.959 . S
C2594 C2592 1.561 . S
C2595 C2592 1.526 . S
C2595 C2596 1.396 . S
C2595 C2600 1.390 . S
C2596 C2590 1.465 . S
C2596 C2595 1.396 . S
C2596 C2597 1.399 . S
C2597 H2583 0.929 . S
C2597 C2596 1.399 . S
C2597 C2598 1.385 . S
C2598 H2584 0.931 . S
C2598 C2597 1.385 . S
C2598 C2599 1.389 . S
C2599 C2598 1.389 . S
C2599 C2600 1.387 . S
C2600 H2585 0.930 . S
C2600 C2595 1.390 . S
C2600 C2599 1.387 . S
H2601 C2613 0.930 . S
H2602 C2615 0.930 . S
H2603 C2616 0.930 . S
H2604 C2620 0.959 . S
H2605 C2620 0.959 1_556 S
H2606 C2620 0.961 1_556 S
H2607 C2621 0.960 . S
H2608 C2621 0.961 . S
H2609 C2621 0.959 . S
H2610 C2624 0.929 . S
H2611 C2625 0.931 . S
H2612 C2627 0.930 . S
C2613 H2601 0.930 . S
C2613 C2614 1.399 . S
C2613 C2618 1.399 . S
C2614 C2613 1.399 . S
C2614 C2615 1.376 . S
C2615 H2602 0.930 . S
C2615 C2614 1.376 . S
C2615 C2616 1.388 . S
C2616 H2603 0.930 . S
C2616 C2615 1.388 . S
C2616 C2617 1.390 . S
C2617 C2616 1.390 . S
C2617 C2618 1.394 . S
C2617 C2623 1.465 . S
C2618 C2613 1.399 . S
C2618 C2617 1.394 . S
C2618 C2619 1.516 . S
C2619 C2618 1.516 . S
C2619 C2620 1.502 . S
C2619 C2621 1.561 1_554 S
C2619 C2622 1.526 . S
C2620 H2604 0.959 . S
C2620 H2605 0.959 1_554 S
C2620 H2606 0.961 1_554 S
C2620 C2619 1.502 . S
C2621 H2607 0.960 . S
C2621 H2608 0.961 . S
C2621 H2609 0.959 . S
C2621 C2619 1.561 1_556 S
C2622 C2619 1.526 . S
C2622 C2623 1.396 . S
C2622 C2627 1.390 . S
C2623 C2617 1.465 . S
C2623 C2622 1.396 . S
C2623 C2624 1.399 . S
C2624 H2610 0.929 . S
C2624 C2623 1.399 . S
C2624 C2625 1.385 . S
C2625 H2611 0.931 . S
C2625 C2624 1.385 . S
C2625 C2626 1.389 . S
C2626 C2625 1.389 . S
C2626 C2627 1.387 . S
C2627 H2612 0.930 . S
C2627 C2622 1.390 . S
C2627 C2626 1.387 . S
H2628 C2640 0.930 . S
H2629 C2642 0.930 . S
H2630 C2643 0.930 . S
H2631 C2647 0.959 . S
H2632 C2647 0.959 . S
H2633 C2647 0.961 . S
H2634 C2648 0.960 . S
H2635 C2648 0.961 . S
H2636 C2648 0.959 . S
H2637 C2651 0.929 . S
H2638 C2652 0.931 . S
H2639 C2654 0.930 . S
C2640 H2628 0.930 . S
C2640 C2641 1.399 . S
C2640 C2645 1.399 . S
C2641 C2640 1.399 . S
C2641 C2642 1.376 . S
C2642 H2629 0.930 . S
C2642 C2641 1.376 . S
C2642 C2643 1.388 . S
C2643 H2630 0.930 . S
C2643 C2642 1.388 . S
C2643 C2644 1.390 . S
C2644 C2643 1.390 . S
C2644 C2645 1.394 . S
C2644 C2650 1.465 . S
C2645 C2640 1.399 . S
C2645 C2644 1.394 . S
C2645 C2646 1.516 . S
C2646 C2645 1.516 . S
C2646 C2647 1.502 . S
C2646 C2648 1.561 . S
C2646 C2649 1.526 . S
C2647 H2631 0.959 . S
C2647 H2632 0.959 . S
C2647 H2633 0.961 . S
C2647 C2646 1.502 . S
C2648 H2634 0.960 . S
C2648 H2635 0.961 . S
C2648 H2636 0.959 . S
C2648 C2646 1.561 . S
C2649 C2646 1.526 . S
C2649 C2650 1.396 . S
C2649 C2654 1.390 . S
C2650 C2644 1.465 . S
C2650 C2649 1.396 . S
C2650 C2651 1.399 . S
C2651 H2637 0.929 . S
C2651 C2650 1.399 . S
C2651 C2652 1.385 . S
C2652 H2638 0.931 . S
C2652 C2651 1.385 . S
C2652 C2653 1.389 . S
C2653 C2652 1.389 . S
C2653 C2654 1.387 . S
C2654 H2639 0.930 . S
C2654 C2649 1.390 . S
C2654 C2653 1.387 . S
H2655 C2667 0.930 . S
H2656 C2669 0.930 . S
H2657 C2670 0.930 . S
H2658 C2674 0.959 . S
H2659 C2674 0.959 . S
H2660 C2674 0.961 . S
H2661 C2675 0.952 1_556 S
H2662 C2675 0.961 1_556 S
H2663 C2675 0.959 . S
H2664 C2678 0.929 . S
H2665 C2679 0.931 . S
H2666 C2681 0.930 1_556 S
C2667 H2655 0.930 . S
C2667 C2668 1.399 . S
C2667 C2672 1.399 . S
C2668 C2667 1.399 . S
C2668 C2669 1.376 . S
C2669 H2656 0.930 . S
C2669 C2668 1.376 . S
C2669 C2670 1.388 . S
C2670 H2657 0.930 . S
C2670 C2669 1.388 . S
C2670 C2671 1.390 . S
C2671 C2670 1.390 . S
C2671 C2672 1.394 . S
C2671 C2677 1.465 . S
C2672 C2667 1.399 . S
C2672 C2671 1.394 . S
C2672 C2673 1.516 . S
C2673 C2672 1.516 . S
C2673 C2674 1.502 1_554 S
C2673 C2675 1.561 . S
C2673 C2676 1.526 . S
C2674 H2658 0.959 . S
C2674 H2659 0.959 . S
C2674 H2660 0.961 . S
C2674 C2673 1.502 1_556 S
C2675 H2661 0.952 1_554 S
C2675 H2662 0.961 1_554 S
C2675 H2663 0.959 . S
C2675 C2673 1.561 . S
C2676 C2673 1.526 . S
C2676 C2677 1.396 . S
C2676 C2681 1.390 . S
C2677 C2671 1.465 . S
C2677 C2676 1.396 . S
C2677 C2678 1.399 . S
C2678 H2664 0.929 . S
C2678 C2677 1.399 . S
C2678 C2679 1.385 . S
C2679 H2665 0.931 . S
C2679 C2678 1.385 . S
C2679 C2680 1.389 . S
C2680 C2679 1.389 . S
C2680 C2681 1.387 . S
C2681 H2666 0.930 1_554 S
C2681 C2676 1.390 . S
C2681 C2680 1.387 . S
H2682 C2694 0.930 . S
H2683 C2696 0.930 . S
H2684 C2697 0.930 . S
H2685 C2701 0.959 . S
H2686 C2701 0.959 . S
H2687 C2701 0.961 . S
H2688 C2702 0.960 . S
H2689 C2702 0.961 . S
H2690 C2702 0.959 . S
H2691 C2705 0.929 . S
H2692 C2706 0.931 . S
H2693 C2708 0.930 . S
C2694 H2682 0.930 . S
C2694 C2695 1.399 . S
C2694 C2699 1.399 . S
C2695 C2694 1.399 . S
C2695 C2696 1.376 . S
C2696 H2683 0.930 . S
C2696 C2695 1.376 . S
C2696 C2697 1.388 . S
C2697 H2684 0.930 . S
C2697 C2696 1.388 . S
C2697 C2698 1.390 . S
C2698 C2697 1.390 . S
C2698 C2699 1.394 . S
C2698 C2704 1.465 . S
C2699 C2694 1.399 . S
C2699 C2698 1.394 . S
C2699 C2700 1.516 . S
C2700 C2699 1.516 . S
C2700 C2701 1.502 . S
C2700 C2702 1.561 . S
C2700 C2703 1.526 . S
C2701 H2685 0.959 . S
C2701 H2686 0.959 . S
C2701 H2687 0.961 . S
C2701 C2700 1.502 . S
C2702 H2688 0.960 . S
C2702 H2689 0.961 . S
C2702 H2690 0.959 . S
C2702 C2700 1.561 . S
C2703 C2700 1.526 . S
C2703 C2704 1.396 . S
C2703 C2708 1.390 . S
C2704 C2698 1.465 . S
C2704 C2703 1.396 . S
C2704 C2705 1.399 . S
C2705 H2691 0.929 . S
C2705 C2704 1.399 . S
C2705 C2706 1.385 . S
C2706 H2692 0.931 . S
C2706 C2705 1.385 . S
C2706 C2707 1.389 . S
C2707 C2706 1.389 . S
C2707 C2708 1.387 . S
C2708 H2693 0.930 . S
C2708 C2703 1.390 . S
C2708 C2707 1.387 . S
H2709 C2721 0.930 . S
H2710 C2723 0.930 . S
H2711 C2724 0.930 . S
H2712 C2728 0.959 . S
H2713 C2728 0.959 . S
H2714 C2728 0.961 . S
H2715 C2729 0.960 . S
H2716 C2729 0.961 . S
H2717 C2729 0.959 . S
H2718 C2732 0.929 . S
H2719 C2733 0.931 . S
H2720 C2735 0.930 . S
C2721 H2709 0.930 . S
C2721 C2722 1.399 . S
C2721 C2726 1.399 . S
C2722 C2721 1.399 . S
C2722 C2723 1.376 . S
C2723 H2710 0.930 . S
C2723 C2722 1.376 . S
C2723 C2724 1.388 . S
C2724 H2711 0.930 . S
C2724 C2723 1.388 . S
C2724 C2725 1.390 . S
C2725 C2724 1.390 . S
C2725 C2726 1.394 . S
C2725 C2731 1.465 . S
C2726 C2721 1.399 . S
C2726 C2725 1.394 . S
C2726 C2727 1.516 . S
C2727 C2726 1.516 . S
C2727 C2728 1.502 . S
C2727 C2729 1.561 . S
C2727 C2730 1.526 . S
C2728 H2712 0.959 . S
C2728 H2713 0.959 . S
C2728 H2714 0.961 . S
C2728 C2727 1.502 . S
C2729 H2715 0.960 . S
C2729 H2716 0.961 . S
C2729 H2717 0.959 . S
C2729 C2727 1.561 . S
C2730 C2727 1.526 . S
C2730 C2731 1.396 . S
C2730 C2735 1.390 . S
C2731 C2725 1.465 . S
C2731 C2730 1.396 . S
C2731 C2732 1.399 . S
C2732 H2718 0.929 . S
C2732 C2731 1.399 . S
C2732 C2733 1.385 . S
C2733 H2719 0.931 . S
C2733 C2732 1.385 . S
C2733 C2734 1.389 . S
C2734 C2733 1.389 . S
C2734 C2735 1.387 . S
C2735 H2720 0.930 . S
C2735 C2730 1.390 . S
C2735 C2734 1.387 . S
H2736 C2748 0.930 . S
H2737 C2750 0.930 . S
H2738 C2751 0.930 . S
H2739 C2755 0.959 . S
H2740 C2755 0.959 . S
H2741 C2755 0.961 . S
H2742 C2756 0.960 . S
H2743 C2756 0.961 . S
H2744 C2756 0.959 . S
H2745 C2759 0.929 . S
H2746 C2760 0.931 . S
H2747 C2762 0.930 . S
C2748 H2736 0.930 . S
C2748 C2749 1.399 . S
C2748 C2753 1.399 . S
C2749 C2748 1.399 . S
C2749 C2750 1.376 . S
C2750 H2737 0.930 . S
C2750 C2749 1.376 . S
C2750 C2751 1.388 . S
C2751 H2738 0.930 . S
C2751 C2750 1.388 . S
C2751 C2752 1.390 . S
C2752 C2751 1.390 . S
C2752 C2753 1.394 . S
C2752 C2758 1.465 . S
C2753 C2748 1.399 . S
C2753 C2752 1.394 . S
C2753 C2754 1.516 . S
C2754 C2753 1.516 . S
C2754 C2755 1.502 . S
C2754 C2756 1.561 . S
C2754 C2757 1.526 . S
C2755 H2739 0.959 . S
C2755 H2740 0.959 . S
C2755 H2741 0.961 . S
C2755 C2754 1.502 . S
C2756 H2742 0.960 . S
C2756 H2743 0.961 . S
C2756 H2744 0.959 . S
C2756 C2754 1.561 . S
C2757 C2754 1.526 . S
C2757 C2758 1.396 . S
C2757 C2762 1.390 . S
C2758 C2752 1.465 . S
C2758 C2757 1.396 . S
C2758 C2759 1.399 . S
C2759 H2745 0.929 . S
C2759 C2758 1.399 . S
C2759 C2760 1.385 . S
C2760 H2746 0.931 . S
C2760 C2759 1.385 . S
C2760 C2761 1.389 . S
C2761 C2760 1.389 . S
C2761 C2762 1.387 . S
C2762 H2747 0.930 . S
C2762 C2757 1.390 . S
C2762 C2761 1.387 . S
H2763 C2775 0.930 . S
H2764 C2777 0.930 . S
H2765 C2778 0.930 . S
H2766 C2782 0.959 . S
H2767 C2782 0.959 . S
H2768 C2782 0.961 . S
H2769 C2783 0.960 . S
H2770 C2783 0.961 . S
H2771 C2783 0.959 . S
H2772 C2786 0.929 . S
H2773 C2787 0.931 . S
H2774 C2789 0.930 . S
C2775 H2763 0.930 . S
C2775 C2776 1.399 . S
C2775 C2780 1.399 . S
C2776 C2775 1.399 . S
C2776 C2777 1.376 . S
C2777 H2764 0.930 . S
C2777 C2776 1.376 . S
C2777 C2778 1.388 . S
C2778 H2765 0.930 . S
C2778 C2777 1.388 . S
C2778 C2779 1.390 . S
C2779 C2778 1.390 . S
C2779 C2780 1.394 . S
C2779 C2785 1.465 . S
C2780 C2775 1.399 . S
C2780 C2779 1.394 . S
C2780 C2781 1.516 . S
C2781 C2780 1.516 . S
C2781 C2782 1.502 . S
C2781 C2783 1.561 . S
C2781 C2784 1.526 . S
C2782 H2766 0.959 . S
C2782 H2767 0.959 . S
C2782 H2768 0.961 . S
C2782 C2781 1.502 . S
C2783 H2769 0.960 . S
C2783 H2770 0.961 . S
C2783 H2771 0.959 . S
C2783 C2781 1.561 . S
C2784 C2781 1.526 . S
C2784 C2785 1.396 . S
C2784 C2789 1.390 . S
C2785 C2779 1.465 . S
C2785 C2784 1.396 . S
C2785 C2786 1.399 . S
C2786 H2772 0.929 . S
C2786 C2785 1.399 . S
C2786 C2787 1.385 . S
C2787 H2773 0.931 . S
C2787 C2786 1.385 . S
C2787 C2788 1.389 . S
C2788 C2787 1.389 . S
C2788 C2789 1.387 . S
C2789 H2774 0.930 . S
C2789 C2784 1.390 . S
C2789 C2788 1.387 . S
H2790 C2802 0.921 1_655 S
H2791 C2804 0.930 . S
H2792 C2805 0.930 . S
H2793 C2809 0.959 1_554 S
H2794 C2809 0.959 . S
H2795 C2809 0.961 . S
H2796 C2810 0.960 . S
H2797 C2810 0.961 . S
H2798 C2810 0.959 . S
H2799 C2813 0.929 . S
H2800 C2814 0.931 . S
H2801 C2816 0.930 . S
C2802 H2790 0.921 1_455 S
C2802 C2803 1.406 . S
C2802 C2807 1.400 . S
C2803 C2802 1.406 . S
C2803 C2804 1.376 . S
C2804 H2791 0.930 . S
C2804 C2803 1.376 . S
C2804 C2805 1.388 . S
C2805 H2792 0.930 . S
C2805 C2804 1.388 . S
C2805 C2806 1.390 . S
C2806 C2805 1.390 . S
C2806 C2807 1.394 . S
C2806 C2812 1.465 . S
C2807 C2802 1.400 . S
C2807 C2806 1.394 . S
C2807 C2808 1.516 1_455 S
C2808 C2807 1.516 1_655 S
C2808 C2809 1.502 . S
C2808 C2810 1.561 . S
C2808 C2811 1.526 1_655 S
C2809 H2793 0.959 1_556 S
C2809 H2794 0.959 . S
C2809 H2795 0.961 . S
C2809 C2808 1.502 . S
C2810 H2796 0.960 . S
C2810 H2797 0.961 . S
C2810 H2798 0.959 . S
C2810 C2808 1.561 . S
C2811 C2808 1.526 1_455 S
C2811 C2812 1.396 . S
C2811 C2816 1.390 1_455 S
C2812 C2806 1.465 . S
C2812 C2811 1.396 . S
C2812 C2813 1.399 . S
C2813 H2799 0.929 . S
C2813 C2812 1.399 . S
C2813 C2814 1.385 . S
C2814 H2800 0.931 . S
C2814 C2813 1.385 . S
C2814 C2815 1.389 . S
C2815 C2814 1.389 . S
C2815 C2816 1.387 1_455 S
C2816 H2801 0.930 . S
C2816 C2811 1.390 1_655 S
C2816 C2815 1.387 1_655 S
H2817 C2829 0.930 . S
H2818 C2831 0.930 . S
H2819 C2832 0.930 . S
H2820 C2836 0.959 . S
H2821 C2836 0.959 . S
H2822 C2836 0.961 . S
H2823 C2837 0.960 . S
H2824 C2837 0.961 . S
H2825 C2837 0.959 . S
H2826 C2840 0.929 . S
H2827 C2841 0.931 . S
H2828 C2843 0.930 . S
C2829 H2817 0.930 . S
C2829 C2830 1.399 . S
C2829 C2834 1.399 . S
C2830 C2829 1.399 . S
C2830 C2831 1.376 . S
C2831 H2818 0.930 . S
C2831 C2830 1.376 . S
C2831 C2832 1.388 . S
C2832 H2819 0.930 . S
C2832 C2831 1.388 . S
C2832 C2833 1.390 . S
C2833 C2832 1.390 . S
C2833 C2834 1.394 . S
C2833 C2839 1.465 . S
C2834 C2829 1.399 . S
C2834 C2833 1.394 . S
C2834 C2835 1.516 . S
C2835 C2834 1.516 . S
C2835 C2836 1.502 . S
C2835 C2837 1.561 . S
C2835 C2838 1.526 . S
C2836 H2820 0.959 . S
C2836 H2821 0.959 . S
C2836 H2822 0.961 . S
C2836 C2835 1.502 . S
C2837 H2823 0.960 . S
C2837 H2824 0.961 . S
C2837 H2825 0.959 . S
C2837 C2835 1.561 . S
C2838 C2835 1.526 . S
C2838 C2839 1.396 . S
C2838 C2843 1.390 . S
C2839 C2833 1.465 . S
C2839 C2838 1.396 . S
C2839 C2840 1.399 . S
C2840 H2826 0.929 . S
C2840 C2839 1.399 . S
C2840 C2841 1.385 . S
C2841 H2827 0.931 . S
C2841 C2840 1.385 . S
C2841 C2842 1.389 . S
C2842 C2841 1.389 . S
C2842 C2843 1.387 . S
C2843 H2828 0.930 . S
C2843 C2838 1.390 . S
C2843 C2842 1.387 . S
H2844 C2856 0.930 . S
H2845 C2858 0.930 . S
H2846 C2859 0.930 . S
H2847 C2863 0.959 . S
H2848 C2863 0.959 . S
H2849 C2863 0.961 . S
H2850 C2864 0.960 . S
H2851 C2864 0.961 . S
H2852 C2864 0.959 . S
H2853 C2867 0.929 . S
H2854 C2868 0.931 . S
H2855 C2870 0.930 . S
C2856 H2844 0.930 . S
C2856 C2857 1.399 . S
C2856 C2861 1.399 . S
C2857 C2856 1.399 . S
C2857 C2858 1.376 . S
C2858 H2845 0.930 . S
C2858 C2857 1.376 . S
C2858 C2859 1.388 . S
C2859 H2846 0.930 . S
C2859 C2858 1.388 . S
C2859 C2860 1.390 . S
C2860 C2859 1.390 . S
C2860 C2861 1.394 . S
C2860 C2866 1.465 . S
C2861 C2856 1.399 . S
C2861 C2860 1.394 . S
C2861 C2862 1.516 . S
C2862 C2861 1.516 . S
C2862 C2863 1.502 . S
C2862 C2864 1.561 . S
C2862 C2865 1.526 . S
C2863 H2847 0.959 . S
C2863 H2848 0.959 . S
C2863 H2849 0.961 . S
C2863 C2862 1.502 . S
C2864 H2850 0.960 . S
C2864 H2851 0.961 . S
C2864 H2852 0.959 . S
C2864 C2862 1.561 . S
C2865 C2862 1.526 . S
C2865 C2866 1.396 . S
C2865 C2870 1.390 . S
C2866 C2860 1.465 . S
C2866 C2865 1.396 . S
C2866 C2867 1.399 . S
C2867 H2853 0.929 . S
C2867 C2866 1.399 . S
C2867 C2868 1.385 . S
C2868 H2854 0.931 . S
C2868 C2867 1.385 . S
C2868 C2869 1.389 . S
C2869 C2868 1.389 . S
C2869 C2870 1.387 . S
C2870 H2855 0.930 . S
C2870 C2865 1.390 . S
C2870 C2869 1.387 . S
H2871 C2883 0.930 . S
H2872 C2885 0.930 . S
H2873 C2886 0.930 . S
H2874 C2890 0.959 . S
H2875 C2890 0.959 . S
H2876 C2890 0.961 . S
H2877 C2891 0.960 . S
H2878 C2891 0.961 . S
H2879 C2891 0.959 . S
H2880 C2894 0.929 . S
H2881 C2895 0.931 . S
H2882 C2897 0.930 . S
C2883 H2871 0.930 . S
C2883 C2884 1.399 . S
C2883 C2888 1.399 . S
C2884 C2883 1.399 . S
C2884 C2885 1.376 . S
C2885 H2872 0.930 . S
C2885 C2884 1.376 . S
C2885 C2886 1.388 . S
C2886 H2873 0.930 . S
C2886 C2885 1.388 . S
C2886 C2887 1.390 . S
C2887 C2886 1.390 . S
C2887 C2888 1.394 . S
C2887 C2893 1.465 . S
C2888 C2883 1.399 . S
C2888 C2887 1.394 . S
C2888 C2889 1.516 . S
C2889 C2888 1.516 . S
C2889 C2890 1.502 . S
C2889 C2891 1.561 . S
C2889 C2892 1.526 . S
C2890 H2874 0.959 . S
C2890 H2875 0.959 . S
C2890 H2876 0.961 . S
C2890 C2889 1.502 . S
C2891 H2877 0.960 . S
C2891 H2878 0.961 . S
C2891 H2879 0.959 . S
C2891 C2889 1.561 . S
C2892 C2889 1.526 . S
C2892 C2893 1.396 . S
C2892 C2897 1.390 . S
C2893 C2887 1.465 . S
C2893 C2892 1.396 . S
C2893 C2894 1.399 . S
C2894 H2880 0.929 . S
C2894 C2893 1.399 . S
C2894 C2895 1.385 . S
C2895 H2881 0.931 . S
C2895 C2894 1.385 . S
C2895 C2896 1.389 . S
C2896 C2895 1.389 . S
C2896 C2897 1.387 . S
C2897 H2882 0.930 . S
C2897 C2892 1.390 . S
C2897 C2896 1.387 . S
H2898 C2910 0.930 . S
H2899 C2912 0.930 . S
H2900 C2913 0.930 . S
H2901 C2917 0.959 . S
H2902 C2917 0.959 . S
H2903 C2917 0.961 . S
H2904 C2918 0.960 . S
H2905 C2918 0.961 . S
H2906 C2918 0.959 . S
H2907 C2921 0.929 . S
H2908 C2922 0.931 . S
H2909 C2924 0.930 . S
C2910 H2898 0.930 . S
C2910 C2911 1.399 1_655 S
C2910 C2915 1.399 . S
C2911 C2910 1.399 1_455 S
C2911 C2912 1.376 . S
C2912 H2899 0.930 . S
C2912 C2911 1.376 . S
C2912 C2913 1.388 . S
C2913 H2900 0.930 . S
C2913 C2912 1.388 . S
C2913 C2914 1.390 . S
C2914 C2913 1.390 . S
C2914 C2915 1.394 1_455 S
C2914 C2920 1.465 . S
C2915 C2910 1.399 . S
C2915 C2914 1.394 1_655 S
C2915 C2916 1.516 . S
C2916 C2915 1.516 . S
C2916 C2917 1.502 . S
C2916 C2918 1.561 . S
C2916 C2919 1.526 . S
C2917 H2901 0.959 . S
C2917 H2902 0.959 . S
C2917 H2903 0.961 . S
C2917 C2916 1.502 . S
C2918 H2904 0.960 . S
C2918 H2905 0.961 . S
C2918 H2906 0.959 . S
C2918 C2916 1.561 . S
C2919 C2916 1.526 . S
C2919 C2920 1.396 1_655 S
C2919 C2924 1.390 . S
C2920 C2914 1.465 . S
C2920 C2919 1.396 1_455 S
C2920 C2921 1.399 . S
C2921 H2907 0.929 . S
C2921 C2920 1.399 . S
C2921 C2922 1.385 . S
C2922 H2908 0.931 . S
C2922 C2921 1.385 . S
C2922 C2923 1.389 . S
C2923 C2922 1.389 . S
C2923 C2924 1.387 1_455 S
C2924 H2909 0.930 . S
C2924 C2919 1.390 . S
C2924 C2923 1.387 1_655 S
H2925 C2937 0.930 . S
H2926 C2939 0.930 . S
H2927 C2940 0.930 . S
H2928 C2944 0.959 . S
H2929 C2944 0.959 . S
H2930 C2944 0.961 . S
H2931 C2945 0.960 . S
H2932 C2945 0.961 . S
H2933 C2945 0.959 . S
H2934 C2948 0.929 . S
H2935 C2949 0.931 . S
H2936 C2951 0.930 . S
C2937 H2925 0.930 . S
C2937 C2938 1.399 . S
C2937 C2942 1.399 . S
C2938 C2937 1.399 . S
C2938 C2939 1.376 . S
C2939 H2926 0.930 . S
C2939 C2938 1.376 . S
C2939 C2940 1.388 . S
C2940 H2927 0.930 . S
C2940 C2939 1.388 . S
C2940 C2941 1.390 . S
C2941 C2940 1.390 . S
C2941 C2942 1.394 . S
C2941 C2947 1.465 . S
C2942 C2937 1.399 . S
C2942 C2941 1.394 . S
C2942 C2943 1.516 . S
C2943 C2942 1.516 . S
C2943 C2944 1.502 . S
C2943 C2945 1.561 . S
C2943 C2946 1.526 . S
C2944 H2928 0.959 . S
C2944 H2929 0.959 . S
C2944 H2930 0.961 . S
C2944 C2943 1.502 . S
C2945 H2931 0.960 . S
C2945 H2932 0.961 . S
C2945 H2933 0.959 . S
C2945 C2943 1.561 . S
C2946 C2943 1.526 . S
C2946 C2947 1.396 . S
C2946 C2951 1.390 . S
C2947 C2941 1.465 . S
C2947 C2946 1.396 . S
C2947 C2948 1.399 . S
C2948 H2934 0.929 . S
C2948 C2947 1.399 . S
C2948 C2949 1.385 . S
C2949 H2935 0.931 . S
C2949 C2948 1.385 . S
C2949 C2950 1.389 . S
C2950 C2949 1.389 . S
C2950 C2951 1.387 . S
C2951 H2936 0.930 . S
C2951 C2946 1.390 . S
C2951 C2950 1.387 . S
H2952 C2964 0.930 . S
H2953 C2966 0.930 . S
H2954 C2967 0.930 . S
H2955 C2971 0.959 . S
H2956 C2971 0.959 . S
H2957 C2971 0.961 . S
H2958 C2972 0.960 . S
H2959 C2972 0.961 . S
H2960 C2972 0.959 . S
H2961 C2975 0.929 . S
H2962 C2976 0.931 . S
H2963 C2978 0.930 . S
C2964 H2952 0.930 . S
C2964 C2965 1.399 . S
C2964 C2969 1.399 . S
C2965 C2964 1.399 . S
C2965 C2966 1.376 . S
C2966 H2953 0.930 . S
C2966 C2965 1.376 . S
C2966 C2967 1.388 . S
C2967 H2954 0.930 . S
C2967 C2966 1.388 . S
C2967 C2968 1.390 . S
C2968 C2967 1.390 . S
C2968 C2969 1.394 . S
C2968 C2974 1.465 . S
C2969 C2964 1.399 . S
C2969 C2968 1.394 . S
C2969 C2970 1.516 . S
C2970 C2969 1.516 . S
C2970 C2971 1.502 . S
C2970 C2972 1.561 . S
C2970 C2973 1.526 . S
C2971 H2955 0.959 . S
C2971 H2956 0.959 . S
C2971 H2957 0.961 . S
C2971 C2970 1.502 . S
C2972 H2958 0.960 . S
C2972 H2959 0.961 . S
C2972 H2960 0.959 . S
C2972 C2970 1.561 . S
C2973 C2970 1.526 . S
C2973 C2974 1.396 . S
C2973 C2978 1.390 . S
C2974 C2968 1.465 . S
C2974 C2973 1.396 . S
C2974 C2975 1.399 . S
C2975 H2961 0.929 . S
C2975 C2974 1.399 . S
C2975 C2976 1.385 . S
C2976 H2962 0.931 . S
C2976 C2975 1.385 . S
C2976 C2977 1.389 . S
C2977 C2976 1.389 . S
C2977 C2978 1.387 . S
C2978 H2963 0.930 . S
C2978 C2973 1.390 . S
C2978 C2977 1.387 . S
H2979 C2991 0.930 . S
H2980 C2993 0.930 . S
H2981 C2994 0.930 . S
H2982 C2998 0.959 . S
H2983 C2998 0.959 . S
H2984 C2998 0.961 . S
H2985 C2999 0.960 . S
H2986 C2999 0.961 . S
H2987 C2999 0.959 . S
H2988 C3002 0.929 . S
H2989 C3003 0.931 . S
H2990 C3005 0.930 . S
C2991 H2979 0.930 . S
C2991 C2992 1.399 . S
C2991 C2996 1.399 . S
C2992 C2991 1.399 . S
C2992 C2993 1.376 . S
C2993 H2980 0.930 . S
C2993 C2992 1.376 . S
C2993 C2994 1.388 . S
C2994 H2981 0.930 . S
C2994 C2993 1.388 . S
C2994 C2995 1.390 . S
C2995 C2994 1.390 . S
C2995 C2996 1.394 . S
C2995 C3001 1.465 . S
C2996 C2991 1.399 . S
C2996 C2995 1.394 . S
C2996 C2997 1.516 . S
C2997 C2996 1.516 . S
C2997 C2998 1.502 . S
C2997 C2999 1.561 . S
C2997 C3000 1.526 . S
C2998 H2982 0.959 . S
C2998 H2983 0.959 . S
C2998 H2984 0.961 . S
C2998 C2997 1.502 . S
C2999 H2985 0.960 . S
C2999 H2986 0.961 . S
C2999 H2987 0.959 . S
C2999 C2997 1.561 . S
C3000 C2997 1.526 . S
C3000 C3001 1.396 . S
C3000 C3005 1.390 . S
C3001 C2995 1.465 . S
C3001 C3000 1.396 . S
C3001 C3002 1.399 . S
C3002 H2988 0.929 . S
C3002 C3001 1.399 . S
C3002 C3003 1.385 . S
C3003 H2989 0.931 . S
C3003 C3002 1.385 . S
C3003 C3004 1.389 . S
C3004 C3003 1.389 . S
C3004 C3005 1.387 . S
C3005 H2990 0.930 . S
C3005 C3000 1.390 . S
C3005 C3004 1.387 . S
H3006 C3018 0.930 . S
H3007 C3020 0.930 . S
H3008 C3021 0.930 . S
H3009 C3025 0.959 . S
H3010 C3025 0.959 . S
H3011 C3025 0.961 . S
H3012 C3026 0.960 . S
H3013 C3026 0.961 . S
H3014 C3026 0.959 . S
H3015 C3029 0.929 . S
H3016 C3030 0.931 . S
H3017 C3032 0.930 . S
C3018 H3006 0.930 . S
C3018 C3019 1.399 . S
C3018 C3023 1.399 . S
C3019 C3018 1.399 . S
C3019 C3020 1.376 . S
C3020 H3007 0.930 . S
C3020 C3019 1.376 . S
C3020 C3021 1.388 . S
C3021 H3008 0.930 . S
C3021 C3020 1.388 . S
C3021 C3022 1.390 . S
C3022 C3021 1.390 . S
C3022 C3023 1.394 . S
C3022 C3028 1.465 . S
C3023 C3018 1.399 . S
C3023 C3022 1.394 . S
C3023 C3024 1.516 . S
C3024 C3023 1.516 . S
C3024 C3025 1.502 . S
C3024 C3026 1.561 . S
C3024 C3027 1.526 . S
C3025 H3009 0.959 . S
C3025 H3010 0.959 . S
C3025 H3011 0.961 . S
C3025 C3024 1.502 . S
C3026 H3012 0.960 . S
C3026 H3013 0.961 . S
C3026 H3014 0.959 . S
C3026 C3024 1.561 . S
C3027 C3024 1.526 . S
C3027 C3028 1.396 . S
C3027 C3032 1.390 . S
C3028 C3022 1.465 . S
C3028 C3027 1.396 . S
C3028 C3029 1.399 . S
C3029 H3015 0.929 . S
C3029 C3028 1.399 . S
C3029 C3030 1.385 . S
C3030 H3016 0.931 . S
C3030 C3029 1.385 . S
C3030 C3031 1.389 . S
C3031 C3030 1.389 . S
C3031 C3032 1.387 . S
C3032 H3017 0.930 . S
C3032 C3027 1.390 . S
C3032 C3031 1.387 . S
H3033 C3045 0.930 . S
H3034 C3047 0.930 . S
H3035 C3048 0.930 . S
H3036 C3052 0.959 . S
H3037 C3052 0.959 . S
H3038 C3052 0.961 . S
H3039 C3053 0.960 . S
H3040 C3053 0.961 . S
H3041 C3053 0.959 . S
H3042 C3056 0.929 . S
H3043 C3057 0.931 . S
H3044 C3059 0.930 . S
C3045 H3033 0.930 . S
C3045 C3046 1.399 . S
C3045 C3050 1.399 . S
C3046 C3045 1.399 . S
C3046 C3047 1.376 . S
C3047 H3034 0.930 . S
C3047 C3046 1.376 . S
C3047 C3048 1.388 . S
C3048 H3035 0.930 . S
C3048 C3047 1.388 . S
C3048 C3049 1.390 . S
C3049 C3048 1.390 . S
C3049 C3050 1.394 . S
C3049 C3055 1.465 . S
C3050 C3045 1.399 . S
C3050 C3049 1.394 . S
C3050 C3051 1.516 . S
C3051 C3050 1.516 . S
C3051 C3052 1.502 . S
C3051 C3053 1.561 . S
C3051 C3054 1.526 . S
C3052 H3036 0.959 . S
C3052 H3037 0.959 . S
C3052 H3038 0.961 . S
C3052 C3051 1.502 . S
C3053 H3039 0.960 . S
C3053 H3040 0.961 . S
C3053 H3041 0.959 . S
C3053 C3051 1.561 . S
C3054 C3051 1.526 . S
C3054 C3055 1.396 . S
C3054 C3059 1.390 . S
C3055 C3049 1.465 . S
C3055 C3054 1.396 . S
C3055 C3056 1.399 . S
C3056 H3042 0.929 . S
C3056 C3055 1.399 . S
C3056 C3057 1.385 . S
C3057 H3043 0.931 . S
C3057 C3056 1.385 . S
C3057 C3058 1.389 . S
C3058 C3057 1.389 . S
C3058 C3059 1.387 . S
C3059 H3044 0.930 . S
C3059 C3054 1.390 . S
C3059 C3058 1.387 . S
H3060 C3072 0.930 . S
H3061 C3074 0.930 . S
H3062 C3075 0.930 . S
H3063 C3079 0.959 . S
H3064 C3079 0.959 . S
H3065 C3079 0.961 . S
H3066 C3080 0.960 . S
H3067 C3080 0.961 . S
H3068 C3080 0.959 . S
H3069 C3083 0.929 . S
H3070 C3084 0.931 . S
H3071 C3086 0.930 . S
C3072 H3060 0.930 . S
C3072 C3073 1.399 . S
C3072 C3077 1.399 . S
C3073 C3072 1.399 . S
C3073 C3074 1.376 . S
C3074 H3061 0.930 . S
C3074 C3073 1.376 . S
C3074 C3075 1.388 . S
C3075 H3062 0.930 . S
C3075 C3074 1.388 . S
C3075 C3076 1.390 . S
C3076 C3075 1.390 . S
C3076 C3077 1.394 . S
C3076 C3082 1.465 . S
C3077 C3072 1.399 . S
C3077 C3076 1.394 . S
C3077 C3078 1.516 . S
C3078 C3077 1.516 . S
C3078 C3079 1.502 . S
C3078 C3080 1.561 . S
C3078 C3081 1.526 . S
C3079 H3063 0.959 . S
C3079 H3064 0.959 . S
C3079 H3065 0.961 . S
C3079 C3078 1.502 . S
C3080 H3066 0.960 . S
C3080 H3067 0.961 . S
C3080 H3068 0.959 . S
C3080 C3078 1.561 . S
C3081 C3078 1.526 . S
C3081 C3082 1.396 . S
C3081 C3086 1.390 . S
C3082 C3076 1.465 . S
C3082 C3081 1.396 . S
C3082 C3083 1.399 . S
C3083 H3069 0.929 . S
C3083 C3082 1.399 . S
C3083 C3084 1.385 . S
C3084 H3070 0.931 . S
C3084 C3083 1.385 . S
C3084 C3085 1.389 . S
C3085 C3084 1.389 . S
C3085 C3086 1.387 . S
C3086 H3071 0.930 . S
C3086 C3081 1.390 . S
C3086 C3085 1.387 . S
H3087 C3099 0.930 . S
H3088 C3101 0.930 . S
H3089 C3102 0.930 . S
H3090 C3106 0.959 . S
H3091 C3106 0.959 . S
H3092 C3106 0.961 . S
H3093 C3107 0.960 . S
H3094 C3107 0.961 . S
H3095 C3107 0.959 . S
H3096 C3110 0.929 . S
H3097 C3111 0.931 . S
H3098 C3113 0.930 . S
C3099 H3087 0.930 . S
C3099 C3100 1.399 . S
C3099 C3104 1.399 . S
C3100 C3099 1.399 . S
C3100 C3101 1.376 . S
C3101 H3088 0.930 . S
C3101 C3100 1.376 . S
C3101 C3102 1.388 . S
C3102 H3089 0.930 . S
C3102 C3101 1.388 . S
C3102 C3103 1.390 . S
C3103 C3102 1.390 . S
C3103 C3104 1.394 . S
C3103 C3109 1.465 . S
C3104 C3099 1.399 . S
C3104 C3103 1.394 . S
C3104 C3105 1.516 . S
C3105 C3104 1.516 . S
C3105 C3106 1.502 . S
C3105 C3107 1.561 . S
C3105 C3108 1.526 . S
C3106 H3090 0.959 . S
C3106 H3091 0.959 . S
C3106 H3092 0.961 . S
C3106 C3105 1.502 . S
C3107 H3093 0.960 . S
C3107 H3094 0.961 . S
C3107 H3095 0.959 . S
C3107 C3105 1.561 . S
C3108 C3105 1.526 . S
C3108 C3109 1.396 . S
C3108 C3113 1.390 . S
C3109 C3103 1.465 . S
C3109 C3108 1.396 . S
C3109 C3110 1.399 . S
C3110 H3096 0.929 . S
C3110 C3109 1.399 . S
C3110 C3111 1.385 . S
C3111 H3097 0.931 . S
C3111 C3110 1.385 . S
C3111 C3112 1.389 . S
C3112 C3111 1.389 . S
C3112 C3113 1.387 . S
C3113 H3098 0.930 . S
C3113 C3108 1.390 . S
C3113 C3112 1.387 . S
H3114 C3126 0.930 . S
H3115 C3128 0.930 . S
H3116 C3129 0.930 . S
H3117 C3133 0.959 . S
H3118 C3133 0.959 . S
H3119 C3133 0.961 . S
H3120 C3134 0.960 . S
H3121 C3134 0.961 . S
H3122 C3134 0.959 . S
H3123 C3137 0.929 . S
H3124 C3138 0.931 . S
H3125 C3140 0.930 . S
C3126 H3114 0.930 . S
C3126 C3127 1.399 . S
C3126 C3131 1.399 . S
C3127 C3126 1.399 . S
C3127 C3128 1.376 . S
C3128 H3115 0.930 . S
C3128 C3127 1.376 . S
C3128 C3129 1.388 . S
C3129 H3116 0.930 . S
C3129 C3128 1.388 . S
C3129 C3130 1.390 . S
C3130 C3129 1.390 . S
C3130 C3131 1.394 . S
C3130 C3136 1.465 . S
C3131 C3126 1.399 . S
C3131 C3130 1.394 . S
C3131 C3132 1.516 . S
C3132 C3131 1.516 . S
C3132 C3133 1.502 . S
C3132 C3134 1.561 . S
C3132 C3135 1.526 . S
C3133 H3117 0.959 . S
C3133 H3118 0.959 . S
C3133 H3119 0.961 . S
C3133 C3132 1.502 . S
C3134 H3120 0.960 . S
C3134 H3121 0.961 . S
C3134 H3122 0.959 . S
C3134 C3132 1.561 . S
C3135 C3132 1.526 . S
C3135 C3136 1.396 . S
C3135 C3140 1.390 . S
C3136 C3130 1.465 . S
C3136 C3135 1.396 . S
C3136 C3137 1.399 . S
C3137 H3123 0.929 . S
C3137 C3136 1.399 . S
C3137 C3138 1.385 . S
C3138 H3124 0.931 . S
C3138 C3137 1.385 . S
C3138 C3139 1.389 . S
C3139 C3138 1.389 . S
C3139 C3140 1.387 . S
C3140 H3125 0.930 . S
C3140 C3135 1.390 . S
C3140 C3139 1.387 . S
H3141 C3153 0.930 . S
H3142 C3155 0.930 . S
H3143 C3156 0.930 . S
H3144 C3160 0.959 . S
H3145 C3160 0.959 . S
H3146 C3160 0.961 . S
H3147 C3161 0.960 . S
H3148 C3161 0.961 . S
H3149 C3161 0.959 . S
H3150 C3164 0.929 . S
H3151 C3165 0.931 . S
H3152 C3167 0.930 . S
C3153 H3141 0.930 . S
C3153 C3154 1.399 . S
C3153 C3158 1.399 . S
C3154 C3153 1.399 . S
C3154 C3155 1.376 . S
C3155 H3142 0.930 . S
C3155 C3154 1.376 . S
C3155 C3156 1.388 . S
C3156 H3143 0.930 . S
C3156 C3155 1.388 . S
C3156 C3157 1.390 . S
C3157 C3156 1.390 . S
C3157 C3158 1.394 . S
C3157 C3163 1.465 . S
C3158 C3153 1.399 . S
C3158 C3157 1.394 . S
C3158 C3159 1.516 . S
C3159 C3158 1.516 . S
C3159 C3160 1.502 . S
C3159 C3161 1.561 . S
C3159 C3162 1.526 . S
C3160 H3144 0.959 . S
C3160 H3145 0.959 . S
C3160 H3146 0.961 . S
C3160 C3159 1.502 . S
C3161 H3147 0.960 . S
C3161 H3148 0.961 . S
C3161 H3149 0.959 . S
C3161 C3159 1.561 . S
C3162 C3159 1.526 . S
C3162 C3163 1.396 . S
C3162 C3167 1.390 . S
C3163 C3157 1.465 . S
C3163 C3162 1.396 . S
C3163 C3164 1.399 . S
C3164 H3150 0.929 . S
C3164 C3163 1.399 . S
C3164 C3165 1.385 . S
C3165 H3151 0.931 . S
C3165 C3164 1.385 . S
C3165 C3166 1.389 . S
C3166 C3165 1.389 . S
C3166 C3167 1.387 . S
C3167 H3152 0.930 . S
C3167 C3162 1.390 . S
C3167 C3166 1.387 . S
H3168 C3180 0.930 . S
H3169 C3182 0.930 . S
H3170 C3183 0.930 . S
H3171 C3187 0.959 . S
H3172 C3187 0.959 . S
H3173 C3187 0.961 . S
H3174 C3188 0.960 . S
H3175 C3188 0.961 . S
H3176 C3188 0.959 . S
H3177 C3191 0.929 . S
H3178 C3192 0.931 . S
H3179 C3194 0.930 . S
C3180 H3168 0.930 . S
C3180 C3181 1.399 . S
C3180 C3185 1.399 . S
C3181 C3180 1.399 . S
C3181 C3182 1.376 . S
C3182 H3169 0.930 . S
C3182 C3181 1.376 . S
C3182 C3183 1.388 . S
C3183 H3170 0.930 . S
C3183 C3182 1.388 . S
C3183 C3184 1.390 . S
C3184 C3183 1.390 . S
C3184 C3185 1.394 . S
C3184 C3190 1.465 . S
C3185 C3180 1.399 . S
C3185 C3184 1.394 . S
C3185 C3186 1.516 . S
C3186 C3185 1.516 . S
C3186 C3187 1.502 . S
C3186 C3188 1.561 . S
C3186 C3189 1.526 . S
C3187 H3171 0.959 . S
C3187 H3172 0.959 . S
C3187 H3173 0.961 . S
C3187 C3186 1.502 . S
C3188 H3174 0.960 . S
C3188 H3175 0.961 . S
C3188 H3176 0.959 . S
C3188 C3186 1.561 . S
C3189 C3186 1.526 . S
C3189 C3190 1.396 . S
C3189 C3194 1.390 . S
C3190 C3184 1.465 . S
C3190 C3189 1.396 . S
C3190 C3191 1.399 . S
C3191 H3177 0.929 . S
C3191 C3190 1.399 . S
C3191 C3192 1.385 . S
C3192 H3178 0.931 . S
C3192 C3191 1.385 . S
C3192 C3193 1.389 . S
C3193 C3192 1.389 . S
C3193 C3194 1.387 . S
C3194 H3179 0.930 . S
C3194 C3189 1.390 . S
C3194 C3193 1.387 . S
H3195 C3207 0.930 . S
H3196 C3209 0.930 . S
H3197 C3210 0.930 . S
H3198 C3214 0.959 . S
H3199 C3214 0.959 . S
H3200 C3214 0.961 . S
H3201 C3215 0.960 . S
H3202 C3215 0.961 . S
H3203 C3215 0.959 . S
H3204 C3218 0.929 . S
H3205 C3219 0.931 . S
H3206 C3221 0.930 . S
C3207 H3195 0.930 . S
C3207 C3208 1.399 . S
C3207 C3212 1.399 . S
C3208 C3207 1.399 . S
C3208 C3209 1.376 . S
C3209 H3196 0.930 . S
C3209 C3208 1.376 . S
C3209 C3210 1.388 . S
C3210 H3197 0.930 . S
C3210 C3209 1.388 . S
C3210 C3211 1.390 . S
C3211 C3210 1.390 . S
C3211 C3212 1.394 . S
C3211 C3217 1.465 . S
C3212 C3207 1.399 . S
C3212 C3211 1.394 . S
C3212 C3213 1.516 . S
C3213 C3212 1.516 . S
C3213 C3214 1.502 . S
C3213 C3215 1.561 . S
C3213 C3216 1.526 . S
C3214 H3198 0.959 . S
C3214 H3199 0.959 . S
C3214 H3200 0.961 . S
C3214 C3213 1.502 . S
C3215 H3201 0.960 . S
C3215 H3202 0.961 . S
C3215 H3203 0.959 . S
C3215 C3213 1.561 . S
C3216 C3213 1.526 . S
C3216 C3217 1.396 . S
C3216 C3221 1.390 . S
C3217 C3211 1.465 . S
C3217 C3216 1.396 . S
C3217 C3218 1.399 . S
C3218 H3204 0.929 . S
C3218 C3217 1.399 . S
C3218 C3219 1.385 . S
C3219 H3205 0.931 . S
C3219 C3218 1.385 . S
C3219 C3220 1.389 . S
C3220 C3219 1.389 . S
C3220 C3221 1.387 . S
C3221 H3206 0.930 . S
C3221 C3216 1.390 . S
C3221 C3220 1.387 . S
H3222 C3234 0.930 . S
H3223 C3236 0.930 . S
H3224 C3237 0.930 . S
H3225 C3241 0.959 . S
H3226 C3241 0.959 . S
H3227 C3241 0.961 . S
H3228 C3242 0.960 . S
H3229 C3242 0.961 . S
H3230 C3242 0.959 . S
H3231 C3245 0.929 . S
H3232 C3246 0.931 . S
H3233 C3248 0.930 . S
C3234 H3222 0.930 . S
C3234 C3235 1.399 . S
C3234 C3239 1.399 . S
C3235 C3234 1.399 . S
C3235 C3236 1.376 . S
C3236 H3223 0.930 . S
C3236 C3235 1.376 . S
C3236 C3237 1.388 . S
C3237 H3224 0.930 . S
C3237 C3236 1.388 . S
C3237 C3238 1.390 . S
C3238 C3237 1.390 . S
C3238 C3239 1.394 . S
C3238 C3244 1.465 . S
C3239 C3234 1.399 . S
C3239 C3238 1.394 . S
C3239 C3240 1.516 . S
C3240 C3239 1.516 . S
C3240 C3241 1.502 . S
C3240 C3242 1.561 . S
C3240 C3243 1.526 . S
C3241 H3225 0.959 . S
C3241 H3226 0.959 . S
C3241 H3227 0.961 . S
C3241 C3240 1.502 . S
C3242 H3228 0.960 . S
C3242 H3229 0.961 . S
C3242 H3230 0.959 . S
C3242 C3240 1.561 . S
C3243 C3240 1.526 . S
C3243 C3244 1.396 . S
C3243 C3248 1.390 . S
C3244 C3238 1.465 . S
C3244 C3243 1.396 . S
C3244 C3245 1.399 . S
C3245 H3231 0.929 . S
C3245 C3244 1.399 . S
C3245 C3246 1.385 . S
C3246 H3232 0.931 . S
C3246 C3245 1.385 . S
C3246 C3247 1.389 . S
C3247 C3246 1.389 . S
C3247 C3248 1.387 . S
C3248 H3233 0.930 . S
C3248 C3243 1.390 . S
C3248 C3247 1.387 . S
H3249 C3261 0.930 . S
H3250 C3263 0.930 . S
H3251 C3264 0.930 . S
H3252 C3268 0.959 . S
H3253 C3268 0.959 . S
H3254 C3268 0.961 . S
H3255 C3269 0.960 . S
H3256 C3269 0.961 1_545 S
H3257 C3269 0.959 1_545 S
H3258 C3272 0.929 . S
H3259 C3273 0.931 . S
H3260 C3275 0.930 . S
C3261 H3249 0.930 . S
C3261 C3262 1.399 . S
C3261 C3266 1.399 . S
C3262 C3261 1.399 . S
C3262 C3263 1.376 1_554 S
C3263 H3250 0.930 . S
C3263 C3262 1.376 1_556 S
C3263 C3264 1.388 . S
C3264 H3251 0.930 . S
C3264 C3263 1.388 . S
C3264 C3265 1.390 1_556 S
C3265 C3264 1.390 1_554 S
C3265 C3266 1.394 . S
C3265 C3271 1.465 . S
C3266 C3261 1.399 . S
C3266 C3265 1.394 . S
C3266 C3267 1.516 . S
C3267 C3266 1.516 . S
C3267 C3268 1.502 . S
C3267 C3269 1.561 . S
C3267 C3270 1.526 . S
C3268 H3252 0.959 . S
C3268 H3253 0.959 . S
C3268 H3254 0.961 . S
C3268 C3267 1.502 . S
C3269 H3255 0.960 . S
C3269 H3256 0.961 1_565 S
C3269 H3257 0.959 1_565 S
C3269 C3267 1.561 . S
C3270 C3267 1.526 . S
C3270 C3271 1.396 . S
C3270 C3275 1.390 . S
C3271 C3265 1.465 . S
C3271 C3270 1.396 . S
C3271 C3272 1.399 1_564 S
C3272 H3258 0.929 . S
C3272 C3271 1.399 1_546 S
C3272 C3273 1.385 . S
C3273 H3259 0.931 . S
C3273 C3272 1.385 . S
C3273 C3274 1.389 1_556 S
C3274 C3273 1.389 1_554 S
C3274 C3275 1.387 1_545 S
C3275 H3260 0.930 . S
C3275 C3270 1.390 . S
C3275 C3274 1.387 1_565 S
H3276 C3288 0.930 . S
H3277 C3290 0.930 . S
H3278 C3291 0.930 . S
H3279 C3295 0.959 . S
H3280 C3295 0.959 . S
H3281 C3295 0.961 . S
H3282 C3296 0.960 . S
H3283 C3296 0.961 . S
H3284 C3296 0.959 . S
H3285 C3299 0.929 . S
H3286 C3300 0.931 . S
H3287 C3302 0.930 . S
C3288 H3276 0.930 . S
C3288 C3289 1.399 . S
C3288 C3293 1.399 . S
C3289 C3288 1.399 . S
C3289 C3290 1.376 . S
C3290 H3277 0.930 . S
C3290 C3289 1.376 . S
C3290 C3291 1.388 . S
C3291 H3278 0.930 . S
C3291 C3290 1.388 . S
C3291 C3292 1.390 . S
C3292 C3291 1.390 . S
C3292 C3293 1.394 . S
C3292 C3298 1.465 . S
C3293 C3288 1.399 . S
C3293 C3292 1.394 . S
C3293 C3294 1.516 . S
C3294 C3293 1.516 . S
C3294 C3295 1.502 . S
C3294 C3296 1.561 . S
C3294 C3297 1.526 . S
C3295 H3279 0.959 . S
C3295 H3280 0.959 . S
C3295 H3281 0.961 . S
C3295 C3294 1.502 . S
C3296 H3282 0.960 . S
C3296 H3283 0.961 . S
C3296 H3284 0.959 . S
C3296 C3294 1.561 . S
C3297 C3294 1.526 . S
C3297 C3298 1.396 . S
C3297 C3302 1.390 . S
C3298 C3292 1.465 . S
C3298 C3297 1.396 . S
C3298 C3299 1.399 . S
C3299 H3285 0.929 . S
C3299 C3298 1.399 . S
C3299 C3300 1.385 . S
C3300 H3286 0.931 . S
C3300 C3299 1.385 . S
C3300 C3301 1.389 . S
C3301 C3300 1.389 . S
C3301 C3302 1.387 . S
C3302 H3287 0.930 . S
C3302 C3297 1.390 . S
C3302 C3301 1.387 . S
H3303 C3315 0.930 . S
H3304 C3317 0.930 . S
H3305 C3318 0.930 . S
H3306 C3322 0.959 1_554 S
H3307 C3322 0.959 . S
H3308 C3322 0.961 . S
H3309 C3323 0.960 . S
H3310 C3323 0.961 . S
H3311 C3323 0.959 . S
H3312 C3326 0.929 . S
H3313 C3327 0.931 . S
H3314 C3329 0.930 . S
C3315 H3303 0.930 . S
C3315 C3316 1.399 1_556 S
C3315 C3320 1.399 1_556 S
C3316 C3315 1.399 1_554 S
C3316 C3317 1.376 . S
C3317 H3304 0.930 . S
C3317 C3316 1.376 . S
C3317 C3318 1.388 . S
C3318 H3305 0.930 . S
C3318 C3317 1.388 . S
C3318 C3319 1.390 . S
C3319 C3318 1.390 . S
C3319 C3320 1.394 . S
C3319 C3325 1.465 . S
C3320 C3315 1.399 1_554 S
C3320 C3319 1.394 . S
C3320 C3321 1.516 1_554 S
C3321 C3320 1.516 1_556 S
C3321 C3322 1.502 . S
C3321 C3323 1.561 . S
C3321 C3324 1.526 1_556 S
C3322 H3306 0.959 1_556 S
C3322 H3307 0.959 . S
C3322 H3308 0.961 . S
C3322 C3321 1.502 . S
C3323 H3309 0.960 . S
C3323 H3310 0.961 . S
C3323 H3311 0.959 . S
C3323 C3321 1.561 . S
C3324 C3321 1.526 1_554 S
C3324 C3325 1.396 . S
C3324 C3329 1.390 . S
C3325 C3319 1.465 . S
C3325 C3324 1.396 . S
C3325 C3326 1.399 . S
C3326 H3312 0.929 . S
C3326 C3325 1.399 . S
C3326 C3327 1.385 . S
C3327 H3313 0.931 . S
C3327 C3326 1.385 . S
C3327 C3328 1.389 . S
C3328 C3327 1.389 . S
C3328 C3329 1.387 . S
C3329 H3314 0.930 . S
C3329 C3324 1.390 . S
C3329 C3328 1.387 . S
H3330 C3342 0.930 . S
H3331 C3344 0.930 . S
H3332 C3345 0.930 . S
H3333 C3349 0.959 . S
H3334 C3349 0.959 . S
H3335 C3349 0.961 . S
H3336 C3350 0.960 . S
H3337 C3350 0.961 . S
H3338 C3350 0.959 . S
H3339 C3353 0.929 . S
H3340 C3354 0.931 . S
H3341 C3356 0.930 . S
C3342 H3330 0.930 . S
C3342 C3343 1.399 . S
C3342 C3347 1.399 . S
C3343 C3342 1.399 . S
C3343 C3344 1.376 . S
C3344 H3331 0.930 . S
C3344 C3343 1.376 . S
C3344 C3345 1.388 . S
C3345 H3332 0.930 . S
C3345 C3344 1.388 . S
C3345 C3346 1.390 . S
C3346 C3345 1.390 . S
C3346 C3347 1.394 . S
C3346 C3352 1.465 . S
C3347 C3342 1.399 . S
C3347 C3346 1.394 . S
C3347 C3348 1.516 . S
C3348 C3347 1.516 . S
C3348 C3349 1.502 . S
C3348 C3350 1.561 . S
C3348 C3351 1.526 . S
C3349 H3333 0.959 . S
C3349 H3334 0.959 . S
C3349 H3335 0.961 . S
C3349 C3348 1.502 . S
C3350 H3336 0.960 . S
C3350 H3337 0.961 . S
C3350 H3338 0.959 . S
C3350 C3348 1.561 . S
C3351 C3348 1.526 . S
C3351 C3352 1.396 . S
C3351 C3356 1.390 . S
C3352 C3346 1.465 . S
C3352 C3351 1.396 . S
C3352 C3353 1.399 . S
C3353 H3339 0.929 . S
C3353 C3352 1.399 . S
C3353 C3354 1.385 . S
C3354 H3340 0.931 . S
C3354 C3353 1.385 . S
C3354 C3355 1.389 . S
C3355 C3354 1.389 . S
C3355 C3356 1.387 . S
C3356 H3341 0.930 . S
C3356 C3351 1.390 . S
C3356 C3355 1.387 . S
H3357 C3369 0.930 . S
H3358 C3371 0.930 . S
H3359 C3372 0.930 . S
H3360 C3376 0.959 . S
H3361 C3376 0.959 . S
H3362 C3376 0.961 . S
H3363 C3377 0.960 . S
H3364 C3377 0.961 . S
H3365 C3377 0.959 . S
H3366 C3380 0.929 . S
H3367 C3381 0.931 . S
H3368 C3383 0.930 . S
C3369 H3357 0.930 . S
C3369 C3370 1.399 . S
C3369 C3374 1.399 . S
C3370 C3369 1.399 . S
C3370 C3371 1.376 . S
C3371 H3358 0.930 . S
C3371 C3370 1.376 . S
C3371 C3372 1.388 . S
C3372 H3359 0.930 . S
C3372 C3371 1.388 . S
C3372 C3373 1.390 . S
C3373 C3372 1.390 . S
C3373 C3374 1.394 . S
C3373 C3379 1.465 . S
C3374 C3369 1.399 . S
C3374 C3373 1.394 . S
C3374 C3375 1.516 . S
C3375 C3374 1.516 . S
C3375 C3376 1.502 . S
C3375 C3377 1.561 . S
C3375 C3378 1.526 . S
C3376 H3360 0.959 . S
C3376 H3361 0.959 . S
C3376 H3362 0.961 . S
C3376 C3375 1.502 . S
C3377 H3363 0.960 . S
C3377 H3364 0.961 . S
C3377 H3365 0.959 . S
C3377 C3375 1.561 . S
C3378 C3375 1.526 . S
C3378 C3379 1.396 . S
C3378 C3383 1.390 . S
C3379 C3373 1.465 . S
C3379 C3378 1.396 . S
C3379 C3380 1.399 . S
C3380 H3366 0.929 . S
C3380 C3379 1.399 . S
C3380 C3381 1.385 . S
C3381 H3367 0.931 . S
C3381 C3380 1.385 . S
C3381 C3382 1.389 . S
C3382 C3381 1.389 . S
C3382 C3383 1.387 . S
C3383 H3368 0.930 . S
C3383 C3378 1.390 . S
C3383 C3382 1.387 . S
C817 C313 1.756 . S
C805 C10 1.746 . S
C832 C13 0.903 . S
C844 C358 0.843 . S
C859 C34 1.629 . S
C871 C382 1.624 . S
C898 N408 0.974 . S
C886 C44 0.912 . S
C913 C21 1.013 . S
C925 N438 1.048 . S
C952 C472 1.433 . S
C940 C26 1.455 . S
C979 C508 1.087 . S
C967 C49 1.077 . S
C994 C5 1.642 . S
C1006 C532 1.643 . S
C1021 C62 0.887 . S
C1033 N326 0.906 . S
C1048 C73 0.945 . S
C1060 N348 0.997 . S
C1087 C388 0.890 . S
C1075 C88 0.878 . S
C1114 C412 1.672 . S
C1102 C99 1.594 . S
C1129 C60 1.125 . S
C1141 C442 1.034 . S
C1168 C478 0.929 . S
C1156 C75 0.961 . S
C1195 N498 0.991 . S
C1183 C86 1.024 . S
C1222 C538 1.600 . S
C1210 C101 1.625 . S
C1249 C339 1.591 . S
C1237 C96 1.553 . S
C1276 C568 0.898 . S
C1264 C104 0.824 . S
C1291 C122 1.004 . S
C1303 N588 0.974 . S
C1330 C622 1.433 . S
C1318 C130 1.476 . S
C1345 C57 0.808 . S
C1357 N528 0.813 . S
C1384 N378 1.016 1_565 S
C1372 C70 0.938 . S
C1399 C117 0.922 . S
C1411 C658 0.868 . S
C1438 C682 0.800 . S
C1426 C143 0.934 . S
C1453 C164 1.824 . S
C1465 C322 1.830 1_556 S
C1492 C699 0.956 . S
C1480 C169 0.952 . S
C1507 C192 1.735 . S
C1519 C373 1.687 . S
C1534 C200 1.044 . S
C1546 N656 1.010 . S
C1573 N446 1.104 . S
C1561 C179 1.081 . S
C1600 C583 1.523 . S
C1588 C182 1.535 . S
C1627 C519 1.204 . S
C1615 C203 1.202 . S
C1654 C703 1.708 . S
C1642 C161 1.728 . S
C1681 N318 0.956 . S
C1669 C216 0.884 . S
C1696 C231 1.051 . S
C1708 N686 1.063 . S
C1735 C399 1.017 . S
C1723 C242 1.026 . S
C1750 C257 1.747 . S
C1762 C643 1.710 . S
C1777 C218 1.165 . S
C1789 C433 1.205 1_655 S
C1804 C229 1.045 . S
C1816 C609 1.044 . S
C1843 N506 1.031 . S
C1831 C244 1.011 . S
C1858 C255 1.675 . S
C1870 C729 1.671 . S
C1885 C252 1.607 . S
C1897 C328 1.663 . S
C1912 C260 0.880 1_556 S
C1924 C579 0.928 . S
C1939 C278 1.009 . S
C1951 N476 1.042 . S
C1966 C286 1.517 . S
C1978 C613 1.542 . S
C2005 N716 0.886 . S
C1993 C213 0.850 . S
C2032 N386 1.045 . S
C2020 C226 1.041 . S
C2059 C429 0.936 . S
C2047 C273 0.890 . S
C2086 C343 0.980 . S
C2074 C299 0.994 . S
C2101 C36 1.748 . S
C2113 C733 1.750 . S
C2140 C688 0.833 . S
C2128 C39 0.900 . S
C2167 C772 1.654 . S
C2155 C8 1.587 . S
C2182 C18 0.973 1_655 S
C2194 N648 0.945 . S
C2209 C47 1.006 . S
C2221 N558 1.066 . S
C2248 C592 1.430 . S
C2236 C0 1.458 . S
C2275 C628 1.076 . S
C2263 C23 1.099 . S
C2302 C712 1.642 . S
C2290 C31 1.680 . S
C2329 N746 0.901 . S
C2317 C153 0.880 . S
C2344 C112 0.931 . S
C2356 N678 0.998 . S
C2371 C127 0.879 . S
C2383 C778 0.876 1_655 S
C2410 C652 1.649 . S
C2398 C138 1.625 . S
C2437 C562 1.120 . S
C2425 C151 1.018 . S
C2452 C114 0.939 . S
C2464 C598 0.972 . S
C2491 N618 0.983 . S
C2479 C125 1.017 . S
C2506 C140 1.599 . S
C2518 C718 1.615 . S
C2545 C759 1.593 . S
C2533 C135 1.555 . S
C2572 C448 0.858 . S
C2560 C65 0.913 . S
C2599 N468 0.996 . S
C2587 C83 0.947 1_565 S
C2614 C91 1.400 . S
C2626 C502 1.488 . S
C2653 N708 0.819 . S
C2641 C148 0.792 . S
C2668 C109 1.002 . S
C2680 N768 0.993 . S
C2707 C418 0.909 . S
C2695 C78 0.863 . S
C2734 C352 0.923 . S
C2722 C52 0.780 . S
C2749 C190 1.819 . S
C2761 C742 1.824 . S
C2788 C369 0.918 . S
C2776 C195 0.871 . S
C2815 C763 1.688 1_556 S
C2803 C166 1.738 . S
C2830 C174 0.950 . S
C2842 N416 1.030 . S
C2857 C205 1.102 . S
C2869 N566 1.087 . S
C2884 C156 1.517 . S
C2896 C463 1.505 . S
C2911 C177 1.119 . S
C2923 C639 1.173 . S
C2938 C187 1.723 . S
C2950 C523 1.752 . S
C2977 N738 0.937 . S
C2965 C307 0.949 . S
C2992 C270 1.069 . S
C3004 N356 1.046 . S
C3031 C789 0.971 . S
C3019 C281 0.929 . S
C3046 C296 1.750 . S
C3058 C403 1.746 . S
C3073 C309 1.214 . S
C3085 C553 1.146 . S
C3112 C489 1.063 . S
C3100 C268 1.037 . S
C3127 C283 1.003 . S
C3139 N626 1.039 . S
C3166 C549 1.666 . S
C3154 C294 1.668 . S
C3193 C748 1.636 . S
C3181 C291 1.622 . S
C3220 C459 0.927 . S
C3208 C221 0.884 . S
C3235 C239 1.012 . S
C3247 N596 1.043 . S
C3274 C493 1.558 . S
C3262 C247 1.560 . S
C3301 N536 0.851 . S
C3289 C304 0.858 . S
C3316 C265 1.036 . S
C3328 N776 1.046 . S
C3355 C669 0.936 . S
C3343 C234 0.892 . S
C3382 C673 0.985 . S
C3370 C208 0.994 . S
