# Generated by pormake.
# Topology zzz, (3,6)-cn, num edge types: 1
# Building blocks:
#     Node 0, Type 0, BuildingBlock: WUSLED_clean_sbu_0, # of connection points: 3
#     Node 1, Type 0, BuildingBlock: WUSLED_clean_sbu_0, # of connection points: 3
#     Node 2, Type 0, BuildingBlock: WUSLED_clean_sbu_0, # of connection points: 3
#     Node 3, Type 0, BuildingBlock: WUSLED_clean_sbu_0, # of connection points: 3
#     Node 4, Type 0, BuildingBlock: WUSLED_clean_sbu_0, # of connection points: 3
#     Node 5, Type 0, BuildingBlock: WUSLED_clean_sbu_0, # of connection points: 3
#     Node 6, Type 0, BuildingBlock: WUSLED_clean_sbu_0, # of connection points: 3
#     Node 7, Type 0, BuildingBlock: WUSLED_clean_sbu_0, # of connection points: 3
#     Node 8, Type 1, BuildingBlock: PAMTUU_clean_sbu_0, # of connection points: 6
#     Node 9, Type 1, BuildingBlock: PAMTUU_clean_sbu_0, # of connection points: 6
#     Node 10, Type 1, BuildingBlock: PAMTUU_clean_sbu_0, # of connection points: 6
#     Node 11, Type 1, BuildingBlock: PAMTUU_clean_sbu_0, # of connection points: 6
#     Edge 12, Type (0, 1), BuildingBlock: OJICUG_clean_linker_0, # of connection points: 2
#     Edge 13, Type (0, 1), BuildingBlock: OJICUG_clean_linker_0, # of connection points: 2
#     Edge 14, Type (0, 1), BuildingBlock: OJICUG_clean_linker_0, # of connection points: 2
#     Edge 15, Type (0, 1), BuildingBlock: OJICUG_clean_linker_0, # of connection points: 2
#     Edge 16, Type (0, 1), BuildingBlock: OJICUG_clean_linker_0, # of connection points: 2
#     Edge 17, Type (0, 1), BuildingBlock: OJICUG_clean_linker_0, # of connection points: 2
#     Edge 18, Type (0, 1), BuildingBlock: OJICUG_clean_linker_0, # of connection points: 2
#     Edge 19, Type (0, 1), BuildingBlock: OJICUG_clean_linker_0, # of connection points: 2
#     Edge 20, Type (0, 1), BuildingBlock: OJICUG_clean_linker_0, # of connection points: 2
#     Edge 21, Type (0, 1), BuildingBlock: OJICUG_clean_linker_0, # of connection points: 2
#     Edge 22, Type (0, 1), BuildingBlock: OJICUG_clean_linker_0, # of connection points: 2
#     Edge 23, Type (0, 1), BuildingBlock: OJICUG_clean_linker_0, # of connection points: 2
#     Edge 24, Type (0, 1), BuildingBlock: OJICUG_clean_linker_0, # of connection points: 2
#     Edge 25, Type (0, 1), BuildingBlock: OJICUG_clean_linker_0, # of connection points: 2
#     Edge 26, Type (0, 1), BuildingBlock: OJICUG_clean_linker_0, # of connection points: 2
#     Edge 27, Type (0, 1), BuildingBlock: OJICUG_clean_linker_0, # of connection points: 2
#     Edge 28, Type (0, 1), BuildingBlock: OJICUG_clean_linker_0, # of connection points: 2
#     Edge 29, Type (0, 1), BuildingBlock: OJICUG_clean_linker_0, # of connection points: 2
#     Edge 30, Type (0, 1), BuildingBlock: OJICUG_clean_linker_0, # of connection points: 2
#     Edge 31, Type (0, 1), BuildingBlock: OJICUG_clean_linker_0, # of connection points: 2
#     Edge 32, Type (0, 1), BuildingBlock: OJICUG_clean_linker_0, # of connection points: 2
#     Edge 33, Type (0, 1), BuildingBlock: OJICUG_clean_linker_0, # of connection points: 2
#     Edge 34, Type (0, 1), BuildingBlock: OJICUG_clean_linker_0, # of connection points: 2
#     Edge 35, Type (0, 1), BuildingBlock: OJICUG_clean_linker_0, # of connection points: 2
# Relax obj value: 0.386
# Max RMSD: 0.276
# Mean RMSD: 0.214
data_MOF--net-zzz--node1-WUSLED_clean_sbu_0--node2-PAMTUU_clean_sbu_0--edge1-OJICUG_clean_linker_0
_symmetry_space_group_name_H-M    P1
_symmetry_Int_Tables_number       1
_symmetry_cell_setting            triclinic
loop_
_symmetry_equiv_pos_as_xyz
'x, y, z'
_cell_length_a     48.5739
_cell_length_b     53.258094
_cell_length_c     17.730212
_cell_angle_alpha  100.18437
_cell_angle_beta   89.977385
_cell_angle_gamma 89.418562
loop_
_atom_site_label
_atom_site_type_symbol
_atom_site_fract_x
_atom_site_fract_y
_atom_site_fract_z
_atom_type_partial_charge
C0 C 0.81787 0.48904 0.5249 0.0
C1 C 0.84268 0.48214 0.48506 0.0
C2 C 0.8694 0.49274 0.60355 0.0
C3 C 0.868 0.48393 0.52379 0.0
C4 C 0.84456 0.49993 0.64302 0.0
C5 C 0.81922 0.49801 0.60432 0.0
U6 U 0.76322 0.50535 0.38126 0.0
O7 O 0.71777 0.5091 0.38823 0.0
O8 O 0.73706 0.47883 0.30428 0.0
C9 C 0.71403 0.49057 0.32946 0.0
C10 C 0.7905 0.48566 0.4859 0.0
C11 C 0.69373 0.49507 0.27025 0.0
C12 C 0.64573 0.4957 0.22991 0.0
C13 C 0.66551 0.4945 0.28681 0.0
C14 C 0.68195 0.49885 0.13859 0.0
C15 C 0.6536 0.49742 0.15447 0.0
C16 C 0.70177 0.49765 0.19573 0.0
C17 C 0.81928 0.54776 0.33956 0.0
C18 C 0.86337 0.55351 0.2817 0.0
C19 C 0.86158 0.54118 0.40676 0.0
C20 C 0.83286 0.54238 0.40492 0.0
C21 C 0.87705 0.54506 0.34286 0.0
C22 C 0.83467 0.55475 0.28003 0.0
C23 C 0.79067 0.53981 0.32515 0.0
O24 O 0.77258 0.50451 0.50286 0.0
O25 O 0.79044 0.47551 0.41268 0.0
O26 O 0.78866 0.51603 0.29002 0.0
O27 O 0.77349 0.54569 0.38311 0.0
H28 H 0.84259 0.47502 0.42395 0.0
H29 H 0.88647 0.47782 0.49119 0.0
H30 H 0.84462 0.50718 0.70403 0.0
H31 H 0.80054 0.50338 0.63687 0.0
H32 H 0.62419 0.49508 0.24509 0.0
H33 H 0.65872 0.4925 0.34365 0.0
H34 H 0.68891 0.50003 0.08132 0.0
H35 H 0.72339 0.49807 0.18104 0.0
H36 H 0.87454 0.55649 0.23121 0.0
H37 H 0.87152 0.53503 0.45516 0.0
H38 H 0.8213 0.53684 0.4515 0.0
H39 H 0.82453 0.55873 0.22893 0.0
C40 C 0.99376 0.79216 0.57172 0.0
C41 C 1.0116 0.80715 0.53647 0.0
C42 C 1.00208 0.84386 0.63682 0.0
C43 C 1.01559 0.83285 0.56847 0.0
C44 C 0.98447 0.82862 0.67221 0.0
C45 C 0.98029 0.80305 0.63974 0.0
U46 U 0.99737 0.73437 0.40754 0.0
O47 O 0.96615 0.70485 0.37366 0.0
O48 O 1.00661 0.69427 0.41378 0.0
C49 C 0.98316 0.68619 0.38178 0.0
C50 C 0.98884 0.76523 0.53867 0.0
C51 C 0.98552 0.66557 0.31478 0.0
C52 C 0.97466 0.62252 0.25192 0.0
C53 C 0.97213 0.6424 0.31476 0.0
C54 C 1.00373 0.64892 0.18777 0.0
C55 C 0.99072 0.62542 0.18787 0.0
C56 C 1.00112 0.66881 0.25062 0.0
C57 C 0.03145 0.7768 0.27953 0.0
C58 C 0.06018 0.79848 0.20003 0.0
C59 C 0.0291 0.82296 0.29269 0.0
C60 C 1.02044 0.80041 0.31519 0.0
C61 C 0.04854 0.82208 0.2335 0.0
C62 C 0.05175 0.77604 0.22308 0.0
C63 C 1.02083 0.75259 0.29569 0.0
O64 O 0.97042 0.76117 0.48367 0.0
O65 O 1.0109 0.75065 0.52417 0.0
O66 O 0.99401 0.7515 0.30416 0.0
O67 O 0.03481 0.74196 0.34537 0.0
H68 H 1.02249 0.79896 0.48453 0.0
H69 H 0.02953 0.844 0.54031 0.0
H70 H 0.97357 0.83658 0.72441 0.0
H71 H 0.96644 0.79175 0.66775 0.0
H72 H 0.964 0.60485 0.25354 0.0
H73 H 0.95982 0.63964 0.36355 0.0
H74 H 1.01651 0.65176 0.13998 0.0
H75 H 1.01154 0.68665 0.24957 0.0
H76 H 0.07533 0.79734 0.15467 0.0
H77 H 1.01964 0.8409 0.31886 0.0
H78 H 1.0045 0.80133 0.35833 0.0
H79 H 0.06045 0.75797 0.19498 0.0
C80 C 0.732 0.00785 0.52605 0.0
C81 C 0.70694 0.01457 0.49456 0.0
C82 C 0.68076 0.00351 0.6023 0.0
C83 C 0.68178 0.0124 0.53194 0.0
C84 C 0.70585 0.99653 0.63326 0.0
C85 C 0.73103 0.99875 0.59591 0.0
U86 U 0.79135 0.98927 0.37791 0.0
O87 O 0.83671 0.99228 0.38812 0.0
O88 O 0.814 0.01503 0.31668 0.0
C89 C 0.83827 0.00801 0.33878 0.0
C90 C 0.75911 0.0121 0.48993 0.0
C91 C 0.85973 0.0027 0.27804 0.0
C92 C 0.90583 0.01097 0.2343 0.0
C93 C 0.8858 0.01358 0.2922 0.0
C94 C 0.87425 0.98613 0.14639 0.0
C95 C 0.90041 0.99732 0.16021 0.0
C96 C 0.85415 0.98878 0.20463 0.0
C97 C 0.74358 0.93692 0.30199 0.0
C98 C 0.70514 0.91993 0.2231 0.0
C99 C 0.69697 0.94957 0.34136 0.0
C100 C 0.7251 0.94957 0.35704 0.0
C101 C 0.68708 0.93664 0.27059 0.0
C102 C 0.7334 0.92048 0.23798 0.0
C103 C 0.77127 0.9473 0.29892 0.0
O104 O 0.77967 0.99682 0.5004 0.0
O105 O 0.75861 0.01727 0.42007 0.0
O106 O 0.78689 0.94738 0.35954 0.0
O107 O 0.77098 0.96924 0.27488 0.0
H108 H 0.70671 0.02195 0.44144 0.0
H109 H 0.66315 0.01839 0.50634 0.0
H110 H 0.70613 0.98924 0.6865 0.0
H111 H 0.74985 0.99361 0.62243 0.0
H112 H 0.92539 0.02029 0.24732 0.0
H113 H 0.89052 0.02467 0.34793 0.0
H114 H 0.8693 0.97525 0.09061 0.0
H115 H 0.83414 0.98027 0.19201 0.0
H116 H 0.69797 0.90891 0.1696 0.0
H117 H 0.68384 0.96243 0.38009 0.0
H118 H 0.73266 0.96222 0.40715 0.0
H119 H 0.74738 0.91039 0.19516 0.0
C120 C 0.56354 0.71693 0.31625 0.0
C121 C 0.57217 0.69384 0.27078 0.0
C122 C 0.56229 0.67079 0.37523 0.0
C123 C 0.57141 0.671 0.29983 0.0
C124 C 0.55336 0.69396 0.41993 0.0
C125 C 0.55394 0.71668 0.39071 0.0
U126 U 0.55416 0.76408 0.1731 0.0
O127 O 0.54243 0.80468 0.2004 0.0
O128 O 0.58327 0.79358 0.15194 0.0
C129 C 0.56551 0.81226 0.17315 0.0
C130 C 0.56598 0.74178 0.29037 0.0
C131 C 0.56299 0.83126 0.12209 0.0
C132 C 0.5791 0.87062 0.08642 0.0
C133 C 0.58179 0.85133 0.13018 0.0
C134 C 0.53909 0.84968 0.02374 0.0
C135 C 0.55743 0.87033 0.03357 0.0
C136 C 0.54184 0.8303 0.06766 0.0
C137 C 0.52318 0.70964 0.0317 0.0
C138 C 0.506 0.67515 0.93604 0.0
C139 C 0.52513 0.66607 0.0547 0.0
C140 C 0.52974 0.69208 0.07937 0.0
C141 C 0.51371 0.65722 0.98197 0.0
C142 C 0.51082 0.70113 0.96063 0.0
C143 C 0.53094 0.73649 0.05317 0.0
O144 O 0.58338 0.74309 0.23437 0.0
O145 O 0.54291 0.75446 0.28502 0.0
O146 O 0.51679 0.75 0.10966 0.0
O147 O 0.5576 0.74036 0.0589 0.0
H148 H 0.57988 0.69344 0.21327 0.0
H149 H 0.57812 0.65353 0.26325 0.0
H150 H 0.54669 0.69478 0.4786 0.0
H151 H 0.54748 0.73427 0.42722 0.0
H152 H 0.5939 0.88593 0.09457 0.0
H153 H 0.59837 0.85233 0.17146 0.0
H154 H 0.52206 0.84893 0.98401 0.0
H155 H 0.52715 0.81489 0.06024 0.0
H156 H 0.49669 0.66907 0.8804 0.0
H157 H 0.53159 0.65285 0.09132 0.0
H158 H 0.53919 0.69846 0.13459 0.0
H159 H 0.50553 0.7145 0.92331 0.0
C160 C 0.23189 0.51201 0.13093 0.0
C161 C 0.20716 0.50951 0.17021 0.0
C162 C 0.18061 0.50805 0.05222 0.0
C163 C 0.18189 0.50737 0.13115 0.0
C164 C 0.20536 0.51072 0.01322 0.0
C165 C 0.23066 0.51256 0.05205 0.0
U166 U 0.28554 0.49563 0.27738 0.0
O167 O 0.31167 0.52261 0.35302 0.0
O168 O 0.33093 0.49168 0.27155 0.0
C169 C 0.33464 0.51036 0.33003 0.0
C170 C 0.25894 0.51506 0.17097 0.0
C171 C 0.35439 0.50591 0.39119 0.0
C172 C 0.39719 0.48703 0.42906 0.0
C173 C 0.37699 0.48915 0.37379 0.0
C174 C 0.37264 0.51816 0.52108 0.0
C175 C 0.39555 0.50178 0.50331 0.0
C176 C 0.35244 0.52026 0.46587 0.0
C177 C 0.2297 0.45325 0.3266 0.0
C178 C 0.18641 0.44912 0.3907 0.0
C179 C 0.18654 0.45725 0.26053 0.0
C180 C 0.2153 0.45625 0.26004 0.0
C181 C 0.17193 0.45543 0.32774 0.0
C182 C 0.21512 0.44811 0.39013 0.0
C183 C 0.25827 0.46178 0.33723 0.0
O184 O 0.25852 0.52528 0.24411 0.0
O185 O 0.27646 0.49585 0.15523 0.0
O186 O 0.27493 0.4555 0.27824 0.0
O187 O 0.26015 0.48583 0.36992 0.0
H188 H 0.20731 0.50937 0.2312 0.0
H189 H 0.16319 0.50571 0.16297 0.0
H190 H 0.20521 0.51117 0.9524 0.0
H191 H 0.24934 0.51462 0.0204 0.0
H192 H 0.41426 0.47392 0.41322 0.0
H193 H 0.37941 0.478 0.31681 0.0
H194 H 0.37073 0.53012 0.57698 0.0
H195 H 0.33565 0.53371 0.48138 0.0
H196 H 0.17585 0.4477 0.44358 0.0
H197 H 0.17586 0.46165 0.21079 0.0
H198 H 0.22625 0.46018 0.21023 0.0
H199 H 0.2259 0.44587 0.44208 0.0
C200 C 0.06226 0.20481 0.10195 0.0
C201 C 0.06782 0.18503 0.14296 0.0
C202 C 0.05465 0.1533 0.03246 0.0
C203 C 0.06405 0.15953 0.10852 0.0
C204 C 0.04907 0.17319 0.99183 0.0
C205 C 0.05287 0.19863 0.0262 0.0
U206 U 0.05379 0.26457 0.25952 0.0
O207 O 0.04622 0.30424 0.24519 0.0
O208 O 0.08439 0.29417 0.2994 0.0
C209 C 0.06839 0.31262 0.28383 0.0
C210 C 0.06684 0.23192 0.13528 0.0
C211 C 0.064 0.33402 0.34782 0.0
C212 C 0.07894 0.37445 0.42137 0.0
C213 C 0.08253 0.35431 0.35965 0.0
C214 C 0.03812 0.35421 0.46008 0.0
C215 C 0.05665 0.3747 0.4724 0.0
C216 C 0.04184 0.33403 0.39867 0.0
C217 C 1.01338 0.22438 0.38174 0.0
C218 C 0.98322 0.20345 0.45975 0.0
C219 C 1.01582 0.17839 0.37318 0.0
C220 C 0.02469 0.20059 0.34901 0.0
C221 C 0.99551 0.1797 0.43045 0.0
C222 C 0.99215 0.22559 0.43569 0.0
C223 C 0.02495 0.24828 0.36599 0.0
O224 O 0.04501 0.24692 0.14011 0.0
O225 O 0.08288 0.2367 0.1958 0.0
O226 O 0.05196 0.24943 0.36655 0.0
O227 O 1.01359 0.25787 0.30994 0.0
H228 H 0.0752 0.18921 0.2014 0.0
H229 H 0.06824 0.1447 0.14172 0.0
H230 H 0.04218 0.1691 0.93289 0.0
H231 H 0.04867 0.21353 0.99322 0.0
H232 H 0.09388 0.38964 0.42959 0.0
H233 H 0.0999 0.3545 0.32143 0.0
H234 H 1.02051 0.35388 0.49732 0.0
H235 H 0.02739 0.31842 0.39083 0.0
H236 H 0.9672 0.20503 0.50289 0.0
H237 H 0.02582 0.16043 0.3498 0.0
H238 H 0.04111 0.19934 0.30716 0.0
H239 H 0.98311 0.2438 0.46127 0.0
C240 C 0.31698 0.99619 0.11335 0.0
C241 C 0.34158 0.99886 0.15581 0.0
C242 C 0.36865 0.99914 0.03932 0.0
C243 C 0.36705 0.00052 0.11927 0.0
C244 C 0.34398 0.99647 0.9971 0.0
C245 C 0.31851 0.99512 0.0337 0.0
U246 U 0.26224 0.01189 0.27571 0.0
O247 O 0.2362 0.98416 0.31998 0.0
O248 O 0.21684 0.01541 0.27308 0.0
C249 C 0.21315 0.9962 0.30962 0.0
C250 C 0.28977 0.9931 0.14951 0.0
C251 C 0.19316 0.99948 0.37472 0.0
C252 C 0.16073 0.02489 0.4635 0.0
C253 C 0.18041 0.02304 0.40433 0.0
C254 C 0.16624 0.97982 0.46474 0.0
C255 C 0.15335 0.00327 0.49466 0.0
C256 C 0.18574 0.97797 0.40572 0.0
C257 C 0.31718 0.05445 0.37383 0.0
C258 C 0.36012 0.05869 0.44389 0.0
C259 C 0.36067 0.05126 0.3051 0.0
C260 C 0.3319 0.05194 0.30467 0.0
C261 C 0.37497 0.05287 0.37465 0.0
C262 C 0.33141 0.0594 0.44338 0.0
C263 C 0.28869 0.04563 0.37393 0.0
O264 O 0.28993 0.98271 0.21148 0.0
O265 O 0.27215 0.01223 0.15401 0.0
O266 O 0.27223 0.05202 0.32137 0.0
O267 O 0.28698 0.02147 0.37995 0.0
H268 H 0.34121 0.99937 0.21712 0.0
H269 H 0.38563 0.00221 0.15325 0.0
H270 H 0.34433 0.99552 0.93558 0.0
H271 H 0.29995 0.9929 0.99941 0.0
H272 H 0.15146 0.04332 0.48527 0.0
H273 H 0.18551 0.04001 0.38169 0.0
H274 H 0.16085 0.96263 0.48582 0.0
H275 H 0.19488 0.95949 0.38355 0.0
H276 H 0.3704 0.05992 0.49859 0.0
H277 H 0.3716 0.04722 0.25098 0.0
H278 H 0.32124 0.04813 0.25025 0.0
H279 H 0.32037 0.06126 0.49725 0.0
C280 C 0.49115 0.28039 0.318 0.0
C281 C 0.48861 0.30425 0.36631 0.0
C282 C 0.48878 0.32561 0.25526 0.0
C283 C 0.48763 0.32671 0.33516 0.0
C284 C 0.4919 0.30168 0.20757 0.0
C285 C 0.49311 0.27937 0.23866 0.0
U286 U 0.50463 0.23485 0.46427 0.0
O287 O 0.47584 0.20586 0.49058 0.0
O288 O 0.51588 0.19409 0.43774 0.0
C289 C 0.49322 0.18694 0.46832 0.0
C290 C 0.49005 0.25611 0.34713 0.0
C291 C 0.49605 0.16803 0.51978 0.0
C292 C 0.47564 0.13353 0.57352 0.0
C293 C 0.47339 0.15281 0.52959 0.0
C294 C 0.52331 0.14458 0.6001 0.0
C295 C 0.50074 0.12887 0.60848 0.0
C296 C 0.52099 0.16399 0.55621 0.0
C297 C 0.5381 0.28937 0.60329 0.0
C298 C 0.54983 0.32405 0.70583 0.0
C299 C 0.54095 0.3327 0.57831 0.0
C300 C 0.53654 0.30665 0.55213 0.0
C301 C 0.54686 0.34173 0.65603 0.0
C302 C 0.54542 0.29812 0.67967 0.0
C303 C 0.52982 0.26267 0.5804 0.0
O304 O 0.51352 0.24381 0.35001 0.0
O305 O 0.47401 0.25548 0.4065 0.0
O306 O 0.543 0.24922 0.5218 0.0
O307 O 0.5031 0.25906 0.57809 0.0
H308 H 0.4868 0.30551 0.42774 0.0
H309 H 0.48509 0.34485 0.37336 0.0
H310 H 0.49327 0.3002 0.14595 0.0
H311 H 0.49505 0.26117 0.20038 0.0
H312 H 0.45769 0.12217 0.57974 0.0
H313 H 0.45393 0.1556 0.5022 0.0
H314 H 0.54302 0.14143 0.62555 0.0
H315 H 0.53882 0.17547 0.5497 0.0
H316 H 0.55471 0.33039 0.76574 0.0
H317 H 0.53833 0.34587 0.53873 0.0
H318 H 0.531 0.30012 0.49283 0.0
H319 H 0.54677 0.285 0.71983 0.0
Tb320 Tb 1.00523 0.00833 0.76802 0.0
Tb321 Tb 0.0495 0.99004 0.88732 0.0
C322 C 0.98579 0.99561 0.92606 0.0
C323 C 0.9744 0.04714 0.63863 0.0
C324 C 0.97822 0.09042 0.56829 0.0
C325 C 0.96004 0.07062 0.53956 0.0
C326 C 0.95811 0.04912 0.57469 0.0
C327 C 0.9927 0.06673 0.66701 0.0
C328 C 0.99454 0.08819 0.63233 0.0
C329 C 0.97324 0.02432 0.67427 0.0
O330 O 1.0148 0.04196 0.85241 0.0
O331 O 0.05711 0.0305 0.89383 0.0
O332 O 0.07151 0.9886 0.77915 0.0
O333 O 0.04581 0.01774 0.72807 0.0
O334 O 0.06582 0.99385 0.99858 0.0
O335 O 0.0815 0.96525 0.907 0.0
O336 O 0.02541 0.95664 0.8413 0.0
O337 O 1.01313 0.96794 0.72738 0.0
O338 O 0.9799 0.99372 0.85273 0.0
O339 O 1.01121 0.99898 0.95089 0.0
C340 C 0.0382 0.04786 0.88801 0.0
O341 O 0.99289 0.00769 0.65413 0.0
O342 O 0.96937 0.02852 0.74818 0.0
C343 C 0.06838 0.00395 0.72915 0.0
C344 C 0.0761 0.95343 0.02668 0.0
C345 C 0.06771 0.91247 0.10425 0.0
C346 C 0.09177 0.92705 0.11702 0.0
C347 C 0.09603 0.94737 0.07792 0.0
C348 C 0.05157 0.93958 0.01663 0.0
C349 C 0.04748 0.91918 0.05468 0.0
C350 C 0.08096 0.97332 0.98078 0.0
C351 C 1.01734 0.95048 0.76992 0.0
H352 H 0.94715 0.07187 0.49051 0.0
H353 H 0.94403 0.03404 0.5518 0.0
H354 H 1.00573 0.06533 0.71574 0.0
H355 H 1.00909 0.10289 0.65496 0.0
H356 H 0.10765 0.92214 0.15492 0.0
H357 H 0.11503 0.95796 0.08642 0.0
H358 H 0.03581 0.9442 0.97799 0.0
H359 H 0.02863 0.9084 0.04463 0.0
Tb360 Tb 0.51369 0.98185 0.74711 0.0
Tb361 Tb 0.53675 0.01762 0.90172 0.0
C362 C 0.53772 0.95717 0.88206 0.0
C363 C 0.48951 0.96781 0.55184 0.0
C364 C 0.46629 0.99592 0.44727 0.0
C365 C 0.45578 0.97185 0.45415 0.0
C366 C 0.4673 0.95795 0.50628 0.0
C367 C 0.50182 0.99051 0.53953 0.0
C368 C 0.49038 0.0044 0.48729 0.0
C369 C 0.49554 0.95795 0.62226 0.0
O370 O 0.48329 0.98078 0.83717 0.0
O371 O 0.4918 0.02038 0.90501 0.0
O372 O 0.53125 0.04447 0.82411 0.0
O373 O 0.50191 0.02091 0.73786 0.0
O374 O 0.52948 0.0327 0.01767 0.0
O375 O 0.56726 0.04043 0.96312 0.0
O376 O 0.57291 0.00203 0.83404 0.0
O377 O 0.55246 0.99765 0.71697 0.0
O378 O 0.53395 0.95452 0.80763 0.0
O379 O 0.53542 0.97937 0.92749 0.0
C380 C 0.47543 0.00072 0.88745 0.0
O381 O 0.52136 0.95744 0.6421 0.0
O382 O 0.47989 0.96777 0.67988 0.0
C383 C 0.51428 0.04247 0.76572 0.0
C384 C 0.57076 0.02882 0.08506 0.0
C385 C 0.60385 0.99732 0.16022 0.0
C386 C 0.61569 0.01684 0.12739 0.0
C387 C 0.59928 0.03253 0.09046 0.0
C388 C 0.55869 0.0108 0.12417 0.0
C389 C 0.57515 0.99521 0.16166 0.0
C390 C 0.55484 0.0402 0.02824 0.0
C391 C 0.57477 -0.0002 0.75905 0.0
H392 H 0.43708 0.96483 0.42493 0.0
H393 H 0.45737 0.94063 0.51567 0.0
H394 H 0.51889 0.99858 0.57471 0.0
H395 H 0.4991 0.02271 0.48266 0.0
H396 H 0.63783 0.01914 0.1271 0.0
H397 H 0.6091 0.04639 0.0616 0.0
H398 H 0.53672 0.00752 0.12166 0.0
H399 H 0.5656 0.98038 0.18701 0.0
Tb400 Tb 0.50552 0.49173 0.88711 0.0
Tb401 Tb 0.5485 0.50719 0.75784 0.0
C402 C 0.48444 0.50029 0.72535 0.0
C403 C 0.47697 0.45696 0.03256 0.0
C404 C 0.47991 0.4155 0.11245 0.0
C405 C 0.45441 0.42385 0.08777 0.0
C406 C 0.45297 0.44442 0.0484 0.0
C407 C 0.50247 0.44877 0.05743 0.0
C408 C 0.50391 0.42835 0.09737 0.0
C409 C 0.47521 0.4779 0.98802 0.0
O410 O 0.51566 0.45687 0.80874 0.0
O411 O 0.55654 0.46674 0.75504 0.0
O412 O 0.57127 0.51059 0.86599 0.0
O413 O 0.54666 0.4828 0.92392 0.0
O414 O 0.56434 0.5026 0.64568 0.0
O415 O 0.57932 0.53218 0.73456 0.0
O416 O 0.52274 0.54027 0.798 0.0
O417 O 0.51276 0.53251 0.9177 0.0
O418 O 0.47914 0.50364 0.79945 0.0
O419 O 0.50976 0.4969 0.69865 0.0
C420 C 0.53846 0.45008 0.77028 0.0
O421 O 0.49375 0.49562 1.00261 0.0
O422 O 0.4713 0.47107 0.9146 0.0
C423 C 0.56882 0.49638 0.91928 0.0
C424 C 0.57595 0.54221 0.61109 0.0
C425 C 0.57009 0.58168 0.5239 0.0
C426 C 0.59628 0.57435 0.54705 0.0
C427 C 0.59914 0.55482 0.59005 0.0
C428 C 0.54977 0.54918 0.58766 0.0
C429 C 0.54688 0.56862 0.5442 0.0
C430 C 0.57926 0.52307 0.66141 0.0
C431 C 0.51576 0.54838 0.86958 0.0
H432 H 0.43554 0.41449 0.09902 0.0
H433 H 0.43311 0.45038 0.02963 0.0
H434 H 0.52133 0.45795 0.04524 0.0
H435 H 0.52389 0.42218 0.11467 0.0
H436 H 0.61459 0.58418 0.53396 0.0
H437 H 0.61948 0.54992 0.60831 0.0
H438 H 0.53153 0.53982 0.60379 0.0
H439 H 0.52643 0.57344 0.52675 0.0
Tb440 Tb 0.03489 0.51958 0.77506 0.0
Tb441 Tb 1.01457 0.48071 0.88685 0.0
C442 C 1.01097 0.5404 0.9391 0.0
C443 C 0.05671 0.53806 0.59802 0.0
C444 C 0.08032 0.51195 0.46127 0.0
C445 C 0.09102 0.53548 0.49774 0.0
C446 C 0.0793 0.54839 0.56576 0.0
C447 C 0.04414 0.51611 0.55738 0.0
C448 C 0.05577 0.50324 0.48919 0.0
C449 C 0.05076 0.54625 0.67988 0.0
O450 O 0.0657 0.52163 0.8654 0.0
O451 O 0.05952 0.48155 0.89079 0.0
O452 O 1.02078 0.45573 0.77781 0.0
O453 O 0.04905 0.48156 0.72107 0.0
O454 O 0.02496 0.45762 0.96751 0.0
O455 O 0.98284 0.46205 0.93503 0.0
O456 O 0.97752 0.49412 0.83408 0.0
O457 O 0.99758 0.50187 0.72437 0.0
O458 O 1.01247 0.54384 0.86754 0.0
O459 O 1.01604 0.51812 0.95829 0.0
C460 C 0.0746 0.50208 0.89471 0.0
O461 O 0.02513 0.54521 0.70104 0.0
O462 O 0.06734 0.53628 0.72449 0.0
C463 C 0.03787 0.45925 0.72328 0.0
C464 C 0.99145 0.46357 0.06528 0.0
C465 C 0.96744 0.48923 0.20223 0.0
C466 C 0.95584 0.4666 0.1622 0.0
C467 C 0.96774 0.45392 0.09416 0.0
C468 C 1.00452 0.48475 0.10882 0.0
C469 C 0.99262 0.49745 0.17687 0.0
C470 C 0.99932 0.45466 0.98483 0.0
C471 C 0.97556 0.49751 0.76247 0.0
H472 H 0.11004 0.54266 0.47828 0.0
H473 H 0.08942 0.56515 0.59668 0.0
H474 H 0.02677 0.50766 0.58157 0.0
H475 H 0.04689 0.48535 0.46186 0.0
H476 H 0.93627 0.45988 0.17962 0.0
H477 H 0.95728 0.43772 0.06122 0.0
H478 H 1.0229 0.49258 0.08773 0.0
H479 H 1.00215 0.51466 0.20692 0.0
C480 C 0.13537 0.99041 0.61615 0.0
C481 C 0.13216 0.00481 0.55723 0.0
H482 H 0.11825 0.97894 0.7159 0.0
C483 C 0.10812 0.01988 0.55748 0.0
H484 H 0.15374 0.97893 0.61904 0.0
C485 C 0.08765 0.02 0.61374 0.0
C486 C 0.09066 0.0051 0.67152 0.0
H487 H 0.10471 0.03107 0.51288 0.0
H488 H 0.06925 0.03146 0.61106 0.0
C489 C 0.11498 0.99054 0.67226 0.0
C490 C 0.4907 0.08372 0.62322 0.0
C491 C 0.50353 0.1071 0.65087 0.0
H492 H 0.48375 0.04523 0.63746 0.0
C493 C 0.51929 0.10924 0.71819 0.0
H494 H 0.47882 0.08128 0.57092 0.0
C495 C 0.52235 0.08846 0.75627 0.0
C496 C 0.50971 0.065 0.72804 0.0
H497 H 0.52921 0.12702 0.74173 0.0
H498 H 0.53485 0.09077 0.80756 0.0
C499 C 0.49367 0.06298 0.66128 0.0
C500 C 0.41241 0.50287 0.63957 0.0
C501 C 0.41815 0.5009 0.56073 0.0
H502 H 0.42849 0.50416 0.75305 0.0
C503 C 0.44589 0.49872 0.53722 0.0
H504 H 0.39136 0.50431 0.66006 0.0
C505 C 0.46716 0.49851 0.59052 0.0
C506 C 0.46146 0.50052 0.66928 0.0
H507 H 0.45133 0.49766 0.4775 0.0
H508 H 0.48818 0.49696 0.56967 0.0
C509 C 0.43375 0.50268 0.69306 0.0
C510 C 0.05836 0.42146 0.52919 0.0
C511 C 0.05262 0.39629 0.53775 0.0
H512 H 0.05869 0.46095 0.58107 0.0
C513 C 0.04268 0.39201 0.60892 0.0
H514 H 0.06536 0.4255 0.47472 0.0
C515 C 0.0382 0.41239 0.66936 0.0
C516 C 0.04391 0.43754 0.66054 0.0
H517 H 0.03844 0.37287 0.61822 0.0
H518 H 0.0303 0.40841 0.72311 0.0
C519 C 0.05433 0.44181 0.59001 0.0
C520 C 0.91492 0.99631 0.02156 0.0
C521 C 0.92193 0.99523 0.09819 0.0
H522 H 0.92927 0.9973 0.90727 0.0
C523 C 0.95001 0.99301 0.11587 0.0
H524 H 0.8936 0.99823 1.00549 0.0
C525 C 0.97041 0.99271 0.05979 0.0
C526 C 0.96351 0.99447 0.98374 0.0
H527 H 0.95638 0.99152 0.17344 0.0
H528 H 0.99173 0.99123 0.0765 0.0
C529 C 0.93542 0.9959 0.9651 0.0
C530 C 0.54514 0.88855 0.91508 0.0
C531 C 0.55324 0.89225 0.99253 0.0
H532 H 0.53419 0.90605 0.81876 0.0
C533 C 0.55686 0.91733 0.03178 0.0
H534 H 0.54238 0.86948 0.88295 0.0
C535 C 0.55225 0.93812 0.9952 0.0
C536 C 0.54388 0.93456 0.91811 0.0
H537 H 0.56269 0.92101 0.09166 0.0
H538 H 0.55506 0.95709 0.02793 0.0
C539 C 0.54064 0.90949 0.87812 0.0
C540 C 0.63482 0.51201 0.03529 0.0
C541 C 0.63232 0.49691 0.09265 0.0
H542 H 0.61702 0.52381 0.93612 0.0
C543 C 0.60913 0.48113 0.09054 0.0
H544 H 0.65222 0.52455 0.03507 0.0
C545 C 0.58892 0.48073 0.0339 0.0
C546 C 0.59117 0.4961 0.97728 0.0
H547 H 0.60662 0.4688 0.13246 0.0
H548 H 0.57144 0.46836 0.03487 0.0
C549 C 0.61453 0.51165 0.97851 0.0
C550 C 0.99573 0.60758 0.04653 0.0
C551 C 0.9948 0.60369 0.12306 0.0
H552 H 1.00135 0.59074 0.92822 0.0
C553 C 0.99855 0.57881 0.13773 0.0
H554 H 0.99262 0.62646 0.03306 0.0
C555 C 1.00337 0.55843 0.07787 0.0
C556 C 1.00465 0.56226 1.00144 0.0
H557 H 0.99844 0.57509 0.19584 0.0
H558 H 1.00649 0.53967 0.09196 0.0
C559 C 1.00057 0.58708 0.98635 0.0
C560 C 0.9864 0.15914 0.54428 0.0
C561 C 0.9889 0.15689 0.46436 0.0
H562 H 0.9807 0.14003 0.63938 0.0
C563 C 0.98649 0.13264 0.41832 0.0
H564 H 0.98851 0.17746 0.58153 0.0
C565 C 0.98223 0.11107 0.45175 0.0
C566 C 0.98052 0.11333 0.53184 0.0
H567 H 0.98814 0.13033 0.35655 0.0
H568 H 0.98111 0.09254 0.41508 0.0
C569 C 0.98225 0.13764 0.57757 0.0
C570 C 0.41024 0.01917 0.32976 0.0
C571 C 0.4035 0.04273 0.376 0.0
H572 H 0.43625 0.98598 0.31445 0.0
C573 C 0.42175 0.0531 0.43437 0.0
H574 H 0.39648 0.01044 0.285 0.0
C575 C 0.44417 0.0387 0.45254 0.0
C576 C 0.44895 0.01384 0.41211 0.0
H577 H 0.41729 0.07131 0.47046 0.0
H578 H 0.45594 0.04605 0.50317 0.0
C579 C 0.43285 0.00492 0.34739 0.0
C580 C 0.56047 0.38694 0.64909 0.0
C581 C 0.54696 0.36951 0.68716 0.0
H582 H 0.5689 0.42634 0.64641 0.0
C583 C 0.53209 0.37885 0.75438 0.0
H584 H 0.57215 0.38023 0.59726 0.0
C585 C 0.53012 0.40496 0.78192 0.0
C586 C 0.54311 0.42248 0.74336 0.0
H587 H 0.52115 0.366 0.78453 0.0
H588 H 0.51801 0.41144 0.83315 0.0
C589 C 0.55877 0.41324 0.67742 0.0
C590 C 0.13728 0.4898 0.32071 0.0
C591 C 0.14349 0.46579 0.33956 0.0
H592 H 0.11159 0.5232 0.34286 0.0
C593 C 0.12477 0.455 0.38466 0.0
H594 H 0.15146 0.49885 0.28713 0.0
C595 C 0.10228 0.46928 0.41815 0.0
C596 C 0.0979 0.49446 0.40649 0.0
H597 H 0.12888 0.43647 0.3997 0.0
H598 H 0.09009 0.46153 0.45938 0.0
C599 C 0.11461 0.50397 0.35361 0.0
C600 C 0.05305 0.84438 0.12207 0.0
C601 C 0.05477 0.84523 0.20152 0.0
H602 H 0.05578 0.86509 0.02948 0.0
C603 C 0.06151 0.86832 0.24928 0.0
H604 H 0.04759 0.82691 0.08407 0.0
C605 C 0.06645 0.8902 0.2178 0.0
C606 C 0.06411 0.88935 0.13843 0.0
H607 H 0.06298 0.8694 0.31073 0.0
H608 H 0.07143 0.90788 0.25546 0.0
C609 C 0.05752 0.86624 0.09092 0.0
C610 C 0.63921 0.95598 0.28519 0.0
C611 C 0.66164 0.94626 0.23805 0.0
H612 H 0.60313 0.98011 0.29754 0.0
C613 C 0.66227 0.95071 0.16213 0.0
H614 H 0.63786 0.95266 0.34359 0.0
C615 C 0.64262 0.96633 0.1364 0.0
C616 C 0.6218 0.97791 0.18564 0.0
H617 H 0.6792 0.94395 0.12394 0.0
H618 H 0.64446 0.97034 0.07877 0.0
C619 C 0.61937 0.97169 0.25904 0.0
C620 C 0.50468 0.61218 1.0005 0.0
C621 C 0.51172 0.62938 0.95203 0.0
H622 H 0.50022 0.57311 0.01255 0.0
C623 C 0.51844 0.61966 0.87519 0.0
H624 H 0.49903 0.61903 0.05971 0.0
C625 C 0.51884 0.59342 0.848 0.0
C626 C 0.5127 0.57618 0.89706 0.0
H627 H 0.52441 0.63226 0.83645 0.0
H628 H 0.52479 0.58668 0.78894 0.0
C629 C 0.5052 0.58586 0.97334 0.0
C630 C 0.91136 0.5101 0.34609 0.0
C631 C 0.90552 0.53467 0.3309 0.0
H632 H 0.93633 0.4764 0.31825 0.0
C633 C 0.92469 0.54618 0.28874 0.0
H634 H 0.8971 0.50059 0.37827 0.0
C635 C 0.94702 0.53209 0.25336 0.0
C636 C 0.95059 0.5063 0.25995 0.0
H637 H 0.92104 0.56525 0.27729 0.0
H638 H 0.95971 0.54063 0.21468 0.0
C639 C 0.93372 0.49606 0.31094 0.0
C640 C 0.0276 0.11928 0.94859 0.0
C641 C 0.05063 0.12623 0.99536 0.0
H642 H 1.00568 0.08935 0.87809 0.0
C643 C 0.06981 0.10717 1.00579 0.0
H644 H 1.01226 0.1334 0.93998 0.0
C645 C 0.06602 0.08178 0.97031 0.0
C646 C 0.04289 0.07485 0.92388 0.0
H647 H 0.08795 0.11192 0.04068 0.0
H648 H 0.08116 0.06759 0.97972 0.0
C649 C 1.02377 0.09394 0.91337 0.0
C650 C 0.40201 0.98277 0.93183 0.0
C651 C 0.39593 -0.0001 0.99994 0.0
H652 H 0.43163 0.9694 0.84367 0.0
C653 C 0.41623 0.01754 0.03027 0.0
H654 H 0.38704 0.96875 0.90715 0.0
C655 C 0.44178 0.01811 0.99329 0.0
C656 C 0.44794 0.00076 0.92563 0.0
H657 H 0.41225 0.03112 0.08233 0.0
H658 H 0.45686 0.03195 0.01839 0.0
C659 C 0.42769 0.98306 0.89557 0.0
C660 C 0.46887 0.34915 0.15691 0.0
C661 C 0.48596 0.34908 0.2209 0.0
H662 H 0.45361 0.37003 0.07278 0.0
C663 C 0.50053 0.37132 0.25046 0.0
H664 H 0.45712 0.33243 0.13327 0.0
C665 C 0.49852 0.39294 0.21564 0.0
C666 C 0.48159 0.39289 0.1512 0.0
H667 H 0.51394 0.37182 0.29949 0.0
H668 H 0.51014 0.40975 0.23931 0.0
C669 C 0.46664 0.3708 0.12269 0.0
C670 C 0.14704 0.52289 0.95991 0.0
C671 C 0.15355 0.50628 1.01104 0.0
H672 H 0.11715 0.53483 0.88402 0.0
C673 C 0.1339 0.48811 0.02292 0.0
H674 H 0.16155 0.53726 0.94987 0.0
C675 C 0.10853 0.48651 0.9844 0.0
C676 C 0.1019 0.50331 0.93393 0.0
H677 H 0.13826 0.47492 0.0615 0.0
H678 H 0.09395 0.47228 0.99506 0.0
C679 C 0.12149 0.52158 0.92241 0.0
C680 C 1.0057 0.89002 0.62464 0.0
C681 C 1.00615 0.87117 0.67099 0.0
H682 H 1.00854 0.92975 0.6194 0.0
C683 C 1.01018 0.87863 0.75032 0.0
H684 H 1.00237 0.88492 0.56346 0.0
C685 C 1.0138 0.90434 0.78251 0.0
C686 C 1.01318 0.92322 0.73619 0.0
H687 H 1.01087 0.86454 0.78748 0.0
H688 H 1.01702 0.90939 0.84375 0.0
C689 C 1.00904 0.91575 0.65688 0.0
C690 C 0.65196 0.00696 0.72413 0.0
C691 C 0.65376 0.00188 0.64331 0.0
H692 H 0.62606 0.0103 0.82397 0.0
C693 C 0.6293 0.99558 0.60187 0.0
H694 H 0.6701 0.01223 0.75851 0.0
C695 C 0.60399 0.9948 0.63956 0.0
C696 C 0.60216 0.0001 0.72016 0.0
H697 H 0.62963 0.99101 0.5399 0.0
H698 H 0.58576 0.98996 0.60506 0.0
C699 C 0.62658 0.00602 0.76195 0.0
C700 C 0.58502 0.62924 0.39179 0.0
C701 C 0.56315 0.64688 0.4087 0.0
H702 H 0.60409 0.59477 0.41306 0.0
C703 C 0.54282 0.64208 0.4608 0.0
H704 H 0.60123 0.63231 0.35259 0.0
C705 C 0.54478 0.62077 0.49687 0.0
C706 C 0.56704 0.60348 0.4815 0.0
H707 H 0.52541 0.65494 0.47447 0.0
H708 H 0.52919 0.6183 0.53851 0.0
C709 C 0.58689 0.60783 0.42748 0.0
C710 C 0.89861 0.4888 0.72011 0.0
C711 C 0.89653 0.49422 0.64518 0.0
H712 H 0.92479 0.48549 0.8157 0.0
C713 C 0.92076 0.5009 0.61011 0.0
H714 H 0.88063 0.48322 0.74897 0.0
C715 C 0.94615 0.50193 0.64822 0.0
C716 C 0.94823 0.49643 0.72293 0.0
H717 H 0.92015 0.50566 0.55323 0.0
H718 H 0.96419 0.50717 0.61885 0.0
C719 C 0.92406 0.48993 0.75843 0.0
loop_
_geom_bond_atom_site_label_1
_geom_bond_atom_site_label_2
_geom_bond_distance
_geom_bond_site_symmetry_2
_ccdc_geom_bond_type
C0 C1 1.264 . S
C0 C5 1.479 . S
C0 C10 1.465 . S
C1 C0 1.264 . S
C1 C3 1.339 . S
C1 H28 0.931 . S
C2 C3 1.395 . S
C2 C4 1.320 . S
C3 C1 1.339 . S
C3 C2 1.395 . S
C3 H29 0.929 . S
C4 C2 1.320 . S
C4 C5 1.405 . S
C4 H30 0.930 . S
C5 C0 1.479 . S
C5 C4 1.405 . S
C5 H31 0.931 . S
U6 O7 2.454 . S
U6 O8 2.458 . S
U6 C9 2.984 . S
U6 C10 2.847 . S
U6 C23 2.882 . S
U6 O24 2.441 . S
U6 O25 2.420 . S
U6 O26 2.455 . S
U6 O27 2.449 . S
O7 U6 2.454 . S
O7 C9 1.353 . S
O8 U6 2.458 . S
O8 C9 1.286 . S
C9 U6 2.984 . S
C9 O7 1.353 . S
C9 O8 1.286 . S
C9 C11 1.363 . S
C10 C0 1.465 . S
C10 U6 2.847 . S
C10 O24 1.249 . S
C10 O25 1.202 . S
C11 C9 1.363 . S
C11 C13 1.408 . S
C11 C16 1.342 . S
C12 C13 1.310 . S
C12 C15 1.461 . S
C12 H32 0.932 . S
C13 C11 1.408 . S
C13 C12 1.310 . S
C13 H33 0.930 . S
C14 C15 1.474 . S
C14 C16 1.285 . S
C14 H34 0.929 . S
C15 C12 1.461 . S
C15 C14 1.474 . S
C16 C11 1.342 . S
C16 C14 1.285 . S
C16 H35 0.930 . S
C17 C20 1.424 . S
C17 C22 1.245 . S
C17 C23 1.428 . S
C18 C21 1.260 . S
C18 C22 1.477 . S
C18 H36 0.932 . S
C19 C20 1.384 . S
C19 C21 1.479 . S
C19 H37 0.929 . S
C20 C17 1.424 . S
C20 C19 1.384 . S
C20 H38 0.928 . S
C21 C18 1.260 . S
C21 C19 1.479 . S
C22 C17 1.245 . S
C22 C18 1.477 . S
C22 H39 0.932 . S
C23 U6 2.882 . S
C23 C17 1.428 . S
C23 O26 1.301 . S
C23 O27 1.282 . S
O24 U6 2.441 . S
O24 C10 1.249 . S
O25 U6 2.420 . S
O25 C10 1.202 . S
O26 U6 2.455 . S
O26 C23 1.301 . S
O27 U6 2.449 . S
O27 C23 1.282 . S
H28 C1 0.931 . S
H29 C3 0.929 . S
H30 C4 0.930 . S
H31 C5 0.931 . S
H32 C12 0.932 . S
H33 C13 0.930 . S
H34 C14 0.929 . S
H35 C16 0.930 . S
H36 C18 0.932 . S
H37 C19 0.929 . S
H38 C20 0.928 . S
H39 C22 0.932 . S
C40 C41 1.264 . S
C40 C45 1.479 . S
C40 C50 1.465 . S
C41 C40 1.264 . S
C41 C43 1.339 . S
C41 H68 0.931 . S
C42 C43 1.393 1_655 S
C42 C44 1.320 . S
C43 C41 1.339 . S
C43 C42 1.393 1_455 S
C43 H69 0.929 . S
C44 C42 1.320 . S
C44 C45 1.401 1_655 S
C44 H70 0.935 . S
C45 C40 1.479 . S
C45 C44 1.401 1_455 S
C45 H71 0.931 . S
U46 O47 2.454 . S
U46 O48 2.458 . S
U46 C49 2.984 . S
U46 C50 2.847 . S
U46 C63 2.882 . S
U46 O64 2.441 . S
U46 O65 2.420 . S
U46 O66 2.455 . S
U46 O67 2.449 . S
O47 U46 2.454 . S
O47 C49 1.353 . S
O48 U46 2.458 . S
O48 C49 1.286 . S
C49 U46 2.984 . S
C49 O47 1.353 . S
C49 O48 1.286 . S
C49 C51 1.363 . S
C50 C40 1.465 . S
C50 U46 2.847 . S
C50 O64 1.249 . S
C50 O65 1.202 . S
C51 C49 1.363 . S
C51 C53 1.409 . S
C51 C56 1.342 1_455 S
C52 C53 1.307 1_655 S
C52 C55 1.461 . S
C52 H72 0.932 . S
C53 C51 1.409 . S
C53 C52 1.307 1_455 S
C53 H73 0.933 . S
C54 C55 1.474 . S
C54 C56 1.285 . S
C54 H74 0.929 . S
C55 C52 1.461 . S
C55 C54 1.474 . S
C56 C51 1.342 1_655 S
C56 C54 1.285 . S
C56 H75 0.930 . S
C57 C60 1.424 . S
C57 C62 1.245 . S
C57 C63 1.428 . S
C58 C61 1.261 1_455 S
C58 C62 1.477 . S
C58 H76 0.932 . S
C59 C60 1.384 . S
C59 C61 1.479 1_455 S
C59 H77 0.929 . S
C60 C57 1.424 . S
C60 C59 1.384 . S
C60 H78 0.928 . S
C61 C58 1.261 1_655 S
C61 C59 1.479 1_655 S
C62 C57 1.245 . S
C62 C58 1.477 . S
C62 H79 0.932 . S
C63 U46 2.882 . S
C63 C57 1.428 . S
C63 O66 1.301 . S
C63 O67 1.282 . S
O64 U46 2.441 . S
O64 C50 1.249 . S
O65 U46 2.420 . S
O65 C50 1.202 . S
O66 U46 2.455 . S
O66 C63 1.301 . S
O67 U46 2.449 . S
O67 C63 1.282 . S
H68 C41 0.931 . S
H69 C43 0.929 . S
H70 C44 0.935 . S
H71 C45 0.931 . S
H72 C52 0.932 . S
H73 C53 0.933 . S
H74 C54 0.929 . S
H75 C56 0.930 . S
H76 C58 0.932 . S
H77 C59 0.929 . S
H78 C60 0.928 . S
H79 C62 0.932 . S
C80 C81 1.264 . S
C80 C85 1.479 . S
C80 C90 1.465 . S
C81 C80 1.264 . S
C81 C83 1.339 . S
C81 H108 0.931 . S
C82 C83 1.395 . S
C82 C84 1.320 . S
C83 C81 1.339 . S
C83 C82 1.395 . S
C83 H109 0.929 . S
C84 C82 1.320 . S
C84 C85 1.405 . S
C84 H110 0.915 1_545 S
C85 C80 1.479 . S
C85 C84 1.405 . S
C85 H111 0.931 . S
U86 O87 2.454 . S
U86 O88 2.458 . S
U86 C89 2.984 . S
U86 C90 2.847 . S
U86 C103 2.882 . S
U86 O104 2.441 . S
U86 O105 2.420 . S
U86 O106 2.455 . S
U86 O107 2.449 . S
O87 U86 2.454 . S
O87 C89 1.353 . S
O88 U86 2.458 . S
O88 C89 1.286 . S
C89 U86 2.984 . S
C89 O87 1.353 . S
C89 O88 1.286 . S
C89 C91 1.363 . S
C90 C80 1.465 . S
C90 U86 2.847 . S
C90 O104 1.249 . S
C90 O105 1.202 . S
C91 C89 1.363 . S
C91 C93 1.408 . S
C91 C96 1.342 . S
C92 C93 1.310 . S
C92 C95 1.460 . S
C92 H112 0.932 . S
C93 C91 1.408 . S
C93 C92 1.310 . S
C93 H113 0.930 . S
C94 C95 1.476 1_565 S
C94 C96 1.285 1_565 S
C94 H114 0.929 . S
C95 C92 1.460 . S
C95 C94 1.476 1_545 S
C96 C91 1.342 . S
C96 C94 1.285 1_545 S
C96 H115 0.928 . S
C97 C100 1.424 . S
C97 C102 1.245 . S
C97 C103 1.428 . S
C98 C101 1.260 . S
C98 C102 1.477 . S
C98 H116 0.932 . S
C99 C100 1.384 . S
C99 C101 1.479 . S
C99 H117 0.929 . S
C100 C97 1.424 . S
C100 C99 1.384 . S
C100 H118 0.928 . S
C101 C98 1.260 . S
C101 C99 1.479 . S
C102 C97 1.245 . S
C102 C98 1.477 . S
C102 H119 0.932 . S
C103 U86 2.882 . S
C103 C97 1.428 . S
C103 O106 1.301 . S
C103 O107 1.282 . S
O104 U86 2.441 . S
O104 C90 1.249 . S
O105 U86 2.420 . S
O105 C90 1.202 . S
O106 U86 2.455 . S
O106 C103 1.301 . S
O107 U86 2.449 . S
O107 C103 1.282 . S
H108 C81 0.931 . S
H109 C83 0.929 . S
H110 C84 0.915 1_565 S
H111 C85 0.931 . S
H112 C92 0.932 . S
H113 C93 0.930 . S
H114 C94 0.929 . S
H115 C96 0.928 . S
H116 C98 0.932 . S
H117 C99 0.929 . S
H118 C100 0.928 . S
H119 C102 0.932 . S
C120 C121 1.264 . S
C120 C125 1.479 . S
C120 C130 1.465 . S
C121 C120 1.264 . S
C121 C123 1.339 . S
C121 H148 0.931 . S
C122 C123 1.395 . S
C122 C124 1.320 . S
C123 C121 1.339 . S
C123 C122 1.395 . S
C123 H149 0.929 . S
C124 C122 1.320 . S
C124 C125 1.405 . S
C124 H150 0.930 . S
C125 C120 1.479 . S
C125 C124 1.405 . S
C125 H151 0.931 . S
U126 O127 2.454 . S
U126 O128 2.458 1_554 S
U126 C129 2.984 1_554 S
U126 C130 2.847 . S
U126 C143 2.882 1_554 S
U126 O144 2.441 . S
U126 O145 2.420 . S
U126 O146 2.455 1_554 S
U126 O147 2.449 1_554 S
O127 U126 2.454 . S
O127 C129 1.353 1_554 S
O128 U126 2.458 1_556 S
O128 C129 1.286 . S
C129 U126 2.984 1_556 S
C129 O127 1.353 1_556 S
C129 O128 1.286 . S
C129 C131 1.363 . S
C130 C120 1.465 . S
C130 U126 2.847 . S
C130 O144 1.249 . S
C130 O145 1.202 . S
C131 C129 1.363 . S
C131 C133 1.408 1_556 S
C131 C136 1.342 . S
C132 C133 1.310 . S
C132 C135 1.461 1_554 S
C132 H152 0.932 . S
C133 C131 1.408 1_554 S
C133 C132 1.310 . S
C133 H153 0.930 . S
C134 C135 1.474 . S
C134 C136 1.285 . S
C134 H154 0.929 . S
C135 C132 1.461 1_556 S
C135 C134 1.474 . S
C136 C131 1.342 . S
C136 C134 1.285 . S
C136 H155 0.930 . S
C137 C140 1.424 . S
C137 C142 1.245 . S
C137 C143 1.428 . S
C138 C141 1.260 . S
C138 C142 1.477 . S
C138 H156 0.932 . S
C139 C140 1.384 . S
C139 C141 1.479 . S
C139 H157 0.929 . S
C140 C137 1.424 . S
C140 C139 1.384 . S
C140 H158 0.928 . S
C141 C138 1.260 . S
C141 C139 1.479 . S
C142 C137 1.245 . S
C142 C138 1.477 . S
C142 H159 0.932 . S
C143 U126 2.882 1_556 S
C143 C137 1.428 . S
C143 O146 1.301 . S
C143 O147 1.282 . S
O144 U126 2.441 . S
O144 C130 1.249 . S
O145 U126 2.420 . S
O145 C130 1.202 . S
O146 U126 2.455 1_556 S
O146 C143 1.301 . S
O147 U126 2.449 1_556 S
O147 C143 1.282 . S
H148 C121 0.931 . S
H149 C123 0.929 . S
H150 C124 0.930 . S
H151 C125 0.931 . S
H152 C132 0.932 . S
H153 C133 0.930 . S
H154 C134 0.929 . S
H155 C136 0.930 . S
H156 C138 0.932 . S
H157 C139 0.929 . S
H158 C140 0.928 . S
H159 C142 0.932 . S
C160 C161 1.264 . S
C160 C165 1.479 . S
C160 C170 1.465 1_556 S
C161 C160 1.264 . S
C161 C163 1.339 . S
C161 H188 0.931 . S
C162 C163 1.395 . S
C162 C164 1.320 . S
C163 C161 1.339 . S
C163 C162 1.395 . S
C163 H189 0.929 . S
C164 C162 1.320 . S
C164 C165 1.405 . S
C164 H190 0.930 . S
C165 C160 1.479 . S
C165 C164 1.405 . S
C165 H191 0.931 . S
U166 O167 2.454 . S
U166 O168 2.458 . S
U166 C169 2.984 . S
U166 C170 2.847 . S
U166 C183 2.882 . S
U166 O184 2.441 . S
U166 O185 2.420 . S
U166 O186 2.455 . S
U166 O187 2.449 . S
O167 U166 2.454 . S
O167 C169 1.353 . S
O168 U166 2.458 . S
O168 C169 1.286 . S
C169 U166 2.984 . S
C169 O167 1.353 . S
C169 O168 1.286 . S
C169 C171 1.363 . S
C170 C160 1.465 1_554 S
C170 U166 2.847 . S
C170 O184 1.249 . S
C170 O185 1.202 . S
C171 C169 1.363 . S
C171 C173 1.408 . S
C171 C176 1.342 . S
C172 C173 1.310 . S
C172 C175 1.461 . S
C172 H192 0.932 . S
C173 C171 1.408 . S
C173 C172 1.310 . S
C173 H193 0.930 . S
C174 C175 1.474 . S
C174 C176 1.285 . S
C174 H194 0.929 . S
C175 C172 1.461 . S
C175 C174 1.474 . S
C176 C171 1.342 . S
C176 C174 1.285 . S
C176 H195 0.930 . S
C177 C180 1.424 . S
C177 C182 1.245 . S
C177 C183 1.428 . S
C178 C181 1.260 . S
C178 C182 1.477 . S
C178 H196 0.932 . S
C179 C180 1.384 . S
C179 C181 1.479 . S
C179 H197 0.929 . S
C180 C177 1.424 . S
C180 C179 1.384 . S
C180 H198 0.928 . S
C181 C178 1.260 . S
C181 C179 1.479 . S
C182 C177 1.245 . S
C182 C178 1.477 . S
C182 H199 0.932 . S
C183 U166 2.882 . S
C183 C177 1.428 . S
C183 O186 1.301 . S
C183 O187 1.282 . S
O184 U166 2.441 . S
O184 C170 1.249 . S
O185 U166 2.420 . S
O185 C170 1.202 . S
O186 U166 2.455 . S
O186 C183 1.301 . S
O187 U166 2.449 . S
O187 C183 1.282 . S
H188 C161 0.931 . S
H189 C163 0.929 . S
H190 C164 0.930 . S
H191 C165 0.931 . S
H192 C172 0.932 . S
H193 C173 0.930 . S
H194 C174 0.929 . S
H195 C176 0.930 . S
H196 C178 0.932 . S
H197 C179 0.929 . S
H198 C180 0.928 . S
H199 C182 0.932 . S
C200 C201 1.264 . S
C200 C205 1.479 . S
C200 C210 1.465 1_556 S
C201 C200 1.264 . S
C201 C203 1.339 . S
C201 H228 0.931 1_556 S
C202 C203 1.395 . S
C202 C204 1.320 . S
C203 C201 1.339 . S
C203 C202 1.395 . S
C203 H229 0.929 . S
C204 C202 1.320 . S
C204 C205 1.405 . S
C204 H230 0.930 . S
C205 C200 1.479 . S
C205 C204 1.405 . S
C205 H231 0.931 . S
U206 O207 2.454 . S
U206 O208 2.458 . S
U206 C209 2.984 . S
U206 C210 2.847 . S
U206 C223 2.882 . S
U206 O224 2.441 . S
U206 O225 2.420 . S
U206 O226 2.455 . S
U206 O227 2.449 . S
O207 U206 2.454 . S
O207 C209 1.353 . S
O208 U206 2.458 . S
O208 C209 1.286 . S
C209 U206 2.984 . S
C209 O207 1.353 . S
C209 O208 1.286 . S
C209 C211 1.363 . S
C210 C200 1.465 1_554 S
C210 U206 2.847 . S
C210 O224 1.249 . S
C210 O225 1.202 . S
C211 C209 1.363 . S
C211 C213 1.408 . S
C211 C216 1.342 . S
C212 C213 1.310 . S
C212 C215 1.461 . S
C212 H232 0.932 . S
C213 C211 1.408 . S
C213 C212 1.310 . S
C213 H233 0.930 . S
C214 C215 1.474 . S
C214 C216 1.285 . S
C214 H234 0.929 . S
C215 C212 1.461 . S
C215 C214 1.474 . S
C216 C211 1.342 . S
C216 C214 1.285 . S
C216 H235 0.930 . S
C217 C220 1.424 . S
C217 C222 1.245 . S
C217 C223 1.428 . S
C218 C221 1.260 . S
C218 C222 1.477 . S
C218 H236 0.932 . S
C219 C220 1.384 . S
C219 C221 1.479 . S
C219 H237 0.929 . S
C220 C217 1.424 . S
C220 C219 1.384 . S
C220 H238 0.928 . S
C221 C218 1.260 . S
C221 C219 1.479 . S
C222 C217 1.245 . S
C222 C218 1.477 . S
C222 H239 0.932 . S
C223 U206 2.882 . S
C223 C217 1.428 . S
C223 O226 1.301 . S
C223 O227 1.282 . S
O224 U206 2.441 . S
O224 C210 1.249 . S
O225 U206 2.420 . S
O225 C210 1.202 . S
O226 U206 2.455 . S
O226 C223 1.301 . S
O227 U206 2.449 . S
O227 C223 1.282 . S
H228 C201 0.931 1_554 S
H229 C203 0.929 . S
H230 C204 0.930 . S
H231 C205 0.931 . S
H232 C212 0.932 . S
H233 C213 0.930 . S
H234 C214 0.929 . S
H235 C216 0.930 . S
H236 C218 0.932 . S
H237 C219 0.929 . S
H238 C220 0.928 . S
H239 C222 0.932 . S
C240 C241 1.264 . S
C240 C245 1.479 . S
C240 C250 1.465 1_556 S
C241 C240 1.264 . S
C241 C243 1.339 . S
C241 H268 0.931 1_556 S
C242 C243 1.395 . S
C242 C244 1.320 . S
C243 C241 1.339 . S
C243 C242 1.395 . S
C243 H269 0.929 . S
C244 C242 1.320 . S
C244 C245 1.405 . S
C244 H270 0.928 1_545 S
C245 C240 1.479 . S
C245 C244 1.405 . S
C245 H271 0.931 . S
U246 O247 2.454 . S
U246 O248 2.458 . S
U246 C249 2.984 . S
U246 C250 2.847 . S
U246 C263 2.882 . S
U246 O264 2.441 . S
U246 O265 2.420 . S
U246 O266 2.455 . S
U246 O267 2.449 . S
O247 U246 2.454 . S
O247 C249 1.353 . S
O248 U246 2.458 . S
O248 C249 1.286 . S
C249 U246 2.984 . S
C249 O247 1.353 . S
C249 O248 1.286 . S
C249 C251 1.363 . S
C250 C240 1.465 1_554 S
C250 U246 2.847 . S
C250 O264 1.249 . S
C250 O265 1.202 . S
C251 C249 1.363 . S
C251 C253 1.408 . S
C251 C256 1.342 . S
C252 C253 1.310 . S
C252 C255 1.465 . S
C252 H272 0.932 . S
C253 C251 1.408 . S
C253 C252 1.310 . S
C253 H273 0.930 . S
C254 C255 1.472 1_565 S
C254 C256 1.286 1_565 S
C254 H274 0.929 . S
C255 C252 1.465 . S
C255 C254 1.472 1_545 S
C256 C251 1.342 . S
C256 C254 1.286 1_545 S
C256 H275 0.930 . S
C257 C260 1.424 . S
C257 C262 1.245 . S
C257 C263 1.428 . S
C258 C261 1.260 . S
C258 C262 1.477 . S
C258 H276 0.932 . S
C259 C260 1.384 . S
C259 C261 1.479 . S
C259 H277 0.929 . S
C260 C257 1.424 . S
C260 C259 1.384 . S
C260 H278 0.928 . S
C261 C258 1.260 . S
C261 C259 1.479 . S
C262 C257 1.245 . S
C262 C258 1.477 . S
C262 H279 0.932 . S
C263 U246 2.882 . S
C263 C257 1.428 . S
C263 O266 1.301 . S
C263 O267 1.282 . S
O264 U246 2.441 . S
O264 C250 1.249 . S
O265 U246 2.420 . S
O265 C250 1.202 . S
O266 U246 2.455 . S
O266 C263 1.301 . S
O267 U246 2.449 . S
O267 C263 1.282 . S
H268 C241 0.931 1_554 S
H269 C243 0.929 . S
H270 C244 0.928 1_565 S
H271 C245 0.931 . S
H272 C252 0.932 . S
H273 C253 0.930 . S
H274 C254 0.929 . S
H275 C256 0.930 . S
H276 C258 0.932 . S
H277 C259 0.929 . S
H278 C260 0.928 . S
H279 C262 0.932 . S
C280 C281 1.264 . S
C280 C285 1.479 . S
C280 C290 1.465 . S
C281 C280 1.264 . S
C281 C283 1.339 . S
C281 H308 0.931 . S
C282 C283 1.395 . S
C282 C284 1.320 . S
C283 C281 1.339 . S
C283 C282 1.395 . S
C283 H309 0.929 . S
C284 C282 1.320 . S
C284 C285 1.405 . S
C284 H310 0.930 . S
C285 C280 1.479 . S
C285 C284 1.405 . S
C285 H311 0.931 . S
U286 O287 2.454 . S
U286 O288 2.458 . S
U286 C289 2.984 . S
U286 C290 2.847 . S
U286 C303 2.882 . S
U286 O304 2.441 . S
U286 O305 2.420 . S
U286 O306 2.455 . S
U286 O307 2.449 . S
O287 U286 2.454 . S
O287 C289 1.353 . S
O288 U286 2.458 . S
O288 C289 1.286 . S
C289 U286 2.984 . S
C289 O287 1.353 . S
C289 O288 1.286 . S
C289 C291 1.363 . S
C290 C280 1.465 . S
C290 U286 2.847 . S
C290 O304 1.249 . S
C290 O305 1.202 . S
C291 C289 1.363 . S
C291 C293 1.408 . S
C291 C296 1.342 . S
C292 C293 1.310 . S
C292 C295 1.461 . S
C292 H312 0.932 . S
C293 C291 1.408 . S
C293 C292 1.310 . S
C293 H313 0.930 . S
C294 C295 1.474 . S
C294 C296 1.285 . S
C294 H314 0.929 . S
C295 C292 1.461 . S
C295 C294 1.474 . S
C296 C291 1.342 . S
C296 C294 1.285 . S
C296 H315 0.930 . S
C297 C300 1.424 . S
C297 C302 1.245 . S
C297 C303 1.428 . S
C298 C301 1.260 . S
C298 C302 1.477 . S
C298 H316 0.932 . S
C299 C300 1.384 . S
C299 C301 1.479 . S
C299 H317 0.929 . S
C300 C297 1.424 . S
C300 C299 1.384 . S
C300 H318 0.928 . S
C301 C298 1.260 . S
C301 C299 1.479 . S
C302 C297 1.245 . S
C302 C298 1.477 . S
C302 H319 0.932 . S
C303 U286 2.882 . S
C303 C297 1.428 . S
C303 O306 1.301 . S
C303 O307 1.282 . S
O304 U286 2.441 . S
O304 C290 1.249 . S
O305 U286 2.420 . S
O305 C290 1.202 . S
O306 U286 2.455 . S
O306 C303 1.301 . S
O307 U286 2.449 . S
O307 C303 1.282 . S
H308 C281 0.931 . S
H309 C283 0.929 . S
H310 C284 0.930 . S
H311 C285 0.931 . S
H312 C292 0.932 . S
H313 C293 0.930 . S
H314 C294 0.929 . S
H315 C296 0.930 . S
H316 C298 0.932 . S
H317 C299 0.929 . S
H318 C300 0.928 . S
H319 C302 0.932 . S
Tb320 C329 2.764 . S
Tb320 O330 2.325 . S
Tb320 O333 2.303 1_655 S
Tb320 O337 2.322 1_545 S
Tb320 O338 2.349 . S
Tb320 O341 2.415 . S
Tb320 O342 2.399 . S
Tb321 O331 2.322 1_565 S
Tb321 O332 2.349 . S
Tb321 O334 2.415 . S
Tb321 O335 2.399 . S
Tb321 O336 2.325 . S
Tb321 O339 2.303 1_455 S
Tb321 C350 2.764 . S
C322 O338 1.261 . S
C322 O339 1.257 1_545 S
C323 C326 1.358 . S
C323 C327 1.332 . S
C323 C329 1.504 . S
C324 C325 1.373 . S
C324 C328 1.308 . S
C325 C324 1.373 . S
C325 C326 1.429 . S
C325 H352 0.932 . S
C326 C323 1.358 . S
C326 C325 1.429 . S
C326 H353 0.930 . S
C327 C323 1.332 . S
C327 C328 1.394 . S
C327 H354 0.932 1_655 S
C328 C324 1.308 . S
C328 C327 1.394 . S
C328 H355 0.929 1_655 S
C329 Tb320 2.764 . S
C329 C323 1.504 . S
C329 O341 1.239 . S
C329 O342 1.263 . S
O330 Tb320 2.325 . S
O330 C340 1.236 1_655 S
O331 Tb321 2.322 1_545 S
O331 C340 1.257 . S
O332 Tb321 2.349 . S
O332 C343 1.261 . S
O333 Tb320 2.303 1_455 S
O333 C343 1.257 1_545 S
O334 Tb321 2.415 . S
O334 C350 1.239 . S
O335 Tb321 2.399 . S
O335 C350 1.263 . S
O336 Tb321 2.325 . S
O336 C351 1.236 1_455 S
O337 Tb320 2.322 1_565 S
O337 C351 1.257 . S
O338 Tb320 2.349 . S
O338 C322 1.261 . S
O339 Tb321 2.303 1_655 S
O339 C322 1.257 1_565 S
C340 O330 1.236 1_455 S
C340 O331 1.257 . S
O341 Tb320 2.415 . S
O341 C329 1.239 . S
O342 Tb320 2.399 . S
O342 C329 1.263 . S
C343 O332 1.261 . S
C343 O333 1.257 1_565 S
C344 C347 1.358 . S
C344 C348 1.338 . S
C344 C350 1.504 . S
C345 C346 1.373 . S
C345 C349 1.308 . S
C346 C345 1.373 . S
C346 C347 1.429 1_554 S
C346 H356 0.932 . S
C347 C344 1.358 . S
C347 C346 1.429 1_556 S
C347 H357 0.930 . S
C348 C344 1.338 . S
C348 C349 1.385 1_556 S
C348 H358 0.935 1_455 S
C349 C345 1.308 . S
C349 C348 1.385 1_554 S
C349 H359 0.929 . S
C350 Tb321 2.764 . S
C350 O334 1.239 . S
C350 O335 1.263 . S
C350 C344 1.504 . S
C351 O336 1.236 1_655 S
C351 O337 1.257 . S
H352 C325 0.932 . S
H353 C326 0.930 . S
H354 C327 0.932 1_455 S
H355 C328 0.929 1_455 S
H356 C346 0.932 . S
H357 C347 0.930 . S
H358 C348 0.935 1_655 S
H359 C349 0.929 . S
Tb360 C369 2.764 . S
Tb360 O370 2.325 . S
Tb360 O373 2.303 1_565 S
Tb360 O377 2.322 . S
Tb360 O378 2.349 . S
Tb360 O381 2.415 1_565 S
Tb360 O382 2.399 . S
Tb361 O371 2.322 . S
Tb361 O372 2.349 . S
Tb361 O374 2.415 1_545 S
Tb361 O375 2.399 . S
Tb361 O376 2.325 . S
Tb361 O379 2.303 1_545 S
Tb361 C390 2.764 . S
C362 O378 1.261 . S
C362 O379 1.257 . S
C363 C366 1.358 . S
C363 C367 1.332 1_565 S
C363 C369 1.504 . S
C364 C365 1.373 . S
C364 C368 1.324 . S
C365 C364 1.373 . S
C365 C366 1.429 . S
C365 H392 0.932 . S
C366 C363 1.358 . S
C366 C365 1.429 . S
C366 H393 0.930 . S
C367 C363 1.332 1_545 S
C367 C368 1.395 1_545 S
C367 H394 0.932 . S
C368 C364 1.324 . S
C368 C367 1.395 1_565 S
C368 H395 0.912 1_565 S
C369 Tb360 2.764 . S
C369 C363 1.504 . S
C369 O381 1.239 1_565 S
C369 O382 1.263 . S
O370 Tb360 2.325 . S
O370 C380 1.236 1_565 S
O371 Tb361 2.322 . S
O371 C380 1.257 . S
O372 Tb361 2.349 . S
O372 C383 1.261 . S
O373 Tb360 2.303 1_545 S
O373 C383 1.257 . S
O374 Tb361 2.415 1_565 S
O374 C390 1.239 1_565 S
O375 Tb361 2.399 . S
O375 C390 1.263 . S
O376 Tb361 2.325 . S
O376 C391 1.236 1_545 S
O377 Tb360 2.322 . S
O377 C391 1.257 . S
O378 Tb360 2.349 . S
O378 C362 1.261 . S
O379 Tb361 2.303 1_565 S
O379 C362 1.257 . S
C380 O370 1.236 1_545 S
C380 O371 1.257 . S
O381 Tb360 2.415 1_545 S
O381 C369 1.239 1_545 S
O382 Tb360 2.399 . S
O382 C369 1.263 . S
C383 O372 1.261 . S
C383 O373 1.257 . S
C384 C387 1.358 . S
C384 C388 1.298 1_545 S
C384 C390 1.504 1_554 S
C385 C386 1.373 . S
C385 C389 1.332 . S
C386 C385 1.373 . S
C386 C387 1.429 . S
C386 H396 0.932 . S
C387 C384 1.358 . S
C387 C386 1.429 . S
C387 H397 0.930 . S
C388 C384 1.298 1_565 S
C388 C389 1.398 1_565 S
C388 H398 0.967 1_554 S
C389 C385 1.332 . S
C389 C388 1.398 1_545 S
C389 H399 0.904 1_545 S
C390 Tb361 2.764 . S
C390 O374 1.239 1_545 S
C390 O375 1.263 . S
C390 C384 1.504 1_556 S
C391 O376 1.236 1_565 S
C391 O377 1.257 . S
H392 C365 0.932 . S
H393 C366 0.930 . S
H394 C367 0.932 . S
H395 C368 0.912 1_545 S
H396 C386 0.932 . S
H397 C387 0.930 . S
H398 C388 0.967 1_556 S
H399 C389 0.904 1_565 S
Tb400 C409 2.764 . S
Tb400 O410 2.325 . S
Tb400 O413 2.303 . S
Tb400 O417 2.322 . S
Tb400 O418 2.349 . S
Tb400 O421 2.415 . S
Tb400 O422 2.399 . S
Tb401 O411 2.322 . S
Tb401 O412 2.349 . S
Tb401 O414 2.415 . S
Tb401 O415 2.399 . S
Tb401 O416 2.325 . S
Tb401 O419 2.303 . S
Tb401 C430 2.764 . S
C402 O418 1.261 . S
C402 O419 1.257 . S
C403 C406 1.358 . S
C403 C407 1.332 . S
C403 C409 1.504 1_554 S
C404 C405 1.373 . S
C404 C408 1.308 . S
C405 C404 1.373 . S
C405 C406 1.429 . S
C405 H432 0.932 . S
C406 C403 1.358 . S
C406 C405 1.429 . S
C406 H433 0.930 . S
C407 C403 1.332 . S
C407 C408 1.394 . S
C407 H434 0.932 . S
C408 C404 1.308 . S
C408 C407 1.394 . S
C408 H435 0.929 . S
C409 Tb400 2.764 . S
C409 C403 1.504 1_556 S
C409 O421 1.239 . S
C409 O422 1.263 . S
O410 Tb400 2.325 . S
O410 C420 1.236 . S
O411 Tb401 2.322 . S
O411 C420 1.257 . S
O412 Tb401 2.349 . S
O412 C423 1.261 . S
O413 Tb400 2.303 . S
O413 C423 1.257 . S
O414 Tb401 2.415 . S
O414 C430 1.239 . S
O415 Tb401 2.399 . S
O415 C430 1.263 . S
O416 Tb401 2.325 . S
O416 C431 1.236 . S
O417 Tb400 2.322 . S
O417 C431 1.257 . S
O418 Tb400 2.349 . S
O418 C402 1.261 . S
O419 Tb401 2.303 . S
O419 C402 1.257 . S
C420 O410 1.236 . S
C420 O411 1.257 . S
O421 Tb400 2.415 . S
O421 C409 1.239 . S
O422 Tb400 2.399 . S
O422 C409 1.263 . S
C423 O412 1.261 . S
C423 O413 1.257 . S
C424 C427 1.358 . S
C424 C428 1.332 . S
C424 C430 1.504 . S
C425 C426 1.373 . S
C425 C429 1.308 . S
C426 C425 1.373 . S
C426 C427 1.429 . S
C426 H436 0.932 . S
C427 C424 1.358 . S
C427 C426 1.429 . S
C427 H437 0.930 . S
C428 C424 1.332 . S
C428 C429 1.394 . S
C428 H438 0.932 . S
C429 C425 1.308 . S
C429 C428 1.394 . S
C429 H439 0.929 . S
C430 Tb401 2.764 . S
C430 O414 1.239 . S
C430 O415 1.263 . S
C430 C424 1.504 . S
C431 O416 1.236 . S
C431 O417 1.257 . S
H432 C405 0.932 . S
H433 C406 0.930 . S
H434 C407 0.932 . S
H435 C408 0.929 . S
H436 C426 0.932 . S
H437 C427 0.930 . S
H438 C428 0.932 . S
H439 C429 0.929 . S
Tb440 C449 2.764 . S
Tb440 O450 2.325 . S
Tb440 O453 2.303 . S
Tb440 O457 2.322 1_455 S
Tb440 O458 2.349 . S
Tb440 O461 2.415 . S
Tb440 O462 2.399 . S
Tb441 O451 2.322 1_655 S
Tb441 O452 2.349 . S
Tb441 O454 2.415 . S
Tb441 O455 2.399 . S
Tb441 O456 2.325 . S
Tb441 O459 2.303 . S
Tb441 C470 2.764 . S
C442 O458 1.261 . S
C442 O459 1.257 1_455 S
C443 C446 1.358 . S
C443 C447 1.332 . S
C443 C449 1.504 . S
C444 C445 1.373 . S
C444 C448 1.308 . S
C445 C444 1.373 . S
C445 C446 1.429 . S
C445 H472 0.932 . S
C446 C443 1.358 . S
C446 C445 1.429 . S
C446 H473 0.930 . S
C447 C443 1.332 . S
C447 C448 1.394 . S
C447 H474 0.932 . S
C448 C444 1.308 . S
C448 C447 1.394 . S
C448 H475 0.929 . S
C449 Tb440 2.764 . S
C449 C443 1.504 . S
C449 O461 1.239 . S
C449 O462 1.263 . S
O450 Tb440 2.325 . S
O450 C460 1.236 . S
O451 Tb441 2.322 1_455 S
O451 C460 1.257 . S
O452 Tb441 2.349 . S
O452 C463 1.239 1_655 S
O453 Tb440 2.303 . S
O453 C463 1.268 . S
O454 Tb441 2.415 . S
O454 C470 1.239 . S
O455 Tb441 2.399 . S
O455 C470 1.263 . S
O456 Tb441 2.325 . S
O456 C471 1.236 . S
O457 Tb440 2.322 1_655 S
O457 C471 1.257 . S
O458 Tb440 2.349 . S
O458 C442 1.261 . S
O459 Tb441 2.303 . S
O459 C442 1.257 1_655 S
C460 O450 1.236 . S
C460 O451 1.257 . S
O461 Tb440 2.415 . S
O461 C449 1.239 . S
O462 Tb440 2.399 . S
O462 C449 1.263 . S
C463 O452 1.239 1_455 S
C463 O453 1.268 . S
C464 C467 1.361 . S
C464 C468 1.335 . S
C464 C470 1.496 1_554 S
C465 C466 1.373 . S
C465 C469 1.308 . S
C466 C465 1.373 . S
C466 C467 1.429 . S
C466 H476 0.932 . S
C467 C464 1.361 . S
C467 C466 1.429 . S
C467 H477 0.930 1_554 S
C468 C464 1.335 . S
C468 C469 1.394 . S
C468 H478 0.932 . S
C469 C465 1.308 . S
C469 C468 1.394 . S
C469 H479 0.929 . S
C470 Tb441 2.764 . S
C470 O454 1.239 . S
C470 O455 1.263 . S
C470 C464 1.496 1_556 S
C471 O456 1.236 . S
C471 O457 1.257 . S
H472 C445 0.932 . S
H473 C446 0.930 . S
H474 C447 0.932 . S
H475 C448 0.929 . S
H476 C466 0.932 . S
H477 C467 0.930 1_556 S
H478 C468 0.932 . S
H479 C469 0.929 . S
C480 C481 1.405 . S
C480 H484 0.950 . S
C480 C489 1.390 . S
C481 C480 1.405 . S
C481 C483 1.365 1_545 S
H482 C489 0.950 . S
C483 C481 1.365 1_565 S
C483 C485 1.390 . S
C483 H487 0.950 . S
H484 C480 0.950 . S
C485 C483 1.390 . S
C485 C486 1.387 1_565 S
C485 H488 0.950 . S
C486 C485 1.387 1_545 S
C486 C489 1.387 . S
H487 C483 0.950 . S
H488 C485 0.950 . S
C489 C480 1.390 . S
C489 H482 0.950 . S
C489 C486 1.387 . S
C490 C491 1.387 . S
C490 H494 0.950 . S
C490 C499 1.390 . S
C491 C490 1.387 . S
C491 C493 1.387 . S
H492 C499 0.950 . S
C493 C491 1.387 . S
C493 C495 1.390 . S
C493 H497 0.950 . S
H494 C490 0.950 . S
C495 C493 1.390 . S
C495 C496 1.387 . S
C495 H498 0.950 . S
C496 C495 1.387 . S
C496 C499 1.387 . S
H497 C493 0.950 . S
H498 C495 0.950 . S
C499 C490 1.390 . S
C499 H492 0.950 . S
C499 C496 1.387 . S
C500 C501 1.387 . S
C500 H504 0.950 . S
C500 C509 1.390 . S
C501 C500 1.387 . S
C501 C503 1.387 . S
H502 C509 0.950 . S
C503 C501 1.387 . S
C503 C505 1.390 . S
C503 H507 0.950 . S
H504 C500 0.950 . S
C505 C503 1.390 . S
C505 C506 1.387 . S
C505 H508 0.950 . S
C506 C505 1.387 . S
C506 C509 1.387 . S
H507 C503 0.950 . S
H508 C505 0.950 . S
C509 C500 1.390 . S
C509 H502 0.950 . S
C509 C506 1.387 . S
C510 C511 1.387 1_655 S
C510 H514 0.950 . S
C510 C519 1.390 . S
C511 C510 1.387 1_455 S
C511 C513 1.387 . S
H512 C519 0.950 . S
C513 C511 1.387 . S
C513 C515 1.390 . S
C513 H517 0.950 . S
H514 C510 0.950 . S
C515 C513 1.390 . S
C515 C516 1.387 . S
C515 H518 0.950 . S
C516 C515 1.387 . S
C516 C519 1.387 1_455 S
H517 C513 0.950 . S
H518 C515 0.950 . S
C519 C510 1.390 . S
C519 H512 0.950 . S
C519 C516 1.387 1_655 S
C520 C521 1.413 . S
C520 H524 0.950 . S
C520 C529 1.390 . S
C521 C520 1.413 . S
C521 C523 1.357 1_565 S
H522 C529 0.950 . S
C523 C521 1.357 1_545 S
C523 C525 1.390 . S
C523 H527 0.950 . S
H524 C520 0.950 . S
C525 C523 1.390 . S
C525 C526 1.387 1_545 S
C525 H528 0.950 . S
C526 C525 1.387 1_565 S
C526 C529 1.387 . S
H527 C523 0.950 . S
H528 C525 0.950 . S
C529 C520 1.390 . S
C529 H522 0.950 . S
C529 C526 1.387 . S
C530 C531 1.387 . S
C530 H534 0.950 . S
C530 C539 1.390 . S
C531 C530 1.387 . S
C531 C533 1.387 . S
H532 C539 0.950 . S
C533 C531 1.387 . S
C533 C535 1.390 . S
C533 H537 0.950 1_556 S
H534 C530 0.950 . S
C535 C533 1.390 . S
C535 C536 1.387 . S
C535 H538 0.950 . S
C536 C535 1.387 . S
C536 C539 1.387 . S
H537 C533 0.950 1_554 S
H538 C535 0.950 . S
C539 C530 1.390 . S
C539 H532 0.950 . S
C539 C536 1.387 . S
C540 C541 1.387 . S
C540 H544 0.950 . S
C540 C549 1.390 . S
C541 C540 1.387 . S
C541 C543 1.387 . S
H542 C549 0.950 . S
C543 C541 1.387 . S
C543 C545 1.390 . S
C543 H547 0.950 . S
H544 C540 0.950 . S
C545 C543 1.390 . S
C545 C546 1.387 . S
C545 H548 0.950 . S
C546 C545 1.387 . S
C546 C549 1.387 . S
H547 C543 0.950 . S
H548 C545 0.950 . S
C549 C540 1.390 . S
C549 H542 0.950 . S
C549 C546 1.387 . S
C550 C551 1.387 . S
C550 H554 0.950 . S
C550 C559 1.390 . S
C551 C550 1.387 . S
C551 C553 1.387 1_655 S
H552 C559 0.950 . S
C553 C551 1.387 1_455 S
C553 C555 1.390 . S
C553 H557 0.950 . S
H554 C550 0.950 . S
C555 C553 1.390 . S
C555 C556 1.387 1_455 S
C555 H558 0.950 . S
C556 C555 1.387 1_655 S
C556 C559 1.387 . S
H557 C553 0.950 . S
H558 C555 0.950 . S
C559 C550 1.390 . S
C559 H552 0.950 . S
C559 C556 1.387 . S
C560 C561 1.387 1_655 S
C560 H564 0.950 1_655 S
C560 C569 1.390 . S
C561 C560 1.387 1_455 S
C561 C563 1.387 1_455 S
H562 C569 0.950 . S
C563 C561 1.387 1_655 S
C563 C565 1.390 . S
C563 H567 0.950 . S
H564 C560 0.950 1_455 S
C565 C563 1.390 . S
C565 C566 1.387 . S
C565 H568 0.950 . S
C566 C565 1.387 . S
C566 C569 1.387 . S
H567 C563 0.950 . S
H568 C565 0.950 . S
C569 C560 1.390 . S
C569 H562 0.950 . S
C569 C566 1.387 . S
C570 C571 1.387 1_565 S
C570 H574 0.950 . S
C570 C579 1.390 . S
C571 C570 1.387 1_545 S
C571 C573 1.387 1_545 S
H572 C579 0.950 . S
C573 C571 1.387 1_565 S
C573 C575 1.390 . S
C573 H577 0.950 1_565 S
H574 C570 0.950 . S
C575 C573 1.390 . S
C575 C576 1.387 . S
C575 H578 0.950 . S
C576 C575 1.387 . S
C576 C579 1.387 . S
H577 C573 0.950 1_545 S
H578 C575 0.950 . S
C579 C570 1.390 . S
C579 H572 0.950 . S
C579 C576 1.387 . S
C580 C581 1.387 . S
C580 H584 0.950 . S
C580 C589 1.390 . S
C581 C580 1.387 . S
C581 C583 1.387 . S
H582 C589 0.950 . S
C583 C581 1.387 . S
C583 C585 1.390 . S
C583 H587 0.950 . S
H584 C580 0.950 . S
C585 C583 1.390 . S
C585 C586 1.387 . S
C585 H588 0.950 . S
C586 C585 1.387 . S
C586 C589 1.387 . S
H587 C583 0.950 . S
H588 C585 0.950 . S
C589 C580 1.390 . S
C589 H582 0.950 . S
C589 C586 1.387 . S
C590 C591 1.387 . S
C590 H594 0.950 . S
C590 C599 1.390 . S
C591 C590 1.387 . S
C591 C593 1.387 . S
H592 C599 0.950 . S
C593 C591 1.387 . S
C593 C595 1.390 . S
C593 H597 0.950 . S
H594 C590 0.950 . S
C595 C593 1.390 . S
C595 C596 1.387 . S
C595 H598 0.950 . S
C596 C595 1.387 . S
C596 C599 1.387 . S
H597 C593 0.950 . S
H598 C595 0.950 . S
C599 C590 1.390 . S
C599 H592 0.950 . S
C599 C596 1.387 . S
C600 C601 1.387 . S
C600 H604 0.950 1_554 S
C600 C609 1.390 . S
C601 C600 1.387 . S
C601 C603 1.387 . S
H602 C609 0.950 1_556 S
C603 C601 1.387 . S
C603 C605 1.390 . S
C603 H607 0.950 . S
H604 C600 0.950 1_556 S
C605 C603 1.390 . S
C605 C606 1.387 . S
C605 H608 0.950 . S
C606 C605 1.387 . S
C606 C609 1.387 . S
H607 C603 0.950 . S
H608 C605 0.950 . S
C609 C600 1.390 . S
C609 H602 0.950 1_554 S
C609 C606 1.387 . S
C610 C611 1.387 1_545 S
C610 H614 0.950 . S
C610 C619 1.390 . S
C611 C610 1.387 1_565 S
C611 C613 1.387 1_565 S
H612 C619 0.950 . S
C613 C611 1.387 1_545 S
C613 C615 1.390 . S
C613 H617 0.950 1_545 S
H614 C610 0.950 . S
C615 C613 1.390 . S
C615 C616 1.387 . S
C615 H618 0.950 . S
C616 C615 1.387 . S
C616 C619 1.387 . S
H617 C613 0.950 1_565 S
H618 C615 0.950 . S
C619 C610 1.390 . S
C619 H612 0.950 . S
C619 C616 1.387 . S
C620 C621 1.387 . S
C620 H624 0.950 . S
C620 C629 1.390 . S
C621 C620 1.387 . S
C621 C623 1.387 . S
H622 C629 0.950 . S
C623 C621 1.387 . S
C623 C625 1.390 . S
C623 H627 0.950 . S
H624 C620 0.950 . S
C625 C623 1.390 . S
C625 C626 1.387 . S
C625 H628 0.950 . S
C626 C625 1.387 . S
C626 C629 1.387 . S
H627 C623 0.950 . S
H628 C625 0.950 . S
C629 C620 1.390 . S
C629 H622 0.950 . S
C629 C626 1.387 . S
C630 C631 1.387 . S
C630 H634 0.950 . S
C630 C639 1.390 . S
C631 C630 1.387 . S
C631 C633 1.387 . S
H632 C639 0.950 . S
C633 C631 1.387 . S
C633 C635 1.390 . S
C633 H637 0.950 . S
H634 C630 0.950 . S
C635 C633 1.390 . S
C635 C636 1.387 . S
C635 H638 0.950 1_554 S
C636 C635 1.387 . S
C636 C639 1.387 . S
H637 C633 0.950 . S
H638 C635 0.950 1_556 S
C639 C630 1.390 . S
C639 H632 0.950 . S
C639 C636 1.387 . S
C640 C641 1.387 1_655 S
C640 H644 0.950 . S
C640 C649 1.390 . S
C641 C640 1.387 1_455 S
C641 C643 1.387 . S
H642 C649 0.950 . S
C643 C641 1.387 . S
C643 C645 1.390 . S
C643 H647 0.950 . S
H644 C640 0.950 . S
C645 C643 1.390 . S
C645 C646 1.387 . S
C645 H648 0.950 . S
C646 C645 1.387 . S
C646 C649 1.387 1_455 S
H647 C643 0.950 . S
H648 C645 0.950 . S
C649 C640 1.390 . S
C649 H642 0.950 . S
C649 C646 1.387 1_655 S
C650 C651 1.387 1_565 S
C650 H654 0.950 . S
C650 C659 1.390 . S
C651 C650 1.387 1_545 S
C651 C653 1.387 . S
H652 C659 0.950 . S
C653 C651 1.387 . S
C653 C655 1.390 . S
C653 H657 0.950 . S
H654 C650 0.950 . S
C655 C653 1.390 . S
C655 C656 1.387 . S
C655 H658 0.950 . S
C656 C655 1.387 . S
C656 C659 1.387 1_545 S
H657 C653 0.950 . S
H658 C655 0.950 . S
C659 C650 1.390 . S
C659 H652 0.950 . S
C659 C656 1.387 1_565 S
C660 C661 1.387 . S
C660 H664 0.950 . S
C660 C669 1.390 . S
C661 C660 1.387 . S
C661 C663 1.387 . S
H662 C669 0.950 . S
C663 C661 1.387 . S
C663 C665 1.390 . S
C663 H667 0.950 . S
H664 C660 0.950 . S
C665 C663 1.390 . S
C665 C666 1.387 . S
C665 H668 0.950 . S
C666 C665 1.387 . S
C666 C669 1.387 . S
H667 C663 0.950 . S
H668 C665 0.950 . S
C669 C660 1.390 . S
C669 H662 0.950 . S
C669 C666 1.387 . S
C670 C671 1.387 . S
C670 H674 0.950 . S
C670 C679 1.390 . S
C671 C670 1.387 . S
C671 C673 1.387 . S
H672 C679 0.950 . S
C673 C671 1.387 . S
C673 C675 1.390 . S
C673 H677 0.950 . S
H674 C670 0.950 . S
C675 C673 1.390 . S
C675 C676 1.387 . S
C675 H678 0.950 . S
C676 C675 1.387 . S
C676 C679 1.387 . S
H677 C673 0.950 . S
H678 C675 0.950 . S
C679 C670 1.390 . S
C679 H672 0.950 . S
C679 C676 1.387 . S
C680 C681 1.387 . S
C680 H684 0.950 . S
C680 C689 1.390 . S
C681 C680 1.387 . S
C681 C683 1.387 1_655 S
H682 C689 0.950 . S
C683 C681 1.387 1_455 S
C683 C685 1.390 . S
C683 H687 0.950 . S
H684 C680 0.950 . S
C685 C683 1.390 . S
C685 C686 1.387 1_455 S
C685 H688 0.950 . S
C686 C685 1.387 1_655 S
C686 C689 1.387 . S
H687 C683 0.950 . S
H688 C685 0.950 . S
C689 C680 1.390 . S
C689 H682 0.950 . S
C689 C686 1.387 . S
C690 C691 1.387 . S
C690 H694 0.950 . S
C690 C699 1.390 . S
C691 C690 1.387 . S
C691 C693 1.387 1_565 S
H692 C699 0.950 . S
C693 C691 1.387 1_545 S
C693 C695 1.390 . S
C693 H697 0.950 . S
H694 C690 0.950 . S
C695 C693 1.390 . S
C695 C696 1.387 1_545 S
C695 H698 0.950 . S
C696 C695 1.387 1_565 S
C696 C699 1.387 . S
H697 C693 0.950 . S
H698 C695 0.950 . S
C699 C690 1.390 . S
C699 H692 0.950 . S
C699 C696 1.387 . S
C700 C701 1.387 . S
C700 H704 0.950 . S
C700 C709 1.390 . S
C701 C700 1.387 . S
C701 C703 1.387 . S
H702 C709 0.950 . S
C703 C701 1.387 . S
C703 C705 1.390 . S
C703 H707 0.950 . S
H704 C700 0.950 . S
C705 C703 1.390 . S
C705 C706 1.387 . S
C705 H708 0.950 . S
C706 C705 1.387 . S
C706 C709 1.387 . S
H707 C703 0.950 . S
H708 C705 0.950 . S
C709 C700 1.390 . S
C709 H702 0.950 . S
C709 C706 1.387 . S
C710 C711 1.387 . S
C710 H714 0.950 . S
C710 C719 1.390 . S
C711 C710 1.387 . S
C711 C713 1.387 . S
H712 C719 0.950 . S
C713 C711 1.387 . S
C713 C715 1.390 . S
C713 H717 0.950 . S
H714 C710 0.950 . S
C715 C713 1.390 . S
C715 C716 1.387 . S
C715 H718 0.950 . S
C716 C715 1.387 . S
C716 C719 1.387 . S
H717 C713 0.950 . S
H718 C715 0.950 . S
C719 C710 1.390 . S
C719 H712 0.950 . S
C719 C716 1.387 . S
C481 C255 2.741 . S
C486 C343 3.049 1_545 S
C496 C383 1.772 . S
C491 C295 1.709 . S
C506 C402 3.113 . S
C501 C175 2.797 . S
C516 C463 2.349 . S
C511 C215 2.080 . S
C526 C322 3.050 1_564 S
C521 C95 2.749 1_565 S
C531 C135 1.704 . S
C536 C362 1.776 . S
C541 C15 2.793 . S
C546 C423 3.114 1_554 S
C551 C55 2.079 . S
C556 C442 2.343 1_654 S
C566 C324 1.023 . S
C561 C221 1.109 . S
C576 C364 0.625 . S
C571 C261 0.574 . S
C586 C420 1.890 . S
C581 C301 1.654 . S
C591 C181 0.784 . S
C596 C444 0.769 . S
C601 C61 1.007 1_455 S
C606 C345 1.021 . S
C616 C385 0.633 . S
C611 C101 0.676 1_565 S
C626 C431 1.891 . S
C621 C141 1.471 . S
C631 C21 0.769 . S
C636 C465 0.777 . S
C641 C202 2.850 . S
C646 C340 3.228 . S
C651 C242 3.495 . S
C656 C380 3.883 . S
C666 C404 2.216 . S
C661 C282 2.173 . S
C676 C460 3.880 . S
C671 C162 3.504 . S
C681 C42 2.872 . S
C686 C351 3.239 . S
C696 C391 3.883 . S
C691 C82 3.506 1_565 S
C706 C425 2.215 . S
C701 C122 2.199 . S
C711 C2 3.493 . S
C716 C471 3.880 . S
