# Generated by pormake.
# Topology fgl, (4,4)-cn, num edge types: 1
# Building blocks:
#     Node 0, Type 0, BuildingBlock: ESEHIV_clean_sbu_0, # of connection points: 4
#     Node 1, Type 0, BuildingBlock: ESEHIV_clean_sbu_0, # of connection points: 4
#     Node 2, Type 0, BuildingBlock: ESEHIV_clean_sbu_0, # of connection points: 4
#     Node 3, Type 0, BuildingBlock: ESEHIV_clean_sbu_0, # of connection points: 4
#     Node 4, Type 0, BuildingBlock: ESEHIV_clean_sbu_0, # of connection points: 4
#     Node 5, Type 0, BuildingBlock: ESEHIV_clean_sbu_0, # of connection points: 4
#     Node 6, Type 0, BuildingBlock: ESEHIV_clean_sbu_0, # of connection points: 4
#     Node 7, Type 0, BuildingBlock: ESEHIV_clean_sbu_0, # of connection points: 4
#     Node 8, Type 0, BuildingBlock: ESEHIV_clean_sbu_0, # of connection points: 4
#     Node 9, Type 0, BuildingBlock: ESEHIV_clean_sbu_0, # of connection points: 4
#     Node 10, Type 0, BuildingBlock: ESEHIV_clean_sbu_0, # of connection points: 4
#     Node 11, Type 0, BuildingBlock: ESEHIV_clean_sbu_0, # of connection points: 4
#     Node 12, Type 0, BuildingBlock: ESEHIV_clean_sbu_0, # of connection points: 4
#     Node 13, Type 0, BuildingBlock: ESEHIV_clean_sbu_0, # of connection points: 4
#     Node 14, Type 0, BuildingBlock: ESEHIV_clean_sbu_0, # of connection points: 4
#     Node 15, Type 0, BuildingBlock: ESEHIV_clean_sbu_0, # of connection points: 4
#     Node 16, Type 0, BuildingBlock: ESEHIV_clean_sbu_0, # of connection points: 4
#     Node 17, Type 0, BuildingBlock: ESEHIV_clean_sbu_0, # of connection points: 4
#     Node 18, Type 1, BuildingBlock: CEKHIL_clean_sbu_0, # of connection points: 4
#     Node 19, Type 1, BuildingBlock: CEKHIL_clean_sbu_0, # of connection points: 4
#     Node 20, Type 1, BuildingBlock: CEKHIL_clean_sbu_0, # of connection points: 4
#     Node 21, Type 1, BuildingBlock: CEKHIL_clean_sbu_0, # of connection points: 4
#     Node 22, Type 1, BuildingBlock: CEKHIL_clean_sbu_0, # of connection points: 4
#     Node 23, Type 1, BuildingBlock: CEKHIL_clean_sbu_0, # of connection points: 4
#     Node 24, Type 1, BuildingBlock: CEKHIL_clean_sbu_0, # of connection points: 4
#     Node 25, Type 1, BuildingBlock: CEKHIL_clean_sbu_0, # of connection points: 4
#     Node 26, Type 1, BuildingBlock: CEKHIL_clean_sbu_0, # of connection points: 4
#     Node 27, Type 1, BuildingBlock: CEKHIL_clean_sbu_0, # of connection points: 4
#     Node 28, Type 1, BuildingBlock: CEKHIL_clean_sbu_0, # of connection points: 4
#     Node 29, Type 1, BuildingBlock: CEKHIL_clean_sbu_0, # of connection points: 4
#     Node 30, Type 1, BuildingBlock: CEKHIL_clean_sbu_0, # of connection points: 4
#     Node 31, Type 1, BuildingBlock: CEKHIL_clean_sbu_0, # of connection points: 4
#     Node 32, Type 1, BuildingBlock: CEKHIL_clean_sbu_0, # of connection points: 4
#     Node 33, Type 1, BuildingBlock: CEKHIL_clean_sbu_0, # of connection points: 4
#     Node 34, Type 1, BuildingBlock: CEKHIL_clean_sbu_0, # of connection points: 4
#     Node 35, Type 1, BuildingBlock: CEKHIL_clean_sbu_0, # of connection points: 4
#     Edge 36, Type (0, 1), BuildingBlock: CIFDUS_clean_linker_0, # of connection points: 2
#     Edge 37, Type (0, 1), BuildingBlock: CIFDUS_clean_linker_0, # of connection points: 2
#     Edge 38, Type (0, 1), BuildingBlock: CIFDUS_clean_linker_0, # of connection points: 2
#     Edge 39, Type (0, 1), BuildingBlock: CIFDUS_clean_linker_0, # of connection points: 2
#     Edge 40, Type (0, 1), BuildingBlock: CIFDUS_clean_linker_0, # of connection points: 2
#     Edge 41, Type (0, 1), BuildingBlock: CIFDUS_clean_linker_0, # of connection points: 2
#     Edge 42, Type (0, 1), BuildingBlock: CIFDUS_clean_linker_0, # of connection points: 2
#     Edge 43, Type (0, 1), BuildingBlock: CIFDUS_clean_linker_0, # of connection points: 2
#     Edge 44, Type (0, 1), BuildingBlock: CIFDUS_clean_linker_0, # of connection points: 2
#     Edge 45, Type (0, 1), BuildingBlock: CIFDUS_clean_linker_0, # of connection points: 2
#     Edge 46, Type (0, 1), BuildingBlock: CIFDUS_clean_linker_0, # of connection points: 2
#     Edge 47, Type (0, 1), BuildingBlock: CIFDUS_clean_linker_0, # of connection points: 2
#     Edge 48, Type (0, 1), BuildingBlock: CIFDUS_clean_linker_0, # of connection points: 2
#     Edge 49, Type (0, 1), BuildingBlock: CIFDUS_clean_linker_0, # of connection points: 2
#     Edge 50, Type (0, 1), BuildingBlock: CIFDUS_clean_linker_0, # of connection points: 2
#     Edge 51, Type (0, 1), BuildingBlock: CIFDUS_clean_linker_0, # of connection points: 2
#     Edge 52, Type (0, 1), BuildingBlock: CIFDUS_clean_linker_0, # of connection points: 2
#     Edge 53, Type (0, 1), BuildingBlock: CIFDUS_clean_linker_0, # of connection points: 2
#     Edge 54, Type (0, 1), BuildingBlock: CIFDUS_clean_linker_0, # of connection points: 2
#     Edge 55, Type (0, 1), BuildingBlock: CIFDUS_clean_linker_0, # of connection points: 2
#     Edge 56, Type (0, 1), BuildingBlock: CIFDUS_clean_linker_0, # of connection points: 2
#     Edge 57, Type (0, 1), BuildingBlock: CIFDUS_clean_linker_0, # of connection points: 2
#     Edge 58, Type (0, 1), BuildingBlock: CIFDUS_clean_linker_0, # of connection points: 2
#     Edge 59, Type (0, 1), BuildingBlock: CIFDUS_clean_linker_0, # of connection points: 2
#     Edge 60, Type (0, 1), BuildingBlock: CIFDUS_clean_linker_0, # of connection points: 2
#     Edge 61, Type (0, 1), BuildingBlock: CIFDUS_clean_linker_0, # of connection points: 2
#     Edge 62, Type (0, 1), BuildingBlock: CIFDUS_clean_linker_0, # of connection points: 2
#     Edge 63, Type (0, 1), BuildingBlock: CIFDUS_clean_linker_0, # of connection points: 2
#     Edge 64, Type (0, 1), BuildingBlock: CIFDUS_clean_linker_0, # of connection points: 2
#     Edge 65, Type (0, 1), BuildingBlock: CIFDUS_clean_linker_0, # of connection points: 2
#     Edge 66, Type (0, 1), BuildingBlock: CIFDUS_clean_linker_0, # of connection points: 2
#     Edge 67, Type (0, 1), BuildingBlock: CIFDUS_clean_linker_0, # of connection points: 2
#     Edge 68, Type (0, 1), BuildingBlock: CIFDUS_clean_linker_0, # of connection points: 2
#     Edge 69, Type (0, 1), BuildingBlock: CIFDUS_clean_linker_0, # of connection points: 2
#     Edge 70, Type (0, 1), BuildingBlock: CIFDUS_clean_linker_0, # of connection points: 2
#     Edge 71, Type (0, 1), BuildingBlock: CIFDUS_clean_linker_0, # of connection points: 2
#     Edge 72, Type (0, 1), BuildingBlock: CIFDUS_clean_linker_0, # of connection points: 2
#     Edge 73, Type (0, 1), BuildingBlock: CIFDUS_clean_linker_0, # of connection points: 2
#     Edge 74, Type (0, 1), BuildingBlock: CIFDUS_clean_linker_0, # of connection points: 2
#     Edge 75, Type (0, 1), BuildingBlock: CIFDUS_clean_linker_0, # of connection points: 2
#     Edge 76, Type (0, 1), BuildingBlock: CIFDUS_clean_linker_0, # of connection points: 2
#     Edge 77, Type (0, 1), BuildingBlock: CIFDUS_clean_linker_0, # of connection points: 2
#     Edge 78, Type (0, 1), BuildingBlock: CIFDUS_clean_linker_0, # of connection points: 2
#     Edge 79, Type (0, 1), BuildingBlock: CIFDUS_clean_linker_0, # of connection points: 2
#     Edge 80, Type (0, 1), BuildingBlock: CIFDUS_clean_linker_0, # of connection points: 2
#     Edge 81, Type (0, 1), BuildingBlock: CIFDUS_clean_linker_0, # of connection points: 2
#     Edge 82, Type (0, 1), BuildingBlock: CIFDUS_clean_linker_0, # of connection points: 2
#     Edge 83, Type (0, 1), BuildingBlock: CIFDUS_clean_linker_0, # of connection points: 2
#     Edge 84, Type (0, 1), BuildingBlock: CIFDUS_clean_linker_0, # of connection points: 2
#     Edge 85, Type (0, 1), BuildingBlock: CIFDUS_clean_linker_0, # of connection points: 2
#     Edge 86, Type (0, 1), BuildingBlock: CIFDUS_clean_linker_0, # of connection points: 2
#     Edge 87, Type (0, 1), BuildingBlock: CIFDUS_clean_linker_0, # of connection points: 2
#     Edge 88, Type (0, 1), BuildingBlock: CIFDUS_clean_linker_0, # of connection points: 2
#     Edge 89, Type (0, 1), BuildingBlock: CIFDUS_clean_linker_0, # of connection points: 2
#     Edge 90, Type (0, 1), BuildingBlock: CIFDUS_clean_linker_0, # of connection points: 2
#     Edge 91, Type (0, 1), BuildingBlock: CIFDUS_clean_linker_0, # of connection points: 2
#     Edge 92, Type (0, 1), BuildingBlock: CIFDUS_clean_linker_0, # of connection points: 2
#     Edge 93, Type (0, 1), BuildingBlock: CIFDUS_clean_linker_0, # of connection points: 2
#     Edge 94, Type (0, 1), BuildingBlock: CIFDUS_clean_linker_0, # of connection points: 2
#     Edge 95, Type (0, 1), BuildingBlock: CIFDUS_clean_linker_0, # of connection points: 2
#     Edge 96, Type (0, 1), BuildingBlock: CIFDUS_clean_linker_0, # of connection points: 2
#     Edge 97, Type (0, 1), BuildingBlock: CIFDUS_clean_linker_0, # of connection points: 2
#     Edge 98, Type (0, 1), BuildingBlock: CIFDUS_clean_linker_0, # of connection points: 2
#     Edge 99, Type (0, 1), BuildingBlock: CIFDUS_clean_linker_0, # of connection points: 2
#     Edge 100, Type (0, 1), BuildingBlock: CIFDUS_clean_linker_0, # of connection points: 2
#     Edge 101, Type (0, 1), BuildingBlock: CIFDUS_clean_linker_0, # of connection points: 2
#     Edge 102, Type (0, 1), BuildingBlock: CIFDUS_clean_linker_0, # of connection points: 2
#     Edge 103, Type (0, 1), BuildingBlock: CIFDUS_clean_linker_0, # of connection points: 2
#     Edge 104, Type (0, 1), BuildingBlock: CIFDUS_clean_linker_0, # of connection points: 2
#     Edge 105, Type (0, 1), BuildingBlock: CIFDUS_clean_linker_0, # of connection points: 2
#     Edge 106, Type (0, 1), BuildingBlock: CIFDUS_clean_linker_0, # of connection points: 2
#     Edge 107, Type (0, 1), BuildingBlock: CIFDUS_clean_linker_0, # of connection points: 2
# Relax obj value: 0.018
# Max RMSD: 0.136
# Mean RMSD: 0.076
data_MOF--net-fgl--node1-ESEHIV_clean_sbu_0--node2-CEKHIL_clean_sbu_0--edge1-CIFDUS_clean_linker_0
_symmetry_space_group_name_H-M    P1
_symmetry_Int_Tables_number       1
_symmetry_cell_setting            triclinic
loop_
_symmetry_equiv_pos_as_xyz
'x, y, z'
_cell_length_a     66.518572
_cell_length_b     65.947016
_cell_length_c     44.909221
_cell_angle_alpha  90.68146
_cell_angle_beta   90.920323
_cell_angle_gamma 119.87527
loop_
_atom_site_label
_atom_site_type_symbol
_atom_site_fract_x
_atom_site_fract_y
_atom_site_fract_z
_atom_type_partial_charge
Cu0 Cu 0.02463 0.54606 0.02515 0.0
N1 N 1.00723 0.54642 0.05788 0.0
N2 N 1.00074 0.56343 0.09743 0.0
C3 C 0.01657 0.56394 0.07851 0.0
C4 C 0.98054 0.54438 0.08861 0.0
C5 C 0.98455 0.534 0.06409 0.0
O6 O 0.0379 0.57779 1.0105 0.0
C7 C 0.0391 0.52093 0.05887 0.0
O8 O 0.01821 0.51316 0.06915 0.0
H9 H 0.03466 0.57736 0.07875 0.0
H10 H 0.9717 0.51923 0.05092 0.0
N11 N 1.00911 0.52535 0.99251 0.0
N12 N 1.00756 0.50322 0.95296 0.0
C13 C 0.01538 0.51019 0.98135 0.0
C14 C 0.99671 0.52784 0.97028 0.0
C15 C 0.99567 0.51421 0.946 0.0
C16 C 0.02312 0.58474 1.00895 0.0
O17 O 1.0013 0.57007 0.01443 0.0
H18 H 0.02717 0.50594 0.99287 0.0
H19 H 0.99039 0.54009 0.97067 0.0
O20 O 0.04673 0.5371 0.03979 0.0
H21 H 0.96383 0.53898 0.09816 0.0
H22 H 0.98755 0.51318 0.92452 0.0
Cu23 Cu 0.53363 0.55722 0.02864 0.0
N24 N 0.54083 0.56864 0.98739 0.0
N25 N 0.55889 0.58276 0.94409 0.0
C26 C 0.55941 0.57331 0.97068 0.0
C27 C 0.53911 0.58386 0.94439 0.0
C28 C 0.52814 0.57522 0.97086 0.0
O29 O 0.55693 0.59053 0.04499 0.0
C30 C 0.50313 0.50422 0.02181 0.0
O31 O 0.51485 0.50241 0.04443 0.0
H32 H 0.57307 0.57001 0.97795 0.0
H33 H 0.51228 0.57437 0.97795 0.0
N34 N 0.52659 0.54624 0.06997 0.0
N35 N 0.50847 0.52986 0.1123 0.0
C36 C 0.50614 0.53609 0.08426 0.0
C37 C 0.54226 0.54675 0.08966 0.0
C38 C 0.53123 0.53674 0.11561 0.0
C39 C 0.57899 0.60076 0.04305 0.0
O40 O 0.58843 0.58941 0.03086 0.0
H41 H 0.48988 0.53269 0.07405 0.0
H42 H 0.56045 0.55373 0.08528 0.0
O43 O 0.50869 0.52449 1.01195 0.0
H44 H 0.53324 0.5912 0.92721 0.0
H45 H 0.53947 0.53482 0.1355 0.0
Cu46 Cu 0.5187 0.04029 0.02539 0.0
N47 N 0.50476 0.02494 0.98929 0.0
N48 N 0.48987 0.02152 0.9433 0.0
C49 C 0.49685 0.03422 0.96898 0.0
C50 C 0.49315 1.00316 0.9478 0.0
C51 C 0.50251 1.00539 0.97622 0.0
O52 O 0.49786 0.05006 0.04317 0.0
C53 C 0.56198 0.06545 0.99579 0.0
O54 O 0.55039 0.05241 0.97249 0.0
H55 H 0.49685 0.05045 0.97286 0.0
H56 H 0.50822 0.99417 0.98601 0.0
N57 N 0.52312 0.02174 0.05252 0.0
N58 N 0.5412 0.01587 0.09087 0.0
C59 C 0.5385 0.03165 0.07523 0.0
C60 C 0.51556 0.99867 0.0537 0.0
C61 C 0.52682 0.99499 0.07743 0.0
C62 C 0.47974 0.03438 0.05579 0.0
O63 O 0.47662 0.01312 0.05727 0.0
H64 H 0.54841 0.05038 0.0792 0.0
H65 H 0.50322 0.98556 0.03817 0.0
O66 O 0.55092 0.06509 0.019 0.0
H67 H 0.49005 0.98974 0.93131 0.0
H68 H 0.52482 0.97835 0.08398 0.0
Cu69 Cu 0.52978 0.04603 0.50511 0.0
N70 N 0.52924 0.03165 0.46869 0.0
N71 N 0.54407 0.02583 0.42702 0.0
C72 C 0.54846 0.03835 0.45273 0.0
C73 C 0.52097 0.01055 0.42697 0.0
C74 C 0.5119 0.01417 0.45268 0.0
O75 O 0.5609 0.05431 0.52184 0.0
C76 C 0.49986 0.06228 0.48792 0.0
O77 O 0.48668 0.03961 0.4837 0.0
H78 H 0.56541 0.05212 0.46018 0.0
H79 H 0.49395 1.00484 0.45906 0.0
N80 N 0.50767 0.02639 0.53228 0.0
N81 N 0.48637 0.01759 0.57333 0.0
C82 C 0.50355 0.0346 0.55766 0.0
C83 C 0.49249 1.00326 0.53155 0.0
C84 C 0.47931 0.99777 0.55688 0.0
C85 C 0.5629 0.03683 0.53028 0.0
O86 O 0.54418 0.01609 0.52998 0.0
H87 H 0.5127 0.05297 0.56397 0.0
H88 H 0.491 0.99128 0.51387 0.0
O89 O 0.52093 0.0703 0.49714 0.0
H90 H 0.51113 0.99787 0.40945 0.0
H91 H 0.46571 0.98052 0.56269 0.0
Cu92 Cu 0.04001 0.56098 0.54494 0.0
N93 N 0.05711 0.55334 0.57253 0.0
N94 N 0.06036 0.53095 0.60818 0.0
C95 C 0.04636 0.53755 0.59409 0.0
C96 C 0.081 0.54348 0.59484 0.0
C97 C 0.07891 0.55705 0.57287 0.0
O98 O 0.01626 0.52954 0.53168 0.0
C99 C 0.04799 0.60298 0.56694 0.0
O100 O 0.06876 0.60706 0.55993 0.0
H101 H 0.02814 0.53039 0.59839 0.0
H102 H 0.09203 0.56784 0.55731 0.0
N103 N 0.05348 0.57772 0.50973 0.0
N104 N 0.0547 0.59779 0.46873 0.0
C105 C 0.04161 0.58417 0.49102 0.0
C106 C 0.07501 0.58758 0.49894 0.0
C107 C 0.07577 0.59983 0.47367 0.0
C108 C 0.02417 0.52037 0.5134 0.0
O109 O 0.04516 0.53341 0.50342 0.0
H110 H 0.02364 0.5791 0.49415 0.0
H111 H 0.08929 0.58652 0.50911 0.0
O112 O 0.03105 0.58193 0.56479 0.0
H113 H 0.09632 0.54218 0.59946 0.0
H114 H 0.09096 0.61005 0.46059 0.0
Cu115 Cu 0.52909 0.57805 0.54036 0.0
N116 N 0.54845 0.60769 0.52522 0.0
N117 N 0.57951 0.63547 0.5023 0.0
C118 C 0.56446 0.61228 0.50446 0.0
C119 C 0.57218 0.64576 0.52225 0.0
C120 C 0.55313 0.62862 0.53637 0.0
O121 O 0.54499 0.57516 0.57588 0.0
C122 C 0.51012 0.55926 0.48568 0.0
O123 O 0.50877 0.57846 0.48712 0.0
H124 H 0.56578 0.59862 0.49267 0.0
H125 H 0.54444 0.63121 0.55492 0.0
N126 N 0.50111 0.57454 0.55352 0.0
N127 N 0.46374 0.55461 0.56542 0.0
C128 C 0.48088 0.55441 0.55004 0.0
C129 C 0.49675 0.5881 0.57187 0.0
C130 C 0.47363 0.57582 0.57926 0.0
C131 C 0.56698 0.58437 0.57811 0.0
O132 O 0.57919 0.59165 0.5539 0.0
H133 H 0.47922 0.53924 0.53821 0.0
H134 H 0.50966 0.60509 0.58064 0.0
O135 O 0.52001 0.55503 0.50746 0.0
H136 H 0.58088 0.66422 0.52801 0.0
H137 H 0.46505 0.58168 0.59453 0.0
Cu138 Cu 0.7068 0.89672 0.34603 0.0
N139 N 0.72183 0.92721 0.33215 0.0
N140 N 0.72626 0.96228 0.32219 0.0
C141 C 0.71174 0.9405 0.33149 0.0
C142 C 0.74635 0.9627 0.31659 0.0
C143 C 0.74363 0.94103 0.32304 0.0
O144 O 0.69042 0.89943 0.38172 0.0
C145 C 0.70177 0.87721 0.28792 0.0
O146 O 0.72304 0.89493 0.28721 0.0
H147 H 0.69392 0.93415 0.33751 0.0
H148 H 0.75661 0.93579 0.32133 0.0
N149 N 0.72774 0.88736 0.35858 0.0
N150 N 0.74078 0.86251 0.36647 0.0
C151 C 0.72275 0.86496 0.35725 0.0
C152 C 0.74982 0.89968 0.36893 0.0
C153 C 0.75787 0.88431 0.37405 0.0
C154 C 0.70404 0.91468 0.40136 0.0
O155 O 0.72645 0.9249 0.39713 0.0
H156 H 0.70607 0.85069 0.34969 0.0
H157 H 0.75947 0.91847 0.37219 0.0
O158 O 0.69002 0.87487 0.31145 0.0
H159 H 0.76191 0.97761 0.30866 0.0
H160 H 0.77508 0.88886 0.38206 0.0
Cu161 Cu 0.19455 0.89491 0.37061 0.0
N162 N 0.16426 0.88055 0.35445 0.0
N163 N 0.13195 0.85113 0.33328 0.0
C164 C 0.15255 0.85759 0.34688 0.0
C165 C 0.13056 0.87087 0.3323 0.0
C166 C 0.15047 0.88899 0.3456 0.0
O167 O 0.19027 0.87121 0.40045 0.0
C168 C 0.21246 0.91561 0.31797 0.0
O169 O 0.19906 0.92392 0.32622 0.0
H170 H 0.15955 0.84604 0.35011 0.0
H171 H 0.15483 0.90709 0.34779 0.0
N172 N 0.20466 0.92428 0.38946 0.0
N173 N 0.22872 0.96038 0.40823 0.0
C174 C 0.22694 0.94172 0.39294 0.0
C175 C 0.1919 0.93226 0.40273 0.0
C176 C 0.20664 0.95441 0.41439 0.0
C177 C 0.18968 0.87463 0.4285 0.0
O178 O 0.1992 0.89618 0.43905 0.0
H179 H 0.24158 0.94048 0.38503 0.0
H180 H 0.17321 0.92252 0.40417 0.0
O181 O 0.21444 0.90139 0.3354 0.0
H182 H 0.11636 0.8722 0.32228 0.0
H183 H 0.20145 0.96529 0.42645 0.0
Cu184 Cu 0.19862 0.38593 0.36948 0.0
N185 N 0.18305 0.36817 0.33541 0.0
N186 N 0.16191 0.35906 0.29303 0.0
C187 C 0.16706 0.37059 0.3196 0.0
C188 C 0.17524 0.34894 0.29215 0.0
C189 C 0.18834 0.35468 0.31828 0.0
O190 O 0.177 0.3947 0.38764 0.0
C191 C 0.2472 0.42328 0.3702 0.0
O192 O 0.24533 0.42619 0.39877 0.0
H193 H 0.16067 0.38208 0.32655 0.0
H194 H 0.20175 0.35049 0.3236 0.0
N195 N 0.20438 0.36801 0.39673 0.0
N196 N 0.21829 0.35892 0.43703 0.0
C197 C 0.21545 0.37551 0.42339 0.0
C198 C 0.19955 0.34571 0.39361 0.0
C199 C 0.20813 0.34007 0.41835 0.0
C200 C 0.15901 0.37741 0.39848 0.0
O201 O 0.15748 0.35676 0.3975 0.0
H202 H 0.22179 0.39299 0.43226 0.0
H203 H 0.19064 0.33439 0.37457 0.0
O204 O 0.229 0.4097 0.35472 0.0
H205 H 0.17616 0.33889 0.27353 0.0
H206 H 0.20705 0.32338 0.42208 0.0
Cu207 Cu 0.20197 0.37777 0.88447 0.0
N208 N 0.22578 0.39775 0.85976 0.0
N209 N 0.24784 0.40688 0.81943 0.0
C210 C 0.22683 0.39269 0.83091 0.0
C211 C 0.26034 0.42186 0.84206 0.0
C212 C 0.24673 0.4161 0.86692 0.0
O213 O 0.21236 0.3562 0.8998 0.0
C214 C 0.15339 0.36231 0.87063 0.0
O215 O 0.15005 0.3576 0.89902 0.0
H216 H 0.21295 0.37751 0.81948 0.0
H217 H 0.25218 0.42379 0.88905 0.0
N218 N 0.19976 0.39379 0.91793 0.0
N219 N 0.18527 0.39893 0.96027 0.0
C220 C 0.18736 0.38356 0.94224 0.0
C221 C 0.20623 0.41657 0.92096 0.0
C222 C 0.19741 0.41981 0.9471 0.0
C223 C 0.22294 0.34824 0.88417 0.0
O224 O 0.22181 0.34906 0.85503 0.0
H225 H 0.1789 0.36491 0.9457 0.0
H226 H 0.21545 0.42961 0.90445 0.0
O227 O 0.17311 0.36763 0.85996 0.0
H228 H 0.27834 0.43541 0.84127 0.0
H229 H 0.19846 0.43596 0.95468 0.0
Cu230 Cu 0.71571 0.89513 0.84419 0.0
N231 N 0.73024 0.87976 0.82741 0.0
N232 N 0.73227 0.8493 0.80836 0.0
C233 C 0.72283 0.85669 0.82924 0.0
C234 C 0.7463 0.86849 0.7929 0.0
C235 C 0.74495 0.8872 0.80462 0.0
O236 O 0.70549 0.88111 0.88434 0.0
C237 C 0.69258 0.91214 0.8028 0.0
O238 O 0.69456 0.92713 0.82368 0.0
H239 H 0.7091 0.8451 0.84357 0.0
H240 H 0.75255 0.9045 0.79545 0.0
N241 N 0.73718 0.92661 0.85324 0.0
N242 N 0.75058 0.96337 0.86967 0.0
C243 C 0.73196 0.94179 0.86653 0.0
C244 C 0.76014 0.93896 0.84858 0.0
C245 C 0.76849 0.96169 0.85882 0.0
C246 C 0.691 0.86074 0.89362 0.0
O247 O 0.67585 0.84496 0.87474 0.0
H248 H 0.71485 0.93707 0.87415 0.0
H249 H 0.77016 0.93201 0.83852 0.0
O250 O 0.69643 0.8955 0.80959 0.0
H251 H 0.75572 0.8687 0.77337 0.0
H252 H 0.78621 0.97594 0.858 0.0
Cu253 Cu 0.19115 0.8935 0.85848 0.0
N254 N 0.17245 0.89734 0.83009 0.0
N255 N 0.1508 0.88798 0.78804 0.0
C256 C 0.16282 0.88205 0.80704 0.0
C257 C 0.15303 0.90804 0.79963 0.0
C258 C 0.16633 0.91372 0.82576 0.0
O259 O 0.17262 0.86019 0.86689 0.0
C260 C 0.23085 0.92693 0.83471 0.0
O261 O 0.2194 0.93775 0.84149 0.0
H262 H 0.16528 0.86714 0.80387 0.0
H263 H 0.17147 0.92886 0.84017 0.0
N264 N 0.19707 0.91034 0.89473 0.0
N265 N 0.2146 0.92531 0.93899 0.0
C266 C 0.21488 0.91456 0.91339 0.0
C267 C 0.18521 0.91905 0.90891 0.0
C268 C 0.19593 0.92817 0.93636 0.0
C269 C 0.15356 0.85509 0.87932 0.0
O270 O 0.14991 0.87223 0.88699 0.0
H271 H 0.22767 0.9095 0.90839 0.0
H272 H 0.16975 0.91857 0.90011 0.0
O273 O 0.22145 0.90516 0.84027 0.0
H274 H 0.14564 0.9179 0.78996 0.0
H275 H 0.19071 0.93665 0.95282 0.0
Cu276 Cu 0.37765 0.22887 0.70987 0.0
N277 N 0.39085 0.25981 0.69737 0.0
N278 N 0.39187 0.2934 0.687 0.0
C279 C 0.37886 0.27128 0.69625 0.0
C280 C 0.41297 0.29597 0.68195 0.0
C281 C 0.41235 0.27523 0.68863 0.0
O282 O 0.36046 0.22848 0.74594 0.0
C283 C 0.37529 0.21179 0.65238 0.0
O284 O 0.39678 0.22912 0.65459 0.0
H285 H 0.36073 0.26331 0.70167 0.0
H286 H 0.4265 0.27165 0.68707 0.0
N287 N 0.39915 0.21998 0.72162 0.0
N288 N 0.41196 0.19518 0.73182 0.0
C289 C 0.39398 0.19748 0.7219 0.0
C290 C 0.42127 0.23253 0.73162 0.0
C291 C 0.42921 0.21723 0.73807 0.0
C292 C 0.3734 0.24459 0.76503 0.0
O293 O 0.39554 0.25752 0.75943 0.0
H294 H 0.37706 0.18301 0.71556 0.0
H295 H 0.43087 0.25137 0.7343 0.0
O296 O 0.36201 0.20832 0.6745 0.0
H297 H 0.42778 0.31169 0.67412 0.0
H298 H 0.44635 0.22199 0.74659 0.0
Cu299 Cu 0.86391 0.20833 0.67244 0.0
N300 N 0.86258 0.22431 0.63882 0.0
N301 N 0.87488 0.24698 0.59869 0.0
C302 C 0.88098 0.23859 0.62241 0.0
C303 C 0.85162 0.23746 0.60033 0.0
C304 C 0.84411 0.22345 0.62496 0.0
O305 O 0.89657 0.2274 0.68682 0.0
C306 C 0.82869 0.16193 0.65983 0.0
O307 O 0.81616 0.17138 0.66748 0.0
H308 H 0.89855 0.2428 0.62794 0.0
H309 H 0.8264 0.21313 0.63203 0.0
N310 N 0.84523 0.20827 0.70357 0.0
N311 N 0.82511 0.19716 0.7456 0.0
C312 C 0.84114 0.19595 0.72872 0.0
C313 C 0.83147 0.21783 0.70468 0.0
C314 C 0.81903 0.21098 0.73053 0.0
C315 C 0.90139 0.24747 0.69756 0.0
O316 O 0.88466 0.25249 0.69908 0.0
H317 H 0.849 0.18539 0.73379 0.0
H318 H 0.83012 0.22849 0.68753 0.0
O319 O 0.85088 0.17489 0.66006 0.0
H320 H 0.84066 0.24001 0.58454 0.0
H321 H 0.80633 0.21563 0.73752 0.0
Cu322 Cu 0.86254 0.69684 0.66806 0.0
N323 N 0.84334 0.67878 0.63618 0.0
N324 N 0.8181 0.6698 0.59795 0.0
C325 C 0.82631 0.68163 0.62414 0.0
C326 C 0.83049 0.65893 0.5934 0.0
C327 C 0.8461 0.66456 0.61701 0.0
O328 O 0.84391 0.70607 0.69224 0.0
C329 C 0.90994 0.73592 0.6633 0.0
O330 O 0.90912 0.74099 0.69146 0.0
H331 H 0.82135 0.69369 0.63324 0.0
H332 H 0.85946 0.65984 0.61906 0.0
N333 N 0.87054 0.67928 0.69263 0.0
N334 N 0.88855 0.67188 0.72979 0.0
C335 C 0.88413 0.68779 0.71731 0.0
C336 C 0.86589 0.65704 0.68942 0.0
C337 C 0.87703 0.65242 0.71231 0.0
C338 C 0.83867 0.72169 0.68616 0.0
O339 O 0.84877 0.73556 0.66381 0.0
H340 H 0.89115 0.70559 0.72545 0.0
H341 H 0.85544 0.64513 0.67154 0.0
O342 O 0.89154 0.72021 0.65001 0.0
H343 H 0.82914 0.64854 0.57384 0.0
H344 H 0.87671 0.63605 0.7157 0.0
Cu345 Cu 0.85272 0.70829 0.16222 0.0
N346 N 0.85662 0.69657 0.1256 0.0
N347 N 0.87581 0.69255 0.08723 0.0
C348 C 0.87735 0.70454 0.11266 0.0
C349 C 0.85307 0.67635 0.08413 0.0
C350 C 0.84132 0.67885 0.10777 0.0
O351 O 0.88207 0.71757 0.18463 0.0
C352 C 0.82965 0.73114 0.13501 0.0
O353 O 0.82714 0.71781 0.1117 0.0
H354 H 0.89336 0.7186 0.12222 0.0
H355 H 0.82295 0.66845 0.1116 0.0
N356 N 0.82954 0.68639 0.18621 0.0
N357 N 0.80955 0.67541 0.2283 0.0
C358 C 0.82889 0.69158 0.21507 0.0
C359 C 0.80975 0.66611 0.18061 0.0
C360 C 0.79735 0.65927 0.20664 0.0
C361 C 0.88431 0.70081 0.19534 0.0
O362 O 0.86693 0.67932 0.19194 0.0
H363 H 0.8419 0.70781 0.22561 0.0
H364 H 0.80424 0.65742 0.15903 0.0
O365 O 0.84238 0.73168 0.15714 0.0
H366 H 0.84534 0.66371 0.06593 0.0
H367 H 0.78046 0.64397 0.20915 0.0
Cu368 Cu 0.36584 0.23177 0.21684 0.0
N369 N 0.34491 0.20064 0.20531 0.0
N370 N 0.33307 0.16291 0.19565 0.0
C371 C 0.35037 0.18351 0.20649 0.0
C372 C 0.31594 0.16714 0.18732 0.0
C373 C 0.32321 0.19039 0.19353 0.0
O374 O 0.38426 0.22775 0.24957 0.0
C375 C 0.36442 0.25133 0.16289 0.0
O376 O 0.34268 0.24008 0.17077 0.0
H377 H 0.36705 0.1863 0.21435 0.0
H378 H 0.3134 0.19914 0.18934 0.0
N379 N 0.35194 0.24776 0.23389 0.0
N380 N 0.34975 0.27904 0.24921 0.0
C381 C 0.36383 0.27074 0.24123 0.0
C382 C 0.32947 0.24117 0.23751 0.0
C383 C 0.32807 0.26047 0.24691 0.0
C384 C 0.37193 0.2174 0.2722 0.0
O385 O 0.35025 0.21262 0.27165 0.0
H386 H 0.38244 0.2814 0.23932 0.0
H387 H 0.31509 0.2238 0.23275 0.0
O388 O 0.37947 0.24985 0.17973 0.0
H389 H 0.29939 0.15434 0.17742 0.0
H390 H 0.31232 0.26085 0.2514 0.0
Cu391 Cu 0.85922 0.23206 0.18592 0.0
N392 N 0.85325 0.20756 0.1595 0.0
N393 N 0.83583 0.18223 0.12134 0.0
C394 C 0.83818 0.20123 0.13621 0.0
C395 C 0.85012 0.17644 0.136 0.0
C396 C 0.86082 0.19208 0.15958 0.0
O397 O 0.82804 0.22587 0.19565 0.0
C398 C 0.89799 0.2633 0.1555 0.0
O399 O 0.90031 0.24465 0.15491 0.0
H400 H 0.82856 0.21004 0.13096 0.0
H401 H 0.873 0.19203 0.17577 0.0
N402 N 0.87552 0.23292 0.22073 0.0
N403 N 0.89701 0.25011 0.2621 0.0
C404 C 0.88988 0.25322 0.23506 0.0
C405 C 0.87369 0.21607 0.23897 0.0
C406 C 0.88702 0.22665 0.26454 0.0
C407 C 0.82021 0.22224 0.22198 0.0
O408 O 0.83485 0.22863 0.24477 0.0
H409 H 0.89423 0.26999 0.226 0.0
H410 H 0.86248 0.19751 0.23477 0.0
O411 O 0.8797 0.26165 0.16671 0.0
H412 H 0.85269 0.16193 0.13021 0.0
H413 H 0.88816 0.21771 0.28399 0.0
Co414 Co 0.0201 0.66612 0.28119 0.0
O415 O 0.04115 0.65691 0.29822 0.0
O416 O 0.01466 0.65937 0.32399 0.0
C417 C 1.01004 0.64162 0.24033 0.0
O418 O 0.99466 0.67443 0.26982 0.0
Co419 Co 0.03197 0.6907 0.22092 0.0
O420 O 1.00183 0.68946 0.22381 0.0
C421 C 0.05511 0.71869 0.27521 0.0
C422 C 0.03132 0.65438 0.32357 0.0
C423 C 0.98954 0.68303 0.24695 0.0
O424 O 0.04327 0.70036 0.29088 0.0
O425 O 0.05395 0.71824 0.24672 0.0
O426 O 0.99994 0.63437 0.26557 0.0
O427 O 0.0273 0.66288 0.24109 0.0
Co428 Co 0.41721 0.46077 0.30166 0.0
O429 O 0.44448 0.46692 0.28018 0.0
O430 O 0.41401 0.4663 0.25931 0.0
C431 C 0.43737 0.48593 0.34028 0.0
O432 O 0.3861 0.45585 0.31774 0.0
Co433 Co 0.4098 0.43923 0.36434 0.0
O434 O 0.38598 0.44886 0.36675 0.0
C435 C 0.4031 0.40984 0.3109 0.0
C436 C 0.43486 0.46952 0.25637 0.0
C437 C 0.37731 0.45327 0.34389 0.0
O438 O 0.40365 0.42582 0.29404 0.0
O439 O 0.40745 0.41279 0.33899 0.0
O440 O 0.43257 0.49336 0.31603 0.0
O441 O 0.43132 0.46405 0.33963 0.0
Co442 Co 0.65971 0.07158 0.26134 0.0
O443 O 0.63508 0.04796 0.28434 0.0
O444 O 0.66119 0.0828 0.30206 0.0
C445 C 0.63555 0.06681 0.22253 0.0
O446 O 0.68714 0.10113 0.24421 0.0
Co447 Co 0.67259 0.06101 0.19954 0.0
O448 O 0.68941 0.09529 0.19535 0.0
C449 C 0.68934 0.04877 0.25453 0.0
C450 C 0.64244 0.06294 0.30642 0.0
C451 C 0.69563 0.10869 0.21835 0.0
O452 O 0.68046 0.05814 0.27133 0.0
O453 O 0.6871 0.04739 0.22608 0.0
O454 O 0.63792 0.08053 0.24494 0.0
O455 O 0.64731 0.05614 0.22448 0.0
Co456 Co 0.03346 0.40842 0.76875 0.0
O457 O 0.0227 0.42412 0.74134 0.0
O458 O 0.05922 0.43401 0.74821 0.0
C459 C 1.00556 0.3709 0.75481 0.0
O460 O 0.05191 0.3961 0.79351 0.0
Co461 Co 1.00235 0.37539 0.81804 0.0
O462 O 0.02672 0.36669 0.82163 0.0
C463 C 0.02352 0.42661 0.82704 0.0
C464 C 0.04413 0.43784 0.73438 0.0
C465 C 0.04705 0.37918 0.81169 0.0
O466 O 0.03544 0.43046 0.80304 0.0
O467 O 1.00868 0.40609 0.83533 0.0
O468 O 0.02404 0.38222 0.73904 0.0
O469 O 1.00418 0.38295 0.77654 0.0
Co470 Co 0.66796 0.67393 0.77703 0.0
O471 O 0.63795 0.66285 0.79439 0.0
O472 O 0.65896 0.64585 0.8007 0.0
C473 C 0.68232 0.71198 0.79138 0.0
O474 O 0.70054 0.6816 0.76273 0.0
Co475 Co 0.68321 0.71027 0.72649 0.0
O476 O 0.7141 0.71401 0.73529 0.0
C477 C 0.65079 0.66021 0.71206 0.0
C478 C 0.6402 0.64649 0.80687 0.0
C479 C 0.71705 0.69864 0.74848 0.0
O480 O 0.65246 0.65452 0.73906 0.0
O481 O 0.66073 0.68137 0.70334 0.0
O482 O 0.68265 0.69706 0.80965 0.0
O483 O 0.67162 0.70312 0.76625 0.0
Co484 Co 0.40004 0.03543 0.74771 0.0
O485 O 0.4274 0.04478 0.7246 0.0
O486 O 0.39642 0.00952 0.72269 0.0
C487 C 0.39778 0.06799 0.73774 0.0
O488 O 0.36812 0.01921 0.76697 0.0
Co489 Co 0.39973 0.06529 0.80162 0.0
O490 O 0.36565 0.04451 0.79866 0.0
C491 C 0.42371 0.03768 0.8065 0.0
C492 C 0.41689 0.02387 0.71279 0.0
C493 C 0.35651 0.02496 0.7845 0.0
O494 O 0.41422 0.0265 0.78182 0.0
O495 O 0.42172 0.05493 0.8162 0.0
O496 O 0.38904 0.05032 0.71899 0.0
O497 O 0.40827 0.06579 0.76075 0.0
Co498 Co 0.68908 0.98509 0.59953 0.0
O499 O 0.70264 0.97031 0.62475 0.0
O500 O 0.67529 0.97758 0.63849 0.0
C501 C 0.68435 0.96377 0.55623 0.0
O502 O 0.66852 0.99771 0.58255 0.0
Co503 Co 0.70943 0.01382 0.54374 0.0
O504 O 0.6814 0.01735 0.54036 0.0
C505 C 0.73154 0.03457 0.6019 0.0
C506 C 0.68863 0.96917 0.64547 0.0
C507 C 0.66651 0.00927 0.56078 0.0
O508 O 0.71384 0.01778 0.61469 0.0
O509 O 0.73415 0.03479 0.57372 0.0
O510 O 0.66976 0.95504 0.57778 0.0
O511 O 0.70198 0.98425 0.56213 0.0
Co512 Co 0.08502 0.78266 0.60134 0.0
O513 O 0.11562 0.79257 0.58631 0.0
O514 O 0.08748 0.79209 0.55944 0.0
C515 C 0.09838 0.804 0.6447 0.0
O516 O 0.05151 0.77515 0.61048 0.0
Co517 Co 0.06905 0.75541 0.66038 0.0
O518 O 0.04683 0.76706 0.65933 0.0
C519 C 0.06737 0.72978 0.60501 0.0
C520 C 0.10913 0.79739 0.56132 0.0
C521 C 0.04046 0.77217 0.63503 0.0
O522 O 0.07407 0.74851 0.58963 0.0
O523 O 0.06534 0.72941 0.63332 0.0
O524 O 0.09696 0.81376 0.62041 0.0
O525 O 0.09335 0.7825 0.64148 0.0
Co526 Co 0.31999 0.39992 0.62455 0.0
O527 O 0.29791 0.38232 0.65481 0.0
O528 O 0.32872 0.41749 0.6617 0.0
C529 C 0.29314 0.39316 0.58834 0.0
O530 O 0.34576 0.42482 0.59999 0.0
Co531 Co 0.32463 0.3798 0.56397 0.0
O532 O 0.3438 0.4129 0.55258 0.0
C533 C 0.34592 0.3729 0.61878 0.0
C534 C 0.31013 0.4003 0.67248 0.0
C535 C 0.35225 0.42884 0.57284 0.0
O536 O 0.33962 0.3851 0.63474 0.0
O537 O 0.34078 0.36823 0.59102 0.0
O538 O 0.29845 0.40947 0.60852 0.0
O539 O 0.30308 0.38078 0.59164 0.0
Co540 Co 0.69404 0.77608 0.08522 0.0
O541 O 0.67272 0.78332 0.06371 0.0
O542 O 0.71034 0.80244 0.05813 0.0
C543 C 0.67268 0.73656 0.07552 0.0
O544 O 0.72195 0.77271 0.10019 0.0
Co545 Co 0.68082 0.74534 0.13992 0.0
O546 O 0.71078 0.7459 0.1359 0.0
C547 C 0.68908 0.79331 0.14784 0.0
C548 C 0.69017 0.79911 0.04934 0.0
C549 C 0.726 0.75982 0.11814 0.0
O550 O 0.69689 0.79773 0.12089 0.0
O551 O 0.68001 0.77276 0.15844 0.0
O552 O 0.6868 0.75081 0.05621 0.0
O553 O 0.67066 0.74653 0.0994 0.0
Co554 Co 0.31421 1.00302 0.14262 0.0
O555 O 0.28552 0.98951 0.16456 0.0
O556 O 0.31196 0.97888 0.16922 0.0
C557 C 0.32239 0.04058 0.1507 0.0
O558 O 0.34646 0.0126 0.12599 0.0
Co559 Co 0.32625 0.03519 0.08823 0.0
O560 O 0.35843 0.04143 0.09311 0.0
C561 C 0.29342 0.98395 0.08121 0.0
C562 C 0.29243 0.9766 0.17794 0.0
C563 C 0.36215 0.02774 0.10898 0.0
O564 O 0.29761 0.97992 0.1081 0.0
O565 O 0.30207 1.00446 0.07054 0.0
O566 O 0.32789 0.03004 0.17087 0.0
O567 O 0.31234 0.02831 0.12699 0.0
Co568 Co 0.07772 0.39598 0.11986 0.0
O569 O 0.11005 0.41396 0.11027 0.0
O570 O 0.08644 0.37777 0.09418 0.0
C571 C 0.07019 0.42509 0.11024 0.0
O572 O 0.04295 0.37217 0.12401 0.0
Co573 Co 0.05675 0.41115 0.17099 0.0
O574 O 0.0265 0.38748 0.15324 0.0
C575 C 0.08493 0.3888 0.1851 0.0
C576 C 0.10698 0.39627 0.0939 0.0
C577 C 0.02493 0.37144 0.13565 0.0
O578 O 0.08594 0.38446 0.15724 0.0
O579 O 0.0755 0.40045 0.19448 0.0
O580 O 0.07036 0.4119 0.08867 0.0
O581 O 0.0758 0.42122 0.13631 0.0
Co582 Co 0.36667 0.32492 0.96032 0.0
O583 O 0.38623 0.31557 0.98247 0.0
O584 O 0.35487 0.31394 1.00013 0.0
C585 C 0.36607 0.30663 0.91598 0.0
O586 O 0.34053 0.33097 0.94424 0.0
Co587 Co 0.38279 0.35535 0.90402 0.0
O588 O 0.34922 0.34344 0.89733 0.0
C589 C 0.40144 0.37796 0.96303 0.0
C590 C 0.37217 0.31028 1.00448 0.0
C591 C 0.33493 0.33567 0.91847 0.0
O592 O 0.38696 0.35885 0.97613 0.0
O593 O 0.40317 0.37934 0.9347 0.0
O594 O 0.35218 0.29469 0.93711 0.0
O595 O 0.38035 0.32815 0.92318 0.0
Co596 Co 0.73733 0.11375 0.9321 0.0
O597 O 0.76538 0.12684 0.9088 0.0
O598 O 0.73183 0.12275 0.89347 0.0
C599 C 0.75538 0.13386 0.97475 0.0
O600 O 0.70489 0.10295 0.94801 0.0
Co601 Co 0.72781 0.08517 0.98908 0.0
O602 O 0.69979 0.08834 0.99376 0.0
C603 C 0.73148 0.06582 0.93081 0.0
C604 C 0.75339 0.12988 0.88792 0.0
C605 C 0.69273 0.09512 0.97154 0.0
O606 O 0.72844 0.08118 0.91704 0.0
O607 O 0.73404 0.06608 0.95918 0.0
O608 O 0.74958 0.14375 0.95401 0.0
O609 O 0.75063 0.11276 0.96881 0.0
Co610 Co 0.98401 0.70491 0.92127 0.0
O611 O 0.95559 0.68208 0.93929 0.0
O612 O 0.9823 0.7143 0.96217 0.0
C613 C 0.96586 0.7059 0.87855 0.0
O614 O 0.01524 0.73297 0.90995 0.0
Co615 Co 1.00087 0.69467 0.8616 0.0
O616 O 0.02644 0.72734 0.86504 0.0
C617 C 1.00835 0.67634 0.91838 0.0
C618 C 0.96193 0.6956 0.96284 0.0
C619 C 0.02974 0.73976 0.88848 0.0
O620 O 1.0003 0.68723 0.9339 0.0
O621 O 1.00822 0.67597 0.88987 0.0
O622 O 0.96714 0.71857 0.90165 0.0
O623 O 0.97477 0.69265 0.88225 0.0
Co624 Co 0.37502 0.11871 0.44706 0.0
O625 O 0.35807 0.13161 0.42675 0.0
O626 O 0.39545 0.14558 0.42233 0.0
C627 C 0.34808 0.0807 0.43412 0.0
O628 O 0.39887 0.10944 0.46351 0.0
Co629 Co 0.35313 0.08426 0.49857 0.0
O630 O 0.381 0.08085 0.49656 0.0
C631 C 0.36822 0.13421 0.50896 0.0
C632 C 0.37708 0.1466 0.41434 0.0
C633 C 0.39881 0.09424 0.48171 0.0
O634 O 0.37934 0.1394 0.48411 0.0
O635 O 0.35506 0.11307 0.51677 0.0
O636 O 0.36433 0.0937 0.41597 0.0
O637 O 0.34818 0.09121 0.45849 0.0
Co638 Co 0.99568 0.35832 0.4535 0.0
O639 O 0.96534 0.3432 0.47091 0.0
O640 O 0.9918 0.3329 0.47889 0.0
C641 C 1.00265 0.39512 0.46368 0.0
O642 O 0.02946 0.37037 0.44034 0.0
Co643 Co 1.00685 0.39112 0.3998 0.0
O644 O 0.03937 0.399 0.4073 0.0
C645 C 0.97668 0.33987 0.39125 0.0
C646 C 0.97125 0.32964 0.48446 0.0
C647 C 0.04458 0.3866 0.42377 0.0
O648 O 0.9826 0.3364 0.41737 0.0
O649 O 0.98289 0.36031 0.38159 0.0
O650 O 1.00648 0.3835 0.48401 0.0
O651 O 0.9938 0.38387 0.4389 0.0
Co652 Co 0.74546 0.71381 0.40867 0.0
O653 O 0.7702 0.7162 0.38445 0.0
O654 O 0.73463 0.68573 0.38415 0.0
C655 C 0.75115 0.74981 0.39883 0.0
O656 O 0.71505 0.70519 0.4292 0.0
Co657 Co 0.75403 0.74724 0.46273 0.0
O658 O 0.7203 0.73544 0.45837 0.0
C659 C 0.76316 0.70773 0.46892 0.0
C660 C 0.75532 0.69576 0.3733 0.0
C661 C 0.70712 0.7158 0.44538 0.0
O662 O 0.75555 0.70029 0.44214 0.0
O663 O 0.76477 0.72638 0.48038 0.0
O664 O 0.73927 0.7324 0.38029 0.0
O665 O 0.76052 0.74535 0.42133 0.0
H666 H 0.03722 0.49936 0.10986 0.0
H667 H 0.06658 0.51197 0.02257 0.0
H668 H 0.07868 0.48283 0.03057 0.0
H669 H 0.078 0.45149 0.06121 0.0
H670 H 0.04993 0.44057 0.14926 0.0
H671 H 0.03991 0.47113 0.14206 0.0
C672 C 0.04666 0.49602 0.09281 0.0
C673 C 0.05098 0.50767 0.06569 0.0
C674 C 0.05333 0.47923 0.09751 0.0
C675 C 0.06329 0.50335 0.04378 0.0
C676 C 0.06993 0.4865 0.04821 0.0
C677 C 0.06965 0.45584 0.07872 0.0
C678 C 0.06432 0.4436 0.10552 0.0
C679 C 0.0645 0.4739 0.07471 0.0
C680 C 0.05401 0.44966 0.12837 0.0
C681 C 0.04835 0.46716 0.12431 0.0
H682 H 0.62367 0.63128 0.02814 0.0
H683 H 0.56807 0.62656 0.08115 0.0
H684 H 0.59246 0.66744 0.09758 0.0
H685 H 0.62952 0.70523 0.09584 0.0
H686 H 0.68376 0.71025 0.03979 0.0
H687 H 0.66022 0.6688 0.02594 0.0
C688 C 0.61688 0.63911 0.04344 0.0
C689 C 0.59399 0.62566 0.05345 0.0
C690 C 0.63088 0.66284 0.05233 0.0
C691 C 0.58554 0.63636 0.073 0.0
C692 C 0.59954 0.6598 0.08246 0.0
C693 C 0.63625 0.69716 0.08084 0.0
C694 C 0.65852 0.71087 0.06905 0.0
C695 C 0.62224 0.6733 0.07219 0.0
C696 C 0.66676 0.70017 0.04923 0.0
C697 C 0.65326 0.67643 0.04125 0.0
H698 H 0.44508 1.00767 0.09312 0.0
H699 H 0.47232 0.07086 0.0427 0.0
H700 H 0.43904 0.07516 0.05621 0.0
H701 H 0.40078 0.05934 0.07943 0.0
H702 H 0.37405 0.9962 0.13009 0.0
H703 H 0.40862 0.99368 0.11955 0.0
C704 C 0.44389 0.02253 0.08523 0.0
C705 C 0.46117 0.03882 0.06666 0.0
C706 C 0.42469 0.02484 0.09305 0.0
C707 C 0.45937 0.05807 0.05701 0.0
C708 C 0.44024 0.06046 0.06463 0.0
C709 C 0.40255 0.04511 0.08844 0.0
C710 C 0.38453 0.02785 0.1054 0.0
C711 C 0.42257 0.04371 0.0822 0.0
C712 C 0.38744 0.00972 0.11699 0.0
C713 C 0.40723 0.00821 0.11086 0.0
H714 H 0.4722 0.06642 0.52761 0.0
H715 H 0.4996 0.08794 0.44038 0.0
H716 H 0.47189 0.10168 0.43064 0.0
H717 H 0.43636 0.1034 0.44531 0.0
H718 H 0.40949 0.08036 0.53294 0.0
H719 H 0.44017 0.07176 0.54398 0.0
C720 C 0.47267 0.07493 0.50688 0.0
C721 C 0.48845 0.07678 0.48514 0.0
C722 C 0.45625 0.08214 0.5012 0.0
C723 C 0.48818 0.08699 0.45791 0.0
C724 C 0.47205 0.09454 0.45219 0.0
C725 C 0.43746 0.09687 0.46695 0.0
C726 C 0.42011 0.09226 0.48798 0.0
C727 C 0.45545 0.09162 0.47338 0.0
C728 C 0.42208 0.08374 0.51593 0.0
C729 C 0.43979 0.07883 0.52245 0.0
H730 H 0.02372 0.49938 0.4618 0.0
H731 H 1.00165 0.48474 0.55249 0.0
H732 H 0.99361 0.44434 0.54557 0.0
H733 H 0.99616 0.41417 0.51447 0.0
H734 H 0.01712 0.42932 0.42331 0.0
H735 H 0.02272 0.46864 0.42972 0.0
C736 C 0.01656 0.48713 0.47981 0.0
C737 C 0.01307 0.4949 0.5075 0.0
C738 C 1.01242 0.46422 0.47576 0.0
C739 C 1.00398 0.479 0.53077 0.0
C740 C 0.99979 0.45603 0.52694 0.0
C741 C 1.00208 0.4262 0.49615 0.0
C742 C 1.00669 0.41908 0.46861 0.0
C743 C 1.00458 0.44865 0.49976 0.0
C744 C 0.01372 0.43452 0.44477 0.0
C745 C 0.01681 0.45695 0.44837 0.0
H746 H 0.6066 0.68162 0.49137 0.0
H747 H 0.60175 0.61438 0.47693 0.0
H748 H 0.63963 0.63324 0.45484 0.0
H749 H 0.67603 0.66903 0.44387 0.0
H750 H 0.68202 0.73629 0.4617 0.0
H751 H 0.64208 0.71721 0.47832 0.0
C752 C 0.61373 0.67098 0.48354 0.0
C753 C 0.60108 0.6465 0.48641 0.0
C754 C 0.636 0.682 0.47152 0.0
C755 C 0.61068 0.63318 0.4752 0.0
C756 C 0.63259 0.644 0.46261 0.0
C757 C 0.66846 0.6795 0.45094 0.0
C758 C 0.68204 0.70405 0.45169 0.0
C759 C 0.64563 0.66841 0.46125 0.0
C760 C 0.67202 0.71736 0.46113 0.0
C761 C 0.64917 0.70646 0.47067 0.0
H762 H 0.04077 0.60572 0.95711 0.0
H763 H 0.01626 0.61512 0.0414 0.0
H764 H 1.01184 0.6471 0.02161 0.0
H765 H 1.00825 0.66721 0.97779 0.0
H766 H 0.03091 0.6559 0.89268 0.0
H767 H 0.0427 0.6301 0.91518 0.0
C768 C 0.03548 0.61554 0.97138 0.0
C769 C 0.02903 0.60841 1.00057 0.0
C770 C 0.03189 0.63309 0.9594 0.0
C771 C 0.02155 0.62067 0.01884 0.0
C772 C 0.01872 0.6387 1.00743 0.0
C773 C 0.01607 0.65938 0.96427 0.0
C774 C 0.01804 0.66308 0.93345 0.0
C775 C 0.02269 0.64423 0.97729 0.0
C776 C 0.02858 0.65301 0.91637 0.0
C777 C 0.0355 0.63827 0.92921 0.0
H778 H 0.47906 0.46006 0.04484 0.0
H779 H 0.48185 0.49974 0.96769 0.0
H780 H 0.4499 0.46472 0.94408 0.0
H781 H 0.42222 0.42271 0.94417 0.0
H782 H 0.41816 0.38234 0.02102 0.0
H783 H 0.44916 0.41778 0.04609 0.0
C784 C 0.47269 0.46106 0.02285 0.0
C785 C 0.48316 0.48265 1.00799 0.0
C786 C 0.45395 0.44072 1.00941 0.0
C787 C 0.47433 0.48353 0.97968 0.0
C788 C 0.45599 0.46344 0.96613 0.0
C789 C 0.42794 0.42157 0.96653 0.0
C790 C 0.41784 0.39968 0.98054 0.0
C791 C 0.44581 0.44194 0.98065 0.0
C792 C 0.42542 0.39883 1.00967 0.0
C793 C 0.44332 0.41911 0.02392 0.0
H794 H 0.59091 0.0772 0.94911 0.0
H795 H 0.59074 0.07614 0.0451 0.0
H796 H 0.63139 0.08581 0.04633 0.0
H797 H 0.66615 0.09133 0.01978 0.0
H798 H 0.6661 0.09337 0.92373 0.0
H799 H 0.62656 0.08657 0.92297 0.0
C800 C 0.59987 0.07948 0.97035 0.0
C801 C 0.58768 0.07587 0.99695 0.0
C802 C 0.62321 0.08492 0.97088 0.0
C803 C 0.59966 0.079 0.02426 0.0
C804 C 0.62289 0.0843 0.02497 0.0
C805 C 0.65753 0.09041 0.99869 0.0
C806 C 0.66914 0.09262 0.97182 0.0
C807 C 0.6347 0.08675 0.99838 0.0
C808 C 0.65772 0.09171 0.94477 0.0
C809 C 0.63502 0.08777 0.94428 0.0
H810 H 0.57056 0.00807 0.5652 0.0
H811 H 0.60629 0.06763 0.50905 0.0
H812 H 0.64155 0.0645 0.51335 0.0
H813 H 0.66149 0.04299 0.53075 0.0
H814 H 0.62515 0.98414 0.58813 0.0
H815 H 0.59102 0.98877 0.58548 0.0
C816 C 0.58615 0.02063 0.5542 0.0
C817 C 0.58567 0.03812 0.53683 0.0
C818 C 0.60626 0.01861 0.55668 0.0
C819 C 0.60614 0.05421 0.52286 0.0
C820 C 0.62626 0.05222 0.52508 0.0
C821 C 0.64611 0.03118 0.54271 0.0
C822 C 0.646 0.01302 0.55942 0.0
C823 C 0.62642 0.03419 0.54149 0.0
C824 C 0.62592 0.9982 0.57506 0.0
C825 C 0.6063 1.00084 0.57356 0.0
H826 H 0.06993 0.64522 0.54173 0.0
H827 H 0.0197 0.60661 0.60818 0.0
H828 H 0.01998 0.64252 0.62429 0.0
H829 H 0.03746 0.6855 0.62239 0.0
H830 H 0.08682 0.72369 0.55474 0.0
H831 H 0.0837 0.6872 0.5358 0.0
C832 C 0.05884 0.64462 0.55957 0.0
C833 C 0.04504 0.62336 0.5741 0.0
C834 C 0.05904 0.66525 0.56846 0.0
C835 C 0.03046 0.62272 0.59673 0.0
C836 C 0.03075 0.64328 0.60599 0.0
C837 C 0.04734 0.68582 0.60325 0.0
C838 C 0.06262 0.70742 0.59022 0.0
C839 C 0.0454 0.66474 0.59249 0.0
C840 C 0.07497 0.70741 0.56516 0.0
C841 C 0.07329 0.68655 0.55448 0.0
H842 H 0.43872 0.51971 0.52584 0.0
H843 H 0.43776 0.54448 0.6148 0.0
H844 H 0.40192 0.50813 0.62426 0.0
H845 H 0.37291 0.46799 0.60875 0.0
H846 H 0.37457 0.44297 0.51997 0.0
H847 H 0.40815 0.48068 0.50907 0.0
C848 C 0.43061 0.51717 0.54726 0.0
C849 C 0.44106 0.53468 0.56968 0.0
C850 C 0.41026 0.49608 0.55269 0.0
C851 C 0.43006 0.53137 0.5971 0.0
C852 C 0.40966 0.51048 0.60261 0.0
C853 C 0.38048 0.47078 0.58693 0.0
C854 C 0.37131 0.45247 0.56538 0.0
C855 C 0.39992 0.49251 0.5808 0.0
C856 C 0.38127 0.45661 0.53711 0.0
C857 C 0.40053 0.4782 0.53083 0.0
H858 H 0.76469 0.8516 0.40586 0.0
H859 H 0.71805 0.82488 0.3294 0.0
H860 H 0.71734 0.78761 0.33234 0.0
H861 H 0.72936 0.76225 0.35724 0.0
H862 H 0.77565 0.78875 0.43415 0.0
H863 H 0.77726 0.82642 0.43031 0.0
C864 C 0.75459 0.83769 0.38968 0.0
C865 C 0.74137 0.84098 0.36756 0.0
C866 C 0.75415 0.81622 0.39162 0.0
C867 C 0.72811 0.82269 0.34693 0.0
C868 C 0.72778 0.80139 0.3485 0.0
C869 C 0.73985 0.77629 0.37309 0.0
C870 C 0.75234 0.77269 0.39593 0.0
C871 C 0.74058 0.79789 0.37089 0.0
C872 C 0.76583 0.79105 0.41636 0.0
C873 C 0.76677 0.81262 0.41419 0.0
H874 H 0.26954 0.983 0.37923 0.0
H875 H 0.23521 0.98614 0.45836 0.0
H876 H 0.26947 0.02276 0.47392 0.0
H877 H 0.30871 0.05465 0.46467 0.0
H878 H 0.34325 0.0531 0.38497 0.0
H879 H 0.30972 0.01515 0.37031 0.0
C880 C 0.26966 0.99161 0.39999 0.0
C881 C 0.24962 0.98176 0.41748 0.0
C882 C 0.28954 0.01301 0.40877 0.0
C883 C 0.25011 0.99338 0.44419 0.0
C884 C 0.2698 0.01432 0.45323 0.0
C885 C 0.30906 0.04597 0.44418 0.0
C886 C 0.32861 0.05679 0.42602 0.0
C887 C 0.28954 0.02441 0.43562 0.0
C888 C 0.32853 0.04523 0.39945 0.0
C889 C 0.30929 0.02352 0.39101 0.0
H890 H 0.146 0.41056 0.38769 0.0
H891 H 0.12614 0.34711 0.43522 0.0
H892 H 0.09001 0.34505 0.44925 0.0
H893 H 0.06211 0.3592 0.44468 0.0
H894 H 0.08159 0.42243 0.39672 0.0
H895 H 0.11927 0.42657 0.38668 0.0
C896 C 0.13396 0.39655 0.40156 0.0
C897 C 0.13889 0.37898 0.41014 0.0
C898 C 0.11277 0.3952 0.40936 0.0
C899 C 0.12287 0.36084 0.42799 0.0
C900 C 0.10206 0.35958 0.43607 0.0
C901 C 0.07468 0.37408 0.43242 0.0
C902 C 0.06864 0.39028 0.42135 0.0
C903 C 0.09652 0.37634 0.42635 0.0
C904 C 0.08541 0.40944 0.40542 0.0
C905 C 0.10712 0.41189 0.39957 0.0
H906 H 0.10944 0.3493 0.88638 0.0
H907 H 0.15721 0.38249 0.81556 0.0
H908 H 0.12924 0.3912 0.79076 0.0
H909 H 0.09102 0.39064 0.79033 0.0
H910 H 0.04458 0.35671 0.86261 0.0
H911 H 0.07208 0.34747 0.88528 0.0
C912 C 0.11378 0.35825 0.86535 0.0
C913 C 0.13554 0.36512 0.85301 0.0
C914 C 0.09775 0.36339 0.85139 0.0
C915 C 0.14059 0.37674 0.82565 0.0
C916 C 0.1246 0.38191 0.81151 0.0
C917 C 0.08696 0.38126 0.81102 0.0
C918 C 0.06541 0.37444 0.82442 0.0
C919 C 0.10312 0.3756 0.82435 0.0
C920 C 0.06068 0.36215 0.85129 0.0
C921 C 0.07651 0.35679 0.86452 0.0
H922 H 0.72206 0.81416 0.84595 0.0
H923 H 0.72579 0.83041 0.75287 0.0
H924 H 0.71082 0.78929 0.73918 0.0
H925 H 0.69521 0.7483 0.75373 0.0
H926 H 0.69329 0.73224 0.8468 0.0
H927 H 0.7089 0.77349 0.86045 0.0
C928 C 0.71966 0.80863 0.82271 0.0
C929 C 0.72501 0.8253 0.80048 0.0
C930 C 0.71125 0.78494 0.815 0.0
C931 C 0.72205 0.81799 0.7704 0.0
C932 C 0.71333 0.79443 0.76256 0.0
C933 C 0.69828 0.75386 0.77698 0.0
C934 C 0.69292 0.7372 0.79922 0.0
C935 C 0.70766 0.7777 0.78467 0.0
C936 C 0.69727 0.74471 0.82925 0.0
C937 C 0.70615 0.7683 0.83709 0.0
H938 H 0.25202 0.97231 0.82008 0.0
H939 H 0.2627 0.91294 0.82086 0.0
H940 H 0.30217 0.93759 0.80264 0.0
H941 H 0.33453 0.97707 0.78931 0.0
H942 H 0.3228 0.0358 0.79172 0.0
H943 H 0.28277 0.01026 0.8056 0.0
C944 C 0.26283 0.96456 0.81622 0.0
C945 C 0.25435 0.94076 0.82206 0.0
C946 C 0.28539 0.97882 0.80624 0.0
C947 C 0.26875 0.9312 0.81665 0.0
C948 C 0.29133 0.94532 0.80625 0.0
C949 C 0.32304 0.98411 0.79245 0.0
C950 C 0.33163 0.00833 0.78947 0.0
C951 C 0.29997 0.96929 0.8013 0.0
C952 C 0.31666 0.01729 0.79398 0.0
C953 C 0.29376 1.0027 0.80197 0.0
H954 H 0.74306 0.995 0.28023 0.0
H955 H 0.69635 0.97019 0.35356 0.0
H956 H 0.68257 0.99732 0.34143 0.0
H957 H 0.68086 0.02512 0.30649 0.0
H958 H 0.72653 0.04827 0.23192 0.0
H959 H 0.74402 0.02532 0.24836 0.0
C960 C 0.73024 0.9959 0.29392 0.0
C961 C 0.72053 0.9804 0.31746 0.0
C962 C 0.72213 0.01124 0.2865 0.0
C963 C 0.70375 0.98162 0.33489 0.0
C964 C 0.69593 0.9972 0.32805 0.0
C965 C 0.69499 0.02551 0.2943 0.0
C966 C 0.70229 0.03821 0.26796 0.0
C967 C 0.70453 0.01165 0.30338 0.0
C968 C 0.72048 0.03843 0.25215 0.0
C969 C 0.73046 0.02527 0.26148 0.0
H970 H 0.12122 0.80887 0.35458 0.0
H971 H 0.10738 0.84239 0.28164 0.0
H972 H 0.08272 0.80435 0.25703 0.0
H973 H 0.06577 0.76162 0.25561 0.0
H974 H 0.07751 0.72748 0.32971 0.0
H975 H 0.10235 0.76558 0.35444 0.0
C976 C 0.11276 0.80777 0.33331 0.0
C977 C 0.11621 0.82847 0.31989 0.0
C978 C 0.09834 0.78573 0.31944 0.0
C979 C 0.10487 0.82677 0.29254 0.0
C980 C 0.09089 0.80501 0.27837 0.0
C981 C 0.07384 0.7625 0.27713 0.0
C982 C 0.07002 0.7417 0.2906 0.0
C983 C 0.08763 0.7844 0.2915 0.0
C984 C 0.08022 0.74318 0.31878 0.0
C985 C 0.09444 0.76498 0.33292 0.0
H986 H 0.28942 0.45102 0.3974 0.0
H987 H 0.25802 0.41419 0.3145 0.0
H988 H 0.29601 0.42256 0.29709 0.0
H989 H 0.33789 0.43658 0.30784 0.0
H990 H 0.36813 0.47209 0.3918 0.0
H991 H 0.33124 0.46826 0.40599 0.0
C992 C 0.29085 0.44512 0.3753 0.0
C993 C 0.27068 0.43181 0.35749 0.0
C994 C 0.31274 0.44965 0.36558 0.0
C995 C 0.27312 0.42444 0.32884 0.0
C996 C 0.29491 0.42914 0.31887 0.0
C997 C 0.33649 0.44397 0.32888 0.0
C998 C 0.35582 0.45454 0.34876 0.0
C999 C 0.31483 0.4412 0.33736 0.0
C1000 C 0.35356 0.46375 0.37613 0.0
C1001 C 0.3324 0.46151 0.38435 0.0
H1002 H 0.24526 0.32802 0.85739 0.0
H1003 H 0.2403 0.35629 0.94219 0.0
H1004 H 0.27308 0.35286 0.96191 0.0
H1005 H 0.30613 0.34544 0.95324 0.0
H1006 H 0.31041 0.31811 0.86728 0.0
H1007 H 0.27519 0.3174 0.85024 0.0
C1008 C 0.25104 0.33313 0.88037 0.0
C1009 C 0.24017 0.3425 0.89811 0.0
C1010 C 0.27013 0.33143 0.89143 0.0
C1011 C 0.2481 0.34892 0.92789 0.0
C1012 C 0.26704 0.3471 0.93917 0.0
C1013 C 0.29904 0.33886 0.93105 0.0
C1014 C 0.31115 0.33192 0.91157 0.0
C1015 C 0.27863 0.33888 0.92094 0.0
C1016 C 0.3017 0.32371 0.88274 0.0
C1017 C 0.28149 0.32332 0.87288 0.0
H1018 H 0.72145 0.97921 0.85584 0.0
H1019 H 0.78077 0.99333 0.91095 0.0
H1020 H 0.78032 0.02686 0.93443 0.0
H1021 H 0.76202 0.05102 0.94061 0.0
H1022 H 0.70456 0.03925 0.88306 0.0
H1023 H 0.70531 1.00602 0.85881 0.0
C1024 C 0.73426 0.98976 0.87294 0.0
C1025 C 0.75099 0.9838 0.88202 0.0
C1026 C 0.73418 0.00932 0.88575 0.0
C1027 C 0.7678 0.9977 0.90375 0.0
C1028 C 0.76747 0.01676 0.91716 0.0
C1029 C 0.74974 0.04123 0.92262 0.0
C1030 C 0.73307 0.04732 0.91381 0.0
C1031 C 0.75061 0.02258 0.90854 0.0
C1032 C 0.71753 0.03484 0.89017 0.0
C1033 C 0.7179 0.0158 0.87646 0.0
H1034 H 0.11636 0.84001 0.9142 0.0
H1035 H 0.14617 0.81591 0.84764 0.0
H1036 H 0.11028 0.77793 0.84481 0.0
H1037 H 0.06963 0.75274 0.8589 0.0
H1038 H 0.04012 0.77711 0.92568 0.0
H1039 H 0.07677 0.81407 0.93053 0.0
C1040 C 0.11514 0.82636 0.89929 0.0
C1041 C 0.13391 0.83082 0.88105 0.0
C1042 C 0.0944 0.80482 0.8975 0.0
C1043 C 0.13209 0.81289 0.86206 0.0
C1044 C 0.11147 0.79127 0.86024 0.0
C1045 C 0.07114 0.76616 0.87446 0.0
C1046 C 0.05196 0.76225 0.89159 0.0
C1047 C 0.09236 0.78725 0.87739 0.0
C1048 C 0.05448 0.77967 0.91208 0.0
C1049 C 0.07545 0.80079 0.9149 0.0
H1050 H 0.3873 0.15461 0.7003 0.0
H1051 H 0.43689 0.18693 0.77315 0.0
H1052 H 0.43636 0.15018 0.78167 0.0
H1053 H 0.42167 0.10888 0.76882 0.0
H1054 H 0.37274 0.07635 0.69537 0.0
H1055 H 0.37285 0.11307 0.68696 0.0
C1056 C 0.39788 0.15357 0.71816 0.0
C1057 C 0.41209 0.17356 0.73611 0.0
C1058 C 0.3975 0.13231 0.72291 0.0
C1059 C 0.426 0.17197 0.7588 0.0
C1060 C 0.42558 0.15089 0.76382 0.0
C1061 C 0.41092 0.10975 0.75103 0.0
C1062 C 0.3971 0.08984 0.73284 0.0
C1063 C 0.41136 0.13096 0.74608 0.0
C1064 C 0.38348 0.09138 0.70972 0.0
C1065 C 0.38357 0.11239 0.7049 0.0
H1066 H 0.91275 0.27366 0.74749 0.0
H1067 H 0.94267 0.26426 0.66797 0.0
H1068 H 0.97869 0.30146 0.6789 0.0
H1069 H 1.00007 0.3391 0.70908 0.0
H1070 H 0.96814 0.34646 0.78845 0.0
H1071 H 0.93494 0.30798 0.77962 0.0
C1072 C 0.9274 0.27944 0.73293 0.0
C1073 C 0.9251 0.26611 0.70714 0.0
C1074 C 0.94771 0.30088 0.73912 0.0
C1075 C 0.94414 0.27395 0.68832 0.0
C1076 C 0.96462 0.29542 0.69439 0.0
C1077 C 0.98596 0.33213 0.72457 0.0
C1078 C 0.98674 0.34607 0.74928 0.0
C1079 C 0.96641 0.30945 0.71938 0.0
C1080 C 0.96822 0.33652 0.76913 0.0
C1081 C 0.94905 0.31435 0.76415 0.0
H1082 H 0.80407 0.68713 0.71879 0.0
H1083 H 0.82853 0.75688 0.68683 0.0
H1084 H 0.7943 0.75649 0.70615 0.0
H1085 H 0.7563 0.73564 0.72834 0.0
H1086 H 0.72988 0.66512 0.75842 0.0
H1087 H 0.76614 0.66672 0.74416 0.0
C1088 C 0.80208 0.70239 0.71646 0.0
C1089 C 0.81898 0.72205 0.70123 0.0
C1090 C 0.78193 0.70187 0.72717 0.0
C1091 C 0.8159 0.74151 0.69826 0.0
C1092 C 0.79626 0.7413 0.7093 0.0
C1093 C 0.75838 0.72056 0.73209 0.0
C1094 C 0.74007 0.70015 0.74429 0.0
C1095 C 0.77897 0.72143 0.72321 0.0
C1096 C 0.74351 0.68106 0.74917 0.0
C1097 C 0.76425 0.68194 0.7408 0.0
H1098 H 0.8116 0.7457 0.09017 0.0
H1099 H 0.81122 0.73832 0.18546 0.0
H1100 H 0.77996 0.74757 0.18892 0.0
H1101 H 0.75015 0.75426 0.16435 0.0
H1102 H 0.75217 0.76429 0.06955 0.0
H1103 H 0.7853 0.75777 0.06647 0.0
C1104 C 0.805 0.74656 0.11178 0.0
C1105 C 0.81387 0.74123 0.13753 0.0
C1106 C 0.78708 0.7522 0.11366 0.0
C1107 C 0.80502 0.74252 0.1653 0.0
C1108 C 0.78693 0.74763 0.16726 0.0
C1109 C 0.75807 0.75539 0.14306 0.0
C1110 C 0.74847 0.75965 0.11715 0.0
C1111 C 0.77745 0.75198 0.14154 0.0
C1112 C 0.75916 0.7612 0.08985 0.0
C1113 C 0.77806 0.7573 0.08807 0.0
H1114 H 0.31662 0.1332 0.14876 0.0
H1115 H 0.35105 0.14463 0.23434 0.0
H1116 H 0.35168 0.10789 0.22823 0.0
H1117 H 0.34137 0.07172 0.1985 0.0
H1118 H 0.30865 0.06241 0.11167 0.0
H1119 H 0.30857 0.09891 0.11821 0.0
C1120 C 0.32413 0.12753 0.1661 0.0
C1121 C 0.33351 0.14138 0.19207 0.0
C1122 C 0.32484 0.10674 0.16213 0.0
C1123 C 0.34369 0.13417 0.21414 0.0
C1124 C 0.34403 0.11318 0.21065 0.0
C1125 C 0.33444 0.07783 0.18097 0.0
C1126 C 0.32492 0.06415 0.15473 0.0
C1127 C 0.33457 0.09921 0.18471 0.0
C1128 C 0.31606 0.07242 0.13217 0.0
C1129 C 0.31591 0.09334 0.13587 0.0
H1130 H 0.9364 0.27081 0.12613 0.0
H1131 H 0.90549 0.30739 0.16851 0.0
H1132 H 0.94161 0.34452 0.16336 0.0
H1133 H 0.98303 0.36586 0.15158 0.0
H1134 H 0.01412 0.329 0.11025 0.0
H1135 H 0.97674 0.29276 0.10999 0.0
C1136 C 0.93741 0.28693 0.1339 0.0
C1137 C 0.91824 0.28623 0.14795 0.0
C1138 C 0.95835 0.30816 0.13127 0.0
C1139 C 0.91988 0.30736 0.1576 0.0
C1140 C 0.94062 0.3286 0.15483 0.0
C1141 C 0.98166 0.34998 0.14218 0.0
C1142 C 1.0016 0.35022 0.13129 0.0
C1143 C 0.96014 0.3291 0.14243 0.0
C1144 C 0.99923 0.32944 0.11889 0.0
C1145 C 0.97783 0.30864 0.11885 0.0
H1146 H 0.40602 0.32567 0.6444 0.0
H1147 H 0.3597 0.29802 0.7178 0.0
H1148 H 0.34301 0.32271 0.70558 0.0
H1149 H 0.33905 0.3495 0.67082 0.0
H1150 H 0.38403 0.37495 0.59579 0.0
H1151 H 0.40409 0.35438 0.61211 0.0
C1152 C 0.3926 0.3254 0.65805 0.0
C1153 C 0.38399 0.30989 0.68178 0.0
C1154 C 0.38279 0.3393 0.65052 0.0
C1155 C 0.36637 0.30954 0.69909 0.0
C1156 C 0.35688 0.32372 0.69217 0.0
C1157 C 0.35359 0.35091 0.65854 0.0
C1158 C 0.36011 0.36371 0.63221 0.0
C1159 C 0.36456 0.33829 0.66749 0.0
C1160 C 0.37872 0.36514 0.61613 0.0
C1161 C 0.39014 0.35332 0.62537 0.0
H1162 H 0.78819 0.12726 0.68034 0.0
H1163 H 0.8402 0.1405 0.61556 0.0
H1164 H 0.81516 0.1015 0.59291 0.0
H1165 H 0.77679 0.06521 0.58868 0.0
H1166 H 0.72553 0.05175 0.65488 0.0
H1167 H 0.75201 0.08912 0.67994 0.0
C1168 C 0.79425 0.12147 0.66156 0.0
C1169 C 0.81606 0.1369 0.64955 0.0
C1170 C 0.77974 0.09903 0.64875 0.0
C1171 C 0.82365 0.12901 0.62537 0.0
C1172 C 0.8092 0.10675 0.61228 0.0
C1173 C 0.77148 0.0703 0.60881 0.0
C1174 C 0.74894 0.05565 0.61962 0.0
C1175 C 0.78695 0.09184 0.62331 0.0
C1176 C 0.74263 0.06251 0.64598 0.0
C1177 C 0.75777 0.08399 0.66026 0.0
H1178 H 0.95231 0.77109 0.68307 0.0
H1179 H 0.91942 0.72024 0.61138 0.0
H1180 H 0.95737 0.72953 0.59294 0.0
H1181 H 1.00009 0.74829 0.60137 0.0
H1182 H 0.03228 0.79835 0.67386 0.0
H1183 H 0.99479 0.79359 0.68725 0.0
C1184 C 0.95339 0.76233 0.66307 0.0
C1185 C 0.93289 0.74477 0.64895 0.0
C1186 C 0.97535 0.76761 0.65267 0.0
C1187 C 0.9348 0.73378 0.62289 0.0
C1188 C 0.95658 0.73902 0.61234 0.0
C1189 C 0.99894 0.75874 0.61936 0.0
C1190 C 0.019 0.77378 0.63648 0.0
C1191 C 0.97702 0.75541 0.62756 0.0
C1192 C 0.01713 0.7868 0.66022 0.0
C1193 C 0.99564 0.78393 0.66808 0.0
H1194 H 0.89006 0.67269 0.23422 0.0
H1195 H 0.92867 0.73592 0.18498 0.0
H1196 H 0.96493 0.73692 0.19905 0.0
H1197 H 0.98507 0.71747 0.22075 0.0
H1198 H 0.94673 0.65462 0.27072 0.0
H1199 H 0.91094 0.65595 0.26128 0.0
C1200 C 0.90645 0.68693 0.22694 0.0
C1201 C 0.90659 0.70415 0.2083 0.0
C1202 C 0.92723 0.68731 0.23509 0.0
C1203 C 0.92801 0.72254 0.19938 0.0
C1204 C 0.94874 0.72299 0.20725 0.0
C1205 C 0.96892 0.7042 0.22996 0.0
C1206 C 0.96857 0.68577 0.24619 0.0
C1207 C 0.94848 0.70512 0.2244 0.0
C1208 C 0.94756 0.66897 0.25827 0.0
C1209 C 0.92706 0.66967 0.25266 0.0
H1210 H 0.38898 0.31032 0.27822 0.0
H1211 H 0.32594 0.30171 0.2378 0.0
H1212 H 0.33774 0.34237 0.2509 0.0
H1213 H 0.36573 0.38033 0.27547 0.0
H1214 H 0.42734 0.38746 0.31858 0.0
H1215 H 0.41673 0.34779 0.30233 0.0
C1216 C 0.37793 0.31742 0.27205 0.0
C1217 C 0.35662 0.30299 0.25705 0.0
C1218 C 0.3847 0.34068 0.28 0.0
C1219 C 0.3423 0.31235 0.24965 0.0
C1220 C 0.34912 0.33566 0.25697 0.0
C1221 C 0.37693 0.37324 0.28082 0.0
C1222 C 0.39741 0.38682 0.29789 0.0
C1223 C 0.37026 0.35001 0.27229 0.0
C1224 C 0.41156 0.37732 0.30532 0.0
C1225 C 0.40546 0.35463 0.29614 0.0
H1226 H 0.78563 0.19955 0.17981 0.0
H1227 H 0.79829 0.20712 0.27494 0.0
H1228 H 0.75957 0.17413 0.2827 0.0
H1229 H 0.72403 0.1398 0.26216 0.0
H1230 H 0.71204 0.13226 0.16686 0.0
H1231 H 0.74822 0.16846 0.15973 0.0
C1232 C 0.77979 0.19435 0.20229 0.0
C1233 C 0.7951 0.20573 0.22668 0.0
C1234 C 0.75757 0.17504 0.20665 0.0
C1235 C 0.78704 0.19868 0.25565 0.0
C1236 C 0.76487 0.17967 0.26015 0.0
C1237 C 0.72907 0.14632 0.23988 0.0
C1238 C 0.71536 0.13298 0.21512 0.0
C1239 C 0.75025 0.16718 0.23577 0.0
C1240 C 0.72229 0.14186 0.1864 0.0
C1241 C 0.74307 0.16263 0.18222 0.0
H1242 H 0.01583 0.50776 0.89354 0.0
H1243 H 1.01077 0.46571 0.96889 0.0
H1244 H 0.01759 0.43966 0.9368 0.0
H1245 H 0.02251 0.42733 0.88706 0.0
H1246 H 0.02882 0.46931 0.81119 0.0
H1247 H 0.0245 0.49715 0.84367 0.0
C1248 C 0.01621 0.49288 0.90286 0.0
C1249 C 1.01246 0.48852 0.93364 0.0
C1250 C 0.02055 0.47808 0.8842 0.0
C1251 C 0.01355 0.46944 0.94543 0.0
C1252 C 0.01743 0.45453 0.92704 0.0
C1253 C 0.02332 0.44278 0.87764 0.0
C1254 C 0.02593 0.44617 0.84665 0.0
C1255 C 0.02068 0.45851 0.89639 0.0
C1256 C 0.02708 0.46637 0.83492 0.0
C1257 C 0.02433 0.48214 0.8535 0.0
H1258 H 0.5528 0.59108 0.88649 0.0
H1259 H 0.60455 0.59453 0.94874 0.0
H1260 H 0.63402 0.61204 0.91076 0.0
H1261 H 0.64595 0.62956 0.86051 0.0
H1262 H 0.59397 0.62829 0.80071 0.0
H1263 H 0.56404 0.60699 0.83687 0.0
C1264 C 0.57049 0.59571 0.89205 0.0
C1265 C 0.5762 0.59156 0.92094 0.0
C1266 C 0.58752 0.6063 0.87027 0.0
C1267 C 0.59934 0.59729 0.92693 0.0
C1268 C 0.61635 0.60749 0.90513 0.0
C1269 C 0.62799 0.62415 0.85524 0.0
C1270 C 0.62222 0.63038 0.82772 0.0
C1271 C 0.61076 0.61245 0.87679 0.0
C1272 C 0.59891 0.62368 0.82156 0.0
C1273 C 0.58176 0.61156 0.84234 0.0
H1274 H 0.45996 0.99218 0.90039 0.0
H1275 H 0.50342 0.06512 0.925 0.0
H1276 H 0.48827 0.07636 0.88267 0.0
H1277 H 0.46051 0.0657 0.84149 0.0
H1278 H 0.41648 0.99329 0.81545 0.0
H1279 H 0.43449 0.98159 0.85486 0.0
C1280 C 0.4663 0.01051 0.89617 0.0
C1281 C 0.48237 0.02775 0.91634 0.0
C1282 C 0.45746 0.01694 0.87153 0.0
C1283 C 0.49053 0.05145 0.91048 0.0
C1284 C 0.48202 0.05794 0.8861 0.0
C1285 C 0.45502 0.04734 0.84419 0.0
C1286 C 0.43702 0.03035 0.82591 0.0
C1287 C 0.4651 0.04085 0.86698 0.0
C1288 C 0.43035 1.00669 0.82927 0.0
C1289 C 0.4405 1.00002 0.85196 0.0
H1290 H 0.44395 0.98897 0.59622 0.0
H1291 H 0.50858 0.05287 0.61422 0.0
H1292 H 0.49301 0.05983 0.65926 0.0
H1293 H 0.46068 0.04894 0.6927 0.0
H1294 H 0.3962 0.98474 0.67628 0.0
H1295 H 0.41224 0.97654 0.63201 0.0
C1296 C 0.45476 1.00426 0.61013 0.0
C1297 C 0.47737 0.02054 0.60125 0.0
C1298 C 0.44573 0.00814 0.63646 0.0
C1299 C 0.49097 0.04029 0.61978 0.0
C1300 C 0.48213 0.04425 0.64581 0.0
C1301 C 0.45016 0.03303 0.6796 0.0
C1302 C 0.42722 0.01755 0.68776 0.0
C1303 C 0.45945 0.02849 0.65416 0.0
C1304 C 0.41392 0.99697 0.67057 0.0
C1305 C 0.42306 0.99232 0.64515 0.0
H1306 H 0.08907 0.52223 0.64375 0.0
H1307 H 0.0167 0.49787 0.624 0.0
H1308 H 1.0056 0.46788 0.66102 0.0
H1309 H 0.01588 0.44766 0.69921 0.0
H1310 H 0.08795 0.47088 0.71827 0.0
H1311 H 0.0994 0.50161 0.68155 0.0
C1312 C 0.07084 0.51038 0.64728 0.0
C1313 C 0.05393 0.51291 0.63065 0.0
C1314 C 0.06435 0.49263 0.66875 0.0
C1315 C 0.03039 0.49709 0.63627 0.0
C1316 C 0.02389 0.47961 0.65755 0.0
C1317 C 0.03412 0.45944 0.69541 0.0
C1318 C 0.05097 0.45676 0.71178 0.0
C1319 C 0.04066 0.47715 0.67397 0.0
C1320 C 0.0745 0.47232 0.70621 0.0
C1321 C 0.0811 0.49 0.68511 0.0
H1322 H 0.61339 0.60596 0.59016 0.0
H1323 H 0.54781 0.57994 0.63323 0.0
H1324 H 0.56807 0.59858 0.68029 0.0
H1325 H 0.6046 0.62674 0.70768 0.0
H1326 H 0.6695 0.65397 0.66281 0.0
H1327 H 0.64949 0.63032 0.6184 0.0
C1328 C 0.60346 0.60396 0.60992 0.0
C1329 C 0.57905 0.59168 0.6079 0.0
C1330 C 0.6152 0.61517 0.63675 0.0
C1331 C 0.5666 0.58929 0.63395 0.0
C1332 C 0.5782 0.60008 0.66092 0.0
C1333 C 0.61431 0.62691 0.68842 0.0
C1334 C 0.63851 0.64195 0.68853 0.0
C1335 C 0.60251 0.61369 0.66242 0.0
C1336 C 0.65089 0.64242 0.66325 0.0
C1337 C 0.63944 0.629 0.63778 0.0
H1338 H 0.97541 0.5575 0.14668 0.0
H1339 H 0.03468 0.60914 0.0999 0.0
H1340 H 0.04233 0.6381 0.13906 0.0
H1341 H 0.03306 0.64883 0.1878 0.0
H1342 H 0.97361 0.59726 0.23433 0.0
H1343 H 0.96505 0.5687 0.19413 0.0
C1344 C 0.98987 0.57512 0.14488 0.0
C1345 C 1.00458 0.58081 0.12036 0.0
C1346 C 0.99419 0.59193 0.16757 0.0
C1347 C 0.02332 0.60386 0.11869 0.0
C1348 C 0.02765 0.62062 0.14106 0.0
C1349 C 0.01811 0.63142 0.189 0.0
C1350 C 1.00408 0.62527 0.21421 0.0
C1351 C 0.01335 0.61484 0.16579 0.0
C1352 C 0.9848 0.60254 0.21532 0.0
C1353 C 0.97988 0.58611 0.19231 0.0
H1354 H 0.50835 0.50139 0.15491 0.0
H1355 H 0.46853 0.53131 0.11967 0.0
H1356 H 0.44068 0.51371 0.15976 0.0
H1357 H 0.42918 0.49185 0.20751 0.0
H1358 H 0.47075 0.46347 0.24201 0.0
H1359 H 0.49619 0.47842 0.19986 0.0
C1360 C 0.49366 0.50422 0.15596 0.0
C1361 C 0.49085 0.51802 0.13441 0.0
C1362 C 0.47793 0.49427 0.17919 0.0
C1363 C 0.47122 0.5208 0.13585 0.0
C1364 C 0.45532 0.5108 0.15893 0.0
C1365 C 0.4436 0.48867 0.20551 0.0
C1366 C 0.44802 0.47658 0.22815 0.0
C1367 C 0.45866 0.49775 0.18109 0.0
C1368 C 0.46694 0.4728 0.22519 0.0
C1369 C 0.48159 0.48139 0.20103 0.0
H1370 H 0.55643 0.05158 0.13059 0.0
H1371 H 0.56363 0.99232 0.10502 0.0
H1372 H 0.59428 1.00349 0.1431 0.0
H1373 H 0.61953 0.0306 0.18279 0.0
H1374 H 0.61197 0.08963 0.20873 0.0
H1375 H 0.58129 0.07841 0.17065 0.0
C1376 C 0.56478 0.04117 0.13325 0.0
C1377 C 0.55785 0.02121 0.11487 0.0
C1378 C 0.58249 0.04784 0.15493 0.0
C1379 C 0.56848 1.00761 0.11904 0.0
C1380 C 0.58615 0.01412 0.14061 0.0
C1381 C 0.6113 0.04113 0.17996 0.0
C1382 C 0.61811 0.06104 0.19837 0.0
C1383 C 0.59342 0.03432 0.15847 0.0
C1384 C 0.60709 0.07431 0.19472 0.0
C1385 C 0.58951 0.06785 0.17306 0.0
H1386 H 0.58703 0.06334 0.41909 0.0
H1387 H 0.53871 0.99441 0.3834 0.0
H1388 H 0.56557 0.99934 0.34427 0.0
H1389 H 0.60206 0.02364 0.31884 0.0
H1390 H 0.65061 0.09239 0.35443 0.0
H1391 H 0.62462 0.08673 0.39543 0.0
C1392 C 0.58236 0.04918 0.40311 0.0
C1393 C 0.56053 0.02854 0.40438 0.0
C1394 C 0.59806 0.05204 0.38063 0.0
C1395 C 0.55502 0.01066 0.38295 0.0
C1396 C 0.57051 0.01339 0.36057 0.0
C1397 C 0.60714 0.03732 0.33575 0.0
C1398 C 0.62831 0.05846 0.33346 0.0
C1399 C 0.59197 0.03407 0.35901 0.0
C1400 C 0.6345 0.07594 0.35561 0.0
C1401 C 0.61956 0.07275 0.37899 0.0
H1402 H 0.0754 0.61437 0.41582 0.0
H1403 H 0.0181 0.60576 0.4685 0.0
H1404 H 1.00591 0.62279 0.42918 0.0
H1405 H 1.01104 0.63991 0.37874 0.0
H1406 H 0.06887 0.64858 0.3271 0.0
H1407 H 0.08124 0.63231 0.3669 0.0
C1408 C 0.06037 0.61636 0.41899 0.0
C1409 C 0.04775 0.60846 0.4454 0.0
C1410 C 0.05342 0.62637 0.39621 0.0
C1411 C 0.02811 0.61115 0.44848 0.0
C1412 C 0.02113 0.62111 0.42593 0.0
C1413 C 0.02643 0.6384 0.37631 0.0
C1414 C 0.03889 0.64555 0.34966 0.0
C1415 C 0.03357 0.62873 0.39953 0.0
C1416 C 0.05877 0.64326 0.3471 0.0
C1417 C 0.06594 0.63388 0.36995 0.0
H1418 H 0.49121 0.5667 0.43629 0.0
H1419 H 0.50189 0.51404 0.47783 0.0
H1420 H 0.47976 0.48636 0.43688 0.0
H1421 H 0.45678 0.47711 0.38933 0.0
H1422 H 0.44695 0.5307 0.34886 0.0
H1423 H 0.4691 0.5579 0.3896 0.0
C1424 C 0.48883 0.54919 0.43651 0.0
C1425 C 0.49826 0.54252 0.46023 0.0
C1426 C 0.47602 0.53345 0.41313 0.0
C1427 C 0.49496 0.51974 0.45985 0.0
C1428 C 0.48219 0.50386 0.43649 0.0
C1429 C 0.45942 0.49471 0.38954 0.0
C1430 C 0.45012 0.50181 0.36603 0.0
C1431 C 0.47249 0.51049 0.41306 0.0
C1432 C 0.45385 0.52474 0.36657 0.0
C1433 C 0.46657 0.54035 0.38987 0.0
H1434 H 0.71889 0.88293 0.23178 0.0
H1435 H 0.66663 0.83104 0.28712 0.0
H1436 H 0.65741 0.80108 0.24813 0.0
H1437 H 0.66612 0.78903 0.19979 0.0
H1438 H 0.71804 0.84108 0.14416 0.0
H1439 H 0.72528 0.87147 0.18162 0.0
C1440 C 0.70526 0.86512 0.23529 0.0
C1441 C 0.69353 0.85939 0.2627 0.0
C1442 C 0.70009 0.84792 0.21267 0.0
C1443 C 0.67587 0.83615 0.26644 0.0
C1444 C 0.67071 0.81893 0.24412 0.0
C1445 C 0.67892 0.80704 0.19559 0.0
C1446 C 0.69165 0.81253 0.16891 0.0
C1447 C 0.68299 0.82452 0.21736 0.0
C1448 C 0.70793 0.83614 0.16415 0.0
C1449 C 0.71215 0.85356 0.18576 0.0
H1450 H 0.25472 0.92141 0.29854 0.0
H1451 H 0.1951 0.92661 0.27051 0.0
H1452 H 0.2138 0.94471 0.22464 0.0
H1453 H 0.24809 0.96225 0.19381 0.0
H1454 H 0.30804 0.95718 0.21972 0.0
H1455 H 0.28839 0.936 0.26437 0.0
C1456 C 0.2457 0.92608 0.2821 0.0
C1457 C 0.22354 0.92278 0.28834 0.0
C1458 C 0.25676 0.93688 0.2553 0.0
C1459 C 0.21224 0.92914 0.26669 0.0
C1460 C 0.22293 0.93957 0.24029 0.0
C1461 C 0.25681 0.95633 0.20905 0.0
C1462 C 0.2796 0.96152 0.2034 0.0
C1463 C 0.24538 0.94409 0.23464 0.0
C1464 C 0.29049 0.95348 0.2234 0.0
C1465 C 0.27926 0.94138 0.24908 0.0
H1466 H 0.12521 0.36522 0.29901 0.0
H1467 H 0.16686 0.3562 0.23336 0.0
H1468 H 0.1454 0.36274 0.1935 0.0
H1469 H 0.11678 0.3743 0.17758 0.0
H1470 H 0.07641 0.38453 0.24435 0.0
H1471 H 0.0955 0.37447 0.28325 0.0
C1472 C 0.12961 0.36469 0.27599 0.0
C1473 C 0.14779 0.36047 0.2693 0.0
C1474 C 0.11752 0.36889 0.25327 0.0
C1475 C 0.15289 0.35929 0.23924 0.0
C1476 C 0.14072 0.36321 0.2164 0.0
C1477 C 0.11199 0.37407 0.2006 0.0
C1478 C 0.09534 0.38045 0.20793 0.0
C1479 C 0.12328 0.36849 0.22318 0.0
C1480 C 0.08937 0.38003 0.23795 0.0
C1481 C 0.10024 0.37423 0.26032 0.0
H1482 H 0.19091 0.42692 1.00767 0.0
H1483 H 0.1446 0.3589 0.96848 0.0
H1484 H 0.11696 0.35108 1.00785 0.0
H1485 H 0.1045 0.36475 0.05156 0.0
H1486 H 0.1509 0.43302 0.09034 0.0
H1487 H 0.17973 0.43944 0.0533 0.0
C1488 C 0.17481 0.41037 1.00784 0.0
C1489 C 0.1699 0.3936 0.98504 0.0
C1490 C 0.15886 0.40601 0.03052 0.0
C1491 C 0.14904 0.37207 0.98584 0.0
C1492 C 0.13309 0.36763 1.00829 0.0
C1493 C 0.12105 0.38088 0.05216 0.0
C1494 C 0.12539 0.3984 0.07367 0.0
C1495 C 0.13763 0.38461 0.03052 0.0
C1496 C 0.14697 0.41922 0.07404 0.0
C1497 C 0.16351 0.42298 0.05276 0.0
H1498 H 0.65874 0.82473 0.92717 0.0
H1499 H 0.72981 0.88075 0.93024 0.0
H1500 H 0.73608 0.86735 0.97822 0.0
H1501 H 0.72195 0.83828 0.01886 0.0
H1502 H 0.65006 0.78411 0.01708 0.0
H1503 H 0.64371 0.79817 0.96986 0.0
C1504 C 0.67556 0.83419 0.93844 0.0
C1505 C 0.69375 0.85379 0.92469 0.0
C1506 C 0.67901 0.82659 0.96656 0.0
C1507 C 0.71536 0.86574 0.94004 0.0
C1508 C 0.71903 0.85798 0.96758 0.0
C1509 C 0.70484 0.8297 1.00832 0.0
C1510 C 0.68656 0.80999 0.02185 0.0
C1511 C 0.70108 0.83822 0.98101 0.0
C1512 C 0.66451 0.79931 1.0076 0.0
C1513 C 0.66083 0.80731 0.98033 0.0
H1514 H 0.20702 0.92329 0.99818 0.0
H1515 H 0.26074 0.94563 0.93351 0.0
H1516 H 0.29045 0.96242 0.9732 0.0
H1517 H 0.3011 0.97471 0.02555 0.0
H1518 H 0.24804 0.95226 0.09103 0.0
H1519 H 0.2181 0.93092 0.05214 0.0
C1520 C 0.22525 0.9317 0.99295 0.0
C1521 C 0.23173 0.93353 0.96295 0.0
C1522 C 0.24229 0.94106 0.01606 0.0
C1523 C 0.25537 0.94406 0.9564 0.0
C1524 C 0.27234 0.95367 0.97909 0.0
C1525 C 0.28302 0.96441 0.03142 0.0
C1526 C 0.27675 0.96486 0.06107 0.0
C1527 C 0.26602 0.9527 1.0089 0.0
C1528 C 0.25329 0.95176 0.06844 0.0
C1529 C 0.23617 0.93992 0.0461 0.0
H1530 H 0.67583 0.89411 0.45013 0.0
H1531 H 0.71662 0.95991 0.40701 0.0
H1532 H 0.71372 0.98091 0.45022 0.0
H1533 H 0.70304 0.98134 0.50233 0.0
H1534 H 0.66099 0.91615 0.54596 0.0
H1535 H 0.66087 0.89444 0.5011 0.0
C1536 C 0.68342 0.91296 0.44988 0.0
C1537 C 0.69632 0.92534 0.42503 0.0
C1538 C 0.68188 0.92521 0.47534 0.0
C1539 C 0.70648 0.94987 0.42559 0.0
C1540 C 0.705 0.96198 0.45048 0.0
C1541 C 0.69364 0.96237 0.50197 0.0
C1542 C 0.68225 0.95049 0.52779 0.0
C1543 C 0.69334 0.94996 0.47584 0.0
C1544 C 0.66995 0.92585 0.52657 0.0
C1545 C 0.66993 0.91338 0.50083 0.0
H1546 H 0.19486 0.87044 0.48792 0.0
H1547 H 0.14775 0.83595 0.41349 0.0
H1548 H 0.11821 0.80898 0.44739 0.0
H1549 H 0.10466 0.79684 0.49939 0.0
H1550 H 0.15372 0.82996 0.57258 0.0
H1551 H 0.18322 0.85555 0.53833 0.0
C1552 C 0.1783 0.85671 0.47903 0.0
C1553 C 0.17368 0.85527 0.44811 0.0
C1554 C 0.16145 0.84109 0.49866 0.0
C1555 C 0.15202 0.83734 0.43708 0.0
C1556 C 0.13496 0.82203 0.45657 0.0
C1557 C 0.12185 0.80956 0.50774 0.0
C1558 C 0.12678 0.81151 0.53873 0.0
C1559 C 0.13927 0.824 0.48757 0.0
C1560 C 0.14932 0.82795 0.54899 0.0
C1561 C 0.16629 0.8427 0.52936 0.0
H1562 H 0.2281 0.39043 0.48223 0.0
H1563 H 0.23842 0.33359 0.45352 0.0
H1564 H 0.26189 0.33897 0.49812 0.0
H1565 H 0.28057 0.3604 0.54441 0.0
H1566 H 0.27152 0.41794 0.5732 0.0
H1567 H 0.24678 0.41191 0.52914 0.0
C1568 C 0.23557 0.37929 0.48556 0.0
C1569 C 0.23137 0.3616 0.46428 0.0
C1570 C 0.24943 0.3827 0.51121 0.0
C1571 C 0.24095 0.34711 0.46948 0.0
C1572 C 0.2546 0.3503 0.49495 0.0
C1573 C 0.2732 0.37166 0.54111 0.0
C1574 C 0.27796 0.38965 0.56202 0.0
C1575 C 0.25908 0.36812 0.51582 0.0
C1576 C 0.26818 0.40399 0.55741 0.0
C1577 C 0.25402 0.40054 0.53223 0.0
H1578 H 0.29247 0.42426 0.80245 0.0
H1579 H 0.22138 0.38292 0.77074 0.0
H1580 H 0.23437 0.37541 0.72378 0.0
H1581 H 0.26587 0.38093 0.69097 0.0
H1582 H 0.3369 0.42502 0.72067 0.0
H1583 H 0.32398 0.43107 0.76902 0.0
C1584 C 0.27973 0.41383 0.78529 0.0
C1585 C 0.25586 0.404 0.79068 0.0
C1586 C 0.28734 0.40989 0.75787 0.0
C1587 C 0.23981 0.39038 0.76783 0.0
C1588 C 0.24723 0.38611 0.74075 0.0
C1589 C 0.2785 0.39161 0.7082 0.0
C1590 C 0.30229 0.40227 0.70246 0.0
C1591 C 0.27093 0.39566 0.73555 0.0
C1592 C 0.31848 0.41651 0.72468 0.0
C1593 C 0.31109 0.42005 0.75227 0.0
H1594 H 0.67819 0.94168 0.78186 0.0
H1595 H 0.70292 0.89597 0.75144 0.0
H1596 H 0.70473 0.90971 0.70048 0.0
H1597 H 0.70073 0.93634 0.66429 0.0
H1598 H 0.67442 0.98048 0.6959 0.0
H1599 H 0.67209 0.96603 0.74607 0.0
C1600 C 0.68372 0.93443 0.76409 0.0
C1601 C 0.69033 0.91765 0.77084 0.0
C1602 C 0.68477 0.94248 0.73476 0.0
C1603 C 0.69745 0.90864 0.74718 0.0
C1604 C 0.6987 0.91671 0.71793 0.0
C1605 C 0.69456 0.94282 0.68219 0.0
C1606 C 0.68794 0.95975 0.67604 0.0
C1607 C 0.69272 0.93392 0.71141 0.0
C1608 C 0.67967 0.96757 0.69966 0.0
C1609 C 0.67829 0.95926 0.72853 0.0
H1610 H 0.13132 0.84178 0.77645 0.0
H1611 H 0.14433 0.90649 0.73744 0.0
H1612 H 0.12806 0.88606 0.68959 0.0
H1613 H 0.11233 0.84997 0.65795 0.0
H1614 H 0.1004 0.78577 0.69782 0.0
H1615 H 0.11421 0.80585 0.74596 0.0
C1616 C 0.13069 0.85148 0.75748 0.0
C1617 C 0.13933 0.87573 0.76052 0.0
C1618 C 0.1216 0.83968 0.73004 0.0
C1619 C 0.13776 0.88784 0.73583 0.0
C1620 C 0.12859 0.87616 0.70838 0.0
C1621 C 0.11262 0.84037 0.67723 0.0
C1622 C 0.10546 0.81639 0.67414 0.0
C1623 C 0.12078 0.85212 0.70508 0.0
C1624 C 0.10589 0.80422 0.69941 0.0
C1625 C 0.11381 0.8157 0.72704 0.0
H1626 H 0.39828 0.21932 0.60032 0.0
H1627 H 0.33712 0.16778 0.6442 0.0
H1628 H 0.32901 0.14003 0.60274 0.0
H1629 H 0.34075 0.12953 0.55594 0.0
H1630 H 0.40206 0.18091 0.51209 0.0
H1631 H 0.4085 0.20967 0.5516 0.0
C1632 C 0.38301 0.20208 0.6008 0.0
C1633 C 0.36838 0.19568 0.62567 0.0
C1634 C 0.37857 0.18615 0.57692 0.0
C1635 C 0.34864 0.17329 0.62553 0.0
C1636 C 0.34408 0.15736 0.60182 0.0
C1637 C 0.35551 0.14706 0.55478 0.0
C1638 C 0.37106 0.15285 0.53095 0.0
C1639 C 0.35916 0.16346 0.57769 0.0
C1640 C 0.38982 0.17583 0.52994 0.0
C1641 C 0.39355 0.19227 0.55267 0.0
H1642 H 0.91704 0.25398 0.58227 0.0
H1643 H 0.86691 0.27602 0.56457 0.0
H1644 H 0.89189 0.30275 0.52718 0.0
H1645 H 0.92825 0.3206 0.5 0.0
H1646 H 0.97893 0.29936 0.51775 0.0
H1647 H 0.95357 0.27179 0.55464 0.0
C1648 C 0.9116 0.26472 0.57044 0.0
C1649 C 0.88994 0.26281 0.57644 0.0
C1650 C 0.9262 0.28027 0.54887 0.0
C1651 C 0.88321 0.27675 0.56035 0.0
C1652 C 0.8976 0.2922 0.53899 0.0
C1653 C 0.93377 0.3099 0.51182 0.0
C1654 C 0.95554 0.31211 0.50602 0.0
C1655 C 0.91914 0.29416 0.53309 0.0
C1656 C 0.9623 0.29805 0.52166 0.0
C1657 C 0.94779 0.28229 0.54283 0.0
H1658 H 0.81647 0.66553 0.53757 0.0
H1659 H 0.78442 0.67951 0.61186 0.0
H1660 H 0.76301 0.69074 0.57783 0.0
H1661 H 0.75665 0.7007 0.52763 0.0
H1662 H 0.78725 0.68581 0.45268 0.0
H1663 H 0.80559 0.67028 0.48624 0.0
C1664 C 0.80442 0.6705 0.54632 0.0
C1665 C 0.80256 0.67223 0.57738 0.0
C1666 C 0.79202 0.67691 0.52651 0.0
C1667 C 0.78675 0.67867 0.58817 0.0
C1668 C 0.7744 0.68502 0.56871 0.0
C1669 C 0.76709 0.69374 0.51862 0.0
C1670 C 0.77093 0.69467 0.48788 0.0
C1671 C 0.77749 0.68493 0.53796 0.0
C1672 C 0.78411 0.68527 0.47633 0.0
C1673 C 0.79469 0.67654 0.49554 0.0
H1674 H 0.76587 0.65658 0.24933 0.0
H1675 H 0.83818 0.69831 0.27537 0.0
H1676 H 0.82765 0.70708 0.32345 0.0
H1677 H 0.79818 0.70599 0.35643 0.0
H1678 H 0.72575 0.6632 0.3321 0.0
H1679 H 0.73601 0.65136 0.28545 0.0
C1680 C 0.77931 0.66719 0.2657 0.0
C1681 C 0.80283 0.67725 0.25826 0.0
C1682 C 0.77312 0.67209 0.29366 0.0
C1683 C 0.81996 0.69091 0.27998 0.0
C1684 C 0.81397 0.69586 0.30764 0.0
C1685 C 0.78463 0.69382 0.34109 0.0
C1686 C 0.76127 0.68569 0.34754 0.0
C1687 C 0.79064 0.6871 0.3144 0.0
C1688 C 0.74389 0.66971 0.32764 0.0
C1689 C 0.74975 0.66305 0.30087 0.0
H1690 H 0.35184 0.20464 0.32563 0.0
H1691 H 0.40933 0.20934 0.27714 0.0
H1692 H 0.41751 0.18949 0.31782 0.0
H1693 H 0.40594 0.16766 0.36613 0.0
H1694 H 0.34694 0.16258 0.41151 0.0
H1695 H 0.34188 0.18558 0.37335 0.0
C1696 C 0.36636 0.20158 0.32385 0.0
C1697 C 0.37986 0.20853 0.29803 0.0
C1698 C 0.37061 0.18981 0.34696 0.0
C1699 C 0.39867 0.20442 0.29664 0.0
C1700 C 0.40323 0.19287 0.31992 0.0
C1701 C 0.39223 0.17193 0.36785 0.0
C1702 C 0.3768 0.16323 0.39194 0.0
C1703 C 0.38902 0.18504 0.34507 0.0
C1704 C 0.35901 0.16881 0.39341 0.0
C1705 C 0.35606 0.18201 0.37148 0.0
H1706 H 0.92105 0.24772 0.31052 0.0
H1707 H 0.90235 0.29366 0.26512 0.0
H1708 H 0.92526 0.32475 0.30075 0.0
H1709 H 0.95079 0.33958 0.34427 0.0
H1710 H 0.96899 0.29463 0.39255 0.0
H1711 H 0.94572 0.26247 0.3568 0.0
C1712 C 0.92185 0.26446 0.30852 0.0
C1713 C 0.91021 0.26821 0.28446 0.0
C1714 C 0.93492 0.28253 0.32974 0.0
C1715 C 0.91154 0.29015 0.28251 0.0
C1716 C 0.92453 0.30806 0.30319 0.0
C1717 C 0.94979 0.32279 0.34708 0.0
C1718 C 0.96187 0.31966 0.37093 0.0
C1719 C 0.9364 0.30452 0.32669 0.0
C1720 C 0.95992 0.29758 0.37437 0.0
C1721 C 0.94666 0.27921 0.35387 0.0
H1722 H 0.38773 0.28797 0.78547 0.0
H1723 H 0.3403 0.21612 0.80562 0.0
H1724 H 0.33253 0.22864 0.85406 0.0
H1725 H 0.34224 0.26063 0.89273 0.0
H1726 H 0.39044 0.33195 0.86956 0.0
H1727 H 0.39475 0.31902 0.82073 0.0
C1728 C 0.37544 0.27496 0.80027 0.0
C1729 C 0.36473 0.25113 0.79193 0.0
C1730 C 0.37136 0.28228 0.82793 0.0
C1731 C 0.34868 0.2346 0.81132 0.0
C1732 C 0.34443 0.2418 0.83918 0.0
C1733 C 0.35348 0.2733 0.87686 0.0
C1734 C 0.36615 0.29734 0.88532 0.0
C1735 C 0.3561 0.26566 0.8481 0.0
C1736 C 0.38056 0.31341 0.8642 0.0
C1737 C 0.38309 0.30604 0.83602 0.0
H1738 H 0.7816 0.18108 0.76467 0.0
H1739 H 0.84678 0.18549 0.78801 0.0
H1740 H 0.83045 0.1647 0.83407 0.0
H1741 H 0.79753 0.14556 0.86822 0.0
H1742 H 0.73231 0.14091 0.84376 0.0
H1743 H 0.74876 0.16149 0.79795 0.0
C1744 C 0.79231 0.17769 0.77994 0.0
C1745 C 0.81545 0.185 0.7729 0.0
C1746 C 0.78275 0.16559 0.80628 0.0
C1747 C 0.82889 0.17997 0.79274 0.0
C1748 C 0.81957 0.16814 0.81916 0.0
C1749 C 0.78692 0.14899 0.85282 0.0
C1750 C 0.76369 0.14168 0.85958 0.0
C1751 C 0.79649 0.16086 0.82622 0.0
C1752 C 0.75021 0.14627 0.83925 0.0
C1753 C 0.75961 0.15811 0.81298 0.0
H1754 H 0.89943 0.70335 0.77501 0.0
H1755 H 0.91192 0.64893 0.7421 0.0
H1756 H 0.9379 0.65561 0.78462 0.0
H1757 H 0.95674 0.6765 0.8313 0.0
H1758 H 0.94433 0.73085 0.8646 0.0
H1759 H 0.91914 0.72505 0.82118 0.0
C1760 C 0.90799 0.69309 0.7769 0.0
C1761 C 0.90361 0.6756 0.75527 0.0
C1762 C 0.92309 0.69715 0.80134 0.0
C1763 C 0.91462 0.66224 0.75853 0.0
C1764 C 0.92967 0.66618 0.78274 0.0
C1765 C 0.9487 0.68725 0.82897 0.0
C1766 C 0.95241 0.70411 0.85113 0.0
C1767 C 0.93398 0.68355 0.80428 0.0
C1768 C 0.94179 0.7178 0.84781 0.0
C1769 C 0.92731 0.71441 0.82307 0.0
H1770 H 0.87718 0.66119 0.04885 0.0
H1771 H 0.91705 0.73266 0.08112 0.0
H1772 H 0.94817 0.73945 0.04756 0.0
H1773 H 0.96347 0.72574 1.0068 0.0
H1774 H 0.92276 0.65459 0.97368 0.0
H1775 H 0.89286 0.64715 1.0096 0.0
C1776 C 0.89258 0.6783 0.04851 0.0
C1777 C 0.8945 0.69635 0.06762 0.0
C1778 C 0.91045 0.6822 0.02888 0.0
C1779 C 0.91496 0.71829 0.06702 0.0
C1780 C 0.93283 0.72226 0.04765 0.0
C1781 C 0.94823 0.70852 1.00776 0.0
C1782 C 0.94547 0.69076 0.98748 0.0
C1783 C 0.93073 0.70441 0.02826 0.0
C1784 C 0.92542 0.66862 0.98892 0.0
C1785 C 0.90821 0.66434 1.00944 0.0
H1786 H 0.38824 0.25545 0.1105 0.0
H1787 H 0.35141 0.28356 0.15796 0.0
H1788 H 0.35046 0.30425 0.11388 0.0
H1789 H 0.35687 0.3119 0.06033 0.0
H1790 H 0.39506 0.2857 0.01235 0.0
H1791 H 0.39862 0.26698 0.05743 0.0
C1792 C 0.3807 0.2667 0.11142 0.0
C1793 C 0.37009 0.26803 0.13784 0.0
C1794 C 0.37995 0.2786 0.08547 0.0
C1795 C 0.35988 0.28231 0.13816 0.0
C1796 C 0.35913 0.29404 0.11279 0.0
C1797 C 0.36609 0.3022 0.05974 0.0
C1798 C 0.37542 0.30006 0.03269 0.0
C1799 C 0.36851 0.29184 0.08604 0.0
C1800 C 0.3876 0.28765 0.03269 0.0
C1801 C 0.38965 0.27689 0.05858 0.0
H1802 H 0.81882 0.20032 0.08066 0.0
H1803 H 0.81782 0.13667 0.10491 0.0
H1804 H 0.79204 0.1161 0.06248 0.0
H1805 H 0.7703 0.11614 0.01818 0.0
H1806 H 0.77101 0.17941 0.99298 0.0
H1807 H 0.79593 0.20004 0.0366 0.0
C1808 C 0.81281 0.1819 0.07689 0.0
C1809 C 0.82046 0.17016 0.09608 0.0
C1810 C 0.7978 0.17007 0.05238 0.0
C1811 C 0.81264 0.14633 0.09041 0.0
C1812 C 0.7977 0.13447 0.06622 0.0
C1813 C 0.77573 0.13442 0.02226 0.0
C1814 C 0.76878 0.14621 1.00229 0.0
C1815 C 0.79026 0.14617 0.04702 0.0
C1816 C 0.77605 0.1699 1.008 0.0
C1817 C 0.79038 0.18171 0.03288 0.0
loop_
_geom_bond_atom_site_label_1
_geom_bond_atom_site_label_2
_geom_bond_distance
_geom_bond_site_symmetry_2
_ccdc_geom_bond_type
Cu0 N1 1.999 . S
Cu0 O6 1.974 1_554 S
Cu0 N11 1.985 1_554 S
Cu0 O20 1.959 . S
N1 Cu0 1.999 . S
N1 C3 1.263 . S
N1 C5 1.389 . S
N2 C3 1.358 . S
N2 C4 1.400 . S
C3 N1 1.263 . S
C3 N2 1.358 . S
C3 H9 0.930 . S
C4 N2 1.400 . S
C4 C5 1.351 . S
C4 H21 0.930 . S
C5 N1 1.389 . S
C5 C4 1.351 . S
C5 H10 0.930 . S
O6 Cu0 1.974 1_556 S
O6 C16 1.282 . S
C7 O8 1.261 . S
C7 O20 1.251 . S
O8 C7 1.261 . S
H9 C3 0.930 . S
H10 C5 0.930 . S
N11 Cu0 1.985 1_556 S
N11 C13 1.335 . S
N11 C14 1.390 . S
N12 C13 1.345 . S
N12 C15 1.336 . S
C13 N11 1.335 . S
C13 N12 1.345 . S
C13 H18 0.930 . S
C14 N11 1.390 . S
C14 C15 1.346 . S
C14 H19 0.930 . S
C15 N12 1.336 . S
C15 C14 1.346 . S
C15 H22 0.929 . S
C16 O6 1.282 . S
C16 O17 1.216 . S
O17 C16 1.216 . S
H18 C13 0.930 . S
H19 C14 0.930 . S
O20 Cu0 1.959 . S
O20 C7 1.251 . S
H21 C4 0.930 . S
H22 C15 0.929 . S
Cu23 N24 1.999 1_554 S
Cu23 O29 1.974 . S
Cu23 N34 1.985 . S
Cu23 O43 1.959 1_554 S
N24 Cu23 1.999 1_556 S
N24 C26 1.263 . S
N24 C28 1.389 . S
N25 C26 1.358 . S
N25 C27 1.400 . S
C26 N24 1.263 . S
C26 N25 1.358 . S
C26 H32 0.930 . S
C27 N25 1.400 . S
C27 C28 1.351 . S
C27 H44 0.930 . S
C28 N24 1.389 . S
C28 C27 1.351 . S
C28 H33 0.930 . S
O29 Cu23 1.974 . S
O29 C39 1.282 . S
C30 O31 1.266 . S
C30 O43 1.251 . S
O31 C30 1.266 . S
H32 C26 0.930 . S
H33 C28 0.930 . S
N34 Cu23 1.985 . S
N34 C36 1.335 . S
N34 C37 1.390 . S
N35 C36 1.345 . S
N35 C38 1.336 . S
C36 N34 1.335 . S
C36 N35 1.345 . S
C36 H41 0.930 . S
C37 N34 1.390 . S
C37 C38 1.346 . S
C37 H42 0.930 . S
C38 N35 1.336 . S
C38 C37 1.346 . S
C38 H45 0.929 . S
C39 O29 1.282 . S
C39 O40 1.216 . S
O40 C39 1.216 . S
H41 C36 0.930 . S
H42 C37 0.930 . S
O43 Cu23 1.959 1_556 S
O43 C30 1.251 . S
H44 C27 0.930 . S
H45 C38 0.929 . S
Cu46 N47 1.995 1_554 S
Cu46 O52 1.974 1_545 S
Cu46 N57 1.985 . S
Cu46 O66 1.959 . S
N47 Cu46 1.995 1_556 S
N47 C49 1.285 . S
N47 C51 1.372 1_545 S
N48 C49 1.363 . S
N48 C50 1.365 1_545 S
C49 N47 1.285 . S
C49 N48 1.363 . S
C49 H55 0.930 . S
C50 N48 1.365 1_565 S
C50 C51 1.351 . S
C50 H67 0.930 . S
C51 N47 1.372 1_565 S
C51 C50 1.351 . S
C51 H56 0.930 . S
O52 Cu46 1.974 1_565 S
O52 C62 1.282 1_565 S
C53 O54 1.261 1_556 S
C53 O66 1.251 1_556 S
O54 C53 1.261 1_554 S
H55 C49 0.930 . S
H56 C51 0.930 . S
N57 Cu46 1.985 . S
N57 C59 1.335 . S
N57 C60 1.390 . S
N58 C59 1.345 . S
N58 C61 1.336 . S
C59 N57 1.335 . S
C59 N58 1.345 . S
C59 H64 0.930 . S
C60 N57 1.390 . S
C60 C61 1.346 . S
C60 H65 0.930 . S
C61 N58 1.336 . S
C61 C60 1.346 . S
C61 H68 0.929 . S
C62 O52 1.282 1_545 S
C62 O63 1.216 . S
O63 C62 1.216 . S
H64 C59 0.930 . S
H65 C60 0.930 . S
O66 Cu46 1.959 . S
O66 C53 1.251 1_554 S
H67 C50 0.930 . S
H68 C61 0.929 . S
Cu69 N70 1.999 . S
Cu69 O75 1.974 . S
Cu69 N80 1.985 . S
Cu69 O89 1.959 . S
N70 Cu69 1.999 . S
N70 C72 1.263 . S
N70 C74 1.389 . S
N71 C72 1.358 . S
N71 C73 1.400 . S
C72 N70 1.263 . S
C72 N71 1.358 . S
C72 H78 0.930 . S
C73 N71 1.400 . S
C73 C74 1.351 . S
C73 H90 0.930 . S
C74 N70 1.389 . S
C74 C73 1.351 . S
C74 H79 0.930 . S
O75 Cu69 1.974 . S
O75 C85 1.282 1_545 S
C76 O77 1.261 . S
C76 O89 1.251 . S
O77 C76 1.261 . S
H78 C72 0.930 . S
H79 C74 0.930 . S
N80 Cu69 1.985 . S
N80 C82 1.335 . S
N80 C83 1.390 . S
N81 C82 1.345 . S
N81 C84 1.336 . S
C82 N80 1.335 . S
C82 N81 1.345 . S
C82 H87 0.930 . S
C83 N80 1.390 . S
C83 C84 1.346 . S
C83 H88 0.930 1_545 S
C84 N81 1.336 . S
C84 C83 1.346 . S
C84 H91 0.929 1_545 S
C85 O75 1.282 1_565 S
C85 O86 1.216 . S
O86 C85 1.216 . S
H87 C82 0.930 . S
H88 C83 0.930 1_565 S
O89 Cu69 1.959 . S
O89 C76 1.251 . S
H90 C73 0.930 . S
H91 C84 0.929 1_565 S
Cu92 N93 1.999 . S
Cu92 O98 1.974 . S
Cu92 N103 1.985 . S
Cu92 O112 1.959 . S
N93 Cu92 1.999 . S
N93 C95 1.263 . S
N93 C97 1.389 . S
N94 C95 1.358 . S
N94 C96 1.400 . S
C95 N93 1.263 . S
C95 N94 1.358 . S
C95 H101 0.930 . S
C96 N94 1.400 . S
C96 C97 1.351 . S
C96 H113 0.930 . S
C97 N93 1.389 . S
C97 C96 1.351 . S
C97 H102 0.930 . S
O98 Cu92 1.974 . S
O98 C108 1.282 . S
C99 O100 1.261 . S
C99 O112 1.251 . S
O100 C99 1.261 . S
H101 C95 0.930 . S
H102 C97 0.930 . S
N103 Cu92 1.985 . S
N103 C105 1.335 . S
N103 C106 1.390 . S
N104 C105 1.345 . S
N104 C107 1.336 . S
C105 N103 1.335 . S
C105 N104 1.345 . S
C105 H110 0.930 . S
C106 N103 1.390 . S
C106 C107 1.346 . S
C106 H111 0.930 . S
C107 N104 1.336 . S
C107 C106 1.346 . S
C107 H114 0.929 . S
C108 O98 1.282 . S
C108 O109 1.216 . S
O109 C108 1.216 . S
H110 C105 0.930 . S
H111 C106 0.930 . S
O112 Cu92 1.959 . S
O112 C99 1.251 . S
H113 C96 0.930 . S
H114 C107 0.929 . S
Cu115 N116 1.999 . S
Cu115 O121 1.974 . S
Cu115 N126 1.985 . S
Cu115 O135 1.959 . S
N116 Cu115 1.999 . S
N116 C118 1.263 . S
N116 C120 1.389 . S
N117 C118 1.358 . S
N117 C119 1.400 . S
C118 N116 1.263 . S
C118 N117 1.358 . S
C118 H124 0.930 . S
C119 N117 1.400 . S
C119 C120 1.351 . S
C119 H136 0.930 . S
C120 N116 1.389 . S
C120 C119 1.351 . S
C120 H125 0.930 . S
O121 Cu115 1.974 . S
O121 C131 1.282 . S
C122 O123 1.261 . S
C122 O135 1.251 . S
O123 C122 1.261 . S
H124 C118 0.930 . S
H125 C120 0.930 . S
N126 Cu115 1.985 . S
N126 C128 1.335 . S
N126 C129 1.390 . S
N127 C128 1.345 . S
N127 C130 1.336 . S
C128 N126 1.335 . S
C128 N127 1.345 . S
C128 H133 0.930 . S
C129 N126 1.390 . S
C129 C130 1.346 . S
C129 H134 0.930 . S
C130 N127 1.336 . S
C130 C129 1.346 . S
C130 H137 0.929 . S
C131 O121 1.282 . S
C131 O132 1.216 . S
O132 C131 1.216 . S
H133 C128 0.930 . S
H134 C129 0.930 . S
O135 Cu115 1.959 . S
O135 C122 1.251 . S
H136 C119 0.930 . S
H137 C130 0.929 . S
Cu138 N139 1.999 . S
Cu138 O144 1.974 . S
Cu138 N149 1.985 . S
Cu138 O158 1.959 . S
N139 Cu138 1.999 . S
N139 C141 1.263 . S
N139 C143 1.389 . S
N140 C141 1.358 . S
N140 C142 1.400 . S
C141 N139 1.263 . S
C141 N140 1.358 . S
C141 H147 0.930 . S
C142 N140 1.400 . S
C142 C143 1.351 . S
C142 H159 0.930 . S
C143 N139 1.389 . S
C143 C142 1.351 . S
C143 H148 0.930 . S
O144 Cu138 1.974 . S
O144 C154 1.282 . S
C145 O146 1.261 . S
C145 O158 1.251 . S
O146 C145 1.261 . S
H147 C141 0.930 . S
H148 C143 0.930 . S
N149 Cu138 1.985 . S
N149 C151 1.335 . S
N149 C152 1.390 . S
N150 C151 1.345 . S
N150 C153 1.336 . S
C151 N149 1.335 . S
C151 N150 1.345 . S
C151 H156 0.930 . S
C152 N149 1.390 . S
C152 C153 1.346 . S
C152 H157 0.930 . S
C153 N150 1.336 . S
C153 C152 1.346 . S
C153 H160 0.929 . S
C154 O144 1.282 . S
C154 O155 1.216 . S
O155 C154 1.216 . S
H156 C151 0.930 . S
H157 C152 0.930 . S
O158 Cu138 1.959 . S
O158 C145 1.251 . S
H159 C142 0.930 . S
H160 C153 0.929 . S
Cu161 N162 1.999 . S
Cu161 O167 1.974 . S
Cu161 N172 1.985 . S
Cu161 O181 1.959 . S
N162 Cu161 1.999 . S
N162 C164 1.263 . S
N162 C166 1.389 . S
N163 C164 1.358 . S
N163 C165 1.400 . S
C164 N162 1.263 . S
C164 N163 1.358 . S
C164 H170 0.930 . S
C165 N163 1.400 . S
C165 C166 1.351 . S
C165 H182 0.930 . S
C166 N162 1.389 . S
C166 C165 1.351 . S
C166 H171 0.930 . S
O167 Cu161 1.974 . S
O167 C177 1.282 . S
C168 O169 1.261 . S
C168 O181 1.251 . S
O169 C168 1.261 . S
H170 C164 0.930 . S
H171 C166 0.930 . S
N172 Cu161 1.985 . S
N172 C174 1.335 . S
N172 C175 1.390 . S
N173 C174 1.345 . S
N173 C176 1.336 . S
C174 N172 1.335 . S
C174 N173 1.345 . S
C174 H179 0.930 . S
C175 N172 1.390 . S
C175 C176 1.346 . S
C175 H180 0.930 . S
C176 N173 1.336 . S
C176 C175 1.346 . S
C176 H183 0.929 . S
C177 O167 1.282 . S
C177 O178 1.216 . S
O178 C177 1.216 . S
H179 C174 0.930 . S
H180 C175 0.930 . S
O181 Cu161 1.959 . S
O181 C168 1.251 . S
H182 C165 0.930 . S
H183 C176 0.929 . S
Cu184 N185 1.999 . S
Cu184 O190 1.974 . S
Cu184 N195 1.985 . S
Cu184 O204 1.959 . S
N185 Cu184 1.999 . S
N185 C187 1.263 . S
N185 C189 1.389 . S
N186 C187 1.358 . S
N186 C188 1.400 . S
C187 N185 1.263 . S
C187 N186 1.358 . S
C187 H193 0.930 . S
C188 N186 1.400 . S
C188 C189 1.351 . S
C188 H205 0.930 . S
C189 N185 1.389 . S
C189 C188 1.351 . S
C189 H194 0.930 . S
O190 Cu184 1.974 . S
O190 C200 1.282 . S
C191 O192 1.261 . S
C191 O204 1.251 . S
O192 C191 1.261 . S
H193 C187 0.930 . S
H194 C189 0.930 . S
N195 Cu184 1.985 . S
N195 C197 1.335 . S
N195 C198 1.390 . S
N196 C197 1.345 . S
N196 C199 1.336 . S
C197 N195 1.335 . S
C197 N196 1.345 . S
C197 H202 0.930 . S
C198 N195 1.390 . S
C198 C199 1.346 . S
C198 H203 0.930 . S
C199 N196 1.336 . S
C199 C198 1.346 . S
C199 H206 0.929 . S
C200 O190 1.282 . S
C200 O201 1.216 . S
O201 C200 1.216 . S
H202 C197 0.930 . S
H203 C198 0.930 . S
O204 Cu184 1.959 . S
O204 C191 1.251 . S
H205 C188 0.930 . S
H206 C199 0.929 . S
Cu207 N208 1.999 . S
Cu207 O213 1.974 . S
Cu207 N218 1.985 . S
Cu207 O227 1.959 . S
N208 Cu207 1.999 . S
N208 C210 1.263 . S
N208 C212 1.389 . S
N209 C210 1.358 . S
N209 C211 1.400 . S
C210 N208 1.263 . S
C210 N209 1.358 . S
C210 H216 0.930 . S
C211 N209 1.400 . S
C211 C212 1.351 . S
C211 H228 0.930 . S
C212 N208 1.389 . S
C212 C211 1.351 . S
C212 H217 0.930 . S
O213 Cu207 1.974 . S
O213 C223 1.282 . S
C214 O215 1.261 . S
C214 O227 1.251 . S
O215 C214 1.261 . S
H216 C210 0.930 . S
H217 C212 0.930 . S
N218 Cu207 1.985 . S
N218 C220 1.335 . S
N218 C221 1.390 . S
N219 C220 1.345 . S
N219 C222 1.336 . S
C220 N218 1.335 . S
C220 N219 1.345 . S
C220 H225 0.930 . S
C221 N218 1.390 . S
C221 C222 1.346 . S
C221 H226 0.930 . S
C222 N219 1.336 . S
C222 C221 1.346 . S
C222 H229 0.929 . S
C223 O213 1.282 . S
C223 O224 1.216 . S
O224 C223 1.216 . S
H225 C220 0.930 . S
H226 C221 0.930 . S
O227 Cu207 1.959 . S
O227 C214 1.251 . S
H228 C211 0.930 . S
H229 C222 0.929 . S
Cu230 N231 1.999 . S
Cu230 O236 1.974 . S
Cu230 N241 1.985 . S
Cu230 O250 1.959 . S
N231 Cu230 1.999 . S
N231 C233 1.263 . S
N231 C235 1.389 . S
N232 C233 1.358 . S
N232 C234 1.400 . S
C233 N231 1.263 . S
C233 N232 1.358 . S
C233 H239 0.930 . S
C234 N232 1.400 . S
C234 C235 1.351 . S
C234 H251 0.930 . S
C235 N231 1.389 . S
C235 C234 1.351 . S
C235 H240 0.930 . S
O236 Cu230 1.974 . S
O236 C246 1.282 . S
C237 O238 1.261 . S
C237 O250 1.251 . S
O238 C237 1.261 . S
H239 C233 0.930 . S
H240 C235 0.930 . S
N241 Cu230 1.985 . S
N241 C243 1.335 . S
N241 C244 1.390 . S
N242 C243 1.345 . S
N242 C245 1.336 . S
C243 N241 1.335 . S
C243 N242 1.345 . S
C243 H248 0.930 . S
C244 N241 1.390 . S
C244 C245 1.346 . S
C244 H249 0.930 . S
C245 N242 1.336 . S
C245 C244 1.346 . S
C245 H252 0.929 . S
C246 O236 1.282 . S
C246 O247 1.216 . S
O247 C246 1.216 . S
H248 C243 0.930 . S
H249 C244 0.930 . S
O250 Cu230 1.959 . S
O250 C237 1.251 . S
H251 C234 0.930 . S
H252 C245 0.929 . S
Cu253 N254 1.999 . S
Cu253 O259 1.974 . S
Cu253 N264 1.985 . S
Cu253 O273 1.959 . S
N254 Cu253 1.999 . S
N254 C256 1.263 . S
N254 C258 1.389 . S
N255 C256 1.358 . S
N255 C257 1.400 . S
C256 N254 1.263 . S
C256 N255 1.358 . S
C256 H262 0.930 . S
C257 N255 1.400 . S
C257 C258 1.351 . S
C257 H274 0.930 . S
C258 N254 1.389 . S
C258 C257 1.351 . S
C258 H263 0.930 . S
O259 Cu253 1.974 . S
O259 C269 1.282 . S
C260 O261 1.261 . S
C260 O273 1.251 . S
O261 C260 1.261 . S
H262 C256 0.930 . S
H263 C258 0.930 . S
N264 Cu253 1.985 . S
N264 C266 1.335 . S
N264 C267 1.390 . S
N265 C266 1.345 . S
N265 C268 1.336 . S
C266 N264 1.335 . S
C266 N265 1.345 . S
C266 H271 0.930 . S
C267 N264 1.390 . S
C267 C268 1.346 . S
C267 H272 0.930 . S
C268 N265 1.336 . S
C268 C267 1.346 . S
C268 H275 0.929 . S
C269 O259 1.282 . S
C269 O270 1.216 . S
O270 C269 1.216 . S
H271 C266 0.930 . S
H272 C267 0.930 . S
O273 Cu253 1.959 . S
O273 C260 1.251 . S
H274 C257 0.930 . S
H275 C268 0.929 . S
Cu276 N277 1.999 . S
Cu276 O282 1.974 . S
Cu276 N287 1.985 . S
Cu276 O296 1.959 . S
N277 Cu276 1.999 . S
N277 C279 1.263 . S
N277 C281 1.389 . S
N278 C279 1.358 . S
N278 C280 1.400 . S
C279 N277 1.263 . S
C279 N278 1.358 . S
C279 H285 0.930 . S
C280 N278 1.400 . S
C280 C281 1.351 . S
C280 H297 0.930 . S
C281 N277 1.389 . S
C281 C280 1.351 . S
C281 H286 0.930 . S
O282 Cu276 1.974 . S
O282 C292 1.282 . S
C283 O284 1.261 . S
C283 O296 1.251 . S
O284 C283 1.261 . S
H285 C279 0.930 . S
H286 C281 0.930 . S
N287 Cu276 1.985 . S
N287 C289 1.335 . S
N287 C290 1.390 . S
N288 C289 1.345 . S
N288 C291 1.336 . S
C289 N287 1.335 . S
C289 N288 1.345 . S
C289 H294 0.930 . S
C290 N287 1.390 . S
C290 C291 1.346 . S
C290 H295 0.930 . S
C291 N288 1.336 . S
C291 C290 1.346 . S
C291 H298 0.929 . S
C292 O282 1.282 . S
C292 O293 1.216 . S
O293 C292 1.216 . S
H294 C289 0.930 . S
H295 C290 0.930 . S
O296 Cu276 1.959 . S
O296 C283 1.251 . S
H297 C280 0.930 . S
H298 C291 0.929 . S
Cu299 N300 1.999 . S
Cu299 O305 1.974 . S
Cu299 N310 1.985 . S
Cu299 O319 1.959 . S
N300 Cu299 1.999 . S
N300 C302 1.263 . S
N300 C304 1.389 . S
N301 C302 1.358 . S
N301 C303 1.400 . S
C302 N300 1.263 . S
C302 N301 1.358 . S
C302 H308 0.930 . S
C303 N301 1.400 . S
C303 C304 1.351 . S
C303 H320 0.930 . S
C304 N300 1.389 . S
C304 C303 1.351 . S
C304 H309 0.930 . S
O305 Cu299 1.974 . S
O305 C315 1.282 . S
C306 O307 1.261 . S
C306 O319 1.251 . S
O307 C306 1.261 . S
H308 C302 0.930 . S
H309 C304 0.930 . S
N310 Cu299 1.985 . S
N310 C312 1.335 . S
N310 C313 1.390 . S
N311 C312 1.345 . S
N311 C314 1.336 . S
C312 N310 1.335 . S
C312 N311 1.345 . S
C312 H317 0.930 . S
C313 N310 1.390 . S
C313 C314 1.346 . S
C313 H318 0.930 . S
C314 N311 1.336 . S
C314 C313 1.346 . S
C314 H321 0.929 . S
C315 O305 1.282 . S
C315 O316 1.216 . S
O316 C315 1.216 . S
H317 C312 0.930 . S
H318 C313 0.930 . S
O319 Cu299 1.959 . S
O319 C306 1.251 . S
H320 C303 0.930 . S
H321 C314 0.929 . S
Cu322 N323 1.999 . S
Cu322 O328 1.974 . S
Cu322 N333 1.985 . S
Cu322 O342 1.959 . S
N323 Cu322 1.999 . S
N323 C325 1.263 . S
N323 C327 1.389 . S
N324 C325 1.358 . S
N324 C326 1.400 . S
C325 N323 1.263 . S
C325 N324 1.358 . S
C325 H331 0.930 . S
C326 N324 1.400 . S
C326 C327 1.351 . S
C326 H343 0.930 . S
C327 N323 1.389 . S
C327 C326 1.351 . S
C327 H332 0.930 . S
O328 Cu322 1.974 . S
O328 C338 1.282 . S
C329 O330 1.261 . S
C329 O342 1.251 . S
O330 C329 1.261 . S
H331 C325 0.930 . S
H332 C327 0.930 . S
N333 Cu322 1.985 . S
N333 C335 1.335 . S
N333 C336 1.390 . S
N334 C335 1.345 . S
N334 C337 1.336 . S
C335 N333 1.335 . S
C335 N334 1.345 . S
C335 H340 0.930 . S
C336 N333 1.390 . S
C336 C337 1.346 . S
C336 H341 0.930 . S
C337 N334 1.336 . S
C337 C336 1.346 . S
C337 H344 0.929 . S
C338 O328 1.282 . S
C338 O339 1.216 . S
O339 C338 1.216 . S
H340 C335 0.930 . S
H341 C336 0.930 . S
O342 Cu322 1.959 . S
O342 C329 1.251 . S
H343 C326 0.930 . S
H344 C337 0.929 . S
Cu345 N346 1.999 . S
Cu345 O351 1.974 . S
Cu345 N356 1.985 . S
Cu345 O365 1.959 . S
N346 Cu345 1.999 . S
N346 C348 1.263 . S
N346 C350 1.389 . S
N347 C348 1.358 . S
N347 C349 1.400 . S
C348 N346 1.263 . S
C348 N347 1.358 . S
C348 H354 0.930 . S
C349 N347 1.400 . S
C349 C350 1.351 . S
C349 H366 0.930 . S
C350 N346 1.389 . S
C350 C349 1.351 . S
C350 H355 0.930 . S
O351 Cu345 1.974 . S
O351 C361 1.282 . S
C352 O353 1.261 . S
C352 O365 1.251 . S
O353 C352 1.261 . S
H354 C348 0.930 . S
H355 C350 0.930 . S
N356 Cu345 1.985 . S
N356 C358 1.335 . S
N356 C359 1.390 . S
N357 C358 1.345 . S
N357 C360 1.336 . S
C358 N356 1.335 . S
C358 N357 1.345 . S
C358 H363 0.930 . S
C359 N356 1.390 . S
C359 C360 1.346 . S
C359 H364 0.930 . S
C360 N357 1.336 . S
C360 C359 1.346 . S
C360 H367 0.929 . S
C361 O351 1.282 . S
C361 O362 1.216 . S
O362 C361 1.216 . S
H363 C358 0.930 . S
H364 C359 0.930 . S
O365 Cu345 1.959 . S
O365 C352 1.251 . S
H366 C349 0.930 . S
H367 C360 0.929 . S
Cu368 N369 1.999 . S
Cu368 O374 1.974 . S
Cu368 N379 1.985 . S
Cu368 O388 1.959 . S
N369 Cu368 1.999 . S
N369 C371 1.263 . S
N369 C373 1.389 . S
N370 C371 1.358 . S
N370 C372 1.400 . S
C371 N369 1.263 . S
C371 N370 1.358 . S
C371 H377 0.930 . S
C372 N370 1.400 . S
C372 C373 1.351 . S
C372 H389 0.930 . S
C373 N369 1.389 . S
C373 C372 1.351 . S
C373 H378 0.930 . S
O374 Cu368 1.974 . S
O374 C384 1.282 . S
C375 O376 1.261 . S
C375 O388 1.251 . S
O376 C375 1.261 . S
H377 C371 0.930 . S
H378 C373 0.930 . S
N379 Cu368 1.985 . S
N379 C381 1.335 . S
N379 C382 1.390 . S
N380 C381 1.345 . S
N380 C383 1.336 . S
C381 N379 1.335 . S
C381 N380 1.345 . S
C381 H386 0.930 . S
C382 N379 1.390 . S
C382 C383 1.346 . S
C382 H387 0.930 . S
C383 N380 1.336 . S
C383 C382 1.346 . S
C383 H390 0.929 . S
C384 O374 1.282 . S
C384 O385 1.216 . S
O385 C384 1.216 . S
H386 C381 0.930 . S
H387 C382 0.930 . S
O388 Cu368 1.959 . S
O388 C375 1.251 . S
H389 C372 0.930 . S
H390 C383 0.929 . S
Cu391 N392 1.999 . S
Cu391 O397 1.974 . S
Cu391 N402 1.985 . S
Cu391 O411 1.959 . S
N392 Cu391 1.999 . S
N392 C394 1.263 . S
N392 C396 1.389 . S
N393 C394 1.358 . S
N393 C395 1.400 . S
C394 N392 1.263 . S
C394 N393 1.358 . S
C394 H400 0.930 . S
C395 N393 1.400 . S
C395 C396 1.351 . S
C395 H412 0.930 . S
C396 N392 1.389 . S
C396 C395 1.351 . S
C396 H401 0.930 . S
O397 Cu391 1.974 . S
O397 C407 1.282 . S
C398 O399 1.261 . S
C398 O411 1.251 . S
O399 C398 1.261 . S
H400 C394 0.930 . S
H401 C396 0.930 . S
N402 Cu391 1.985 . S
N402 C404 1.335 . S
N402 C405 1.390 . S
N403 C404 1.345 . S
N403 C406 1.336 . S
C404 N402 1.335 . S
C404 N403 1.345 . S
C404 H409 0.930 . S
C405 N402 1.390 . S
C405 C406 1.346 . S
C405 H410 0.930 . S
C406 N403 1.336 . S
C406 C405 1.346 . S
C406 H413 0.929 . S
C407 O397 1.282 . S
C407 O408 1.216 . S
O408 C407 1.216 . S
H409 C404 0.930 . S
H410 C405 0.930 . S
O411 Cu391 1.959 . S
O411 C398 1.251 . S
H412 C395 0.930 . S
H413 C406 0.929 . S
Co414 O415 2.216 . S
Co414 O416 2.091 . S
Co414 O418 2.004 1_455 S
Co414 O424 2.021 . S
Co414 O426 2.137 . S
Co414 O427 2.244 . S
O415 Co414 2.216 . S
O415 C422 1.247 . S
O416 Co414 2.091 . S
O416 C422 1.261 . S
C417 O426 1.247 . S
C417 O427 1.272 . S
O418 Co414 2.004 1_655 S
O418 C423 1.259 . S
Co419 O420 2.061 1_455 S
Co419 O425 2.052 . S
Co419 O427 2.135 . S
O420 Co419 2.061 1_655 S
O420 C423 1.235 . S
C421 O424 1.238 . S
C421 O425 1.241 . S
C422 O415 1.247 . S
C422 O416 1.261 . S
C423 O418 1.259 . S
C423 O420 1.235 . S
O424 Co414 2.021 . S
O424 C421 1.238 . S
O425 Co419 2.052 . S
O425 C421 1.241 . S
O426 Co414 2.137 . S
O426 C417 1.247 . S
O427 Co414 2.244 . S
O427 C417 1.272 . S
O427 Co419 2.135 . S
Co428 O429 2.216 . S
Co428 O430 2.091 . S
Co428 O432 2.004 . S
Co428 O438 2.021 . S
Co428 O440 2.137 . S
Co428 O441 2.244 . S
O429 Co428 2.216 . S
O429 C436 1.247 . S
O430 Co428 2.091 . S
O430 C436 1.261 . S
C431 O440 1.247 . S
C431 O441 1.272 . S
O432 Co428 2.004 . S
O432 C437 1.259 . S
Co433 O434 2.061 . S
Co433 O439 2.052 . S
Co433 O441 2.135 . S
O434 Co433 2.061 . S
O434 C437 1.235 . S
C435 O438 1.238 . S
C435 O439 1.241 . S
C436 O429 1.247 . S
C436 O430 1.261 . S
C437 O432 1.259 . S
C437 O434 1.235 . S
O438 Co428 2.021 . S
O438 C435 1.238 . S
O439 Co433 2.052 . S
O439 C435 1.241 . S
O440 Co428 2.137 . S
O440 C431 1.247 . S
O441 Co428 2.244 . S
O441 C431 1.272 . S
O441 Co433 2.135 . S
Co442 O443 2.216 . S
Co442 O444 2.091 . S
Co442 O446 2.004 . S
Co442 O452 2.021 . S
Co442 O454 2.137 . S
Co442 O455 2.244 . S
O443 Co442 2.216 . S
O443 C450 1.247 . S
O444 Co442 2.091 . S
O444 C450 1.261 . S
C445 O454 1.247 . S
C445 O455 1.272 . S
O446 Co442 2.004 . S
O446 C451 1.259 . S
Co447 O448 2.061 . S
Co447 O453 2.052 . S
Co447 O455 2.135 . S
O448 Co447 2.061 . S
O448 C451 1.235 . S
C449 O452 1.238 . S
C449 O453 1.241 . S
C450 O443 1.247 . S
C450 O444 1.261 . S
C451 O446 1.259 . S
C451 O448 1.235 . S
O452 Co442 2.021 . S
O452 C449 1.238 . S
O453 Co447 2.052 . S
O453 C449 1.241 . S
O454 Co442 2.137 . S
O454 C445 1.247 . S
O455 Co442 2.244 . S
O455 C445 1.272 . S
O455 Co447 2.135 . S
Co456 O457 2.216 . S
Co456 O458 2.091 . S
Co456 O460 2.004 . S
Co456 O466 2.021 . S
Co456 O468 2.137 . S
Co456 O469 2.244 1_455 S
O457 Co456 2.216 . S
O457 C464 1.247 . S
O458 Co456 2.091 . S
O458 C464 1.261 . S
C459 O468 1.247 1_655 S
C459 O469 1.272 . S
O460 Co456 2.004 . S
O460 C465 1.259 . S
Co461 O462 2.064 . S
Co461 O467 2.051 . S
Co461 O469 2.134 1_455 S
O462 Co461 2.064 . S
O462 C465 1.235 . S
C463 O466 1.238 . S
C463 O467 1.241 . S
C464 O457 1.247 . S
C464 O458 1.261 . S
C465 O460 1.259 . S
C465 O462 1.235 . S
O466 Co456 2.021 . S
O466 C463 1.238 . S
O467 Co461 2.051 . S
O467 C463 1.241 . S
O468 Co456 2.137 . S
O468 C459 1.247 1_455 S
O469 Co456 2.244 1_655 S
O469 C459 1.272 . S
O469 Co461 2.134 1_655 S
Co470 O471 2.216 . S
Co470 O472 2.091 . S
Co470 O474 2.004 . S
Co470 O480 2.021 . S
Co470 O482 2.137 . S
Co470 O483 2.244 . S
O471 Co470 2.216 . S
O471 C478 1.247 . S
O472 Co470 2.091 . S
O472 C478 1.261 . S
C473 O482 1.247 . S
C473 O483 1.272 . S
O474 Co470 2.004 . S
O474 C479 1.259 . S
Co475 O476 2.061 . S
Co475 O481 2.052 . S
Co475 O483 2.135 . S
O476 Co475 2.061 . S
O476 C479 1.235 . S
C477 O480 1.238 . S
C477 O481 1.241 . S
C478 O471 1.247 . S
C478 O472 1.261 . S
C479 O474 1.259 . S
C479 O476 1.235 . S
O480 Co470 2.021 . S
O480 C477 1.238 . S
O481 Co475 2.052 . S
O481 C477 1.241 . S
O482 Co470 2.137 . S
O482 C473 1.247 . S
O483 Co470 2.244 . S
O483 C473 1.272 . S
O483 Co475 2.135 . S
Co484 O485 2.216 . S
Co484 O486 2.091 . S
Co484 O488 2.006 1_545 S
Co484 O494 2.021 . S
Co484 O496 2.137 . S
Co484 O497 2.244 . S
O485 Co484 2.216 . S
O485 C492 1.247 . S
O486 Co484 2.091 . S
O486 C492 1.261 . S
C487 O496 1.247 . S
C487 O497 1.272 . S
O488 Co484 2.006 1_565 S
O488 C493 1.265 . S
Co489 O490 2.061 . S
Co489 O495 2.052 . S
Co489 O497 2.135 . S
O490 Co489 2.061 . S
O490 C493 1.226 1_545 S
C491 O494 1.238 . S
C491 O495 1.241 . S
C492 O485 1.247 . S
C492 O486 1.261 . S
C493 O488 1.265 . S
C493 O490 1.226 1_565 S
O494 Co484 2.021 . S
O494 C491 1.238 . S
O495 Co489 2.052 . S
O495 C491 1.241 . S
O496 Co484 2.137 . S
O496 C487 1.247 . S
O497 Co484 2.244 . S
O497 C487 1.272 . S
O497 Co489 2.135 . S
Co498 O499 2.216 . S
Co498 O500 2.091 . S
Co498 O502 2.004 . S
Co498 O508 2.021 1_565 S
Co498 O510 2.137 . S
Co498 O511 2.244 . S
O499 Co498 2.216 . S
O499 C506 1.247 . S
O500 Co498 2.091 . S
O500 C506 1.261 . S
C501 O510 1.247 . S
C501 O511 1.320 . S
O502 Co498 2.004 . S
O502 C507 1.259 1_565 S
Co503 O504 2.061 . S
Co503 O509 2.052 . S
Co503 O511 2.083 1_545 S
O504 Co503 2.061 . S
O504 C507 1.235 . S
C505 O508 1.238 . S
C505 O509 1.241 . S
C506 O499 1.247 . S
C506 O500 1.261 . S
C507 O502 1.259 1_545 S
C507 O504 1.235 . S
O508 Co498 2.021 1_545 S
O508 C505 1.238 . S
O509 Co503 2.052 . S
O509 C505 1.241 . S
O510 Co498 2.137 . S
O510 C501 1.247 . S
O511 Co498 2.244 . S
O511 C501 1.320 . S
O511 Co503 2.083 1_565 S
Co512 O513 2.216 . S
Co512 O514 2.091 . S
Co512 O516 2.004 . S
Co512 O522 2.021 . S
Co512 O524 2.137 . S
Co512 O525 2.244 . S
O513 Co512 2.216 . S
O513 C520 1.247 . S
O514 Co512 2.091 . S
O514 C520 1.261 . S
C515 O524 1.247 . S
C515 O525 1.272 . S
O516 Co512 2.004 . S
O516 C521 1.259 . S
Co517 O518 2.061 . S
Co517 O523 2.052 . S
Co517 O525 2.135 . S
O518 Co517 2.061 . S
O518 C521 1.235 . S
C519 O522 1.238 . S
C519 O523 1.241 . S
C520 O513 1.247 . S
C520 O514 1.261 . S
C521 O516 1.259 . S
C521 O518 1.235 . S
O522 Co512 2.021 . S
O522 C519 1.238 . S
O523 Co517 2.052 . S
O523 C519 1.241 . S
O524 Co512 2.137 . S
O524 C515 1.247 . S
O525 Co512 2.244 . S
O525 C515 1.272 . S
O525 Co517 2.135 . S
Co526 O527 2.216 . S
Co526 O528 2.091 . S
Co526 O530 2.004 . S
Co526 O536 2.021 . S
Co526 O538 2.137 . S
Co526 O539 2.244 . S
O527 Co526 2.216 . S
O527 C534 1.247 . S
O528 Co526 2.091 . S
O528 C534 1.261 . S
C529 O538 1.247 . S
C529 O539 1.272 . S
O530 Co526 2.004 . S
O530 C535 1.259 . S
Co531 O532 2.061 . S
Co531 O537 2.052 . S
Co531 O539 2.135 . S
O532 Co531 2.061 . S
O532 C535 1.235 . S
C533 O536 1.238 . S
C533 O537 1.241 . S
C534 O527 1.247 . S
C534 O528 1.261 . S
C535 O530 1.259 . S
C535 O532 1.235 . S
O536 Co526 2.021 . S
O536 C533 1.238 . S
O537 Co531 2.052 . S
O537 C533 1.241 . S
O538 Co526 2.137 . S
O538 C529 1.247 . S
O539 Co526 2.244 . S
O539 C529 1.272 . S
O539 Co531 2.135 . S
Co540 O541 2.216 . S
Co540 O542 2.091 . S
Co540 O544 2.004 . S
Co540 O550 2.021 . S
Co540 O552 2.137 . S
Co540 O553 2.244 . S
O541 Co540 2.216 . S
O541 C548 1.247 . S
O542 Co540 2.091 . S
O542 C548 1.261 . S
C543 O552 1.247 . S
C543 O553 1.272 . S
O544 Co540 2.004 . S
O544 C549 1.259 . S
Co545 O546 2.061 . S
Co545 O551 2.052 . S
Co545 O553 2.135 . S
O546 Co545 2.061 . S
O546 C549 1.235 . S
C547 O550 1.238 . S
C547 O551 1.241 . S
C548 O541 1.247 . S
C548 O542 1.261 . S
C549 O544 1.259 . S
C549 O546 1.235 . S
O550 Co540 2.021 . S
O550 C547 1.238 . S
O551 Co545 2.052 . S
O551 C547 1.241 . S
O552 Co540 2.137 . S
O552 C543 1.247 . S
O553 Co540 2.244 . S
O553 C543 1.272 . S
O553 Co545 2.135 . S
Co554 O555 2.216 . S
Co554 O556 2.091 . S
Co554 O558 2.004 . S
Co554 O564 2.021 . S
Co554 O566 2.137 1_565 S
Co554 O567 2.244 1_565 S
O555 Co554 2.216 . S
O555 C562 1.247 . S
O556 Co554 2.091 . S
O556 C562 1.261 . S
C557 O566 1.247 . S
C557 O567 1.272 . S
O558 Co554 2.004 . S
O558 C563 1.259 1_565 S
Co559 O560 2.061 . S
Co559 O565 2.052 1_545 S
Co559 O567 2.135 . S
O560 Co559 2.061 . S
O560 C563 1.235 . S
C561 O564 1.238 . S
C561 O565 1.241 . S
C562 O555 1.247 . S
C562 O556 1.261 . S
C563 O558 1.259 1_545 S
C563 O560 1.235 . S
O564 Co554 2.021 . S
O564 C561 1.238 . S
O565 Co559 2.052 1_565 S
O565 C561 1.241 . S
O566 Co554 2.137 1_545 S
O566 C557 1.247 . S
O567 Co554 2.244 1_545 S
O567 C557 1.272 . S
O567 Co559 2.135 . S
Co568 O569 2.216 . S
Co568 O570 2.091 . S
Co568 O572 2.004 . S
Co568 O578 2.021 . S
Co568 O580 2.137 . S
Co568 O581 2.244 . S
O569 Co568 2.216 . S
O569 C576 1.247 . S
O570 Co568 2.091 . S
O570 C576 1.261 . S
C571 O580 1.247 . S
C571 O581 1.272 . S
O572 Co568 2.004 . S
O572 C577 1.259 . S
Co573 O574 2.061 . S
Co573 O579 2.052 . S
Co573 O581 2.135 . S
O574 Co573 2.061 . S
O574 C577 1.235 . S
C575 O578 1.238 . S
C575 O579 1.241 . S
C576 O569 1.247 . S
C576 O570 1.261 . S
C577 O572 1.259 . S
C577 O574 1.235 . S
O578 Co568 2.021 . S
O578 C575 1.238 . S
O579 Co573 2.052 . S
O579 C575 1.241 . S
O580 Co568 2.137 . S
O580 C571 1.247 . S
O581 Co568 2.244 . S
O581 C571 1.272 . S
O581 Co573 2.135 . S
Co582 O583 2.216 . S
Co582 O584 2.091 . S
Co582 O586 2.004 . S
Co582 O592 2.021 . S
Co582 O594 2.137 . S
Co582 O595 2.244 . S
O583 Co582 2.216 . S
O583 C590 1.247 . S
O584 Co582 2.091 . S
O584 C590 1.261 . S
C585 O594 1.247 . S
C585 O595 1.272 . S
O586 Co582 2.004 . S
O586 C591 1.259 . S
Co587 O588 2.061 . S
Co587 O593 2.052 . S
Co587 O595 2.135 . S
O588 Co587 2.061 . S
O588 C591 1.235 . S
C589 O592 1.238 . S
C589 O593 1.241 . S
C590 O583 1.247 . S
C590 O584 1.261 . S
C591 O586 1.259 . S
C591 O588 1.235 . S
O592 Co582 2.021 . S
O592 C589 1.238 . S
O593 Co587 2.052 . S
O593 C589 1.241 . S
O594 Co582 2.137 . S
O594 C585 1.247 . S
O595 Co582 2.244 . S
O595 C585 1.272 . S
O595 Co587 2.135 . S
Co596 O597 2.216 . S
Co596 O598 2.091 . S
Co596 O600 2.004 . S
Co596 O606 2.021 . S
Co596 O608 2.137 . S
Co596 O609 2.244 . S
O597 Co596 2.216 . S
O597 C604 1.247 . S
O598 Co596 2.091 . S
O598 C604 1.261 . S
C599 O608 1.247 . S
C599 O609 1.272 . S
O600 Co596 2.004 . S
O600 C605 1.259 . S
Co601 O602 2.061 . S
Co601 O607 2.052 . S
Co601 O609 2.135 . S
O602 Co601 2.061 . S
O602 C605 1.235 . S
C603 O606 1.238 . S
C603 O607 1.241 . S
C604 O597 1.247 . S
C604 O598 1.261 . S
C605 O600 1.259 . S
C605 O602 1.235 . S
O606 Co596 2.021 . S
O606 C603 1.238 . S
O607 Co601 2.052 . S
O607 C603 1.241 . S
O608 Co596 2.137 . S
O608 C599 1.247 . S
O609 Co596 2.244 . S
O609 C599 1.272 . S
O609 Co601 2.135 . S
Co610 O611 2.216 . S
Co610 O612 2.091 . S
Co610 O614 2.004 1_655 S
Co610 O620 2.021 . S
Co610 O622 2.137 . S
Co610 O623 2.244 . S
O611 Co610 2.216 . S
O611 C618 1.247 . S
O612 Co610 2.091 . S
O612 C618 1.261 . S
C613 O622 1.247 . S
C613 O623 1.272 . S
O614 Co610 2.004 1_455 S
O614 C619 1.259 . S
Co615 O616 2.061 1_655 S
Co615 O621 2.052 . S
Co615 O623 2.135 . S
O616 Co615 2.061 1_455 S
O616 C619 1.235 . S
C617 O620 1.238 . S
C617 O621 1.241 . S
C618 O611 1.247 . S
C618 O612 1.261 . S
C619 O614 1.259 . S
C619 O616 1.235 . S
O620 Co610 2.021 . S
O620 C617 1.238 . S
O621 Co615 2.052 . S
O621 C617 1.241 . S
O622 Co610 2.137 . S
O622 C613 1.247 . S
O623 Co610 2.244 . S
O623 C613 1.272 . S
O623 Co615 2.135 . S
Co624 O625 2.216 . S
Co624 O626 2.091 . S
Co624 O628 2.004 . S
Co624 O634 2.021 . S
Co624 O636 2.137 . S
Co624 O637 2.244 . S
O625 Co624 2.216 . S
O625 C632 1.247 . S
O626 Co624 2.091 . S
O626 C632 1.261 . S
C627 O636 1.247 . S
C627 O637 1.272 . S
O628 Co624 2.004 . S
O628 C633 1.259 . S
Co629 O630 2.061 . S
Co629 O635 2.052 . S
Co629 O637 2.135 . S
O630 Co629 2.061 . S
O630 C633 1.235 . S
C631 O634 1.238 . S
C631 O635 1.241 . S
C632 O625 1.247 . S
C632 O626 1.261 . S
C633 O628 1.259 . S
C633 O630 1.235 . S
O634 Co624 2.021 . S
O634 C631 1.238 . S
O635 Co629 2.052 . S
O635 C631 1.241 . S
O636 Co624 2.137 . S
O636 C627 1.247 . S
O637 Co624 2.244 . S
O637 C627 1.272 . S
O637 Co629 2.135 . S
Co638 O639 2.216 . S
Co638 O640 2.091 . S
Co638 O642 2.004 1_655 S
Co638 O648 2.021 . S
Co638 O650 2.137 . S
Co638 O651 2.244 . S
O639 Co638 2.216 . S
O639 C646 1.247 . S
O640 Co638 2.091 . S
O640 C646 1.261 . S
C641 O650 1.247 . S
C641 O651 1.272 . S
O642 Co638 2.004 1_455 S
O642 C647 1.259 . S
Co643 O644 2.061 1_655 S
Co643 O649 2.052 . S
Co643 O651 2.135 . S
O644 Co643 2.061 1_455 S
O644 C647 1.235 . S
C645 O648 1.238 . S
C645 O649 1.241 . S
C646 O639 1.247 . S
C646 O640 1.261 . S
C647 O642 1.259 . S
C647 O644 1.235 . S
O648 Co638 2.021 . S
O648 C645 1.238 . S
O649 Co643 2.052 . S
O649 C645 1.241 . S
O650 Co638 2.137 . S
O650 C641 1.247 . S
O651 Co638 2.244 . S
O651 C641 1.272 . S
O651 Co643 2.135 . S
Co652 O653 2.216 . S
Co652 O654 2.091 . S
Co652 O656 2.004 . S
Co652 O662 2.021 . S
Co652 O664 2.137 . S
Co652 O665 2.244 . S
O653 Co652 2.216 . S
O653 C660 1.247 . S
O654 Co652 2.091 . S
O654 C660 1.261 . S
C655 O664 1.247 . S
C655 O665 1.272 . S
O656 Co652 2.004 . S
O656 C661 1.259 . S
Co657 O658 2.061 . S
Co657 O663 2.052 . S
Co657 O665 2.135 . S
O658 Co657 2.061 . S
O658 C661 1.235 . S
C659 O662 1.238 . S
C659 O663 1.241 . S
C660 O653 1.247 . S
C660 O654 1.261 . S
C661 O656 1.259 . S
C661 O658 1.235 . S
O662 Co652 2.021 . S
O662 C659 1.238 . S
O663 Co657 2.052 . S
O663 C659 1.241 . S
O664 Co652 2.137 . S
O664 C655 1.247 . S
O665 Co652 2.244 . S
O665 C655 1.272 . S
O665 Co657 2.135 . S
H666 C672 0.930 . S
H667 C675 0.930 1_556 S
H668 C676 0.930 . S
H669 C677 0.930 . S
H670 C680 0.930 . S
H671 C681 0.930 . S
C672 H666 0.930 . S
C672 C673 1.355 . S
C672 C674 1.415 . S
C673 C672 1.355 . S
C673 C675 1.419 . S
C674 C672 1.415 . S
C674 C679 1.425 . S
C674 C681 1.409 . S
C675 H667 0.930 1_554 S
C675 C673 1.419 . S
C675 C676 1.362 . S
C676 H668 0.930 . S
C676 C675 1.362 . S
C676 C679 1.409 . S
C677 H669 0.930 . S
C677 C678 1.355 . S
C677 C679 1.415 . S
C678 C677 1.355 . S
C678 C680 1.419 . S
C679 C674 1.425 . S
C679 C676 1.409 . S
C679 C677 1.415 . S
C680 H670 0.930 . S
C680 C678 1.419 . S
C680 C681 1.362 . S
C681 H671 0.930 . S
C681 C674 1.409 . S
C681 C680 1.362 . S
H682 C688 0.930 . S
H683 C691 0.930 . S
H684 C692 0.930 . S
H685 C693 0.930 . S
H686 C696 0.930 . S
H687 C697 0.930 . S
C688 H682 0.930 . S
C688 C689 1.355 . S
C688 C690 1.415 . S
C689 C688 1.355 . S
C689 C691 1.419 . S
C690 C688 1.415 . S
C690 C695 1.425 . S
C690 C697 1.409 . S
C691 H683 0.930 . S
C691 C689 1.419 . S
C691 C692 1.362 . S
C692 H684 0.930 . S
C692 C691 1.362 . S
C692 C695 1.409 . S
C693 H685 0.930 . S
C693 C694 1.355 . S
C693 C695 1.415 . S
C694 C693 1.355 . S
C694 C696 1.419 . S
C695 C690 1.425 . S
C695 C692 1.409 . S
C695 C693 1.415 . S
C696 H686 0.930 . S
C696 C694 1.419 . S
C696 C697 1.362 . S
C697 H687 0.930 . S
C697 C690 1.409 . S
C697 C696 1.362 . S
H698 C704 0.930 . S
H699 C707 0.930 . S
H700 C708 0.930 . S
H701 C709 0.930 . S
H702 C712 0.930 . S
H703 C713 0.942 . S
C704 H698 0.930 . S
C704 C705 1.355 . S
C704 C706 1.415 . S
C705 C704 1.355 . S
C705 C707 1.419 . S
C706 C704 1.415 . S
C706 C711 1.425 . S
C706 C713 1.409 . S
C707 H699 0.930 . S
C707 C705 1.419 . S
C707 C708 1.362 . S
C708 H700 0.930 . S
C708 C707 1.362 . S
C708 C711 1.409 . S
C709 H701 0.930 . S
C709 C710 1.355 . S
C709 C711 1.415 . S
C710 C709 1.355 . S
C710 C712 1.422 1_545 S
C711 C706 1.425 . S
C711 C708 1.409 . S
C711 C709 1.415 . S
C712 H702 0.930 . S
C712 C710 1.422 1_565 S
C712 C713 1.359 1_565 S
C713 H703 0.942 . S
C713 C706 1.409 . S
C713 C712 1.359 1_545 S
H714 C720 0.930 . S
H715 C723 0.930 . S
H716 C724 0.930 . S
H717 C725 0.930 . S
H718 C728 0.930 . S
H719 C729 0.930 . S
C720 H714 0.930 . S
C720 C721 1.355 . S
C720 C722 1.415 . S
C721 C720 1.355 . S
C721 C723 1.419 . S
C722 C720 1.415 . S
C722 C727 1.425 . S
C722 C729 1.409 . S
C723 H715 0.930 . S
C723 C721 1.419 . S
C723 C724 1.362 . S
C724 H716 0.930 . S
C724 C723 1.362 . S
C724 C727 1.409 . S
C725 H717 0.930 . S
C725 C726 1.355 . S
C725 C727 1.415 . S
C726 C725 1.355 . S
C726 C728 1.419 . S
C727 C722 1.425 . S
C727 C724 1.409 . S
C727 C725 1.415 . S
C728 H718 0.930 . S
C728 C726 1.419 . S
C728 C729 1.362 . S
C729 H719 0.930 . S
C729 C722 1.409 . S
C729 C728 1.362 . S
H730 C736 0.930 . S
H731 C739 0.930 . S
H732 C740 0.930 . S
H733 C741 0.930 . S
H734 C744 0.930 . S
H735 C745 0.930 . S
C736 H730 0.930 . S
C736 C737 1.355 . S
C736 C738 1.415 . S
C737 C736 1.355 . S
C737 C739 1.419 . S
C738 C736 1.415 . S
C738 C743 1.425 . S
C738 C745 1.409 1_455 S
C739 H731 0.930 . S
C739 C737 1.419 . S
C739 C740 1.362 . S
C740 H732 0.930 . S
C740 C739 1.362 . S
C740 C743 1.409 . S
C741 H733 0.930 . S
C741 C742 1.355 . S
C741 C743 1.415 . S
C742 C741 1.355 . S
C742 C744 1.419 1_455 S
C743 C738 1.425 . S
C743 C740 1.409 . S
C743 C741 1.415 . S
C744 H734 0.930 . S
C744 C742 1.419 1_655 S
C744 C745 1.362 . S
C745 H735 0.930 . S
C745 C738 1.409 1_655 S
C745 C744 1.362 . S
H746 C752 0.930 . S
H747 C755 0.930 . S
H748 C756 0.930 . S
H749 C757 0.930 . S
H750 C760 0.930 . S
H751 C761 0.930 . S
C752 H746 0.930 . S
C752 C753 1.355 . S
C752 C754 1.415 . S
C753 C752 1.355 . S
C753 C755 1.419 . S
C754 C752 1.415 . S
C754 C759 1.425 . S
C754 C761 1.409 . S
C755 H747 0.930 . S
C755 C753 1.419 . S
C755 C756 1.362 . S
C756 H748 0.930 . S
C756 C755 1.362 . S
C756 C759 1.409 . S
C757 H749 0.930 . S
C757 C758 1.355 . S
C757 C759 1.415 . S
C758 C757 1.355 . S
C758 C760 1.419 . S
C759 C754 1.425 . S
C759 C756 1.409 . S
C759 C757 1.415 . S
C760 H750 0.930 . S
C760 C758 1.419 . S
C760 C761 1.362 . S
C761 H751 0.930 . S
C761 C754 1.409 . S
C761 C760 1.362 . S
H762 C768 0.930 . S
H763 C771 0.930 . S
H764 C772 0.930 . S
H765 C773 0.956 . S
H766 C776 0.930 . S
H767 C777 0.930 . S
C768 H762 0.930 . S
C768 C769 1.355 . S
C768 C770 1.415 . S
C769 C768 1.355 . S
C769 C771 1.419 1_556 S
C770 C768 1.415 . S
C770 C775 1.425 . S
C770 C777 1.409 . S
C771 H763 0.930 . S
C771 C769 1.419 1_554 S
C771 C772 1.362 . S
C772 H764 0.930 . S
C772 C771 1.362 . S
C772 C775 1.409 1_554 S
C773 H765 0.956 . S
C773 C774 1.366 . S
C773 C775 1.380 1_655 S
C774 C773 1.366 . S
C774 C776 1.419 1_655 S
C775 C770 1.425 . S
C775 C772 1.409 1_556 S
C775 C773 1.380 1_455 S
C776 H766 0.930 . S
C776 C774 1.419 1_455 S
C776 C777 1.362 . S
C777 H767 0.930 . S
C777 C770 1.409 . S
C777 C776 1.362 . S
H778 C784 0.930 . S
H779 C787 0.930 . S
H780 C788 0.930 . S
H781 C789 0.930 . S
H782 C792 0.930 . S
H783 C793 0.930 . S
C784 H778 0.930 . S
C784 C785 1.355 . S
C784 C786 1.415 . S
C785 C784 1.355 . S
C785 C787 1.419 . S
C786 C784 1.415 . S
C786 C791 1.425 . S
C786 C793 1.409 . S
C787 H779 0.930 . S
C787 C785 1.419 . S
C787 C788 1.362 . S
C788 H780 0.930 . S
C788 C787 1.362 . S
C788 C791 1.409 . S
C789 H781 0.930 . S
C789 C790 1.355 . S
C789 C791 1.415 . S
C790 C789 1.355 . S
C790 C792 1.419 . S
C791 C786 1.425 . S
C791 C788 1.409 . S
C791 C789 1.415 . S
C792 H782 0.930 . S
C792 C790 1.419 . S
C792 C793 1.362 . S
C793 H783 0.930 . S
C793 C786 1.409 . S
C793 C792 1.362 . S
H794 C800 0.930 . S
H795 C803 0.943 . S
H796 C804 0.930 1_554 S
H797 C805 0.930 . S
H798 C808 0.930 . S
H799 C809 0.930 . S
C800 H794 0.930 . S
C800 C801 1.355 . S
C800 C802 1.415 . S
C801 C800 1.355 . S
C801 C803 1.411 1_556 S
C802 C800 1.415 . S
C802 C807 1.425 . S
C802 C809 1.409 . S
C803 H795 0.943 . S
C803 C801 1.411 1_554 S
C803 C804 1.357 1_554 S
C804 H796 0.930 1_556 S
C804 C803 1.357 1_556 S
C804 C807 1.409 . S
C805 H797 0.930 . S
C805 C806 1.355 . S
C805 C807 1.415 . S
C806 C805 1.355 . S
C806 C808 1.419 . S
C807 C802 1.425 . S
C807 C804 1.409 . S
C807 C805 1.415 . S
C808 H798 0.930 . S
C808 C806 1.419 . S
C808 C809 1.362 . S
C809 H799 0.930 . S
C809 C802 1.409 . S
C809 C808 1.362 . S
H810 C816 0.930 . S
H811 C819 0.930 . S
H812 C820 0.930 . S
H813 C821 0.930 . S
H814 C824 0.930 . S
H815 C825 0.930 . S
C816 H810 0.930 . S
C816 C817 1.355 1_545 S
C816 C818 1.415 . S
C817 C816 1.355 1_565 S
C817 C819 1.419 . S
C818 C816 1.415 . S
C818 C823 1.425 1_545 S
C818 C825 1.409 . S
C819 H811 0.930 . S
C819 C817 1.419 . S
C819 C820 1.362 . S
C820 H812 0.930 . S
C820 C819 1.362 . S
C820 C823 1.409 . S
C821 H813 0.930 . S
C821 C822 1.355 1_565 S
C821 C823 1.415 . S
C822 C821 1.355 1_545 S
C822 C824 1.419 . S
C823 C818 1.425 1_565 S
C823 C820 1.409 . S
C823 C821 1.415 . S
C824 H814 0.930 . S
C824 C822 1.419 . S
C824 C825 1.362 . S
C825 H815 0.930 . S
C825 C818 1.409 . S
C825 C824 1.362 . S
H826 C832 0.930 . S
H827 C835 0.930 . S
H828 C836 0.930 . S
H829 C837 0.930 . S
H830 C840 0.930 . S
H831 C841 0.930 . S
C832 H826 0.930 . S
C832 C833 1.355 . S
C832 C834 1.415 . S
C833 C832 1.355 . S
C833 C835 1.419 . S
C834 C832 1.415 . S
C834 C839 1.425 . S
C834 C841 1.409 . S
C835 H827 0.930 . S
C835 C833 1.419 . S
C835 C836 1.362 . S
C836 H828 0.930 . S
C836 C835 1.362 . S
C836 C839 1.409 . S
C837 H829 0.930 . S
C837 C838 1.355 . S
C837 C839 1.415 . S
C838 C837 1.355 . S
C838 C840 1.419 . S
C839 C834 1.425 . S
C839 C836 1.409 . S
C839 C837 1.415 . S
C840 H830 0.930 . S
C840 C838 1.419 . S
C840 C841 1.362 . S
C841 H831 0.930 . S
C841 C834 1.409 . S
C841 C840 1.362 . S
H842 C848 0.930 . S
H843 C851 0.930 . S
H844 C852 0.930 . S
H845 C853 0.930 . S
H846 C856 0.930 . S
H847 C857 0.930 . S
C848 H842 0.930 . S
C848 C849 1.355 . S
C848 C850 1.415 . S
C849 C848 1.355 . S
C849 C851 1.419 . S
C850 C848 1.415 . S
C850 C855 1.425 . S
C850 C857 1.409 . S
C851 H843 0.930 . S
C851 C849 1.419 . S
C851 C852 1.362 . S
C852 H844 0.930 . S
C852 C851 1.362 . S
C852 C855 1.409 . S
C853 H845 0.930 . S
C853 C854 1.355 . S
C853 C855 1.415 . S
C854 C853 1.355 . S
C854 C856 1.419 . S
C855 C850 1.425 . S
C855 C852 1.409 . S
C855 C853 1.415 . S
C856 H846 0.930 . S
C856 C854 1.419 . S
C856 C857 1.362 . S
C857 H847 0.930 . S
C857 C850 1.409 . S
C857 C856 1.362 . S
H858 C864 0.930 . S
H859 C867 0.930 . S
H860 C868 0.930 . S
H861 C869 0.930 . S
H862 C872 0.930 . S
H863 C873 0.930 . S
C864 H858 0.930 . S
C864 C865 1.355 . S
C864 C866 1.415 . S
C865 C864 1.355 . S
C865 C867 1.419 . S
C866 C864 1.415 . S
C866 C871 1.425 . S
C866 C873 1.409 . S
C867 H859 0.930 . S
C867 C865 1.419 . S
C867 C868 1.362 . S
C868 H860 0.930 . S
C868 C867 1.362 . S
C868 C871 1.409 . S
C869 H861 0.930 . S
C869 C870 1.355 . S
C869 C871 1.415 . S
C870 C869 1.355 . S
C870 C872 1.419 . S
C871 C866 1.425 . S
C871 C868 1.409 . S
C871 C869 1.415 . S
C872 H862 0.930 . S
C872 C870 1.419 . S
C872 C873 1.362 . S
C873 H863 0.930 . S
C873 C866 1.409 . S
C873 C872 1.362 . S
H874 C880 0.930 . S
H875 C883 0.919 . S
H876 C884 0.930 . S
H877 C885 0.930 . S
H878 C888 0.930 . S
H879 C889 0.930 1_565 S
C880 H874 0.930 . S
C880 C881 1.355 . S
C880 C882 1.415 1_565 S
C881 C880 1.355 . S
C881 C883 1.455 . S
C882 C880 1.415 1_545 S
C882 C887 1.425 . S
C882 C889 1.409 . S
C883 H875 0.919 . S
C883 C881 1.455 . S
C883 C884 1.338 1_565 S
C884 H876 0.930 . S
C884 C883 1.338 1_545 S
C884 C887 1.409 . S
C885 H877 0.930 . S
C885 C886 1.355 . S
C885 C887 1.415 . S
C886 C885 1.355 . S
C886 C888 1.419 . S
C887 C882 1.425 . S
C887 C884 1.409 . S
C887 C885 1.415 . S
C888 H878 0.930 . S
C888 C886 1.419 . S
C888 C889 1.362 . S
C889 H879 0.930 1_545 S
C889 C882 1.409 . S
C889 C888 1.362 . S
H890 C896 0.930 . S
H891 C899 0.930 . S
H892 C900 0.930 . S
H893 C901 0.930 . S
H894 C904 0.930 . S
H895 C905 0.930 . S
C896 H890 0.930 . S
C896 C897 1.355 . S
C896 C898 1.415 . S
C897 C896 1.355 . S
C897 C899 1.419 . S
C898 C896 1.415 . S
C898 C903 1.425 . S
C898 C905 1.409 . S
C899 H891 0.930 . S
C899 C897 1.419 . S
C899 C900 1.362 . S
C900 H892 0.930 . S
C900 C899 1.362 . S
C900 C903 1.409 . S
C901 H893 0.930 . S
C901 C902 1.355 . S
C901 C903 1.415 . S
C902 C901 1.355 . S
C902 C904 1.419 . S
C903 C898 1.425 . S
C903 C900 1.409 . S
C903 C901 1.415 . S
C904 H894 0.930 . S
C904 C902 1.419 . S
C904 C905 1.362 . S
C905 H895 0.930 . S
C905 C898 1.409 . S
C905 C904 1.362 . S
H906 C912 0.930 . S
H907 C915 0.930 . S
H908 C916 0.930 . S
H909 C917 0.930 . S
H910 C920 0.930 . S
H911 C921 0.930 . S
C912 H906 0.930 . S
C912 C913 1.355 . S
C912 C914 1.415 . S
C913 C912 1.355 . S
C913 C915 1.419 . S
C914 C912 1.415 . S
C914 C919 1.425 . S
C914 C921 1.409 . S
C915 H907 0.930 . S
C915 C913 1.419 . S
C915 C916 1.362 . S
C916 H908 0.930 . S
C916 C915 1.362 . S
C916 C919 1.409 . S
C917 H909 0.930 . S
C917 C918 1.355 . S
C917 C919 1.415 . S
C918 C917 1.355 . S
C918 C920 1.419 . S
C919 C914 1.425 . S
C919 C916 1.409 . S
C919 C917 1.415 . S
C920 H910 0.930 . S
C920 C918 1.419 . S
C920 C921 1.362 . S
C921 H911 0.930 . S
C921 C914 1.409 . S
C921 C920 1.362 . S
H922 C928 0.930 . S
H923 C931 0.930 . S
H924 C932 0.930 . S
H925 C933 0.930 . S
H926 C936 0.930 . S
H927 C937 0.930 . S
C928 H922 0.930 . S
C928 C929 1.355 . S
C928 C930 1.415 . S
C929 C928 1.355 . S
C929 C931 1.419 . S
C930 C928 1.415 . S
C930 C935 1.425 . S
C930 C937 1.409 . S
C931 H923 0.930 . S
C931 C929 1.419 . S
C931 C932 1.362 . S
C932 H924 0.930 . S
C932 C931 1.362 . S
C932 C935 1.409 . S
C933 H925 0.930 . S
C933 C934 1.355 . S
C933 C935 1.415 . S
C934 C933 1.355 . S
C934 C936 1.419 . S
C935 C930 1.425 . S
C935 C932 1.409 . S
C935 C933 1.415 . S
C936 H926 0.930 . S
C936 C934 1.419 . S
C936 C937 1.362 . S
C937 H927 0.930 . S
C937 C930 1.409 . S
C937 C936 1.362 . S
H938 C944 0.930 . S
H939 C947 0.930 . S
H940 C948 0.930 . S
H941 C949 0.930 . S
H942 C952 0.968 . S
H943 C953 0.930 1_545 S
C944 H938 0.930 . S
C944 C945 1.355 . S
C944 C946 1.415 . S
C945 C944 1.355 . S
C945 C947 1.419 . S
C946 C944 1.415 . S
C946 C951 1.425 . S
C946 C953 1.409 . S
C947 H939 0.930 . S
C947 C945 1.419 . S
C947 C948 1.362 . S
C948 H940 0.930 . S
C948 C947 1.362 . S
C948 C951 1.409 . S
C949 H941 0.930 . S
C949 C950 1.355 . S
C949 C951 1.415 . S
C950 C949 1.355 . S
C950 C952 1.373 1_565 S
C951 C946 1.425 . S
C951 C948 1.409 . S
C951 C949 1.415 . S
C952 H942 0.968 . S
C952 C950 1.373 1_545 S
C952 C953 1.371 1_545 S
C953 H943 0.930 1_565 S
C953 C946 1.409 . S
C953 C952 1.371 1_565 S
H954 C960 0.930 . S
H955 C963 0.930 . S
H956 C964 0.930 . S
H957 C965 0.930 . S
H958 C968 0.930 . S
H959 C969 0.930 . S
C960 H954 0.930 . S
C960 C961 1.355 . S
C960 C962 1.415 . S
C961 C960 1.355 . S
C961 C963 1.419 . S
C962 C960 1.415 . S
C962 C967 1.425 . S
C962 C969 1.409 1_565 S
C963 H955 0.930 . S
C963 C961 1.419 . S
C963 C964 1.362 . S
C964 H956 0.930 . S
C964 C963 1.362 . S
C964 C967 1.409 . S
C965 H957 0.930 . S
C965 C966 1.355 . S
C965 C967 1.415 1_545 S
C966 C965 1.355 . S
C966 C968 1.419 . S
C967 C962 1.425 . S
C967 C964 1.409 . S
C967 C965 1.415 1_565 S
C968 H958 0.930 . S
C968 C966 1.419 . S
C968 C969 1.362 . S
C969 H959 0.930 . S
C969 C962 1.409 1_545 S
C969 C968 1.362 . S
H970 C976 0.930 . S
H971 C979 0.930 . S
H972 C980 0.930 . S
H973 C981 0.930 . S
H974 C984 0.930 . S
H975 C985 0.930 . S
C976 H970 0.930 . S
C976 C977 1.355 . S
C976 C978 1.415 . S
C977 C976 1.355 . S
C977 C979 1.419 . S
C978 C976 1.415 . S
C978 C983 1.425 . S
C978 C985 1.409 . S
C979 H971 0.930 . S
C979 C977 1.419 . S
C979 C980 1.362 . S
C980 H972 0.930 . S
C980 C979 1.362 . S
C980 C983 1.409 . S
C981 H973 0.930 . S
C981 C982 1.355 . S
C981 C983 1.415 . S
C982 C981 1.355 . S
C982 C984 1.419 . S
C983 C978 1.425 . S
C983 C980 1.409 . S
C983 C981 1.415 . S
C984 H974 0.930 . S
C984 C982 1.419 . S
C984 C985 1.362 . S
C985 H975 0.930 . S
C985 C978 1.409 . S
C985 C984 1.362 . S
H986 C992 0.930 . S
H987 C995 0.930 . S
H988 C996 0.930 . S
H989 C997 0.930 . S
H990 C1000 0.930 . S
H991 C1001 0.930 . S
C992 H986 0.930 . S
C992 C993 1.355 . S
C992 C994 1.415 . S
C993 C992 1.355 . S
C993 C995 1.419 . S
C994 C992 1.415 . S
C994 C999 1.425 . S
C994 C1001 1.409 . S
C995 H987 0.930 . S
C995 C993 1.419 . S
C995 C996 1.362 . S
C996 H988 0.930 . S
C996 C995 1.362 . S
C996 C999 1.409 . S
C997 H989 0.930 . S
C997 C998 1.355 . S
C997 C999 1.415 . S
C998 C997 1.355 . S
C998 C1000 1.419 . S
C999 C994 1.425 . S
C999 C996 1.409 . S
C999 C997 1.415 . S
C1000 H990 0.930 . S
C1000 C998 1.419 . S
C1000 C1001 1.362 . S
C1001 H991 0.930 . S
C1001 C994 1.409 . S
C1001 C1000 1.362 . S
H1002 C1008 0.930 . S
H1003 C1011 0.930 . S
H1004 C1012 0.930 . S
H1005 C1013 0.930 . S
H1006 C1016 0.930 . S
H1007 C1017 0.930 . S
C1008 H1002 0.930 . S
C1008 C1009 1.355 . S
C1008 C1010 1.415 . S
C1009 C1008 1.355 . S
C1009 C1011 1.419 . S
C1010 C1008 1.415 . S
C1010 C1015 1.425 . S
C1010 C1017 1.409 . S
C1011 H1003 0.930 . S
C1011 C1009 1.419 . S
C1011 C1012 1.362 . S
C1012 H1004 0.930 . S
C1012 C1011 1.362 . S
C1012 C1015 1.409 . S
C1013 H1005 0.930 . S
C1013 C1014 1.355 . S
C1013 C1015 1.415 . S
C1014 C1013 1.355 . S
C1014 C1016 1.419 . S
C1015 C1010 1.425 . S
C1015 C1012 1.409 . S
C1015 C1013 1.415 . S
C1016 H1006 0.930 . S
C1016 C1014 1.419 . S
C1016 C1017 1.362 . S
C1017 H1007 0.930 . S
C1017 C1010 1.409 . S
C1017 C1016 1.362 . S
H1018 C1024 0.930 . S
H1019 C1027 0.930 . S
H1020 C1028 0.930 . S
H1021 C1029 0.930 . S
H1022 C1032 0.930 . S
H1023 C1033 0.930 . S
C1024 H1018 0.930 . S
C1024 C1025 1.355 . S
C1024 C1026 1.413 . S
C1025 C1024 1.355 . S
C1025 C1027 1.419 1_565 S
C1026 C1024 1.413 . S
C1026 C1031 1.426 1_565 S
C1026 C1033 1.410 . S
C1027 H1019 0.930 . S
C1027 C1025 1.419 1_545 S
C1027 C1028 1.362 . S
C1028 H1020 0.930 . S
C1028 C1027 1.362 . S
C1028 C1031 1.409 . S
C1029 H1021 0.930 . S
C1029 C1030 1.355 . S
C1029 C1031 1.415 . S
C1030 C1029 1.355 . S
C1030 C1032 1.419 . S
C1031 C1026 1.426 1_545 S
C1031 C1028 1.409 . S
C1031 C1029 1.415 . S
C1032 H1022 0.930 . S
C1032 C1030 1.419 . S
C1032 C1033 1.362 1_545 S
C1033 H1023 0.930 . S
C1033 C1026 1.410 . S
C1033 C1032 1.362 1_565 S
H1034 C1040 0.930 . S
H1035 C1043 0.930 . S
H1036 C1044 0.930 . S
H1037 C1045 0.930 . S
H1038 C1048 0.930 . S
H1039 C1049 0.930 . S
C1040 H1034 0.930 . S
C1040 C1041 1.355 . S
C1040 C1042 1.415 . S
C1041 C1040 1.355 . S
C1041 C1043 1.419 . S
C1042 C1040 1.415 . S
C1042 C1047 1.425 . S
C1042 C1049 1.409 . S
C1043 H1035 0.930 . S
C1043 C1041 1.419 . S
C1043 C1044 1.362 . S
C1044 H1036 0.930 . S
C1044 C1043 1.362 . S
C1044 C1047 1.409 . S
C1045 H1037 0.930 . S
C1045 C1046 1.355 . S
C1045 C1047 1.415 . S
C1046 C1045 1.355 . S
C1046 C1048 1.419 . S
C1047 C1042 1.425 . S
C1047 C1044 1.409 . S
C1047 C1045 1.415 . S
C1048 H1038 0.930 . S
C1048 C1046 1.419 . S
C1048 C1049 1.362 . S
C1049 H1039 0.930 . S
C1049 C1042 1.409 . S
C1049 C1048 1.362 . S
H1050 C1056 0.930 . S
H1051 C1059 0.930 . S
H1052 C1060 0.930 . S
H1053 C1061 0.930 . S
H1054 C1064 0.930 . S
H1055 C1065 0.930 . S
C1056 H1050 0.930 . S
C1056 C1057 1.355 . S
C1056 C1058 1.415 . S
C1057 C1056 1.355 . S
C1057 C1059 1.419 . S
C1058 C1056 1.415 . S
C1058 C1063 1.425 . S
C1058 C1065 1.409 . S
C1059 H1051 0.930 . S
C1059 C1057 1.419 . S
C1059 C1060 1.362 . S
C1060 H1052 0.930 . S
C1060 C1059 1.362 . S
C1060 C1063 1.409 . S
C1061 H1053 0.930 . S
C1061 C1062 1.355 . S
C1061 C1063 1.415 . S
C1062 C1061 1.355 . S
C1062 C1064 1.419 . S
C1063 C1058 1.425 . S
C1063 C1060 1.409 . S
C1063 C1061 1.415 . S
C1064 H1054 0.930 . S
C1064 C1062 1.419 . S
C1064 C1065 1.362 . S
C1065 H1055 0.930 . S
C1065 C1058 1.409 . S
C1065 C1064 1.362 . S
H1066 C1072 0.930 . S
H1067 C1075 0.930 . S
H1068 C1076 0.930 . S
H1069 C1077 0.930 . S
H1070 C1080 0.930 . S
H1071 C1081 0.930 . S
C1072 H1066 0.930 . S
C1072 C1073 1.355 . S
C1072 C1074 1.415 . S
C1073 C1072 1.355 . S
C1073 C1075 1.419 . S
C1074 C1072 1.415 . S
C1074 C1079 1.425 . S
C1074 C1081 1.409 . S
C1075 H1067 0.930 . S
C1075 C1073 1.419 . S
C1075 C1076 1.362 . S
C1076 H1068 0.930 . S
C1076 C1075 1.362 . S
C1076 C1079 1.409 . S
C1077 H1069 0.930 . S
C1077 C1078 1.355 . S
C1077 C1079 1.415 . S
C1078 C1077 1.355 . S
C1078 C1080 1.419 . S
C1079 C1074 1.425 . S
C1079 C1076 1.409 . S
C1079 C1077 1.415 . S
C1080 H1070 0.930 . S
C1080 C1078 1.419 . S
C1080 C1081 1.362 . S
C1081 H1071 0.930 . S
C1081 C1074 1.409 . S
C1081 C1080 1.362 . S
H1082 C1088 0.930 . S
H1083 C1091 0.930 . S
H1084 C1092 0.930 . S
H1085 C1093 0.930 . S
H1086 C1096 0.930 . S
H1087 C1097 0.930 . S
C1088 H1082 0.930 . S
C1088 C1089 1.355 . S
C1088 C1090 1.415 . S
C1089 C1088 1.355 . S
C1089 C1091 1.419 . S
C1090 C1088 1.415 . S
C1090 C1095 1.425 . S
C1090 C1097 1.409 . S
C1091 H1083 0.930 . S
C1091 C1089 1.419 . S
C1091 C1092 1.362 . S
C1092 H1084 0.930 . S
C1092 C1091 1.362 . S
C1092 C1095 1.409 . S
C1093 H1085 0.930 . S
C1093 C1094 1.355 . S
C1093 C1095 1.415 . S
C1094 C1093 1.355 . S
C1094 C1096 1.419 . S
C1095 C1090 1.425 . S
C1095 C1092 1.409 . S
C1095 C1093 1.415 . S
C1096 H1086 0.930 . S
C1096 C1094 1.419 . S
C1096 C1097 1.362 . S
C1097 H1087 0.930 . S
C1097 C1090 1.409 . S
C1097 C1096 1.362 . S
H1098 C1104 0.930 . S
H1099 C1107 0.930 . S
H1100 C1108 0.930 . S
H1101 C1109 0.930 . S
H1102 C1112 0.930 . S
H1103 C1113 0.930 . S
C1104 H1098 0.930 . S
C1104 C1105 1.355 . S
C1104 C1106 1.415 . S
C1105 C1104 1.355 . S
C1105 C1107 1.419 . S
C1106 C1104 1.415 . S
C1106 C1111 1.425 . S
C1106 C1113 1.409 . S
C1107 H1099 0.930 . S
C1107 C1105 1.419 . S
C1107 C1108 1.362 . S
C1108 H1100 0.930 . S
C1108 C1107 1.362 . S
C1108 C1111 1.409 . S
C1109 H1101 0.930 . S
C1109 C1110 1.355 . S
C1109 C1111 1.415 . S
C1110 C1109 1.355 . S
C1110 C1112 1.419 . S
C1111 C1106 1.425 . S
C1111 C1108 1.409 . S
C1111 C1109 1.415 . S
C1112 H1102 0.930 . S
C1112 C1110 1.419 . S
C1112 C1113 1.362 . S
C1113 H1103 0.930 . S
C1113 C1106 1.409 . S
C1113 C1112 1.362 . S
H1114 C1120 0.930 . S
H1115 C1123 0.930 . S
H1116 C1124 0.930 . S
H1117 C1125 0.930 . S
H1118 C1128 0.930 . S
H1119 C1129 0.930 . S
C1120 H1114 0.930 . S
C1120 C1121 1.355 . S
C1120 C1122 1.415 . S
C1121 C1120 1.355 . S
C1121 C1123 1.419 . S
C1122 C1120 1.415 . S
C1122 C1127 1.425 . S
C1122 C1129 1.409 . S
C1123 H1115 0.930 . S
C1123 C1121 1.419 . S
C1123 C1124 1.362 . S
C1124 H1116 0.930 . S
C1124 C1123 1.362 . S
C1124 C1127 1.409 . S
C1125 H1117 0.930 . S
C1125 C1126 1.355 . S
C1125 C1127 1.415 . S
C1126 C1125 1.355 . S
C1126 C1128 1.419 . S
C1127 C1122 1.425 . S
C1127 C1124 1.409 . S
C1127 C1125 1.415 . S
C1128 H1118 0.930 . S
C1128 C1126 1.419 . S
C1128 C1129 1.362 . S
C1129 H1119 0.930 . S
C1129 C1122 1.409 . S
C1129 C1128 1.362 . S
H1130 C1136 0.930 . S
H1131 C1139 0.930 . S
H1132 C1140 0.930 . S
H1133 C1141 0.930 . S
H1134 C1144 0.930 . S
H1135 C1145 0.930 . S
C1136 H1130 0.930 . S
C1136 C1137 1.355 . S
C1136 C1138 1.415 . S
C1137 C1136 1.355 . S
C1137 C1139 1.419 . S
C1138 C1136 1.415 . S
C1138 C1143 1.425 . S
C1138 C1145 1.409 . S
C1139 H1131 0.930 . S
C1139 C1137 1.419 . S
C1139 C1140 1.362 . S
C1140 H1132 0.930 . S
C1140 C1139 1.362 . S
C1140 C1143 1.409 . S
C1141 H1133 0.930 . S
C1141 C1142 1.355 . S
C1141 C1143 1.415 . S
C1142 C1141 1.355 . S
C1142 C1144 1.419 . S
C1143 C1138 1.425 . S
C1143 C1140 1.409 . S
C1143 C1141 1.415 . S
C1144 H1134 0.930 . S
C1144 C1142 1.419 . S
C1144 C1145 1.362 . S
C1145 H1135 0.930 . S
C1145 C1138 1.409 . S
C1145 C1144 1.362 . S
H1146 C1152 0.930 . S
H1147 C1155 0.930 . S
H1148 C1156 0.930 . S
H1149 C1157 0.930 . S
H1150 C1160 0.930 . S
H1151 C1161 0.930 . S
C1152 H1146 0.930 . S
C1152 C1153 1.355 . S
C1152 C1154 1.415 . S
C1153 C1152 1.355 . S
C1153 C1155 1.419 . S
C1154 C1152 1.415 . S
C1154 C1159 1.425 . S
C1154 C1161 1.409 . S
C1155 H1147 0.930 . S
C1155 C1153 1.419 . S
C1155 C1156 1.362 . S
C1156 H1148 0.930 . S
C1156 C1155 1.362 . S
C1156 C1159 1.409 . S
C1157 H1149 0.930 . S
C1157 C1158 1.355 . S
C1157 C1159 1.415 . S
C1158 C1157 1.355 . S
C1158 C1160 1.419 . S
C1159 C1154 1.425 . S
C1159 C1156 1.409 . S
C1159 C1157 1.415 . S
C1160 H1150 0.930 . S
C1160 C1158 1.419 . S
C1160 C1161 1.362 . S
C1161 H1151 0.930 . S
C1161 C1154 1.409 . S
C1161 C1160 1.362 . S
H1162 C1168 0.930 . S
H1163 C1171 0.930 . S
H1164 C1172 0.930 . S
H1165 C1173 0.930 . S
H1166 C1176 0.930 . S
H1167 C1177 0.930 . S
C1168 H1162 0.930 . S
C1168 C1169 1.355 . S
C1168 C1170 1.415 . S
C1169 C1168 1.355 . S
C1169 C1171 1.419 . S
C1170 C1168 1.415 . S
C1170 C1175 1.425 . S
C1170 C1177 1.409 . S
C1171 H1163 0.930 . S
C1171 C1169 1.419 . S
C1171 C1172 1.362 . S
C1172 H1164 0.930 . S
C1172 C1171 1.362 . S
C1172 C1175 1.409 . S
C1173 H1165 0.930 . S
C1173 C1174 1.355 . S
C1173 C1175 1.415 . S
C1174 C1173 1.355 . S
C1174 C1176 1.419 . S
C1175 C1170 1.425 . S
C1175 C1172 1.409 . S
C1175 C1173 1.415 . S
C1176 H1166 0.930 . S
C1176 C1174 1.419 . S
C1176 C1177 1.362 . S
C1177 H1167 0.930 . S
C1177 C1170 1.409 . S
C1177 C1176 1.362 . S
H1178 C1184 0.930 . S
H1179 C1187 0.930 . S
H1180 C1188 0.930 . S
H1181 C1189 0.930 . S
H1182 C1192 0.930 1_455 S
H1183 C1193 0.930 . S
C1184 H1178 0.930 . S
C1184 C1185 1.355 . S
C1184 C1186 1.415 . S
C1185 C1184 1.355 . S
C1185 C1187 1.419 . S
C1186 C1184 1.415 . S
C1186 C1191 1.425 . S
C1186 C1193 1.409 . S
C1187 H1179 0.930 . S
C1187 C1185 1.419 . S
C1187 C1188 1.362 . S
C1188 H1180 0.930 . S
C1188 C1187 1.362 . S
C1188 C1191 1.409 . S
C1189 H1181 0.930 . S
C1189 C1190 1.355 . S
C1189 C1191 1.415 . S
C1190 C1189 1.355 . S
C1190 C1192 1.419 . S
C1191 C1186 1.425 . S
C1191 C1188 1.409 . S
C1191 C1189 1.415 . S
C1192 H1182 0.930 1_655 S
C1192 C1190 1.419 . S
C1192 C1193 1.362 . S
C1193 H1183 0.930 . S
C1193 C1186 1.409 . S
C1193 C1192 1.362 . S
H1194 C1200 0.930 . S
H1195 C1203 0.930 . S
H1196 C1204 0.930 . S
H1197 C1205 0.930 . S
H1198 C1208 0.930 . S
H1199 C1209 0.930 . S
C1200 H1194 0.930 . S
C1200 C1201 1.355 . S
C1200 C1202 1.415 . S
C1201 C1200 1.355 . S
C1201 C1203 1.419 . S
C1202 C1200 1.415 . S
C1202 C1207 1.425 . S
C1202 C1209 1.409 . S
C1203 H1195 0.930 . S
C1203 C1201 1.419 . S
C1203 C1204 1.362 . S
C1204 H1196 0.930 . S
C1204 C1203 1.362 . S
C1204 C1207 1.409 . S
C1205 H1197 0.930 . S
C1205 C1206 1.355 . S
C1205 C1207 1.415 . S
C1206 C1205 1.355 . S
C1206 C1208 1.419 . S
C1207 C1202 1.425 . S
C1207 C1204 1.409 . S
C1207 C1205 1.415 . S
C1208 H1198 0.930 . S
C1208 C1206 1.419 . S
C1208 C1209 1.362 . S
C1209 H1199 0.930 . S
C1209 C1202 1.409 . S
C1209 C1208 1.362 . S
H1210 C1216 0.930 . S
H1211 C1219 0.930 . S
H1212 C1220 0.930 . S
H1213 C1221 0.930 . S
H1214 C1224 0.930 . S
H1215 C1225 0.930 . S
C1216 H1210 0.930 . S
C1216 C1217 1.355 . S
C1216 C1218 1.415 . S
C1217 C1216 1.355 . S
C1217 C1219 1.419 . S
C1218 C1216 1.415 . S
C1218 C1223 1.425 . S
C1218 C1225 1.409 . S
C1219 H1211 0.930 . S
C1219 C1217 1.419 . S
C1219 C1220 1.362 . S
C1220 H1212 0.930 . S
C1220 C1219 1.362 . S
C1220 C1223 1.409 . S
C1221 H1213 0.930 . S
C1221 C1222 1.355 . S
C1221 C1223 1.415 . S
C1222 C1221 1.355 . S
C1222 C1224 1.419 . S
C1223 C1218 1.425 . S
C1223 C1220 1.409 . S
C1223 C1221 1.415 . S
C1224 H1214 0.930 . S
C1224 C1222 1.419 . S
C1224 C1225 1.362 . S
C1225 H1215 0.930 . S
C1225 C1218 1.409 . S
C1225 C1224 1.362 . S
H1226 C1232 0.930 . S
H1227 C1235 0.930 . S
H1228 C1236 0.930 . S
H1229 C1237 0.930 . S
H1230 C1240 0.930 . S
H1231 C1241 0.930 . S
C1232 H1226 0.930 . S
C1232 C1233 1.355 . S
C1232 C1234 1.415 . S
C1233 C1232 1.355 . S
C1233 C1235 1.419 . S
C1234 C1232 1.415 . S
C1234 C1239 1.425 . S
C1234 C1241 1.409 . S
C1235 H1227 0.930 . S
C1235 C1233 1.419 . S
C1235 C1236 1.362 . S
C1236 H1228 0.930 . S
C1236 C1235 1.362 . S
C1236 C1239 1.409 . S
C1237 H1229 0.930 . S
C1237 C1238 1.355 . S
C1237 C1239 1.415 . S
C1238 C1237 1.355 . S
C1238 C1240 1.419 . S
C1239 C1234 1.425 . S
C1239 C1236 1.409 . S
C1239 C1237 1.415 . S
C1240 H1230 0.930 . S
C1240 C1238 1.419 . S
C1240 C1241 1.362 . S
C1241 H1231 0.930 . S
C1241 C1234 1.409 . S
C1241 C1240 1.362 . S
H1242 C1248 0.930 . S
H1243 C1251 0.930 . S
H1244 C1252 0.930 . S
H1245 C1253 0.930 . S
H1246 C1256 0.930 1_655 S
H1247 C1257 0.930 1_655 S
C1248 H1242 0.930 . S
C1248 C1249 1.355 . S
C1248 C1250 1.415 . S
C1249 C1248 1.355 . S
C1249 C1251 1.419 . S
C1250 C1248 1.415 . S
C1250 C1255 1.425 . S
C1250 C1257 1.409 . S
C1251 H1243 0.930 . S
C1251 C1249 1.419 . S
C1251 C1252 1.362 . S
C1252 H1244 0.930 . S
C1252 C1251 1.362 . S
C1252 C1255 1.409 . S
C1253 H1245 0.930 . S
C1253 C1254 1.355 . S
C1253 C1255 1.415 . S
C1254 C1253 1.355 . S
C1254 C1256 1.419 . S
C1255 C1250 1.425 . S
C1255 C1252 1.409 . S
C1255 C1253 1.415 . S
C1256 H1246 0.930 1_455 S
C1256 C1254 1.419 . S
C1256 C1257 1.362 . S
C1257 H1247 0.930 1_455 S
C1257 C1250 1.409 . S
C1257 C1256 1.362 . S
H1258 C1264 0.930 . S
H1259 C1267 0.930 . S
H1260 C1268 0.930 . S
H1261 C1269 0.930 . S
H1262 C1272 0.930 . S
H1263 C1273 0.930 . S
C1264 H1258 0.930 . S
C1264 C1265 1.355 . S
C1264 C1266 1.415 . S
C1265 C1264 1.355 . S
C1265 C1267 1.419 . S
C1266 C1264 1.415 . S
C1266 C1271 1.425 . S
C1266 C1273 1.409 . S
C1267 H1259 0.930 . S
C1267 C1265 1.419 . S
C1267 C1268 1.362 . S
C1268 H1260 0.930 . S
C1268 C1267 1.362 . S
C1268 C1271 1.409 . S
C1269 H1261 0.930 . S
C1269 C1270 1.355 . S
C1269 C1271 1.415 . S
C1270 C1269 1.355 . S
C1270 C1272 1.419 . S
C1271 C1266 1.425 . S
C1271 C1268 1.409 . S
C1271 C1269 1.415 . S
C1272 H1262 0.930 . S
C1272 C1270 1.419 . S
C1272 C1273 1.362 . S
C1273 H1263 0.930 . S
C1273 C1266 1.409 . S
C1273 C1272 1.362 . S
H1274 C1280 0.930 . S
H1275 C1283 0.930 . S
H1276 C1284 0.930 . S
H1277 C1285 0.930 . S
H1278 C1288 0.930 . S
H1279 C1289 0.930 . S
C1280 H1274 0.930 . S
C1280 C1281 1.355 1_565 S
C1280 C1282 1.408 1_565 S
C1281 C1280 1.355 1_545 S
C1281 C1283 1.419 . S
C1282 C1280 1.408 1_545 S
C1282 C1287 1.434 . S
C1282 C1289 1.408 1_545 S
C1283 H1275 0.930 . S
C1283 C1281 1.419 . S
C1283 C1284 1.362 . S
C1284 H1276 0.930 . S
C1284 C1283 1.362 . S
C1284 C1287 1.409 . S
C1285 H1277 0.930 . S
C1285 C1286 1.355 . S
C1285 C1287 1.415 . S
C1286 C1285 1.355 . S
C1286 C1288 1.419 1_545 S
C1287 C1282 1.434 . S
C1287 C1284 1.409 . S
C1287 C1285 1.415 . S
C1288 H1278 0.930 . S
C1288 C1286 1.419 1_565 S
C1288 C1289 1.362 . S
C1289 H1279 0.930 . S
C1289 C1282 1.408 1_565 S
C1289 C1288 1.362 . S
H1290 C1296 0.930 . S
H1291 C1299 0.930 . S
H1292 C1300 0.930 . S
H1293 C1301 0.930 . S
H1294 C1304 0.930 . S
H1295 C1305 0.930 . S
C1296 H1290 0.930 . S
C1296 C1297 1.355 . S
C1296 C1298 1.415 . S
C1297 C1296 1.355 . S
C1297 C1299 1.419 . S
C1298 C1296 1.415 . S
C1298 C1303 1.425 . S
C1298 C1305 1.409 . S
C1299 H1291 0.930 . S
C1299 C1297 1.419 . S
C1299 C1300 1.362 . S
C1300 H1292 0.930 . S
C1300 C1299 1.362 . S
C1300 C1303 1.409 . S
C1301 H1293 0.930 . S
C1301 C1302 1.355 . S
C1301 C1303 1.415 . S
C1302 C1301 1.355 . S
C1302 C1304 1.419 . S
C1303 C1298 1.425 . S
C1303 C1300 1.409 . S
C1303 C1301 1.415 . S
C1304 H1294 0.930 . S
C1304 C1302 1.419 . S
C1304 C1305 1.362 . S
C1305 H1295 0.930 . S
C1305 C1298 1.409 . S
C1305 C1304 1.362 . S
H1306 C1312 0.930 . S
H1307 C1315 0.930 . S
H1308 C1316 0.930 . S
H1309 C1317 0.930 . S
H1310 C1320 0.930 . S
H1311 C1321 0.930 . S
C1312 H1306 0.930 . S
C1312 C1313 1.355 . S
C1312 C1314 1.415 . S
C1313 C1312 1.355 . S
C1313 C1315 1.419 . S
C1314 C1312 1.415 . S
C1314 C1319 1.425 . S
C1314 C1321 1.409 . S
C1315 H1307 0.930 . S
C1315 C1313 1.419 . S
C1315 C1316 1.362 . S
C1316 H1308 0.930 . S
C1316 C1315 1.362 . S
C1316 C1319 1.409 . S
C1317 H1309 0.930 . S
C1317 C1318 1.355 . S
C1317 C1319 1.415 . S
C1318 C1317 1.355 . S
C1318 C1320 1.419 . S
C1319 C1314 1.425 . S
C1319 C1316 1.409 . S
C1319 C1317 1.415 . S
C1320 H1310 0.930 . S
C1320 C1318 1.419 . S
C1320 C1321 1.362 . S
C1321 H1311 0.930 . S
C1321 C1314 1.409 . S
C1321 C1320 1.362 . S
H1322 C1328 0.930 . S
H1323 C1331 0.930 . S
H1324 C1332 0.930 . S
H1325 C1333 0.930 . S
H1326 C1336 0.930 . S
H1327 C1337 0.930 . S
C1328 H1322 0.930 . S
C1328 C1329 1.355 . S
C1328 C1330 1.415 . S
C1329 C1328 1.355 . S
C1329 C1331 1.419 . S
C1330 C1328 1.415 . S
C1330 C1335 1.425 . S
C1330 C1337 1.409 . S
C1331 H1323 0.930 . S
C1331 C1329 1.419 . S
C1331 C1332 1.362 . S
C1332 H1324 0.930 . S
C1332 C1331 1.362 . S
C1332 C1335 1.409 . S
C1333 H1325 0.930 . S
C1333 C1334 1.355 . S
C1333 C1335 1.415 . S
C1334 C1333 1.355 . S
C1334 C1336 1.419 . S
C1335 C1330 1.425 . S
C1335 C1332 1.409 . S
C1335 C1333 1.415 . S
C1336 H1326 0.930 . S
C1336 C1334 1.419 . S
C1336 C1337 1.362 . S
C1337 H1327 0.930 . S
C1337 C1330 1.409 . S
C1337 C1336 1.362 . S
H1338 C1344 0.930 . S
H1339 C1347 0.930 . S
H1340 C1348 0.930 . S
H1341 C1349 0.930 . S
H1342 C1352 0.930 1_655 S
H1343 C1353 0.930 1_655 S
C1344 H1338 0.930 . S
C1344 C1345 1.355 . S
C1344 C1346 1.415 . S
C1345 C1344 1.355 . S
C1345 C1347 1.419 . S
C1346 C1344 1.415 . S
C1346 C1351 1.425 . S
C1346 C1353 1.409 . S
C1347 H1339 0.930 . S
C1347 C1345 1.419 . S
C1347 C1348 1.362 . S
C1348 H1340 0.930 . S
C1348 C1347 1.362 . S
C1348 C1351 1.409 . S
C1349 H1341 0.930 . S
C1349 C1350 1.355 . S
C1349 C1351 1.415 . S
C1350 C1349 1.355 . S
C1350 C1352 1.419 . S
C1351 C1346 1.425 . S
C1351 C1348 1.409 . S
C1351 C1349 1.415 . S
C1352 H1342 0.930 1_455 S
C1352 C1350 1.419 . S
C1352 C1353 1.362 . S
C1353 H1343 0.930 1_455 S
C1353 C1346 1.409 . S
C1353 C1352 1.362 . S
H1354 C1360 0.930 . S
H1355 C1363 0.930 . S
H1356 C1364 0.930 . S
H1357 C1365 0.930 . S
H1358 C1368 0.930 . S
H1359 C1369 0.930 . S
C1360 H1354 0.930 . S
C1360 C1361 1.355 . S
C1360 C1362 1.415 . S
C1361 C1360 1.355 . S
C1361 C1363 1.419 . S
C1362 C1360 1.415 . S
C1362 C1367 1.425 . S
C1362 C1369 1.409 . S
C1363 H1355 0.930 . S
C1363 C1361 1.419 . S
C1363 C1364 1.362 . S
C1364 H1356 0.930 . S
C1364 C1363 1.362 . S
C1364 C1367 1.409 . S
C1365 H1357 0.930 . S
C1365 C1366 1.355 . S
C1365 C1367 1.415 . S
C1366 C1365 1.355 . S
C1366 C1368 1.419 . S
C1367 C1362 1.425 . S
C1367 C1364 1.409 . S
C1367 C1365 1.415 . S
C1368 H1358 0.930 . S
C1368 C1366 1.419 . S
C1368 C1369 1.362 . S
C1369 H1359 0.930 . S
C1369 C1362 1.409 . S
C1369 C1368 1.362 . S
H1370 C1376 0.930 . S
H1371 C1379 0.929 . S
H1372 C1380 0.930 1_565 S
H1373 C1381 0.930 . S
H1374 C1384 0.930 . S
H1375 C1385 0.930 . S
C1376 H1370 0.930 . S
C1376 C1377 1.355 . S
C1376 C1378 1.415 . S
C1377 C1376 1.355 . S
C1377 C1379 1.420 1_545 S
C1378 C1376 1.415 . S
C1378 C1383 1.425 . S
C1378 C1385 1.409 . S
C1379 H1371 0.929 . S
C1379 C1377 1.420 1_565 S
C1379 C1380 1.362 1_565 S
C1380 H1372 0.930 1_545 S
C1380 C1379 1.362 1_545 S
C1380 C1383 1.409 . S
C1381 H1373 0.930 . S
C1381 C1382 1.355 . S
C1381 C1383 1.415 . S
C1382 C1381 1.355 . S
C1382 C1384 1.419 . S
C1383 C1378 1.425 . S
C1383 C1380 1.409 . S
C1383 C1381 1.415 . S
C1384 H1374 0.930 . S
C1384 C1382 1.419 . S
C1384 C1385 1.362 . S
C1385 H1375 0.930 . S
C1385 C1378 1.409 . S
C1385 C1384 1.362 . S
H1386 C1392 0.930 . S
H1387 C1395 0.930 . S
H1388 C1396 0.930 . S
H1389 C1397 0.930 . S
H1390 C1400 0.930 . S
H1391 C1401 0.930 . S
C1392 H1386 0.930 . S
C1392 C1393 1.355 . S
C1392 C1394 1.415 . S
C1393 C1392 1.355 . S
C1393 C1395 1.419 . S
C1394 C1392 1.415 . S
C1394 C1399 1.425 . S
C1394 C1401 1.409 . S
C1395 H1387 0.930 . S
C1395 C1393 1.419 . S
C1395 C1396 1.362 . S
C1396 H1388 0.930 . S
C1396 C1395 1.362 . S
C1396 C1399 1.409 . S
C1397 H1389 0.930 . S
C1397 C1398 1.355 . S
C1397 C1399 1.415 . S
C1398 C1397 1.355 . S
C1398 C1400 1.419 . S
C1399 C1394 1.425 . S
C1399 C1396 1.409 . S
C1399 C1397 1.415 . S
C1400 H1390 0.930 . S
C1400 C1398 1.419 . S
C1400 C1401 1.362 . S
C1401 H1391 0.930 . S
C1401 C1394 1.409 . S
C1401 C1400 1.362 . S
H1402 C1408 0.930 . S
H1403 C1411 0.930 . S
H1404 C1412 0.930 1_655 S
H1405 C1413 0.930 1_655 S
H1406 C1416 0.930 . S
H1407 C1417 0.930 . S
C1408 H1402 0.930 . S
C1408 C1409 1.355 . S
C1408 C1410 1.415 . S
C1409 C1408 1.355 . S
C1409 C1411 1.419 . S
C1410 C1408 1.415 . S
C1410 C1415 1.425 . S
C1410 C1417 1.409 . S
C1411 H1403 0.930 . S
C1411 C1409 1.419 . S
C1411 C1412 1.362 . S
C1412 H1404 0.930 1_455 S
C1412 C1411 1.362 . S
C1412 C1415 1.409 . S
C1413 H1405 0.930 1_455 S
C1413 C1414 1.355 . S
C1413 C1415 1.415 . S
C1414 C1413 1.355 . S
C1414 C1416 1.419 . S
C1415 C1410 1.425 . S
C1415 C1412 1.409 . S
C1415 C1413 1.415 . S
C1416 H1406 0.930 . S
C1416 C1414 1.419 . S
C1416 C1417 1.362 . S
C1417 H1407 0.930 . S
C1417 C1410 1.409 . S
C1417 C1416 1.362 . S
H1418 C1424 0.930 . S
H1419 C1427 0.930 . S
H1420 C1428 0.930 . S
H1421 C1429 0.930 . S
H1422 C1432 0.930 . S
H1423 C1433 0.930 . S
C1424 H1418 0.930 . S
C1424 C1425 1.355 . S
C1424 C1426 1.415 . S
C1425 C1424 1.355 . S
C1425 C1427 1.419 . S
C1426 C1424 1.415 . S
C1426 C1431 1.425 . S
C1426 C1433 1.409 . S
C1427 H1419 0.930 . S
C1427 C1425 1.419 . S
C1427 C1428 1.362 . S
C1428 H1420 0.930 . S
C1428 C1427 1.362 . S
C1428 C1431 1.409 . S
C1429 H1421 0.930 . S
C1429 C1430 1.355 . S
C1429 C1431 1.415 . S
C1430 C1429 1.355 . S
C1430 C1432 1.419 . S
C1431 C1426 1.425 . S
C1431 C1428 1.409 . S
C1431 C1429 1.415 . S
C1432 H1422 0.930 . S
C1432 C1430 1.419 . S
C1432 C1433 1.362 . S
C1433 H1423 0.930 . S
C1433 C1426 1.409 . S
C1433 C1432 1.362 . S
H1434 C1440 0.930 . S
H1435 C1443 0.930 . S
H1436 C1444 0.930 . S
H1437 C1445 0.930 . S
H1438 C1448 0.930 . S
H1439 C1449 0.930 . S
C1440 H1434 0.930 . S
C1440 C1441 1.355 . S
C1440 C1442 1.415 . S
C1441 C1440 1.355 . S
C1441 C1443 1.419 . S
C1442 C1440 1.415 . S
C1442 C1447 1.425 . S
C1442 C1449 1.409 . S
C1443 H1435 0.930 . S
C1443 C1441 1.419 . S
C1443 C1444 1.362 . S
C1444 H1436 0.930 . S
C1444 C1443 1.362 . S
C1444 C1447 1.409 . S
C1445 H1437 0.930 . S
C1445 C1446 1.355 . S
C1445 C1447 1.415 . S
C1446 C1445 1.355 . S
C1446 C1448 1.419 . S
C1447 C1442 1.425 . S
C1447 C1444 1.409 . S
C1447 C1445 1.415 . S
C1448 H1438 0.930 . S
C1448 C1446 1.419 . S
C1448 C1449 1.362 . S
C1449 H1439 0.930 . S
C1449 C1442 1.409 . S
C1449 C1448 1.362 . S
H1450 C1456 0.930 . S
H1451 C1459 0.930 . S
H1452 C1460 0.930 . S
H1453 C1461 0.930 . S
H1454 C1464 0.930 . S
H1455 C1465 0.930 . S
C1456 H1450 0.930 . S
C1456 C1457 1.355 . S
C1456 C1458 1.415 . S
C1457 C1456 1.355 . S
C1457 C1459 1.419 . S
C1458 C1456 1.415 . S
C1458 C1463 1.425 . S
C1458 C1465 1.409 . S
C1459 H1451 0.930 . S
C1459 C1457 1.419 . S
C1459 C1460 1.362 . S
C1460 H1452 0.930 . S
C1460 C1459 1.362 . S
C1460 C1463 1.409 . S
C1461 H1453 0.930 . S
C1461 C1462 1.355 . S
C1461 C1463 1.415 . S
C1462 C1461 1.355 . S
C1462 C1464 1.419 . S
C1463 C1458 1.425 . S
C1463 C1460 1.409 . S
C1463 C1461 1.415 . S
C1464 H1454 0.930 . S
C1464 C1462 1.419 . S
C1464 C1465 1.362 . S
C1465 H1455 0.930 . S
C1465 C1458 1.409 . S
C1465 C1464 1.362 . S
H1466 C1472 0.930 . S
H1467 C1475 0.930 . S
H1468 C1476 0.930 . S
H1469 C1477 0.930 . S
H1470 C1480 0.930 . S
H1471 C1481 0.930 . S
C1472 H1466 0.930 . S
C1472 C1473 1.355 . S
C1472 C1474 1.415 . S
C1473 C1472 1.355 . S
C1473 C1475 1.419 . S
C1474 C1472 1.415 . S
C1474 C1479 1.425 . S
C1474 C1481 1.409 . S
C1475 H1467 0.930 . S
C1475 C1473 1.419 . S
C1475 C1476 1.362 . S
C1476 H1468 0.930 . S
C1476 C1475 1.362 . S
C1476 C1479 1.409 . S
C1477 H1469 0.930 . S
C1477 C1478 1.355 . S
C1477 C1479 1.415 . S
C1478 C1477 1.355 . S
C1478 C1480 1.419 . S
C1479 C1474 1.425 . S
C1479 C1476 1.409 . S
C1479 C1477 1.415 . S
C1480 H1470 0.930 . S
C1480 C1478 1.419 . S
C1480 C1481 1.362 . S
C1481 H1471 0.930 . S
C1481 C1474 1.409 . S
C1481 C1480 1.362 . S
H1482 C1488 0.930 . S
H1483 C1491 0.930 . S
H1484 C1492 0.930 . S
H1485 C1493 0.930 . S
H1486 C1496 0.930 . S
H1487 C1497 0.930 . S
C1488 H1482 0.930 . S
C1488 C1489 1.355 . S
C1488 C1490 1.415 . S
C1489 C1488 1.355 . S
C1489 C1491 1.419 . S
C1490 C1488 1.415 . S
C1490 C1495 1.425 . S
C1490 C1497 1.409 1_556 S
C1491 H1483 0.930 . S
C1491 C1489 1.419 . S
C1491 C1492 1.362 . S
C1492 H1484 0.930 . S
C1492 C1491 1.362 . S
C1492 C1495 1.409 . S
C1493 H1485 0.930 . S
C1493 C1494 1.355 . S
C1493 C1495 1.415 1_554 S
C1494 C1493 1.355 . S
C1494 C1496 1.419 . S
C1495 C1490 1.425 . S
C1495 C1492 1.409 . S
C1495 C1493 1.415 1_556 S
C1496 H1486 0.930 . S
C1496 C1494 1.419 . S
C1496 C1497 1.362 . S
C1497 H1487 0.930 . S
C1497 C1490 1.409 1_554 S
C1497 C1496 1.362 . S
H1498 C1504 0.930 . S
H1499 C1507 0.930 . S
H1500 C1508 0.930 . S
H1501 C1509 0.930 . S
H1502 C1512 0.930 . S
H1503 C1513 0.930 . S
C1504 H1498 0.930 . S
C1504 C1505 1.355 . S
C1504 C1506 1.415 . S
C1505 C1504 1.355 . S
C1505 C1507 1.419 . S
C1506 C1504 1.415 . S
C1506 C1511 1.425 . S
C1506 C1513 1.409 . S
C1507 H1499 0.930 . S
C1507 C1505 1.419 . S
C1507 C1508 1.362 . S
C1508 H1500 0.930 . S
C1508 C1507 1.362 . S
C1508 C1511 1.409 . S
C1509 H1501 0.930 . S
C1509 C1510 1.355 . S
C1509 C1511 1.415 1_554 S
C1510 C1509 1.355 . S
C1510 C1512 1.419 1_554 S
C1511 C1506 1.425 . S
C1511 C1508 1.409 . S
C1511 C1509 1.415 1_556 S
C1512 H1502 0.930 . S
C1512 C1510 1.419 1_556 S
C1512 C1513 1.362 . S
C1513 H1503 0.930 . S
C1513 C1506 1.409 . S
C1513 C1512 1.362 . S
H1514 C1520 0.930 . S
H1515 C1523 0.930 . S
H1516 C1524 0.930 . S
H1517 C1525 0.930 . S
H1518 C1528 0.930 . S
H1519 C1529 0.930 . S
C1520 H1514 0.930 . S
C1520 C1521 1.355 . S
C1520 C1522 1.415 . S
C1521 C1520 1.355 . S
C1521 C1523 1.419 . S
C1522 C1520 1.415 . S
C1522 C1527 1.425 . S
C1522 C1529 1.409 1_556 S
C1523 H1515 0.930 . S
C1523 C1521 1.419 . S
C1523 C1524 1.362 . S
C1524 H1516 0.930 . S
C1524 C1523 1.362 . S
C1524 C1527 1.409 . S
C1525 H1517 0.930 . S
C1525 C1526 1.355 . S
C1525 C1527 1.415 1_554 S
C1526 C1525 1.355 . S
C1526 C1528 1.419 . S
C1527 C1522 1.425 . S
C1527 C1524 1.409 . S
C1527 C1525 1.415 1_556 S
C1528 H1518 0.930 . S
C1528 C1526 1.419 . S
C1528 C1529 1.362 . S
C1529 H1519 0.930 . S
C1529 C1522 1.409 1_554 S
C1529 C1528 1.362 . S
H1530 C1536 0.930 . S
H1531 C1539 0.930 . S
H1532 C1540 0.930 . S
H1533 C1541 0.930 . S
H1534 C1544 0.930 . S
H1535 C1545 0.930 . S
C1536 H1530 0.930 . S
C1536 C1537 1.355 . S
C1536 C1538 1.415 . S
C1537 C1536 1.355 . S
C1537 C1539 1.419 . S
C1538 C1536 1.415 . S
C1538 C1543 1.425 . S
C1538 C1545 1.409 . S
C1539 H1531 0.930 . S
C1539 C1537 1.419 . S
C1539 C1540 1.362 . S
C1540 H1532 0.930 . S
C1540 C1539 1.362 . S
C1540 C1543 1.409 . S
C1541 H1533 0.930 . S
C1541 C1542 1.355 . S
C1541 C1543 1.415 . S
C1542 C1541 1.355 . S
C1542 C1544 1.419 . S
C1543 C1538 1.425 . S
C1543 C1540 1.409 . S
C1543 C1541 1.415 . S
C1544 H1534 0.930 . S
C1544 C1542 1.419 . S
C1544 C1545 1.362 . S
C1545 H1535 0.930 . S
C1545 C1538 1.409 . S
C1545 C1544 1.362 . S
H1546 C1552 0.930 . S
H1547 C1555 0.930 . S
H1548 C1556 0.930 . S
H1549 C1557 0.930 . S
H1550 C1560 0.930 . S
H1551 C1561 0.930 . S
C1552 H1546 0.930 . S
C1552 C1553 1.355 . S
C1552 C1554 1.415 . S
C1553 C1552 1.355 . S
C1553 C1555 1.419 . S
C1554 C1552 1.415 . S
C1554 C1559 1.425 . S
C1554 C1561 1.409 . S
C1555 H1547 0.930 . S
C1555 C1553 1.419 . S
C1555 C1556 1.362 . S
C1556 H1548 0.930 . S
C1556 C1555 1.362 . S
C1556 C1559 1.409 . S
C1557 H1549 0.930 . S
C1557 C1558 1.355 . S
C1557 C1559 1.415 . S
C1558 C1557 1.355 . S
C1558 C1560 1.419 . S
C1559 C1554 1.425 . S
C1559 C1556 1.409 . S
C1559 C1557 1.415 . S
C1560 H1550 0.930 . S
C1560 C1558 1.419 . S
C1560 C1561 1.362 . S
C1561 H1551 0.930 . S
C1561 C1554 1.409 . S
C1561 C1560 1.362 . S
H1562 C1568 0.930 . S
H1563 C1571 0.930 . S
H1564 C1572 0.930 . S
H1565 C1573 0.930 . S
H1566 C1576 0.930 . S
H1567 C1577 0.930 . S
C1568 H1562 0.930 . S
C1568 C1569 1.355 . S
C1568 C1570 1.415 . S
C1569 C1568 1.355 . S
C1569 C1571 1.419 . S
C1570 C1568 1.415 . S
C1570 C1575 1.425 . S
C1570 C1577 1.409 . S
C1571 H1563 0.930 . S
C1571 C1569 1.419 . S
C1571 C1572 1.362 . S
C1572 H1564 0.930 . S
C1572 C1571 1.362 . S
C1572 C1575 1.409 . S
C1573 H1565 0.930 . S
C1573 C1574 1.355 . S
C1573 C1575 1.415 . S
C1574 C1573 1.355 . S
C1574 C1576 1.419 . S
C1575 C1570 1.425 . S
C1575 C1572 1.409 . S
C1575 C1573 1.415 . S
C1576 H1566 0.930 . S
C1576 C1574 1.419 . S
C1576 C1577 1.362 . S
C1577 H1567 0.930 . S
C1577 C1570 1.409 . S
C1577 C1576 1.362 . S
H1578 C1584 0.930 . S
H1579 C1587 0.930 . S
H1580 C1588 0.930 . S
H1581 C1589 0.930 . S
H1582 C1592 0.930 . S
H1583 C1593 0.930 . S
C1584 H1578 0.930 . S
C1584 C1585 1.355 . S
C1584 C1586 1.415 . S
C1585 C1584 1.355 . S
C1585 C1587 1.419 . S
C1586 C1584 1.415 . S
C1586 C1591 1.425 . S
C1586 C1593 1.409 . S
C1587 H1579 0.930 . S
C1587 C1585 1.419 . S
C1587 C1588 1.362 . S
C1588 H1580 0.930 . S
C1588 C1587 1.362 . S
C1588 C1591 1.409 . S
C1589 H1581 0.930 . S
C1589 C1590 1.355 . S
C1589 C1591 1.415 . S
C1590 C1589 1.355 . S
C1590 C1592 1.419 . S
C1591 C1586 1.425 . S
C1591 C1588 1.409 . S
C1591 C1589 1.415 . S
C1592 H1582 0.930 . S
C1592 C1590 1.419 . S
C1592 C1593 1.362 . S
C1593 H1583 0.930 . S
C1593 C1586 1.409 . S
C1593 C1592 1.362 . S
H1594 C1600 0.930 . S
H1595 C1603 0.930 . S
H1596 C1604 0.930 . S
H1597 C1605 0.930 . S
H1598 C1608 0.930 . S
H1599 C1609 0.930 . S
C1600 H1594 0.930 . S
C1600 C1601 1.355 . S
C1600 C1602 1.415 . S
C1601 C1600 1.355 . S
C1601 C1603 1.419 . S
C1602 C1600 1.415 . S
C1602 C1607 1.425 . S
C1602 C1609 1.409 . S
C1603 H1595 0.930 . S
C1603 C1601 1.419 . S
C1603 C1604 1.362 . S
C1604 H1596 0.930 . S
C1604 C1603 1.362 . S
C1604 C1607 1.409 . S
C1605 H1597 0.930 . S
C1605 C1606 1.355 . S
C1605 C1607 1.415 . S
C1606 C1605 1.355 . S
C1606 C1608 1.419 . S
C1607 C1602 1.425 . S
C1607 C1604 1.409 . S
C1607 C1605 1.415 . S
C1608 H1598 0.930 . S
C1608 C1606 1.419 . S
C1608 C1609 1.362 . S
C1609 H1599 0.930 . S
C1609 C1602 1.409 . S
C1609 C1608 1.362 . S
H1610 C1616 0.930 . S
H1611 C1619 0.930 . S
H1612 C1620 0.930 . S
H1613 C1621 0.930 . S
H1614 C1624 0.930 . S
H1615 C1625 0.930 . S
C1616 H1610 0.930 . S
C1616 C1617 1.355 . S
C1616 C1618 1.415 . S
C1617 C1616 1.355 . S
C1617 C1619 1.419 . S
C1618 C1616 1.415 . S
C1618 C1623 1.425 . S
C1618 C1625 1.409 . S
C1619 H1611 0.930 . S
C1619 C1617 1.419 . S
C1619 C1620 1.362 . S
C1620 H1612 0.930 . S
C1620 C1619 1.362 . S
C1620 C1623 1.409 . S
C1621 H1613 0.930 . S
C1621 C1622 1.355 . S
C1621 C1623 1.415 . S
C1622 C1621 1.355 . S
C1622 C1624 1.419 . S
C1623 C1618 1.425 . S
C1623 C1620 1.409 . S
C1623 C1621 1.415 . S
C1624 H1614 0.930 . S
C1624 C1622 1.419 . S
C1624 C1625 1.362 . S
C1625 H1615 0.930 . S
C1625 C1618 1.409 . S
C1625 C1624 1.362 . S
H1626 C1632 0.930 . S
H1627 C1635 0.930 . S
H1628 C1636 0.930 . S
H1629 C1637 0.930 . S
H1630 C1640 0.930 . S
H1631 C1641 0.930 . S
C1632 H1626 0.930 . S
C1632 C1633 1.355 . S
C1632 C1634 1.415 . S
C1633 C1632 1.355 . S
C1633 C1635 1.419 . S
C1634 C1632 1.415 . S
C1634 C1639 1.425 . S
C1634 C1641 1.409 . S
C1635 H1627 0.930 . S
C1635 C1633 1.419 . S
C1635 C1636 1.362 . S
C1636 H1628 0.930 . S
C1636 C1635 1.362 . S
C1636 C1639 1.409 . S
C1637 H1629 0.930 . S
C1637 C1638 1.355 . S
C1637 C1639 1.415 . S
C1638 C1637 1.355 . S
C1638 C1640 1.419 . S
C1639 C1634 1.425 . S
C1639 C1636 1.409 . S
C1639 C1637 1.415 . S
C1640 H1630 0.930 . S
C1640 C1638 1.419 . S
C1640 C1641 1.362 . S
C1641 H1631 0.930 . S
C1641 C1634 1.409 . S
C1641 C1640 1.362 . S
H1642 C1648 0.930 . S
H1643 C1651 0.930 . S
H1644 C1652 0.930 . S
H1645 C1653 0.930 . S
H1646 C1656 0.930 . S
H1647 C1657 0.930 . S
C1648 H1642 0.930 . S
C1648 C1649 1.355 . S
C1648 C1650 1.415 . S
C1649 C1648 1.355 . S
C1649 C1651 1.419 . S
C1650 C1648 1.415 . S
C1650 C1655 1.425 . S
C1650 C1657 1.409 . S
C1651 H1643 0.930 . S
C1651 C1649 1.419 . S
C1651 C1652 1.362 . S
C1652 H1644 0.930 . S
C1652 C1651 1.362 . S
C1652 C1655 1.409 . S
C1653 H1645 0.930 . S
C1653 C1654 1.355 . S
C1653 C1655 1.415 . S
C1654 C1653 1.355 . S
C1654 C1656 1.419 . S
C1655 C1650 1.425 . S
C1655 C1652 1.409 . S
C1655 C1653 1.415 . S
C1656 H1646 0.930 . S
C1656 C1654 1.419 . S
C1656 C1657 1.362 . S
C1657 H1647 0.930 . S
C1657 C1650 1.409 . S
C1657 C1656 1.362 . S
H1658 C1664 0.930 . S
H1659 C1667 0.930 . S
H1660 C1668 0.930 . S
H1661 C1669 0.930 . S
H1662 C1672 0.930 . S
H1663 C1673 0.930 . S
C1664 H1658 0.930 . S
C1664 C1665 1.355 . S
C1664 C1666 1.415 . S
C1665 C1664 1.355 . S
C1665 C1667 1.419 . S
C1666 C1664 1.415 . S
C1666 C1671 1.425 . S
C1666 C1673 1.409 . S
C1667 H1659 0.930 . S
C1667 C1665 1.419 . S
C1667 C1668 1.362 . S
C1668 H1660 0.930 . S
C1668 C1667 1.362 . S
C1668 C1671 1.409 . S
C1669 H1661 0.930 . S
C1669 C1670 1.355 . S
C1669 C1671 1.415 . S
C1670 C1669 1.355 . S
C1670 C1672 1.419 . S
C1671 C1666 1.425 . S
C1671 C1668 1.409 . S
C1671 C1669 1.415 . S
C1672 H1662 0.930 . S
C1672 C1670 1.419 . S
C1672 C1673 1.362 . S
C1673 H1663 0.930 . S
C1673 C1666 1.409 . S
C1673 C1672 1.362 . S
H1674 C1680 0.930 . S
H1675 C1683 0.930 . S
H1676 C1684 0.930 . S
H1677 C1685 0.930 . S
H1678 C1688 0.930 . S
H1679 C1689 0.930 . S
C1680 H1674 0.930 . S
C1680 C1681 1.355 . S
C1680 C1682 1.415 . S
C1681 C1680 1.355 . S
C1681 C1683 1.419 . S
C1682 C1680 1.415 . S
C1682 C1687 1.425 . S
C1682 C1689 1.409 . S
C1683 H1675 0.930 . S
C1683 C1681 1.419 . S
C1683 C1684 1.362 . S
C1684 H1676 0.930 . S
C1684 C1683 1.362 . S
C1684 C1687 1.409 . S
C1685 H1677 0.930 . S
C1685 C1686 1.355 . S
C1685 C1687 1.415 . S
C1686 C1685 1.355 . S
C1686 C1688 1.419 . S
C1687 C1682 1.425 . S
C1687 C1684 1.409 . S
C1687 C1685 1.415 . S
C1688 H1678 0.930 . S
C1688 C1686 1.419 . S
C1688 C1689 1.362 . S
C1689 H1679 0.930 . S
C1689 C1682 1.409 . S
C1689 C1688 1.362 . S
H1690 C1696 0.930 . S
H1691 C1699 0.930 . S
H1692 C1700 0.930 . S
H1693 C1701 0.930 . S
H1694 C1704 0.930 . S
H1695 C1705 0.930 . S
C1696 H1690 0.930 . S
C1696 C1697 1.355 . S
C1696 C1698 1.415 . S
C1697 C1696 1.355 . S
C1697 C1699 1.419 . S
C1698 C1696 1.415 . S
C1698 C1703 1.425 . S
C1698 C1705 1.409 . S
C1699 H1691 0.930 . S
C1699 C1697 1.419 . S
C1699 C1700 1.362 . S
C1700 H1692 0.930 . S
C1700 C1699 1.362 . S
C1700 C1703 1.409 . S
C1701 H1693 0.930 . S
C1701 C1702 1.355 . S
C1701 C1703 1.415 . S
C1702 C1701 1.355 . S
C1702 C1704 1.419 . S
C1703 C1698 1.425 . S
C1703 C1700 1.409 . S
C1703 C1701 1.415 . S
C1704 H1694 0.930 . S
C1704 C1702 1.419 . S
C1704 C1705 1.362 . S
C1705 H1695 0.930 . S
C1705 C1698 1.409 . S
C1705 C1704 1.362 . S
H1706 C1712 0.930 . S
H1707 C1715 0.930 . S
H1708 C1716 0.930 . S
H1709 C1717 0.930 . S
H1710 C1720 0.930 . S
H1711 C1721 0.930 . S
C1712 H1706 0.930 . S
C1712 C1713 1.355 . S
C1712 C1714 1.415 . S
C1713 C1712 1.355 . S
C1713 C1715 1.419 . S
C1714 C1712 1.415 . S
C1714 C1719 1.425 . S
C1714 C1721 1.409 . S
C1715 H1707 0.930 . S
C1715 C1713 1.419 . S
C1715 C1716 1.362 . S
C1716 H1708 0.930 . S
C1716 C1715 1.362 . S
C1716 C1719 1.409 . S
C1717 H1709 0.930 . S
C1717 C1718 1.355 . S
C1717 C1719 1.415 . S
C1718 C1717 1.355 . S
C1718 C1720 1.419 . S
C1719 C1714 1.425 . S
C1719 C1716 1.409 . S
C1719 C1717 1.415 . S
C1720 H1710 0.930 . S
C1720 C1718 1.419 . S
C1720 C1721 1.362 . S
C1721 H1711 0.930 . S
C1721 C1714 1.409 . S
C1721 C1720 1.362 . S
H1722 C1728 0.930 . S
H1723 C1731 0.930 . S
H1724 C1732 0.930 . S
H1725 C1733 0.930 . S
H1726 C1736 0.930 . S
H1727 C1737 0.930 . S
C1728 H1722 0.930 . S
C1728 C1729 1.355 . S
C1728 C1730 1.415 . S
C1729 C1728 1.355 . S
C1729 C1731 1.419 . S
C1730 C1728 1.415 . S
C1730 C1735 1.425 . S
C1730 C1737 1.409 . S
C1731 H1723 0.930 . S
C1731 C1729 1.419 . S
C1731 C1732 1.362 . S
C1732 H1724 0.930 . S
C1732 C1731 1.362 . S
C1732 C1735 1.409 . S
C1733 H1725 0.930 . S
C1733 C1734 1.355 . S
C1733 C1735 1.415 . S
C1734 C1733 1.355 . S
C1734 C1736 1.419 . S
C1735 C1730 1.425 . S
C1735 C1732 1.409 . S
C1735 C1733 1.415 . S
C1736 H1726 0.930 . S
C1736 C1734 1.419 . S
C1736 C1737 1.362 . S
C1737 H1727 0.930 . S
C1737 C1730 1.409 . S
C1737 C1736 1.362 . S
H1738 C1744 0.930 . S
H1739 C1747 0.930 . S
H1740 C1748 0.930 . S
H1741 C1749 0.930 . S
H1742 C1752 0.930 . S
H1743 C1753 0.930 . S
C1744 H1738 0.930 . S
C1744 C1745 1.355 . S
C1744 C1746 1.415 . S
C1745 C1744 1.355 . S
C1745 C1747 1.419 . S
C1746 C1744 1.415 . S
C1746 C1751 1.425 . S
C1746 C1753 1.409 . S
C1747 H1739 0.930 . S
C1747 C1745 1.419 . S
C1747 C1748 1.362 . S
C1748 H1740 0.930 . S
C1748 C1747 1.362 . S
C1748 C1751 1.409 . S
C1749 H1741 0.930 . S
C1749 C1750 1.355 . S
C1749 C1751 1.415 . S
C1750 C1749 1.355 . S
C1750 C1752 1.419 . S
C1751 C1746 1.425 . S
C1751 C1748 1.409 . S
C1751 C1749 1.415 . S
C1752 H1742 0.930 . S
C1752 C1750 1.419 . S
C1752 C1753 1.362 . S
C1753 H1743 0.930 . S
C1753 C1746 1.409 . S
C1753 C1752 1.362 . S
H1754 C1760 0.930 . S
H1755 C1763 0.930 . S
H1756 C1764 0.930 . S
H1757 C1765 0.930 . S
H1758 C1768 0.930 . S
H1759 C1769 0.930 . S
C1760 H1754 0.930 . S
C1760 C1761 1.355 . S
C1760 C1762 1.415 . S
C1761 C1760 1.355 . S
C1761 C1763 1.419 . S
C1762 C1760 1.415 . S
C1762 C1767 1.425 . S
C1762 C1769 1.409 . S
C1763 H1755 0.930 . S
C1763 C1761 1.419 . S
C1763 C1764 1.362 . S
C1764 H1756 0.930 . S
C1764 C1763 1.362 . S
C1764 C1767 1.409 . S
C1765 H1757 0.930 . S
C1765 C1766 1.355 . S
C1765 C1767 1.415 . S
C1766 C1765 1.355 . S
C1766 C1768 1.419 . S
C1767 C1762 1.425 . S
C1767 C1764 1.409 . S
C1767 C1765 1.415 . S
C1768 H1758 0.930 . S
C1768 C1766 1.419 . S
C1768 C1769 1.362 . S
C1769 H1759 0.930 . S
C1769 C1762 1.409 . S
C1769 C1768 1.362 . S
H1770 C1776 0.930 . S
H1771 C1779 0.930 . S
H1772 C1780 0.930 . S
H1773 C1781 0.930 . S
H1774 C1784 0.930 . S
H1775 C1785 0.930 . S
C1776 H1770 0.930 . S
C1776 C1777 1.355 . S
C1776 C1778 1.415 . S
C1777 C1776 1.355 . S
C1777 C1779 1.419 . S
C1778 C1776 1.415 . S
C1778 C1783 1.425 . S
C1778 C1785 1.409 1_554 S
C1779 H1771 0.930 . S
C1779 C1777 1.419 . S
C1779 C1780 1.362 . S
C1780 H1772 0.930 . S
C1780 C1779 1.362 . S
C1780 C1783 1.409 . S
C1781 H1773 0.930 . S
C1781 C1782 1.355 1_554 S
C1781 C1783 1.415 . S
C1782 C1781 1.355 1_556 S
C1782 C1784 1.419 . S
C1783 C1778 1.425 . S
C1783 C1780 1.409 . S
C1783 C1781 1.415 . S
C1784 H1774 0.930 . S
C1784 C1782 1.419 . S
C1784 C1785 1.362 . S
C1785 H1775 0.930 . S
C1785 C1778 1.409 1_556 S
C1785 C1784 1.362 . S
H1786 C1792 0.930 . S
H1787 C1795 0.930 . S
H1788 C1796 0.930 . S
H1789 C1797 0.930 . S
H1790 C1800 0.930 . S
H1791 C1801 0.930 . S
C1792 H1786 0.930 . S
C1792 C1793 1.355 . S
C1792 C1794 1.415 . S
C1793 C1792 1.355 . S
C1793 C1795 1.419 . S
C1794 C1792 1.415 . S
C1794 C1799 1.425 . S
C1794 C1801 1.409 . S
C1795 H1787 0.930 . S
C1795 C1793 1.419 . S
C1795 C1796 1.362 . S
C1796 H1788 0.930 . S
C1796 C1795 1.362 . S
C1796 C1799 1.409 . S
C1797 H1789 0.930 . S
C1797 C1798 1.355 . S
C1797 C1799 1.415 . S
C1798 C1797 1.355 . S
C1798 C1800 1.419 . S
C1799 C1794 1.425 . S
C1799 C1796 1.409 . S
C1799 C1797 1.415 . S
C1800 H1790 0.930 . S
C1800 C1798 1.419 . S
C1800 C1801 1.362 . S
C1801 H1791 0.930 . S
C1801 C1794 1.409 . S
C1801 C1800 1.362 . S
H1802 C1808 0.930 . S
H1803 C1811 0.930 . S
H1804 C1812 0.930 . S
H1805 C1813 0.930 1_556 S
H1806 C1816 0.930 . S
H1807 C1817 0.930 . S
C1808 H1802 0.930 . S
C1808 C1809 1.355 . S
C1808 C1810 1.415 . S
C1809 C1808 1.355 . S
C1809 C1811 1.419 . S
C1810 C1808 1.415 . S
C1810 C1815 1.425 . S
C1810 C1817 1.409 . S
C1811 H1803 0.930 . S
C1811 C1809 1.419 . S
C1811 C1812 1.362 . S
C1812 H1804 0.930 . S
C1812 C1811 1.362 . S
C1812 C1815 1.409 . S
C1813 H1805 0.930 1_554 S
C1813 C1814 1.355 1_554 S
C1813 C1815 1.415 . S
C1814 C1813 1.355 1_556 S
C1814 C1816 1.419 1_556 S
C1815 C1810 1.425 . S
C1815 C1812 1.409 . S
C1815 C1813 1.415 . S
C1816 H1806 0.930 . S
C1816 C1814 1.419 1_554 S
C1816 C1817 1.362 . S
C1817 H1807 0.930 . S
C1817 C1810 1.409 . S
C1817 C1816 1.362 . S
C673 C7 1.495 . S
C678 C571 1.502 . S
C694 C543 1.764 . S
C689 C39 1.747 . S
C710 C563 1.572 . S
C705 C62 1.565 . S
C721 C76 1.821 . S
C726 C633 1.808 . S
C737 C108 1.509 . S
C742 C641 1.508 1_455 S
C753 N117 1.392 . S
C758 C661 1.355 . S
C774 C617 1.431 . S
C769 C16 1.472 . S
C785 C30 1.802 . S
C790 C589 1.754 . S
C806 C605 1.509 . S
C801 C53 1.517 . S
C817 C85 1.785 . S
C822 C507 1.790 . S
C838 C519 1.664 . S
C833 C99 1.663 . S
C849 N127 1.372 . S
C854 C535 1.396 . S
C865 N150 1.231 . S
C870 C655 1.234 . S
C886 C627 1.543 . S
C881 N173 1.524 . S
C902 C647 1.409 . S
C897 C200 1.370 . S
C913 C214 1.622 . S
C918 C465 1.619 . S
C929 N232 1.539 . S
C934 C473 1.564 . S
C945 C260 1.510 . S
C950 C493 1.500 . S
C966 C449 1.261 . S
C961 N140 1.280 . S
C977 N163 1.296 . S
C982 C421 1.308 . S
C998 C437 1.584 . S
C993 C191 1.597 . S
C1014 C591 1.874 . S
C1009 C223 1.890 . S
C1030 C603 1.510 . S
C1025 N242 1.501 . S
C1046 C619 1.540 . S
C1041 C269 1.554 . S
C1057 N288 1.332 . S
C1062 C487 1.360 . S
C1073 C315 1.525 . S
C1078 C459 1.535 . S
C1089 C338 1.641 . S
C1094 C479 1.629 . S
C1105 C352 1.814 . S
C1110 C549 1.808 . S
C1126 C557 1.606 . S
C1121 N370 1.610 . S
C1142 C577 1.608 1_655 S
C1137 C398 1.613 . S
C1158 C533 1.230 . S
C1153 N278 1.227 . S
C1169 C306 1.722 . S
C1174 C505 1.688 . S
C1185 C329 1.608 . S
C1190 C521 1.590 1_655 S
C1206 C423 1.519 . S
C1201 C361 1.537 . S
C1217 N380 1.495 . S
C1222 C435 1.512 . S
C1238 C451 1.508 . S
C1233 C407 1.524 . S
C1254 C463 1.397 . S
C1249 N12 1.403 . S
C1265 N25 1.523 . S
C1270 C478 1.535 . S
C1286 C491 1.310 . S
C1281 N48 1.346 . S
C1302 C492 1.355 . S
C1297 N81 1.333 . S
C1318 C464 1.532 . S
C1313 N94 1.502 . S
C1334 C477 1.532 . S
C1329 C131 1.574 . S
C1350 C417 1.419 . S
C1345 N2 1.414 . S
C1361 N35 1.488 . S
C1366 C436 1.510 . S
C1377 N58 1.361 . S
C1382 C445 1.376 . S
C1398 C450 1.331 . S
C1393 N71 1.249 . S
C1414 C422 1.370 . S
C1409 N104 1.337 . S
C1430 C431 1.603 . S
C1425 C122 1.609 . S
C1441 C145 1.986 . S
C1446 C547 1.974 . S
C1457 C168 1.707 . S
C1462 C562 1.708 . S
C1473 N186 1.425 . S
C1478 C575 1.417 . S
C1494 C576 1.401 . S
C1489 N219 1.392 . S
C1510 C548 1.748 . S
C1505 C246 1.748 . S
C1526 C561 1.481 . S
C1521 N265 1.487 . S
C1542 C501 1.917 . S
C1537 C154 1.919 . S
C1553 C177 1.808 . S
C1558 C520 1.792 . S
C1569 N196 1.325 . S
C1574 C529 1.339 . S
C1585 N209 1.144 . S
C1590 C534 1.250 . S
C1601 C237 1.782 . S
C1606 C506 1.774 . S
C1622 C515 1.444 . S
C1617 N255 1.365 . S
C1633 C283 1.762 . S
C1638 C631 1.709 . S
C1649 N301 1.427 . S
C1654 C646 1.436 . S
C1665 N324 1.360 . S
C1670 C659 1.357 . S
C1686 C660 1.202 . S
C1681 N357 1.189 . S
C1702 C632 1.710 . S
C1697 C384 1.711 . S
C1713 N403 1.328 . S
C1718 C645 1.320 . S
C1729 C292 1.858 . S
C1734 C585 1.861 . S
C1750 C604 1.354 . S
C1745 N311 1.296 . S
C1761 N334 1.444 . S
C1766 C613 1.462 . S
C1777 N347 1.347 . S
C1782 C618 1.365 . S
C1798 C590 1.836 1_554 S
C1793 C375 1.830 . S
C1809 N393 1.313 . S
C1814 C599 1.400 . S
