# Generated by pormake.
# Topology bcu-b, (8,8)-cn, num edge types: 1
# Building blocks:
#     Node 0, Type 0, BuildingBlock: TAGTUT_clean_sbu_1, # of connection points: 8
#     Node 1, Type 1, BuildingBlock: VETTIZ_charged_sbu_0, # of connection points: 8
#     Edge 2, Type (0, 1), BuildingBlock: FUNLAD_clean_linker_1, # of connection points: 2
#     Edge 3, Type (0, 1), BuildingBlock: FUNLAD_clean_linker_1, # of connection points: 2
#     Edge 4, Type (0, 1), BuildingBlock: FUNLAD_clean_linker_1, # of connection points: 2
#     Edge 5, Type (0, 1), BuildingBlock: FUNLAD_clean_linker_1, # of connection points: 2
#     Edge 6, Type (0, 1), BuildingBlock: FUNLAD_clean_linker_1, # of connection points: 2
#     Edge 7, Type (0, 1), BuildingBlock: FUNLAD_clean_linker_1, # of connection points: 2
#     Edge 8, Type (0, 1), BuildingBlock: FUNLAD_clean_linker_1, # of connection points: 2
#     Edge 9, Type (0, 1), BuildingBlock: FUNLAD_clean_linker_1, # of connection points: 2
# Relax obj value: 0.028
# Max RMSD: 0.121
# Mean RMSD: 0.087
data_MOF--net-bcu-b--node1-TAGTUT_clean_sbu_1--node2-VETTIZ_charged_sbu_0--edge1-FUNLAD_clean_linker_1
_symmetry_space_group_name_H-M    P1
_symmetry_Int_Tables_number       1
_symmetry_cell_setting            triclinic
loop_
_symmetry_equiv_pos_as_xyz
'x, y, z'
_cell_length_a     20.785353
_cell_length_b     19.873632
_cell_length_c     21.040867
_cell_angle_alpha  90.414991
_cell_angle_beta   92.026168
_cell_angle_gamma 99.14499
loop_
_atom_site_label
_atom_site_type_symbol
_atom_site_fract_x
_atom_site_fract_y
_atom_site_fract_z
_atom_type_partial_charge
C0 C 0.81822 0.1311 0.08574 0.0
C1 C 0.88973 0.13271 0.89533 0.0
C2 C 0.91461 0.87048 0.92954 0.0
Mg3 Mg 0.95605 0.14899 0.02876 0.0
O4 O 0.94083 0.05366 0.03706 0.0
Mg5 Mg 0.85899 1.00102 0.99718 0.0
Mg6 Mg 1.00505 1.00036 1.00173 0.0
O7 O 0.07087 0.94806 0.96691 0.0
Mg8 Mg 0.05989 0.85346 0.97713 0.0
Mg9 Mg 0.15237 1.00293 0.00623 0.0
C10 C 0.09823 0.12717 0.07769 0.0
C11 C 0.09056 0.09576 0.89932 0.0
O12 O 0.8041 0.07203 0.05855 0.0
O13 O 0.87411 0.16861 0.08165 0.0
O14 O 0.85884 0.07559 0.91336 0.0
O15 O 0.9342 0.1684 0.93028 0.0
O16 O 0.05641 0.16814 0.07028 0.0
O17 O 0.08575 0.06463 0.05972 0.0
C18 C 0.91805 0.90906 0.10457 0.0
O19 O 0.97568 0.92654 0.08398 0.0
O20 O 0.86794 0.93059 0.08007 0.0
O21 O 0.20927 0.93526 0.94531 0.0
O22 O 0.14184 0.83687 0.92252 0.0
O23 O 0.15669 0.92835 0.09049 0.0
C24 C 0.19675 0.8762 0.9182 0.0
O25 O 0.08391 0.83355 0.07498 0.0
O26 O 0.95919 0.83311 0.93891 0.0
C27 C 0.12834 0.87027 0.10906 0.0
O28 O 0.92379 0.93464 0.94364 0.0
O29 O 0.03358 0.07493 0.92003 0.0
O30 O 0.14171 0.0756 0.9235 0.0
Fe31 Fe 0.51881 0.6597 0.48139 0.0
O32 O 0.50833 0.55997 0.47276 0.0
Fe33 Fe 0.58462 0.51273 0.50883 0.0
Fe34 Fe 0.43498 0.49572 0.50885 0.0
O35 O 0.51455 0.56052 0.47234 0.0
O36 O 0.51142 0.44692 0.54211 0.0
O37 O 0.50555 0.4466 0.54284 0.0
Fe38 Fe 0.50425 0.34779 0.53175 0.0
C39 C 0.43681 0.61505 0.59709 0.0
O40 O 0.43726 0.64528 0.42007 0.0
O41 O 0.37059 0.55566 0.46624 0.0
O42 O 0.57172 0.35209 0.46182 0.0
O43 O 0.58403 0.45806 0.42518 0.0
O44 O 0.65305 0.58666 0.46725 0.0
O45 O 0.59194 0.65946 0.41692 0.0
O46 O 0.42685 0.44075 0.42578 0.0
O47 O 0.4312 0.336 0.4612 0.0
C48 C 0.64485 0.63259 0.42523 0.0
O49 O 0.58378 0.36239 0.59517 0.0
O50 O 0.64937 0.45469 0.55253 0.0
O51 O 0.45334 0.65744 0.5531 0.0
O52 O 0.43938 0.55176 0.5917 0.0
C53 C 0.38093 0.60738 0.42792 0.0
C54 C 0.41634 0.37655 0.41844 0.0
C55 C 0.37735 0.37061 0.59038 0.0
O56 O 0.36716 0.42046 0.55285 0.0
O57 O 0.43095 0.34492 0.59519 0.0
C58 C 0.58826 0.39531 0.41871 0.0
O59 O 0.5876 0.56855 0.59248 0.0
O60 O 0.59367 0.67133 0.54994 0.0
C61 C 0.63948 0.4019 0.58931 0.0
C62 C 0.59981 0.63316 0.59725 0.0
H63 H 0.19481 0.1141 0.1177 0.0
C64 C 0.16074 0.15013 0.11239 0.0
H65 H 0.13837 0.24546 0.1419 0.0
H66 H 0.29604 0.19299 0.4021 0.0
H67 H 0.19745 0.1151 0.42339 0.0
H68 H 0.11076 0.08588 0.34021 0.0
H69 H 0.12217 0.13437 0.2352 0.0
C70 C 0.17233 0.20923 0.14511 0.0
C71 C 0.22685 0.22269 0.1933 0.0
C72 C 0.21941 0.19348 0.25447 0.0
C73 C 0.26929 0.2105 0.30249 0.0
C74 C 0.26003 0.18165 0.36357 0.0
C75 C 0.20354 0.13688 0.37658 0.0
C76 C 0.15475 0.1204 0.32974 0.0
C77 C 0.16212 0.14847 0.26948 0.0
H78 H 0.35551 0.38442 0.33218 0.0
C79 C 0.37947 0.34933 0.36046 0.0
H80 H 0.39547 0.24767 0.37073 0.0
H81 H 0.25773 0.28306 0.07978 0.0
H82 H 0.35874 0.3571 0.0566 0.0
H83 H 0.44661 0.38443 0.13913 0.0
H84 H 0.43386 0.33845 0.24533 0.0
C85 C 0.37246 0.28354 0.34263 0.0
C86 C 0.32602 0.25733 0.28938 0.0
C87 C 0.33504 0.28329 0.22709 0.0
C88 C 0.28499 0.26649 0.17918 0.0
C89 C 0.29445 0.29417 0.11779 0.0
C90 C 0.35216 0.33657 0.10387 0.0
C91 C 0.40157 0.3521 0.15037 0.0
C92 C 0.39344 0.3258 0.21128 0.0
H93 H 0.72869 0.11801 0.14143 0.0
C94 C 0.76963 0.15488 0.12667 0.0
H95 H 0.81846 0.25621 0.13429 0.0
H96 H 0.5321 0.27395 0.26457 0.0
H97 H 0.48076 0.23497 0.16238 0.0
H98 H 0.54625 0.20257 0.07514 0.0
H99 H 0.66306 0.20679 0.08978 0.0
C100 C 0.77708 0.21963 0.1486 0.0
C101 C 0.73641 0.24163 0.19952 0.0
C102 C 0.6684 0.24102 0.18925 0.0
C103 C 0.63087 0.26218 0.23886 0.0
C104 C 0.56285 0.25926 0.22815 0.0
C105 C 0.53284 0.23725 0.16977 0.0
C106 C 0.56971 0.2187 0.12069 0.0
C107 C 0.63672 0.22081 0.12992 0.0
H108 H 0.64115 0.41183 0.32923 0.0
C109 C 0.6188 0.37313 0.36141 0.0
H110 H 0.60016 0.26765 0.38128 0.0
H111 H 0.86552 0.24852 0.23603 0.0
H112 H 0.91622 0.28884 0.33749 0.0
H113 H 0.85133 0.32813 0.42211 0.0
H114 H 0.73525 0.32733 0.40562 0.0
C115 C 0.6226 0.30719 0.35002 0.0
C116 C 0.66167 0.28618 0.29766 0.0
C117 C 0.72963 0.28759 0.30775 0.0
C118 C 0.76702 0.26523 0.25877 0.0
C119 C 0.83468 0.26591 0.27092 0.0
C120 C 0.86449 0.28866 0.32918 0.0
C121 C 0.82797 0.31074 0.37682 0.0
C122 C 0.76134 0.31015 0.36661 0.0
H123 H 0.89629 0.8927 0.20402 0.0
C124 C 0.90772 0.86695 0.16107 0.0
H125 H 0.8972 0.7742 0.11053 0.0
H126 H 0.8057 0.74 0.41742 0.0
H127 H 0.91975 0.77521 0.44748 0.0
H128 H 1.00204 0.80175 0.36587 0.0
H129 H 0.97018 0.7947 0.25335 0.0
C130 C 0.89058 0.79919 0.1554 0.0
C131 C 0.8464 0.76256 0.20259 0.0
C132 C 0.86614 0.76263 0.26777 0.0
C133 C 0.81908 0.74386 0.31461 0.0
C134 C 0.83955 0.75038 0.37959 0.0
C135 C 0.90494 0.7711 0.39757 0.0
C136 C 0.95126 0.78631 0.35164 0.0
C137 C 0.93234 0.78244 0.28739 0.0
H138 H 0.73931 0.62363 0.38394 0.0
C139 C 0.69969 0.65339 0.3832 0.0
H140 H 0.66136 0.73518 0.34119 0.0
H141 H 0.79269 0.74954 0.08074 0.0
H142 H 0.68063 0.70577 0.05015 0.0
H143 H 0.6006 0.666 0.13086 0.0
H144 H 0.63212 0.67113 0.24297 0.0
C145 C 0.70147 0.70612 0.34347 0.0
C146 C 0.75284 0.72117 0.29566 0.0
C147 C 0.73431 0.71537 0.23007 0.0
C148 C 0.78093 0.73659 0.18346 0.0
C149 C 0.76001 0.73323 0.11843 0.0
C150 C 0.69561 0.7081 0.10001 0.0
C151 C 0.65052 0.68586 0.14545 0.0
C152 C 0.6693 0.68934 0.20972 0.0
H153 H 0.19464 0.87404 0.19344 0.0
C154 C 0.15437 0.84236 0.16784 0.0
H155 H 0.09883 0.74403 0.15845 0.0
H156 H 0.33188 0.60113 0.26203 0.0
H157 H 0.31389 0.55655 0.15426 0.0
H158 H 0.23399 0.59783 0.08093 0.0
H159 H 0.1715 0.68364 0.11488 0.0
C160 C 0.13716 0.77708 0.18522 0.0
C161 C 0.17829 0.74555 0.23256 0.0
C162 C 0.21354 0.69413 0.21221 0.0
C163 C 0.25987 0.67039 0.25444 0.0
C164 C 0.29583 0.62067 0.23219 0.0
C165 C 0.28609 0.59469 0.17034 0.0
C166 C 0.24109 0.61791 0.12908 0.0
C167 C 0.20535 0.6672 0.14935 0.0
H168 H 0.2789 0.58754 0.38921 0.0
C169 C 0.32397 0.62383 0.39023 0.0
H170 H 0.37054 0.71994 0.35966 0.0
H171 H 0.10991 0.83393 0.29045 0.0
H172 H 0.12602 0.87634 0.39933 0.0
H173 H 0.20846 0.83774 0.47147 0.0
H174 H 0.27533 0.7561 0.43538 0.0
C175 C 0.32666 0.68201 0.35733 0.0
C176 C 0.2708 0.69794 0.31695 0.0
C177 C 0.23278 0.74622 0.33846 0.0
C178 C 0.18595 0.76944 0.2965 0.0
C179 C 0.14746 0.81624 0.31981 0.0
C180 C 0.1559 0.84057 0.3823 0.0
C181 C 0.20234 0.81878 0.42295 0.0
C182 C 0.24046 0.77211 0.4016 0.0
H183 H 0.29059 0.89073 0.86991 0.0
C184 C 0.24688 0.85443 0.87836 0.0
H185 H 0.19611 0.75492 0.85908 0.0
H186 H 0.35795 0.78421 0.59853 0.0
H187 H 0.28309 0.86032 0.56692 0.0
H188 H 0.20782 0.89692 0.64332 0.0
H189 H 0.20759 0.85782 0.75211 0.0
C190 C 0.23871 0.79256 0.85034 0.0
C191 C 0.28661 0.77372 0.80547 0.0
C192 C 0.28619 0.79726 0.74204 0.0
C193 C 0.3295 0.77605 0.69801 0.0
C194 C 0.32696 0.79921 0.6345 0.0
C195 C 0.28381 0.84273 0.61545 0.0
C196 C 0.24154 0.8634 0.65848 0.0
C197 C 0.24218 0.84077 0.72094 0.0
H198 H 0.37582 0.60169 0.68121 0.0
C199 C 0.40701 0.63894 0.65375 0.0
H200 H 0.44556 0.74258 0.642 0.0
H201 H 0.30029 0.72086 0.92386 0.0
H202 H 0.37935 0.64935 0.95767 0.0
H203 H 0.45845 0.61726 0.88284 0.0
H204 H 0.45828 0.65545 0.77358 0.0
C205 C 0.41433 0.70545 0.66953 0.0
C206 C 0.37306 0.73126 0.71757 0.0
C207 C 0.37538 0.7102 0.78181 0.0
C208 C 0.33117 0.73045 0.82548 0.0
C209 C 0.33316 0.70732 0.8889 0.0
C210 C 0.37837 0.66642 0.90895 0.0
C211 C 0.4228 0.64822 0.86678 0.0
C212 C 0.42177 0.66996 0.804 0.0
H213 H 0.0535 0.15994 0.82477 0.0
C214 C 0.09718 0.14433 0.84592 0.0
H215 H 0.19961 0.15282 0.84327 0.0
H216 H 0.23255 0.23675 0.56038 0.0
H217 H 0.21249 0.1138 0.54299 0.0
H218 H 0.16945 0.03638 0.62809 0.0
H219 H 0.1459 0.08129 0.73108 0.0
C220 C 0.15578 0.16898 0.82313 0.0
C221 C 0.16437 0.21529 0.76773 0.0
C222 C 0.17653 0.1884 0.70763 0.0
C223 C 0.20199 0.23292 0.65882 0.0
C224 C 0.21431 0.20478 0.59935 0.0
C225 C 0.20263 0.13453 0.58867 0.0
C226 C 0.17839 0.09092 0.63662 0.0
C227 C 0.16534 0.11726 0.69552 0.0
H228 H 0.33866 0.29709 0.66142 0.0
C229 C 0.3252 0.33653 0.63025 0.0
H230 H 0.24688 0.38686 0.60026 0.0
H231 H 0.13542 0.28373 0.87336 0.0
H232 H 0.15118 0.40676 0.88878 0.0
H233 H 0.19626 0.48386 0.80419 0.0
H234 H 0.22579 0.43836 0.70341 0.0
C235 C 0.26306 0.34741 0.62938 0.0
C236 C 0.21661 0.30416 0.67071 0.0
C237 C 0.19736 0.33143 0.72807 0.0
C238 C 0.17133 0.28688 0.77685 0.0
C239 C 0.15526 0.31535 0.83484 0.0
C240 C 0.16403 0.38578 0.84421 0.0
C241 C 0.18943 0.42922 0.79656 0.0
C242 C 0.20628 0.4026 0.73912 0.0
H243 H 0.82281 0.1327 0.81234 0.0
C244 C 0.86604 0.16133 0.83618 0.0
H245 H 0.93076 0.25454 0.84125 0.0
H246 H 0.72992 0.24312 0.57908 0.0
H247 H 0.78469 0.15239 0.54055 0.0
H248 H 0.87093 0.1113 0.60615 0.0
H249 H 0.90276 0.1606 0.71081 0.0
C250 C 0.88878 0.22464 0.8167 0.0
C251 C 0.84873 0.25921 0.77104 0.0
C252 C 0.83233 0.23157 0.7092 0.0
C253 C 0.78332 0.25595 0.67108 0.0
C254 C 0.76669 0.22628 0.61011 0.0
C255 C 0.79791 0.17439 0.58733 0.0
C256 C 0.84644 0.15123 0.62427 0.0
C257 C 0.86386 0.17951 0.68442 0.0
H258 H 0.74185 0.42127 0.62644 0.0
C259 C 0.69655 0.38536 0.62627 0.0
H260 H 0.65028 0.28897 0.65628 0.0
H261 H 0.87452 0.32978 0.8843 0.0
H262 H 0.82272 0.42292 0.92085 0.0
H263 H 0.7376 0.4649 0.85477 0.0
H264 H 0.70388 0.41412 0.75155 0.0
C265 C 0.69421 0.32685 0.65837 0.0
C266 C 0.75185 0.30893 0.69429 0.0
C267 C 0.77173 0.34016 0.75411 0.0
C268 C 0.82058 0.31554 0.79241 0.0
C269 C 0.83806 0.34636 0.85286 0.0
C270 C 0.8086 0.39995 0.8746 0.0
C271 C 0.7607 0.42365 0.83737 0.0
C272 C 0.74201 0.3941 0.77799 0.0
H273 H 0.857 0.78656 0.8762 0.0
C274 C 0.85504 0.8373 0.89505 0.0
H275 H 0.80053 0.91793 0.89726 0.0
H276 H 0.67098 0.8336 0.62465 0.0
H277 H 0.70423 0.9557 0.61712 0.0
H278 H 0.76086 0.02253 0.70761 0.0
H279 H 0.78301 0.96796 0.80664 0.0
C280 C 0.80258 0.86664 0.88033 0.0
C281 C 0.75249 0.83182 0.83282 0.0
C282 C 0.74005 0.86463 0.77518 0.0
C283 C 0.70942 0.82556 0.72221 0.0
C284 C 0.69617 0.86009 0.66567 0.0
C285 C 0.7146 0.93034 0.66079 0.0
C286 C 0.74639 0.96798 0.71176 0.0
C287 C 0.75906 0.93583 0.76839 0.0
H288 H 0.58984 0.65069 0.69974 0.0
C289 C 0.62006 0.66539 0.65951 0.0
H290 H 0.70204 0.72664 0.62429 0.0
H291 H 0.74365 0.76016 0.94268 0.0
H292 H 0.71313 0.63713 0.95191 0.0
H293 H 0.68119 0.56519 0.85641 0.0
H294 H 0.67717 0.61508 0.75246 0.0
C295 C 0.67362 0.71303 0.66605 0.0
C296 C 0.69391 0.75329 0.72597 0.0
C297 C 0.70225 0.72135 0.78543 0.0
C298 C 0.72704 0.76178 0.83964 0.0
C299 C 0.72864 0.73053 0.89977 0.0
C300 C 0.7111 0.66037 0.90567 0.0
C301 C 0.69284 0.61993 0.85194 0.0
C302 C 0.68928 0.64963 0.79237 0.0
loop_
_geom_bond_atom_site_label_1
_geom_bond_atom_site_label_2
_geom_bond_distance
_geom_bond_site_symmetry_2
_ccdc_geom_bond_type
C0 O12 1.241 . S
C0 O13 1.280 . S
C1 O14 1.277 . S
C1 O15 1.245 . S
C2 O26 1.247 . S
C2 O28 1.289 . S
Mg3 O4 1.926 . S
Mg3 O13 1.984 . S
Mg3 O15 1.988 1_554 S
Mg3 O16 2.061 1_655 S
O4 Mg3 1.926 . S
O4 Mg5 1.986 . S
O4 Mg6 1.917 1_655 S
Mg5 O4 1.986 . S
Mg5 O12 2.043 . S
Mg5 O14 2.041 1_554 S
Mg5 O20 2.039 1_545 S
Mg5 O28 2.237 1_544 S
Mg6 O4 1.917 1_455 S
Mg6 O7 1.917 1_544 S
Mg6 O17 2.106 . S
Mg6 O19 2.079 1_445 S
Mg6 O28 2.106 1_444 S
Mg6 O29 2.079 1_554 S
O7 Mg6 1.917 1_566 S
O7 Mg8 1.926 . S
O7 Mg9 1.986 1_556 S
Mg8 O7 1.926 . S
Mg8 O22 1.984 . S
Mg8 O25 1.988 1_556 S
Mg8 O26 2.061 1_455 S
Mg9 O7 1.986 1_554 S
Mg9 O17 2.237 1_565 S
Mg9 O21 2.043 1_554 S
Mg9 O23 2.041 . S
Mg9 O30 2.039 1_564 S
C10 O16 1.247 . S
C10 O17 1.289 . S
C11 O29 1.245 . S
C11 O30 1.274 . S
O12 C0 1.241 . S
O12 Mg5 2.043 . S
O13 C0 1.280 . S
O13 Mg3 1.984 . S
O14 C1 1.277 . S
O14 Mg5 2.041 1_556 S
O15 C1 1.245 . S
O15 Mg3 1.988 1_556 S
O16 Mg3 2.061 1_455 S
O16 C10 1.247 . S
O17 Mg6 2.106 . S
O17 Mg9 2.237 1_545 S
O17 C10 1.289 . S
C18 O19 1.245 . S
C18 O20 1.274 . S
O19 Mg6 2.079 1_665 S
O19 C18 1.245 . S
O20 Mg5 2.039 1_565 S
O20 C18 1.274 . S
O21 Mg9 2.043 1_556 S
O21 C24 1.241 . S
O22 Mg8 1.984 . S
O22 C24 1.280 . S
O23 Mg9 2.041 . S
O23 C27 1.277 . S
C24 O21 1.241 . S
C24 O22 1.280 . S
O25 Mg8 1.988 1_554 S
O25 C27 1.245 . S
O26 C2 1.247 . S
O26 Mg8 2.061 1_655 S
C27 O23 1.277 . S
C27 O25 1.245 . S
O28 C2 1.289 . S
O28 Mg5 2.237 1_566 S
O28 Mg6 2.106 1_666 S
O29 Mg6 2.079 1_556 S
O29 C11 1.245 . S
O30 Mg9 2.039 1_546 S
O30 C11 1.274 . S
Fe31 O32 1.886 . S
Fe31 O35 1.715 . S
Fe31 O40 2.077 . S
Fe31 O45 1.935 . S
Fe31 O51 2.077 . S
Fe31 O60 1.935 . S
O32 Fe31 1.886 . S
O32 Fe34 1.715 . S
Fe33 O35 1.886 . S
Fe33 O36 1.715 . S
Fe33 O43 1.935 . S
Fe33 O44 2.077 . S
Fe33 O50 1.935 . S
Fe33 O59 2.077 . S
Fe34 O32 1.715 . S
Fe34 O37 1.886 . S
Fe34 O41 1.935 . S
Fe34 O46 2.077 . S
Fe34 O52 1.935 . S
Fe34 O56 2.077 . S
O35 Fe31 1.715 . S
O35 Fe33 1.886 . S
O36 Fe33 1.715 . S
O36 Fe38 1.886 . S
O37 Fe34 1.886 . S
O37 Fe38 1.715 . S
Fe38 O36 1.886 . S
Fe38 O37 1.715 . S
Fe38 O42 2.077 . S
Fe38 O47 1.935 . S
Fe38 O49 2.077 . S
Fe38 O57 1.935 . S
C39 O51 1.381 . S
C39 O52 1.421 . S
O40 Fe31 2.077 . S
O40 C53 1.381 . S
O41 Fe34 1.935 . S
O41 C53 1.421 . S
O42 Fe38 2.077 . S
O42 C58 1.381 . S
O43 Fe33 1.935 . S
O43 C58 1.421 . S
O44 Fe33 2.077 . S
O44 C48 1.381 . S
O45 Fe31 1.935 . S
O45 C48 1.421 . S
O46 Fe34 2.077 . S
O46 C54 1.381 . S
O47 Fe38 1.935 . S
O47 C54 1.421 . S
C48 O44 1.381 . S
C48 O45 1.421 . S
O49 Fe38 2.077 . S
O49 C61 1.381 . S
O50 Fe33 1.935 . S
O50 C61 1.421 . S
O51 Fe31 2.077 . S
O51 C39 1.381 . S
O52 Fe34 1.935 . S
O52 C39 1.421 . S
C53 O40 1.381 . S
C53 O41 1.421 . S
C54 O46 1.381 . S
C54 O47 1.421 . S
C55 O56 1.381 . S
C55 O57 1.421 . S
O56 Fe34 2.077 . S
O56 C55 1.381 . S
O57 Fe38 1.935 . S
O57 C55 1.421 . S
C58 O42 1.381 . S
C58 O43 1.421 . S
O59 Fe33 2.077 . S
O59 C62 1.381 . S
O60 Fe31 1.935 . S
O60 C62 1.421 . S
C61 O49 1.381 . S
C61 O50 1.421 . S
C62 O59 1.381 . S
C62 O60 1.421 . S
H63 C64 0.951 . S
C64 H63 0.951 . S
C64 C70 1.265 . S
H65 C70 0.950 . S
H66 C74 0.949 . S
H67 C75 0.950 . S
H68 C76 0.951 . S
H69 C77 0.951 . S
C70 C64 1.265 . S
C70 H65 0.950 . S
C70 C71 1.478 . S
C71 C70 1.478 . S
C71 C72 1.397 . S
C71 C88 1.394 . S
C72 C71 1.397 . S
C72 C73 1.438 . S
C72 C77 1.429 . S
C73 C72 1.438 . S
C73 C74 1.428 . S
C73 C86 1.394 . S
C74 H66 0.949 . S
C74 C73 1.428 . S
C74 C75 1.345 . S
C75 H67 0.950 . S
C75 C74 1.345 . S
C75 C76 1.424 . S
C76 H68 0.951 . S
C76 C75 1.424 . S
C76 C77 1.347 . S
C77 H69 0.951 . S
C77 C72 1.429 . S
C77 C76 1.347 . S
H78 C79 0.951 . S
C79 H78 0.951 . S
C79 C85 1.265 . S
H80 C85 0.950 . S
H81 C89 0.949 . S
H82 C90 0.950 . S
H83 C91 0.951 . S
H84 C92 0.951 . S
C85 C79 1.265 . S
C85 H80 0.950 . S
C85 C86 1.478 . S
C86 C73 1.394 . S
C86 C85 1.478 . S
C86 C87 1.397 . S
C87 C86 1.397 . S
C87 C88 1.438 . S
C87 C92 1.429 . S
C88 C71 1.394 . S
C88 C87 1.438 . S
C88 C89 1.428 . S
C89 H81 0.949 . S
C89 C88 1.428 . S
C89 C90 1.345 . S
C90 H82 0.950 . S
C90 C89 1.345 . S
C90 C91 1.424 . S
C91 H83 0.951 . S
C91 C90 1.424 . S
C91 C92 1.347 . S
C92 H84 0.951 . S
C92 C87 1.429 . S
C92 C91 1.347 . S
H93 C94 0.951 . S
C94 H93 0.951 . S
C94 C100 1.265 . S
H95 C100 0.950 . S
H96 C104 0.949 . S
H97 C105 0.950 . S
H98 C106 0.951 . S
H99 C107 0.951 . S
C100 C94 1.265 . S
C100 H95 0.950 . S
C100 C101 1.478 . S
C101 C100 1.478 . S
C101 C102 1.397 . S
C101 C118 1.394 . S
C102 C101 1.397 . S
C102 C103 1.438 . S
C102 C107 1.429 . S
C103 C102 1.438 . S
C103 C104 1.428 . S
C103 C116 1.394 . S
C104 H96 0.949 . S
C104 C103 1.428 . S
C104 C105 1.345 . S
C105 H97 0.950 . S
C105 C104 1.345 . S
C105 C106 1.424 . S
C106 H98 0.951 . S
C106 C105 1.424 . S
C106 C107 1.347 . S
C107 H99 0.951 . S
C107 C102 1.429 . S
C107 C106 1.347 . S
H108 C109 0.951 . S
C109 H108 0.951 . S
C109 C115 1.265 . S
H110 C115 0.950 . S
H111 C119 0.949 . S
H112 C120 0.950 . S
H113 C121 0.951 . S
H114 C122 0.951 . S
C115 C109 1.265 . S
C115 H110 0.950 . S
C115 C116 1.478 . S
C116 C103 1.394 . S
C116 C115 1.478 . S
C116 C117 1.397 . S
C117 C116 1.397 . S
C117 C118 1.438 . S
C117 C122 1.429 . S
C118 C101 1.394 . S
C118 C117 1.438 . S
C118 C119 1.428 . S
C119 H111 0.949 . S
C119 C118 1.428 . S
C119 C120 1.345 . S
C120 H112 0.950 . S
C120 C119 1.345 . S
C120 C121 1.424 . S
C121 H113 0.951 . S
C121 C120 1.424 . S
C121 C122 1.347 . S
C122 H114 0.951 . S
C122 C117 1.429 . S
C122 C121 1.347 . S
H123 C124 0.951 . S
C124 H123 0.951 . S
C124 C130 1.265 . S
H125 C130 0.950 . S
H126 C134 0.949 . S
H127 C135 0.950 . S
H128 C136 0.951 . S
H129 C137 0.951 . S
C130 C124 1.265 . S
C130 H125 0.950 . S
C130 C131 1.478 . S
C131 C130 1.478 . S
C131 C132 1.397 . S
C131 C148 1.394 . S
C132 C131 1.397 . S
C132 C133 1.438 . S
C132 C137 1.429 . S
C133 C132 1.438 . S
C133 C134 1.428 . S
C133 C146 1.394 . S
C134 H126 0.949 . S
C134 C133 1.428 . S
C134 C135 1.345 . S
C135 H127 0.950 . S
C135 C134 1.345 . S
C135 C136 1.424 . S
C136 H128 0.951 . S
C136 C135 1.424 . S
C136 C137 1.347 . S
C137 H129 0.951 . S
C137 C132 1.429 . S
C137 C136 1.347 . S
H138 C139 0.951 . S
C139 H138 0.951 . S
C139 C145 1.265 . S
H140 C145 0.950 . S
H141 C149 0.949 . S
H142 C150 0.950 . S
H143 C151 0.951 . S
H144 C152 0.951 . S
C145 C139 1.265 . S
C145 H140 0.950 . S
C145 C146 1.478 . S
C146 C133 1.394 . S
C146 C145 1.478 . S
C146 C147 1.397 . S
C147 C146 1.397 . S
C147 C148 1.438 . S
C147 C152 1.429 . S
C148 C131 1.394 . S
C148 C147 1.438 . S
C148 C149 1.428 . S
C149 H141 0.949 . S
C149 C148 1.428 . S
C149 C150 1.345 . S
C150 H142 0.950 . S
C150 C149 1.345 . S
C150 C151 1.424 . S
C151 H143 0.951 . S
C151 C150 1.424 . S
C151 C152 1.347 . S
C152 H144 0.951 . S
C152 C147 1.429 . S
C152 C151 1.347 . S
H153 C154 0.951 . S
C154 H153 0.951 . S
C154 C160 1.265 . S
H155 C160 0.950 . S
H156 C164 0.949 . S
H157 C165 0.950 . S
H158 C166 0.951 . S
H159 C167 0.951 . S
C160 C154 1.265 . S
C160 H155 0.950 . S
C160 C161 1.478 . S
C161 C160 1.478 . S
C161 C162 1.397 . S
C161 C178 1.394 . S
C162 C161 1.397 . S
C162 C163 1.438 . S
C162 C167 1.429 . S
C163 C162 1.438 . S
C163 C164 1.428 . S
C163 C176 1.394 . S
C164 H156 0.949 . S
C164 C163 1.428 . S
C164 C165 1.345 . S
C165 H157 0.950 . S
C165 C164 1.345 . S
C165 C166 1.424 . S
C166 H158 0.951 . S
C166 C165 1.424 . S
C166 C167 1.347 . S
C167 H159 0.951 . S
C167 C162 1.429 . S
C167 C166 1.347 . S
H168 C169 0.951 . S
C169 H168 0.951 . S
C169 C175 1.265 . S
H170 C175 0.950 . S
H171 C179 0.949 . S
H172 C180 0.950 . S
H173 C181 0.951 . S
H174 C182 0.951 . S
C175 C169 1.265 . S
C175 H170 0.950 . S
C175 C176 1.478 . S
C176 C163 1.394 . S
C176 C175 1.478 . S
C176 C177 1.397 . S
C177 C176 1.397 . S
C177 C178 1.438 . S
C177 C182 1.429 . S
C178 C161 1.394 . S
C178 C177 1.438 . S
C178 C179 1.428 . S
C179 H171 0.949 . S
C179 C178 1.428 . S
C179 C180 1.345 . S
C180 H172 0.950 . S
C180 C179 1.345 . S
C180 C181 1.424 . S
C181 H173 0.951 . S
C181 C180 1.424 . S
C181 C182 1.347 . S
C182 H174 0.951 . S
C182 C177 1.429 . S
C182 C181 1.347 . S
H183 C184 0.951 . S
C184 H183 0.951 . S
C184 C190 1.265 . S
H185 C190 0.950 . S
H186 C194 0.949 . S
H187 C195 0.950 . S
H188 C196 0.951 . S
H189 C197 0.951 . S
C190 C184 1.265 . S
C190 H185 0.950 . S
C190 C191 1.478 . S
C191 C190 1.478 . S
C191 C192 1.397 . S
C191 C208 1.394 . S
C192 C191 1.397 . S
C192 C193 1.438 . S
C192 C197 1.429 . S
C193 C192 1.438 . S
C193 C194 1.428 . S
C193 C206 1.394 . S
C194 H186 0.949 . S
C194 C193 1.428 . S
C194 C195 1.345 . S
C195 H187 0.950 . S
C195 C194 1.345 . S
C195 C196 1.424 . S
C196 H188 0.951 . S
C196 C195 1.424 . S
C196 C197 1.347 . S
C197 H189 0.951 . S
C197 C192 1.429 . S
C197 C196 1.347 . S
H198 C199 0.951 . S
C199 H198 0.951 . S
C199 C205 1.265 . S
H200 C205 0.950 . S
H201 C209 0.949 . S
H202 C210 0.950 . S
H203 C211 0.951 . S
H204 C212 0.951 . S
C205 C199 1.265 . S
C205 H200 0.950 . S
C205 C206 1.478 . S
C206 C193 1.394 . S
C206 C205 1.478 . S
C206 C207 1.397 . S
C207 C206 1.397 . S
C207 C208 1.438 . S
C207 C212 1.429 . S
C208 C191 1.394 . S
C208 C207 1.438 . S
C208 C209 1.428 . S
C209 H201 0.949 . S
C209 C208 1.428 . S
C209 C210 1.345 . S
C210 H202 0.950 . S
C210 C209 1.345 . S
C210 C211 1.424 . S
C211 H203 0.951 . S
C211 C210 1.424 . S
C211 C212 1.347 . S
C212 H204 0.951 . S
C212 C207 1.429 . S
C212 C211 1.347 . S
H213 C214 0.951 . S
C214 H213 0.951 . S
C214 C220 1.265 . S
H215 C220 0.950 . S
H216 C224 0.949 . S
H217 C225 0.950 . S
H218 C226 0.951 . S
H219 C227 0.951 . S
C220 C214 1.265 . S
C220 H215 0.950 . S
C220 C221 1.478 . S
C221 C220 1.478 . S
C221 C222 1.397 . S
C221 C238 1.394 . S
C222 C221 1.397 . S
C222 C223 1.438 . S
C222 C227 1.429 . S
C223 C222 1.438 . S
C223 C224 1.428 . S
C223 C236 1.394 . S
C224 H216 0.949 . S
C224 C223 1.428 . S
C224 C225 1.345 . S
C225 H217 0.950 . S
C225 C224 1.345 . S
C225 C226 1.424 . S
C226 H218 0.951 . S
C226 C225 1.424 . S
C226 C227 1.347 . S
C227 H219 0.951 . S
C227 C222 1.429 . S
C227 C226 1.347 . S
H228 C229 0.951 . S
C229 H228 0.951 . S
C229 C235 1.265 . S
H230 C235 0.950 . S
H231 C239 0.949 . S
H232 C240 0.950 . S
H233 C241 0.951 . S
H234 C242 0.951 . S
C235 C229 1.265 . S
C235 H230 0.950 . S
C235 C236 1.478 . S
C236 C223 1.394 . S
C236 C235 1.478 . S
C236 C237 1.397 . S
C237 C236 1.397 . S
C237 C238 1.438 . S
C237 C242 1.429 . S
C238 C221 1.394 . S
C238 C237 1.438 . S
C238 C239 1.428 . S
C239 H231 0.949 . S
C239 C238 1.428 . S
C239 C240 1.345 . S
C240 H232 0.950 . S
C240 C239 1.345 . S
C240 C241 1.424 . S
C241 H233 0.951 . S
C241 C240 1.424 . S
C241 C242 1.347 . S
C242 H234 0.951 . S
C242 C237 1.429 . S
C242 C241 1.347 . S
H243 C244 0.951 . S
C244 H243 0.951 . S
C244 C250 1.265 . S
H245 C250 0.950 . S
H246 C254 0.949 . S
H247 C255 0.950 . S
H248 C256 0.951 . S
H249 C257 0.951 . S
C250 C244 1.265 . S
C250 H245 0.950 . S
C250 C251 1.478 . S
C251 C250 1.478 . S
C251 C252 1.397 . S
C251 C268 1.394 . S
C252 C251 1.397 . S
C252 C253 1.438 . S
C252 C257 1.429 . S
C253 C252 1.438 . S
C253 C254 1.428 . S
C253 C266 1.394 . S
C254 H246 0.949 . S
C254 C253 1.428 . S
C254 C255 1.345 . S
C255 H247 0.950 . S
C255 C254 1.345 . S
C255 C256 1.424 . S
C256 H248 0.951 . S
C256 C255 1.424 . S
C256 C257 1.347 . S
C257 H249 0.951 . S
C257 C252 1.429 . S
C257 C256 1.347 . S
H258 C259 0.951 . S
C259 H258 0.951 . S
C259 C265 1.265 . S
H260 C265 0.950 . S
H261 C269 0.949 . S
H262 C270 0.950 . S
H263 C271 0.951 . S
H264 C272 0.951 . S
C265 C259 1.265 . S
C265 H260 0.950 . S
C265 C266 1.478 . S
C266 C253 1.394 . S
C266 C265 1.478 . S
C266 C267 1.397 . S
C267 C266 1.397 . S
C267 C268 1.438 . S
C267 C272 1.429 . S
C268 C251 1.394 . S
C268 C267 1.438 . S
C268 C269 1.428 . S
C269 H261 0.949 . S
C269 C268 1.428 . S
C269 C270 1.345 . S
C270 H262 0.950 . S
C270 C269 1.345 . S
C270 C271 1.424 . S
C271 H263 0.951 . S
C271 C270 1.424 . S
C271 C272 1.347 . S
C272 H264 0.951 . S
C272 C267 1.429 . S
C272 C271 1.347 . S
H273 C274 0.951 . S
C274 H273 0.951 . S
C274 C280 1.265 . S
H275 C280 0.950 . S
H276 C284 0.949 . S
H277 C285 0.950 . S
H278 C286 0.951 . S
H279 C287 0.951 . S
C280 C274 1.265 . S
C280 H275 0.950 . S
C280 C281 1.478 . S
C281 C280 1.478 . S
C281 C282 1.397 . S
C281 C298 1.394 . S
C282 C281 1.397 . S
C282 C283 1.438 . S
C282 C287 1.429 . S
C283 C282 1.438 . S
C283 C284 1.428 . S
C283 C296 1.394 . S
C284 H276 0.949 . S
C284 C283 1.428 . S
C284 C285 1.345 . S
C285 H277 0.950 . S
C285 C284 1.345 . S
C285 C286 1.424 . S
C286 H278 0.951 . S
C286 C285 1.424 . S
C286 C287 1.347 . S
C287 H279 0.951 . S
C287 C282 1.429 . S
C287 C286 1.347 . S
H288 C289 0.951 . S
C289 H288 0.951 . S
C289 C295 1.265 . S
H290 C295 0.950 . S
H291 C299 0.949 . S
H292 C300 0.950 . S
H293 C301 0.951 . S
H294 C302 0.951 . S
C295 C289 1.265 . S
C295 H290 0.950 . S
C295 C296 1.478 . S
C296 C283 1.394 . S
C296 C295 1.478 . S
C296 C297 1.397 . S
C297 C296 1.397 . S
C297 C298 1.438 . S
C297 C302 1.429 . S
C298 C281 1.394 . S
C298 C297 1.438 . S
C298 C299 1.428 . S
C299 H291 0.949 . S
C299 C298 1.428 . S
C299 C300 1.345 . S
C300 H292 0.950 . S
C300 C299 1.345 . S
C300 C301 1.424 . S
C301 H293 0.951 . S
C301 C300 1.424 . S
C301 C302 1.347 . S
C302 H294 0.951 . S
C302 C297 1.429 . S
C302 C301 1.347 . S
C64 C10 1.157 . S
C79 C54 1.142 . S
C94 C0 1.553 . S
C109 C58 1.558 . S
C124 C18 1.444 . S
C139 C48 1.505 . S
C154 C27 1.583 . S
C169 C53 1.567 . S
C184 C24 1.509 . S
C199 C39 1.491 . S
C229 C55 1.522 . S
C214 C11 1.525 . S
C244 C1 1.560 . S
C259 C61 1.546 . S
C289 C62 1.166 . S
C274 C2 1.124 . S
