# Generated by pormake.
# Topology pyr, (3,6)-cn, num edge types: 1
# Building blocks:
#     Node 0, Type 0, BuildingBlock: OLANEW_clean_sbu_2, # of connection points: 3
#     Node 1, Type 0, BuildingBlock: OLANEW_clean_sbu_2, # of connection points: 3
#     Node 2, Type 0, BuildingBlock: OLANEW_clean_sbu_2, # of connection points: 3
#     Node 3, Type 0, BuildingBlock: OLANEW_clean_sbu_2, # of connection points: 3
#     Node 4, Type 0, BuildingBlock: OLANEW_clean_sbu_2, # of connection points: 3
#     Node 5, Type 0, BuildingBlock: OLANEW_clean_sbu_2, # of connection points: 3
#     Node 6, Type 0, BuildingBlock: OLANEW_clean_sbu_2, # of connection points: 3
#     Node 7, Type 0, BuildingBlock: OLANEW_clean_sbu_2, # of connection points: 3
#     Node 8, Type 1, BuildingBlock: INOVEN_clean_sbu_0, # of connection points: 6
#     Node 9, Type 1, BuildingBlock: INOVEN_clean_sbu_0, # of connection points: 6
#     Node 10, Type 1, BuildingBlock: INOVEN_clean_sbu_0, # of connection points: 6
#     Node 11, Type 1, BuildingBlock: INOVEN_clean_sbu_0, # of connection points: 6
#     Edge 12, Type (0, 1), BuildingBlock: CIFDUS_clean_linker_0, # of connection points: 2
#     Edge 13, Type (0, 1), BuildingBlock: CIFDUS_clean_linker_0, # of connection points: 2
#     Edge 14, Type (0, 1), BuildingBlock: CIFDUS_clean_linker_0, # of connection points: 2
#     Edge 15, Type (0, 1), BuildingBlock: CIFDUS_clean_linker_0, # of connection points: 2
#     Edge 16, Type (0, 1), BuildingBlock: CIFDUS_clean_linker_0, # of connection points: 2
#     Edge 17, Type (0, 1), BuildingBlock: CIFDUS_clean_linker_0, # of connection points: 2
#     Edge 18, Type (0, 1), BuildingBlock: CIFDUS_clean_linker_0, # of connection points: 2
#     Edge 19, Type (0, 1), BuildingBlock: CIFDUS_clean_linker_0, # of connection points: 2
#     Edge 20, Type (0, 1), BuildingBlock: CIFDUS_clean_linker_0, # of connection points: 2
#     Edge 21, Type (0, 1), BuildingBlock: CIFDUS_clean_linker_0, # of connection points: 2
#     Edge 22, Type (0, 1), BuildingBlock: CIFDUS_clean_linker_0, # of connection points: 2
#     Edge 23, Type (0, 1), BuildingBlock: CIFDUS_clean_linker_0, # of connection points: 2
#     Edge 24, Type (0, 1), BuildingBlock: CIFDUS_clean_linker_0, # of connection points: 2
#     Edge 25, Type (0, 1), BuildingBlock: CIFDUS_clean_linker_0, # of connection points: 2
#     Edge 26, Type (0, 1), BuildingBlock: CIFDUS_clean_linker_0, # of connection points: 2
#     Edge 27, Type (0, 1), BuildingBlock: CIFDUS_clean_linker_0, # of connection points: 2
#     Edge 28, Type (0, 1), BuildingBlock: CIFDUS_clean_linker_0, # of connection points: 2
#     Edge 29, Type (0, 1), BuildingBlock: CIFDUS_clean_linker_0, # of connection points: 2
#     Edge 30, Type (0, 1), BuildingBlock: CIFDUS_clean_linker_0, # of connection points: 2
#     Edge 31, Type (0, 1), BuildingBlock: CIFDUS_clean_linker_0, # of connection points: 2
#     Edge 32, Type (0, 1), BuildingBlock: CIFDUS_clean_linker_0, # of connection points: 2
#     Edge 33, Type (0, 1), BuildingBlock: CIFDUS_clean_linker_0, # of connection points: 2
#     Edge 34, Type (0, 1), BuildingBlock: CIFDUS_clean_linker_0, # of connection points: 2
#     Edge 35, Type (0, 1), BuildingBlock: CIFDUS_clean_linker_0, # of connection points: 2
# Relax obj value: 0.144
# Max RMSD: 0.171
# Mean RMSD: 0.122
data_MOF--net-pyr--node1-OLANEW_clean_sbu_2--node2-INOVEN_clean_sbu_0--edge1-CIFDUS_clean_linker_0
_symmetry_space_group_name_H-M    P1
_symmetry_Int_Tables_number       1
_symmetry_cell_setting            triclinic
loop_
_symmetry_equiv_pos_as_xyz
'x, y, z'
_cell_length_a     36.191866
_cell_length_b     40.367815
_cell_length_c     35.290041
_cell_angle_alpha  96.161923
_cell_angle_beta   87.848815
_cell_angle_gamma 104.12431
loop_
_atom_site_label
_atom_site_type_symbol
_atom_site_fract_x
_atom_site_fract_y
_atom_site_fract_z
_atom_type_partial_charge
O0 O 0.39871 0.28347 0.17253 0.0
Cd1 Cd 0.39005 0.33992 0.20157 0.0
O2 O 0.37003 0.26807 0.22514 0.0
Cd3 Cd 0.34803 0.23932 0.27274 0.0
O4 O 0.31445 0.23463 0.32485 0.0
C5 C 0.32907 0.23877 0.3577 0.0
O6 O 0.36619 0.24461 0.36094 0.0
C7 C 0.38668 0.26003 0.19448 0.0
C8 C 0.32469 0.36215 0.18691 0.0
O9 O 0.35577 0.37153 0.16799 0.0
O10 O 0.32387 0.34115 0.21192 0.0
O11 O 0.29551 0.90241 0.67924 0.0
Cd12 Cd 0.26706 0.87701 0.61829 0.0
O13 O 0.24528 0.86637 0.69877 0.0
Cd14 Cd 0.19785 0.8405 0.73342 0.0
O15 O 0.15123 0.85888 0.71294 0.0
C16 C 0.15996 0.89108 0.71068 0.0
O17 O 0.19261 0.90933 0.72472 0.0
C18 C 0.2759 0.88906 0.70676 0.0
C19 C 0.29481 0.81901 0.60467 0.0
O20 O 0.30967 0.8459 0.58798 0.0
O21 O 0.26512 0.81879 0.62567 0.0
O22 O 0.73807 0.42236 0.86916 0.0
Cd23 Cd 0.67896 0.41076 0.82593 0.0
O24 O 0.72874 0.37605 0.90038 0.0
Cd25 Cd 0.71407 0.32753 0.93215 0.0
O26 O 0.68581 0.27489 0.95318 0.0
C27 C 0.65122 0.26741 0.96535 0.0
O28 O 0.63184 0.29109 0.9661 0.0
C29 C 0.74916 0.40606 0.89441 0.0
C30 C 0.65991 0.44138 0.7605 0.0
O31 O 0.65998 0.4566 0.79439 0.0
O32 O 0.67123 0.41343 0.75694 0.0
O33 O 0.94457 0.7682 0.36801 0.0
Cd34 Cd 0.91649 0.71149 0.3291 0.0
O35 O 0.90166 0.7591 0.41459 0.0
Cd36 Cd 0.86452 0.70807 0.39925 0.0
O37 O 0.81268 0.67557 0.42292 0.0
C38 C 0.8069 0.68397 0.45805 0.0
O39 O 0.83207 0.7094 0.47589 0.0
C40 C 0.93072 0.77833 0.39995 0.0
C41 C 0.94772 0.6795 0.26316 0.0
O42 O 0.93046 0.70338 0.26044 0.0
O43 O 0.95251 0.67223 0.29687 0.0
O44 O 0.69097 0.74851 0.77331 0.0
Cd45 Cd 0.65878 0.70086 0.80825 0.0
O46 O 0.67295 0.77722 0.82355 0.0
Cd47 Cd 0.66633 0.82111 0.86259 0.0
O48 O 0.64342 0.85414 0.90522 0.0
C49 C 0.62171 0.87198 0.89518 0.0
O50 O 0.61436 0.87099 0.85884 0.0
C51 C 0.69238 0.77711 0.79277 0.0
C52 C 0.71673 0.68629 0.84804 0.0
O53 O 0.7025 0.66677 0.81847 0.0
O54 O 0.70257 0.71174 0.85975 0.0
O55 O 0.77326 0.20469 0.44691 0.0
Cd56 Cd 0.82358 0.23398 0.49088 0.0
O57 O 0.80882 0.2293 0.40103 0.0
Cd58 Cd 0.83708 0.27125 0.442 0.0
O59 O 0.7976 0.29819 0.4726 0.0
C60 C 0.76676 0.293 0.45432 0.0
O61 O 0.76433 0.27603 0.42029 0.0
C62 C 0.77939 0.20765 0.4116 0.0
C63 C 0.85997 0.18828 0.51717 0.0
O64 O 0.86871 0.19887 0.4843 0.0
O65 O 0.8342 0.19924 0.53704 0.0
O66 O 0.44192 0.7999 0.23853 0.0
Cd67 Cd 0.42743 0.74047 0.26901 0.0
O68 O 0.39593 0.79295 0.19546 0.0
Cd69 Cd 0.3563 0.74066 0.19283 0.0
O70 O 0.31005 0.69679 0.16758 0.0
C71 C 0.27698 0.70137 0.16249 0.0
O72 O 0.27072 0.73167 0.17358 0.0
C73 C 0.42545 0.81165 0.21272 0.0
C74 C 0.45036 0.70787 0.33241 0.0
O75 O 0.46746 0.70751 0.29985 0.0
O76 O 0.42486 0.72531 0.33624 0.0
O77 O 0.18684 0.44501 0.77157 0.0
Cd78 Cd 0.21724 0.41527 0.71772 0.0
O79 O 0.13897 0.40148 0.78456 0.0
Cd80 Cd 0.14617 0.3584 0.7416 0.0
O81 O 0.13901 0.30671 0.70821 0.0
C82 C 0.10766 0.28407 0.71034 0.0
O83 O 0.08005 0.29216 0.73178 0.0
C84 C 0.15736 0.43281 0.79156 0.0
C85 C 0.2864 0.45007 0.68355 0.0
O86 O 0.25403 0.44885 0.66913 0.0
O87 O 0.28615 0.43612 0.71457 0.0
Gd88 Gd 0.03212 0.03427 0.54225 0.0
Gd89 Gd 0.99314 1.00988 0.61426 0.0
C90 C 0.04169 0.0876 0.61954 0.0
C91 C 0.06042 0.06842 0.48607 0.0
C92 C 0.09171 0.09913 0.48222 0.0
C93 C 0.12795 0.09512 0.4704 0.0
C94 C 0.08596 0.13246 0.48998 0.0
C95 C 0.1518 0.15696 0.47255 0.0
C96 C 0.11578 0.16116 0.48506 0.0
C97 C 0.15767 0.12368 0.46583 0.0
C98 C 0.07178 1.00364 0.58474 0.0
C99 C 0.98338 0.95743 0.5348 0.0
C100 C 0.96707 0.97766 0.67276 0.0
C101 C 0.9306 0.95461 0.68315 0.0
C102 C 0.89638 0.96554 0.68496 0.0
C103 C 0.92984 0.92126 0.69162 0.0
C104 C 0.86158 0.91017 0.70315 0.0
C105 C 0.89552 0.89914 0.70141 0.0
C106 C 0.86215 0.94346 0.695 0.0
C107 C 0.95269 0.04212 0.57527 0.0
O108 O 0.04344 0.08387 0.5819 0.0
O109 O 0.02894 0.06087 0.63916 0.0
O110 O 0.07054 0.04097 0.49395 0.0
O111 O 0.0299 0.07298 0.50494 0.0
O112 O 0.07163 0.99944 0.5479 0.0
O113 O 0.05293 0.02474 0.59725 0.0
O114 O 0.98121 0.96112 0.57262 0.0
O115 O 0.99738 0.984 0.51539 0.0
O116 O 0.96656 1.00953 0.66995 0.0
O117 O 0.98755 0.96547 0.64588 0.0
O118 O 0.95075 0.04136 0.61178 0.0
O119 O 0.972 0.02189 0.56034 0.0
H120 H 0.13326 0.06983 0.46393 0.0
H121 H 0.05832 0.13639 0.4992 0.0
H122 H 0.1105 0.18655 0.49019 0.0
H123 H 0.18482 0.11954 0.45518 0.0
H124 H 0.89594 0.99109 0.67857 0.0
H125 H 0.9558 0.91232 0.69055 0.0
H126 H 0.89541 0.87342 0.70767 0.0
H127 H 0.8361 0.95226 0.69621 0.0
Gd128 Gd 0.5322 0.05418 0.10196 0.0
Gd129 Gd 0.4606 0.03852 0.05988 0.0
C130 C 0.46518 0.09251 0.13055 0.0
C131 C 0.5966 0.08856 0.1294 0.0
C132 C 0.60939 0.10582 0.16722 0.0
C133 C 0.61968 0.08765 0.19525 0.0
C134 C 0.61237 0.14124 0.17514 0.0
C135 C 0.64027 0.1408 0.23641 0.0
C136 C 0.62738 0.1585 0.20953 0.0
C137 C 0.63494 0.10501 0.22962 0.0
C138 C 0.48639 1.00081 0.13635 0.0
C139 C 0.52841 1.00462 0.0249 0.0
C140 C 0.40039 1.00897 0.02077 0.0
C141 C 0.39323 0.99379 0.98101 0.0
C142 C 0.40779 0.01256 0.95011 0.0
C143 C 0.37128 0.96005 0.97379 0.0
C144 C 0.37639 0.96467 0.90552 0.0
C145 C 0.36298 0.94558 0.93641 0.0
C146 C 0.3994 0.99812 0.91271 0.0
C147 C 0.5099 0.09778 0.04231 0.0
O148 O 0.50181 0.09332 0.12923 0.0
O149 O 0.44063 0.06726 0.11156 0.0
O150 O 0.58694 0.05493 0.12541 0.0
O151 O 0.57373 0.1023 0.11195 0.0
O152 O 0.52025 0.01714 0.14701 0.0
O153 O 0.47692 0.01453 0.10842 0.0
O154 O 0.49445 1.00975 0.01982 0.0
O155 O 0.54935 0.01927 0.05462 0.0
O156 O 0.41341 0.04222 0.02614 0.0
O157 O 0.41689 0.99257 0.04231 0.0
O158 O 0.47337 0.09327 0.04654 0.0
O159 O 0.51905 0.06987 0.04657 0.0
H160 H 0.61732 0.06028 0.19015 0.0
H161 H 0.60425 0.1559 0.15426 0.0
H162 H 0.6306 0.18602 0.21432 0.0
H163 H 0.64483 0.09071 0.24973 0.0
H164 H 0.42514 0.03858 0.95476 0.0
H165 H 0.36015 0.94498 0.99714 0.0
H166 H 0.34569 0.91954 0.93167 0.0
H167 H 0.40988 0.01354 0.88949 0.0
Gd168 Gd 0.53626 0.52751 0.51727 0.0
Gd169 Gd 0.53306 0.58691 0.57015 0.0
C170 C 0.56876 0.5325 0.60466 0.0
C171 C 0.55588 0.47591 0.47988 0.0
C172 C 0.5805 0.45397 0.49009 0.0
C173 C 0.56445 0.41975 0.49686 0.0
C174 C 0.62001 0.46719 0.49424 0.0
C175 C 0.62724 0.41181 0.50957 0.0
C176 C 0.64307 0.44634 0.50381 0.0
C177 C 0.58755 0.39891 0.50669 0.0
C178 C 0.46687 0.52349 0.55067 0.0
C179 C 0.50975 0.58745 0.48098 0.0
C180 C 0.5108 0.63543 0.61067 0.0
C181 C 0.48626 0.65747 0.60209 0.0
C182 C 0.49351 0.6914 0.61888 0.0
C183 C 0.45608 0.64509 0.57636 0.0
C184 C 0.43938 0.69982 0.58609 0.0
C185 C 0.43277 0.66623 0.56836 0.0
C186 C 0.46999 0.71247 0.61109 0.0
C187 C 0.60283 0.59103 0.53831 0.0
O188 O 0.56896 0.51868 0.56878 0.0
O189 O 0.55264 0.55835 0.61354 0.0
O190 O 0.52358 0.47295 0.49855 0.0
O191 O 0.57272 0.50782 0.47535 0.0
O192 O 0.47197 0.5154 0.51456 0.0
O193 O 0.49863 0.53368 0.56705 0.0
O194 O 0.50542 0.59895 0.51713 0.0
O195 O 0.52454 0.56049 0.47286 0.0
O196 O 0.54348 0.64042 0.59247 0.0
O197 O 0.49393 0.60293 0.61164 0.0
O198 O 0.597 0.60139 0.57363 0.0
O199 O 0.5715 0.58029 0.52125 0.0
H200 H 0.53404 0.40901 0.49426 0.0
H201 H 0.63337 0.49353 0.48955 0.0
H202 H 0.67357 0.45698 0.50505 0.0
H203 H 0.57442 0.37249 0.51128 0.0
H204 H 0.51702 0.70141 0.63832 0.0
H205 H 0.45022 0.61898 0.56286 0.0
H206 H 0.40899 0.65612 0.54927 0.0
H207 H 0.47527 0.73844 0.62495 0.0
Gd208 Gd 0.0324 0.5038 0.04378 0.0
Gd209 Gd 0.01468 0.56511 1.00812 0.0
C210 C 0.08918 0.58092 0.05899 0.0
C211 C 0.06797 0.45656 0.05056 0.0
C212 C 0.10075 0.45198 0.07188 0.0
C213 C 0.09821 0.44639 0.11072 0.0
C214 C 0.13535 0.45239 0.05232 0.0
C215 C 0.16439 0.44183 0.10959 0.0
C216 C 0.16669 0.44754 0.07088 0.0
C217 C 0.12973 0.44126 0.12936 0.0
C218 C 0.00433 0.54299 0.10023 0.0
C219 C 0.95054 0.49106 1.00162 0.0
C220 C 0.98737 0.61297 0.98533 0.0
C221 C 0.95205 0.6167 0.96891 0.0
C222 C 0.95444 0.63657 0.93828 0.0
C223 C 0.91609 0.60118 0.98354 0.0
C224 C 0.88541 0.62624 0.93764 0.0
C225 C 0.88303 0.60593 0.96801 0.0
C226 C 0.92142 0.64134 0.92277 0.0
C227 C 0.05697 0.52762 0.96487 0.0
O228 O 0.08608 0.54725 0.05626 0.0
O229 O 0.06285 0.59385 0.04542 0.0
O230 O 0.03608 0.45785 0.06913 0.0
O231 O 0.07665 0.47845 0.02482 0.0
O232 O 0.01299 0.51424 0.10457 0.0
O233 O 0.00917 0.54819 0.06541 0.0
O234 O 0.95881 0.52461 0.99836 0.0
O235 O 0.97506 0.4765 0.01683 0.0
O236 O 0.00779 0.59593 0.96341 0.0
O237 O 0.98567 0.60592 0.0208 0.0
O238 O 0.0641 0.56092 0.96722 0.0
O239 O 0.02827 0.51656 0.98539 0.0
H240 H 0.07193 0.44581 0.12663 0.0
H241 H 0.13817 0.45617 0.02231 0.0
H242 H 0.19257 0.44742 0.05449 0.0
H243 H 0.12705 0.43698 0.15923 0.0
H244 H 0.98192 0.64853 0.92644 0.0
H245 H 0.91352 0.58559 1.0071 0.0
H246 H 0.85565 0.59419 0.98017 0.0
H247 H 0.92403 0.65667 0.89899 0.0
H248 H 0.25893 0.25052 0.36707 0.0
H249 H 0.34265 0.21364 0.42315 0.0
H250 H 0.29516 0.19117 0.47104 0.0
H251 H 0.22734 0.17196 0.48817 0.0
H252 H 0.14349 0.20671 0.42968 0.0
H253 H 0.1937 0.24145 0.39272 0.0
C254 C 0.26691 0.23819 0.39029 0.0
C255 C 0.30373 0.23276 0.39114 0.0
C256 C 0.23941 0.22499 0.41726 0.0
C257 C 0.31423 0.21766 0.42176 0.0
C258 C 0.28707 0.20471 0.44902 0.0
C259 C 0.22028 0.18791 0.46803 0.0
C260 C 0.18185 0.18611 0.46083 0.0
C261 C 0.24916 0.20668 0.4458 0.0
C262 C 0.17288 0.20749 0.43552 0.0
C263 C 0.20155 0.22702 0.414 0.0
H264 H 0.34757 0.91946 0.73011 0.0
H265 H 0.23284 0.88489 0.77288 0.0
H266 H 0.2545 0.9033 0.83773 0.0
H267 H 0.30548 0.93122 0.88236 0.0
H268 H 0.42024 0.96715 0.84037 0.0
H269 H 0.39906 0.94658 0.77509 0.0
C270 C 0.32727 0.916 0.75362 0.0
C271 C 0.28859 0.9004 0.74645 0.0
C272 C 0.33994 0.92705 0.791 0.0
C273 C 0.26278 0.89597 0.77728 0.0
C274 C 0.27515 0.90683 0.81454 0.0
C275 C 0.32598 0.9341 0.85899 0.0
C276 C 0.36435 0.95058 0.86616 0.0
C277 C 0.3136 0.92245 0.8217 0.0
C278 C 0.39046 0.95475 0.83551 0.0
C279 C 0.37839 0.94295 0.79824 0.0
H280 H 0.64608 0.505 0.75433 0.0
H281 H 0.63859 0.40637 0.69065 0.0
H282 H 0.6107 0.42506 0.63706 0.0
H283 H 0.58698 0.46955 0.6078 0.0
H284 H 0.59463 0.56794 0.67238 0.0
H285 H 0.62407 0.54957 0.7248 0.0
C286 C 0.63861 0.48761 0.72867 0.0
C287 C 0.64488 0.45423 0.7269 0.0
C288 C 0.62247 0.49861 0.69758 0.0
C289 C 0.63472 0.43229 0.69309 0.0
C290 C 0.61851 0.44296 0.66227 0.0
C291 C 0.5952 0.48703 0.63327 0.0
C292 C 0.58806 0.5202 0.6358 0.0
C293 C 0.61209 0.4761 0.66407 0.0
C294 C 0.59907 0.5422 0.66938 0.0
C295 C 0.61611 0.53171 0.69959 0.0
H296 H 0.97033 0.61945 0.25938 0.0
H297 H 0.95058 0.69362 0.18825 0.0
H298 H 0.96628 0.65893 0.13134 0.0
H299 H 0.98499 0.60615 0.10116 0.0
H300 H 1.00155 0.5319 0.17415 0.0
H301 H 0.98783 0.56761 0.23007 0.0
C302 C 0.96973 0.62828 0.23151 0.0
C303 C 0.9595 0.65941 0.22844 0.0
C304 C 0.97806 0.60784 0.19877 0.0
C305 C 0.95849 0.66993 0.19176 0.0
C306 C 0.96739 0.64998 0.15905 0.0
C307 C 0.98542 0.5978 0.12928 0.0
C308 C 0.99426 0.56609 0.13307 0.0
C309 C 0.97704 0.61865 0.16205 0.0
C310 C 0.99476 0.55594 0.16998 0.0
C311 C 0.98697 0.57646 0.20225 0.0
H312 H 0.44767 0.245 0.15675 0.0
H313 H 0.34355 0.19755 0.21303 0.0
H314 H 0.35768 0.14101 0.19854 0.0
H315 H 0.40017 0.10462 0.16854 0.0
H316 H 0.50684 0.15509 0.11819 0.0
H317 H 0.49107 0.21026 0.13116 0.0
C318 C 0.42796 0.22227 0.16573 0.0
C319 C 0.39452 0.2255 0.18571 0.0
C320 C 0.4368 0.19013 0.15827 0.0
C321 C 0.36961 0.19583 0.19772 0.0
C322 C 0.37764 0.16344 0.18932 0.0
C323 C 0.41998 0.12779 0.16085 0.0
C324 C 0.45476 0.12557 0.14259 0.0
C325 C 0.41126 0.16018 0.16955 0.0
C326 C 0.48013 0.15592 0.13274 0.0
C327 C 0.47108 0.18763 0.13994 0.0
H328 H 0.17445 0.95795 0.69803 0.0
H329 H 0.09446 0.86029 0.67145 0.0
H330 H 0.06062 0.88644 0.62884 0.0
H331 H 0.05496 0.93706 0.59773 0.0
H332 H 0.13369 0.03464 0.62652 0.0
H333 H 0.16753 1.00841 0.66924 0.0
C334 C 0.14945 0.94235 0.68318 0.0
C335 C 0.13705 0.90719 0.68787 0.0
C336 C 0.13035 0.95747 0.65869 0.0
C337 C 0.10457 0.88743 0.66838 0.0
C338 C 0.08533 0.90232 0.64386 0.0
C339 C 0.07969 0.95231 0.61331 0.0
C340 C 0.09248 0.9874 0.60898 0.0
C341 C 0.09825 0.93722 0.63847 0.0
C342 C 0.12388 1.00744 0.62952 0.0
C343 C 0.14301 0.99251 0.65393 0.0
H344 H 0.80652 0.38088 0.92494 0.0
H345 H 0.77052 0.47407 0.9162 0.0
H346 H 0.82742 0.50774 0.94911 0.0
H347 H 0.88912 0.51211 0.97824 0.0
H348 H 0.92784 0.42033 0.98668 0.0
H349 H 0.86924 0.38545 0.95629 0.0
C350 C 0.81094 0.40848 0.93064 0.0
C351 C 0.78369 0.42465 0.9178 0.0
C352 C 0.84476 0.42831 0.94941 0.0
C353 C 0.79064 0.46064 0.92527 0.0
C354 C 0.8234 0.48012 0.94422 0.0
C355 C 0.88484 0.48444 0.97377 0.0
C356 C 0.91335 0.46918 0.98521 0.0
C357 C 0.85096 0.46442 0.95604 0.0
C358 C 0.90664 0.43311 0.97877 0.0
C359 C 0.87296 0.41302 0.96114 0.0
H360 H 0.74573 0.63382 0.42962 0.0
H361 H 0.78927 0.69631 0.53294 0.0
H362 H 0.73125 0.67145 0.5671 0.0
H363 H 0.66713 0.6339 0.56756 0.0
H364 H 0.62137 0.57294 0.46444 0.0
H365 H 0.68134 0.59471 0.43058 0.0
C366 C 0.74261 0.64181 0.45965 0.0
C367 C 0.77195 0.66699 0.47856 0.0
C368 C 0.70876 0.62759 0.47928 0.0
C369 C 0.76729 0.67705 0.51752 0.0
C370 C 0.73405 0.66283 0.5372 0.0
C371 C 0.67037 0.62514 0.53774 0.0
C372 C 0.63989 0.60189 0.51851 0.0
C373 C 0.70449 0.63835 0.51834 0.0
C374 C 0.64447 0.59088 0.47985 0.0
C375 C 0.6787 0.6034 0.46047 0.0
H376 H 0.32304 0.41817 0.15143 0.0
H377 H 0.25043 0.33619 0.20783 0.0
H378 H 0.19432 0.35575 0.19252 0.0
H379 H 0.16551 0.39301 0.15761 0.0
H380 H 0.23902 0.47585 0.10304 0.0
H381 H 0.295 0.4593 0.12345 0.0
C382 C 0.29495 0.40459 0.16044 0.0
C383 C 0.29088 0.37528 0.17996 0.0
C384 C 0.26289 0.4161 0.15176 0.0
C385 C 0.25434 0.35854 0.1923 0.0
C386 C 0.22223 0.36973 0.18355 0.0
C387 C 0.19378 0.40785 0.15084 0.0
C388 C 0.19795 0.43517 0.12803 0.0
C389 C 0.22606 0.39806 0.16256 0.0
C390 C 0.23489 0.45416 0.11968 0.0
C391 C 0.26698 0.44475 0.13139 0.0
H392 H 0.5801 0.24808 0.99599 0.0
H393 H 0.67824 0.2081 0.96471 0.0
H394 H 0.64482 0.15232 0.98609 0.0
H395 H 0.58594 0.11401 0.01384 0.0
H396 H 0.48941 0.15731 0.04337 0.0
H397 H 0.52386 0.21184 0.023 0.0
C398 C 0.59452 0.22734 0.99377 0.0
C399 C 0.63196 0.23282 0.97862 0.0
C400 C 0.57514 0.1954 1.0061 0.0
C401 C 0.64959 0.20509 0.97625 0.0
C402 C 0.63035 0.17301 0.98853 0.0
C403 C 0.5726 0.13544 0.01596 0.0
C404 C 0.53467 0.13099 0.03035 0.0
C405 C 0.59289 0.16768 1.00361 0.0
C406 C 0.5182 0.15937 0.03251 0.0
C407 C 0.53797 0.1909 0.02078 0.0
H408 H 0.90966 0.80383 0.46996 0.0
H409 H 0.98783 0.83173 0.37678 0.0
H410 H 0.01042 0.88954 0.40972 0.0
H411 H 0.00686 0.93282 0.46471 0.0
H412 H 0.92993 0.90313 0.55824 0.0
H413 H 0.90775 0.84565 0.52521 0.0
C414 C 0.93174 0.8224 0.45665 0.0
C415 C 0.94675 0.81316 0.42054 0.0
C416 C 0.94461 0.85554 0.47579 0.0
C417 C 0.97558 0.83786 0.40433 0.0
C418 C 0.98844 0.87104 0.42318 0.0
C419 C 0.9851 0.9138 0.47776 0.0
C420 C 0.96985 0.92254 0.5139 0.0
C421 C 0.97291 0.88032 0.45879 0.0
C422 C 0.94217 0.89729 0.53058 0.0
C423 C 0.92946 0.86433 0.51165 0.0
H424 H 0.33912 0.79851 0.54775 0.0
H425 H 0.29538 0.77815 0.66054 0.0
H426 H 0.3366 0.73901 0.66452 0.0
H427 H 0.38817 0.71374 0.63767 0.0
H428 H 0.43005 0.73125 0.52394 0.0
H429 H 0.38628 0.76837 0.5182 0.0
C430 C 0.33823 0.78499 0.57286 0.0
C431 C 0.31445 0.79112 0.6038 0.0
C432 C 0.36183 0.7624 0.57484 0.0
C433 C 0.31324 0.77348 0.63621 0.0
C434 C 0.33701 0.75137 0.63866 0.0
C435 C 0.38739 0.72567 0.61166 0.0
C436 C 0.41224 0.72061 0.58147 0.0
C437 C 0.36189 0.7462 0.60847 0.0
C438 C 0.41112 0.73542 0.54754 0.0
C439 C 0.38619 0.75646 0.54431 0.0
H440 H 0.71538 0.79143 0.72128 0.0
H441 H 0.7312 0.83195 0.83925 0.0
H442 H 0.78325 0.87879 0.82147 0.0
H443 H 0.82877 0.90486 0.77283 0.0
H444 H 0.81466 0.86305 0.65535 0.0
H445 H 0.75749 0.82013 0.67219 0.0
C446 C 0.72978 0.81093 0.74296 0.0
C447 C 0.71904 0.80851 0.78143 0.0
C448 C 0.76036 0.83729 0.73259 0.0
C449 C 0.73804 0.83378 0.80933 0.0
C450 C 0.76828 0.86031 0.79923 0.0
C451 C 0.81273 0.88651 0.75105 0.0
C452 C 0.82555 0.88662 0.71307 0.0
C453 C 0.78027 0.86183 0.76107 0.0
C454 C 0.80502 0.863 0.68479 0.0
C455 C 0.7725 0.83858 0.69443 0.0
H456 H 0.77335 0.22503 0.34104 0.0
H457 H 0.71732 0.15409 0.42042 0.0
H458 H 0.66636 0.12911 0.37452 0.0
H459 H 0.63965 0.12606 0.31034 0.0
H460 H 0.69693 0.1982 0.23254 0.0
H461 H 0.74482 0.22486 0.28 0.0
C462 C 0.75026 0.20384 0.34826 0.0
C463 C 0.74963 0.19081 0.38363 0.0
C464 C 0.72094 0.19023 0.32228 0.0
C465 C 0.71883 0.16409 0.39297 0.0
C466 C 0.68959 0.14998 0.36689 0.0
C467 C 0.66248 0.14779 0.30403 0.0
C468 C 0.66481 0.16002 0.26795 0.0
C469 C 0.69058 0.16268 0.33127 0.0
C470 C 0.69415 0.18854 0.26024 0.0
C471 C 0.7219 0.20354 0.28717 0.0
H472 H 0.50013 0.66484 0.33304 0.0
H473 H 0.41737 0.70398 0.40374 0.0
H474 H 0.42739 0.67079 0.45476 0.0
H475 H 0.46026 0.63062 0.48072 0.0
H476 H 0.54091 0.58952 0.40903 0.0
H477 H 0.5314 0.62318 0.35821 0.0
C478 C 0.48437 0.66634 0.35964 0.0
C479 C 0.45822 0.68769 0.36409 0.0
C480 C 0.48994 0.64654 0.38923 0.0
C481 C 0.43798 0.68846 0.39904 0.0
C482 C 0.44364 0.66924 0.42848 0.0
C483 C 0.47565 0.62882 0.45392 0.0
C484 C 0.50129 0.60704 0.44917 0.0
C485 C 0.46961 0.64817 0.42411 0.0
C486 C 0.52068 0.60542 0.41385 0.0
C487 C 0.51537 0.62496 0.38459 0.0
H488 H 0.09633 0.41543 0.84022 0.0
H489 H 0.18869 0.50081 0.81548 0.0
H490 H 0.16682 0.53736 0.8669 0.0
H491 H 0.12022 0.54574 0.91858 0.0
H492 H 0.02919 0.45953 0.9437 0.0
H493 H 0.05163 0.42309 0.8928 0.0
C494 C 0.11181 0.44202 0.84597 0.0
C495 C 0.14414 0.45515 0.82347 0.0
C496 C 0.09917 0.46299 0.87586 0.0
C497 C 0.16366 0.48979 0.83188 0.0
C498 C 0.15114 0.51081 0.86144 0.0
C499 C 0.10545 0.51894 0.913 0.0
C500 C 0.07292 0.50553 0.93506 0.0
C501 C 0.11877 0.4978 0.88357 0.0
C502 C 0.05429 0.47064 0.92742 0.0
C503 C 0.06708 0.44971 0.89814 0.0
H504 H 0.5848 0.92096 0.88296 0.0
H505 H 0.6206 0.8711 0.97242 0.0
H506 H 0.59489 0.90786 0.02044 0.0
H507 H 0.56403 0.95551 0.03721 0.0
H508 H 0.52574 1.00371 0.94804 0.0
H509 H 0.5512 0.9667 0.89962 0.0
C510 C 0.58694 0.91811 0.91295 0.0
C511 C 0.60506 0.89364 0.92409 0.0
C512 C 0.57209 0.93932 0.94044 0.0
C513 C 0.60734 0.8901 0.96308 0.0
C514 C 0.59261 0.91108 0.99058 0.0
C515 C 0.5615 0.95789 1.00713 0.0
C516 C 0.5436 0.98236 0.99595 0.0
C517 C 0.57539 0.93606 0.97961 0.0
C518 C 0.53957 0.98495 0.95707 0.0
C519 C 0.55409 0.96385 0.92948 0.0
H520 H 0.89168 0.13982 0.47754 0.0
H521 H 0.87143 0.18377 0.59115 0.0
H522 H 0.90013 0.14324 0.61832 0.0
H523 H 0.92769 0.0942 0.61043 0.0
H524 H 0.94696 0.04713 0.49826 0.0
H525 H 0.92176 0.09004 0.4696 0.0
C526 C 0.89385 0.14052 0.50819 0.0
C527 C 0.87924 0.1645 0.53243 0.0
C528 C 0.90975 0.11651 0.52375 0.0
C529 C 0.88203 0.16524 0.57204 0.0
C530 C 0.89848 0.14214 0.58759 0.0
C531 C 0.92633 0.09314 0.57964 0.0
C532 C 0.93868 0.06741 0.55641 0.0
C533 C 0.91176 0.11741 0.56377 0.0
C534 C 0.93735 0.06672 0.51663 0.0
C535 C 0.92298 0.09119 0.50036 0.0
H536 H 0.20403 0.70408 0.15105 0.0
H537 H 0.27986 0.6365 0.13006 0.0
H538 H 0.22882 0.5927 0.09693 0.0
H539 H 0.16195 0.57384 0.07279 0.0
H540 H 0.08845 0.64373 0.09383 0.0
H541 H 0.13892 0.68582 0.12798 0.0
C542 C 0.20959 0.67978 0.13936 0.0
C543 C 0.24597 0.6738 0.14322 0.0
C544 C 0.18025 0.65488 0.12016 0.0
C545 C 0.25222 0.64195 0.12774 0.0
C546 C 0.22297 0.61684 0.10869 0.0
C547 C 0.15704 0.59825 0.08492 0.0
C548 C 0.12128 0.60551 0.08023 0.0
C549 C 0.18675 0.62301 0.10455 0.0
C550 C 0.11563 0.6374 0.09627 0.0
C551 C 0.14453 0.66161 0.11606 0.0
H552 H 0.29776 0.46828 0.61053 0.0
H553 H 0.35787 0.46713 0.71349 0.0
H554 H 0.41843 0.49121 0.68234 0.0
H555 H 0.45494 0.51148 0.62533 0.0
H556 H 0.39557 0.50926 0.52114 0.0
H557 H 0.33443 0.48801 0.55317 0.0
C558 C 0.32407 0.47356 0.62627 0.0
C559 C 0.32303 0.46606 0.66452 0.0
C560 C 0.3591 0.48688 0.60787 0.0
C561 C 0.35761 0.47268 0.68415 0.0
C562 C 0.39237 0.48648 0.66632 0.0
C563 C 0.42858 0.50662 0.60974 0.0
C564 C 0.42982 0.51219 0.57092 0.0
C565 C 0.39354 0.49357 0.62815 0.0
C566 C 0.39542 0.50527 0.55102 0.0
C567 C 0.36043 0.49307 0.56935 0.0
H568 H 0.72815 0.62598 0.86551 0.0
H569 H 0.77974 0.73454 0.87183 0.0
H570 H 0.83723 0.72555 0.89933 0.0
H571 H 0.87272 0.68663 0.92128 0.0
H572 H 0.81966 0.57842 0.91856 0.0
H573 H 0.76241 0.58744 0.89081 0.0
C574 C 0.75199 0.64757 0.87316 0.0
C575 C 0.75001 0.68079 0.86678 0.0
C576 C 0.78445 0.64229 0.88978 0.0
C577 C 0.78072 0.70877 0.87693 0.0
C578 C 0.81356 0.70363 0.89247 0.0
C579 C 0.84867 0.66503 0.9144 0.0
C580 C 0.85047 0.63188 0.92159 0.0
C581 C 0.81576 0.67048 0.89893 0.0
C582 C 0.81886 0.60419 0.91331 0.0
C583 C 0.78622 0.60931 0.89732 0.0
H584 H 0.40953 0.87545 0.23305 0.0
H585 H 0.47714 0.8243 0.15525 0.0
H586 H 0.49844 0.87617 0.1223 0.0
H587 H 0.49922 0.93711 0.11566 0.0
H588 H 0.43276 0.9892 0.19358 0.0
H589 H 0.41016 0.93693 0.22612 0.0
C590 C 0.42963 0.87592 0.20945 0.0
C591 C 0.44275 0.84594 0.19773 0.0
C592 C 0.44166 0.90623 0.19011 0.0
C593 C 0.46763 0.84703 0.166 0.0
C594 C 0.4795 0.87674 0.14675 0.0
C595 C 0.47902 0.93678 0.13918 0.0
C596 C 0.46669 0.96705 0.15109 0.0
C597 C 0.46673 0.90656 0.15838 0.0
C598 C 0.44167 0.9662 0.18269 0.0
C599 C 0.42912 0.93627 0.2017 0.0
H600 H 0.04664 0.22985 0.71551 0.0
H601 H 0.15589 0.25847 0.6591 0.0
H602 H 0.1455 0.20051 0.62566 0.0
H603 H 0.10441 0.14119 0.6118 0.0
H604 H 0.99748 0.11292 0.67225 0.0
H605 H 0.00761 0.17113 0.70418 0.0
C606 C 0.0683 0.22357 0.69592 0.0
C607 C 0.10195 0.2488 0.6898 0.0
C608 C 0.06241 0.19006 0.67732 0.0
C609 C 0.12964 0.23978 0.66436 0.0
C610 C 0.1237 0.20656 0.64519 0.0
C611 C 0.0836 0.14785 0.63223 0.0
C612 C 0.05036 0.12269 0.63998 0.0
C613 C 0.09011 0.18142 0.65136 0.0
C614 C 0.02354 0.13162 0.66637 0.0
C615 C 0.02924 0.16498 0.68448 0.0
H616 H 0.76693 0.34574 0.50982 0.0
H617 H 0.69337 0.26994 0.43271 0.0
H618 H 0.64093 0.29703 0.44871 0.0
H619 H 0.61961 0.3472 0.47572 0.0
H620 H 0.6926 0.4246 0.5516 0.0
H621 H 0.74151 0.39182 0.54517 0.0
C622 C 0.73921 0.33488 0.49713 0.0
C623 C 0.73425 0.3065 0.46942 0.0
C624 C 0.70925 0.3511 0.50579 0.0
C625 C 0.69813 0.29236 0.45343 0.0
C626 C 0.66807 0.30776 0.4626 0.0
C627 C 0.64564 0.35646 0.49191 0.0
C628 C 0.65273 0.38863 0.51348 0.0
C629 C 0.6738 0.33793 0.48746 0.0
C630 C 0.68683 0.40025 0.53403 0.0
C631 C 0.7148 0.38153 0.53038 0.0
loop_
_geom_bond_atom_site_label_1
_geom_bond_atom_site_label_2
_geom_bond_distance
_geom_bond_site_symmetry_2
_ccdc_geom_bond_type
O0 Cd1 2.300 . S
O0 C7 1.275 . S
Cd1 O0 2.300 . S
Cd1 O9 2.381 . S
Cd1 O10 2.378 . S
O2 Cd3 2.385 . S
O2 C7 1.255 . S
Cd3 O2 2.385 . S
Cd3 O4 2.317 . S
O4 Cd3 2.317 . S
O4 C5 1.232 . S
C5 O4 1.232 . S
C5 O6 1.218 . S
O6 C5 1.218 . S
C7 O0 1.275 . S
C7 O2 1.255 . S
C8 O9 1.258 . S
C8 O10 1.256 . S
O9 Cd1 2.381 . S
O9 C8 1.258 . S
O10 Cd1 2.378 . S
O10 C8 1.256 . S
O11 Cd12 2.300 . S
O11 C18 1.275 . S
Cd12 O11 2.300 . S
Cd12 O20 2.381 . S
Cd12 O21 2.378 . S
O13 Cd14 2.385 . S
O13 C18 1.255 . S
Cd14 O13 2.385 . S
Cd14 O15 2.317 . S
O15 Cd14 2.317 . S
O15 C16 1.232 . S
C16 O15 1.232 . S
C16 O17 1.218 . S
O17 C16 1.218 . S
C18 O11 1.275 . S
C18 O13 1.255 . S
C19 O20 1.258 . S
C19 O21 1.256 . S
O20 Cd12 2.381 . S
O20 C19 1.258 . S
O21 Cd12 2.378 . S
O21 C19 1.256 . S
O22 Cd23 2.300 . S
O22 C29 1.275 . S
Cd23 O22 2.300 . S
Cd23 O31 2.381 . S
Cd23 O32 2.378 . S
O24 Cd25 2.385 . S
O24 C29 1.255 . S
Cd25 O24 2.385 . S
Cd25 O26 2.317 . S
O26 Cd25 2.317 . S
O26 C27 1.232 . S
C27 O26 1.232 . S
C27 O28 1.218 . S
O28 C27 1.218 . S
C29 O22 1.275 . S
C29 O24 1.255 . S
C30 O31 1.258 . S
C30 O32 1.256 . S
O31 Cd23 2.381 . S
O31 C30 1.258 . S
O32 Cd23 2.378 . S
O32 C30 1.256 . S
O33 Cd34 2.300 . S
O33 C40 1.275 . S
Cd34 O33 2.300 . S
Cd34 O42 2.381 . S
Cd34 O43 2.378 . S
O35 Cd36 2.385 . S
O35 C40 1.255 . S
Cd36 O35 2.385 . S
Cd36 O37 2.317 . S
O37 Cd36 2.317 . S
O37 C38 1.232 . S
C38 O37 1.232 . S
C38 O39 1.218 . S
O39 C38 1.218 . S
C40 O33 1.275 . S
C40 O35 1.255 . S
C41 O42 1.258 . S
C41 O43 1.256 . S
O42 Cd34 2.381 . S
O42 C41 1.258 . S
O43 Cd34 2.378 . S
O43 C41 1.256 . S
O44 Cd45 2.300 . S
O44 C51 1.275 . S
Cd45 O44 2.300 . S
Cd45 O53 2.381 . S
Cd45 O54 2.378 . S
O46 Cd47 2.385 . S
O46 C51 1.255 . S
Cd47 O46 2.385 . S
Cd47 O48 2.317 . S
O48 Cd47 2.317 . S
O48 C49 1.232 . S
C49 O48 1.232 . S
C49 O50 1.218 . S
O50 C49 1.218 . S
C51 O44 1.275 . S
C51 O46 1.255 . S
C52 O53 1.258 . S
C52 O54 1.256 . S
O53 Cd45 2.381 . S
O53 C52 1.258 . S
O54 Cd45 2.378 . S
O54 C52 1.256 . S
O55 Cd56 2.300 . S
O55 C62 1.275 . S
Cd56 O55 2.300 . S
Cd56 O64 2.381 . S
Cd56 O65 2.378 . S
O57 Cd58 2.385 . S
O57 C62 1.255 . S
Cd58 O57 2.385 . S
Cd58 O59 2.317 . S
O59 Cd58 2.317 . S
O59 C60 1.232 . S
C60 O59 1.232 . S
C60 O61 1.218 . S
O61 C60 1.218 . S
C62 O55 1.275 . S
C62 O57 1.255 . S
C63 O64 1.258 . S
C63 O65 1.256 . S
O64 Cd56 2.381 . S
O64 C63 1.258 . S
O65 Cd56 2.378 . S
O65 C63 1.256 . S
O66 Cd67 2.300 . S
O66 C73 1.275 . S
Cd67 O66 2.300 . S
Cd67 O75 2.381 . S
Cd67 O76 2.378 . S
O68 Cd69 2.385 . S
O68 C73 1.255 . S
Cd69 O68 2.385 . S
Cd69 O70 2.317 . S
O70 Cd69 2.317 . S
O70 C71 1.232 . S
C71 O70 1.232 . S
C71 O72 1.218 . S
O72 C71 1.218 . S
C73 O66 1.275 . S
C73 O68 1.255 . S
C74 O75 1.258 . S
C74 O76 1.256 . S
O75 Cd67 2.381 . S
O75 C74 1.258 . S
O76 Cd67 2.378 . S
O76 C74 1.256 . S
O77 Cd78 2.300 . S
O77 C84 1.275 . S
Cd78 O77 2.300 . S
Cd78 O86 2.381 . S
Cd78 O87 2.378 . S
O79 Cd80 2.385 . S
O79 C84 1.255 . S
Cd80 O79 2.385 . S
Cd80 O81 2.317 . S
O81 Cd80 2.317 . S
O81 C82 1.232 . S
C82 O81 1.232 . S
C82 O83 1.218 . S
O83 C82 1.218 . S
C84 O77 1.275 . S
C84 O79 1.255 . S
C85 O86 1.258 . S
C85 O87 1.256 . S
O86 Cd78 2.381 . S
O86 C85 1.258 . S
O87 Cd78 2.378 . S
O87 C85 1.256 . S
Gd88 C91 2.818 . S
Gd88 O108 2.377 . S
Gd88 O110 2.448 . S
Gd88 O111 2.506 . S
Gd88 O112 2.435 . S
Gd88 O113 2.718 1_545 S
Gd88 O115 2.395 1_545 S
Gd88 O119 2.327 1_455 S
Gd89 C100 2.818 1_545 S
Gd89 O109 2.395 1_655 S
Gd89 O113 2.327 1_645 S
Gd89 O114 2.377 1_545 S
Gd89 O116 2.448 1_545 S
Gd89 O117 2.506 1_545 S
Gd89 O118 2.435 . S
Gd89 O119 2.717 . S
C90 O108 1.240 . S
C90 O109 1.240 . S
C91 Gd88 2.818 . S
C91 C92 1.510 . S
C91 O110 1.249 . S
C91 O111 1.252 . S
C92 C91 1.510 . S
C92 C93 1.404 . S
C92 C94 1.352 . S
C93 C92 1.404 . S
C93 C97 1.389 . S
C93 H120 0.930 . S
C94 C92 1.352 . S
C94 C96 1.374 . S
C94 H121 0.931 . S
C95 C96 1.359 . S
C95 C97 1.364 . S
C96 C94 1.374 . S
C96 C95 1.359 . S
C96 H122 0.931 . S
C97 C93 1.389 . S
C97 C95 1.364 . S
C97 H123 0.931 . S
C98 O112 1.256 1_565 S
C98 O113 1.257 . S
C99 O114 1.240 . S
C99 O115 1.240 1_655 S
C100 Gd89 2.818 1_565 S
C100 C101 1.510 . S
C100 O116 1.249 . S
C100 O117 1.252 . S
C101 C100 1.510 . S
C101 C102 1.404 . S
C101 C103 1.352 . S
C102 C101 1.404 . S
C102 C106 1.389 . S
C102 H124 0.930 . S
C103 C101 1.352 . S
C103 C105 1.374 . S
C103 H125 0.931 . S
C104 C105 1.359 . S
C104 C106 1.364 . S
C105 C103 1.374 . S
C105 C104 1.359 . S
C105 H126 0.931 . S
C106 C102 1.389 . S
C106 C104 1.364 . S
C106 H127 0.931 . S
C107 O118 1.256 . S
C107 O119 1.257 . S
O108 Gd88 2.377 . S
O108 C90 1.240 . S
O109 Gd89 2.395 1_455 S
O109 C90 1.240 . S
O110 Gd88 2.448 . S
O110 C91 1.249 . S
O111 Gd88 2.506 . S
O111 C91 1.252 . S
O112 Gd88 2.435 . S
O112 C98 1.256 1_545 S
O113 Gd88 2.718 1_565 S
O113 Gd89 2.327 1_465 S
O113 C98 1.257 . S
O114 Gd89 2.377 1_565 S
O114 C99 1.240 . S
O115 Gd88 2.395 1_565 S
O115 C99 1.240 1_455 S
O116 Gd89 2.448 1_565 S
O116 C100 1.249 . S
O117 Gd89 2.506 1_565 S
O117 C100 1.252 . S
O118 Gd89 2.435 . S
O118 C107 1.256 . S
O119 Gd88 2.327 1_655 S
O119 Gd89 2.717 . S
O119 C107 1.257 . S
H120 C93 0.930 . S
H121 C94 0.931 . S
H122 C96 0.931 . S
H123 C97 0.931 . S
H124 C102 0.930 . S
H125 C103 0.931 . S
H126 C105 0.931 . S
H127 C106 0.931 . S
Gd128 C131 2.818 . S
Gd128 O148 2.377 . S
Gd128 O150 2.448 . S
Gd128 O151 2.506 . S
Gd128 O152 2.435 1_545 S
Gd128 O153 2.717 . S
Gd128 O155 2.395 . S
Gd128 O159 2.327 . S
Gd129 C140 2.818 1_544 S
Gd129 O149 2.395 . S
Gd129 O153 2.327 . S
Gd129 O154 2.371 1_554 S
Gd129 O156 2.448 1_554 S
Gd129 O157 2.506 1_544 S
Gd129 O158 2.435 . S
Gd129 O159 2.717 . S
C130 O148 1.240 . S
C130 O149 1.240 . S
C131 Gd128 2.818 . S
C131 C132 1.510 . S
C131 O150 1.249 . S
C131 O151 1.252 . S
C132 C131 1.510 . S
C132 C133 1.404 . S
C132 C134 1.352 . S
C133 C132 1.404 . S
C133 C137 1.389 . S
C133 H160 0.930 . S
C134 C132 1.352 . S
C134 C136 1.374 . S
C134 H161 0.931 . S
C135 C136 1.359 . S
C135 C137 1.364 . S
C136 C134 1.374 . S
C136 C135 1.359 . S
C136 H162 0.931 . S
C137 C133 1.389 . S
C137 C135 1.364 . S
C137 H163 0.931 . S
C138 O152 1.256 . S
C138 O153 1.257 1_565 S
C139 O154 1.234 1_564 S
C139 O155 1.240 1_565 S
C140 Gd129 2.818 1_566 S
C140 C141 1.510 . S
C140 O156 1.249 1_565 S
C140 O157 1.252 . S
C141 C140 1.510 . S
C141 C142 1.404 . S
C141 C143 1.352 . S
C142 C141 1.404 . S
C142 C146 1.389 . S
C142 H164 0.930 1_565 S
C143 C141 1.352 . S
C143 C145 1.374 . S
C143 H165 0.931 . S
C144 C145 1.359 . S
C144 C146 1.364 . S
C145 C143 1.374 . S
C145 C144 1.359 . S
C145 H166 0.931 . S
C146 C142 1.389 . S
C146 C144 1.364 . S
C146 H167 0.931 . S
C147 O158 1.256 . S
C147 O159 1.257 . S
O148 Gd128 2.377 . S
O148 C130 1.240 . S
O149 Gd129 2.395 . S
O149 C130 1.240 . S
O150 Gd128 2.448 . S
O150 C131 1.249 . S
O151 Gd128 2.506 . S
O151 C131 1.252 . S
O152 Gd128 2.435 1_565 S
O152 C138 1.256 . S
O153 Gd128 2.717 . S
O153 Gd129 2.327 . S
O153 C138 1.257 1_545 S
O154 Gd129 2.371 1_556 S
O154 C139 1.234 1_546 S
O155 Gd128 2.395 . S
O155 C139 1.240 1_545 S
O156 Gd129 2.448 1_556 S
O156 C140 1.249 1_545 S
O157 Gd129 2.506 1_566 S
O157 C140 1.252 . S
O158 Gd129 2.435 . S
O158 C147 1.256 . S
O159 Gd128 2.327 . S
O159 Gd129 2.717 . S
O159 C147 1.257 . S
H160 C133 0.930 . S
H161 C134 0.931 . S
H162 C136 0.931 . S
H163 C137 0.931 . S
H164 C142 0.930 1_545 S
H165 C143 0.931 . S
H166 C145 0.931 . S
H167 C146 0.931 . S
Gd168 C171 2.818 . S
Gd168 O188 2.377 . S
Gd168 O190 2.448 . S
Gd168 O191 2.506 . S
Gd168 O192 2.435 . S
Gd168 O193 2.717 . S
Gd168 O195 2.395 . S
Gd168 O199 2.327 . S
Gd169 C180 2.818 . S
Gd169 O189 2.395 . S
Gd169 O193 2.327 . S
Gd169 O194 2.377 . S
Gd169 O196 2.448 . S
Gd169 O197 2.506 . S
Gd169 O198 2.435 . S
Gd169 O199 2.717 . S
C170 O188 1.240 . S
C170 O189 1.240 . S
C171 Gd168 2.818 . S
C171 C172 1.510 . S
C171 O190 1.249 . S
C171 O191 1.252 . S
C172 C171 1.510 . S
C172 C173 1.404 . S
C172 C174 1.352 . S
C173 C172 1.404 . S
C173 C177 1.389 . S
C173 H200 0.930 . S
C174 C172 1.352 . S
C174 C176 1.374 . S
C174 H201 0.931 . S
C175 C176 1.359 . S
C175 C177 1.364 . S
C176 C174 1.374 . S
C176 C175 1.359 . S
C176 H202 0.931 . S
C177 C173 1.389 . S
C177 C175 1.364 . S
C177 H203 0.931 . S
C178 O192 1.256 . S
C178 O193 1.257 . S
C179 O194 1.240 . S
C179 O195 1.240 . S
C180 Gd169 2.818 . S
C180 C181 1.510 . S
C180 O196 1.249 . S
C180 O197 1.252 . S
C181 C180 1.510 . S
C181 C182 1.404 . S
C181 C183 1.352 . S
C182 C181 1.404 . S
C182 C186 1.389 . S
C182 H204 0.930 . S
C183 C181 1.352 . S
C183 C185 1.374 . S
C183 H205 0.931 . S
C184 C185 1.359 . S
C184 C186 1.364 . S
C185 C183 1.374 . S
C185 C184 1.359 . S
C185 H206 0.931 . S
C186 C182 1.389 . S
C186 C184 1.364 . S
C186 H207 0.931 . S
C187 O198 1.256 . S
C187 O199 1.257 . S
O188 Gd168 2.377 . S
O188 C170 1.240 . S
O189 Gd169 2.395 . S
O189 C170 1.240 . S
O190 Gd168 2.448 . S
O190 C171 1.249 . S
O191 Gd168 2.506 . S
O191 C171 1.252 . S
O192 Gd168 2.435 . S
O192 C178 1.256 . S
O193 Gd168 2.717 . S
O193 Gd169 2.327 . S
O193 C178 1.257 . S
O194 Gd169 2.377 . S
O194 C179 1.240 . S
O195 Gd168 2.395 . S
O195 C179 1.240 . S
O196 Gd169 2.448 . S
O196 C180 1.249 . S
O197 Gd169 2.506 . S
O197 C180 1.252 . S
O198 Gd169 2.435 . S
O198 C187 1.256 . S
O199 Gd168 2.327 . S
O199 Gd169 2.717 . S
O199 C187 1.257 . S
H200 C173 0.930 . S
H201 C174 0.931 . S
H202 C176 0.931 . S
H203 C177 0.931 . S
H204 C182 0.930 . S
H205 C183 0.931 . S
H206 C185 0.931 . S
H207 C186 0.931 . S
Gd208 C211 2.818 . S
Gd208 O228 2.377 . S
Gd208 O230 2.448 . S
Gd208 O231 2.506 . S
Gd208 O232 2.435 . S
Gd208 O233 2.717 . S
Gd208 O235 2.395 1_455 S
Gd208 O239 2.327 1_554 S
Gd209 C220 2.818 1_455 S
Gd209 O229 2.395 1_556 S
Gd209 O233 2.327 1_556 S
Gd209 O234 2.377 1_455 S
Gd209 O236 2.448 1_455 S
Gd209 O237 2.506 1_455 S
Gd209 O238 2.435 . S
Gd209 O239 2.717 . S
C210 O228 1.240 . S
C210 O229 1.240 . S
C211 Gd208 2.818 . S
C211 C212 1.510 . S
C211 O230 1.249 . S
C211 O231 1.252 . S
C212 C211 1.510 . S
C212 C213 1.404 . S
C212 C214 1.352 . S
C213 C212 1.404 . S
C213 C217 1.389 . S
C213 H240 0.930 . S
C214 C212 1.352 . S
C214 C216 1.374 . S
C214 H241 0.931 . S
C215 C216 1.359 . S
C215 C217 1.364 . S
C216 C214 1.374 . S
C216 C215 1.359 . S
C216 H242 0.931 . S
C217 C213 1.389 . S
C217 C215 1.364 . S
C217 H243 0.931 . S
C218 O232 1.256 1_655 S
C218 O233 1.257 1_655 S
C219 O234 1.240 . S
C219 O235 1.240 1_556 S
C220 Gd209 2.818 1_655 S
C220 C221 1.510 . S
C220 O236 1.249 . S
C220 O237 1.252 . S
C221 C220 1.510 . S
C221 C222 1.404 . S
C221 C223 1.352 . S
C222 C221 1.404 . S
C222 C226 1.389 . S
C222 H244 0.930 . S
C223 C221 1.352 . S
C223 C225 1.374 . S
C223 H245 0.931 . S
C224 C225 1.359 . S
C224 C226 1.364 . S
C225 C223 1.374 . S
C225 C224 1.359 . S
C225 H246 0.931 . S
C226 C222 1.389 . S
C226 C224 1.364 . S
C226 H247 0.931 . S
C227 O238 1.256 . S
C227 O239 1.257 . S
O228 Gd208 2.377 . S
O228 C210 1.240 . S
O229 Gd209 2.395 1_554 S
O229 C210 1.240 . S
O230 Gd208 2.448 . S
O230 C211 1.249 . S
O231 Gd208 2.506 . S
O231 C211 1.252 . S
O232 Gd208 2.435 . S
O232 C218 1.256 1_455 S
O233 Gd208 2.717 . S
O233 Gd209 2.327 1_554 S
O233 C218 1.257 1_455 S
O234 Gd209 2.377 1_655 S
O234 C219 1.240 . S
O235 Gd208 2.395 1_655 S
O235 C219 1.240 1_554 S
O236 Gd209 2.448 1_655 S
O236 C220 1.249 . S
O237 Gd209 2.506 1_655 S
O237 C220 1.252 . S
O238 Gd209 2.435 . S
O238 C227 1.256 . S
O239 Gd208 2.327 1_556 S
O239 Gd209 2.717 . S
O239 C227 1.257 . S
H240 C213 0.930 . S
H241 C214 0.931 . S
H242 C216 0.931 . S
H243 C217 0.931 . S
H244 C222 0.930 . S
H245 C223 0.931 . S
H246 C225 0.931 . S
H247 C226 0.931 . S
H248 C254 0.930 . S
H249 C257 0.930 . S
H250 C258 0.930 . S
H251 C259 0.930 . S
H252 C262 0.930 . S
H253 C263 0.930 . S
C254 H248 0.930 . S
C254 C255 1.355 . S
C254 C256 1.415 . S
C255 C254 1.355 . S
C255 C257 1.419 . S
C256 C254 1.415 . S
C256 C261 1.425 . S
C256 C263 1.409 . S
C257 H249 0.930 . S
C257 C255 1.419 . S
C257 C258 1.362 . S
C258 H250 0.930 . S
C258 C257 1.362 . S
C258 C261 1.409 . S
C259 H251 0.930 . S
C259 C260 1.355 . S
C259 C261 1.415 . S
C260 C259 1.355 . S
C260 C262 1.419 . S
C261 C256 1.425 . S
C261 C258 1.409 . S
C261 C259 1.415 . S
C262 H252 0.930 . S
C262 C260 1.419 . S
C262 C263 1.362 . S
C263 H253 0.930 . S
C263 C256 1.409 . S
C263 C262 1.362 . S
H264 C270 0.930 . S
H265 C273 0.930 . S
H266 C274 0.930 . S
H267 C275 0.930 . S
H268 C278 0.930 . S
H269 C279 0.930 . S
C270 H264 0.930 . S
C270 C271 1.355 . S
C270 C272 1.415 . S
C271 C270 1.355 . S
C271 C273 1.419 . S
C272 C270 1.415 . S
C272 C277 1.425 . S
C272 C279 1.409 . S
C273 H265 0.930 . S
C273 C271 1.419 . S
C273 C274 1.362 . S
C274 H266 0.930 . S
C274 C273 1.362 . S
C274 C277 1.409 . S
C275 H267 0.930 . S
C275 C276 1.355 . S
C275 C277 1.415 . S
C276 C275 1.355 . S
C276 C278 1.419 . S
C277 C272 1.425 . S
C277 C274 1.409 . S
C277 C275 1.415 . S
C278 H268 0.930 . S
C278 C276 1.419 . S
C278 C279 1.362 . S
C279 H269 0.930 . S
C279 C272 1.409 . S
C279 C278 1.362 . S
H280 C286 0.930 . S
H281 C289 0.930 . S
H282 C290 0.930 . S
H283 C291 0.930 . S
H284 C294 0.930 . S
H285 C295 0.930 . S
C286 H280 0.930 . S
C286 C287 1.355 . S
C286 C288 1.415 . S
C287 C286 1.355 . S
C287 C289 1.419 . S
C288 C286 1.415 . S
C288 C293 1.425 . S
C288 C295 1.409 . S
C289 H281 0.930 . S
C289 C287 1.419 . S
C289 C290 1.362 . S
C290 H282 0.930 . S
C290 C289 1.362 . S
C290 C293 1.409 . S
C291 H283 0.930 . S
C291 C292 1.355 . S
C291 C293 1.415 . S
C292 C291 1.355 . S
C292 C294 1.419 . S
C293 C288 1.425 . S
C293 C290 1.409 . S
C293 C291 1.415 . S
C294 H284 0.930 . S
C294 C292 1.419 . S
C294 C295 1.362 . S
C295 H285 0.930 . S
C295 C288 1.409 . S
C295 C294 1.362 . S
H296 C302 0.930 . S
H297 C305 0.930 . S
H298 C306 0.930 . S
H299 C307 0.930 . S
H300 C310 0.930 . S
H301 C311 0.930 . S
C302 H296 0.930 . S
C302 C303 1.355 . S
C302 C304 1.415 . S
C303 C302 1.355 . S
C303 C305 1.419 . S
C304 C302 1.415 . S
C304 C309 1.425 . S
C304 C311 1.409 . S
C305 H297 0.930 . S
C305 C303 1.419 . S
C305 C306 1.362 . S
C306 H298 0.930 . S
C306 C305 1.362 . S
C306 C309 1.409 . S
C307 H299 0.930 . S
C307 C308 1.355 . S
C307 C309 1.415 . S
C308 C307 1.355 . S
C308 C310 1.419 . S
C309 C304 1.425 . S
C309 C306 1.409 . S
C309 C307 1.415 . S
C310 H300 0.930 . S
C310 C308 1.419 . S
C310 C311 1.362 . S
C311 H301 0.930 . S
C311 C304 1.409 . S
C311 C310 1.362 . S
H312 C318 0.930 . S
H313 C321 0.930 . S
H314 C322 0.930 . S
H315 C323 0.930 . S
H316 C326 0.930 . S
H317 C327 0.930 . S
C318 H312 0.930 . S
C318 C319 1.355 . S
C318 C320 1.415 . S
C319 C318 1.355 . S
C319 C321 1.419 . S
C320 C318 1.415 . S
C320 C325 1.425 . S
C320 C327 1.409 . S
C321 H313 0.930 . S
C321 C319 1.419 . S
C321 C322 1.362 . S
C322 H314 0.930 . S
C322 C321 1.362 . S
C322 C325 1.409 . S
C323 H315 0.930 . S
C323 C324 1.355 . S
C323 C325 1.415 . S
C324 C323 1.355 . S
C324 C326 1.419 . S
C325 C320 1.425 . S
C325 C322 1.409 . S
C325 C323 1.415 . S
C326 H316 0.930 . S
C326 C324 1.419 . S
C326 C327 1.362 . S
C327 H317 0.930 . S
C327 C320 1.409 . S
C327 C326 1.362 . S
H328 C334 0.930 . S
H329 C337 0.930 . S
H330 C338 0.930 . S
H331 C339 0.930 . S
H332 C342 0.930 . S
H333 C343 0.930 . S
C334 H328 0.930 . S
C334 C335 1.355 . S
C334 C336 1.415 . S
C335 C334 1.355 . S
C335 C337 1.419 . S
C336 C334 1.415 . S
C336 C341 1.425 . S
C336 C343 1.409 . S
C337 H329 0.930 . S
C337 C335 1.419 . S
C337 C338 1.362 . S
C338 H330 0.930 . S
C338 C337 1.362 . S
C338 C341 1.409 . S
C339 H331 0.930 . S
C339 C340 1.355 . S
C339 C341 1.415 . S
C340 C339 1.355 . S
C340 C342 1.419 1_565 S
C341 C336 1.425 . S
C341 C338 1.409 . S
C341 C339 1.415 . S
C342 H332 0.930 . S
C342 C340 1.419 1_545 S
C342 C343 1.362 1_545 S
C343 H333 0.930 . S
C343 C336 1.409 . S
C343 C342 1.362 1_565 S
H344 C350 0.930 . S
H345 C353 0.930 . S
H346 C354 0.930 . S
H347 C355 0.930 . S
H348 C358 0.930 . S
H349 C359 0.930 . S
C350 H344 0.930 . S
C350 C351 1.355 . S
C350 C352 1.415 . S
C351 C350 1.355 . S
C351 C353 1.419 . S
C352 C350 1.415 . S
C352 C357 1.425 . S
C352 C359 1.409 . S
C353 H345 0.930 . S
C353 C351 1.419 . S
C353 C354 1.362 . S
C354 H346 0.930 . S
C354 C353 1.362 . S
C354 C357 1.409 . S
C355 H347 0.930 . S
C355 C356 1.355 . S
C355 C357 1.415 . S
C356 C355 1.355 . S
C356 C358 1.419 . S
C357 C352 1.425 . S
C357 C354 1.409 . S
C357 C355 1.415 . S
C358 H348 0.930 . S
C358 C356 1.419 . S
C358 C359 1.362 . S
C359 H349 0.930 . S
C359 C352 1.409 . S
C359 C358 1.362 . S
H360 C366 0.930 . S
H361 C369 0.930 . S
H362 C370 0.930 . S
H363 C371 0.930 . S
H364 C374 0.930 . S
H365 C375 0.930 . S
C366 H360 0.930 . S
C366 C367 1.355 . S
C366 C368 1.415 . S
C367 C366 1.355 . S
C367 C369 1.419 . S
C368 C366 1.415 . S
C368 C373 1.425 . S
C368 C375 1.409 . S
C369 H361 0.930 . S
C369 C367 1.419 . S
C369 C370 1.362 . S
C370 H362 0.930 . S
C370 C369 1.362 . S
C370 C373 1.409 . S
C371 H363 0.930 . S
C371 C372 1.355 . S
C371 C373 1.415 . S
C372 C371 1.355 . S
C372 C374 1.419 . S
C373 C368 1.425 . S
C373 C370 1.409 . S
C373 C371 1.415 . S
C374 H364 0.930 . S
C374 C372 1.419 . S
C374 C375 1.362 . S
C375 H365 0.930 . S
C375 C368 1.409 . S
C375 C374 1.362 . S
H376 C382 0.930 . S
H377 C385 0.930 . S
H378 C386 0.930 . S
H379 C387 0.930 . S
H380 C390 0.930 . S
H381 C391 0.930 . S
C382 H376 0.930 . S
C382 C383 1.355 . S
C382 C384 1.415 . S
C383 C382 1.355 . S
C383 C385 1.419 . S
C384 C382 1.415 . S
C384 C389 1.425 . S
C384 C391 1.409 . S
C385 H377 0.930 . S
C385 C383 1.419 . S
C385 C386 1.362 . S
C386 H378 0.930 . S
C386 C385 1.362 . S
C386 C389 1.409 . S
C387 H379 0.930 . S
C387 C388 1.355 . S
C387 C389 1.415 . S
C388 C387 1.355 . S
C388 C390 1.419 . S
C389 C384 1.425 . S
C389 C386 1.409 . S
C389 C387 1.415 . S
C390 H380 0.930 . S
C390 C388 1.419 . S
C390 C391 1.362 . S
C391 H381 0.930 . S
C391 C384 1.409 . S
C391 C390 1.362 . S
H392 C398 0.930 . S
H393 C401 0.930 . S
H394 C402 0.930 . S
H395 C403 0.930 . S
H396 C406 0.930 . S
H397 C407 0.930 . S
C398 H392 0.930 . S
C398 C399 1.355 . S
C398 C400 1.415 . S
C399 C398 1.355 . S
C399 C401 1.419 . S
C400 C398 1.415 . S
C400 C405 1.425 . S
C400 C407 1.409 . S
C401 H393 0.930 . S
C401 C399 1.419 . S
C401 C402 1.362 . S
C402 H394 0.930 . S
C402 C401 1.362 . S
C402 C405 1.409 . S
C403 H395 0.930 . S
C403 C404 1.353 . S
C403 C405 1.415 . S
C404 C403 1.353 . S
C404 C406 1.419 1_556 S
C405 C400 1.425 . S
C405 C402 1.409 . S
C405 C403 1.415 . S
C406 H396 0.930 . S
C406 C404 1.419 1_554 S
C406 C407 1.362 1_554 S
C407 H397 0.930 . S
C407 C400 1.409 . S
C407 C406 1.362 1_556 S
H408 C414 0.930 . S
H409 C417 0.930 . S
H410 C418 0.930 . S
H411 C419 0.930 . S
H412 C422 0.930 . S
H413 C423 0.930 . S
C414 H408 0.930 . S
C414 C415 1.355 . S
C414 C416 1.415 . S
C415 C414 1.355 . S
C415 C417 1.419 . S
C416 C414 1.415 . S
C416 C421 1.425 . S
C416 C423 1.409 . S
C417 H409 0.930 . S
C417 C415 1.419 . S
C417 C418 1.362 . S
C418 H410 0.930 . S
C418 C417 1.362 . S
C418 C421 1.409 . S
C419 H411 0.930 . S
C419 C420 1.355 . S
C419 C421 1.415 . S
C420 C419 1.355 . S
C420 C422 1.419 . S
C421 C416 1.425 . S
C421 C418 1.409 . S
C421 C419 1.415 . S
C422 H412 0.930 . S
C422 C420 1.419 . S
C422 C423 1.362 . S
C423 H413 0.930 . S
C423 C416 1.409 . S
C423 C422 1.362 . S
H424 C430 0.930 . S
H425 C433 0.930 . S
H426 C434 0.930 . S
H427 C435 0.930 . S
H428 C438 0.930 . S
H429 C439 0.930 . S
C430 H424 0.930 . S
C430 C431 1.355 . S
C430 C432 1.415 . S
C431 C430 1.355 . S
C431 C433 1.419 . S
C432 C430 1.415 . S
C432 C437 1.425 . S
C432 C439 1.409 . S
C433 H425 0.930 . S
C433 C431 1.419 . S
C433 C434 1.362 . S
C434 H426 0.930 . S
C434 C433 1.362 . S
C434 C437 1.409 . S
C435 H427 0.930 . S
C435 C436 1.355 . S
C435 C437 1.415 . S
C436 C435 1.355 . S
C436 C438 1.419 . S
C437 C432 1.425 . S
C437 C434 1.409 . S
C437 C435 1.415 . S
C438 H428 0.930 . S
C438 C436 1.419 . S
C438 C439 1.362 . S
C439 H429 0.930 . S
C439 C432 1.409 . S
C439 C438 1.362 . S
H440 C446 0.930 . S
H441 C449 0.930 . S
H442 C450 0.930 . S
H443 C451 0.930 . S
H444 C454 0.930 . S
H445 C455 0.930 . S
C446 H440 0.930 . S
C446 C447 1.355 . S
C446 C448 1.415 . S
C447 C446 1.355 . S
C447 C449 1.419 . S
C448 C446 1.415 . S
C448 C453 1.425 . S
C448 C455 1.409 . S
C449 H441 0.930 . S
C449 C447 1.419 . S
C449 C450 1.362 . S
C450 H442 0.930 . S
C450 C449 1.362 . S
C450 C453 1.409 . S
C451 H443 0.930 . S
C451 C452 1.355 . S
C451 C453 1.415 . S
C452 C451 1.355 . S
C452 C454 1.419 . S
C453 C448 1.425 . S
C453 C450 1.409 . S
C453 C451 1.415 . S
C454 H444 0.930 . S
C454 C452 1.419 . S
C454 C455 1.362 . S
C455 H445 0.930 . S
C455 C448 1.409 . S
C455 C454 1.362 . S
H456 C462 0.930 . S
H457 C465 0.930 . S
H458 C466 0.930 . S
H459 C467 0.930 . S
H460 C470 0.930 . S
H461 C471 0.930 . S
C462 H456 0.930 . S
C462 C463 1.355 . S
C462 C464 1.415 . S
C463 C462 1.355 . S
C463 C465 1.419 . S
C464 C462 1.415 . S
C464 C469 1.425 . S
C464 C471 1.409 . S
C465 H457 0.930 . S
C465 C463 1.419 . S
C465 C466 1.362 . S
C466 H458 0.930 . S
C466 C465 1.362 . S
C466 C469 1.409 . S
C467 H459 0.930 . S
C467 C468 1.355 . S
C467 C469 1.415 . S
C468 C467 1.355 . S
C468 C470 1.419 . S
C469 C464 1.425 . S
C469 C466 1.409 . S
C469 C467 1.415 . S
C470 H460 0.930 . S
C470 C468 1.419 . S
C470 C471 1.362 . S
C471 H461 0.930 . S
C471 C464 1.409 . S
C471 C470 1.362 . S
H472 C478 0.930 . S
H473 C481 0.930 . S
H474 C482 0.930 . S
H475 C483 0.930 . S
H476 C486 0.930 . S
H477 C487 0.930 . S
C478 H472 0.930 . S
C478 C479 1.355 . S
C478 C480 1.415 . S
C479 C478 1.355 . S
C479 C481 1.419 . S
C480 C478 1.415 . S
C480 C485 1.425 . S
C480 C487 1.409 . S
C481 H473 0.930 . S
C481 C479 1.419 . S
C481 C482 1.362 . S
C482 H474 0.930 . S
C482 C481 1.362 . S
C482 C485 1.409 . S
C483 H475 0.930 . S
C483 C484 1.355 . S
C483 C485 1.415 . S
C484 C483 1.355 . S
C484 C486 1.419 . S
C485 C480 1.425 . S
C485 C482 1.409 . S
C485 C483 1.415 . S
C486 H476 0.930 . S
C486 C484 1.419 . S
C486 C487 1.362 . S
C487 H477 0.930 . S
C487 C480 1.409 . S
C487 C486 1.362 . S
H488 C494 0.930 . S
H489 C497 0.930 . S
H490 C498 0.930 . S
H491 C499 0.930 . S
H492 C502 0.930 . S
H493 C503 0.930 . S
C494 H488 0.930 . S
C494 C495 1.355 . S
C494 C496 1.415 . S
C495 C494 1.355 . S
C495 C497 1.419 . S
C496 C494 1.415 . S
C496 C501 1.425 . S
C496 C503 1.409 . S
C497 H489 0.930 . S
C497 C495 1.419 . S
C497 C498 1.362 . S
C498 H490 0.930 . S
C498 C497 1.362 . S
C498 C501 1.409 . S
C499 H491 0.930 . S
C499 C500 1.355 . S
C499 C501 1.415 . S
C500 C499 1.355 . S
C500 C502 1.419 . S
C501 C496 1.425 . S
C501 C498 1.409 . S
C501 C499 1.415 . S
C502 H492 0.930 . S
C502 C500 1.419 . S
C502 C503 1.362 . S
C503 H493 0.930 . S
C503 C496 1.409 . S
C503 C502 1.362 . S
H504 C510 0.930 . S
H505 C513 0.930 . S
H506 C514 0.930 . S
H507 C515 0.959 . S
H508 C518 0.930 . S
H509 C519 0.930 . S
C510 H504 0.930 . S
C510 C511 1.355 . S
C510 C512 1.415 . S
C511 C510 1.355 . S
C511 C513 1.419 . S
C512 C510 1.415 . S
C512 C517 1.425 . S
C512 C519 1.409 . S
C513 H505 0.930 . S
C513 C511 1.419 . S
C513 C514 1.362 . S
C514 H506 0.930 . S
C514 C513 1.362 . S
C514 C517 1.409 . S
C515 H507 0.959 . S
C515 C516 1.355 . S
C515 C517 1.415 . S
C516 C515 1.355 . S
C516 C518 1.419 . S
C517 C512 1.425 . S
C517 C514 1.409 . S
C517 C515 1.415 . S
C518 H508 0.930 . S
C518 C516 1.419 . S
C518 C519 1.362 . S
C519 H509 0.930 . S
C519 C512 1.409 . S
C519 C518 1.362 . S
H520 C526 0.930 . S
H521 C529 0.930 . S
H522 C530 0.930 . S
H523 C531 0.930 . S
H524 C534 0.930 . S
H525 C535 0.930 . S
C526 H520 0.930 . S
C526 C527 1.355 . S
C526 C528 1.415 . S
C527 C526 1.355 . S
C527 C529 1.419 . S
C528 C526 1.415 . S
C528 C533 1.425 . S
C528 C535 1.409 . S
C529 H521 0.930 . S
C529 C527 1.419 . S
C529 C530 1.362 . S
C530 H522 0.930 . S
C530 C529 1.362 . S
C530 C533 1.409 . S
C531 H523 0.930 . S
C531 C532 1.355 . S
C531 C533 1.415 . S
C532 C531 1.355 . S
C532 C534 1.419 . S
C533 C528 1.425 . S
C533 C530 1.409 . S
C533 C531 1.415 . S
C534 H524 0.930 . S
C534 C532 1.419 . S
C534 C535 1.362 . S
C535 H525 0.930 . S
C535 C528 1.409 . S
C535 C534 1.362 . S
H536 C542 0.930 . S
H537 C545 0.930 . S
H538 C546 0.930 . S
H539 C547 0.930 . S
H540 C550 0.930 . S
H541 C551 0.930 . S
C542 H536 0.930 . S
C542 C543 1.355 . S
C542 C544 1.415 . S
C543 C542 1.355 . S
C543 C545 1.419 . S
C544 C542 1.415 . S
C544 C549 1.425 . S
C544 C551 1.409 . S
C545 H537 0.930 . S
C545 C543 1.419 . S
C545 C546 1.362 . S
C546 H538 0.930 . S
C546 C545 1.362 . S
C546 C549 1.409 . S
C547 H539 0.930 . S
C547 C548 1.355 . S
C547 C549 1.415 . S
C548 C547 1.355 . S
C548 C550 1.419 . S
C549 C544 1.425 . S
C549 C546 1.409 . S
C549 C547 1.415 . S
C550 H540 0.930 . S
C550 C548 1.419 . S
C550 C551 1.362 . S
C551 H541 0.930 . S
C551 C544 1.409 . S
C551 C550 1.362 . S
H552 C558 0.930 . S
H553 C561 0.930 . S
H554 C562 0.930 . S
H555 C563 0.930 . S
H556 C566 0.930 . S
H557 C567 0.930 . S
C558 H552 0.930 . S
C558 C559 1.355 . S
C558 C560 1.415 . S
C559 C558 1.355 . S
C559 C561 1.419 . S
C560 C558 1.415 . S
C560 C565 1.425 . S
C560 C567 1.409 . S
C561 H553 0.930 . S
C561 C559 1.419 . S
C561 C562 1.362 . S
C562 H554 0.930 . S
C562 C561 1.362 . S
C562 C565 1.409 . S
C563 H555 0.930 . S
C563 C564 1.355 . S
C563 C565 1.415 . S
C564 C563 1.355 . S
C564 C566 1.419 . S
C565 C560 1.425 . S
C565 C562 1.409 . S
C565 C563 1.415 . S
C566 H556 0.930 . S
C566 C564 1.419 . S
C566 C567 1.362 . S
C567 H557 0.930 . S
C567 C560 1.409 . S
C567 C566 1.362 . S
H568 C574 0.930 . S
H569 C577 0.930 . S
H570 C578 0.930 . S
H571 C579 0.930 . S
H572 C582 0.930 . S
H573 C583 0.930 . S
C574 H568 0.930 . S
C574 C575 1.355 . S
C574 C576 1.415 . S
C575 C574 1.355 . S
C575 C577 1.419 . S
C576 C574 1.415 . S
C576 C581 1.425 . S
C576 C583 1.409 . S
C577 H569 0.930 . S
C577 C575 1.419 . S
C577 C578 1.362 . S
C578 H570 0.930 . S
C578 C577 1.362 . S
C578 C581 1.409 . S
C579 H571 0.930 . S
C579 C580 1.355 . S
C579 C581 1.415 . S
C580 C579 1.355 . S
C580 C582 1.419 . S
C581 C576 1.425 . S
C581 C578 1.409 . S
C581 C579 1.415 . S
C582 H572 0.930 . S
C582 C580 1.419 . S
C582 C583 1.362 . S
C583 H573 0.930 . S
C583 C576 1.409 . S
C583 C582 1.362 . S
H584 C590 0.930 . S
H585 C593 0.930 . S
H586 C594 0.930 . S
H587 C595 0.930 . S
H588 C598 0.930 . S
H589 C599 0.930 . S
C590 H584 0.930 . S
C590 C591 1.355 . S
C590 C592 1.415 . S
C591 C590 1.355 . S
C591 C593 1.419 . S
C592 C590 1.415 . S
C592 C597 1.425 . S
C592 C599 1.409 . S
C593 H585 0.930 . S
C593 C591 1.419 . S
C593 C594 1.362 . S
C594 H586 0.930 . S
C594 C593 1.362 . S
C594 C597 1.409 . S
C595 H587 0.930 . S
C595 C596 1.355 . S
C595 C597 1.415 . S
C596 C595 1.355 . S
C596 C598 1.419 . S
C597 C592 1.425 . S
C597 C594 1.409 . S
C597 C595 1.415 . S
C598 H588 0.930 . S
C598 C596 1.419 . S
C598 C599 1.362 . S
C599 H589 0.930 . S
C599 C592 1.409 . S
C599 C598 1.362 . S
H600 C606 0.930 . S
H601 C609 0.930 . S
H602 C610 0.930 . S
H603 C611 0.930 . S
H604 C614 0.930 . S
H605 C615 0.930 . S
C606 H600 0.930 . S
C606 C607 1.355 . S
C606 C608 1.415 . S
C607 C606 1.355 . S
C607 C609 1.419 . S
C608 C606 1.415 . S
C608 C613 1.425 . S
C608 C615 1.409 . S
C609 H601 0.930 . S
C609 C607 1.419 . S
C609 C610 1.362 . S
C610 H602 0.930 . S
C610 C609 1.362 . S
C610 C613 1.409 . S
C611 H603 0.930 . S
C611 C612 1.355 . S
C611 C613 1.415 . S
C612 C611 1.355 . S
C612 C614 1.419 . S
C613 C608 1.425 . S
C613 C610 1.409 . S
C613 C611 1.415 . S
C614 H604 0.930 . S
C614 C612 1.419 . S
C614 C615 1.362 . S
C615 H605 0.930 . S
C615 C608 1.409 . S
C615 C614 1.362 . S
H616 C622 0.930 . S
H617 C625 0.930 . S
H618 C626 0.930 . S
H619 C627 0.930 . S
H620 C630 0.930 . S
H621 C631 0.930 . S
C622 H616 0.930 . S
C622 C623 1.355 . S
C622 C624 1.415 . S
C623 C622 1.355 . S
C623 C625 1.419 . S
C624 C622 1.415 . S
C624 C629 1.425 . S
C624 C631 1.409 . S
C625 H617 0.930 . S
C625 C623 1.419 . S
C625 C626 1.362 . S
C626 H618 0.930 . S
C626 C625 1.362 . S
C626 C629 1.409 . S
C627 H619 0.930 . S
C627 C628 1.355 . S
C627 C629 1.415 . S
C628 C627 1.355 . S
C628 C630 1.419 . S
C629 C624 1.425 . S
C629 C626 1.409 . S
C629 C627 1.415 . S
C630 H620 0.930 . S
C630 C628 1.419 . S
C630 C631 1.362 . S
C631 H621 0.930 . S
C631 C624 1.409 . S
C631 C630 1.362 . S
C255 C5 1.058 . S
C260 C95 1.251 . S
C271 C18 1.012 . S
C276 C144 1.123 . S
C292 C170 2.342 . S
C287 C30 2.358 . S
C303 C41 2.124 . S
C308 C218 2.051 . S
C324 C130 2.306 . S
C319 C7 2.074 . S
C340 C98 0.889 . S
C335 C16 0.790 . S
C356 C219 1.951 . S
C351 C29 1.935 . S
C372 C187 1.306 . S
C367 C38 1.150 . S
C383 C8 1.473 . S
C388 C215 1.594 . S
C404 C147 2.523 1_556 S
C399 C27 2.329 . S
C415 C40 2.410 . S
C420 C99 2.454 . S
C431 C19 0.866 . S
C436 C184 0.919 . S
C452 C104 1.158 . S
C447 C51 0.903 . S
C463 C62 1.443 . S
C468 C135 1.356 . S
C479 C74 2.425 . S
C484 C179 2.407 . S
C495 C84 2.177 . S
C500 C227 2.273 . S
C511 C49 1.864 . S
C516 C139 2.515 1_556 S
C532 C107 1.041 . S
C527 C63 1.032 . S
C548 C210 1.805 . S
C543 C71 1.751 . S
C564 C178 1.422 . S
C559 C85 1.386 . S
C575 C52 1.474 . S
C580 C224 1.622 . S
C596 C138 2.605 . S
C591 C73 2.684 . S
C612 C90 1.991 . S
C607 C82 1.678 . S
C623 C60 0.875 . S
C628 C175 0.892 . S
