# Generated by pormake.
# Topology pth, (4,4)-cn, num edge types: 1
# Building blocks:
#     Node 0, Type 0, BuildingBlock: QUQFOY_clean_sbu_1, # of connection points: 4
#     Node 1, Type 0, BuildingBlock: QUQFOY_clean_sbu_1, # of connection points: 4
#     Node 2, Type 0, BuildingBlock: QUQFOY_clean_sbu_1, # of connection points: 4
#     Node 3, Type 1, BuildingBlock: NAWXER_clean_sbu_0, # of connection points: 4
#     Node 4, Type 1, BuildingBlock: NAWXER_clean_sbu_0, # of connection points: 4
#     Node 5, Type 1, BuildingBlock: NAWXER_clean_sbu_0, # of connection points: 4
#     Edge 6, Type (0, 1), BuildingBlock: FUNLAD_clean_linker_1, # of connection points: 2
#     Edge 7, Type (0, 1), BuildingBlock: FUNLAD_clean_linker_1, # of connection points: 2
#     Edge 8, Type (0, 1), BuildingBlock: FUNLAD_clean_linker_1, # of connection points: 2
#     Edge 9, Type (0, 1), BuildingBlock: FUNLAD_clean_linker_1, # of connection points: 2
#     Edge 10, Type (0, 1), BuildingBlock: FUNLAD_clean_linker_1, # of connection points: 2
#     Edge 11, Type (0, 1), BuildingBlock: FUNLAD_clean_linker_1, # of connection points: 2
#     Edge 12, Type (0, 1), BuildingBlock: FUNLAD_clean_linker_1, # of connection points: 2
#     Edge 13, Type (0, 1), BuildingBlock: FUNLAD_clean_linker_1, # of connection points: 2
#     Edge 14, Type (0, 1), BuildingBlock: FUNLAD_clean_linker_1, # of connection points: 2
#     Edge 15, Type (0, 1), BuildingBlock: FUNLAD_clean_linker_1, # of connection points: 2
#     Edge 16, Type (0, 1), BuildingBlock: FUNLAD_clean_linker_1, # of connection points: 2
#     Edge 17, Type (0, 1), BuildingBlock: FUNLAD_clean_linker_1, # of connection points: 2
# Relax obj value: 0.024
# Max RMSD: 0.121
# Mean RMSD: 0.064
data_MOF--net-pth--node1-QUQFOY_clean_sbu_1--node2-NAWXER_clean_sbu_0--edge1-FUNLAD_clean_linker_1
_symmetry_space_group_name_H-M    P1
_symmetry_Int_Tables_number       1
_symmetry_cell_setting            triclinic
loop_
_symmetry_equiv_pos_as_xyz
'x, y, z'
_cell_length_a     22.873578
_cell_length_b     24.549085
_cell_length_c     60.273319
_cell_angle_alpha  90.476582
_cell_angle_beta   89.741262
_cell_angle_gamma 119.70015
loop_
_atom_site_label
_atom_site_type_symbol
_atom_site_fract_x
_atom_site_fract_y
_atom_site_fract_z
_atom_type_partial_charge
O0 O 0.08027 0.1173 0.05469 0.0
Cd1 Cd 1.00599 0.05909 0.07621 0.0
Cd2 Cd 0.08035 1.00207 0.0756 0.0
O3 O 0.15295 0.0846 0.06098 0.0
O4 O 0.97488 0.11236 0.09207 0.0
O5 O 0.03138 0.07186 0.10827 0.0
C6 C 1.00535 0.1079 0.10939 0.0
C7 C 0.09421 0.94984 0.10533 0.0
C8 C 0.13826 0.12312 0.05203 0.0
C9 C 0.94307 0.93567 0.05416 0.0
O10 O 1.00116 0.94169 0.05606 0.0
O11 O 0.92958 0.97548 0.06301 0.0
O12 O 0.11664 0.94728 0.08588 0.0
O13 O 0.06982 0.9867 0.10835 0.0
O14 O 0.9636 0.05831 0.42269 0.0
Cd15 Cd 0.03931 0.07537 0.40023 0.0
Cd16 Cd 0.9948 0.95514 0.41045 0.0
O17 O 0.91174 0.95499 0.42392 0.0
O18 O 0.05334 0.15435 0.38636 0.0
O19 O 0.01752 0.06567 0.36748 0.0
C20 C 0.03107 0.12336 0.36806 0.0
C21 C 0.9907 0.87807 0.38666 0.0
C22 C 0.91468 1.00658 0.42913 0.0
C23 C 0.13208 0.05114 0.42645 0.0
O24 O 0.08047 0.99773 0.42937 0.0
O25 O 0.13064 0.0895 0.41272 0.0
O26 O 0.97694 0.86731 0.40747 0.0
O27 O 1.00278 0.93165 0.37893 0.0
O28 O 0.93242 0.99567 0.71928 0.0
Cd29 Cd 0.97647 0.96014 0.74002 0.0
Cd30 Cd 0.07646 0.08281 0.73976 0.0
O31 O 1.01164 0.09554 0.71931 0.0
O32 O 0.90168 0.87615 0.74885 0.0
O33 O 0.95317 0.9554 0.77252 0.0
C34 C 0.90633 0.89848 0.76858 0.0
C35 C 0.12893 0.14625 0.77054 0.0
C36 C 0.95443 0.05178 0.71297 0.0
C37 C 0.10962 0.98713 0.72118 0.0
O38 O 0.12877 0.04432 0.72515 0.0
O39 O 0.05065 0.9444 0.72643 0.0
O40 O 0.14881 0.16588 0.75065 0.0
O41 O 0.07676 0.09142 0.77302 0.0
C42 C 0.02708 0.59123 0.26733 0.0
C43 C 0.06227 0.46971 0.20898 0.0
O44 O 0.08326 0.59503 0.26252 0.0
Zn45 Zn 0.04961 0.53096 0.23901 0.0
O46 O 0.97345 0.55105 0.25738 0.0
Zn47 Zn 0.94205 0.48003 0.2326 0.0
O48 O 0.88731 0.40214 0.24917 0.0
O49 O 0.9956 0.44676 0.25683 0.0
O50 O 1.00103 0.45601 0.21168 0.0
O51 O 0.10838 0.51075 0.22133 0.0
O52 O 1.01431 0.57145 0.21497 0.0
O53 O 0.90427 0.51171 0.21062 0.0
C54 C 0.9355 0.40153 0.2594 0.0
C55 C 0.9593 0.56071 0.20565 0.0
C56 C 0.59357 0.03765 0.60498 0.0
C57 C 0.44712 0.04196 0.54802 0.0
O58 O 0.55488 0.98244 0.59712 0.0
Zn59 Zn 0.47329 0.94073 0.57318 0.0
O60 O 0.58823 0.0837 0.59819 0.0
Zn61 Zn 0.51808 0.03791 0.577 0.0
O62 O 0.43288 0.98455 0.59832 0.0
O63 O 0.39573 0.88491 0.59054 0.0
O64 O 0.48943 0.08643 0.56011 0.0
O65 O 0.4363 0.98595 0.55095 0.0
O66 O 0.50475 0.90121 0.55298 0.0
O67 O 0.56447 1.00483 0.55232 0.0
C68 C 0.39098 0.92642 0.60173 0.0
C69 C 0.55318 0.95093 0.54512 0.0
C70 C 0.39335 0.496 0.94169 0.0
C71 C 0.53865 0.64738 0.88587 0.0
O72 O 0.38187 0.53526 0.93174 0.0
Zn73 Zn 0.4627 0.57227 0.91349 0.0
O74 O 0.44687 0.4936 0.93725 0.0
Zn75 Zn 0.53317 0.53829 0.91635 0.0
O76 O 0.60607 0.57747 0.93789 0.0
O77 O 0.53959 0.61903 0.93767 0.0
O78 O 0.56082 0.61236 0.89335 0.0
O79 O 0.48269 0.64019 0.89284 0.0
O80 O 0.44409 0.49598 0.89202 0.0
O81 O 0.52211 0.46933 0.89722 0.0
C82 C 0.59071 0.61742 0.94539 0.0
C83 C 0.46915 0.46076 0.88733 0.0
H84 H 0.04034 0.13959 0.14362 0.0
C85 C 0.01665 0.14732 0.12932 0.0
H86 H 0.98722 0.20732 0.11441 0.0
H87 H 1.01191 0.29988 0.21961 0.0
H88 H 0.92092 0.19528 0.22739 0.0
H89 H 0.87942 0.1126 0.1986 0.0
H90 H 0.92891 0.13399 0.16185 0.0
C91 C 1.00683 0.19695 0.1292 0.0
C92 C 0.03347 0.24527 0.14723 0.0
C93 C 1.00414 0.23187 0.1687 0.0
C94 C 0.02767 0.27991 0.18525 0.0
C95 C 0.99648 0.26542 0.20641 0.0
C96 C 0.94399 0.2055 0.21112 0.0
C97 C 0.92068 0.15892 0.19491 0.0
C98 C 0.94989 0.17176 0.1739 0.0
H99 H 0.05432 0.43391 0.17523 0.0
C100 C 0.07613 0.43592 0.19142 0.0
H101 H 0.11041 0.39083 0.213 0.0
H102 H 0.10465 0.28559 0.10841 0.0
H103 H 0.19722 0.38975 0.1009 0.0
H104 H 0.23817 0.47259 0.12966 0.0
H105 H 0.18649 0.45158 0.16618 0.0
C106 C 0.09537 0.39383 0.19617 0.0
C107 C 0.07969 0.34153 0.18018 0.0
C108 C 0.11102 0.35407 0.15906 0.0
C109 C 0.08767 0.3061 0.14255 0.0
C110 C 0.11982 0.32027 0.12155 0.0
C111 C 0.17326 0.37986 0.11703 0.0
C112 C 0.19628 0.4265 0.13321 0.0
C113 C 0.16588 0.41397 0.15404 0.0
H114 H 0.86954 0.05445 0.44739 0.0
C115 C 0.86417 1.00867 0.44382 0.0
H116 H 0.80862 0.91168 0.45093 0.0
H117 H 0.75574 0.04039 0.54026 0.0
H118 H 0.87019 0.06813 0.5497 0.0
H119 H 0.94049 0.04824 0.52336 0.0
H120 H 0.89682 1.00063 0.48742 0.0
C121 C 0.81579 0.95818 0.45419 0.0
C122 C 0.7717 0.96555 0.47075 0.0
C123 C 0.79786 0.99293 0.49181 0.0
C124 C 0.75711 1.00379 0.50708 0.0
C125 C 0.7845 0.03118 0.52799 0.0
C126 C 0.85011 0.04725 0.53365 0.0
C127 C 0.88971 0.03612 0.51881 0.0
C128 C 0.86411 1.0091 0.49816 0.0
H129 H 0.58451 0.89836 0.52296 0.0
C130 C 0.59561 0.9453 0.52782 0.0
H131 H 0.66012 0.04238 0.52305 0.0
H132 H 0.70586 0.91022 0.43219 0.0
H133 H 0.59141 0.88272 0.4226 0.0
H134 H 0.52144 0.90378 0.4487 0.0
H135 H 0.5652 0.95204 0.48457 0.0
C136 C 0.64673 0.99502 0.518 0.0
C137 C 0.68995 0.9863 0.50144 0.0
C138 C 0.66376 0.95882 0.48039 0.0
C139 C 0.7045 0.94777 0.46514 0.0
C140 C 0.67711 0.91992 0.44432 0.0
C141 C 0.61155 0.90395 0.4386 0.0
C142 C 0.57212 0.9157 0.45332 0.0
C143 C 0.59772 0.94303 0.47394 0.0
H144 H 0.82753 0.8095 0.78246 0.0
C145 C 0.85683 0.85972 0.78555 0.0
H146 H 0.87046 0.9346 0.80644 0.0
H147 H 0.56528 0.68415 0.82633 0.0
H148 H 0.53794 0.6982 0.78882 0.0
H149 H 0.62272 0.78156 0.76509 0.0
H150 H 0.73598 0.85018 0.77859 0.0
C151 C 0.84199 0.88443 0.80322 0.0
C152 C 0.78702 0.84371 0.81891 0.0
C153 C 0.71968 0.80677 0.81129 0.0
C154 C 0.66963 0.76116 0.82544 0.0
C155 C 0.6045 0.72137 0.81672 0.0
C156 C 0.58816 0.72871 0.79514 0.0
C157 C 0.63596 0.77546 0.78174 0.0
C158 C 0.70098 0.81417 0.78964 0.0
H159 H 0.56436 0.7306 0.86502 0.0
C160 C 0.58009 0.69727 0.86986 0.0
H161 H 0.65424 0.67019 0.86725 0.0
H162 H 0.90896 0.91196 0.83956 0.0
H163 H 0.93404 0.90415 0.87807 0.0
H164 H 0.84584 0.82939 0.90321 0.0
H165 H 0.732 0.76189 0.89 0.0
C166 C 0.63786 0.70265 0.86186 0.0
C167 C 0.68604 0.75534 0.84764 0.0
C168 C 0.75189 0.79605 0.85578 0.0
C169 C 0.80251 0.83995 0.84138 0.0
C170 C 0.86835 0.87831 0.84982 0.0
C171 C 0.88348 0.8743 0.8719 0.0
C172 C 0.83385 0.83219 0.88605 0.0
C173 C 0.76877 0.79347 0.8782 0.0
H174 H 0.08686 0.91964 0.14015 0.0
C175 C 0.08853 0.90641 0.123 0.0
H176 H 0.07386 0.83376 0.10085 0.0
H177 H 0.11181 0.6576 0.16674 0.0
H178 H 0.20709 0.68936 0.14212 0.0
H179 H 0.23579 0.77225 0.11442 0.0
H180 H 0.16895 0.82344 0.11103 0.0
C181 C 0.07407 0.8475 0.11806 0.0
C182 C 0.05718 0.79885 0.13539 0.0
C183 C 0.09746 0.77011 0.13742 0.0
C184 C 0.08188 0.72342 0.15377 0.0
C185 C 0.12215 0.69444 0.15501 0.0
C186 C 0.1769 0.71198 0.1409 0.0
C187 C 0.19297 0.75854 0.12527 0.0
C188 C 0.15398 0.78744 0.12348 0.0
H189 H 0.91892 0.59086 0.17775 0.0
C190 C 0.96145 0.60525 0.18885 0.0
H191 H 0.05889 0.6761 0.19801 0.0
H192 H 0.96046 0.834 0.13303 0.0
H193 H 0.8677 0.80517 0.1585 0.0
H194 H 0.84874 0.73361 0.18961 0.0
H195 H 0.92122 0.68897 0.19498 0.0
C196 C 0.01645 0.66244 0.18691 0.0
C197 C 0.02688 0.70638 0.16846 0.0
C198 C 0.98613 0.73469 0.16634 0.0
C199 C 0.99987 0.77932 0.14929 0.0
C200 C 0.95505 0.80292 0.14644 0.0
C201 C 0.90107 0.78625 0.16084 0.0
C202 C 0.8902 0.74573 0.17828 0.0
C203 C 0.93204 0.72011 0.18109 0.0
H204 H 0.24258 0.09421 0.43066 0.0
C205 C 0.19413 0.06632 0.43868 0.0
H206 H 0.14048 1.01408 0.46645 0.0
H207 H 0.30916 0.90849 0.50555 0.0
H208 H 0.21095 0.81528 0.49213 0.0
H209 H 0.12935 0.82278 0.46758 0.0
H210 H 0.14499 0.92379 0.45671 0.0
C211 C 0.18983 0.0415 0.45887 0.0
C212 C 0.24674 0.03929 0.46997 0.0
C213 C 0.23877 0.97971 0.47529 0.0
C214 C 0.28733 0.97537 0.48867 0.0
C215 C 0.2754 0.91506 0.49486 0.0
C216 C 0.21888 0.86085 0.48733 0.0
C217 C 0.17286 0.86507 0.47357 0.0
C218 C 0.18235 0.92354 0.46758 0.0
H219 H 0.39178 0.08769 0.53566 0.0
C220 C 0.4083 0.05433 0.53142 0.0
H221 H 0.41123 0.99319 0.50746 0.0
H222 H 0.27697 0.16139 0.46407 0.0
H223 H 0.38189 0.25457 0.47349 0.0
H224 H 0.47373 0.24635 0.49159 0.0
H225 H 0.45993 0.1448 0.50114 0.0
C226 C 0.39301 0.02538 0.51155 0.0
C227 C 0.34567 0.03071 0.49587 0.0
C228 C 0.35677 0.09015 0.48872 0.0
C229 C 0.3059 0.09464 0.47666 0.0
C230 C 0.31535 0.15489 0.47196 0.0
C231 C 0.37524 0.2089 0.47745 0.0
C232 C 0.4268 0.2043 0.48775 0.0
C233 C 0.41796 0.14576 0.49335 0.0
H234 H 0.14068 0.1749 0.80592 0.0
C235 C 0.16608 0.18476 0.78996 0.0
H236 H 0.25631 0.23884 0.77232 0.0
H237 H 0.39101 0.47694 0.83304 0.0
H238 H 0.37191 0.51799 0.79911 0.0
H239 H 0.30482 0.44694 0.76867 0.0
H240 H 0.25701 0.3346 0.77189 0.0
C241 C 0.23113 0.22961 0.78832 0.0
C242 C 0.26973 0.27147 0.80725 0.0
C243 C 0.29653 0.33715 0.80522 0.0
C244 C 0.3338 0.37804 0.82298 0.0
C245 C 0.36106 0.44354 0.82028 0.0
C246 C 0.35073 0.46784 0.80084 0.0
C247 C 0.3131 0.42786 0.78369 0.0
C248 C 0.28613 0.36333 0.78576 0.0
H249 H 0.46245 0.3875 0.86388 0.0
C250 C 0.43631 0.41119 0.87022 0.0
H251 H 0.34983 0.42098 0.86833 0.0
H252 H 0.23618 0.14951 0.81536 0.0
H253 H 0.25222 0.10834 0.84979 0.0
H254 H 0.30748 0.1782 0.88182 0.0
H255 H 0.3487 0.28991 0.87939 0.0
C256 C 0.3753 0.39646 0.86217 0.0
C257 C 0.34324 0.3533 0.84297 0.0
C258 C 0.31712 0.28775 0.84498 0.0
C259 C 0.2819 0.24694 0.82689 0.0
C260 C 0.26019 0.18224 0.82889 0.0
C261 C 0.2696 0.15802 0.84852 0.0
C262 C 0.30095 0.19738 0.86653 0.0
C263 C 0.3246 0.26152 0.86487 0.0
H264 H 0.94239 0.09926 0.68386 0.0
C265 C 0.91525 0.0646 0.69658 0.0
H266 H 0.82188 0.99674 0.70927 0.0
H267 H 0.76456 0.14384 0.62456 0.0
H268 H 0.83629 0.24222 0.64351 0.0
H269 H 0.89001 0.24419 0.67914 0.0
H270 H 0.87495 0.1481 0.69538 0.0
C271 C 0.84763 0.03066 0.69619 0.0
C272 C 0.80662 0.03012 0.67686 0.0
C273 C 0.81082 0.08617 0.66882 0.0
C274 C 0.77424 0.08439 0.6495 0.0
C275 C 0.78646 0.14188 0.64018 0.0
C276 C 0.82824 0.19882 0.65074 0.0
C277 C 0.85887 0.19997 0.67071 0.0
C278 C 0.8504 0.14446 0.67973 0.0
H279 H 0.64521 0.07625 0.63676 0.0
C280 C 0.64207 0.04731 0.62258 0.0
H281 H 0.67906 0.99424 0.60665 0.0
H282 H 0.7904 0.91397 0.68643 0.0
H283 H 0.711 0.81516 0.66954 0.0
H284 H 0.6356 0.81061 0.63961 0.0
H285 H 0.64044 0.90503 0.62605 0.0
C286 C 0.68231 0.02205 0.62121 0.0
C287 C 0.72704 0.02583 0.63988 0.0
C288 C 0.72139 0.9696 0.64833 0.0
C289 C 0.76256 0.97193 0.66636 0.0
C290 C 0.75863 0.91522 0.67345 0.0
C291 C 0.71344 0.85791 0.66379 0.0
C292 C 0.67118 0.85537 0.6469 0.0
C293 C 0.67482 0.91026 0.6392 0.0
H294 H 0.90745 0.84717 0.03601 0.0
C295 C 0.89325 0.88166 0.04113 0.0
H296 H 0.82059 0.9103 0.03766 0.0
H297 H 0.74099 0.76608 0.94414 0.0
H298 H 0.7959 0.8746 0.93245 0.0
H299 H 0.85024 0.96076 0.95975 0.0
H300 H 0.84979 0.93892 0.99895 0.0
C301 C 0.83467 0.87494 0.03395 0.0
C302 C 0.79332 0.82306 0.01812 0.0
C303 C 0.79256 0.83666 0.99535 0.0
C304 C 0.76042 0.78696 0.97965 0.0
C305 C 0.76292 0.80193 0.95688 0.0
C306 C 0.7948 0.86405 0.9499 0.0
C307 C 0.82544 0.91256 0.96527 0.0
C308 C 0.82477 0.89934 0.98773 0.0
H309 H 0.61371 0.69639 0.96771 0.0
C310 C 0.63114 0.6644 0.96237 0.0
H311 H 0.70731 0.64014 0.96617 0.0
H312 H 0.7807 0.78093 0.06071 0.0
H313 H 0.72501 0.67229 0.07249 0.0
H314 H 0.67006 0.58607 0.04521 0.0
H315 H 0.67042 0.60794 1.00597 0.0
C316 C 0.68886 0.67185 0.97071 0.0
C317 C 0.7276 0.7237 0.98683 0.0
C318 C 0.72795 0.71011 1.00961 0.0
C319 C 0.76034 0.75982 0.0253 0.0
C320 C 0.75823 0.74493 0.04804 0.0
C321 C 0.72606 0.6828 0.05503 0.0
C322 C 0.69503 0.63426 0.03968 0.0
C323 C 0.69561 0.64745 1.01721 0.0
H324 H 0.99701 0.79244 0.38142 0.0
C325 C 0.99748 0.8315 0.37289 0.0
H326 H 1.00978 0.87692 0.34235 0.0
H327 H 0.17336 0.77529 0.29026 0.0
H328 H 0.24888 0.88758 0.2903 0.0
H329 H 0.22365 0.95796 0.31268 0.0
H330 H 0.12221 0.91669 0.33481 0.0
C331 C 1.00752 0.83704 0.35084 0.0
C332 C 0.02322 0.79343 0.33792 0.0
C333 C 0.08409 0.81819 0.32557 0.0
C334 C 0.09976 0.77738 0.31315 0.0
C335 C 0.15944 0.80381 0.30028 0.0
C336 C 0.20334 0.86829 0.30015 0.0
C337 C 0.18908 0.90792 0.31272 0.0
C338 C 0.13036 0.88349 0.32531 0.0
H339 H 0.974 0.63505 0.28286 0.0
C340 C 0.02096 0.63398 0.28328 0.0
H341 H 0.11539 0.66999 0.29894 0.0
H342 H 0.89659 0.72951 0.35625 0.0
H343 H 0.82708 0.61682 0.35933 0.0
H344 H 0.86419 0.54617 0.34328 0.0
H345 H 0.96972 0.58807 0.32318 0.0
C346 C 0.06771 0.66958 0.29836 0.0
C347 C 0.0557 0.71163 0.31359 0.0
C348 C 0.99719 0.68667 0.32715 0.0
C349 C 0.97894 0.72752 0.33822 0.0
C350 C 0.91572 0.70096 0.34907 0.0
C351 C 0.87482 0.63621 0.35073 0.0
C352 C 0.89548 0.59644 0.34157 0.0
C353 C 0.95584 0.6211 0.32989 0.0
H354 H 0.20637 1.01165 0.7057 0.0
C355 C 0.15593 0.97279 0.70869 0.0
H356 H 0.08553 0.87912 0.70028 0.0
H357 H 0.2306 0.9209 0.60648 0.0
H358 H 0.11829 0.89787 0.59619 0.0
H359 H 0.03362 0.8809 0.62482 0.0
H360 H 0.0608 0.88695 0.6639 0.0
C361 C 0.13678 0.91756 0.69855 0.0
C362 C 0.18211 0.91297 0.68169 0.0
C363 C 0.16453 0.90701 0.6589 0.0
C364 C 0.21323 0.91637 0.64237 0.0
C365 C 0.19538 0.91326 0.61973 0.0
C366 C 0.1311 0.90029 0.61358 0.0
C367 C 0.08345 0.89077 0.6297 0.0
C368 C 0.09976 0.89436 0.6521 0.0
H369 H 0.30015 0.85802 0.61996 0.0
C370 C 0.33719 0.90748 0.61848 0.0
H371 H 0.37098 0.99889 0.63101 0.0
H372 H 0.22709 0.91437 0.72371 0.0
H373 H 0.33856 0.93416 0.73409 0.0
H374 H 0.42382 0.9525 0.70548 0.0
H375 H 0.39805 0.95074 0.66634 0.0
C376 C 0.33298 0.94958 0.63177 0.0
C377 C 0.27902 0.93077 0.64871 0.0
C378 C 0.29495 0.93214 0.67147 0.0
C379 C 0.24621 0.92254 0.68797 0.0
C380 C 0.26301 0.92306 0.71057 0.0
C381 C 0.32656 0.9339 0.71672 0.0
C382 C 0.37454 0.94416 0.70061 0.0
C383 C 0.35918 0.94323 0.67822 0.0
H384 H 0.2365 0.17726 0.03496 0.0
C385 C 0.1879 0.17394 0.03782 0.0
H386 H 0.12535 0.21272 0.03111 0.0
H387 H 0.3584 0.47872 1.00207 0.0
H388 H 0.3318 0.50344 0.03843 0.0
H389 H 0.25405 0.41951 0.06345 0.0
H390 H 0.20277 0.31015 0.05234 0.0
C391 C 0.17308 0.21456 0.02788 0.0
C392 C 0.22097 0.26473 1.01282 0.0
C393 C 0.24949 0.32847 0.01941 0.0
C394 C 0.29368 0.37697 1.00486 0.0
C395 C 0.32337 0.44006 1.01222 0.0
C396 C 0.30879 0.45492 0.03312 0.0
C397 C 0.26502 0.40765 0.04721 0.0
C398 C 0.23577 0.34508 0.04058 0.0
H399 H 0.29778 0.45141 0.96081 0.0
C400 C 0.34494 0.4518 0.95798 0.0
H401 H 0.40432 0.41034 0.96552 0.0
H402 H 0.16968 0.14762 0.99407 0.0
H403 H 0.19566 0.12305 0.95762 0.0
H404 H 0.27349 0.20707 0.9326 0.0
H405 H 0.32537 0.31621 0.94388 0.0
C406 C 0.35801 0.4112 0.96879 0.0
C407 C 0.30838 0.36158 0.98362 0.0
C408 C 0.27929 0.29787 0.97693 0.0
C409 C 0.23511 0.24938 0.99146 0.0
C410 C 0.20494 0.18632 0.98399 0.0
C411 C 0.21909 0.17152 0.96301 0.0
C412 C 0.26286 0.2188 0.94893 0.0
C413 C 0.29254 0.28129 0.95567 0.0
H414 H 0.0262 0.13968 0.33212 0.0
C415 C 0.01858 0.15265 0.34871 0.0
H416 H 0.98723 0.20447 0.36844 0.0
H417 H 0.04723 0.42846 0.30742 0.0
H418 H 0.12184 0.47926 0.33851 0.0
H419 H 0.13789 0.41697 0.36726 0.0
H420 H 0.07896 0.30371 0.36522 0.0
C421 C 0.99589 0.19343 0.35165 0.0
C422 C 0.98824 0.22982 0.33324 0.0
C423 C 0.02448 0.29634 0.33443 0.0
C424 C 0.01691 0.33237 0.3175 0.0
C425 C 0.05234 0.3987 0.31949 0.0
C426 C 0.09518 0.42858 0.33732 0.0
C427 C 0.10406 0.39352 0.35352 0.0
C428 C 0.06946 0.3283 0.35217 0.0
H429 H 0.87487 0.32179 0.28209 0.0
C430 C 0.92412 0.35017 0.27463 0.0
H431 H 0.02492 0.37033 0.27243 0.0
H432 H 0.90186 0.10364 0.32752 0.0
H433 H 0.83066 0.05327 0.29561 0.0
H434 H 0.82642 0.11594 0.26451 0.0
H435 H 0.89189 0.22955 0.26548 0.0
C436 C 0.97601 0.34143 0.2801 0.0
C437 C 0.97472 0.30217 0.299 0.0
C438 C 0.93798 0.23578 0.29783 0.0
C439 C 0.94331 0.19951 0.31526 0.0
C440 C 0.90263 0.13343 0.31429 0.0
C441 C 0.861 0.10389 0.29614 0.0
C442 C 0.8584 0.13918 0.27866 0.0
C443 C 0.89618 0.20438 0.27944 0.0
loop_
_geom_bond_atom_site_label_1
_geom_bond_atom_site_label_2
_geom_bond_distance
_geom_bond_site_symmetry_2
_ccdc_geom_bond_type
O0 Cd1 2.223 1_455 S
O0 C8 1.315 . S
Cd1 O0 2.223 1_655 S
Cd1 O4 2.297 . S
Cd1 O5 2.439 . S
Cd1 O11 2.240 1_545 S
Cd2 O3 2.240 1_565 S
Cd2 O10 2.223 1_455 S
Cd2 O12 2.297 . S
Cd2 O13 2.439 . S
O3 Cd2 2.240 1_545 S
O3 C8 1.279 . S
O4 Cd1 2.297 . S
O4 C6 1.247 . S
O5 Cd1 2.439 . S
O5 C6 1.208 . S
C6 O4 1.247 . S
C6 O5 1.208 . S
C7 O12 1.247 . S
C7 O13 1.208 . S
C8 O0 1.315 . S
C8 O3 1.279 . S
C9 O10 1.315 . S
C9 O11 1.279 . S
O10 Cd2 2.223 1_655 S
O10 C9 1.315 . S
O11 Cd1 2.240 1_565 S
O11 C9 1.279 . S
O12 Cd2 2.297 . S
O12 C7 1.247 . S
O13 Cd2 2.439 . S
O13 C7 1.208 . S
O14 Cd15 2.223 1_655 S
O14 C22 1.315 . S
Cd15 O14 2.223 1_455 S
Cd15 O18 2.297 . S
Cd15 O19 2.439 . S
Cd15 O25 2.240 . S
Cd16 O17 2.240 . S
Cd16 O24 2.223 1_655 S
Cd16 O26 2.297 . S
Cd16 O27 2.439 . S
O17 Cd16 2.240 . S
O17 C22 1.279 1_565 S
O18 Cd15 2.297 . S
O18 C20 1.247 . S
O19 Cd15 2.439 . S
O19 C20 1.208 . S
C20 O18 1.247 . S
C20 O19 1.208 . S
C21 O26 1.247 . S
C21 O27 1.208 . S
C22 O14 1.315 . S
C22 O17 1.279 1_545 S
C23 O24 1.315 . S
C23 O25 1.279 1_565 S
O24 Cd16 2.223 1_455 S
O24 C23 1.315 . S
O25 Cd15 2.240 . S
O25 C23 1.279 1_545 S
O26 Cd16 2.297 . S
O26 C21 1.247 . S
O27 Cd16 2.439 . S
O27 C21 1.208 . S
O28 Cd29 2.223 . S
O28 C36 1.315 . S
Cd29 O28 2.223 . S
Cd29 O32 2.297 . S
Cd29 O33 2.439 . S
Cd29 O39 2.240 1_655 S
Cd30 O31 2.240 1_455 S
Cd30 O38 2.223 . S
Cd30 O40 2.297 . S
Cd30 O41 2.439 . S
O31 Cd30 2.240 1_655 S
O31 C36 1.279 1_545 S
O32 Cd29 2.297 . S
O32 C34 1.247 . S
O33 Cd29 2.439 . S
O33 C34 1.208 . S
C34 O32 1.247 . S
C34 O33 1.208 . S
C35 O40 1.247 . S
C35 O41 1.208 . S
C36 O28 1.315 . S
C36 O31 1.279 1_565 S
C37 O38 1.315 . S
C37 O39 1.279 1_545 S
O38 Cd30 2.223 . S
O38 C37 1.315 . S
O39 Cd29 2.240 1_455 S
O39 C37 1.279 1_565 S
O40 Cd30 2.297 . S
O40 C35 1.247 . S
O41 Cd30 2.439 . S
O41 C35 1.208 . S
C42 O44 1.252 . S
C42 O46 1.255 1_455 S
C43 O50 1.248 . S
C43 O51 1.258 1_655 S
O44 C42 1.252 . S
O44 Zn45 2.028 . S
Zn45 O44 2.028 . S
Zn45 O49 2.035 . S
Zn45 O51 2.035 . S
Zn45 O52 2.028 . S
O46 C42 1.255 1_655 S
O46 Zn47 2.035 . S
Zn47 O46 2.035 . S
Zn47 O48 2.028 . S
Zn47 O50 2.028 . S
Zn47 O53 2.035 . S
O48 Zn47 2.028 . S
O48 C54 1.248 . S
O49 Zn45 2.035 . S
O49 C54 1.258 1_455 S
O50 C43 1.248 . S
O50 Zn47 2.028 . S
O51 C43 1.258 1_455 S
O51 Zn45 2.035 . S
O52 Zn45 2.028 . S
O52 C55 1.252 . S
O53 Zn47 2.035 . S
O53 C55 1.255 1_655 S
C54 O48 1.248 . S
C54 O49 1.258 1_655 S
C55 O52 1.252 . S
C55 O53 1.255 1_455 S
C56 O58 1.247 . S
C56 O60 1.258 1_565 S
C57 O64 1.250 . S
C57 O65 1.253 1_545 S
O58 C56 1.247 . S
O58 Zn59 2.028 . S
Zn59 O58 2.028 . S
Zn59 O63 2.035 . S
Zn59 O65 2.035 . S
Zn59 O66 2.028 . S
O60 C56 1.258 1_545 S
O60 Zn61 2.035 . S
Zn61 O60 2.035 . S
Zn61 O62 2.028 . S
Zn61 O64 2.028 . S
Zn61 O67 2.035 . S
O62 Zn61 2.028 . S
O62 C68 1.250 . S
O63 Zn59 2.035 . S
O63 C68 1.253 1_565 S
O64 C57 1.250 . S
O64 Zn61 2.028 . S
O65 C57 1.253 1_565 S
O65 Zn59 2.035 . S
O66 Zn59 2.028 . S
O66 C69 1.247 . S
O67 Zn61 2.035 . S
O67 C69 1.258 1_545 S
C68 O62 1.250 . S
C68 O63 1.253 1_545 S
C69 O66 1.247 . S
C69 O67 1.258 1_565 S
C70 O72 1.247 . S
C70 O74 1.258 . S
C71 O78 1.247 . S
C71 O79 1.258 . S
O72 C70 1.247 . S
O72 Zn73 2.028 . S
Zn73 O72 2.028 . S
Zn73 O77 2.035 . S
Zn73 O79 2.035 . S
Zn73 O80 2.028 . S
O74 C70 1.258 . S
O74 Zn75 2.035 . S
Zn75 O74 2.035 . S
Zn75 O76 2.028 . S
Zn75 O78 2.028 . S
Zn75 O81 2.035 . S
O76 Zn75 2.028 . S
O76 C82 1.247 . S
O77 Zn73 2.035 . S
O77 C82 1.258 . S
O78 C71 1.247 . S
O78 Zn75 2.028 . S
O79 C71 1.258 . S
O79 Zn73 2.035 . S
O80 Zn73 2.028 . S
O80 C83 1.247 . S
O81 Zn75 2.035 . S
O81 C83 1.258 . S
C82 O76 1.247 . S
C82 O77 1.258 . S
C83 O80 1.247 . S
C83 O81 1.258 . S
H84 C85 0.951 . S
C85 H84 0.951 . S
C85 C91 1.265 1_455 S
H86 C91 0.950 . S
H87 C95 0.949 . S
H88 C96 0.950 . S
H89 C97 0.951 . S
H90 C98 0.951 . S
C91 C85 1.265 1_655 S
C91 H86 0.950 . S
C91 C92 1.478 . S
C92 C91 1.478 . S
C92 C93 1.397 . S
C92 C109 1.394 1_655 S
C93 C92 1.397 . S
C93 C94 1.438 . S
C93 C98 1.429 . S
C94 C93 1.438 . S
C94 C95 1.428 . S
C94 C107 1.394 1_655 S
C95 H87 0.949 . S
C95 C94 1.428 . S
C95 C96 1.345 . S
C96 H88 0.950 . S
C96 C95 1.345 . S
C96 C97 1.424 . S
C97 H89 0.951 . S
C97 C96 1.424 . S
C97 C98 1.347 . S
C98 H90 0.951 . S
C98 C93 1.429 . S
C98 C97 1.347 . S
H99 C100 0.951 . S
C100 H99 0.951 . S
C100 C106 1.265 1_655 S
H101 C106 0.950 . S
H102 C110 0.949 . S
H103 C111 0.950 . S
H104 C112 0.951 . S
H105 C113 0.951 . S
C106 C100 1.265 1_455 S
C106 H101 0.950 . S
C106 C107 1.478 . S
C107 C94 1.394 1_455 S
C107 C106 1.478 . S
C107 C108 1.397 . S
C108 C107 1.397 . S
C108 C109 1.438 . S
C108 C113 1.429 . S
C109 C92 1.394 1_455 S
C109 C108 1.438 . S
C109 C110 1.428 . S
C110 H102 0.949 . S
C110 C109 1.428 . S
C110 C111 1.345 . S
C111 H103 0.950 . S
C111 C110 1.345 . S
C111 C112 1.424 . S
C112 H104 0.951 . S
C112 C111 1.424 . S
C112 C113 1.347 . S
C113 H105 0.951 . S
C113 C108 1.429 . S
C113 C112 1.347 . S
H114 C115 0.951 . S
C115 H114 0.951 . S
C115 C121 1.265 . S
H116 C121 0.950 . S
H117 C125 0.949 . S
H118 C126 0.950 . S
H119 C127 0.951 . S
H120 C128 0.951 . S
C121 C115 1.265 . S
C121 H116 0.950 . S
C121 C122 1.478 . S
C122 C121 1.478 . S
C122 C123 1.397 . S
C122 C139 1.394 1_545 S
C123 C122 1.397 . S
C123 C124 1.438 . S
C123 C128 1.429 . S
C124 C123 1.438 . S
C124 C125 1.428 . S
C124 C137 1.394 . S
C125 H117 0.949 . S
C125 C124 1.428 . S
C125 C126 1.345 . S
C126 H118 0.950 . S
C126 C125 1.345 . S
C126 C127 1.424 . S
C127 H119 0.951 . S
C127 C126 1.424 . S
C127 C128 1.347 . S
C128 H120 0.951 . S
C128 C123 1.429 . S
C128 C127 1.347 . S
H129 C130 0.953 . S
C130 H129 0.953 . S
C130 C136 1.267 1_565 S
H131 C136 0.959 . S
H132 C140 0.949 . S
H133 C141 0.950 . S
H134 C142 0.951 . S
H135 C143 0.951 . S
C136 C130 1.267 1_545 S
C136 H131 0.959 . S
C136 C137 1.469 . S
C137 C124 1.394 . S
C137 C136 1.469 . S
C137 C138 1.397 1_545 S
C138 C137 1.397 1_565 S
C138 C139 1.438 . S
C138 C143 1.429 . S
C139 C122 1.394 1_565 S
C139 C138 1.438 . S
C139 C140 1.428 . S
C140 H132 0.949 . S
C140 C139 1.428 . S
C140 C141 1.345 . S
C141 H133 0.950 . S
C141 C140 1.345 . S
C141 C142 1.424 . S
C142 H134 0.951 . S
C142 C141 1.424 . S
C142 C143 1.347 . S
C143 H135 0.951 . S
C143 C138 1.429 . S
C143 C142 1.347 . S
H144 C145 0.951 . S
C145 H144 0.951 . S
C145 C151 1.265 . S
H146 C151 0.950 . S
H147 C155 0.949 . S
H148 C156 0.950 . S
H149 C157 0.951 . S
H150 C158 0.951 . S
C151 C145 1.265 . S
C151 H146 0.950 . S
C151 C152 1.478 . S
C152 C151 1.478 . S
C152 C153 1.397 . S
C152 C169 1.394 . S
C153 C152 1.397 . S
C153 C154 1.438 . S
C153 C158 1.429 . S
C154 C153 1.438 . S
C154 C155 1.428 . S
C154 C167 1.394 . S
C155 H147 0.949 . S
C155 C154 1.428 . S
C155 C156 1.345 . S
C156 H148 0.950 . S
C156 C155 1.345 . S
C156 C157 1.424 . S
C157 H149 0.951 . S
C157 C156 1.424 . S
C157 C158 1.347 . S
C158 H150 0.951 . S
C158 C153 1.429 . S
C158 C157 1.347 . S
H159 C160 0.951 . S
C160 H159 0.951 . S
C160 C166 1.265 . S
H161 C166 0.950 . S
H162 C170 0.949 . S
H163 C171 0.950 . S
H164 C172 0.951 . S
H165 C173 0.951 . S
C166 C160 1.265 . S
C166 H161 0.950 . S
C166 C167 1.478 . S
C167 C154 1.394 . S
C167 C166 1.478 . S
C167 C168 1.397 . S
C168 C167 1.397 . S
C168 C169 1.438 . S
C168 C173 1.429 . S
C169 C152 1.394 . S
C169 C168 1.438 . S
C169 C170 1.428 . S
C170 H162 0.949 . S
C170 C169 1.428 . S
C170 C171 1.345 . S
C171 H163 0.950 . S
C171 C170 1.345 . S
C171 C172 1.424 . S
C172 H164 0.951 . S
C172 C171 1.424 . S
C172 C173 1.347 . S
C173 H165 0.951 . S
C173 C168 1.429 . S
C173 C172 1.347 . S
H174 C175 0.951 . S
C175 H174 0.951 . S
C175 C181 1.265 1_455 S
H176 C181 0.950 . S
H177 C185 0.949 . S
H178 C186 0.950 . S
H179 C187 0.951 . S
H180 C188 0.951 . S
C181 C175 1.265 1_655 S
C181 H176 0.950 . S
C181 C182 1.478 . S
C182 C181 1.478 . S
C182 C183 1.397 1_655 S
C182 C199 1.394 . S
C183 C182 1.397 1_455 S
C183 C184 1.438 . S
C183 C188 1.429 . S
C184 C183 1.438 . S
C184 C185 1.428 . S
C184 C197 1.394 . S
C185 H177 0.949 . S
C185 C184 1.428 . S
C185 C186 1.345 . S
C186 H178 0.950 . S
C186 C185 1.345 . S
C186 C187 1.424 . S
C187 H179 0.951 . S
C187 C186 1.424 . S
C187 C188 1.347 . S
C188 H180 0.951 . S
C188 C183 1.429 . S
C188 C187 1.347 . S
H189 C190 0.951 . S
C190 H189 0.951 . S
C190 C196 1.265 1_655 S
H191 C196 0.950 . S
H192 C200 0.949 . S
H193 C201 0.950 . S
H194 C202 0.951 . S
H195 C203 0.951 . S
C196 C190 1.265 1_455 S
C196 H191 0.950 . S
C196 C197 1.478 . S
C197 C184 1.394 . S
C197 C196 1.478 . S
C197 C198 1.397 1_455 S
C198 C197 1.397 1_655 S
C198 C199 1.438 . S
C198 C203 1.429 . S
C199 C182 1.394 . S
C199 C198 1.438 . S
C199 C200 1.428 . S
C200 H192 0.949 . S
C200 C199 1.428 . S
C200 C201 1.345 . S
C201 H193 0.950 . S
C201 C200 1.345 . S
C201 C202 1.424 . S
C202 H194 0.951 . S
C202 C201 1.424 . S
C202 C203 1.347 . S
C203 H195 0.951 . S
C203 C198 1.429 . S
C203 C202 1.347 . S
H204 C205 0.951 1_545 S
C205 H204 0.951 1_565 S
C205 C211 1.265 . S
H206 C211 0.950 . S
H207 C215 0.949 . S
H208 C216 0.950 . S
H209 C217 0.951 . S
H210 C218 0.951 . S
C211 C205 1.265 . S
C211 H206 0.950 . S
C211 C212 1.478 . S
C212 C211 1.478 . S
C212 C213 1.397 . S
C212 C229 1.394 1_565 S
C213 C212 1.397 . S
C213 C214 1.438 . S
C213 C218 1.429 . S
C214 C213 1.438 . S
C214 C215 1.428 . S
C214 C227 1.394 1_565 S
C215 H207 0.949 . S
C215 C214 1.428 . S
C215 C216 1.345 . S
C216 H208 0.950 . S
C216 C215 1.345 . S
C216 C217 1.424 . S
C217 H209 0.951 . S
C217 C216 1.424 . S
C217 C218 1.347 . S
C218 H210 0.951 . S
C218 C213 1.429 . S
C218 C217 1.347 . S
H219 C220 0.951 . S
C220 H219 0.951 . S
C220 C226 1.265 1_565 S
H221 C226 0.950 . S
H222 C230 0.949 . S
H223 C231 0.950 . S
H224 C232 0.951 . S
H225 C233 0.951 . S
C226 C220 1.265 1_545 S
C226 H221 0.950 . S
C226 C227 1.478 . S
C227 C214 1.394 1_545 S
C227 C226 1.478 . S
C227 C228 1.397 . S
C228 C227 1.397 . S
C228 C229 1.438 . S
C228 C233 1.429 . S
C229 C212 1.394 1_545 S
C229 C228 1.438 . S
C229 C230 1.428 . S
C230 H222 0.949 . S
C230 C229 1.428 . S
C230 C231 1.345 . S
C231 H223 0.950 . S
C231 C230 1.345 . S
C231 C232 1.424 . S
C232 H224 0.951 . S
C232 C231 1.424 . S
C232 C233 1.347 . S
C233 H225 0.951 . S
C233 C228 1.429 . S
C233 C232 1.347 . S
H234 C235 0.951 . S
C235 H234 0.951 . S
C235 C241 1.265 . S
H236 C241 0.950 . S
H237 C245 0.949 . S
H238 C246 0.950 . S
H239 C247 0.951 . S
H240 C248 0.951 . S
C241 C235 1.265 . S
C241 H236 0.950 . S
C241 C242 1.478 . S
C242 C241 1.478 . S
C242 C243 1.397 . S
C242 C259 1.394 . S
C243 C242 1.397 . S
C243 C244 1.438 . S
C243 C248 1.429 . S
C244 C243 1.438 . S
C244 C245 1.428 . S
C244 C257 1.394 . S
C245 H237 0.949 . S
C245 C244 1.428 . S
C245 C246 1.345 . S
C246 H238 0.950 . S
C246 C245 1.345 . S
C246 C247 1.424 . S
C247 H239 0.951 . S
C247 C246 1.424 . S
C247 C248 1.347 . S
C248 H240 0.951 . S
C248 C243 1.429 . S
C248 C247 1.347 . S
H249 C250 0.951 . S
C250 H249 0.951 . S
C250 C256 1.265 . S
H251 C256 0.950 . S
H252 C260 0.949 . S
H253 C261 0.950 . S
H254 C262 0.951 . S
H255 C263 0.951 . S
C256 C250 1.265 . S
C256 H251 0.950 . S
C256 C257 1.478 . S
C257 C244 1.394 . S
C257 C256 1.478 . S
C257 C258 1.397 . S
C258 C257 1.397 . S
C258 C259 1.438 . S
C258 C263 1.429 . S
C259 C242 1.394 . S
C259 C258 1.438 . S
C259 C260 1.428 . S
C260 H252 0.949 . S
C260 C259 1.428 . S
C260 C261 1.345 . S
C261 H253 0.950 . S
C261 C260 1.345 . S
C261 C262 1.424 . S
C262 H254 0.951 . S
C262 C261 1.424 . S
C262 C263 1.347 . S
C263 H255 0.951 . S
C263 C258 1.429 . S
C263 C262 1.347 . S
H264 C265 0.951 . S
C265 H264 0.951 . S
C265 C271 1.265 . S
H266 C271 0.950 1_545 S
H267 C275 0.949 . S
H268 C276 0.950 . S
H269 C277 0.951 . S
H270 C278 0.951 . S
C271 C265 1.265 . S
C271 H266 0.950 1_565 S
C271 C272 1.478 . S
C272 C271 1.478 . S
C272 C273 1.397 1_565 S
C272 C289 1.394 . S
C273 C272 1.397 1_545 S
C273 C274 1.438 . S
C273 C278 1.429 . S
C274 C273 1.438 . S
C274 C275 1.428 . S
C274 C287 1.394 1_545 S
C275 H267 0.949 . S
C275 C274 1.428 . S
C275 C276 1.345 . S
C276 H268 0.950 . S
C276 C275 1.345 . S
C276 C277 1.424 . S
C277 H269 0.951 . S
C277 C276 1.424 . S
C277 C278 1.347 . S
C278 H270 0.951 . S
C278 C273 1.429 . S
C278 C277 1.347 . S
H279 C280 0.951 . S
C280 H279 0.951 . S
C280 C286 1.264 1_545 S
H281 C286 0.950 . S
H282 C290 0.949 . S
H283 C291 0.950 . S
H284 C292 0.951 . S
H285 C293 0.951 . S
C286 C280 1.264 1_565 S
C286 H281 0.950 . S
C286 C287 1.478 . S
C287 C274 1.394 1_565 S
C287 C286 1.478 . S
C287 C288 1.397 . S
C288 C287 1.397 . S
C288 C289 1.438 . S
C288 C293 1.429 . S
C289 C272 1.394 . S
C289 C288 1.438 . S
C289 C290 1.428 . S
C290 H282 0.949 . S
C290 C289 1.428 . S
C290 C291 1.345 . S
C291 H283 0.950 . S
C291 C290 1.345 . S
C291 C292 1.424 . S
C292 H284 0.951 . S
C292 C291 1.424 . S
C292 C293 1.347 . S
C293 H285 0.951 . S
C293 C288 1.429 . S
C293 C292 1.347 . S
H294 C295 0.951 . S
C295 H294 0.951 . S
C295 C301 1.265 . S
H296 C301 0.950 . S
H297 C305 0.949 . S
H298 C306 0.950 . S
H299 C307 0.951 . S
H300 C308 0.951 . S
C301 C295 1.265 . S
C301 H296 0.950 . S
C301 C302 1.478 1_554 S
C302 C301 1.478 1_556 S
C302 C303 1.397 . S
C302 C319 1.394 . S
C303 C302 1.397 . S
C303 C304 1.438 . S
C303 C308 1.429 . S
C304 C303 1.438 . S
C304 C305 1.428 . S
C304 C317 1.394 . S
C305 H297 0.949 . S
C305 C304 1.428 . S
C305 C306 1.345 . S
C306 H298 0.950 . S
C306 C305 1.345 . S
C306 C307 1.424 . S
C307 H299 0.951 . S
C307 C306 1.424 . S
C307 C308 1.347 . S
C308 H300 0.951 . S
C308 C303 1.429 . S
C308 C307 1.347 . S
H309 C310 0.951 . S
C310 H309 0.951 . S
C310 C316 1.265 . S
H311 C316 0.950 . S
H312 C320 0.949 . S
H313 C321 0.950 . S
H314 C322 0.951 . S
H315 C323 0.951 . S
C316 C310 1.265 . S
C316 H311 0.950 . S
C316 C317 1.478 . S
C317 C304 1.394 . S
C317 C316 1.478 . S
C317 C318 1.397 . S
C318 C317 1.397 . S
C318 C319 1.438 . S
C318 C323 1.429 . S
C319 C302 1.394 . S
C319 C318 1.438 . S
C319 C320 1.428 1_556 S
C320 H312 0.949 . S
C320 C319 1.428 1_554 S
C320 C321 1.345 . S
C321 H313 0.950 . S
C321 C320 1.345 . S
C321 C322 1.424 . S
C322 H314 0.951 . S
C322 C321 1.424 . S
C322 C323 1.347 1_554 S
C323 H315 0.951 . S
C323 C318 1.429 . S
C323 C322 1.347 1_556 S
H324 C325 0.951 . S
C325 H324 0.951 . S
C325 C331 1.265 1_455 S
H326 C331 0.950 . S
H327 C335 0.949 . S
H328 C336 0.950 . S
H329 C337 0.951 . S
H330 C338 0.951 . S
C331 C325 1.265 1_655 S
C331 H326 0.950 . S
C331 C332 1.478 . S
C332 C331 1.478 . S
C332 C333 1.397 1_655 S
C332 C349 1.394 . S
C333 C332 1.397 1_455 S
C333 C334 1.438 . S
C333 C338 1.429 . S
C334 C333 1.438 . S
C334 C335 1.428 . S
C334 C347 1.394 . S
C335 H327 0.949 . S
C335 C334 1.428 . S
C335 C336 1.345 . S
C336 H328 0.950 . S
C336 C335 1.345 . S
C336 C337 1.424 . S
C337 H329 0.951 . S
C337 C336 1.424 . S
C337 C338 1.347 . S
C338 H330 0.951 . S
C338 C333 1.429 . S
C338 C337 1.347 . S
H339 C340 0.951 . S
C340 H339 0.951 . S
C340 C346 1.265 1_655 S
H341 C346 0.950 . S
H342 C350 0.949 . S
H343 C351 0.950 . S
H344 C352 0.951 . S
H345 C353 0.951 . S
C346 C340 1.265 1_455 S
C346 H341 0.950 . S
C346 C347 1.478 . S
C347 C334 1.394 . S
C347 C346 1.478 . S
C347 C348 1.397 1_455 S
C348 C347 1.397 1_655 S
C348 C349 1.438 . S
C348 C353 1.429 . S
C349 C332 1.394 . S
C349 C348 1.438 . S
C349 C350 1.428 . S
C350 H342 0.949 . S
C350 C349 1.428 . S
C350 C351 1.345 . S
C351 H343 0.950 . S
C351 C350 1.345 . S
C351 C352 1.424 . S
C352 H344 0.951 . S
C352 C351 1.424 . S
C352 C353 1.347 . S
C353 H345 0.951 . S
C353 C348 1.429 . S
C353 C352 1.347 . S
H354 C355 0.951 . S
C355 H354 0.951 . S
C355 C361 1.265 1_545 S
H356 C361 0.950 . S
H357 C365 0.949 . S
H358 C366 0.950 . S
H359 C367 0.951 . S
H360 C368 0.951 . S
C361 C355 1.265 1_565 S
C361 H356 0.950 . S
C361 C362 1.478 . S
C362 C361 1.478 . S
C362 C363 1.397 . S
C362 C379 1.394 1_565 S
C363 C362 1.397 . S
C363 C364 1.438 . S
C363 C368 1.429 . S
C364 C363 1.438 . S
C364 C365 1.428 . S
C364 C377 1.394 1_565 S
C365 H357 0.949 . S
C365 C364 1.428 . S
C365 C366 1.345 . S
C366 H358 0.950 . S
C366 C365 1.345 . S
C366 C367 1.424 . S
C367 H359 0.951 . S
C367 C366 1.424 . S
C367 C368 1.347 . S
C368 H360 0.951 . S
C368 C363 1.429 . S
C368 C367 1.347 . S
H369 C370 0.951 . S
C370 H369 0.951 . S
C370 C376 1.265 1_565 S
H371 C376 0.950 . S
H372 C380 0.949 . S
H373 C381 0.950 . S
H374 C382 0.951 . S
H375 C383 0.951 . S
C376 C370 1.265 1_545 S
C376 H371 0.950 . S
C376 C377 1.478 . S
C377 C364 1.394 1_545 S
C377 C376 1.478 . S
C377 C378 1.397 . S
C378 C377 1.397 . S
C378 C379 1.438 . S
C378 C383 1.429 . S
C379 C362 1.394 1_545 S
C379 C378 1.438 . S
C379 C380 1.428 . S
C380 H372 0.949 . S
C380 C379 1.428 . S
C380 C381 1.345 . S
C381 H373 0.950 . S
C381 C380 1.345 . S
C381 C382 1.424 . S
C382 H374 0.951 . S
C382 C381 1.424 . S
C382 C383 1.347 . S
C383 H375 0.951 . S
C383 C378 1.429 . S
C383 C382 1.347 . S
H384 C385 0.951 . S
C385 H384 0.951 . S
C385 C391 1.265 1_554 S
H386 C391 0.950 . S
H387 C395 0.949 . S
H388 C396 0.950 . S
H389 C397 0.951 . S
H390 C398 0.951 . S
C391 C385 1.265 1_556 S
C391 H386 0.950 . S
C391 C392 1.478 . S
C392 C391 1.478 . S
C392 C393 1.397 . S
C392 C409 1.394 . S
C393 C392 1.397 . S
C393 C394 1.438 . S
C393 C398 1.429 . S
C394 C393 1.438 . S
C394 C395 1.428 . S
C394 C407 1.394 . S
C395 H387 0.949 . S
C395 C394 1.428 . S
C395 C396 1.345 . S
C396 H388 0.950 . S
C396 C395 1.345 . S
C396 C397 1.424 . S
C397 H389 0.951 . S
C397 C396 1.424 . S
C397 C398 1.347 . S
C398 H390 0.951 . S
C398 C393 1.429 . S
C398 C397 1.347 . S
H399 C400 0.951 . S
C400 H399 0.951 . S
C400 C406 1.265 . S
H401 C406 0.950 . S
H402 C410 0.949 . S
H403 C411 0.950 . S
H404 C412 0.942 1_554 S
H405 C413 0.951 . S
C406 C400 1.265 . S
C406 H401 0.950 . S
C406 C407 1.478 . S
C407 C394 1.394 . S
C407 C406 1.478 . S
C407 C408 1.397 . S
C408 C407 1.397 . S
C408 C409 1.438 . S
C408 C413 1.429 . S
C409 C392 1.394 . S
C409 C408 1.438 . S
C409 C410 1.428 1_556 S
C410 H402 0.949 . S
C410 C409 1.428 1_554 S
C410 C411 1.345 . S
C411 H403 0.950 . S
C411 C410 1.345 . S
C411 C412 1.406 1_554 S
C412 H404 0.942 1_556 S
C412 C411 1.406 1_556 S
C412 C413 1.376 . S
C413 H405 0.951 . S
C413 C408 1.429 . S
C413 C412 1.376 . S
H414 C415 0.951 . S
C415 H414 0.951 . S
C415 C421 1.265 1_455 S
H416 C421 0.950 . S
H417 C425 0.949 . S
H418 C426 0.950 . S
H419 C427 0.951 . S
H420 C428 0.951 . S
C421 C415 1.265 1_655 S
C421 H416 0.950 . S
C421 C422 1.478 . S
C422 C421 1.478 . S
C422 C423 1.397 . S
C422 C439 1.394 . S
C423 C422 1.397 . S
C423 C424 1.437 . S
C423 C428 1.429 . S
C424 C423 1.437 . S
C424 C425 1.431 1_655 S
C424 C437 1.392 1_655 S
C425 H417 0.949 . S
C425 C424 1.431 1_455 S
C425 C426 1.345 1_455 S
C426 H418 0.950 . S
C426 C425 1.345 1_655 S
C426 C427 1.424 . S
C427 H419 0.951 . S
C427 C426 1.424 . S
C427 C428 1.347 . S
C428 H420 0.951 . S
C428 C423 1.429 . S
C428 C427 1.347 . S
H429 C430 0.951 . S
C430 H429 0.951 . S
C430 C436 1.265 1_655 S
H431 C436 0.950 . S
H432 C440 0.949 . S
H433 C441 0.950 . S
H434 C442 0.951 . S
H435 C443 0.951 . S
C436 C430 1.265 1_455 S
C436 H431 0.950 . S
C436 C437 1.478 . S
C437 C424 1.392 1_455 S
C437 C436 1.478 . S
C437 C438 1.397 . S
C438 C437 1.397 . S
C438 C439 1.438 1_455 S
C438 C443 1.429 . S
C439 C422 1.394 . S
C439 C438 1.438 1_655 S
C439 C440 1.428 . S
C440 H432 0.949 . S
C440 C439 1.428 . S
C440 C441 1.345 1_655 S
C441 H433 0.950 . S
C441 C440 1.345 1_455 S
C441 C442 1.424 . S
C442 H434 0.951 . S
C442 C441 1.424 . S
C442 C443 1.347 . S
C443 H435 0.951 . S
C443 C438 1.429 . S
C443 C442 1.347 . S
C100 C43 1.458 . S
C85 C6 1.464 1_455 S
C115 C22 1.513 . S
C130 C69 1.552 . S
C145 C34 1.222 . S
C160 C71 1.272 . S
C175 C7 1.441 . S
C190 C55 1.454 1_655 S
C220 C57 1.554 1_565 S
C205 C23 1.517 . S
C235 C35 1.243 . S
C250 C83 1.259 . S
C280 C56 1.537 1_545 S
C265 C36 1.536 . S
C295 C9 1.693 . S
C310 C82 1.753 . S
C340 C42 1.460 1_655 S
C325 C21 1.449 1_455 S
C370 C68 1.543 1_565 S
C355 C37 1.514 . S
C400 C70 1.754 . S
C385 C8 1.699 . S
C415 C20 1.421 . S
C430 C54 1.450 . S
