# Generated by pormake.
# Topology gar, (4,6)-cn, num edge types: 1
# Building blocks:
#     Node 0, Type 0, BuildingBlock: QUQFOY_clean_sbu_1, # of connection points: 4
#     Node 1, Type 0, BuildingBlock: QUQFOY_clean_sbu_1, # of connection points: 4
#     Node 2, Type 0, BuildingBlock: QUQFOY_clean_sbu_1, # of connection points: 4
#     Node 3, Type 0, BuildingBlock: QUQFOY_clean_sbu_1, # of connection points: 4
#     Node 4, Type 0, BuildingBlock: QUQFOY_clean_sbu_1, # of connection points: 4
#     Node 5, Type 0, BuildingBlock: QUQFOY_clean_sbu_1, # of connection points: 4
#     Node 6, Type 0, BuildingBlock: QUQFOY_clean_sbu_1, # of connection points: 4
#     Node 7, Type 0, BuildingBlock: QUQFOY_clean_sbu_1, # of connection points: 4
#     Node 8, Type 0, BuildingBlock: QUQFOY_clean_sbu_1, # of connection points: 4
#     Node 9, Type 0, BuildingBlock: QUQFOY_clean_sbu_1, # of connection points: 4
#     Node 10, Type 0, BuildingBlock: QUQFOY_clean_sbu_1, # of connection points: 4
#     Node 11, Type 0, BuildingBlock: QUQFOY_clean_sbu_1, # of connection points: 4
#     Node 12, Type 0, BuildingBlock: QUQFOY_clean_sbu_1, # of connection points: 4
#     Node 13, Type 0, BuildingBlock: QUQFOY_clean_sbu_1, # of connection points: 4
#     Node 14, Type 0, BuildingBlock: QUQFOY_clean_sbu_1, # of connection points: 4
#     Node 15, Type 0, BuildingBlock: QUQFOY_clean_sbu_1, # of connection points: 4
#     Node 16, Type 0, BuildingBlock: QUQFOY_clean_sbu_1, # of connection points: 4
#     Node 17, Type 0, BuildingBlock: QUQFOY_clean_sbu_1, # of connection points: 4
#     Node 18, Type 0, BuildingBlock: QUQFOY_clean_sbu_1, # of connection points: 4
#     Node 19, Type 0, BuildingBlock: QUQFOY_clean_sbu_1, # of connection points: 4
#     Node 20, Type 0, BuildingBlock: QUQFOY_clean_sbu_1, # of connection points: 4
#     Node 21, Type 0, BuildingBlock: QUQFOY_clean_sbu_1, # of connection points: 4
#     Node 22, Type 0, BuildingBlock: QUQFOY_clean_sbu_1, # of connection points: 4
#     Node 23, Type 0, BuildingBlock: QUQFOY_clean_sbu_1, # of connection points: 4
#     Node 24, Type 1, BuildingBlock: INOVEN_clean_sbu_0, # of connection points: 6
#     Node 25, Type 1, BuildingBlock: INOVEN_clean_sbu_0, # of connection points: 6
#     Node 26, Type 1, BuildingBlock: INOVEN_clean_sbu_0, # of connection points: 6
#     Node 27, Type 1, BuildingBlock: INOVEN_clean_sbu_0, # of connection points: 6
#     Node 28, Type 1, BuildingBlock: INOVEN_clean_sbu_0, # of connection points: 6
#     Node 29, Type 1, BuildingBlock: INOVEN_clean_sbu_0, # of connection points: 6
#     Node 30, Type 1, BuildingBlock: INOVEN_clean_sbu_0, # of connection points: 6
#     Node 31, Type 1, BuildingBlock: INOVEN_clean_sbu_0, # of connection points: 6
#     Node 32, Type 1, BuildingBlock: INOVEN_clean_sbu_0, # of connection points: 6
#     Node 33, Type 1, BuildingBlock: INOVEN_clean_sbu_0, # of connection points: 6
#     Node 34, Type 1, BuildingBlock: INOVEN_clean_sbu_0, # of connection points: 6
#     Node 35, Type 1, BuildingBlock: INOVEN_clean_sbu_0, # of connection points: 6
#     Node 36, Type 1, BuildingBlock: INOVEN_clean_sbu_0, # of connection points: 6
#     Node 37, Type 1, BuildingBlock: INOVEN_clean_sbu_0, # of connection points: 6
#     Node 38, Type 1, BuildingBlock: INOVEN_clean_sbu_0, # of connection points: 6
#     Node 39, Type 1, BuildingBlock: INOVEN_clean_sbu_0, # of connection points: 6
#     Edge 40, Type (0, 1), BuildingBlock: ZUJKAS_clean_linker_0, # of connection points: 2
#     Edge 41, Type (0, 1), BuildingBlock: ZUJKAS_clean_linker_0, # of connection points: 2
#     Edge 42, Type (0, 1), BuildingBlock: ZUJKAS_clean_linker_0, # of connection points: 2
#     Edge 43, Type (0, 1), BuildingBlock: ZUJKAS_clean_linker_0, # of connection points: 2
#     Edge 44, Type (0, 1), BuildingBlock: ZUJKAS_clean_linker_0, # of connection points: 2
#     Edge 45, Type (0, 1), BuildingBlock: ZUJKAS_clean_linker_0, # of connection points: 2
#     Edge 46, Type (0, 1), BuildingBlock: ZUJKAS_clean_linker_0, # of connection points: 2
#     Edge 47, Type (0, 1), BuildingBlock: ZUJKAS_clean_linker_0, # of connection points: 2
#     Edge 48, Type (0, 1), BuildingBlock: ZUJKAS_clean_linker_0, # of connection points: 2
#     Edge 49, Type (0, 1), BuildingBlock: ZUJKAS_clean_linker_0, # of connection points: 2
#     Edge 50, Type (0, 1), BuildingBlock: ZUJKAS_clean_linker_0, # of connection points: 2
#     Edge 51, Type (0, 1), BuildingBlock: ZUJKAS_clean_linker_0, # of connection points: 2
#     Edge 52, Type (0, 1), BuildingBlock: ZUJKAS_clean_linker_0, # of connection points: 2
#     Edge 53, Type (0, 1), BuildingBlock: ZUJKAS_clean_linker_0, # of connection points: 2
#     Edge 54, Type (0, 1), BuildingBlock: ZUJKAS_clean_linker_0, # of connection points: 2
#     Edge 55, Type (0, 1), BuildingBlock: ZUJKAS_clean_linker_0, # of connection points: 2
#     Edge 56, Type (0, 1), BuildingBlock: ZUJKAS_clean_linker_0, # of connection points: 2
#     Edge 57, Type (0, 1), BuildingBlock: ZUJKAS_clean_linker_0, # of connection points: 2
#     Edge 58, Type (0, 1), BuildingBlock: ZUJKAS_clean_linker_0, # of connection points: 2
#     Edge 59, Type (0, 1), BuildingBlock: ZUJKAS_clean_linker_0, # of connection points: 2
#     Edge 60, Type (0, 1), BuildingBlock: ZUJKAS_clean_linker_0, # of connection points: 2
#     Edge 61, Type (0, 1), BuildingBlock: ZUJKAS_clean_linker_0, # of connection points: 2
#     Edge 62, Type (0, 1), BuildingBlock: ZUJKAS_clean_linker_0, # of connection points: 2
#     Edge 63, Type (0, 1), BuildingBlock: ZUJKAS_clean_linker_0, # of connection points: 2
#     Edge 64, Type (0, 1), BuildingBlock: ZUJKAS_clean_linker_0, # of connection points: 2
#     Edge 65, Type (0, 1), BuildingBlock: ZUJKAS_clean_linker_0, # of connection points: 2
#     Edge 66, Type (0, 1), BuildingBlock: ZUJKAS_clean_linker_0, # of connection points: 2
#     Edge 67, Type (0, 1), BuildingBlock: ZUJKAS_clean_linker_0, # of connection points: 2
#     Edge 68, Type (0, 1), BuildingBlock: ZUJKAS_clean_linker_0, # of connection points: 2
#     Edge 69, Type (0, 1), BuildingBlock: ZUJKAS_clean_linker_0, # of connection points: 2
#     Edge 70, Type (0, 1), BuildingBlock: ZUJKAS_clean_linker_0, # of connection points: 2
#     Edge 71, Type (0, 1), BuildingBlock: ZUJKAS_clean_linker_0, # of connection points: 2
#     Edge 72, Type (0, 1), BuildingBlock: ZUJKAS_clean_linker_0, # of connection points: 2
#     Edge 73, Type (0, 1), BuildingBlock: ZUJKAS_clean_linker_0, # of connection points: 2
#     Edge 74, Type (0, 1), BuildingBlock: ZUJKAS_clean_linker_0, # of connection points: 2
#     Edge 75, Type (0, 1), BuildingBlock: ZUJKAS_clean_linker_0, # of connection points: 2
#     Edge 76, Type (0, 1), BuildingBlock: ZUJKAS_clean_linker_0, # of connection points: 2
#     Edge 77, Type (0, 1), BuildingBlock: ZUJKAS_clean_linker_0, # of connection points: 2
#     Edge 78, Type (0, 1), BuildingBlock: ZUJKAS_clean_linker_0, # of connection points: 2
#     Edge 79, Type (0, 1), BuildingBlock: ZUJKAS_clean_linker_0, # of connection points: 2
#     Edge 80, Type (0, 1), BuildingBlock: ZUJKAS_clean_linker_0, # of connection points: 2
#     Edge 81, Type (0, 1), BuildingBlock: ZUJKAS_clean_linker_0, # of connection points: 2
#     Edge 82, Type (0, 1), BuildingBlock: ZUJKAS_clean_linker_0, # of connection points: 2
#     Edge 83, Type (0, 1), BuildingBlock: ZUJKAS_clean_linker_0, # of connection points: 2
#     Edge 84, Type (0, 1), BuildingBlock: ZUJKAS_clean_linker_0, # of connection points: 2
#     Edge 85, Type (0, 1), BuildingBlock: ZUJKAS_clean_linker_0, # of connection points: 2
#     Edge 86, Type (0, 1), BuildingBlock: ZUJKAS_clean_linker_0, # of connection points: 2
#     Edge 87, Type (0, 1), BuildingBlock: ZUJKAS_clean_linker_0, # of connection points: 2
#     Edge 88, Type (0, 1), BuildingBlock: ZUJKAS_clean_linker_0, # of connection points: 2
#     Edge 89, Type (0, 1), BuildingBlock: ZUJKAS_clean_linker_0, # of connection points: 2
#     Edge 90, Type (0, 1), BuildingBlock: ZUJKAS_clean_linker_0, # of connection points: 2
#     Edge 91, Type (0, 1), BuildingBlock: ZUJKAS_clean_linker_0, # of connection points: 2
#     Edge 92, Type (0, 1), BuildingBlock: ZUJKAS_clean_linker_0, # of connection points: 2
#     Edge 93, Type (0, 1), BuildingBlock: ZUJKAS_clean_linker_0, # of connection points: 2
#     Edge 94, Type (0, 1), BuildingBlock: ZUJKAS_clean_linker_0, # of connection points: 2
#     Edge 95, Type (0, 1), BuildingBlock: ZUJKAS_clean_linker_0, # of connection points: 2
#     Edge 96, Type (0, 1), BuildingBlock: ZUJKAS_clean_linker_0, # of connection points: 2
#     Edge 97, Type (0, 1), BuildingBlock: ZUJKAS_clean_linker_0, # of connection points: 2
#     Edge 98, Type (0, 1), BuildingBlock: ZUJKAS_clean_linker_0, # of connection points: 2
#     Edge 99, Type (0, 1), BuildingBlock: ZUJKAS_clean_linker_0, # of connection points: 2
#     Edge 100, Type (0, 1), BuildingBlock: ZUJKAS_clean_linker_0, # of connection points: 2
#     Edge 101, Type (0, 1), BuildingBlock: ZUJKAS_clean_linker_0, # of connection points: 2
#     Edge 102, Type (0, 1), BuildingBlock: ZUJKAS_clean_linker_0, # of connection points: 2
#     Edge 103, Type (0, 1), BuildingBlock: ZUJKAS_clean_linker_0, # of connection points: 2
#     Edge 104, Type (0, 1), BuildingBlock: ZUJKAS_clean_linker_0, # of connection points: 2
#     Edge 105, Type (0, 1), BuildingBlock: ZUJKAS_clean_linker_0, # of connection points: 2
#     Edge 106, Type (0, 1), BuildingBlock: ZUJKAS_clean_linker_0, # of connection points: 2
#     Edge 107, Type (0, 1), BuildingBlock: ZUJKAS_clean_linker_0, # of connection points: 2
#     Edge 108, Type (0, 1), BuildingBlock: ZUJKAS_clean_linker_0, # of connection points: 2
#     Edge 109, Type (0, 1), BuildingBlock: ZUJKAS_clean_linker_0, # of connection points: 2
#     Edge 110, Type (0, 1), BuildingBlock: ZUJKAS_clean_linker_0, # of connection points: 2
#     Edge 111, Type (0, 1), BuildingBlock: ZUJKAS_clean_linker_0, # of connection points: 2
#     Edge 112, Type (0, 1), BuildingBlock: ZUJKAS_clean_linker_0, # of connection points: 2
#     Edge 113, Type (0, 1), BuildingBlock: ZUJKAS_clean_linker_0, # of connection points: 2
#     Edge 114, Type (0, 1), BuildingBlock: ZUJKAS_clean_linker_0, # of connection points: 2
#     Edge 115, Type (0, 1), BuildingBlock: ZUJKAS_clean_linker_0, # of connection points: 2
#     Edge 116, Type (0, 1), BuildingBlock: ZUJKAS_clean_linker_0, # of connection points: 2
#     Edge 117, Type (0, 1), BuildingBlock: ZUJKAS_clean_linker_0, # of connection points: 2
#     Edge 118, Type (0, 1), BuildingBlock: ZUJKAS_clean_linker_0, # of connection points: 2
#     Edge 119, Type (0, 1), BuildingBlock: ZUJKAS_clean_linker_0, # of connection points: 2
#     Edge 120, Type (0, 1), BuildingBlock: ZUJKAS_clean_linker_0, # of connection points: 2
#     Edge 121, Type (0, 1), BuildingBlock: ZUJKAS_clean_linker_0, # of connection points: 2
#     Edge 122, Type (0, 1), BuildingBlock: ZUJKAS_clean_linker_0, # of connection points: 2
#     Edge 123, Type (0, 1), BuildingBlock: ZUJKAS_clean_linker_0, # of connection points: 2
#     Edge 124, Type (0, 1), BuildingBlock: ZUJKAS_clean_linker_0, # of connection points: 2
#     Edge 125, Type (0, 1), BuildingBlock: ZUJKAS_clean_linker_0, # of connection points: 2
#     Edge 126, Type (0, 1), BuildingBlock: ZUJKAS_clean_linker_0, # of connection points: 2
#     Edge 127, Type (0, 1), BuildingBlock: ZUJKAS_clean_linker_0, # of connection points: 2
#     Edge 128, Type (0, 1), BuildingBlock: ZUJKAS_clean_linker_0, # of connection points: 2
#     Edge 129, Type (0, 1), BuildingBlock: ZUJKAS_clean_linker_0, # of connection points: 2
#     Edge 130, Type (0, 1), BuildingBlock: ZUJKAS_clean_linker_0, # of connection points: 2
#     Edge 131, Type (0, 1), BuildingBlock: ZUJKAS_clean_linker_0, # of connection points: 2
#     Edge 132, Type (0, 1), BuildingBlock: ZUJKAS_clean_linker_0, # of connection points: 2
#     Edge 133, Type (0, 1), BuildingBlock: ZUJKAS_clean_linker_0, # of connection points: 2
#     Edge 134, Type (0, 1), BuildingBlock: ZUJKAS_clean_linker_0, # of connection points: 2
#     Edge 135, Type (0, 1), BuildingBlock: ZUJKAS_clean_linker_0, # of connection points: 2
# Relax obj value: 0.167
# Max RMSD: 0.296
# Mean RMSD: 0.178
data_MOF--net-gar--node1-QUQFOY_clean_sbu_1--node2-INOVEN_clean_sbu_0--edge1-ZUJKAS_clean_linker_0
_symmetry_space_group_name_H-M    P1
_symmetry_Int_Tables_number       1
_symmetry_cell_setting            triclinic
loop_
_symmetry_equiv_pos_as_xyz
'x, y, z'
_cell_length_a     79.74318
_cell_length_b     74.179345
_cell_length_c     74.387108
_cell_angle_alpha  98.704296
_cell_angle_beta   95.30458
_cell_angle_gamma 105.08416
loop_
_atom_site_label
_atom_site_type_symbol
_atom_site_fract_x
_atom_site_fract_y
_atom_site_fract_z
_atom_type_partial_charge
O0 O 0.09376 0.29794 0.39287 0.0
Cd1 Cd 0.10115 0.3208 0.37978 0.0
Cd2 Cd 0.09101 0.3338 0.40881 0.0
O3 O 0.09937 0.31439 0.42084 0.0
O4 O 0.10949 0.30853 0.35849 0.0
O5 O 0.12661 0.33289 0.3787 0.0
C6 C 0.12474 0.32019 0.36416 0.0
C7 C 0.09325 0.36379 0.4241 0.0
C8 C 0.0958 0.29855 0.41009 0.0
C9 C 0.06754 0.32602 0.3748 0.0
O10 O 0.06805 0.32324 0.39117 0.0
O11 O 0.08151 0.32981 0.36762 0.0
O12 O 0.08332 0.34894 0.42859 0.0
O13 O 0.1032 0.36152 0.41168 0.0
O14 O 0.99342 0.73045 0.65443 0.0
Cd15 Cd 0.99623 0.75593 0.67041 0.0
Cd16 Cd 1.00279 0.76544 0.64054 0.0
O17 O 0.98637 0.73954 0.62886 0.0
O18 O 0.98024 0.75183 0.68834 0.0
O19 O 0.97881 0.76978 0.66676 0.0
C20 C 0.97257 0.76236 0.68024 0.0
C21 C 0.00677 0.79062 0.62542 0.0
C22 C 0.98798 0.72644 0.63739 0.0
C23 C 0.03193 0.76972 0.67072 0.0
O24 O 0.02665 0.76576 0.65362 0.0
O25 O 0.02102 0.76986 0.68202 0.0
O26 O 0.01136 0.77572 0.61929 0.0
O27 O 0.99826 0.79053 0.63936 0.0
O28 O 0.62271 0.81968 0.88776 0.0
Cd29 Cd 0.6011 0.81928 0.90124 0.0
Cd30 Cd 0.59276 0.8352 0.87365 0.0
O31 O 0.61266 0.82823 0.8627 0.0
O32 O 0.60304 0.80377 0.92041 0.0
O33 O 0.58192 0.7949 0.89654 0.0
C34 C 0.58921 0.79143 0.91134 0.0
C35 C 0.56441 0.82286 0.86034 0.0
C36 C 0.62424 0.82303 0.87166 0.0
C37 C 0.59744 0.85909 0.90845 0.0
O38 O 0.59852 0.85978 0.89171 0.0
O39 O 0.59653 0.84378 0.91448 0.0
O40 O 0.5751 0.83549 0.85356 0.0
O41 O 0.57002 0.81683 0.87449 0.0
O42 O 0.49571 0.21947 0.14681 0.0
Cd43 Cd 0.49754 0.2437 0.16452 0.0
Cd44 Cd 0.50842 0.25873 0.1378 0.0
O45 O 0.49555 0.23288 0.12247 0.0
O46 O 0.48156 0.23682 0.18225 0.0
O47 O 0.47855 0.2561 0.16263 0.0
C48 C 0.47289 0.24735 0.17561 0.0
C49 C 0.51049 0.28565 0.12546 0.0
C50 C 0.4941 0.21815 0.12954 0.0
C51 C 0.53437 0.26092 0.16992 0.0
O52 O 0.53168 0.26042 0.15278 0.0
O53 O 0.52157 0.25697 0.17888 0.0
O54 O 0.51693 0.2725 0.11834 0.0
O55 O 0.50181 0.28308 0.1391 0.0
O56 O 0.06578 0.78044 0.11404 0.0
Cd57 Cd 0.06985 0.80278 0.13529 0.0
Cd58 Cd 0.08803 0.82155 0.1095 0.0
O59 O 0.0801 0.79435 0.09351 0.0
O60 O 0.05324 0.78976 0.15104 0.0
O61 O 0.05036 0.81513 0.14033 0.0
C62 C 0.04425 0.8016 0.14905 0.0
C63 C 0.08214 0.8479 0.09792 0.0
C64 C 0.07112 0.77953 0.0985 0.0
C65 C 0.10941 0.8185 0.1446 0.0
O66 O 0.10942 0.8246 0.12945 0.0
O67 O 0.09505 0.81026 0.14987 0.0
O68 O 0.09454 0.84087 0.0929 0.0
O69 O 0.07306 0.84008 0.10965 0.0
O70 O 0.54936 0.77172 0.40654 0.0
Cd71 Cd 0.53317 0.7685 0.42678 0.0
Cd72 Cd 0.51233 0.78332 0.39436 0.0
O73 O 0.53542 0.78099 0.3837 0.0
O74 O 0.54594 0.75801 0.44581 0.0
O75 O 0.52044 0.74167 0.43 0.0
C76 C 0.53345 0.74243 0.44206 0.0
C77 C 0.48536 0.78217 0.37602 0.0
C78 C 0.54881 0.77676 0.39089 0.0
C79 C 0.52401 0.80617 0.43455 0.0
O80 O 0.51718 0.80332 0.41787 0.0
O81 O 0.5303 0.7939 0.44095 0.0
O82 O 0.49954 0.79561 0.37687 0.0
O83 O 0.48659 0.76855 0.38457 0.0
O84 O 0.57482 0.27727 0.61768 0.0
Cd85 Cd 0.57832 0.30005 0.63844 0.0
Cd86 Cd 0.59613 0.31743 0.61147 0.0
O87 O 0.5867 0.29042 0.59541 0.0
O88 O 0.5617 0.28843 0.6551 0.0
O89 O 0.55729 0.31074 0.64035 0.0
C90 C 0.55159 0.29851 0.6506 0.0
C91 C 0.58991 0.34398 0.60048 0.0
C92 C 0.57867 0.27581 0.60144 0.0
C93 C 0.61802 0.31507 0.64705 0.0
O94 O 0.61767 0.31926 0.63099 0.0
O95 O 0.60372 0.30902 0.65355 0.0
O96 O 0.60245 0.33728 0.59525 0.0
O97 O 0.58107 0.33589 0.61223 0.0
O98 O 0.02319 0.23987 0.91086 0.0
Cd99 Cd 0.02436 0.26085 0.89446 0.0
Cd100 Cd 0.01294 0.27853 0.92578 0.0
O101 O 0.01844 0.25568 0.93662 0.0
O102 O 0.04103 0.2563 0.87642 0.0
O103 O 0.04757 0.28176 0.8982 0.0
C104 C 0.05227 0.27186 0.88476 0.0
C105 C 0.02138 0.30903 0.94375 0.0
C106 C 0.02176 0.2411 0.92792 0.0
C107 C 0.98929 0.27058 0.88869 0.0
O108 O 0.99147 0.27575 0.90606 0.0
O109 O 1.00089 0.2644 0.88093 0.0
O110 O 0.00821 0.29599 0.94663 0.0
O111 O 0.0306 0.30445 0.93134 0.0
O112 O 0.43336 0.04568 0.26886 0.0
Cd113 Cd 0.42408 0.05183 0.29311 0.0
Cd114 Cd 0.45312 0.04809 0.30071 0.0
O115 O 0.46118 0.05904 0.27876 0.0
O116 O 0.40132 0.05391 0.28293 0.0
O117 O 0.42186 0.07787 0.3004 0.0
C118 C 0.40682 0.07163 0.29016 0.0
C119 C 0.46745 0.05232 0.32902 0.0
C120 C 0.44897 0.05143 0.26554 0.0
C121 C 0.42281 0.01666 0.29992 0.0
O122 O 0.43741 0.02107 0.294 0.0
O123 O 0.41626 0.02971 0.30619 0.0
O124 O 0.47305 0.04448 0.31498 0.0
O125 O 0.45499 0.0603 0.32654 0.0
O126 O 0.30521 0.19726 0.53144 0.0
Cd127 Cd 0.30169 0.17421 0.5107 0.0
Cd128 Cd 0.28695 0.20155 0.49287 0.0
O129 O 0.29536 0.21852 0.51897 0.0
O130 O 0.31453 0.15908 0.52432 0.0
O131 O 0.32309 0.16945 0.49958 0.0
C132 C 0.32595 0.1611 0.5131 0.0
C133 C 0.29133 0.21363 0.46507 0.0
C134 C 0.30203 0.21331 0.5329 0.0
C135 C 0.26235 0.16322 0.4978 0.0
O136 O 0.26471 0.17942 0.49307 0.0
O137 O 0.27536 0.15762 0.50372 0.0
O138 O 0.27925 0.2166 0.47453 0.0
O139 O 0.30129 0.20416 0.47142 0.0
O140 O 0.15841 1.00607 0.73658 0.0
Cd141 Cd 0.18116 1.00673 0.75531 0.0
Cd142 Cd 0.153 0.02837 0.78109 0.0
O143 O 0.14049 0.01958 0.7523 0.0
O144 O 0.19737 0.99079 0.74253 0.0
O145 O 0.18518 0.98241 0.76584 0.0
C146 C 0.19503 0.97881 0.75367 0.0
C147 C 0.13772 0.02801 0.8099 0.0
C148 C 0.14464 0.01223 0.73692 0.0
C149 C 0.19108 0.0519 0.77332 0.0
O150 O 0.177 0.05007 0.78102 0.0
O151 O 0.19468 0.03723 0.76435 0.0
O152 O 0.13804 0.04048 0.79944 0.0
O153 O 0.14546 0.01537 0.80412 0.0
O154 O 0.30151 0.92443 0.02487 0.0
Cd155 Cd 0.29746 0.93647 1.00253 0.0
Cd156 Cd 0.30054 0.90466 0.99068 0.0
O157 O 0.28994 0.89454 0.01213 0.0
O158 O 0.29121 0.95881 0.01457 0.0
O159 O 0.27304 0.93607 0.99343 0.0
C160 C 0.27577 0.9514 0.00548 0.0
C161 C 0.29757 0.889 0.96132 0.0
C162 C 0.29627 0.90713 0.02637 0.0
C163 C 0.33091 0.93819 0.99551 0.0
O164 O 0.3256 0.92138 0.99832 0.0
O165 O 0.31993 0.94724 0.99196 0.0
O166 O 0.30509 0.88354 0.97475 0.0
O167 O 0.28975 0.90211 0.96485 0.0
O168 O 0.30407 0.39146 0.06331 0.0
Cd169 Cd 0.30733 0.40966 0.04406 0.0
Cd170 Cd 0.31712 0.37843 0.02477 0.0
O171 O 0.31015 0.36659 0.04785 0.0
O172 O 0.29406 0.42875 0.05215 0.0
O173 O 0.28548 0.40815 0.02626 0.0
C174 C 0.28259 0.42159 0.03771 0.0
C175 C 0.30744 0.36233 0.99429 0.0
C176 C 0.3056 0.37465 0.06225 0.0
C177 C 0.34495 0.41661 0.03363 0.0
O178 O 0.34095 0.39887 0.02738 0.0
O179 O 0.33355 0.42399 0.04048 0.0
O180 O 0.31843 0.35736 0.00497 0.0
O181 O 0.301 0.37569 1.00123 0.0
O182 O 0.79356 0.15363 0.05409 0.0
Cd183 Cd 0.79351 0.13736 0.02952 0.0
Cd184 Cd 0.79185 0.16712 0.01933 0.0
O185 O 0.80387 0.18068 0.04492 0.0
O186 O 0.80802 0.12045 0.03279 0.0
O187 O 0.81338 0.14325 0.01573 0.0
C188 C 0.81767 0.12961 0.02222 0.0
C189 C 0.79328 0.17978 0.99346 0.0
C190 C 0.79972 0.17153 0.05768 0.0
C191 C 0.75998 0.13417 0.01364 0.0
O192 O 0.76618 0.15204 0.01727 0.0
O193 O 0.76985 0.12354 0.01544 0.0
O194 O 0.78738 0.18733 0.00735 0.0
O195 O 0.80108 0.16683 0.9953 0.0
O196 O 0.17136 0.54485 0.23211 0.0
Cd197 Cd 0.18342 0.54473 0.25724 0.0
Cd198 Cd 0.15516 0.54786 0.26536 0.0
O199 O 0.14515 0.5337 0.23974 0.0
O200 O 0.20275 0.53383 0.25374 0.0
O201 O 0.17906 0.52084 0.26619 0.0
C202 C 0.19403 0.52029 0.26113 0.0
C203 C 0.14686 0.54358 0.29274 0.0
C204 C 0.15498 0.53788 0.22767 0.0
C205 C 0.1839 0.58124 0.27466 0.0
O206 O 0.16801 0.57562 0.26741 0.0
O207 O 0.19282 0.56948 0.27506 0.0
O208 O 0.13693 0.54864 0.28091 0.0
O209 O 0.16016 0.53816 0.28781 0.0
O210 O 0.80614 0.89303 0.56844 0.0
Cd211 Cd 0.80915 0.90994 0.54795 0.0
Cd212 Cd 0.81954 0.87954 0.53088 0.0
O213 O 0.81318 0.86815 0.55432 0.0
O214 O 0.79497 0.92852 0.55365 0.0
O215 O 0.78742 0.9058 0.52922 0.0
C216 C 0.78391 0.91982 0.53923 0.0
C217 C 0.81072 0.8629 0.50059 0.0
C218 C 0.80818 0.8765 0.56825 0.0
C219 C 0.84657 0.91795 0.53761 0.0
O220 O 0.84309 0.90005 0.53277 0.0
O221 O 0.83482 0.9252 0.54372 0.0
O222 O 0.8224 0.85921 0.51152 0.0
O223 O 0.8028 0.87498 0.50732 0.0
O224 O 0.93589 0.06422 0.22525 0.0
Cd225 Cd 0.91632 0.06478 0.24468 0.0
Cd226 Cd 0.94874 0.04922 0.26504 0.0
O227 O 0.95853 0.0571 0.23992 0.0
O228 O 0.89753 0.07888 0.23583 0.0
O229 O 0.91588 0.09151 0.26052 0.0
C230 C 0.90311 0.09308 0.24937 0.0
C231 C 0.96577 0.05458 0.29589 0.0
C232 C 0.95131 0.06139 0.22546 0.0
C233 C 0.90966 0.02254 0.25607 0.0
O234 O 0.92618 0.02545 0.26061 0.0
O235 O 0.90362 0.03602 0.25111 0.0
O236 O 0.96773 0.04269 0.28221 0.0
O237 O 0.95509 0.06436 0.29205 0.0
O238 O 0.29176 0.65206 0.54645 0.0
Cd239 Cd 0.29236 0.63592 0.52189 0.0
Cd240 Cd 0.28992 0.66553 0.51138 0.0
O241 O 0.30244 0.67888 0.53705 0.0
O242 O 0.30592 0.61806 0.52593 0.0
O243 O 0.31365 0.64114 0.50973 0.0
C244 C 0.31689 0.62707 0.51637 0.0
C245 C 0.29319 0.6774 0.48499 0.0
C246 C 0.29816 0.66992 0.54991 0.0
C247 C 0.25837 0.63265 0.50579 0.0
O248 O 0.26424 0.65058 0.50963 0.0
O249 O 0.26862 0.62233 0.50726 0.0
O250 O 0.28757 0.68614 0.49841 0.0
O251 O 0.29886 0.66301 0.48732 0.0
O252 O 0.43833 0.5679 0.72979 0.0
Cd253 Cd 0.41697 0.56776 0.74724 0.0
Cd254 Cd 0.44968 0.55076 0.76994 0.0
O255 O 0.45924 0.55798 0.74453 0.0
O256 O 0.39861 0.58171 0.73637 0.0
O257 O 0.41479 0.59435 0.76233 0.0
C258 C 0.40294 0.59588 0.74998 0.0
C259 C 0.4667 0.55398 0.80073 0.0
C260 C 0.45315 0.56357 0.73024 0.0
C261 C 0.4102 0.52485 0.75845 0.0
O262 O 0.42649 0.52811 0.76449 0.0
O263 O 0.4043 0.53818 0.75273 0.0
O264 O 0.46797 0.54227 0.78653 0.0
O265 O 0.45677 0.56473 0.79751 0.0
O266 O 0.67244 0.04886 0.72852 0.0
Cd267 Cd 0.68362 0.05105 0.75469 0.0
Cd268 Cd 0.65363 0.05225 0.75979 0.0
O269 O 0.64642 0.03506 0.73504 0.0
O270 O 0.70403 0.041 0.75384 0.0
O271 O 0.67951 0.02766 0.76482 0.0
C272 C 0.69494 0.02751 0.76103 0.0
C273 C 0.64632 0.04749 0.7876 0.0
C274 C 0.65653 0.03976 0.72333 0.0
C275 C 0.67935 0.08729 0.76885 0.0
O276 O 0.66422 0.08019 0.75976 0.0
O277 O 0.68921 0.07677 0.77167 0.0
O278 O 0.63498 0.05021 0.77545 0.0
O279 O 0.66098 0.04533 0.78301 0.0
O280 O 0.80138 0.69631 0.03666 0.0
Cd281 Cd 0.80043 0.67624 0.0141 0.0
Cd282 Cd 0.78698 0.70514 0.99917 0.0
O283 O 0.79652 0.72094 0.02577 0.0
O284 O 0.81224 0.65849 0.02498 0.0
O285 O 0.82409 0.67613 0.00567 0.0
C286 C 0.82538 0.66437 0.01649 0.0
C287 C 0.79133 0.71794 0.97162 0.0
C288 C 0.80018 0.71324 0.03932 0.0
C289 C 0.76176 0.66603 1.00076 0.0
O290 O 0.76417 0.68334 0.99904 0.0
O291 O 0.77477 0.65945 1.00419 0.0
O292 O 0.78025 0.72189 0.98208 0.0
O293 O 0.80041 0.70712 0.97696 0.0
O294 O 0.93082 0.54607 0.77699 0.0
Cd295 Cd 0.92115 0.552 0.80101 0.0
Cd296 Cd 0.95141 0.55167 0.80862 0.0
O297 O 0.95797 0.563 0.78636 0.0
O298 O 0.89822 0.55323 0.79029 0.0
O299 O 0.91811 0.5778 0.80784 0.0
C300 C 0.9034 0.5711 0.79704 0.0
C301 C 0.96588 0.55835 0.83706 0.0
C302 C 0.94601 0.55365 0.77341 0.0
C303 C 0.92319 0.51799 0.80905 0.0
O304 O 0.93748 0.52366 0.80276 0.0
O305 O 0.91523 0.52998 0.81478 0.0
O306 O 0.97215 0.55051 0.82353 0.0
O307 O 0.95256 0.56489 0.83392 0.0
O308 O 0.80643 0.42626 0.53262 0.0
Cd309 Cd 0.80183 0.43727 0.50985 0.0
Cd310 Cd 0.80385 0.40481 0.49906 0.0
O311 O 0.793 0.3965 0.52112 0.0
O312 O 0.79567 0.45968 0.52166 0.0
O313 O 0.77748 0.43658 0.50062 0.0
C314 C 0.78026 0.45197 0.51259 0.0
C315 C 0.79974 0.3874 0.47035 0.0
C316 C 0.80042 0.40933 0.53487 0.0
C317 C 0.8347 0.43751 0.50195 0.0
O318 O 0.82921 0.42096 0.50545 0.0
O319 O 0.82387 0.44673 0.4983 0.0
O320 O 0.80671 0.38203 0.48419 0.0
O321 O 0.79327 0.4017 0.47323 0.0
O322 O 0.66222 0.50421 0.24265 0.0
Cd323 Cd 0.68465 0.50551 0.26207 0.0
Cd324 Cd 0.65514 0.52573 0.28658 0.0
O325 O 0.64286 0.51589 0.25768 0.0
O326 O 0.70155 0.48979 0.25027 0.0
O327 O 0.68823 0.48108 0.2728 0.0
C328 C 0.69863 0.47761 0.26119 0.0
C329 C 0.64034 0.52505 0.31575 0.0
C330 C 0.64786 0.50929 0.2425 0.0
C331 C 0.6927 0.55084 0.27903 0.0
O332 O 0.6782 0.54838 0.28601 0.0
O333 O 0.69738 0.53641 0.27098 0.0
O334 O 0.63835 0.53587 0.30409 0.0
O335 O 0.65013 0.51421 0.31097 0.0
Gd336 Gd 0.03337 0.0372 0.0103 0.0
Gd337 Gd 0.06801 0.05789 0.03146 0.0
C338 C 0.04821 0.08301 0.01124 0.0
C339 C 0.99991 0.02607 1.00086 0.0
C340 C 0.98694 0.03669 1.0021 0.0
C341 C 0.97118 0.03016 0.99014 0.0
C342 C 0.99111 0.05447 0.01371 0.0
C343 C 0.96365 0.05909 1.00141 0.0
C344 C 0.97951 0.0656 0.01339 0.0
C345 C 0.95955 0.04126 0.98983 0.0
C346 C 0.05649 0.03481 0.98503 0.0
C347 C 0.05357 0.01207 0.0293 0.0
C348 C 0.10141 0.06747 0.04152 0.0
C349 C 0.11415 0.05617 0.04091 0.0
C350 C 0.1232 0.05466 0.05745 0.0
C351 C 0.11625 0.04553 0.02439 0.0
C352 C 0.1367 0.03248 0.04104 0.0
C353 C 0.12753 0.03392 0.02445 0.0
C354 C 0.13423 0.04285 0.05755 0.0
C355 C 0.04456 0.05937 0.0569 0.0
O356 O 0.03474 0.0676 0.00759 0.0
O357 O 0.06326 0.08297 0.02023 0.0
O358 O 0.01096 0.03118 0.98949 0.0
O359 O 0.00748 0.0239 0.01644 0.0
O360 O 0.04 0.02584 0.98267 0.0
O361 O 0.06067 0.04321 1.00196 0.0
O362 O 0.0672 0.02724 0.03227 0.0
O363 O 0.03815 0.01249 0.02174 0.0
O364 O 0.08996 0.0632 0.05272 0.0
O365 O 0.09444 0.07032 0.02592 0.0
O366 O 0.0611 0.06819 0.05945 0.0
O367 O 0.04067 0.05136 0.03986 0.0
H368 H 0.96799 0.01661 0.98088 0.0
H369 H 1.00344 0.05986 0.02279 0.0
H370 H 0.98302 0.07937 0.02233 0.0
H371 H 0.94728 0.0358 0.98067 0.0
H372 H 0.1215 0.06242 0.0704 0.0
H373 H 0.10917 0.04609 0.01144 0.0
H374 H 0.12927 0.02636 0.01143 0.0
H375 H 0.14074 0.04179 0.07062 0.0
Gd376 Gd 0.30298 0.794 0.24731 0.0
Gd377 Gd 0.28832 0.80475 0.27867 0.0
C378 C 0.30817 0.83726 0.26152 0.0
C379 C 0.31814 0.79329 0.2183 0.0
C380 C 0.32144 0.80656 0.20563 0.0
C381 C 0.33717 0.80986 0.1981 0.0
C382 C 0.30946 0.81686 0.20188 0.0
C383 C 0.32808 0.8321 0.18153 0.0
C384 C 0.31272 0.82949 0.18978 0.0
C385 C 0.34051 0.82264 0.18608 0.0
C386 C 0.3219 0.79087 0.27858 0.0
C387 C 0.27955 0.76088 0.25949 0.0
C388 C 0.27667 0.80645 0.30994 0.0
C389 C 0.27053 0.79204 0.32107 0.0
C390 C 0.25676 0.79313 0.33124 0.0
C391 C 0.27784 0.77673 0.32107 0.0
C392 C 0.25852 0.76456 0.34233 0.0
C393 C 0.27185 0.76305 0.33167 0.0
C394 C 0.25087 0.7795 0.34198 0.0
C395 C 0.26827 0.80774 0.2484 0.0
O396 O 0.30429 0.82405 0.24687 0.0
O397 O 0.30534 0.83326 0.27771 0.0
O398 O 0.32669 0.80002 0.23476 0.0
O399 O 0.30175 0.78404 0.21823 0.0
O400 O 0.31697 0.77796 0.26393 0.0
O401 O 0.31589 0.80474 0.27643 0.0
O402 O 0.282 0.77304 0.27495 0.0
O403 O 0.28493 0.76587 0.24453 0.0
O404 O 0.26675 0.80434 0.29442 0.0
O405 O 0.29337 0.81079 0.30837 0.0
O406 O 0.27253 0.81999 0.2636 0.0
O407 O 0.27516 0.7942 0.24958 0.0
H408 H 0.34671 0.80234 0.2013 0.0
H409 H 0.29747 0.8149 0.20804 0.0
H410 H 0.30307 0.83685 0.18646 0.0
H411 H 0.35238 0.82449 0.17972 0.0
H412 H 0.25077 0.80464 0.33106 0.0
H413 H 0.28832 0.77549 0.3131 0.0
H414 H 0.27801 0.75167 0.33205 0.0
H415 H 0.2406 0.78079 0.35025 0.0
Gd416 Gd 0.57413 0.04162 0.52755 0.0
Gd417 Gd 0.53373 0.0369 0.52989 0.0
C418 C 0.54544 0.99944 0.5193 0.0
C419 C 0.60562 0.03767 0.5293 0.0
C420 C 0.61514 0.02276 0.52713 0.0
C421 C 0.62005 0.01659 0.51004 0.0
C422 C 0.62101 0.01599 0.54251 0.0
C423 C 0.63745 0.99839 0.52408 0.0
C424 C 0.63197 1.00397 0.541 0.0
C425 C 0.63098 1.0045 0.50852 0.0
C426 C 0.55425 0.04416 0.49794 0.0
C427 C 0.56274 0.07927 0.53896 0.0
C428 C 0.50246 0.04113 0.52575 0.0
C429 C 0.49328 0.05616 0.52921 0.0
C430 C 0.48163 0.05536 0.54235 0.0
C431 C 0.49478 0.07041 0.51844 0.0
C432 C 0.47202 0.08156 0.53271 0.0
C433 C 0.48433 0.08294 0.52021 0.0
C434 C 0.47117 0.06791 0.54412 0.0
C435 C 0.55296 0.03398 0.5597 0.0
O436 O 0.56177 0.00995 0.52535 0.0
O437 O 0.53215 1.00695 0.51735 0.0
O438 O 0.59709 0.04035 0.51448 0.0
O439 O 0.59744 0.03944 0.54371 0.0
O440 O 0.57047 0.05426 0.50224 0.0
O441 O 0.54993 0.03271 0.50848 0.0
O442 O 0.54624 0.06865 0.53443 0.0
O443 O 0.5763 0.07203 0.5391 0.0
O444 O 0.50879 0.03537 0.54005 0.0
O445 O 0.51264 0.04211 0.51283 0.0
O446 O 0.53635 0.02511 0.55581 0.0
O447 O 0.55784 0.04529 0.54909 0.0
H448 H 0.61594 0.02163 0.4979 0.0
H449 H 0.61757 0.02044 0.5559 0.0
H450 H 0.63644 0.99932 0.55323 0.0
H451 H 0.635 1.00064 0.4953 0.0
H452 H 0.48013 0.04454 0.55083 0.0
H453 H 0.50368 0.07157 0.50825 0.0
H454 H 0.48567 0.09351 0.51146 0.0
H455 H 0.46182 0.06629 0.55384 0.0
Gd456 Gd 0.28272 0.29051 0.7622 0.0
Gd457 Gd 0.32038 0.28204 0.76523 0.0
C458 C 0.30685 0.29791 0.80229 0.0
C459 C 0.24977 0.28496 0.76607 0.0
C460 C 0.23806 0.28847 0.78003 0.0
C461 C 0.23277 0.30526 0.78279 0.0
C462 C 0.23072 0.27402 0.78961 0.0
C463 C 0.21256 0.29263 0.80379 0.0
C464 C 0.21822 0.27605 0.80126 0.0
C465 C 0.22026 0.30734 0.79455 0.0
C466 C 0.30883 0.3242 0.76304 0.0
C467 C 0.2971 0.27531 0.72494 0.0
C468 C 0.35304 0.28546 0.76163 0.0
C469 C 0.36373 0.28012 0.74736 0.0
C470 C 0.3709 0.26475 0.74794 0.0
C471 C 0.36818 0.2914 0.73396 0.0
C472 C 0.38782 0.27306 0.72308 0.0
C473 C 0.38003 0.28792 0.72201 0.0
C474 C 0.38272 0.26121 0.73592 0.0
C475 C 0.29365 0.24884 0.7645 0.0
O476 O 0.29181 0.29719 0.79263 0.0
O477 O 0.32007 0.29332 0.79501 0.0
O478 O 0.25859 0.29919 0.75912 0.0
O479 O 0.25873 0.27289 0.76874 0.0
O480 O 0.29204 0.32228 0.76181 0.0
O481 O 0.31065 0.30754 0.76364 0.0
O482 O 0.3121 0.27668 0.73497 0.0
O483 O 0.28346 0.2792 0.73213 0.0
O484 O 0.34363 0.27199 0.76905 0.0
O485 O 0.34504 0.29833 0.75884 0.0
O486 O 0.31026 0.24997 0.76551 0.0
O487 O 0.29269 0.26565 0.76382 0.0
H488 H 0.23802 0.31667 0.77559 0.0
H489 H 0.23425 0.26078 0.78769 0.0
H490 H 0.21253 0.26419 0.80771 0.0
H491 H 0.21655 0.32046 0.79626 0.0
H492 H 0.36778 0.25577 0.75806 0.0
H493 H 0.36302 0.30342 0.73308 0.0
H494 H 0.38371 0.29753 0.71255 0.0
H495 H 0.38817 0.24942 0.73698 0.0
Gd496 Gd 0.05212 0.0637 0.52758 0.0
Gd497 Gd 0.05657 0.02314 0.51087 0.0
C498 C 0.04061 0.04597 0.48258 0.0
C499 C 0.05711 0.09987 0.53345 0.0
C500 C 0.05655 0.11353 0.52107 0.0
C501 C 0.04245 0.12161 0.52016 0.0
C502 C 0.06968 0.11833 0.50981 0.0
C503 C 0.05498 0.1396 0.49775 0.0
C504 C 0.06892 0.13139 0.49831 0.0
C505 C 0.04163 0.13452 0.50851 0.0
C506 C 0.02225 0.03577 0.52873 0.0
C507 C 0.06795 0.04049 0.55599 0.0
C508 C 0.05179 0.98714 0.50413 0.0
C509 C 0.05134 0.97418 0.51707 0.0
C510 C 0.05762 0.95834 0.51289 0.0
C511 C 0.04663 0.97884 0.53452 0.0
C512 C 0.05387 0.95138 0.54336 0.0
C513 C 0.04791 0.96753 0.5476 0.0
C514 C 0.0588 0.94692 0.52593 0.0
C515 C 0.08594 0.05111 0.50872 0.0
O516 O 0.04303 0.0604 0.4966 0.0
O517 O 0.04443 0.02993 0.48475 0.0
O518 O 0.04204 0.08789 0.53422 0.0
O519 O 0.07004 0.092 0.53319 0.0
O520 O 0.02482 0.05363 0.53538 0.0
O521 O 0.03622 0.034 0.5227 0.0
O522 O 0.06549 0.02621 0.54183 0.0
O523 O 0.06421 0.05666 0.55392 0.0
O524 O 0.06714 0.99926 0.50499 0.0
O525 O 0.03879 0.99488 0.50319 0.0
O526 O 0.08339 0.03326 0.50212 0.0
O527 O 0.0722 0.05282 0.51526 0.0
H528 H 0.03212 0.11807 0.5286 0.0
H529 H 0.08062 0.11222 0.51002 0.0
H530 H 0.07936 0.13536 0.49009 0.0
H531 H 0.03089 0.14095 0.50829 0.0
H532 H 0.06172 0.9549 0.49961 0.0
H533 H 0.04214 0.99133 0.53813 0.0
H534 H 0.04428 0.97145 0.56101 0.0
H535 H 0.06324 0.93442 0.52222 0.0
Gd536 Gd 0.3171 0.80335 0.74941 0.0
Gd537 Gd 0.28427 0.77464 0.75225 0.0
C538 C 0.31875 0.75897 0.75392 0.0
C539 C 0.34843 0.82556 0.75504 0.0
C540 C 0.36512 0.82309 0.76244 0.0
C541 C 0.38024 0.83009 0.75458 0.0
C542 C 0.36594 0.81314 0.77698 0.0
C543 C 0.39711 0.81846 0.77663 0.0
C544 C 0.38187 0.81097 0.78411 0.0
C545 C 0.3962 0.82772 0.76161 0.0
C546 C 0.29787 0.7856 0.71718 0.0
C547 C 0.28241 0.81906 0.74829 0.0
C548 C 0.25284 0.75271 0.74545 0.0
C549 C 0.23608 0.7562 0.73974 0.0
C550 C 0.22213 0.75115 0.74979 0.0
C551 C 0.2341 0.76527 0.72472 0.0
C552 C 0.20419 0.76351 0.72946 0.0
C553 C 0.21823 0.76877 0.71955 0.0
C554 C 0.20627 0.75484 0.74472 0.0
C555 C 0.303 0.79366 0.78456 0.0
O556 O 0.3274 0.77746 0.75578 0.0
O557 O 0.30133 0.75396 0.75103 0.0
O558 O 0.34134 0.81502 0.73906 0.0
O559 O 0.33718 0.82619 0.76673 0.0
O560 O 0.30669 0.80338 0.72037 0.0
O561 O 0.30083 0.77807 0.73071 0.0
O562 O 0.27377 0.80087 0.74812 0.0
O563 O 0.29982 0.82384 0.74935 0.0
O564 O 0.26034 0.76087 0.76214 0.0
O565 O 0.26381 0.75384 0.73334 0.0
O566 O 0.29467 0.77569 0.78173 0.0
O567 O 0.30012 0.8004 0.77051 0.0
H568 H 0.37971 0.83751 0.74316 0.0
H569 H 0.35431 0.8072 0.78295 0.0
H570 H 0.38233 0.80356 0.79555 0.0
H571 H 0.40789 0.83358 0.75569 0.0
H572 H 0.22351 0.74437 0.76155 0.0
H573 H 0.2448 0.76973 0.71698 0.0
H574 H 0.21696 0.77572 0.70788 0.0
H575 H 0.19553 0.75059 0.7525 0.0
Gd576 Gd 0.55272 0.0366 0.04316 0.0
Gd577 Gd 0.5418 0.03953 1.00419 0.0
C578 C 0.5117 0.02246 0.025 0.0
C579 C 0.55468 0.03575 0.07747 0.0
C580 C 0.54146 0.02667 0.08812 0.0
C581 C 0.54404 0.01167 0.0964 0.0
C582 C 0.52579 0.03188 0.08912 0.0
C583 C 0.51629 0.00835 0.10802 0.0
C584 C 0.51327 0.02277 0.09905 0.0
C585 C 0.53151 1.00252 0.10625 0.0
C586 C 0.55527 0.00833 0.01782 0.0
C587 C 0.58269 0.05452 0.02223 0.0
C588 C 0.54072 0.04129 0.97007 0.0
C589 C 0.55439 0.05199 0.96074 0.0
C590 C 0.55178 0.06747 0.95327 0.0
C591 C 0.57074 0.04813 0.96085 0.0
C592 C 0.58133 0.07451 0.94529 0.0
C593 C 0.58404 0.05924 0.95314 0.0
C594 C 0.56516 0.0787 0.94569 0.0
C595 C 0.54073 0.06856 0.02965 0.0
O596 O 0.52313 0.02937 0.04008 0.0
O597 O 0.51654 0.02143 0.00855 0.0
O598 O 0.55984 0.02393 0.06586 0.0
O599 O 0.55214 0.05033 0.07075 0.0
O600 O 0.56674 0.0158 0.03228 0.0
O601 O 0.54265 0.01554 0.01768 0.0
O602 O 0.57119 0.04751 0.00726 0.0
O603 O 0.57825 0.0546 0.03882 0.0
O604 O 0.53396 0.05179 0.98139 0.0
O605 O 0.54391 0.0269 0.97664 0.0
O606 O 0.5286 0.06119 0.01573 0.0
O607 O 0.55268 0.06054 0.02942 0.0
H608 H 0.55586 1.00717 0.09542 0.0
H609 H 0.52328 0.04315 0.08251 0.0
H610 H 0.50171 0.02765 0.10051 0.0
H611 H 0.534 0.99141 0.11312 0.0
H612 H 0.53941 0.07095 0.95341 0.0
H613 H 0.57332 0.03654 0.96686 0.0
H614 H 0.59622 0.05538 0.95276 0.0
H615 H 0.56276 0.09046 0.93984 0.0
Gd616 Gd 0.30249 0.30527 0.26754 0.0
Gd617 Gd 0.2865 0.26687 0.25046 0.0
C618 C 0.26091 0.28899 0.26391 0.0
C619 C 0.31026 0.3412 0.27915 0.0
C620 C 0.29934 0.35419 0.27942 0.0
C621 C 0.29926 0.36603 0.29594 0.0
C622 C 0.288 0.35385 0.26366 0.0
C623 C 0.27756 0.37803 0.28071 0.0
C624 C 0.27728 0.3659 0.26428 0.0
C625 C 0.28831 0.37789 0.29662 0.0
C626 C 0.30346 0.28127 0.29159 0.0
C627 C 0.3283 0.28394 0.25469 0.0
C628 C 0.27986 0.2309 0.23896 0.0
C629 C 0.29182 0.21891 0.23799 0.0
C630 C 0.28984 0.20488 0.22249 0.0
C631 C 0.30605 0.22236 0.25188 0.0
C632 C 0.31565 0.19704 0.23518 0.0
C633 C 0.31783 0.21145 0.25052 0.0
C634 C 0.30169 0.19402 0.22106 0.0
C635 C 0.2862 0.29119 0.22659 0.0
O636 O 0.2739 0.30369 0.26264 0.0
O637 O 0.26289 0.27183 0.26145 0.0
O638 O 0.30654 0.32885 0.28995 0.0
O639 O 0.31302 0.33384 0.26296 0.0
O640 O 0.31648 0.29541 0.29015 0.0
O641 O 0.2905 0.28014 0.27985 0.0
O642 O 0.31536 0.26894 0.2553 0.0
O643 O 0.32601 0.30088 0.2567 0.0
O644 O 0.28203 0.24318 0.22796 0.0
O645 O 0.2777 0.23814 0.25544 0.0
O646 O 0.27281 0.27734 0.22785 0.0
O647 O 0.29895 0.29179 0.2383 0.0
H648 H 0.30766 0.3661 0.30828 0.0
H649 H 0.28745 0.34438 0.25087 0.0
H650 H 0.2689 0.36591 0.25195 0.0
H651 H 0.2886 0.38733 0.30935 0.0
H652 H 0.27916 0.20237 0.21147 0.0
H653 H 0.30803 0.23338 0.26386 0.0
H654 H 0.32829 0.21395 0.26176 0.0
H655 H 0.29985 0.18317 0.20897 0.0
Gd656 Gd 0.55418 0.55708 0.03133 0.0
Gd657 Gd 0.56033 0.52042 0.0153 0.0
C658 C 0.54241 0.54035 0.98646 0.0
C659 C 0.5596 0.5934 0.03666 0.0
C660 C 0.55843 0.60655 0.02377 0.0
C661 C 0.54357 0.61325 0.02162 0.0
C662 C 0.57195 0.61215 0.01318 0.0
C663 C 0.55592 0.63123 0.99885 0.0
C664 C 0.57072 0.62437 1.0009 0.0
C665 C 0.54229 0.6254 0.00923 0.0
C666 C 0.52361 0.52996 0.03116 0.0
C667 C 0.56947 0.53547 0.06088 0.0
C668 C 0.56241 0.48607 0.00903 0.0
C669 C 0.56336 0.47255 0.02117 0.0
C670 C 0.57234 0.45897 0.01677 0.0
C671 C 0.55588 0.47357 0.03751 0.0
C672 C 0.56531 0.44653 0.04433 0.0
C673 C 0.55681 0.4606 0.04901 0.0
C674 C 0.5733 0.44599 0.02828 0.0
C675 C 0.58612 0.55129 0.01213 0.0
O676 O 0.54598 0.55502 1.0003 0.0
O677 O 0.54563 0.52425 0.98914 0.0
O678 O 0.54486 0.58181 0.03901 0.0
O679 O 0.57219 0.58518 0.03545 0.0
O680 O 0.5267 0.54774 0.03838 0.0
O681 O 0.53741 0.52711 0.0255 0.0
O682 O 0.56895 0.52234 0.04629 0.0
O683 O 0.56417 0.55072 0.05886 0.0
O684 O 0.57612 0.50081 0.01149 0.0
O685 O 0.54752 0.49041 0.007 0.0
O686 O 0.57968 0.53655 0.99919 0.0
O687 O 0.57837 0.54887 0.02609 0.0
H688 H 0.5329 0.6091 0.0295 0.0
H689 H 0.58359 0.60724 0.01442 0.0
H690 H 0.58161 0.62881 0.99337 0.0
H691 H 0.53062 0.63023 0.00781 0.0
H692 H 0.57847 0.4583 0.00437 0.0
H693 H 0.5491 0.48419 0.04125 0.0
H694 H 0.55035 0.46116 0.06119 0.0
H695 H 0.58007 0.43536 0.02452 0.0
Gd696 Gd 0.81894 0.30087 0.26023 0.0
Gd697 Gd 0.78587 0.27204 0.26215 0.0
C698 C 0.82022 0.25606 0.26253 0.0
C699 C 0.85046 0.32244 0.268 0.0
C700 C 0.86722 0.31861 0.27298 0.0
C701 C 0.88124 0.32515 0.26345 0.0
C702 C 0.86925 0.30801 0.28678 0.0
C703 C 0.89964 0.312 0.28244 0.0
C704 C 0.88539 0.30479 0.29152 0.0
C705 C 0.89733 0.32182 0.26809 0.0
C706 C 0.80073 0.28426 0.22739 0.0
C707 C 0.78425 0.31653 0.25842 0.0
C708 C 0.75467 0.24928 0.25689 0.0
C709 C 0.73717 0.251 0.25093 0.0
C710 C 0.72731 0.25766 0.26376 0.0
C711 C 0.73038 0.24643 0.23219 0.0
C712 C 0.70441 0.25568 0.23915 0.0
C713 C 0.71416 0.2488 0.22635 0.0
C714 C 0.71108 0.26004 0.2579 0.0
C715 C 0.80457 0.29043 0.29454 0.0
O716 O 0.82903 0.27446 0.26457 0.0
O717 O 0.80281 0.25127 0.26008 0.0
O718 O 0.84298 0.31535 0.25109 0.0
O719 O 0.83948 0.32048 0.28009 0.0
O720 O 0.80981 0.30198 0.23124 0.0
O721 O 0.80273 0.27595 0.24069 0.0
O722 O 0.77547 0.29818 0.2573 0.0
O723 O 0.80172 0.32141 0.2606 0.0
O724 O 0.76245 0.25875 0.27311 0.0
O725 O 0.76527 0.25021 0.24449 0.0
O726 O 0.79688 0.27231 0.29136 0.0
O727 O 0.80152 0.29748 0.2808 0.0
H728 H 0.87977 0.333 0.25252 0.0
H729 H 0.85849 0.30246 0.29411 0.0
H730 H 0.88687 0.29729 0.30272 0.0
H731 H 0.90808 0.32722 0.26069 0.0
H732 H 0.73219 0.26121 0.2783 0.0
H733 H 0.73762 0.2411 0.22199 0.0
H734 H 0.70914 0.24502 0.21183 0.0
H735 H 0.70383 0.26549 0.26801 0.0
Gd736 Gd 0.05366 0.54771 0.54869 0.0
Gd737 Gd 0.0409 0.5501 0.51014 0.0
C738 C 0.01247 0.53135 0.53215 0.0
C739 C 0.05678 0.54494 0.58254 0.0
C740 C 0.04309 0.53903 0.59378 0.0
C741 C 0.04422 0.52536 0.60453 0.0
C742 C 0.02796 0.54535 0.5923 0.0
C743 C 0.01592 0.52561 0.61359 0.0
C744 C 0.01446 0.53868 0.60218 0.0
C745 C 0.03068 0.51866 0.61442 0.0
C746 C 0.05919 0.52216 0.52233 0.0
C747 C 0.08159 0.57067 0.52861 0.0
C748 C 0.03894 0.55079 0.47586 0.0
C749 C 0.05274 0.56 0.46599 0.0
C750 C 0.04912 0.57157 0.45381 0.0
C751 C 0.06995 0.55872 0.46987 0.0
C752 C 0.07926 0.57879 0.44794 0.0
C753 C 0.08318 0.56815 0.46092 0.0
C754 C 0.06231 0.58085 0.44472 0.0
C755 C 0.03511 0.57601 0.53557 0.0
O756 O 0.02422 0.539 0.54684 0.0
O757 O 0.01658 0.53071 0.5154 0.0
O758 O 0.05768 0.53141 0.56951 0.0
O759 O 0.05798 0.56123 0.57718 0.0
O760 O 0.07081 0.53106 0.53633 0.0
O761 O 0.04525 0.52693 0.52295 0.0
O762 O 0.0701 0.56338 0.51363 0.0
O763 O 0.0778 0.56848 0.54507 0.0
O764 O 0.03358 0.56258 0.4873 0.0
O765 O 0.04123 0.53612 0.48258 0.0
O766 O 0.02417 0.56791 0.5208 0.0
O767 O 0.04899 0.57096 0.53579 0.0
H768 H 0.05561 0.51997 0.60533 0.0
H769 H 0.02657 0.55546 0.58357 0.0
H770 H 1.00308 0.54409 0.60131 0.0
H771 H 0.03212 0.50871 0.62332 0.0
H772 H 0.03603 0.57312 0.45109 0.0
H773 H 0.07315 0.55014 0.47951 0.0
H774 H 0.09616 0.56619 0.46328 0.0
H775 H 0.05915 0.5889 0.43454 0.0
Gd776 Gd 0.777 0.79225 0.26643 0.0
Gd777 Gd 0.81441 0.78344 0.26852 0.0
C778 C 0.80022 0.79719 0.30618 0.0
C779 C 0.74419 0.78875 0.26963 0.0
C780 C 0.73301 0.79206 0.28411 0.0
C781 C 0.72348 0.80548 0.28332 0.0
C782 C 0.7305 0.78084 0.29784 0.0
C783 C 0.70804 0.79526 0.30855 0.0
C784 C 0.7182 0.78244 0.30988 0.0
C785 C 0.71121 0.80711 0.29539 0.0
C786 C 0.80373 0.82556 0.26675 0.0
C787 C 0.79096 0.77858 0.22881 0.0
C788 C 0.84734 0.78699 0.26637 0.0
C789 C 0.85895 0.78447 0.2522 0.0
C790 C 0.86434 0.76779 0.24873 0.0
C791 C 0.86597 0.79946 0.24314 0.0
C792 C 0.88456 0.78184 0.22869 0.0
C793 C 0.87857 0.79814 0.23153 0.0
C794 C 0.87695 0.76644 0.237 0.0
C795 C 0.78814 0.75003 0.26812 0.0
O796 O 0.78504 0.79585 0.29656 0.0
O797 O 0.81392 0.79423 0.29856 0.0
O798 O 0.75437 0.80359 0.26475 0.0
O799 O 0.75159 0.77499 0.27017 0.0
O800 O 0.78715 0.82432 0.26644 0.0
O801 O 0.80483 0.8087 0.26717 0.0
O802 O 0.80632 0.77992 0.23815 0.0
O803 O 0.77728 0.78143 0.23649 0.0
O804 O 0.83675 0.77176 0.27013 0.0
O805 O 0.84018 0.80098 0.26635 0.0
O806 O 0.80477 0.75157 0.26857 0.0
O807 O 0.78658 0.76676 0.26771 0.0
H808 H 0.72507 0.8143 0.27289 0.0
H809 H 0.73766 0.77042 0.29901 0.0
H810 H 0.71643 0.77333 0.32005 0.0
H811 H 0.70361 0.81707 0.29379 0.0
H812 H 0.85925 0.756 0.25553 0.0
H813 H 0.86217 0.81252 0.24543 0.0
H814 H 0.88395 0.81012 0.22507 0.0
H815 H 0.88133 0.75371 0.23513 0.0
Gd816 Gd 0.81475 0.29338 0.74993 0.0
Gd817 Gd 0.79745 0.30226 0.78585 0.0
C818 C 0.81545 0.3363 0.76728 0.0
C819 C 0.82311 0.28989 0.71752 0.0
C820 C 0.82433 0.30279 0.70462 0.0
C821 C 0.83734 0.30392 0.69317 0.0
C822 C 0.81505 0.31648 0.70634 0.0
C823 C 0.83189 0.33249 0.68511 0.0
C824 C 0.81884 0.3313 0.69665 0.0
C825 C 0.84105 0.31865 0.68335 0.0
C826 C 0.83728 0.29422 0.78073 0.0
C827 C 0.79455 0.25909 0.76663 0.0
C828 C 0.78996 0.30625 0.8187 0.0
C829 C 0.78544 0.29205 0.83021 0.0
C830 C 0.77224 0.29255 0.8413 0.0
C831 C 0.79199 0.27619 0.82764 0.0
C832 C 0.77287 0.26183 0.84801 0.0
C833 C 0.78573 0.26116 0.83648 0.0
C834 C 0.76598 0.27746 0.85024 0.0
C835 C 0.77429 0.30129 0.75583 0.0
O836 O 0.81611 0.32409 0.75267 0.0
O837 O 0.81131 0.33134 0.7829 0.0
O838 O 0.83464 0.29695 0.73224 0.0
O839 O 0.80731 0.28176 0.72093 0.0
O840 O 0.84021 0.29016 0.76406 0.0
O841 O 0.8223 0.29713 0.77982 0.0
O842 O 0.7939 0.27094 0.78158 0.0
O843 O 0.79991 0.2644 0.75159 0.0
O844 O 0.77832 0.30311 0.80424 0.0
O845 O 0.80619 0.31074 0.81511 0.0
O846 O 0.77177 0.30461 0.77274 0.0
O847 O 0.7894 0.29849 0.75566 0.0
H848 H 0.84494 0.29373 0.69223 0.0
H849 H 0.80531 0.31607 0.71562 0.0
H850 H 0.81171 0.34191 0.69833 0.0
H851 H 0.85095 0.31908 0.67427 0.0
H852 H 0.76664 0.30443 0.8428 0.0
H853 H 0.80174 0.27529 0.81858 0.0
H854 H 0.79102 0.24905 0.83445 0.0
H855 H 0.75609 0.27818 0.85917 0.0
Gd856 Gd 0.79903 0.80909 0.77526 0.0
Gd857 Gd 0.78202 0.76763 0.75652 0.0
C858 C 0.75635 0.79088 0.76865 0.0
C859 C 0.8066 0.84484 0.78771 0.0
C860 C 0.79609 0.85801 0.78643 0.0
C861 C 0.79971 0.87458 0.79958 0.0
C862 C 0.78155 0.8533 0.77274 0.0
C863 C 0.77453 0.88207 0.78504 0.0
C864 C 0.7708 0.86524 0.77208 0.0
C865 C 0.78899 0.88664 0.79886 0.0
C866 C 0.80094 0.7832 0.79695 0.0
C867 C 0.82313 0.78732 0.75729 0.0
C868 C 0.77539 0.73129 0.75135 0.0
C869 C 0.78771 0.71973 0.75073 0.0
C870 C 0.78304 0.70174 0.7396 0.0
C871 C 0.80465 0.72718 0.76052 0.0
C872 C 0.81196 0.69834 0.74876 0.0
C873 C 0.81674 0.71669 0.75936 0.0
C874 C 0.79506 0.69101 0.73872 0.0
C875 C 0.78373 0.78977 0.73013 0.0
O876 O 0.76996 0.80621 0.77173 0.0
O877 O 0.75766 0.77362 0.76351 0.0
O878 O 0.80083 0.83202 0.79763 0.0
O879 O 0.81099 0.83789 0.77215 0.0
O880 O 0.81373 0.79792 0.7963 0.0
O881 O 0.78785 0.78273 0.78566 0.0
O882 O 0.81093 0.77183 0.75835 0.0
O883 O 0.82092 0.80431 0.7611 0.0
O884 O 0.77494 0.7406 0.73784 0.0
O885 O 0.77573 0.74161 0.76736 0.0
O886 O 0.77598 0.77172 0.7271 0.0
O887 O 0.78886 0.79512 0.74713 0.0
H888 H 0.81078 0.87816 0.81035 0.0
H889 H 0.77848 0.84037 0.76261 0.0
H890 H 0.75958 0.86133 0.76145 0.0
H891 H 0.7922 0.89968 0.80888 0.0
H892 H 0.77008 0.69593 0.73178 0.0
H893 H 0.80856 0.74105 0.76921 0.0
H894 H 0.82976 0.72287 0.76698 0.0
H895 H 0.79094 0.67682 0.73059 0.0
Gd896 Gd 0.53552 0.53331 0.51631 0.0
Gd897 Gd 0.57087 0.55352 0.53873 0.0
C898 C 0.55143 0.57902 0.51855 0.0
C899 C 0.50199 0.52322 0.50722 0.0
C900 C 0.48893 0.53402 0.50756 0.0
C901 C 0.47721 0.53182 0.49162 0.0
C902 C 0.48885 0.54751 0.523 0.0
C903 C 0.46496 0.55586 0.50668 0.0
C904 C 0.47686 0.55825 0.52259 0.0
C905 C 0.46534 0.54266 0.49116 0.0
C906 C 0.55943 0.53254 0.49152 0.0
C907 C 0.55635 0.50735 0.53367 0.0
C908 C 0.60407 0.56424 0.55018 0.0
C909 C 0.61789 0.55457 0.5487 0.0
C910 C 0.63038 0.55696 0.56405 0.0
C911 C 0.61761 0.54143 0.5329 0.0
C912 C 0.64257 0.53358 0.54769 0.0
C913 C 0.62993 0.53109 0.53237 0.0
C914 C 0.64264 0.54652 0.56357 0.0
C915 C 0.54603 0.55456 0.56282 0.0
O916 O 0.53766 0.56393 0.51463 0.0
O917 O 0.56635 0.57866 0.5276 0.0
O918 O 0.513 0.52701 0.49549 0.0
O919 O 0.50949 0.52151 0.52304 0.0
O920 O 0.54272 0.5245 0.48823 0.0
O921 O 0.56313 0.53997 0.50879 0.0
O922 O 0.56995 0.5226 0.53733 0.0
O923 O 0.54081 0.50797 0.52643 0.0
O924 O 0.59228 0.55713 0.56014 0.0
O925 O 0.5973 0.56835 0.5351 0.0
O926 O 0.56267 0.56267 0.5667 0.0
O927 O 0.54336 0.54721 0.54568 0.0
H928 H 0.47729 0.52174 0.47948 0.0
H929 H 0.49809 0.54983 0.53532 0.0
H930 H 0.47694 0.5685 0.53466 0.0
H931 H 0.4562 0.54042 0.47878 0.0
H932 H 0.63051 0.56673 0.5765 0.0
H933 H 0.60773 0.53894 0.52109 0.0
H934 H 0.62943 0.52096 0.52006 0.0
H935 H 0.65229 0.54875 0.57553 0.0
Gd936 Gd 0.07014 0.54449 0.03476 0.0
Gd937 Gd 0.02982 0.5398 0.03799 0.0
C938 C 0.04164 0.50215 0.02861 0.0
C939 C 0.10183 0.54082 0.03652 0.0
C940 C 0.1119 0.52637 0.03373 0.0
C941 C 0.12018 0.52422 0.01792 0.0
C942 C 0.11497 0.51608 0.04752 0.0
C943 C 0.13522 0.5029 0.03031 0.0
C944 C 0.12639 0.50451 0.04581 0.0
C945 C 0.1316 0.51263 0.0162 0.0
C946 C 0.04915 0.54454 0.00473 0.0
C947 C 0.05829 0.58224 0.04365 0.0
C948 C 0.99842 0.54382 0.03518 0.0
C949 C 0.98923 0.55873 0.03957 0.0
C950 C 0.97972 0.5588 0.05462 0.0
C951 C 0.98844 0.57186 0.02789 0.0
C952 C 0.96791 0.58367 0.04538 0.0
C953 C 0.97791 0.58421 0.03081 0.0
C954 C 0.96912 0.57111 0.05745 0.0
C955 C 0.05015 0.53969 0.06817 0.0
O956 O 0.05801 0.513 0.03378 0.0
O957 O 0.02816 0.50943 0.02684 0.0
O958 O 0.09355 0.5443 0.02196 0.0
O959 O 0.0932 0.54146 0.05069 0.0
O960 O 0.06531 0.55502 0.00835 0.0
O961 O 0.04543 0.53421 0.01638 0.0
O962 O 0.04191 0.57125 0.03923 0.0
O963 O 0.07192 0.57516 0.04527 0.0
O964 O 1.00523 0.53774 0.04898 0.0
O965 O 0.00817 0.54519 0.0219 0.0
O966 O 0.03368 0.53031 0.065 0.0
O967 O 0.05446 0.5499 0.0565 0.0
H968 H 0.11832 0.53204 0.00708 0.0
H969 H 0.10891 0.51735 0.05993 0.0
H970 H 0.1285 0.49702 0.05685 0.0
H971 H 0.13817 0.512 1.00412 0.0
H972 H 0.97994 0.54884 0.06382 0.0
H973 H 0.99545 0.57217 0.0161 0.0
H974 H 0.97697 0.59363 0.02119 0.0
H975 H 0.96139 0.57035 0.06869 0.0
H976 H 0.01732 0.20354 0.91355 0.0
H977 H 0.02223 0.17839 0.92936 0.0
H978 H 0.03945 0.21884 0.98012 0.0
H979 H 0.03321 0.24364 0.96457 0.0
H980 H 0.04794 0.17084 0.9441 0.0
H981 H 0.00959 0.18015 1.00141 0.0
H982 H 0.00899 0.19285 0.98268 0.0
H983 H 0.02674 0.20124 1.0015 0.0
C984 C 0.02188 0.20703 0.92816 0.0
C985 C 0.02457 0.22564 0.93777 0.0
C986 C 0.0248 0.19258 0.93726 0.0
C987 C 0.03086 0.19628 0.95624 0.0
C988 C 0.03405 0.21507 0.96574 0.0
H989 H 0.0691 0.12017 0.0214 0.0
H990 H 0.06581 0.14817 0.0089 0.0
C991 C 0.03063 0.22942 0.95674 0.0
C992 C 0.03433 0.18059 0.96567 0.0
H993 H 0.02748 0.15927 1.00335 0.0
C994 C 0.04332 0.1684 0.95701 0.0
C995 C 0.02848 0.17704 0.98267 0.0
C996 C 0.01777 0.18839 0.9925 0.0
C997 C 0.04644 0.15304 0.96463 0.0
C998 C 0.04072 0.1497 0.98156 0.0
C999 C 0.03203 0.16193 0.99045 0.0
C1000 C 0.04271 0.13286 0.98958 0.0
C1001 C 0.0557 0.14024 0.95443 0.0
C1002 C 0.03078 0.11492 0.98305 0.0
C1003 C 0.03249 0.09898 0.99032 0.0
C1004 C 0.0463 0.10042 1.00423 0.0
C1005 C 0.0583 0.11845 0.01074 0.0
C1006 C 0.05643 0.1345 1.0036 0.0
H1007 H 0.06103 0.14579 0.94245 0.0
H1008 H 0.06661 0.13849 0.9638 0.0
H1009 H 0.04636 0.12597 0.94946 0.0
H1010 H 0.02012 0.11323 0.97224 0.0
H1011 H 0.02306 0.08539 0.98477 0.0
H1012 H 0.1241 0.78971 0.13792 0.0
H1013 H 0.15089 0.7859 0.15404 0.0
H1014 H 0.15951 0.84069 0.18844 0.0
H1015 H 0.1324 0.84424 0.17249 0.0
H1016 H 0.185 0.80506 0.15861 0.0
H1017 H 0.16211 0.80817 0.22664 0.0
H1018 H 0.14768 0.80604 0.20581 0.0
H1019 H 0.16178 0.82888 0.21708 0.0
C1020 C 0.13175 0.80092 0.14896 0.0
C1021 C 0.12614 0.81719 0.1541 0.0
C1022 C 0.14709 0.79876 0.15815 0.0
C1023 C 0.15717 0.8128 0.17279 0.0
C1024 C 0.15179 0.82938 0.17755 0.0
H1025 H 0.25216 0.83546 0.24696 0.0
H1026 H 0.22544 0.83468 0.22782 0.0
C1027 C 0.13637 0.83151 0.16837 0.0
C1028 C 0.17316 0.81002 0.18309 0.0
H1029 H 0.1925 0.81064 0.22631 0.0
C1030 C 0.18657 0.80615 0.17341 0.0
C1031 C 0.17521 0.81104 0.20238 0.0
C1032 C 0.16085 0.81354 0.21357 0.0
C1033 C 0.20221 0.80426 0.18254 0.0
C1034 C 0.20454 0.80612 0.20192 0.0
C1035 C 0.19088 0.80937 0.21149 0.0
C1036 C 0.22143 0.80624 0.21278 0.0
C1037 C 0.21636 0.80093 0.17143 0.0
C1038 C 0.22838 0.7905 0.21078 0.0
C1039 C 0.2439 0.79091 0.22186 0.0
C1040 C 0.25271 0.80706 0.23518 0.0
C1041 C 0.2458 0.82278 0.23687 0.0
C1042 C 0.23042 0.82235 0.22592 0.0
H1043 H 0.21409 0.80369 0.15726 0.0
H1044 H 0.22944 0.81012 0.17815 0.0
H1045 H 0.21658 0.78592 0.17046 0.0
H1046 H 0.2216 0.77774 0.20098 0.0
H1047 H 0.24875 0.77849 0.22031 0.0
H1048 H 0.54367 0.82248 0.46852 0.0
H1049 H 0.54809 0.85506 0.48515 0.0
H1050 H 0.51357 0.86525 0.44214 0.0
H1051 H 0.50884 0.83309 0.42574 0.0
H1052 H 0.56066 0.89088 0.47093 0.0
H1053 H 0.49337 0.87991 0.48962 0.0
H1054 H 0.50256 0.86044 0.48306 0.0
H1055 H 0.49438 0.8718 0.46585 0.0
C1056 C 0.5368 0.83157 0.46279 0.0
C1057 C 0.52575 0.82504 0.44587 0.0
C1058 C 0.53946 0.85021 0.47221 0.0
C1059 C 0.531 0.86246 0.46493 0.0
C1060 C 0.52001 0.85594 0.44813 0.0
H1061 H 0.52016 0.97579 0.49255 0.0
H1062 H 0.51763 0.94267 0.4796 0.0
C1063 C 0.51734 0.83748 0.43877 0.0
C1064 C 0.53348 0.88214 0.47463 0.0
H1065 H 0.51088 0.91176 0.49351 0.0
C1066 C 0.54989 0.89547 0.47611 0.0
C1067 C 0.51929 0.88808 0.48106 0.0
C1068 C 0.50143 0.8743 0.47998 0.0
C1069 C 0.55234 0.91476 0.48338 0.0
C1070 C 0.53811 0.9207 0.48986 0.0
C1071 C 0.52179 0.90725 0.48857 0.0
C1072 C 0.53968 0.94079 0.49784 0.0
C1073 C 0.56994 0.92864 0.48328 0.0
C1074 C 0.55265 0.95066 0.51266 0.0
C1075 C 0.55426 0.96963 0.51988 0.0
C1076 C 0.54262 0.97895 0.51277 0.0
C1077 C 0.5292 0.96889 0.49843 0.0
C1078 C 0.52782 0.95001 0.49096 0.0
H1079 H 0.57735 0.92299 0.47292 0.0
H1080 H 0.56846 0.94243 0.48035 0.0
H1081 H 0.57791 0.93124 0.49694 0.0
H1082 H 0.56156 0.94371 0.51866 0.0
H1083 H 0.56465 0.97703 0.53103 0.0
H1084 H 0.52394 0.3107 0.63707 0.0
H1085 H 0.49414 0.30378 0.6456 0.0
H1086 H 0.50873 0.27128 0.68465 0.0
H1087 H 0.53836 0.27794 0.67616 0.0
H1088 H 0.46856 0.26229 0.64881 0.0
H1089 H 0.4907 0.31822 0.71166 0.0
H1090 H 0.50185 0.31909 0.6916 0.0
H1091 H 0.50447 0.30286 0.70652 0.0
C1092 C 0.52083 0.30216 0.64754 0.0
C1093 C 0.53367 0.29512 0.65613 0.0
C1094 C 0.50374 0.29804 0.65224 0.0
C1095 C 0.4992 0.28696 0.66572 0.0
C1096 C 0.51192 0.27979 0.67416 0.0
H1097 H 0.41774 0.26347 0.73376 0.0
H1098 H 0.44313 0.26453 0.71766 0.0
C1099 C 0.52891 0.28374 0.66937 0.0
C1100 C 0.48169 0.28398 0.67211 0.0
H1101 H 0.46201 0.2981 0.70848 0.0
C1102 C 0.46703 0.2702 0.66177 0.0
C1103 C 0.47974 0.29428 0.68901 0.0
C1104 C 0.49494 0.30955 0.70038 0.0
C1105 C 0.45058 0.26613 0.66821 0.0
C1106 C 0.44877 0.27625 0.68534 0.0
C1107 C 0.4634 0.29024 0.69542 0.0
C1108 C 0.43205 0.27256 0.69348 0.0
C1109 C 0.43542 0.25068 0.657 0.0
C1110 C 0.41707 0.27623 0.68508 0.0
C1111 C 0.40234 0.27545 0.69424 0.0
C1112 C 0.40231 0.27114 0.71208 0.0
C1113 C 0.41707 0.26663 0.72002 0.0
C1114 C 0.43173 0.26736 0.71085 0.0
H1115 H 0.4398 0.24161 0.64616 0.0
H1116 H 0.42822 0.24156 0.66593 0.0
H1117 H 0.42612 0.25722 0.65022 0.0
H1118 H 0.41703 0.28051 0.6718 0.0
H1119 H 0.39116 0.27874 0.68752 0.0
H1120 H 0.99416 0.82173 0.62818 0.0
H1121 H 1.00645 0.85119 0.61692 0.0
H1122 H 0.04716 0.82843 0.59673 0.0
H1123 H 0.03454 0.79885 0.60698 0.0
H1124 H 0.03885 0.87675 0.62539 0.0
H1125 H 0.02718 0.84316 0.55162 0.0
H1126 H 0.01779 0.83081 0.56898 0.0
H1127 H 0.04026 0.83294 0.56572 0.0
C1128 C 1.00554 0.82298 0.62106 0.0
C1129 C 0.01316 0.80794 0.61801 0.0
C1130 C 0.01261 0.83978 0.6148 0.0
C1131 C 0.02747 0.84172 0.60571 0.0
C1132 C 0.03537 0.82692 0.60321 0.0
H1133 H 0.07848 0.93299 0.55135 0.0
H1134 H 0.07559 0.90778 0.56964 0.0
C1135 C 0.02811 0.81005 0.60904 0.0
C1136 C 0.03464 0.85912 0.59861 0.0
H1137 H 0.04337 0.87546 0.55914 0.0
C1138 C 0.03989 0.87651 0.61093 0.0
C1139 C 0.03605 0.8586 0.57973 0.0
C1140 C 0.02987 0.8404 0.56572 0.0
C1141 C 0.04625 0.89356 0.60473 0.0
C1142 C 0.04734 0.89299 0.58588 0.0
C1143 C 0.04267 0.87562 0.57367 0.0
C1144 C 0.05089 0.91024 0.57797 0.0
C1145 C 0.05147 0.91208 0.6182 0.0
C1146 C 0.03797 0.91981 0.57689 0.0
C1147 C 0.03936 0.93384 0.56624 0.0
C1148 C 0.05375 0.93846 0.55657 0.0
C1149 C 0.06715 0.92949 0.55848 0.0
C1150 C 0.06564 0.9153 0.56903 0.0
H1151 H 0.05361 0.9099 0.63259 0.0
H1152 H 0.06362 0.92173 0.61509 0.0
H1153 H 0.04089 0.91921 0.61701 0.0
H1154 H 0.02629 0.91565 0.5834 0.0
H1155 H 0.02869 0.94025 0.56477 0.0
H1156 H 0.53733 0.82445 0.87908 0.0
H1157 H 0.50692 0.82038 0.86571 0.0
H1158 H 0.51991 0.80419 0.8117 0.0
H1159 H 0.55043 0.80891 0.82494 0.0
H1160 H 0.50285 0.84297 0.83285 0.0
H1161 H 0.4699 0.76524 0.82063 0.0
H1162 H 0.4875 0.77675 0.83922 0.0
H1163 H 0.49224 0.77298 0.81609 0.0
C1164 C 0.53347 0.81946 0.86444 0.0
C1165 C 0.54591 0.8168 0.85292 0.0
C1166 C 0.51624 0.81721 0.85687 0.0
C1167 C 0.51136 0.81182 0.83784 0.0
C1168 C 0.52357 0.80816 0.82645 0.0
H1169 H 0.42167 0.805 0.76017 0.0
H1170 H 0.44997 0.80349 0.77518 0.0
C1171 C 0.54087 0.81085 0.83396 0.0
C1172 C 0.49425 0.81248 0.8295 0.0
H1173 H 0.4544 0.78461 0.80793 0.0
C1174 C 0.49216 0.83028 0.82751 0.0
C1175 C 0.48063 0.79581 0.8225 0.0
C1176 C 0.48251 0.77654 0.82472 0.0
C1177 C 0.47665 0.83181 0.81832 0.0
C1178 C 0.463 0.81511 0.81127 0.0
C1179 C 0.46506 0.79731 0.81334 0.0
C1180 C 0.44621 0.81595 0.80222 0.0
C1181 C 0.47504 0.85116 0.8159 0.0
C1182 C 0.43498 0.8233 0.81265 0.0
C1183 C 0.41896 0.82407 0.80422 0.0
C1184 C 0.41406 0.81753 0.78527 0.0
C1185 C 0.42534 0.81019 0.7748 0.0
C1186 C 0.44135 0.80927 0.78331 0.0
H1187 H 0.48795 0.86208 0.81888 0.0
H1188 H 0.4691 0.85073 0.80168 0.0
H1189 H 0.46633 0.85555 0.82543 0.0
H1190 H 0.4386 0.82839 0.8273 0.0
H1191 H 0.41045 0.82992 0.81246 0.0
H1192 H 0.50834 0.21531 0.09793 0.0
H1193 H 0.51823 0.18853 0.08424 0.0
H1194 H 0.49461 0.15565 0.12308 0.0
H1195 H 0.48476 0.1825 0.13713 0.0
H1196 H 0.53877 0.16612 0.11261 0.0
H1197 H 0.47893 0.12867 0.06221 0.0
H1198 H 0.48559 0.15421 0.06886 0.0
H1199 H 0.47687 0.13979 0.08492 0.0
C1200 C 0.50474 0.20219 0.1032 0.0
C1201 C 0.49564 0.20082 0.11847 0.0
C1202 C 0.51067 0.18712 0.09559 0.0
C1203 C 0.5073 0.17052 0.10299 0.0
C1204 C 0.49741 0.16863 0.1175 0.0
H1205 H 0.51785 0.06358 0.05394 0.0
H1206 H 0.51289 0.0884 0.07674 0.0
C1207 C 0.49162 0.18377 0.12528 0.0
C1208 C 0.51389 0.15497 0.09521 0.0
H1209 H 0.50253 0.11538 0.06228 0.0
C1210 C 0.53092 0.15484 0.10171 0.0
C1211 C 0.50346 0.14064 0.08104 0.0
C1212 C 0.48517 0.14068 0.07372 0.0
C1213 C 0.53785 0.14034 0.09422 0.0
C1214 C 0.52739 0.12601 0.0799 0.0
C1215 C 0.51037 0.12629 0.07349 0.0
C1216 C 0.53377 0.11084 0.0705 0.0
C1217 C 0.55613 0.14044 0.10165 0.0
C1218 C 0.54763 0.11528 0.06015 0.0
C1219 C 0.55067 0.10105 0.04747 0.0
C1220 C 0.53954 0.08259 0.04482 0.0
C1221 C 0.5264 0.0779 0.05586 0.0
C1222 C 0.52368 0.09197 0.06887 0.0
H1223 H 0.56037 0.14908 0.11568 0.0
H1224 H 0.55699 0.12579 0.10201 0.0
H1225 H 0.56544 0.14673 0.09258 0.0
H1226 H 0.55524 0.12985 0.06091 0.0
H1227 H 0.56088 0.10468 0.0389 0.0
H1228 H 0.15697 0.34602 0.36704 0.0
H1229 H 0.18094 0.34261 0.34941 0.0
H1230 H 0.14982 0.28666 0.32239 0.0
H1231 H 0.12589 0.29008 0.33936 0.0
H1232 H 0.19932 0.31479 0.34707 0.0
H1233 H 0.16252 0.31338 0.27963 0.0
H1234 H 0.15562 0.32137 0.30114 0.0
H1235 H 0.15071 0.29639 0.292 0.0
C1236 C 0.1553 0.33305 0.35728 0.0
C1237 C 0.13953 0.31844 0.35432 0.0
C1238 C 0.16894 0.33113 0.34729 0.0
C1239 C 0.16687 0.31457 0.33437 0.0
C1240 C 0.1514 0.29975 0.33195 0.0
H1241 H 0.23259 0.26286 0.27158 0.0
H1242 H 0.20968 0.26969 0.28907 0.0
C1243 C 0.13778 0.30173 0.34169 0.0
C1244 C 0.18077 0.31246 0.32326 0.0
H1245 H 0.18806 0.30222 0.27892 0.0
C1246 C 0.19698 0.31228 0.33219 0.0
C1247 C 0.17758 0.30924 0.30386 0.0
C1248 C 0.16072 0.31029 0.2936 0.0
C1249 C 0.20994 0.30826 0.32207 0.0
C1250 C 0.20641 0.30435 0.30274 0.0
C1251 C 0.19044 0.30499 0.29381 0.0
C1252 C 0.21943 0.30014 0.29147 0.0
C1253 C 0.22723 0.30794 0.33195 0.0
C1254 C 0.23187 0.31507 0.28669 0.0
C1255 C 0.24475 0.31128 0.27658 0.0
C1256 C 0.24537 0.29248 0.27124 0.0
C1257 C 0.23237 0.27747 0.27543 0.0
C1258 C 0.21941 0.28131 0.28551 0.0
H1259 H 0.2277 0.31074 0.34711 0.0
H1260 H 0.22959 0.29391 0.32766 0.0
H1261 H 0.23804 0.31884 0.32808 0.0
H1262 H 0.23185 0.32966 0.29116 0.0
H1263 H 0.25462 0.32317 0.27364 0.0
H1264 H 0.98353 0.08478 0.21934 0.0
H1265 H 0.99787 0.0845 0.19139 0.0
H1266 H 0.95565 0.03626 0.16403 0.0
H1267 H 0.94079 0.0377 0.19132 0.0
H1268 H 0.01319 0.0666 0.17147 0.0
H1269 H 0.95528 0.05862 0.12136 0.0
H1270 H 0.95441 0.06303 0.14565 0.0
H1271 H 0.9518 0.03921 0.13349 0.0
C1272 C 0.97706 0.07431 0.20725 0.0
C1273 C 0.96052 0.06157 0.20792 0.0
C1274 C 0.98544 0.07405 0.19097 0.0
C1275 C 0.97799 0.06077 0.17443 0.0
C1276 C 0.96177 0.04756 0.17554 0.0
H1277 H 0.01171 0.03463 0.06168 0.0
H1278 H 0.99665 0.03472 0.08933 0.0
C1279 C 0.95317 0.0482 0.19158 0.0
C1280 C 0.98729 0.06043 0.15663 0.0
H1281 H 0.98024 0.05347 0.10897 0.0
C1282 C 1.00576 0.06385 0.15791 0.0
C1283 C 0.97835 0.05684 0.13823 0.0
C1284 C 0.95891 0.05442 0.13458 0.0
C1285 C 0.01505 0.06336 0.14222 0.0
C1286 C 1.00607 0.05966 0.12383 0.0
C1287 C 0.98763 0.05621 0.12255 0.0
C1288 C 0.01534 0.05961 0.10606 0.0
C1289 C 0.03458 0.0662 0.14584 0.0
C1290 C 0.03092 0.07368 0.10496 0.0
C1291 C 0.03967 0.07345 0.08909 0.0
C1292 C 0.03326 0.05954 0.07287 0.0
C1293 C 0.0173 0.04579 0.0735 0.0
C1294 C 0.00861 0.04584 0.08964 0.0
H1295 H 0.03837 0.06203 0.15902 0.0
H1296 H 0.03924 0.05783 0.1347 0.0
H1297 H 0.04144 0.08148 0.14696 0.0
H1298 H 0.03649 0.0852 0.11643 0.0
H1299 H 0.05175 0.08449 0.0896 0.0
H1300 H 0.26926 0.65376 0.45838 0.0
H1301 H 0.2567 0.66186 0.43031 0.0
H1302 H 0.29394 0.71737 0.4432 0.0
H1303 H 0.30614 0.70952 0.47164 0.0
H1304 H 0.24658 0.70334 0.4341 0.0
H1305 H 0.291 0.68529 0.38506 0.0
H1306 H 0.28593 0.67287 0.40387 0.0
H1307 H 0.30067 0.69635 0.4083 0.0
C1308 C 0.27511 0.66743 0.45481 0.0
C1309 C 0.28895 0.68091 0.46665 0.0
C1310 C 0.26782 0.67207 0.439 0.0
C1311 C 0.27454 0.6901 0.43485 0.0
C1312 C 0.28875 0.70335 0.44632 0.0
H1313 H 0.26833 0.77335 0.37874 0.0
H1314 H 0.26631 0.75114 0.40019 0.0
C1315 C 0.2958 0.69885 0.46235 0.0
C1316 C 0.26626 0.69567 0.41902 0.0
H1317 H 0.27368 0.70522 0.37674 0.0
C1318 C 0.25214 0.70337 0.42133 0.0
C1319 C 0.27355 0.69539 0.40249 0.0
C1320 C 0.28858 0.68694 0.39961 0.0
C1321 C 0.24597 0.71222 0.40784 0.0
C1322 C 0.2542 0.71325 0.39191 0.0
C1323 C 0.26738 0.70422 0.38902 0.0
C1324 C 0.25187 0.72655 0.37988 0.0
C1325 C 0.23141 0.72134 0.41101 0.0
C1326 C 0.24425 0.71991 0.36153 0.0
C1327 C 0.2454 0.73259 0.34932 0.0
C1328 C 0.25427 0.75183 0.35544 0.0
C1329 C 0.26117 0.75856 0.37396 0.0
C1330 C 0.25999 0.74595 0.38614 0.0
H1331 H 0.22402 0.71598 0.42197 0.0
H1332 H 0.23708 0.73693 0.41522 0.0
H1333 H 0.22218 0.71869 0.39815 0.0
H1334 H 0.23814 0.7049 0.35655 0.0
H1335 H 0.24002 0.72733 0.33502 0.0
H1336 H 0.6653 0.02725 0.69019 0.0
H1337 H 0.6517 0.03037 0.66008 0.0
H1338 H 0.61845 0.06014 0.6871 0.0
H1339 H 0.63145 0.05651 0.71689 0.0
H1340 H 0.61014 0.01534 0.65485 0.0
H1341 H 0.6391 0.08899 0.6434 0.0
H1342 H 0.65161 0.07662 0.65598 0.0
H1343 H 0.63517 0.08543 0.66627 0.0
C1344 C 0.65506 0.03438 0.6895 0.0
C1345 C 0.64877 0.04098 0.70542 0.0
C1346 C 0.6476 0.03644 0.67253 0.0
C1347 C 0.63438 0.04569 0.67171 0.0
C1348 C 0.62883 0.05318 0.68772 0.0
H1349 H 0.5527 0.05378 0.59292 0.0
H1350 H 0.57388 0.05786 0.62049 0.0
C1351 C 0.63593 0.05074 0.70454 0.0
C1352 C 0.62389 0.04434 0.65433 0.0
H1353 H 0.6135 0.0703 0.62328 0.0
C1354 C 0.61101 0.02719 0.64769 0.0
C1355 C 0.62492 0.06018 0.64575 0.0
C1356 C 0.63847 0.0789 0.6531 0.0
C1357 C 0.5988 0.02545 0.63249 0.0
C1358 C 0.60002 0.04112 0.6236 0.0
C1359 C 0.61289 0.05835 0.63023 0.0
C1360 C 0.58798 0.03952 0.60718 0.0
C1361 C 0.58439 1.00712 0.62634 0.0
C1362 C 0.58911 0.02778 0.59101 0.0
C1363 C 0.57696 0.02519 0.5756 0.0
C1364 C 0.56378 0.03441 0.57638 0.0
C1365 C 0.56266 0.04625 0.59248 0.0
C1366 C 0.5748 0.0488 0.60796 0.0
H1367 H 0.58317 0.99799 0.63696 0.0
H1368 H 0.57158 0.01002 0.62302 0.0
H1369 H 0.58729 0.99909 0.61372 0.0
H1370 H 0.59933 0.02061 0.59039 0.0
H1371 H 0.57798 0.01624 0.56305 0.0
H1372 H 0.29896 0.37937 0.96599 0.0
H1373 H 0.29767 0.36793 0.93299 0.0
H1374 H 0.3069 0.31584 0.94445 0.0
H1375 H 0.30868 0.32737 0.97748 0.0
H1376 H 0.32937 0.35323 0.91868 0.0
H1377 H 0.26196 0.30399 0.90029 0.0
H1378 H 0.26736 0.32434 0.91872 0.0
H1379 H 0.27441 0.30382 0.92176 0.0
C1380 C 0.30034 0.36532 0.96146 0.0
C1381 C 0.30388 0.35424 0.97434 0.0
C1382 C 0.29969 0.35885 0.94261 0.0
C1383 C 0.30214 0.34102 0.9363 0.0
C1384 C 0.30491 0.3296 0.94905 0.0
H1385 H 0.31276 0.27924 0.83016 0.0
H1386 H 0.31209 0.28973 0.86312 0.0
C1387 C 0.30592 0.33621 0.9679 0.0
C1388 C 0.30319 0.33491 0.91657 0.0
H1389 H 0.28067 0.30476 0.87739 0.0
C1390 C 0.31872 0.34269 0.90962 0.0
C1391 C 0.28928 0.32113 0.90484 0.0
C1392 C 0.27222 0.31281 0.91163 0.0
C1393 C 0.32076 0.33686 0.89126 0.0
C1394 C 0.3069 0.323 0.87956 0.0
C1395 C 0.29133 0.31526 0.88647 0.0
C1396 C 0.30813 0.3169 0.8599 0.0
C1397 C 0.33778 0.34537 0.88445 0.0
C1398 C 0.3062 0.32873 0.84729 0.0
C1399 C 0.30634 0.32268 0.82858 0.0
C1400 C 0.30876 0.30485 0.82221 0.0
C1401 C 0.31118 0.29318 0.83485 0.0
C1402 C 0.31068 0.2991 0.85358 0.0
H1403 H 0.34809 0.35399 0.89581 0.0
H1404 H 0.3426 0.33398 0.87703 0.0
H1405 H 0.33552 0.35462 0.87461 0.0
H1406 H 0.30418 0.34249 0.85189 0.0
H1407 H 0.30435 0.33184 0.81902 0.0
H1408 H 0.99553 0.04426 0.30742 0.0
H1409 H 0.00849 0.04465 0.33888 0.0
H1410 H 0.9687 0.06775 0.36044 0.0
H1411 H 0.95596 0.06785 0.32907 0.0
H1412 H 0.02143 0.07589 0.372 0.0
H1413 H 0.96511 0.01831 0.38297 0.0
H1414 H 0.96922 0.02277 0.36035 0.0
H1415 H 0.95979 0.03803 0.37476 0.0
C1416 C 0.98956 0.04959 0.31882 0.0
C1417 C 0.97455 0.056 0.31538 0.0
C1418 C 0.99706 0.04983 0.33695 0.0
C1419 C 0.98961 0.05603 0.3524 0.0
C1420 C 0.97478 0.0627 0.34902 0.0
H1421 H 0.0159 0.06426 0.47303 0.0
H1422 H 1.00366 0.0669 0.44221 0.0
C1423 C 0.9675 0.06284 0.33091 0.0
C1424 C 0.99696 0.05496 0.37183 0.0
H1425 H 0.98725 0.03226 0.40829 0.0
C1426 C 0.0139 0.06629 0.37983 0.0
C1427 C 0.98737 0.04257 0.38247 0.0
C1428 C 0.96941 0.02958 0.37476 0.0
C1429 C 0.02123 0.06564 0.39786 0.0
C1430 C 0.01169 0.05311 0.40838 0.0
C1431 C 0.99474 0.04189 0.40045 0.0
C1432 C 0.01919 0.05138 0.42745 0.0
C1433 C 0.03914 0.07863 0.40579 0.0
C1434 C 0.03199 0.0416 0.42985 0.0
C1435 C 0.03873 0.03968 0.44755 0.0
C1436 C 0.03327 0.04789 0.46358 0.0
C1437 C 0.0206 0.05785 0.46116 0.0
C1438 C 0.01352 0.05934 0.44343 0.0
H1439 H 0.04397 0.08935 0.39715 0.0
H1440 H 0.03882 0.08612 0.41982 0.0
H1441 H 0.04858 0.07007 0.40699 0.0
H1442 H 0.0367 0.03527 0.41796 0.0
H1443 H 0.04849 0.03197 0.4487 0.0
H1444 H 0.26901 0.66427 0.56604 0.0
H1445 H 0.26375 0.68401 0.59316 0.0
H1446 H 0.31761 0.71824 0.60043 0.0
H1447 H 0.3225 0.69923 0.57244 0.0
H1448 H 0.27683 0.69148 0.62779 0.0
H1449 H 0.29279 0.75832 0.60059 0.0
H1450 H 0.29012 0.73554 0.58633 0.0
H1451 H 0.31076 0.74803 0.60038 0.0
C1452 C 0.27973 0.67595 0.57358 0.0
C1453 C 0.29617 0.68038 0.5674 0.0
C1454 C 0.2767 0.68721 0.58895 0.0
C1455 C 0.29016 0.70284 0.59846 0.0
C1456 C 0.30688 0.70664 0.59282 0.0
H1457 H 0.32131 0.77505 0.69777 0.0
H1458 H 0.31537 0.75405 0.66778 0.0
C1459 C 0.30976 0.69571 0.57707 0.0
C1460 C 0.28679 0.71512 0.61437 0.0
H1461 H 0.29387 0.76159 0.63356 0.0
C1462 C 0.28018 0.70678 0.62893 0.0
C1463 C 0.29076 0.73503 0.61557 0.0
C1464 C 0.29629 0.7447 0.59977 0.0
C1465 C 0.27883 0.71804 0.64531 0.0
C1466 C 0.28437 0.73795 0.647 0.0
C1467 C 0.28979 0.74624 0.63208 0.0
C1468 C 0.28736 0.75039 0.66487 0.0
C1469 C 0.27256 0.70877 0.66109 0.0
C1470 C 0.27348 0.75517 0.67283 0.0
C1471 C 0.27689 0.7672 0.68989 0.0
C1472 C 0.29415 0.77448 0.6988 0.0
C1473 C 0.30796 0.76973 0.69078 0.0
C1474 C 0.30458 0.75774 0.67385 0.0
H1475 H 0.2683 0.69303 0.65734 0.0
H1476 H 0.28324 0.71302 0.67288 0.0
H1477 H 0.26139 0.71372 0.66568 0.0
H1478 H 0.26014 0.74957 0.66591 0.0
H1479 H 0.26615 0.7707 0.69616 0.0
H1480 H 0.67208 0.06099 0.81647 0.0
H1481 H 0.66863 0.07286 0.84803 0.0
H1482 H 0.6124 0.05396 0.83372 0.0
H1483 H 0.61569 0.0423 0.80195 0.0
H1484 H 0.63843 0.09948 0.8538 0.0
H1485 H 0.63702 0.03508 0.8845 0.0
H1486 H 0.65001 0.04099 0.86644 0.0
H1487 H 0.62663 0.03222 0.86125 0.0
C1488 C 0.65897 0.05886 0.82018 0.0
C1489 C 0.64408 0.05058 0.80695 0.0
C1490 C 0.65708 0.06585 0.83808 0.0
C1491 C 0.64032 0.06433 0.84288 0.0
C1492 C 0.62542 0.05528 0.82998 0.0
H1493 H 0.57486 0.08429 0.91215 0.0
H1494 H 0.59537 0.09 0.89024 0.0
C1495 C 0.62729 0.04851 0.81201 0.0
C1496 C 0.63817 0.07248 0.86132 0.0
H1497 H 0.62806 0.05956 0.90168 0.0
C1498 C 0.63658 0.09103 0.86453 0.0
C1499 C 0.63595 0.06132 0.87506 0.0
C1500 C 0.63753 0.04128 0.8718 0.0
C1501 C 0.63159 0.09831 0.88102 0.0
C1502 C 0.62812 0.08663 0.8943 0.0
C1503 C 0.631 0.06858 0.89152 0.0
C1504 C 0.618 0.09075 0.90911 0.0
C1505 C 0.62915 0.11797 0.88376 0.0
C1506 C 0.62416 0.09024 0.92724 0.0
C1507 C 0.6124 0.08707 0.93993 0.0
C1508 C 0.59437 0.08402 0.93444 0.0
C1509 C 0.58866 0.08673 0.91688 0.0
C1510 C 0.60042 0.09007 0.90429 0.0
H1511 H 0.6374 0.12708 0.87551 0.0
H1512 H 0.61524 0.117 0.87921 0.0
H1513 H 0.63242 0.12485 0.89846 0.0
H1514 H 0.6377 0.09062 0.93108 0.0
H1515 H 0.61718 0.08543 0.95352 0.0
H1516 H 0.28557 0.38075 0.08945 0.0
H1517 H 0.28176 0.36551 0.11647 0.0
H1518 H 0.31535 0.33124 0.09883 0.0
H1519 H 0.31897 0.34613 0.07155 0.0
H1520 H 0.27241 0.31786 0.11485 0.0
H1521 H 0.33355 0.36654 0.15629 0.0
H1522 H 0.32136 0.37423 0.13867 0.0
H1523 H 0.33339 0.3575 0.13233 0.0
C1524 C 0.2921 0.3699 0.09124 0.0
C1525 C 0.3026 0.36471 0.07826 0.0
C1526 C 0.28987 0.36117 0.1067 0.0
C1527 C 0.29831 0.34726 0.10974 0.0
C1528 C 0.30868 0.3419 0.09677 0.0
H1529 H 0.31553 0.3017 0.20981 0.0
H1530 H 0.31783 0.31379 0.18101 0.0
C1531 C 0.3107 0.35041 0.08114 0.0
C1532 C 0.29661 0.33871 0.12668 0.0
H1533 H 0.31662 0.34338 0.17046 0.0
C1534 C 0.28207 0.32337 0.12704 0.0
C1535 C 0.3093 0.34573 0.14247 0.0
C1536 C 0.32533 0.36193 0.14263 0.0
C1537 C 0.27994 0.31475 0.14269 0.0
C1538 C 0.29237 0.32219 0.15887 0.0
C1539 C 0.30697 0.33755 0.15832 0.0
C1540 C 0.29071 0.31432 0.17642 0.0
C1541 C 0.26467 0.29735 0.14128 0.0
C1542 C 0.27482 0.31064 0.18392 0.0
C1543 C 0.27338 0.30311 0.20013 0.0
C1544 C 0.28798 0.29985 0.20979 0.0
C1545 C 0.30405 0.30417 0.20277 0.0
C1546 C 0.30534 0.3111 0.18623 0.0
H1547 H 0.26049 0.28979 0.12683 0.0
H1548 H 0.26793 0.28724 0.14966 0.0
H1549 H 0.25331 0.30172 0.14609 0.0
H1550 H 0.26346 0.3137 0.17735 0.0
H1551 H 0.26086 0.30006 0.20527 0.0
H1552 H 0.24247 0.94186 0.98717 0.0
H1553 H 0.21819 0.95406 0.99638 0.0
H1554 H 0.25205 0.98987 0.04416 0.0
H1555 H 0.27641 0.97831 0.03483 0.0
H1556 H 0.20305 0.95325 0.02909 0.0
H1557 H 0.23313 0.02721 0.01981 0.0
H1558 H 0.24142 0.0077 0.01099 0.0
H1559 H 0.24646 0.01823 0.03496 0.0
C1560 C 0.24476 0.95252 0.99949 0.0
C1561 C 0.26136 0.95939 0.0101 0.0
C1562 C 0.23089 0.95934 0.0048 0.0
C1563 C 0.23347 0.973 0.02079 0.0
C1564 C 0.24995 0.97962 0.03156 0.0
H1565 H 0.16815 0.04081 0.06308 0.0
H1566 H 0.19045 0.02394 0.06124 0.0
C1567 C 0.26384 0.97302 0.02617 0.0
C1568 C 0.219 0.98064 0.02607 0.0
H1569 H 0.20661 0.02144 0.03233 0.0
C1570 C 0.20376 0.96815 0.02983 0.0
C1571 C 0.22016 1.0001 0.02716 0.0
C1572 C 0.2361 0.01408 0.02288 0.0
C1573 C 0.18951 0.97469 0.03468 0.0
C1574 C 0.19052 0.9941 0.03535 0.0
C1575 C 0.20591 1.00657 0.03187 0.0
C1576 C 0.17561 1.00189 0.03871 0.0
C1577 C 0.17369 0.96082 0.03924 0.0
C1578 C 0.15964 0.99476 0.02697 0.0
C1579 C 0.14661 1.00416 0.02826 0.0
C1580 C 0.1495 0.02108 0.04106 0.0
C1581 C 0.1653 0.02771 0.05323 0.0
C1582 C 0.17815 0.01815 0.05213 0.0
H1583 H 0.17725 0.94873 0.04422 0.0
H1584 H 0.16734 0.96779 0.04985 0.0
H1585 H 0.164 0.95492 0.02665 0.0
H1586 H 0.15754 0.98245 0.01625 0.0
H1587 H 0.13449 0.99844 0.0189 0.0
H1588 H 0.74006 0.67512 0.02427 0.0
H1589 H 0.71096 0.65632 0.02826 0.0
H1590 H 0.71293 0.61301 0.98331 0.0
H1591 H 0.74274 0.63124 0.98044 0.0
H1592 H 0.68107 0.64553 0.01054 0.0
H1593 H 0.69753 0.57887 0.01705 0.0
H1594 H 0.71418 0.60045 0.01666 0.0
H1595 H 0.70241 0.58533 0.9955 0.0
C1596 C 0.73428 0.6615 0.01533 0.0
C1597 C 0.74371 0.65459 1.00211 0.0
C1598 C 0.71757 0.65071 0.01759 0.0
C1599 C 0.70959 0.63282 0.00643 0.0
C1600 C 0.71885 0.62628 0.99272 0.0
H1601 H 0.60662 0.5526 0.98479 0.0
H1602 H 0.63616 0.57296 0.98502 0.0
C1603 C 0.73586 0.63682 0.99087 0.0
C1604 C 0.69155 0.62138 0.00894 0.0
H1605 H 0.66691 0.57645 0.01085 0.0
C1606 C 0.67813 0.63047 0.01081 0.0
C1607 C 0.68742 0.60169 0.00967 0.0
C1608 C 0.70121 0.5911 0.00983 0.0
C1609 C 0.66085 0.62042 0.01259 0.0
C1610 C 0.65661 0.60061 0.01229 0.0
C1611 C 0.67002 0.59159 0.01085 0.0
C1612 C 0.63821 0.58875 0.01242 0.0
C1613 C 0.64711 0.63098 0.01432 0.0
C1614 C 0.62929 0.59071 0.02779 0.0
C1615 C 0.61226 0.57887 0.02776 0.0
C1616 C 0.60374 0.56489 0.0123 0.0
C1617 C 0.61266 0.56321 0.99692 0.0
C1618 C 0.62965 0.57485 0.99703 0.0
H1619 H 0.65168 0.64556 0.01132 0.0
H1620 H 0.63491 0.62315 0.00489 0.0
H1621 H 0.64384 0.63213 0.02856 0.0
H1622 H 0.63563 0.60113 0.03995 0.0
H1623 H 0.6059 0.58046 0.03991 0.0
H1624 H 0.72599 0.46996 0.24263 0.0
H1625 H 0.73903 0.44322 0.24175 0.0
H1626 H 0.70306 0.41845 0.27676 0.0
H1627 H 0.69019 0.4453 0.27788 0.0
H1628 H 0.7569 0.42949 0.26744 0.0
H1629 H 0.69731 0.37091 0.23941 0.0
H1630 H 0.69806 0.39544 0.23939 0.0
H1631 H 0.69519 0.38574 0.26001 0.0
C1632 C 0.72071 0.45888 0.25018 0.0
C1633 C 0.70676 0.46044 0.26038 0.0
C1634 C 0.72832 0.44329 0.24967 0.0
C1635 C 0.72224 0.42793 0.25894 0.0
C1636 C 0.7082 0.4294 0.26903 0.0
H1637 H 0.75044 0.31759 0.26648 0.0
H1638 H 0.73643 0.34354 0.26695 0.0
C1639 C 0.70079 0.44516 0.26981 0.0
C1640 C 0.7309 0.41111 0.25853 0.0
H1641 H 0.72253 0.36204 0.24931 0.0
C1642 C 0.74923 0.41478 0.26337 0.0
C1643 C 0.72148 0.3914 0.25352 0.0
C1644 C 0.70195 0.38553 0.24762 0.0
C1645 C 0.758 0.40013 0.26389 0.0
C1646 C 0.7487 0.38033 0.25841 0.0
C1647 C 0.73029 0.37669 0.25351 0.0
C1648 C 0.75757 0.36353 0.25786 0.0
C1649 C 0.77724 0.40646 0.27137 0.0
C1650 C 0.77433 0.36466 0.2522 0.0
C1651 C 0.78268 0.34979 0.25251 0.0
C1652 C 0.77459 0.33227 0.25766 0.0
C1653 C 0.75748 0.33059 0.26244 0.0
C1654 C 0.7493 0.34575 0.26266 0.0
H1655 H 0.78074 0.42033 0.28092 0.0
H1656 H 0.78106 0.39599 0.27889 0.0
H1657 H 0.78505 0.40843 0.25987 0.0
H1658 H 0.78118 0.37709 0.24721 0.0
H1659 H 0.79562 0.35201 0.24836 0.0
H1660 H 0.85341 0.46715 0.48788 0.0
H1661 H 0.88429 0.48485 0.49791 0.0
H1662 H 0.88791 0.44812 0.53708 0.0
H1663 H 0.85769 0.42989 0.52649 0.0
H1664 H 0.89871 0.50463 0.53133 0.0
H1665 H 0.93025 0.44709 0.51312 0.0
H1666 H 0.90754 0.44449 0.50528 0.0
H1667 H 0.91411 0.44124 0.52812 0.0
C1668 C 0.861 0.46271 0.49833 0.0
C1669 C 0.85339 0.44712 0.50625 0.0
C1670 C 0.87849 0.47281 0.50411 0.0
C1671 C 0.88832 0.46757 0.51805 0.0
C1672 C 0.88067 0.45201 0.52595 0.0
H1673 H 0.99864 0.5189 0.56157 0.0
H1674 H 0.96734 0.50699 0.56405 0.0
C1675 C 0.86341 0.44165 0.51988 0.0
C1676 C 0.9064 0.47882 0.52488 0.0
H1677 H 0.94835 0.47591 0.53068 0.0
C1678 C 0.90958 0.49837 0.53126 0.0
C1679 C 0.92043 0.47045 0.52492 0.0
C1680 C 0.91795 0.44971 0.51733 0.0
C1681 C 0.92665 0.50998 0.53703 0.0
C1682 C 0.94059 0.50164 0.53662 0.0
C1683 C 0.93739 0.48202 0.53123 0.0
C1684 C 0.95864 0.51304 0.53777 0.0
C1685 C 0.92984 0.5311 0.54277 0.0
C1686 C 0.96373 0.52037 0.52225 0.0
C1687 C 0.98136 0.52653 0.52055 0.0
C1688 C 0.99404 0.52557 0.53447 0.0
C1689 C 0.98897 0.51947 0.5506 0.0
C1690 C 0.97124 0.51295 0.55215 0.0
H1691 H 0.91774 0.53477 0.5463 0.0
H1692 H 0.9403 0.53675 0.55474 0.0
H1693 H 0.9343 0.53822 0.53127 0.0
H1694 H 0.95403 0.52017 0.51094 0.0
H1695 H 0.98504 0.53166 0.50818 0.0
H1696 H 0.41769 0.11024 0.29676 0.0
H1697 H 0.40291 0.13143 0.28387 0.0
H1698 H 0.35993 0.08324 0.25761 0.0
H1699 H 0.37437 0.06199 0.27055 0.0
H1700 H 0.39119 0.12881 0.24434 0.0
H1701 H 0.33799 0.12066 0.28853 0.0
H1702 H 0.35804 0.11451 0.29426 0.0
H1703 H 0.34116 0.09895 0.27695 0.0
C1704 C 0.40493 0.10423 0.28856 0.0
C1705 C 0.39706 0.08456 0.28481 0.0
C1706 C 0.39666 0.11628 0.28107 0.0
C1707 C 0.38045 0.10873 0.26992 0.0
C1708 C 0.37243 0.08917 0.26634 0.0
H1709 H 0.30551 0.15872 0.22406 0.0
H1710 H 0.3228 0.13674 0.22843 0.0
C1711 C 0.38065 0.07713 0.27381 0.0
C1712 C 0.37169 0.12136 0.26219 0.0
H1713 H 0.33602 0.13806 0.26475 0.0
C1714 C 0.37913 0.13093 0.24874 0.0
C1715 C 0.35601 0.12382 0.26807 0.0
C1716 C 0.34785 0.11408 0.28285 0.0
C1717 C 0.37107 0.14302 0.24081 0.0
C1718 C 0.35541 0.14554 0.24676 0.0
C1719 C 0.34799 0.13587 0.26017 0.0
C1720 C 0.34665 0.15874 0.24 0.0
C1721 C 0.37918 0.15283 0.22608 0.0
C1722 C 0.35463 0.17832 0.24456 0.0
C1723 C 0.34485 0.19097 0.24187 0.0
C1724 C 0.32693 0.18411 0.23482 0.0
C1725 C 0.31933 0.16446 0.22926 0.0
C1726 C 0.32915 0.15187 0.2318 0.0
H1727 H 0.38863 0.14588 0.21998 0.0
H1728 H 0.36891 0.15297 0.21499 0.0
H1729 H 0.38634 0.16778 0.23218 0.0
H1730 H 0.36807 0.18378 0.25123 0.0
H1731 H 0.35108 0.20606 0.24607 0.0
H1732 H 0.34798 0.15309 0.48848 0.0
H1733 H 0.37441 0.14258 0.49451 0.0
H1734 H 0.368 0.14675 0.55179 0.0
H1735 H 0.34117 0.15612 0.54563 0.0
H1736 H 0.40534 0.1577 0.51509 0.0
H1737 H 0.37175 0.09427 0.54243 0.0
H1738 H 0.35977 0.10821 0.53167 0.0
H1739 H 0.37003 0.11606 0.55519 0.0
C1740 C 0.35212 0.15155 0.50231 0.0
C1741 C 0.3422 0.15499 0.51646 0.0
C1742 C 0.3673 0.14563 0.50579 0.0
C1743 C 0.37304 0.14328 0.52355 0.0
C1744 C 0.36357 0.14763 0.53784 0.0
H1745 H 0.45908 0.0979 0.56233 0.0
H1746 H 0.43652 0.11494 0.56175 0.0
C1747 C 0.34822 0.1531 0.53429 0.0
C1748 C 0.38877 0.13613 0.52704 0.0
H1749 H 0.40247 0.10111 0.54394 0.0
C1750 C 0.40464 0.1453 0.52137 0.0
C1751 C 0.38811 0.12007 0.5355 0.0
C1752 C 0.37147 0.10898 0.5414 0.0
C1753 C 0.41966 0.13877 0.52368 0.0
C1754 C 0.41878 0.12241 0.53161 0.0
C1755 C 0.40315 0.11362 0.53784 0.0
C1756 C 0.43341 0.11331 0.53229 0.0
C1757 C 0.43639 0.14952 0.51771 0.0
C1758 C 0.43914 0.10661 0.51596 0.0
C1759 C 0.45191 0.09677 0.51623 0.0
C1760 C 0.45928 0.09326 0.53284 0.0
C1761 C 0.45364 0.10017 0.54926 0.0
C1762 C 0.4408 0.11002 0.54896 0.0
H1763 H 0.43663 0.16451 0.51738 0.0
H1764 H 0.44807 0.14936 0.52699 0.0
H1765 H 0.43737 0.14272 0.50364 0.0
H1766 H 0.43332 0.10845 0.50287 0.0
H1767 H 0.45553 0.09132 0.50326 0.0
H1768 H 0.71828 0.56487 0.25712 0.0
H1769 H 0.7325 0.59805 0.25487 0.0
H1770 H 0.70443 0.61746 0.29699 0.0
H1771 H 0.69031 0.58457 0.29928 0.0
H1772 H 0.72074 0.62759 0.24543 0.0
H1773 H 0.75247 0.65153 0.31741 0.0
H1774 H 0.74296 0.62674 0.30761 0.0
H1775 H 0.72923 0.64126 0.31547 0.0
C1776 C 0.71534 0.57614 0.26623 0.0
C1777 C 0.70319 0.57147 0.27871 0.0
C1778 C 0.72346 0.59537 0.2648 0.0
C1779 C 0.7201 0.61097 0.27598 0.0
C1780 C 0.70795 0.60625 0.28841 0.0
H1781 H 0.75945 0.73905 0.28787 0.0
H1782 H 0.7424 0.70638 0.28947 0.0
C1783 C 0.69971 0.5871 0.28969 0.0
C1784 C 0.72888 0.63188 0.27449 0.0
H1785 H 0.75291 0.67566 0.29971 0.0
C1786 C 0.72782 0.63795 0.25738 0.0
C1787 C 0.73821 0.6461 0.28985 0.0
C1788 C 0.74097 0.64111 0.30859 0.0
C1789 C 0.73535 0.65716 0.25532 0.0
C1790 C 0.74482 0.67134 0.27065 0.0
C1791 C 0.74575 0.66531 0.28777 0.0
C1792 C 0.75448 0.69198 0.26903 0.0
C1793 C 0.73259 0.66218 0.23658 0.0
C1794 C 0.76722 0.69565 0.25706 0.0
C1795 C 0.77707 0.71439 0.25627 0.0
C1796 C 0.77461 0.7307 0.26708 0.0
C1797 C 0.76158 0.72721 0.27883 0.0
C1798 C 0.75187 0.70827 0.2799 0.0
H1799 H 0.72081 0.65204 0.22795 0.0
H1800 H 0.73108 0.67674 0.2376 0.0
H1801 H 0.74412 0.66152 0.2295 0.0
H1802 H 0.77013 0.68388 0.24869 0.0
H1803 H 0.78714 0.7161 0.24733 0.0
H1804 H 0.89642 0.49934 0.82535 0.0
H1805 H 0.87661 0.46769 0.81325 0.0
H1806 H 0.90785 0.46075 0.76965 0.0
H1807 H 0.92813 0.49172 0.78217 0.0
H1808 H 0.85758 0.45963 0.77973 0.0
H1809 H 0.89875 0.40986 0.78428 0.0
H1810 H 0.90587 0.43412 0.79634 0.0
H1811 H 0.90721 0.42868 0.7722 0.0
C1812 C 0.89934 0.49073 0.81359 0.0
C1813 C 0.91372 0.49785 0.80471 0.0
C1814 C 0.88802 0.47281 0.80662 0.0
C1815 C 0.89084 0.46204 0.79058 0.0
C1816 C 0.90568 0.46873 0.78224 0.0
H1817 H 0.82394 0.35186 0.73733 0.0
H1818 H 0.83857 0.38509 0.73749 0.0
C1819 C 0.91723 0.48643 0.78944 0.0
C1820 C 0.87738 0.44465 0.78175 0.0
H1821 H 0.86979 0.39694 0.76936 0.0
C1822 C 0.86025 0.44591 0.77735 0.0
C1823 C 0.8811 0.42695 0.77834 0.0
C1824 C 0.89919 0.42474 0.78317 0.0
C1825 C 0.84644 0.42962 0.77065 0.0
C1826 C 0.85008 0.41197 0.76813 0.0
C1827 C 0.86731 0.41077 0.77125 0.0
C1828 C 0.83622 0.39434 0.76588 0.0
C1829 C 0.82797 0.43112 0.76713 0.0
C1830 C 0.82952 0.38908 0.78165 0.0
C1831 C 0.82156 0.37012 0.7818 0.0
C1832 C 0.82029 0.35641 0.76613 0.0
C1833 C 0.82518 0.36211 0.74974 0.0
C1834 C 0.8333 0.38106 0.74967 0.0
H1835 H 0.82772 0.44585 0.76617 0.0
H1836 H 0.82092 0.42142 0.75424 0.0
H1837 H 0.82081 0.42673 0.77856 0.0
H1838 H 0.83197 0.39932 0.79431 0.0
H1839 H 0.81761 0.36614 0.79452 0.0
H1840 H 0.05673 0.86594 0.1054 0.0
H1841 H 0.05086 0.89274 0.09281 0.0
H1842 H 0.09378 0.89442 0.06128 0.0
H1843 H 0.09942 0.86742 0.07342 0.0
H1844 H 0.0699 0.92847 0.09519 0.0
H1845 H 0.05647 0.89486 0.02175 0.0
H1846 H 0.05815 0.88147 0.03983 0.0
H1847 H 0.07763 0.89478 0.03217 0.0
C1848 C 0.06486 0.87192 0.09569 0.0
C1849 C 0.0785 0.86435 0.09039 0.0
C1850 C 0.0615 0.88731 0.08849 0.0
C1851 C 0.07162 0.89551 0.07574 0.0
C1852 C 0.0854 0.88813 0.07065 0.0
H1853 H 0.08362 1.00092 0.03369 0.0
H1854 H 0.08738 0.97242 0.04463 0.0
C1855 C 0.08873 0.87272 0.07777 0.0
C1856 C 0.06811 0.91208 0.06822 0.0
H1857 H 0.06081 0.92844 0.0283 0.0
C1858 C 0.06779 0.92834 0.08056 0.0
C1859 C 0.06522 0.91206 0.04908 0.0
C1860 C 0.0642 0.89479 0.03495 0.0
C1861 C 0.06511 0.94454 0.07433 0.0
C1862 C 0.0627 0.94463 0.05529 0.0
C1863 C 0.0628 0.9284 0.04292 0.0
C1864 C 0.06018 0.96156 0.04804 0.0
C1865 C 0.06503 0.96166 0.08811 0.0
C1866 C 0.04358 0.96481 0.04608 0.0
C1867 C 0.04133 0.98096 0.03956 0.0
C1868 C 0.0557 0.99433 0.03511 0.0
C1869 C 0.07229 0.99096 0.03703 0.0
C1870 C 0.07447 0.97467 0.04327 0.0
H1871 H 0.06821 0.95989 0.10248 0.0
H1872 H 0.07467 0.97448 0.08554 0.0
H1873 H 0.05189 0.96416 0.08645 0.0
H1874 H 0.03238 0.95492 0.04973 0.0
H1875 H 0.02841 0.9832 0.03843 0.0
H1876 H 0.98015 0.30346 0.88797 0.0
H1877 H 0.9539 0.30819 0.87148 0.0
H1878 H 0.93598 0.24837 0.84886 0.0
H1879 H 0.9626 0.24374 0.86492 0.0
H1880 H 0.94071 0.29897 0.83203 0.0
H1881 H 0.89358 0.26075 0.87319 0.0
H1882 H 0.91687 0.26929 0.88093 0.0
H1883 H 0.90818 0.248 0.86403 0.0
C1884 C 0.97068 0.29132 0.87936 0.0
C1885 C 0.9736 0.27323 0.87768 0.0
C1886 C 0.95561 0.29404 0.86993 0.0
C1887 C 0.94267 0.27865 0.85896 0.0
C1888 C 0.94558 0.26053 0.85728 0.0
H1889 H 0.84209 0.26213 0.7911 0.0
H1890 H 0.86731 0.25921 0.81085 0.0
C1891 C 0.9609 0.25788 0.86637 0.0
C1892 C 0.92631 0.28161 0.84924 0.0
H1893 H 0.88146 0.27013 0.84706 0.0
C1894 C 0.92778 0.29272 0.8354 0.0
C1895 C 0.90929 0.27362 0.85355 0.0
C1896 C 0.90677 0.26237 0.86883 0.0
C1897 C 0.91287 0.29551 0.82548 0.0
C1898 C 0.89578 0.28739 0.82968 0.0
C1899 C 0.89438 0.27644 0.84368 0.0
C1900 C 0.87928 0.28944 0.81926 0.0
C1901 C 0.91559 0.30662 0.81009 0.0
C1902 C 0.87682 0.30738 0.81782 0.0
C1903 C 0.86212 0.30903 0.80669 0.0
C1904 C 0.84929 0.2928 0.79685 0.0
C1905 C 0.85136 0.27492 0.79893 0.0
C1906 C 0.86598 0.27325 0.8101 0.0
H1907 H 0.92858 0.30752 0.80544 0.0
H1908 H 0.90523 0.3001 0.79814 0.0
H1909 H 0.915 0.32131 0.81499 0.0
H1910 H 0.88654 0.32019 0.82491 0.0
H1911 H 0.86131 0.32303 0.80496 0.0
H1912 H 0.55285 0.24445 0.60378 0.0
H1913 H 0.55054 0.21147 0.59074 0.0
H1914 H 0.59484 0.23017 0.56234 0.0
H1915 H 0.59721 0.26338 0.57531 0.0
H1916 H 0.54767 0.19195 0.55265 0.0
H1917 H 0.60879 0.19478 0.59702 0.0
H1918 H 0.59667 0.21205 0.60153 0.0
H1919 H 0.61012 0.21312 0.58345 0.0
C1920 C 0.5619 0.24158 0.59446 0.0
C1921 C 0.57525 0.25649 0.59059 0.0
C1922 C 0.56057 0.22273 0.58706 0.0
C1923 C 0.5727 0.21842 0.57585 0.0
C1924 C 0.58548 0.23326 0.57115 0.0
H1925 H 0.59107 0.10876 0.53641 0.0
H1926 H 0.59391 0.14291 0.54488 0.0
C1927 C 0.58671 0.2522 0.5784 0.0
C1928 C 0.5724 0.19836 0.56992 0.0
H1929 H 0.59468 0.1659 0.57697 0.0
C1930 C 0.55798 0.18624 0.55784 0.0
C1931 C 0.58582 0.19099 0.57688 0.0
C1932 C 0.6012 0.2033 0.59055 0.0
C1933 C 0.55671 0.16693 0.55232 0.0
C1934 C 0.57004 0.15946 0.55945 0.0
C1935 C 0.58454 0.17165 0.57144 0.0
C1936 C 0.56886 0.13893 0.55508 0.0
C1937 C 0.54116 0.15482 0.53872 0.0
C1938 C 0.55418 0.12544 0.55857 0.0
C1939 C 0.55241 0.10611 0.55345 0.0
C1940 C 0.56553 0.09982 0.5452 0.0
C1941 C 0.58073 0.11326 0.54264 0.0
C1942 C 0.58234 0.13272 0.54746 0.0
H1943 H 0.53543 0.16354 0.53039 0.0
H1944 H 0.54484 0.14383 0.52928 0.0
H1945 H 0.53081 0.14759 0.54628 0.0
H1946 H 0.54395 0.12985 0.5651 0.0
H1947 H 0.54071 0.09606 0.55598 0.0
H1948 H 0.56259 0.8043 0.37136 0.0
H1949 H 0.59088 0.81014 0.3593 0.0
H1950 H 0.60008 0.76121 0.37867 0.0
H1951 H 0.57206 0.75551 0.39104 0.0
H1952 H 0.62964 0.80747 0.38479 0.0
H1953 H 0.60081 0.76248 0.31633 0.0
H1954 H 0.58851 0.7757 0.32945 0.0
H1955 H 0.59276 0.75519 0.33675 0.0
C1956 C 0.57053 0.79464 0.3728 0.0
C1957 C 0.56495 0.77925 0.38188 0.0
C1958 C 0.58678 0.79813 0.36613 0.0
C1959 C 0.59762 0.78617 0.3682 0.0
C1960 C 0.592 0.77071 0.37708 0.0
H1961 H 0.68519 0.76465 0.3179 0.0
H1962 H 0.65982 0.76404 0.33397 0.0
C1963 C 0.57592 0.76739 0.384 0.0
C1964 C 0.6144 0.78912 0.36029 0.0
H1965 H 0.63144 0.77502 0.32188 0.0
C1966 C 0.63009 0.80051 0.371 0.0
C1967 C 0.61493 0.77997 0.34237 0.0
C1968 C 0.59841 0.76765 0.33041 0.0
C1969 C 0.64636 0.8027 0.36427 0.0
C1970 C 0.64689 0.79337 0.34631 0.0
C1971 C 0.6311 0.78217 0.33563 0.0
C1972 C 0.66359 0.7944 0.33834 0.0
C1973 C 0.66286 0.81449 0.37662 0.0
C1974 C 0.67444 0.81173 0.33558 0.0
C1975 C 0.68917 0.81216 0.32644 0.0
C1976 C 0.69335 0.79525 0.31979 0.0
C1977 C 0.68265 0.77801 0.32302 0.0
C1978 C 0.66799 0.7776 0.33212 0.0
H1979 H 0.66076 0.81683 0.39125 0.0
H1980 H 0.67362 0.80762 0.37535 0.0
H1981 H 0.66714 0.82858 0.37252 0.0
H1982 H 0.67124 0.82488 0.33996 0.0
H1983 H 0.69715 0.82573 0.32439 0.0
H1984 H 0.10383 0.29338 0.44502 0.0
H1985 H 0.0931 0.26443 0.45745 0.0
H1986 H 0.06446 0.23573 0.4043 0.0
H1987 H 0.07577 0.26419 0.39162 0.0
H1988 H 0.05978 0.24591 0.45963 0.0
H1989 H 0.08956 0.19812 0.41629 0.0
H1990 H 0.0956 0.22343 0.41712 0.0
H1991 H 0.07556 0.20853 0.40356 0.0
C1992 C 0.09556 0.28075 0.43594 0.0
C1993 C 0.09089 0.28088 0.41733 0.0
C1994 C 0.08935 0.26431 0.44305 0.0
C1995 C 0.07824 0.2479 0.43168 0.0
C1996 C 0.07344 0.24807 0.41313 0.0
H1997 H 0.03669 0.13762 0.46438 0.0
H1998 H 0.03885 0.16366 0.44688 0.0
C1999 C 0.07992 0.26435 0.40594 0.0
C2000 C 0.07135 0.23079 0.43944 0.0
H2001 H 0.07123 0.18447 0.43666 0.0
C2002 C 0.06221 0.23245 0.45456 0.0
C2003 C 0.07432 0.2132 0.43256 0.0
C2004 C 0.08442 0.2107 0.41659 0.0
C2005 C 0.0565 0.21711 0.46345 0.0
C2006 C 0.06015 0.19983 0.45707 0.0
C2007 C 0.06846 0.19783 0.4414 0.0
C2008 C 0.05758 0.18452 0.46781 0.0
C2009 C 0.04697 0.21963 0.47985 0.0
C2010 C 0.06754 0.18779 0.48511 0.0
C2011 C 0.06645 0.17308 0.49489 0.0
C2012 C 0.0554 0.15496 0.48746 0.0
C2013 C 0.04523 0.15163 0.47025 0.0
C2014 C 0.04643 0.16638 0.46035 0.0
H2015 H 0.04063 0.23129 0.47958 0.0
H2016 H 0.03682 0.20634 0.48043 0.0
H2017 H 0.05651 0.22333 0.49259 0.0
H2018 H 0.07649 0.20162 0.49085 0.0
H2019 H 0.07438 0.17575 0.50817 0.0
H2020 H 0.54471 0.25697 0.20475 0.0
H2021 H 0.57437 0.2582 0.21786 0.0
H2022 H 0.59381 0.27237 0.16809 0.0
H2023 H 0.56438 0.27132 0.15487 0.0
H2024 H 0.59445 0.23417 0.19854 0.0
H2025 H 0.62731 0.31191 0.21172 0.0
H2026 H 0.6038 0.30236 0.2099 0.0
H2027 H 0.61438 0.30183 0.18963 0.0
C2028 C 0.55537 0.26073 0.19676 0.0
C2029 C 0.5523 0.26407 0.17882 0.0
C2030 C 0.5722 0.26134 0.20422 0.0
C2031 C 0.58606 0.26552 0.1939 0.0
C2032 C 0.58317 0.2694 0.17625 0.0
H2033 H 0.69542 0.27067 0.20968 0.0
H2034 H 0.66623 0.2725 0.1984 0.0
C2035 C 0.56638 0.26875 0.16875 0.0
C2036 C 0.60341 0.26457 0.20105 0.0
H2037 H 0.64533 0.29161 0.21557 0.0
C2038 C 0.6056 0.24669 0.20242 0.0
C2039 C 0.61776 0.28097 0.20568 0.0
C2040 C 0.61578 0.30041 0.2043 0.0
C2041 C 0.62208 0.24473 0.20825 0.0
C2042 C 0.63642 0.26121 0.21325 0.0
C2043 C 0.63419 0.27908 0.21178 0.0
C2044 C 0.65389 0.26022 0.22013 0.0
C2045 C 0.62405 0.22507 0.20853 0.0
C2046 C 0.65646 0.25306 0.23622 0.0
C2047 C 0.67298 0.25175 0.24252 0.0
C2048 C 0.68714 0.25785 0.23293 0.0
C2049 C 0.68461 0.26557 0.21712 0.0
C2050 C 0.66805 0.26673 0.21074 0.0
H2051 H 0.61322 0.21399 0.19942 0.0
H2052 H 0.63672 0.22382 0.2042 0.0
H2053 H 0.62371 0.22215 0.22271 0.0
H2054 H 0.64567 0.24838 0.24381 0.0
H2055 H 0.67458 0.24564 0.25469 0.0
H2056 H 0.61493 0.89631 0.91191 0.0
H2057 H 0.60724 0.92331 0.92905 0.0
H2058 H 0.56331 0.88445 0.94546 0.0
H2059 H 0.57179 0.85761 0.92957 0.0
H2060 H 0.57909 0.93482 0.92445 0.0
H2061 H 0.58492 0.91627 0.9937 0.0
H2062 H 0.59264 0.90427 0.97464 0.0
H2063 H 0.56979 0.89735 0.97759 0.0
C2064 C 0.60395 0.89369 0.91965 0.0
C2065 C 0.59419 0.87511 0.91999 0.0
C2066 C 0.59948 0.909 0.92924 0.0
C2067 C 0.58494 0.9058 0.93882 0.0
C2068 C 0.57497 0.88718 0.93875 0.0
H2069 H 0.53097 0.98075 0.99352 0.0
H2070 H 0.53714 0.95649 0.97065 0.0
C2071 C 0.57979 0.87191 0.92971 0.0
C2072 C 0.57989 0.92192 0.94855 0.0
H2073 H 0.57013 0.93981 0.98993 0.0
C2074 C 0.5772 0.93597 0.93878 0.0
C2075 C 0.5776 0.92339 0.96729 0.0
C2076 C 0.58158 0.90961 0.97894 0.0
C2077 C 0.5721 0.95144 0.94733 0.0
C2078 C 0.56933 0.95246 0.9658 0.0
C2079 C 0.57197 0.93852 0.97557 0.0
C2080 C 0.56527 0.96879 0.97603 0.0
C2081 C 0.56995 0.96676 0.93687 0.0
C2082 C 0.57911 0.98357 0.98612 0.0
C2083 C 0.57568 0.99698 0.99931 0.0
C2084 C 0.55838 0.99575 1.00233 0.0
C2085 C 0.5444 0.98177 0.9913 0.0
C2086 C 0.54788 0.96809 0.97827 0.0
H2087 H 0.57182 0.96341 0.92225 0.0
H2088 H 0.5567 0.96879 0.93754 0.0
H2089 H 0.57966 0.98041 0.9434 0.0
H2090 H 0.59259 0.98407 0.98452 0.0
H2091 H 0.58658 0.00794 0.00756 0.0
H2092 H 0.96798 0.79558 0.69572 0.0
H2093 H 0.94194 0.79994 0.70899 0.0
H2094 H 0.91566 0.74027 0.69038 0.0
H2095 H 0.94208 0.73577 0.67814 0.0
H2096 H 0.90843 0.7935 0.6934 0.0
H2097 H 0.91215 0.74654 0.74438 0.0
H2098 H 0.92962 0.75397 0.73103 0.0
H2099 H 0.91036 0.735 0.72102 0.0
C2100 C 0.95654 0.78354 0.69446 0.0
C2101 C 0.9567 0.7654 0.68619 0.0
C2102 C 0.9418 0.78598 0.70198 0.0
C2103 C 0.92719 0.77031 0.70092 0.0
C2104 C 0.92709 0.75235 0.69174 0.0
H2105 H 0.82805 0.75517 0.73907 0.0
H2106 H 0.85379 0.75189 0.7253 0.0
C2107 C 0.94198 0.74983 0.68467 0.0
C2108 C 0.91214 0.77281 0.70969 0.0
H2109 H 0.88728 0.75827 0.74231 0.0
C2110 C 0.9038 0.7859 0.70416 0.0
C2111 C 0.90631 0.76274 0.72365 0.0
C2112 C 0.91517 0.74891 0.7305 0.0
C2113 C 0.88944 0.78907 0.71213 0.0
C2114 C 0.88368 0.77904 0.7261 0.0
C2115 C 0.89198 0.76594 0.73162 0.0
C2116 C 0.86854 0.78131 0.73474 0.0
C2117 C 0.88038 0.80274 0.70529 0.0
C2118 C 0.86868 0.7989 0.74482 0.0
C2119 C 0.85394 0.8009 0.75259 0.0
C2120 C 0.83916 0.7852 0.75056 0.0
C2121 C 0.83935 0.76747 0.74096 0.0
C2122 C 0.85395 0.76557 0.73303 0.0
H2123 H 0.88375 0.8056 0.69164 0.0
H2124 H 0.86592 0.79719 0.70428 0.0
H2125 H 0.8846 0.81645 0.71511 0.0
H2126 H 0.88011 0.81103 0.74654 0.0
H2127 H 0.85406 0.81468 0.76004 0.0
H2128 H 0.1259 0.99908 0.8301 0.0
H2129 H 0.11258 1.00023 0.85861 0.0
H2130 H 0.11857 0.05997 0.86093 0.0
H2131 H 0.13046 0.05836 0.8318 0.0
H2132 H 0.11829 0.01154 0.89143 0.0
H2133 H 0.07306 0.05313 0.87498 0.0
H2134 H 0.08509 0.04449 0.85798 0.0
H2135 H 0.09491 0.06666 0.87381 0.0
C2136 C 0.12416 0.01247 0.83647 0.0
C2137 C 0.12929 0.02856 0.82796 0.0
C2138 C 0.11647 0.0132 0.85316 0.0
C2139 C 0.11367 0.03012 0.86258 0.0
C2140 C 0.11935 0.04629 0.85424 0.0
H2141 H 0.08529 0.06249 0.97648 0.0
H2142 H 0.09899 0.06158 0.94788 0.0
C2143 C 0.12656 0.04544 0.83733 0.0
C2144 C 0.10555 0.03094 0.88107 0.0
H2145 H 0.07875 0.05152 0.90665 0.0
C2146 C 0.10958 0.0203 0.89441 0.0
C2147 C 0.09367 0.04192 0.88589 0.0
C2148 C 0.08626 0.05199 0.87232 0.0
C2149 C 0.10283 0.02071 0.91168 0.0
C2150 C 0.09179 0.03242 0.91675 0.0
C2151 C 0.08754 0.04288 0.90349 0.0
C2152 C 0.08382 0.03306 0.93509 0.0
C2153 C 0.10765 0.00851 0.92462 0.0
C2154 C 0.07055 0.01752 0.93822 0.0
C2155 C 0.06255 0.01815 0.95457 0.0
C2156 C 0.06756 0.03415 0.96904 0.0
C2157 C 0.08114 0.04965 0.96617 0.0
C2158 C 0.08894 0.04917 0.94952 0.0
H2159 H 0.11829 1.0024 0.92032 0.0
H2160 H 0.11185 0.01689 0.93876 0.0
H2161 H 0.09594 0.99665 0.92503 0.0
H2162 H 0.06595 1.00487 0.92772 0.0
H2163 H 0.05205 1.00593 0.95574 0.0
H2164 H 0.83144 0.42739 0.55551 0.0
H2165 H 0.84522 0.41772 0.58143 0.0
H2166 H 0.79932 0.3704 0.57806 0.0
H2167 H 0.78567 0.37949 0.55116 0.0
H2168 H 0.8355 0.41574 0.61375 0.0
H2169 H 0.8376 0.34463 0.5805 0.0
H2170 H 0.83291 0.36183 0.56746 0.0
H2171 H 0.81577 0.34692 0.57717 0.0
C2172 C 0.82416 0.41499 0.56036 0.0
C2173 C 0.80738 0.40423 0.55158 0.0
C2174 C 0.83216 0.40943 0.57504 0.0
C2175 C 0.82342 0.3932 0.5813 0.0
C2176 C 0.80645 0.38266 0.57292 0.0
H2177 H 0.80721 0.3443 0.66653 0.0
H2178 H 0.81159 0.36404 0.64317 0.0
C2179 C 0.79856 0.38797 0.55785 0.0
C2180 C 0.83165 0.38796 0.59734 0.0
H2181 H 0.83814 0.34968 0.61376 0.0
C2182 C 0.83659 0.40146 0.61368 0.0
C2183 C 0.8335 0.36951 0.59699 0.0
C2184 C 0.82985 0.35499 0.57951 0.0
C2185 C 0.84153 0.39626 0.63018 0.0
C2186 C 0.84131 0.37726 0.63007 0.0
C2187 C 0.83817 0.36429 0.61355 0.0
C2188 C 0.83981 0.36943 0.64675 0.0
C2189 C 0.84552 0.41051 0.64783 0.0
C2190 C 0.85441 0.36675 0.65668 0.0
C2191 C 0.85199 0.35574 0.6703 0.0
C2192 C 0.83494 0.34715 0.67368 0.0
C2193 C 0.82049 0.35095 0.66439 0.0
C2194 C 0.82295 0.36211 0.65102 0.0
H2195 H 0.84806 0.4253 0.64531 0.0
H2196 H 0.8342 0.40753 0.65563 0.0
H2197 H 0.85711 0.40922 0.6565 0.0
H2198 H 0.86746 0.3724 0.65332 0.0
H2199 H 0.86333 0.3532 0.67756 0.0
H2200 H 0.48514 0.02737 0.33666 0.0
H2201 H 0.49409 0.0211 0.36662 0.0
H2202 H 0.47186 0.06387 0.39251 0.0
H2203 H 0.46222 0.06991 0.36226 0.0
H2204 H 0.51741 0.05046 0.39085 0.0
H2205 H 0.4577 0.01964 0.42133 0.0
H2206 H 0.45766 0.01901 0.39693 0.0
H2207 H 0.45751 0.04045 0.41173 0.0
C2208 C 0.48213 0.0355 0.34869 0.0
C2209 C 0.47345 0.04954 0.34726 0.0
C2210 C 0.48698 0.03163 0.36572 0.0
C2211 C 0.48341 0.0419 0.38156 0.0
C2212 C 0.47434 0.05559 0.38027 0.0
H2213 H 0.53952 0.07124 0.48973 0.0
H2214 H 0.51907 0.06874 0.46195 0.0
C2215 C 0.4692 0.05928 0.3631 0.0
C2216 C 0.49196 0.04058 0.39929 0.0
H2217 H 0.4849 0.03018 0.44147 0.0
C2218 C 0.51032 0.0459 0.40188 0.0
C2219 C 0.4825 0.03453 0.41343 0.0
C2220 C 0.46274 0.02791 0.41074 0.0
C2221 C 0.51961 0.04568 0.41853 0.0
C2222 C 0.51021 0.04015 0.43282 0.0
C2223 C 0.49185 0.03455 0.43029 0.0
C2224 C 0.51966 0.04033 0.45048 0.0
C2225 C 0.53942 0.05144 0.42085 0.0
C2226 C 0.52637 0.02509 0.45281 0.0
C2227 C 0.53797 0.02656 0.46839 0.0
C2228 C 0.54307 0.04339 0.48138 0.0
C2229 C 0.53601 0.05846 0.47934 0.0
C2230 C 0.52419 0.05689 0.46385 0.0
H2231 H 0.54467 0.05669 0.4087 0.0
H2232 H 0.54479 0.06275 0.43316 0.0
H2233 H 0.54421 0.03905 0.42301 0.0
H2234 H 0.52307 0.01239 0.44234 0.0
H2235 H 0.54317 0.01472 0.47018 0.0
H2236 H 0.80407 0.75124 0.05344 0.0
H2237 H 0.80432 0.76533 0.08571 0.0
H2238 H 0.79749 0.71017 0.10066 0.0
H2239 H 0.7981 0.69642 0.06923 0.0
H2240 H 0.78001 0.75939 0.10749 0.0
H2241 H 0.8359 0.7392 0.13966 0.0
H2242 H 0.83136 0.73714 0.11512 0.0
H2243 H 0.82012 0.71859 0.12647 0.0
C2244 C 0.80295 0.74225 0.06371 0.0
C2245 C 0.80131 0.72274 0.0587 0.0
C2246 C 0.80305 0.75028 0.08214 0.0
C2247 C 0.8014 0.73892 0.09582 0.0
C2248 C 0.79952 0.71946 0.09067 0.0
H2249 H 0.78048 0.74329 0.20797 0.0
H2250 H 0.78263 0.73467 0.17517 0.0
C2251 C 0.79974 0.71156 0.0725 0.0
C2252 C 0.80047 0.74685 0.11527 0.0
H2253 H 0.81532 0.74599 0.15971 0.0
C2254 C 0.78796 0.75674 0.11889 0.0
C2255 C 0.81081 0.74342 0.13028 0.0
C2256 C 0.82541 0.73419 0.12766 0.0
C2257 C 0.78502 0.76256 0.13695 0.0
C2258 C 0.79484 0.75839 0.15181 0.0
C2259 C 0.80763 0.74894 0.14827 0.0
C2260 C 0.79209 0.7637 0.17117 0.0
C2261 C 0.77104 0.77257 0.14003 0.0
C2262 C 0.79655 0.78286 0.17974 0.0
C2263 C 0.79526 0.78775 0.1984 0.0
C2264 C 0.78941 0.77357 0.20871 0.0
C2265 C 0.78465 0.75444 0.20012 0.0
C2266 C 0.786 0.74953 0.18148 0.0
H2267 H 0.76242 0.77158 0.1271 0.0
H2268 H 0.76283 0.76653 0.15012 0.0
H2269 H 0.77738 0.78782 0.14573 0.0
H2270 H 0.8016 0.794 0.17216 0.0
H2271 H 0.79942 0.80258 0.20493 0.0
H2272 H 0.15247 1.00361 0.7015 0.0
H2273 H 0.13878 0.00824 0.67241 0.0
H2274 H 0.0998 0.02719 0.70029 0.0
H2275 H 0.11392 0.02329 0.72965 0.0
H2276 H 0.10979 0.99467 0.65048 0.0
H2277 H 0.11095 0.06946 0.67363 0.0
H2278 H 0.12172 0.05699 0.68781 0.0
H2279 H 0.09838 0.05356 0.68646 0.0
C2280 C 0.14093 0.00871 0.70162 0.0
C2281 C 0.13457 0.01306 0.71846 0.0
C2282 C 0.13301 0.01144 0.6847 0.0
C2283 C 0.11829 0.0187 0.68359 0.0
C2284 C 0.11146 0.02233 0.70029 0.0
H2285 H 0.05902 0.05135 0.59062 0.0
H2286 H 0.0702 0.04546 0.6205 0.0
C2287 C 0.11949 0.01977 0.7173 0.0
C2288 C 0.11026 0.02215 0.66509 0.0
H2289 H 0.0965 0.0551 0.64379 0.0
C2290 C 0.10699 0.00798 0.64917 0.0
C2291 C 0.10617 0.03935 0.66271 0.0
C2292 C 0.10962 0.05578 0.6785 0.0
C2293 C 0.09976 0.01023 0.63162 0.0
C2294 C 0.09608 0.02762 0.62911 0.0
C2295 C 0.09919 0.04173 0.64509 0.0
C2296 C 0.08908 0.03145 0.61033 0.0
C2297 C 0.09554 0.99336 0.61615 0.0
C2298 C 0.09579 0.02617 0.59396 0.0
C2299 C 0.08887 0.02895 0.57665 0.0
C2300 C 0.07546 0.03804 0.57485 0.0
C2301 C 0.06929 0.04428 0.59122 0.0
C2302 C 0.07581 0.04088 0.60851 0.0
H2303 H 0.09294 0.9798 0.62143 0.0
H2304 H 0.08391 0.99283 0.60645 0.0
H2305 H 0.10699 0.99418 0.60857 0.0
H2306 H 0.10661 0.01992 0.59443 0.0
H2307 H 0.09432 0.02423 0.56459 0.0
H2308 H 0.79476 0.40085 0.43867 0.0
H2309 H 0.80016 0.38774 0.40812 0.0
H2310 H 0.8147 0.34245 0.4299 0.0
H2311 H 0.80931 0.35523 0.46032 0.0
H2312 H 0.83514 0.37395 0.3986 0.0
H2313 H 0.76893 0.32191 0.3865 0.0
H2314 H 0.77392 0.34449 0.4019 0.0
H2315 H 0.7816 0.32554 0.40873 0.0
C2316 C 0.79889 0.38797 0.43687 0.0
C2317 C 0.80126 0.3788 0.45172 0.0
C2318 C 0.80224 0.38075 0.41956 0.0
C2319 C 0.8079 0.36432 0.41704 0.0
C2320 C 0.81044 0.35526 0.43182 0.0
H2321 H 0.80809 0.27855 0.32724 0.0
H2322 H 0.81266 0.29832 0.35777 0.0
C2323 C 0.80714 0.36244 0.44906 0.0
C2324 C 0.80947 0.35528 0.39867 0.0
H2325 H 0.78836 0.31739 0.36538 0.0
C2326 C 0.82495 0.36166 0.39116 0.0
C2327 C 0.79605 0.33937 0.38928 0.0
C2328 C 0.7791 0.33241 0.39688 0.0
C2329 C 0.82755 0.35194 0.37444 0.0
C2330 C 0.81426 0.33565 0.36528 0.0
C2331 C 0.79864 0.32969 0.37268 0.0
C2332 C 0.81571 0.3247 0.34762 0.0
C2333 C 0.84454 0.35889 0.36693 0.0
C2334 C 0.81646 0.33318 0.33204 0.0
C2335 C 0.81403 0.32199 0.31473 0.0
C2336 C 0.8105 0.30215 0.31281 0.0
C2337 C 0.81077 0.2938 0.32845 0.0
C2338 C 0.8134 0.30505 0.3458 0.0
H2339 H 0.85506 0.3681 0.37782 0.0
H2340 H 0.84905 0.34682 0.36045 0.0
H2341 H 0.84247 0.36739 0.3563 0.0
H2342 H 0.81779 0.34823 0.33315 0.0
H2343 H 0.81383 0.32877 0.30283 0.0
H2344 H 0.48121 0.05571 0.25423 0.0
H2345 H 0.48747 0.03955 0.22545 0.0
H2346 H 0.43211 0.01402 0.20806 0.0
H2347 H 0.42562 0.03033 0.23631 0.0
H2348 H 0.47513 0.99744 0.21086 0.0
H2349 H 0.45112 0.04264 0.16682 0.0
H2350 H 0.45671 0.04991 0.19139 0.0
H2351 H 0.43678 0.03187 0.18187 0.0
C2352 C 0.47038 0.04699 0.2441 0.0
C2353 C 0.45295 0.04452 0.24738 0.0
C2354 C 0.47397 0.03759 0.22787 0.0
C2355 C 0.46018 0.02569 0.21488 0.0
C2356 C 0.44282 0.0233 0.21801 0.0
H2357 H 0.48058 0.99465 0.10408 0.0
H2358 H 0.46279 0.99091 0.12921 0.0
C2359 C 0.4392 0.03278 0.23407 0.0
C2360 C 0.46395 0.01637 0.19763 0.0
H2361 H 0.46372 0.02007 0.15272 0.0
C2362 C 0.47244 1.00209 0.19802 0.0
C2363 C 0.45998 0.0223 0.18102 0.0
C2364 C 0.45072 0.03758 0.18013 0.0
C2365 C 0.47796 0.99419 0.18216 0.0
C2366 C 0.47529 1.00125 0.16582 0.0
C2367 C 0.46568 0.01459 0.16524 0.0
C2368 C 0.48516 0.99812 0.15048 0.0
C2369 C 0.48709 0.97886 0.18325 0.0
C2370 C 0.5035 1.00288 0.15415 0.0
C2371 C 0.51351 1.00459 0.13993 0.0
C2372 C 0.50537 1.00208 0.12187 0.0
C2373 C 0.48702 0.99646 0.11797 0.0
C2374 C 0.47693 0.99431 0.13225 0.0
H2375 H 0.48126 0.96948 0.1927 0.0
H2376 H 0.48632 0.97004 0.16958 0.0
H2377 H 0.50109 0.98552 0.18896 0.0
H2378 H 0.51019 1.00677 0.1681 0.0
H2379 H 0.52766 0.00943 0.14325 0.0
H2380 H 0.81762 0.71881 0.94977 0.0
H2381 H 0.81994 0.73027 0.92058 0.0
H2382 H 0.7705 0.74332 0.92326 0.0
H2383 H 0.76866 0.73292 0.95279 0.0
H2384 H 0.8026 0.71951 0.88843 0.0
H2385 H 0.79649 0.79154 0.91133 0.0
H2386 H 0.79916 0.77621 0.92733 0.0
H2387 H 0.77775 0.77408 0.91548 0.0
C2388 C 0.80735 0.72435 0.94425 0.0
C2389 C 0.79305 0.7251 0.95385 0.0
C2390 C 0.80865 0.73088 0.92746 0.0
C2391 C 0.79561 0.7382 0.91965 0.0
C2392 C 0.78114 0.73853 0.92909 0.0
H2393 H 0.77148 0.76552 0.81105 0.0
H2394 H 0.77031 0.75437 0.84058 0.0
C2395 C 0.78001 0.73236 0.94602 0.0
C2396 C 0.79679 0.74478 0.90144 0.0
H2397 H 0.7922 0.78063 0.87878 0.0
C2398 C 0.80045 0.73296 0.88648 0.0
C2399 C 0.79421 0.76246 0.89858 0.0
C2400 C 0.79189 0.77687 0.9141 0.0
C2401 C 0.80112 0.73805 0.86895 0.0
C2402 C 0.79782 0.75528 0.86604 0.0
C2403 C 0.79439 0.76723 0.88091 0.0
C2404 C 0.79845 0.76137 0.84776 0.0
C2405 C 0.80522 0.72492 0.8535 0.0
C2406 C 0.81462 0.76893 0.84187 0.0
C2407 C 0.81532 0.7754 0.82509 0.0
C2408 C 0.79986 0.7743 0.81366 0.0
C2409 C 0.78363 0.76634 0.81938 0.0
C2410 C 0.78295 0.76008 0.83632 0.0
H2411 H 0.80571 0.71115 0.85736 0.0
H2412 H 0.79522 0.72216 0.84123 0.0
H2413 H 0.81812 0.73183 0.84958 0.0
H2414 H 0.82676 0.77015 0.85044 0.0
H2415 H 0.82802 0.78156 0.82117 0.0
H2416 H 0.84071 0.12107 0.04573 0.0
H2417 H 0.86697 0.11187 0.03885 0.0
H2418 H 0.85553 0.11666 0.98212 0.0
H2419 H 0.82974 0.1271 0.98933 0.0
H2420 H 0.86718 0.08098 0.01608 0.0
H2421 H 0.90667 0.14472 0.99285 0.0
H2422 H 0.88757 0.14496 1.00403 0.0
H2423 H 0.88513 0.13429 0.98023 0.0
C2424 C 0.844 0.12037 0.03187 0.0
C2425 C 0.83348 0.12474 0.01801 0.0
C2426 C 0.85892 0.11517 0.02796 0.0
C2427 C 0.86322 0.11383 0.01004 0.0
C2428 C 0.85265 0.11815 0.99612 0.0
H2429 H 0.94462 0.06559 0.97187 0.0
H2430 H 0.92035 0.08014 0.97247 0.0
C2431 C 0.83794 0.12393 1.00018 0.0
C2432 C 0.87818 0.10668 0.006 0.0
H2433 H 0.91841 0.11842 0.99183 0.0
C2434 C 0.87836 0.08915 0.01074 0.0
C2435 C 0.89258 0.11736 0.99883 0.0
C2436 C 0.89311 0.13645 0.99382 0.0
C2437 C 0.89291 0.08226 0.00916 0.0
C2438 C 0.90752 0.09322 1.0026 0.0
C2439 C 0.9071 0.1103 0.99701 0.0
C2440 C 0.92354 0.08723 1.0021 0.0
C2441 C 0.89268 0.0635 0.01484 0.0
C2442 C 0.93348 0.08714 0.01858 0.0
C2443 C 0.94712 0.0787 0.01832 0.0
C2444 C 0.95097 0.07036 1.00154 0.0
C2445 C 0.94166 0.07162 0.98499 0.0
C2446 C 0.92797 0.08002 0.98528 0.0
H2447 H 0.87914 0.05496 0.01558 0.0
H2448 H 0.89872 0.05504 0.00512 0.0
H2449 H 0.9004 0.0662 0.02865 0.0
H2450 H 0.93015 0.09282 0.03165 0.0
H2451 H 0.95403 0.07784 0.03127 0.0
H2452 H 0.36597 0.41057 0.00768 0.0
H2453 H 0.39628 0.42821 0.00627 0.0
H2454 H 0.39613 0.46653 0.05587 0.0
H2455 H 0.36548 0.44915 0.0571 0.0
H2456 H 0.41134 0.47029 0.00651 0.0
H2457 H 0.44013 0.44399 0.06469 0.0
H2458 H 0.41888 0.43169 0.0517 0.0
H2459 H 0.42141 0.45271 0.06839 0.0
C2460 C 0.37231 0.42284 0.01827 0.0
C2461 C 0.36316 0.42839 0.03252 0.0
C2462 C 0.38971 0.43295 0.01741 0.0
C2463 C 0.3987 0.44868 0.03102 0.0
C2464 C 0.38959 0.4544 0.04522 0.0
H2465 H 0.50022 0.53166 0.05511 0.0
H2466 H 0.47076 0.51068 0.05414 0.0
C2467 C 0.37199 0.44451 0.04587 0.0
C2468 C 0.41759 0.45893 0.03041 0.0
H2469 H 0.45936 0.46791 0.05272 0.0
C2470 C 0.42184 0.46966 0.01655 0.0
C2471 C 0.43144 0.45802 0.04331 0.0
C2472 C 0.42789 0.44589 0.05782 0.0
C2473 C 0.43933 0.47994 0.01571 0.0
C2474 C 0.45313 0.47941 0.02892 0.0
C2475 C 0.4489 0.46839 0.04255 0.0
C2476 C 0.47172 0.49138 0.02966 0.0
C2477 C 0.44293 0.49185 1.00104 0.0
C2478 C 0.48253 0.48743 0.01645 0.0
C2479 C 0.49974 0.49932 0.01721 0.0
C2480 C 0.50638 0.51561 0.03102 0.0
C2481 C 0.4956 0.51927 0.04429 0.0
C2482 C 0.47866 0.50726 0.04374 0.0
H2483 H 0.43068 0.4924 0.993 0.0
H2484 H 0.45072 0.50655 0.00733 0.0
H2485 H 0.45081 0.48583 0.99148 0.0
H2486 H 0.4776 0.47524 0.00546 0.0
H2487 H 0.50759 0.49616 0.00667 0.0
H2488 H 0.41076 0.62989 0.77632 0.0
H2489 H 0.39785 0.65682 0.77789 0.0
H2490 H 0.3636 0.62911 0.72773 0.0
H2491 H 0.37632 0.60224 0.72626 0.0
H2492 H 0.3952 0.68433 0.75897 0.0
H2493 H 0.32664 0.64202 0.75473 0.0
H2494 H 0.34468 0.63189 0.75808 0.0
H2495 H 0.33659 0.6344 0.73542 0.0
C2496 C 0.40038 0.6293 0.76559 0.0
C2497 C 0.39477 0.61312 0.75121 0.0
C2498 C 0.39288 0.64506 0.76648 0.0
C2499 C 0.37906 0.64563 0.7532 0.0
C2500 C 0.37366 0.62956 0.73872 0.0
H2501 H 0.30866 0.7212 0.73577 0.0
H2502 H 0.32351 0.69625 0.73583 0.0
C2503 C 0.38121 0.6139 0.73777 0.0
C2504 C 0.37059 0.66274 0.75428 0.0
H2505 H 0.33093 0.67393 0.75139 0.0
C2506 C 0.3811 0.68188 0.75728 0.0
C2507 C 0.3521 0.66055 0.75229 0.0
C2508 C 0.33932 0.64116 0.75014 0.0
C2509 C 0.37406 0.69801 0.75748 0.0
C2510 C 0.35545 0.69583 0.75535 0.0
C2511 C 0.34504 0.67662 0.75279 0.0
C2512 C 0.34639 0.71256 0.75524 0.0
C2513 C 0.38708 0.7172 0.75926 0.0
C2514 C 0.35336 0.73122 0.76599 0.0
C2515 C 0.34495 0.74613 0.76529 0.0
C2516 C 0.32851 0.74323 0.75451 0.0
C2517 C 0.32121 0.72454 0.74432 0.0
C2518 C 0.32989 0.70988 0.74448 0.0
H2519 H 0.39976 0.71597 0.7549 0.0
H2520 H 0.38203 0.72627 0.75082 0.0
H2521 H 0.38988 0.72431 0.77388 0.0
H2522 H 0.36528 0.7345 0.77546 0.0
H2523 H 0.3512 0.75994 0.77373 0.0
H2524 H 0.23424 0.64722 0.48999 0.0
H2525 H 0.20259 0.63707 0.49088 0.0
H2526 H 0.20859 0.58975 0.51562 0.0
H2527 H 0.24022 0.59967 0.51468 0.0
H2528 H 0.17619 0.58865 0.48195 0.0
H2529 H 0.18968 0.63841 0.54928 0.0
H2530 H 0.20216 0.64418 0.53087 0.0
H2531 H 0.20518 0.62563 0.54258 0.0
C2532 C 0.22869 0.63436 0.49513 0.0
C2533 C 0.23948 0.62421 0.50236 0.0
C2534 C 0.21075 0.62864 0.49561 0.0
C2535 C 0.20362 0.61285 0.5034 0.0
C2536 C 0.21412 0.60194 0.50949 0.0
H2537 H 0.1113 0.57174 0.54997 0.0
H2538 H 0.14127 0.58384 0.54348 0.0
C2539 C 0.23206 0.60754 0.50886 0.0
C2540 C 0.18558 0.60894 0.50707 0.0
H2541 H 0.16065 0.61977 0.53952 0.0
C2542 C 0.17263 0.59548 0.49441 0.0
C2543 C 0.18141 0.61797 0.52345 0.0
C2544 C 0.19527 0.63239 0.53742 0.0
C2545 C 0.1553 0.59044 0.49792 0.0
C2546 C 0.1511 0.59946 0.51435 0.0
C2547 C 0.16408 0.6131 0.52691 0.0
C2548 C 0.13342 0.59414 0.51921 0.0
C2549 C 0.1418 0.5751 0.48438 0.0
C2550 C 0.11944 0.59663 0.50799 0.0
C2551 C 0.10242 0.58957 0.51151 0.0
C2552 C 0.09938 0.58035 0.52649 0.0
C2553 C 0.11347 0.57895 0.53841 0.0
C2554 C 0.13048 0.58576 0.53471 0.0
H2555 H 0.14799 0.56679 0.47467 0.0
H2556 H 0.13313 0.56519 0.49162 0.0
H2557 H 0.13351 0.58172 0.47622 0.0
H2558 H 0.12166 0.60349 0.49622 0.0
H2559 H 0.09164 0.59094 0.50233 0.0
H2560 H 0.71245 0.00939 0.73874 0.0
H2561 H 0.72323 0.98238 0.74398 0.0
H2562 H 0.70426 0.98453 0.79663 0.0
H2563 H 0.69237 0.01069 0.79076 0.0
H2564 H 0.74755 0.98268 0.77002 0.0
H2565 H 0.68622 0.92916 0.77678 0.0
H2566 H 0.68608 0.95072 0.76841 0.0
H2567 H 0.69036 0.95107 0.79266 0.0
C2568 C 0.71053 1.00393 0.75134 0.0
C2569 C 0.70175 0.01188 0.76443 0.0
C2570 C 0.71657 0.98855 0.75428 0.0
C2571 C 0.71425 0.98137 0.77055 0.0
C2572 C 0.70565 0.98952 0.78375 0.0
H2573 H 0.76192 0.90093 0.81264 0.0
H2574 H 0.74631 0.92509 0.81009 0.0
C2575 C 0.6991 1.00453 0.78052 0.0
C2576 C 0.72204 0.96625 0.77414 0.0
H2577 H 0.713 0.92162 0.78397 0.0
C2578 C 0.73998 0.96931 0.77301 0.0
C2579 C 0.71206 0.94896 0.7782 0.0
C2580 C 0.69259 0.94469 0.77892 0.0
C2581 C 0.74823 0.95533 0.77551 0.0
C2582 C 0.73823 0.93803 0.77934 0.0
C2583 C 0.72044 0.93507 0.78102 0.0
C2584 C 0.746 0.92253 0.78071 0.0
C2585 C 0.76751 0.95903 0.77383 0.0
C2586 C 0.75049 0.91316 0.76491 0.0
C2587 C 0.75946 0.89964 0.7663 0.0
C2588 C 0.7639 0.8953 0.78353 0.0
C2589 C 0.75879 0.90426 0.79926 0.0
C2590 C 0.74982 0.91785 0.79784 0.0
H2591 H 0.77403 0.97438 0.77465 0.0
H2592 H 0.77434 0.95378 0.78475 0.0
H2593 H 0.76904 0.95132 0.76035 0.0
H2594 H 0.74749 0.91673 0.7516 0.0
H2595 H 0.76344 0.89305 0.75401 0.0
H2596 H 0.75566 0.90216 0.51221 0.0
H2597 H 0.72893 0.9121 0.50553 0.0
H2598 H 0.74845 0.96031 0.54958 0.0
H2599 H 0.77499 0.95059 0.55631 0.0
H2600 H 0.70309 0.91921 0.5294 0.0
H2601 H 0.73731 0.98361 0.50419 0.0
H2602 H 0.74662 0.96405 0.50571 0.0
H2603 H 0.74781 0.9814 0.52585 0.0
C2604 C 0.75429 0.91493 0.52042 0.0
C2605 C 0.76764 0.92567 0.53471 0.0
C2606 C 0.73894 0.92054 0.51663 0.0
C2607 C 0.73673 0.9371 0.5269 0.0
C2608 C 0.74993 0.94764 0.54127 0.0
H2609 H 0.66687 1.00351 0.54841 0.0
H2610 H 0.68931 0.98657 0.54665 0.0
C2611 C 0.76514 0.94202 0.54513 0.0
C2612 C 0.72088 0.94378 0.52273 0.0
H2613 H 0.70904 0.98278 0.51303 0.0
C2614 C 0.70432 0.93295 0.52549 0.0
C2615 C 0.72235 0.96161 0.5174 0.0
C2616 C 0.73944 0.97328 0.51292 0.0
C2617 C 0.68952 0.94004 0.52416 0.0
C2618 C 0.69135 0.9584 0.52002 0.0
C2619 C 0.70768 0.96878 0.51638 0.0
C2620 C 0.67699 0.96784 0.52104 0.0
C2621 C 0.67217 0.92833 0.52799 0.0
C2622 C 0.66253 0.96298 0.50716 0.0
C2623 C 0.64958 0.97272 0.50811 0.0
C2624 C 0.65079 0.98742 0.52304 0.0
C2625 C 0.66528 0.99208 0.5369 0.0
C2626 C 0.67822 0.98248 0.53586 0.0
H2627 H 0.67303 0.91468 0.53188 0.0
H2628 H 0.66742 0.93648 0.53923 0.0
H2629 H 0.66228 0.92521 0.51558 0.0
H2630 H 0.66138 0.95182 0.49551 0.0
H2631 H 0.6386 0.96871 0.49721 0.0
H2632 H 0.37683 0.51026 0.76947 0.0
H2633 H 0.36171 0.47703 0.7709 0.0
H2634 H 0.40241 0.45875 0.74567 0.0
H2635 H 0.41791 0.49168 0.74554 0.0
H2636 H 0.34573 0.44577 0.75175 0.0
H2637 H 0.40335 0.42675 0.78113 0.0
H2638 H 0.40448 0.45081 0.77883 0.0
H2639 H 0.40675 0.43396 0.75958 0.0
C2640 C 0.38257 0.49918 0.76416 0.0
C2641 C 0.39883 0.50421 0.75733 0.0
C2642 C 0.37386 0.47985 0.76505 0.0
C2643 C 0.38083 0.46446 0.75904 0.0
C2644 C 0.39668 0.46962 0.75145 0.0
H2645 H 0.34144 0.33566 0.74875 0.0
H2646 H 0.35873 0.36845 0.74768 0.0
C2647 C 0.40554 0.48883 0.751 0.0
C2648 C 0.37145 0.44337 0.76018 0.0
H2649 H 0.37798 0.401 0.76955 0.0
C2650 C 0.353 0.43624 0.75584 0.0
C2651 C 0.38028 0.42995 0.76535 0.0
C2652 C 0.39976 0.4358 0.77166 0.0
C2653 C 0.34354 0.417 0.75613 0.0
C2654 C 0.35232 0.40362 0.76128 0.0
C2655 C 0.3708 0.41063 0.7655 0.0
C2656 C 0.34252 0.38283 0.76284 0.0
C2657 C 0.324 0.41117 0.7502 0.0
C2658 C 0.32779 0.37898 0.77234 0.0
C2659 C 0.31783 0.36019 0.7728 0.0
C2660 C 0.32215 0.34387 0.76435 0.0
C2661 C 0.3375 0.34749 0.75568 0.0
C2662 C 0.34744 0.36653 0.75497 0.0
H2663 H 0.32022 0.42019 0.74081 0.0
H2664 H 0.31919 0.39613 0.74311 0.0
H2665 H 0.31726 0.41299 0.76247 0.0
H2666 H 0.32372 0.39063 0.77942 0.0
H2667 H 0.30632 0.35844 0.77976 0.0
H2668 H 0.16854 0.60999 0.27813 0.0
H2669 H 0.18334 0.64334 0.27834 0.0
H2670 H 0.23339 0.63102 0.28221 0.0
H2671 H 0.21891 0.5978 0.28201 0.0
H2672 H 0.22638 0.67001 0.30401 0.0
H2673 H 0.20968 0.64741 0.22778 0.0
H2674 H 0.19435 0.63854 0.24292 0.0
H2675 H 0.21378 0.63077 0.24181 0.0
C2676 C 0.18273 0.61454 0.2796 0.0
C2677 C 0.19263 0.60142 0.27969 0.0
C2678 C 0.19107 0.63347 0.2798 0.0
C2679 C 0.20922 0.63914 0.28016 0.0
C2680 C 0.21929 0.62654 0.28204 0.0
H2681 H 0.28923 0.72849 0.2551 0.0
H2682 H 0.27078 0.69734 0.25881 0.0
C2683 C 0.21101 0.60766 0.28188 0.0
C2684 C 0.21758 0.65723 0.27559 0.0
H2685 H 0.2292 0.67761 0.23897 0.0
C2686 C 0.22686 0.6719 0.28986 0.0
C2687 C 0.21813 0.65906 0.25702 0.0
C2688 C 0.20847 0.64316 0.24141 0.0
C2689 C 0.23717 0.68867 0.28593 0.0
C2690 C 0.23791 0.69034 0.26739 0.0
C2691 C 0.22842 0.67582 0.25312 0.0
C2692 C 0.24804 0.70757 0.26268 0.0
C2693 C 0.24742 0.70438 0.30143 0.0
C2694 C 0.24079 0.72281 0.26325 0.0
C2695 C 0.25117 0.74026 0.26136 0.0
C2696 C 0.2686 0.74222 0.2587 0.0
C2697 C 0.27563 0.72677 0.25705 0.0
C2698 C 0.26526 0.70927 0.25915 0.0
H2699 H 0.2464 0.70009 0.31506 0.0
H2700 H 0.26146 0.70865 0.29953 0.0
H2701 H 0.24244 0.71702 0.30129 0.0
H2702 H 0.22743 0.72137 0.26597 0.0
H2703 H 0.24581 0.75235 0.26258 0.0
H2704 H 0.51582 0.70476 0.42998 0.0
H2705 H 0.51895 0.67744 0.44363 0.0
H2706 H 0.5565 0.71515 0.48764 0.0
H2707 H 0.55369 0.74246 0.47393 0.0
H2708 H 0.55243 0.66762 0.45221 0.0
H2709 H 0.51883 0.68009 0.51322 0.0
H2710 H 0.5152 0.68979 0.49281 0.0
H2711 H 0.53488 0.70039 0.50876 0.0
C2712 C 0.52462 0.70726 0.44266 0.0
C2713 C 0.53445 0.72585 0.45087 0.0
C2714 C 0.52645 0.69161 0.45041 0.0
C2715 C 0.53786 0.69422 0.46675 0.0
C2716 C 0.5475 0.71277 0.47512 0.0
H2717 H 0.57094 0.61624 0.53123 0.0
H2718 H 0.56828 0.64452 0.51888 0.0
C2719 C 0.5459 0.72838 0.46722 0.0
C2720 C 0.54013 0.67757 0.47478 0.0
H2721 H 0.53319 0.65583 0.51198 0.0
C2722 C 0.54819 0.66503 0.46525 0.0
C2723 C 0.53462 0.67416 0.49182 0.0
C2724 C 0.52527 0.68669 0.50226 0.0
C2725 C 0.55104 0.64937 0.47241 0.0
C2726 C 0.54557 0.64601 0.48945 0.0
C2727 C 0.53753 0.65852 0.499 0.0
C2728 C 0.54731 0.62902 0.4971 0.0
C2729 C 0.56005 0.63656 0.46181 0.0
C2730 C 0.53632 0.61097 0.48908 0.0
C2731 C 0.5376 0.59492 0.49627 0.0
C2732 C 0.55005 0.59645 0.51155 0.0
C2733 C 0.5612 0.61455 0.51949 0.0
C2734 C 0.55969 0.63071 0.51245 0.0
H2735 H 0.56609 0.64279 0.45047 0.0
H2736 H 0.57039 0.63368 0.47111 0.0
H2737 H 0.55033 0.62276 0.45584 0.0
H2738 H 0.52666 0.60931 0.47727 0.0
H2739 H 0.52896 0.58121 0.48963 0.0
H2740 H 0.63206 0.32829 0.68359 0.0
H2741 H 0.65956 0.32556 0.69929 0.0
H2742 H 0.66843 0.29449 0.64883 0.0
H2743 H 0.642 0.29888 0.63295 0.0
H2744 H 0.67058 0.29957 0.70821 0.0
H2745 H 0.71597 0.32605 0.66013 0.0
H2746 H 0.69377 0.32768 0.65792 0.0
H2747 H 0.69857 0.30584 0.64888 0.0
C2748 C 0.64015 0.3213 0.6758 0.0
C2749 C 0.63503 0.31427 0.65689 0.0
C2750 C 0.6559 0.31958 0.6848 0.0
C2751 C 0.66677 0.31027 0.67533 0.0
C2752 C 0.66116 0.30265 0.65653 0.0
H2753 H 0.76339 0.28103 0.71949 0.0
H2754 H 0.73735 0.28173 0.69885 0.0
C2755 C 0.64581 0.305 0.6474 0.0
C2756 C 0.68339 0.30788 0.6853 0.0
H2757 H 0.72705 0.31143 0.68296 0.0
C2758 C 0.68287 0.30234 0.70259 0.0
C2759 C 0.69973 0.31113 0.67821 0.0
C2760 C 0.70211 0.31817 0.66036 0.0
C2761 C 0.69785 0.30018 0.71286 0.0
C2762 C 0.71414 0.30362 0.70585 0.0
C2763 C 0.71465 0.30863 0.68839 0.0
C2764 C 0.73095 0.3038 0.71724 0.0
C2765 C 0.69598 0.29417 0.73123 0.0
C2766 C 0.73666 0.31646 0.73402 0.0
C2767 C 0.75145 0.31617 0.74556 0.0
C2768 C 0.76134 0.30336 0.74081 0.0
C2769 C 0.75632 0.29128 0.72353 0.0
C2770 C 0.74128 0.29156 0.71182 0.0
H2771 H 0.68221 0.28642 0.73205 0.0
H2772 H 0.70453 0.28496 0.734 0.0
H2773 H 0.69985 0.30699 0.7422 0.0
H2774 H 0.72941 0.32642 0.73846 0.0
H2775 H 0.75484 0.32574 0.75871 0.0
H2776 H 0.99892 0.32429 0.962 0.0
H2777 H 1.0032 0.35721 0.97631 0.0
H2778 H 0.05577 0.37174 0.9623 0.0
H2779 H 0.05121 0.33875 0.94705 0.0
H2780 H 0.02475 0.37851 0.00457 0.0
H2781 H 0.03857 0.41225 0.94378 0.0
H2782 H 0.03082 0.38685 0.94196 0.0
H2783 H 0.05359 0.39912 0.94964 0.0
C2784 C 0.01143 0.33445 0.96197 0.0
C2785 C 0.02475 0.32889 0.95342 0.0
C2786 C 0.01385 0.35332 0.97014 0.0
C2787 C 0.02971 0.36709 0.97018 0.0
C2788 C 0.04323 0.36152 0.96202 0.0
H2789 H 0.06637 0.48282 0.02991 0.0
H2790 H 0.06322 0.44993 0.01609 0.0
C2791 C 0.04069 0.34262 0.95349 0.0
C2792 C 0.03197 0.38705 0.97925 0.0
H2793 H 0.04163 0.43296 0.97228 0.0
C2794 C 0.02839 0.39036 0.99743 0.0
C2795 C 0.03669 0.4026 0.96997 0.0
C2796 C 0.03998 0.40005 0.95021 0.0
C2797 C 0.02937 0.40869 0.00653 0.0
C2798 C 0.03414 0.42408 0.99728 0.0
C2799 C 0.03791 0.42097 0.97923 0.0
C2800 C 0.03559 0.44365 0.00634 0.0
C2801 C 0.02533 0.41162 0.02599 0.0
C2802 C 0.02095 0.4508 0.00564 0.0
C2803 C 0.02265 0.46967 0.01354 0.0
C2804 C 0.03905 0.4816 0.02224 0.0
C2805 C 0.05353 0.47408 0.02333 0.0
C2806 C 0.05181 0.4553 0.01539 0.0
H2807 H 0.02213 0.39818 0.03146 0.0
H2808 H 0.03675 0.42192 0.03501 0.0
H2809 H 0.01406 0.41777 0.02656 0.0
H2810 H 0.0083 0.44188 0.9987 0.0
H2811 H 0.01125 0.47501 0.01239 0.0
H2812 H 0.03097 0.82709 0.16965 0.0
H2813 H 1.00211 0.82082 0.18036 0.0
H2814 H 0.98867 0.76312 0.15079 0.0
H2815 H 0.01793 0.76901 0.14142 0.0
H2816 H 0.97025 0.8116 0.16394 0.0
H2817 H 0.97558 0.75123 0.19794 0.0
H2818 H 0.99396 0.76543 0.18932 0.0
H2819 H 0.97719 0.74711 0.17391 0.0
C2820 C 0.02186 0.81305 0.16565 0.0
C2821 C 0.02672 0.79843 0.15504 0.0
C2822 C 1.00536 0.80945 0.1717 0.0
C2823 C 0.99327 0.79128 0.16688 0.0
C2824 C 0.99792 0.77697 0.15547 0.0
H2825 H 0.88861 0.75328 0.20243 0.0
H2826 H 0.91368 0.75406 0.18527 0.0
C2827 C 0.0146 0.7804 0.14996 0.0
C2828 C 0.97582 0.78754 0.17362 0.0
H2829 H 0.94873 0.75901 0.1974 0.0
C2830 C 0.96562 0.80009 0.17126 0.0
C2831 C 0.96942 0.77225 0.18287 0.0
C2832 C 0.97967 0.75834 0.1863 0.0
C2833 C 0.94962 0.79818 0.17829 0.0
C2834 C 0.94368 0.78348 0.18826 0.0
C2835 C 0.95336 0.77035 0.18987 0.0
C2836 C 0.92838 0.78261 0.19847 0.0
C2837 C 0.93925 0.81201 0.17502 0.0
C2838 C 0.92849 0.79814 0.21188 0.0
C2839 C 0.91427 0.79776 0.22156 0.0
C2840 C 0.89961 0.78172 0.21826 0.0
C2841 C 0.89969 0.76587 0.20523 0.0
C2842 C 0.91397 0.76632 0.1954 0.0
H2843 H 0.94216 0.81788 0.16241 0.0
H2844 H 0.92492 0.80523 0.17372 0.0
H2845 H 0.94291 0.82408 0.18678 0.0
H2846 H 0.9397 0.8106 0.21497 0.0
H2847 H 0.91487 0.80999 0.23185 0.0
H2848 H 0.50992 0.29124 0.09043 0.0
H2849 H 0.52225 0.32127 0.08021 0.0
H2850 H 0.53505 0.35047 0.13655 0.0
H2851 H 0.52232 0.32048 0.14685 0.0
H2852 H 0.51253 0.36132 0.09728 0.0
H2853 H 0.58132 0.35602 0.1029 0.0
H2854 H 0.56291 0.33496 0.09794 0.0
H2855 H 0.56775 0.34948 0.12034 0.0
C2856 C 0.51502 0.30417 0.10055 0.0
C2857 C 0.51493 0.30383 0.11933 0.0
C2858 C 0.52216 0.32116 0.09476 0.0
C2859 C 0.52962 0.33779 0.10772 0.0
C2860 C 0.52929 0.33761 0.12647 0.0
H2861 H 0.57076 0.45035 0.08171 0.0
H2862 H 0.56434 0.42465 0.0995 0.0
C2863 C 0.52185 0.32065 0.13227 0.0
C2864 C 0.53747 0.35541 0.10143 0.0
H2865 H 0.57557 0.38117 0.0897 0.0
C2866 C 0.52634 0.3659 0.09589 0.0
C2867 C 0.55546 0.361 0.09961 0.0
C2868 C 0.56768 0.34985 0.10547 0.0
C2869 C 0.53274 0.38182 0.08802 0.0
C2870 C 0.55062 0.38713 0.08571 0.0
C2871 C 0.56188 0.37694 0.09169 0.0
C2872 C 0.55726 0.40228 0.07558 0.0
C2873 C 0.52028 0.39246 0.08153 0.0
C2874 C 0.55572 0.39787 0.05644 0.0
C2875 C 0.55924 0.41237 0.04631 0.0
C2876 C 0.56432 0.43142 0.05525 0.0
C2877 C 0.56672 0.43574 0.07454 0.0
C2878 C 0.56319 0.42118 0.08468 0.0
H2879 H 0.50704 0.38728 0.08556 0.0
H2880 H 0.52558 0.40785 0.08727 0.0
H2881 H 0.51898 0.39078 0.06633 0.0
H2882 H 0.55097 0.38325 0.04933 0.0
H2883 H 0.55704 0.40867 0.03146 0.0
H2884 H 0.05725 0.35103 0.35644 0.0
H2885 H 0.02805 0.34657 0.33961 0.0
H2886 H 0.01157 0.28975 0.3512 0.0
H2887 H 0.0403 0.2947 0.36896 0.0
H2888 H 0.0111 0.32158 0.30985 0.0
H2889 H 0.97286 0.31003 0.36781 0.0
H2890 H 0.99647 0.31854 0.37115 0.0
H2891 H 0.98565 0.29361 0.36368 0.0
C2892 C 0.04728 0.33767 0.35536 0.0
C2893 C 0.05068 0.32322 0.36393 0.0
C2894 C 0.0307 0.33513 0.34584 0.0
C2895 C 0.01759 0.31798 0.34455 0.0
C2896 C 0.02131 0.3033 0.3526 0.0
H2897 H 0.90892 0.28135 0.29211 0.0
H2898 H 0.93805 0.28089 0.30564 0.0
C2899 C 0.03769 0.30605 0.36254 0.0
C2900 C 1.00016 0.31524 0.33435 0.0
H2901 H 0.95655 0.30416 0.33818 0.0
C2902 C 0.99916 0.31779 0.31603 0.0
C2903 C 0.98465 0.3102 0.34251 0.0
C2904 C 0.98494 0.30812 0.36241 0.0
C2905 C 0.98302 0.31548 0.30558 0.0
C2906 C 0.96757 0.31062 0.31377 0.0
C2907 C 0.9685 0.3077 0.33196 0.0
C2908 C 0.95046 0.31022 0.3043 0.0
C2909 C 0.98266 0.3183 0.28589 0.0
C2910 C 0.94799 0.32687 0.29926 0.0
C2911 C 0.93153 0.32717 0.29161 0.0
C2912 C 0.91725 0.31086 0.28904 0.0
C2913 C 0.91976 0.2941 0.29397 0.0
C2914 C 0.93631 0.2938 0.30161 0.0
H2915 H 0.99444 0.31593 0.28012 0.0
H2916 H 0.97076 0.3086 0.27711 0.0
H2917 H 0.98259 0.33314 0.2853 0.0
H2918 H 0.95867 0.33982 0.30179 0.0
H2919 H 0.92986 0.3404 0.28835 0.0
H2920 H 0.96652 0.69352 0.61633 0.0
H2921 H 0.97654 0.66722 0.6006 0.0
H2922 H 0.03036 0.69911 0.62023 0.0
H2923 H 0.02048 0.72484 0.63609 0.0
H2924 H 1.00012 0.67047 0.57389 0.0
H2925 H 0.02713 0.64797 0.6358 0.0
H2926 H 0.01227 0.66267 0.63683 0.0
H2927 H 0.03501 0.6728 0.63512 0.0
C2928 C 0.98041 0.69465 0.61724 0.0
C2929 C 0.99282 0.71074 0.62741 0.0
C2930 C 0.98609 0.67981 0.60841 0.0
C2931 C 1.00411 0.68126 0.60979 0.0
C2932 C 0.01642 0.69762 0.61956 0.0
H2933 H 0.05968 0.6048 0.55845 0.0
H2934 H 0.05392 0.63192 0.5778 0.0
C2935 C 0.01079 0.71225 0.62843 0.0
C2936 C 0.01029 0.66613 0.60025 0.0
H2937 H 0.03263 0.63383 0.60697 0.0
C2938 C 0.00715 0.66237 0.58107 0.0
C2939 C 0.01991 0.65618 0.60985 0.0
C2940 C 0.0237 0.65998 0.63055 0.0
C2941 C 0.01311 0.64843 0.57108 0.0
C2942 C 0.02195 0.63782 0.58069 0.0
C2943 C 0.02571 0.64205 0.59984 0.0
C2944 C 0.0257 0.62105 0.57106 0.0
C2945 C 0.00979 0.64507 0.55037 0.0
C2946 C 0.01166 0.60595 0.56178 0.0
C2947 C 0.01487 0.59083 0.55071 0.0
C2948 C 0.03215 0.59057 0.54916 0.0
C2949 C 0.04626 0.60496 0.55953 0.0
C2950 C 0.04302 0.62033 0.57045 0.0
H2951 H 0.0079 0.65785 0.54531 0.0
H2952 H 0.02081 0.64109 0.54426 0.0
H2953 H 0.99766 0.63328 0.54544 0.0
H2954 H 0.99822 0.60622 0.5626 0.0
H2955 H 1.00387 0.5796 0.543 0.0
H2956 H 0.64122 0.7959 0.87405 0.0
H2957 H 0.66399 0.78996 0.85567 0.0
H2958 H 0.66355 0.83908 0.83132 0.0
H2959 H 0.6407 0.84489 0.84928 0.0
H2960 H 0.65678 0.78872 0.81161 0.0
H2961 H 0.71743 0.83955 0.85224 0.0
H2962 H 0.69865 0.82905 0.86285 0.0
H2963 H 0.6978 0.84723 0.84972 0.0
C2964 C 0.6463 0.80559 0.86504 0.0
C2965 C 0.63936 0.82079 0.86293 0.0
C2966 C 0.65914 0.80215 0.85457 0.0
C2967 C 0.66526 0.81416 0.84234 0.0
C2968 C 0.65888 0.82979 0.84082 0.0
H2969 H 0.74542 0.82291 0.77246 0.0
H2970 H 0.72093 0.82789 0.78809 0.0
C2971 C 0.6459 0.83304 0.85101 0.0
C2972 C 0.67745 0.80978 0.83008 0.0
H2973 H 0.72003 0.82366 0.82313 0.0
C2974 C 0.67065 0.7962 0.81407 0.0
C2975 C 0.69532 0.81992 0.83343 0.0
C2976 C 0.70287 0.83473 0.85052 0.0
C2977 C 0.68144 0.79259 0.801 0.0
C2978 C 0.69942 0.8026 0.80441 0.0
C2979 C 0.70617 0.81614 0.82054 0.0
C2980 C 0.71179 0.79876 0.79195 0.0
C2981 C 0.67341 0.77844 0.78357 0.0
C2982 C 0.71424 0.7806 0.78848 0.0
C2983 C 0.72797 0.77766 0.7793 0.0
C2984 C 0.73966 0.79298 0.77393 0.0
C2985 C 0.73659 0.81091 0.77651 0.0
C2986 C 0.72268 0.81376 0.78544 0.0
H2987 H 0.65914 0.7768 0.78046 0.0
H2988 H 0.67986 0.78271 0.77166 0.0
H2989 H 0.67504 0.76436 0.78526 0.0
H2990 H 0.70624 0.76898 0.79383 0.0
H2991 H 0.73017 0.76373 0.77771 0.0
H2992 H 0.45215 0.58348 0.70081 0.0
H2993 H 0.46728 0.58237 0.67335 0.0
H2994 H 0.49162 0.54204 0.6922 0.0
H2995 H 0.47702 0.54355 0.71985 0.0
H2996 H 0.5059 0.58943 0.6686 0.0
H2997 H 0.4684 0.51536 0.63819 0.0
H2998 H 0.46071 0.52969 0.65566 0.0
H2999 H 0.47803 0.51951 0.66183 0.0
C3000 C 0.46077 0.5744 0.6993 0.0
C3001 C 0.46308 0.56365 0.71313 0.0
C3002 C 0.46957 0.57377 0.68334 0.0
C3003 C 0.48077 0.56192 0.67997 0.0
C3004 C 0.48311 0.55125 0.69381 0.0
H3005 H 0.5356 0.52754 0.58483 0.0
H3006 H 0.52076 0.52974 0.61234 0.0
C3007 C 0.47468 0.55222 0.70995 0.0
C3008 C 0.48977 0.56057 0.66222 0.0
H3009 H 0.4913 0.52984 0.62279 0.0
C3010 C 0.50253 0.57636 0.6586 0.0
C3011 C 0.48604 0.54363 0.64878 0.0
C3012 C 0.47248 0.52605 0.6511 0.0
C3013 C 0.51153 0.57563 0.64272 0.0
C3014 C 0.50747 0.55877 0.62894 0.0
C3015 C 0.49474 0.54297 0.6327 0.0
C3016 C 0.51625 0.5571 0.61095 0.0
C3017 C 0.52601 0.59293 0.64149 0.0
C3018 C 0.51877 0.57124 0.59973 0.0
C3019 C 0.52733 0.56988 0.58369 0.0
C3020 C 0.53343 0.55403 0.57748 0.0
C3021 C 0.53064 0.5397 0.5884 0.0
C3022 C 0.52217 0.5411 0.60452 0.0
H3023 H 0.53163 0.60161 0.65529 0.0
H3024 H 0.53677 0.58898 0.63485 0.0
H3025 H 0.5206 0.60198 0.63333 0.0
H3026 H 0.51416 0.58361 0.60335 0.0
H3027 H 0.52953 0.5816 0.5763 0.0
H3028 H 0.81121 0.18905 0.96497 0.0
H3029 H 0.79823 0.19392 0.93534 0.0
H3030 H 0.74659 0.17726 0.95153 0.0
H3031 H 0.75953 0.17347 0.98125 0.0
H3032 H 0.77195 0.17132 0.90687 0.0
H3033 H 0.75185 0.23154 0.9446 0.0
H3034 H 0.76637 0.22029 0.95563 0.0
H3035 H 0.74323 0.20876 0.95072 0.0
C3036 C 0.79714 0.18651 0.96205 0.0
C3037 C 0.78633 0.18164 0.97533 0.0
C3038 C 0.78973 0.18906 0.94522 0.0
C3039 C 0.77152 0.18629 0.9416 0.0
C3040 C 0.76068 0.17991 0.95436 0.0
H3041 H 0.74001 0.24158 0.85255 0.0
H3042 H 0.73307 0.21765 0.87248 0.0
C3043 C 0.76808 0.17787 0.97126 0.0
C3044 C 0.76416 0.19201 0.92535 0.0
H3045 H 0.74865 0.22751 0.91268 0.0
C3046 C 0.7664 0.18327 0.90804 0.0
C3047 C 0.75678 0.2075 0.92706 0.0
C3048 C 0.75449 0.21769 0.94548 0.0
C3049 C 0.76282 0.19072 0.89245 0.0
C3050 C 0.75699 0.20719 0.89446 0.0
C3051 C 0.75297 0.21471 0.91138 0.0
C3052 C 0.76028 0.21985 0.88122 0.0
C3053 C 0.76683 0.1821 0.87422 0.0
C3054 C 0.77777 0.22902 0.88018 0.0
C3055 C 0.78169 0.24254 0.86918 0.0
C3056 C 0.76817 0.24711 0.8591 0.0
C3057 C 0.75057 0.23807 0.86022 0.0
C3058 C 0.74662 0.22443 0.87137 0.0
H3059 H 0.76616 0.16687 0.87361 0.0
H3060 H 0.75759 0.18349 0.86274 0.0
H3061 H 0.78032 0.1897 0.8723 0.0
H3062 H 0.78841 0.22605 0.88829 0.0
H3063 H 0.79533 0.24975 0.86887 0.0
H3064 H 0.16196 0.52514 0.19384 0.0
H3065 H 0.14858 0.53033 0.16455 0.0
H3066 H 0.11913 0.56331 0.19407 0.0
H3067 H 0.1319 0.55763 0.2231 0.0
H3068 H 0.10674 0.51879 0.16176 0.0
H3069 H 0.14035 0.59083 0.14919 0.0
H3070 H 0.15195 0.57701 0.16088 0.0
H3071 H 0.13714 0.58765 0.17232 0.0
C3072 C 0.15261 0.53345 0.19388 0.0
C3073 C 0.14723 0.54037 0.21027 0.0
C3074 C 0.14532 0.53669 0.17738 0.0
C3075 C 0.13322 0.54739 0.1775 0.0
C3076 C 0.12868 0.55524 0.19398 0.0
H3077 H 0.05337 0.56247 0.10067 0.0
H3078 H 0.075 0.56569 0.12763 0.0
C3079 C 0.1356 0.55163 0.21036 0.0
C3080 C 0.1224 0.54693 0.16063 0.0
H3081 H 0.11385 0.5738 0.12969 0.0
C3082 C 0.10838 0.53066 0.15451 0.0
C3083 C 0.12451 0.56281 0.15196 0.0
C3084 C 0.13932 0.58062 0.15881 0.0
C3085 C 0.09611 0.52981 0.13969 0.0
C3086 C 0.09844 0.54545 0.1306 0.0
C3087 C 0.11242 0.56185 0.13677 0.0
C3088 C 0.08646 0.54462 0.11441 0.0
C3089 C 0.08053 0.51246 0.13412 0.0
C3090 C 0.08603 0.5317 0.09846 0.0
C3091 C 0.07359 0.52958 0.08344 0.0
C3092 C 0.06178 0.54055 0.08436 0.0
C3093 C 0.06235 0.55372 0.10014 0.0
C3094 C 0.07472 0.55574 0.11526 0.0
H3095 H 0.07861 0.5038 0.1451 0.0
H3096 H 0.06834 0.51657 0.13075 0.0
H3097 H 0.08265 0.50344 0.12169 0.0
H3098 H 0.09517 0.52314 0.09776 0.0
H3099 H 0.07325 0.51953 0.07113 0.0
H3100 H 0.78249 0.85939 0.47451 0.0
H3101 H 0.77945 0.84725 0.44133 0.0
H3102 H 0.83089 0.83853 0.44848 0.0
H3103 H 0.83354 0.84953 0.48138 0.0
H3104 H 0.79716 0.85892 0.41484 0.0
H3105 H 0.80434 0.78783 0.42028 0.0
H3106 H 0.80109 0.8037 0.43968 0.0
H3107 H 0.82272 0.80592 0.43329 0.0
C3108 C 0.79298 0.85454 0.46898 0.0
C3109 C 0.80807 0.85497 0.48064 0.0
C3110 C 0.79129 0.84771 0.45002 0.0
C3111 C 0.80474 0.84142 0.4424 0.0
C3112 C 0.82 0.84249 0.45403 0.0
H3113 H 0.82977 0.80967 0.3323 0.0
H3114 H 0.83088 0.8208 0.36543 0.0
C3115 C 0.82153 0.84888 0.4729 0.0
C3116 C 0.80325 0.83414 0.42231 0.0
H3117 H 0.80904 0.79778 0.39149 0.0
C3118 C 0.7996 0.84547 0.40976 0.0
C3119 C 0.80624 0.81647 0.41553 0.0
C3120 C 0.80861 0.80271 0.42791 0.0
C3121 C 0.79946 0.83989 0.39078 0.0
C3122 C 0.80326 0.82268 0.38423 0.0
C3123 C 0.80657 0.8112 0.39665 0.0
C3124 C 0.80281 0.8158 0.36437 0.0
C3125 C 0.79546 0.85248 0.37782 0.0
C3126 C 0.78668 0.80892 0.35303 0.0
C3127 C 0.78598 0.80247 0.3343 0.0
C3128 C 0.80144 0.80275 0.32641 0.0
C3129 C 0.81764 0.80922 0.33791 0.0
C3130 C 0.8183 0.81566 0.35679 0.0
H3131 H 0.79531 0.86661 0.38521 0.0
H3132 H 0.80528 0.85451 0.3681 0.0
H3133 H 0.78239 0.84556 0.3696 0.0
H3134 H 0.77457 0.80858 0.35867 0.0
H3135 H 0.77322 0.7974 0.32599 0.0
H3136 H 0.45789 0.56688 0.83469 0.0
H3137 H 0.4708 0.56545 0.86563 0.0
H3138 H 0.50867 0.54048 0.84218 0.0
H3139 H 0.49547 0.54133 0.81118 0.0
H3140 H 0.47523 0.5318 0.88056 0.0
H3141 H 0.53914 0.58537 0.88385 0.0
H3142 H 0.52004 0.58439 0.86822 0.0
H3143 H 0.53243 0.56766 0.86321 0.0
C3144 C 0.46905 0.56118 0.83602 0.0
C3145 C 0.47551 0.55429 0.82005 0.0
C3146 C 0.47645 0.5603 0.8539 0.0
C3147 C 0.49097 0.55296 0.8567 0.0
C3148 C 0.49765 0.54639 0.84079 0.0
H3149 H 0.54437 0.52049 0.95221 0.0
H3150 H 0.53228 0.52378 0.92157 0.0
C3151 C 0.48999 0.54685 0.82289 0.0
C3152 C 0.49871 0.55164 0.87599 0.0
H3153 H 0.53608 0.56771 0.9079 0.0
C3154 C 0.48853 0.53973 0.88645 0.0
C3155 C 0.51609 0.56195 0.88419 0.0
C3156 C 0.52761 0.57571 0.87444 0.0
C3157 C 0.49524 0.53758 0.90421 0.0
C3158 C 0.51266 0.54766 0.91226 0.0
C3159 C 0.52279 0.55977 0.90196 0.0
C3160 C 0.52039 0.54583 0.93129 0.0
C3161 C 0.48368 0.52433 0.91436 0.0
C3162 C 0.51806 0.55712 0.94741 0.0
C3163 C 0.52524 0.55545 0.96508 0.0
C3164 C 0.53481 0.54219 0.96741 0.0
C3165 C 0.53703 0.53079 0.95124 0.0
C3166 C 0.5301 0.5327 0.93355 0.0
H3167 H 0.47069 0.51684 0.90616 0.0
H3168 H 0.49023 0.51362 0.91802 0.0
H3169 H 0.48164 0.5325 0.92738 0.0
H3170 H 0.51065 0.56734 0.94636 0.0
H3171 H 0.52306 0.56446 0.977 0.0
H3172 H 0.82002 0.20633 0.07522 0.0
H3173 H 0.81548 0.22433 0.10395 0.0
H3174 H 0.77062 0.17831 0.10769 0.0
H3175 H 0.77564 0.15995 0.07969 0.0
H3176 H 0.7865 0.23598 0.11046 0.0
H3177 H 0.79755 0.18767 0.15802 0.0
H3178 H 0.80313 0.18506 0.13499 0.0
H3179 H 0.78068 0.17708 0.13886 0.0
C3180 C 0.80948 0.19998 0.08247 0.0
C3181 C 0.79843 0.18171 0.07562 0.0
C3182 C 0.80681 0.21024 0.0987 0.0
C3183 C 0.79289 0.20244 0.10797 0.0
C3184 C 0.78174 0.18427 0.101 0.0
H3185 H 0.77367 0.25277 0.21455 0.0
H3186 H 0.76796 0.23285 0.18418 0.0
C3187 C 0.78465 0.17384 0.08505 0.0
C3188 C 0.78987 0.21365 0.1247 0.0
H3189 H 0.79035 0.21523 0.17067 0.0
C3190 C 0.78724 0.23144 0.12364 0.0
C3191 C 0.79045 0.20737 0.14169 0.0
C3192 C 0.79323 0.18831 0.14356 0.0
C3193 C 0.78593 0.2436 0.13938 0.0
C3194 C 0.78758 0.23781 0.15651 0.0
C3195 C 0.7892 0.21958 0.15744 0.0
C3196 C 0.78938 0.25101 0.17383 0.0
C3197 C 0.78307 0.26259 0.13752 0.0
C3198 C 0.80316 0.26783 0.17788 0.0
C3199 C 0.8062 0.27934 0.19511 0.0
C3200 C 0.79578 0.27385 0.20857 0.0
C3201 C 0.78184 0.25722 0.2044 0.0
C3202 C 0.77856 0.24589 0.18707 0.0
H3203 H 0.77598 0.26204 0.12378 0.0
H3204 H 0.77552 0.26736 0.14821 0.0
H3205 H 0.79598 0.27332 0.13901 0.0
H3206 H 0.81203 0.27165 0.16802 0.0
H3207 H 0.81728 0.29193 0.1982 0.0
H3208 H 0.12899 0.52555 0.31747 0.0
H3209 H 0.12655 0.54064 0.34862 0.0
H3210 H 0.16206 0.59308 0.3413 0.0
H3211 H 0.16453 0.57805 0.31037 0.0
H3212 H 0.15403 0.56254 0.38038 0.0
H3213 H 0.11353 0.60369 0.34879 0.0
H3214 H 0.11787 0.5832 0.33579 0.0
H3215 H 0.13485 0.60521 0.34193 0.0
C3216 C 0.13652 0.54011 0.32281 0.0
C3217 C 0.14699 0.55074 0.31195 0.0
C3218 C 0.13518 0.54869 0.34044 0.0
C3219 C 0.14415 0.5679 0.34702 0.0
C3220 C 0.15515 0.57824 0.33635 0.0
H3221 H 0.11218 0.60375 0.45441 0.0
H3222 H 0.13322 0.60828 0.43193 0.0
C3223 C 0.15655 0.56968 0.31885 0.0
C3224 C 0.14049 0.57751 0.36425 0.0
H3225 H 0.11438 0.60418 0.38031 0.0
C3226 C 0.14581 0.57213 0.38059 0.0
C3227 C 0.12983 0.59003 0.3642 0.0
C3228 C 0.12356 0.59587 0.34677 0.0
C3229 C 0.13943 0.57769 0.39679 0.0
C3230 C 0.12759 0.58887 0.39636 0.0
C3231 C 0.12369 0.59579 0.38046 0.0
C3232 C 0.11525 0.58838 0.40973 0.0
C3233 C 0.14379 0.56989 0.41367 0.0
C3234 C 0.09837 0.57603 0.40432 0.0
C3235 C 0.08651 0.57374 0.41678 0.0
C3236 C 0.09141 0.58366 0.43484 0.0
C3237 C 0.10824 0.59623 0.44036 0.0
C3238 C 0.12016 0.59874 0.42769 0.0
H3239 H 0.15435 0.56274 0.41217 0.0
H3240 H 0.14802 0.5815 0.42584 0.0
H3241 H 0.1319 0.55946 0.41629 0.0
H3242 H 0.09456 0.5677 0.39056 0.0
H3243 H 0.07372 0.5636 0.41251 0.0
H3244 H 0.78244 0.87697 0.59024 0.0
H3245 H 0.7779 0.86238 0.61765 0.0
H3246 H 0.82266 0.84094 0.61109 0.0
H3247 H 0.82695 0.85502 0.58337 0.0
H3248 H 0.77972 0.81621 0.61904 0.0
H3249 H 0.82424 0.87847 0.66748 0.0
H3250 H 0.81219 0.88141 0.64683 0.0
H3251 H 0.8301 0.87111 0.64523 0.0
C3252 C 0.79129 0.8691 0.59461 0.0
C3253 C 0.80507 0.86718 0.58459 0.0
C3254 C 0.78866 0.86074 0.61027 0.0
C3255 C 0.79998 0.85062 0.61652 0.0
C3256 C 0.81372 0.84862 0.60653 0.0
H3257 H 0.81413 0.81205 0.72158 0.0
H3258 H 0.81789 0.82611 0.69383 0.0
C3259 C 0.81613 0.85664 0.59065 0.0
C3260 C 0.7976 0.84235 0.6336 0.0
H3261 H 0.81052 0.85215 0.68003 0.0
C3262 C 0.78642 0.82403 0.6324 0.0
C3263 C 0.80652 0.85242 0.65099 0.0
C3264 C 0.81896 0.87198 0.65293 0.0
C3265 C 0.78402 0.81545 0.64805 0.0
C3266 C 0.79255 0.82574 0.66572 0.0
C3267 C 0.80383 0.84411 0.66675 0.0
C3268 C 0.79018 0.81778 0.68318 0.0
C3269 C 0.77285 0.79513 0.64515 0.0
C3270 C 0.7734 0.80883 0.68711 0.0
C3271 C 0.77135 0.80033 0.70271 0.0
C3272 C 0.7859 0.80141 0.71542 0.0
C3273 C 0.80262 0.81131 0.71222 0.0
C3274 C 0.80475 0.81926 0.69623 0.0
H3275 H 0.77262 0.78752 0.63102 0.0
H3276 H 0.77766 0.78719 0.65504 0.0
H3277 H 0.75914 0.79495 0.64687 0.0
H3278 H 0.76178 0.80814 0.678 0.0
H3279 H 0.75831 0.79273 0.70478 0.0
H3280 H 0.7712 0.45644 0.54639 0.0
H3281 H 0.74594 0.46646 0.55582 0.0
H3282 H 0.73237 0.47444 0.50054 0.0
H3283 H 0.75695 0.463 0.49087 0.0
H3284 H 0.73823 0.49807 0.55702 0.0
H3285 H 0.68627 0.44356 0.50898 0.0
H3286 H 0.70852 0.44206 0.51241 0.0
H3287 H 0.70226 0.45613 0.4966 0.0
C3288 C 0.76269 0.46027 0.53631 0.0
C3289 C 0.76573 0.45898 0.51795 0.0
C3290 C 0.74832 0.46593 0.54167 0.0
C3291 C 0.73704 0.47072 0.52878 0.0
C3292 C 0.74052 0.47007 0.51053 0.0
H3293 H 0.66156 0.52846 0.51988 0.0
H3294 H 0.68385 0.51137 0.51828 0.0
C3295 C 0.75459 0.4638 0.50504 0.0
C3296 C 0.72202 0.4771 0.53455 0.0
H3297 H 0.67876 0.47206 0.52142 0.0
C3298 C 0.72514 0.49217 0.54948 0.0
C3299 C 0.70488 0.46904 0.52496 0.0
C3300 C 0.70027 0.45166 0.51 0.0
C3301 C 0.71182 0.50038 0.55414 0.0
C3302 C 0.69513 0.49336 0.54347 0.0
C3303 C 0.69171 0.47752 0.52936 0.0
C3304 C 0.68171 0.50361 0.54504 0.0
C3305 C 0.7159 0.51708 0.56978 0.0
C3306 C 0.67318 0.50477 0.56064 0.0
C3307 C 0.6604 0.51454 0.56159 0.0
C3308 C 0.65596 0.52309 0.54687 0.0
C3309 C 0.66454 0.52178 0.53129 0.0
C3310 C 0.6773 0.51212 0.5304 0.0
H3311 H 0.73007 0.52205 0.57536 0.0
H3312 H 0.71184 0.52907 0.56522 0.0
H3313 H 0.70841 0.51291 0.58105 0.0
H3314 H 0.6763 0.49801 0.57194 0.0
H3315 H 0.65382 0.5152 0.57368 0.0
H3316 H 0.24522 0.12518 0.48516 0.0
H3317 H 0.21477 0.10848 0.48773 0.0
H3318 H 0.20871 0.16008 0.51844 0.0
H3319 H 0.23837 0.17692 0.51447 0.0
H3320 H 0.19809 0.09933 0.51355 0.0
H3321 H 0.1651 0.14827 0.48577 0.0
H3322 H 0.18802 0.15053 0.4848 0.0
H3323 H 0.18082 0.16022 0.50549 0.0
C3324 C 0.23723 0.13295 0.49219 0.0
C3325 C 0.24408 0.15244 0.49928 0.0
C3326 C 0.21979 0.12341 0.49374 0.0
C3327 C 0.20891 0.13301 0.50281 0.0
C3328 C 0.21619 0.15235 0.51056 0.0
H3329 H 0.10085 0.08737 0.53009 0.0
H3330 H 0.13045 0.10845 0.52987 0.0
C3331 C 0.23333 0.16198 0.50846 0.0
C3332 C 0.19032 0.12267 0.50473 0.0
H3333 H 0.14762 0.12486 0.49995 0.0
C3334 C 0.18713 0.10498 0.51044 0.0
C3335 C 0.17572 0.12989 0.50095 0.0
C3336 C 0.17756 0.14817 0.49375 0.0
C3337 C 0.1701 0.09441 0.5123 0.0
C3338 C 0.15557 0.10154 0.50835 0.0
C3339 C 0.1587 0.1194 0.50312 0.0
C3340 C 0.13703 0.0898 0.50799 0.0
C3341 C 0.16781 0.07557 0.51849 0.0
C3342 C 0.13054 0.07267 0.49543 0.0
C3343 C 0.11371 0.06085 0.49542 0.0
C3344 C 0.10264 0.06575 0.50787 0.0
C3345 C 0.1088 0.08328 0.52008 0.0
C3346 C 0.12583 0.09525 0.52006 0.0
H3347 H 0.18021 0.0746 0.5259 0.0
H3348 H 0.15746 0.07317 0.52758 0.0
H3349 H 0.16382 0.064 0.50627 0.0
H3350 H 0.13864 0.06823 0.48571 0.0
H3351 H 0.10947 0.04752 0.48577 0.0
H3352 H 0.21975 0.96964 0.73184 0.0
H3353 H 0.23303 0.94308 0.73042 0.0
H3354 H 0.20278 0.92178 0.77148 0.0
H3355 H 0.18953 0.94833 0.77293 0.0
H3356 H 0.25409 0.93139 0.75339 0.0
H3357 H 0.19358 0.87193 0.73793 0.0
H3358 H 0.19338 0.89601 0.73683 0.0
H3359 H 0.19429 0.88825 0.7586 0.0
C3360 C 0.21576 0.95935 0.7406 0.0
C3361 C 0.20328 0.96175 0.75255 0.0
C3362 C 0.22352 0.94386 0.73978 0.0
C3363 C 0.21909 0.9295 0.75058 0.0
C3364 C 0.20655 0.93187 0.76249 0.0
H3365 H 0.25079 0.82185 0.76124 0.0
H3366 H 0.23664 0.84768 0.76202 0.0
C3367 C 0.19893 0.94747 0.76346 0.0
C3368 C 0.22797 0.91283 0.74984 0.0
H3369 H 0.21993 0.86395 0.74515 0.0
C3370 C 0.24645 0.91666 0.75151 0.0
C3371 C 0.21864 0.89315 0.74756 0.0
C3372 C 0.19888 0.88698 0.74495 0.0
C3373 C 0.25555 0.90226 0.7516 0.0
C3374 C 0.24627 0.88243 0.74897 0.0
C3375 C 0.22769 0.87862 0.74718 0.0
C3376 C 0.2553 0.86575 0.74829 0.0
C3377 C 0.27528 0.90901 0.75552 0.0
C3378 C 0.27073 0.86582 0.74002 0.0
C3379 C 0.2793 0.8511 0.7402 0.0
C3380 C 0.27259 0.83469 0.74778 0.0
C3381 C 0.25671 0.83397 0.75521 0.0
C3382 C 0.24844 0.84906 0.75561 0.0
H3383 H 0.27987 0.92372 0.76353 0.0
H3384 H 0.28067 0.89973 0.76338 0.0
H3385 H 0.28076 0.90925 0.74234 0.0
H3386 H 0.27631 0.87724 0.73305 0.0
H3387 H 0.29121 0.85248 0.73398 0.0
H3388 H 0.35248 0.96135 0.97699 0.0
H3389 H 0.38379 0.97753 0.98688 0.0
H3390 H 0.38112 0.95438 0.0368 0.0
H3391 H 0.35039 0.93739 0.02645 0.0
H3392 H 0.39873 1.00399 0.01625 0.0
H3393 H 0.42279 0.94061 0.02015 0.0
H3394 H 0.40096 0.93873 0.0097 0.0
H3395 H 0.40603 0.94212 0.03429 0.0
C3396 C 0.35876 0.95969 0.98995 0.0
C3397 C 0.34936 0.94814 1.00093 0.0
C3398 C 0.37649 0.96885 0.99559 0.0
C3399 C 0.38474 0.96682 0.01242 0.0
C3400 C 0.37513 0.95562 0.02354 0.0
H3401 H 0.49616 0.01673 0.05566 0.0
H3402 H 0.46454 1.0065 0.05716 0.0
C3403 C 0.35762 0.94607 0.01768 0.0
C3404 C 0.40325 0.97696 0.01863 0.0
H3405 H 0.44316 0.97052 0.03107 0.0
C3406 C 0.40844 0.9967 0.01959 0.0
C3407 C 0.41578 0.96734 0.02318 0.0
C3408 C 0.41115 0.94602 0.02162 0.0
C3409 C 0.42604 1.00702 0.02423 0.0
C3410 C 0.43852 0.99729 0.02816 0.0
C3411 C 0.4333 0.9778 0.02828 0.0
C3412 C 0.45715 1.00604 0.02834 0.0
C3413 C 0.43132 0.02804 0.02407 0.0
C3414 C 0.46307 0.00894 0.01162 0.0
C3415 C 0.48088 0.01432 0.01062 0.0
C3416 C 0.49299 0.01693 0.02638 0.0
C3417 C 0.48703 0.01463 0.0433 0.0
C3418 C 0.46909 0.00899 0.04423 0.0
H3419 H 0.42011 0.0342 0.02553 0.0
H3420 H 0.44218 0.03566 0.03527 0.0
H3421 H 0.43601 0.03045 0.01081 0.0
H3422 H 0.45389 1.00634 0.99919 0.0
H3423 H 0.48511 0.01627 0.99744 0.0
H3424 H 0.88034 0.56308 0.76597 0.0
H3425 H 0.86766 0.58504 0.75214 0.0
H3426 H 0.89222 0.62942 0.79881 0.0
H3427 H 0.90586 0.60769 0.81231 0.0
H3428 H 0.84544 0.6022 0.76321 0.0
H3429 H 0.90607 0.65682 0.75807 0.0
H3430 H 0.90634 0.63398 0.7635 0.0
H3431 H 0.90531 0.65298 0.78122 0.0
C3432 C 0.88297 0.57749 0.77337 0.0
C3433 C 0.894 0.58375 0.79026 0.0
C3434 C 0.87584 0.59004 0.76536 0.0
C3435 C 0.8794 0.60893 0.77423 0.0
C3436 C 0.88986 0.61504 0.79144 0.0
H3437 H 0.83316 0.69602 0.77863 0.0
H3438 H 0.85137 0.67452 0.78054 0.0
C3439 C 0.89737 0.60258 0.79929 0.0
C3440 C 0.87117 0.62186 0.766 0.0
H3441 H 0.87934 0.66669 0.75678 0.0
C3442 C 0.85288 0.61613 0.76137 0.0
C3443 C 0.88099 0.63989 0.76342 0.0
C3444 C 0.90078 0.64617 0.76663 0.0
C3445 C 0.844 0.62849 0.75537 0.0
C3446 C 0.85372 0.64697 0.75414 0.0
C3447 C 0.87205 0.65242 0.75782 0.0
C3448 C 0.84486 0.66155 0.75182 0.0
C3449 C 0.82422 0.62215 0.75144 0.0
C3450 C 0.83557 0.66144 0.73488 0.0
C3451 C 0.82526 0.67388 0.73364 0.0
C3452 C 0.82412 0.68642 0.74938 0.0
C3453 C 0.83399 0.68681 0.76617 0.0
C3454 C 0.84435 0.67451 0.76734 0.0
H3455 H 0.81864 0.60756 0.75402 0.0
H3456 H 0.81865 0.63206 0.7601 0.0
H3457 H 0.82002 0.62242 0.73687 0.0
H3458 H 0.83592 0.6514 0.72282 0.0
H3459 H 0.81797 0.67347 0.72049 0.0
H3460 H 0.8587 0.68724 0.02788 0.0
H3461 H 0.8853 0.67749 0.03602 0.0
H3462 H 0.85523 0.61874 0.02142 0.0
H3463 H 0.82856 0.62843 0.01392 0.0
H3464 H 0.88722 0.64548 0.06272 0.0
H3465 H 0.90178 0.63346 0.99089 0.0
H3466 H 0.8902 0.65039 0.99891 0.0
H3467 H 0.87916 0.62546 0.99441 0.0
C3468 C 0.85785 0.67225 0.02627 0.0
C3469 C 0.84165 0.65855 0.02003 0.0
C3470 C 0.87299 0.66672 0.03107 0.0
C3471 C 0.87222 0.6474 0.02934 0.0
C3472 C 0.85608 0.63373 0.02295 0.0
H3473 H 0.93339 0.57003 0.03282 0.0
H3474 H 0.91142 0.58773 0.03129 0.0
C3475 C 0.84089 0.63925 0.01857 0.0
C3476 C 0.88825 0.64125 0.03362 0.0
H3477 H 0.91725 0.62146 0.01271 0.0
C3478 C 0.89398 0.64048 0.05186 0.0
C3479 C 0.89713 0.6349 0.01946 0.0
C3480 C 0.89192 0.63615 0.99978 0.0
C3481 C 0.90788 0.63263 0.05613 0.0
C3482 C 0.91612 0.62537 0.04178 0.0
C3483 C 0.91083 0.62691 0.02368 0.0
C3484 C 0.92923 0.61469 0.04481 0.0
C3485 C 0.9132 0.63138 0.07578 0.0
C3486 C 0.94655 0.62395 0.05309 0.0
C3487 C 0.95918 0.61383 0.05381 0.0
C3488 C 0.95458 0.59432 0.04641 0.0
C3489 C 0.93717 0.58503 0.0387 0.0
C3490 C 0.92465 0.59512 0.03783 0.0
H3491 H 0.90462 0.63634 0.08518 0.0
H3492 H 0.91277 0.6165 0.07686 0.0
H3493 H 0.92691 0.64022 0.08038 0.0
H3494 H 0.95041 0.63907 0.05841 0.0
H3495 H 0.97257 0.62126 0.05977 0.0
H3496 H 0.19527 0.0854 0.79818 0.0
H3497 H 0.21094 0.11821 0.79639 0.0
H3498 H 0.22709 0.09826 0.74528 0.0
H3499 H 0.21182 0.06534 0.74727 0.0
H3500 H 0.24758 0.13651 0.79413 0.0
H3501 H 0.20533 0.14101 0.73252 0.0
H3502 H 0.19862 0.12316 0.74645 0.0
H3503 H 0.21371 0.1206 0.73042 0.0
C3504 C 0.20235 0.08784 0.78663 0.0
C3505 C 0.20231 0.07218 0.77307 0.0
C3506 C 0.21135 0.10686 0.78557 0.0
C3507 C 0.22035 0.11134 0.7706 0.0
C3508 C 0.22032 0.09572 0.757 0.0
H3509 H 0.28356 0.21654 0.73777 0.0
H3510 H 0.26545 0.18456 0.73924 0.0
C3511 C 0.21165 0.07663 0.75827 0.0
C3512 C 0.22978 0.13207 0.76934 0.0
H3513 H 0.23075 0.16684 0.74297 0.0
C3514 C 0.24374 0.14306 0.78294 0.0
C3515 C 0.22514 0.14122 0.75488 0.0
C3516 C 0.2098 0.13105 0.74027 0.0
C3517 C 0.25322 0.16214 0.78225 0.0
C3518 C 0.24865 0.17134 0.76777 0.0
C3519 C 0.23459 0.16034 0.75419 0.0
C3520 C 0.25859 0.19192 0.76629 0.0
C3521 C 0.26861 0.17208 0.79686 0.0
C3522 C 0.2607 0.2077 0.78058 0.0
C3523 C 0.27085 0.22639 0.77952 0.0
C3524 C 0.2794 0.23024 0.76412 0.0
C3525 C 0.27697 0.21455 0.74971 0.0
C3526 C 0.2666 0.19599 0.75062 0.0
H3527 H 0.27338 0.16187 0.80399 0.0
H3528 H 0.27964 0.18052 0.79088 0.0
H3529 H 0.26457 0.1819 0.80725 0.0
H3530 H 0.25468 0.20557 0.79284 0.0
H3531 H 0.27263 0.2377 0.79119 0.0
H3532 H 0.38733 1.00442 0.29742 0.0
H3533 H 0.36879 0.9728 0.28326 0.0
H3534 H 0.41472 0.9539 0.27476 0.0
H3535 H 0.43349 0.98546 0.28902 0.0
H3536 H 0.37073 0.94866 0.24514 0.0
H3537 H 0.38405 0.92205 0.30994 0.0
H3538 H 0.38768 0.94705 0.30968 0.0
H3539 H 0.40232 0.93478 0.30007 0.0
C3540 C 0.39349 0.99346 0.29282 0.0
C3541 C 0.4118 0.9972 0.2945 0.0
C3542 C 0.38292 0.97565 0.2844 0.0
C3543 C 0.39059 0.9615 0.27777 0.0
C3544 C 0.40879 0.96499 0.27961 0.0
H3545 H 0.33689 0.84387 0.24557 0.0
H3546 H 0.35639 0.87479 0.24404 0.0
C3547 C 0.41939 0.98281 0.28799 0.0
C3548 C 0.3794 0.9424 0.27125 0.0
H3549 H 0.36268 0.90171 0.28685 0.0
C3550 C 0.36906 0.9382 0.25403 0.0
C3551 C 0.3775 0.92913 0.28312 0.0
C3552 C 0.38839 0.93337 0.30179 0.0
C3553 C 0.35621 0.92085 0.24862 0.0
C3554 C 0.35385 0.9081 0.26093 0.0
C3555 C 0.36465 0.91198 0.27773 0.0
C3556 C 0.34007 0.8905 0.2571 0.0
C3557 C 0.3449 0.91629 0.23023 0.0
C3558 C 0.32465 0.88959 0.265 0.0
C3559 C 0.31378 0.87203 0.26639 0.0
C3560 C 0.31839 0.85566 0.2596 0.0
C3561 C 0.33327 0.85661 0.25076 0.0
C3562 C 0.3442 0.87406 0.24963 0.0
H3563 H 0.34908 0.92736 0.22177 0.0
H3564 H 0.34541 0.90241 0.22258 0.0
H3565 H 0.33105 0.91493 0.23231 0.0
H3566 H 0.32168 0.90243 0.27108 0.0
H3567 H 0.30212 0.87123 0.27301 0.0
H3568 H 0.61008 0.36879 0.58176 0.0
H3569 H 0.60346 0.39564 0.57003 0.0
H3570 H 0.55308 0.38207 0.58927 0.0
H3571 H 0.56008 0.35589 0.6019 0.0
H3572 H 0.58099 0.39955 0.54522 0.0
H3573 H 0.56757 0.4364 0.61038 0.0
H3574 H 0.5764 0.41632 0.60949 0.0
H3575 H 0.55314 0.41284 0.60388 0.0
C3576 C 0.59766 0.37164 0.58368 0.0
C3577 C 0.58575 0.36028 0.59308 0.0
C3578 C 0.59383 0.38703 0.57689 0.0
C3579 C 0.57791 0.39143 0.5791 0.0
C3580 C 0.56576 0.37966 0.58794 0.0
H3581 H 0.53127 0.47594 0.53906 0.0
H3582 H 0.53594 0.44738 0.54925 0.0
C3583 C 0.56972 0.3645 0.59506 0.0
C3584 C 0.57398 0.40804 0.57187 0.0
H3585 H 0.55995 0.44773 0.5834 0.0
C3586 C 0.57649 0.41008 0.55368 0.0
C3587 C 0.56811 0.42205 0.58274 0.0
C3588 C 0.56633 0.42192 0.60275 0.0
C3589 C 0.57318 0.42539 0.54617 0.0
C3590 C 0.56709 0.43912 0.55698 0.0
C3591 C 0.56444 0.4371 0.57504 0.0
C3592 C 0.56411 0.4561 0.55005 0.0
C3593 C 0.57611 0.42676 0.52662 0.0
C3594 C 0.57837 0.47057 0.54713 0.0
C3595 C 0.57577 0.48696 0.54149 0.0
C3596 C 0.5588 0.48926 0.53844 0.0
C3597 C 0.54449 0.47459 0.54108 0.0
C3598 C 0.54714 0.45828 0.54699 0.0
H3599 H 0.57756 0.41331 0.51896 0.0
H3600 H 0.56506 0.43046 0.51924 0.0
H3601 H 0.58826 0.43822 0.52664 0.0
H3602 H 0.5916 0.46934 0.54956 0.0
H3603 H 0.58712 0.49793 0.53964 0.0
H3604 H 0.45262 0.75622 0.37164 0.0
H3605 H 0.42468 0.75857 0.35664 0.0
H3606 H 0.45107 0.81308 0.34471 0.0
H3607 H 0.47895 0.81061 0.35919 0.0
H3608 H 0.40524 0.7834 0.36327 0.0
H3609 H 0.426 0.78694 0.29462 0.0
H3610 H 0.43866 0.78049 0.31269 0.0
H3611 H 0.44028 0.80508 0.31222 0.0
C3612 C 0.45253 0.76861 0.36563 0.0
C3613 C 0.46823 0.78306 0.36642 0.0
C3614 C 0.43647 0.77001 0.35712 0.0
C3615 C 0.43563 0.78585 0.3491 0.0
C3616 C 0.45126 0.80043 0.35023 0.0
H3617 H 0.34883 0.82199 0.29642 0.0
H3618 H 0.37619 0.82158 0.3146 0.0
C3619 C 0.46728 0.79902 0.35863 0.0
C3620 C 0.41856 0.78722 0.33962 0.0
H3621 H 0.39912 0.79411 0.29905 0.0
C3622 C 0.40395 0.78568 0.34921 0.0
C3623 C 0.4166 0.7901 0.32118 0.0
C3624 C 0.43115 0.79055 0.3095 0.0
C3625 C 0.38777 0.78724 0.34102 0.0
C3626 C 0.386 0.79046 0.32275 0.0
C3627 C 0.40051 0.79195 0.31315 0.0
C3628 C 0.3689 0.79112 0.31299 0.0
C3629 C 0.37259 0.78556 0.35192 0.0
C3630 C 0.35561 0.77421 0.30613 0.0
C3631 C 0.34013 0.77441 0.29561 0.0
C3632 C 0.33736 0.79153 0.29188 0.0
C3633 C 0.35041 0.80859 0.29927 0.0
C3634 C 0.3661 0.80835 0.30956 0.0
H3635 H 0.37654 0.78536 0.36659 0.0
H3636 H 0.36683 0.79757 0.35106 0.0
H3637 H 0.36221 0.77223 0.34597 0.0
H3638 H 0.35742 0.76074 0.30846 0.0
H3639 H 0.3304 0.76103 0.29003 0.0
H3640 H 0.04273 0.75279 0.07809 0.0
H3641 H 0.04059 0.71898 0.06767 0.0
H3642 H 0.09508 0.72941 0.08899 0.0
H3643 H 0.09732 0.76312 0.09889 0.0
H3644 H 0.06322 0.70167 0.04386 0.0
H3645 H 0.06572 0.68659 0.11484 0.0
H3646 H 0.05987 0.70707 0.10879 0.0
H3647 H 0.08243 0.70692 0.11154 0.0
C3648 C 0.05433 0.74788 0.07994 0.0
C3649 C 0.07033 0.76053 0.08869 0.0
C3650 C 0.05308 0.72862 0.07421 0.0
C3651 C 0.06765 0.72173 0.07772 0.0
C3652 C 0.08369 0.73446 0.08619 0.0
H3653 H 0.08749 0.61044 0.06153 0.0
H3654 H 0.0901 0.64455 0.06977 0.0
C3655 C 0.08502 0.75371 0.09158 0.0
C3656 C 0.06619 0.70121 0.0728 0.0
H3657 H 0.06787 0.66216 0.09132 0.0
C3658 C 0.06416 0.69299 0.0542 0.0
C3659 C 0.06741 0.68997 0.08637 0.0
C3660 C 0.06884 0.69797 0.10652 0.0
C3661 C 0.06372 0.67388 0.04879 0.0
C3662 C 0.06512 0.66266 0.06235 0.0
C3663 C 0.06702 0.67085 0.08097 0.0
C3664 C 0.06379 0.64217 0.05735 0.0
C3665 C 0.06207 0.6659 0.02861 0.0
C3666 C 0.04815 0.62962 0.04779 0.0
C3667 C 0.04665 0.6103 0.04305 0.0
C3668 C 0.06074 0.60301 0.04787 0.0
C3669 C 0.07647 0.61562 0.05745 0.0
C3670 C 0.07794 0.63506 0.06226 0.0
H3671 H 0.06557 0.67731 0.02038 0.0
H3672 H 0.0706 0.65634 0.02616 0.0
H3673 H 0.04829 0.65751 0.02359 0.0
H3674 H 0.037 0.63475 0.04412 0.0
H3675 H 0.03431 0.60105 0.0357 0.0
H3676 H 0.06609 0.29812 0.86387 0.0
H3677 H 0.09502 0.30416 0.85314 0.0
H3678 H 0.10829 0.2642 0.88444 0.0
H3679 H 0.07919 0.25762 0.89445 0.0
H3680 H 0.1291 0.3169 0.86834 0.0
H3681 H 0.11605 0.24167 0.83489 0.0
H3682 H 0.09926 0.25089 0.8442 0.0
H3683 H 0.115 0.24443 0.85907 0.0
C3684 C 0.07526 0.29072 0.86848 0.0
C3685 C 0.07035 0.27725 0.87982 0.0
C3686 C 0.09182 0.29419 0.86238 0.0
C3687 C 0.10382 0.28427 0.8675 0.0
C3688 C 0.09918 0.2716 0.87971 0.0
H3689 H 0.20542 0.2777 0.83508 0.0
H3690 H 0.18022 0.27703 0.85155 0.0
C3691 C 0.08258 0.26795 0.88558 0.0
C3692 C 0.12077 0.28653 0.85953 0.0
H3693 H 0.14465 0.26149 0.83542 0.0
C3694 C 0.13243 0.30476 0.8611 0.0
C3695 C 0.12533 0.27077 0.85002 0.0
C3696 C 0.11319 0.25087 0.84677 0.0
C3697 C 0.1484 0.30758 0.85364 0.0
C3698 C 0.15284 0.2918 0.84413 0.0
C3699 C 0.14132 0.2736 0.84274 0.0
C3700 C 0.16906 0.29374 0.83502 0.0
C3701 C 0.16056 0.32738 0.85624 0.0
C3702 C 0.17137 0.30342 0.82018 0.0
C3703 C 0.18568 0.30354 0.81043 0.0
C3704 C 0.19814 0.29401 0.81525 0.0
C3705 C 0.19603 0.28487 0.83056 0.0
C3706 C 0.18164 0.2846 0.84017 0.0
H3707 H 0.15749 0.33716 0.8675 0.0
H3708 H 0.17444 0.32729 0.8593 0.0
H3709 H 0.15917 0.33305 0.84337 0.0
H3710 H 0.16173 0.3103 0.81567 0.0
H3711 H 0.18652 0.31051 0.79863 0.0
H3712 H 0.56583 0.78348 0.93521 0.0
H3713 H 0.55728 0.75398 0.94762 0.0
H3714 H 0.58959 0.72978 0.91324 0.0
H3715 H 0.59829 0.75932 0.90109 0.0
H3716 H 0.54152 0.7157 0.93074 0.0
H3717 H 0.60921 0.72709 0.96529 0.0
H3718 H 0.60225 0.74542 0.95589 0.0
H3719 H 0.60781 0.72699 0.94105 0.0
C3720 C 0.57087 0.77171 0.93024 0.0
C3721 C 0.58262 0.77338 0.9173 0.0
C3722 C 0.56602 0.75496 0.93726 0.0
C3723 C 0.57303 0.73989 0.93149 0.0
C3724 C 0.58428 0.74139 0.91803 0.0
H3725 H 0.56723 0.63208 0.96517 0.0
H3726 H 0.56966 0.65753 0.9473 0.0
C3727 C 0.58913 0.75812 0.91104 0.0
C3728 C 0.56922 0.72293 0.94015 0.0
H3729 H 0.58874 0.69769 0.96582 0.0
C3730 C 0.5518 0.71174 0.93843 0.0
C3731 C 0.58272 0.71796 0.95026 0.0
C3732 C 0.60152 0.73007 0.95341 0.0
C3733 C 0.54756 0.69545 0.94641 0.0
C3734 C 0.56109 0.69043 0.9563 0.0
C3735 C 0.57848 0.70159 0.95801 0.0
C3736 C 0.55753 0.67406 0.96573 0.0
C3737 C 0.52876 0.6836 0.94413 0.0
C3738 C 0.54979 0.67502 0.98186 0.0
C3739 C 0.54867 0.66073 0.99228 0.0
C3740 C 0.55526 0.64523 0.98669 0.0
C3741 C 0.56232 0.64398 0.97004 0.0
C3742 C 0.56358 0.65838 0.95973 0.0
H3743 H 0.52027 0.68771 0.93371 0.0
H3744 H 0.52789 0.66832 0.94005 0.0
H3745 H 0.52362 0.68543 0.95745 0.0
H3746 H 0.54532 0.68723 0.9868 0.0
H3747 H 0.54339 0.66231 0.00515 0.0
H3748 H 0.04867 0.78082 0.70595 0.0
H3749 H 0.07924 0.7828 0.71636 0.0
H3750 H 0.08701 0.76554 0.6604 0.0
H3751 H 0.05682 0.76396 0.64983 0.0
H3752 H 0.09369 0.75238 0.71085 0.0
H3753 H 0.12886 0.81175 0.6789 0.0
H3754 H 0.10589 0.80723 0.68136 0.0
H3755 H 0.11282 0.79319 0.66316 0.0
C3756 C 0.057 0.77776 0.69587 0.0
C3757 C 0.05046 0.77237 0.67711 0.0
C3758 C 0.07437 0.77888 0.70182 0.0
C3759 C 0.08529 0.77464 0.68906 0.0
C3760 C 0.07883 0.76936 0.67034 0.0
H3761 H 0.18668 0.75496 0.69483 0.0
H3762 H 0.15772 0.75853 0.68519 0.0
C3763 C 0.06156 0.76838 0.66437 0.0
C3764 C 0.10313 0.77439 0.69539 0.0
H3765 H 0.146 0.79329 0.69114 0.0
C3766 C 0.10517 0.76147 0.70676 0.0
C3767 C 0.1179 0.78611 0.68969 0.0
C3768 C 0.11632 0.80047 0.67773 0.0
C3769 C 0.12177 0.75978 0.71248 0.0
C3770 C 0.13652 0.77154 0.70683 0.0
C3771 C 0.13451 0.78443 0.69544 0.0
C3772 C 0.15419 0.77044 0.7125 0.0
C3773 C 0.12341 0.74516 0.72411 0.0
C3774 C 0.16166 0.77635 0.73094 0.0
C3775 C 0.17811 0.77436 0.73647 0.0
C3776 C 0.18724 0.76654 0.72355 0.0
C3777 C 0.17989 0.76115 0.70499 0.0
C3778 C 0.16343 0.76311 0.69948 0.0
H3779 H 0.11055 0.73483 0.72428 0.0
H3780 H 0.1326 0.73726 0.71899 0.0
H3781 H 0.12876 0.75243 0.73844 0.0
H3782 H 0.15466 0.78229 0.74103 0.0
H3783 H 0.1837 0.77887 0.7508 0.0
H3784 H 0.11278 0.39864 0.41911 0.0
H3785 H 0.10865 0.42971 0.43129 0.0
H3786 H 0.06576 0.40209 0.45775 0.0
H3787 H 0.06981 0.37135 0.44606 0.0
H3788 H 0.07199 0.4404 0.42853 0.0
H3789 H 0.10569 0.4421 0.49803 0.0
H3790 H 0.10989 0.42852 0.47749 0.0
H3791 H 0.09015 0.42 0.48715 0.0
C3792 C 0.10257 0.39927 0.42763 0.0
C3793 C 0.09181 0.38264 0.43189 0.0
C3794 C 0.10014 0.41691 0.43438 0.0
C3795 C 0.08693 0.41794 0.44532 0.0
C3796 C 0.07604 0.40141 0.44933 0.0
H3797 H 0.03603 0.4916 0.50046 0.0
H3798 H 0.0433 0.46824 0.47762 0.0
C3799 C 0.07851 0.3839 0.44276 0.0
C3800 C 0.08487 0.43623 0.45371 0.0
H3801 H 0.08877 0.46378 0.49561 0.0
C3802 C 0.07593 0.44582 0.44311 0.0
C3803 C 0.08994 0.44294 0.47272 0.0
C3804 C 0.09956 0.43296 0.48456 0.0
C3805 C 0.07137 0.46183 0.45136 0.0
C3806 C 0.07597 0.4681 0.47047 0.0
C3807 C 0.08538 0.45884 0.48089 0.0
C3808 C 0.07072 0.48385 0.48039 0.0
C3809 C 0.06149 0.47181 0.43986 0.0
C3810 C 0.08375 0.50022 0.48915 0.0
C3811 C 0.07974 0.51318 0.50239 0.0
C3812 C 0.06265 0.5099 0.50681 0.0
C3813 C 0.0493 0.49425 0.49711 0.0
C3814 C 0.05338 0.48109 0.48403 0.0
H3815 H 0.06087 0.46666 0.42492 0.0
H3816 H 0.0479 0.46934 0.44324 0.0
H3817 H 0.06779 0.48737 0.44303 0.0
H3818 H 0.0972 0.50238 0.48651 0.0
H3819 H 0.0901 0.52543 0.5096 0.0
H3820 H 0.46211 0.23736 0.20709 0.0
H3821 H 0.4365 0.24237 0.22043 0.0
H3822 H 0.42228 0.26692 0.17434 0.0
H3823 H 0.44801 0.26208 0.16081 0.0
H3824 H 0.43174 0.28249 0.22643 0.0
H3825 H 0.37669 0.22457 0.1842 0.0
H3826 H 0.39889 0.22268 0.18718 0.0
H3827 H 0.39321 0.23799 0.17264 0.0
C3828 C 0.45345 0.24364 0.19968 0.0
C3829 C 0.45704 0.24948 0.18301 0.0
C3830 C 0.43888 0.24642 0.20729 0.0
C3831 C 0.42768 0.25485 0.1982 0.0
C3832 C 0.43087 0.26024 0.18134 0.0
H3833 H 0.34936 0.30529 0.23501 0.0
H3834 H 0.37469 0.29861 0.22223 0.0
C3835 C 0.44556 0.2576 0.17375 0.0
C3836 C 0.41354 0.2595 0.20725 0.0
H3837 H 0.36935 0.24617 0.20673 0.0
C3838 C 0.41808 0.27461 0.22219 0.0
C3839 C 0.39592 0.249 0.2015 0.0
C3840 C 0.39076 0.23257 0.18555 0.0
C3841 C 0.40519 0.27964 0.23164 0.0
C3842 C 0.38758 0.26914 0.2259 0.0
C3843 C 0.38302 0.25399 0.21099 0.0
C3844 C 0.37356 0.27402 0.23493 0.0
C3845 C 0.41036 0.29596 0.24771 0.0
C3846 C 0.36487 0.2623 0.24623 0.0
C3847 C 0.35038 0.26596 0.25342 0.0
C3848 C 0.34469 0.28142 0.24938 0.0
C3849 C 0.35381 0.2935 0.23856 0.0
C3850 C 0.36815 0.2897 0.23122 0.0
H3851 H 0.42481 0.30152 0.25143 0.0
H3852 H 0.40514 0.30769 0.24426 0.0
H3853 H 0.40452 0.2914 0.25984 0.0
H3854 H 0.36905 0.25011 0.24907 0.0
H3855 H 0.34343 0.25655 0.26178 0.0
H3856 H 0.64683 0.50861 0.34639 0.0
H3857 H 0.63438 0.50987 0.37549 0.0
H3858 H 0.60238 0.54357 0.35648 0.0
H3859 H 0.61491 0.54249 0.32749 0.0
H3860 H 0.63431 0.53826 0.4041 0.0
H3861 H 0.56495 0.50541 0.37471 0.0
H3862 H 0.58261 0.50501 0.36127 0.0
H3863 H 0.57502 0.52589 0.3654 0.0
C3864 C 0.63708 0.51626 0.34822 0.0
C3865 C 0.63209 0.52537 0.33396 0.0
C3866 C 0.62987 0.51703 0.36518 0.0
C3867 C 0.61695 0.52662 0.36882 0.0
C3868 C 0.61192 0.53566 0.35454 0.0
H3869 H 0.55129 0.54222 0.45842 0.0
H3870 H 0.56547 0.54117 0.43075 0.0
C3871 C 0.6193 0.53513 0.33769 0.0
C3872 C 0.60917 0.52747 0.3874 0.0
H3873 H 0.57039 0.51903 0.40626 0.0
C3874 C 0.62029 0.53398 0.40443 0.0
C3875 C 0.59082 0.52202 0.38866 0.0
C3876 C 0.57762 0.51401 0.37159 0.0
C3877 C 0.61391 0.53584 0.4219 0.0
C3878 C 0.5955 0.53036 0.42324 0.0
C3879 C 0.58442 0.52354 0.40611 0.0
C3880 C 0.58736 0.532 0.4417 0.0
C3881 C 0.62729 0.54457 0.43871 0.0
C3882 C 0.59434 0.52753 0.45833 0.0
C3883 C 0.58633 0.52888 0.47485 0.0
C3884 C 0.5706 0.53428 0.47556 0.0
C3885 C 0.56353 0.53842 0.45897 0.0
C3886 C 0.57169 0.53754 0.44272 0.0
H3887 H 0.6396 0.55354 0.4352 0.0
H3888 H 0.62223 0.55351 0.44901 0.0
H3889 H 0.63068 0.5331 0.44497 0.0
H3890 H 0.60578 0.5223 0.45857 0.0
H3891 H 0.59205 0.52476 0.4868 0.0
H3892 H 0.28398 0.87366 0.03837 0.0
H3893 H 0.29635 0.86457 0.06595 0.0
H3894 H 0.3354 0.91896 0.07901 0.0
H3895 H 0.32274 0.92846 0.05235 0.0
H3896 H 0.32975 0.86199 0.07466 0.0
H3897 H 0.31538 0.91665 0.12639 0.0
H3898 H 0.30603 0.91185 0.10257 0.0
H3899 H 0.32843 0.92575 0.10965 0.0
C3900 C 0.29493 0.88376 0.0474 0.0
C3901 C 0.3021 0.90186 0.04354 0.0
C3902 C 0.30207 0.87855 0.06296 0.0
C3903 C 0.31656 0.8913 0.07455 0.0
C3904 C 0.3239 0.90921 0.07051 0.0
H3905 H 0.35552 0.8617 0.17799 0.0
H3906 H 0.35827 0.87846 0.15171 0.0
C3907 C 0.31658 0.91457 0.05528 0.0
C3908 C 0.32403 0.88578 0.09086 0.0
H3909 H 0.329 0.89532 0.13756 0.0
C3910 C 0.32985 0.86942 0.08843 0.0
C3911 C 0.32442 0.89582 0.10872 0.0
C3912 C 0.31812 0.91341 0.11206 0.0
C3913 C 0.33488 0.862 0.10352 0.0
C3914 C 0.33403 0.87127 0.12126 0.0
C3915 C 0.32968 0.88847 0.12379 0.0
C3916 C 0.33335 0.86117 0.13662 0.0
C3917 C 0.33992 0.84365 0.10044 0.0
C3918 C 0.31829 0.84644 0.13664 0.0
C3919 C 0.31658 0.83724 0.15149 0.0
C3920 C 0.32996 0.84266 0.16646 0.0
C3921 C 0.34511 0.85742 0.16647 0.0
C3922 C 0.34672 0.86685 0.15159 0.0
H3923 H 0.34472 0.84124 0.08697 0.0
H3924 H 0.35022 0.84356 0.11153 0.0
H3925 H 0.32823 0.83166 0.10055 0.0
H3926 H 0.30777 0.8422 0.12521 0.0
H3927 H 0.3049 0.82572 0.15121 0.0
H3928 H 0.97335 0.58422 0.86902 0.0
H3929 H 0.98235 0.57839 0.89967 0.0
H3930 H 0.97639 0.51966 0.87659 0.0
H3931 H 0.96876 0.52579 0.84605 0.0
H3932 H 0.96746 0.55445 0.92162 0.0
H3933 H 0.02661 0.53634 0.89875 0.0
H3934 H 0.0129 0.54598 0.88456 0.0
H3935 H 1.00631 0.52121 0.88621 0.0
C3936 C 0.97425 0.57021 0.87063 0.0
C3937 C 0.97116 0.55563 0.8554 0.0
C3938 C 0.97913 0.56682 0.888 0.0
C3939 C 0.9804 0.54871 0.89015 0.0
C3940 C 0.97605 0.53385 0.87503 0.0
H3941 H 0.01907 0.51749 0.99078 0.0
H3942 H 0.99829 0.51749 0.96441 0.0
C3943 C 0.9718 0.53739 0.85768 0.0
C3944 C 0.98753 0.54572 0.90794 0.0
H3945 H 0.02216 0.53466 0.92922 0.0
C3946 C 0.97935 0.55001 0.92332 0.0
C3947 C 1.00302 0.53984 0.90992 0.0
C3948 C 0.01281 0.53574 0.89402 0.0
C3949 C 0.98672 0.54922 0.94088 0.0
C3950 C 1.00239 0.54394 0.94275 0.0
C3951 C 0.01008 0.53874 0.92739 0.0
C3952 C 0.01227 0.54549 0.96058 0.0
C3953 C 0.97826 0.55469 0.95738 0.0
C3954 C 0.02677 0.56133 0.96687 0.0
C3955 C 0.03881 0.56123 0.98156 0.0
C3956 C 0.03626 0.54532 0.99001 0.0
C3957 C 0.02123 0.52987 0.98428 0.0
C3958 C 0.00931 0.5299 0.96947 0.0
H3959 H 0.96548 0.55742 0.95346 0.0
H3960 H 0.97617 0.54322 0.96565 0.0
H3961 H 0.98717 0.56768 0.96625 0.0
H3962 H 0.02918 0.57333 0.95982 0.0
H3963 H 0.05021 0.57334 0.98605 0.0
H3964 H 0.32578 0.21503 0.56239 0.0
H3965 H 0.32477 0.22713 0.5947 0.0
H3966 H 0.28044 0.24705 0.57871 0.0
H3967 H 0.28154 0.23523 0.54628 0.0
H3968 H 0.32448 0.26595 0.61376 0.0
H3969 H 0.26449 0.20775 0.61466 0.0
H3970 H 0.27923 0.2063 0.5978 0.0
H3971 H 0.26428 0.2205 0.59591 0.0
C3972 C 0.31609 0.22243 0.56572 0.0
C3973 C 0.30381 0.2243 0.55175 0.0
C3974 C 0.31548 0.22924 0.5842 0.0
C3975 C 0.30237 0.23774 0.58913 0.0
C3976 C 0.29058 0.2404 0.5752 0.0
H3977 H 0.27168 0.27463 0.69636 0.0
H3978 H 0.27238 0.26563 0.66318 0.0
C3979 C 0.29135 0.23385 0.55666 0.0
C3980 C 0.30063 0.24314 0.60883 0.0
H3981 H 0.2746 0.23096 0.64165 0.0
C3982 C 0.31355 0.25837 0.61985 0.0
C3983 C 0.28648 0.23306 0.61681 0.0
C3984 C 0.27285 0.21588 0.6058 0.0
C3985 C 0.31249 0.26405 0.63855 0.0
C3986 C 0.29824 0.25408 0.64654 0.0
C3987 C 0.28535 0.23879 0.6355 0.0
C3988 C 0.2971 0.25872 0.66654 0.0
C3989 C 0.32661 0.28083 0.64955 0.0
C3990 C 0.31042 0.25726 0.67942 0.0
C3991 C 0.31008 0.26239 0.69818 0.0
C3992 C 0.2963 0.26901 0.70475 0.0
C3993 C 0.28254 0.26976 0.69185 0.0
C3994 C 0.28294 0.26462 0.67289 0.0
H3995 H 0.33363 0.29002 0.64055 0.0
H3996 H 0.32105 0.28956 0.65954 0.0
H3997 H 0.33639 0.27562 0.65731 0.0
H3998 H 0.32123 0.25225 0.67495 0.0
H3999 H 0.32083 0.26123 0.70754 0.0
H4000 H 0.61438 0.51415 0.2333 0.0
H4001 H 0.60045 0.51732 0.20344 0.0
H4002 H 0.64613 0.51129 0.17922 0.0
H4003 H 0.65948 0.50702 0.20848 0.0
H4004 H 0.60486 0.54068 0.18168 0.0
H4005 H 0.614 0.47764 0.13863 0.0
H4006 H 0.61862 0.48162 0.16329 0.0
H4007 H 0.63466 0.49301 0.14992 0.0
C4008 C 0.62135 0.51304 0.22155 0.0
C4009 C 0.63813 0.50985 0.22373 0.0
C4010 C 0.61334 0.51502 0.20424 0.0
C4011 C 0.62172 0.51411 0.18823 0.0
C4012 C 0.6386 0.51126 0.19058 0.0
H4013 H 0.60016 0.52678 0.07149 0.0
H4014 H 0.6121 0.52277 0.10175 0.0
C4015 C 0.64644 0.50893 0.20771 0.0
C4016 C 0.61329 0.51691 0.16955 0.0
H4017 H 0.60636 0.50035 0.12273 0.0
C4018 C 0.60516 0.53167 0.16887 0.0
C4019 C 0.61333 0.50547 0.15227 0.0
C4020 C 0.62046 0.48845 0.15105 0.0
C4021 C 0.5979 0.53565 0.15207 0.0
C4022 C 0.59813 0.52433 0.13476 0.0
C4023 C 0.60607 0.50942 0.1355 0.0
C4024 C 0.59063 0.52763 0.11587 0.0
C4025 C 0.59069 0.55261 0.15331 0.0
C4026 C 0.57432 0.53179 0.11269 0.0
C4027 C 0.56775 0.53485 0.09526 0.0
C4028 C 0.57674 0.53303 0.07988 0.0
C4029 C 0.59272 0.52833 0.08281 0.0
C4030 C 0.59958 0.52593 0.10036 0.0
H4031 H 0.5966 0.56313 0.16608 0.0
H4032 H 0.5931 0.55987 0.14141 0.0
H4033 H 0.57635 0.54786 0.1537 0.0
H4034 H 0.5663 0.53236 0.12358 0.0
H4035 H 0.55527 0.53808 0.0937 0.0
H4036 H 0.27569 0.88458 0.92935 0.0
H4037 H 0.28079 0.87247 0.89825 0.0
H4038 H 0.33149 0.86868 0.92036 0.0
H4039 H 0.32607 0.87958 0.95125 0.0
H4040 H 0.3062 0.88362 0.87637 0.0
H4041 H 0.30784 0.81473 0.89616 0.0
H4042 H 0.30113 0.83248 0.91079 0.0
H4043 H 0.32406 0.83471 0.90987 0.0
C4044 C 0.2878 0.88095 0.92746 0.0
C4045 C 0.3002 0.88225 0.94259 0.0
C4046 C 0.29078 0.87426 0.90979 0.0
C4047 C 0.30632 0.86923 0.90719 0.0
C4048 C 0.31919 0.87187 0.92221 0.0
H4049 H 0.33189 0.8048 0.81031 0.0
H4050 H 0.33584 0.82678 0.83976 0.0
C4051 C 0.31602 0.878 0.9398 0.0
C4052 C 0.30861 0.85997 0.88904 0.0
H4053 H 0.31395 0.81875 0.86649 0.0
C4054 C 0.30795 0.86947 0.87417 0.0
C4055 C 0.31096 0.84153 0.88633 0.0
C4056 C 0.31088 0.83019 0.90159 0.0
C4057 C 0.30933 0.86081 0.85649 0.0
C4058 C 0.31134 0.84227 0.85381 0.0
C4059 C 0.31259 0.83307 0.86876 0.0
C4060 C 0.31002 0.83106 0.83545 0.0
C4061 C 0.30838 0.87142 0.84082 0.0
C4062 C 0.29415 0.82614 0.82366 0.0
C4063 C 0.29186 0.81355 0.8072 0.0
C4064 C 0.30533 0.80559 0.80248 0.0
C4065 C 0.32129 0.81058 0.81408 0.0
C4066 C 0.3236 0.82324 0.83062 0.0
H4067 H 0.31227 0.88703 0.84578 0.0
H4068 H 0.31693 0.86802 0.83061 0.0
H4069 H 0.29468 0.86721 0.8338 0.0
H4070 H 0.28338 0.83164 0.82741 0.0
H4071 H 0.27956 0.80997 0.79813 0.0
H4072 H 0.97085 0.57213 0.75467 0.0
H4073 H 0.97938 0.55859 0.7259 0.0
H4074 H 0.94135 0.50502 0.72546 0.0
H4075 H 0.93215 0.51868 0.75336 0.0
H4076 H 0.99269 0.52853 0.71958 0.0
H4077 H 0.92878 0.5138 0.67485 0.0
H4078 H 0.93322 0.52809 0.69754 0.0
H4079 H 0.9281 0.50266 0.69466 0.0
C4080 C 0.96415 0.55763 0.74814 0.0
C4081 C 0.95062 0.54658 0.75578 0.0
C4082 C 0.96905 0.54987 0.7319 0.0
C4083 C 0.9607 0.53094 0.72353 0.0
C4084 C 0.94749 0.51981 0.73144 0.0
H4085 H 0.99988 0.49113 0.62189 0.0
H4086 H 0.98408 0.48602 0.64843 0.0
C4087 C 0.94228 0.52766 0.74733 0.0
C4088 C 0.96607 0.52286 0.7066 0.0
H4089 H 0.95227 0.50749 0.66082 0.0
C4090 C 0.9838 0.52353 0.70678 0.0
C4091 C 0.95426 0.5161 0.69008 0.0
C4092 C 0.93506 0.51521 0.68916 0.0
C4093 C 0.99039 0.51913 0.6905 0.0
C4094 C 0.97883 0.51382 0.67388 0.0
C4095 C 0.96087 0.51144 0.67381 0.0
C4096 C 0.98579 0.51573 0.65669 0.0
C4097 C 0.00986 0.52194 0.69091 0.0
C4098 C 0.99119 0.53397 0.65263 0.0
C4099 C 1.00005 0.5369 0.63774 0.0
C4100 C 1.00358 0.52158 0.62678 0.0
C4101 C 0.99727 0.50309 0.63028 0.0
C4102 C 0.98832 0.50015 0.64528 0.0
H4103 H 0.0163 0.52181 0.70477 0.0
H4104 H 0.01254 0.51076 0.68079 0.0
H4105 H 0.01586 0.5359 0.68715 0.0
H4106 H 0.98928 0.54607 0.66153 0.0
H4107 H 1.00509 0.55132 0.63552 0.0
H4108 H 0.26621 0.20608 0.43543 0.0
H4109 H 0.26884 0.21636 0.4058 0.0
H4110 H 0.32262 0.24824 0.42546 0.0
H4111 H 0.32034 0.23641 0.45444 0.0
H4112 H 0.27289 0.24694 0.39507 0.0
H4113 H 0.33205 0.22575 0.3785 0.0
H4114 H 0.32137 0.21905 0.39774 0.0
H4115 H 0.33652 0.2423 0.39966 0.0
C4116 C 0.27867 0.21506 0.43328 0.0
C4117 C 0.29313 0.22022 0.44718 0.0
C4118 C 0.28019 0.22104 0.41631 0.0
C4119 C 0.29609 0.23282 0.41287 0.0
C4120 C 0.3104 0.2385 0.42712 0.0
H4121 H 0.32739 0.29111 0.32257 0.0
H4122 H 0.32489 0.27942 0.35146 0.0
C4123 C 0.30905 0.23192 0.44387 0.0
C4124 C 0.2973 0.23956 0.39472 0.0
H4125 H 0.32253 0.24553 0.35997 0.0
C4126 C 0.28371 0.24639 0.38738 0.0
C4127 C 0.31139 0.23909 0.38441 0.0
C4128 C 0.32604 0.23098 0.3904 0.0
C4129 C 0.28389 0.25289 0.37049 0.0
C4130 C 0.29803 0.25254 0.36035 0.0
C4131 C 0.31166 0.24584 0.36765 0.0
C4132 C 0.29927 0.2595 0.34242 0.0
C4133 C 0.26908 0.26054 0.36397 0.0
C4134 C 0.28583 0.2521 0.32738 0.0
C4135 C 0.28717 0.25896 0.31077 0.0
C4136 C 0.30212 0.27313 0.30872 0.0
C4137 C 0.3157 0.28016 0.32361 0.0
C4138 C 0.31428 0.27347 0.34021 0.0
H4139 H 0.26208 0.26478 0.37543 0.0
H4140 H 0.27392 0.27299 0.35735 0.0
H4141 H 0.25943 0.2493 0.35375 0.0
H4142 H 0.27432 0.24095 0.32841 0.0
H4143 H 0.27651 0.25319 0.29956 0.0
H4144 H 0.33047 0.60377 0.53428 0.0
H4145 H 0.35702 0.59433 0.52962 0.0
H4146 H 0.36571 0.62765 0.48681 0.0
H4147 H 0.33929 0.63768 0.49177 0.0
H4148 H 0.36367 0.57478 0.49825 0.0
H4149 H 0.41304 0.64537 0.51929 0.0
H4150 H 0.3907 0.64129 0.52405 0.0
H4151 H 0.39574 0.64382 0.50136 0.0
C4152 C 0.33805 0.60916 0.52392 0.0
C4153 C 0.33288 0.62146 0.51339 0.0
C4154 C 0.3532 0.60377 0.52129 0.0
C4155 C 0.36336 0.61049 0.50803 0.0
C4156 C 0.35819 0.62267 0.49737 0.0
H4157 H 0.45505 0.57381 0.47972 0.0
H4158 H 0.43061 0.5882 0.47828 0.0
C4159 C 0.34309 0.62827 0.50014 0.0
C4160 C 0.37902 0.60407 0.50518 0.0
H4161 H 0.42368 0.61906 0.50994 0.0
C4162 C 0.37678 0.58447 0.50064 0.0
C4163 C 0.39604 0.61683 0.50828 0.0
C4164 C 0.39913 0.638 0.51365 0.0
C4165 C 0.39122 0.57719 0.49972 0.0
C4166 C 0.40822 0.58988 0.5034 0.0
C4167 C 0.41051 0.6095 0.50716 0.0
C4168 C 0.42372 0.58278 0.50477 0.0
C4169 C 0.38828 0.55597 0.49535 0.0
C4170 C 0.42793 0.57547 0.52033 0.0
C4171 C 0.44178 0.5673 0.5212 0.0
C4172 C 0.45153 0.56629 0.50648 0.0
C4173 C 0.4476 0.57424 0.49115 0.0
C4174 C 0.43377 0.58251 0.49034 0.0
H4175 H 0.3744 0.54834 0.48977 0.0
H4176 H 0.39684 0.55231 0.48526 0.0
H4177 H 0.39175 0.55085 0.50807 0.0
H4178 H 0.42021 0.57566 0.53157 0.0
H4179 H 0.44441 0.56112 0.53308 0.0
H4180 H 0.87048 0.90759 0.51712 0.0
H4181 H 0.90003 0.92605 0.51432 0.0
H4182 H 0.89324 0.97404 0.55042 0.0
H4183 H 0.86341 0.95558 0.55322 0.0
H4184 H 0.91282 0.9613 0.50209 0.0
H4185 H 0.93894 0.96574 0.57483 0.0
H4186 H 0.91851 0.94901 0.56383 0.0
H4187 H 0.91947 0.97345 0.57157 0.0
C4188 C 0.87519 0.92208 0.52452 0.0
C4189 C 0.86444 0.92995 0.53558 0.0
C4190 C 0.89217 0.93269 0.52281 0.0
C4191 C 0.89914 0.95145 0.53232 0.0
C4192 C 0.88837 0.95952 0.54311 0.0
H4193 H 0.99674 0.03994 0.54899 0.0
H4194 H 0.96776 0.01859 0.54849 0.0
C4195 C 0.87122 0.94896 0.54466 0.0
C4196 C 0.91774 0.9623 0.5312 0.0
H4197 H 0.95765 0.98398 0.55736 0.0
C4198 C 0.92264 0.9662 0.51417 0.0
C4199 C 0.93076 0.96853 0.54683 0.0
C4200 C 0.92679 0.96386 0.56529 0.0
C4201 C 0.93985 0.97677 0.51254 0.0
C4202 C 0.95277 0.98341 0.5283 0.0
C4203 C 0.94791 0.97906 0.54521 0.0
C4204 C 0.97094 0.99613 0.52807 0.0
C4205 C 0.94383 0.98134 0.49405 0.0
C4206 C 0.98289 0.9908 0.5169 0.0
C4207 C 0.99982 1.00319 0.51721 0.0
C4208 C 1.00519 0.02115 0.52876 0.0
C4209 C 0.99323 0.02622 0.53997 0.0
C4210 C 0.97651 0.01396 0.5397 0.0
H4211 H 0.93169 0.97884 0.48429 0.0
H4212 H 0.95164 0.99636 0.49539 0.0
H4213 H 0.95163 0.97214 0.48809 0.0
H4214 H 0.97919 0.97704 0.50796 0.0
H4215 H 0.00846 0.99888 0.50814 0.0
H4216 H 0.91476 0.12821 0.27401 0.0
H4217 H 0.9022 0.15543 0.27739 0.0
H4218 H 0.86072 0.12527 0.23367 0.0
H4219 H 0.87325 0.09822 0.2302 0.0
H4220 H 0.89552 0.18078 0.25564 0.0
H4221 H 0.83105 0.14149 0.27048 0.0
H4222 H 0.84954 0.13172 0.27086 0.0
H4223 H 0.83665 0.13087 0.2494 0.0
C4224 C 0.9029 0.12719 0.26508 0.0
C4225 C 0.89521 0.11036 0.25182 0.0
C4226 C 0.89562 0.14306 0.26703 0.0
C4227 C 0.88 0.14298 0.25609 0.0
C4228 C 0.87242 0.12621 0.2428 0.0
H4229 H 0.80778 0.21732 0.2479 0.0
H4230 H 0.82254 0.19221 0.24676 0.0
C4231 C 0.87979 0.11048 0.2407 0.0
C4232 C 0.87183 0.16015 0.25829 0.0
H4233 H 0.83329 0.17222 0.26413 0.0
C4234 C 0.88188 0.17877 0.25751 0.0
C4235 C 0.85399 0.1584 0.26093 0.0
C4236 C 0.84218 0.13962 0.26316 0.0
C4237 C 0.87474 0.1948 0.25834 0.0
C4238 C 0.85673 0.19304 0.26075 0.0
C4239 C 0.84688 0.17441 0.26201 0.0
C4240 C 0.84766 0.20964 0.26152 0.0
C4241 C 0.88676 0.21333 0.25577 0.0
C4242 C 0.85598 0.22882 0.2703 0.0
C4243 C 0.84748 0.24367 0.2704 0.0
C4244 C 0.82983 0.24023 0.26241 0.0
C4245 C 0.82129 0.22105 0.25425 0.0
C4246 C 0.82993 0.20635 0.25368 0.0
H4247 H 0.89772 0.21106 0.24836 0.0
H4248 H 0.8796 0.22128 0.24794 0.0
H4249 H 0.89266 0.22213 0.26943 0.0
H4250 H 0.86914 0.23254 0.27752 0.0
H4251 H 0.85475 0.25792 0.27717 0.0
H4252 H 0.73673 0.14901 0.99652 0.0
H4253 H 0.70469 0.13817 0.99466 0.0
H4254 H 0.70924 0.09135 0.02101 0.0
H4255 H 0.74112 0.10188 0.02276 0.0
H4256 H 0.68187 0.08847 0.98311 0.0
H4257 H 0.68237 0.13634 0.04886 0.0
H4258 H 0.69738 0.14344 0.03279 0.0
H4259 H 0.70037 0.12609 0.04619 0.0
C4260 C 0.73079 0.13622 1.00159 0.0
C4261 C 0.74114 0.12616 0.00975 0.0
C4262 C 0.71267 0.13016 1.00055 0.0
C4263 C 0.70502 0.11419 0.00783 0.0
C4264 C 0.71524 0.10372 0.01533 0.0
H4265 H 0.61253 0.05729 0.04443 0.0
H4266 H 0.64245 0.0734 0.03986 0.0
C4267 C 0.7333 0.10963 0.01619 0.0
C4268 C 0.68634 0.1085 0.00838 0.0
H4269 H 0.65634 0.11188 0.03733 0.0
C4270 C 0.67606 0.09375 0.99469 0.0
C4271 C 0.67931 0.11552 0.02376 0.0
C4272 C 0.69035 0.13127 0.03879 0.0
C4273 C 0.65874 0.08502 0.99642 0.0
C4274 C 0.65179 0.09169 0.01207 0.0
C4275 C 0.66193 0.10696 0.02542 0.0
C4276 C 0.63411 0.08258 0.01506 0.0
C4277 C 0.64835 0.06817 0.98207 0.0
C4278 C 0.61993 0.08281 1.00269 0.0
C4279 C 0.60311 0.07347 0.00508 0.0
C4280 C 0.60039 0.06417 0.02005 0.0
C4281 C 0.61454 0.06442 0.03279 0.0
C4282 C 0.63145 0.07355 0.03022 0.0
H4283 H 0.65691 0.06232 0.97325 0.0
H4284 H 0.64082 0.05669 0.98859 0.0
H4285 H 0.63887 0.07261 0.97308 0.0
H4286 H 0.6219 0.09014 0.99119 0.0
H4287 H 0.59222 0.07376 0.99537 0.0
H4288 H 0.22371 0.51393 0.24989 0.0
H4289 H 0.23609 0.48819 0.25549 0.0
H4290 H 0.19325 0.46617 0.28478 0.0
H4291 H 0.18052 0.49167 0.27901 0.0
H4292 H 0.24571 0.48101 0.29083 0.0
H4293 H 0.19502 0.42032 0.24644 0.0
H4294 H 0.19747 0.44469 0.24404 0.0
H4295 H 0.18703 0.43567 0.26248 0.0
C4296 C 0.21685 0.50353 0.2574 0.0
C4297 C 0.20117 0.50466 0.264 0.0
C4298 C 0.22393 0.48893 0.26058 0.0
C4299 C 0.21537 0.47542 0.27035 0.0
C4300 C 0.19974 0.47645 0.27695 0.0
H4301 H 0.25121 0.38129 0.30044 0.0
H4302 H 0.23511 0.40548 0.3003 0.0
C4303 C 0.19259 0.49099 0.27371 0.0
C4304 C 0.22325 0.46059 0.27416 0.0
H4305 H 0.21795 0.41307 0.26373 0.0
C4306 C 0.23963 0.46612 0.28508 0.0
C4307 C 0.21508 0.44135 0.26649 0.0
C4308 C 0.19774 0.43508 0.25408 0.0
C4309 C 0.24837 0.4527 0.28827 0.0
C4310 C 0.24037 0.43353 0.28033 0.0
C4311 C 0.22376 0.4279 0.26989 0.0
C4312 C 0.24994 0.41944 0.28091 0.0
C4313 C 0.26627 0.45908 0.29962 0.0
C4314 C 0.26318 0.41954 0.26983 0.0
C4315 C 0.27209 0.40581 0.26972 0.0
C4316 C 0.26782 0.39205 0.28077 0.0
C4317 C 0.25458 0.39197 0.29192 0.0
C4318 C 0.24549 0.40562 0.29185 0.0
H4319 H 0.26897 0.47361 0.30779 0.0
H4320 H 0.2675 0.44911 0.30906 0.0
H4321 H 0.27641 0.45916 0.29035 0.0
H4322 H 0.26652 0.43015 0.26122 0.0
H4323 H 0.2824 0.406 0.26116 0.0
H4324 H 0.2715 0.44635 0.06171 0.0
H4325 H 0.24525 0.45717 0.05782 0.0
H4326 H 0.23076 0.42345 1.00332 0.0
H4327 H 0.25686 0.41197 0.00744 0.0
H4328 H 0.23628 0.4777 0.03557 0.0
H4329 H 0.18423 0.40912 0.02068 0.0
H4330 H 0.20674 0.4107 0.02859 0.0
H4331 H 0.20003 0.41104 0.0049 0.0
C4332 C 0.26273 0.44111 0.04888 0.0
C4333 C 0.26646 0.42828 0.03488 0.0
C4334 C 0.24761 0.44733 0.04667 0.0
C4335 C 0.23566 0.44104 0.03036 0.0
C4336 C 0.23936 0.42825 0.01626 0.0
H4337 H 0.14282 0.48101 1.0001 0.0
H4338 H 0.16645 0.46542 0.99874 0.0
C4339 C 0.25447 0.42183 0.01855 0.0
C4340 C 0.22004 0.44883 0.0281 0.0
H4341 H 0.17509 0.43682 0.01888 0.0
C4342 C 0.22293 0.46865 0.03195 0.0
C4343 C 0.20246 0.43722 0.02311 0.0
C4344 C 0.1981 0.41584 0.01923 0.0
C4345 C 0.20902 0.47709 0.03131 0.0
C4346 C 0.1915 0.46553 0.02689 0.0
C4347 C 0.1885 0.44573 0.02239 0.0
C4348 C 0.17628 0.47389 0.02771 0.0
C4349 C 0.21324 0.49846 0.03537 0.0
C4350 C 0.1736 0.48357 0.04447 0.0
C4351 C 0.16016 0.49257 0.0453 0.0
C4352 C 0.14888 0.49213 0.02939 0.0
C4353 C 0.15131 0.48195 0.01264 0.0
C4354 C 0.16477 0.47287 0.01184 0.0
H4355 H 0.22709 0.50533 0.03395 0.0
H4356 H 0.20451 0.50354 0.02605 0.0
H4357 H 0.2112 0.50312 0.04969 0.0
H4358 H 0.18212 0.48443 0.05697 0.0
H4359 H 0.15898 0.50037 0.05843 0.0
H4360 H 0.8823 0.01029 0.27665 0.0
H4361 H 0.86659 0.97763 0.27917 0.0
H4362 H 0.89413 0.95586 0.23766 0.0
H4363 H 0.91061 0.98829 0.23629 0.0
H4364 H 0.84448 0.94874 0.26242 0.0
H4365 H 0.90158 0.92015 0.2673 0.0
H4366 H 0.90415 0.94506 0.26786 0.0
H4367 H 0.89933 0.92866 0.24622 0.0
C4368 C 0.88498 0.99856 0.26797 0.0
C4369 C 0.89783 1.00241 0.25608 0.0
C4370 C 0.87593 0.97956 0.26946 0.0
C4371 C 0.87912 0.9633 0.25908 0.0
C4372 C 0.89154 0.96736 0.24671 0.0
H4373 H 0.83131 0.83576 0.24541 0.0
H4374 H 0.84914 0.86803 0.24368 0.0
C4375 C 0.90087 0.98628 0.24558 0.0
C4376 C 0.86923 0.94255 0.2608 0.0
H4377 H 0.87365 0.89736 0.26187 0.0
C4378 C 0.85112 0.93772 0.26244 0.0
C4379 C 0.8772 0.92729 0.26086 0.0
C4380 C 0.89665 0.93057 0.26066 0.0
C4381 C 0.84106 0.91895 0.2636 0.0
C4382 C 0.84896 0.90367 0.26354 0.0
C4383 C 0.86708 0.90844 0.26188 0.0
C4384 C 0.8388 0.88307 0.26536 0.0
C4385 C 0.82167 0.91575 0.2642 0.0
C4386 C 0.8272 0.87959 0.27856 0.0
C4387 C 0.81676 0.86104 0.27934 0.0
C4388 C 0.81777 0.84458 0.26757 0.0
C4389 C 0.83013 0.84772 0.25504 0.0
C4390 C 0.84037 0.86649 0.25396 0.0
H4391 H 0.81666 0.92629 0.25783 0.0
H4392 H 0.81403 0.90132 0.25698 0.0
H4393 H 0.81926 0.91754 0.27873 0.0
H4394 H 0.82593 0.89134 0.28835 0.0
H4395 H 0.80755 0.85961 0.28921 0.0
H4396 H 0.7002 0.10743 0.79989 0.0
H4397 H 0.71917 0.13982 0.8033 0.0
H4398 H 0.69532 0.14403 0.75008 0.0
H4399 H 0.67563 0.11234 0.74731 0.0
H4400 H 0.74173 0.14344 0.78001 0.0
H4401 H 0.70585 0.19744 0.7751 0.0
H4402 H 0.69554 0.17447 0.78029 0.0
H4403 H 0.69715 0.17746 0.75684 0.0
C4404 C 0.6985 0.11576 0.78943 0.0
C4405 C 0.68673 0.10768 0.77332 0.0
C4406 C 0.70926 0.13414 0.79136 0.0
C4407 C 0.70861 0.1442 0.77693 0.0
C4408 C 0.69571 0.13669 0.76157 0.0
H4409 H 0.7788 0.2317 0.73716 0.0
H4410 H 0.76049 0.20005 0.73852 0.0
C4411 C 0.68457 0.11855 0.75992 0.0
C4412 C 0.72357 0.16012 0.77594 0.0
H4413 H 0.73467 0.20432 0.76548 0.0
C4414 C 0.74023 0.1569 0.77717 0.0
C4415 C 0.72145 0.17742 0.77188 0.0
C4416 C 0.70403 0.18193 0.77113 0.0
C4417 C 0.75487 0.17056 0.7742 0.0
C4418 C 0.75259 0.18754 0.76972 0.0
C4419 C 0.73606 0.19091 0.76859 0.0
C4420 C 0.76738 0.20298 0.76785 0.0
C4421 C 0.77262 0.16682 0.77563 0.0
C4422 C 0.77773 0.2143 0.78381 0.0
C4423 C 0.78794 0.23233 0.78314 0.0
C4424 C 0.78777 0.23896 0.76649 0.0
C4425 C 0.77898 0.22678 0.75015 0.0
C4426 C 0.76861 0.20878 0.75087 0.0
H4427 H 0.77168 0.15173 0.77624 0.0
H4428 H 0.77932 0.17072 0.76375 0.0
H4429 H 0.7809 0.17581 0.78828 0.0
H4430 H 0.77668 0.20989 0.797 0.0
H4431 H 0.79497 0.24151 0.7958 0.0
loop_
_geom_bond_atom_site_label_1
_geom_bond_atom_site_label_2
_geom_bond_distance
_geom_bond_site_symmetry_2
_ccdc_geom_bond_type
O0 Cd1 2.223 . S
O0 C8 1.315 . S
Cd1 O0 2.223 . S
Cd1 O4 2.297 . S
Cd1 O5 2.439 . S
Cd1 O11 2.240 . S
Cd2 O3 2.240 . S
Cd2 O10 2.223 . S
Cd2 O12 2.297 . S
Cd2 O13 2.439 . S
O3 Cd2 2.240 . S
O3 C8 1.279 . S
O4 Cd1 2.297 . S
O4 C6 1.247 . S
O5 Cd1 2.439 . S
O5 C6 1.208 . S
C6 O4 1.247 . S
C6 O5 1.208 . S
C7 O12 1.247 . S
C7 O13 1.208 . S
C8 O0 1.315 . S
C8 O3 1.279 . S
C9 O10 1.315 . S
C9 O11 1.279 . S
O10 Cd2 2.223 . S
O10 C9 1.315 . S
O11 Cd1 2.240 . S
O11 C9 1.279 . S
O12 Cd2 2.297 . S
O12 C7 1.247 . S
O13 Cd2 2.439 . S
O13 C7 1.208 . S
O14 Cd15 2.251 . S
O14 C22 1.323 . S
Cd15 O14 2.251 . S
Cd15 O18 2.297 . S
Cd15 O19 2.439 . S
Cd15 O25 2.240 1_655 S
Cd16 O17 2.240 1_455 S
Cd16 O24 2.223 . S
Cd16 O26 2.297 . S
Cd16 O27 2.447 . S
O17 Cd16 2.240 1_655 S
O17 C22 1.279 . S
O18 Cd15 2.297 . S
O18 C20 1.247 . S
O19 Cd15 2.439 . S
O19 C20 1.208 . S
C20 O18 1.247 . S
C20 O19 1.208 . S
C21 O26 1.247 . S
C21 O27 1.218 . S
C22 O14 1.323 . S
C22 O17 1.279 . S
C23 O24 1.315 . S
C23 O25 1.279 . S
O24 Cd16 2.223 . S
O24 C23 1.315 . S
O25 Cd15 2.240 1_455 S
O25 C23 1.279 . S
O26 Cd16 2.297 . S
O26 C21 1.247 . S
O27 Cd16 2.447 . S
O27 C21 1.218 . S
O28 Cd29 2.223 . S
O28 C36 1.315 . S
Cd29 O28 2.223 . S
Cd29 O32 2.297 . S
Cd29 O33 2.439 . S
Cd29 O39 2.240 . S
Cd30 O31 2.240 . S
Cd30 O38 2.223 . S
Cd30 O40 2.297 . S
Cd30 O41 2.439 . S
O31 Cd30 2.240 . S
O31 C36 1.279 . S
O32 Cd29 2.297 . S
O32 C34 1.247 . S
O33 Cd29 2.439 . S
O33 C34 1.208 . S
C34 O32 1.247 . S
C34 O33 1.208 . S
C35 O40 1.247 . S
C35 O41 1.208 . S
C36 O28 1.315 . S
C36 O31 1.279 . S
C37 O38 1.315 . S
C37 O39 1.279 . S
O38 Cd30 2.223 . S
O38 C37 1.315 . S
O39 Cd29 2.240 . S
O39 C37 1.279 . S
O40 Cd30 2.297 . S
O40 C35 1.247 . S
O41 Cd30 2.439 . S
O41 C35 1.208 . S
O42 Cd43 2.223 . S
O42 C50 1.315 . S
Cd43 O42 2.223 . S
Cd43 O46 2.297 . S
Cd43 O47 2.439 . S
Cd43 O53 2.240 . S
Cd44 O45 2.240 . S
Cd44 O52 2.223 . S
Cd44 O54 2.297 . S
Cd44 O55 2.439 . S
O45 Cd44 2.240 . S
O45 C50 1.279 . S
O46 Cd43 2.297 . S
O46 C48 1.247 . S
O47 Cd43 2.439 . S
O47 C48 1.208 . S
C48 O46 1.247 . S
C48 O47 1.208 . S
C49 O54 1.247 . S
C49 O55 1.208 . S
C50 O42 1.315 . S
C50 O45 1.279 . S
C51 O52 1.315 . S
C51 O53 1.279 . S
O52 Cd44 2.223 . S
O52 C51 1.315 . S
O53 Cd43 2.240 . S
O53 C51 1.279 . S
O54 Cd44 2.297 . S
O54 C49 1.247 . S
O55 Cd44 2.439 . S
O55 C49 1.208 . S
O56 Cd57 2.223 . S
O56 C64 1.315 . S
Cd57 O56 2.223 . S
Cd57 O60 2.297 . S
Cd57 O61 2.439 . S
Cd57 O67 2.240 . S
Cd58 O59 2.240 . S
Cd58 O66 2.223 . S
Cd58 O68 2.297 . S
Cd58 O69 2.439 . S
O59 Cd58 2.240 . S
O59 C64 1.279 . S
O60 Cd57 2.297 . S
O60 C62 1.247 . S
O61 Cd57 2.439 . S
O61 C62 1.208 . S
C62 O60 1.247 . S
C62 O61 1.208 . S
C63 O68 1.247 . S
C63 O69 1.208 . S
C64 O56 1.315 . S
C64 O59 1.279 . S
C65 O66 1.315 . S
C65 O67 1.279 . S
O66 Cd58 2.223 . S
O66 C65 1.315 . S
O67 Cd57 2.240 . S
O67 C65 1.279 . S
O68 Cd58 2.297 . S
O68 C63 1.247 . S
O69 Cd58 2.439 . S
O69 C63 1.208 . S
O70 Cd71 2.223 . S
O70 C78 1.315 . S
Cd71 O70 2.223 . S
Cd71 O74 2.297 . S
Cd71 O75 2.439 . S
Cd71 O81 2.240 . S
Cd72 O73 2.240 . S
Cd72 O80 2.223 . S
Cd72 O82 2.297 . S
Cd72 O83 2.439 . S
O73 Cd72 2.240 . S
O73 C78 1.279 . S
O74 Cd71 2.297 . S
O74 C76 1.247 . S
O75 Cd71 2.439 . S
O75 C76 1.208 . S
C76 O74 1.247 . S
C76 O75 1.208 . S
C77 O82 1.247 . S
C77 O83 1.208 . S
C78 O70 1.315 . S
C78 O73 1.279 . S
C79 O80 1.315 . S
C79 O81 1.279 . S
O80 Cd72 2.223 . S
O80 C79 1.315 . S
O81 Cd71 2.240 . S
O81 C79 1.279 . S
O82 Cd72 2.297 . S
O82 C77 1.247 . S
O83 Cd72 2.439 . S
O83 C77 1.208 . S
O84 Cd85 2.223 . S
O84 C92 1.315 . S
Cd85 O84 2.223 . S
Cd85 O88 2.297 . S
Cd85 O89 2.439 . S
Cd85 O95 2.240 . S
Cd86 O87 2.240 . S
Cd86 O94 2.223 . S
Cd86 O96 2.297 . S
Cd86 O97 2.439 . S
O87 Cd86 2.240 . S
O87 C92 1.279 . S
O88 Cd85 2.297 . S
O88 C90 1.247 . S
O89 Cd85 2.439 . S
O89 C90 1.208 . S
C90 O88 1.247 . S
C90 O89 1.208 . S
C91 O96 1.247 . S
C91 O97 1.208 . S
C92 O84 1.315 . S
C92 O87 1.279 . S
C93 O94 1.315 . S
C93 O95 1.279 . S
O94 Cd86 2.223 . S
O94 C93 1.315 . S
O95 Cd85 2.240 . S
O95 C93 1.279 . S
O96 Cd86 2.297 . S
O96 C91 1.247 . S
O97 Cd86 2.439 . S
O97 C91 1.208 . S
O98 Cd99 2.223 . S
O98 C106 1.315 . S
Cd99 O98 2.223 . S
Cd99 O102 2.297 . S
Cd99 O103 2.439 . S
Cd99 O109 2.240 . S
Cd100 O101 2.240 . S
Cd100 O108 2.223 1_455 S
Cd100 O110 2.297 . S
Cd100 O111 2.439 . S
O101 Cd100 2.240 . S
O101 C106 1.279 . S
O102 Cd99 2.297 . S
O102 C104 1.247 . S
O103 Cd99 2.439 . S
O103 C104 1.208 . S
C104 O102 1.247 . S
C104 O103 1.208 . S
C105 O110 1.247 . S
C105 O111 1.208 . S
C106 O98 1.315 . S
C106 O101 1.279 . S
C107 O108 1.315 . S
C107 O109 1.279 1_655 S
O108 Cd100 2.223 1_655 S
O108 C107 1.315 . S
O109 Cd99 2.240 . S
O109 C107 1.279 1_455 S
O110 Cd100 2.297 . S
O110 C105 1.247 . S
O111 Cd100 2.439 . S
O111 C105 1.208 . S
O112 Cd113 2.223 . S
O112 C120 1.315 . S
Cd113 O112 2.223 . S
Cd113 O116 2.297 . S
Cd113 O117 2.439 . S
Cd113 O123 2.244 1_545 S
Cd114 O115 2.240 . S
Cd114 O122 2.223 1_545 S
Cd114 O124 2.297 . S
Cd114 O125 2.439 . S
O115 Cd114 2.240 . S
O115 C120 1.279 . S
O116 Cd113 2.297 . S
O116 C118 1.247 . S
O117 Cd113 2.439 . S
O117 C118 1.208 . S
C118 O116 1.247 . S
C118 O117 1.208 . S
C119 O124 1.247 . S
C119 O125 1.208 . S
C120 O112 1.315 . S
C120 O115 1.279 . S
C121 O122 1.315 . S
C121 O123 1.276 . S
O122 Cd114 2.223 1_565 S
O122 C121 1.315 . S
O123 Cd113 2.244 1_565 S
O123 C121 1.276 . S
O124 Cd114 2.297 . S
O124 C119 1.247 . S
O125 Cd114 2.439 . S
O125 C119 1.208 . S
O126 Cd127 2.223 . S
O126 C134 1.315 . S
Cd127 O126 2.223 . S
Cd127 O130 2.297 . S
Cd127 O131 2.439 . S
Cd127 O137 2.240 . S
Cd128 O129 2.240 . S
Cd128 O136 2.223 . S
Cd128 O138 2.297 . S
Cd128 O139 2.439 . S
O129 Cd128 2.240 . S
O129 C134 1.279 . S
O130 Cd127 2.297 . S
O130 C132 1.247 . S
O131 Cd127 2.439 . S
O131 C132 1.208 . S
C132 O130 1.247 . S
C132 O131 1.208 . S
C133 O138 1.247 . S
C133 O139 1.208 . S
C134 O126 1.315 . S
C134 O129 1.279 . S
C135 O136 1.315 . S
C135 O137 1.279 . S
O136 Cd128 2.223 . S
O136 C135 1.315 . S
O137 Cd127 2.240 . S
O137 C135 1.279 . S
O138 Cd128 2.297 . S
O138 C133 1.247 . S
O139 Cd128 2.439 . S
O139 C133 1.208 . S
O140 Cd141 2.223 1_545 S
O140 C148 1.315 1_545 S
Cd141 O140 2.223 1_565 S
Cd141 O144 2.297 . S
Cd141 O145 2.439 . S
Cd141 O151 2.240 1_565 S
Cd142 O143 2.240 1_545 S
Cd142 O150 2.223 . S
Cd142 O152 2.297 . S
Cd142 O153 2.439 1_545 S
O143 Cd142 2.240 1_565 S
O143 C148 1.279 . S
O144 Cd141 2.297 . S
O144 C146 1.247 . S
O145 Cd141 2.439 . S
O145 C146 1.208 . S
C146 O144 1.247 . S
C146 O145 1.208 . S
C147 O152 1.247 . S
C147 O153 1.208 1_545 S
C148 O140 1.315 1_565 S
C148 O143 1.279 . S
C149 O150 1.315 . S
C149 O151 1.279 . S
O150 Cd142 2.223 . S
O150 C149 1.315 . S
O151 Cd141 2.240 1_545 S
O151 C149 1.279 . S
O152 Cd142 2.297 . S
O152 C147 1.247 . S
O153 Cd142 2.439 1_565 S
O153 C147 1.208 1_565 S
O154 Cd155 2.223 . S
O154 C162 1.315 . S
Cd155 O154 2.223 . S
Cd155 O158 2.297 . S
Cd155 O159 2.415 1_554 S
Cd155 O165 2.240 . S
Cd156 O157 2.240 1_556 S
Cd156 O164 2.223 1_556 S
Cd156 O166 2.297 . S
Cd156 O167 2.439 . S
O157 Cd156 2.240 1_554 S
O157 C162 1.279 . S
O158 Cd155 2.297 . S
O158 C160 1.247 . S
O159 Cd155 2.415 1_556 S
O159 C160 1.165 1_556 S
C160 O158 1.247 . S
C160 O159 1.165 1_554 S
C161 O166 1.247 . S
C161 O167 1.208 . S
C162 O154 1.315 . S
C162 O157 1.279 . S
C163 O164 1.315 . S
C163 O165 1.279 . S
O164 Cd156 2.223 1_554 S
O164 C163 1.315 . S
O165 Cd155 2.240 . S
O165 C163 1.279 . S
O166 Cd156 2.297 . S
O166 C161 1.247 . S
O167 Cd156 2.439 . S
O167 C161 1.208 . S
O168 Cd169 2.223 . S
O168 C176 1.315 . S
Cd169 O168 2.223 . S
Cd169 O172 2.297 . S
Cd169 O173 2.439 . S
Cd169 O179 2.240 . S
Cd170 O171 2.240 . S
Cd170 O178 2.223 . S
Cd170 O180 2.297 1_554 S
Cd170 O181 2.439 1_554 S
O171 Cd170 2.240 . S
O171 C176 1.279 . S
O172 Cd169 2.297 . S
O172 C174 1.247 . S
O173 Cd169 2.439 . S
O173 C174 1.208 . S
C174 O172 1.247 . S
C174 O173 1.208 . S
C175 O180 1.247 . S
C175 O181 1.208 . S
C176 O168 1.315 . S
C176 O171 1.279 . S
C177 O178 1.315 . S
C177 O179 1.279 . S
O178 Cd170 2.223 . S
O178 C177 1.315 . S
O179 Cd169 2.240 . S
O179 C177 1.279 . S
O180 Cd170 2.297 1_556 S
O180 C175 1.247 . S
O181 Cd170 2.439 1_556 S
O181 C175 1.208 . S
O182 Cd183 2.223 . S
O182 C190 1.315 . S
Cd183 O182 2.223 . S
Cd183 O186 2.297 . S
Cd183 O187 2.439 . S
Cd183 O193 2.240 . S
Cd184 O185 2.240 . S
Cd184 O192 2.223 . S
Cd184 O194 2.297 1_554 S
Cd184 O195 2.439 1_554 S
O185 Cd184 2.240 . S
O185 C190 1.279 . S
O186 Cd183 2.297 . S
O186 C188 1.247 . S
O187 Cd183 2.439 . S
O187 C188 1.208 . S
C188 O186 1.247 . S
C188 O187 1.208 . S
C189 O194 1.247 . S
C189 O195 1.208 . S
C190 O182 1.315 . S
C190 O185 1.279 . S
C191 O192 1.315 . S
C191 O193 1.279 . S
O192 Cd184 2.223 . S
O192 C191 1.315 . S
O193 Cd183 2.240 . S
O193 C191 1.279 . S
O194 Cd184 2.297 1_556 S
O194 C189 1.247 . S
O195 Cd184 2.439 1_556 S
O195 C189 1.208 . S
O196 Cd197 2.223 . S
O196 C204 1.315 . S
Cd197 O196 2.223 . S
Cd197 O200 2.297 . S
Cd197 O201 2.439 . S
Cd197 O207 2.240 . S
Cd198 O199 2.240 . S
Cd198 O206 2.223 . S
Cd198 O208 2.297 . S
Cd198 O209 2.439 . S
O199 Cd198 2.240 . S
O199 C204 1.279 . S
O200 Cd197 2.297 . S
O200 C202 1.247 . S
O201 Cd197 2.439 . S
O201 C202 1.208 . S
C202 O200 1.247 . S
C202 O201 1.208 . S
C203 O208 1.247 . S
C203 O209 1.208 . S
C204 O196 1.315 . S
C204 O199 1.279 . S
C205 O206 1.315 . S
C205 O207 1.279 . S
O206 Cd198 2.223 . S
O206 C205 1.315 . S
O207 Cd197 2.240 . S
O207 C205 1.279 . S
O208 Cd198 2.297 . S
O208 C203 1.247 . S
O209 Cd198 2.439 . S
O209 C203 1.208 . S
O210 Cd211 2.223 . S
O210 C218 1.315 . S
Cd211 O210 2.223 . S
Cd211 O214 2.297 . S
Cd211 O215 2.439 . S
Cd211 O221 2.240 . S
Cd212 O213 2.240 . S
Cd212 O220 2.223 . S
Cd212 O222 2.297 . S
Cd212 O223 2.439 . S
O213 Cd212 2.240 . S
O213 C218 1.279 . S
O214 Cd211 2.297 . S
O214 C216 1.247 . S
O215 Cd211 2.439 . S
O215 C216 1.208 . S
C216 O214 1.247 . S
C216 O215 1.208 . S
C217 O222 1.247 . S
C217 O223 1.208 . S
C218 O210 1.315 . S
C218 O213 1.279 . S
C219 O220 1.315 . S
C219 O221 1.279 . S
O220 Cd212 2.223 . S
O220 C219 1.315 . S
O221 Cd211 2.240 . S
O221 C219 1.279 . S
O222 Cd212 2.297 . S
O222 C217 1.247 . S
O223 Cd212 2.439 . S
O223 C217 1.208 . S
O224 Cd225 2.223 . S
O224 C232 1.315 . S
Cd225 O224 2.223 . S
Cd225 O228 2.297 . S
Cd225 O229 2.439 . S
Cd225 O235 2.240 . S
Cd226 O227 2.240 . S
Cd226 O234 2.223 . S
Cd226 O236 2.297 . S
Cd226 O237 2.439 . S
O227 Cd226 2.240 . S
O227 C232 1.279 . S
O228 Cd225 2.297 . S
O228 C230 1.247 . S
O229 Cd225 2.439 . S
O229 C230 1.208 . S
C230 O228 1.247 . S
C230 O229 1.208 . S
C231 O236 1.247 . S
C231 O237 1.208 . S
C232 O224 1.315 . S
C232 O227 1.279 . S
C233 O234 1.315 . S
C233 O235 1.279 . S
O234 Cd226 2.223 . S
O234 C233 1.315 . S
O235 Cd225 2.240 . S
O235 C233 1.279 . S
O236 Cd226 2.297 . S
O236 C231 1.247 . S
O237 Cd226 2.439 . S
O237 C231 1.208 . S
O238 Cd239 2.223 . S
O238 C246 1.315 . S
Cd239 O238 2.223 . S
Cd239 O242 2.297 . S
Cd239 O243 2.439 . S
Cd239 O249 2.240 . S
Cd240 O241 2.240 . S
Cd240 O248 2.223 . S
Cd240 O250 2.297 . S
Cd240 O251 2.439 . S
O241 Cd240 2.240 . S
O241 C246 1.279 . S
O242 Cd239 2.297 . S
O242 C244 1.247 . S
O243 Cd239 2.439 . S
O243 C244 1.208 . S
C244 O242 1.247 . S
C244 O243 1.208 . S
C245 O250 1.247 . S
C245 O251 1.208 . S
C246 O238 1.315 . S
C246 O241 1.279 . S
C247 O248 1.315 . S
C247 O249 1.279 . S
O248 Cd240 2.223 . S
O248 C247 1.315 . S
O249 Cd239 2.240 . S
O249 C247 1.279 . S
O250 Cd240 2.297 . S
O250 C245 1.247 . S
O251 Cd240 2.439 . S
O251 C245 1.208 . S
O252 Cd253 2.223 . S
O252 C260 1.315 . S
Cd253 O252 2.223 . S
Cd253 O256 2.297 . S
Cd253 O257 2.439 . S
Cd253 O263 2.240 . S
Cd254 O255 2.240 . S
Cd254 O262 2.223 . S
Cd254 O264 2.297 . S
Cd254 O265 2.439 . S
O255 Cd254 2.240 . S
O255 C260 1.279 . S
O256 Cd253 2.297 . S
O256 C258 1.247 . S
O257 Cd253 2.439 . S
O257 C258 1.208 . S
C258 O256 1.247 . S
C258 O257 1.208 . S
C259 O264 1.247 . S
C259 O265 1.208 . S
C260 O252 1.315 . S
C260 O255 1.279 . S
C261 O262 1.315 . S
C261 O263 1.279 . S
O262 Cd254 2.223 . S
O262 C261 1.315 . S
O263 Cd253 2.240 . S
O263 C261 1.279 . S
O264 Cd254 2.297 . S
O264 C259 1.247 . S
O265 Cd254 2.439 . S
O265 C259 1.208 . S
O266 Cd267 2.223 . S
O266 C274 1.315 . S
Cd267 O266 2.223 . S
Cd267 O270 2.297 . S
Cd267 O271 2.439 . S
Cd267 O277 2.240 . S
Cd268 O269 2.240 . S
Cd268 O276 2.223 . S
Cd268 O278 2.297 . S
Cd268 O279 2.439 . S
O269 Cd268 2.240 . S
O269 C274 1.279 . S
O270 Cd267 2.297 . S
O270 C272 1.247 . S
O271 Cd267 2.439 . S
O271 C272 1.208 . S
C272 O270 1.247 . S
C272 O271 1.208 . S
C273 O278 1.247 . S
C273 O279 1.208 . S
C274 O266 1.315 . S
C274 O269 1.279 . S
C275 O276 1.315 . S
C275 O277 1.279 . S
O276 Cd268 2.223 . S
O276 C275 1.315 . S
O277 Cd267 2.240 . S
O277 C275 1.279 . S
O278 Cd268 2.297 . S
O278 C273 1.247 . S
O279 Cd268 2.439 . S
O279 C273 1.208 . S
O280 Cd281 2.223 . S
O280 C288 1.315 . S
Cd281 O280 2.223 . S
Cd281 O284 2.297 . S
Cd281 O285 2.439 . S
Cd281 O291 2.240 . S
Cd282 O283 2.240 . S
Cd282 O290 2.223 . S
Cd282 O292 2.297 1_554 S
Cd282 O293 2.439 1_554 S
O283 Cd282 2.240 . S
O283 C288 1.279 . S
O284 Cd281 2.297 . S
O284 C286 1.247 . S
O285 Cd281 2.439 . S
O285 C286 1.208 . S
C286 O284 1.247 . S
C286 O285 1.208 . S
C287 O292 1.247 . S
C287 O293 1.208 . S
C288 O280 1.315 . S
C288 O283 1.279 . S
C289 O290 1.315 . S
C289 O291 1.279 . S
O290 Cd282 2.223 . S
O290 C289 1.315 . S
O291 Cd281 2.240 . S
O291 C289 1.279 . S
O292 Cd282 2.297 1_556 S
O292 C287 1.247 . S
O293 Cd282 2.439 1_556 S
O293 C287 1.208 . S
O294 Cd295 2.223 . S
O294 C302 1.315 . S
Cd295 O294 2.223 . S
Cd295 O298 2.297 . S
Cd295 O299 2.439 . S
Cd295 O305 2.240 . S
Cd296 O297 2.240 . S
Cd296 O304 2.223 . S
Cd296 O306 2.297 . S
Cd296 O307 2.439 . S
O297 Cd296 2.240 . S
O297 C302 1.279 . S
O298 Cd295 2.297 . S
O298 C300 1.247 . S
O299 Cd295 2.439 . S
O299 C300 1.208 . S
C300 O298 1.247 . S
C300 O299 1.208 . S
C301 O306 1.247 . S
C301 O307 1.208 . S
C302 O294 1.315 . S
C302 O297 1.279 . S
C303 O304 1.315 . S
C303 O305 1.279 . S
O304 Cd296 2.223 . S
O304 C303 1.315 . S
O305 Cd295 2.240 . S
O305 C303 1.279 . S
O306 Cd296 2.297 . S
O306 C301 1.247 . S
O307 Cd296 2.439 . S
O307 C301 1.208 . S
O308 Cd309 2.223 . S
O308 C316 1.315 . S
Cd309 O308 2.223 . S
Cd309 O312 2.297 . S
Cd309 O313 2.439 . S
Cd309 O319 2.240 . S
Cd310 O311 2.240 . S
Cd310 O318 2.223 . S
Cd310 O320 2.297 . S
Cd310 O321 2.439 . S
O311 Cd310 2.240 . S
O311 C316 1.279 . S
O312 Cd309 2.297 . S
O312 C314 1.247 . S
O313 Cd309 2.439 . S
O313 C314 1.208 . S
C314 O312 1.247 . S
C314 O313 1.208 . S
C315 O320 1.247 . S
C315 O321 1.208 . S
C316 O308 1.315 . S
C316 O311 1.279 . S
C317 O318 1.315 . S
C317 O319 1.279 . S
O318 Cd310 2.223 . S
O318 C317 1.315 . S
O319 Cd309 2.240 . S
O319 C317 1.279 . S
O320 Cd310 2.297 . S
O320 C315 1.247 . S
O321 Cd310 2.439 . S
O321 C315 1.208 . S
O322 Cd323 2.223 . S
O322 C330 1.315 . S
Cd323 O322 2.223 . S
Cd323 O326 2.297 . S
Cd323 O327 2.439 . S
Cd323 O333 2.240 . S
Cd324 O325 2.240 . S
Cd324 O332 2.223 . S
Cd324 O334 2.297 . S
Cd324 O335 2.439 . S
O325 Cd324 2.240 . S
O325 C330 1.279 . S
O326 Cd323 2.297 . S
O326 C328 1.247 . S
O327 Cd323 2.439 . S
O327 C328 1.208 . S
C328 O326 1.247 . S
C328 O327 1.208 . S
C329 O334 1.247 . S
C329 O335 1.208 . S
C330 O322 1.315 . S
C330 O325 1.279 . S
C331 O332 1.315 . S
C331 O333 1.279 . S
O332 Cd324 2.223 . S
O332 C331 1.315 . S
O333 Cd323 2.240 . S
O333 C331 1.279 . S
O334 Cd324 2.297 . S
O334 C329 1.247 . S
O335 Cd324 2.439 . S
O335 C329 1.208 . S
Gd336 C339 2.829 1_455 S
Gd336 O356 2.377 . S
Gd336 O358 2.448 1_454 S
Gd336 O359 2.506 1_455 S
Gd336 O360 2.435 1_554 S
Gd336 O361 2.728 . S
Gd336 O363 2.395 . S
Gd336 O367 2.327 . S
Gd337 C348 2.818 . S
Gd337 O357 2.395 . S
Gd337 O361 2.352 . S
Gd337 O362 2.377 . S
Gd337 O364 2.448 . S
Gd337 O365 2.506 . S
Gd337 O366 2.435 . S
Gd337 O367 2.717 . S
C338 O356 1.240 . S
C338 O357 1.240 . S
C339 Gd336 2.829 1_655 S
C339 C340 1.500 1_554 S
C339 O358 1.206 1_554 S
C339 O359 1.307 . S
C340 C339 1.500 1_556 S
C340 C341 1.404 . S
C340 C342 1.352 1_556 S
C341 C340 1.404 . S
C341 C345 1.389 . S
C341 H368 0.930 . S
C342 C340 1.352 1_554 S
C342 C344 1.374 . S
C342 H369 0.931 . S
C343 C344 1.359 1_556 S
C343 C345 1.364 . S
C344 C342 1.374 . S
C344 C343 1.359 1_554 S
C344 H370 0.931 . S
C345 C341 1.389 . S
C345 C343 1.364 . S
C345 H371 0.931 . S
C346 O360 1.256 . S
C346 O361 1.228 1_556 S
C347 O362 1.240 . S
C347 O363 1.240 . S
C348 Gd337 2.818 . S
C348 C349 1.510 . S
C348 O364 1.249 . S
C348 O365 1.252 . S
C349 C348 1.510 . S
C349 C350 1.404 . S
C349 C351 1.352 . S
C350 C349 1.404 . S
C350 C354 1.389 . S
C350 H372 0.930 . S
C351 C349 1.352 . S
C351 C353 1.374 . S
C351 H373 0.931 . S
C352 C353 1.359 . S
C352 C354 1.364 . S
C353 C351 1.374 . S
C353 C352 1.359 . S
C353 H374 0.900 1_545 S
C354 C350 1.389 . S
C354 C352 1.364 . S
C354 H375 0.931 . S
C355 O366 1.256 . S
C355 O367 1.257 . S
O356 Gd336 2.377 . S
O356 C338 1.240 . S
O357 Gd337 2.395 . S
O357 C338 1.240 . S
O358 Gd336 2.448 1_656 S
O358 C339 1.206 1_556 S
O359 Gd336 2.506 1_655 S
O359 C339 1.307 . S
O360 Gd336 2.435 1_556 S
O360 C346 1.256 . S
O361 Gd336 2.728 . S
O361 Gd337 2.352 . S
O361 C346 1.228 1_554 S
O362 Gd337 2.377 . S
O362 C347 1.240 . S
O363 Gd336 2.395 . S
O363 C347 1.240 . S
O364 Gd337 2.448 . S
O364 C348 1.249 . S
O365 Gd337 2.506 . S
O365 C348 1.252 . S
O366 Gd337 2.435 . S
O366 C355 1.256 . S
O367 Gd336 2.327 . S
O367 Gd337 2.717 . S
O367 C355 1.257 . S
H368 C341 0.930 . S
H369 C342 0.931 . S
H370 C344 0.931 . S
H371 C345 0.931 . S
H372 C350 0.930 . S
H373 C351 0.931 . S
H374 C353 0.900 1_565 S
H375 C354 0.931 . S
Gd376 C379 2.818 . S
Gd376 O396 2.377 . S
Gd376 O398 2.448 . S
Gd376 O399 2.506 . S
Gd376 O400 2.435 . S
Gd376 O401 2.717 . S
Gd376 O403 2.395 . S
Gd376 O407 2.327 . S
Gd377 C388 2.818 . S
Gd377 O397 2.395 . S
Gd377 O401 2.327 . S
Gd377 O402 2.377 . S
Gd377 O404 2.448 . S
Gd377 O405 2.506 . S
Gd377 O406 2.435 . S
Gd377 O407 2.717 . S
C378 O396 1.240 . S
C378 O397 1.240 . S
C379 Gd376 2.818 . S
C379 C380 1.510 . S
C379 O398 1.249 . S
C379 O399 1.252 . S
C380 C379 1.510 . S
C380 C381 1.404 . S
C380 C382 1.352 . S
C381 C380 1.404 . S
C381 C385 1.389 . S
C381 H408 0.930 . S
C382 C380 1.352 . S
C382 C384 1.374 . S
C382 H409 0.931 . S
C383 C384 1.359 . S
C383 C385 1.364 . S
C384 C382 1.374 . S
C384 C383 1.359 . S
C384 H410 0.931 . S
C385 C381 1.389 . S
C385 C383 1.364 . S
C385 H411 0.931 . S
C386 O400 1.256 . S
C386 O401 1.257 . S
C387 O402 1.240 . S
C387 O403 1.240 . S
C388 Gd377 2.818 . S
C388 C389 1.510 . S
C388 O404 1.249 . S
C388 O405 1.252 . S
C389 C388 1.510 . S
C389 C390 1.404 . S
C389 C391 1.352 . S
C390 C389 1.404 . S
C390 C394 1.389 . S
C390 H412 0.930 . S
C391 C389 1.352 . S
C391 C393 1.374 . S
C391 H413 0.931 . S
C392 C393 1.359 . S
C392 C394 1.364 . S
C393 C391 1.374 . S
C393 C392 1.359 . S
C393 H414 0.931 . S
C394 C390 1.389 . S
C394 C392 1.364 . S
C394 H415 0.931 . S
C395 O406 1.256 . S
C395 O407 1.257 . S
O396 Gd376 2.377 . S
O396 C378 1.240 . S
O397 Gd377 2.395 . S
O397 C378 1.240 . S
O398 Gd376 2.448 . S
O398 C379 1.249 . S
O399 Gd376 2.506 . S
O399 C379 1.252 . S
O400 Gd376 2.435 . S
O400 C386 1.256 . S
O401 Gd376 2.717 . S
O401 Gd377 2.327 . S
O401 C386 1.257 . S
O402 Gd377 2.377 . S
O402 C387 1.240 . S
O403 Gd376 2.395 . S
O403 C387 1.240 . S
O404 Gd377 2.448 . S
O404 C388 1.249 . S
O405 Gd377 2.506 . S
O405 C388 1.252 . S
O406 Gd377 2.435 . S
O406 C395 1.256 . S
O407 Gd376 2.327 . S
O407 Gd377 2.717 . S
O407 C395 1.257 . S
H408 C381 0.930 . S
H409 C382 0.931 . S
H410 C384 0.931 . S
H411 C385 0.931 . S
H412 C390 0.930 . S
H413 C391 0.931 . S
H414 C393 0.931 . S
H415 C394 0.931 . S
Gd416 C419 2.818 . S
Gd416 O436 2.377 . S
Gd416 O438 2.448 . S
Gd416 O439 2.506 . S
Gd416 O440 2.435 . S
Gd416 O441 2.717 . S
Gd416 O443 2.395 . S
Gd416 O447 2.327 . S
Gd417 C428 2.818 . S
Gd417 O437 2.398 1_545 S
Gd417 O441 2.327 . S
Gd417 O442 2.377 . S
Gd417 O444 2.448 . S
Gd417 O445 2.506 . S
Gd417 O446 2.435 . S
Gd417 O447 2.717 . S
C418 O436 1.240 1_565 S
C418 O437 1.239 . S
C419 Gd416 2.818 . S
C419 C420 1.510 . S
C419 O438 1.249 . S
C419 O439 1.252 . S
C420 C419 1.510 . S
C420 C421 1.404 . S
C420 C422 1.352 1_545 S
C421 C420 1.404 . S
C421 C425 1.389 1_545 S
C421 H448 0.930 . S
C422 C420 1.352 1_565 S
C422 C424 1.374 . S
C422 H449 0.931 . S
C423 C424 1.359 . S
C423 C425 1.364 . S
C424 C422 1.374 . S
C424 C423 1.359 . S
C424 H450 0.931 . S
C425 C421 1.389 1_565 S
C425 C423 1.364 . S
C425 H451 0.931 . S
C426 O440 1.256 . S
C426 O441 1.257 . S
C427 O442 1.240 . S
C427 O443 1.240 . S
C428 Gd417 2.818 . S
C428 C429 1.510 . S
C428 O444 1.249 . S
C428 O445 1.252 . S
C429 C428 1.510 . S
C429 C430 1.404 . S
C429 C431 1.352 . S
C430 C429 1.404 . S
C430 C434 1.389 . S
C430 H452 0.930 . S
C431 C429 1.352 . S
C431 C433 1.374 . S
C431 H453 0.931 . S
C432 C433 1.359 . S
C432 C434 1.364 . S
C433 C431 1.374 . S
C433 C432 1.359 . S
C433 H454 0.931 . S
C434 C430 1.389 . S
C434 C432 1.364 . S
C434 H455 0.931 . S
C435 O446 1.256 . S
C435 O447 1.257 . S
O436 Gd416 2.377 . S
O436 C418 1.240 1_545 S
O437 Gd417 2.398 1_565 S
O437 C418 1.239 . S
O438 Gd416 2.448 . S
O438 C419 1.249 . S
O439 Gd416 2.506 . S
O439 C419 1.252 . S
O440 Gd416 2.435 . S
O440 C426 1.256 . S
O441 Gd416 2.717 . S
O441 Gd417 2.327 . S
O441 C426 1.257 . S
O442 Gd417 2.377 . S
O442 C427 1.240 . S
O443 Gd416 2.395 . S
O443 C427 1.240 . S
O444 Gd417 2.448 . S
O444 C428 1.249 . S
O445 Gd417 2.506 . S
O445 C428 1.252 . S
O446 Gd417 2.435 . S
O446 C435 1.256 . S
O447 Gd416 2.327 . S
O447 Gd417 2.717 . S
O447 C435 1.257 . S
H448 C421 0.930 . S
H449 C422 0.931 . S
H450 C424 0.931 . S
H451 C425 0.931 . S
H452 C430 0.930 . S
H453 C431 0.931 . S
H454 C433 0.931 . S
H455 C434 0.931 . S
Gd456 C459 2.818 . S
Gd456 O476 2.377 . S
Gd456 O478 2.448 . S
Gd456 O479 2.506 . S
Gd456 O480 2.435 . S
Gd456 O481 2.717 . S
Gd456 O483 2.395 . S
Gd456 O487 2.327 . S
Gd457 C468 2.818 . S
Gd457 O477 2.395 . S
Gd457 O481 2.327 . S
Gd457 O482 2.377 . S
Gd457 O484 2.448 . S
Gd457 O485 2.506 . S
Gd457 O486 2.435 . S
Gd457 O487 2.717 . S
C458 O476 1.240 . S
C458 O477 1.240 . S
C459 Gd456 2.818 . S
C459 C460 1.510 . S
C459 O478 1.249 . S
C459 O479 1.252 . S
C460 C459 1.510 . S
C460 C461 1.404 . S
C460 C462 1.352 . S
C461 C460 1.404 . S
C461 C465 1.389 . S
C461 H488 0.930 . S
C462 C460 1.352 . S
C462 C464 1.374 . S
C462 H489 0.931 . S
C463 C464 1.359 . S
C463 C465 1.364 . S
C464 C462 1.374 . S
C464 C463 1.359 . S
C464 H490 0.931 . S
C465 C461 1.389 . S
C465 C463 1.364 . S
C465 H491 0.931 . S
C466 O480 1.256 . S
C466 O481 1.257 . S
C467 O482 1.240 . S
C467 O483 1.240 . S
C468 Gd457 2.818 . S
C468 C469 1.510 . S
C468 O484 1.249 . S
C468 O485 1.252 . S
C469 C468 1.510 . S
C469 C470 1.404 . S
C469 C471 1.352 . S
C470 C469 1.404 . S
C470 C474 1.389 . S
C470 H492 0.930 . S
C471 C469 1.352 . S
C471 C473 1.374 . S
C471 H493 0.931 . S
C472 C473 1.359 . S
C472 C474 1.364 . S
C473 C471 1.374 . S
C473 C472 1.359 . S
C473 H494 0.931 . S
C474 C470 1.389 . S
C474 C472 1.364 . S
C474 H495 0.931 . S
C475 O486 1.256 . S
C475 O487 1.257 . S
O476 Gd456 2.377 . S
O476 C458 1.240 . S
O477 Gd457 2.395 . S
O477 C458 1.240 . S
O478 Gd456 2.448 . S
O478 C459 1.249 . S
O479 Gd456 2.506 . S
O479 C459 1.252 . S
O480 Gd456 2.435 . S
O480 C466 1.256 . S
O481 Gd456 2.717 . S
O481 Gd457 2.327 . S
O481 C466 1.257 . S
O482 Gd457 2.377 . S
O482 C467 1.240 . S
O483 Gd456 2.395 . S
O483 C467 1.240 . S
O484 Gd457 2.448 . S
O484 C468 1.249 . S
O485 Gd457 2.506 . S
O485 C468 1.252 . S
O486 Gd457 2.435 . S
O486 C475 1.256 . S
O487 Gd456 2.327 . S
O487 Gd457 2.717 . S
O487 C475 1.257 . S
H488 C461 0.930 . S
H489 C462 0.931 . S
H490 C464 0.931 . S
H491 C465 0.931 . S
H492 C470 0.930 . S
H493 C471 0.931 . S
H494 C473 0.931 . S
H495 C474 0.931 . S
Gd496 C499 2.818 . S
Gd496 O516 2.377 . S
Gd496 O518 2.448 . S
Gd496 O519 2.506 . S
Gd496 O520 2.435 . S
Gd496 O521 2.717 . S
Gd496 O523 2.395 . S
Gd496 O527 2.327 . S
Gd497 C508 2.818 1_545 S
Gd497 O517 2.395 . S
Gd497 O521 2.327 . S
Gd497 O522 2.377 . S
Gd497 O524 2.448 1_545 S
Gd497 O525 2.506 1_545 S
Gd497 O526 2.435 . S
Gd497 O527 2.717 . S
C498 O516 1.240 . S
C498 O517 1.240 . S
C499 Gd496 2.818 . S
C499 C500 1.510 . S
C499 O518 1.249 . S
C499 O519 1.252 . S
C500 C499 1.510 . S
C500 C501 1.404 . S
C500 C502 1.352 . S
C501 C500 1.404 . S
C501 C505 1.389 . S
C501 H528 0.930 . S
C502 C500 1.352 . S
C502 C504 1.374 . S
C502 H529 0.931 . S
C503 C504 1.359 . S
C503 C505 1.364 . S
C504 C502 1.374 . S
C504 C503 1.359 . S
C504 H530 0.931 . S
C505 C501 1.389 . S
C505 C503 1.364 . S
C505 H531 0.931 . S
C506 O520 1.256 . S
C506 O521 1.257 . S
C507 O522 1.240 . S
C507 O523 1.240 . S
C508 Gd497 2.818 1_565 S
C508 C509 1.510 . S
C508 O524 1.249 . S
C508 O525 1.252 . S
C509 C508 1.510 . S
C509 C510 1.404 . S
C509 C511 1.352 . S
C510 C509 1.404 . S
C510 C514 1.389 . S
C510 H532 0.930 . S
C511 C509 1.352 . S
C511 C513 1.374 . S
C511 H533 0.931 . S
C512 C513 1.359 . S
C512 C514 1.364 . S
C513 C511 1.374 . S
C513 C512 1.359 . S
C513 H534 0.931 . S
C514 C510 1.389 . S
C514 C512 1.364 . S
C514 H535 0.931 . S
C515 O526 1.256 . S
C515 O527 1.257 . S
O516 Gd496 2.377 . S
O516 C498 1.240 . S
O517 Gd497 2.395 . S
O517 C498 1.240 . S
O518 Gd496 2.448 . S
O518 C499 1.249 . S
O519 Gd496 2.506 . S
O519 C499 1.252 . S
O520 Gd496 2.435 . S
O520 C506 1.256 . S
O521 Gd496 2.717 . S
O521 Gd497 2.327 . S
O521 C506 1.257 . S
O522 Gd497 2.377 . S
O522 C507 1.240 . S
O523 Gd496 2.395 . S
O523 C507 1.240 . S
O524 Gd497 2.448 1_565 S
O524 C508 1.249 . S
O525 Gd497 2.506 1_565 S
O525 C508 1.252 . S
O526 Gd497 2.435 . S
O526 C515 1.256 . S
O527 Gd496 2.327 . S
O527 Gd497 2.717 . S
O527 C515 1.257 . S
H528 C501 0.930 . S
H529 C502 0.931 . S
H530 C504 0.931 . S
H531 C505 0.931 . S
H532 C510 0.930 . S
H533 C511 0.931 . S
H534 C513 0.931 . S
H535 C514 0.931 . S
Gd536 C539 2.818 . S
Gd536 O556 2.377 . S
Gd536 O558 2.448 . S
Gd536 O559 2.506 . S
Gd536 O560 2.435 . S
Gd536 O561 2.717 . S
Gd536 O563 2.395 . S
Gd536 O567 2.327 . S
Gd537 C548 2.818 . S
Gd537 O557 2.395 . S
Gd537 O561 2.327 . S
Gd537 O562 2.377 . S
Gd537 O564 2.448 . S
Gd537 O565 2.506 . S
Gd537 O566 2.435 . S
Gd537 O567 2.717 . S
C538 O556 1.240 . S
C538 O557 1.240 . S
C539 Gd536 2.818 . S
C539 C540 1.510 . S
C539 O558 1.249 . S
C539 O559 1.252 . S
C540 C539 1.510 . S
C540 C541 1.404 . S
C540 C542 1.352 . S
C541 C540 1.404 . S
C541 C545 1.389 . S
C541 H568 0.930 . S
C542 C540 1.352 . S
C542 C544 1.374 . S
C542 H569 0.931 . S
C543 C544 1.359 . S
C543 C545 1.364 . S
C544 C542 1.374 . S
C544 C543 1.359 . S
C544 H570 0.931 . S
C545 C541 1.389 . S
C545 C543 1.364 . S
C545 H571 0.931 . S
C546 O560 1.256 . S
C546 O561 1.257 . S
C547 O562 1.240 . S
C547 O563 1.240 . S
C548 Gd537 2.818 . S
C548 C549 1.510 . S
C548 O564 1.249 . S
C548 O565 1.252 . S
C549 C548 1.510 . S
C549 C550 1.404 . S
C549 C551 1.352 . S
C550 C549 1.404 . S
C550 C554 1.389 . S
C550 H572 0.930 . S
C551 C549 1.352 . S
C551 C553 1.374 . S
C551 H573 0.931 . S
C552 C553 1.359 . S
C552 C554 1.364 . S
C553 C551 1.374 . S
C553 C552 1.359 . S
C553 H574 0.931 . S
C554 C550 1.389 . S
C554 C552 1.364 . S
C554 H575 0.931 . S
C555 O566 1.256 . S
C555 O567 1.257 . S
O556 Gd536 2.377 . S
O556 C538 1.240 . S
O557 Gd537 2.395 . S
O557 C538 1.240 . S
O558 Gd536 2.448 . S
O558 C539 1.249 . S
O559 Gd536 2.506 . S
O559 C539 1.252 . S
O560 Gd536 2.435 . S
O560 C546 1.256 . S
O561 Gd536 2.717 . S
O561 Gd537 2.327 . S
O561 C546 1.257 . S
O562 Gd537 2.377 . S
O562 C547 1.240 . S
O563 Gd536 2.395 . S
O563 C547 1.240 . S
O564 Gd537 2.448 . S
O564 C548 1.249 . S
O565 Gd537 2.506 . S
O565 C548 1.252 . S
O566 Gd537 2.435 . S
O566 C555 1.256 . S
O567 Gd536 2.327 . S
O567 Gd537 2.717 . S
O567 C555 1.257 . S
H568 C541 0.930 . S
H569 C542 0.931 . S
H570 C544 0.931 . S
H571 C545 0.931 . S
H572 C550 0.930 . S
H573 C551 0.931 . S
H574 C553 0.931 . S
H575 C554 0.931 . S
Gd576 C579 2.818 . S
Gd576 O596 2.377 . S
Gd576 O598 2.448 . S
Gd576 O599 2.506 . S
Gd576 O600 2.415 1_545 S
Gd576 O601 2.717 . S
Gd576 O603 2.395 . S
Gd576 O607 2.327 . S
Gd577 C588 2.818 . S
Gd577 O597 2.395 1_556 S
Gd577 O601 2.327 1_556 S
Gd577 O602 2.377 1_556 S
Gd577 O604 2.448 . S
Gd577 O605 2.506 . S
Gd577 O606 2.435 1_556 S
Gd577 O607 2.717 1_556 S
C578 O596 1.240 . S
C578 O597 1.240 . S
C579 Gd576 2.818 . S
C579 C580 1.510 . S
C579 O598 1.249 . S
C579 O599 1.252 . S
C580 C579 1.510 . S
C580 C581 1.404 1_545 S
C580 C582 1.352 . S
C581 C580 1.404 1_565 S
C581 C585 1.389 . S
C581 H608 0.930 . S
C582 C580 1.352 . S
C582 C584 1.374 . S
C582 H609 0.931 . S
C583 C584 1.359 . S
C583 C585 1.364 1_545 S
C584 C582 1.374 . S
C584 C583 1.359 . S
C584 H610 0.931 . S
C585 C581 1.389 . S
C585 C583 1.364 1_565 S
C585 H611 0.931 . S
C586 O600 1.247 1_545 S
C586 O601 1.257 . S
C587 O602 1.240 . S
C587 O603 1.240 . S
C588 Gd577 2.818 . S
C588 C589 1.510 . S
C588 O604 1.249 . S
C588 O605 1.252 . S
C589 C588 1.510 . S
C589 C590 1.404 . S
C589 C591 1.352 . S
C590 C589 1.404 . S
C590 C594 1.389 . S
C590 H612 0.930 . S
C591 C589 1.352 . S
C591 C593 1.374 . S
C591 H613 0.931 . S
C592 C593 1.359 . S
C592 C594 1.364 . S
C593 C591 1.374 . S
C593 C592 1.359 . S
C593 H614 0.931 . S
C594 C590 1.389 . S
C594 C592 1.364 . S
C594 H615 0.931 . S
C595 O606 1.256 . S
C595 O607 1.257 . S
O596 Gd576 2.377 . S
O596 C578 1.240 . S
O597 Gd577 2.395 1_554 S
O597 C578 1.240 . S
O598 Gd576 2.448 . S
O598 C579 1.249 . S
O599 Gd576 2.506 . S
O599 C579 1.252 . S
O600 Gd576 2.415 1_565 S
O600 C586 1.247 1_565 S
O601 Gd576 2.717 . S
O601 Gd577 2.327 1_554 S
O601 C586 1.257 . S
O602 Gd577 2.377 1_554 S
O602 C587 1.240 . S
O603 Gd576 2.395 . S
O603 C587 1.240 . S
O604 Gd577 2.448 . S
O604 C588 1.249 . S
O605 Gd577 2.506 . S
O605 C588 1.252 . S
O606 Gd577 2.435 1_554 S
O606 C595 1.256 . S
O607 Gd576 2.327 . S
O607 Gd577 2.717 1_554 S
O607 C595 1.257 . S
H608 C581 0.930 . S
H609 C582 0.931 . S
H610 C584 0.931 . S
H611 C585 0.931 . S
H612 C590 0.930 . S
H613 C591 0.931 . S
H614 C593 0.931 . S
H615 C594 0.931 . S
Gd616 C619 2.818 . S
Gd616 O636 2.377 . S
Gd616 O638 2.448 . S
Gd616 O639 2.506 . S
Gd616 O640 2.435 . S
Gd616 O641 2.717 . S
Gd616 O643 2.395 . S
Gd616 O647 2.327 . S
Gd617 C628 2.818 . S
Gd617 O637 2.395 . S
Gd617 O641 2.327 . S
Gd617 O642 2.377 . S
Gd617 O644 2.448 . S
Gd617 O645 2.506 . S
Gd617 O646 2.435 . S
Gd617 O647 2.717 . S
C618 O636 1.240 . S
C618 O637 1.240 . S
C619 Gd616 2.818 . S
C619 C620 1.510 . S
C619 O638 1.249 . S
C619 O639 1.252 . S
C620 C619 1.510 . S
C620 C621 1.404 . S
C620 C622 1.352 . S
C621 C620 1.404 . S
C621 C625 1.389 . S
C621 H648 0.930 . S
C622 C620 1.352 . S
C622 C624 1.374 . S
C622 H649 0.931 . S
C623 C624 1.359 . S
C623 C625 1.364 . S
C624 C622 1.374 . S
C624 C623 1.359 . S
C624 H650 0.931 . S
C625 C621 1.389 . S
C625 C623 1.364 . S
C625 H651 0.931 . S
C626 O640 1.256 . S
C626 O641 1.257 . S
C627 O642 1.240 . S
C627 O643 1.240 . S
C628 Gd617 2.818 . S
C628 C629 1.510 . S
C628 O644 1.249 . S
C628 O645 1.252 . S
C629 C628 1.510 . S
C629 C630 1.404 . S
C629 C631 1.352 . S
C630 C629 1.404 . S
C630 C634 1.389 . S
C630 H652 0.930 . S
C631 C629 1.352 . S
C631 C633 1.374 . S
C631 H653 0.931 . S
C632 C633 1.359 . S
C632 C634 1.364 . S
C633 C631 1.374 . S
C633 C632 1.359 . S
C633 H654 0.931 . S
C634 C630 1.389 . S
C634 C632 1.364 . S
C634 H655 0.931 . S
C635 O646 1.256 . S
C635 O647 1.257 . S
O636 Gd616 2.377 . S
O636 C618 1.240 . S
O637 Gd617 2.395 . S
O637 C618 1.240 . S
O638 Gd616 2.448 . S
O638 C619 1.249 . S
O639 Gd616 2.506 . S
O639 C619 1.252 . S
O640 Gd616 2.435 . S
O640 C626 1.256 . S
O641 Gd616 2.717 . S
O641 Gd617 2.327 . S
O641 C626 1.257 . S
O642 Gd617 2.377 . S
O642 C627 1.240 . S
O643 Gd616 2.395 . S
O643 C627 1.240 . S
O644 Gd617 2.448 . S
O644 C628 1.249 . S
O645 Gd617 2.506 . S
O645 C628 1.252 . S
O646 Gd617 2.435 . S
O646 C635 1.256 . S
O647 Gd616 2.327 . S
O647 Gd617 2.717 . S
O647 C635 1.257 . S
H648 C621 0.930 . S
H649 C622 0.931 . S
H650 C624 0.931 . S
H651 C625 0.931 . S
H652 C630 0.930 . S
H653 C631 0.931 . S
H654 C633 0.931 . S
H655 C634 0.931 . S
Gd656 C659 2.818 . S
Gd656 O676 2.377 1_554 S
Gd656 O678 2.448 . S
Gd656 O679 2.506 . S
Gd656 O680 2.435 . S
Gd656 O681 2.717 . S
Gd656 O683 2.395 . S
Gd656 O687 2.327 . S
Gd657 C668 2.818 . S
Gd657 O677 2.395 1_554 S
Gd657 O681 2.327 . S
Gd657 O682 2.377 . S
Gd657 O684 2.448 . S
Gd657 O685 2.506 . S
Gd657 O686 2.435 . S
Gd657 O687 2.717 . S
C658 O676 1.240 . S
C658 O677 1.240 . S
C659 Gd656 2.818 . S
C659 C660 1.493 1_554 S
C659 O678 1.249 . S
C659 O679 1.252 . S
C660 C659 1.493 1_556 S
C660 C661 1.400 1_556 S
C660 C662 1.373 . S
C661 C660 1.400 1_554 S
C661 C665 1.389 1_554 S
C661 H688 0.930 . S
C662 C660 1.373 . S
C662 C664 1.374 . S
C662 H689 0.931 . S
C663 C664 1.359 . S
C663 C665 1.364 . S
C664 C662 1.374 . S
C664 C663 1.359 . S
C664 H690 0.931 . S
C665 C661 1.389 1_556 S
C665 C663 1.364 . S
C665 H691 0.931 . S
C666 O680 1.256 . S
C666 O681 1.257 . S
C667 O682 1.240 . S
C667 O683 1.240 . S
C668 Gd657 2.818 . S
C668 C669 1.510 . S
C668 O684 1.249 . S
C668 O685 1.252 . S
C669 C668 1.510 . S
C669 C670 1.404 . S
C669 C671 1.352 . S
C670 C669 1.404 . S
C670 C674 1.389 . S
C670 H692 0.930 . S
C671 C669 1.352 . S
C671 C673 1.374 . S
C671 H693 0.931 . S
C672 C673 1.359 . S
C672 C674 1.364 . S
C673 C671 1.374 . S
C673 C672 1.359 . S
C673 H694 0.931 . S
C674 C670 1.389 . S
C674 C672 1.364 . S
C674 H695 0.931 . S
C675 O686 1.256 . S
C675 O687 1.257 . S
O676 Gd656 2.377 1_556 S
O676 C658 1.240 . S
O677 Gd657 2.395 1_556 S
O677 C658 1.240 . S
O678 Gd656 2.448 . S
O678 C659 1.249 . S
O679 Gd656 2.506 . S
O679 C659 1.252 . S
O680 Gd656 2.435 . S
O680 C666 1.256 . S
O681 Gd656 2.717 . S
O681 Gd657 2.327 . S
O681 C666 1.257 . S
O682 Gd657 2.377 . S
O682 C667 1.240 . S
O683 Gd656 2.395 . S
O683 C667 1.240 . S
O684 Gd657 2.448 . S
O684 C668 1.249 . S
O685 Gd657 2.506 . S
O685 C668 1.252 . S
O686 Gd657 2.435 . S
O686 C675 1.256 . S
O687 Gd656 2.327 . S
O687 Gd657 2.717 . S
O687 C675 1.257 . S
H688 C661 0.930 . S
H689 C662 0.931 . S
H690 C664 0.931 . S
H691 C665 0.931 . S
H692 C670 0.930 . S
H693 C671 0.931 . S
H694 C673 0.931 . S
H695 C674 0.931 . S
Gd696 C699 2.818 . S
Gd696 O716 2.377 . S
Gd696 O718 2.448 . S
Gd696 O719 2.506 . S
Gd696 O720 2.435 . S
Gd696 O721 2.717 . S
Gd696 O723 2.395 . S
Gd696 O727 2.327 . S
Gd697 C708 2.818 . S
Gd697 O717 2.395 . S
Gd697 O721 2.327 . S
Gd697 O722 2.377 . S
Gd697 O724 2.448 . S
Gd697 O725 2.506 . S
Gd697 O726 2.435 . S
Gd697 O727 2.717 . S
C698 O716 1.240 . S
C698 O717 1.240 . S
C699 Gd696 2.818 . S
C699 C700 1.510 . S
C699 O718 1.249 . S
C699 O719 1.252 . S
C700 C699 1.510 . S
C700 C701 1.404 . S
C700 C702 1.352 . S
C701 C700 1.404 . S
C701 C705 1.389 . S
C701 H728 0.930 . S
C702 C700 1.352 . S
C702 C704 1.374 . S
C702 H729 0.931 . S
C703 C704 1.359 . S
C703 C705 1.364 . S
C704 C702 1.374 . S
C704 C703 1.359 . S
C704 H730 0.931 . S
C705 C701 1.389 . S
C705 C703 1.364 . S
C705 H731 0.931 . S
C706 O720 1.256 . S
C706 O721 1.257 . S
C707 O722 1.240 . S
C707 O723 1.240 . S
C708 Gd697 2.818 . S
C708 C709 1.510 . S
C708 O724 1.249 . S
C708 O725 1.252 . S
C709 C708 1.510 . S
C709 C710 1.404 . S
C709 C711 1.352 . S
C710 C709 1.404 . S
C710 C714 1.389 . S
C710 H732 0.930 . S
C711 C709 1.352 . S
C711 C713 1.374 . S
C711 H733 0.931 . S
C712 C713 1.359 . S
C712 C714 1.364 . S
C713 C711 1.374 . S
C713 C712 1.359 . S
C713 H734 0.931 . S
C714 C710 1.389 . S
C714 C712 1.364 . S
C714 H735 0.931 . S
C715 O726 1.256 . S
C715 O727 1.257 . S
O716 Gd696 2.377 . S
O716 C698 1.240 . S
O717 Gd697 2.395 . S
O717 C698 1.240 . S
O718 Gd696 2.448 . S
O718 C699 1.249 . S
O719 Gd696 2.506 . S
O719 C699 1.252 . S
O720 Gd696 2.435 . S
O720 C706 1.256 . S
O721 Gd696 2.717 . S
O721 Gd697 2.327 . S
O721 C706 1.257 . S
O722 Gd697 2.377 . S
O722 C707 1.240 . S
O723 Gd696 2.395 . S
O723 C707 1.240 . S
O724 Gd697 2.448 . S
O724 C708 1.249 . S
O725 Gd697 2.506 . S
O725 C708 1.252 . S
O726 Gd697 2.435 . S
O726 C715 1.256 . S
O727 Gd696 2.327 . S
O727 Gd697 2.717 . S
O727 C715 1.257 . S
H728 C701 0.930 . S
H729 C702 0.931 . S
H730 C704 0.931 . S
H731 C705 0.931 . S
H732 C710 0.930 . S
H733 C711 0.931 . S
H734 C713 0.931 . S
H735 C714 0.931 . S
Gd736 C739 2.818 . S
Gd736 O756 2.377 . S
Gd736 O758 2.448 . S
Gd736 O759 2.506 . S
Gd736 O760 2.435 . S
Gd736 O761 2.717 . S
Gd736 O763 2.395 . S
Gd736 O767 2.327 . S
Gd737 C748 2.818 . S
Gd737 O757 2.395 . S
Gd737 O761 2.327 . S
Gd737 O762 2.377 . S
Gd737 O764 2.448 . S
Gd737 O765 2.506 . S
Gd737 O766 2.435 . S
Gd737 O767 2.717 . S
C738 O756 1.240 . S
C738 O757 1.240 . S
C739 Gd736 2.818 . S
C739 C740 1.510 . S
C739 O758 1.249 . S
C739 O759 1.252 . S
C740 C739 1.510 . S
C740 C741 1.404 . S
C740 C742 1.352 . S
C741 C740 1.404 . S
C741 C745 1.389 . S
C741 H768 0.930 . S
C742 C740 1.352 . S
C742 C744 1.374 1_455 S
C742 H769 0.931 . S
C743 C744 1.359 . S
C743 C745 1.364 1_655 S
C744 C742 1.374 1_655 S
C744 C743 1.359 . S
C744 H770 0.931 . S
C745 C741 1.389 . S
C745 C743 1.364 1_455 S
C745 H771 0.931 . S
C746 O760 1.256 . S
C746 O761 1.257 . S
C747 O762 1.240 . S
C747 O763 1.240 . S
C748 Gd737 2.818 . S
C748 C749 1.510 . S
C748 O764 1.249 . S
C748 O765 1.252 . S
C749 C748 1.510 . S
C749 C750 1.404 . S
C749 C751 1.352 . S
C750 C749 1.404 . S
C750 C754 1.389 . S
C750 H772 0.930 . S
C751 C749 1.352 . S
C751 C753 1.374 . S
C751 H773 0.931 . S
C752 C753 1.359 . S
C752 C754 1.364 . S
C753 C751 1.374 . S
C753 C752 1.359 . S
C753 H774 0.931 . S
C754 C750 1.389 . S
C754 C752 1.364 . S
C754 H775 0.931 . S
C755 O766 1.256 . S
C755 O767 1.257 . S
O756 Gd736 2.377 . S
O756 C738 1.240 . S
O757 Gd737 2.395 . S
O757 C738 1.240 . S
O758 Gd736 2.448 . S
O758 C739 1.249 . S
O759 Gd736 2.506 . S
O759 C739 1.252 . S
O760 Gd736 2.435 . S
O760 C746 1.256 . S
O761 Gd736 2.717 . S
O761 Gd737 2.327 . S
O761 C746 1.257 . S
O762 Gd737 2.377 . S
O762 C747 1.240 . S
O763 Gd736 2.395 . S
O763 C747 1.240 . S
O764 Gd737 2.448 . S
O764 C748 1.249 . S
O765 Gd737 2.506 . S
O765 C748 1.252 . S
O766 Gd737 2.435 . S
O766 C755 1.256 . S
O767 Gd736 2.327 . S
O767 Gd737 2.717 . S
O767 C755 1.257 . S
H768 C741 0.930 . S
H769 C742 0.931 . S
H770 C744 0.931 . S
H771 C745 0.931 . S
H772 C750 0.930 . S
H773 C751 0.931 . S
H774 C753 0.931 . S
H775 C754 0.931 . S
Gd776 C779 2.818 . S
Gd776 O796 2.377 . S
Gd776 O798 2.448 . S
Gd776 O799 2.506 . S
Gd776 O800 2.435 . S
Gd776 O801 2.717 . S
Gd776 O803 2.395 . S
Gd776 O807 2.327 . S
Gd777 C788 2.818 . S
Gd777 O797 2.395 . S
Gd777 O801 2.327 . S
Gd777 O802 2.377 . S
Gd777 O804 2.448 . S
Gd777 O805 2.506 . S
Gd777 O806 2.435 . S
Gd777 O807 2.717 . S
C778 O796 1.240 . S
C778 O797 1.240 . S
C779 Gd776 2.818 . S
C779 C780 1.510 . S
C779 O798 1.249 . S
C779 O799 1.252 . S
C780 C779 1.510 . S
C780 C781 1.404 . S
C780 C782 1.352 . S
C781 C780 1.404 . S
C781 C785 1.389 . S
C781 H808 0.930 . S
C782 C780 1.352 . S
C782 C784 1.374 . S
C782 H809 0.931 . S
C783 C784 1.359 . S
C783 C785 1.364 . S
C784 C782 1.374 . S
C784 C783 1.359 . S
C784 H810 0.931 . S
C785 C781 1.389 . S
C785 C783 1.364 . S
C785 H811 0.931 . S
C786 O800 1.256 . S
C786 O801 1.257 . S
C787 O802 1.240 . S
C787 O803 1.240 . S
C788 Gd777 2.818 . S
C788 C789 1.510 . S
C788 O804 1.249 . S
C788 O805 1.252 . S
C789 C788 1.510 . S
C789 C790 1.404 . S
C789 C791 1.352 . S
C790 C789 1.404 . S
C790 C794 1.389 . S
C790 H812 0.930 . S
C791 C789 1.352 . S
C791 C793 1.374 . S
C791 H813 0.931 . S
C792 C793 1.359 . S
C792 C794 1.364 . S
C793 C791 1.374 . S
C793 C792 1.359 . S
C793 H814 0.931 . S
C794 C790 1.389 . S
C794 C792 1.364 . S
C794 H815 0.931 . S
C795 O806 1.256 . S
C795 O807 1.257 . S
O796 Gd776 2.377 . S
O796 C778 1.240 . S
O797 Gd777 2.395 . S
O797 C778 1.240 . S
O798 Gd776 2.448 . S
O798 C779 1.249 . S
O799 Gd776 2.506 . S
O799 C779 1.252 . S
O800 Gd776 2.435 . S
O800 C786 1.256 . S
O801 Gd776 2.717 . S
O801 Gd777 2.327 . S
O801 C786 1.257 . S
O802 Gd777 2.377 . S
O802 C787 1.240 . S
O803 Gd776 2.395 . S
O803 C787 1.240 . S
O804 Gd777 2.448 . S
O804 C788 1.249 . S
O805 Gd777 2.506 . S
O805 C788 1.252 . S
O806 Gd777 2.435 . S
O806 C795 1.256 . S
O807 Gd776 2.327 . S
O807 Gd777 2.717 . S
O807 C795 1.257 . S
H808 C781 0.930 . S
H809 C782 0.931 . S
H810 C784 0.931 . S
H811 C785 0.931 . S
H812 C790 0.930 . S
H813 C791 0.931 . S
H814 C793 0.931 . S
H815 C794 0.931 . S
Gd816 C819 2.818 . S
Gd816 O836 2.377 . S
Gd816 O838 2.448 . S
Gd816 O839 2.506 . S
Gd816 O840 2.435 . S
Gd816 O841 2.717 . S
Gd816 O843 2.395 . S
Gd816 O847 2.327 . S
Gd817 C828 2.818 . S
Gd817 O837 2.395 . S
Gd817 O841 2.327 . S
Gd817 O842 2.377 . S
Gd817 O844 2.448 . S
Gd817 O845 2.506 . S
Gd817 O846 2.435 . S
Gd817 O847 2.717 . S
C818 O836 1.240 . S
C818 O837 1.240 . S
C819 Gd816 2.818 . S
C819 C820 1.510 . S
C819 O838 1.249 . S
C819 O839 1.252 . S
C820 C819 1.510 . S
C820 C821 1.404 . S
C820 C822 1.352 . S
C821 C820 1.404 . S
C821 C825 1.389 . S
C821 H848 0.930 . S
C822 C820 1.352 . S
C822 C824 1.374 . S
C822 H849 0.931 . S
C823 C824 1.359 . S
C823 C825 1.364 . S
C824 C822 1.374 . S
C824 C823 1.359 . S
C824 H850 0.931 . S
C825 C821 1.389 . S
C825 C823 1.364 . S
C825 H851 0.931 . S
C826 O840 1.256 . S
C826 O841 1.257 . S
C827 O842 1.240 . S
C827 O843 1.240 . S
C828 Gd817 2.818 . S
C828 C829 1.510 . S
C828 O844 1.249 . S
C828 O845 1.252 . S
C829 C828 1.510 . S
C829 C830 1.404 . S
C829 C831 1.352 . S
C830 C829 1.404 . S
C830 C834 1.389 . S
C830 H852 0.930 . S
C831 C829 1.352 . S
C831 C833 1.374 . S
C831 H853 0.931 . S
C832 C833 1.359 . S
C832 C834 1.364 . S
C833 C831 1.374 . S
C833 C832 1.359 . S
C833 H854 0.931 . S
C834 C830 1.389 . S
C834 C832 1.364 . S
C834 H855 0.931 . S
C835 O846 1.256 . S
C835 O847 1.257 . S
O836 Gd816 2.377 . S
O836 C818 1.240 . S
O837 Gd817 2.395 . S
O837 C818 1.240 . S
O838 Gd816 2.448 . S
O838 C819 1.249 . S
O839 Gd816 2.506 . S
O839 C819 1.252 . S
O840 Gd816 2.435 . S
O840 C826 1.256 . S
O841 Gd816 2.717 . S
O841 Gd817 2.327 . S
O841 C826 1.257 . S
O842 Gd817 2.377 . S
O842 C827 1.240 . S
O843 Gd816 2.395 . S
O843 C827 1.240 . S
O844 Gd817 2.448 . S
O844 C828 1.249 . S
O845 Gd817 2.506 . S
O845 C828 1.252 . S
O846 Gd817 2.435 . S
O846 C835 1.256 . S
O847 Gd816 2.327 . S
O847 Gd817 2.717 . S
O847 C835 1.257 . S
H848 C821 0.930 . S
H849 C822 0.931 . S
H850 C824 0.931 . S
H851 C825 0.931 . S
H852 C830 0.930 . S
H853 C831 0.931 . S
H854 C833 0.931 . S
H855 C834 0.931 . S
Gd856 C859 2.818 . S
Gd856 O876 2.377 . S
Gd856 O878 2.448 . S
Gd856 O879 2.506 . S
Gd856 O880 2.435 . S
Gd856 O881 2.717 . S
Gd856 O883 2.395 . S
Gd856 O887 2.327 . S
Gd857 C868 2.818 . S
Gd857 O877 2.395 . S
Gd857 O881 2.327 . S
Gd857 O882 2.377 . S
Gd857 O884 2.448 . S
Gd857 O885 2.506 . S
Gd857 O886 2.435 . S
Gd857 O887 2.717 . S
C858 O876 1.240 . S
C858 O877 1.240 . S
C859 Gd856 2.818 . S
C859 C860 1.510 . S
C859 O878 1.249 . S
C859 O879 1.252 . S
C860 C859 1.510 . S
C860 C861 1.404 . S
C860 C862 1.352 . S
C861 C860 1.404 . S
C861 C865 1.389 . S
C861 H888 0.930 . S
C862 C860 1.352 . S
C862 C864 1.374 . S
C862 H889 0.931 . S
C863 C864 1.359 . S
C863 C865 1.364 . S
C864 C862 1.374 . S
C864 C863 1.359 . S
C864 H890 0.931 . S
C865 C861 1.389 . S
C865 C863 1.364 . S
C865 H891 0.931 . S
C866 O880 1.256 . S
C866 O881 1.257 . S
C867 O882 1.240 . S
C867 O883 1.240 . S
C868 Gd857 2.818 . S
C868 C869 1.510 . S
C868 O884 1.249 . S
C868 O885 1.252 . S
C869 C868 1.510 . S
C869 C870 1.404 . S
C869 C871 1.352 . S
C870 C869 1.404 . S
C870 C874 1.389 . S
C870 H892 0.930 . S
C871 C869 1.352 . S
C871 C873 1.374 . S
C871 H893 0.931 . S
C872 C873 1.359 . S
C872 C874 1.364 . S
C873 C871 1.374 . S
C873 C872 1.359 . S
C873 H894 0.931 . S
C874 C870 1.389 . S
C874 C872 1.364 . S
C874 H895 0.931 . S
C875 O886 1.256 . S
C875 O887 1.257 . S
O876 Gd856 2.377 . S
O876 C858 1.240 . S
O877 Gd857 2.395 . S
O877 C858 1.240 . S
O878 Gd856 2.448 . S
O878 C859 1.249 . S
O879 Gd856 2.506 . S
O879 C859 1.252 . S
O880 Gd856 2.435 . S
O880 C866 1.256 . S
O881 Gd856 2.717 . S
O881 Gd857 2.327 . S
O881 C866 1.257 . S
O882 Gd857 2.377 . S
O882 C867 1.240 . S
O883 Gd856 2.395 . S
O883 C867 1.240 . S
O884 Gd857 2.448 . S
O884 C868 1.249 . S
O885 Gd857 2.506 . S
O885 C868 1.252 . S
O886 Gd857 2.435 . S
O886 C875 1.256 . S
O887 Gd856 2.327 . S
O887 Gd857 2.717 . S
O887 C875 1.257 . S
H888 C861 0.930 . S
H889 C862 0.931 . S
H890 C864 0.931 . S
H891 C865 0.931 . S
H892 C870 0.930 . S
H893 C871 0.931 . S
H894 C873 0.931 . S
H895 C874 0.931 . S
Gd896 C899 2.818 . S
Gd896 O916 2.377 . S
Gd896 O918 2.448 . S
Gd896 O919 2.506 . S
Gd896 O920 2.435 . S
Gd896 O921 2.717 . S
Gd896 O923 2.395 . S
Gd896 O927 2.327 . S
Gd897 C908 2.818 . S
Gd897 O917 2.395 . S
Gd897 O921 2.327 . S
Gd897 O922 2.377 . S
Gd897 O924 2.448 . S
Gd897 O925 2.506 . S
Gd897 O926 2.435 . S
Gd897 O927 2.717 . S
C898 O916 1.240 . S
C898 O917 1.240 . S
C899 Gd896 2.818 . S
C899 C900 1.510 . S
C899 O918 1.249 . S
C899 O919 1.252 . S
C900 C899 1.510 . S
C900 C901 1.404 . S
C900 C902 1.352 . S
C901 C900 1.404 . S
C901 C905 1.389 . S
C901 H928 0.930 . S
C902 C900 1.352 . S
C902 C904 1.374 . S
C902 H929 0.931 . S
C903 C904 1.359 . S
C903 C905 1.364 . S
C904 C902 1.374 . S
C904 C903 1.359 . S
C904 H930 0.931 . S
C905 C901 1.389 . S
C905 C903 1.364 . S
C905 H931 0.931 . S
C906 O920 1.256 . S
C906 O921 1.257 . S
C907 O922 1.240 . S
C907 O923 1.240 . S
C908 Gd897 2.818 . S
C908 C909 1.510 . S
C908 O924 1.249 . S
C908 O925 1.252 . S
C909 C908 1.510 . S
C909 C910 1.404 . S
C909 C911 1.352 . S
C910 C909 1.404 . S
C910 C914 1.389 . S
C910 H932 0.930 . S
C911 C909 1.352 . S
C911 C913 1.374 . S
C911 H933 0.931 . S
C912 C913 1.359 . S
C912 C914 1.364 . S
C913 C911 1.374 . S
C913 C912 1.359 . S
C913 H934 0.931 . S
C914 C910 1.389 . S
C914 C912 1.364 . S
C914 H935 0.931 . S
C915 O926 1.256 . S
C915 O927 1.257 . S
O916 Gd896 2.377 . S
O916 C898 1.240 . S
O917 Gd897 2.395 . S
O917 C898 1.240 . S
O918 Gd896 2.448 . S
O918 C899 1.249 . S
O919 Gd896 2.506 . S
O919 C899 1.252 . S
O920 Gd896 2.435 . S
O920 C906 1.256 . S
O921 Gd896 2.717 . S
O921 Gd897 2.327 . S
O921 C906 1.257 . S
O922 Gd897 2.377 . S
O922 C907 1.240 . S
O923 Gd896 2.395 . S
O923 C907 1.240 . S
O924 Gd897 2.448 . S
O924 C908 1.249 . S
O925 Gd897 2.506 . S
O925 C908 1.252 . S
O926 Gd897 2.435 . S
O926 C915 1.256 . S
O927 Gd896 2.327 . S
O927 Gd897 2.717 . S
O927 C915 1.257 . S
H928 C901 0.930 . S
H929 C902 0.931 . S
H930 C904 0.931 . S
H931 C905 0.931 . S
H932 C910 0.930 . S
H933 C911 0.931 . S
H934 C913 0.931 . S
H935 C914 0.931 . S
Gd936 C939 2.818 . S
Gd936 O956 2.377 . S
Gd936 O958 2.448 . S
Gd936 O959 2.506 . S
Gd936 O960 2.435 1_554 S
Gd936 O961 2.717 . S
Gd936 O963 2.395 . S
Gd936 O967 2.327 . S
Gd937 C948 2.818 1_455 S
Gd937 O957 2.395 . S
Gd937 O961 2.327 . S
Gd937 O962 2.377 . S
Gd937 O964 2.489 . S
Gd937 O965 2.523 . S
Gd937 O966 2.435 . S
Gd937 O967 2.717 . S
C938 O956 1.240 . S
C938 O957 1.240 . S
C939 Gd936 2.818 . S
C939 C940 1.510 . S
C939 O958 1.249 . S
C939 O959 1.252 . S
C940 C939 1.510 . S
C940 C941 1.404 . S
C940 C942 1.352 . S
C941 C940 1.404 . S
C941 C945 1.388 . S
C941 H968 0.930 1_554 S
C942 C940 1.352 . S
C942 C944 1.374 . S
C942 H969 0.931 . S
C943 C944 1.359 . S
C943 C945 1.360 . S
C944 C942 1.374 . S
C944 C943 1.359 . S
C944 H970 0.931 . S
C945 C941 1.388 . S
C945 C943 1.360 . S
C945 H971 0.936 1_554 S
C946 O960 1.256 1_554 S
C946 O961 1.257 . S
C947 O962 1.240 . S
C947 O963 1.240 . S
C948 Gd937 2.818 1_655 S
C948 C949 1.510 . S
C948 O964 1.231 1_655 S
C948 O965 1.242 1_655 S
C949 C948 1.510 . S
C949 C950 1.404 . S
C949 C951 1.352 . S
C950 C949 1.404 . S
C950 C954 1.389 . S
C950 H972 0.930 . S
C951 C949 1.352 . S
C951 C953 1.374 . S
C951 H973 0.931 . S
C952 C953 1.359 . S
C952 C954 1.364 . S
C953 C951 1.374 . S
C953 C952 1.359 . S
C953 H974 0.931 . S
C954 C950 1.389 . S
C954 C952 1.364 . S
C954 H975 0.931 . S
C955 O966 1.256 . S
C955 O967 1.257 . S
O956 Gd936 2.377 . S
O956 C938 1.240 . S
O957 Gd937 2.395 . S
O957 C938 1.240 . S
O958 Gd936 2.448 . S
O958 C939 1.249 . S
O959 Gd936 2.506 . S
O959 C939 1.252 . S
O960 Gd936 2.435 1_556 S
O960 C946 1.256 1_556 S
O961 Gd936 2.717 . S
O961 Gd937 2.327 . S
O961 C946 1.257 . S
O962 Gd937 2.377 . S
O962 C947 1.240 . S
O963 Gd936 2.395 . S
O963 C947 1.240 . S
O964 Gd937 2.489 . S
O964 C948 1.231 1_455 S
O965 Gd937 2.523 . S
O965 C948 1.242 1_455 S
O966 Gd937 2.435 . S
O966 C955 1.256 . S
O967 Gd936 2.327 . S
O967 Gd937 2.717 . S
O967 C955 1.257 . S
H968 C941 0.930 1_556 S
H969 C942 0.931 . S
H970 C944 0.931 . S
H971 C945 0.936 1_556 S
H972 C950 0.930 . S
H973 C951 0.931 . S
H974 C953 0.931 . S
H975 C954 0.931 . S
H976 C984 0.929 . S
H977 C986 0.930 . S
H978 C988 0.930 . S
H979 C991 0.929 . S
H980 C994 0.930 . S
H981 C996 0.960 . S
H982 C996 0.960 1_655 S
H983 C996 0.960 . S
C984 H976 0.929 . S
C984 C985 1.377 . S
C984 C986 1.384 . S
C985 C984 1.377 . S
C985 C991 1.390 . S
C986 H977 0.930 . S
C986 C984 1.384 . S
C986 C987 1.372 . S
C987 C986 1.372 . S
C987 C988 1.400 . S
C987 C992 1.490 . S
C988 H978 0.930 . S
C988 C987 1.400 . S
C988 C991 1.386 . S
H989 C1005 0.930 . S
H990 C1006 0.925 1_554 S
C991 H979 0.929 . S
C991 C985 1.390 . S
C991 C988 1.386 . S
C992 C987 1.490 . S
C992 C994 1.395 . S
C992 C995 1.403 . S
H993 C999 0.930 . S
C994 H980 0.930 . S
C994 C992 1.395 . S
C994 C997 1.403 . S
C995 C992 1.403 . S
C995 C996 1.524 . S
C995 C999 1.400 . S
C996 H981 0.960 . S
C996 H982 0.960 1_455 S
C996 H983 0.960 . S
C996 C995 1.524 . S
C997 C994 1.403 . S
C997 C998 1.392 . S
C997 C1001 1.495 . S
C998 C997 1.392 . S
C998 C999 1.385 . S
C998 C1000 1.478 . S
C999 H993 0.930 . S
C999 C995 1.400 . S
C999 C998 1.385 . S
C1000 C998 1.478 . S
C1000 C1002 1.381 . S
C1000 C1006 1.411 . S
C1001 C997 1.495 . S
C1001 H1007 0.959 . S
C1001 H1008 0.961 . S
C1001 H1009 0.960 . S
C1002 C1000 1.381 . S
C1002 C1003 1.394 . S
C1002 H1010 0.930 . S
C1003 C1002 1.394 . S
C1003 C1004 1.383 1_556 S
C1003 H1011 0.929 . S
C1004 C1003 1.383 1_554 S
C1004 C1005 1.377 . S
C1005 H989 0.930 . S
C1005 C1004 1.377 . S
C1005 C1006 1.358 1_554 S
C1006 H990 0.925 1_556 S
C1006 C1000 1.411 . S
C1006 C1005 1.358 1_556 S
H1007 C1001 0.959 . S
H1008 C1001 0.961 . S
H1009 C1001 0.960 . S
H1010 C1002 0.930 . S
H1011 C1003 0.929 . S
H1012 C1020 0.929 . S
H1013 C1022 0.930 . S
H1014 C1024 0.930 . S
H1015 C1027 0.929 . S
H1016 C1030 0.930 . S
H1017 C1032 0.960 . S
H1018 C1032 0.960 . S
H1019 C1032 0.960 . S
C1020 H1012 0.929 . S
C1020 C1021 1.377 . S
C1020 C1022 1.384 . S
C1021 C1020 1.377 . S
C1021 C1027 1.390 . S
C1022 H1013 0.930 . S
C1022 C1020 1.384 . S
C1022 C1023 1.372 . S
C1023 C1022 1.372 . S
C1023 C1024 1.400 . S
C1023 C1028 1.490 . S
C1024 H1014 0.930 . S
C1024 C1023 1.400 . S
C1024 C1027 1.386 . S
H1025 C1041 0.930 . S
H1026 C1042 0.931 . S
C1027 H1015 0.929 . S
C1027 C1021 1.390 . S
C1027 C1024 1.386 . S
C1028 C1023 1.490 . S
C1028 C1030 1.395 . S
C1028 C1031 1.403 . S
H1029 C1035 0.930 . S
C1030 H1016 0.930 . S
C1030 C1028 1.395 . S
C1030 C1033 1.403 . S
C1031 C1028 1.403 . S
C1031 C1032 1.524 . S
C1031 C1035 1.400 . S
C1032 H1017 0.960 . S
C1032 H1018 0.960 . S
C1032 H1019 0.960 . S
C1032 C1031 1.524 . S
C1033 C1030 1.403 . S
C1033 C1034 1.392 . S
C1033 C1037 1.495 . S
C1034 C1033 1.392 . S
C1034 C1035 1.385 . S
C1034 C1036 1.478 . S
C1035 H1029 0.930 . S
C1035 C1031 1.400 . S
C1035 C1034 1.385 . S
C1036 C1034 1.478 . S
C1036 C1038 1.381 . S
C1036 C1042 1.383 . S
C1037 C1033 1.495 . S
C1037 H1043 0.959 . S
C1037 H1044 0.961 . S
C1037 H1045 0.960 . S
C1038 C1036 1.381 . S
C1038 C1039 1.394 . S
C1038 H1046 0.930 . S
C1039 C1038 1.394 . S
C1039 C1040 1.383 . S
C1039 H1047 0.929 . S
C1040 C1039 1.383 . S
C1040 C1041 1.377 . S
C1041 H1025 0.930 . S
C1041 C1040 1.377 . S
C1041 C1042 1.379 . S
C1042 H1026 0.931 . S
C1042 C1036 1.383 . S
C1042 C1041 1.379 . S
H1043 C1037 0.959 . S
H1044 C1037 0.961 . S
H1045 C1037 0.960 . S
H1046 C1038 0.930 . S
H1047 C1039 0.929 . S
H1048 C1056 0.929 . S
H1049 C1058 0.930 . S
H1050 C1060 0.930 . S
H1051 C1063 0.929 . S
H1052 C1066 0.930 . S
H1053 C1068 0.960 . S
H1054 C1068 0.960 . S
H1055 C1068 0.960 . S
C1056 H1048 0.929 . S
C1056 C1057 1.377 . S
C1056 C1058 1.384 . S
C1057 C1056 1.377 . S
C1057 C1063 1.390 . S
C1058 H1049 0.930 . S
C1058 C1056 1.384 . S
C1058 C1059 1.372 . S
C1059 C1058 1.372 . S
C1059 C1060 1.400 . S
C1059 C1064 1.490 . S
C1060 H1050 0.930 . S
C1060 C1059 1.400 . S
C1060 C1063 1.386 . S
H1061 C1077 0.930 . S
H1062 C1078 0.931 . S
C1063 H1051 0.929 . S
C1063 C1057 1.390 . S
C1063 C1060 1.386 . S
C1064 C1059 1.490 . S
C1064 C1066 1.395 . S
C1064 C1067 1.403 . S
H1065 C1071 0.930 . S
C1066 H1052 0.930 . S
C1066 C1064 1.395 . S
C1066 C1069 1.403 . S
C1067 C1064 1.403 . S
C1067 C1068 1.524 . S
C1067 C1071 1.400 . S
C1068 H1053 0.960 . S
C1068 H1054 0.960 . S
C1068 H1055 0.960 . S
C1068 C1067 1.524 . S
C1069 C1066 1.403 . S
C1069 C1070 1.392 . S
C1069 C1073 1.495 . S
C1070 C1069 1.392 . S
C1070 C1071 1.385 . S
C1070 C1072 1.478 . S
C1071 H1065 0.930 . S
C1071 C1067 1.400 . S
C1071 C1070 1.385 . S
C1072 C1070 1.478 . S
C1072 C1074 1.381 . S
C1072 C1078 1.383 . S
C1073 C1069 1.495 . S
C1073 H1079 0.959 . S
C1073 H1080 0.961 . S
C1073 H1081 0.960 . S
C1074 C1072 1.381 . S
C1074 C1075 1.394 . S
C1074 H1082 0.930 . S
C1075 C1074 1.394 . S
C1075 C1076 1.383 . S
C1075 H1083 0.929 . S
C1076 C1075 1.383 . S
C1076 C1077 1.377 . S
C1077 H1061 0.930 . S
C1077 C1076 1.377 . S
C1077 C1078 1.379 . S
C1078 H1062 0.931 . S
C1078 C1072 1.383 . S
C1078 C1077 1.379 . S
H1079 C1073 0.959 . S
H1080 C1073 0.961 . S
H1081 C1073 0.960 . S
H1082 C1074 0.930 . S
H1083 C1075 0.929 . S
H1084 C1092 0.929 . S
H1085 C1094 0.930 . S
H1086 C1096 0.930 . S
H1087 C1099 0.929 . S
H1088 C1102 0.930 . S
H1089 C1104 0.960 . S
H1090 C1104 0.960 . S
H1091 C1104 0.960 . S
C1092 H1084 0.929 . S
C1092 C1093 1.377 . S
C1092 C1094 1.384 . S
C1093 C1092 1.377 . S
C1093 C1099 1.390 . S
C1094 H1085 0.930 . S
C1094 C1092 1.384 . S
C1094 C1095 1.372 . S
C1095 C1094 1.372 . S
C1095 C1096 1.400 . S
C1095 C1100 1.490 . S
C1096 H1086 0.930 . S
C1096 C1095 1.400 . S
C1096 C1099 1.386 . S
H1097 C1113 0.930 . S
H1098 C1114 0.931 . S
C1099 H1087 0.929 . S
C1099 C1093 1.390 . S
C1099 C1096 1.386 . S
C1100 C1095 1.490 . S
C1100 C1102 1.395 . S
C1100 C1103 1.403 . S
H1101 C1107 0.930 . S
C1102 H1088 0.930 . S
C1102 C1100 1.395 . S
C1102 C1105 1.403 . S
C1103 C1100 1.403 . S
C1103 C1104 1.524 . S
C1103 C1107 1.400 . S
C1104 H1089 0.960 . S
C1104 H1090 0.960 . S
C1104 H1091 0.960 . S
C1104 C1103 1.524 . S
C1105 C1102 1.403 . S
C1105 C1106 1.392 . S
C1105 C1109 1.495 . S
C1106 C1105 1.392 . S
C1106 C1107 1.385 . S
C1106 C1108 1.478 . S
C1107 H1101 0.930 . S
C1107 C1103 1.400 . S
C1107 C1106 1.385 . S
C1108 C1106 1.478 . S
C1108 C1110 1.381 . S
C1108 C1114 1.383 . S
C1109 C1105 1.495 . S
C1109 H1115 0.959 . S
C1109 H1116 0.961 . S
C1109 H1117 0.960 . S
C1110 C1108 1.381 . S
C1110 C1111 1.394 . S
C1110 H1118 0.930 . S
C1111 C1110 1.394 . S
C1111 C1112 1.383 . S
C1111 H1119 0.929 . S
C1112 C1111 1.383 . S
C1112 C1113 1.377 . S
C1113 H1097 0.930 . S
C1113 C1112 1.377 . S
C1113 C1114 1.379 . S
C1114 H1098 0.931 . S
C1114 C1108 1.383 . S
C1114 C1113 1.379 . S
H1115 C1109 0.959 . S
H1116 C1109 0.961 . S
H1117 C1109 0.960 . S
H1118 C1110 0.930 . S
H1119 C1111 0.929 . S
H1120 C1128 0.929 1_655 S
H1121 C1130 0.930 . S
H1122 C1132 0.930 . S
H1123 C1135 0.929 . S
H1124 C1138 0.930 . S
H1125 C1140 0.960 . S
H1126 C1140 0.960 . S
H1127 C1140 0.960 . S
C1128 H1120 0.929 1_455 S
C1128 C1129 1.377 . S
C1128 C1130 1.384 . S
C1129 C1128 1.377 . S
C1129 C1135 1.390 . S
C1130 H1121 0.930 . S
C1130 C1128 1.384 . S
C1130 C1131 1.372 . S
C1131 C1130 1.372 . S
C1131 C1132 1.400 . S
C1131 C1136 1.490 . S
C1132 H1122 0.930 . S
C1132 C1131 1.400 . S
C1132 C1135 1.386 . S
H1133 C1149 0.930 . S
H1134 C1150 0.931 . S
C1135 H1123 0.929 . S
C1135 C1129 1.390 . S
C1135 C1132 1.386 . S
C1136 C1131 1.490 . S
C1136 C1138 1.395 . S
C1136 C1139 1.403 . S
H1137 C1143 0.930 . S
C1138 H1124 0.930 . S
C1138 C1136 1.395 . S
C1138 C1141 1.403 . S
C1139 C1136 1.403 . S
C1139 C1140 1.524 . S
C1139 C1143 1.400 . S
C1140 H1125 0.960 . S
C1140 H1126 0.960 . S
C1140 H1127 0.960 . S
C1140 C1139 1.524 . S
C1141 C1138 1.403 . S
C1141 C1142 1.392 . S
C1141 C1145 1.495 . S
C1142 C1141 1.392 . S
C1142 C1143 1.385 . S
C1142 C1144 1.478 . S
C1143 H1137 0.930 . S
C1143 C1139 1.400 . S
C1143 C1142 1.385 . S
C1144 C1142 1.478 . S
C1144 C1146 1.381 . S
C1144 C1150 1.383 . S
C1145 C1141 1.495 . S
C1145 H1151 0.959 . S
C1145 H1152 0.961 . S
C1145 H1153 0.960 . S
C1146 C1144 1.381 . S
C1146 C1147 1.394 . S
C1146 H1154 0.930 . S
C1147 C1146 1.394 . S
C1147 C1148 1.383 . S
C1147 H1155 0.929 . S
C1148 C1147 1.383 . S
C1148 C1149 1.377 . S
C1149 H1133 0.930 . S
C1149 C1148 1.377 . S
C1149 C1150 1.379 . S
C1150 H1134 0.931 . S
C1150 C1144 1.383 . S
C1150 C1149 1.379 . S
H1151 C1145 0.959 . S
H1152 C1145 0.961 . S
H1153 C1145 0.960 . S
H1154 C1146 0.930 . S
H1155 C1147 0.929 . S
H1156 C1164 0.929 . S
H1157 C1166 0.930 . S
H1158 C1168 0.930 . S
H1159 C1171 0.929 . S
H1160 C1174 0.930 . S
H1161 C1176 0.960 . S
H1162 C1176 0.960 . S
H1163 C1176 0.960 . S
C1164 H1156 0.929 . S
C1164 C1165 1.377 . S
C1164 C1166 1.384 . S
C1165 C1164 1.377 . S
C1165 C1171 1.390 . S
C1166 H1157 0.930 . S
C1166 C1164 1.384 . S
C1166 C1167 1.372 . S
C1167 C1166 1.372 . S
C1167 C1168 1.400 . S
C1167 C1172 1.490 . S
C1168 H1158 0.930 . S
C1168 C1167 1.400 . S
C1168 C1171 1.386 . S
H1169 C1185 0.930 . S
H1170 C1186 0.931 . S
C1171 H1159 0.929 . S
C1171 C1165 1.390 . S
C1171 C1168 1.386 . S
C1172 C1167 1.490 . S
C1172 C1174 1.395 . S
C1172 C1175 1.403 . S
H1173 C1179 0.930 . S
C1174 H1160 0.930 . S
C1174 C1172 1.395 . S
C1174 C1177 1.403 . S
C1175 C1172 1.403 . S
C1175 C1176 1.524 . S
C1175 C1179 1.400 . S
C1176 H1161 0.960 . S
C1176 H1162 0.960 . S
C1176 H1163 0.960 . S
C1176 C1175 1.524 . S
C1177 C1174 1.403 . S
C1177 C1178 1.392 . S
C1177 C1181 1.495 . S
C1178 C1177 1.392 . S
C1178 C1179 1.385 . S
C1178 C1180 1.478 . S
C1179 H1173 0.930 . S
C1179 C1175 1.400 . S
C1179 C1178 1.385 . S
C1180 C1178 1.478 . S
C1180 C1182 1.381 . S
C1180 C1186 1.383 . S
C1181 C1177 1.495 . S
C1181 H1187 0.959 . S
C1181 H1188 0.961 . S
C1181 H1189 0.960 . S
C1182 C1180 1.381 . S
C1182 C1183 1.394 . S
C1182 H1190 0.930 . S
C1183 C1182 1.394 . S
C1183 C1184 1.383 . S
C1183 H1191 0.929 . S
C1184 C1183 1.383 . S
C1184 C1185 1.377 . S
C1185 H1169 0.930 . S
C1185 C1184 1.377 . S
C1185 C1186 1.379 . S
C1186 H1170 0.931 . S
C1186 C1180 1.383 . S
C1186 C1185 1.379 . S
H1187 C1181 0.959 . S
H1188 C1181 0.961 . S
H1189 C1181 0.960 . S
H1190 C1182 0.930 . S
H1191 C1183 0.929 . S
H1192 C1200 0.929 . S
H1193 C1202 0.930 . S
H1194 C1204 0.930 . S
H1195 C1207 0.929 . S
H1196 C1210 0.930 . S
H1197 C1212 0.960 . S
H1198 C1212 0.960 . S
H1199 C1212 0.960 . S
C1200 H1192 0.929 . S
C1200 C1201 1.377 . S
C1200 C1202 1.384 . S
C1201 C1200 1.377 . S
C1201 C1207 1.390 . S
C1202 H1193 0.930 . S
C1202 C1200 1.384 . S
C1202 C1203 1.372 . S
C1203 C1202 1.372 . S
C1203 C1204 1.400 . S
C1203 C1208 1.490 . S
C1204 H1194 0.930 . S
C1204 C1203 1.400 . S
C1204 C1207 1.386 . S
H1205 C1221 0.930 . S
H1206 C1222 0.931 . S
C1207 H1195 0.929 . S
C1207 C1201 1.390 . S
C1207 C1204 1.386 . S
C1208 C1203 1.490 . S
C1208 C1210 1.395 . S
C1208 C1211 1.403 . S
H1209 C1215 0.930 . S
C1210 H1196 0.930 . S
C1210 C1208 1.395 . S
C1210 C1213 1.403 . S
C1211 C1208 1.403 . S
C1211 C1212 1.524 . S
C1211 C1215 1.400 . S
C1212 H1197 0.960 . S
C1212 H1198 0.960 . S
C1212 H1199 0.960 . S
C1212 C1211 1.524 . S
C1213 C1210 1.403 . S
C1213 C1214 1.392 . S
C1213 C1217 1.495 . S
C1214 C1213 1.392 . S
C1214 C1215 1.385 . S
C1214 C1216 1.478 . S
C1215 H1209 0.930 . S
C1215 C1211 1.400 . S
C1215 C1214 1.385 . S
C1216 C1214 1.478 . S
C1216 C1218 1.381 . S
C1216 C1222 1.383 . S
C1217 C1213 1.495 . S
C1217 H1223 0.959 . S
C1217 H1224 0.961 . S
C1217 H1225 0.960 . S
C1218 C1216 1.381 . S
C1218 C1219 1.394 . S
C1218 H1226 0.930 . S
C1219 C1218 1.394 . S
C1219 C1220 1.383 . S
C1219 H1227 0.929 . S
C1220 C1219 1.383 . S
C1220 C1221 1.377 . S
C1221 H1205 0.930 . S
C1221 C1220 1.377 . S
C1221 C1222 1.379 . S
C1222 H1206 0.931 . S
C1222 C1216 1.383 . S
C1222 C1221 1.379 . S
H1223 C1217 0.959 . S
H1224 C1217 0.961 . S
H1225 C1217 0.960 . S
H1226 C1218 0.930 . S
H1227 C1219 0.929 . S
H1228 C1236 0.929 . S
H1229 C1238 0.930 . S
H1230 C1240 0.930 . S
H1231 C1243 0.929 . S
H1232 C1246 0.930 . S
H1233 C1248 0.960 . S
H1234 C1248 0.960 . S
H1235 C1248 0.960 . S
C1236 H1228 0.929 . S
C1236 C1237 1.377 . S
C1236 C1238 1.384 . S
C1237 C1236 1.377 . S
C1237 C1243 1.390 . S
C1238 H1229 0.930 . S
C1238 C1236 1.384 . S
C1238 C1239 1.372 . S
C1239 C1238 1.372 . S
C1239 C1240 1.400 . S
C1239 C1244 1.490 . S
C1240 H1230 0.930 . S
C1240 C1239 1.400 . S
C1240 C1243 1.386 . S
H1241 C1257 0.930 . S
H1242 C1258 0.931 . S
C1243 H1231 0.929 . S
C1243 C1237 1.390 . S
C1243 C1240 1.386 . S
C1244 C1239 1.490 . S
C1244 C1246 1.395 . S
C1244 C1247 1.403 . S
H1245 C1251 0.930 . S
C1246 H1232 0.930 . S
C1246 C1244 1.395 . S
C1246 C1249 1.403 . S
C1247 C1244 1.403 . S
C1247 C1248 1.524 . S
C1247 C1251 1.400 . S
C1248 H1233 0.960 . S
C1248 H1234 0.960 . S
C1248 H1235 0.960 . S
C1248 C1247 1.524 . S
C1249 C1246 1.403 . S
C1249 C1250 1.392 . S
C1249 C1253 1.495 . S
C1250 C1249 1.392 . S
C1250 C1251 1.385 . S
C1250 C1252 1.478 . S
C1251 H1245 0.930 . S
C1251 C1247 1.400 . S
C1251 C1250 1.385 . S
C1252 C1250 1.478 . S
C1252 C1254 1.381 . S
C1252 C1258 1.383 . S
C1253 C1249 1.495 . S
C1253 H1259 0.959 . S
C1253 H1260 0.961 . S
C1253 H1261 0.960 . S
C1254 C1252 1.381 . S
C1254 C1255 1.394 . S
C1254 H1262 0.930 . S
C1255 C1254 1.394 . S
C1255 C1256 1.383 . S
C1255 H1263 0.929 . S
C1256 C1255 1.383 . S
C1256 C1257 1.377 . S
C1257 H1241 0.930 . S
C1257 C1256 1.377 . S
C1257 C1258 1.379 . S
C1258 H1242 0.931 . S
C1258 C1252 1.383 . S
C1258 C1257 1.379 . S
H1259 C1253 0.959 . S
H1260 C1253 0.961 . S
H1261 C1253 0.960 . S
H1262 C1254 0.930 . S
H1263 C1255 0.929 . S
H1264 C1272 0.929 . S
H1265 C1274 0.930 . S
H1266 C1276 0.930 . S
H1267 C1279 0.929 . S
H1268 C1282 0.930 . S
H1269 C1284 0.960 . S
H1270 C1284 0.960 . S
H1271 C1284 0.960 . S
C1272 H1264 0.929 . S
C1272 C1273 1.377 . S
C1272 C1274 1.384 . S
C1273 C1272 1.377 . S
C1273 C1279 1.390 . S
C1274 H1265 0.930 . S
C1274 C1272 1.384 . S
C1274 C1275 1.372 . S
C1275 C1274 1.372 . S
C1275 C1276 1.400 . S
C1275 C1280 1.490 . S
C1276 H1266 0.930 . S
C1276 C1275 1.400 . S
C1276 C1279 1.386 . S
H1277 C1293 0.930 . S
H1278 C1294 0.931 . S
C1279 H1267 0.929 . S
C1279 C1273 1.390 . S
C1279 C1276 1.386 . S
C1280 C1275 1.490 . S
C1280 C1282 1.395 1_655 S
C1280 C1283 1.403 . S
H1281 C1287 0.930 . S
C1282 H1268 0.930 . S
C1282 C1280 1.395 1_455 S
C1282 C1285 1.403 . S
C1283 C1280 1.403 . S
C1283 C1284 1.524 . S
C1283 C1287 1.400 . S
C1284 H1269 0.960 . S
C1284 H1270 0.960 . S
C1284 H1271 0.960 . S
C1284 C1283 1.524 . S
C1285 C1282 1.403 . S
C1285 C1286 1.392 . S
C1285 C1289 1.495 . S
C1286 C1285 1.392 . S
C1286 C1287 1.385 1_455 S
C1286 C1288 1.478 . S
C1287 H1281 0.930 . S
C1287 C1283 1.400 . S
C1287 C1286 1.385 1_655 S
C1288 C1286 1.478 . S
C1288 C1290 1.381 . S
C1288 C1294 1.383 . S
C1289 C1285 1.495 . S
C1289 H1295 0.959 . S
C1289 H1296 0.961 . S
C1289 H1297 0.960 . S
C1290 C1288 1.381 . S
C1290 C1291 1.394 . S
C1290 H1298 0.930 . S
C1291 C1290 1.394 . S
C1291 C1292 1.383 . S
C1291 H1299 0.929 . S
C1292 C1291 1.383 . S
C1292 C1293 1.377 . S
C1293 H1277 0.930 . S
C1293 C1292 1.377 . S
C1293 C1294 1.379 . S
C1294 H1278 0.931 . S
C1294 C1288 1.383 . S
C1294 C1293 1.379 . S
H1295 C1289 0.959 . S
H1296 C1289 0.961 . S
H1297 C1289 0.960 . S
H1298 C1290 0.930 . S
H1299 C1291 0.929 . S
H1300 C1308 0.929 . S
H1301 C1310 0.930 . S
H1302 C1312 0.930 . S
H1303 C1315 0.929 . S
H1304 C1318 0.930 . S
H1305 C1320 0.960 . S
H1306 C1320 0.960 . S
H1307 C1320 0.960 . S
C1308 H1300 0.929 . S
C1308 C1309 1.377 . S
C1308 C1310 1.384 . S
C1309 C1308 1.377 . S
C1309 C1315 1.390 . S
C1310 H1301 0.930 . S
C1310 C1308 1.384 . S
C1310 C1311 1.372 . S
C1311 C1310 1.372 . S
C1311 C1312 1.400 . S
C1311 C1316 1.490 . S
C1312 H1302 0.930 . S
C1312 C1311 1.400 . S
C1312 C1315 1.386 . S
H1313 C1329 0.930 . S
H1314 C1330 0.931 . S
C1315 H1303 0.929 . S
C1315 C1309 1.390 . S
C1315 C1312 1.386 . S
C1316 C1311 1.490 . S
C1316 C1318 1.395 . S
C1316 C1319 1.403 . S
H1317 C1323 0.930 . S
C1318 H1304 0.930 . S
C1318 C1316 1.395 . S
C1318 C1321 1.403 . S
C1319 C1316 1.403 . S
C1319 C1320 1.524 . S
C1319 C1323 1.400 . S
C1320 H1305 0.960 . S
C1320 H1306 0.960 . S
C1320 H1307 0.960 . S
C1320 C1319 1.524 . S
C1321 C1318 1.403 . S
C1321 C1322 1.392 . S
C1321 C1325 1.495 . S
C1322 C1321 1.392 . S
C1322 C1323 1.385 . S
C1322 C1324 1.478 . S
C1323 H1317 0.930 . S
C1323 C1319 1.400 . S
C1323 C1322 1.385 . S
C1324 C1322 1.478 . S
C1324 C1326 1.381 . S
C1324 C1330 1.383 . S
C1325 C1321 1.495 . S
C1325 H1331 0.959 . S
C1325 H1332 0.961 . S
C1325 H1333 0.960 . S
C1326 C1324 1.381 . S
C1326 C1327 1.394 . S
C1326 H1334 0.930 . S
C1327 C1326 1.394 . S
C1327 C1328 1.383 . S
C1327 H1335 0.929 . S
C1328 C1327 1.383 . S
C1328 C1329 1.377 . S
C1329 H1313 0.930 . S
C1329 C1328 1.377 . S
C1329 C1330 1.379 . S
C1330 H1314 0.931 . S
C1330 C1324 1.383 . S
C1330 C1329 1.379 . S
H1331 C1325 0.959 . S
H1332 C1325 0.961 . S
H1333 C1325 0.960 . S
H1334 C1326 0.930 . S
H1335 C1327 0.929 . S
H1336 C1344 0.929 . S
H1337 C1346 0.930 . S
H1338 C1348 0.930 . S
H1339 C1351 0.929 . S
H1340 C1354 0.930 . S
H1341 C1356 0.960 . S
H1342 C1356 0.960 . S
H1343 C1356 0.960 . S
C1344 H1336 0.929 . S
C1344 C1345 1.377 . S
C1344 C1346 1.384 . S
C1345 C1344 1.377 . S
C1345 C1351 1.390 . S
C1346 H1337 0.930 . S
C1346 C1344 1.384 . S
C1346 C1347 1.372 . S
C1347 C1346 1.372 . S
C1347 C1348 1.400 . S
C1347 C1352 1.490 . S
C1348 H1338 0.930 . S
C1348 C1347 1.400 . S
C1348 C1351 1.386 . S
H1349 C1365 0.930 . S
H1350 C1366 0.931 . S
C1351 H1339 0.929 . S
C1351 C1345 1.390 . S
C1351 C1348 1.386 . S
C1352 C1347 1.490 . S
C1352 C1354 1.395 . S
C1352 C1355 1.403 . S
H1353 C1359 0.930 . S
C1354 H1340 0.930 . S
C1354 C1352 1.395 . S
C1354 C1357 1.403 . S
C1355 C1352 1.403 . S
C1355 C1356 1.524 . S
C1355 C1359 1.400 . S
C1356 H1341 0.960 . S
C1356 H1342 0.960 . S
C1356 H1343 0.960 . S
C1356 C1355 1.524 . S
C1357 C1354 1.403 . S
C1357 C1358 1.392 . S
C1357 C1361 1.495 . S
C1358 C1357 1.392 . S
C1358 C1359 1.385 . S
C1358 C1360 1.478 . S
C1359 H1353 0.930 . S
C1359 C1355 1.400 . S
C1359 C1358 1.385 . S
C1360 C1358 1.478 . S
C1360 C1362 1.381 . S
C1360 C1366 1.383 . S
C1361 C1357 1.495 . S
C1361 H1367 0.959 1_545 S
C1361 H1368 0.961 . S
C1361 H1369 0.960 1_545 S
C1362 C1360 1.381 . S
C1362 C1363 1.394 . S
C1362 H1370 0.930 . S
C1363 C1362 1.394 . S
C1363 C1364 1.383 . S
C1363 H1371 0.929 . S
C1364 C1363 1.383 . S
C1364 C1365 1.377 . S
C1365 H1349 0.930 . S
C1365 C1364 1.377 . S
C1365 C1366 1.379 . S
C1366 H1350 0.931 . S
C1366 C1360 1.383 . S
C1366 C1365 1.379 . S
H1367 C1361 0.959 1_565 S
H1368 C1361 0.961 . S
H1369 C1361 0.960 1_565 S
H1370 C1362 0.930 . S
H1371 C1363 0.929 . S
H1372 C1380 0.929 . S
H1373 C1382 0.930 . S
H1374 C1384 0.930 . S
H1375 C1387 0.929 . S
H1376 C1390 0.930 . S
H1377 C1392 0.960 . S
H1378 C1392 0.960 . S
H1379 C1392 0.960 . S
C1380 H1372 0.929 . S
C1380 C1381 1.377 . S
C1380 C1382 1.384 . S
C1381 C1380 1.377 . S
C1381 C1387 1.390 . S
C1382 H1373 0.930 . S
C1382 C1380 1.384 . S
C1382 C1383 1.372 . S
C1383 C1382 1.372 . S
C1383 C1384 1.400 . S
C1383 C1388 1.490 . S
C1384 H1374 0.930 . S
C1384 C1383 1.400 . S
C1384 C1387 1.386 . S
H1385 C1401 0.930 . S
H1386 C1402 0.931 . S
C1387 H1375 0.929 . S
C1387 C1381 1.390 . S
C1387 C1384 1.386 . S
C1388 C1383 1.490 . S
C1388 C1390 1.395 . S
C1388 C1391 1.403 . S
H1389 C1395 0.930 . S
C1390 H1376 0.930 . S
C1390 C1388 1.395 . S
C1390 C1393 1.403 . S
C1391 C1388 1.403 . S
C1391 C1392 1.524 . S
C1391 C1395 1.400 . S
C1392 H1377 0.960 . S
C1392 H1378 0.960 . S
C1392 H1379 0.960 . S
C1392 C1391 1.524 . S
C1393 C1390 1.403 . S
C1393 C1394 1.392 . S
C1393 C1397 1.495 . S
C1394 C1393 1.392 . S
C1394 C1395 1.385 . S
C1394 C1396 1.478 . S
C1395 H1389 0.930 . S
C1395 C1391 1.400 . S
C1395 C1394 1.385 . S
C1396 C1394 1.478 . S
C1396 C1398 1.381 . S
C1396 C1402 1.383 . S
C1397 C1393 1.495 . S
C1397 H1403 0.959 . S
C1397 H1404 0.961 . S
C1397 H1405 0.960 . S
C1398 C1396 1.381 . S
C1398 C1399 1.394 . S
C1398 H1406 0.930 . S
C1399 C1398 1.394 . S
C1399 C1400 1.383 . S
C1399 H1407 0.929 . S
C1400 C1399 1.383 . S
C1400 C1401 1.377 . S
C1401 H1385 0.930 . S
C1401 C1400 1.377 . S
C1401 C1402 1.379 . S
C1402 H1386 0.931 . S
C1402 C1396 1.383 . S
C1402 C1401 1.379 . S
H1403 C1397 0.959 . S
H1404 C1397 0.961 . S
H1405 C1397 0.960 . S
H1406 C1398 0.930 . S
H1407 C1399 0.929 . S
H1408 C1416 0.929 . S
H1409 C1418 0.889 1_455 S
H1410 C1420 0.930 . S
H1411 C1423 0.929 . S
H1412 C1426 0.930 . S
H1413 C1428 0.960 . S
H1414 C1428 0.960 . S
H1415 C1428 0.960 . S
C1416 H1408 0.929 . S
C1416 C1417 1.377 . S
C1416 C1418 1.384 . S
C1417 C1416 1.377 . S
C1417 C1423 1.390 . S
C1418 H1409 0.889 1_655 S
C1418 C1416 1.384 . S
C1418 C1419 1.372 . S
C1419 C1418 1.372 . S
C1419 C1420 1.400 . S
C1419 C1424 1.490 . S
C1420 H1410 0.930 . S
C1420 C1419 1.400 . S
C1420 C1423 1.386 . S
H1421 C1437 0.930 . S
H1422 C1438 0.960 . S
C1423 H1411 0.929 . S
C1423 C1417 1.390 . S
C1423 C1420 1.386 . S
C1424 C1419 1.490 . S
C1424 C1426 1.395 1_655 S
C1424 C1427 1.403 . S
H1425 C1431 0.930 . S
C1426 H1412 0.930 . S
C1426 C1424 1.395 1_455 S
C1426 C1429 1.403 . S
C1427 C1424 1.403 . S
C1427 C1428 1.524 . S
C1427 C1431 1.400 . S
C1428 H1413 0.960 . S
C1428 H1414 0.960 . S
C1428 H1415 0.960 . S
C1428 C1427 1.524 . S
C1429 C1426 1.403 . S
C1429 C1430 1.392 . S
C1429 C1433 1.495 . S
C1430 C1429 1.392 . S
C1430 C1431 1.385 1_455 S
C1430 C1432 1.478 . S
C1431 H1425 0.930 . S
C1431 C1427 1.400 . S
C1431 C1430 1.385 1_655 S
C1432 C1430 1.478 . S
C1432 C1434 1.381 . S
C1432 C1438 1.383 . S
C1433 C1429 1.495 . S
C1433 H1439 0.959 . S
C1433 H1440 0.961 . S
C1433 H1441 0.960 . S
C1434 C1432 1.381 . S
C1434 C1435 1.394 . S
C1434 H1442 0.930 . S
C1435 C1434 1.394 . S
C1435 C1436 1.383 . S
C1435 H1443 0.929 . S
C1436 C1435 1.383 . S
C1436 C1437 1.377 . S
C1437 H1421 0.930 . S
C1437 C1436 1.377 . S
C1437 C1438 1.379 . S
C1438 H1422 0.960 . S
C1438 C1432 1.383 . S
C1438 C1437 1.379 . S
H1439 C1433 0.959 . S
H1440 C1433 0.961 . S
H1441 C1433 0.960 . S
H1442 C1434 0.930 . S
H1443 C1435 0.929 . S
H1444 C1452 0.929 . S
H1445 C1454 0.930 . S
H1446 C1456 0.930 . S
H1447 C1459 0.929 . S
H1448 C1462 0.930 . S
H1449 C1464 0.960 . S
H1450 C1464 0.960 . S
H1451 C1464 0.960 . S
C1452 H1444 0.929 . S
C1452 C1453 1.377 . S
C1452 C1454 1.384 . S
C1453 C1452 1.377 . S
C1453 C1459 1.390 . S
C1454 H1445 0.930 . S
C1454 C1452 1.384 . S
C1454 C1455 1.372 . S
C1455 C1454 1.372 . S
C1455 C1456 1.400 . S
C1455 C1460 1.490 . S
C1456 H1446 0.930 . S
C1456 C1455 1.400 . S
C1456 C1459 1.386 . S
H1457 C1473 0.930 . S
H1458 C1474 0.931 . S
C1459 H1447 0.929 . S
C1459 C1453 1.390 . S
C1459 C1456 1.386 . S
C1460 C1455 1.490 . S
C1460 C1462 1.395 . S
C1460 C1463 1.403 . S
H1461 C1467 0.930 . S
C1462 H1448 0.930 . S
C1462 C1460 1.395 . S
C1462 C1465 1.403 . S
C1463 C1460 1.403 . S
C1463 C1464 1.524 . S
C1463 C1467 1.400 . S
C1464 H1449 0.960 . S
C1464 H1450 0.960 . S
C1464 H1451 0.960 . S
C1464 C1463 1.524 . S
C1465 C1462 1.403 . S
C1465 C1466 1.392 . S
C1465 C1469 1.495 . S
C1466 C1465 1.392 . S
C1466 C1467 1.385 . S
C1466 C1468 1.478 . S
C1467 H1461 0.930 . S
C1467 C1463 1.400 . S
C1467 C1466 1.385 . S
C1468 C1466 1.478 . S
C1468 C1470 1.381 . S
C1468 C1474 1.383 . S
C1469 C1465 1.495 . S
C1469 H1475 0.959 . S
C1469 H1476 0.961 . S
C1469 H1477 0.960 . S
C1470 C1468 1.381 . S
C1470 C1471 1.394 . S
C1470 H1478 0.930 . S
C1471 C1470 1.394 . S
C1471 C1472 1.383 . S
C1471 H1479 0.929 . S
C1472 C1471 1.383 . S
C1472 C1473 1.377 . S
C1473 H1457 0.930 . S
C1473 C1472 1.377 . S
C1473 C1474 1.379 . S
C1474 H1458 0.931 . S
C1474 C1468 1.383 . S
C1474 C1473 1.379 . S
H1475 C1469 0.959 . S
H1476 C1469 0.961 . S
H1477 C1469 0.960 . S
H1478 C1470 0.930 . S
H1479 C1471 0.929 . S
H1480 C1488 0.929 . S
H1481 C1490 0.930 . S
H1482 C1492 0.930 . S
H1483 C1495 0.929 . S
H1484 C1498 0.930 . S
H1485 C1500 0.960 . S
H1486 C1500 0.960 . S
H1487 C1500 0.960 . S
C1488 H1480 0.929 . S
C1488 C1489 1.377 . S
C1488 C1490 1.384 . S
C1489 C1488 1.377 . S
C1489 C1495 1.390 . S
C1490 H1481 0.930 . S
C1490 C1488 1.384 . S
C1490 C1491 1.372 . S
C1491 C1490 1.372 . S
C1491 C1492 1.400 . S
C1491 C1496 1.490 . S
C1492 H1482 0.930 . S
C1492 C1491 1.400 . S
C1492 C1495 1.386 . S
H1493 C1509 0.930 . S
H1494 C1510 0.931 . S
C1495 H1483 0.929 . S
C1495 C1489 1.390 . S
C1495 C1492 1.386 . S
C1496 C1491 1.490 . S
C1496 C1498 1.395 . S
C1496 C1499 1.403 . S
H1497 C1503 0.930 . S
C1498 H1484 0.930 . S
C1498 C1496 1.395 . S
C1498 C1501 1.403 . S
C1499 C1496 1.403 . S
C1499 C1500 1.524 . S
C1499 C1503 1.400 . S
C1500 H1485 0.960 . S
C1500 H1486 0.960 . S
C1500 H1487 0.960 . S
C1500 C1499 1.524 . S
C1501 C1498 1.403 . S
C1501 C1502 1.392 . S
C1501 C1505 1.495 . S
C1502 C1501 1.392 . S
C1502 C1503 1.385 . S
C1502 C1504 1.478 . S
C1503 H1497 0.930 . S
C1503 C1499 1.400 . S
C1503 C1502 1.385 . S
C1504 C1502 1.478 . S
C1504 C1506 1.381 . S
C1504 C1510 1.383 . S
C1505 C1501 1.495 . S
C1505 H1511 0.959 . S
C1505 H1512 0.961 . S
C1505 H1513 0.960 . S
C1506 C1504 1.381 . S
C1506 C1507 1.394 . S
C1506 H1514 0.930 . S
C1507 C1506 1.394 . S
C1507 C1508 1.383 . S
C1507 H1515 0.929 . S
C1508 C1507 1.383 . S
C1508 C1509 1.377 . S
C1509 H1493 0.930 . S
C1509 C1508 1.377 . S
C1509 C1510 1.379 . S
C1510 H1494 0.931 . S
C1510 C1504 1.383 . S
C1510 C1509 1.379 . S
H1511 C1505 0.959 . S
H1512 C1505 0.961 . S
H1513 C1505 0.960 . S
H1514 C1506 0.930 . S
H1515 C1507 0.929 . S
H1516 C1524 0.929 . S
H1517 C1526 0.930 . S
H1518 C1528 0.930 . S
H1519 C1531 0.929 . S
H1520 C1534 0.930 . S
H1521 C1536 0.960 . S
H1522 C1536 0.960 . S
H1523 C1536 0.960 . S
C1524 H1516 0.929 . S
C1524 C1525 1.377 . S
C1524 C1526 1.384 . S
C1525 C1524 1.377 . S
C1525 C1531 1.390 . S
C1526 H1517 0.930 . S
C1526 C1524 1.384 . S
C1526 C1527 1.372 . S
C1527 C1526 1.372 . S
C1527 C1528 1.400 . S
C1527 C1532 1.490 . S
C1528 H1518 0.930 . S
C1528 C1527 1.400 . S
C1528 C1531 1.386 . S
H1529 C1545 0.930 . S
H1530 C1546 0.931 . S
C1531 H1519 0.929 . S
C1531 C1525 1.390 . S
C1531 C1528 1.386 . S
C1532 C1527 1.490 . S
C1532 C1534 1.395 . S
C1532 C1535 1.403 . S
H1533 C1539 0.930 . S
C1534 H1520 0.930 . S
C1534 C1532 1.395 . S
C1534 C1537 1.403 . S
C1535 C1532 1.403 . S
C1535 C1536 1.524 . S
C1535 C1539 1.400 . S
C1536 H1521 0.960 . S
C1536 H1522 0.960 . S
C1536 H1523 0.960 . S
C1536 C1535 1.524 . S
C1537 C1534 1.403 . S
C1537 C1538 1.392 . S
C1537 C1541 1.495 . S
C1538 C1537 1.392 . S
C1538 C1539 1.385 . S
C1538 C1540 1.478 . S
C1539 H1533 0.930 . S
C1539 C1535 1.400 . S
C1539 C1538 1.385 . S
C1540 C1538 1.478 . S
C1540 C1542 1.381 . S
C1540 C1546 1.383 . S
C1541 C1537 1.495 . S
C1541 H1547 0.959 . S
C1541 H1548 0.961 . S
C1541 H1549 0.960 . S
C1542 C1540 1.381 . S
C1542 C1543 1.394 . S
C1542 H1550 0.930 . S
C1543 C1542 1.394 . S
C1543 C1544 1.383 . S
C1543 H1551 0.929 . S
C1544 C1543 1.383 . S
C1544 C1545 1.377 . S
C1545 H1529 0.930 . S
C1545 C1544 1.377 . S
C1545 C1546 1.379 . S
C1546 H1530 0.931 . S
C1546 C1540 1.383 . S
C1546 C1545 1.379 . S
H1547 C1541 0.959 . S
H1548 C1541 0.961 . S
H1549 C1541 0.960 . S
H1550 C1542 0.930 . S
H1551 C1543 0.929 . S
H1552 C1560 0.934 1_556 S
H1553 C1562 0.930 1_556 S
H1554 C1564 0.930 . S
H1555 C1567 0.929 . S
H1556 C1570 0.930 . S
H1557 C1572 0.960 1_545 S
H1558 C1572 0.960 . S
H1559 C1572 0.960 . S
C1560 H1552 0.934 1_554 S
C1560 C1561 1.374 . S
C1560 C1562 1.382 . S
C1561 C1560 1.374 . S
C1561 C1567 1.390 . S
C1562 H1553 0.930 1_554 S
C1562 C1560 1.382 . S
C1562 C1563 1.372 . S
C1563 C1562 1.372 . S
C1563 C1564 1.400 . S
C1563 C1568 1.490 . S
C1564 H1554 0.930 . S
C1564 C1563 1.400 . S
C1564 C1567 1.386 . S
H1565 C1581 0.930 . S
H1566 C1582 0.940 1_545 S
C1567 H1555 0.929 . S
C1567 C1561 1.390 . S
C1567 C1564 1.386 . S
C1568 C1563 1.490 . S
C1568 C1570 1.395 . S
C1568 C1571 1.403 . S
H1569 C1575 0.930 1_545 S
C1570 H1556 0.930 . S
C1570 C1568 1.395 . S
C1570 C1573 1.403 . S
C1571 C1568 1.403 . S
C1571 C1572 1.524 . S
C1571 C1575 1.400 . S
C1572 H1557 0.960 1_565 S
C1572 H1558 0.960 . S
C1572 H1559 0.960 . S
C1572 C1571 1.524 . S
C1573 C1570 1.403 . S
C1573 C1574 1.392 . S
C1573 C1577 1.495 . S
C1574 C1573 1.392 . S
C1574 C1575 1.385 . S
C1574 C1576 1.478 . S
C1575 H1569 0.930 1_565 S
C1575 C1571 1.400 . S
C1575 C1574 1.385 . S
C1576 C1574 1.478 . S
C1576 C1578 1.381 . S
C1576 C1582 1.408 . S
C1577 C1573 1.495 . S
C1577 H1583 0.959 . S
C1577 H1584 0.961 . S
C1577 H1585 0.960 . S
C1578 C1576 1.381 . S
C1578 C1579 1.394 . S
C1578 H1586 0.930 . S
C1579 C1578 1.394 . S
C1579 C1580 1.383 1_565 S
C1579 H1587 0.929 . S
C1580 C1579 1.383 1_545 S
C1580 C1581 1.377 . S
C1581 H1565 0.930 . S
C1581 C1580 1.377 . S
C1581 C1582 1.347 1_545 S
C1582 H1566 0.940 1_565 S
C1582 C1576 1.408 . S
C1582 C1581 1.347 1_565 S
H1583 C1577 0.959 . S
H1584 C1577 0.961 . S
H1585 C1577 0.960 . S
H1586 C1578 0.930 . S
H1587 C1579 0.929 . S
H1588 C1596 0.929 . S
H1589 C1598 0.930 . S
H1590 C1600 0.930 . S
H1591 C1603 0.929 . S
H1592 C1606 0.930 . S
H1593 C1608 0.960 . S
H1594 C1608 0.960 . S
H1595 C1608 0.960 1_556 S
C1596 H1588 0.929 . S
C1596 C1597 1.377 . S
C1596 C1598 1.384 . S
C1597 C1596 1.377 . S
C1597 C1603 1.390 1_554 S
C1598 H1589 0.930 . S
C1598 C1596 1.384 . S
C1598 C1599 1.372 . S
C1599 C1598 1.372 . S
C1599 C1600 1.400 1_554 S
C1599 C1604 1.490 . S
C1600 H1590 0.930 . S
C1600 C1599 1.400 1_556 S
C1600 C1603 1.386 . S
H1601 C1617 0.930 . S
H1602 C1618 0.931 . S
C1603 H1591 0.929 . S
C1603 C1597 1.390 1_556 S
C1603 C1600 1.386 . S
C1604 C1599 1.490 . S
C1604 C1606 1.395 . S
C1604 C1607 1.403 . S
H1605 C1611 0.930 . S
C1606 H1592 0.930 . S
C1606 C1604 1.395 . S
C1606 C1609 1.403 . S
C1607 C1604 1.403 . S
C1607 C1608 1.524 . S
C1607 C1611 1.400 . S
C1608 H1593 0.960 . S
C1608 H1594 0.960 . S
C1608 H1595 0.960 1_554 S
C1608 C1607 1.524 . S
C1609 C1606 1.403 . S
C1609 C1610 1.392 . S
C1609 C1613 1.495 . S
C1610 C1609 1.392 . S
C1610 C1611 1.385 . S
C1610 C1612 1.478 . S
C1611 H1605 0.930 . S
C1611 C1607 1.400 . S
C1611 C1610 1.385 . S
C1612 C1610 1.478 . S
C1612 C1614 1.381 . S
C1612 C1618 1.383 1_554 S
C1613 C1609 1.495 . S
C1613 H1619 0.959 . S
C1613 H1620 0.961 . S
C1613 H1621 0.960 . S
C1614 C1612 1.381 . S
C1614 C1615 1.394 . S
C1614 H1622 0.930 . S
C1615 C1614 1.394 . S
C1615 C1616 1.383 . S
C1615 H1623 0.929 . S
C1616 C1615 1.383 . S
C1616 C1617 1.377 1_554 S
C1617 H1601 0.930 . S
C1617 C1616 1.377 1_556 S
C1617 C1618 1.379 . S
C1618 H1602 0.931 . S
C1618 C1612 1.383 1_556 S
C1618 C1617 1.379 . S
H1619 C1613 0.959 . S
H1620 C1613 0.961 . S
H1621 C1613 0.960 . S
H1622 C1614 0.930 . S
H1623 C1615 0.929 . S
H1624 C1632 0.929 . S
H1625 C1634 0.930 . S
H1626 C1636 0.930 . S
H1627 C1639 0.929 . S
H1628 C1642 0.930 . S
H1629 C1644 0.960 . S
H1630 C1644 0.960 . S
H1631 C1644 0.960 . S
C1632 H1624 0.929 . S
C1632 C1633 1.377 . S
C1632 C1634 1.384 . S
C1633 C1632 1.377 . S
C1633 C1639 1.390 . S
C1634 H1625 0.930 . S
C1634 C1632 1.384 . S
C1634 C1635 1.372 . S
C1635 C1634 1.372 . S
C1635 C1636 1.400 . S
C1635 C1640 1.490 . S
C1636 H1626 0.930 . S
C1636 C1635 1.400 . S
C1636 C1639 1.386 . S
H1637 C1653 0.930 . S
H1638 C1654 0.931 . S
C1639 H1627 0.929 . S
C1639 C1633 1.390 . S
C1639 C1636 1.386 . S
C1640 C1635 1.490 . S
C1640 C1642 1.395 . S
C1640 C1643 1.403 . S
H1641 C1647 0.930 . S
C1642 H1628 0.930 . S
C1642 C1640 1.395 . S
C1642 C1645 1.403 . S
C1643 C1640 1.403 . S
C1643 C1644 1.524 . S
C1643 C1647 1.400 . S
C1644 H1629 0.960 . S
C1644 H1630 0.960 . S
C1644 H1631 0.960 . S
C1644 C1643 1.524 . S
C1645 C1642 1.403 . S
C1645 C1646 1.392 . S
C1645 C1649 1.495 . S
C1646 C1645 1.392 . S
C1646 C1647 1.385 . S
C1646 C1648 1.478 . S
C1647 H1641 0.930 . S
C1647 C1643 1.400 . S
C1647 C1646 1.385 . S
C1648 C1646 1.478 . S
C1648 C1650 1.381 . S
C1648 C1654 1.383 . S
C1649 C1645 1.495 . S
C1649 H1655 0.959 . S
C1649 H1656 0.961 . S
C1649 H1657 0.960 . S
C1650 C1648 1.381 . S
C1650 C1651 1.394 . S
C1650 H1658 0.930 . S
C1651 C1650 1.394 . S
C1651 C1652 1.383 . S
C1651 H1659 0.929 . S
C1652 C1651 1.383 . S
C1652 C1653 1.377 . S
C1653 H1637 0.930 . S
C1653 C1652 1.377 . S
C1653 C1654 1.379 . S
C1654 H1638 0.931 . S
C1654 C1648 1.383 . S
C1654 C1653 1.379 . S
H1655 C1649 0.959 . S
H1656 C1649 0.961 . S
H1657 C1649 0.960 . S
H1658 C1650 0.930 . S
H1659 C1651 0.929 . S
H1660 C1668 0.929 . S
H1661 C1670 0.930 . S
H1662 C1672 0.930 . S
H1663 C1675 0.929 . S
H1664 C1678 0.930 . S
H1665 C1680 0.960 . S
H1666 C1680 0.960 . S
H1667 C1680 0.960 . S
C1668 H1660 0.929 . S
C1668 C1669 1.377 . S
C1668 C1670 1.384 . S
C1669 C1668 1.377 . S
C1669 C1675 1.390 . S
C1670 H1661 0.930 . S
C1670 C1668 1.384 . S
C1670 C1671 1.372 . S
C1671 C1670 1.372 . S
C1671 C1672 1.400 . S
C1671 C1676 1.490 . S
C1672 H1662 0.930 . S
C1672 C1671 1.400 . S
C1672 C1675 1.386 . S
H1673 C1689 0.956 . S
H1674 C1690 0.931 . S
C1675 H1663 0.929 . S
C1675 C1669 1.390 . S
C1675 C1672 1.386 . S
C1676 C1671 1.490 . S
C1676 C1678 1.395 . S
C1676 C1679 1.403 . S
H1677 C1683 0.930 . S
C1678 H1664 0.930 . S
C1678 C1676 1.395 . S
C1678 C1681 1.403 . S
C1679 C1676 1.403 . S
C1679 C1680 1.524 . S
C1679 C1683 1.400 . S
C1680 H1665 0.960 . S
C1680 H1666 0.960 . S
C1680 H1667 0.960 . S
C1680 C1679 1.524 . S
C1681 C1678 1.403 . S
C1681 C1682 1.392 . S
C1681 C1685 1.495 . S
C1682 C1681 1.392 . S
C1682 C1683 1.385 . S
C1682 C1684 1.478 . S
C1683 H1677 0.930 . S
C1683 C1679 1.400 . S
C1683 C1682 1.385 . S
C1684 C1682 1.478 . S
C1684 C1686 1.381 . S
C1684 C1690 1.383 . S
C1685 C1681 1.495 . S
C1685 H1691 0.959 . S
C1685 H1692 0.961 . S
C1685 H1693 0.960 . S
C1686 C1684 1.381 . S
C1686 C1687 1.394 . S
C1686 H1694 0.930 . S
C1687 C1686 1.394 . S
C1687 C1688 1.383 . S
C1687 H1695 0.929 . S
C1688 C1687 1.383 . S
C1688 C1689 1.377 . S
C1689 H1673 0.956 . S
C1689 C1688 1.377 . S
C1689 C1690 1.379 . S
C1690 H1674 0.931 . S
C1690 C1684 1.383 . S
C1690 C1689 1.379 . S
H1691 C1685 0.959 . S
H1692 C1685 0.961 . S
H1693 C1685 0.960 . S
H1694 C1686 0.930 . S
H1695 C1687 0.929 . S
H1696 C1704 0.929 . S
H1697 C1706 0.930 . S
H1698 C1708 0.930 . S
H1699 C1711 0.929 . S
H1700 C1714 0.930 . S
H1701 C1716 0.960 . S
H1702 C1716 0.960 . S
H1703 C1716 0.960 . S
C1704 H1696 0.929 . S
C1704 C1705 1.377 . S
C1704 C1706 1.384 . S
C1705 C1704 1.377 . S
C1705 C1711 1.390 . S
C1706 H1697 0.930 . S
C1706 C1704 1.384 . S
C1706 C1707 1.372 . S
C1707 C1706 1.372 . S
C1707 C1708 1.400 . S
C1707 C1712 1.490 . S
C1708 H1698 0.930 . S
C1708 C1707 1.400 . S
C1708 C1711 1.386 . S
H1709 C1725 0.930 . S
H1710 C1726 0.931 . S
C1711 H1699 0.929 . S
C1711 C1705 1.390 . S
C1711 C1708 1.386 . S
C1712 C1707 1.490 . S
C1712 C1714 1.395 . S
C1712 C1715 1.403 . S
H1713 C1719 0.930 . S
C1714 H1700 0.930 . S
C1714 C1712 1.395 . S
C1714 C1717 1.403 . S
C1715 C1712 1.403 . S
C1715 C1716 1.524 . S
C1715 C1719 1.400 . S
C1716 H1701 0.960 . S
C1716 H1702 0.960 . S
C1716 H1703 0.960 . S
C1716 C1715 1.524 . S
C1717 C1714 1.403 . S
C1717 C1718 1.392 . S
C1717 C1721 1.495 . S
C1718 C1717 1.392 . S
C1718 C1719 1.385 . S
C1718 C1720 1.478 . S
C1719 H1713 0.930 . S
C1719 C1715 1.400 . S
C1719 C1718 1.385 . S
C1720 C1718 1.478 . S
C1720 C1722 1.381 . S
C1720 C1726 1.383 . S
C1721 C1717 1.495 . S
C1721 H1727 0.959 . S
C1721 H1728 0.961 . S
C1721 H1729 0.960 . S
C1722 C1720 1.381 . S
C1722 C1723 1.394 . S
C1722 H1730 0.930 . S
C1723 C1722 1.394 . S
C1723 C1724 1.383 . S
C1723 H1731 0.929 . S
C1724 C1723 1.383 . S
C1724 C1725 1.377 . S
C1725 H1709 0.930 . S
C1725 C1724 1.377 . S
C1725 C1726 1.379 . S
C1726 H1710 0.931 . S
C1726 C1720 1.383 . S
C1726 C1725 1.379 . S
H1727 C1721 0.959 . S
H1728 C1721 0.961 . S
H1729 C1721 0.960 . S
H1730 C1722 0.930 . S
H1731 C1723 0.929 . S
H1732 C1740 0.929 . S
H1733 C1742 0.930 . S
H1734 C1744 0.930 . S
H1735 C1747 0.929 . S
H1736 C1750 0.930 . S
H1737 C1752 0.960 . S
H1738 C1752 0.960 . S
H1739 C1752 0.960 . S
C1740 H1732 0.929 . S
C1740 C1741 1.377 . S
C1740 C1742 1.384 . S
C1741 C1740 1.377 . S
C1741 C1747 1.390 . S
C1742 H1733 0.930 . S
C1742 C1740 1.384 . S
C1742 C1743 1.372 . S
C1743 C1742 1.372 . S
C1743 C1744 1.400 . S
C1743 C1748 1.490 . S
C1744 H1734 0.930 . S
C1744 C1743 1.400 . S
C1744 C1747 1.386 . S
H1745 C1761 0.930 . S
H1746 C1762 0.931 . S
C1747 H1735 0.929 . S
C1747 C1741 1.390 . S
C1747 C1744 1.386 . S
C1748 C1743 1.490 . S
C1748 C1750 1.395 . S
C1748 C1751 1.403 . S
H1749 C1755 0.930 . S
C1750 H1736 0.930 . S
C1750 C1748 1.395 . S
C1750 C1753 1.403 . S
C1751 C1748 1.403 . S
C1751 C1752 1.524 . S
C1751 C1755 1.400 . S
C1752 H1737 0.960 . S
C1752 H1738 0.960 . S
C1752 H1739 0.960 . S
C1752 C1751 1.524 . S
C1753 C1750 1.403 . S
C1753 C1754 1.392 . S
C1753 C1757 1.495 . S
C1754 C1753 1.392 . S
C1754 C1755 1.385 . S
C1754 C1756 1.478 . S
C1755 H1749 0.930 . S
C1755 C1751 1.400 . S
C1755 C1754 1.385 . S
C1756 C1754 1.478 . S
C1756 C1758 1.381 . S
C1756 C1762 1.383 . S
C1757 C1753 1.495 . S
C1757 H1763 0.959 . S
C1757 H1764 0.961 . S
C1757 H1765 0.960 . S
C1758 C1756 1.381 . S
C1758 C1759 1.394 . S
C1758 H1766 0.930 . S
C1759 C1758 1.394 . S
C1759 C1760 1.383 . S
C1759 H1767 0.929 . S
C1760 C1759 1.383 . S
C1760 C1761 1.377 . S
C1761 H1745 0.930 . S
C1761 C1760 1.377 . S
C1761 C1762 1.379 . S
C1762 H1746 0.931 . S
C1762 C1756 1.383 . S
C1762 C1761 1.379 . S
H1763 C1757 0.959 . S
H1764 C1757 0.961 . S
H1765 C1757 0.960 . S
H1766 C1758 0.930 . S
H1767 C1759 0.929 . S
H1768 C1776 0.929 . S
H1769 C1778 0.930 . S
H1770 C1780 0.930 . S
H1771 C1783 0.929 . S
H1772 C1786 0.930 . S
H1773 C1788 0.960 . S
H1774 C1788 0.960 . S
H1775 C1788 0.960 . S
C1776 H1768 0.929 . S
C1776 C1777 1.377 . S
C1776 C1778 1.384 . S
C1777 C1776 1.377 . S
C1777 C1783 1.390 . S
C1778 H1769 0.930 . S
C1778 C1776 1.384 . S
C1778 C1779 1.372 . S
C1779 C1778 1.372 . S
C1779 C1780 1.400 . S
C1779 C1784 1.490 . S
C1780 H1770 0.930 . S
C1780 C1779 1.400 . S
C1780 C1783 1.386 . S
H1781 C1797 0.930 . S
H1782 C1798 0.931 . S
C1783 H1771 0.929 . S
C1783 C1777 1.390 . S
C1783 C1780 1.386 . S
C1784 C1779 1.490 . S
C1784 C1786 1.395 . S
C1784 C1787 1.403 . S
H1785 C1791 0.930 . S
C1786 H1772 0.930 . S
C1786 C1784 1.395 . S
C1786 C1789 1.403 . S
C1787 C1784 1.403 . S
C1787 C1788 1.524 . S
C1787 C1791 1.400 . S
C1788 H1773 0.960 . S
C1788 H1774 0.960 . S
C1788 H1775 0.960 . S
C1788 C1787 1.524 . S
C1789 C1786 1.403 . S
C1789 C1790 1.392 . S
C1789 C1793 1.495 . S
C1790 C1789 1.392 . S
C1790 C1791 1.385 . S
C1790 C1792 1.478 . S
C1791 H1785 0.930 . S
C1791 C1787 1.400 . S
C1791 C1790 1.385 . S
C1792 C1790 1.478 . S
C1792 C1794 1.381 . S
C1792 C1798 1.383 . S
C1793 C1789 1.495 . S
C1793 H1799 0.959 . S
C1793 H1800 0.961 . S
C1793 H1801 0.960 . S
C1794 C1792 1.381 . S
C1794 C1795 1.394 . S
C1794 H1802 0.930 . S
C1795 C1794 1.394 . S
C1795 C1796 1.383 . S
C1795 H1803 0.929 . S
C1796 C1795 1.383 . S
C1796 C1797 1.377 . S
C1797 H1781 0.930 . S
C1797 C1796 1.377 . S
C1797 C1798 1.379 . S
C1798 H1782 0.931 . S
C1798 C1792 1.383 . S
C1798 C1797 1.379 . S
H1799 C1793 0.959 . S
H1800 C1793 0.961 . S
H1801 C1793 0.960 . S
H1802 C1794 0.930 . S
H1803 C1795 0.929 . S
H1804 C1812 0.929 . S
H1805 C1814 0.930 . S
H1806 C1816 0.930 . S
H1807 C1819 0.929 . S
H1808 C1822 0.930 . S
H1809 C1824 0.960 . S
H1810 C1824 0.960 . S
H1811 C1824 0.960 . S
C1812 H1804 0.929 . S
C1812 C1813 1.377 . S
C1812 C1814 1.384 . S
C1813 C1812 1.377 . S
C1813 C1819 1.390 . S
C1814 H1805 0.930 . S
C1814 C1812 1.384 . S
C1814 C1815 1.372 . S
C1815 C1814 1.372 . S
C1815 C1816 1.400 . S
C1815 C1820 1.490 . S
C1816 H1806 0.930 . S
C1816 C1815 1.400 . S
C1816 C1819 1.386 . S
H1817 C1833 0.930 . S
H1818 C1834 0.931 . S
C1819 H1807 0.929 . S
C1819 C1813 1.390 . S
C1819 C1816 1.386 . S
C1820 C1815 1.490 . S
C1820 C1822 1.395 . S
C1820 C1823 1.403 . S
H1821 C1827 0.930 . S
C1822 H1808 0.930 . S
C1822 C1820 1.395 . S
C1822 C1825 1.403 . S
C1823 C1820 1.403 . S
C1823 C1824 1.524 . S
C1823 C1827 1.400 . S
C1824 H1809 0.960 . S
C1824 H1810 0.960 . S
C1824 H1811 0.960 . S
C1824 C1823 1.524 . S
C1825 C1822 1.403 . S
C1825 C1826 1.392 . S
C1825 C1829 1.495 . S
C1826 C1825 1.392 . S
C1826 C1827 1.385 . S
C1826 C1828 1.478 . S
C1827 H1821 0.930 . S
C1827 C1823 1.400 . S
C1827 C1826 1.385 . S
C1828 C1826 1.478 . S
C1828 C1830 1.381 . S
C1828 C1834 1.383 . S
C1829 C1825 1.495 . S
C1829 H1835 0.959 . S
C1829 H1836 0.961 . S
C1829 H1837 0.960 . S
C1830 C1828 1.381 . S
C1830 C1831 1.394 . S
C1830 H1838 0.930 . S
C1831 C1830 1.394 . S
C1831 C1832 1.383 . S
C1831 H1839 0.929 . S
C1832 C1831 1.383 . S
C1832 C1833 1.377 . S
C1833 H1817 0.930 . S
C1833 C1832 1.377 . S
C1833 C1834 1.379 . S
C1834 H1818 0.931 . S
C1834 C1828 1.383 . S
C1834 C1833 1.379 . S
H1835 C1829 0.959 . S
H1836 C1829 0.961 . S
H1837 C1829 0.960 . S
H1838 C1830 0.930 . S
H1839 C1831 0.929 . S
H1840 C1848 0.929 . S
H1841 C1850 0.930 . S
H1842 C1852 0.930 . S
H1843 C1855 0.929 . S
H1844 C1858 0.930 . S
H1845 C1860 0.960 . S
H1846 C1860 0.960 . S
H1847 C1860 0.960 . S
C1848 H1840 0.929 . S
C1848 C1849 1.377 . S
C1848 C1850 1.384 . S
C1849 C1848 1.377 . S
C1849 C1855 1.390 . S
C1850 H1841 0.930 . S
C1850 C1848 1.384 . S
C1850 C1851 1.372 . S
C1851 C1850 1.372 . S
C1851 C1852 1.400 . S
C1851 C1856 1.490 . S
C1852 H1842 0.930 . S
C1852 C1851 1.400 . S
C1852 C1855 1.386 . S
H1853 C1869 0.930 . S
H1854 C1870 0.931 . S
C1855 H1843 0.929 . S
C1855 C1849 1.390 . S
C1855 C1852 1.386 . S
C1856 C1851 1.490 . S
C1856 C1858 1.395 . S
C1856 C1859 1.403 . S
H1857 C1863 0.930 . S
C1858 H1844 0.930 . S
C1858 C1856 1.395 . S
C1858 C1861 1.403 . S
C1859 C1856 1.403 . S
C1859 C1860 1.524 . S
C1859 C1863 1.400 . S
C1860 H1845 0.960 . S
C1860 H1846 0.960 . S
C1860 H1847 0.960 . S
C1860 C1859 1.524 . S
C1861 C1858 1.403 . S
C1861 C1862 1.392 . S
C1861 C1865 1.495 . S
C1862 C1861 1.392 . S
C1862 C1863 1.385 . S
C1862 C1864 1.478 . S
C1863 H1857 0.930 . S
C1863 C1859 1.400 . S
C1863 C1862 1.385 . S
C1864 C1862 1.478 . S
C1864 C1866 1.381 . S
C1864 C1870 1.383 . S
C1865 C1861 1.495 . S
C1865 H1871 0.959 . S
C1865 H1872 0.961 . S
C1865 H1873 0.960 . S
C1866 C1864 1.381 . S
C1866 C1867 1.394 . S
C1866 H1874 0.930 . S
C1867 C1866 1.394 . S
C1867 C1868 1.383 . S
C1867 H1875 0.929 . S
C1868 C1867 1.383 . S
C1868 C1869 1.377 . S
C1869 H1853 0.930 . S
C1869 C1868 1.377 . S
C1869 C1870 1.379 . S
C1870 H1854 0.931 . S
C1870 C1864 1.383 . S
C1870 C1869 1.379 . S
H1871 C1865 0.959 . S
H1872 C1865 0.961 . S
H1873 C1865 0.960 . S
H1874 C1866 0.930 . S
H1875 C1867 0.929 . S
H1876 C1884 0.929 . S
H1877 C1886 0.930 . S
H1878 C1888 0.930 . S
H1879 C1891 0.929 . S
H1880 C1894 0.930 . S
H1881 C1896 0.960 . S
H1882 C1896 0.960 . S
H1883 C1896 0.960 . S
C1884 H1876 0.929 . S
C1884 C1885 1.377 . S
C1884 C1886 1.384 . S
C1885 C1884 1.377 . S
C1885 C1891 1.390 . S
C1886 H1877 0.930 . S
C1886 C1884 1.384 . S
C1886 C1887 1.372 . S
C1887 C1886 1.372 . S
C1887 C1888 1.400 . S
C1887 C1892 1.490 . S
C1888 H1878 0.930 . S
C1888 C1887 1.400 . S
C1888 C1891 1.386 . S
H1889 C1905 0.930 . S
H1890 C1906 0.931 . S
C1891 H1879 0.929 . S
C1891 C1885 1.390 . S
C1891 C1888 1.386 . S
C1892 C1887 1.490 . S
C1892 C1894 1.395 . S
C1892 C1895 1.403 . S
H1893 C1899 0.930 . S
C1894 H1880 0.930 . S
C1894 C1892 1.395 . S
C1894 C1897 1.403 . S
C1895 C1892 1.403 . S
C1895 C1896 1.524 . S
C1895 C1899 1.400 . S
C1896 H1881 0.960 . S
C1896 H1882 0.960 . S
C1896 H1883 0.960 . S
C1896 C1895 1.524 . S
C1897 C1894 1.403 . S
C1897 C1898 1.392 . S
C1897 C1901 1.495 . S
C1898 C1897 1.392 . S
C1898 C1899 1.385 . S
C1898 C1900 1.478 . S
C1899 H1893 0.930 . S
C1899 C1895 1.400 . S
C1899 C1898 1.385 . S
C1900 C1898 1.478 . S
C1900 C1902 1.381 . S
C1900 C1906 1.383 . S
C1901 C1897 1.495 . S
C1901 H1907 0.959 . S
C1901 H1908 0.961 . S
C1901 H1909 0.960 . S
C1902 C1900 1.381 . S
C1902 C1903 1.394 . S
C1902 H1910 0.930 . S
C1903 C1902 1.394 . S
C1903 C1904 1.383 . S
C1903 H1911 0.929 . S
C1904 C1903 1.383 . S
C1904 C1905 1.377 . S
C1905 H1889 0.930 . S
C1905 C1904 1.377 . S
C1905 C1906 1.379 . S
C1906 H1890 0.931 . S
C1906 C1900 1.383 . S
C1906 C1905 1.379 . S
H1907 C1901 0.959 . S
H1908 C1901 0.961 . S
H1909 C1901 0.960 . S
H1910 C1902 0.930 . S
H1911 C1903 0.929 . S
H1912 C1920 0.929 . S
H1913 C1922 0.930 . S
H1914 C1924 0.930 . S
H1915 C1927 0.929 . S
H1916 C1930 0.930 . S
H1917 C1932 0.960 . S
H1918 C1932 0.960 . S
H1919 C1932 0.960 . S
C1920 H1912 0.929 . S
C1920 C1921 1.377 . S
C1920 C1922 1.384 . S
C1921 C1920 1.377 . S
C1921 C1927 1.390 . S
C1922 H1913 0.930 . S
C1922 C1920 1.384 . S
C1922 C1923 1.372 . S
C1923 C1922 1.372 . S
C1923 C1924 1.400 . S
C1923 C1928 1.490 . S
C1924 H1914 0.930 . S
C1924 C1923 1.400 . S
C1924 C1927 1.386 . S
H1925 C1941 0.930 . S
H1926 C1942 0.931 . S
C1927 H1915 0.929 . S
C1927 C1921 1.390 . S
C1927 C1924 1.386 . S
C1928 C1923 1.490 . S
C1928 C1930 1.395 . S
C1928 C1931 1.403 . S
H1929 C1935 0.930 . S
C1930 H1916 0.930 . S
C1930 C1928 1.395 . S
C1930 C1933 1.403 . S
C1931 C1928 1.403 . S
C1931 C1932 1.524 . S
C1931 C1935 1.400 . S
C1932 H1917 0.960 . S
C1932 H1918 0.960 . S
C1932 H1919 0.960 . S
C1932 C1931 1.524 . S
C1933 C1930 1.403 . S
C1933 C1934 1.392 . S
C1933 C1937 1.495 . S
C1934 C1933 1.392 . S
C1934 C1935 1.385 . S
C1934 C1936 1.478 . S
C1935 H1929 0.930 . S
C1935 C1931 1.400 . S
C1935 C1934 1.385 . S
C1936 C1934 1.478 . S
C1936 C1938 1.381 . S
C1936 C1942 1.383 . S
C1937 C1933 1.495 . S
C1937 H1943 0.959 . S
C1937 H1944 0.961 . S
C1937 H1945 0.960 . S
C1938 C1936 1.381 . S
C1938 C1939 1.394 . S
C1938 H1946 0.930 . S
C1939 C1938 1.394 . S
C1939 C1940 1.383 . S
C1939 H1947 0.929 . S
C1940 C1939 1.383 . S
C1940 C1941 1.377 . S
C1941 H1925 0.930 . S
C1941 C1940 1.377 . S
C1941 C1942 1.379 . S
C1942 H1926 0.931 . S
C1942 C1936 1.383 . S
C1942 C1941 1.379 . S
H1943 C1937 0.959 . S
H1944 C1937 0.961 . S
H1945 C1937 0.960 . S
H1946 C1938 0.930 . S
H1947 C1939 0.929 . S
H1948 C1956 0.929 . S
H1949 C1958 0.930 . S
H1950 C1960 0.930 . S
H1951 C1963 0.929 . S
H1952 C1966 0.930 . S
H1953 C1968 0.960 . S
H1954 C1968 0.960 . S
H1955 C1968 0.960 . S
C1956 H1948 0.929 . S
C1956 C1957 1.377 . S
C1956 C1958 1.384 . S
C1957 C1956 1.377 . S
C1957 C1963 1.390 . S
C1958 H1949 0.930 . S
C1958 C1956 1.384 . S
C1958 C1959 1.372 . S
C1959 C1958 1.372 . S
C1959 C1960 1.400 . S
C1959 C1964 1.490 . S
C1960 H1950 0.930 . S
C1960 C1959 1.400 . S
C1960 C1963 1.386 . S
H1961 C1977 0.930 . S
H1962 C1978 0.931 . S
C1963 H1951 0.929 . S
C1963 C1957 1.390 . S
C1963 C1960 1.386 . S
C1964 C1959 1.490 . S
C1964 C1966 1.395 . S
C1964 C1967 1.403 . S
H1965 C1971 0.930 . S
C1966 H1952 0.930 . S
C1966 C1964 1.395 . S
C1966 C1969 1.403 . S
C1967 C1964 1.403 . S
C1967 C1968 1.524 . S
C1967 C1971 1.400 . S
C1968 H1953 0.960 . S
C1968 H1954 0.960 . S
C1968 H1955 0.960 . S
C1968 C1967 1.524 . S
C1969 C1966 1.403 . S
C1969 C1970 1.392 . S
C1969 C1973 1.495 . S
C1970 C1969 1.392 . S
C1970 C1971 1.385 . S
C1970 C1972 1.478 . S
C1971 H1965 0.930 . S
C1971 C1967 1.400 . S
C1971 C1970 1.385 . S
C1972 C1970 1.478 . S
C1972 C1974 1.381 . S
C1972 C1978 1.383 . S
C1973 C1969 1.495 . S
C1973 H1979 0.959 . S
C1973 H1980 0.961 . S
C1973 H1981 0.960 . S
C1974 C1972 1.381 . S
C1974 C1975 1.394 . S
C1974 H1982 0.930 . S
C1975 C1974 1.394 . S
C1975 C1976 1.383 . S
C1975 H1983 0.929 . S
C1976 C1975 1.383 . S
C1976 C1977 1.377 . S
C1977 H1961 0.930 . S
C1977 C1976 1.377 . S
C1977 C1978 1.379 . S
C1978 H1962 0.931 . S
C1978 C1972 1.383 . S
C1978 C1977 1.379 . S
H1979 C1973 0.959 . S
H1980 C1973 0.961 . S
H1981 C1973 0.960 . S
H1982 C1974 0.930 . S
H1983 C1975 0.929 . S
H1984 C1992 0.929 . S
H1985 C1994 0.930 . S
H1986 C1996 0.930 . S
H1987 C1999 0.929 . S
H1988 C2002 0.930 . S
H1989 C2004 0.960 . S
H1990 C2004 0.960 . S
H1991 C2004 0.960 . S
C1992 H1984 0.929 . S
C1992 C1993 1.377 . S
C1992 C1994 1.384 . S
C1993 C1992 1.377 . S
C1993 C1999 1.390 . S
C1994 H1985 0.930 . S
C1994 C1992 1.384 . S
C1994 C1995 1.372 . S
C1995 C1994 1.372 . S
C1995 C1996 1.400 . S
C1995 C2000 1.490 . S
C1996 H1986 0.930 . S
C1996 C1995 1.400 . S
C1996 C1999 1.386 . S
H1997 C2013 0.930 . S
H1998 C2014 0.931 . S
C1999 H1987 0.929 . S
C1999 C1993 1.390 . S
C1999 C1996 1.386 . S
C2000 C1995 1.490 . S
C2000 C2002 1.395 . S
C2000 C2003 1.403 . S
H2001 C2007 0.930 . S
C2002 H1988 0.930 . S
C2002 C2000 1.395 . S
C2002 C2005 1.403 . S
C2003 C2000 1.403 . S
C2003 C2004 1.524 . S
C2003 C2007 1.400 . S
C2004 H1989 0.960 . S
C2004 H1990 0.960 . S
C2004 H1991 0.960 . S
C2004 C2003 1.524 . S
C2005 C2002 1.403 . S
C2005 C2006 1.392 . S
C2005 C2009 1.495 . S
C2006 C2005 1.392 . S
C2006 C2007 1.385 . S
C2006 C2008 1.478 . S
C2007 H2001 0.930 . S
C2007 C2003 1.400 . S
C2007 C2006 1.385 . S
C2008 C2006 1.478 . S
C2008 C2010 1.381 . S
C2008 C2014 1.383 . S
C2009 C2005 1.495 . S
C2009 H2015 0.959 . S
C2009 H2016 0.961 . S
C2009 H2017 0.960 . S
C2010 C2008 1.381 . S
C2010 C2011 1.394 . S
C2010 H2018 0.930 . S
C2011 C2010 1.394 . S
C2011 C2012 1.383 . S
C2011 H2019 0.929 . S
C2012 C2011 1.383 . S
C2012 C2013 1.377 . S
C2013 H1997 0.930 . S
C2013 C2012 1.377 . S
C2013 C2014 1.379 . S
C2014 H1998 0.931 . S
C2014 C2008 1.383 . S
C2014 C2013 1.379 . S
H2015 C2009 0.959 . S
H2016 C2009 0.961 . S
H2017 C2009 0.960 . S
H2018 C2010 0.930 . S
H2019 C2011 0.929 . S
H2020 C2028 0.929 . S
H2021 C2030 0.930 . S
H2022 C2032 0.930 . S
H2023 C2035 0.929 . S
H2024 C2038 0.930 . S
H2025 C2040 0.960 . S
H2026 C2040 0.960 . S
H2027 C2040 0.960 . S
C2028 H2020 0.929 . S
C2028 C2029 1.377 . S
C2028 C2030 1.384 . S
C2029 C2028 1.377 . S
C2029 C2035 1.390 . S
C2030 H2021 0.930 . S
C2030 C2028 1.384 . S
C2030 C2031 1.372 . S
C2031 C2030 1.372 . S
C2031 C2032 1.400 . S
C2031 C2036 1.490 . S
C2032 H2022 0.930 . S
C2032 C2031 1.400 . S
C2032 C2035 1.386 . S
H2033 C2049 0.930 . S
H2034 C2050 0.931 . S
C2035 H2023 0.929 . S
C2035 C2029 1.390 . S
C2035 C2032 1.386 . S
C2036 C2031 1.490 . S
C2036 C2038 1.395 . S
C2036 C2039 1.403 . S
H2037 C2043 0.930 . S
C2038 H2024 0.930 . S
C2038 C2036 1.395 . S
C2038 C2041 1.403 . S
C2039 C2036 1.403 . S
C2039 C2040 1.524 . S
C2039 C2043 1.400 . S
C2040 H2025 0.960 . S
C2040 H2026 0.960 . S
C2040 H2027 0.960 . S
C2040 C2039 1.524 . S
C2041 C2038 1.403 . S
C2041 C2042 1.392 . S
C2041 C2045 1.495 . S
C2042 C2041 1.392 . S
C2042 C2043 1.385 . S
C2042 C2044 1.478 . S
C2043 H2037 0.930 . S
C2043 C2039 1.400 . S
C2043 C2042 1.385 . S
C2044 C2042 1.478 . S
C2044 C2046 1.381 . S
C2044 C2050 1.383 . S
C2045 C2041 1.495 . S
C2045 H2051 0.959 . S
C2045 H2052 0.961 . S
C2045 H2053 0.960 . S
C2046 C2044 1.381 . S
C2046 C2047 1.394 . S
C2046 H2054 0.930 . S
C2047 C2046 1.394 . S
C2047 C2048 1.383 . S
C2047 H2055 0.929 . S
C2048 C2047 1.383 . S
C2048 C2049 1.377 . S
C2049 H2033 0.930 . S
C2049 C2048 1.377 . S
C2049 C2050 1.379 . S
C2050 H2034 0.931 . S
C2050 C2044 1.383 . S
C2050 C2049 1.379 . S
H2051 C2045 0.959 . S
H2052 C2045 0.961 . S
H2053 C2045 0.960 . S
H2054 C2046 0.930 . S
H2055 C2047 0.929 . S
H2056 C2064 0.929 . S
H2057 C2066 0.930 . S
H2058 C2068 0.930 . S
H2059 C2071 0.929 . S
H2060 C2074 0.930 . S
H2061 C2076 0.960 . S
H2062 C2076 0.960 . S
H2063 C2076 0.960 . S
C2064 H2056 0.929 . S
C2064 C2065 1.377 . S
C2064 C2066 1.384 . S
C2065 C2064 1.377 . S
C2065 C2071 1.390 . S
C2066 H2057 0.930 . S
C2066 C2064 1.384 . S
C2066 C2067 1.372 . S
C2067 C2066 1.372 . S
C2067 C2068 1.400 . S
C2067 C2072 1.490 . S
C2068 H2058 0.930 . S
C2068 C2067 1.400 . S
C2068 C2071 1.386 . S
H2069 C2085 0.930 . S
H2070 C2086 0.931 . S
C2071 H2059 0.929 . S
C2071 C2065 1.390 . S
C2071 C2068 1.386 . S
C2072 C2067 1.490 . S
C2072 C2074 1.395 . S
C2072 C2075 1.403 . S
H2073 C2079 0.930 . S
C2074 H2060 0.930 . S
C2074 C2072 1.395 . S
C2074 C2077 1.403 . S
C2075 C2072 1.403 . S
C2075 C2076 1.524 . S
C2075 C2079 1.400 . S
C2076 H2061 0.960 . S
C2076 H2062 0.960 . S
C2076 H2063 0.960 . S
C2076 C2075 1.524 . S
C2077 C2074 1.403 . S
C2077 C2078 1.392 . S
C2077 C2081 1.495 . S
C2078 C2077 1.392 . S
C2078 C2079 1.385 . S
C2078 C2080 1.478 . S
C2079 H2073 0.930 . S
C2079 C2075 1.400 . S
C2079 C2078 1.385 . S
C2080 C2078 1.478 . S
C2080 C2082 1.381 . S
C2080 C2086 1.383 . S
C2081 C2077 1.495 . S
C2081 H2087 0.959 . S
C2081 H2088 0.961 . S
C2081 H2089 0.960 . S
C2082 C2080 1.381 . S
C2082 C2083 1.394 . S
C2082 H2090 0.930 . S
C2083 C2082 1.394 . S
C2083 C2084 1.383 . S
C2083 H2091 0.929 1_565 S
C2084 C2083 1.383 . S
C2084 C2085 1.377 . S
C2085 H2069 0.930 . S
C2085 C2084 1.377 . S
C2085 C2086 1.379 . S
C2086 H2070 0.931 . S
C2086 C2080 1.383 . S
C2086 C2085 1.379 . S
H2087 C2081 0.959 . S
H2088 C2081 0.961 . S
H2089 C2081 0.960 . S
H2090 C2082 0.930 . S
H2091 C2083 0.929 1_545 S
H2092 C2100 0.929 . S
H2093 C2102 0.930 . S
H2094 C2104 0.930 . S
H2095 C2107 0.929 . S
H2096 C2110 0.930 . S
H2097 C2112 0.960 . S
H2098 C2112 0.960 . S
H2099 C2112 0.960 . S
C2100 H2092 0.929 . S
C2100 C2101 1.377 . S
C2100 C2102 1.384 . S
C2101 C2100 1.377 . S
C2101 C2107 1.390 . S
C2102 H2093 0.930 . S
C2102 C2100 1.384 . S
C2102 C2103 1.372 . S
C2103 C2102 1.372 . S
C2103 C2104 1.400 . S
C2103 C2108 1.490 . S
C2104 H2094 0.930 . S
C2104 C2103 1.400 . S
C2104 C2107 1.386 . S
H2105 C2121 0.930 . S
H2106 C2122 0.931 . S
C2107 H2095 0.929 . S
C2107 C2101 1.390 . S
C2107 C2104 1.386 . S
C2108 C2103 1.490 . S
C2108 C2110 1.395 . S
C2108 C2111 1.403 . S
H2109 C2115 0.930 . S
C2110 H2096 0.930 . S
C2110 C2108 1.395 . S
C2110 C2113 1.403 . S
C2111 C2108 1.403 . S
C2111 C2112 1.524 . S
C2111 C2115 1.400 . S
C2112 H2097 0.960 . S
C2112 H2098 0.960 . S
C2112 H2099 0.960 . S
C2112 C2111 1.524 . S
C2113 C2110 1.403 . S
C2113 C2114 1.392 . S
C2113 C2117 1.495 . S
C2114 C2113 1.392 . S
C2114 C2115 1.385 . S
C2114 C2116 1.478 . S
C2115 H2109 0.930 . S
C2115 C2111 1.400 . S
C2115 C2114 1.385 . S
C2116 C2114 1.478 . S
C2116 C2118 1.381 . S
C2116 C2122 1.383 . S
C2117 C2113 1.495 . S
C2117 H2123 0.959 . S
C2117 H2124 0.961 . S
C2117 H2125 0.960 . S
C2118 C2116 1.381 . S
C2118 C2119 1.394 . S
C2118 H2126 0.930 . S
C2119 C2118 1.394 . S
C2119 C2120 1.383 . S
C2119 H2127 0.929 . S
C2120 C2119 1.383 . S
C2120 C2121 1.377 . S
C2121 H2105 0.930 . S
C2121 C2120 1.377 . S
C2121 C2122 1.379 . S
C2122 H2106 0.931 . S
C2122 C2116 1.383 . S
C2122 C2121 1.379 . S
H2123 C2117 0.959 . S
H2124 C2117 0.961 . S
H2125 C2117 0.960 . S
H2126 C2118 0.930 . S
H2127 C2119 0.929 . S
H2128 C2136 0.929 . S
H2129 C2138 0.930 . S
H2130 C2140 0.930 . S
H2131 C2143 0.929 . S
H2132 C2146 0.930 1_565 S
H2133 C2148 0.960 . S
H2134 C2148 0.960 . S
H2135 C2148 0.960 . S
C2136 H2128 0.929 . S
C2136 C2137 1.377 1_565 S
C2136 C2138 1.384 . S
C2137 C2136 1.377 1_545 S
C2137 C2143 1.390 . S
C2138 H2129 0.930 . S
C2138 C2136 1.384 . S
C2138 C2139 1.372 1_565 S
C2139 C2138 1.372 1_545 S
C2139 C2140 1.400 . S
C2139 C2144 1.490 . S
C2140 H2130 0.930 . S
C2140 C2139 1.400 . S
C2140 C2143 1.386 . S
H2141 C2157 0.930 . S
H2142 C2158 0.931 . S
C2143 H2131 0.929 . S
C2143 C2137 1.390 . S
C2143 C2140 1.386 . S
C2144 C2139 1.490 . S
C2144 C2146 1.395 . S
C2144 C2147 1.403 . S
H2145 C2151 0.930 . S
C2146 H2132 0.930 1_545 S
C2146 C2144 1.395 . S
C2146 C2149 1.403 . S
C2147 C2144 1.403 . S
C2147 C2148 1.524 . S
C2147 C2151 1.400 . S
C2148 H2133 0.960 . S
C2148 H2134 0.960 . S
C2148 H2135 0.960 . S
C2148 C2147 1.524 . S
C2149 C2146 1.403 . S
C2149 C2150 1.392 . S
C2149 C2153 1.495 1_545 S
C2150 C2149 1.392 . S
C2150 C2151 1.385 . S
C2150 C2152 1.478 . S
C2151 H2145 0.930 . S
C2151 C2147 1.400 . S
C2151 C2150 1.385 . S
C2152 C2150 1.478 . S
C2152 C2154 1.381 . S
C2152 C2158 1.383 . S
C2153 C2149 1.495 1_565 S
C2153 H2159 0.959 . S
C2153 H2160 0.961 1_565 S
C2153 H2161 0.960 . S
C2154 C2152 1.381 . S
C2154 C2155 1.394 . S
C2154 H2162 0.930 1_545 S
C2155 C2154 1.394 . S
C2155 C2156 1.383 . S
C2155 H2163 0.929 1_545 S
C2156 C2155 1.383 . S
C2156 C2157 1.377 . S
C2157 H2141 0.930 . S
C2157 C2156 1.377 . S
C2157 C2158 1.379 . S
C2158 H2142 0.931 . S
C2158 C2152 1.383 . S
C2158 C2157 1.379 . S
H2159 C2153 0.959 . S
H2160 C2153 0.961 1_545 S
H2161 C2153 0.960 . S
H2162 C2154 0.930 1_565 S
H2163 C2155 0.929 1_565 S
H2164 C2172 0.929 . S
H2165 C2174 0.930 . S
H2166 C2176 0.930 . S
H2167 C2179 0.929 . S
H2168 C2182 0.930 . S
H2169 C2184 0.960 . S
H2170 C2184 0.960 . S
H2171 C2184 0.960 . S
C2172 H2164 0.929 . S
C2172 C2173 1.377 . S
C2172 C2174 1.384 . S
C2173 C2172 1.377 . S
C2173 C2179 1.390 . S
C2174 H2165 0.930 . S
C2174 C2172 1.384 . S
C2174 C2175 1.372 . S
C2175 C2174 1.372 . S
C2175 C2176 1.400 . S
C2175 C2180 1.490 . S
C2176 H2166 0.930 . S
C2176 C2175 1.400 . S
C2176 C2179 1.386 . S
H2177 C2193 0.930 . S
H2178 C2194 0.931 . S
C2179 H2167 0.929 . S
C2179 C2173 1.390 . S
C2179 C2176 1.386 . S
C2180 C2175 1.490 . S
C2180 C2182 1.395 . S
C2180 C2183 1.403 . S
H2181 C2187 0.930 . S
C2182 H2168 0.930 . S
C2182 C2180 1.395 . S
C2182 C2185 1.403 . S
C2183 C2180 1.403 . S
C2183 C2184 1.524 . S
C2183 C2187 1.400 . S
C2184 H2169 0.960 . S
C2184 H2170 0.960 . S
C2184 H2171 0.960 . S
C2184 C2183 1.524 . S
C2185 C2182 1.403 . S
C2185 C2186 1.392 . S
C2185 C2189 1.495 . S
C2186 C2185 1.392 . S
C2186 C2187 1.385 . S
C2186 C2188 1.478 . S
C2187 H2181 0.930 . S
C2187 C2183 1.400 . S
C2187 C2186 1.385 . S
C2188 C2186 1.478 . S
C2188 C2190 1.381 . S
C2188 C2194 1.383 . S
C2189 C2185 1.495 . S
C2189 H2195 0.959 . S
C2189 H2196 0.961 . S
C2189 H2197 0.960 . S
C2190 C2188 1.381 . S
C2190 C2191 1.394 . S
C2190 H2198 0.930 . S
C2191 C2190 1.394 . S
C2191 C2192 1.383 . S
C2191 H2199 0.929 . S
C2192 C2191 1.383 . S
C2192 C2193 1.377 . S
C2193 H2177 0.930 . S
C2193 C2192 1.377 . S
C2193 C2194 1.379 . S
C2194 H2178 0.931 . S
C2194 C2188 1.383 . S
C2194 C2193 1.379 . S
H2195 C2189 0.959 . S
H2196 C2189 0.961 . S
H2197 C2189 0.960 . S
H2198 C2190 0.930 . S
H2199 C2191 0.929 . S
H2200 C2208 0.929 . S
H2201 C2210 0.930 . S
H2202 C2212 0.930 . S
H2203 C2215 0.929 . S
H2204 C2218 0.930 . S
H2205 C2220 0.960 . S
H2206 C2220 0.960 . S
H2207 C2220 0.960 . S
C2208 H2200 0.929 . S
C2208 C2209 1.377 . S
C2208 C2210 1.384 . S
C2209 C2208 1.377 . S
C2209 C2215 1.390 . S
C2210 H2201 0.930 . S
C2210 C2208 1.384 . S
C2210 C2211 1.372 . S
C2211 C2210 1.372 . S
C2211 C2212 1.400 . S
C2211 C2216 1.490 . S
C2212 H2202 0.930 . S
C2212 C2211 1.400 . S
C2212 C2215 1.386 . S
H2213 C2229 0.930 . S
H2214 C2230 0.931 . S
C2215 H2203 0.929 . S
C2215 C2209 1.390 . S
C2215 C2212 1.386 . S
C2216 C2211 1.490 . S
C2216 C2218 1.395 . S
C2216 C2219 1.403 . S
H2217 C2223 0.930 . S
C2218 H2204 0.930 . S
C2218 C2216 1.395 . S
C2218 C2221 1.403 . S
C2219 C2216 1.403 . S
C2219 C2220 1.524 . S
C2219 C2223 1.400 . S
C2220 H2205 0.960 . S
C2220 H2206 0.960 . S
C2220 H2207 0.960 . S
C2220 C2219 1.524 . S
C2221 C2218 1.403 . S
C2221 C2222 1.392 . S
C2221 C2225 1.495 . S
C2222 C2221 1.392 . S
C2222 C2223 1.385 . S
C2222 C2224 1.478 . S
C2223 H2217 0.930 . S
C2223 C2219 1.400 . S
C2223 C2222 1.385 . S
C2224 C2222 1.478 . S
C2224 C2226 1.381 . S
C2224 C2230 1.383 . S
C2225 C2221 1.495 . S
C2225 H2231 0.959 . S
C2225 H2232 0.961 . S
C2225 H2233 0.960 . S
C2226 C2224 1.381 . S
C2226 C2227 1.394 . S
C2226 H2234 0.930 . S
C2227 C2226 1.394 . S
C2227 C2228 1.383 . S
C2227 H2235 0.929 . S
C2228 C2227 1.383 . S
C2228 C2229 1.377 . S
C2229 H2213 0.930 . S
C2229 C2228 1.377 . S
C2229 C2230 1.379 . S
C2230 H2214 0.931 . S
C2230 C2224 1.383 . S
C2230 C2229 1.379 . S
H2231 C2225 0.959 . S
H2232 C2225 0.961 . S
H2233 C2225 0.960 . S
H2234 C2226 0.930 . S
H2235 C2227 0.929 . S
H2236 C2244 0.929 . S
H2237 C2246 0.930 . S
H2238 C2248 0.930 . S
H2239 C2251 0.929 . S
H2240 C2254 0.930 . S
H2241 C2256 0.960 . S
H2242 C2256 0.960 . S
H2243 C2256 0.960 . S
C2244 H2236 0.929 . S
C2244 C2245 1.377 . S
C2244 C2246 1.384 . S
C2245 C2244 1.377 . S
C2245 C2251 1.390 . S
C2246 H2237 0.930 . S
C2246 C2244 1.384 . S
C2246 C2247 1.372 . S
C2247 C2246 1.372 . S
C2247 C2248 1.400 . S
C2247 C2252 1.490 . S
C2248 H2238 0.930 . S
C2248 C2247 1.400 . S
C2248 C2251 1.386 . S
H2249 C2265 0.930 . S
H2250 C2266 0.931 . S
C2251 H2239 0.929 . S
C2251 C2245 1.390 . S
C2251 C2248 1.386 . S
C2252 C2247 1.490 . S
C2252 C2254 1.395 . S
C2252 C2255 1.403 . S
H2253 C2259 0.930 . S
C2254 H2240 0.930 . S
C2254 C2252 1.395 . S
C2254 C2257 1.403 . S
C2255 C2252 1.403 . S
C2255 C2256 1.524 . S
C2255 C2259 1.400 . S
C2256 H2241 0.960 . S
C2256 H2242 0.960 . S
C2256 H2243 0.960 . S
C2256 C2255 1.524 . S
C2257 C2254 1.403 . S
C2257 C2258 1.392 . S
C2257 C2261 1.495 . S
C2258 C2257 1.392 . S
C2258 C2259 1.385 . S
C2258 C2260 1.478 . S
C2259 H2253 0.930 . S
C2259 C2255 1.400 . S
C2259 C2258 1.385 . S
C2260 C2258 1.478 . S
C2260 C2262 1.381 . S
C2260 C2266 1.383 . S
C2261 C2257 1.495 . S
C2261 H2267 0.959 . S
C2261 H2268 0.961 . S
C2261 H2269 0.960 . S
C2262 C2260 1.381 . S
C2262 C2263 1.394 . S
C2262 H2270 0.930 . S
C2263 C2262 1.394 . S
C2263 C2264 1.383 . S
C2263 H2271 0.929 . S
C2264 C2263 1.383 . S
C2264 C2265 1.377 . S
C2265 H2249 0.930 . S
C2265 C2264 1.377 . S
C2265 C2266 1.379 . S
C2266 H2250 0.931 . S
C2266 C2260 1.383 . S
C2266 C2265 1.379 . S
H2267 C2261 0.959 . S
H2268 C2261 0.961 . S
H2269 C2261 0.960 . S
H2270 C2262 0.930 . S
H2271 C2263 0.929 . S
H2272 C2280 0.957 . S
H2273 C2282 0.930 . S
H2274 C2284 0.930 . S
H2275 C2287 0.929 . S
H2276 C2290 0.930 . S
H2277 C2292 0.960 . S
H2278 C2292 0.960 . S
H2279 C2292 0.960 . S
C2280 H2272 0.957 . S
C2280 C2281 1.377 . S
C2280 C2282 1.384 . S
C2281 C2280 1.377 . S
C2281 C2287 1.390 . S
C2282 H2273 0.930 . S
C2282 C2280 1.384 . S
C2282 C2283 1.372 . S
C2283 C2282 1.372 . S
C2283 C2284 1.400 . S
C2283 C2288 1.490 . S
C2284 H2274 0.930 . S
C2284 C2283 1.400 . S
C2284 C2287 1.386 . S
H2285 C2301 0.930 . S
H2286 C2302 0.931 . S
C2287 H2275 0.929 . S
C2287 C2281 1.390 . S
C2287 C2284 1.386 . S
C2288 C2283 1.490 . S
C2288 C2290 1.395 1_545 S
C2288 C2291 1.403 . S
H2289 C2295 0.930 . S
C2290 H2276 0.930 . S
C2290 C2288 1.395 1_565 S
C2290 C2293 1.426 . S
C2291 C2288 1.403 . S
C2291 C2292 1.524 . S
C2291 C2295 1.400 . S
C2292 H2277 0.960 . S
C2292 H2278 0.960 . S
C2292 H2279 0.960 . S
C2292 C2291 1.524 . S
C2293 C2290 1.426 . S
C2293 C2294 1.336 1_565 S
C2293 C2297 1.531 . S
C2294 C2293 1.336 1_545 S
C2294 C2295 1.385 . S
C2294 C2296 1.478 . S
C2295 H2289 0.930 . S
C2295 C2291 1.400 . S
C2295 C2294 1.385 . S
C2296 C2294 1.478 . S
C2296 C2298 1.381 . S
C2296 C2302 1.383 . S
C2297 C2293 1.531 . S
C2297 H2303 0.959 . S
C2297 H2304 0.961 . S
C2297 H2305 0.960 . S
C2298 C2296 1.381 . S
C2298 C2299 1.394 . S
C2298 H2306 0.930 . S
C2299 C2298 1.394 . S
C2299 C2300 1.383 . S
C2299 H2307 0.929 . S
C2300 C2299 1.383 . S
C2300 C2301 1.377 . S
C2301 H2285 0.930 . S
C2301 C2300 1.377 . S
C2301 C2302 1.379 . S
C2302 H2286 0.931 . S
C2302 C2296 1.383 . S
C2302 C2301 1.379 . S
H2303 C2297 0.959 . S
H2304 C2297 0.961 . S
H2305 C2297 0.960 . S
H2306 C2298 0.930 . S
H2307 C2299 0.929 . S
H2308 C2316 0.929 . S
H2309 C2318 0.930 . S
H2310 C2320 0.930 . S
H2311 C2323 0.929 . S
H2312 C2326 0.930 . S
H2313 C2328 0.960 . S
H2314 C2328 0.960 . S
H2315 C2328 0.960 . S
C2316 H2308 0.929 . S
C2316 C2317 1.377 . S
C2316 C2318 1.384 . S
C2317 C2316 1.377 . S
C2317 C2323 1.390 . S
C2318 H2309 0.930 . S
C2318 C2316 1.384 . S
C2318 C2319 1.372 . S
C2319 C2318 1.372 . S
C2319 C2320 1.400 . S
C2319 C2324 1.490 . S
C2320 H2310 0.930 . S
C2320 C2319 1.400 . S
C2320 C2323 1.386 . S
H2321 C2337 0.930 . S
H2322 C2338 0.931 . S
C2323 H2311 0.929 . S
C2323 C2317 1.390 . S
C2323 C2320 1.386 . S
C2324 C2319 1.490 . S
C2324 C2326 1.395 . S
C2324 C2327 1.403 . S
H2325 C2331 0.930 . S
C2326 H2312 0.930 . S
C2326 C2324 1.395 . S
C2326 C2329 1.403 . S
C2327 C2324 1.403 . S
C2327 C2328 1.524 . S
C2327 C2331 1.400 . S
C2328 H2313 0.960 . S
C2328 H2314 0.960 . S
C2328 H2315 0.960 . S
C2328 C2327 1.524 . S
C2329 C2326 1.403 . S
C2329 C2330 1.392 . S
C2329 C2333 1.495 . S
C2330 C2329 1.392 . S
C2330 C2331 1.385 . S
C2330 C2332 1.478 . S
C2331 H2325 0.930 . S
C2331 C2327 1.400 . S
C2331 C2330 1.385 . S
C2332 C2330 1.478 . S
C2332 C2334 1.381 . S
C2332 C2338 1.383 . S
C2333 C2329 1.495 . S
C2333 H2339 0.959 . S
C2333 H2340 0.961 . S
C2333 H2341 0.960 . S
C2334 C2332 1.381 . S
C2334 C2335 1.394 . S
C2334 H2342 0.930 . S
C2335 C2334 1.394 . S
C2335 C2336 1.383 . S
C2335 H2343 0.929 . S
C2336 C2335 1.383 . S
C2336 C2337 1.377 . S
C2337 H2321 0.930 . S
C2337 C2336 1.377 . S
C2337 C2338 1.379 . S
C2338 H2322 0.931 . S
C2338 C2332 1.383 . S
C2338 C2337 1.379 . S
H2339 C2333 0.959 . S
H2340 C2333 0.961 . S
H2341 C2333 0.960 . S
H2342 C2334 0.930 . S
H2343 C2335 0.929 . S
H2344 C2352 0.929 . S
H2345 C2354 0.930 . S
H2346 C2356 0.930 . S
H2347 C2359 0.929 . S
H2348 C2362 0.971 . S
H2349 C2364 0.960 . S
H2350 C2364 0.960 . S
H2351 C2364 0.960 . S
C2352 H2344 0.929 . S
C2352 C2353 1.377 . S
C2352 C2354 1.384 . S
C2353 C2352 1.377 . S
C2353 C2359 1.390 . S
C2354 H2345 0.930 . S
C2354 C2352 1.384 . S
C2354 C2355 1.372 . S
C2355 C2354 1.372 . S
C2355 C2356 1.400 . S
C2355 C2360 1.490 . S
C2356 H2346 0.930 . S
C2356 C2355 1.400 . S
C2356 C2359 1.386 . S
H2357 C2373 0.930 . S
H2358 C2374 0.931 . S
C2359 H2347 0.929 . S
C2359 C2353 1.390 . S
C2359 C2356 1.386 . S
C2360 C2355 1.490 . S
C2360 C2362 1.346 1_545 S
C2360 C2363 1.403 . S
H2361 C2367 0.930 . S
C2362 H2348 0.971 . S
C2362 C2360 1.346 1_565 S
C2362 C2365 1.415 . S
C2363 C2360 1.403 . S
C2363 C2364 1.524 . S
C2363 C2367 1.400 . S
C2364 H2349 0.960 . S
C2364 H2350 0.960 . S
C2364 H2351 0.960 . S
C2364 C2363 1.524 . S
C2365 C2362 1.415 . S
C2365 C2366 1.392 1_565 S
C2365 C2369 1.495 . S
C2366 C2365 1.392 1_545 S
C2366 C2367 1.385 . S
C2366 C2368 1.478 . S
C2367 H2361 0.930 . S
C2367 C2363 1.400 . S
C2367 C2366 1.385 . S
C2368 C2366 1.478 . S
C2368 C2370 1.381 . S
C2368 C2374 1.383 1_545 S
C2369 C2365 1.495 . S
C2369 H2375 0.959 . S
C2369 H2376 0.961 . S
C2369 H2377 0.960 . S
C2370 C2368 1.381 . S
C2370 C2371 1.394 . S
C2370 H2378 0.930 . S
C2371 C2370 1.394 . S
C2371 C2372 1.383 1_545 S
C2371 H2379 0.929 . S
C2372 C2371 1.383 1_565 S
C2372 C2373 1.377 . S
C2373 H2357 0.930 . S
C2373 C2372 1.377 . S
C2373 C2374 1.379 . S
C2374 H2358 0.931 . S
C2374 C2368 1.383 1_565 S
C2374 C2373 1.379 . S
H2375 C2369 0.959 . S
H2376 C2369 0.961 . S
H2377 C2369 0.960 . S
H2378 C2370 0.930 . S
H2379 C2371 0.929 . S
H2380 C2388 0.929 . S
H2381 C2390 0.930 . S
H2382 C2392 0.930 . S
H2383 C2395 0.929 . S
H2384 C2398 0.930 . S
H2385 C2400 0.960 . S
H2386 C2400 0.960 . S
H2387 C2400 0.960 . S
C2388 H2380 0.929 . S
C2388 C2389 1.377 . S
C2388 C2390 1.384 . S
C2389 C2388 1.377 . S
C2389 C2395 1.390 . S
C2390 H2381 0.930 . S
C2390 C2388 1.384 . S
C2390 C2391 1.372 . S
C2391 C2390 1.372 . S
C2391 C2392 1.400 . S
C2391 C2396 1.490 . S
C2392 H2382 0.930 . S
C2392 C2391 1.400 . S
C2392 C2395 1.386 . S
H2393 C2409 0.930 . S
H2394 C2410 0.931 . S
C2395 H2383 0.929 . S
C2395 C2389 1.390 . S
C2395 C2392 1.386 . S
C2396 C2391 1.490 . S
C2396 C2398 1.395 . S
C2396 C2399 1.403 . S
H2397 C2403 0.930 . S
C2398 H2384 0.930 . S
C2398 C2396 1.395 . S
C2398 C2401 1.403 . S
C2399 C2396 1.403 . S
C2399 C2400 1.524 . S
C2399 C2403 1.400 . S
C2400 H2385 0.960 . S
C2400 H2386 0.960 . S
C2400 H2387 0.960 . S
C2400 C2399 1.524 . S
C2401 C2398 1.403 . S
C2401 C2402 1.392 . S
C2401 C2405 1.495 . S
C2402 C2401 1.392 . S
C2402 C2403 1.385 . S
C2402 C2404 1.478 . S
C2403 H2397 0.930 . S
C2403 C2399 1.400 . S
C2403 C2402 1.385 . S
C2404 C2402 1.478 . S
C2404 C2406 1.381 . S
C2404 C2410 1.383 . S
C2405 C2401 1.495 . S
C2405 H2411 0.959 . S
C2405 H2412 0.961 . S
C2405 H2413 0.960 . S
C2406 C2404 1.381 . S
C2406 C2407 1.394 . S
C2406 H2414 0.930 . S
C2407 C2406 1.394 . S
C2407 C2408 1.383 . S
C2407 H2415 0.929 . S
C2408 C2407 1.383 . S
C2408 C2409 1.377 . S
C2409 H2393 0.930 . S
C2409 C2408 1.377 . S
C2409 C2410 1.379 . S
C2410 H2394 0.931 . S
C2410 C2404 1.383 . S
C2410 C2409 1.379 . S
H2411 C2405 0.959 . S
H2412 C2405 0.961 . S
H2413 C2405 0.960 . S
H2414 C2406 0.930 . S
H2415 C2407 0.929 . S
H2416 C2424 0.929 . S
H2417 C2426 0.930 . S
H2418 C2428 0.930 . S
H2419 C2431 0.929 . S
H2420 C2434 0.930 . S
H2421 C2436 0.960 . S
H2422 C2436 0.994 . S
H2423 C2436 0.960 . S
C2424 H2416 0.929 . S
C2424 C2425 1.377 . S
C2424 C2426 1.384 . S
C2425 C2424 1.377 . S
C2425 C2431 1.390 1_554 S
C2426 H2417 0.930 . S
C2426 C2424 1.384 . S
C2426 C2427 1.372 . S
C2427 C2426 1.372 . S
C2427 C2428 1.400 1_554 S
C2427 C2432 1.490 . S
C2428 H2418 0.930 . S
C2428 C2427 1.400 1_556 S
C2428 C2431 1.386 . S
H2429 C2445 0.930 . S
H2430 C2446 0.931 . S
C2431 H2419 0.929 . S
C2431 C2425 1.390 1_556 S
C2431 C2428 1.386 . S
C2432 C2427 1.490 . S
C2432 C2434 1.395 . S
C2432 C2435 1.403 1_554 S
H2433 C2439 0.930 . S
C2434 H2420 0.930 . S
C2434 C2432 1.395 . S
C2434 C2437 1.403 . S
C2435 C2432 1.403 1_556 S
C2435 C2436 1.524 . S
C2435 C2439 1.400 . S
C2436 H2421 0.960 . S
C2436 H2422 0.994 . S
C2436 H2423 0.960 . S
C2436 C2435 1.524 . S
C2437 C2434 1.403 . S
C2437 C2438 1.398 . S
C2437 C2441 1.495 . S
C2438 C2437 1.398 . S
C2438 C2439 1.381 1_554 S
C2438 C2440 1.476 1_554 S
C2439 H2433 0.930 . S
C2439 C2435 1.400 . S
C2439 C2438 1.381 1_556 S
C2440 C2438 1.476 1_556 S
C2440 C2442 1.381 1_556 S
C2440 C2446 1.383 . S
C2441 C2437 1.495 . S
C2441 H2447 0.959 . S
C2441 H2448 0.961 . S
C2441 H2449 0.960 . S
C2442 C2440 1.381 1_554 S
C2442 C2443 1.394 . S
C2442 H2450 0.930 . S
C2443 C2442 1.394 . S
C2443 C2444 1.383 1_554 S
C2443 H2451 0.929 . S
C2444 C2443 1.383 1_556 S
C2444 C2445 1.377 . S
C2445 H2429 0.930 . S
C2445 C2444 1.377 . S
C2445 C2446 1.379 . S
C2446 H2430 0.931 . S
C2446 C2440 1.383 . S
C2446 C2445 1.379 . S
H2447 C2441 0.959 . S
H2448 C2441 0.961 . S
H2449 C2441 0.960 . S
H2450 C2442 0.930 . S
H2451 C2443 0.929 . S
H2452 C2460 0.928 . S
H2453 C2462 0.930 1_556 S
H2454 C2464 0.930 . S
H2455 C2467 0.929 . S
H2456 C2470 0.930 . S
H2457 C2472 0.960 . S
H2458 C2472 0.960 . S
H2459 C2472 0.960 . S
C2460 H2452 0.928 . S
C2460 C2461 1.377 . S
C2460 C2462 1.384 . S
C2461 C2460 1.377 . S
C2461 C2467 1.390 . S
C2462 H2453 0.930 1_554 S
C2462 C2460 1.384 . S
C2462 C2463 1.372 . S
C2463 C2462 1.372 . S
C2463 C2464 1.400 . S
C2463 C2468 1.490 . S
C2464 H2454 0.930 . S
C2464 C2463 1.400 . S
C2464 C2467 1.386 . S
H2465 C2481 0.930 . S
H2466 C2482 0.931 . S
C2467 H2455 0.929 . S
C2467 C2461 1.390 . S
C2467 C2464 1.386 . S
C2468 C2463 1.490 . S
C2468 C2470 1.395 . S
C2468 C2471 1.403 . S
H2469 C2475 0.930 . S
C2470 H2456 0.930 . S
C2470 C2468 1.395 . S
C2470 C2473 1.403 . S
C2471 C2468 1.403 . S
C2471 C2472 1.524 . S
C2471 C2475 1.400 . S
C2472 H2457 0.960 . S
C2472 H2458 0.960 . S
C2472 H2459 0.960 . S
C2472 C2471 1.524 . S
C2473 C2470 1.403 . S
C2473 C2474 1.392 . S
C2473 C2477 1.495 1_554 S
C2474 C2473 1.392 . S
C2474 C2475 1.385 . S
C2474 C2476 1.478 . S
C2475 H2469 0.930 . S
C2475 C2471 1.400 . S
C2475 C2474 1.385 . S
C2476 C2474 1.478 . S
C2476 C2478 1.381 . S
C2476 C2482 1.383 . S
C2477 C2473 1.495 1_556 S
C2477 H2483 0.959 . S
C2477 H2484 0.961 1_556 S
C2477 H2485 0.960 . S
C2478 C2476 1.381 . S
C2478 C2479 1.394 . S
C2478 H2486 0.930 1_554 S
C2479 C2478 1.394 . S
C2479 C2480 1.383 . S
C2479 H2487 0.929 1_554 S
C2480 C2479 1.383 . S
C2480 C2481 1.377 . S
C2481 H2465 0.930 . S
C2481 C2480 1.377 . S
C2481 C2482 1.379 . S
C2482 H2466 0.931 . S
C2482 C2476 1.383 . S
C2482 C2481 1.379 . S
H2483 C2477 0.959 . S
H2484 C2477 0.961 1_554 S
H2485 C2477 0.960 . S
H2486 C2478 0.930 1_556 S
H2487 C2479 0.929 1_556 S
H2488 C2496 0.929 . S
H2489 C2498 0.930 . S
H2490 C2500 0.930 . S
H2491 C2503 0.929 . S
H2492 C2506 0.930 . S
H2493 C2508 0.960 . S
H2494 C2508 0.960 . S
H2495 C2508 0.960 . S
C2496 H2488 0.929 . S
C2496 C2497 1.377 . S
C2496 C2498 1.384 . S
C2497 C2496 1.377 . S
C2497 C2503 1.390 . S
C2498 H2489 0.930 . S
C2498 C2496 1.384 . S
C2498 C2499 1.372 . S
C2499 C2498 1.372 . S
C2499 C2500 1.400 . S
C2499 C2504 1.490 . S
C2500 H2490 0.930 . S
C2500 C2499 1.400 . S
C2500 C2503 1.386 . S
H2501 C2517 0.930 . S
H2502 C2518 0.931 . S
C2503 H2491 0.929 . S
C2503 C2497 1.390 . S
C2503 C2500 1.386 . S
C2504 C2499 1.490 . S
C2504 C2506 1.395 . S
C2504 C2507 1.403 . S
H2505 C2511 0.930 . S
C2506 H2492 0.930 . S
C2506 C2504 1.395 . S
C2506 C2509 1.403 . S
C2507 C2504 1.403 . S
C2507 C2508 1.524 . S
C2507 C2511 1.400 . S
C2508 H2493 0.960 . S
C2508 H2494 0.960 . S
C2508 H2495 0.960 . S
C2508 C2507 1.524 . S
C2509 C2506 1.403 . S
C2509 C2510 1.392 . S
C2509 C2513 1.495 . S
C2510 C2509 1.392 . S
C2510 C2511 1.385 . S
C2510 C2512 1.478 . S
C2511 H2505 0.930 . S
C2511 C2507 1.400 . S
C2511 C2510 1.385 . S
C2512 C2510 1.478 . S
C2512 C2514 1.381 . S
C2512 C2518 1.383 . S
C2513 C2509 1.495 . S
C2513 H2519 0.959 . S
C2513 H2520 0.961 . S
C2513 H2521 0.960 . S
C2514 C2512 1.381 . S
C2514 C2515 1.394 . S
C2514 H2522 0.930 . S
C2515 C2514 1.394 . S
C2515 C2516 1.383 . S
C2515 H2523 0.929 . S
C2516 C2515 1.383 . S
C2516 C2517 1.377 . S
C2517 H2501 0.930 . S
C2517 C2516 1.377 . S
C2517 C2518 1.379 . S
C2518 H2502 0.931 . S
C2518 C2512 1.383 . S
C2518 C2517 1.379 . S
H2519 C2513 0.959 . S
H2520 C2513 0.961 . S
H2521 C2513 0.960 . S
H2522 C2514 0.930 . S
H2523 C2515 0.929 . S
H2524 C2532 0.929 . S
H2525 C2534 0.930 . S
H2526 C2536 0.930 . S
H2527 C2539 0.929 . S
H2528 C2542 0.930 . S
H2529 C2544 0.960 . S
H2530 C2544 0.960 . S
H2531 C2544 0.960 . S
C2532 H2524 0.929 . S
C2532 C2533 1.377 . S
C2532 C2534 1.384 . S
C2533 C2532 1.377 . S
C2533 C2539 1.390 . S
C2534 H2525 0.930 . S
C2534 C2532 1.384 . S
C2534 C2535 1.372 . S
C2535 C2534 1.372 . S
C2535 C2536 1.400 . S
C2535 C2540 1.490 . S
C2536 H2526 0.930 . S
C2536 C2535 1.400 . S
C2536 C2539 1.386 . S
H2537 C2553 0.930 . S
H2538 C2554 0.931 . S
C2539 H2527 0.929 . S
C2539 C2533 1.390 . S
C2539 C2536 1.386 . S
C2540 C2535 1.490 . S
C2540 C2542 1.395 . S
C2540 C2543 1.403 . S
H2541 C2547 0.930 . S
C2542 H2528 0.930 . S
C2542 C2540 1.395 . S
C2542 C2545 1.403 . S
C2543 C2540 1.403 . S
C2543 C2544 1.524 . S
C2543 C2547 1.400 . S
C2544 H2529 0.960 . S
C2544 H2530 0.960 . S
C2544 H2531 0.960 . S
C2544 C2543 1.524 . S
C2545 C2542 1.403 . S
C2545 C2546 1.392 . S
C2545 C2549 1.495 . S
C2546 C2545 1.392 . S
C2546 C2547 1.385 . S
C2546 C2548 1.478 . S
C2547 H2541 0.930 . S
C2547 C2543 1.400 . S
C2547 C2546 1.385 . S
C2548 C2546 1.478 . S
C2548 C2550 1.381 . S
C2548 C2554 1.383 . S
C2549 C2545 1.495 . S
C2549 H2555 0.959 . S
C2549 H2556 0.961 . S
C2549 H2557 0.960 . S
C2550 C2548 1.381 . S
C2550 C2551 1.394 . S
C2550 H2558 0.930 . S
C2551 C2550 1.394 . S
C2551 C2552 1.383 . S
C2551 H2559 0.929 . S
C2552 C2551 1.383 . S
C2552 C2553 1.377 . S
C2553 H2537 0.930 . S
C2553 C2552 1.377 . S
C2553 C2554 1.379 . S
C2554 H2538 0.931 . S
C2554 C2548 1.383 . S
C2554 C2553 1.379 . S
H2555 C2549 0.959 . S
H2556 C2549 0.961 . S
H2557 C2549 0.960 . S
H2558 C2550 0.930 . S
H2559 C2551 0.929 . S
H2560 C2568 0.929 . S
H2561 C2570 0.930 . S
H2562 C2572 0.930 . S
H2563 C2575 0.967 . S
H2564 C2578 0.930 . S
H2565 C2580 0.960 . S
H2566 C2580 0.960 . S
H2567 C2580 0.960 . S
C2568 H2560 0.929 . S
C2568 C2569 1.377 1_565 S
C2568 C2570 1.384 . S
C2569 C2568 1.377 1_545 S
C2569 C2575 1.415 . S
C2570 H2561 0.930 . S
C2570 C2568 1.384 . S
C2570 C2571 1.372 . S
C2571 C2570 1.372 . S
C2571 C2572 1.400 . S
C2571 C2576 1.490 . S
C2572 H2562 0.930 . S
C2572 C2571 1.400 . S
C2572 C2575 1.326 1_565 S
H2573 C2589 0.930 . S
H2574 C2590 0.931 . S
C2575 H2563 0.967 . S
C2575 C2569 1.415 . S
C2575 C2572 1.326 1_545 S
C2576 C2571 1.490 . S
C2576 C2578 1.395 . S
C2576 C2579 1.403 . S
H2577 C2583 0.930 . S
C2578 H2564 0.930 . S
C2578 C2576 1.395 . S
C2578 C2581 1.403 . S
C2579 C2576 1.403 . S
C2579 C2580 1.524 . S
C2579 C2583 1.400 . S
C2580 H2565 0.960 . S
C2580 H2566 0.960 . S
C2580 H2567 0.960 . S
C2580 C2579 1.524 . S
C2581 C2578 1.403 . S
C2581 C2582 1.392 . S
C2581 C2585 1.495 . S
C2582 C2581 1.392 . S
C2582 C2583 1.385 . S
C2582 C2584 1.478 . S
C2583 H2577 0.930 . S
C2583 C2579 1.400 . S
C2583 C2582 1.385 . S
C2584 C2582 1.478 . S
C2584 C2586 1.381 . S
C2584 C2590 1.383 . S
C2585 C2581 1.495 . S
C2585 H2591 0.959 . S
C2585 H2592 0.961 . S
C2585 H2593 0.960 . S
C2586 C2584 1.381 . S
C2586 C2587 1.394 . S
C2586 H2594 0.930 . S
C2587 C2586 1.394 . S
C2587 C2588 1.383 . S
C2587 H2595 0.929 . S
C2588 C2587 1.383 . S
C2588 C2589 1.377 . S
C2589 H2573 0.930 . S
C2589 C2588 1.377 . S
C2589 C2590 1.379 . S
C2590 H2574 0.931 . S
C2590 C2584 1.383 . S
C2590 C2589 1.379 . S
H2591 C2585 0.959 . S
H2592 C2585 0.961 . S
H2593 C2585 0.960 . S
H2594 C2586 0.930 . S
H2595 C2587 0.929 . S
H2596 C2604 0.929 . S
H2597 C2606 0.930 . S
H2598 C2608 0.930 . S
H2599 C2611 0.929 . S
H2600 C2614 0.930 . S
H2601 C2616 0.960 . S
H2602 C2616 0.960 . S
H2603 C2616 0.960 . S
C2604 H2596 0.929 . S
C2604 C2605 1.377 . S
C2604 C2606 1.384 . S
C2605 C2604 1.377 . S
C2605 C2611 1.390 . S
C2606 H2597 0.930 . S
C2606 C2604 1.384 . S
C2606 C2607 1.372 . S
C2607 C2606 1.372 . S
C2607 C2608 1.400 . S
C2607 C2612 1.490 . S
C2608 H2598 0.930 . S
C2608 C2607 1.400 . S
C2608 C2611 1.386 . S
H2609 C2625 0.930 . S
H2610 C2626 0.931 . S
C2611 H2599 0.929 . S
C2611 C2605 1.390 . S
C2611 C2608 1.386 . S
C2612 C2607 1.490 . S
C2612 C2614 1.395 . S
C2612 C2615 1.403 . S
H2613 C2619 0.930 . S
C2614 H2600 0.930 . S
C2614 C2612 1.395 . S
C2614 C2617 1.403 . S
C2615 C2612 1.403 . S
C2615 C2616 1.524 . S
C2615 C2619 1.400 . S
C2616 H2601 0.960 . S
C2616 H2602 0.960 . S
C2616 H2603 0.960 . S
C2616 C2615 1.524 . S
C2617 C2614 1.403 . S
C2617 C2618 1.392 . S
C2617 C2621 1.495 . S
C2618 C2617 1.392 . S
C2618 C2619 1.385 . S
C2618 C2620 1.478 . S
C2619 H2613 0.930 . S
C2619 C2615 1.400 . S
C2619 C2618 1.385 . S
C2620 C2618 1.478 . S
C2620 C2622 1.381 . S
C2620 C2626 1.383 . S
C2621 C2617 1.495 . S
C2621 H2627 0.959 . S
C2621 H2628 0.961 . S
C2621 H2629 0.960 . S
C2622 C2620 1.381 . S
C2622 C2623 1.394 . S
C2622 H2630 0.930 . S
C2623 C2622 1.394 . S
C2623 C2624 1.383 . S
C2623 H2631 0.929 . S
C2624 C2623 1.383 . S
C2624 C2625 1.377 . S
C2625 H2609 0.930 . S
C2625 C2624 1.377 . S
C2625 C2626 1.379 . S
C2626 H2610 0.931 . S
C2626 C2620 1.383 . S
C2626 C2625 1.379 . S
H2627 C2621 0.959 . S
H2628 C2621 0.961 . S
H2629 C2621 0.960 . S
H2630 C2622 0.930 . S
H2631 C2623 0.929 . S
H2632 C2640 0.929 . S
H2633 C2642 0.930 . S
H2634 C2644 0.930 . S
H2635 C2647 0.929 . S
H2636 C2650 0.930 . S
H2637 C2652 0.960 . S
H2638 C2652 0.960 . S
H2639 C2652 0.960 . S
C2640 H2632 0.929 . S
C2640 C2641 1.377 . S
C2640 C2642 1.384 . S
C2641 C2640 1.377 . S
C2641 C2647 1.390 . S
C2642 H2633 0.930 . S
C2642 C2640 1.384 . S
C2642 C2643 1.372 . S
C2643 C2642 1.372 . S
C2643 C2644 1.400 . S
C2643 C2648 1.490 . S
C2644 H2634 0.930 . S
C2644 C2643 1.400 . S
C2644 C2647 1.386 . S
H2645 C2661 0.930 . S
H2646 C2662 0.931 . S
C2647 H2635 0.929 . S
C2647 C2641 1.390 . S
C2647 C2644 1.386 . S
C2648 C2643 1.490 . S
C2648 C2650 1.395 . S
C2648 C2651 1.403 . S
H2649 C2655 0.930 . S
C2650 H2636 0.930 . S
C2650 C2648 1.395 . S
C2650 C2653 1.403 . S
C2651 C2648 1.403 . S
C2651 C2652 1.524 . S
C2651 C2655 1.400 . S
C2652 H2637 0.960 . S
C2652 H2638 0.960 . S
C2652 H2639 0.960 . S
C2652 C2651 1.524 . S
C2653 C2650 1.403 . S
C2653 C2654 1.392 . S
C2653 C2657 1.495 . S
C2654 C2653 1.392 . S
C2654 C2655 1.385 . S
C2654 C2656 1.478 . S
C2655 H2649 0.930 . S
C2655 C2651 1.400 . S
C2655 C2654 1.385 . S
C2656 C2654 1.478 . S
C2656 C2658 1.381 . S
C2656 C2662 1.383 . S
C2657 C2653 1.495 . S
C2657 H2663 0.959 . S
C2657 H2664 0.961 . S
C2657 H2665 0.960 . S
C2658 C2656 1.381 . S
C2658 C2659 1.394 . S
C2658 H2666 0.930 . S
C2659 C2658 1.394 . S
C2659 C2660 1.383 . S
C2659 H2667 0.929 . S
C2660 C2659 1.383 . S
C2660 C2661 1.377 . S
C2661 H2645 0.930 . S
C2661 C2660 1.377 . S
C2661 C2662 1.379 . S
C2662 H2646 0.931 . S
C2662 C2656 1.383 . S
C2662 C2661 1.379 . S
H2663 C2657 0.959 . S
H2664 C2657 0.961 . S
H2665 C2657 0.960 . S
H2666 C2658 0.930 . S
H2667 C2659 0.929 . S
H2668 C2676 0.929 . S
H2669 C2678 0.930 . S
H2670 C2680 0.930 . S
H2671 C2683 0.929 . S
H2672 C2686 0.930 . S
H2673 C2688 0.960 . S
H2674 C2688 0.960 . S
H2675 C2688 0.960 . S
C2676 H2668 0.929 . S
C2676 C2677 1.377 . S
C2676 C2678 1.384 . S
C2677 C2676 1.377 . S
C2677 C2683 1.390 . S
C2678 H2669 0.930 . S
C2678 C2676 1.384 . S
C2678 C2679 1.372 . S
C2679 C2678 1.372 . S
C2679 C2680 1.400 . S
C2679 C2684 1.490 . S
C2680 H2670 0.930 . S
C2680 C2679 1.400 . S
C2680 C2683 1.386 . S
H2681 C2697 0.930 . S
H2682 C2698 0.931 . S
C2683 H2671 0.929 . S
C2683 C2677 1.390 . S
C2683 C2680 1.386 . S
C2684 C2679 1.490 . S
C2684 C2686 1.395 . S
C2684 C2687 1.403 . S
H2685 C2691 0.930 . S
C2686 H2672 0.930 . S
C2686 C2684 1.395 . S
C2686 C2689 1.403 . S
C2687 C2684 1.403 . S
C2687 C2688 1.524 . S
C2687 C2691 1.400 . S
C2688 H2673 0.960 . S
C2688 H2674 0.960 . S
C2688 H2675 0.960 . S
C2688 C2687 1.524 . S
C2689 C2686 1.403 . S
C2689 C2690 1.392 . S
C2689 C2693 1.495 . S
C2690 C2689 1.392 . S
C2690 C2691 1.385 . S
C2690 C2692 1.478 . S
C2691 H2685 0.930 . S
C2691 C2687 1.400 . S
C2691 C2690 1.385 . S
C2692 C2690 1.478 . S
C2692 C2694 1.381 . S
C2692 C2698 1.383 . S
C2693 C2689 1.495 . S
C2693 H2699 0.959 . S
C2693 H2700 0.961 . S
C2693 H2701 0.960 . S
C2694 C2692 1.381 . S
C2694 C2695 1.394 . S
C2694 H2702 0.930 . S
C2695 C2694 1.394 . S
C2695 C2696 1.383 . S
C2695 H2703 0.929 . S
C2696 C2695 1.383 . S
C2696 C2697 1.377 . S
C2697 H2681 0.930 . S
C2697 C2696 1.377 . S
C2697 C2698 1.379 . S
C2698 H2682 0.931 . S
C2698 C2692 1.383 . S
C2698 C2697 1.379 . S
H2699 C2693 0.959 . S
H2700 C2693 0.961 . S
H2701 C2693 0.960 . S
H2702 C2694 0.930 . S
H2703 C2695 0.929 . S
H2704 C2712 0.929 . S
H2705 C2714 0.930 . S
H2706 C2716 0.930 . S
H2707 C2719 0.929 . S
H2708 C2722 0.930 . S
H2709 C2724 0.960 . S
H2710 C2724 0.960 . S
H2711 C2724 0.960 . S
C2712 H2704 0.929 . S
C2712 C2713 1.377 . S
C2712 C2714 1.384 . S
C2713 C2712 1.377 . S
C2713 C2719 1.390 . S
C2714 H2705 0.930 . S
C2714 C2712 1.384 . S
C2714 C2715 1.372 . S
C2715 C2714 1.372 . S
C2715 C2716 1.400 . S
C2715 C2720 1.490 . S
C2716 H2706 0.930 . S
C2716 C2715 1.400 . S
C2716 C2719 1.386 . S
H2717 C2733 0.930 . S
H2718 C2734 0.931 . S
C2719 H2707 0.929 . S
C2719 C2713 1.390 . S
C2719 C2716 1.386 . S
C2720 C2715 1.490 . S
C2720 C2722 1.395 . S
C2720 C2723 1.403 . S
H2721 C2727 0.930 . S
C2722 H2708 0.930 . S
C2722 C2720 1.395 . S
C2722 C2725 1.403 . S
C2723 C2720 1.403 . S
C2723 C2724 1.524 . S
C2723 C2727 1.400 . S
C2724 H2709 0.960 . S
C2724 H2710 0.960 . S
C2724 H2711 0.960 . S
C2724 C2723 1.524 . S
C2725 C2722 1.403 . S
C2725 C2726 1.392 . S
C2725 C2729 1.495 . S
C2726 C2725 1.392 . S
C2726 C2727 1.385 . S
C2726 C2728 1.478 . S
C2727 H2721 0.930 . S
C2727 C2723 1.400 . S
C2727 C2726 1.385 . S
C2728 C2726 1.478 . S
C2728 C2730 1.381 . S
C2728 C2734 1.383 . S
C2729 C2725 1.495 . S
C2729 H2735 0.959 . S
C2729 H2736 0.961 . S
C2729 H2737 0.960 . S
C2730 C2728 1.381 . S
C2730 C2731 1.394 . S
C2730 H2738 0.930 . S
C2731 C2730 1.394 . S
C2731 C2732 1.383 . S
C2731 H2739 0.929 . S
C2732 C2731 1.383 . S
C2732 C2733 1.377 . S
C2733 H2717 0.930 . S
C2733 C2732 1.377 . S
C2733 C2734 1.379 . S
C2734 H2718 0.931 . S
C2734 C2728 1.383 . S
C2734 C2733 1.379 . S
H2735 C2729 0.959 . S
H2736 C2729 0.961 . S
H2737 C2729 0.960 . S
H2738 C2730 0.930 . S
H2739 C2731 0.929 . S
H2740 C2748 0.929 . S
H2741 C2750 0.930 . S
H2742 C2752 0.930 . S
H2743 C2755 0.929 . S
H2744 C2758 0.930 . S
H2745 C2760 0.960 . S
H2746 C2760 0.960 . S
H2747 C2760 0.960 . S
C2748 H2740 0.929 . S
C2748 C2749 1.377 . S
C2748 C2750 1.384 . S
C2749 C2748 1.377 . S
C2749 C2755 1.390 . S
C2750 H2741 0.930 . S
C2750 C2748 1.384 . S
C2750 C2751 1.372 . S
C2751 C2750 1.372 . S
C2751 C2752 1.400 . S
C2751 C2756 1.490 . S
C2752 H2742 0.930 . S
C2752 C2751 1.400 . S
C2752 C2755 1.386 . S
H2753 C2769 0.930 . S
H2754 C2770 0.931 . S
C2755 H2743 0.929 . S
C2755 C2749 1.390 . S
C2755 C2752 1.386 . S
C2756 C2751 1.490 . S
C2756 C2758 1.395 . S
C2756 C2759 1.403 . S
H2757 C2763 0.930 . S
C2758 H2744 0.930 . S
C2758 C2756 1.395 . S
C2758 C2761 1.403 . S
C2759 C2756 1.403 . S
C2759 C2760 1.524 . S
C2759 C2763 1.400 . S
C2760 H2745 0.960 . S
C2760 H2746 0.960 . S
C2760 H2747 0.960 . S
C2760 C2759 1.524 . S
C2761 C2758 1.403 . S
C2761 C2762 1.392 . S
C2761 C2765 1.495 . S
C2762 C2761 1.392 . S
C2762 C2763 1.385 . S
C2762 C2764 1.478 . S
C2763 H2757 0.930 . S
C2763 C2759 1.400 . S
C2763 C2762 1.385 . S
C2764 C2762 1.478 . S
C2764 C2766 1.381 . S
C2764 C2770 1.383 . S
C2765 C2761 1.495 . S
C2765 H2771 0.959 . S
C2765 H2772 0.961 . S
C2765 H2773 0.960 . S
C2766 C2764 1.381 . S
C2766 C2767 1.394 . S
C2766 H2774 0.930 . S
C2767 C2766 1.394 . S
C2767 C2768 1.383 . S
C2767 H2775 0.929 . S
C2768 C2767 1.383 . S
C2768 C2769 1.377 . S
C2769 H2753 0.930 . S
C2769 C2768 1.377 . S
C2769 C2770 1.379 . S
C2770 H2754 0.931 . S
C2770 C2764 1.383 . S
C2770 C2769 1.379 . S
H2771 C2765 0.959 . S
H2772 C2765 0.961 . S
H2773 C2765 0.960 . S
H2774 C2766 0.930 . S
H2775 C2767 0.929 . S
H2776 C2784 0.938 . S
H2777 C2786 0.930 . S
H2778 C2788 0.930 . S
H2779 C2791 0.929 . S
H2780 C2794 0.930 . S
H2781 C2796 0.960 . S
H2782 C2796 0.960 . S
H2783 C2796 0.960 . S
C2784 H2776 0.938 . S
C2784 C2785 1.377 . S
C2784 C2786 1.384 . S
C2785 C2784 1.377 . S
C2785 C2791 1.390 . S
C2786 H2777 0.930 . S
C2786 C2784 1.384 . S
C2786 C2787 1.372 . S
C2787 C2786 1.372 . S
C2787 C2788 1.400 . S
C2787 C2792 1.490 . S
C2788 H2778 0.930 . S
C2788 C2787 1.400 . S
C2788 C2791 1.386 . S
H2789 C2805 0.930 . S
H2790 C2806 0.931 . S
C2791 H2779 0.929 . S
C2791 C2785 1.390 . S
C2791 C2788 1.386 . S
C2792 C2787 1.490 . S
C2792 C2794 1.395 . S
C2792 C2795 1.403 . S
H2793 C2799 0.930 . S
C2794 H2780 0.930 . S
C2794 C2792 1.395 . S
C2794 C2797 1.403 1_556 S
C2795 C2792 1.403 . S
C2795 C2796 1.524 . S
C2795 C2799 1.400 . S
C2796 H2781 0.960 . S
C2796 H2782 0.960 . S
C2796 H2783 0.960 . S
C2796 C2795 1.524 . S
C2797 C2794 1.403 1_554 S
C2797 C2798 1.392 1_554 S
C2797 C2801 1.495 . S
C2798 C2797 1.392 1_556 S
C2798 C2799 1.385 . S
C2798 C2800 1.478 1_556 S
C2799 H2793 0.930 . S
C2799 C2795 1.400 . S
C2799 C2798 1.385 . S
C2800 C2798 1.478 1_554 S
C2800 C2802 1.381 . S
C2800 C2806 1.383 . S
C2801 C2797 1.495 . S
C2801 H2807 0.959 . S
C2801 H2808 0.961 . S
C2801 H2809 0.960 . S
C2802 C2800 1.381 . S
C2802 C2803 1.394 . S
C2802 H2810 0.930 . S
C2803 C2802 1.394 . S
C2803 C2804 1.383 . S
C2803 H2811 0.929 . S
C2804 C2803 1.383 . S
C2804 C2805 1.377 . S
C2805 H2789 0.930 . S
C2805 C2804 1.377 . S
C2805 C2806 1.379 . S
C2806 H2790 0.931 . S
C2806 C2800 1.383 . S
C2806 C2805 1.379 . S
H2807 C2801 0.959 . S
H2808 C2801 0.961 . S
H2809 C2801 0.960 . S
H2810 C2802 0.930 . S
H2811 C2803 0.929 . S
H2812 C2820 0.929 . S
H2813 C2822 0.930 . S
H2814 C2824 0.930 . S
H2815 C2827 0.929 . S
H2816 C2830 0.930 . S
H2817 C2832 0.960 . S
H2818 C2832 0.960 . S
H2819 C2832 0.960 . S
C2820 H2812 0.929 . S
C2820 C2821 1.377 . S
C2820 C2822 1.384 1_455 S
C2821 C2820 1.377 . S
C2821 C2827 1.390 1_455 S
C2822 H2813 0.930 . S
C2822 C2820 1.384 1_655 S
C2822 C2823 1.372 . S
C2823 C2822 1.372 . S
C2823 C2824 1.400 . S
C2823 C2828 1.490 . S
C2824 H2814 0.930 . S
C2824 C2823 1.400 . S
C2824 C2827 1.386 . S
H2825 C2841 0.930 . S
H2826 C2842 0.931 . S
C2827 H2815 0.929 . S
C2827 C2821 1.390 1_655 S
C2827 C2824 1.386 . S
C2828 C2823 1.490 . S
C2828 C2830 1.395 . S
C2828 C2831 1.403 . S
H2829 C2835 0.930 . S
C2830 H2816 0.930 . S
C2830 C2828 1.395 . S
C2830 C2833 1.403 . S
C2831 C2828 1.403 . S
C2831 C2832 1.524 . S
C2831 C2835 1.400 . S
C2832 H2817 0.960 . S
C2832 H2818 0.960 . S
C2832 H2819 0.960 . S
C2832 C2831 1.524 . S
C2833 C2830 1.403 . S
C2833 C2834 1.392 . S
C2833 C2837 1.495 . S
C2834 C2833 1.392 . S
C2834 C2835 1.385 . S
C2834 C2836 1.478 . S
C2835 H2829 0.930 . S
C2835 C2831 1.400 . S
C2835 C2834 1.385 . S
C2836 C2834 1.478 . S
C2836 C2838 1.381 . S
C2836 C2842 1.383 . S
C2837 C2833 1.495 . S
C2837 H2843 0.959 . S
C2837 H2844 0.961 . S
C2837 H2845 0.960 . S
C2838 C2836 1.381 . S
C2838 C2839 1.394 . S
C2838 H2846 0.930 . S
C2839 C2838 1.394 . S
C2839 C2840 1.383 . S
C2839 H2847 0.929 . S
C2840 C2839 1.383 . S
C2840 C2841 1.377 . S
C2841 H2825 0.930 . S
C2841 C2840 1.377 . S
C2841 C2842 1.379 . S
C2842 H2826 0.931 . S
C2842 C2836 1.383 . S
C2842 C2841 1.379 . S
H2843 C2837 0.959 . S
H2844 C2837 0.961 . S
H2845 C2837 0.960 . S
H2846 C2838 0.930 . S
H2847 C2839 0.929 . S
H2848 C2856 0.929 . S
H2849 C2858 0.930 . S
H2850 C2860 0.930 . S
H2851 C2863 0.929 . S
H2852 C2866 0.930 . S
H2853 C2868 0.960 . S
H2854 C2868 0.960 . S
H2855 C2868 0.960 . S
C2856 H2848 0.929 . S
C2856 C2857 1.377 . S
C2856 C2858 1.384 . S
C2857 C2856 1.377 . S
C2857 C2863 1.390 . S
C2858 H2849 0.930 . S
C2858 C2856 1.384 . S
C2858 C2859 1.372 . S
C2859 C2858 1.372 . S
C2859 C2860 1.400 . S
C2859 C2864 1.490 . S
C2860 H2850 0.930 . S
C2860 C2859 1.400 . S
C2860 C2863 1.386 . S
H2861 C2877 0.930 . S
H2862 C2878 0.931 . S
C2863 H2851 0.929 . S
C2863 C2857 1.390 . S
C2863 C2860 1.386 . S
C2864 C2859 1.490 . S
C2864 C2866 1.395 . S
C2864 C2867 1.403 . S
H2865 C2871 0.930 . S
C2866 H2852 0.930 . S
C2866 C2864 1.395 . S
C2866 C2869 1.403 . S
C2867 C2864 1.403 . S
C2867 C2868 1.524 . S
C2867 C2871 1.400 . S
C2868 H2853 0.960 . S
C2868 H2854 0.960 . S
C2868 H2855 0.960 . S
C2868 C2867 1.524 . S
C2869 C2866 1.403 . S
C2869 C2870 1.392 . S
C2869 C2873 1.495 . S
C2870 C2869 1.392 . S
C2870 C2871 1.385 . S
C2870 C2872 1.478 . S
C2871 H2865 0.930 . S
C2871 C2867 1.400 . S
C2871 C2870 1.385 . S
C2872 C2870 1.478 . S
C2872 C2874 1.381 . S
C2872 C2878 1.383 . S
C2873 C2869 1.495 . S
C2873 H2879 0.959 . S
C2873 H2880 0.961 . S
C2873 H2881 0.960 . S
C2874 C2872 1.381 . S
C2874 C2875 1.394 . S
C2874 H2882 0.930 . S
C2875 C2874 1.394 . S
C2875 C2876 1.383 . S
C2875 H2883 0.929 . S
C2876 C2875 1.383 . S
C2876 C2877 1.377 . S
C2877 H2861 0.930 . S
C2877 C2876 1.377 . S
C2877 C2878 1.379 . S
C2878 H2862 0.931 . S
C2878 C2872 1.383 . S
C2878 C2877 1.379 . S
H2879 C2873 0.959 . S
H2880 C2873 0.961 . S
H2881 C2873 0.960 . S
H2882 C2874 0.930 . S
H2883 C2875 0.929 . S
H2884 C2892 0.929 . S
H2885 C2894 0.930 . S
H2886 C2896 0.930 . S
H2887 C2899 0.929 . S
H2888 C2902 0.930 1_455 S
H2889 C2904 0.960 . S
H2890 C2904 0.960 . S
H2891 C2904 0.960 . S
C2892 H2884 0.929 . S
C2892 C2893 1.377 . S
C2892 C2894 1.384 . S
C2893 C2892 1.377 . S
C2893 C2899 1.390 . S
C2894 H2885 0.930 . S
C2894 C2892 1.384 . S
C2894 C2895 1.372 . S
C2895 C2894 1.372 . S
C2895 C2896 1.400 . S
C2895 C2900 1.490 1_455 S
C2896 H2886 0.930 . S
C2896 C2895 1.400 . S
C2896 C2899 1.386 . S
H2897 C2913 0.930 . S
H2898 C2914 0.931 . S
C2899 H2887 0.929 . S
C2899 C2893 1.390 . S
C2899 C2896 1.386 . S
C2900 C2895 1.490 1_655 S
C2900 C2902 1.395 . S
C2900 C2903 1.403 . S
H2901 C2907 0.930 . S
C2902 H2888 0.930 1_655 S
C2902 C2900 1.395 . S
C2902 C2905 1.403 . S
C2903 C2900 1.403 . S
C2903 C2904 1.524 . S
C2903 C2907 1.400 . S
C2904 H2889 0.960 . S
C2904 H2890 0.960 . S
C2904 H2891 0.960 . S
C2904 C2903 1.524 . S
C2905 C2902 1.403 . S
C2905 C2906 1.392 . S
C2905 C2909 1.495 . S
C2906 C2905 1.392 . S
C2906 C2907 1.385 . S
C2906 C2908 1.478 . S
C2907 H2901 0.930 . S
C2907 C2903 1.400 . S
C2907 C2906 1.385 . S
C2908 C2906 1.478 . S
C2908 C2910 1.381 . S
C2908 C2914 1.383 . S
C2909 C2905 1.495 . S
C2909 H2915 0.959 . S
C2909 H2916 0.961 . S
C2909 H2917 0.960 . S
C2910 C2908 1.381 . S
C2910 C2911 1.394 . S
C2910 H2918 0.930 . S
C2911 C2910 1.394 . S
C2911 C2912 1.383 . S
C2911 H2919 0.929 . S
C2912 C2911 1.383 . S
C2912 C2913 1.377 . S
C2913 H2897 0.930 . S
C2913 C2912 1.377 . S
C2913 C2914 1.379 . S
C2914 H2898 0.931 . S
C2914 C2908 1.383 . S
C2914 C2913 1.379 . S
H2915 C2909 0.959 . S
H2916 C2909 0.961 . S
H2917 C2909 0.960 . S
H2918 C2910 0.930 . S
H2919 C2911 0.929 . S
H2920 C2928 0.929 . S
H2921 C2930 0.930 . S
H2922 C2932 0.930 . S
H2923 C2935 0.929 . S
H2924 C2938 0.930 1_655 S
H2925 C2940 0.960 . S
H2926 C2940 0.960 . S
H2927 C2940 0.960 . S
C2928 H2920 0.929 . S
C2928 C2929 1.377 . S
C2928 C2930 1.384 . S
C2929 C2928 1.377 . S
C2929 C2935 1.390 1_655 S
C2930 H2921 0.930 . S
C2930 C2928 1.384 . S
C2930 C2931 1.372 1_655 S
C2931 C2930 1.372 1_455 S
C2931 C2932 1.400 . S
C2931 C2936 1.490 . S
C2932 H2922 0.930 . S
C2932 C2931 1.400 . S
C2932 C2935 1.386 . S
H2933 C2949 0.930 . S
H2934 C2950 0.931 . S
C2935 H2923 0.929 . S
C2935 C2929 1.390 1_455 S
C2935 C2932 1.386 . S
C2936 C2931 1.490 . S
C2936 C2938 1.395 . S
C2936 C2939 1.403 . S
H2937 C2943 0.930 . S
C2938 H2924 0.930 1_455 S
C2938 C2936 1.395 . S
C2938 C2941 1.403 . S
C2939 C2936 1.403 . S
C2939 C2940 1.524 . S
C2939 C2943 1.400 . S
C2940 H2925 0.960 . S
C2940 H2926 0.960 . S
C2940 H2927 0.960 . S
C2940 C2939 1.524 . S
C2941 C2938 1.403 . S
C2941 C2942 1.392 . S
C2941 C2945 1.499 . S
C2942 C2941 1.392 . S
C2942 C2943 1.385 . S
C2942 C2944 1.478 . S
C2943 H2937 0.930 . S
C2943 C2939 1.400 . S
C2943 C2942 1.385 . S
C2944 C2942 1.478 . S
C2944 C2946 1.381 . S
C2944 C2950 1.383 . S
C2945 C2941 1.499 . S
C2945 H2951 0.946 1_455 S
C2945 H2952 0.976 . S
C2945 H2953 0.954 1_455 S
C2946 C2944 1.381 . S
C2946 C2947 1.394 . S
C2946 H2954 0.930 1_455 S
C2947 C2946 1.394 . S
C2947 C2948 1.383 . S
C2947 H2955 0.929 . S
C2948 C2947 1.383 . S
C2948 C2949 1.377 . S
C2949 H2933 0.930 . S
C2949 C2948 1.377 . S
C2949 C2950 1.379 . S
C2950 H2934 0.931 . S
C2950 C2944 1.383 . S
C2950 C2949 1.379 . S
H2951 C2945 0.946 1_655 S
H2952 C2945 0.976 . S
H2953 C2945 0.954 1_655 S
H2954 C2946 0.930 1_655 S
H2955 C2947 0.929 . S
H2956 C2964 0.929 . S
H2957 C2966 0.930 . S
H2958 C2968 0.930 . S
H2959 C2971 0.929 . S
H2960 C2974 0.930 . S
H2961 C2976 0.960 . S
H2962 C2976 0.960 . S
H2963 C2976 0.960 . S
C2964 H2956 0.929 . S
C2964 C2965 1.377 . S
C2964 C2966 1.384 . S
C2965 C2964 1.377 . S
C2965 C2971 1.390 . S
C2966 H2957 0.930 . S
C2966 C2964 1.384 . S
C2966 C2967 1.372 . S
C2967 C2966 1.372 . S
C2967 C2968 1.400 . S
C2967 C2972 1.490 . S
C2968 H2958 0.930 . S
C2968 C2967 1.400 . S
C2968 C2971 1.386 . S
H2969 C2985 0.930 . S
H2970 C2986 0.931 . S
C2971 H2959 0.929 . S
C2971 C2965 1.390 . S
C2971 C2968 1.386 . S
C2972 C2967 1.490 . S
C2972 C2974 1.395 . S
C2972 C2975 1.403 . S
H2973 C2979 0.930 . S
C2974 H2960 0.930 . S
C2974 C2972 1.395 . S
C2974 C2977 1.403 . S
C2975 C2972 1.403 . S
C2975 C2976 1.524 . S
C2975 C2979 1.400 . S
C2976 H2961 0.960 . S
C2976 H2962 0.960 . S
C2976 H2963 0.960 . S
C2976 C2975 1.524 . S
C2977 C2974 1.403 . S
C2977 C2978 1.392 . S
C2977 C2981 1.495 . S
C2978 C2977 1.392 . S
C2978 C2979 1.385 . S
C2978 C2980 1.478 . S
C2979 H2973 0.930 . S
C2979 C2975 1.400 . S
C2979 C2978 1.385 . S
C2980 C2978 1.478 . S
C2980 C2982 1.381 . S
C2980 C2986 1.383 . S
C2981 C2977 1.495 . S
C2981 H2987 0.959 . S
C2981 H2988 0.961 . S
C2981 H2989 0.960 . S
C2982 C2980 1.381 . S
C2982 C2983 1.394 . S
C2982 H2990 0.930 . S
C2983 C2982 1.394 . S
C2983 C2984 1.383 . S
C2983 H2991 0.929 . S
C2984 C2983 1.383 . S
C2984 C2985 1.377 . S
C2985 H2969 0.930 . S
C2985 C2984 1.377 . S
C2985 C2986 1.379 . S
C2986 H2970 0.931 . S
C2986 C2980 1.383 . S
C2986 C2985 1.379 . S
H2987 C2981 0.959 . S
H2988 C2981 0.961 . S
H2989 C2981 0.960 . S
H2990 C2982 0.930 . S
H2991 C2983 0.929 . S
H2992 C3000 0.929 . S
H2993 C3002 0.930 . S
H2994 C3004 0.930 . S
H2995 C3007 0.929 . S
H2996 C3010 0.930 . S
H2997 C3012 0.960 . S
H2998 C3012 0.960 . S
H2999 C3012 0.960 . S
C3000 H2992 0.929 . S
C3000 C3001 1.377 . S
C3000 C3002 1.384 . S
C3001 C3000 1.377 . S
C3001 C3007 1.390 . S
C3002 H2993 0.930 . S
C3002 C3000 1.384 . S
C3002 C3003 1.372 . S
C3003 C3002 1.372 . S
C3003 C3004 1.400 . S
C3003 C3008 1.490 . S
C3004 H2994 0.930 . S
C3004 C3003 1.400 . S
C3004 C3007 1.386 . S
H3005 C3021 0.930 . S
H3006 C3022 0.931 . S
C3007 H2995 0.929 . S
C3007 C3001 1.390 . S
C3007 C3004 1.386 . S
C3008 C3003 1.490 . S
C3008 C3010 1.395 . S
C3008 C3011 1.403 . S
H3009 C3015 0.930 . S
C3010 H2996 0.930 . S
C3010 C3008 1.395 . S
C3010 C3013 1.403 . S
C3011 C3008 1.403 . S
C3011 C3012 1.524 . S
C3011 C3015 1.400 . S
C3012 H2997 0.960 . S
C3012 H2998 0.960 . S
C3012 H2999 0.960 . S
C3012 C3011 1.524 . S
C3013 C3010 1.403 . S
C3013 C3014 1.392 . S
C3013 C3017 1.495 . S
C3014 C3013 1.392 . S
C3014 C3015 1.385 . S
C3014 C3016 1.478 . S
C3015 H3009 0.930 . S
C3015 C3011 1.400 . S
C3015 C3014 1.385 . S
C3016 C3014 1.478 . S
C3016 C3018 1.381 . S
C3016 C3022 1.383 . S
C3017 C3013 1.495 . S
C3017 H3023 0.959 . S
C3017 H3024 0.961 . S
C3017 H3025 0.960 . S
C3018 C3016 1.381 . S
C3018 C3019 1.394 . S
C3018 H3026 0.930 . S
C3019 C3018 1.394 . S
C3019 C3020 1.383 . S
C3019 H3027 0.929 . S
C3020 C3019 1.383 . S
C3020 C3021 1.377 . S
C3021 H3005 0.930 . S
C3021 C3020 1.377 . S
C3021 C3022 1.379 . S
C3022 H3006 0.931 . S
C3022 C3016 1.383 . S
C3022 C3021 1.379 . S
H3023 C3017 0.959 . S
H3024 C3017 0.961 . S
H3025 C3017 0.960 . S
H3026 C3018 0.930 . S
H3027 C3019 0.929 . S
H3028 C3036 0.929 . S
H3029 C3038 0.930 . S
H3030 C3040 0.930 . S
H3031 C3043 0.929 . S
H3032 C3046 0.930 . S
H3033 C3048 0.960 . S
H3034 C3048 0.960 . S
H3035 C3048 0.960 . S
C3036 H3028 0.929 . S
C3036 C3037 1.377 . S
C3036 C3038 1.384 . S
C3037 C3036 1.377 . S
C3037 C3043 1.390 . S
C3038 H3029 0.930 . S
C3038 C3036 1.384 . S
C3038 C3039 1.372 . S
C3039 C3038 1.372 . S
C3039 C3040 1.400 . S
C3039 C3044 1.490 . S
C3040 H3030 0.930 . S
C3040 C3039 1.400 . S
C3040 C3043 1.386 . S
H3041 C3057 0.930 . S
H3042 C3058 0.931 . S
C3043 H3031 0.929 . S
C3043 C3037 1.390 . S
C3043 C3040 1.386 . S
C3044 C3039 1.490 . S
C3044 C3046 1.395 . S
C3044 C3047 1.403 . S
H3045 C3051 0.930 . S
C3046 H3032 0.930 . S
C3046 C3044 1.395 . S
C3046 C3049 1.403 . S
C3047 C3044 1.403 . S
C3047 C3048 1.524 . S
C3047 C3051 1.400 . S
C3048 H3033 0.960 . S
C3048 H3034 0.960 . S
C3048 H3035 0.960 . S
C3048 C3047 1.524 . S
C3049 C3046 1.403 . S
C3049 C3050 1.392 . S
C3049 C3053 1.495 . S
C3050 C3049 1.392 . S
C3050 C3051 1.385 . S
C3050 C3052 1.478 . S
C3051 H3045 0.930 . S
C3051 C3047 1.400 . S
C3051 C3050 1.385 . S
C3052 C3050 1.478 . S
C3052 C3054 1.381 . S
C3052 C3058 1.383 . S
C3053 C3049 1.495 . S
C3053 H3059 0.959 . S
C3053 H3060 0.961 . S
C3053 H3061 0.960 . S
C3054 C3052 1.381 . S
C3054 C3055 1.394 . S
C3054 H3062 0.930 . S
C3055 C3054 1.394 . S
C3055 C3056 1.383 . S
C3055 H3063 0.929 . S
C3056 C3055 1.383 . S
C3056 C3057 1.377 . S
C3057 H3041 0.930 . S
C3057 C3056 1.377 . S
C3057 C3058 1.379 . S
C3058 H3042 0.931 . S
C3058 C3052 1.383 . S
C3058 C3057 1.379 . S
H3059 C3053 0.959 . S
H3060 C3053 0.961 . S
H3061 C3053 0.960 . S
H3062 C3054 0.930 . S
H3063 C3055 0.929 . S
H3064 C3072 0.929 . S
H3065 C3074 0.930 . S
H3066 C3076 0.930 . S
H3067 C3079 0.929 . S
H3068 C3082 0.930 . S
H3069 C3084 0.960 . S
H3070 C3084 0.960 . S
H3071 C3084 0.960 . S
C3072 H3064 0.929 . S
C3072 C3073 1.377 . S
C3072 C3074 1.384 . S
C3073 C3072 1.377 . S
C3073 C3079 1.390 . S
C3074 H3065 0.930 . S
C3074 C3072 1.384 . S
C3074 C3075 1.372 . S
C3075 C3074 1.372 . S
C3075 C3076 1.400 . S
C3075 C3080 1.490 . S
C3076 H3066 0.930 . S
C3076 C3075 1.400 . S
C3076 C3079 1.386 . S
H3077 C3093 0.930 . S
H3078 C3094 0.931 . S
C3079 H3067 0.929 . S
C3079 C3073 1.390 . S
C3079 C3076 1.386 . S
C3080 C3075 1.490 . S
C3080 C3082 1.395 . S
C3080 C3083 1.403 . S
H3081 C3087 0.930 . S
C3082 H3068 0.930 . S
C3082 C3080 1.395 . S
C3082 C3085 1.403 . S
C3083 C3080 1.403 . S
C3083 C3084 1.524 . S
C3083 C3087 1.400 . S
C3084 H3069 0.960 . S
C3084 H3070 0.960 . S
C3084 H3071 0.960 . S
C3084 C3083 1.524 . S
C3085 C3082 1.403 . S
C3085 C3086 1.392 . S
C3085 C3089 1.495 . S
C3086 C3085 1.392 . S
C3086 C3087 1.385 . S
C3086 C3088 1.478 . S
C3087 H3081 0.930 . S
C3087 C3083 1.400 . S
C3087 C3086 1.385 . S
C3088 C3086 1.478 . S
C3088 C3090 1.381 . S
C3088 C3094 1.383 . S
C3089 C3085 1.495 . S
C3089 H3095 0.959 . S
C3089 H3096 0.961 . S
C3089 H3097 0.960 . S
C3090 C3088 1.381 . S
C3090 C3091 1.394 . S
C3090 H3098 0.930 . S
C3091 C3090 1.394 . S
C3091 C3092 1.383 . S
C3091 H3099 0.929 . S
C3092 C3091 1.383 . S
C3092 C3093 1.377 . S
C3093 H3077 0.930 . S
C3093 C3092 1.377 . S
C3093 C3094 1.379 . S
C3094 H3078 0.931 . S
C3094 C3088 1.383 . S
C3094 C3093 1.379 . S
H3095 C3089 0.959 . S
H3096 C3089 0.961 . S
H3097 C3089 0.960 . S
H3098 C3090 0.930 . S
H3099 C3091 0.929 . S
H3100 C3108 0.929 . S
H3101 C3110 0.930 . S
H3102 C3112 0.930 . S
H3103 C3115 0.929 . S
H3104 C3118 0.930 . S
H3105 C3120 0.960 . S
H3106 C3120 0.960 . S
H3107 C3120 0.960 . S
C3108 H3100 0.929 . S
C3108 C3109 1.377 . S
C3108 C3110 1.384 . S
C3109 C3108 1.377 . S
C3109 C3115 1.390 . S
C3110 H3101 0.930 . S
C3110 C3108 1.384 . S
C3110 C3111 1.372 . S
C3111 C3110 1.372 . S
C3111 C3112 1.400 . S
C3111 C3116 1.490 . S
C3112 H3102 0.930 . S
C3112 C3111 1.400 . S
C3112 C3115 1.386 . S
H3113 C3129 0.930 . S
H3114 C3130 0.931 . S
C3115 H3103 0.929 . S
C3115 C3109 1.390 . S
C3115 C3112 1.386 . S
C3116 C3111 1.490 . S
C3116 C3118 1.395 . S
C3116 C3119 1.403 . S
H3117 C3123 0.930 . S
C3118 H3104 0.930 . S
C3118 C3116 1.395 . S
C3118 C3121 1.403 . S
C3119 C3116 1.403 . S
C3119 C3120 1.524 . S
C3119 C3123 1.400 . S
C3120 H3105 0.960 . S
C3120 H3106 0.960 . S
C3120 H3107 0.960 . S
C3120 C3119 1.524 . S
C3121 C3118 1.403 . S
C3121 C3122 1.392 . S
C3121 C3125 1.495 . S
C3122 C3121 1.392 . S
C3122 C3123 1.385 . S
C3122 C3124 1.478 . S
C3123 H3117 0.930 . S
C3123 C3119 1.400 . S
C3123 C3122 1.385 . S
C3124 C3122 1.478 . S
C3124 C3126 1.381 . S
C3124 C3130 1.383 . S
C3125 C3121 1.495 . S
C3125 H3131 0.959 . S
C3125 H3132 0.961 . S
C3125 H3133 0.960 . S
C3126 C3124 1.381 . S
C3126 C3127 1.394 . S
C3126 H3134 0.930 . S
C3127 C3126 1.394 . S
C3127 C3128 1.383 . S
C3127 H3135 0.929 . S
C3128 C3127 1.383 . S
C3128 C3129 1.377 . S
C3129 H3113 0.930 . S
C3129 C3128 1.377 . S
C3129 C3130 1.379 . S
C3130 H3114 0.931 . S
C3130 C3124 1.383 . S
C3130 C3129 1.379 . S
H3131 C3125 0.959 . S
H3132 C3125 0.961 . S
H3133 C3125 0.960 . S
H3134 C3126 0.930 . S
H3135 C3127 0.929 . S
H3136 C3144 0.929 . S
H3137 C3146 0.930 . S
H3138 C3148 0.930 . S
H3139 C3151 0.929 . S
H3140 C3154 0.930 . S
H3141 C3156 0.960 . S
H3142 C3156 0.960 . S
H3143 C3156 0.960 . S
C3144 H3136 0.929 . S
C3144 C3145 1.377 . S
C3144 C3146 1.384 . S
C3145 C3144 1.377 . S
C3145 C3151 1.390 . S
C3146 H3137 0.930 . S
C3146 C3144 1.384 . S
C3146 C3147 1.372 . S
C3147 C3146 1.372 . S
C3147 C3148 1.400 . S
C3147 C3152 1.490 . S
C3148 H3138 0.930 . S
C3148 C3147 1.400 . S
C3148 C3151 1.386 . S
H3149 C3165 0.930 . S
H3150 C3166 0.931 . S
C3151 H3139 0.929 . S
C3151 C3145 1.390 . S
C3151 C3148 1.386 . S
C3152 C3147 1.490 . S
C3152 C3154 1.395 . S
C3152 C3155 1.403 . S
H3153 C3159 0.930 . S
C3154 H3140 0.930 . S
C3154 C3152 1.395 . S
C3154 C3157 1.403 . S
C3155 C3152 1.403 . S
C3155 C3156 1.524 . S
C3155 C3159 1.400 . S
C3156 H3141 0.960 . S
C3156 H3142 0.960 . S
C3156 H3143 0.960 . S
C3156 C3155 1.524 . S
C3157 C3154 1.403 . S
C3157 C3158 1.392 . S
C3157 C3161 1.495 . S
C3158 C3157 1.392 . S
C3158 C3159 1.385 . S
C3158 C3160 1.478 . S
C3159 H3153 0.930 . S
C3159 C3155 1.400 . S
C3159 C3158 1.385 . S
C3160 C3158 1.478 . S
C3160 C3162 1.381 . S
C3160 C3166 1.383 . S
C3161 C3157 1.495 . S
C3161 H3167 0.959 . S
C3161 H3168 0.961 . S
C3161 H3169 0.960 . S
C3162 C3160 1.381 . S
C3162 C3163 1.394 . S
C3162 H3170 0.930 . S
C3163 C3162 1.394 . S
C3163 C3164 1.383 . S
C3163 H3171 0.929 . S
C3164 C3163 1.383 . S
C3164 C3165 1.377 . S
C3165 H3149 0.930 . S
C3165 C3164 1.377 . S
C3165 C3166 1.379 . S
C3166 H3150 0.931 . S
C3166 C3160 1.383 . S
C3166 C3165 1.379 . S
H3167 C3161 0.959 . S
H3168 C3161 0.961 . S
H3169 C3161 0.960 . S
H3170 C3162 0.930 . S
H3171 C3163 0.929 . S
H3172 C3180 0.929 . S
H3173 C3182 0.930 . S
H3174 C3184 0.930 . S
H3175 C3187 0.929 . S
H3176 C3190 0.930 . S
H3177 C3192 0.960 . S
H3178 C3192 0.960 . S
H3179 C3192 0.960 . S
C3180 H3172 0.929 . S
C3180 C3181 1.377 . S
C3180 C3182 1.384 . S
C3181 C3180 1.377 . S
C3181 C3187 1.390 . S
C3182 H3173 0.930 . S
C3182 C3180 1.384 . S
C3182 C3183 1.372 . S
C3183 C3182 1.372 . S
C3183 C3184 1.400 . S
C3183 C3188 1.490 . S
C3184 H3174 0.930 . S
C3184 C3183 1.400 . S
C3184 C3187 1.386 . S
H3185 C3201 0.930 . S
H3186 C3202 0.931 . S
C3187 H3175 0.929 . S
C3187 C3181 1.390 . S
C3187 C3184 1.386 . S
C3188 C3183 1.490 . S
C3188 C3190 1.395 . S
C3188 C3191 1.403 . S
H3189 C3195 0.930 . S
C3190 H3176 0.930 . S
C3190 C3188 1.395 . S
C3190 C3193 1.403 . S
C3191 C3188 1.403 . S
C3191 C3192 1.524 . S
C3191 C3195 1.400 . S
C3192 H3177 0.960 . S
C3192 H3178 0.960 . S
C3192 H3179 0.960 . S
C3192 C3191 1.524 . S
C3193 C3190 1.403 . S
C3193 C3194 1.392 . S
C3193 C3197 1.495 . S
C3194 C3193 1.392 . S
C3194 C3195 1.385 . S
C3194 C3196 1.478 . S
C3195 H3189 0.930 . S
C3195 C3191 1.400 . S
C3195 C3194 1.385 . S
C3196 C3194 1.478 . S
C3196 C3198 1.381 . S
C3196 C3202 1.383 . S
C3197 C3193 1.495 . S
C3197 H3203 0.959 . S
C3197 H3204 0.961 . S
C3197 H3205 0.960 . S
C3198 C3196 1.381 . S
C3198 C3199 1.394 . S
C3198 H3206 0.930 . S
C3199 C3198 1.394 . S
C3199 C3200 1.383 . S
C3199 H3207 0.929 . S
C3200 C3199 1.383 . S
C3200 C3201 1.377 . S
C3201 H3185 0.930 . S
C3201 C3200 1.377 . S
C3201 C3202 1.379 . S
C3202 H3186 0.931 . S
C3202 C3196 1.383 . S
C3202 C3201 1.379 . S
H3203 C3197 0.959 . S
H3204 C3197 0.961 . S
H3205 C3197 0.960 . S
H3206 C3198 0.930 . S
H3207 C3199 0.929 . S
H3208 C3216 0.929 . S
H3209 C3218 0.930 . S
H3210 C3220 0.930 . S
H3211 C3223 0.929 . S
H3212 C3226 0.930 . S
H3213 C3228 0.960 . S
H3214 C3228 0.960 . S
H3215 C3228 0.960 . S
C3216 H3208 0.929 . S
C3216 C3217 1.377 . S
C3216 C3218 1.384 . S
C3217 C3216 1.377 . S
C3217 C3223 1.390 . S
C3218 H3209 0.930 . S
C3218 C3216 1.384 . S
C3218 C3219 1.372 . S
C3219 C3218 1.372 . S
C3219 C3220 1.400 . S
C3219 C3224 1.490 . S
C3220 H3210 0.930 . S
C3220 C3219 1.400 . S
C3220 C3223 1.386 . S
H3221 C3237 0.930 . S
H3222 C3238 0.931 . S
C3223 H3211 0.929 . S
C3223 C3217 1.390 . S
C3223 C3220 1.386 . S
C3224 C3219 1.490 . S
C3224 C3226 1.395 . S
C3224 C3227 1.403 . S
H3225 C3231 0.930 . S
C3226 H3212 0.930 . S
C3226 C3224 1.395 . S
C3226 C3229 1.403 . S
C3227 C3224 1.403 . S
C3227 C3228 1.524 . S
C3227 C3231 1.400 . S
C3228 H3213 0.960 . S
C3228 H3214 0.960 . S
C3228 H3215 0.960 . S
C3228 C3227 1.524 . S
C3229 C3226 1.403 . S
C3229 C3230 1.392 . S
C3229 C3233 1.495 . S
C3230 C3229 1.392 . S
C3230 C3231 1.385 . S
C3230 C3232 1.478 . S
C3231 H3225 0.930 . S
C3231 C3227 1.400 . S
C3231 C3230 1.385 . S
C3232 C3230 1.478 . S
C3232 C3234 1.381 . S
C3232 C3238 1.383 . S
C3233 C3229 1.495 . S
C3233 H3239 0.959 . S
C3233 H3240 0.961 . S
C3233 H3241 0.960 . S
C3234 C3232 1.381 . S
C3234 C3235 1.394 . S
C3234 H3242 0.930 . S
C3235 C3234 1.394 . S
C3235 C3236 1.383 . S
C3235 H3243 0.929 . S
C3236 C3235 1.383 . S
C3236 C3237 1.377 . S
C3237 H3221 0.930 . S
C3237 C3236 1.377 . S
C3237 C3238 1.379 . S
C3238 H3222 0.931 . S
C3238 C3232 1.383 . S
C3238 C3237 1.379 . S
H3239 C3233 0.959 . S
H3240 C3233 0.961 . S
H3241 C3233 0.960 . S
H3242 C3234 0.930 . S
H3243 C3235 0.929 . S
H3244 C3252 0.929 . S
H3245 C3254 0.930 . S
H3246 C3256 0.930 . S
H3247 C3259 0.929 . S
H3248 C3262 0.930 . S
H3249 C3264 0.960 . S
H3250 C3264 0.960 . S
H3251 C3264 0.960 . S
C3252 H3244 0.929 . S
C3252 C3253 1.377 . S
C3252 C3254 1.384 . S
C3253 C3252 1.377 . S
C3253 C3259 1.390 . S
C3254 H3245 0.930 . S
C3254 C3252 1.384 . S
C3254 C3255 1.372 . S
C3255 C3254 1.372 . S
C3255 C3256 1.400 . S
C3255 C3260 1.490 . S
C3256 H3246 0.930 . S
C3256 C3255 1.400 . S
C3256 C3259 1.386 . S
H3257 C3273 0.930 . S
H3258 C3274 0.931 . S
C3259 H3247 0.929 . S
C3259 C3253 1.390 . S
C3259 C3256 1.386 . S
C3260 C3255 1.490 . S
C3260 C3262 1.395 . S
C3260 C3263 1.403 . S
H3261 C3267 0.930 . S
C3262 H3248 0.930 . S
C3262 C3260 1.395 . S
C3262 C3265 1.403 . S
C3263 C3260 1.403 . S
C3263 C3264 1.524 . S
C3263 C3267 1.400 . S
C3264 H3249 0.960 . S
C3264 H3250 0.960 . S
C3264 H3251 0.960 . S
C3264 C3263 1.524 . S
C3265 C3262 1.403 . S
C3265 C3266 1.392 . S
C3265 C3269 1.495 . S
C3266 C3265 1.392 . S
C3266 C3267 1.385 . S
C3266 C3268 1.478 . S
C3267 H3261 0.930 . S
C3267 C3263 1.400 . S
C3267 C3266 1.385 . S
C3268 C3266 1.478 . S
C3268 C3270 1.381 . S
C3268 C3274 1.383 . S
C3269 C3265 1.495 . S
C3269 H3275 0.959 . S
C3269 H3276 0.961 . S
C3269 H3277 0.960 . S
C3270 C3268 1.381 . S
C3270 C3271 1.394 . S
C3270 H3278 0.930 . S
C3271 C3270 1.394 . S
C3271 C3272 1.383 . S
C3271 H3279 0.929 . S
C3272 C3271 1.383 . S
C3272 C3273 1.377 . S
C3273 H3257 0.930 . S
C3273 C3272 1.377 . S
C3273 C3274 1.379 . S
C3274 H3258 0.931 . S
C3274 C3268 1.383 . S
C3274 C3273 1.379 . S
H3275 C3269 0.959 . S
H3276 C3269 0.961 . S
H3277 C3269 0.960 . S
H3278 C3270 0.930 . S
H3279 C3271 0.929 . S
H3280 C3288 0.929 . S
H3281 C3290 0.930 . S
H3282 C3292 0.930 . S
H3283 C3295 0.929 . S
H3284 C3298 0.930 . S
H3285 C3300 0.960 . S
H3286 C3300 0.960 . S
H3287 C3300 0.960 . S
C3288 H3280 0.929 . S
C3288 C3289 1.377 . S
C3288 C3290 1.384 . S
C3289 C3288 1.377 . S
C3289 C3295 1.390 . S
C3290 H3281 0.930 . S
C3290 C3288 1.384 . S
C3290 C3291 1.372 . S
C3291 C3290 1.372 . S
C3291 C3292 1.400 . S
C3291 C3296 1.490 . S
C3292 H3282 0.930 . S
C3292 C3291 1.400 . S
C3292 C3295 1.386 . S
H3293 C3309 0.930 . S
H3294 C3310 0.931 . S
C3295 H3283 0.929 . S
C3295 C3289 1.390 . S
C3295 C3292 1.386 . S
C3296 C3291 1.490 . S
C3296 C3298 1.395 . S
C3296 C3299 1.403 . S
H3297 C3303 0.930 . S
C3298 H3284 0.930 . S
C3298 C3296 1.395 . S
C3298 C3301 1.403 . S
C3299 C3296 1.403 . S
C3299 C3300 1.524 . S
C3299 C3303 1.400 . S
C3300 H3285 0.960 . S
C3300 H3286 0.960 . S
C3300 H3287 0.960 . S
C3300 C3299 1.524 . S
C3301 C3298 1.403 . S
C3301 C3302 1.392 . S
C3301 C3305 1.495 . S
C3302 C3301 1.392 . S
C3302 C3303 1.385 . S
C3302 C3304 1.478 . S
C3303 H3297 0.930 . S
C3303 C3299 1.400 . S
C3303 C3302 1.385 . S
C3304 C3302 1.478 . S
C3304 C3306 1.381 . S
C3304 C3310 1.383 . S
C3305 C3301 1.495 . S
C3305 H3311 0.959 . S
C3305 H3312 0.961 . S
C3305 H3313 0.960 . S
C3306 C3304 1.381 . S
C3306 C3307 1.394 . S
C3306 H3314 0.930 . S
C3307 C3306 1.394 . S
C3307 C3308 1.383 . S
C3307 H3315 0.929 . S
C3308 C3307 1.383 . S
C3308 C3309 1.377 . S
C3309 H3293 0.930 . S
C3309 C3308 1.377 . S
C3309 C3310 1.379 . S
C3310 H3294 0.931 . S
C3310 C3304 1.383 . S
C3310 C3309 1.379 . S
H3311 C3305 0.959 . S
H3312 C3305 0.961 . S
H3313 C3305 0.960 . S
H3314 C3306 0.930 . S
H3315 C3307 0.929 . S
H3316 C3324 0.929 . S
H3317 C3326 0.930 . S
H3318 C3328 0.930 . S
H3319 C3331 0.929 . S
H3320 C3334 0.930 . S
H3321 C3336 0.960 . S
H3322 C3336 0.960 . S
H3323 C3336 0.960 . S
C3324 H3316 0.929 . S
C3324 C3325 1.377 . S
C3324 C3326 1.384 . S
C3325 C3324 1.377 . S
C3325 C3331 1.390 . S
C3326 H3317 0.930 . S
C3326 C3324 1.384 . S
C3326 C3327 1.372 . S
C3327 C3326 1.372 . S
C3327 C3328 1.400 . S
C3327 C3332 1.490 . S
C3328 H3318 0.930 . S
C3328 C3327 1.400 . S
C3328 C3331 1.386 . S
H3329 C3345 0.930 . S
H3330 C3346 0.931 . S
C3331 H3319 0.929 . S
C3331 C3325 1.390 . S
C3331 C3328 1.386 . S
C3332 C3327 1.490 . S
C3332 C3334 1.395 . S
C3332 C3335 1.403 . S
H3333 C3339 0.930 . S
C3334 H3320 0.930 . S
C3334 C3332 1.395 . S
C3334 C3337 1.403 . S
C3335 C3332 1.403 . S
C3335 C3336 1.524 . S
C3335 C3339 1.400 . S
C3336 H3321 0.960 . S
C3336 H3322 0.960 . S
C3336 H3323 0.960 . S
C3336 C3335 1.524 . S
C3337 C3334 1.403 . S
C3337 C3338 1.392 . S
C3337 C3341 1.495 . S
C3338 C3337 1.392 . S
C3338 C3339 1.385 . S
C3338 C3340 1.478 . S
C3339 H3333 0.930 . S
C3339 C3335 1.400 . S
C3339 C3338 1.385 . S
C3340 C3338 1.478 . S
C3340 C3342 1.381 . S
C3340 C3346 1.383 . S
C3341 C3337 1.495 . S
C3341 H3347 0.959 . S
C3341 H3348 0.961 . S
C3341 H3349 0.960 . S
C3342 C3340 1.381 . S
C3342 C3343 1.394 . S
C3342 H3350 0.930 . S
C3343 C3342 1.394 . S
C3343 C3344 1.383 . S
C3343 H3351 0.929 . S
C3344 C3343 1.383 . S
C3344 C3345 1.377 . S
C3345 H3329 0.930 . S
C3345 C3344 1.377 . S
C3345 C3346 1.379 . S
C3346 H3330 0.931 . S
C3346 C3340 1.383 . S
C3346 C3345 1.379 . S
H3347 C3341 0.959 . S
H3348 C3341 0.961 . S
H3349 C3341 0.960 . S
H3350 C3342 0.930 . S
H3351 C3343 0.929 . S
H3352 C3360 0.929 . S
H3353 C3362 0.930 . S
H3354 C3364 0.930 . S
H3355 C3367 0.929 . S
H3356 C3370 0.930 . S
H3357 C3372 0.960 . S
H3358 C3372 0.960 . S
H3359 C3372 0.960 . S
C3360 H3352 0.929 . S
C3360 C3361 1.377 . S
C3360 C3362 1.384 . S
C3361 C3360 1.377 . S
C3361 C3367 1.390 . S
C3362 H3353 0.930 . S
C3362 C3360 1.384 . S
C3362 C3363 1.372 . S
C3363 C3362 1.372 . S
C3363 C3364 1.400 . S
C3363 C3368 1.490 . S
C3364 H3354 0.930 . S
C3364 C3363 1.400 . S
C3364 C3367 1.386 . S
H3365 C3381 0.930 . S
H3366 C3382 0.931 . S
C3367 H3355 0.929 . S
C3367 C3361 1.390 . S
C3367 C3364 1.386 . S
C3368 C3363 1.490 . S
C3368 C3370 1.395 . S
C3368 C3371 1.403 . S
H3369 C3375 0.930 . S
C3370 H3356 0.930 . S
C3370 C3368 1.395 . S
C3370 C3373 1.403 . S
C3371 C3368 1.403 . S
C3371 C3372 1.524 . S
C3371 C3375 1.400 . S
C3372 H3357 0.960 . S
C3372 H3358 0.960 . S
C3372 H3359 0.960 . S
C3372 C3371 1.524 . S
C3373 C3370 1.403 . S
C3373 C3374 1.392 . S
C3373 C3377 1.495 . S
C3374 C3373 1.392 . S
C3374 C3375 1.385 . S
C3374 C3376 1.478 . S
C3375 H3369 0.930 . S
C3375 C3371 1.400 . S
C3375 C3374 1.385 . S
C3376 C3374 1.478 . S
C3376 C3378 1.381 . S
C3376 C3382 1.383 . S
C3377 C3373 1.495 . S
C3377 H3383 0.959 . S
C3377 H3384 0.961 . S
C3377 H3385 0.960 . S
C3378 C3376 1.381 . S
C3378 C3379 1.394 . S
C3378 H3386 0.930 . S
C3379 C3378 1.394 . S
C3379 C3380 1.383 . S
C3379 H3387 0.929 . S
C3380 C3379 1.383 . S
C3380 C3381 1.377 . S
C3381 H3365 0.930 . S
C3381 C3380 1.377 . S
C3381 C3382 1.379 . S
C3382 H3366 0.931 . S
C3382 C3376 1.383 . S
C3382 C3381 1.379 . S
H3383 C3377 0.959 . S
H3384 C3377 0.961 . S
H3385 C3377 0.960 . S
H3386 C3378 0.930 . S
H3387 C3379 0.929 . S
H3388 C3396 0.929 . S
H3389 C3398 0.930 . S
H3390 C3400 0.930 . S
H3391 C3403 0.929 . S
H3392 C3406 0.930 . S
H3393 C3408 0.960 . S
H3394 C3408 0.960 . S
H3395 C3408 0.960 . S
C3396 H3388 0.929 . S
C3396 C3397 1.377 1_556 S
C3396 C3398 1.384 . S
C3397 C3396 1.377 1_554 S
C3397 C3403 1.390 . S
C3398 H3389 0.930 . S
C3398 C3396 1.384 . S
C3398 C3399 1.372 1_556 S
C3399 C3398 1.372 1_554 S
C3399 C3400 1.400 . S
C3399 C3404 1.490 . S
C3400 H3390 0.930 . S
C3400 C3399 1.400 . S
C3400 C3403 1.386 . S
H3401 C3417 0.930 . S
H3402 C3418 0.933 1_565 S
C3403 H3391 0.929 . S
C3403 C3397 1.390 . S
C3403 C3400 1.386 . S
C3404 C3399 1.490 . S
C3404 C3406 1.395 . S
C3404 C3407 1.403 . S
H3405 C3411 0.930 . S
C3406 H3392 0.930 . S
C3406 C3404 1.395 . S
C3406 C3409 1.403 . S
C3407 C3404 1.403 . S
C3407 C3408 1.524 . S
C3407 C3411 1.400 . S
C3408 H3393 0.960 . S
C3408 H3394 0.960 . S
C3408 H3395 0.960 . S
C3408 C3407 1.524 . S
C3409 C3406 1.403 . S
C3409 C3410 1.392 . S
C3409 C3413 1.495 1_565 S
C3410 C3409 1.392 . S
C3410 C3411 1.385 . S
C3410 C3412 1.485 . S
C3411 H3405 0.930 . S
C3411 C3407 1.400 . S
C3411 C3410 1.385 . S
C3412 C3410 1.485 . S
C3412 C3414 1.373 1_565 S
C3412 C3418 1.386 1_565 S
C3413 C3409 1.495 1_545 S
C3413 H3419 0.959 . S
C3413 H3420 0.961 . S
C3413 H3421 1.000 . S
C3414 C3412 1.373 1_545 S
C3414 C3415 1.394 . S
C3414 H3422 0.930 1_554 S
C3415 C3414 1.394 . S
C3415 C3416 1.383 . S
C3415 H3423 0.929 1_554 S
C3416 C3415 1.383 . S
C3416 C3417 1.377 . S
C3417 H3401 0.930 . S
C3417 C3416 1.377 . S
C3417 C3418 1.379 . S
C3418 H3402 0.933 1_545 S
C3418 C3412 1.386 1_545 S
C3418 C3417 1.379 . S
H3419 C3413 0.959 . S
H3420 C3413 0.961 . S
H3421 C3413 1.000 . S
H3422 C3414 0.930 1_556 S
H3423 C3415 0.929 1_556 S
H3424 C3432 0.929 . S
H3425 C3434 0.930 . S
H3426 C3436 0.930 . S
H3427 C3439 0.929 . S
H3428 C3442 0.930 . S
H3429 C3444 0.960 . S
H3430 C3444 0.960 . S
H3431 C3444 0.960 . S
C3432 H3424 0.929 . S
C3432 C3433 1.377 . S
C3432 C3434 1.384 . S
C3433 C3432 1.377 . S
C3433 C3439 1.390 . S
C3434 H3425 0.930 . S
C3434 C3432 1.384 . S
C3434 C3435 1.372 . S
C3435 C3434 1.372 . S
C3435 C3436 1.400 . S
C3435 C3440 1.490 . S
C3436 H3426 0.930 . S
C3436 C3435 1.400 . S
C3436 C3439 1.386 . S
H3437 C3453 0.930 . S
H3438 C3454 0.931 . S
C3439 H3427 0.929 . S
C3439 C3433 1.390 . S
C3439 C3436 1.386 . S
C3440 C3435 1.490 . S
C3440 C3442 1.395 . S
C3440 C3443 1.403 . S
H3441 C3447 0.930 . S
C3442 H3428 0.930 . S
C3442 C3440 1.395 . S
C3442 C3445 1.403 . S
C3443 C3440 1.403 . S
C3443 C3444 1.524 . S
C3443 C3447 1.400 . S
C3444 H3429 0.960 . S
C3444 H3430 0.960 . S
C3444 H3431 0.960 . S
C3444 C3443 1.524 . S
C3445 C3442 1.403 . S
C3445 C3446 1.392 . S
C3445 C3449 1.495 . S
C3446 C3445 1.392 . S
C3446 C3447 1.385 . S
C3446 C3448 1.478 . S
C3447 H3441 0.930 . S
C3447 C3443 1.400 . S
C3447 C3446 1.385 . S
C3448 C3446 1.478 . S
C3448 C3450 1.381 . S
C3448 C3454 1.383 . S
C3449 C3445 1.495 . S
C3449 H3455 0.959 . S
C3449 H3456 0.961 . S
C3449 H3457 0.960 . S
C3450 C3448 1.381 . S
C3450 C3451 1.394 . S
C3450 H3458 0.930 . S
C3451 C3450 1.394 . S
C3451 C3452 1.383 . S
C3451 H3459 0.929 . S
C3452 C3451 1.383 . S
C3452 C3453 1.377 . S
C3453 H3437 0.930 . S
C3453 C3452 1.377 . S
C3453 C3454 1.379 . S
C3454 H3438 0.931 . S
C3454 C3448 1.383 . S
C3454 C3453 1.379 . S
H3455 C3449 0.959 . S
H3456 C3449 0.961 . S
H3457 C3449 0.960 . S
H3458 C3450 0.930 . S
H3459 C3451 0.929 . S
H3460 C3468 0.929 . S
H3461 C3470 0.930 . S
H3462 C3472 0.930 . S
H3463 C3475 0.929 . S
H3464 C3478 0.930 . S
H3465 C3480 0.960 1_556 S
H3466 C3480 0.960 . S
H3467 C3480 0.960 1_556 S
C3468 H3460 0.929 . S
C3468 C3469 1.377 . S
C3468 C3470 1.384 . S
C3469 C3468 1.377 . S
C3469 C3475 1.390 . S
C3470 H3461 0.930 . S
C3470 C3468 1.384 . S
C3470 C3471 1.372 . S
C3471 C3470 1.372 . S
C3471 C3472 1.400 . S
C3471 C3476 1.490 . S
C3472 H3462 0.930 . S
C3472 C3471 1.400 . S
C3472 C3475 1.386 . S
H3473 C3489 0.930 . S
H3474 C3490 0.931 . S
C3475 H3463 0.929 . S
C3475 C3469 1.390 . S
C3475 C3472 1.386 . S
C3476 C3471 1.490 . S
C3476 C3478 1.395 . S
C3476 C3479 1.403 . S
H3477 C3483 0.930 . S
C3478 H3464 0.930 . S
C3478 C3476 1.395 . S
C3478 C3481 1.403 . S
C3479 C3476 1.403 . S
C3479 C3480 1.524 . S
C3479 C3483 1.400 . S
C3480 H3465 0.960 1_554 S
C3480 H3466 0.960 . S
C3480 H3467 0.960 1_554 S
C3480 C3479 1.524 . S
C3481 C3478 1.403 . S
C3481 C3482 1.392 . S
C3481 C3485 1.495 . S
C3482 C3481 1.392 . S
C3482 C3483 1.385 . S
C3482 C3484 1.478 . S
C3483 H3477 0.930 . S
C3483 C3479 1.400 . S
C3483 C3482 1.385 . S
C3484 C3482 1.478 . S
C3484 C3486 1.381 . S
C3484 C3490 1.383 . S
C3485 C3481 1.495 . S
C3485 H3491 0.959 . S
C3485 H3492 0.961 . S
C3485 H3493 0.960 . S
C3486 C3484 1.381 . S
C3486 C3487 1.394 . S
C3486 H3494 0.930 . S
C3487 C3486 1.394 . S
C3487 C3488 1.383 . S
C3487 H3495 0.929 . S
C3488 C3487 1.383 . S
C3488 C3489 1.377 . S
C3489 H3473 0.930 . S
C3489 C3488 1.377 . S
C3489 C3490 1.379 . S
C3490 H3474 0.931 . S
C3490 C3484 1.383 . S
C3490 C3489 1.379 . S
H3491 C3485 0.959 . S
H3492 C3485 0.961 . S
H3493 C3485 0.960 . S
H3494 C3486 0.930 . S
H3495 C3487 0.929 . S
H3496 C3504 0.929 . S
H3497 C3506 0.930 . S
H3498 C3508 0.930 . S
H3499 C3511 0.929 . S
H3500 C3514 0.930 . S
H3501 C3516 0.960 . S
H3502 C3516 0.960 . S
H3503 C3516 0.960 . S
C3504 H3496 0.929 . S
C3504 C3505 1.377 . S
C3504 C3506 1.384 . S
C3505 C3504 1.377 . S
C3505 C3511 1.390 . S
C3506 H3497 0.930 . S
C3506 C3504 1.384 . S
C3506 C3507 1.372 . S
C3507 C3506 1.372 . S
C3507 C3508 1.400 . S
C3507 C3512 1.490 . S
C3508 H3498 0.930 . S
C3508 C3507 1.400 . S
C3508 C3511 1.386 . S
H3509 C3525 0.930 . S
H3510 C3526 0.931 . S
C3511 H3499 0.929 . S
C3511 C3505 1.390 . S
C3511 C3508 1.386 . S
C3512 C3507 1.490 . S
C3512 C3514 1.395 . S
C3512 C3515 1.403 . S
H3513 C3519 0.930 . S
C3514 H3500 0.930 . S
C3514 C3512 1.395 . S
C3514 C3517 1.403 . S
C3515 C3512 1.403 . S
C3515 C3516 1.524 . S
C3515 C3519 1.400 . S
C3516 H3501 0.960 . S
C3516 H3502 0.960 . S
C3516 H3503 0.960 . S
C3516 C3515 1.524 . S
C3517 C3514 1.403 . S
C3517 C3518 1.392 . S
C3517 C3521 1.495 . S
C3518 C3517 1.392 . S
C3518 C3519 1.385 . S
C3518 C3520 1.478 . S
C3519 H3513 0.930 . S
C3519 C3515 1.400 . S
C3519 C3518 1.385 . S
C3520 C3518 1.478 . S
C3520 C3522 1.381 . S
C3520 C3526 1.383 . S
C3521 C3517 1.495 . S
C3521 H3527 0.959 . S
C3521 H3528 0.961 . S
C3521 H3529 0.960 . S
C3522 C3520 1.381 . S
C3522 C3523 1.394 . S
C3522 H3530 0.930 . S
C3523 C3522 1.394 . S
C3523 C3524 1.383 . S
C3523 H3531 0.929 . S
C3524 C3523 1.383 . S
C3524 C3525 1.377 . S
C3525 H3509 0.930 . S
C3525 C3524 1.377 . S
C3525 C3526 1.379 . S
C3526 H3510 0.931 . S
C3526 C3520 1.383 . S
C3526 C3525 1.379 . S
H3527 C3521 0.959 . S
H3528 C3521 0.961 . S
H3529 C3521 0.960 . S
H3530 C3522 0.930 . S
H3531 C3523 0.929 . S
H3532 C3540 0.929 . S
H3533 C3542 0.930 . S
H3534 C3544 0.930 . S
H3535 C3547 0.929 . S
H3536 C3550 0.930 . S
H3537 C3552 0.960 . S
H3538 C3552 0.960 . S
H3539 C3552 0.960 . S
C3540 H3532 0.929 . S
C3540 C3541 1.377 . S
C3540 C3542 1.384 . S
C3541 C3540 1.377 . S
C3541 C3547 1.390 . S
C3542 H3533 0.930 . S
C3542 C3540 1.384 . S
C3542 C3543 1.372 . S
C3543 C3542 1.372 . S
C3543 C3544 1.400 . S
C3543 C3548 1.490 . S
C3544 H3534 0.930 . S
C3544 C3543 1.400 . S
C3544 C3547 1.386 . S
H3545 C3561 0.930 . S
H3546 C3562 0.931 . S
C3547 H3535 0.929 . S
C3547 C3541 1.390 . S
C3547 C3544 1.386 . S
C3548 C3543 1.490 . S
C3548 C3550 1.395 . S
C3548 C3551 1.403 . S
H3549 C3555 0.930 . S
C3550 H3536 0.930 . S
C3550 C3548 1.395 . S
C3550 C3553 1.403 . S
C3551 C3548 1.403 . S
C3551 C3552 1.524 . S
C3551 C3555 1.400 . S
C3552 H3537 0.960 . S
C3552 H3538 0.960 . S
C3552 H3539 0.960 . S
C3552 C3551 1.524 . S
C3553 C3550 1.403 . S
C3553 C3554 1.392 . S
C3553 C3557 1.495 . S
C3554 C3553 1.392 . S
C3554 C3555 1.385 . S
C3554 C3556 1.478 . S
C3555 H3549 0.930 . S
C3555 C3551 1.400 . S
C3555 C3554 1.385 . S
C3556 C3554 1.478 . S
C3556 C3558 1.381 . S
C3556 C3562 1.383 . S
C3557 C3553 1.495 . S
C3557 H3563 0.959 . S
C3557 H3564 0.961 . S
C3557 H3565 0.960 . S
C3558 C3556 1.381 . S
C3558 C3559 1.394 . S
C3558 H3566 0.930 . S
C3559 C3558 1.394 . S
C3559 C3560 1.383 . S
C3559 H3567 0.929 . S
C3560 C3559 1.383 . S
C3560 C3561 1.377 . S
C3561 H3545 0.930 . S
C3561 C3560 1.377 . S
C3561 C3562 1.379 . S
C3562 H3546 0.931 . S
C3562 C3556 1.383 . S
C3562 C3561 1.379 . S
H3563 C3557 0.959 . S
H3564 C3557 0.961 . S
H3565 C3557 0.960 . S
H3566 C3558 0.930 . S
H3567 C3559 0.929 . S
H3568 C3576 0.929 . S
H3569 C3578 0.930 . S
H3570 C3580 0.930 . S
H3571 C3583 0.929 . S
H3572 C3586 0.930 . S
H3573 C3588 0.960 . S
H3574 C3588 0.960 . S
H3575 C3588 0.960 . S
C3576 H3568 0.929 . S
C3576 C3577 1.377 . S
C3576 C3578 1.384 . S
C3577 C3576 1.377 . S
C3577 C3583 1.390 . S
C3578 H3569 0.930 . S
C3578 C3576 1.384 . S
C3578 C3579 1.372 . S
C3579 C3578 1.372 . S
C3579 C3580 1.400 . S
C3579 C3584 1.490 . S
C3580 H3570 0.930 . S
C3580 C3579 1.400 . S
C3580 C3583 1.386 . S
H3581 C3597 0.930 . S
H3582 C3598 0.931 . S
C3583 H3571 0.929 . S
C3583 C3577 1.390 . S
C3583 C3580 1.386 . S
C3584 C3579 1.490 . S
C3584 C3586 1.395 . S
C3584 C3587 1.403 . S
H3585 C3591 0.930 . S
C3586 H3572 0.930 . S
C3586 C3584 1.395 . S
C3586 C3589 1.403 . S
C3587 C3584 1.403 . S
C3587 C3588 1.524 . S
C3587 C3591 1.400 . S
C3588 H3573 0.960 . S
C3588 H3574 0.960 . S
C3588 H3575 0.960 . S
C3588 C3587 1.524 . S
C3589 C3586 1.403 . S
C3589 C3590 1.392 . S
C3589 C3593 1.495 . S
C3590 C3589 1.392 . S
C3590 C3591 1.385 . S
C3590 C3592 1.478 . S
C3591 H3585 0.930 . S
C3591 C3587 1.400 . S
C3591 C3590 1.385 . S
C3592 C3590 1.478 . S
C3592 C3594 1.381 . S
C3592 C3598 1.383 . S
C3593 C3589 1.495 . S
C3593 H3599 0.959 . S
C3593 H3600 0.961 . S
C3593 H3601 0.960 . S
C3594 C3592 1.381 . S
C3594 C3595 1.394 . S
C3594 H3602 0.930 . S
C3595 C3594 1.394 . S
C3595 C3596 1.383 . S
C3595 H3603 0.929 . S
C3596 C3595 1.383 . S
C3596 C3597 1.377 . S
C3597 H3581 0.930 . S
C3597 C3596 1.377 . S
C3597 C3598 1.379 . S
C3598 H3582 0.931 . S
C3598 C3592 1.383 . S
C3598 C3597 1.379 . S
H3599 C3593 0.959 . S
H3600 C3593 0.961 . S
H3601 C3593 0.960 . S
H3602 C3594 0.930 . S
H3603 C3595 0.929 . S
H3604 C3612 0.929 . S
H3605 C3614 0.930 . S
H3606 C3616 0.930 . S
H3607 C3619 0.929 . S
H3608 C3622 0.930 . S
H3609 C3624 0.960 . S
H3610 C3624 0.960 . S
H3611 C3624 0.960 . S
C3612 H3604 0.929 . S
C3612 C3613 1.377 . S
C3612 C3614 1.384 . S
C3613 C3612 1.377 . S
C3613 C3619 1.390 . S
C3614 H3605 0.930 . S
C3614 C3612 1.384 . S
C3614 C3615 1.372 . S
C3615 C3614 1.372 . S
C3615 C3616 1.400 . S
C3615 C3620 1.490 . S
C3616 H3606 0.930 . S
C3616 C3615 1.400 . S
C3616 C3619 1.386 . S
H3617 C3633 0.930 . S
H3618 C3634 0.931 . S
C3619 H3607 0.929 . S
C3619 C3613 1.390 . S
C3619 C3616 1.386 . S
C3620 C3615 1.490 . S
C3620 C3622 1.395 . S
C3620 C3623 1.403 . S
H3621 C3627 0.930 . S
C3622 H3608 0.930 . S
C3622 C3620 1.395 . S
C3622 C3625 1.403 . S
C3623 C3620 1.403 . S
C3623 C3624 1.524 . S
C3623 C3627 1.400 . S
C3624 H3609 0.960 . S
C3624 H3610 0.960 . S
C3624 H3611 0.960 . S
C3624 C3623 1.524 . S
C3625 C3622 1.403 . S
C3625 C3626 1.392 . S
C3625 C3629 1.495 . S
C3626 C3625 1.392 . S
C3626 C3627 1.385 . S
C3626 C3628 1.478 . S
C3627 H3621 0.930 . S
C3627 C3623 1.400 . S
C3627 C3626 1.385 . S
C3628 C3626 1.478 . S
C3628 C3630 1.381 . S
C3628 C3634 1.383 . S
C3629 C3625 1.495 . S
C3629 H3635 0.959 . S
C3629 H3636 0.961 . S
C3629 H3637 0.960 . S
C3630 C3628 1.381 . S
C3630 C3631 1.394 . S
C3630 H3638 0.930 . S
C3631 C3630 1.394 . S
C3631 C3632 1.383 . S
C3631 H3639 0.929 . S
C3632 C3631 1.383 . S
C3632 C3633 1.377 . S
C3633 H3617 0.930 . S
C3633 C3632 1.377 . S
C3633 C3634 1.379 . S
C3634 H3618 0.931 . S
C3634 C3628 1.383 . S
C3634 C3633 1.379 . S
H3635 C3629 0.959 . S
H3636 C3629 0.961 . S
H3637 C3629 0.960 . S
H3638 C3630 0.930 . S
H3639 C3631 0.929 . S
H3640 C3648 0.929 . S
H3641 C3650 0.930 . S
H3642 C3652 0.930 . S
H3643 C3655 0.929 . S
H3644 C3658 0.930 . S
H3645 C3660 0.960 . S
H3646 C3660 0.960 . S
H3647 C3660 0.960 . S
C3648 H3640 0.929 . S
C3648 C3649 1.377 . S
C3648 C3650 1.384 . S
C3649 C3648 1.377 . S
C3649 C3655 1.390 . S
C3650 H3641 0.930 . S
C3650 C3648 1.384 . S
C3650 C3651 1.372 . S
C3651 C3650 1.372 . S
C3651 C3652 1.400 . S
C3651 C3656 1.490 . S
C3652 H3642 0.930 . S
C3652 C3651 1.400 . S
C3652 C3655 1.386 . S
H3653 C3669 0.930 . S
H3654 C3670 0.931 . S
C3655 H3643 0.929 . S
C3655 C3649 1.390 . S
C3655 C3652 1.386 . S
C3656 C3651 1.490 . S
C3656 C3658 1.395 . S
C3656 C3659 1.403 . S
H3657 C3663 0.930 . S
C3658 H3644 0.930 . S
C3658 C3656 1.395 . S
C3658 C3661 1.403 . S
C3659 C3656 1.403 . S
C3659 C3660 1.524 . S
C3659 C3663 1.400 . S
C3660 H3645 0.960 . S
C3660 H3646 0.960 . S
C3660 H3647 0.960 . S
C3660 C3659 1.524 . S
C3661 C3658 1.403 . S
C3661 C3662 1.392 . S
C3661 C3665 1.495 . S
C3662 C3661 1.392 . S
C3662 C3663 1.385 . S
C3662 C3664 1.478 . S
C3663 H3657 0.930 . S
C3663 C3659 1.400 . S
C3663 C3662 1.385 . S
C3664 C3662 1.478 . S
C3664 C3666 1.381 . S
C3664 C3670 1.383 . S
C3665 C3661 1.495 . S
C3665 H3671 0.959 . S
C3665 H3672 0.961 . S
C3665 H3673 0.960 . S
C3666 C3664 1.381 . S
C3666 C3667 1.394 . S
C3666 H3674 0.930 . S
C3667 C3666 1.394 . S
C3667 C3668 1.383 . S
C3667 H3675 0.929 . S
C3668 C3667 1.383 . S
C3668 C3669 1.377 . S
C3669 H3653 0.930 . S
C3669 C3668 1.377 . S
C3669 C3670 1.379 . S
C3670 H3654 0.931 . S
C3670 C3664 1.383 . S
C3670 C3669 1.379 . S
H3671 C3665 0.959 . S
H3672 C3665 0.961 . S
H3673 C3665 0.960 . S
H3674 C3666 0.930 . S
H3675 C3667 0.929 . S
H3676 C3684 0.929 . S
H3677 C3686 0.930 . S
H3678 C3688 0.930 . S
H3679 C3691 0.929 . S
H3680 C3694 0.930 . S
H3681 C3696 0.960 . S
H3682 C3696 0.960 . S
H3683 C3696 0.960 . S
C3684 H3676 0.929 . S
C3684 C3685 1.377 . S
C3684 C3686 1.384 . S
C3685 C3684 1.377 . S
C3685 C3691 1.390 . S
C3686 H3677 0.930 . S
C3686 C3684 1.384 . S
C3686 C3687 1.372 . S
C3687 C3686 1.372 . S
C3687 C3688 1.400 . S
C3687 C3692 1.490 . S
C3688 H3678 0.930 . S
C3688 C3687 1.400 . S
C3688 C3691 1.386 . S
H3689 C3705 0.930 . S
H3690 C3706 0.931 . S
C3691 H3679 0.929 . S
C3691 C3685 1.390 . S
C3691 C3688 1.386 . S
C3692 C3687 1.490 . S
C3692 C3694 1.395 . S
C3692 C3695 1.403 . S
H3693 C3699 0.930 . S
C3694 H3680 0.930 . S
C3694 C3692 1.395 . S
C3694 C3697 1.403 . S
C3695 C3692 1.403 . S
C3695 C3696 1.524 . S
C3695 C3699 1.400 . S
C3696 H3681 0.960 . S
C3696 H3682 0.960 . S
C3696 H3683 0.960 . S
C3696 C3695 1.524 . S
C3697 C3694 1.403 . S
C3697 C3698 1.392 . S
C3697 C3701 1.495 . S
C3698 C3697 1.392 . S
C3698 C3699 1.385 . S
C3698 C3700 1.478 . S
C3699 H3693 0.930 . S
C3699 C3695 1.400 . S
C3699 C3698 1.385 . S
C3700 C3698 1.478 . S
C3700 C3702 1.381 . S
C3700 C3706 1.383 . S
C3701 C3697 1.495 . S
C3701 H3707 0.959 . S
C3701 H3708 0.961 . S
C3701 H3709 0.960 . S
C3702 C3700 1.381 . S
C3702 C3703 1.394 . S
C3702 H3710 0.930 . S
C3703 C3702 1.394 . S
C3703 C3704 1.383 . S
C3703 H3711 0.929 . S
C3704 C3703 1.383 . S
C3704 C3705 1.377 . S
C3705 H3689 0.930 . S
C3705 C3704 1.377 . S
C3705 C3706 1.379 . S
C3706 H3690 0.931 . S
C3706 C3700 1.383 . S
C3706 C3705 1.379 . S
H3707 C3701 0.959 . S
H3708 C3701 0.961 . S
H3709 C3701 0.960 . S
H3710 C3702 0.930 . S
H3711 C3703 0.929 . S
H3712 C3720 0.929 . S
H3713 C3722 0.930 . S
H3714 C3724 0.930 . S
H3715 C3727 0.929 . S
H3716 C3730 0.930 . S
H3717 C3732 0.960 . S
H3718 C3732 0.960 . S
H3719 C3732 0.960 . S
C3720 H3712 0.929 . S
C3720 C3721 1.377 . S
C3720 C3722 1.384 . S
C3721 C3720 1.377 . S
C3721 C3727 1.390 . S
C3722 H3713 0.930 . S
C3722 C3720 1.384 . S
C3722 C3723 1.372 . S
C3723 C3722 1.372 . S
C3723 C3724 1.400 . S
C3723 C3728 1.490 . S
C3724 H3714 0.930 . S
C3724 C3723 1.400 . S
C3724 C3727 1.386 . S
H3725 C3741 0.930 . S
H3726 C3742 0.931 . S
C3727 H3715 0.929 . S
C3727 C3721 1.390 . S
C3727 C3724 1.386 . S
C3728 C3723 1.490 . S
C3728 C3730 1.395 . S
C3728 C3731 1.403 . S
H3729 C3735 0.930 . S
C3730 H3716 0.930 . S
C3730 C3728 1.395 . S
C3730 C3733 1.403 . S
C3731 C3728 1.403 . S
C3731 C3732 1.524 . S
C3731 C3735 1.400 . S
C3732 H3717 0.960 . S
C3732 H3718 0.960 . S
C3732 H3719 0.960 . S
C3732 C3731 1.524 . S
C3733 C3730 1.403 . S
C3733 C3734 1.392 . S
C3733 C3737 1.495 . S
C3734 C3733 1.392 . S
C3734 C3735 1.385 . S
C3734 C3736 1.478 . S
C3735 H3729 0.930 . S
C3735 C3731 1.400 . S
C3735 C3734 1.385 . S
C3736 C3734 1.478 . S
C3736 C3738 1.381 . S
C3736 C3742 1.383 . S
C3737 C3733 1.495 . S
C3737 H3743 0.959 . S
C3737 H3744 0.961 . S
C3737 H3745 0.960 . S
C3738 C3736 1.381 . S
C3738 C3739 1.394 . S
C3738 H3746 0.930 . S
C3739 C3738 1.394 . S
C3739 C3740 1.383 . S
C3739 H3747 0.929 . S
C3740 C3739 1.383 . S
C3740 C3741 1.377 . S
C3741 H3725 0.930 . S
C3741 C3740 1.377 . S
C3741 C3742 1.379 . S
C3742 H3726 0.931 . S
C3742 C3736 1.383 . S
C3742 C3741 1.379 . S
H3743 C3737 0.959 . S
H3744 C3737 0.961 . S
H3745 C3737 0.960 . S
H3746 C3738 0.930 . S
H3747 C3739 0.929 . S
H3748 C3756 0.929 . S
H3749 C3758 0.930 . S
H3750 C3760 0.930 . S
H3751 C3763 0.929 . S
H3752 C3766 0.930 . S
H3753 C3768 0.960 . S
H3754 C3768 0.960 . S
H3755 C3768 0.960 . S
C3756 H3748 0.929 . S
C3756 C3757 1.377 . S
C3756 C3758 1.384 . S
C3757 C3756 1.377 . S
C3757 C3763 1.390 . S
C3758 H3749 0.930 . S
C3758 C3756 1.384 . S
C3758 C3759 1.372 . S
C3759 C3758 1.372 . S
C3759 C3760 1.400 . S
C3759 C3764 1.490 . S
C3760 H3750 0.930 . S
C3760 C3759 1.400 . S
C3760 C3763 1.386 . S
H3761 C3777 0.930 . S
H3762 C3778 0.931 . S
C3763 H3751 0.929 . S
C3763 C3757 1.390 . S
C3763 C3760 1.386 . S
C3764 C3759 1.490 . S
C3764 C3766 1.395 . S
C3764 C3767 1.403 . S
H3765 C3771 0.930 . S
C3766 H3752 0.930 . S
C3766 C3764 1.395 . S
C3766 C3769 1.403 . S
C3767 C3764 1.403 . S
C3767 C3768 1.524 . S
C3767 C3771 1.400 . S
C3768 H3753 0.960 . S
C3768 H3754 0.960 . S
C3768 H3755 0.960 . S
C3768 C3767 1.524 . S
C3769 C3766 1.403 . S
C3769 C3770 1.392 . S
C3769 C3773 1.495 . S
C3770 C3769 1.392 . S
C3770 C3771 1.385 . S
C3770 C3772 1.478 . S
C3771 H3765 0.930 . S
C3771 C3767 1.400 . S
C3771 C3770 1.385 . S
C3772 C3770 1.478 . S
C3772 C3774 1.381 . S
C3772 C3778 1.383 . S
C3773 C3769 1.495 . S
C3773 H3779 0.959 . S
C3773 H3780 0.961 . S
C3773 H3781 0.960 . S
C3774 C3772 1.381 . S
C3774 C3775 1.394 . S
C3774 H3782 0.930 . S
C3775 C3774 1.394 . S
C3775 C3776 1.383 . S
C3775 H3783 0.929 . S
C3776 C3775 1.383 . S
C3776 C3777 1.377 . S
C3777 H3761 0.930 . S
C3777 C3776 1.377 . S
C3777 C3778 1.379 . S
C3778 H3762 0.931 . S
C3778 C3772 1.383 . S
C3778 C3777 1.379 . S
H3779 C3773 0.959 . S
H3780 C3773 0.961 . S
H3781 C3773 0.960 . S
H3782 C3774 0.930 . S
H3783 C3775 0.929 . S
H3784 C3792 0.929 . S
H3785 C3794 0.930 . S
H3786 C3796 0.930 . S
H3787 C3799 0.929 . S
H3788 C3802 0.930 . S
H3789 C3804 0.960 . S
H3790 C3804 0.960 . S
H3791 C3804 0.960 . S
C3792 H3784 0.929 . S
C3792 C3793 1.377 . S
C3792 C3794 1.384 . S
C3793 C3792 1.377 . S
C3793 C3799 1.390 . S
C3794 H3785 0.930 . S
C3794 C3792 1.384 . S
C3794 C3795 1.372 . S
C3795 C3794 1.372 . S
C3795 C3796 1.400 . S
C3795 C3800 1.490 . S
C3796 H3786 0.930 . S
C3796 C3795 1.400 . S
C3796 C3799 1.386 . S
H3797 C3813 0.930 . S
H3798 C3814 0.931 . S
C3799 H3787 0.929 . S
C3799 C3793 1.390 . S
C3799 C3796 1.386 . S
C3800 C3795 1.490 . S
C3800 C3802 1.395 . S
C3800 C3803 1.403 . S
H3801 C3807 0.930 . S
C3802 H3788 0.930 . S
C3802 C3800 1.395 . S
C3802 C3805 1.403 . S
C3803 C3800 1.403 . S
C3803 C3804 1.524 . S
C3803 C3807 1.400 . S
C3804 H3789 0.960 . S
C3804 H3790 0.960 . S
C3804 H3791 0.960 . S
C3804 C3803 1.524 . S
C3805 C3802 1.403 . S
C3805 C3806 1.392 . S
C3805 C3809 1.495 . S
C3806 C3805 1.392 . S
C3806 C3807 1.385 . S
C3806 C3808 1.478 . S
C3807 H3801 0.930 . S
C3807 C3803 1.400 . S
C3807 C3806 1.385 . S
C3808 C3806 1.478 . S
C3808 C3810 1.381 . S
C3808 C3814 1.383 . S
C3809 C3805 1.495 . S
C3809 H3815 0.959 . S
C3809 H3816 0.961 . S
C3809 H3817 0.960 . S
C3810 C3808 1.381 . S
C3810 C3811 1.394 . S
C3810 H3818 0.930 . S
C3811 C3810 1.394 . S
C3811 C3812 1.383 . S
C3811 H3819 0.929 . S
C3812 C3811 1.383 . S
C3812 C3813 1.377 . S
C3813 H3797 0.930 . S
C3813 C3812 1.377 . S
C3813 C3814 1.379 . S
C3814 H3798 0.931 . S
C3814 C3808 1.383 . S
C3814 C3813 1.379 . S
H3815 C3809 0.959 . S
H3816 C3809 0.961 . S
H3817 C3809 0.960 . S
H3818 C3810 0.930 . S
H3819 C3811 0.929 . S
H3820 C3828 0.929 . S
H3821 C3830 0.930 . S
H3822 C3832 0.930 . S
H3823 C3835 0.929 . S
H3824 C3838 0.930 . S
H3825 C3840 0.960 . S
H3826 C3840 0.960 . S
H3827 C3840 0.960 . S
C3828 H3820 0.929 . S
C3828 C3829 1.377 . S
C3828 C3830 1.384 . S
C3829 C3828 1.377 . S
C3829 C3835 1.390 . S
C3830 H3821 0.930 . S
C3830 C3828 1.384 . S
C3830 C3831 1.372 . S
C3831 C3830 1.372 . S
C3831 C3832 1.400 . S
C3831 C3836 1.490 . S
C3832 H3822 0.930 . S
C3832 C3831 1.400 . S
C3832 C3835 1.386 . S
H3833 C3849 0.930 . S
H3834 C3850 0.931 . S
C3835 H3823 0.929 . S
C3835 C3829 1.390 . S
C3835 C3832 1.386 . S
C3836 C3831 1.490 . S
C3836 C3838 1.395 . S
C3836 C3839 1.403 . S
H3837 C3843 0.930 . S
C3838 H3824 0.930 . S
C3838 C3836 1.395 . S
C3838 C3841 1.403 . S
C3839 C3836 1.403 . S
C3839 C3840 1.524 . S
C3839 C3843 1.400 . S
C3840 H3825 0.960 . S
C3840 H3826 0.960 . S
C3840 H3827 0.960 . S
C3840 C3839 1.524 . S
C3841 C3838 1.403 . S
C3841 C3842 1.392 . S
C3841 C3845 1.495 . S
C3842 C3841 1.392 . S
C3842 C3843 1.385 . S
C3842 C3844 1.478 . S
C3843 H3837 0.930 . S
C3843 C3839 1.400 . S
C3843 C3842 1.385 . S
C3844 C3842 1.478 . S
C3844 C3846 1.381 . S
C3844 C3850 1.383 . S
C3845 C3841 1.495 . S
C3845 H3851 0.959 . S
C3845 H3852 0.961 . S
C3845 H3853 0.960 . S
C3846 C3844 1.381 . S
C3846 C3847 1.394 . S
C3846 H3854 0.930 . S
C3847 C3846 1.394 . S
C3847 C3848 1.383 . S
C3847 H3855 0.929 . S
C3848 C3847 1.383 . S
C3848 C3849 1.377 . S
C3849 H3833 0.930 . S
C3849 C3848 1.377 . S
C3849 C3850 1.379 . S
C3850 H3834 0.931 . S
C3850 C3844 1.383 . S
C3850 C3849 1.379 . S
H3851 C3845 0.959 . S
H3852 C3845 0.961 . S
H3853 C3845 0.960 . S
H3854 C3846 0.930 . S
H3855 C3847 0.929 . S
H3856 C3864 0.929 . S
H3857 C3866 0.930 . S
H3858 C3868 0.930 . S
H3859 C3871 0.929 . S
H3860 C3874 0.930 . S
H3861 C3876 0.960 . S
H3862 C3876 0.960 . S
H3863 C3876 0.960 . S
C3864 H3856 0.929 . S
C3864 C3865 1.377 . S
C3864 C3866 1.384 . S
C3865 C3864 1.377 . S
C3865 C3871 1.390 . S
C3866 H3857 0.930 . S
C3866 C3864 1.384 . S
C3866 C3867 1.372 . S
C3867 C3866 1.372 . S
C3867 C3868 1.400 . S
C3867 C3872 1.490 . S
C3868 H3858 0.930 . S
C3868 C3867 1.400 . S
C3868 C3871 1.386 . S
H3869 C3885 0.930 . S
H3870 C3886 0.931 . S
C3871 H3859 0.929 . S
C3871 C3865 1.390 . S
C3871 C3868 1.386 . S
C3872 C3867 1.490 . S
C3872 C3874 1.395 . S
C3872 C3875 1.403 . S
H3873 C3879 0.930 . S
C3874 H3860 0.930 . S
C3874 C3872 1.395 . S
C3874 C3877 1.403 . S
C3875 C3872 1.403 . S
C3875 C3876 1.524 . S
C3875 C3879 1.400 . S
C3876 H3861 0.960 . S
C3876 H3862 0.960 . S
C3876 H3863 0.960 . S
C3876 C3875 1.524 . S
C3877 C3874 1.403 . S
C3877 C3878 1.392 . S
C3877 C3881 1.495 . S
C3878 C3877 1.392 . S
C3878 C3879 1.385 . S
C3878 C3880 1.478 . S
C3879 H3873 0.930 . S
C3879 C3875 1.400 . S
C3879 C3878 1.385 . S
C3880 C3878 1.478 . S
C3880 C3882 1.381 . S
C3880 C3886 1.383 . S
C3881 C3877 1.495 . S
C3881 H3887 0.959 . S
C3881 H3888 0.961 . S
C3881 H3889 0.960 . S
C3882 C3880 1.381 . S
C3882 C3883 1.394 . S
C3882 H3890 0.930 . S
C3883 C3882 1.394 . S
C3883 C3884 1.383 . S
C3883 H3891 0.929 . S
C3884 C3883 1.383 . S
C3884 C3885 1.377 . S
C3885 H3869 0.930 . S
C3885 C3884 1.377 . S
C3885 C3886 1.379 . S
C3886 H3870 0.931 . S
C3886 C3880 1.383 . S
C3886 C3885 1.379 . S
H3887 C3881 0.959 . S
H3888 C3881 0.961 . S
H3889 C3881 0.960 . S
H3890 C3882 0.930 . S
H3891 C3883 0.929 . S
H3892 C3900 0.929 . S
H3893 C3902 0.930 . S
H3894 C3904 0.930 . S
H3895 C3907 0.929 . S
H3896 C3910 0.930 . S
H3897 C3912 0.960 . S
H3898 C3912 0.960 . S
H3899 C3912 0.960 . S
C3900 H3892 0.929 . S
C3900 C3901 1.377 . S
C3900 C3902 1.384 . S
C3901 C3900 1.377 . S
C3901 C3907 1.390 . S
C3902 H3893 0.930 . S
C3902 C3900 1.384 . S
C3902 C3903 1.372 . S
C3903 C3902 1.372 . S
C3903 C3904 1.400 . S
C3903 C3908 1.490 . S
C3904 H3894 0.930 . S
C3904 C3903 1.400 . S
C3904 C3907 1.386 . S
H3905 C3921 0.930 . S
H3906 C3922 0.931 . S
C3907 H3895 0.929 . S
C3907 C3901 1.390 . S
C3907 C3904 1.386 . S
C3908 C3903 1.490 . S
C3908 C3910 1.395 . S
C3908 C3911 1.403 . S
H3909 C3915 0.930 . S
C3910 H3896 0.930 . S
C3910 C3908 1.395 . S
C3910 C3913 1.403 . S
C3911 C3908 1.403 . S
C3911 C3912 1.524 . S
C3911 C3915 1.400 . S
C3912 H3897 0.960 . S
C3912 H3898 0.960 . S
C3912 H3899 0.960 . S
C3912 C3911 1.524 . S
C3913 C3910 1.403 . S
C3913 C3914 1.392 . S
C3913 C3917 1.495 . S
C3914 C3913 1.392 . S
C3914 C3915 1.385 . S
C3914 C3916 1.478 . S
C3915 H3909 0.930 . S
C3915 C3911 1.400 . S
C3915 C3914 1.385 . S
C3916 C3914 1.478 . S
C3916 C3918 1.381 . S
C3916 C3922 1.383 . S
C3917 C3913 1.495 . S
C3917 H3923 0.959 . S
C3917 H3924 0.961 . S
C3917 H3925 0.960 . S
C3918 C3916 1.381 . S
C3918 C3919 1.394 . S
C3918 H3926 0.930 . S
C3919 C3918 1.394 . S
C3919 C3920 1.383 . S
C3919 H3927 0.929 . S
C3920 C3919 1.383 . S
C3920 C3921 1.377 . S
C3921 H3905 0.930 . S
C3921 C3920 1.377 . S
C3921 C3922 1.379 . S
C3922 H3906 0.931 . S
C3922 C3916 1.383 . S
C3922 C3921 1.379 . S
H3923 C3917 0.959 . S
H3924 C3917 0.961 . S
H3925 C3917 0.960 . S
H3926 C3918 0.930 . S
H3927 C3919 0.929 . S
H3928 C3936 0.929 . S
H3929 C3938 0.930 . S
H3930 C3940 0.930 . S
H3931 C3943 0.929 . S
H3932 C3946 0.930 . S
H3933 C3948 0.960 . S
H3934 C3948 0.960 . S
H3935 C3948 0.960 1_655 S
C3936 H3928 0.929 . S
C3936 C3937 1.377 . S
C3936 C3938 1.384 . S
C3937 C3936 1.377 . S
C3937 C3943 1.390 . S
C3938 H3929 0.930 . S
C3938 C3936 1.384 . S
C3938 C3939 1.372 . S
C3939 C3938 1.372 . S
C3939 C3940 1.400 . S
C3939 C3944 1.490 . S
C3940 H3930 0.930 . S
C3940 C3939 1.400 . S
C3940 C3943 1.386 . S
H3941 C3957 0.930 . S
H3942 C3958 0.931 . S
C3943 H3931 0.929 . S
C3943 C3937 1.390 . S
C3943 C3940 1.386 . S
C3944 C3939 1.490 . S
C3944 C3946 1.395 . S
C3944 C3947 1.403 . S
H3945 C3951 0.930 . S
C3946 H3932 0.930 . S
C3946 C3944 1.395 . S
C3946 C3949 1.403 . S
C3947 C3944 1.403 . S
C3947 C3948 1.524 1_655 S
C3947 C3951 1.400 1_655 S
C3948 H3933 0.960 . S
C3948 H3934 0.960 . S
C3948 H3935 0.960 1_455 S
C3948 C3947 1.524 1_455 S
C3949 C3946 1.403 . S
C3949 C3950 1.392 . S
C3949 C3953 1.495 . S
C3950 C3949 1.392 . S
C3950 C3951 1.385 1_655 S
C3950 C3952 1.478 1_655 S
C3951 H3945 0.930 . S
C3951 C3947 1.400 1_455 S
C3951 C3950 1.385 1_455 S
C3952 C3950 1.478 1_455 S
C3952 C3954 1.381 . S
C3952 C3958 1.383 . S
C3953 C3949 1.495 . S
C3953 H3959 0.959 . S
C3953 H3960 0.961 . S
C3953 H3961 0.960 . S
C3954 C3952 1.381 . S
C3954 C3955 1.394 . S
C3954 H3962 0.930 . S
C3955 C3954 1.394 . S
C3955 C3956 1.383 . S
C3955 H3963 0.929 . S
C3956 C3955 1.383 . S
C3956 C3957 1.377 . S
C3957 H3941 0.930 . S
C3957 C3956 1.377 . S
C3957 C3958 1.379 . S
C3958 H3942 0.931 . S
C3958 C3952 1.383 . S
C3958 C3957 1.379 . S
H3959 C3953 0.959 . S
H3960 C3953 0.961 . S
H3961 C3953 0.960 . S
H3962 C3954 0.930 . S
H3963 C3955 0.929 . S
H3964 C3972 0.929 . S
H3965 C3974 0.930 . S
H3966 C3976 0.930 . S
H3967 C3979 0.929 . S
H3968 C3982 0.930 . S
H3969 C3984 0.960 . S
H3970 C3984 0.960 . S
H3971 C3984 0.960 . S
C3972 H3964 0.929 . S
C3972 C3973 1.377 . S
C3972 C3974 1.384 . S
C3973 C3972 1.377 . S
C3973 C3979 1.390 . S
C3974 H3965 0.930 . S
C3974 C3972 1.384 . S
C3974 C3975 1.372 . S
C3975 C3974 1.372 . S
C3975 C3976 1.400 . S
C3975 C3980 1.490 . S
C3976 H3966 0.930 . S
C3976 C3975 1.400 . S
C3976 C3979 1.386 . S
H3977 C3993 0.930 . S
H3978 C3994 0.931 . S
C3979 H3967 0.929 . S
C3979 C3973 1.390 . S
C3979 C3976 1.386 . S
C3980 C3975 1.490 . S
C3980 C3982 1.395 . S
C3980 C3983 1.403 . S
H3981 C3987 0.930 . S
C3982 H3968 0.930 . S
C3982 C3980 1.395 . S
C3982 C3985 1.403 . S
C3983 C3980 1.403 . S
C3983 C3984 1.524 . S
C3983 C3987 1.400 . S
C3984 H3969 0.960 . S
C3984 H3970 0.960 . S
C3984 H3971 0.960 . S
C3984 C3983 1.524 . S
C3985 C3982 1.403 . S
C3985 C3986 1.392 . S
C3985 C3989 1.495 . S
C3986 C3985 1.392 . S
C3986 C3987 1.385 . S
C3986 C3988 1.478 . S
C3987 H3981 0.930 . S
C3987 C3983 1.400 . S
C3987 C3986 1.385 . S
C3988 C3986 1.478 . S
C3988 C3990 1.381 . S
C3988 C3994 1.383 . S
C3989 C3985 1.495 . S
C3989 H3995 0.959 . S
C3989 H3996 0.961 . S
C3989 H3997 0.960 . S
C3990 C3988 1.381 . S
C3990 C3991 1.394 . S
C3990 H3998 0.930 . S
C3991 C3990 1.394 . S
C3991 C3992 1.383 . S
C3991 H3999 0.929 . S
C3992 C3991 1.383 . S
C3992 C3993 1.377 . S
C3993 H3977 0.930 . S
C3993 C3992 1.377 . S
C3993 C3994 1.379 . S
C3994 H3978 0.931 . S
C3994 C3988 1.383 . S
C3994 C3993 1.379 . S
H3995 C3989 0.959 . S
H3996 C3989 0.961 . S
H3997 C3989 0.960 . S
H3998 C3990 0.930 . S
H3999 C3991 0.929 . S
H4000 C4008 0.929 . S
H4001 C4010 0.930 . S
H4002 C4012 0.930 . S
H4003 C4015 0.929 . S
H4004 C4018 0.930 . S
H4005 C4020 0.960 . S
H4006 C4020 0.960 . S
H4007 C4020 0.960 . S
C4008 H4000 0.929 . S
C4008 C4009 1.377 . S
C4008 C4010 1.384 . S
C4009 C4008 1.377 . S
C4009 C4015 1.390 . S
C4010 H4001 0.930 . S
C4010 C4008 1.384 . S
C4010 C4011 1.372 . S
C4011 C4010 1.372 . S
C4011 C4012 1.400 . S
C4011 C4016 1.490 . S
C4012 H4002 0.930 . S
C4012 C4011 1.400 . S
C4012 C4015 1.386 . S
H4013 C4029 0.930 . S
H4014 C4030 0.931 . S
C4015 H4003 0.929 . S
C4015 C4009 1.390 . S
C4015 C4012 1.386 . S
C4016 C4011 1.490 . S
C4016 C4018 1.395 . S
C4016 C4019 1.403 . S
H4017 C4023 0.930 . S
C4018 H4004 0.930 . S
C4018 C4016 1.395 . S
C4018 C4021 1.403 . S
C4019 C4016 1.403 . S
C4019 C4020 1.524 . S
C4019 C4023 1.400 . S
C4020 H4005 0.960 . S
C4020 H4006 0.960 . S
C4020 H4007 0.960 . S
C4020 C4019 1.524 . S
C4021 C4018 1.403 . S
C4021 C4022 1.392 . S
C4021 C4025 1.495 . S
C4022 C4021 1.392 . S
C4022 C4023 1.385 . S
C4022 C4024 1.478 . S
C4023 H4017 0.930 . S
C4023 C4019 1.400 . S
C4023 C4022 1.385 . S
C4024 C4022 1.478 . S
C4024 C4026 1.381 . S
C4024 C4030 1.383 . S
C4025 C4021 1.495 . S
C4025 H4031 0.959 . S
C4025 H4032 0.961 . S
C4025 H4033 0.960 . S
C4026 C4024 1.381 . S
C4026 C4027 1.394 . S
C4026 H4034 0.930 . S
C4027 C4026 1.394 . S
C4027 C4028 1.383 . S
C4027 H4035 0.929 . S
C4028 C4027 1.383 . S
C4028 C4029 1.377 . S
C4029 H4013 0.930 . S
C4029 C4028 1.377 . S
C4029 C4030 1.379 . S
C4030 H4014 0.931 . S
C4030 C4024 1.383 . S
C4030 C4029 1.379 . S
H4031 C4025 0.959 . S
H4032 C4025 0.961 . S
H4033 C4025 0.960 . S
H4034 C4026 0.930 . S
H4035 C4027 0.929 . S
H4036 C4044 0.929 . S
H4037 C4046 0.930 . S
H4038 C4048 0.930 . S
H4039 C4051 0.929 . S
H4040 C4054 0.930 . S
H4041 C4056 0.960 . S
H4042 C4056 0.960 . S
H4043 C4056 0.960 . S
C4044 H4036 0.929 . S
C4044 C4045 1.377 . S
C4044 C4046 1.384 . S
C4045 C4044 1.377 . S
C4045 C4051 1.390 . S
C4046 H4037 0.930 . S
C4046 C4044 1.384 . S
C4046 C4047 1.372 . S
C4047 C4046 1.372 . S
C4047 C4048 1.400 . S
C4047 C4052 1.490 . S
C4048 H4038 0.930 . S
C4048 C4047 1.400 . S
C4048 C4051 1.386 . S
H4049 C4065 0.930 . S
H4050 C4066 0.931 . S
C4051 H4039 0.929 . S
C4051 C4045 1.390 . S
C4051 C4048 1.386 . S
C4052 C4047 1.490 . S
C4052 C4054 1.395 . S
C4052 C4055 1.403 . S
H4053 C4059 0.930 . S
C4054 H4040 0.930 . S
C4054 C4052 1.395 . S
C4054 C4057 1.403 . S
C4055 C4052 1.403 . S
C4055 C4056 1.524 . S
C4055 C4059 1.400 . S
C4056 H4041 0.960 . S
C4056 H4042 0.960 . S
C4056 H4043 0.960 . S
C4056 C4055 1.524 . S
C4057 C4054 1.403 . S
C4057 C4058 1.392 . S
C4057 C4061 1.495 . S
C4058 C4057 1.392 . S
C4058 C4059 1.385 . S
C4058 C4060 1.478 . S
C4059 H4053 0.930 . S
C4059 C4055 1.400 . S
C4059 C4058 1.385 . S
C4060 C4058 1.478 . S
C4060 C4062 1.381 . S
C4060 C4066 1.383 . S
C4061 C4057 1.495 . S
C4061 H4067 0.959 . S
C4061 H4068 0.961 . S
C4061 H4069 0.960 . S
C4062 C4060 1.381 . S
C4062 C4063 1.394 . S
C4062 H4070 0.930 . S
C4063 C4062 1.394 . S
C4063 C4064 1.383 . S
C4063 H4071 0.929 . S
C4064 C4063 1.383 . S
C4064 C4065 1.377 . S
C4065 H4049 0.930 . S
C4065 C4064 1.377 . S
C4065 C4066 1.379 . S
C4066 H4050 0.931 . S
C4066 C4060 1.383 . S
C4066 C4065 1.379 . S
H4067 C4061 0.959 . S
H4068 C4061 0.961 . S
H4069 C4061 0.960 . S
H4070 C4062 0.930 . S
H4071 C4063 0.929 . S
H4072 C4080 0.929 . S
H4073 C4082 0.930 . S
H4074 C4084 0.930 . S
H4075 C4087 0.929 . S
H4076 C4090 0.930 . S
H4077 C4092 0.960 . S
H4078 C4092 0.960 . S
H4079 C4092 0.960 . S
C4080 H4072 0.929 . S
C4080 C4081 1.377 . S
C4080 C4082 1.384 . S
C4081 C4080 1.377 . S
C4081 C4087 1.390 . S
C4082 H4073 0.930 . S
C4082 C4080 1.384 . S
C4082 C4083 1.372 . S
C4083 C4082 1.372 . S
C4083 C4084 1.400 . S
C4083 C4088 1.490 . S
C4084 H4074 0.930 . S
C4084 C4083 1.400 . S
C4084 C4087 1.386 . S
H4085 C4101 0.930 . S
H4086 C4102 0.931 . S
C4087 H4075 0.929 . S
C4087 C4081 1.390 . S
C4087 C4084 1.386 . S
C4088 C4083 1.490 . S
C4088 C4090 1.395 . S
C4088 C4091 1.403 . S
H4089 C4095 0.930 . S
C4090 H4076 0.930 . S
C4090 C4088 1.395 . S
C4090 C4093 1.403 . S
C4091 C4088 1.403 . S
C4091 C4092 1.524 . S
C4091 C4095 1.400 . S
C4092 H4077 0.960 . S
C4092 H4078 0.960 . S
C4092 H4079 0.960 . S
C4092 C4091 1.524 . S
C4093 C4090 1.403 . S
C4093 C4094 1.392 . S
C4093 C4097 1.495 1_655 S
C4094 C4093 1.392 . S
C4094 C4095 1.385 . S
C4094 C4096 1.478 . S
C4095 H4089 0.930 . S
C4095 C4091 1.400 . S
C4095 C4094 1.385 . S
C4096 C4094 1.478 . S
C4096 C4098 1.381 . S
C4096 C4102 1.383 . S
C4097 C4093 1.495 1_455 S
C4097 H4103 0.959 . S
C4097 H4104 0.961 . S
C4097 H4105 0.960 . S
C4098 C4096 1.381 . S
C4098 C4099 1.394 . S
C4098 H4106 0.930 . S
C4099 C4098 1.394 . S
C4099 C4100 1.383 . S
C4099 H4107 0.929 1_655 S
C4100 C4099 1.383 . S
C4100 C4101 1.377 . S
C4101 H4085 0.930 . S
C4101 C4100 1.377 . S
C4101 C4102 1.379 . S
C4102 H4086 0.931 . S
C4102 C4096 1.383 . S
C4102 C4101 1.379 . S
H4103 C4097 0.959 . S
H4104 C4097 0.961 . S
H4105 C4097 0.960 . S
H4106 C4098 0.930 . S
H4107 C4099 0.929 1_455 S
H4108 C4116 0.929 . S
H4109 C4118 0.930 . S
H4110 C4120 0.930 . S
H4111 C4123 0.929 . S
H4112 C4126 0.930 . S
H4113 C4128 0.960 . S
H4114 C4128 0.960 . S
H4115 C4128 0.960 . S
C4116 H4108 0.929 . S
C4116 C4117 1.377 . S
C4116 C4118 1.384 . S
C4117 C4116 1.377 . S
C4117 C4123 1.390 . S
C4118 H4109 0.930 . S
C4118 C4116 1.384 . S
C4118 C4119 1.372 . S
C4119 C4118 1.372 . S
C4119 C4120 1.400 . S
C4119 C4124 1.490 . S
C4120 H4110 0.930 . S
C4120 C4119 1.400 . S
C4120 C4123 1.386 . S
H4121 C4137 0.930 . S
H4122 C4138 0.931 . S
C4123 H4111 0.929 . S
C4123 C4117 1.390 . S
C4123 C4120 1.386 . S
C4124 C4119 1.490 . S
C4124 C4126 1.395 . S
C4124 C4127 1.403 . S
H4125 C4131 0.930 . S
C4126 H4112 0.930 . S
C4126 C4124 1.395 . S
C4126 C4129 1.403 . S
C4127 C4124 1.403 . S
C4127 C4128 1.524 . S
C4127 C4131 1.400 . S
C4128 H4113 0.960 . S
C4128 H4114 0.960 . S
C4128 H4115 0.960 . S
C4128 C4127 1.524 . S
C4129 C4126 1.403 . S
C4129 C4130 1.392 . S
C4129 C4133 1.495 . S
C4130 C4129 1.392 . S
C4130 C4131 1.385 . S
C4130 C4132 1.478 . S
C4131 H4125 0.930 . S
C4131 C4127 1.400 . S
C4131 C4130 1.385 . S
C4132 C4130 1.478 . S
C4132 C4134 1.381 . S
C4132 C4138 1.383 . S
C4133 C4129 1.495 . S
C4133 H4139 0.959 . S
C4133 H4140 0.961 . S
C4133 H4141 0.960 . S
C4134 C4132 1.381 . S
C4134 C4135 1.394 . S
C4134 H4142 0.930 . S
C4135 C4134 1.394 . S
C4135 C4136 1.383 . S
C4135 H4143 0.929 . S
C4136 C4135 1.383 . S
C4136 C4137 1.377 . S
C4137 H4121 0.930 . S
C4137 C4136 1.377 . S
C4137 C4138 1.379 . S
C4138 H4122 0.931 . S
C4138 C4132 1.383 . S
C4138 C4137 1.379 . S
H4139 C4133 0.959 . S
H4140 C4133 0.961 . S
H4141 C4133 0.960 . S
H4142 C4134 0.930 . S
H4143 C4135 0.929 . S
H4144 C4152 0.929 . S
H4145 C4154 0.930 . S
H4146 C4156 0.930 . S
H4147 C4159 0.929 . S
H4148 C4162 0.930 . S
H4149 C4164 0.960 . S
H4150 C4164 0.960 . S
H4151 C4164 0.960 . S
C4152 H4144 0.929 . S
C4152 C4153 1.377 . S
C4152 C4154 1.384 . S
C4153 C4152 1.377 . S
C4153 C4159 1.390 . S
C4154 H4145 0.930 . S
C4154 C4152 1.384 . S
C4154 C4155 1.372 . S
C4155 C4154 1.372 . S
C4155 C4156 1.400 . S
C4155 C4160 1.490 . S
C4156 H4146 0.930 . S
C4156 C4155 1.400 . S
C4156 C4159 1.386 . S
H4157 C4173 0.930 . S
H4158 C4174 0.931 . S
C4159 H4147 0.929 . S
C4159 C4153 1.390 . S
C4159 C4156 1.386 . S
C4160 C4155 1.490 . S
C4160 C4162 1.395 . S
C4160 C4163 1.403 . S
H4161 C4167 0.930 . S
C4162 H4148 0.930 . S
C4162 C4160 1.395 . S
C4162 C4165 1.403 . S
C4163 C4160 1.403 . S
C4163 C4164 1.524 . S
C4163 C4167 1.400 . S
C4164 H4149 0.960 . S
C4164 H4150 0.960 . S
C4164 H4151 0.960 . S
C4164 C4163 1.524 . S
C4165 C4162 1.403 . S
C4165 C4166 1.392 . S
C4165 C4169 1.495 . S
C4166 C4165 1.392 . S
C4166 C4167 1.385 . S
C4166 C4168 1.478 . S
C4167 H4161 0.930 . S
C4167 C4163 1.400 . S
C4167 C4166 1.385 . S
C4168 C4166 1.478 . S
C4168 C4170 1.381 . S
C4168 C4174 1.383 . S
C4169 C4165 1.495 . S
C4169 H4175 0.959 . S
C4169 H4176 0.961 . S
C4169 H4177 0.960 . S
C4170 C4168 1.381 . S
C4170 C4171 1.394 . S
C4170 H4178 0.930 . S
C4171 C4170 1.394 . S
C4171 C4172 1.383 . S
C4171 H4179 0.929 . S
C4172 C4171 1.383 . S
C4172 C4173 1.377 . S
C4173 H4157 0.930 . S
C4173 C4172 1.377 . S
C4173 C4174 1.379 . S
C4174 H4158 0.931 . S
C4174 C4168 1.383 . S
C4174 C4173 1.379 . S
H4175 C4169 0.959 . S
H4176 C4169 0.961 . S
H4177 C4169 0.960 . S
H4178 C4170 0.930 . S
H4179 C4171 0.929 . S
H4180 C4188 0.929 . S
H4181 C4190 0.930 . S
H4182 C4192 0.930 . S
H4183 C4195 0.929 . S
H4184 C4198 0.930 . S
H4185 C4200 0.960 . S
H4186 C4200 0.960 . S
H4187 C4200 0.960 . S
C4188 H4180 0.929 . S
C4188 C4189 1.377 . S
C4188 C4190 1.384 . S
C4189 C4188 1.377 . S
C4189 C4195 1.390 . S
C4190 H4181 0.930 . S
C4190 C4188 1.384 . S
C4190 C4191 1.372 . S
C4191 C4190 1.372 . S
C4191 C4192 1.400 . S
C4191 C4196 1.490 . S
C4192 H4182 0.930 . S
C4192 C4191 1.400 . S
C4192 C4195 1.386 . S
H4193 C4209 0.930 . S
H4194 C4210 0.960 . S
C4195 H4183 0.929 . S
C4195 C4189 1.390 . S
C4195 C4192 1.386 . S
C4196 C4191 1.490 . S
C4196 C4198 1.395 . S
C4196 C4199 1.403 . S
H4197 C4203 0.930 . S
C4198 H4184 0.930 . S
C4198 C4196 1.395 . S
C4198 C4201 1.403 . S
C4199 C4196 1.403 . S
C4199 C4200 1.524 . S
C4199 C4203 1.400 . S
C4200 H4185 0.960 . S
C4200 H4186 0.960 . S
C4200 H4187 0.960 . S
C4200 C4199 1.524 . S
C4201 C4198 1.403 . S
C4201 C4202 1.392 . S
C4201 C4205 1.495 . S
C4202 C4201 1.392 . S
C4202 C4203 1.385 . S
C4202 C4204 1.478 . S
C4203 H4197 0.930 . S
C4203 C4199 1.400 . S
C4203 C4202 1.385 . S
C4204 C4202 1.478 . S
C4204 C4206 1.381 . S
C4204 C4210 1.332 1_565 S
C4205 C4201 1.495 . S
C4205 H4211 0.959 . S
C4205 H4212 0.961 . S
C4205 H4213 0.960 . S
C4206 C4204 1.381 . S
C4206 C4207 1.394 . S
C4206 H4214 0.930 . S
C4207 C4206 1.394 . S
C4207 C4208 1.383 1_565 S
C4207 H4215 0.929 . S
C4208 C4207 1.383 1_545 S
C4208 C4209 1.377 . S
C4209 H4193 0.930 . S
C4209 C4208 1.377 . S
C4209 C4210 1.404 . S
C4210 H4194 0.960 . S
C4210 C4204 1.332 1_545 S
C4210 C4209 1.404 . S
H4211 C4205 0.959 . S
H4212 C4205 0.961 . S
H4213 C4205 0.960 . S
H4214 C4206 0.930 . S
H4215 C4207 0.929 . S
H4216 C4224 0.929 . S
H4217 C4226 0.930 . S
H4218 C4228 0.930 . S
H4219 C4231 0.929 . S
H4220 C4234 0.930 . S
H4221 C4236 0.960 . S
H4222 C4236 0.960 . S
H4223 C4236 0.960 . S
C4224 H4216 0.929 . S
C4224 C4225 1.377 . S
C4224 C4226 1.384 . S
C4225 C4224 1.377 . S
C4225 C4231 1.390 . S
C4226 H4217 0.930 . S
C4226 C4224 1.384 . S
C4226 C4227 1.372 . S
C4227 C4226 1.372 . S
C4227 C4228 1.400 . S
C4227 C4232 1.490 . S
C4228 H4218 0.930 . S
C4228 C4227 1.400 . S
C4228 C4231 1.386 . S
H4229 C4245 0.930 . S
H4230 C4246 0.931 . S
C4231 H4219 0.929 . S
C4231 C4225 1.390 . S
C4231 C4228 1.386 . S
C4232 C4227 1.490 . S
C4232 C4234 1.395 . S
C4232 C4235 1.403 . S
H4233 C4239 0.930 . S
C4234 H4220 0.930 . S
C4234 C4232 1.395 . S
C4234 C4237 1.403 . S
C4235 C4232 1.403 . S
C4235 C4236 1.524 . S
C4235 C4239 1.400 . S
C4236 H4221 0.960 . S
C4236 H4222 0.960 . S
C4236 H4223 0.960 . S
C4236 C4235 1.524 . S
C4237 C4234 1.403 . S
C4237 C4238 1.392 . S
C4237 C4241 1.495 . S
C4238 C4237 1.392 . S
C4238 C4239 1.385 . S
C4238 C4240 1.478 . S
C4239 H4233 0.930 . S
C4239 C4235 1.400 . S
C4239 C4238 1.385 . S
C4240 C4238 1.478 . S
C4240 C4242 1.381 . S
C4240 C4246 1.383 . S
C4241 C4237 1.495 . S
C4241 H4247 0.959 . S
C4241 H4248 0.961 . S
C4241 H4249 0.960 . S
C4242 C4240 1.381 . S
C4242 C4243 1.394 . S
C4242 H4250 0.930 . S
C4243 C4242 1.394 . S
C4243 C4244 1.383 . S
C4243 H4251 0.929 . S
C4244 C4243 1.383 . S
C4244 C4245 1.377 . S
C4245 H4229 0.930 . S
C4245 C4244 1.377 . S
C4245 C4246 1.379 . S
C4246 H4230 0.931 . S
C4246 C4240 1.383 . S
C4246 C4245 1.379 . S
H4247 C4241 0.959 . S
H4248 C4241 0.961 . S
H4249 C4241 0.960 . S
H4250 C4242 0.930 . S
H4251 C4243 0.929 . S
H4252 C4260 0.929 . S
H4253 C4262 0.930 . S
H4254 C4264 0.930 . S
H4255 C4267 0.929 . S
H4256 C4270 0.930 . S
H4257 C4272 0.960 . S
H4258 C4272 0.960 . S
H4259 C4272 0.960 . S
C4260 H4252 0.929 . S
C4260 C4261 1.377 1_556 S
C4260 C4262 1.384 . S
C4261 C4260 1.377 1_554 S
C4261 C4267 1.390 . S
C4262 H4253 0.930 . S
C4262 C4260 1.384 . S
C4262 C4263 1.372 1_556 S
C4263 C4262 1.372 1_554 S
C4263 C4264 1.400 . S
C4263 C4268 1.490 . S
C4264 H4254 0.930 . S
C4264 C4263 1.400 . S
C4264 C4267 1.386 . S
H4265 C4281 0.930 . S
H4266 C4282 0.931 . S
C4267 H4255 0.929 . S
C4267 C4261 1.390 . S
C4267 C4264 1.386 . S
C4268 C4263 1.490 . S
C4268 C4270 1.395 1_554 S
C4268 C4271 1.403 . S
H4269 C4275 0.930 . S
C4270 H4256 0.930 . S
C4270 C4268 1.395 1_556 S
C4270 C4273 1.403 . S
C4271 C4268 1.403 . S
C4271 C4272 1.524 . S
C4271 C4275 1.400 . S
C4272 H4257 0.960 . S
C4272 H4258 0.960 . S
C4272 H4259 0.960 . S
C4272 C4271 1.524 . S
C4273 C4270 1.403 . S
C4273 C4274 1.392 1_556 S
C4273 C4277 1.495 . S
C4274 C4273 1.392 1_554 S
C4274 C4275 1.385 . S
C4274 C4276 1.478 . S
C4275 H4269 0.930 . S
C4275 C4271 1.400 . S
C4275 C4274 1.385 . S
C4276 C4274 1.478 . S
C4276 C4278 1.381 . S
C4276 C4282 1.383 . S
C4277 C4273 1.495 . S
C4277 H4283 0.959 . S
C4277 H4284 0.961 . S
C4277 H4285 0.960 . S
C4278 C4276 1.381 . S
C4278 C4279 1.394 . S
C4278 H4286 0.930 1_554 S
C4279 C4278 1.394 . S
C4279 C4280 1.383 . S
C4279 H4287 0.929 1_554 S
C4280 C4279 1.383 . S
C4280 C4281 1.377 . S
C4281 H4265 0.930 . S
C4281 C4280 1.377 . S
C4281 C4282 1.379 . S
C4282 H4266 0.931 . S
C4282 C4276 1.383 . S
C4282 C4281 1.379 . S
H4283 C4277 0.959 . S
H4284 C4277 0.961 . S
H4285 C4277 0.960 . S
H4286 C4278 0.930 1_556 S
H4287 C4279 0.929 1_556 S
H4288 C4296 0.929 . S
H4289 C4298 0.930 . S
H4290 C4300 0.930 . S
H4291 C4303 0.929 . S
H4292 C4306 0.930 . S
H4293 C4308 0.960 . S
H4294 C4308 0.960 . S
H4295 C4308 0.960 . S
C4296 H4288 0.929 . S
C4296 C4297 1.377 . S
C4296 C4298 1.384 . S
C4297 C4296 1.377 . S
C4297 C4303 1.390 . S
C4298 H4289 0.930 . S
C4298 C4296 1.384 . S
C4298 C4299 1.372 . S
C4299 C4298 1.372 . S
C4299 C4300 1.400 . S
C4299 C4304 1.490 . S
C4300 H4290 0.930 . S
C4300 C4299 1.400 . S
C4300 C4303 1.386 . S
H4301 C4317 0.930 . S
H4302 C4318 0.931 . S
C4303 H4291 0.929 . S
C4303 C4297 1.390 . S
C4303 C4300 1.386 . S
C4304 C4299 1.490 . S
C4304 C4306 1.395 . S
C4304 C4307 1.403 . S
H4305 C4311 0.930 . S
C4306 H4292 0.930 . S
C4306 C4304 1.395 . S
C4306 C4309 1.403 . S
C4307 C4304 1.403 . S
C4307 C4308 1.524 . S
C4307 C4311 1.400 . S
C4308 H4293 0.960 . S
C4308 H4294 0.960 . S
C4308 H4295 0.960 . S
C4308 C4307 1.524 . S
C4309 C4306 1.403 . S
C4309 C4310 1.392 . S
C4309 C4313 1.495 . S
C4310 C4309 1.392 . S
C4310 C4311 1.385 . S
C4310 C4312 1.478 . S
C4311 H4305 0.930 . S
C4311 C4307 1.400 . S
C4311 C4310 1.385 . S
C4312 C4310 1.478 . S
C4312 C4314 1.381 . S
C4312 C4318 1.383 . S
C4313 C4309 1.495 . S
C4313 H4319 0.959 . S
C4313 H4320 0.961 . S
C4313 H4321 0.960 . S
C4314 C4312 1.381 . S
C4314 C4315 1.394 . S
C4314 H4322 0.930 . S
C4315 C4314 1.394 . S
C4315 C4316 1.383 . S
C4315 H4323 0.929 . S
C4316 C4315 1.383 . S
C4316 C4317 1.377 . S
C4317 H4301 0.930 . S
C4317 C4316 1.377 . S
C4317 C4318 1.379 . S
C4318 H4302 0.931 . S
C4318 C4312 1.383 . S
C4318 C4317 1.379 . S
H4319 C4313 0.959 . S
H4320 C4313 0.961 . S
H4321 C4313 0.960 . S
H4322 C4314 0.930 . S
H4323 C4315 0.929 . S
H4324 C4332 0.929 . S
H4325 C4334 0.930 . S
H4326 C4336 0.930 1_556 S
H4327 C4339 0.903 1_556 S
H4328 C4342 0.930 . S
H4329 C4344 0.960 . S
H4330 C4344 0.960 . S
H4331 C4344 0.960 . S
C4332 H4324 0.929 . S
C4332 C4333 1.377 . S
C4332 C4334 1.384 . S
C4333 C4332 1.377 . S
C4333 C4339 1.390 . S
C4334 H4325 0.930 . S
C4334 C4332 1.384 . S
C4334 C4335 1.372 . S
C4335 C4334 1.372 . S
C4335 C4336 1.400 . S
C4335 C4340 1.490 . S
C4336 H4326 0.930 1_554 S
C4336 C4335 1.400 . S
C4336 C4339 1.386 . S
H4337 C4353 0.930 . S
H4338 C4354 0.931 . S
C4339 H4327 0.903 1_554 S
C4339 C4333 1.390 . S
C4339 C4336 1.386 . S
C4340 C4335 1.490 . S
C4340 C4342 1.395 . S
C4340 C4343 1.403 . S
H4341 C4347 0.930 . S
C4342 H4328 0.930 . S
C4342 C4340 1.395 . S
C4342 C4345 1.403 . S
C4343 C4340 1.403 . S
C4343 C4344 1.524 . S
C4343 C4347 1.400 . S
C4344 H4329 0.960 . S
C4344 H4330 0.960 . S
C4344 H4331 0.960 . S
C4344 C4343 1.524 . S
C4345 C4342 1.403 . S
C4345 C4346 1.392 . S
C4345 C4349 1.495 . S
C4346 C4345 1.392 . S
C4346 C4347 1.385 . S
C4346 C4348 1.478 . S
C4347 H4341 0.930 . S
C4347 C4343 1.400 . S
C4347 C4346 1.385 . S
C4348 C4346 1.478 . S
C4348 C4350 1.381 . S
C4348 C4354 1.383 1_554 S
C4349 C4345 1.495 . S
C4349 H4355 0.959 . S
C4349 H4356 0.961 . S
C4349 H4357 0.960 . S
C4350 C4348 1.381 . S
C4350 C4351 1.394 . S
C4350 H4358 0.930 . S
C4351 C4350 1.394 . S
C4351 C4352 1.383 . S
C4351 H4359 0.929 . S
C4352 C4351 1.383 . S
C4352 C4353 1.377 1_554 S
C4353 H4337 0.930 . S
C4353 C4352 1.377 1_556 S
C4353 C4354 1.379 . S
C4354 H4338 0.931 . S
C4354 C4348 1.383 1_556 S
C4354 C4353 1.379 . S
H4355 C4349 0.959 . S
H4356 C4349 0.961 . S
H4357 C4349 0.960 . S
H4358 C4350 0.930 . S
H4359 C4351 0.929 . S
H4360 C4368 0.929 . S
H4361 C4370 0.930 . S
H4362 C4372 0.930 . S
H4363 C4375 0.929 . S
H4364 C4378 0.930 . S
H4365 C4380 0.960 . S
H4366 C4380 0.960 . S
H4367 C4380 0.960 . S
C4368 H4360 0.929 . S
C4368 C4369 1.377 . S
C4368 C4370 1.384 . S
C4369 C4368 1.377 . S
C4369 C4375 1.390 . S
C4370 H4361 0.930 . S
C4370 C4368 1.384 . S
C4370 C4371 1.372 . S
C4371 C4370 1.372 . S
C4371 C4372 1.400 . S
C4371 C4376 1.490 . S
C4372 H4362 0.930 . S
C4372 C4371 1.400 . S
C4372 C4375 1.386 . S
H4373 C4389 0.930 . S
H4374 C4390 0.931 . S
C4375 H4363 0.929 . S
C4375 C4369 1.390 . S
C4375 C4372 1.386 . S
C4376 C4371 1.490 . S
C4376 C4378 1.395 . S
C4376 C4379 1.403 . S
H4377 C4383 0.930 . S
C4378 H4364 0.930 . S
C4378 C4376 1.395 . S
C4378 C4381 1.403 . S
C4379 C4376 1.403 . S
C4379 C4380 1.524 . S
C4379 C4383 1.400 . S
C4380 H4365 0.960 . S
C4380 H4366 0.960 . S
C4380 H4367 0.960 . S
C4380 C4379 1.524 . S
C4381 C4378 1.403 . S
C4381 C4382 1.392 . S
C4381 C4385 1.495 . S
C4382 C4381 1.392 . S
C4382 C4383 1.385 . S
C4382 C4384 1.478 . S
C4383 H4377 0.930 . S
C4383 C4379 1.400 . S
C4383 C4382 1.385 . S
C4384 C4382 1.478 . S
C4384 C4386 1.381 . S
C4384 C4390 1.383 . S
C4385 C4381 1.495 . S
C4385 H4391 0.959 . S
C4385 H4392 0.961 . S
C4385 H4393 0.960 . S
C4386 C4384 1.381 . S
C4386 C4387 1.394 . S
C4386 H4394 0.930 . S
C4387 C4386 1.394 . S
C4387 C4388 1.383 . S
C4387 H4395 0.929 . S
C4388 C4387 1.383 . S
C4388 C4389 1.377 . S
C4389 H4373 0.930 . S
C4389 C4388 1.377 . S
C4389 C4390 1.379 . S
C4390 H4374 0.931 . S
C4390 C4384 1.383 . S
C4390 C4389 1.379 . S
H4391 C4385 0.959 . S
H4392 C4385 0.961 . S
H4393 C4385 0.960 . S
H4394 C4386 0.930 . S
H4395 C4387 0.929 . S
H4396 C4404 0.929 . S
H4397 C4406 0.930 . S
H4398 C4408 0.930 . S
H4399 C4411 0.929 . S
H4400 C4414 0.930 . S
H4401 C4416 0.960 . S
H4402 C4416 0.960 . S
H4403 C4416 0.960 . S
C4404 H4396 0.929 . S
C4404 C4405 1.377 . S
C4404 C4406 1.384 . S
C4405 C4404 1.377 . S
C4405 C4411 1.390 . S
C4406 H4397 0.930 . S
C4406 C4404 1.384 . S
C4406 C4407 1.372 . S
C4407 C4406 1.372 . S
C4407 C4408 1.400 . S
C4407 C4412 1.490 . S
C4408 H4398 0.930 . S
C4408 C4407 1.400 . S
C4408 C4411 1.386 . S
H4409 C4425 0.930 . S
H4410 C4426 0.931 . S
C4411 H4399 0.929 . S
C4411 C4405 1.390 . S
C4411 C4408 1.386 . S
C4412 C4407 1.490 . S
C4412 C4414 1.395 . S
C4412 C4415 1.403 . S
H4413 C4419 0.930 . S
C4414 H4400 0.930 . S
C4414 C4412 1.395 . S
C4414 C4417 1.403 . S
C4415 C4412 1.403 . S
C4415 C4416 1.524 . S
C4415 C4419 1.400 . S
C4416 H4401 0.960 . S
C4416 H4402 0.960 . S
C4416 H4403 0.960 . S
C4416 C4415 1.524 . S
C4417 C4414 1.403 . S
C4417 C4418 1.392 . S
C4417 C4421 1.495 . S
C4418 C4417 1.392 . S
C4418 C4419 1.385 . S
C4418 C4420 1.478 . S
C4419 H4413 0.930 . S
C4419 C4415 1.400 . S
C4419 C4418 1.385 . S
C4420 C4418 1.478 . S
C4420 C4422 1.381 . S
C4420 C4426 1.383 . S
C4421 C4417 1.495 . S
C4421 H4427 0.959 . S
C4421 H4428 0.961 . S
C4421 H4429 0.960 . S
C4422 C4420 1.381 . S
C4422 C4423 1.394 . S
C4422 H4430 0.930 . S
C4423 C4422 1.394 . S
C4423 C4424 1.383 . S
C4423 H4431 0.929 . S
C4424 C4423 1.383 . S
C4424 C4425 1.377 . S
C4425 H4409 0.930 . S
C4425 C4424 1.377 . S
C4425 C4426 1.379 . S
C4426 H4410 0.931 . S
C4426 C4420 1.383 . S
C4426 C4425 1.379 . S
H4427 C4421 0.959 . S
H4428 C4421 0.961 . S
H4429 C4421 0.960 . S
H4430 C4422 0.930 . S
H4431 C4423 0.929 . S
C985 C106 2.496 . S
C1004 C338 2.483 . S
C1021 C65 2.035 . S
C1040 C395 2.029 . S
C1057 C79 1.457 . S
C1076 C418 1.435 . S
C1112 C472 1.196 . S
C1093 C90 1.173 . S
C1129 C21 0.985 . S
C1148 C512 0.983 . S
C1184 C543 0.424 . S
C1165 C35 0.465 . S
C1220 C595 1.134 . S
C1201 C50 1.124 . S
C1237 C6 1.730 . S
C1256 C618 1.721 . S
C1292 C355 2.616 . S
C1273 C232 2.629 . S
C1309 C245 0.468 . S
C1328 C392 0.479 . S
C1364 C435 1.388 . S
C1345 C274 1.395 . S
C1400 C458 1.199 . S
C1381 C175 1.217 . S
C1417 C231 1.499 . S
C1436 C498 1.546 . S
C1472 C546 1.384 . S
C1453 C246 1.412 . S
C1508 C592 0.388 . S
C1489 C273 0.377 . S
C1544 C635 2.100 . S
C1525 C176 2.097 . S
C1580 C352 1.444 . S
C1561 C160 1.447 . S
C1597 C289 1.997 . S
C1616 C675 1.993 . S
C1652 C707 2.665 . S
C1633 C328 2.638 . S
C1688 C738 0.758 1_655 S
C1669 C317 0.717 . S
C1705 C118 1.309 . S
C1724 C632 1.339 . S
C1741 C132 1.519 . S
C1760 C432 1.533 . S
C1777 C331 2.410 . S
C1796 C795 2.392 . S
C1832 C818 0.781 . S
C1813 C303 0.730 . S
C1868 C347 2.009 1_565 S
C1849 C63 2.029 . S
C1904 C826 2.515 . S
C1885 C107 2.481 . S
C1921 C92 1.215 . S
C1940 C427 1.239 . S
C1957 C78 1.767 . S
C1976 C783 1.766 . S
C2012 C503 1.497 . S
C1993 C8 1.514 . S
C2029 C51 0.555 . S
C2048 C712 0.558 . S
C2084 C586 1.637 1_566 S
C2065 C37 1.575 . S
C2120 C867 1.591 . S
C2101 C20 1.619 . S
C2156 C346 2.450 . S
C2137 C147 2.411 . S
C2192 C823 0.489 . S
C2173 C316 0.432 . S
C2209 C119 1.278 . S
C2228 C426 1.296 . S
C2245 C288 1.368 . S
C2264 C787 1.377 . S
C2281 C148 1.974 1_545 S
C2300 C507 1.950 . S
C2336 C715 1.409 . S
C2317 C315 1.386 . S
C2353 C120 0.343 . S
C2372 C583 0.463 1_565 S
C2389 C287 1.953 . S
C2408 C866 1.967 . S
C2425 C188 1.321 . S
C2444 C343 1.286 . S
C2461 C177 2.355 . S
C2480 C666 2.363 . S
C2497 C258 2.751 . S
C2516 C538 2.795 . S
C2533 C247 0.746 . S
C2552 C747 0.761 . S
C2588 C863 1.089 . S
C2569 C272 1.102 . S
C2605 C216 1.311 . S
C2624 C423 1.314 . S
C2660 C466 2.638 . S
C2641 C261 2.646 . S
C2696 C387 0.714 . S
C2677 C205 0.699 . S
C2713 C76 2.082 . S
C2732 C898 2.084 . S
C2768 C835 2.120 . S
C2749 C93 2.140 . S
C2785 C105 1.018 . S
C2804 C938 1.040 . S
C2821 C62 1.194 . S
C2840 C792 1.198 . S
C2857 C49 0.965 . S
C2876 C672 0.939 . S
C2912 C703 0.797 . S
C2893 C9 0.758 . S
C2948 C755 1.005 . S
C2929 C22 1.025 . S
C2984 C858 2.134 . S
C2965 C36 2.149 . S
C3020 C915 2.544 . S
C3001 C260 2.553 . S
C3037 C189 0.390 . S
C3056 C832 0.283 . S
C3092 C955 1.261 . S
C3073 C204 1.267 . S
C3128 C778 1.007 . S
C3109 C217 1.025 . S
C3164 C658 1.823 . S
C3145 C259 1.798 . S
C3181 C190 1.520 . S
C3200 C706 1.504 . S
C3236 C752 0.256 . S
C3217 C203 0.360 . S
C3253 C218 2.199 . S
C3272 C875 2.198 . S
C3308 C912 1.432 . S
C3289 C314 1.414 . S
C3325 C135 2.091 . S
C3344 C515 2.071 . S
C3380 C547 2.543 . S
C3361 C146 2.513 . S
C3416 C578 0.769 . S
C3397 C163 0.741 . S
C3452 C872 1.349 . S
C3433 C300 1.318 . S
C3469 C286 1.472 . S
C3488 C952 1.518 . S
C3524 C475 2.281 . S
C3505 C149 2.298 . S
C3560 C378 0.729 . S
C3541 C121 0.676 . S
C3577 C91 2.015 . S
C3596 C907 2.022 . S
C3632 C386 2.100 . S
C3613 C77 2.004 . S
C3649 C64 1.184 . S
C3668 C947 1.212 . S
C3685 C104 1.373 . S
C3704 C463 1.415 . S
C3721 C34 1.084 . S
C3740 C663 1.118 . S
C3776 C552 0.531 . S
C3757 C23 0.522 . S
C3793 C7 1.143 . S
C3812 C746 1.224 . S
C3829 C48 1.596 . S
C3848 C627 1.605 . S
C3884 C906 2.414 . S
C3865 C329 2.383 . S
C3901 C162 0.441 . S
C3920 C383 0.517 . S
C3956 C946 1.326 1_556 S
C3937 C301 1.285 . S
C3973 C134 1.379 . S
C3992 C467 1.406 . S
C4009 C330 1.937 . S
C4028 C667 1.925 . S
C4064 C555 1.407 . S
C4045 C161 1.405 . S
C4081 C302 0.341 . S
C4100 C743 0.389 . S
C4136 C626 1.918 . S
C4117 C133 1.933 . S
C4172 C903 1.505 . S
C4153 C244 1.519 . S
C4208 C506 2.301 1_655 S
C4189 C219 2.280 . S
C4225 C230 2.386 . S
C4244 C698 2.417 . S
C4280 C587 0.757 . S
C4261 C191 0.734 . S
C4297 C202 1.278 . S
C4316 C623 1.297 . S
C4333 C174 1.548 . S
C4352 C943 1.566 . S
C4388 C786 2.609 . S
C4369 C233 2.607 1_565 S
C4424 C827 0.741 . S
C4405 C275 0.690 . S
