# Generated by pormake.
# Topology iac, (4,6)-cn, num edge types: 1
# Building blocks:
#     Node 0, Type 0, BuildingBlock: CEKHIL_clean_sbu_0, # of connection points: 4
#     Node 1, Type 0, BuildingBlock: CEKHIL_clean_sbu_0, # of connection points: 4
#     Node 2, Type 0, BuildingBlock: CEKHIL_clean_sbu_0, # of connection points: 4
#     Node 3, Type 0, BuildingBlock: CEKHIL_clean_sbu_0, # of connection points: 4
#     Node 4, Type 0, BuildingBlock: CEKHIL_clean_sbu_0, # of connection points: 4
#     Node 5, Type 0, BuildingBlock: CEKHIL_clean_sbu_0, # of connection points: 4
#     Node 6, Type 0, BuildingBlock: CEKHIL_clean_sbu_0, # of connection points: 4
#     Node 7, Type 0, BuildingBlock: CEKHIL_clean_sbu_0, # of connection points: 4
#     Node 8, Type 0, BuildingBlock: CEKHIL_clean_sbu_0, # of connection points: 4
#     Node 9, Type 0, BuildingBlock: CEKHIL_clean_sbu_0, # of connection points: 4
#     Node 10, Type 0, BuildingBlock: CEKHIL_clean_sbu_0, # of connection points: 4
#     Node 11, Type 0, BuildingBlock: CEKHIL_clean_sbu_0, # of connection points: 4
#     Node 12, Type 0, BuildingBlock: CEKHIL_clean_sbu_0, # of connection points: 4
#     Node 13, Type 0, BuildingBlock: CEKHIL_clean_sbu_0, # of connection points: 4
#     Node 14, Type 0, BuildingBlock: CEKHIL_clean_sbu_0, # of connection points: 4
#     Node 15, Type 0, BuildingBlock: CEKHIL_clean_sbu_0, # of connection points: 4
#     Node 16, Type 0, BuildingBlock: CEKHIL_clean_sbu_0, # of connection points: 4
#     Node 17, Type 0, BuildingBlock: CEKHIL_clean_sbu_0, # of connection points: 4
#     Node 18, Type 0, BuildingBlock: CEKHIL_clean_sbu_0, # of connection points: 4
#     Node 19, Type 0, BuildingBlock: CEKHIL_clean_sbu_0, # of connection points: 4
#     Node 20, Type 0, BuildingBlock: CEKHIL_clean_sbu_0, # of connection points: 4
#     Node 21, Type 0, BuildingBlock: CEKHIL_clean_sbu_0, # of connection points: 4
#     Node 22, Type 0, BuildingBlock: CEKHIL_clean_sbu_0, # of connection points: 4
#     Node 23, Type 0, BuildingBlock: CEKHIL_clean_sbu_0, # of connection points: 4
#     Node 24, Type 1, BuildingBlock: JUFBIX_clean_sbu_0, # of connection points: 6
#     Node 25, Type 1, BuildingBlock: JUFBIX_clean_sbu_0, # of connection points: 6
#     Node 26, Type 1, BuildingBlock: JUFBIX_clean_sbu_0, # of connection points: 6
#     Node 27, Type 1, BuildingBlock: JUFBIX_clean_sbu_0, # of connection points: 6
#     Node 28, Type 1, BuildingBlock: JUFBIX_clean_sbu_0, # of connection points: 6
#     Node 29, Type 1, BuildingBlock: JUFBIX_clean_sbu_0, # of connection points: 6
#     Node 30, Type 1, BuildingBlock: JUFBIX_clean_sbu_0, # of connection points: 6
#     Node 31, Type 1, BuildingBlock: JUFBIX_clean_sbu_0, # of connection points: 6
#     Node 32, Type 1, BuildingBlock: JUFBIX_clean_sbu_0, # of connection points: 6
#     Node 33, Type 1, BuildingBlock: JUFBIX_clean_sbu_0, # of connection points: 6
#     Node 34, Type 1, BuildingBlock: JUFBIX_clean_sbu_0, # of connection points: 6
#     Node 35, Type 1, BuildingBlock: JUFBIX_clean_sbu_0, # of connection points: 6
#     Node 36, Type 1, BuildingBlock: JUFBIX_clean_sbu_0, # of connection points: 6
#     Node 37, Type 1, BuildingBlock: JUFBIX_clean_sbu_0, # of connection points: 6
#     Node 38, Type 1, BuildingBlock: JUFBIX_clean_sbu_0, # of connection points: 6
#     Node 39, Type 1, BuildingBlock: JUFBIX_clean_sbu_0, # of connection points: 6
#     Edge 40, Type (0, 1), BuildingBlock: ZUJKAS_clean_linker_0, # of connection points: 2
#     Edge 41, Type (0, 1), BuildingBlock: ZUJKAS_clean_linker_0, # of connection points: 2
#     Edge 42, Type (0, 1), BuildingBlock: ZUJKAS_clean_linker_0, # of connection points: 2
#     Edge 43, Type (0, 1), BuildingBlock: ZUJKAS_clean_linker_0, # of connection points: 2
#     Edge 44, Type (0, 1), BuildingBlock: ZUJKAS_clean_linker_0, # of connection points: 2
#     Edge 45, Type (0, 1), BuildingBlock: ZUJKAS_clean_linker_0, # of connection points: 2
#     Edge 46, Type (0, 1), BuildingBlock: ZUJKAS_clean_linker_0, # of connection points: 2
#     Edge 47, Type (0, 1), BuildingBlock: ZUJKAS_clean_linker_0, # of connection points: 2
#     Edge 48, Type (0, 1), BuildingBlock: ZUJKAS_clean_linker_0, # of connection points: 2
#     Edge 49, Type (0, 1), BuildingBlock: ZUJKAS_clean_linker_0, # of connection points: 2
#     Edge 50, Type (0, 1), BuildingBlock: ZUJKAS_clean_linker_0, # of connection points: 2
#     Edge 51, Type (0, 1), BuildingBlock: ZUJKAS_clean_linker_0, # of connection points: 2
#     Edge 52, Type (0, 1), BuildingBlock: ZUJKAS_clean_linker_0, # of connection points: 2
#     Edge 53, Type (0, 1), BuildingBlock: ZUJKAS_clean_linker_0, # of connection points: 2
#     Edge 54, Type (0, 1), BuildingBlock: ZUJKAS_clean_linker_0, # of connection points: 2
#     Edge 55, Type (0, 1), BuildingBlock: ZUJKAS_clean_linker_0, # of connection points: 2
#     Edge 56, Type (0, 1), BuildingBlock: ZUJKAS_clean_linker_0, # of connection points: 2
#     Edge 57, Type (0, 1), BuildingBlock: ZUJKAS_clean_linker_0, # of connection points: 2
#     Edge 58, Type (0, 1), BuildingBlock: ZUJKAS_clean_linker_0, # of connection points: 2
#     Edge 59, Type (0, 1), BuildingBlock: ZUJKAS_clean_linker_0, # of connection points: 2
#     Edge 60, Type (0, 1), BuildingBlock: ZUJKAS_clean_linker_0, # of connection points: 2
#     Edge 61, Type (0, 1), BuildingBlock: ZUJKAS_clean_linker_0, # of connection points: 2
#     Edge 62, Type (0, 1), BuildingBlock: ZUJKAS_clean_linker_0, # of connection points: 2
#     Edge 63, Type (0, 1), BuildingBlock: ZUJKAS_clean_linker_0, # of connection points: 2
#     Edge 64, Type (0, 1), BuildingBlock: ZUJKAS_clean_linker_0, # of connection points: 2
#     Edge 65, Type (0, 1), BuildingBlock: ZUJKAS_clean_linker_0, # of connection points: 2
#     Edge 66, Type (0, 1), BuildingBlock: ZUJKAS_clean_linker_0, # of connection points: 2
#     Edge 67, Type (0, 1), BuildingBlock: ZUJKAS_clean_linker_0, # of connection points: 2
#     Edge 68, Type (0, 1), BuildingBlock: ZUJKAS_clean_linker_0, # of connection points: 2
#     Edge 69, Type (0, 1), BuildingBlock: ZUJKAS_clean_linker_0, # of connection points: 2
#     Edge 70, Type (0, 1), BuildingBlock: ZUJKAS_clean_linker_0, # of connection points: 2
#     Edge 71, Type (0, 1), BuildingBlock: ZUJKAS_clean_linker_0, # of connection points: 2
#     Edge 72, Type (0, 1), BuildingBlock: ZUJKAS_clean_linker_0, # of connection points: 2
#     Edge 73, Type (0, 1), BuildingBlock: ZUJKAS_clean_linker_0, # of connection points: 2
#     Edge 74, Type (0, 1), BuildingBlock: ZUJKAS_clean_linker_0, # of connection points: 2
#     Edge 75, Type (0, 1), BuildingBlock: ZUJKAS_clean_linker_0, # of connection points: 2
#     Edge 76, Type (0, 1), BuildingBlock: ZUJKAS_clean_linker_0, # of connection points: 2
#     Edge 77, Type (0, 1), BuildingBlock: ZUJKAS_clean_linker_0, # of connection points: 2
#     Edge 78, Type (0, 1), BuildingBlock: ZUJKAS_clean_linker_0, # of connection points: 2
#     Edge 79, Type (0, 1), BuildingBlock: ZUJKAS_clean_linker_0, # of connection points: 2
#     Edge 80, Type (0, 1), BuildingBlock: ZUJKAS_clean_linker_0, # of connection points: 2
#     Edge 81, Type (0, 1), BuildingBlock: ZUJKAS_clean_linker_0, # of connection points: 2
#     Edge 82, Type (0, 1), BuildingBlock: ZUJKAS_clean_linker_0, # of connection points: 2
#     Edge 83, Type (0, 1), BuildingBlock: ZUJKAS_clean_linker_0, # of connection points: 2
#     Edge 84, Type (0, 1), BuildingBlock: ZUJKAS_clean_linker_0, # of connection points: 2
#     Edge 85, Type (0, 1), BuildingBlock: ZUJKAS_clean_linker_0, # of connection points: 2
#     Edge 86, Type (0, 1), BuildingBlock: ZUJKAS_clean_linker_0, # of connection points: 2
#     Edge 87, Type (0, 1), BuildingBlock: ZUJKAS_clean_linker_0, # of connection points: 2
#     Edge 88, Type (0, 1), BuildingBlock: ZUJKAS_clean_linker_0, # of connection points: 2
#     Edge 89, Type (0, 1), BuildingBlock: ZUJKAS_clean_linker_0, # of connection points: 2
#     Edge 90, Type (0, 1), BuildingBlock: ZUJKAS_clean_linker_0, # of connection points: 2
#     Edge 91, Type (0, 1), BuildingBlock: ZUJKAS_clean_linker_0, # of connection points: 2
#     Edge 92, Type (0, 1), BuildingBlock: ZUJKAS_clean_linker_0, # of connection points: 2
#     Edge 93, Type (0, 1), BuildingBlock: ZUJKAS_clean_linker_0, # of connection points: 2
#     Edge 94, Type (0, 1), BuildingBlock: ZUJKAS_clean_linker_0, # of connection points: 2
#     Edge 95, Type (0, 1), BuildingBlock: ZUJKAS_clean_linker_0, # of connection points: 2
#     Edge 96, Type (0, 1), BuildingBlock: ZUJKAS_clean_linker_0, # of connection points: 2
#     Edge 97, Type (0, 1), BuildingBlock: ZUJKAS_clean_linker_0, # of connection points: 2
#     Edge 98, Type (0, 1), BuildingBlock: ZUJKAS_clean_linker_0, # of connection points: 2
#     Edge 99, Type (0, 1), BuildingBlock: ZUJKAS_clean_linker_0, # of connection points: 2
#     Edge 100, Type (0, 1), BuildingBlock: ZUJKAS_clean_linker_0, # of connection points: 2
#     Edge 101, Type (0, 1), BuildingBlock: ZUJKAS_clean_linker_0, # of connection points: 2
#     Edge 102, Type (0, 1), BuildingBlock: ZUJKAS_clean_linker_0, # of connection points: 2
#     Edge 103, Type (0, 1), BuildingBlock: ZUJKAS_clean_linker_0, # of connection points: 2
#     Edge 104, Type (0, 1), BuildingBlock: ZUJKAS_clean_linker_0, # of connection points: 2
#     Edge 105, Type (0, 1), BuildingBlock: ZUJKAS_clean_linker_0, # of connection points: 2
#     Edge 106, Type (0, 1), BuildingBlock: ZUJKAS_clean_linker_0, # of connection points: 2
#     Edge 107, Type (0, 1), BuildingBlock: ZUJKAS_clean_linker_0, # of connection points: 2
#     Edge 108, Type (0, 1), BuildingBlock: ZUJKAS_clean_linker_0, # of connection points: 2
#     Edge 109, Type (0, 1), BuildingBlock: ZUJKAS_clean_linker_0, # of connection points: 2
#     Edge 110, Type (0, 1), BuildingBlock: ZUJKAS_clean_linker_0, # of connection points: 2
#     Edge 111, Type (0, 1), BuildingBlock: ZUJKAS_clean_linker_0, # of connection points: 2
#     Edge 112, Type (0, 1), BuildingBlock: ZUJKAS_clean_linker_0, # of connection points: 2
#     Edge 113, Type (0, 1), BuildingBlock: ZUJKAS_clean_linker_0, # of connection points: 2
#     Edge 114, Type (0, 1), BuildingBlock: ZUJKAS_clean_linker_0, # of connection points: 2
#     Edge 115, Type (0, 1), BuildingBlock: ZUJKAS_clean_linker_0, # of connection points: 2
#     Edge 116, Type (0, 1), BuildingBlock: ZUJKAS_clean_linker_0, # of connection points: 2
#     Edge 117, Type (0, 1), BuildingBlock: ZUJKAS_clean_linker_0, # of connection points: 2
#     Edge 118, Type (0, 1), BuildingBlock: ZUJKAS_clean_linker_0, # of connection points: 2
#     Edge 119, Type (0, 1), BuildingBlock: ZUJKAS_clean_linker_0, # of connection points: 2
#     Edge 120, Type (0, 1), BuildingBlock: ZUJKAS_clean_linker_0, # of connection points: 2
#     Edge 121, Type (0, 1), BuildingBlock: ZUJKAS_clean_linker_0, # of connection points: 2
#     Edge 122, Type (0, 1), BuildingBlock: ZUJKAS_clean_linker_0, # of connection points: 2
#     Edge 123, Type (0, 1), BuildingBlock: ZUJKAS_clean_linker_0, # of connection points: 2
#     Edge 124, Type (0, 1), BuildingBlock: ZUJKAS_clean_linker_0, # of connection points: 2
#     Edge 125, Type (0, 1), BuildingBlock: ZUJKAS_clean_linker_0, # of connection points: 2
#     Edge 126, Type (0, 1), BuildingBlock: ZUJKAS_clean_linker_0, # of connection points: 2
#     Edge 127, Type (0, 1), BuildingBlock: ZUJKAS_clean_linker_0, # of connection points: 2
#     Edge 128, Type (0, 1), BuildingBlock: ZUJKAS_clean_linker_0, # of connection points: 2
#     Edge 129, Type (0, 1), BuildingBlock: ZUJKAS_clean_linker_0, # of connection points: 2
#     Edge 130, Type (0, 1), BuildingBlock: ZUJKAS_clean_linker_0, # of connection points: 2
#     Edge 131, Type (0, 1), BuildingBlock: ZUJKAS_clean_linker_0, # of connection points: 2
#     Edge 132, Type (0, 1), BuildingBlock: ZUJKAS_clean_linker_0, # of connection points: 2
#     Edge 133, Type (0, 1), BuildingBlock: ZUJKAS_clean_linker_0, # of connection points: 2
#     Edge 134, Type (0, 1), BuildingBlock: ZUJKAS_clean_linker_0, # of connection points: 2
#     Edge 135, Type (0, 1), BuildingBlock: ZUJKAS_clean_linker_0, # of connection points: 2
# Relax obj value: 0.217
# Max RMSD: 0.233
# Mean RMSD: 0.112
data_MOF--net-iac--node1-CEKHIL_clean_sbu_0--node2-JUFBIX_clean_sbu_0--edge1-ZUJKAS_clean_linker_0
_symmetry_space_group_name_H-M    P1
_symmetry_Int_Tables_number       1
_symmetry_cell_setting            triclinic
loop_
_symmetry_equiv_pos_as_xyz
'x, y, z'
_cell_length_a     70.508957
_cell_length_b     70.97925
_cell_length_c     69.589393
_cell_angle_alpha  89.436741
_cell_angle_beta   88.723168
_cell_angle_gamma 89.402099
loop_
_atom_site_label
_atom_site_type_symbol
_atom_site_fract_x
_atom_site_fract_y
_atom_site_fract_z
_atom_type_partial_charge
Co0 Co 0.02207 0.27576 0.14364 0.0
O1 O 0.99492 0.27658 0.13939 0.0
O2 O 0.00773 0.26685 0.1663 0.0
C3 C 0.02729 0.3056 0.13149 0.0
O4 O 0.04928 0.2741 0.15451 0.0
Co5 Co 0.05138 0.27807 0.11074 0.0
O6 O 0.07081 0.27924 0.13081 0.0
C7 C 0.0303 0.24266 0.11632 0.0
C8 C 0.99237 0.27055 0.1569 0.0
C9 C 0.06665 0.2763 0.14848 0.0
O10 O 0.02383 0.24893 0.13265 0.0
O11 O 0.04018 0.25293 0.10474 0.0
O12 O 0.02142 0.30287 0.1491 0.0
O13 O 0.02885 0.2904 0.1214 0.0
Co14 Co 0.03013 0.76924 0.41233 0.0
O15 O 0.05739 0.77018 0.41215 0.0
O16 O 0.03986 0.76342 0.38708 0.0
C17 C 0.02488 0.79623 0.42811 0.0
O18 O 1.00221 0.76786 0.40633 0.0
Co19 Co 0.00559 0.76652 0.44966 0.0
O20 O 0.98428 0.77343 0.43273 0.0
C21 C 0.02642 0.73295 0.43538 0.0
C22 C 0.05657 0.76594 0.39405 0.0
C23 C 0.98612 0.77139 0.41462 0.0
O24 O 0.03111 0.74189 0.41989 0.0
O25 O 0.01731 0.74061 0.44944 0.0
O26 O 0.0286 0.79649 0.40973 0.0
O27 O 0.02604 0.77998 0.43658 0.0
Co28 Co 0.52132 0.77574 0.64394 0.0
O29 O 0.49405 0.77588 0.64017 0.0
O30 O 0.50754 0.76693 0.66699 0.0
C31 C 0.52582 0.80553 0.63136 0.0
O32 O 0.54878 0.77475 0.65431 0.0
Co33 Co 0.55006 0.77836 0.61048 0.0
O34 O 0.56946 0.78158 0.63033 0.0
C35 C 0.52977 0.74253 0.61683 0.0
C36 C 0.49192 0.77009 0.65782 0.0
C37 C 0.56587 0.77817 0.64804 0.0
O38 O 0.52342 0.74882 0.6332 0.0
O39 O 0.53932 0.75287 0.60502 0.0
O40 O 0.52019 0.80294 0.64907 0.0
O41 O 0.52747 0.79024 0.62145 0.0
Co42 Co 0.53868 0.2672 0.90094 0.0
O43 O 0.56583 0.26654 0.89952 0.0
O44 O 0.54693 0.25787 0.87618 0.0
C45 C 0.53574 0.29619 0.91303 0.0
O46 O 0.51025 0.26686 0.8969 0.0
Co47 Co 0.51714 0.27042 0.94019 0.0
O48 O 0.49505 0.27629 0.92392 0.0
C49 C 0.53519 0.23438 0.92898 0.0
C50 C 0.56407 0.26042 0.88214 0.0
C51 C 0.49515 0.27224 0.90612 0.0
O52 O 0.53851 0.24099 0.91199 0.0
O53 O 0.52809 0.24431 0.94268 0.0
O54 O 0.53856 0.29392 0.89469 0.0
O55 O 0.5367 0.28111 0.92355 0.0
Co56 Co 0.14772 0.00255 0.29785 0.0
O57 O 0.15022 0.97607 0.29279 0.0
O58 O 0.1726 0.99732 0.28723 0.0
C59 C 0.1344 0.99957 0.32726 0.0
O60 O 0.15102 0.03055 0.30178 0.0
Co61 Co 0.10882 0.02257 0.30452 0.0
O62 O 0.12397 0.04475 0.31158 0.0
C63 C 0.12085 0.01079 0.26548 0.0
C64 C 0.16736 0.97984 0.28674 0.0
C65 C 0.14172 0.04508 0.3078 0.0
O66 O 0.1376 0.00696 0.27142 0.0
O67 O 0.10708 0.01568 0.27672 0.0
O68 O 0.15269 0.99796 0.32496 0.0
O69 O 0.12481 0.00138 0.31175 0.0
Co70 Co 0.25346 0.89766 0.52917 0.0
O71 O 0.22643 0.89629 0.53281 0.0
O72 O 0.24343 0.92224 0.53538 0.0
C73 C 0.25573 0.88074 0.50219 0.0
O74 O 0.28116 0.90471 0.52551 0.0
Co75 Co 0.27867 0.86152 0.53099 0.0
O76 O 0.29912 0.87856 0.52171 0.0
C77 C 0.2601 0.87626 0.56603 0.0
C78 C 0.22693 0.91421 0.53635 0.0
C79 C 0.29708 0.89643 0.5216 0.0
O80 O 0.25673 0.89189 0.55725 0.0
O81 O 0.26703 0.86172 0.55757 0.0
O82 O 0.25088 0.89845 0.50133 0.0
O83 O 0.25696 0.87356 0.51923 0.0
Co84 Co 0.39691 0.03907 0.76126 0.0
O85 O 0.39895 0.0653 0.7547 0.0
O86 O 0.37232 0.04891 0.7547 0.0
C87 C 0.41411 0.03957 0.78794 0.0
O88 O 0.38915 0.01226 0.7679 0.0
Co89 Co 0.43249 0.0129 0.76159 0.0
O90 O 0.41506 0.99502 0.77484 0.0
C91 C 0.4166 0.02529 0.72471 0.0
C92 C 0.38081 0.06491 0.75188 0.0
C93 C 0.39711 0.99713 0.77429 0.0
O94 O 0.40215 0.03237 0.73369 0.0
O95 O 0.43088 0.01808 0.73326 0.0
O96 O 0.39642 0.04492 0.78852 0.0
O97 O 0.42124 0.03615 0.77105 0.0
Co98 Co 0.2778 0.14644 0.01581 0.0
O99 O 0.30505 0.15031 0.01547 0.0
O100 O 0.29126 0.12404 0.02502 0.0
C101 C 0.27344 0.15878 0.98564 0.0
O102 O 0.25037 0.13615 0.01707 0.0
Co103 Co 0.24898 0.17911 0.01299 0.0
O104 O 0.22977 0.15929 0.0097 0.0
C105 C 0.2694 0.17324 0.04927 0.0
C106 C 0.30695 0.13312 0.0217 0.0
C107 C 0.23336 0.14202 0.01341 0.0
O108 O 0.2756 0.15712 0.04308 0.0
O109 O 0.25994 0.18465 0.0387 0.0
O110 O 0.27903 0.14142 0.98804 0.0
O111 O 0.27174 0.16834 0.00129 0.0
Co112 Co 0.7516 0.39167 0.02445 0.0
O113 O 0.72462 0.38861 0.02759 0.0
O114 O 0.73992 0.4155 0.03075 0.0
C115 C 0.75521 0.37514 0.99725 0.0
O116 O 0.77882 0.40061 0.02151 0.0
Co117 Co 0.77946 0.35753 0.02576 0.0
O118 O 0.79837 0.37596 0.016 0.0
C119 C 0.76188 0.37178 0.0617 0.0
C120 C 0.72394 0.40652 0.03126 0.0
C121 C 0.79523 0.39364 0.01701 0.0
O122 O 0.75492 0.38594 0.05251 0.0
O123 O 0.77094 0.35827 0.05345 0.0
O124 O 0.74939 0.39257 0.99658 0.0
O125 O 0.7568 0.36786 0.01422 0.0
Co126 Co 0.89772 0.5419 0.27327 0.0
O127 O 0.90149 0.56858 0.27225 0.0
O128 O 0.87627 0.55396 0.2614 0.0
C129 C 0.906 0.53707 0.3038 0.0
O130 O 0.88878 0.51476 0.27275 0.0
Co131 Co 0.93234 0.51519 0.27915 0.0
O132 O 0.91233 0.4961 0.28355 0.0
C133 C 0.92704 0.53332 0.24154 0.0
C134 C 0.88515 0.56967 0.26405 0.0
C135 C 0.89521 0.49867 0.27852 0.0
O136 O 0.91073 0.53938 0.24744 0.0
O137 O 0.9386 0.52449 0.25243 0.0
O138 O 0.88909 0.54327 0.29995 0.0
O139 O 0.9179 0.53637 0.2894 0.0
Co140 Co 0.7768 0.64643 0.51516 0.0
O141 O 0.80405 0.65066 0.5145 0.0
O142 O 0.79078 0.62385 0.52304 0.0
C143 C 0.77162 0.65983 0.48554 0.0
O144 O 0.74956 0.63557 0.51656 0.0
Co145 Co 0.74727 0.6785 0.51423 0.0
O146 O 0.7281 0.6586 0.51157 0.0
C147 C 0.76695 0.67062 0.55058 0.0
C148 C 0.8063 0.63323 0.51988 0.0
C149 C 0.73226 0.64129 0.51422 0.0
O150 O 0.77502 0.65593 0.54295 0.0
O151 O 0.75631 0.68189 0.54108 0.0
O152 O 0.77746 0.64248 0.48722 0.0
O153 O 0.77011 0.66885 0.50157 0.0
Co154 Co 0.65727 0.50048 0.79477 0.0
O155 O 0.66145 0.47396 0.79164 0.0
O156 O 0.68175 0.49625 0.7827 0.0
C157 C 0.64632 0.49925 0.82521 0.0
O158 O 0.65847 0.52891 0.79642 0.0
Co159 Co 0.61709 0.51752 0.80275 0.0
O160 O 0.63102 0.54099 0.80806 0.0
C161 C 0.62794 0.50486 0.76371 0.0
C162 C 0.67781 0.47843 0.78402 0.0
C163 C 0.64834 0.54275 0.8028 0.0
O164 O 0.64513 0.50211 0.76895 0.0
O165 O 0.61445 0.5096 0.77537 0.0
O166 O 0.66449 0.49864 0.8216 0.0
O167 O 0.63558 0.49867 0.81045 0.0
Co168 Co 0.02476 0.77919 0.89653 0.0
O169 O 0.05219 0.77821 0.89962 0.0
O170 O 0.03764 0.76956 0.87352 0.0
C171 C 0.02136 0.80942 0.90805 0.0
O172 O 0.99726 0.77873 0.88651 0.0
Co173 Co 0.99586 0.78426 0.92935 0.0
O174 O 0.97658 0.78832 0.90935 0.0
C175 C 0.01527 0.74719 0.92502 0.0
C176 C 0.05357 0.7722 0.88207 0.0
C177 C 0.98026 0.7835 0.89209 0.0
O178 O 0.0223 0.75269 0.90856 0.0
O179 O 0.00558 0.75828 0.93595 0.0
O180 O 0.02633 0.80624 0.89029 0.0
O181 O 0.01927 0.79439 0.91854 0.0
Co182 Co 0.99964 0.30405 0.63356 0.0
O183 O 0.97355 0.30034 0.62747 0.0
O184 O 0.98898 0.28518 0.65052 0.0
C185 C 0.99857 0.33558 0.63293 0.0
O186 O 0.02593 0.30464 0.64472 0.0
Co187 Co 0.02773 0.32355 0.60503 0.0
O188 O 0.0449 0.32375 0.62725 0.0
C189 C 0.01698 0.28417 0.59866 0.0
C190 C 0.97326 0.28813 0.6415 0.0
C191 C 0.04164 0.31339 0.64199 0.0
O192 O 0.00783 0.2841 0.61484 0.0
O193 O 0.02489 0.29888 0.59149 0.0
O194 O 0.99265 0.32645 0.64815 0.0
O195 O 0.00324 0.32546 0.61819 0.0
Co196 Co 0.52598 0.27873 0.39592 0.0
O197 O 0.55344 0.27785 0.39882 0.0
O198 O 0.53879 0.26914 0.37283 0.0
C199 C 0.52259 0.30883 0.40783 0.0
O200 O 0.49845 0.27827 0.38603 0.0
Co201 Co 0.49712 0.28365 0.42887 0.0
O202 O 0.47783 0.28788 0.40892 0.0
C203 C 0.51617 0.24643 0.42399 0.0
C204 C 0.55478 0.27179 0.38129 0.0
C205 C 0.48148 0.28306 0.39164 0.0
O206 O 0.52356 0.25215 0.40776 0.0
O207 O 0.50639 0.25742 0.43495 0.0
O208 O 0.52739 0.30591 0.38997 0.0
O209 O 0.52059 0.29366 0.4181 0.0
Co210 Co 0.49624 0.80014 0.13932 0.0
O211 O 0.46984 0.79862 0.13367 0.0
O212 O 0.48431 0.78208 0.15641 0.0
C213 C 0.49751 0.83162 0.13882 0.0
O214 O 0.52277 0.79854 0.14989 0.0
Co215 Co 0.52509 0.81788 0.11021 0.0
O216 O 0.54287 0.81602 0.13188 0.0
C217 C 0.51103 0.77958 0.10382 0.0
C218 C 0.46871 0.78649 0.14773 0.0
C219 C 0.53915 0.80583 0.14664 0.0
O220 O 0.50256 0.77982 0.12036 0.0
O221 O 0.5195 0.79389 0.09645 0.0
O222 O 0.49126 0.82289 0.15415 0.0
O223 O 0.50116 0.82128 0.12401 0.0
Co224 Co 0.87774 0.04908 0.77677 0.0
O225 O 0.87194 0.07548 0.77506 0.0
O226 O 0.8571 0.05298 0.75954 0.0
C227 C 0.87965 0.04746 0.80876 0.0
O228 O 0.87903 0.02067 0.77531 0.0
Co229 Co 0.91586 0.03401 0.79289 0.0
O230 O 0.905 0.00863 0.78923 0.0
C231 C 0.91505 0.05227 0.75475 0.0
C232 C 0.85863 0.07075 0.76346 0.0
C233 C 0.88938 0.00666 0.78065 0.0
O234 O 0.89682 0.05159 0.75501 0.0
O235 O 0.92508 0.04779 0.76924 0.0
O236 O 0.86312 0.04724 0.80089 0.0
O237 O 0.89405 0.05035 0.79739 0.0
Co238 Co 0.78856 0.14517 0.48383 0.0
O239 O 0.81498 0.15142 0.48403 0.0
O240 O 0.8014 0.12898 0.50178 0.0
C241 C 0.78636 0.14514 0.45173 0.0
O242 O 0.76226 0.13415 0.48713 0.0
Co243 Co 0.75846 0.17215 0.46631 0.0
O244 O 0.74085 0.15083 0.47046 0.0
C245 C 0.77446 0.18039 0.50413 0.0
C246 C 0.81676 0.13778 0.49646 0.0
C247 C 0.74537 0.13676 0.48097 0.0
O248 O 0.78279 0.16417 0.50441 0.0
O249 O 0.76552 0.18678 0.48959 0.0
O250 O 0.79294 0.13036 0.46061 0.0
O251 O 0.7827 0.15966 0.46224 0.0
Co252 Co 0.6472 0.00755 0.30049 0.0
O253 O 0.64064 0.98147 0.30278 0.0
O254 O 0.66315 0.99287 0.28327 0.0
C255 C 0.64771 0.01269 0.33224 0.0
O256 O 0.6585 0.03326 0.29492 0.0
Co257 Co 0.62 0.0388 0.31606 0.0
O258 O 0.64168 0.0557 0.31047 0.0
C259 C 0.61207 0.02054 0.27924 0.0
C260 C 0.6542 0.97832 0.29027 0.0
C261 C 0.65587 0.05045 0.3001 0.0
O262 O 0.62802 0.01161 0.27986 0.0
O263 O 0.60566 0.03085 0.29297 0.0
O264 O 0.66239 0.00525 0.3235 0.0
O265 O 0.63292 0.01535 0.32191 0.0
Co266 Co 0.7719 0.90306 0.01206 0.0
O267 O 0.74454 0.89961 0.01404 0.0
O268 O 0.75926 0.92543 0.0223 0.0
C269 C 0.7748 0.89165 0.98139 0.0
O270 O 0.79942 0.91315 0.0116 0.0
Co271 Co 0.80079 0.8709 0.00596 0.0
O272 O 0.82013 0.89069 0.00228 0.0
C273 C 0.78254 0.87567 0.04447 0.0
C274 C 0.7433 0.91678 0.02027 0.0
C275 C 0.81646 0.90765 0.00698 0.0
O276 O 0.77493 0.89142 0.0389 0.0
O277 O 0.79216 0.86503 0.03303 0.0
O278 O 0.76963 0.90899 0.98454 0.0
O279 O 0.77724 0.88152 0.99669 0.0
Co280 Co 0.29408 0.6535 0.99055 0.0
O281 O 0.32029 0.66028 0.99125 0.0
O282 O 0.30708 0.63721 0.00842 0.0
C283 C 0.29228 0.65373 0.95843 0.0
O284 O 0.26784 0.6421 0.99305 0.0
Co285 Co 0.26445 0.68106 0.97292 0.0
O286 O 0.24682 0.65969 0.97667 0.0
C287 C 0.27907 0.68813 0.01151 0.0
C288 C 0.32228 0.64644 0.00339 0.0
C289 C 0.25108 0.64518 0.98669 0.0
O290 O 0.28761 0.67202 0.01142 0.0
O291 O 0.27054 0.69497 0.99692 0.0
O292 O 0.29902 0.639 0.96727 0.0
O293 O 0.28847 0.66817 0.96902 0.0
Co294 Co 0.15269 0.50533 0.79222 0.0
O295 O 0.14831 0.47913 0.78764 0.0
O296 O 0.17367 0.49493 0.77754 0.0
C297 C 0.14476 0.50408 0.82363 0.0
O298 O 0.16264 0.53184 0.7945 0.0
Co299 Co 0.1208 0.53267 0.80632 0.0
O300 O 0.14144 0.55122 0.8088 0.0
C301 C 0.12307 0.52119 0.76553 0.0
C302 C 0.16486 0.47897 0.77907 0.0
C303 C 0.15782 0.54797 0.80138 0.0
O304 O 0.13903 0.51273 0.76823 0.0
O305 O 0.11298 0.52848 0.77913 0.0
O306 O 0.1617 0.49912 0.81781 0.0
O307 O 0.13296 0.50845 0.81035 0.0
Co308 Co 0.27111 0.40211 0.51176 0.0
O309 O 0.24375 0.39895 0.51194 0.0
O310 O 0.25802 0.42451 0.52156 0.0
C311 C 0.27543 0.39053 0.48128 0.0
O312 O 0.29869 0.41183 0.51286 0.0
Co313 Co 0.29971 0.36946 0.50714 0.0
O314 O 0.31948 0.38903 0.50465 0.0
C315 C 0.27834 0.37373 0.54401 0.0
C316 C 0.24217 0.416 0.51838 0.0
C317 C 0.31584 0.40607 0.50908 0.0
O318 O 0.2725 0.39029 0.53868 0.0
O319 O 0.28784 0.3628 0.53277 0.0
O320 O 0.27062 0.40805 0.48402 0.0
O321 O 0.27687 0.38055 0.49679 0.0
Co322 Co 0.37656 0.54921 0.27079 0.0
O323 O 0.37173 0.57471 0.26293 0.0
O324 O 0.35308 0.55041 0.25722 0.0
C325 C 0.38425 0.55575 0.30106 0.0
O326 O 0.37642 0.52131 0.27688 0.0
Co327 Co 0.41621 0.53548 0.2842 0.0
O328 O 0.40363 0.5111 0.28979 0.0
C329 C 0.40945 0.54305 0.24302 0.0
C330 C 0.35622 0.56837 0.25574 0.0
C331 C 0.38676 0.50829 0.28436 0.0
O332 O 0.3915 0.54472 0.24635 0.0
O333 O 0.4216 0.54109 0.25633 0.0
O334 O 0.36653 0.55446 0.29656 0.0
O335 O 0.39645 0.55447 0.28703 0.0
Co336 Co 0.02193 0.03181 0.00377 0.0
C337 C 0.01972 0.05446 0.03703 0.0
Co338 Co 0.02824 0.01654 0.03037 0.0
C339 C 0.00245 0.04106 0.96952 0.0
C340 C 0.02065 0.06339 0.97779 0.0
N341 N 0.01586 0.04545 0.98213 0.0
N342 N 0.99823 0.05568 0.95789 0.0
C343 C 0.00963 0.0698 0.96295 0.0
H344 H 0.99469 0.02797 0.97 0.0
H345 H 0.03045 0.07169 0.98583 0.0
C346 C 0.03024 0.9939 0.99712 0.0
N347 N 0.03415 0.00296 0.05208 0.0
C348 C 0.04635 0.0077 0.06578 0.0
C349 C 0.02779 0.98576 0.0573 0.0
N350 N 0.04793 0.99414 0.07936 0.0
C351 C 0.03619 0.98032 0.07415 0.0
C352 C 0.99003 0.01441 0.02102 0.0
O353 O 0.02575 0.00927 0.98866 0.0
O354 O 0.03285 0.99423 0.01516 0.0
O355 O 1.00204 0.00922 0.03343 0.0
O356 O 0.99563 0.02511 0.00733 0.0
O357 O 0.02358 0.03901 0.04566 0.0
H358 H 0.01785 0.97762 0.04926 0.0
H359 H 0.05382 0.02095 0.06585 0.0
O360 O 0.018 0.05418 0.01888 0.0
O361 O 0.04818 0.03852 0.00026 0.0
O362 O 0.05446 0.02389 0.02721 0.0
C363 C 0.06011 0.03397 0.01301 0.0
H364 H 0.00927 0.08397 0.95705 0.0
H365 H 0.03407 0.96712 0.08177 0.0
Co366 Co 0.26627 0.7736 0.27465 0.0
C367 C 0.25816 0.73783 0.26164 0.0
Co368 Co 0.251 0.77332 0.24743 0.0
C369 C 0.27408 0.78395 0.3131 0.0
C370 C 0.29375 0.76296 0.30295 0.0
N371 N 0.27867 0.77346 0.29765 0.0
N372 N 0.28559 0.78041 0.32794 0.0
C373 C 0.29808 0.76724 0.32161 0.0
H374 H 0.26252 0.7941 0.31335 0.0
H375 H 0.30099 0.75274 0.2939 0.0
C376 C 0.25931 0.8091 0.25998 0.0
N377 N 0.23866 0.77342 0.22445 0.0
C378 C 0.24327 0.76266 0.20922 0.0
C379 C 0.22423 0.78454 0.21859 0.0
N380 N 0.23246 0.76663 0.19396 0.0
C381 C 0.22043 0.78044 0.19975 0.0
C382 C 0.22714 0.77432 0.27922 0.0
O383 O 0.26616 0.80035 0.27429 0.0
O384 O 0.25213 0.79986 0.24649 0.0
O385 O 0.2274 0.77459 0.26096 0.0
O386 O 0.2427 0.77374 0.28803 0.0
O387 O 0.25009 0.74687 0.24825 0.0
H388 H 0.21726 0.7952 0.22731 0.0
H389 H 0.25491 0.7526 0.20912 0.0
O390 O 0.26623 0.74683 0.27482 0.0
O391 O 0.28984 0.77342 0.26118 0.0
O392 O 0.27468 0.77176 0.23407 0.0
C393 C 0.29015 0.77204 0.24302 0.0
H394 H 0.30927 0.76088 0.32995 0.0
H395 H 0.20983 0.78722 0.19096 0.0
Co396 Co 0.5137 0.01978 0.51408 0.0
C397 C 0.52278 0.05762 0.50764 0.0
Co398 Co 0.53418 0.03002 0.53483 0.0
C399 C 0.48013 0.00124 0.50332 0.0
C400 C 0.49349 0.01436 0.47886 0.0
N401 N 0.49554 0.0111 0.49779 0.0
N402 N 0.46821 0.99835 0.48873 0.0
C403 C 0.4767 0.00655 0.47323 0.0
H404 H 0.47767 0.99667 0.51801 0.0
H405 H 0.50324 0.02239 0.46989 0.0
C406 C 0.52524 0.99211 0.54101 0.0
N407 N 0.55245 0.03883 0.55092 0.0
C408 C 0.5668 0.04988 0.54488 0.0
C409 C 0.55648 0.0342 0.56925 0.0
N410 N 0.57981 0.05224 0.55846 0.0
C411 C 0.57349 0.04233 0.57389 0.0
C412 C 0.4977 0.03504 0.54765 0.0
O413 O 0.51458 0.99537 0.52679 0.0
O414 O 0.53539 0.00547 0.54705 0.0
O415 O 0.51482 0.03744 0.55226 0.0
O416 O 0.49419 0.02771 0.53155 0.0
O417 O 0.53287 0.05458 0.52232 0.0
H418 H 0.54815 0.02477 0.57827 0.0
H419 H 0.56843 0.05496 0.53022 0.0
O420 O 0.51292 0.04413 0.50145 0.0
O421 O 0.53334 0.01199 0.49674 0.0
O422 O 0.55353 0.02253 0.51743 0.0
C423 C 0.55037 0.01486 0.50148 0.0
H424 H 0.47101 0.00749 0.45895 0.0
H425 H 0.58095 0.04054 0.58722 0.0
Co426 Co 0.28358 0.27495 0.76833 0.0
C427 C 0.26957 0.28547 0.73251 0.0
Co428 Co 0.25527 0.26356 0.76327 0.0
C429 C 0.31616 0.28668 0.78914 0.0
C430 C 0.32164 0.28619 0.75879 0.0
N431 N 0.30781 0.28361 0.77223 0.0
N432 N 0.33472 0.29077 0.78684 0.0
C433 C 0.33818 0.29063 0.76772 0.0
H434 H 0.3089 0.28532 0.80294 0.0
H435 H 0.32007 0.28405 0.74355 0.0
C436 C 0.26909 0.2532 0.79921 0.0
N437 N 0.23121 0.2549 0.7592 0.0
C438 C 0.21683 0.26502 0.75177 0.0
C439 C 0.224 0.23767 0.76278 0.0
N440 N 0.20087 0.25486 0.75052 0.0
C441 C 0.20532 0.23758 0.75737 0.0
C442 C 0.28376 0.23962 0.75135 0.0
O443 O 0.28338 0.26252 0.79316 0.0
O444 O 0.25482 0.25206 0.78842 0.0
O445 O 0.26584 0.24119 0.75281 0.0
O446 O 0.29404 0.25293 0.75712 0.0
O447 O 0.25573 0.27521 0.73799 0.0
H448 H 0.23185 0.22596 0.76886 0.0
H449 H 0.21821 0.2795 0.74698 0.0
O450 O 0.28344 0.28722 0.74368 0.0
O451 O 0.2731 0.29708 0.7793 0.0
O452 O 0.24488 0.286 0.77365 0.0
C453 C 0.25518 0.2992 0.77962 0.0
H454 H 0.35192 0.2924 0.76074 0.0
H455 H 0.19576 0.22576 0.75848 0.0
Co456 Co 0.01543 0.01629 0.5406 0.0
C457 C 0.01092 0.03647 0.57433 0.0
Co458 Co 0.03095 0.04305 0.54067 0.0
C459 C 0.0076 0.97764 0.53336 0.0
C460 C 0.9836 0.99167 0.54627 0.0
N461 N 1.00186 0.99426 0.54074 0.0
N462 N 0.99362 0.96484 0.53376 0.0
C463 C 0.97845 0.97358 0.54187 0.0
H464 H 0.02149 0.97532 0.5268 0.0
H465 H 0.97444 0.00247 0.5524 0.0
C466 C 0.03543 0.02298 0.50691 0.0
N467 N 0.04453 0.06506 0.54016 0.0
C468 C 0.03801 0.08252 0.54412 0.0
C469 C 0.06276 0.06737 0.53443 0.0
N470 N 0.05138 0.09572 0.54095 0.0
C471 C 0.06703 0.08622 0.53494 0.0
C472 C 0.0518 0.01236 0.55379 0.0
O473 O 0.02457 0.01123 0.51534 0.0
O474 O 0.03976 0.038 0.51543 0.0
O475 O 0.05212 0.02999 0.55061 0.0
O476 O 0.03675 0.00331 0.5506 0.0
O477 O 0.02199 0.04811 0.56596 0.0
H478 H 0.07218 0.05612 0.52974 0.0
H479 H 0.02366 0.08544 0.54916 0.0
O480 O 0.00648 0.02147 0.56576 0.0
O481 O 0.99419 0.02939 0.53059 0.0
O482 O 0.00968 0.05596 0.53077 0.0
C483 C 0.9946 0.04704 0.52753 0.0
H484 H 0.96453 0.9675 0.54399 0.0
H485 H 0.08044 0.09247 0.53069 0.0
Co486 Co 0.27513 0.78185 0.77541 0.0
C487 C 0.23769 0.77107 0.78238 0.0
Co488 Co 0.26605 0.76028 0.75519 0.0
C489 C 0.29067 0.81688 0.78671 0.0
C490 C 0.28126 0.80075 0.81117 0.0
N491 N 0.28289 0.80029 0.79183 0.0
N492 N 0.29384 0.8278 0.80201 0.0
C493 C 0.28808 0.81767 0.8175 0.0
H494 H 0.29396 0.82085 0.77196 0.0
H495 H 0.2752 0.78965 0.82004 0.0
C496 C 0.30366 0.77103 0.7485 0.0
N497 N 0.2581 0.74148 0.73922 0.0
C498 C 0.24703 0.72719 0.74527 0.0
C499 C 0.2632 0.73716 0.72097 0.0
N500 N 0.24504 0.71404 0.73173 0.0
C501 C 0.25529 0.72008 0.71636 0.0
C502 C 0.25907 0.79617 0.7421 0.0
O503 O 0.2999 0.78163 0.7628 0.0
O504 O 0.29063 0.76043 0.74248 0.0
O505 O 0.25733 0.77889 0.738 0.0
O506 O 0.26661 0.8006 0.75782 0.0
O507 O 0.24148 0.76027 0.76829 0.0
H508 H 0.27271 0.74542 0.71193 0.0
H509 H 0.24156 0.72576 0.75987 0.0
O510 O 0.2505 0.78212 0.78792 0.0
O511 O 0.28351 0.76287 0.79282 0.0
O512 O 0.27482 0.74167 0.77225 0.0
C513 C 0.28202 0.74569 0.78817 0.0
H514 H 0.28833 0.82232 0.83225 0.0
H515 H 0.25735 0.71247 0.70307 0.0
Co516 Co 0.5227 0.01936 0.01553 0.0
C517 C 0.55935 0.01148 0.0279 0.0
Co518 Co 0.53059 0.03671 0.04 0.0
C519 C 0.50743 0.01235 0.97896 0.0
C520 C 0.51951 0.98714 0.99076 0.0
N521 N 0.5161 0.00545 0.99459 0.0
N522 N 0.50541 0.99921 0.96531 0.0
C523 C 0.51293 0.98324 0.97273 0.0
H524 H 0.50277 0.02686 0.9777 0.0
H525 H 0.52665 0.97739 0.00029 0.0
C526 C 0.49384 0.04445 0.02763 0.0
N527 N 0.53717 0.05059 0.06095 0.0
C528 C 0.54489 0.04352 0.07703 0.0
C529 C 0.5341 0.06902 0.06455 0.0
N530 N 0.54659 0.05666 0.09068 0.0
C531 C 0.53981 0.07279 0.08293 0.0
C532 C 0.53982 0.0532 0.00531 0.0
O533 O 0.49812 0.03155 0.01568 0.0
O534 O 0.50617 0.0492 0.03971 0.0
O535 O 0.54071 0.05527 0.02336 0.0
O536 O 0.53235 0.03844 0.99879 0.0
O537 O 0.55498 0.02395 0.04031 0.0
H538 H 0.52761 0.07889 0.05469 0.0
H539 H 0.54833 0.02874 0.079 0.0
O540 O 0.54724 0.00736 0.01537 0.0
O541 O 0.51304 1.00035 0.03247 0.0
O542 O 0.5204 0.01828 0.05655 0.0
C543 C 0.51336 0.00319 0.05046 0.0
H544 H 0.51408 0.96983 0.96552 0.0
H545 H 0.53877 0.08622 0.09012 0.0
Co546 Co 0.27181 0.26067 0.27674 0.0
C547 C 0.30992 0.27044 0.28001 0.0
Co548 Co 0.27873 0.2866 0.26087 0.0
C549 C 0.2534 0.22565 0.28639 0.0
C550 C 0.27189 0.23481 0.30835 0.0
N551 N 0.2656 0.23938 0.29073 0.0
N552 N 0.25178 0.21269 0.30066 0.0
C553 C 0.26345 0.21841 0.31448 0.0
H554 H 0.24583 0.22523 0.27305 0.0
H555 H 0.28169 0.24311 0.3164 0.0
C556 C 0.24062 0.277 0.25768 0.0
N557 N 0.28534 0.30808 0.24748 0.0
C558 C 0.29709 0.32122 0.25406 0.0
C559 C 0.28056 0.31417 0.22981 0.0
N560 N 0.30005 0.33525 0.24126 0.0
C561 C 0.28956 0.33103 0.22596 0.0
C562 C 0.282 0.25394 0.23845 0.0
O563 O 0.24574 0.26342 0.26859 0.0
O564 O 0.25284 0.28937 0.25288 0.0
O565 O 0.28409 0.27174 0.23842 0.0
O566 O 0.27714 0.24576 0.25417 0.0
O567 O 0.30471 0.28385 0.26903 0.0
H568 H 0.27126 0.3068 0.22034 0.0
H569 H 0.30318 0.3206 0.2682 0.0
O570 O 0.2978 0.25798 0.2847 0.0
O571 O 0.26654 0.27566 0.29928 0.0
O572 O 0.27332 0.30144 0.28331 0.0
C573 C 0.26863 0.29344 0.2991 0.0
H574 H 0.26534 0.21155 0.32827 0.0
H575 H 0.28863 0.33937 0.2129 0.0
Co576 Co 0.51664 0.51782 0.02648 0.0
C577 C 0.50634 0.52995 0.06278 0.0
Co578 Co 0.53282 0.54224 0.03596 0.0
C579 C 0.50938 0.4831 0.00784 0.0
C580 C 0.48427 0.49429 0.02149 0.0
N581 N 0.50295 0.49751 0.01866 0.0
N582 N 0.49546 0.47106 0.00363 0.0
C583 C 0.47962 0.47794 0.0123 0.0
H584 H 0.52404 0.48152 0.00314 0.0
H585 H 0.4746 0.50343 0.0294 0.0
C586 C 0.5431 0.53022 0.99959 0.0
N587 N 0.54637 0.5629 0.04355 0.0
C588 C 0.53912 0.58019 0.04692 0.0
C589 C 0.56534 0.5649 0.04467 0.0
N590 N 0.55271 0.59297 0.04964 0.0
C591 C 0.56929 0.58346 0.04852 0.0
C592 C 0.5499 0.50817 0.0448 0.0
O593 O 0.53 0.51837 0.00264 0.0
O594 O 0.54659 0.54223 0.01239 0.0
O595 O 0.55119 0.5259 0.04657 0.0
O596 O 0.5356 0.50146 0.03653 0.0
O597 O 0.51899 0.54228 0.05956 0.0
H598 H 0.57567 0.55382 0.04193 0.0
H599 H 0.52413 0.58359 0.04678 0.0
O600 O 0.50345 0.51749 0.05027 0.0
O601 O 0.4978 0.53404 0.0165 0.0
O602 O 0.51414 0.55838 0.02518 0.0
C603 C 0.49945 0.55175 0.01769 0.0
H604 H 0.46563 0.47188 0.01164 0.0
H605 H 0.5832 0.58969 0.04929 0.0
Co606 Co 0.77464 0.28087 0.2726 0.0
C607 C 0.73759 0.26877 0.2804 0.0
Co608 Co 0.76564 0.25892 0.25271 0.0
C609 C 0.7891 0.31668 0.2825 0.0
C610 C 0.78042 0.30127 0.3077 0.0
N611 N 0.78194 0.30004 0.2884 0.0
N612 N 0.79194 0.3284 0.29725 0.0
C613 C 0.78665 0.31872 0.31321 0.0
H614 H 0.79213 0.32014 0.26757 0.0
H615 H 0.77478 0.29035 0.31709 0.0
C616 C 0.80278 0.27081 0.24515 0.0
N617 N 0.75822 0.23961 0.23692 0.0
C618 C 0.75394 0.22206 0.24297 0.0
C619 C 0.7563 0.23923 0.21765 0.0
N620 N 0.74968 0.21072 0.2284 0.0
C621 C 0.75084 0.2214 0.21236 0.0
C622 C 0.75713 0.29435 0.23951 0.0
O623 O 0.79908 0.28146 0.25943 0.0
O624 O 0.7899 0.25984 0.23947 0.0
O625 O 0.75573 0.27701 0.23555 0.0
O626 O 0.76499 0.29902 0.25496 0.0
O627 O 0.74134 0.25795 0.26627 0.0
H628 H 0.75886 0.25106 0.20805 0.0
H629 H 0.75377 0.21757 0.25789 0.0
O630 O 0.75029 0.28017 0.28558 0.0
O631 O 0.7842 0.26259 0.2902 0.0
O632 O 0.77574 0.2411 0.26988 0.0
C633 C 0.78322 0.24536 0.28559 0.0
H634 H 0.78678 0.32404 0.32773 0.0
H635 H 0.74833 0.21655 0.19794 0.0
Co636 Co 0.02151 0.51838 0.51036 0.0
C637 C 0.05839 0.51062 0.52269 0.0
Co638 Co 0.03076 0.53774 0.53272 0.0
C639 C 0.99619 0.4981 0.48632 0.0
C640 C 0.02519 0.495 0.47718 0.0
N641 N 0.01402 0.50251 0.49111 0.0
N642 N 0.99566 0.48862 0.46957 0.0
C643 C 0.01401 0.48648 0.46398 0.0
H644 H 0.98383 0.50271 0.49449 0.0
H645 H 0.0404 0.4967 0.47595 0.0
C646 C 0.99385 0.54552 0.52068 0.0
N647 N 0.03856 0.55331 0.55194 0.0
C648 C 0.0455 0.5472 0.56875 0.0
C649 C 0.03918 0.57228 0.55277 0.0
N650 N 0.05034 0.56146 0.58015 0.0
C651 C 0.04658 0.57737 0.57017 0.0
C652 C 0.03969 0.55035 0.49635 0.0
O653 O 0.99741 0.53147 0.5099 0.0
O654 O 0.00673 0.55102 0.53182 0.0
O655 O 0.04114 0.55411 0.51403 0.0
O656 O 0.03126 0.5355 0.49138 0.0
O657 O 0.05474 0.5245 0.53364 0.0
H658 H 0.03463 0.58176 0.54147 0.0
H659 H 0.04732 0.53245 0.57245 0.0
O660 O 0.04571 0.50549 0.51118 0.0
O661 O 0.01167 0.50148 0.52924 0.0
O662 O 0.02033 0.52115 0.55136 0.0
C663 C 0.01261 0.50582 0.54686 0.0
H664 H 0.0191 0.48064 0.45051 0.0
H665 H 0.04881 0.59155 0.57516 0.0
Co666 Co 0.77955 0.77969 0.27092 0.0
C667 C 0.76927 0.7872 0.23305 0.0
Co668 Co 0.75465 0.76368 0.26242 0.0
C669 C 0.81508 0.786 0.28845 0.0
C670 C 0.80447 0.81117 0.27514 0.0
N671 N 0.80054 0.79281 0.27817 0.0
N672 N 0.82792 0.79935 0.2921 0.0
C673 C 0.82131 0.81526 0.28377 0.0
H674 H 0.8159 0.77159 0.29364 0.0
H675 H 0.79553 0.82097 0.2674 0.0
C676 C 0.76496 0.75626 0.30039 0.0
N677 N 0.73356 0.75073 0.25516 0.0
C678 C 0.71923 0.75806 0.24498 0.0
C679 C 0.72841 0.73285 0.25924 0.0
N680 N 0.70524 0.7456 0.24254 0.0
C681 C 0.71087 0.72968 0.25155 0.0
C682 C 0.78825 0.7447 0.25546 0.0
O683 O 0.77778 0.76817 0.29609 0.0
O684 O 0.7529 0.75232 0.28772 0.0
O685 O 0.77037 0.74361 0.25412 0.0
O686 O 0.79537 0.75948 0.26235 0.0
O687 O 0.75654 0.77515 0.23719 0.0
H688 H 0.73671 0.72291 0.26751 0.0
H689 H 0.71878 0.77256 0.24001 0.0
O690 O 0.78123 0.79117 0.24579 0.0
O691 O 0.76366 0.79982 0.27934 0.0
O692 O 0.73891 0.78392 0.27055 0.0
C693 C 0.74586 0.7988 0.2773 0.0
H694 H 0.82811 0.82885 0.28392 0.0
H695 H 0.70289 0.71676 0.25257 0.0
Co696 Co 0.77392 0.27281 0.76712 0.0
C697 C 0.76425 0.23752 0.75386 0.0
Co698 Co 0.75966 0.27331 0.73932 0.0
C699 C 0.78028 0.28252 0.80607 0.0
C700 C 0.79979 0.26108 0.79664 0.0
N701 N 0.7853 0.27206 0.79071 0.0
N702 N 0.79094 0.2785 0.82145 0.0
C703 C 0.80334 0.26505 0.81557 0.0
H704 H 0.76902 0.293 0.80588 0.0
H705 H 0.80714 0.25073 0.78784 0.0
C706 C 0.76948 0.30859 0.75225 0.0
N707 N 0.7482 0.27415 0.71587 0.0
C708 C 0.75267 0.26334 0.70063 0.0
C709 C 0.73442 0.28595 0.7098 0.0
N710 N 0.74236 0.26794 0.68517 0.0
C711 C 0.73083 0.28219 0.69085 0.0
C712 C 0.73467 0.27561 0.77004 0.0
O713 O 0.7752 0.29947 0.76684 0.0
O714 O 0.76243 0.29975 0.73839 0.0
O715 O 0.73572 0.27603 0.75181 0.0
O716 O 0.74978 0.27411 0.77952 0.0
O717 O 0.75704 0.24695 0.74022 0.0
H718 H 0.72769 0.29678 0.71848 0.0
H719 H 0.76378 0.25271 0.70073 0.0
O720 O 0.77252 0.24613 0.7672 0.0
O721 O 0.79799 0.27139 0.75459 0.0
O722 O 0.78365 0.27024 0.72696 0.0
C723 C 0.7988 0.26973 0.73645 0.0
H724 H 0.8139 0.25827 0.8244 0.0
H725 H 0.72064 0.28945 0.68195 0.0
Co726 Co 0.77036 0.76272 0.77641 0.0
C727 C 0.80886 0.77197 0.77985 0.0
Co728 Co 0.77847 0.78781 0.75973 0.0
C729 C 0.75161 0.7282 0.78667 0.0
C730 C 0.76954 0.73783 0.80889 0.0
N731 N 0.76371 0.742 0.79101 0.0
N732 N 0.74961 0.71557 0.80117 0.0
C733 C 0.76093 0.72155 0.81516 0.0
H734 H 0.74448 0.72744 0.77309 0.0
H735 H 0.77923 0.74625 0.81695 0.0
C736 C 0.73993 0.77873 0.75639 0.0
N737 N 0.78542 0.80863 0.74546 0.0
C738 C 0.7958 0.82297 0.75183 0.0
C739 C 0.78267 0.81252 0.7267 0.0
N740 N 0.79976 0.83565 0.73786 0.0
C741 C 0.79163 0.82916 0.72193 0.0
C742 C 0.7813 0.75439 0.73855 0.0
O743 O 0.74453 0.76558 0.76804 0.0
O744 O 0.75259 0.79053 0.75118 0.0
O745 O 0.78405 0.77207 0.73801 0.0
O746 O 0.77562 0.74691 0.75435 0.0
O747 O 0.80421 0.78515 0.76832 0.0
H748 H 0.77498 0.80366 0.71707 0.0
H749 H 0.80093 0.82377 0.76634 0.0
O750 O 0.79633 0.75995 0.78474 0.0
O751 O 0.76498 0.7785 0.79833 0.0
O752 O 0.77307 0.80351 0.78164 0.0
C753 C 0.76772 0.79617 0.79757 0.0
H754 H 0.76254 0.7149 0.8291 0.0
H755 H 0.79214 0.83593 0.70793 0.0
Co756 Co 0.52097 0.5303 0.50598 0.0
C757 C 0.51889 0.55353 0.53895 0.0
Co758 Co 0.52705 0.51552 0.53293 0.0
C759 C 0.50012 0.54043 0.47278 0.0
C760 C 0.52189 0.56038 0.47804 0.0
N761 N 0.51489 0.54369 0.48415 0.0
N762 N 0.49722 0.55461 0.46016 0.0
C763 C 0.51105 0.56712 0.4632 0.0
H764 H 0.49115 0.5282 0.47424 0.0
H765 H 0.53336 0.56771 0.4847 0.0
C766 C 0.52901 0.49236 0.49989 0.0
N767 N 0.53297 0.50211 0.55477 0.0
C768 C 0.54568 0.50652 0.56812 0.0
C769 C 0.52641 0.48502 0.56009 0.0
N770 N 0.54743 0.4928 0.58153 0.0
C771 C 0.53524 0.47928 0.57659 0.0
C772 C 0.4889 0.51332 0.52369 0.0
O773 O 0.52466 0.5076 0.49115 0.0
O774 O 0.53148 0.49298 0.51795 0.0
O775 O 0.50086 0.50832 0.5362 0.0
O776 O 0.49459 0.52375 0.50982 0.0
O777 O 0.52253 0.53818 0.54788 0.0
H778 H 0.5162 0.47705 0.55222 0.0
H779 H 0.55354 0.51954 0.56792 0.0
O780 O 0.51728 0.55296 0.52078 0.0
O781 O 0.54725 0.53669 0.50223 0.0
O782 O 0.55335 0.5228 0.52962 0.0
C783 C 0.5591 0.53242 0.51513 0.0
H784 H 0.51249 0.58067 0.45607 0.0
H785 H 0.53323 0.46596 0.58404 0.0
Co786 Co 0.01234 0.52163 0.01814 0.0
C787 C 0.02455 0.55847 0.0097 0.0
Co788 Co 0.03729 0.52967 0.03452 0.0
C789 C 0.9757 0.50608 0.01115 0.0
C790 C 0.98813 0.51854 0.98579 0.0
N791 N 0.99129 0.5151 0.00454 0.0
N792 N 0.96287 0.50375 0.99728 0.0
C793 C 0.97065 0.5116 0.98128 0.0
H794 H 0.97374 0.50155 0.02595 0.0
H795 H 0.99792 0.52562 0.97603 0.0
C796 C 0.02529 0.4928 0.04274 0.0
N797 N 0.05858 0.53634 0.04783 0.0
C798 C 0.07528 0.54152 0.03974 0.0
C799 C 0.06121 0.53732 0.06696 0.0
N800 N 0.08822 0.54557 0.05292 0.0
C801 C 0.07947 0.5432 0.07014 0.0
C802 C 0.00355 0.53806 0.05328 0.0
O803 O 0.01276 0.49704 0.03044 0.0
O804 O 0.03751 0.50517 0.04683 0.0
O805 O 0.02145 0.53913 0.05437 0.0
O806 O 0.99642 0.53091 0.03844 0.0
O807 O 0.03708 0.55423 0.02199 0.0
H808 H 0.05055 0.53403 0.07787 0.0
H809 H 0.07785 0.54271 0.02438 0.0
O810 O 0.01213 0.54622 0.00596 0.0
O811 O 0.02833 0.5123 0.99795 0.0
O812 O 0.05292 0.52003 0.01465 0.0
C813 C 0.0462 0.51298 0.99966 0.0
H814 H 0.96433 0.51205 0.96725 0.0
H815 H 0.08586 0.5454 0.08393 0.0
H816 H 0.01992 0.21142 0.13861 0.0
H817 H 0.0174 0.17849 0.12806 0.0
H818 H 0.02981 0.19597 0.0697 0.0
H819 H 0.03285 0.22838 0.08007 0.0
H820 H 0.99542 0.15951 0.10307 0.0
H821 H 0.0694 0.15579 0.07561 0.0
H822 H 0.06074 0.17509 0.09012 0.0
H823 H 0.05677 0.17492 0.06462 0.0
C824 C 0.02206 0.20824 0.12353 0.0
C825 C 0.02689 0.22268 0.11031 0.0
C826 C 0.02064 0.18934 0.11748 0.0
C827 C 0.02398 0.18445 0.09808 0.0
C828 C 0.02785 0.19904 0.08482 0.0
H829 H 0.01666 0.08997 0.02153 0.0
H830 H 0.01723 0.12028 0.03787 0.0
C831 C 0.02945 0.21774 0.09083 0.0
C832 C 0.02353 0.16429 0.09143 0.0
H833 H 0.04861 0.13184 0.06455 0.0
C834 C 0.00718 0.15341 0.09489 0.0
C835 C 0.03887 0.156 0.08082 0.0
C836 C 0.0575 0.16599 0.07776 0.0
C837 C 0.00548 0.13504 0.08737 0.0
C838 C 0.02048 0.12721 0.07605 0.0
C839 C 0.03699 0.13783 0.07305 0.0
C840 C 0.0191 0.1084 0.06648 0.0
C841 C 0.98741 0.1243 0.09098 0.0
C842 C 0.01995 0.09139 0.07704 0.0
C843 C 0.01979 0.07385 0.06766 0.0
C844 C 0.01863 0.07289 0.04748 0.0
C845 C 0.01745 0.09 0.03706 0.0
C846 C 0.01781 0.10744 0.0464 0.0
H847 H 0.97632 0.13299 0.09837 0.0
H848 H 0.9818 0.11926 0.07718 0.0
H849 H 0.99043 0.11173 0.10006 0.0
H850 H 0.02115 0.09167 0.09252 0.0
H851 H 0.02084 0.06106 0.07619 0.0
H852 H 0.09326 0.77004 0.4048 0.0
H853 H 0.12164 0.77033 0.3839 0.0
H854 H 0.08728 0.75969 0.33475 0.0
H855 H 0.05879 0.75945 0.35549 0.0
H856 H 0.13567 0.74131 0.35766 0.0
H857 H 0.11686 0.8089 0.32117 0.0
H858 H 0.1059 0.80155 0.34368 0.0
H859 H 0.09898 0.79101 0.32161 0.0
C860 C 0.09175 0.76767 0.38956 0.0
C861 C 0.07381 0.76486 0.38174 0.0
C862 C 0.10795 0.76783 0.37768 0.0
C863 C 0.10642 0.7653 0.35782 0.0
C864 C 0.08863 0.76195 0.35003 0.0
H865 H 0.19134 0.77134 0.26525 0.0
H866 H 0.16162 0.76852 0.28391 0.0
C867 C 0.07242 0.76174 0.36191 0.0
C868 C 0.12348 0.76643 0.34526 0.0
H869 H 0.14482 0.79341 0.31036 0.0
C870 C 0.13771 0.75266 0.34729 0.0
C871 C 0.12593 0.78124 0.33174 0.0
C872 C 0.11121 0.79663 0.32943 0.0
C873 C 0.15443 0.7533 0.33606 0.0
C874 C 0.15707 0.76834 0.32281 0.0
C875 C 0.1427 0.78194 0.32057 0.0
C876 C 0.1749 0.77049 0.31154 0.0
C877 C 0.16904 0.73779 0.33834 0.0
C878 C 0.19204 0.77302 0.32095 0.0
C879 C 0.20899 0.77459 0.3104 0.0
C880 C 0.20904 0.77384 0.29021 0.0
C881 C 0.19174 0.77191 0.28079 0.0
C882 C 0.17479 0.77028 0.2914 0.0
H883 H 0.1627 0.72488 0.34484 0.0
H884 H 0.17578 0.7341 0.32428 0.0
H885 H 0.18028 0.74264 0.34798 0.0
H886 H 0.19232 0.77369 0.33649 0.0
H887 H 0.22205 0.77625 0.31808 0.0
H888 H 0.54346 0.81587 0.59721 0.0
H889 H 0.54507 0.84735 0.5824 0.0
H890 H 0.51196 0.86994 0.62983 0.0
H891 H 0.51134 0.83884 0.64511 0.0
H892 H 0.52104 0.86987 0.56822 0.0
H893 H 0.55091 0.90878 0.62845 0.0
H894 H 0.54939 0.88346 0.62872 0.0
H895 H 0.5292 0.89778 0.63591 0.0
C896 C 0.53679 0.82763 0.60462 0.0
C897 C 0.52749 0.82479 0.6225 0.0
C898 C 0.53764 0.84569 0.59608 0.0
C899 C 0.52901 0.86143 0.60506 0.0
C900 C 0.51942 0.85844 0.62279 0.0
H901 H 0.4986 0.9642 0.54001 0.0
H902 H 0.49946 0.93308 0.55539 0.0
C903 C 0.51893 0.84049 0.63151 0.0
C904 C 0.52937 0.88068 0.59555 0.0
H905 H 0.53657 0.92758 0.60388 0.0
C906 C 0.52462 0.88242 0.57605 0.0
C907 C 0.53437 0.8973 0.60539 0.0
C908 C 0.54146 0.89671 0.62569 0.0
C909 C 0.52439 0.90002 0.56637 0.0
C910 C 0.5282 0.91678 0.57656 0.0
C911 C 0.53331 0.91499 0.59595 0.0
C912 C 0.52733 0.93618 0.56742 0.0
C913 C 0.52062 0.90024 0.5451 0.0
C914 C 0.54218 0.94907 0.56969 0.0
C915 C 0.54141 0.96722 0.56137 0.0
C916 C 0.52587 0.97298 0.5503 0.0
C917 C 0.51094 0.96019 0.54817 0.0
C918 C 0.51152 0.94221 0.55685 0.0
H919 H 0.52466 0.88659 0.53841 0.0
H920 H 0.50523 0.90248 0.5429 0.0
H921 H 0.52856 0.91162 0.53751 0.0
H922 H 0.55455 0.94505 0.57778 0.0
H923 H 0.55317 0.97664 0.56337 0.0
H924 H 0.46055 0.28465 0.91985 0.0
H925 H 0.43123 0.28838 0.90204 0.0
H926 H 0.45982 0.26807 0.85077 0.0
H927 H 0.48916 0.26411 0.86839 0.0
H928 H 0.42546 0.31094 0.86877 0.0
H929 H 0.41197 0.23528 0.85576 0.0
H930 H 0.42821 0.24315 0.87364 0.0
H931 H 0.4354 0.24272 0.8487 0.0
C932 C 0.4606 0.28083 0.90482 0.0
C933 C 0.47722 0.27399 0.89557 0.0
C934 C 0.44384 0.28302 0.89468 0.0
C935 C 0.44336 0.27828 0.8752 0.0
C936 C 0.45986 0.27148 0.86591 0.0
H937 H 0.36812 0.30923 0.78496 0.0
H938 H 0.39346 0.3075 0.80836 0.0
C939 C 0.47663 0.26931 0.876 0.0
C940 C 0.42575 0.28094 0.86438 0.0
H941 H 0.3938 0.25744 0.83775 0.0
C942 C 0.4184 0.29925 0.86211 0.0
C943 C 0.41651 0.26561 0.85597 0.0
C944 C 0.42329 0.24555 0.85876 0.0
C945 C 0.40234 0.30272 0.85104 0.0
C946 C 0.39363 0.28749 0.84189 0.0
C947 C 0.40062 0.26911 0.8447 0.0
C948 C 0.37764 0.29024 0.82877 0.0
C949 C 0.39483 0.32262 0.84921 0.0
C950 C 0.3604 0.2811 0.8325 0.0
C951 C 0.346 0.2819 0.81909 0.0
C952 C 0.34865 0.29177 0.80161 0.0
C953 C 0.36573 0.30141 0.79821 0.0
C954 C 0.38013 0.3006 0.81165 0.0
H955 H 0.39962 0.33159 0.86113 0.0
H956 H 0.40018 0.32889 0.83549 0.0
H957 H 0.37908 0.32289 0.84909 0.0
H958 H 0.3583 0.27291 0.84559 0.0
H959 H 0.33317 0.27408 0.82208 0.0
H960 H 0.02103 0.80034 0.46682 0.0
H961 H 0.01234 0.82892 0.48431 0.0
H962 H 0.00587 0.85894 0.43058 0.0
H963 H 0.01518 0.8305 0.41299 0.0
H964 H 0.02658 0.87826 0.45455 0.0
H965 H 0.96184 0.85432 0.49345 0.0
H966 H 0.98165 0.83895 0.49783 0.0
H967 H 0.9726 0.84119 0.47391 0.0
C968 C 0.0176 0.81299 0.45874 0.0
C969 C 0.0188 0.81325 0.43857 0.0
C970 C 0.01246 0.82927 0.46874 0.0
C971 C 0.00809 0.84596 0.45874 0.0
C972 C 0.00907 0.84617 0.43857 0.0
H973 H 0.96532 0.94782 0.51511 0.0
H974 H 0.96789 0.91871 0.49654 0.0
C975 C 0.01441 0.82994 0.42855 0.0
C976 C 0.00394 0.86353 0.46936 0.0
H977 H 0.97646 0.88214 0.50559 0.0
C978 C 0.01548 0.87917 0.46556 0.0
C979 C 0.98926 0.8648 0.48351 0.0
C980 C 0.97551 0.84897 0.48727 0.0
C981 C 0.01316 0.89585 0.47596 0.0
C982 C 0.99933 0.89668 0.49097 0.0
C983 C 0.9873 0.88132 0.49431 0.0
C984 C 0.99727 0.91338 0.50339 0.0
C985 C 0.0255 0.91245 0.47065 0.0
C986 C 0.01272 0.91959 0.5139 0.0
C987 C 0.0113 0.93621 0.52438 0.0
C988 C 0.99432 0.94671 0.52479 0.0
C989 C 0.97853 0.93992 0.51513 0.0
C990 C 0.98001 0.92337 0.50446 0.0
H991 H 0.03098 0.91154 0.45558 0.0
H992 H 0.0176 0.92597 0.47235 0.0
H993 H 0.0379 0.9126 0.48019 0.0
H994 H 0.02599 0.91177 0.51371 0.0
H995 H 0.02356 0.941 0.53198 0.0
H996 H 0.48265 0.75975 0.69517 0.0
H997 H 0.45108 0.75925 0.71075 0.0
H998 H 0.42592 0.77662 0.65746 0.0
H999 H 0.45737 0.77732 0.6419 0.0
H1000 H 0.41189 0.79722 0.68773 0.0
H1001 H 0.40869 0.72116 0.70627 0.0
H1002 H 0.42915 0.7328 0.71518 0.0
H1003 H 0.42625 0.73065 0.68969 0.0
C1004 C 0.47039 0.76326 0.6867 0.0
C1005 C 0.47265 0.76848 0.6672 0.0
C1006 C 0.45226 0.7629 0.69563 0.0
C1007 C 0.43592 0.76768 0.68529 0.0
C1008 C 0.43819 0.77281 0.66582 0.0
H1009 H 0.317 0.74887 0.7188 0.0
H1010 H 0.34876 0.74839 0.70376 0.0
C1011 C 0.45625 0.77314 0.65689 0.0
C1012 C 0.41654 0.76797 0.6948 0.0
H1013 H 0.38398 0.74059 0.71907 0.0
C1014 C 0.40583 0.78481 0.69457 0.0
C1015 C 0.40836 0.75178 0.70359 0.0
C1016 C 0.41859 0.73302 0.70359 0.0
C1017 C 0.38744 0.78596 0.70299 0.0
C1018 C 0.37945 0.7699 0.7122 0.0
C1019 C 0.39006 0.75299 0.71222 0.0
C1020 C 0.36001 0.77027 0.72154 0.0
C1021 C 0.37657 0.80432 0.70155 0.0
C1022 C 0.35559 0.78258 0.73677 0.0
C1023 C 0.33737 0.78289 0.74543 0.0
C1024 C 0.32304 0.77084 0.73916 0.0
C1025 C 0.32756 0.75842 0.72401 0.0
C1026 C 0.3458 0.75809 0.7154 0.0
H1027 H 0.38241 0.81354 0.6899 0.0
H1028 H 0.36135 0.80184 0.69884 0.0
H1029 H 0.37758 0.81198 0.7153 0.0
H1030 H 0.3663 0.79188 0.74211 0.0
H1031 H 0.33454 0.79257 0.7571 0.0
H1032 H 0.52826 0.21454 0.96217 0.0
H1033 H 0.53395 0.18109 0.96809 0.0
H1034 H 0.5571 0.17493 0.91062 0.0
H1035 H 0.55152 0.20856 0.90441 0.0
H1036 H 0.51813 0.15109 0.9422 0.0
H1037 H 0.59666 0.15022 0.95033 0.0
H1038 H 0.58272 0.17125 0.95498 0.0
H1039 H 0.58618 0.16327 0.93081 0.0
C1040 C 0.53467 0.20619 0.95077 0.0
C1041 C 0.53936 0.21425 0.93278 0.0
C1042 C 0.53791 0.18708 0.95421 0.0
C1043 C 0.54597 0.17571 0.9398 0.0
C1044 C 0.55097 0.18362 0.92191 0.0
H1045 H 0.53673 0.05489 0.96618 0.0
H1046 H 0.54155 0.08262 0.9455 0.0
C1047 C 0.5477 0.20279 0.91841 0.0
C1048 C 0.54821 0.15538 0.94354 0.0
H1049 H 0.58027 0.12245 0.95859 0.0
C1050 C 0.53173 0.14461 0.94537 0.0
C1051 C 0.56601 0.14722 0.94765 0.0
C1052 C 0.58399 0.15849 0.94592 0.0
C1053 C 0.53242 0.12608 0.95239 0.0
C1054 C 0.55014 0.11813 0.95739 0.0
C1055 C 0.56677 0.12859 0.95455 0.0
C1056 C 0.55113 0.10032 0.96841 0.0
C1057 C 0.51404 0.11567 0.95569 0.0
C1058 C 0.55589 0.10091 0.98784 0.0
C1059 C 0.55323 0.08517 0.99965 0.0
C1060 C 0.54574 0.06857 0.99219 0.0
C1061 C 0.54235 0.06756 0.97238 0.0
C1062 C 0.54507 0.08335 0.96055 0.0
H1063 H 0.50141 0.12489 0.95356 0.0
H1064 H 0.51335 0.10381 0.94547 0.0
H1065 H 0.51327 0.10971 0.9705 0.0
H1066 H 0.5606 0.11391 0.99413 0.0
H1067 H 0.55615 0.08633 0.0148 0.0
H1068 H 0.10262 0.26385 0.14072 0.0
H1069 H 0.13003 0.26357 0.16139 0.0
H1070 H 0.09564 0.28708 0.20744 0.0
H1071 H 0.06773 0.28638 0.18689 0.0
H1072 H 0.1488 0.28968 0.17533 0.0
H1073 H 0.1223 0.24867 0.23815 0.0
H1074 H 0.10928 0.2505 0.21621 0.0
H1075 H 0.10793 0.26914 0.2336 0.0
C1076 C 0.10076 0.26873 0.15535 0.0
C1077 C 0.08284 0.27507 0.1621 0.0
C1078 C 0.11657 0.26863 0.16722 0.0
C1079 C 0.1152 0.27514 0.18625 0.0
C1080 C 0.09724 0.28145 0.1931 0.0
H1081 H 0.22205 0.30711 0.24118 0.0
H1082 H 0.19137 0.3075 0.22543 0.0
C1083 C 0.08121 0.28116 0.18127 0.0
C1084 C 0.13285 0.27607 0.19818 0.0
H1085 H 0.15178 0.26411 0.2417 0.0
C1086 C 0.14936 0.28398 0.18983 0.0
C1087 C 0.134 0.26851 0.2171 0.0
C1088 C 0.1175 0.25855 0.22673 0.0
C1089 C 0.16671 0.28442 0.19954 0.0
C1090 C 0.16769 0.27754 0.21873 0.0
C1091 C 0.15119 0.26964 0.22715 0.0
C1092 C 0.18579 0.27781 0.22997 0.0
C1093 C 0.18399 0.29158 0.18865 0.0
C1094 C 0.19266 0.26134 0.23905 0.0
C1095 C 0.21004 0.26125 0.24865 0.0
C1096 C 0.22118 0.27759 0.24933 0.0
C1097 C 0.21402 0.2942 0.2408 0.0
C1098 C 0.19648 0.29437 0.23155 0.0
H1099 H 0.18237 0.29038 0.17287 0.0
H1100 H 0.18591 0.3067 0.19188 0.0
H1101 H 0.197 0.2837 0.19273 0.0
H1102 H 0.18482 0.24834 0.23829 0.0
H1103 H 0.21505 0.24817 0.25498 0.0
H1104 H 0.08754 0.01789 0.24741 0.0
H1105 H 0.08108 0.01481 0.2134 0.0
H1106 H 0.13913 0.9978 0.2022 0.0
H1107 H 0.14581 1.00057 0.23644 0.0
H1108 H 0.09881 0.0334 0.18179 0.0
H1109 H 0.10726 0.95532 0.17889 0.0
H1110 H 0.10458 0.96775 0.20131 0.0
H1111 H 0.12671 0.96845 0.1881 0.0
C1112 C 0.099 0.01349 0.2378 0.0
C1113 C 0.11718 0.00939 0.24471 0.0
C1114 C 0.09526 0.01178 0.21834 0.0
C1115 C 0.10959 0.00593 0.2054 0.0
C1116 C 0.12785 0.00209 0.21207 0.0
H1117 H 0.08144 0.01189 0.08297 0.0
H1118 H 0.09991 0.01433 0.11221 0.0
C1119 C 0.13163 0.00377 0.23162 0.0
C1120 C 0.10502 0.0038 0.18496 0.0
H1121 H 0.09697 0.97075 0.15093 0.0
C1122 C 0.09866 0.01977 0.17488 0.0
C1123 C 0.10479 0.98595 0.17617 0.0
C1124 C 0.11107 0.96831 0.18664 0.0
C1125 C 0.09124 0.01826 0.15646 0.0
C1126 C 0.09054 1.00032 0.14785 0.0
C1127 C 0.09764 0.98446 0.15762 0.0
C1128 C 0.08064 0.9975 0.12967 0.0
C1129 C 0.08324 0.03568 0.14686 0.0
C1130 C 0.06409 0.98671 0.12972 0.0
C1131 C 0.05358 0.98525 0.11308 0.0
C1132 C 0.05943 0.99461 0.09613 0.0
C1133 C 0.07639 0.00487 0.09595 0.0
C1134 C 0.08697 0.00623 0.11258 0.0
H1135 H 0.0817 0.04766 0.15696 0.0
H1136 H 0.0929 0.04007 0.13487 0.0
H1137 H 0.06915 0.03277 0.14078 0.0
H1138 H 0.05899 0.97989 0.14281 0.0
H1139 H 0.04053 0.97735 0.11368 0.0
H1140 H 0.27 0.84499 0.5009 0.0
H1141 H 0.27877 0.82678 0.47241 0.0
H1142 H 0.26176 0.87333 0.43614 0.0
H1143 H 0.25338 0.89185 0.46463 0.0
H1144 H 0.25584 0.8158 0.44423 0.0
H1145 H 0.31362 0.85982 0.41351 0.0
H1146 H 0.3045 0.86266 0.43777 0.0
H1147 H 0.29213 0.873 0.41787 0.0
C1148 C 0.26827 0.85141 0.48686 0.0
C1149 C 0.26104 0.86985 0.48496 0.0
C1150 C 0.2733 0.84099 0.47062 0.0
C1151 C 0.2712 0.84882 0.45221 0.0
C1152 C 0.26393 0.86721 0.45025 0.0
H1153 H 0.25412 0.79462 0.34567 0.0
H1154 H 0.25218 0.81007 0.37674 0.0
C1155 C 0.259 0.8777 0.46651 0.0
C1156 C 0.2755 0.83731 0.43504 0.0
H1157 H 0.30046 0.83701 0.39249 0.0
C1158 C 0.26576 0.82033 0.43302 0.0
C1159 C 0.2887 0.84308 0.42062 0.0
C1160 C 0.30049 0.86054 0.42261 0.0
C1161 C 0.26827 0.80934 0.41654 0.0
C1162 C 0.28053 0.81573 0.40156 0.0
C1163 C 0.2909 0.83228 0.40393 0.0
C1164 C 0.2819 0.80605 0.3829 0.0
C1165 C 0.25769 0.79103 0.41528 0.0
C1166 C 0.29937 0.79906 0.37589 0.0
C1167 C 0.30059 0.79042 0.35793 0.0
C1168 C 0.28438 0.78881 0.34667 0.0
C1169 C 0.26692 0.79583 0.35383 0.0
C1170 C 0.26572 0.80445 0.37172 0.0
H1171 H 0.25386 0.78537 0.42978 0.0
H1172 H 0.24433 0.79352 0.40746 0.0
H1173 H 0.26622 0.78024 0.40741 0.0
H1174 H 0.31204 0.80033 0.38429 0.0
H1175 H 0.31427 0.78535 0.35271 0.0
H1176 H 0.39236 0.04456 0.70111 0.0
H1177 H 0.39496 0.04803 0.66613 0.0
H1178 H 0.4445 0.01186 0.66545 0.0
H1179 H 0.44198 0.00813 0.7002 0.0
H1180 H 0.42547 0.06369 0.64692 0.0
H1181 H 0.41455 0.99159 0.62098 0.0
H1182 H 0.40699 0.99898 0.64476 0.0
H1183 H 0.43112 0.99136 0.64015 0.0
C1184 C 0.40361 0.03705 0.69348 0.0
C1185 C 0.41702 0.0261 0.70347 0.0
C1186 C 0.40503 0.03906 0.6735 0.0
C1187 C 0.41971 0.02994 0.66321 0.0
C1188 C 0.43277 0.01863 0.67309 0.0
H1189 H 0.50035 0.05116 0.58282 0.0
H1190 H 0.47559 0.05354 0.60759 0.0
C1191 C 0.43143 0.01668 0.693 0.0
C1192 C 0.42298 0.03378 0.64253 0.0
H1193 H 0.43623 0.01107 0.60147 0.0
C1194 C 0.42727 0.05228 0.63676 0.0
C1195 C 0.42482 0.01902 0.62913 0.0
C1196 C 0.4189 0.99916 0.63404 0.0
C1197 C 0.43544 0.05602 0.6186 0.0
C1198 C 0.43966 0.04083 0.60619 0.0
C1199 C 0.43332 0.0227 0.61113 0.0
C1200 C 0.45336 0.04265 0.58992 0.0
C1201 C 0.44038 0.07606 0.6133 0.0
C1202 C 0.44912 0.03573 0.57172 0.0
C1203 C 0.46337 0.03414 0.55753 0.0
C1204 C 0.4821 0.03928 0.56145 0.0
C1205 C 0.48607 0.04707 0.57936 0.0
C1206 C 0.47185 0.04865 0.59348 0.0
H1207 H 0.42999 0.0861 0.61987 0.0
H1208 H 0.45454 0.07936 0.61896 0.0
H1209 H 0.44076 0.07829 0.59748 0.0
H1210 H 0.43498 0.03085 0.56876 0.0
H1211 H 0.45987 0.02809 0.54384 0.0
H1212 H 0.28458 0.14469 0.9505 0.0
H1213 H 0.28373 0.1606 0.91911 0.0
H1214 H 0.25626 0.20875 0.94535 0.0
H1215 H 0.25778 0.19321 0.97683 0.0
H1216 H 0.25712 0.17297 0.89657 0.0
H1217 H 0.29846 0.23489 0.9177 0.0
H1218 H 0.29585 0.21445 0.93305 0.0
H1219 H 0.27742 0.23221 0.93235 0.0
C1220 C 0.27832 0.15866 0.94958 0.0
C1221 C 0.2714 0.16771 0.96626 0.0
C1222 C 0.27785 0.16779 0.93158 0.0
C1223 C 0.27037 0.18617 0.92974 0.0
C1224 C 0.26272 0.19489 0.94631 0.0
H1225 H 0.23921 0.23688 0.81889 0.0
H1226 H 0.2394 0.2209 0.85018 0.0
C1227 C 0.26342 0.18587 0.96434 0.0
C1228 C 0.27049 0.1961 0.91054 0.0
H1229 H 0.28329 0.23709 0.88752 0.0
C1230 C 0.26292 0.18697 0.89462 0.0
C1231 C 0.27838 0.21426 0.90768 0.0
C1232 C 0.28817 0.22444 0.92355 0.0
C1233 C 0.26274 0.19548 0.87621 0.0
C1234 C 0.26979 0.21402 0.87357 0.0
C1235 C 0.27763 0.22303 0.88942 0.0
C1236 C 0.2695 0.22419 0.85451 0.0
C1237 C 0.25547 0.18422 0.85969 0.0
C1238 C 0.28615 0.23223 0.84663 0.0
C1239 C 0.28599 0.24178 0.82885 0.0
C1240 C 0.26917 0.24351 0.81839 0.0
C1241 C 0.25247 0.23568 0.82639 0.0
C1242 C 0.2526 0.22634 0.84428 0.0
H1243 H 0.2565 0.16883 0.86263 0.0
H1244 H 0.24029 0.18776 0.85759 0.0
H1245 H 0.26347 0.18737 0.84614 0.0
H1246 H 0.29939 0.23095 0.85416 0.0
H1247 H 0.29912 0.24764 0.8232 0.0
H1248 H 0.09864 0.01186 0.33558 0.0
H1249 H 0.08281 0.01333 0.36697 0.0
H1250 H 0.13252 0.98937 0.39329 0.0
H1251 H 0.14884 0.98867 0.36181 0.0
H1252 H 0.07324 0.98636 0.39166 0.0
H1253 H 0.1234 0.03494 0.42589 0.0
H1254 H 0.12428 0.03025 0.40048 0.0
H1255 H 0.13422 0.01359 0.41721 0.0
C1256 C 0.10627 0.00702 0.34805 0.0
C1257 C 0.12502 1.00031 0.34632 0.0
C1258 C 0.09717 0.0078 0.36598 0.0
C1259 C 0.10655 0.00168 0.3825 0.0
C1260 C 0.12518 0.99459 0.38079 0.0
H1261 H 0.04147 0.9885 0.49082 0.0
H1262 H 0.05897 0.98167 0.46087 0.0
C1263 C 0.13445 0.99412 0.36282 0.0
C1264 C 0.09659 0.00284 0.40138 0.0
H1265 H 0.09841 0.02317 0.44546 0.0
C1266 C 0.07874 0.99437 0.40347 0.0
C1267 C 0.10377 0.01343 0.41665 0.0
C1268 C 0.12237 0.02372 0.41495 0.0
C1269 C 0.06759 0.99665 0.42022 0.0
C1270 C 0.07483 0.00713 0.43555 0.0
C1271 C 0.09292 0.01512 0.43367 0.0
C1272 C 0.06356 0.01097 0.45329 0.0
C1273 C 0.04788 0.98851 0.42095 0.0
C1274 C 0.0606 0.02967 0.4591 0.0
C1275 C 0.05103 0.03356 0.47635 0.0
C1276 C 0.04401 0.01883 0.48797 0.0
C1277 C 0.04652 1.00012 0.48195 0.0
C1278 C 0.05645 0.99621 0.46483 0.0
H1279 H 0.04267 0.98559 0.40634 0.0
H1280 H 0.04814 0.97499 0.42908 0.0
H1281 H 0.03765 0.9982 0.42827 0.0
H1282 H 0.06594 0.04127 0.45039 0.0
H1283 H 0.04926 0.04811 0.48067 0.0
H1284 H 0.2538 0.84429 0.58683 0.0
H1285 H 0.24685 0.84145 0.62117 0.0
H1286 H 0.24926 0.9018 0.6268 0.0
H1287 H 0.25595 0.9049 0.59207 0.0
H1288 H 0.27401 0.87571 0.65214 0.0
H1289 H 0.19731 0.8596 0.65348 0.0
H1290 H 0.21066 0.84822 0.63449 0.0
H1291 H 0.20864 0.87348 0.63461 0.0
C1292 C 0.25277 0.857 0.59529 0.0
C1293 C 0.25555 0.87481 0.58678 0.0
C1294 C 0.24862 0.85536 0.61486 0.0
C1295 C 0.24732 0.87144 0.62635 0.0
C1296 C 0.25 0.88929 0.61802 0.0
H1297 H 0.25981 0.83452 0.74654 0.0
H1298 H 0.25327 0.85863 0.72203 0.0
C1299 C 0.25387 0.891 0.59826 0.0
C1300 C 0.24491 0.86888 0.64727 0.0
H1301 H 0.21568 0.84636 0.67936 0.0
C1302 C 0.26111 0.86992 0.65847 0.0
C1303 C 0.22799 0.86147 0.65529 0.0
C1304 C 0.21008 0.86076 0.64391 0.0
C1305 C 0.26151 0.86158 0.67681 0.0
C1306 C 0.24509 0.8524 0.68409 0.0
C1307 C 0.22827 0.85331 0.67368 0.0
C1308 C 0.24622 0.83863 0.7001 0.0
C1309 C 0.28002 0.86098 0.68731 0.0
C1310 C 0.24355 0.81951 0.69613 0.0
C1311 C 0.24705 0.80578 0.71005 0.0
C1312 C 0.25337 0.81091 0.72824 0.0
C1313 C 0.25514 0.83014 0.73256 0.0
C1314 C 0.25147 0.84393 0.71859 0.0
H1315 H 0.29193 0.86696 0.67857 0.0
H1316 H 0.27854 0.86924 0.70072 0.0
H1317 H 0.28377 0.84625 0.69132 0.0
H1318 H 0.23953 0.81512 0.68192 0.0
H1319 H 0.24545 0.79112 0.70629 0.0
H1320 H 0.40383 0.04868 0.82466 0.0
H1321 H 0.42078 0.04092 0.85403 0.0
H1322 H 0.46437 0.0125 0.82043 0.0
H1323 H 0.4479 0.02085 0.791 0.0
H1324 H 0.42928 0.00714 0.86908 0.0
H1325 H 0.49566 0.04606 0.85305 0.0
H1326 H 0.47461 0.04925 0.83908 0.0
H1327 H 0.49012 0.02933 0.83491 0.0
C1328 C 0.41712 0.04094 0.82354 0.0
C1329 C 0.42461 0.03545 0.80556 0.0
C1330 C 0.42676 0.03648 0.8403 0.0
C1331 C 0.44396 0.02636 0.83938 0.0
C1332 C 0.45137 0.02072 0.82144 0.0
H1333 H 0.4915 0.97254 0.94171 0.0
H1334 H 0.47742 0.97779 0.91031 0.0
C1335 C 0.44188 0.02541 0.80464 0.0
C1336 C 0.45382 0.02131 0.85727 0.0
H1337 H 0.49571 0.02571 0.8803 0.0
C1338 C 0.4438 0.01122 0.87158 0.0
C1339 C 0.47271 0.0268 0.8605 0.0
C1340 C 0.48385 0.03861 0.84616 0.0
C1341 C 0.45208 0.00659 0.88915 0.0
C1342 C 0.47111 0.0117 0.89221 0.0
C1343 C 0.48119 0.02164 0.87782 0.0
C1344 C 0.48043 0.0081 0.91074 0.0
C1345 C 0.44015 0.99688 0.90449 0.0
C1346 C 0.48749 0.0233 0.92099 0.0
C1347 C 0.49594 0.02032 0.93867 0.0
C1348 C 0.49737 0.00206 0.94662 0.0
C1349 C 0.49065 0.98678 0.93609 0.0
C1350 C 0.48237 0.98977 0.91823 0.0
H1351 H 0.42474 0.99837 0.90172 0.0
H1352 H 0.44372 0.98162 0.90469 0.0
H1353 H 0.44293 0.00264 0.91892 0.0
H1354 H 0.4863 0.03755 0.91539 0.0
H1355 H 0.50138 0.03241 0.94601 0.0
H1356 H 0.28129 0.15191 0.08065 0.0
H1357 H 0.2845 0.1625 0.11405 0.0
H1358 H 0.26903 0.21897 0.09679 0.0
H1359 H 0.26546 0.20861 0.06393 0.0
H1360 H 0.30667 0.18945 0.1314 0.0
H1361 H 0.2311 0.20982 0.13998 0.0
H1362 H 0.2398 0.19583 0.12007 0.0
H1363 H 0.24199 0.2211 0.11945 0.0
C1364 C 0.2786 0.16658 0.08399 0.0
C1365 C 0.27281 0.17928 0.0695 0.0
C1366 C 0.28043 0.17263 0.10312 0.0
C1367 C 0.27652 0.19149 0.10817 0.0
C1368 C 0.27155 0.20425 0.09354 0.0
H1369 H 0.28866 0.26797 0.20209 0.0
H1370 H 0.28816 0.25113 0.17157 0.0
C1371 C 0.2696 0.19825 0.07461 0.0
C1372 C 0.27751 0.19813 0.12854 0.0
H1373 H 0.25222 0.22253 0.163 0.0
C1374 C 0.29467 0.19642 0.13839 0.0
C1375 C 0.26185 0.20718 0.1379 0.0
C1376 C 0.2426 0.20842 0.12888 0.0
C1377 C 0.29677 0.20423 0.15683 0.0
C1378 C 0.28139 0.21402 0.16567 0.0
C1379 C 0.26409 0.21519 0.15614 0.0
C1380 C 0.28312 0.22378 0.18448 0.0
C1381 C 0.31556 0.20251 0.16662 0.0
C1382 C 0.28056 0.214 0.20199 0.0
C1383 C 0.28077 0.22362 0.21957 0.0
C1384 C 0.28357 0.24326 0.22002 0.0
C1385 C 0.28656 0.25287 0.20241 0.0
C1386 C 0.28626 0.24327 0.18489 0.0
H1387 H 0.32626 0.1946 0.15786 0.0
H1388 H 0.3211 0.21677 0.16952 0.0
H1389 H 0.31358 0.1952 0.18069 0.0
H1390 H 0.27801 0.19898 0.20203 0.0
H1391 H 0.27833 0.21573 0.23278 0.0
H1392 H 0.19557 0.15074 0.01103 0.0
H1393 H 0.16853 0.12972 0.01159 0.0
H1394 H 0.20605 0.0818 0.01717 0.0
H1395 H 0.23357 0.10293 0.01663 0.0
H1396 H 0.17642 0.07764 0.98892 0.0
H1397 H 0.14691 0.10124 0.05922 0.0
H1398 H 0.15207 0.12017 0.04266 0.0
H1399 H 0.1711 0.10572 0.05156 0.0
C1400 C 0.19826 0.13575 0.01242 0.0
C1401 C 0.21696 0.12866 0.01386 0.0
C1402 C 0.18264 0.1237 0.01283 0.0
C1403 C 0.1851 0.10413 0.01467 0.0
C1404 C 0.20372 0.09686 0.01584 0.0
H1405 H 0.0879 0.03025 0.03995 0.0
H1406 H 0.11894 0.04544 0.04014 0.0
C1407 C 0.21946 0.10898 0.01558 0.0
C1408 C 0.16813 0.09154 0.01517 0.0
H1409 H 0.12639 0.08338 0.03984 0.0
C1410 C 0.16557 0.07877 0.00015 0.0
C1411 C 0.15396 0.0928 0.02988 0.0
C1412 C 0.15616 0.10559 0.04685 0.0
C1413 C 0.14902 0.06779 0.99912 0.0
C1414 C 0.13446 0.06968 0.01339 0.0
C1415 C 0.13736 0.08197 0.02876 0.0
C1416 C 0.116 0.05936 0.01256 0.0
C1417 C 0.14733 0.05417 0.98276 0.0
C1418 C 0.10381 0.06199 0.99699 0.0
C1419 C 0.08599 0.0533 0.99684 0.0
C1420 C 0.0798 0.04174 0.01227 0.0
C1421 C 0.09216 0.0389 0.02771 0.0
C1422 C 0.10994 0.04766 0.02789 0.0
H1423 H 0.16144 0.05042 0.9764 0.0
H1424 H 0.14015 0.04105 0.98759 0.0
H1425 H 0.13876 0.06082 0.9713 0.0
H1426 H 0.10785 0.07122 0.98515 0.0
H1427 H 0.07686 0.05601 0.98478 0.0
H1428 H 0.68826 0.39226 0.02923 0.0
H1429 H 0.65814 0.40878 0.03543 0.0
H1430 H 0.68851 0.45883 0.05032 0.0
H1431 H 0.71866 0.44257 0.0437 0.0
H1432 H 0.64305 0.42618 0.06787 0.0
H1433 H 0.65392 0.47768 0.00819 0.0
H1434 H 0.66853 0.45685 0.01082 0.0
H1435 H 0.67274 0.4773 0.02513 0.0
C1436 C 0.68852 0.40679 0.03383 0.0
C1437 C 0.7058 0.41621 0.03576 0.0
C1438 C 0.67131 0.41617 0.03742 0.0
C1439 C 0.67111 0.4351 0.04302 0.0
C1440 C 0.68836 0.44434 0.04559 0.0
H1441 H 0.58288 0.51848 0.06135 0.0
H1442 H 0.61184 0.49958 0.06395 0.0
C1443 C 0.70557 0.43502 0.04186 0.0
C1444 C 0.65286 0.44532 0.04566 0.0
H1445 H 0.6275 0.48305 0.02907 0.0
C1446 C 0.63961 0.4386 0.05939 0.0
C1447 C 0.64839 0.46143 0.03445 0.0
C1448 C 0.66155 0.46866 0.01869 0.0
C1449 C 0.62207 0.4478 0.06241 0.0
C1450 C 0.61778 0.46401 0.05136 0.0
C1451 C 0.631 0.4707 0.03765 0.0
C1452 C 0.59944 0.47413 0.05322 0.0
C1453 C 0.60834 0.44031 0.07747 0.0
C1454 C 0.58279 0.46586 0.04679 0.0
C1455 C 0.56618 0.47664 0.04521 0.0
C1456 C 0.56606 0.49586 0.04996 0.0
C1457 C 0.58249 0.50373 0.05752 0.0
C1458 C 0.59907 0.49297 0.05903 0.0
H1459 H 0.61523 0.43004 0.08732 0.0
H1460 H 0.6021 0.45201 0.08607 0.0
H1461 H 0.59658 0.4331 0.07029 0.0
H1462 H 0.58291 0.45139 0.04198 0.0
H1463 H 0.55377 0.47017 0.03931 0.0
H1464 H 0.90445 0.46203 0.28648 0.0
H1465 H 0.88334 0.43512 0.28861 0.0
H1466 H 0.8357 0.47104 0.27511 0.0
H1467 H 0.85675 0.49831 0.27297 0.0
H1468 H 0.83043 0.44528 0.30797 0.0
H1469 H 0.85782 0.40991 0.24206 0.0
H1470 H 0.87593 0.41701 0.25816 0.0
H1471 H 0.86152 0.4346 0.24659 0.0
C1472 C 0.88951 0.4643 0.28389 0.0
C1473 C 0.88232 0.48235 0.27945 0.0
C1474 C 0.87749 0.44886 0.28506 0.0
C1475 C 0.85807 0.45112 0.2818 0.0
C1476 C 0.85071 0.46908 0.27756 0.0
H1477 H 0.78719 0.35295 0.26775 0.0
H1478 H 0.80089 0.38427 0.26424 0.0
C1479 C 0.86277 0.48459 0.2763 0.0
C1480 C 0.84557 0.43461 0.2831 0.0
H1481 H 0.83904 0.39131 0.26373 0.0
C1482 C 0.83209 0.43354 0.29819 0.0
C1483 C 0.84771 0.41948 0.27017 0.0
C1484 C 0.8614 0.4203 0.25321 0.0
C1485 C 0.82118 0.4173 0.30116 0.0
C1486 C 0.82405 0.40178 0.28882 0.0
C1487 C 0.83699 0.40319 0.27328 0.0
C1488 C 0.81423 0.38367 0.29194 0.0
C1489 C 0.80674 0.41687 0.31748 0.0
C1490 C 0.81711 0.37302 0.30874 0.0
C1491 C 0.80936 0.35505 0.31076 0.0
C1492 C 0.7988 0.34738 0.29589 0.0
C1493 C 0.79557 0.35831 0.2793 0.0
C1494 C 0.80325 0.37626 0.27732 0.0
H1495 H 0.80249 0.43132 0.32199 0.0
H1496 H 0.79385 0.40913 0.3134 0.0
H1497 H 0.813 0.40956 0.33003 0.0
H1498 H 0.8259 0.37833 0.32001 0.0
H1499 H 0.81222 0.34688 0.32361 0.0
H1500 H 0.84086 0.64954 0.51265 0.0
H1501 H 0.87235 0.63475 0.51321 0.0
H1502 H 0.84723 0.58196 0.53044 0.0
H1503 H 0.81561 0.59675 0.53009 0.0
H1504 H 0.87961 0.58974 0.55096 0.0
H1505 H 0.89436 0.59888 0.47289 0.0
H1506 H 0.88829 0.62044 0.48493 0.0
H1507 H 0.87097 0.60212 0.48348 0.0
C1508 C 0.84198 0.63479 0.51663 0.0
C1509 C 0.82559 0.62435 0.52125 0.0
C1510 C 0.86006 0.62629 0.5168 0.0
C1511 C 0.86229 0.60709 0.52151 0.0
C1512 C 0.84598 0.59675 0.52663 0.0
H1513 H 0.96339 0.53739 0.4983 0.0
H1514 H 0.93179 0.55204 0.49891 0.0
C1515 C 0.82786 0.60524 0.52642 0.0
C1516 C 0.88156 0.59785 0.52112 0.0
H1517 H 0.92013 0.58845 0.4918 0.0
C1518 C 0.88844 0.58945 0.538 0.0
C1519 C 0.89311 0.59715 0.50418 0.0
C1520 C 0.88628 0.60496 0.48528 0.0
C1521 C 0.90654 0.58075 0.53851 0.0
C1522 C 0.91833 0.58061 0.52172 0.0
C1523 C 0.9113 0.58869 0.50475 0.0
C1524 C 0.93782 0.57184 0.52136 0.0
C1525 C 0.9127 0.57146 0.55696 0.0
C1526 C 0.95205 0.57819 0.53353 0.0
C1527 C 0.97022 0.56983 0.5332 0.0
C1528 C 0.97471 0.55492 0.52062 0.0
C1529 C 0.96053 0.54879 0.50823 0.0
C1530 C 0.94239 0.55718 0.50855 0.0
H1531 H 0.90041 0.56835 0.56671 0.0
H1532 H 0.92058 0.55813 0.55407 0.0
H1533 H 0.92223 0.58108 0.56457 0.0
H1534 H 0.94913 0.58972 0.54326 0.0
H1535 H 0.98074 0.57502 0.54289 0.0
H1536 H 0.17965 0.05084 0.30218 0.0
H1537 H 0.19636 0.08069 0.30214 0.0
H1538 H 0.1441 0.10999 0.31628 0.0
H1539 H 0.12711 0.08008 0.31651 0.0
H1540 H 0.18768 0.11189 0.27774 0.0
H1541 H 0.18276 0.12973 0.35542 0.0
H1542 H 0.17902 0.10618 0.34678 0.0
H1543 H 0.1609 0.1239 0.34415 0.0
C1544 C 0.17166 0.06356 0.30548 0.0
C1545 C 0.15199 0.06305 0.3093 0.0
C1546 C 0.18127 0.08061 0.30542 0.0
C1547 C 0.17146 0.09746 0.30928 0.0
C1548 C 0.15193 0.09705 0.3135 0.0
H1549 H 0.21849 0.20839 0.28245 0.0
H1550 H 0.19776 0.18097 0.28422 0.0
C1551 C 0.14225 0.07996 0.31357 0.0
C1552 C 0.1817 0.11546 0.30796 0.0
H1553 H 0.19748 0.15193 0.33463 0.0
C1554 C 0.18976 0.12073 0.29013 0.0
C1555 C 0.1844 0.12679 0.32422 0.0
C1556 C 0.17646 0.12139 0.34379 0.0
C1557 C 0.20073 0.137 0.28814 0.0
C1558 C 0.20346 0.14835 0.3044 0.0
C1559 C 0.19522 0.14319 0.3222 0.0
C1560 C 0.21571 0.16506 0.30343 0.0
C1561 C 0.20983 0.14159 0.26884 0.0
C1562 C 0.23249 0.16521 0.31384 0.0
C1563 C 0.24437 0.18078 0.31282 0.0
C1564 C 0.23963 0.19653 0.30142 0.0
C1565 C 0.22271 0.19636 0.29108 0.0
C1566 C 0.21082 0.18076 0.29213 0.0
H1567 H 0.20947 0.12947 0.25888 0.0
H1568 H 0.20208 0.15357 0.26216 0.0
H1569 H 0.22482 0.14584 0.2705 0.0
H1570 H 0.23649 0.15317 0.32259 0.0
H1571 H 0.25738 0.18038 0.32077 0.0
H1572 H 0.29715 0.93278 0.5083 0.0
H1573 H 0.32465 0.95168 0.49873 0.0
H1574 H 0.36191 0.90569 0.51439 0.0
H1575 H 0.33451 0.88649 0.52324 0.0
H1576 H 0.35272 0.96425 0.51856 0.0
H1577 H 0.38287 0.91798 0.46212 0.0
H1578 H 0.35948 0.91448 0.47249 0.0
H1579 H 0.38013 0.90531 0.48438 0.0
C1580 C 0.31121 0.92668 0.50963 0.0
C1581 C 0.31368 0.9081 0.51641 0.0
C1582 C 0.3269 0.93747 0.50411 0.0
C1583 C 0.34533 0.92995 0.5054 0.0
C1584 C 0.34782 0.91157 0.51262 0.0
H1585 H 0.44832 0.98788 0.52122 0.0
H1586 H 0.41795 0.97258 0.5232 0.0
C1587 C 0.33214 0.90067 0.51785 0.0
C1588 C 0.36202 0.94159 0.50012 0.0
H1589 H 0.40428 0.94057 0.47526 0.0
C1590 C 0.36386 0.95919 0.50887 0.0
C1591 C 0.37636 0.93524 0.48709 0.0
C1592 C 0.3745 0.91732 0.47583 0.0
C1593 C 0.38008 0.97015 0.50573 0.0
C1594 C 0.39514 0.96301 0.49406 0.0
C1595 C 0.39288 0.94589 0.48449 0.0
C1596 C 0.41374 0.97249 0.4925 0.0
C1597 C 0.38087 0.98924 0.51502 0.0
C1598 C 0.42199 0.97685 0.47449 0.0
C1599 C 0.43985 0.98523 0.4732 0.0
C1600 C 0.44983 0.98945 0.48992 0.0
C1601 C 0.44143 0.98489 0.50791 0.0
C1602 C 0.42375 0.97634 0.50915 0.0
H1603 H 0.36641 0.99533 0.51724 0.0
H1604 H 0.38733 0.98774 0.52935 0.0
H1605 H 0.38945 0.99928 0.50621 0.0
H1606 H 0.41459 0.97378 0.46142 0.0
H1607 H 0.44578 0.98823 0.45906 0.0
H1608 H 0.90255 0.60366 0.26447 0.0
H1609 H 0.88849 0.63458 0.25794 0.0
H1610 H 0.83544 0.60844 0.2448 0.0
H1611 H 0.84951 0.57729 0.25105 0.0
H1612 H 0.84666 0.63933 0.21942 0.0
H1613 H 0.84963 0.657 0.29699 0.0
H1614 H 0.87181 0.64974 0.2861 0.0
H1615 H 0.8527 0.63326 0.28834 0.0
C1616 C 0.88793 0.60445 0.26005 0.0
C1617 C 0.87702 0.58809 0.25852 0.0
C1618 C 0.87994 0.62212 0.25633 0.0
C1619 C 0.86089 0.62373 0.25121 0.0
C1620 C 0.85018 0.60741 0.24882 0.0
H1621 H 0.77725 0.71098 0.24114 0.0
H1622 H 0.79661 0.68256 0.23716 0.0
C1623 C 0.8582 0.58967 0.25244 0.0
C1624 C 0.85184 0.6425 0.24959 0.0
H1625 H 0.83884 0.68085 0.27607 0.0
C1626 C 0.84496 0.64848 0.23175 0.0
C1627 C 0.84971 0.65431 0.26575 0.0
C1628 C 0.85619 0.64825 0.28543 0.0
C1629 C 0.836 0.66611 0.22965 0.0
C1630 C 0.83368 0.6778 0.24588 0.0
C1631 C 0.84081 0.67189 0.26363 0.0
C1632 C 0.82277 0.69566 0.24533 0.0
C1633 C 0.82919 0.6721 0.21011 0.0
C1634 C 0.83109 0.71246 0.25122 0.0
C1635 C 0.82003 0.72872 0.2537 0.0
C1636 C 0.80043 0.72837 0.25044 0.0
C1637 C 0.79231 0.71172 0.24375 0.0
C1638 C 0.80338 0.69549 0.2413 0.0
H1639 H 0.83693 0.66448 0.19843 0.0
H1640 H 0.8139 0.66882 0.20908 0.0
H1641 H 0.83094 0.68749 0.20777 0.0
H1642 H 0.84602 0.71281 0.25454 0.0
H1643 H 0.8267 0.74133 0.25886 0.0
H1644 H 0.67465 0.44066 0.78913 0.0
H1645 H 0.69695 0.41619 0.7788 0.0
H1646 H 0.73368 0.4583 0.75342 0.0
H1647 H 0.71148 0.48312 0.76418 0.0
H1648 H 0.70852 0.40826 0.74163 0.0
H1649 H 0.7697 0.42677 0.78684 0.0
H1650 H 0.74617 0.43625 0.79128 0.0
H1651 H 0.76033 0.44493 0.77143 0.0
C1652 C 0.68747 0.44477 0.7814 0.0
C1653 C 0.69134 0.46379 0.77748 0.0
C1654 C 0.7002 0.43077 0.7755 0.0
C1655 C 0.71701 0.43547 0.7655 0.0
C1656 C 0.72092 0.45444 0.76141 0.0
H1657 H 0.7698 0.33212 0.7211 0.0
H1658 H 0.76248 0.36592 0.721 0.0
C1659 C 0.7082 0.46855 0.76746 0.0
C1660 C 0.72995 0.42015 0.7592 0.0
H1661 H 0.77219 0.39875 0.76926 0.0
C1662 C 0.72259 0.40628 0.74737 0.0
C1663 C 0.74826 0.41773 0.76679 0.0
C1664 C 0.75664 0.43211 0.77989 0.0
C1665 C 0.73241 0.38936 0.74401 0.0
C1666 C 0.75048 0.38659 0.75215 0.0
C1667 C 0.7584 0.40101 0.76297 0.0
C1668 C 0.75986 0.36785 0.75197 0.0
C1669 C 0.7226 0.37411 0.73307 0.0
C1670 C 0.76242 0.3582 0.76944 0.0
C1671 C 0.7671 0.33906 0.76954 0.0
C1672 C 0.76898 0.32929 0.75216 0.0
C1673 C 0.76807 0.33932 0.73469 0.0
C1674 C 0.76384 0.35857 0.73461 0.0
H1675 H 0.70727 0.37726 0.73121 0.0
H1676 H 0.72928 0.37283 0.71855 0.0
H1677 H 0.72391 0.3603 0.74057 0.0
H1678 H 0.75952 0.36513 0.78301 0.0
H1679 H 0.76781 0.33165 0.7832 0.0
H1680 H 0.00934 0.82039 0.94421 0.0
H1681 H 0.01047 0.85194 0.95831 0.0
H1682 H 0.03391 0.87404 0.90512 0.0
H1683 H 0.03265 0.8426 0.89089 0.0
H1684 H 0.05406 0.88462 0.93958 0.0
H1685 H 0.97665 0.89927 0.94614 0.0
H1686 H 0.98455 0.87691 0.95556 0.0
H1687 H 0.98647 0.88157 0.9302 0.0
C1688 C 0.01455 0.83199 0.93542 0.0
C1689 C 0.02082 0.82886 0.91633 0.0
C1690 C 0.01516 0.85008 0.94351 0.0
C1691 C 0.02218 0.86554 0.9328 0.0
C1692 C 0.02839 0.86245 0.91373 0.0
H1693 H 0.0174 0.98622 0.96091 0.0
H1694 H 0.01585 0.95552 0.94506 0.0
C1695 C 0.02758 0.84442 0.90556 0.0
C1696 C 0.02357 0.88474 0.9416 0.0
H1697 H 0.99704 0.92123 0.96035 0.0
C1698 C 0.04158 0.8926 0.9441 0.0
C1699 C 0.00733 0.89536 0.94741 0.0
C1700 C 0.98761 0.888 0.9446 0.0
C1701 C 0.04376 0.91049 0.9525 0.0
C1702 C 0.02754 0.92096 0.95861 0.0
C1703 C 0.00952 0.91326 0.95579 0.0
C1704 C 0.02902 0.93984 0.96807 0.0
C1705 C 0.06345 0.91817 0.95461 0.0
C1706 C 0.03695 0.94143 0.98635 0.0
C1707 C 0.03775 0.95898 0.99552 0.0
C1708 C 0.03079 0.97551 0.98661 0.0
C1709 C 0.0231 0.97392 0.96817 0.0
C1710 C 0.0221 0.9563 0.95911 0.0
H1711 H 0.07413 0.9103 0.94578 0.0
H1712 H 0.06387 0.9333 0.9504 0.0
H1713 H 0.06752 0.91701 0.9699 0.0
H1714 H 0.04221 0.929 0.99373 0.0
H1715 H 0.04364 0.95954 0.00974 0.0
H1716 H 0.96878 0.2554 0.66203 0.0
H1717 H 0.93901 0.24274 0.67539 0.0
H1718 H 0.90838 0.28955 0.65029 0.0
H1719 H 0.93769 0.30138 0.63599 0.0
H1720 H 0.91782 0.25633 0.70104 0.0
H1721 H 0.87235 0.25006 0.6387 0.0
H1722 H 0.89755 0.25365 0.63586 0.0
H1723 H 0.8814 0.27349 0.63823 0.0
C1724 C 0.95557 0.26264 0.659 0.0
C1725 C 0.95545 0.27928 0.64793 0.0
C1726 C 0.93859 0.25543 0.66663 0.0
C1727 C 0.92132 0.26495 0.66356 0.0
C1728 C 0.9213 0.28146 0.65226 0.0
H1729 H 0.83268 0.2858 0.74353 0.0
H1730 H 0.86271 0.28066 0.72606 0.0
C1731 C 0.93814 0.28836 0.64424 0.0
C1732 C 0.90369 0.2592 0.67394 0.0
H1733 H 0.85578 0.25892 0.66897 0.0
C1734 C 0.90429 0.25639 0.69393 0.0
C1735 C 0.88601 0.25856 0.66476 0.0
C1736 C 0.88439 0.25887 0.64317 0.0
C1737 C 0.88762 0.25461 0.7051 0.0
C1738 C 0.86987 0.25673 0.69617 0.0
C1739 C 0.86932 0.25787 0.67602 0.0
C1740 C 0.85186 0.25917 0.70736 0.0
C1741 C 0.88933 0.25065 0.72634 0.0
C1742 C 0.83549 0.24953 0.70213 0.0
C1743 C 0.81815 0.25318 0.71149 0.0
C1744 C 0.81701 0.26619 0.72654 0.0
C1745 C 0.83335 0.27558 0.73206 0.0
C1746 C 0.85055 0.27242 0.72226 0.0
H1747 H 0.90202 0.24171 0.72916 0.0
H1748 H 0.89122 0.26411 0.734 0.0
H1749 H 0.87662 0.24343 0.73241 0.0
H1750 H 0.83606 0.23931 0.69067 0.0
H1751 H 0.80568 0.24567 0.70714 0.0
H1752 H 0.53306 0.21571 0.40527 0.0
H1753 H 0.53499 0.18282 0.41691 0.0
H1754 H 0.5066 0.19883 0.4698 0.0
H1755 H 0.50443 0.23119 0.45845 0.0
H1756 H 0.55147 0.16603 0.44948 0.0
H1757 H 0.47386 0.15569 0.45266 0.0
H1758 H 0.48463 0.17537 0.44014 0.0
H1759 H 0.48086 0.17599 0.4658 0.0
C1760 C 0.52722 0.21222 0.41937 0.0
C1761 C 0.5184 0.2263 0.43072 0.0
C1762 C 0.52834 0.19336 0.42604 0.0
C1763 C 0.52056 0.18811 0.44414 0.0
C1764 C 0.51227 0.20224 0.45561 0.0
H1765 H 0.54187 0.08968 0.51741 0.0
H1766 H 0.54185 0.12042 0.50115 0.0
C1767 C 0.51114 0.22093 0.44903 0.0
C1768 C 0.52102 0.16804 0.45135 0.0
H1769 H 0.49252 0.1332 0.46995 0.0
C1770 C 0.53856 0.1588 0.45378 0.0
C1771 C 0.50423 0.15831 0.45679 0.0
C1772 C 0.48482 0.16676 0.45354 0.0
C1773 C 0.53977 0.14054 0.46206 0.0
C1774 C 0.52301 0.13124 0.46847 0.0
C1775 C 0.50545 0.14025 0.46537 0.0
C1776 C 0.52326 0.11226 0.47839 0.0
C1777 C 0.55905 0.13133 0.46362 0.0
C1778 C 0.51237 0.09732 0.47156 0.0
C1779 C 0.51217 0.0797 0.48102 0.0
C1780 C 0.52279 0.07649 0.49769 0.0
C1781 C 0.53357 0.0915 0.5046 0.0
C1782 C 0.53372 0.10913 0.49516 0.0
H1783 H 0.56935 0.13734 0.45296 0.0
H1784 H 0.56459 0.13384 0.47816 0.0
H1785 H 0.55831 0.11589 0.46141 0.0
H1786 H 0.50405 0.09924 0.45878 0.0
H1787 H 0.50369 0.06856 0.47521 0.0
H1788 H 0.53782 0.78212 0.17791 0.0
H1789 H 0.56429 0.7717 0.19758 0.0
H1790 H 0.6021 0.80758 0.16467 0.0
H1791 H 0.57579 0.81825 0.14501 0.0
H1792 H 0.59702 0.75333 0.18292 0.0
H1793 H 0.61498 0.81904 0.22059 0.0
H1794 H 0.59249 0.81579 0.20921 0.0
H1795 H 0.61317 0.82203 0.19504 0.0
C1796 C 0.5517 0.78804 0.17502 0.0
C1797 C 0.55468 0.801 0.15982 0.0
C1798 C 0.56679 0.78203 0.18626 0.0
C1799 C 0.58505 0.78901 0.18266 0.0
C1800 C 0.58801 0.80229 0.16788 0.0
H1801 H 0.69957 0.76926 0.21265 0.0
H1802 H 0.66918 0.77837 0.19904 0.0
C1803 C 0.57296 0.80829 0.15659 0.0
C1804 C 0.60133 0.78141 0.19333 0.0
H1805 H 0.6385 0.7945 0.2205 0.0
C1806 C 0.60597 0.76223 0.19138 0.0
C1807 C 0.61289 0.7931 0.20434 0.0
C1808 C 0.60806 0.8136 0.2076 0.0
C1809 C 0.62245 0.7546 0.19944 0.0
C1810 C 0.63434 0.76647 0.20988 0.0
C1811 C 0.62935 0.78549 0.21237 0.0
C1812 C 0.65262 0.75979 0.21746 0.0
C1813 C 0.62745 0.73417 0.19603 0.0
C1814 C 0.65332 0.74612 0.23214 0.0
C1815 C 0.67072 0.74088 0.23996 0.0
C1816 C 0.68757 0.74939 0.23331 0.0
C1817 C 0.68678 0.76269 0.21825 0.0
C1818 C 0.66947 0.76787 0.21044 0.0
H1819 H 0.61869 0.72792 0.18469 0.0
H1820 H 0.64265 0.73259 0.1918 0.0
H1821 H 0.62502 0.72602 0.20954 0.0
H1822 H 0.6404 0.73993 0.23791 0.0
H1823 H 0.67091 0.73076 0.25169 0.0
H1824 H 1.0 0.25069 0.60749 0.0
H1825 H 0.00716 0.21995 0.59364 0.0
H1826 H 0.04694 0.24544 0.55354 0.0
H1827 H 0.03984 0.27644 0.56721 0.0
H1828 H 0.0226 0.21635 0.53792 0.0
H1829 H 0.05952 0.19435 0.60425 0.0
H1830 H 0.03591 0.2034 0.60836 0.0
H1831 H 0.054 0.21868 0.59871 0.0
C1832 C 0.01014 0.24987 0.5956 0.0
C1833 C 0.01955 0.26602 0.58864 0.0
C1834 C 0.01422 0.23227 0.58774 0.0
C1835 C 0.02781 0.23048 0.57286 0.0
C1836 C 0.03649 0.24661 0.56513 0.0
H1837 H 0.07888 0.12085 0.54832 0.0
H1838 H 0.07477 0.15473 0.55321 0.0
C1839 C 0.0324 0.26429 0.57297 0.0
C1840 C 0.0336 0.2116 0.56619 0.0
H1841 H 0.05302 0.17025 0.58192 0.0
C1842 C 0.02941 0.20628 0.54742 0.0
C1843 C 0.0428 0.19871 0.57856 0.0
C1844 C 0.04851 0.20408 0.59854 0.0
C1845 C 0.03348 0.18799 0.54095 0.0
C1846 C 0.04171 0.17477 0.55372 0.0
C1847 C 0.0466 0.18039 0.57221 0.0
C1848 C 0.04451 0.15476 0.54869 0.0
C1849 C 0.0289 0.18296 0.52057 0.0
C1850 C 0.02885 0.14363 0.54453 0.0
C1851 C 0.03116 0.12432 0.54165 0.0
C1852 C 0.04916 0.11576 0.54307 0.0
C1853 C 0.06488 0.12703 0.54694 0.0
C1854 C 0.06255 0.14636 0.54979 0.0
H1855 H 0.02829 0.19568 0.51117 0.0
H1856 H 0.03956 0.17294 0.51444 0.0
H1857 H 0.01479 0.17618 0.52045 0.0
H1858 H 0.01474 0.14978 0.54402 0.0
H1859 H 0.01881 0.11612 0.5384 0.0
H1860 H 0.56177 0.26519 0.34292 0.0
H1861 H 0.59253 0.26343 0.32581 0.0
H1862 H 0.62117 0.27145 0.37912 0.0
H1863 H 0.59046 0.27338 0.3963 0.0
H1864 H 0.62169 0.29216 0.32465 0.0
H1865 H 0.64804 0.22431 0.35487 0.0
H1866 H 0.62324 0.23099 0.35564 0.0
H1867 H 0.63934 0.24117 0.37214 0.0
C1868 C 0.5746 0.26639 0.35107 0.0
C1869 C 0.57355 0.26934 0.37106 0.0
C1870 C 0.59222 0.26544 0.34123 0.0
C1871 C 0.60928 0.26714 0.35113 0.0
C1872 C 0.60828 0.26985 0.37113 0.0
H1873 H 0.72331 0.29333 0.30748 0.0
H1874 H 0.69232 0.29277 0.32409 0.0
C1875 C 0.59066 0.27099 0.38095 0.0
C1876 C 0.62802 0.26676 0.34048 0.0
H1877 H 0.66983 0.24197 0.3357 0.0
C1878 C 0.63218 0.28116 0.32706 0.0
C1879 C 0.64175 0.25236 0.34344 0.0
C1880 C 0.63792 0.23621 0.35718 0.0
C1881 C 0.64972 0.28173 0.31688 0.0
C1882 C 0.66359 0.26754 0.32013 0.0
C1883 C 0.6593 0.25293 0.33326 0.0
C1884 C 0.68262 0.26771 0.31005 0.0
C1885 C 0.65324 0.29746 0.30256 0.0
C1886 C 0.68775 0.25368 0.29672 0.0
C1887 C 0.70549 0.25402 0.28705 0.0
C1888 C 0.71868 0.26828 0.29066 0.0
C1889 C 0.71358 0.28215 0.30424 0.0
C1890 C 0.69578 0.28189 0.31375 0.0
H1891 H 0.63993 0.30503 0.29884 0.0
H1892 H 0.66305 0.30776 0.30879 0.0
H1893 H 0.66001 0.29192 0.28918 0.0
H1894 H 0.67792 0.24254 0.29364 0.0
H1895 H 0.70889 0.24306 0.27678 0.0
H1896 H 0.51961 0.85157 0.11394 0.0
H1897 H 0.51935 0.88558 0.10884 0.0
H1898 H 0.47857 0.89215 0.15549 0.0
H1899 H 0.47899 0.85785 0.16093 0.0
H1900 H 0.46824 0.9074 0.1174 0.0
H1901 H 0.53856 0.93111 0.14076 0.0
H1902 H 0.53972 0.90965 0.12728 0.0
H1903 H 0.52737 0.91002 0.15018 0.0
C1904 C 0.51089 0.86027 0.12339 0.0
C1905 C 0.49926 0.85217 0.13776 0.0
C1906 C 0.51085 0.87968 0.12054 0.0
C1907 C 0.49907 0.89128 0.13192 0.0
C1908 C 0.48788 0.88334 0.14674 0.0
H1909 H 0.51108 0.00644 0.08939 0.0
H1910 H 0.50321 0.98188 0.1129 0.0
C1911 C 0.48816 0.86384 0.14982 0.0
C1912 C 0.49698 0.91122 0.1264 0.0
H1913 H 0.5241 0.94933 0.11531 0.0
C1914 C 0.48021 0.91687 0.11743 0.0
C1915 C 0.51255 0.92352 0.12666 0.0
C1916 C 0.53052 0.91835 0.13691 0.0
C1917 C 0.47927 0.93388 0.1071 0.0
C1918 C 0.49557 0.94525 0.10567 0.0
C1919 C 0.51168 0.94043 0.11622 0.0
C1920 C 0.49717 0.96088 0.09165 0.0
C1921 C 0.46119 0.9391 0.09708 0.0
C1922 C 0.49617 0.95719 0.0719 0.0
C1923 C 0.50072 0.97117 0.05838 0.0
C1924 C 0.5065 0.98897 0.06444 0.0
C1925 C 0.50676 0.99281 0.08424 0.0
C1926 C 0.5022 0.97885 0.09772 0.0
H1927 H 0.44865 0.93282 0.10457 0.0
H1928 H 0.45919 0.95462 0.09624 0.0
H1929 H 0.46184 0.93353 0.08223 0.0
H1930 H 0.49274 0.94324 0.06694 0.0
H1931 H 0.50042 0.9678 0.04324 0.0
H1932 H 0.94521 0.80022 0.89589 0.0
H1933 H 0.91786 0.79739 0.87534 0.0
H1934 H 0.95032 0.76141 0.83712 0.0
H1935 H 0.97816 0.76474 0.85743 0.0
H1936 H 0.92857 0.7843 0.81659 0.0
H1937 H 0.88285 0.75393 0.87412 0.0
H1938 H 0.89151 0.77653 0.8808 0.0
H1939 H 0.90794 0.7572 0.87705 0.0
C1940 C 0.94665 0.7917 0.8831 0.0
C1941 C 0.964 0.78257 0.87852 0.0
C1942 C 0.93082 0.78995 0.87138 0.0
C1943 C 0.93162 0.77869 0.85486 0.0
C1944 C 0.94912 0.77004 0.84985 0.0
H1945 H 0.82522 0.74395 0.80184 0.0
H1946 H 0.8555 0.74462 0.81841 0.0
C1947 C 0.9651 0.77197 0.8615 0.0
C1948 C 0.91423 0.77608 0.84294 0.0
H1949 H 0.86706 0.76492 0.84607 0.0
C1950 C 0.91517 0.77992 0.82306 0.0
C1951 C 0.89666 0.76997 0.85107 0.0
C1952 C 0.89471 0.76397 0.87188 0.0
C1953 C 0.89911 0.7784 0.81135 0.0
C1954 C 0.88128 0.77338 0.81972 0.0
C1955 C 0.8805 0.76902 0.8395 0.0
C1956 C 0.86327 0.77255 0.80842 0.0
C1957 C 0.90164 0.78181 0.79002 0.0
C1958 C 0.85722 0.78793 0.79708 0.0
C1959 C 0.84 0.78743 0.78729 0.0
C1960 C 0.82803 0.77167 0.78881 0.0
C1961 C 0.83404 0.75629 0.80017 0.0
C1962 C 0.8514 0.7567 0.80976 0.0
H1963 H 0.91651 0.779 0.78516 0.0
H1964 H 0.89211 0.7728 0.78166 0.0
H1965 H 0.89835 0.79679 0.78671 0.0
H1966 H 0.86558 0.80062 0.79616 0.0
H1967 H 0.83577 0.7997 0.77898 0.0
H1968 H 0.9051 0.025 0.82618 0.0
H1969 H 0.91492 0.02692 0.8595 0.0
H1970 H 0.87104 0.06839 0.87086 0.0
H1971 H 0.86066 0.06593 0.83743 0.0
H1972 H 0.91239 0.07898 0.87337 0.0
H1973 H 0.89334 0.01538 0.91609 0.0
H1974 H 0.9002 0.01082 0.89151 0.0
H1975 H 0.87906 0.02439 0.89668 0.0
C1976 C 0.89708 0.03394 0.83601 0.0
C1977 C 0.8822 0.04533 0.82944 0.0
C1978 C 0.9026 0.03495 0.85502 0.0
C1979 C 0.89358 0.04768 0.86759 0.0
C1980 C 0.87792 0.05828 0.86138 0.0
H1981 H 0.97248 0.08396 0.95617 0.0
H1982 H 0.94324 0.0843 0.9377 0.0
C1983 C 0.87204 0.05687 0.84238 0.0
C1984 C 0.9033 0.05244 0.88535 0.0
H1985 H 0.92195 0.03121 0.9248 0.0
C1986 C 0.91412 0.0689 0.88504 0.0
C1987 C 0.90548 0.03913 0.9003 0.0
C1988 C 0.89379 0.02148 0.90133 0.0
C1989 C 0.92859 0.07147 0.8982 0.0
C1990 C 0.93174 0.05744 0.91241 0.0
C1991 C 0.91963 0.04185 0.91378 0.0
C1992 C 0.94888 0.05735 0.92427 0.0
C1993 C 0.9414 0.08827 0.89561 0.0
C1994 C 0.96147 0.04192 0.9232 0.0
C1995 C 0.97789 0.04159 0.93396 0.0
C1996 C 0.98214 0.0568 0.94573 0.0
C1997 C 0.96965 0.07231 0.94676 0.0
C1998 C 0.95298 0.07248 0.93629 0.0
H1999 H 0.93942 0.09549 0.88155 0.0
H2000 H 0.93814 0.09862 0.90709 0.0
H2001 H 0.95654 0.08399 0.89665 0.0
H2002 H 0.95862 0.03013 0.91396 0.0
H2003 H 0.98732 0.02947 0.93313 0.0
H2004 H 0.76123 0.21648 0.50861 0.0
H2005 H 0.75753 0.23392 0.53853 0.0
H2006 H 0.78237 0.18736 0.56969 0.0
H2007 H 0.78646 0.16989 0.53985 0.0
H2008 H 0.73563 0.22232 0.56933 0.0
H2009 H 0.80996 0.23222 0.59119 0.0
H2010 H 0.80388 0.22555 0.56713 0.0
H2011 H 0.8046 0.20815 0.58608 0.0
C2012 C 0.76619 0.21003 0.52177 0.0
C2013 C 0.77409 0.19174 0.52184 0.0
C2014 C 0.76406 0.22004 0.53884 0.0
C2015 C 0.76984 0.21199 0.55625 0.0
C2016 C 0.77819 0.19397 0.55633 0.0
H2017 H 0.75441 0.23272 0.67635 0.0
H2018 H 0.7606 0.22015 0.64427 0.0
C2019 C 0.78042 0.18396 0.53925 0.0
C2020 C 0.76565 0.22174 0.57452 0.0
H2021 H 0.78586 0.23733 0.6154 0.0
C2022 C 0.74662 0.22584 0.57932 0.0
C2023 C 0.78004 0.22625 0.58746 0.0
C2024 C 0.80078 0.22299 0.58265 0.0
C2025 C 0.74152 0.23378 0.59707 0.0
C2026 C 0.75587 0.23784 0.61018 0.0
C2027 C 0.77493 0.23409 0.60526 0.0
C2028 C 0.75137 0.2454 0.62939 0.0
C2029 C 0.72082 0.2372 0.60196 0.0
C2030 C 0.74403 0.2637 0.63152 0.0
C2031 C 0.74057 0.27098 0.64985 0.0
C2032 C 0.74451 0.26006 0.66628 0.0
C2033 C 0.75153 0.24159 0.664 0.0
C2034 C 0.755 0.23435 0.64571 0.0
H2035 H 0.71136 0.23021 0.59172 0.0
H2036 H 0.71736 0.23202 0.61673 0.0
H2037 H 0.71778 0.25257 0.60151 0.0
H2038 H 0.74137 0.27248 0.61902 0.0
H2039 H 0.73541 0.28533 0.65114 0.0
H2040 H 0.67205 0.999 0.35924 0.0
H2041 H 0.66649 0.9987 0.39422 0.0
H2042 H 0.6157 0.0322 0.38694 0.0
H2043 H 0.62119 0.03267 0.35229 0.0
H2044 H 0.63729 0.04112 0.42029 0.0
H2045 H 0.62193 0.96456 0.41289 0.0
H2046 H 0.64484 0.97314 0.40525 0.0
H2047 H 0.62418 0.97984 0.39213 0.0
C2048 C 0.65999 0.0067 0.3652 0.0
C2049 C 0.64684 0.01559 0.35312 0.0
C2050 C 0.65682 0.00646 0.38512 0.0
C2051 C 0.64055 0.01518 0.39303 0.0
C2052 C 0.62833 0.02536 0.38106 0.0
H2053 H 0.54899 0.00368 0.4641 0.0
H2054 H 0.5756 0.00133 0.44113 0.0
C2055 C 0.63142 0.02553 0.36126 0.0
C2056 C 0.63444 0.01189 0.41316 0.0
H2057 H 0.60991 0.97968 0.44026 0.0
C2058 C 0.63182 0.02758 0.42505 0.0
C2059 C 0.62728 0.99418 0.41911 0.0
C2060 C 0.62957 0.97691 0.40674 0.0
C2061 C 0.62074 0.02641 0.44198 0.0
C2062 C 0.61234 0.00901 0.44713 0.0
C2063 C 0.61637 0.99296 0.43614 0.0
C2064 C 0.59699 0.00794 0.46181 0.0
C2065 C 0.61674 0.04412 0.45328 0.0
C2066 C 0.60035 0.01183 0.48111 0.0
C2067 C 0.58517 0.01331 0.49422 0.0
C2068 C 0.56643 0.01077 0.48822 0.0
C2069 C 0.56324 0.00575 0.46912 0.0
C2070 C 0.57843 0.00438 0.45601 0.0
H2071 H 0.62267 0.05686 0.44606 0.0
H2072 H 0.60121 0.04623 0.45544 0.0
H2073 H 0.62313 0.04276 0.46765 0.0
H2074 H 0.61463 0.01431 0.48588 0.0
H2075 H 0.5881 0.01701 0.50892 0.0
H2076 H 0.80362 0.84873 0.0626 0.0
H2077 H 0.79936 0.83564 0.09477 0.0
H2078 H 0.75228 0.87361 0.10535 0.0
H2079 H 0.75669 0.88722 0.07285 0.0
H2080 H 0.77538 0.86992 0.13704 0.0
H2081 H 0.75806 0.79917 0.11046 0.0
H2082 H 0.78036 0.80728 0.10085 0.0
H2083 H 0.75881 0.81966 0.09492 0.0
C2084 C 0.7923 0.85441 0.07166 0.0
C2085 C 0.78034 0.86895 0.06488 0.0
C2086 C 0.78983 0.84677 0.09013 0.0
C2087 C 0.77516 0.85319 0.10243 0.0
C2088 C 0.76358 0.86822 0.09609 0.0
H2089 H 0.74312 0.78557 0.20444 0.0
H2090 H 0.74331 0.80247 0.17361 0.0
C2091 C 0.76613 0.87603 0.0775 0.0
C2092 C 0.77213 0.844 0.12174 0.0
H2093 H 0.76641 0.80091 0.14353 0.0
C2094 C 0.77324 0.85486 0.13845 0.0
C2095 C 0.76899 0.82437 0.12374 0.0
C2096 C 0.76628 0.81197 0.10654 0.0
C2097 C 0.77201 0.84656 0.15697 0.0
C2098 C 0.77002 0.82674 0.15893 0.0
C2099 C 0.76822 0.81603 0.1422 0.0
C2100 C 0.7698 0.81678 0.17807 0.0
C2101 C 0.7726 0.85921 0.17423 0.0
C2102 C 0.78474 0.81883 0.19095 0.0
C2103 C 0.78461 0.80921 0.20869 0.0
C2104 C 0.76968 0.79704 0.21395 0.0
C2105 C 0.75489 0.79475 0.20092 0.0
C2106 C 0.75497 0.80448 0.18324 0.0
H2107 H 0.76799 0.87381 0.1706 0.0
H2108 H 0.76342 0.85383 0.18619 0.0
H2109 H 0.78739 0.85986 0.17929 0.0
H2110 H 0.79666 0.82772 0.1872 0.0
H2111 H 0.7963 0.81127 0.21827 0.0
H2112 H 0.90057 0.05333 0.71857 0.0
H2113 H 0.91852 0.05553 0.68818 0.0
H2114 H 0.97003 0.06397 0.71908 0.0
H2115 H 0.95234 0.06146 0.74955 0.0
H2116 H 0.94385 0.0821 0.6706 0.0
H2117 H 0.97914 0.01428 0.68997 0.0
H2118 H 0.95862 0.02327 0.70296 0.0
H2119 H 0.98166 0.03284 0.70706 0.0
C2120 C 0.91566 0.05598 0.71892 0.0
C2121 C 0.92511 0.05682 0.73647 0.0
C2122 C 0.92587 0.05727 0.70154 0.0
C2123 C 0.9456 0.05952 0.70149 0.0
C2124 C 0.95484 0.06186 0.71891 0.0
H2125 H 0.01673 0.06736 0.59667 0.0
H2126 H 1.00164 0.07444 0.62787 0.0
C2127 C 0.9447 0.06042 0.73628 0.0
C2128 C 0.95669 0.05751 0.6834 0.0
H2129 H 0.98848 0.02839 0.66059 0.0
C2130 C 0.95372 0.07047 0.66839 0.0
C2131 C 0.96932 0.04211 0.68059 0.0
C2132 C 0.97231 0.02722 0.69591 0.0
C2133 C 0.96301 0.06833 0.65049 0.0
C2134 C 0.97572 0.053 0.64777 0.0
C2135 C 0.97883 0.04021 0.66286 0.0
C2136 C 0.98491 0.04905 0.62897 0.0
C2137 C 0.95868 0.08205 0.63444 0.0
C2138 C 0.98079 0.03224 0.61959 0.0
C2139 C 0.98948 0.02807 0.60197 0.0
C2140 C 0.00249 0.04064 0.5934 0.0
C2141 C 0.00675 0.05741 0.60292 0.0
C2142 C 0.99805 0.06155 0.62064 0.0
H2143 H 0.94587 0.09078 0.63774 0.0
H2144 H 0.97088 0.09162 0.63217 0.0
H2145 H 0.95647 0.07447 0.62079 0.0
H2146 H 0.97073 0.02239 0.62588 0.0
H2147 H 0.98585 0.01506 0.59499 0.0
H2148 H 0.80517 0.12365 0.42482 0.0
H2149 H 0.80797 0.13065 0.39019 0.0
H2150 H 0.76812 0.17675 0.39713 0.0
H2151 H 0.76528 0.1699 0.4314 0.0
H2152 H 0.76456 0.15476 0.36225 0.0
H2153 H 0.8377 0.18003 0.37589 0.0
H2154 H 0.83144 0.15625 0.38244 0.0
H2155 H 0.82104 0.17561 0.39542 0.0
C2156 C 0.79665 0.13493 0.41879 0.0
C2157 C 0.78521 0.14643 0.43072 0.0
C2158 C 0.79832 0.13894 0.39909 0.0
C2159 C 0.78843 0.15434 0.39127 0.0
C2160 C 0.77588 0.16481 0.40296 0.0
H2161 H 0.79209 0.24803 0.32349 0.0
H2162 H 0.79702 0.22188 0.34605 0.0
C2163 C 0.77433 0.16094 0.42253 0.0
C2164 C 0.79251 0.16142 0.37166 0.0
H2165 H 0.82309 0.19099 0.34802 0.0
C2166 C 0.77756 0.16219 0.35873 0.0
C2167 C 0.80949 0.17117 0.36737 0.0
C2168 C 0.82589 0.17086 0.38095 0.0
C2169 C 0.7785 0.17382 0.34236 0.0
C2170 C 0.79497 0.18466 0.33882 0.0
C2171 C 0.81052 0.18265 0.35089 0.0
C2172 C 0.7951 0.20016 0.32456 0.0
C2173 C 0.76127 0.17562 0.32993 0.0
C2174 C 0.79312 0.19655 0.30497 0.0
C2175 C 0.79014 0.21143 0.29212 0.0
C2176 C 0.78928 0.23014 0.29867 0.0
C2177 C 0.79262 0.23378 0.31807 0.0
C2178 C 0.79547 0.21886 0.33094 0.0
H2179 H 0.74878 0.16821 0.33626 0.0
H2180 H 0.7574 0.19069 0.32773 0.0
H2181 H 0.76452 0.16946 0.31562 0.0
H2182 H 0.79315 0.18222 0.29976 0.0
H2183 H 0.78787 0.2082 0.27717 0.0
H2184 H 0.62175 0.00252 0.24571 0.0
H2185 H 0.60743 0.00728 0.21435 0.0
H2186 H 0.56458 0.04341 0.23999 0.0
H2187 H 0.57872 0.03888 0.27141 0.0
H2188 H 0.56773 0.00326 0.20075 0.0
H2189 H 0.59517 0.07657 0.19965 0.0
H2190 H 0.60399 0.05864 0.21582 0.0
H2191 H 0.58135 0.06964 0.22052 0.0
C2192 C 0.60908 0.01122 0.24479 0.0
C2193 C 0.60158 0.02058 0.26105 0.0
C2194 C 0.60092 0.01389 0.22686 0.0
C2195 C 0.5852 0.02594 0.22492 0.0
C2196 C 0.57689 0.03426 0.24126 0.0
H2197 H 0.53421 0.07467 0.1228 0.0
H2198 H 0.54262 0.06699 0.15597 0.0
C2199 C 0.585 0.0316 0.25919 0.0
C2200 C 0.57849 0.03102 0.20563 0.0
H2201 H 0.57762 0.06723 0.17307 0.0
C2202 C 0.5698 0.01723 0.19467 0.0
C2203 C 0.58128 0.04928 0.19787 0.0
C2204 C 0.59107 0.06441 0.20895 0.0
C2205 C 0.5637 0.0213 0.17602 0.0
C2206 C 0.56681 0.03949 0.16812 0.0
C2207 C 0.57527 0.05332 0.17922 0.0
C2208 C 0.56194 0.04431 0.14813 0.0
C2209 C 0.55382 0.00617 0.16504 0.0
C2210 C 0.57048 0.03447 0.1328 0.0
C2211 C 0.56576 0.03887 0.11393 0.0
C2212 C 0.55256 0.0533 0.11003 0.0
C2213 C 0.54453 0.06359 0.12538 0.0
C2214 C 0.5492 0.05912 0.1443 0.0
H2215 H 0.54771 0.99525 0.17484 0.0
H2216 H 0.54228 0.01225 0.15624 0.0
H2217 H 0.56424 0.99913 0.15525 0.0
H2218 H 0.58079 0.02338 0.13545 0.0
H2219 H 0.57244 0.03095 0.10236 0.0
H2220 H 0.75373 0.90222 0.95049 0.0
H2221 H 0.75163 0.88646 0.9195 0.0
H2222 H 0.79531 0.84706 0.93651 0.0
H2223 H 0.79624 0.86192 0.96808 0.0
H2224 H 0.77162 0.88121 0.89038 0.0
H2225 H 0.75987 0.80957 0.91931 0.0
H2226 H 0.76023 0.82979 0.93468 0.0
H2227 H 0.78209 0.81829 0.92716 0.0
C2228 C 0.76287 0.89016 0.94761 0.0
C2229 C 0.77504 0.88323 0.96183 0.0
C2230 C 0.76167 0.8811 0.92982 0.0
C2231 C 0.77289 0.86506 0.92556 0.0
C2232 C 0.7858 0.85878 0.93949 0.0
H2233 H 0.78886 0.82685 0.80619 0.0
H2234 H 0.79007 0.84348 0.83667 0.0
C2235 C 0.78656 0.86748 0.95752 0.0
C2236 C 0.77117 0.85518 0.90657 0.0
H2237 H 0.76804 0.81173 0.88592 0.0
C2238 C 0.77065 0.866 0.88952 0.0
C2239 C 0.76943 0.83531 0.90509 0.0
C2240 C 0.76771 0.82262 0.92256 0.0
C2241 C 0.7687 0.8577 0.87132 0.0
C2242 C 0.76829 0.83777 0.86974 0.0
C2243 C 0.76859 0.82696 0.88681 0.0
C2244 C 0.76739 0.82777 0.85073 0.0
C2245 C 0.76639 0.87062 0.85415 0.0
C2246 C 0.75486 0.81265 0.84829 0.0
C2247 C 0.75471 0.80259 0.83099 0.0
C2248 C 0.76674 0.80763 0.81544 0.0
C2249 C 0.77906 0.82288 0.8177 0.0
C2250 C 0.77965 0.83255 0.8352 0.0
H2251 H 0.75996 0.88435 0.85843 0.0
H2252 H 0.78055 0.87358 0.8476 0.0
H2253 H 0.75732 0.86428 0.84314 0.0
H2254 H 0.74524 0.80848 0.85987 0.0
H2255 H 0.74516 0.79082 0.82979 0.0
H2256 H 0.85398 0.90019 0.99888 0.0
H2257 H 0.88113 0.92069 0.00196 0.0
H2258 H 0.84402 0.96606 0.02014 0.0
H2259 H 0.81651 0.94532 0.01751 0.0
H2260 H 0.89114 0.95246 0.98423 0.0
H2261 H 0.88254 0.96667 0.06219 0.0
H2262 H 0.86916 0.94882 0.05035 0.0
H2263 H 0.86234 0.97323 0.04826 0.0
C2264 C 0.85142 0.91452 0.00356 0.0
C2265 C 0.83285 0.92095 0.00802 0.0
C2266 C 0.8671 0.9263 0.00531 0.0
C2267 C 0.86486 0.94495 0.0116 0.0
C2268 C 0.84632 0.95163 0.0157 0.0
H2269 H 0.96057 0.02364 0.99736 0.0
H2270 H 0.92968 0.00846 0.99546 0.0
C2271 C 0.83052 0.93977 0.01401 0.0
C2272 C 0.88203 0.95714 0.01353 0.0
H2273 H 0.90736 0.98258 0.04561 0.0
C2274 C 0.8946 0.9591 0.99765 0.0
C2275 C 0.88686 0.96567 0.03109 0.0
C2276 C 0.87464 0.9634 0.04901 0.0
C2277 C 0.91171 0.96911 0.99883 0.0
C2278 C 0.91639 0.97793 0.01629 0.0
C2279 C 0.90381 0.97604 0.03216 0.0
C2280 C 0.93461 0.98844 0.01853 0.0
C2281 C 0.92495 0.96949 0.98148 0.0
C2282 C 0.94751 0.98304 0.03277 0.0
C2283 C 0.96516 0.99194 0.03409 0.0
C2284 C 0.97039 0.00653 0.02123 0.0
C2285 C 0.95715 0.01242 0.00747 0.0
C2286 C 0.93947 0.00359 0.00624 0.0
H2287 H 0.92191 0.95795 0.97136 0.0
H2288 H 0.92309 0.98306 0.97366 0.0
H2289 H 0.93998 0.96821 0.98576 0.0
H2290 H 0.94418 0.9715 0.04253 0.0
H2291 H 0.97494 0.98696 0.04484 0.0
H2292 H 0.35568 0.66434 0.99635 0.0
H2293 H 0.38759 0.65125 2e-05 0.0
H2294 H 0.36407 0.60121 0.02639 0.0
H2295 H 0.332 0.61425 0.02289 0.0
H2296 H 0.39913 0.61554 0.04312 0.0
H2297 H 0.40285 0.60653 0.96374 0.0
H2298 H 0.397 0.62983 0.97204 0.0
H2299 H 0.38081 0.61089 0.97671 0.0
C2300 C 0.35729 0.65071 0.00329 0.0
C2301 C 0.34135 0.64018 0.00911 0.0
C2302 C 0.37552 0.64326 0.00531 0.0
C2303 C 0.37806 0.62517 0.01311 0.0
C2304 C 0.3623 0.61518 0.02023 0.0
H2305 H 0.46589 0.542 0.00194 0.0
H2306 H 0.43721 0.56147 -7e-05 0.0
C2307 C 0.34402 0.62265 0.01824 0.0
C2308 C 0.39693 0.61603 0.01233 0.0
H2309 H 0.42996 0.59762 0.981 0.0
C2310 C 0.40597 0.61171 0.02957 0.0
C2311 C 0.40559 0.6109 0.99458 0.0
C2312 C 0.39606 0.61461 0.97568 0.0
C2313 C 0.42358 0.60234 0.02953 0.0
C2314 C 0.43231 0.59737 0.01176 0.0
C2315 C 0.42326 0.6017 0.99454 0.0
C2316 C 0.45024 0.58652 0.01089 0.0
C2317 C 0.4325 0.59732 0.04845 0.0
C2318 C 0.46717 0.59447 0.01696 0.0
C2319 C 0.48362 0.58344 0.01802 0.0
C2320 C 0.48331 0.56427 0.01308 0.0
C2321 C 0.46657 0.55669 0.00591 0.0
C2322 C 0.45017 0.56776 0.00479 0.0
H2323 H 0.42244 0.59927 0.0608 0.0
H2324 H 0.4376 0.58247 0.04842 0.0
H2325 H 0.44492 0.60647 0.0506 0.0
H2326 H 0.46749 0.60904 0.02143 0.0
H2327 H 0.49631 0.58972 0.02352 0.0
H2328 H 0.19301 0.54709 0.78401 0.0
H2329 H 0.21166 0.57401 0.77295 0.0
H2330 H 0.17087 0.61184 0.79948 0.0
H2331 H 0.1521 0.58506 0.81073 0.0
H2332 H 0.1962 0.60101 0.74779 0.0
H2333 H 0.22218 0.63413 0.81392 0.0
H2334 H 0.21418 0.61004 0.8134 0.0
H2335 H 0.19726 0.62913 0.81489 0.0
C2336 C 0.18818 0.5611 0.78792 0.0
C2337 C 0.17092 0.5639 0.79812 0.0
C2338 C 0.19888 0.57646 0.78154 0.0
C2339 C 0.19265 0.59485 0.78544 0.0
C2340 C 0.17605 0.59771 0.79656 0.0
H2341 H 0.21245 0.70801 0.75125 0.0
H2342 H 0.20043 0.67759 0.76254 0.0
C2343 C 0.1653 0.58237 0.80292 0.0
C2344 C 0.20221 0.61105 0.77611 0.0
H2345 H 0.2226 0.65321 0.78538 0.0
C2346 C 0.20225 0.61233 0.75595 0.0
C2347 C 0.21005 0.62571 0.78685 0.0
C2348 C 0.21111 0.62465 0.80846 0.0
C2349 C 0.20911 0.62837 0.74626 0.0
C2350 C 0.21632 0.64332 0.75706 0.0
C2351 C 0.21691 0.64173 0.77717 0.0
C2352 C 0.22238 0.66123 0.74801 0.0
C2353 C 0.20783 0.62959 0.72467 0.0
C2354 C 0.23834 0.662 0.7356 0.0
C2355 C 0.24512 0.67941 0.72899 0.0
C2356 C 0.23614 0.69618 0.73495 0.0
C2357 C 0.21963 0.69524 0.74657 0.0
C2358 C 0.21282 0.67793 0.75305 0.0
H2359 H 0.19864 0.61845 0.71888 0.0
H2360 H 0.20218 0.64357 0.72016 0.0
H2361 H 0.22223 0.62788 0.71812 0.0
H2362 H 0.24603 0.64925 0.73175 0.0
H2363 H 0.25802 0.67985 0.72028 0.0
H2364 H 0.2075 0.40311 0.50774 0.0
H2365 H 0.17684 0.4195 0.50939 0.0
H2366 H 0.20304 0.46675 0.53637 0.0
H2367 H 0.23392 0.45064 0.53415 0.0
H2368 H 0.15471 0.43172 0.53785 0.0
H2369 H 0.17635 0.49383 0.49416 0.0
H2370 H 0.19121 0.47312 0.4963 0.0
H2371 H 0.19054 0.49049 0.515 0.0
C2372 C 0.20677 0.417 0.51405 0.0
C2373 C 0.22328 0.42557 0.5207 0.0
C2374 C 0.18916 0.42639 0.51498 0.0
C2375 C 0.1875 0.44463 0.52262 0.0
C2376 C 0.20388 0.45297 0.52986 0.0
H2377 H 0.09014 0.52065 0.54224 0.0
H2378 H 0.12111 0.50462 0.54265 0.0
C2379 C 0.22157 0.44364 0.52876 0.0
C2380 C 0.16864 0.4547 0.52307 0.0
H2381 H 0.14591 0.49546 0.50942 0.0
C2382 C 0.15284 0.44563 0.53155 0.0
C2383 C 0.16597 0.47289 0.51483 0.0
C2384 C 0.18186 0.48309 0.50439 0.0
C2385 C 0.1347 0.45422 0.5322 0.0
C2386 C 0.13212 0.47241 0.52408 0.0
C2387 C 0.14787 0.48157 0.51572 0.0
C2388 C 0.11313 0.48205 0.52391 0.0
C2389 C 0.11844 0.44389 0.54181 0.0
C2390 C 0.09828 0.47486 0.51309 0.0
C2391 C 0.08057 0.48409 0.5127 0.0
C2392 C 0.07721 0.50072 0.52319 0.0
C2393 C 0.09213 0.50787 0.53403 0.0
C2394 C 0.10989 0.49872 0.53426 0.0
H2395 H 0.12344 0.43192 0.55085 0.0
H2396 H 0.10977 0.45359 0.55093 0.0
H2397 H 0.10914 0.4382 0.53064 0.0
H2398 H 0.10045 0.46218 0.50477 0.0
H2399 H 0.06949 0.47817 0.50415 0.0
H2400 H 0.91092 0.97443 0.77753 0.0
H2401 H 0.90051 0.94355 0.76658 0.0
H2402 H 0.84328 0.96505 0.76225 0.0
H2403 H 0.85359 0.99589 0.77258 0.0
H2404 H 0.87547 0.91925 0.78135 0.0
H2405 H 0.85128 0.94237 0.71 0.0
H2406 H 0.86553 0.9571 0.72485 0.0
H2407 H 0.84014 0.95636 0.72842 0.0
C2408 C 0.89612 0.97252 0.77428 0.0
C2409 C 0.8831 0.9876 0.77572 0.0
C2410 C 0.89023 0.95494 0.76794 0.0
C2411 C 0.87126 0.95222 0.76304 0.0
C2412 C 0.85813 0.96705 0.76525 0.0
H2413 H 0.80065 0.85805 0.76869 0.0
H2414 H 0.82101 0.88516 0.7731 0.0
C2415 C 0.86402 0.98462 0.77134 0.0
C2416 C 0.86476 0.93371 0.7564 0.0
H2417 H 0.83712 0.91368 0.72277 0.0
C2418 C 0.8674 0.91793 0.76835 0.0
C2419 C 0.85472 0.93185 0.73915 0.0
C2420 C 0.85296 0.9478 0.72478 0.0
C2421 C 0.859 0.90068 0.76425 0.0
C2422 C 0.84722 0.89943 0.74811 0.0
C2423 C 0.84582 0.91478 0.73537 0.0
C2424 C 0.83499 0.88299 0.74516 0.0
C2425 C 0.86255 0.88408 0.77746 0.0
C2426 C 0.8354 0.87338 0.72761 0.0
C2427 C 0.82347 0.85806 0.72495 0.0
C2428 C 0.81106 0.85217 0.73983 0.0
C2429 C 0.81037 0.86212 0.75716 0.0
C2430 C 0.82209 0.87749 0.75973 0.0
H2431 H 0.87663 0.88508 0.78421 0.0
H2432 H 0.85162 0.88402 0.78919 0.0
H2433 H 0.86189 0.87053 0.76968 0.0
H2434 H 0.84509 0.87759 0.7161 0.0
H2435 H 0.82428 0.85052 0.7115 0.0
H2436 H 0.70759 0.13828 0.47276 0.0
H2437 H 0.68213 0.11999 0.48786 0.0
H2438 H 0.72309 0.08798 0.5201 0.0
H2439 H 0.74875 0.10633 0.50527 0.0
H2440 H 0.67538 0.0805 0.48979 0.0
H2441 H 0.68757 0.11146 0.5617 0.0
H2442 H 0.69775 0.12133 0.53985 0.0
H2443 H 0.70759 0.10016 0.55005 0.0
C2444 C 0.71127 0.12723 0.48289 0.0
C2445 C 0.73023 0.12396 0.48797 0.0
C2446 C 0.69668 0.11678 0.4915 0.0
C2447 C 0.70076 0.10292 0.50534 0.0
C2448 C 0.71968 0.09889 0.50971 0.0
H2449 H 0.61374 0.04028 0.57187 0.0
H2450 H 0.64507 0.05135 0.56061 0.0
C2451 C 0.73431 0.10934 0.50112 0.0
C2452 C 0.68501 0.09336 0.51566 0.0
H2453 H 0.66175 0.09097 0.5592 0.0
C2454 C 0.67252 0.08259 0.505 0.0
C2455 C 0.68139 0.09612 0.53553 0.0
C2456 C 0.69417 0.10798 0.54751 0.0
C2457 C 0.65614 0.07493 0.51359 0.0
C2458 C 0.65211 0.07839 0.53324 0.0
C2459 C 0.66499 0.08842 0.54413 0.0
C2460 C 0.63371 0.07315 0.54208 0.0
C2461 C 0.64301 0.06359 0.50149 0.0
C2462 C 0.61721 0.08239 0.53604 0.0
C2463 C 0.5995 0.07625 0.54252 0.0
C2464 C 0.59797 0.06077 0.55515 0.0
C2465 C 0.61457 0.05233 0.56224 0.0
C2466 C 0.63239 0.05851 0.55572 0.0
H2467 H 0.65031 0.05829 0.48827 0.0
H2468 H 0.6372 0.05142 0.50978 0.0
H2469 H 0.63091 0.07265 0.49707 0.0
H2470 H 0.61804 0.09394 0.52576 0.0
H2471 H 0.58691 0.08312 0.53706 0.0
H2472 H 0.14913 0.4441 0.77879 0.0
H2473 H 0.16607 0.41391 0.77731 0.0
H2474 H 0.21885 0.44289 0.76729 0.0
H2475 H 0.20204 0.47324 0.76871 0.0
H2476 H 0.19356 0.39765 0.74811 0.0
H2477 H 0.22344 0.41237 0.81984 0.0
H2478 H 0.203 0.4249 0.81085 0.0
H2479 H 0.22625 0.43017 0.80143 0.0
C2480 C 0.16428 0.44405 0.77584 0.0
C2481 C 0.17431 0.46101 0.77406 0.0
C2482 C 0.17391 0.42681 0.77502 0.0
C2483 C 0.19368 0.4263 0.77254 0.0
C2484 C 0.20359 0.44312 0.76944 0.0
H2485 H 0.27317 0.33278 0.78392 0.0
H2486 H 0.25847 0.36414 0.783 0.0
C2487 C 0.19395 0.4604 0.77015 0.0
C2488 C 0.20395 0.40826 0.77469 0.0
H2489 H 0.23151 0.38326 0.80579 0.0
C2490 C 0.20193 0.39448 0.76064 0.0
C2491 C 0.21482 0.40431 0.79111 0.0
C2492 C 0.21699 0.41862 0.80679 0.0
C2493 C 0.21059 0.37672 0.76257 0.0
C2494 C 0.22106 0.37258 0.77924 0.0
C2495 C 0.22335 0.38649 0.79312 0.0
C2496 C 0.22973 0.35382 0.78244 0.0
C2497 C 0.20862 0.36264 0.74663 0.0
C2498 C 0.21833 0.33776 0.78349 0.0
C2499 C 0.22665 0.31986 0.78398 0.0
C2500 C 0.2465 0.31777 0.78363 0.0
C2501 C 0.25783 0.33393 0.78418 0.0
C2502 C 0.24948 0.35185 0.78356 0.0
H2503 H 0.20471 0.36961 0.73289 0.0
H2504 H 0.22202 0.35454 0.74425 0.0
H2505 H 0.19726 0.35255 0.75063 0.0
H2506 H 0.20302 0.33906 0.78317 0.0
H2507 H 0.21753 0.30768 0.78372 0.0
H2508 H 0.31823 0.56706 0.26211 0.0
H2509 H 0.29599 0.5934 0.25833 0.0
H2510 H 0.33974 0.62547 0.22895 0.0
H2511 H 0.3623 0.59961 0.23398 0.0
H2512 H 0.32787 0.64304 0.25873 0.0
H2513 H 0.26431 0.62053 0.2203 0.0
H2514 H 0.26931 0.60504 0.24007 0.0
H2515 H 0.28601 0.6068 0.22018 0.0
C2516 C 0.32284 0.57951 0.25425 0.0
C2517 C 0.3419 0.58153 0.24847 0.0
C2518 C 0.31009 0.59452 0.25197 0.0
C2519 C 0.31616 0.61144 0.24332 0.0
C2520 C 0.33477 0.61259 0.23575 0.0
H2521 H 0.25561 0.7164 0.22966 0.0
H2522 H 0.26689 0.684 0.2259 0.0
C2523 C 0.34763 0.59785 0.23858 0.0
C2524 C 0.30466 0.62888 0.24551 0.0
H2525 H 0.26063 0.64835 0.23979 0.0
C2526 C 0.31323 0.64422 0.25432 0.0
C2527 C 0.28554 0.63043 0.23987 0.0
C2528 C 0.27584 0.61487 0.2294 0.0
C2529 C 0.30335 0.66105 0.25762 0.0
C2530 C 0.28399 0.66233 0.25285 0.0
C2531 C 0.27536 0.64712 0.24385 0.0
C2532 C 0.27309 0.67995 0.25599 0.0
C2533 C 0.314 0.67744 0.26574 0.0
C2534 C 0.27182 0.68797 0.27434 0.0
C2535 C 0.26583 0.70664 0.27648 0.0
C2536 C 0.26048 0.71728 0.26035 0.0
C2537 C 0.25975 0.70853 0.24234 0.0
C2538 C 0.26614 0.69 0.24016 0.0
H2539 H 0.32959 0.67573 0.26365 0.0
H2540 H 0.30961 0.69096 0.2589 0.0
H2541 H 0.31096 0.67833 0.28141 0.0
H2542 H 0.27666 0.6802 0.28681 0.0
H2543 H 0.26624 0.71299 0.29055 0.0
H2544 H 0.51976 0.71128 0.63933 0.0
H2545 H 0.51724 0.6783 0.62891 0.0
H2546 H 0.52919 0.69562 0.57041 0.0
H2547 H 0.53222 0.72806 0.58064 0.0
H2548 H 0.4951 0.6592 0.60424 0.0
H2549 H 0.56879 0.65545 0.57596 0.0
H2550 H 0.56027 0.67481 0.59047 0.0
H2551 H 0.55602 0.67454 0.56502 0.0
C2552 C 0.52182 0.70805 0.62425 0.0
C2553 C 0.5265 0.72247 0.61095 0.0
C2554 C 0.5204 0.68912 0.61828 0.0
C2555 C 0.52359 0.68416 0.59887 0.0
C2556 C 0.52734 0.69873 0.58554 0.0
H2557 H 0.51666 0.5889 0.5229 0.0
H2558 H 0.51732 0.61941 0.53886 0.0
C2559 C 0.52895 0.71745 0.59147 0.0
C2560 C 0.52308 0.66397 0.59227 0.0
H2561 H 0.54789 0.63145 0.56523 0.0
C2562 C 0.50678 0.65308 0.59595 0.0
C2563 C 0.5383 0.65566 0.5815 0.0
C2564 C 0.5569 0.66565 0.57819 0.0
C2565 C 0.50501 0.63469 0.58851 0.0
C2566 C 0.5199 0.62681 0.57705 0.0
C2567 C 0.53636 0.63746 0.57382 0.0
C2568 C 0.51849 0.60788 0.56767 0.0
C2569 C 0.48696 0.62397 0.59237 0.0
C2570 C 0.51893 0.59099 0.57846 0.0
C2571 C 0.51871 0.57334 0.56929 0.0
C2572 C 0.5179 0.57213 0.54911 0.0
C2573 C 0.51716 0.58912 0.53844 0.0
C2574 C 0.51758 0.60668 0.54757 0.0
H2575 H 0.4758 0.63283 0.59943 0.0
H2576 H 0.48143 0.61846 0.57873 0.0
H2577 H 0.48999 0.61171 0.60188 0.0
H2578 H 0.51985 0.59145 0.59396 0.0
H2579 H 0.51942 0.56065 0.57802 0.0
H2580 H 0.56495 0.25541 0.8432 0.0
H2581 H 0.59293 0.25695 0.82173 0.0
H2582 H 0.62882 0.26226 0.87074 0.0
H2583 H 0.60103 0.26101 0.89222 0.0
H2584 H 0.6329 0.29108 0.84293 0.0
H2585 H 0.63715 0.21985 0.81025 0.0
H2586 H 0.61447 0.2316 0.8094 0.0
H2587 H 0.6238 0.2245 0.83217 0.0
C2588 C 0.57885 0.2565 0.84939 0.0
C2589 C 0.58083 0.25822 0.86935 0.0
C2590 C 0.5948 0.25733 0.83713 0.0
C2591 C 0.61288 0.25968 0.84471 0.0
C2592 C 0.61494 0.26048 0.86466 0.0
H2593 H 0.72776 0.27685 0.8087 0.0
H2594 H 0.69715 0.27425 0.82554 0.0
C2595 C 0.59906 0.25974 0.87689 0.0
C2596 C 0.62953 0.26305 0.83197 0.0
H2597 H 0.65911 0.24246 0.79872 0.0
C2598 C 0.63863 0.28047 0.83322 0.0
C2599 C 0.63676 0.24923 0.81923 0.0
C2600 C 0.62767 0.23017 0.8177 0.0
C2601 C 0.65502 0.28435 0.82226 0.0
C2602 C 0.66259 0.27035 0.80995 0.0
C2603 C 0.6532 0.25313 0.80824 0.0
C2604 C 0.68086 0.27289 0.7996 0.0
C2605 C 0.66416 0.30338 0.82398 0.0
C2606 C 0.68175 0.27288 0.77947 0.0
C2607 C 0.69923 0.27436 0.76977 0.0
C2608 C 0.71607 0.27566 0.78013 0.0
C2609 C 0.71505 0.27591 0.80032 0.0
C2610 C 0.69758 0.2745 0.80996 0.0
H2611 H 0.65404 0.31408 0.82984 0.0
H2612 H 0.67622 0.30219 0.83392 0.0
H2613 H 0.66975 0.30842 0.80982 0.0
H2614 H 0.66894 0.27158 0.77129 0.0
H2615 H 0.69958 0.27407 0.75421 0.0
H2616 H 0.04319 0.31599 0.0965 0.0
H2617 H 0.04437 0.34756 0.08184 0.0
H2618 H 0.01476 0.37028 0.13145 0.0
H2619 H 0.01444 0.33904 0.14646 0.0
H2620 H 0.01905 0.37061 0.06973 0.0
H2621 H 0.05492 0.40819 0.12741 0.0
H2622 H 0.05292 0.38291 0.12748 0.0
H2623 H 0.03361 0.39746 0.13646 0.0
C2624 C 0.03721 0.32778 0.10441 0.0
C2625 C 0.02893 0.32493 0.12279 0.0
C2626 C 0.0378 0.34589 0.09596 0.0
C2627 C 0.03001 0.36167 0.10557 0.0
C2628 C 0.02152 0.35871 0.12386 0.0
H2629 H 0.99719 0.46619 0.04465 0.0
H2630 H 0.99821 0.4349 0.05972 0.0
C2631 C 0.02122 0.34069 0.13243 0.0
C2632 C 0.03006 0.38096 0.0962 0.0
H2633 H 0.03938 0.42753 0.1041 0.0
C2634 C 0.02366 0.383 0.07726 0.0
C2635 C 0.03634 0.39733 0.10567 0.0
C2636 C 0.04503 0.39634 0.12528 0.0
C2637 C 0.02306 0.40069 0.06777 0.0
C2638 C 0.0283 0.41721 0.07764 0.0
C2639 C 0.03503 0.41511 0.09646 0.0
C2640 C 0.02737 0.43667 0.06869 0.0
C2641 C 0.01731 0.40128 0.04701 0.0
C2642 C 0.04302 0.44882 0.06933 0.0
C2643 C 0.04226 0.46701 0.06116 0.0
C2644 C 0.02588 0.4736 0.05191 0.0
C2645 C 0.01015 0.46156 0.05141 0.0
C2646 C 0.01079 0.44349 0.05991 0.0
H2647 H 0.02006 0.38753 0.03991 0.0
H2648 H 1.00186 0.40425 0.04632 0.0
H2649 H 0.02503 0.41237 0.03876 0.0
H2650 H 0.056 0.44416 0.07603 0.0
H2651 H 0.05467 0.47582 0.06185 0.0
H2652 H 0.95013 0.78266 0.42544 0.0
H2653 H 0.92291 0.78744 0.40467 0.0
H2654 H 0.95672 0.76942 0.35568 0.0
H2655 H 0.98402 0.76484 0.37614 0.0
H2656 H 0.93697 0.80291 0.34941 0.0
H2657 H 0.88995 0.74735 0.38004 0.0
H2658 H 0.89872 0.76359 0.3973 0.0
H2659 H 0.915 0.74814 0.38477 0.0
C2660 C 0.95174 0.77955 0.41028 0.0
C2661 C 0.96926 0.77335 0.40247 0.0
C2662 C 0.93615 0.78223 0.39846 0.0
C2663 C 0.93781 0.7786 0.37871 0.0
C2664 C 0.95519 0.77227 0.37091 0.0
H2665 H 0.84907 0.76767 0.2964 0.0
H2666 H 0.87621 0.76326 0.31726 0.0
C2667 C 0.97076 0.76964 0.38266 0.0
C2668 C 0.92165 0.78199 0.36594 0.0
H2669 H 0.87663 0.768 0.35691 0.0
C2670 C 0.92376 0.79529 0.35101 0.0
C2671 C 0.90458 0.77185 0.36802 0.0
C2672 C 0.9019 0.7568 0.38328 0.0
C2673 C 0.90915 0.7988 0.33809 0.0
C2674 C 0.89192 0.78897 0.34041 0.0
C2675 C 0.88985 0.7756 0.35529 0.0
C2676 C 0.87596 0.79201 0.32732 0.0
C2677 C 0.91244 0.81269 0.32182 0.0
C2678 C 0.8669 0.80965 0.32609 0.0
C2679 C 0.85138 0.81221 0.31418 0.0
C2680 C 0.84458 0.7971 0.30349 0.0
C2681 C 0.85383 0.7795 0.30466 0.0
C2682 C 0.86936 0.77697 0.3165 0.0
H2683 H 0.92778 0.81543 0.31926 0.0
H2684 H 0.90635 0.80751 0.30829 0.0
H2685 H 0.90536 0.82627 0.32546 0.0
H2686 H 0.87158 0.82132 0.33462 0.0
H2687 H 0.84437 0.82584 0.3138 0.0
H2688 H 0.52989 0.32921 0.89364 0.0
H2689 H 0.52148 0.3599 0.90736 0.0
H2690 H 0.52095 0.33526 0.96427 0.0
H2691 H 0.5294 0.30455 0.95073 0.0
H2692 H 0.48882 0.36962 0.93271 0.0
H2693 H 0.55923 0.38009 0.96522 0.0
H2694 H 0.5555 0.36331 0.94637 0.0
H2695 H 0.54819 0.35789 0.97067 0.0
C2696 C 0.52798 0.33034 0.90907 0.0
C2697 C 0.53043 0.31457 0.92116 0.0
C2698 C 0.52312 0.34782 0.91684 0.0
C2699 C 0.5208 0.34974 0.93677 0.0
C2700 C 0.52291 0.33398 0.94885 0.0
H2701 H 0.47474 0.43926 0.00685 0.0
H2702 H 0.47964 0.41022 0.98862 0.0
C2703 C 0.52771 0.3165 0.9411 0.0
C2704 C 0.51654 0.36833 0.94504 0.0
H2705 H 0.53494 0.40198 0.97356 0.0
C2706 C 0.49887 0.3768 0.94158 0.0
C2707 C 0.52987 0.37761 0.95636 0.0
C2708 C 0.54934 0.36939 0.9598 0.0
C2709 C 0.49399 0.39428 0.9496 0.0
C2710 C 0.50709 0.40325 0.96144 0.0
C2711 C 0.52491 0.39494 0.96453 0.0
C2712 C 0.50271 0.42126 0.97098 0.0
C2713 C 0.47497 0.40306 0.94526 0.0
C2714 C 0.51408 0.43695 0.96705 0.0
C2715 C 0.51137 0.45345 0.97746 0.0
C2716 C 0.49731 0.45448 0.99205 0.0
C2717 C 0.48556 0.4389 0.99558 0.0
C2718 C 0.48831 0.42235 0.98516 0.0
H2719 H 0.46862 0.39676 0.93237 0.0
H2720 H 0.4651 0.40071 0.95768 0.0
H2721 H 0.47625 0.4185 0.94291 0.0
H2722 H 0.52527 0.43631 0.95614 0.0
H2723 H 0.52039 0.46535 0.97417 0.0
H2724 H 0.95952 0.28645 0.144 0.0
H2725 H 0.92804 0.28639 0.15933 0.0
H2726 H 0.94922 0.25117 0.2051 0.0
H2727 H 0.98109 0.2521 0.19026 0.0
H2728 H 0.90311 0.26185 0.16664 0.0
H2729 H 0.9233 0.28917 0.23733 0.0
H2730 H 0.93976 0.28836 0.21717 0.0
H2731 H 0.93561 0.26762 0.23178 0.0
C2732 C 0.95753 0.27871 0.15737 0.0
C2733 C 0.97295 0.26937 0.16592 0.0
C2734 C 0.93942 0.27867 0.16617 0.0
C2735 C 0.93605 0.26912 0.18373 0.0
C2736 C 0.95135 0.25924 0.19198 0.0
H2737 H 0.8191 0.24343 0.22247 0.0
H2738 H 0.85101 0.24262 0.20804 0.0
C2739 C 0.96961 0.25959 0.18334 0.0
C2740 C 0.91649 0.26934 0.19298 0.0
H2741 H 0.89199 0.2773 0.23529 0.0
C2742 C 0.90075 0.26533 0.18165 0.0
C2743 C 0.91305 0.2742 0.21252 0.0
C2744 C 0.9288 0.28028 0.22534 0.0
C2745 C 0.88199 0.26594 0.18916 0.0
C2746 C 0.87864 0.26989 0.20892 0.0
C2747 C 0.89435 0.27403 0.22023 0.0
C2748 C 0.85904 0.27016 0.21806 0.0
C2749 C 0.86597 0.263 0.17551 0.0
C2750 C 0.85283 0.28549 0.22937 0.0
C2751 C 0.83465 0.28573 0.23812 0.0
C2752 C 0.82205 0.27074 0.23566 0.0
C2753 C 0.82826 0.25538 0.22443 0.0
C2754 C 0.84656 0.25498 0.216 0.0
H2755 H 0.87029 0.26661 0.16048 0.0
H2756 H 0.86195 0.24792 0.17583 0.0
H2757 H 0.85332 0.27166 0.17951 0.0
H2758 H 0.86204 0.2974 0.23137 0.0
H2759 H 0.83042 0.29777 0.24671 0.0
H2760 H 0.0125 0.70711 0.46108 0.0
H2761 H 0.02248 0.6744 0.46511 0.0
H2762 H 0.06303 0.68052 0.41819 0.0
H2763 H 0.05279 0.71336 0.41369 0.0
H2764 H 0.04411 0.64672 0.41712 0.0
H2765 H 0.07183 0.6583 0.48948 0.0
H2766 H 0.04779 0.6666 0.48823 0.0
H2767 H 0.06598 0.67753 0.47344 0.0
C2768 C 0.02355 0.70156 0.4516 0.0
C2769 C 0.032 0.7129 0.43722 0.0
C2770 C 0.0293 0.68287 0.45397 0.0
C2771 C 0.04382 0.67522 0.44226 0.0
C2772 C 0.05192 0.68626 0.42748 0.0
H2773 H 0.07311 0.56879 0.49509 0.0
H2774 H 0.08043 0.5971 0.47613 0.0
C2775 C 0.04604 0.70499 0.42495 0.0
C2776 C 0.05037 0.65568 0.44578 0.0
H2777 H 0.06243 0.62645 0.48257 0.0
C2778 C 0.04853 0.64224 0.43129 0.0
C2779 C 0.05684 0.64997 0.46401 0.0
C2780 C 0.06094 0.66393 0.47958 0.0
C2781 C 0.05138 0.62297 0.43516 0.0
C2782 C 0.05554 0.61708 0.45412 0.0
C2783 C 0.05898 0.63076 0.46806 0.0
C2784 C 0.05404 0.59719 0.46074 0.0
C2785 C 0.04953 0.6092 0.41896 0.0
C2786 C 0.03732 0.58713 0.45758 0.0
C2787 C 0.03349 0.57059 0.46791 0.0
C2788 C 0.04601 0.56428 0.482 0.0
C2789 C 0.06328 0.57351 0.48427 0.0
C2790 C 0.06741 0.58967 0.47347 0.0
H2791 H 0.05488 0.61545 0.40521 0.0
H2792 H 0.05743 0.59587 0.42174 0.0
H2793 H 0.03432 0.60596 0.41711 0.0
H2794 H 0.02646 0.59281 0.44836 0.0
H2795 H 0.01997 0.56375 0.46617 0.0
H2796 H 0.60369 0.77915 0.63833 0.0
H2797 H 0.63096 0.7788 0.65915 0.0
H2798 H 0.59378 0.7762 0.70903 0.0
H2799 H 0.56601 0.77649 0.68808 0.0
H2800 H 0.62482 0.80355 0.71116 0.0
H2801 H 0.65116 0.73274 0.68995 0.0
H2802 H 0.64619 0.7482 0.67006 0.0
H2803 H 0.62714 0.74063 0.68581 0.0
C2804 C 0.60111 0.77846 0.65372 0.0
C2805 C 0.58241 0.77779 0.66139 0.0
C2806 C 0.61687 0.77818 0.66566 0.0
C2807 C 0.6146 0.77725 0.68573 0.0
C2808 C 0.596 0.77682 0.69359 0.0
H2809 H 0.71095 0.75329 0.76119 0.0
H2810 H 0.68011 0.75324 0.74565 0.0
C2811 C 0.58009 0.77694 0.68157 0.0
C2812 C 0.63176 0.7769 0.6982 0.0
H2813 H 0.67257 0.75185 0.70691 0.0
C2814 C 0.63517 0.79216 0.71035 0.0
C2815 C 0.64533 0.76202 0.69736 0.0
C2816 C 0.64226 0.74487 0.68524 0.0
C2817 C 0.65192 0.79321 0.72111 0.0
C2818 C 0.66585 0.77868 0.71965 0.0
C2819 C 0.66211 0.76313 0.70799 0.0
C2820 C 0.68442 0.77934 0.72993 0.0
C2821 C 0.65449 0.80985 0.73405 0.0
C2822 C 0.69739 0.79398 0.72637 0.0
C2823 C 0.71515 0.79404 0.73525 0.0
C2824 C 0.72049 0.77943 0.74796 0.0
C2825 C 0.70739 0.76488 0.75164 0.0
C2826 C 0.68969 0.76478 0.74268 0.0
H2827 H 0.64073 0.81686 0.73768 0.0
H2828 H 0.66142 0.80553 0.7476 0.0
H2829 H 0.66368 0.82034 0.72657 0.0
H2830 H 0.69398 0.80521 0.71634 0.0
H2831 H 0.72483 0.8054 0.73187 0.0
H2832 H 0.65153 0.49268 0.73434 0.0
H2833 H 0.64408 0.49045 0.70021 0.0
H2834 H 0.58718 0.51038 0.71254 0.0
H2835 H 0.59436 0.51277 0.74647 0.0
H2836 H 0.61441 0.46908 0.68335 0.0
H2837 H 0.60698 0.54563 0.6689 0.0
H2838 H 0.61915 0.53626 0.68954 0.0
H2839 H 0.59368 0.53806 0.68984 0.0
C2840 C 0.63744 0.49664 0.72979 0.0
C2841 C 0.62356 0.50299 0.74315 0.0
C2842 C 0.63325 0.49535 0.71031 0.0
C2843 C 0.61522 0.50058 0.70392 0.0
C2844 C 0.6013 0.50665 0.71721 0.0
H2845 H 0.54195 0.4747 0.61551 0.0
H2846 H 0.56243 0.47538 0.64327 0.0
C2847 C 0.60542 0.50788 0.73662 0.0
C2848 C 0.61045 0.49921 0.68348 0.0
H2849 H 0.59165 0.52504 0.64692 0.0
C2850 C 0.60978 0.48132 0.67518 0.0
C2851 C 0.6048 0.51526 0.67281 0.0
C2852 C 0.60636 0.53492 0.68065 0.0
C2853 C 0.60225 0.47893 0.65691 0.0
C2854 C 0.595 0.49482 0.64696 0.0
C2855 C 0.59699 0.51285 0.6547 0.0
C2856 C 0.58373 0.49298 0.62947 0.0
C2857 C 0.60168 0.45939 0.64863 0.0
C2858 C 0.58875 0.50293 0.61265 0.0
C2859 C 0.57698 0.50267 0.5968 0.0
C2860 C 0.55993 0.49254 0.59757 0.0
C2861 C 0.5551 0.48239 0.61437 0.0
C2862 C 0.56685 0.48269 0.63021 0.0
H2863 H 0.61312 0.45027 0.6545 0.0
H2864 H 0.5879 0.45284 0.6526 0.0
H2865 H 0.60314 0.45977 0.63271 0.0
H2866 H 0.60167 0.51107 0.61188 0.0
H2867 H 0.58122 0.5104 0.58396 0.0
H2868 H 0.77025 0.33969 0.99543 0.0
H2869 H 0.77966 0.32215 0.96665 0.0
H2870 H 0.76231 0.36909 0.9311 0.0
H2871 H 0.75317 0.38689 0.95986 0.0
H2872 H 0.75698 0.31159 0.93746 0.0
H2873 H 0.81515 0.35677 0.90943 0.0
H2874 H 0.80559 0.35871 0.93363 0.0
H2875 H 0.79344 0.36958 0.91388 0.0
C2876 C 0.76856 0.34634 0.98149 0.0
C2877 C 0.761 0.36467 0.97986 0.0
C2878 C 0.77396 0.3363 0.96508 0.0
C2879 C 0.77196 0.34444 0.94679 0.0
C2880 C 0.76438 0.36273 0.94512 0.0
H2881 H 0.7589 0.29286 0.83794 0.0
H2882 H 0.7557 0.30775 0.86926 0.0
C2883 C 0.75903 0.37282 0.96153 0.0
C2884 C 0.77676 0.33338 0.92943 0.0
H2885 H 0.803 0.33419 0.88763 0.0
C2886 C 0.76719 0.31642 0.92665 0.0
C2887 C 0.79032 0.33956 0.91553 0.0
C2888 C 0.80187 0.35706 0.91832 0.0
C2889 C 0.77023 0.30586 0.90994 0.0
C2890 C 0.78293 0.31263 0.89553 0.0
C2891 C 0.79311 0.32915 0.89865 0.0
C2892 C 0.78505 0.3033 0.87671 0.0
C2893 C 0.75975 0.28759 0.90783 0.0
C2894 C 0.80273 0.29623 0.87037 0.0
C2895 C 0.80467 0.28786 0.85231 0.0
C2896 C 0.78898 0.28665 0.84026 0.0
C2897 C 0.77132 0.29378 0.84673 0.0
C2898 C 0.7694 0.30209 0.86474 0.0
H2899 H 0.75521 0.28168 0.92203 0.0
H2900 H 0.74683 0.29021 0.89935 0.0
H2901 H 0.76868 0.27693 0.90019 0.0
H2902 H 0.81501 0.29719 0.87938 0.0
H2903 H 0.81849 0.28269 0.84763 0.0
H2904 H 0.90783 0.55387 0.21459 0.0
H2905 H 0.9161 0.55786 0.18051 0.0
H2906 H 0.96653 0.52396 0.18802 0.0
H2907 H 0.95841 0.51972 0.22208 0.0
H2908 H 0.94992 0.57305 0.16315 0.0
H2909 H 0.93836 0.49856 0.14359 0.0
H2910 H 0.9292 0.50861 0.16571 0.0
H2911 H 0.95364 0.50127 0.16367 0.0
C2912 C 0.92068 0.54722 0.20903 0.0
C2913 C 0.93239 0.53634 0.22107 0.0
C2914 C 0.92537 0.54957 0.18956 0.0
C2915 C 0.94173 0.54096 0.18178 0.0
C2916 C 0.95365 0.53043 0.19376 0.0
H2917 H 0.0144 0.55515 0.08607 0.0
H2918 H 0.99579 0.55886 0.1157 0.0
C2919 C 0.94903 0.52811 0.21324 0.0
C2920 C 0.94652 0.54302 0.16112 0.0
H2921 H 0.95594 0.51733 0.12087 0.0
C2922 C 0.951 0.56094 0.15378 0.0
C2923 C 0.94747 0.52724 0.1489 0.0
C2924 C 0.94173 0.50785 0.15578 0.0
C2925 C 0.95755 0.56332 0.13474 0.0
C2926 C 0.95985 0.54731 0.12295 0.0
C2927 C 0.95427 0.52958 0.12998 0.0
C2928 C 0.96985 0.54815 0.10408 0.0
C2929 C 0.96228 0.58286 0.12754 0.0
C2930 C 0.9614 0.541 0.08764 0.0
C2931 C 0.97207 0.5387 0.07064 0.0
C2932 C 0.99141 0.54336 0.06994 0.0
C2933 C 0.99954 0.55141 0.08615 0.0
C2934 C 0.98887 0.55371 0.10308 0.0
H2935 H 0.9539 0.59374 0.13547 0.0
H2936 H 0.97752 0.58556 0.1299 0.0
H2937 H 0.95958 0.58442 0.11194 0.0
H2938 H 0.94676 0.53649 0.0882 0.0
H2939 H 0.96541 0.53245 0.0584 0.0
H2940 H 0.76167 0.69666 0.47817 0.0
H2941 H 0.75939 0.7126 0.44692 0.0
H2942 H 0.77326 0.66048 0.41834 0.0
H2943 H 0.77587 0.64453 0.44958 0.0
H2944 H 0.79367 0.68933 0.40314 0.0
H2945 H 0.71811 0.71116 0.40764 0.0
H2946 H 0.73153 0.71912 0.42755 0.0
H2947 H 0.72826 0.69427 0.42412 0.0
C2948 C 0.76405 0.68852 0.46524 0.0
C2949 C 0.76888 0.66925 0.46647 0.0
C2950 C 0.76263 0.69766 0.44731 0.0
C2951 C 0.76587 0.68777 0.43009 0.0
C2952 C 0.7706 0.66849 0.43131 0.0
H2953 H 0.74025 0.72921 0.31405 0.0
H2954 H 0.74058 0.71259 0.34509 0.0
C2955 C 0.77203 0.65934 0.44924 0.0
C2956 C 0.7651 0.69764 0.41091 0.0
H2957 H 0.73667 0.72477 0.38216 0.0
C2958 C 0.78116 0.69701 0.39857 0.0
C2959 C 0.74874 0.70752 0.40466 0.0
C2960 C 0.73061 0.70794 0.41658 0.0
C2961 C 0.78146 0.70619 0.38049 0.0
C2962 C 0.76534 0.71667 0.37454 0.0
C2963 C 0.74914 0.71698 0.3867 0.0
C2964 C 0.76496 0.72718 0.3557 0.0
C2965 C 0.79896 0.70425 0.36776 0.0
C2966 C 0.77831 0.74125 0.35126 0.0
C2967 C 0.77817 0.75079 0.33348 0.0
C2968 C 0.76457 0.74663 0.31964 0.0
C2969 C 0.75095 0.73282 0.32427 0.0
C2970 C 0.75112 0.72328 0.34208 0.0
H2971 H 0.80762 0.69172 0.3718 0.0
H2972 H 0.79518 0.70308 0.35242 0.0
H2973 H 0.80789 0.7169 0.36932 0.0
H2974 H 0.78888 0.74492 0.3616 0.0
H2975 H 0.78884 0.76137 0.33054 0.0
H2976 H 0.60914 0.50337 0.83525 0.0
H2977 H 0.59566 0.51115 0.86675 0.0
H2978 H 0.65168 0.51147 0.89038 0.0
H2979 H 0.66545 0.50367 0.85867 0.0
H2980 H 0.62282 0.49046 0.91209 0.0
H2981 H 0.59996 0.56326 0.89351 0.0
H2982 H 0.59306 0.54598 0.87638 0.0
H2983 H 0.61781 0.55048 0.87971 0.0
C2984 C 0.61864 0.50511 0.84711 0.0
C2985 C 0.63836 0.50303 0.84451 0.0
C2986 C 0.61091 0.50965 0.86505 0.0
C2987 C 0.62274 0.51221 0.88069 0.0
C2988 C 0.6424 0.50972 0.87834 0.0
H2989 H 0.57232 0.55327 0.98877 0.0
H2990 H 0.59389 0.54965 0.96097 0.0
C2991 C 0.6502 0.50524 0.86029 0.0
C2992 C 0.61422 0.51696 0.89954 0.0
H2993 H 0.58505 0.54922 0.9214 0.0
C2994 C 0.61482 0.50343 0.91431 0.0
C2995 C 0.60405 0.53401 0.90236 0.0
C2996 C 0.6038 0.54936 0.88722 0.0
C2997 C 0.6045 0.50604 0.93152 0.0
C2998 C 0.5932 0.52248 0.93377 0.0
C2999 C 0.59355 0.53652 0.91947 0.0
C3000 C 0.5801 0.52486 0.95036 0.0
C3001 C 0.60545 0.49105 0.947 0.0
C3002 C 0.56497 0.51241 0.95317 0.0
C3003 C 0.55259 0.51446 0.96891 0.0
C3004 C 0.55513 0.52908 0.98206 0.0
C3005 C 0.57002 0.54186 0.97889 0.0
C3006 C 0.58238 0.5398 0.96309 0.0
H3007 H 0.6185 0.48223 0.94543 0.0
H3008 H 0.60508 0.49741 0.96153 0.0
H3009 H 0.59303 0.48168 0.94592 0.0
H3010 H 0.56279 0.50104 0.9432 0.0
H3011 H 0.54125 0.50441 0.97094 0.0
H3012 H 0.73837 0.39368 0.08443 0.0
H3013 H 0.73331 0.39113 0.11934 0.0
H3014 H 0.7741 0.3455 0.12141 0.0
H3015 H 0.77934 0.34793 0.08682 0.0
H3016 H 0.72031 0.35914 0.13941 0.0
H3017 H 0.79053 0.37979 0.1649 0.0
H3018 H 0.78241 0.38577 0.14112 0.0
H3019 H 0.79294 0.36301 0.14588 0.0
C3020 C 0.74643 0.38326 0.09237 0.0
C3021 C 0.75926 0.37099 0.08283 0.0
C3022 C 0.74352 0.38185 0.11228 0.0
C3023 C 0.75361 0.36838 0.12294 0.0
C3024 C 0.76652 0.3563 0.11348 0.0
H3025 H 0.74102 0.28893 0.20482 0.0
H3026 H 0.73561 0.3124 0.17983 0.0
C3027 C 0.76935 0.35759 0.09366 0.0
C3028 C 0.74974 0.36552 0.14368 0.0
H3029 H 0.77346 0.35678 0.18491 0.0
C3030 C 0.73175 0.35915 0.14959 0.0
C3031 C 0.76447 0.36608 0.15707 0.0
C3032 C 0.78361 0.37425 0.15195 0.0
C3033 C 0.72877 0.35125 0.16794 0.0
C3034 C 0.74429 0.34941 0.18038 0.0
C3035 C 0.76162 0.35785 0.17526 0.0
C3036 C 0.74403 0.33614 0.19691 0.0
C3037 C 0.70932 0.34409 0.17343 0.0
C3038 C 0.75061 0.34162 0.21488 0.0
C3039 C 0.75401 0.32811 0.22917 0.0
C3040 C 0.751 0.3089 0.22563 0.0
C3041 C 0.74348 0.3036 0.208 0.0
C3042 C 0.74015 0.31707 0.19374 0.0
H3043 H 0.69813 0.35304 0.16687 0.0
H3044 H 0.70774 0.32961 0.16784 0.0
H3045 H 0.70699 0.34375 0.18926 0.0
H3046 H 0.75388 0.35623 0.21754 0.0
H3047 H 0.75977 0.33265 0.24265 0.0
H3048 H 0.88342 0.53701 0.33612 0.0
H3049 H 0.89107 0.52413 0.36787 0.0
H3050 H 0.94611 0.50649 0.34618 0.0
H3051 H 0.9387 0.5194 0.31444 0.0
H3052 H 0.91942 0.47878 0.37233 0.0
H3053 H 0.93689 0.55001 0.39981 0.0
H3054 H 0.916 0.54684 0.38577 0.0
H3055 H 0.93901 0.54479 0.37451 0.0
C3056 C 0.89713 0.53034 0.33811 0.0
C3057 C 0.91054 0.52931 0.32287 0.0
C3058 C 0.9014 0.52293 0.35618 0.0
C3059 C 0.91906 0.51433 0.35919 0.0
C3060 C 0.93234 0.51299 0.34397 0.0
H3061 H 0.99372 0.46755 0.43718 0.0
H3062 H 0.96997 0.47084 0.41271 0.0
C3063 C 0.92814 0.52047 0.32593 0.0
C3064 C 0.92439 0.50795 0.37852 0.0
H3065 H 0.94422 0.52403 0.41922 0.0
C3066 C 0.92457 0.48861 0.3828 0.0
C3067 C 0.9308 0.52091 0.39208 0.0
C3068 C 0.93076 0.54183 0.38796 0.0
C3069 C 0.93181 0.4818 0.4002 0.0
C3070 C 0.93949 0.49469 0.41324 0.0
C3071 C 0.93829 0.51411 0.40928 0.0
C3072 C 0.95108 0.48861 0.42972 0.0
C3073 C 0.9314 0.4609 0.40424 0.0
C3074 C 0.94821 0.49703 0.44772 0.0
C3075 C 0.96219 0.49577 0.46156 0.0
C3076 C 0.97935 0.486 0.45768 0.0
C3077 C 0.9811 0.47577 0.44049 0.0
C3078 C 0.96725 0.47731 0.42654 0.0
H3079 H 0.91885 0.4544 0.39769 0.0
H3080 H 0.94424 0.45419 0.39768 0.0
H3081 H 0.93108 0.45777 0.41991 0.0
H3082 H 0.93578 0.50576 0.45053 0.0
H3083 H 0.95995 0.50366 0.47462 0.0
H3084 H 0.7985 0.66501 0.57316 0.0
H3085 H 0.8032 0.67688 0.60582 0.0
H3086 H 0.74567 0.69817 0.60746 0.0
H3087 H 0.74128 0.68716 0.57486 0.0
H3088 H 0.76725 0.72418 0.61895 0.0
H3089 H 0.78814 0.6594 0.65844 0.0
H3090 H 0.80343 0.66435 0.6381 0.0
H3091 H 0.77891 0.65879 0.63449 0.0
C3092 C 0.78679 0.67194 0.58066 0.0
C3093 C 0.76953 0.67516 0.57131 0.0
C3094 C 0.78945 0.67869 0.59942 0.0
C3095 C 0.77475 0.6884 0.60942 0.0
C3096 C 0.75734 0.69089 0.60023 0.0
H3097 H 0.76655 0.71949 0.73104 0.0
H3098 H 0.76603 0.7033 0.70005 0.0
C3099 C 0.75481 0.68451 0.58151 0.0
C3100 C 0.77753 0.69716 0.62878 0.0
H3101 H 0.79107 0.68833 0.67508 0.0
C3102 C 0.77243 0.71624 0.63118 0.0
C3103 C 0.7841 0.68695 0.64501 0.0
C3104 C 0.78878 0.6662 0.64399 0.0
C3105 C 0.77354 0.72526 0.64906 0.0
C3106 C 0.7807 0.71526 0.66514 0.0
C3107 C 0.78581 0.69617 0.66282 0.0
C3108 C 0.78247 0.72431 0.68449 0.0
C3109 C 0.76629 0.7453 0.65059 0.0
C3110 C 0.79241 0.74125 0.68647 0.0
C3111 C 0.79249 0.75067 0.70411 0.0
C3112 C 0.78304 0.74319 0.72047 0.0
C3113 C 0.77402 0.72568 0.71879 0.0
C3114 C 0.7737 0.71639 0.70102 0.0
H3115 H 0.75608 0.74877 0.63911 0.0
H3116 H 0.75917 0.74785 0.66473 0.0
H3117 H 0.77839 0.7551 0.64893 0.0
H3118 H 0.79985 0.74744 0.67423 0.0
H3119 H 0.79974 0.76401 0.70486 0.0
H3120 H 0.73203 0.60329 0.50507 0.0
H3121 H 0.70429 0.58252 0.50392 0.0
H3122 H 0.66848 0.6277 0.52509 0.0
H3123 H 0.69569 0.6485 0.52539 0.0
H3124 H 0.67904 0.56853 0.52844 0.0
H3125 H 0.6395 0.61488 0.47915 0.0
H3126 H 0.66398 0.61894 0.48454 0.0
H3127 H 0.64525 0.62739 0.50042 0.0
C3128 C 0.71822 0.60875 0.50947 0.0
C3129 C 0.71611 0.62771 0.51501 0.0
C3130 C 0.70232 0.59687 0.5088 0.0
C3131 C 0.68398 0.60361 0.51381 0.0
C3132 C 0.68217 0.62223 0.52034 0.0
H3133 H 0.58389 0.5367 0.54459 0.0
H3134 H 0.61447 0.5526 0.54373 0.0
C3135 C 0.69788 0.63413 0.52067 0.0
C3136 C 0.66671 0.59143 0.51232 0.0
H3137 H 0.62116 0.59165 0.49621 0.0
C3138 C 0.66646 0.57353 0.52121 0.0
C3139 C 0.65026 0.59754 0.50251 0.0
C3140 C 0.64983 0.61564 0.49094 0.0
C3141 C 0.6502 0.56202 0.52114 0.0
C3142 C 0.63331 0.56875 0.51252 0.0
C3143 C 0.63382 0.58639 0.50312 0.0
C3144 C 0.61496 0.55797 0.51301 0.0
C3145 C 0.65157 0.54258 0.52999 0.0
C3146 C 0.60439 0.55595 0.4962 0.0
C3147 C 0.58654 0.54728 0.49678 0.0
C3148 C 0.5788 0.5401 0.51414 0.0
C3149 C 0.58951 0.54174 0.53088 0.0
C3150 C 0.60718 0.55077 0.53037 0.0
H3151 H 0.66641 0.53715 0.52945 0.0
H3152 H 0.64703 0.54324 0.54534 0.0
H3153 H 0.64244 0.53242 0.52258 0.0
H3154 H 0.60983 0.56133 0.48257 0.0
H3155 H 0.5787 0.54638 0.48362 0.0
H3156 H 0.19072 0.90117 0.5378 0.0
H3157 H 0.16171 0.91889 0.54562 0.0
H3158 H 0.19468 0.96871 0.55489 0.0
H3159 H 0.2238 0.95115 0.54677 0.0
H3160 H 0.15079 0.93888 0.57905 0.0
H3161 H 0.15636 0.98552 0.5145 0.0
H3162 H 0.17044 0.96431 0.51704 0.0
H3163 H 0.17673 0.9853 0.52954 0.0
C3164 C 0.19181 0.9159 0.54149 0.0
C3165 C 0.2095 0.92484 0.54148 0.0
C3166 C 0.17524 0.92597 0.54603 0.0
C3167 C 0.17608 0.94512 0.5506 0.0
C3168 C 0.19375 0.95399 0.55108 0.0
H3169 H 0.08544 0.02779 0.56356 0.0
H3170 H 0.11592 0.01153 0.56661 0.0
C3171 C 0.21035 0.94395 0.54647 0.0
C3172 C 0.15835 0.95588 0.55428 0.0
H3173 H 0.13092 0.99135 0.53614 0.0
C3174 C 0.14645 0.95042 0.56975 0.0
C3175 C 0.15277 0.97087 0.54206 0.0
C3176 C 0.16463 0.9768 0.52475 0.0
C3177 C 0.12902 0.95961 0.57332 0.0
C3178 C 0.12335 0.97441 0.56094 0.0
C3179 C 0.13541 0.98005 0.54568 0.0
C3180 C 0.10454 0.98368 0.56268 0.0
C3181 C 0.11686 0.95344 0.5903 0.0
C3182 C 0.08799 0.97332 0.55994 0.0
C3183 C 0.07052 0.98256 0.55823 0.0
C3184 C 0.0694 0.00232 0.55903 0.0
C3185 C 0.08585 0.01255 0.5628 0.0
C3186 C 0.10328 0.0033 0.56457 0.0
H3187 H 0.12538 0.94596 0.6013 0.0
H3188 H 0.10952 0.96567 0.5971 0.0
H3189 H 0.10591 0.9436 0.58533 0.0
H3190 H 0.08873 0.9582 0.55806 0.0
H3191 H 0.05811 0.9743 0.55525 0.0
H3192 H 0.40853 0.96299 0.78874 0.0
H3193 H 0.38885 0.93568 0.79613 0.0
H3194 H 0.33881 0.96742 0.78105 0.0
H3195 H 0.35832 0.99498 0.77365 0.0
H3196 H 0.33585 0.94326 0.81611 0.0
H3197 H 0.36397 0.90685 0.75088 0.0
H3198 H 0.38159 0.91578 0.76659 0.0
H3199 H 0.36619 0.93192 0.75425 0.0
C3200 C 0.39333 0.96428 0.78711 0.0
C3201 C 0.38503 0.98113 0.78034 0.0
C3202 C 0.38213 0.94865 0.79136 0.0
C3203 C 0.36248 0.94956 0.78889 0.0
C3204 C 0.354 0.96652 0.78298 0.0
H3205 H 0.29026 0.85383 0.77371 0.0
H3206 H 0.30539 0.88458 0.77171 0.0
C3207 C 0.36519 0.9822 0.7787 0.0
C3208 C 0.35101 0.93243 0.79132 0.0
H3209 H 0.34439 0.8891 0.77209 0.0
C3210 C 0.33762 0.9314 0.8065 0.0
C3211 C 0.35327 0.91718 0.77856 0.0
C3212 C 0.3669 0.91795 0.76154 0.0
C3213 C 0.32663 0.91521 0.80948 0.0
C3214 C 0.3293 0.89975 0.79702 0.0
C3215 C 0.34247 0.90097 0.78167 0.0
C3216 C 0.31859 0.8821 0.7994 0.0
C3217 C 0.3121 0.91484 0.82571 0.0
C3218 C 0.3209 0.87062 0.81573 0.0
C3219 C 0.31233 0.85297 0.81687 0.0
C3220 C 0.30151 0.84649 0.8016 0.0
C3221 C 0.29882 0.85828 0.78553 0.0
C3222 C 0.30732 0.8759 0.78443 0.0
H3223 H 0.3086 0.92923 0.83092 0.0
H3224 H 0.29885 0.90801 0.82117 0.0
H3225 H 0.31785 0.90655 0.83791 0.0
H3226 H 0.32987 0.87502 0.82726 0.0
H3227 H 0.31476 0.84411 0.82934 0.0
H3228 H 0.31624 0.09992 0.04024 0.0
H3229 H 0.34771 0.08518 0.04295 0.0
H3230 H 0.37216 0.1306 0.00942 0.0
H3231 H 0.34102 0.14575 0.0075 0.0
H3232 H 0.3715 0.07087 0.01844 0.0
H3233 H 0.40867 0.12995 0.05148 0.0
H3234 H 0.3833 0.13001 0.04895 0.0
H3235 H 0.39862 0.13717 0.02915 0.0
C3236 C 0.32838 0.10688 0.03366 0.0
C3237 C 0.32607 0.12416 0.02386 0.0
C3238 C 0.34642 0.0984 0.03516 0.0
C3239 C 0.36262 0.10688 0.02677 0.0
C3240 C 0.3602 0.12398 0.01666 0.0
H3241 H 0.46784 0.04474 0.99887 0.0
H3242 H 0.43643 0.05967 0.9988 0.0
C3243 C 0.34226 0.13261 0.01544 0.0
C3244 C 0.38185 0.09757 0.02794 0.0
H3245 H 0.42844 0.10578 0.03769 0.0
C3246 C 0.38389 0.07851 0.02282 0.0
C3247 C 0.39817 0.10725 0.03399 0.0
C3248 C 0.39705 0.12715 0.04141 0.0
C3249 C 0.40161 0.06909 0.02316 0.0
C3250 C 0.41813 0.0791 0.02807 0.0
C3251 C 0.41601 0.09804 0.03361 0.0
C3252 C 0.43763 0.07023 0.02785 0.0
C3253 C 0.40223 0.04832 0.01873 0.0
C3254 C 0.44946 0.07182 0.04379 0.0
C3255 C 0.46773 0.0637 0.04364 0.0
C3256 C 0.47464 0.0536 0.0276 0.0
C3257 C 0.46291 0.05218 0.01157 0.0
C3258 C 0.44479 0.0606 0.0116 0.0
H3259 H 0.3883 0.04163 0.02181 0.0
H3260 H 0.40559 0.04642 0.00321 0.0
H3261 H 0.41317 0.0408 0.0272 0.0
H3262 H 0.44449 0.07922 0.05651 0.0
H3263 H 0.47633 0.0651 0.05624 0.0
H3264 H 0.68539 0.55142 0.79533 0.0
H3265 H 0.69999 0.58234 0.79583 0.0
H3266 H 0.64618 0.6076 0.81212 0.0
H3267 H 0.63135 0.57657 0.81194 0.0
H3268 H 0.69 0.61383 0.77358 0.0
H3269 H 0.6831 0.62782 0.85198 0.0
H3270 H 0.68027 0.60462 0.84209 0.0
H3271 H 0.66156 0.62185 0.84021 0.0
C3272 C 0.67661 0.56349 0.79912 0.0
C3273 C 0.65718 0.5615 0.8036 0.0
C3274 C 0.685 0.58115 0.79937 0.0
C3275 C 0.67418 0.59716 0.80415 0.0
C3276 C 0.65481 0.59532 0.80869 0.0
H3277 H 0.71678 0.71086 0.78238 0.0
H3278 H 0.69688 0.68281 0.783 0.0
C3279 C 0.64636 0.5776 0.80849 0.0
C3280 C 0.68328 0.61578 0.80383 0.0
H3281 H 0.6966 0.6518 0.83249 0.0
C3282 C 0.69136 0.62223 0.78641 0.0
C3283 C 0.68509 0.62651 0.82067 0.0
C3284 C 0.67719 0.61985 0.83986 0.0
C3285 C 0.70154 0.63905 0.78542 0.0
C3286 C 0.70335 0.6498 0.80225 0.0
C3287 C 0.69503 0.64351 0.81962 0.0
C3288 C 0.71483 0.66705 0.80234 0.0
C3289 C 0.71085 0.64483 0.76655 0.0
C3290 C 0.73122 0.66753 0.81334 0.0
C3291 C 0.74259 0.68349 0.81301 0.0
C3292 C 0.73772 0.69924 0.8017 0.0
C3293 C 0.72109 0.6988 0.79093 0.0
C3294 C 0.70969 0.68284 0.79131 0.0
H3295 H 0.71145 0.63307 0.75613 0.0
H3296 H 0.70259 0.65658 0.76008 0.0
H3297 H 0.7255 0.64983 0.76878 0.0
H3298 H 0.7354 0.65542 0.82192 0.0
H3299 H 0.75539 0.68333 0.82131 0.0
H3300 H 0.79492 0.43223 0.01881 0.0
H3301 H 0.82175 0.45343 0.01383 0.0
H3302 H 0.85863 0.40578 0.0026 0.0
H3303 H 0.83198 0.38449 0.00729 0.0
H3304 H 0.85515 0.45396 0.03437 0.0
H3305 H 0.87014 0.44107 0.95708 0.0
H3306 H 0.84815 0.43431 0.9689 0.0
H3307 H 0.86907 0.41981 0.97123 0.0
C3308 C 0.8087 0.42624 0.01512 0.0
C3309 C 0.81126 0.40663 0.01342 0.0
C3310 C 0.824 0.43839 0.0123 0.0
C3311 C 0.84208 0.43117 0.00758 0.0
C3312 C 0.8447 0.41165 0.00583 0.0
H3313 H 0.95297 0.47615 0.02262 0.0
H3314 H 0.9225 0.4602 0.02527 0.0
C3315 C 0.82944 0.3995 0.00865 0.0
C3316 C 0.85847 0.44391 0.00537 0.0
H3317 H 0.89449 0.45631 0.9744 0.0
C3318 C 0.86365 0.45465 0.0212 0.0
C3319 C 0.86935 0.44496 0.98809 0.0
C3320 C 0.86381 0.43457 0.97028 0.0
C3321 C 0.87991 0.46588 0.02045 0.0
C3322 C 0.89138 0.46609 0.00352 0.0
C3323 C 0.88577 0.45594 0.98744 0.0
C3324 C 0.90956 0.47628 0.00236 0.0
C3325 C 0.88465 0.4774 0.03777 0.0
C3326 C 0.91251 0.49034 0.98834 0.0
C3327 C 0.92994 0.49946 0.98676 0.0
C3328 C 0.94478 0.4946 0.99911 0.0
C3329 C 0.94175 0.48048 0.01313 0.0
C3330 C 0.92433 0.47136 0.01467 0.0
H3331 H 0.87192 0.48001 0.04711 0.0
H3332 H 0.89523 0.46959 0.04643 0.0
H3333 H 0.89083 0.49116 0.03342 0.0
H3334 H 0.90129 0.49428 0.97865 0.0
H3335 H 0.93174 0.5104 0.97595 0.0
H3336 H 0.39555 0.09903 0.74203 0.0
H3337 H 0.37819 0.1284 0.73616 0.0
H3338 H 0.32513 0.09927 0.74362 0.0
H3339 H 0.34241 0.06965 0.74929 0.0
H3340 H 0.3268 0.12781 0.71242 0.0
H3341 H 0.35056 0.15325 0.78318 0.0
H3342 H 0.36927 0.14528 0.76721 0.0
H3343 H 0.35209 0.12879 0.77642 0.0
C3344 C 0.38019 0.0988 0.74222 0.0
C3345 C 0.37031 0.08212 0.7464 0.0
C3346 C 0.37032 0.11558 0.73884 0.0
C3347 C 0.35045 0.11596 0.73974 0.0
C3348 C 0.3405 0.09918 0.74291 0.0
H3349 H 0.26679 0.2058 0.74515 0.0
H3350 H 0.2827 0.17557 0.73905 0.0
C3351 C 0.35038 0.08233 0.74622 0.0
C3352 C 0.34019 0.13415 0.73907 0.0
H3353 H 0.33404 0.17502 0.7638 0.0
C3354 C 0.32831 0.13818 0.72361 0.0
C3355 C 0.34216 0.14748 0.75382 0.0
C3356 C 0.35407 0.14349 0.7712 0.0
C3357 C 0.31864 0.15554 0.72232 0.0
C3358 C 0.32083 0.16893 0.73698 0.0
C3359 C 0.33258 0.16476 0.75248 0.0
C3360 C 0.31088 0.18732 0.73702 0.0
C3361 C 0.30646 0.15957 0.70519 0.0
C3362 C 0.32146 0.20391 0.73767 0.0
C3363 C 0.31248 0.22111 0.74137 0.0
C3364 C 0.29274 0.222 0.74452 0.0
C3365 C 0.28203 0.20554 0.74275 0.0
C3366 C 0.29107 0.18828 0.73914 0.0
H3367 H 0.3099 0.14992 0.6931 0.0
H3368 H 0.29134 0.15761 0.70942 0.0
H3369 H 0.30822 0.17434 0.70011 0.0
H3370 H 0.33679 0.2034 0.73613 0.0
H3371 H 0.32111 0.23357 0.7425 0.0
H3372 H 0.20306 0.98368 0.27106 0.0
H3373 H 0.22482 0.95841 0.26065 0.0
H3374 H 0.18307 0.91708 0.27758 0.0
H3375 H 0.1612 0.94211 0.28754 0.0
H3376 H 0.24021 0.92973 0.28152 0.0
H3377 H 0.19735 0.90059 0.22378 0.0
H3378 H 0.19236 0.92339 0.23412 0.0
H3379 H 0.18347 0.90227 0.24559 0.0
C3380 C 0.19848 0.96919 0.27237 0.0
C3381 C 0.18039 0.96484 0.27999 0.0
C3382 C 0.21092 0.95481 0.26644 0.0
C3383 C 0.2054 0.93593 0.26799 0.0
C3384 C 0.18741 0.9316 0.27575 0.0
H3385 H 0.25721 0.83267 0.29054 0.0
H3386 H 0.24898 0.86612 0.28982 0.0
C3387 C 0.17496 0.94591 0.28156 0.0
C3388 C 0.21857 0.92049 0.26246 0.0
H3389 H 0.21945 0.87883 0.23872 0.0
C3390 C 0.23593 0.91876 0.27183 0.0
C3391 C 0.21326 0.90651 0.24937 0.0
C3392 C 0.19569 0.90841 0.23748 0.0
C3393 C 0.24736 0.90259 0.26968 0.0
C3394 C 0.24092 0.88762 0.25831 0.0
C3395 C 0.22433 0.89012 0.24771 0.0
C3396 C 0.24971 0.86857 0.25872 0.0
C3397 C 0.26598 0.9016 0.2799 0.0
C3398 C 0.25292 0.85873 0.24152 0.0
C3399 C 0.25698 0.83946 0.24194 0.0
C3400 C 0.25824 0.82979 0.25957 0.0
C3401 C 0.25645 0.83986 0.27677 0.0
C3402 C 0.25193 0.85905 0.27635 0.0
H3403 H 0.27236 0.91581 0.28079 0.0
H3404 H 0.26346 0.89644 0.29484 0.0
H3405 H 0.27629 0.89201 0.27257 0.0
H3406 H 0.25127 0.86574 0.22775 0.0
H3407 H 0.25845 0.83198 0.22848 0.0
H3408 H 0.5188 0.31817 0.44594 0.0
H3409 H 0.51993 0.3495 0.46038 0.0
H3410 H 0.52635 0.37467 0.40406 0.0
H3411 H 0.52535 0.34333 0.3895 0.0
H3412 H 0.55041 0.37641 0.45655 0.0
H3413 H 0.48261 0.40596 0.42973 0.0
H3414 H 0.48762 0.38095 0.43032 0.0
H3415 H 0.49825 0.39556 0.41194 0.0
C3416 C 0.52026 0.33036 0.43656 0.0
C3417 C 0.52191 0.32812 0.41649 0.0
C3418 C 0.52098 0.34832 0.44488 0.0
C3419 C 0.52307 0.36461 0.43339 0.0
C3420 C 0.52446 0.36245 0.41331 0.0
H3421 H 0.5265 0.48558 0.461 0.0
H3422 H 0.52604 0.45507 0.44474 0.0
C3423 C 0.52393 0.34445 0.40498 0.0
C3424 C 0.52447 0.38369 0.44247 0.0
H3425 H 0.50216 0.42666 0.44654 0.0
C3426 C 0.53982 0.38738 0.45438 0.0
C3427 C 0.51082 0.39818 0.43957 0.0
C3428 C 0.49379 0.39504 0.42732 0.0
C3429 C 0.54201 0.40504 0.46323 0.0
C3430 C 0.52813 0.41946 0.4607 0.0
C3431 C 0.51284 0.41578 0.44863 0.0
C3432 C 0.52902 0.43824 0.47063 0.0
C3433 C 0.55956 0.40816 0.47476 0.0
C3434 C 0.53074 0.43928 0.49072 0.0
C3435 C 0.53127 0.45676 0.50003 0.0
C3436 C 0.52977 0.47383 0.48962 0.0
C3437 C 0.52787 0.47281 0.46953 0.0
C3438 C 0.52751 0.45529 0.46019 0.0
H3439 H 0.57139 0.39871 0.47002 0.0
H3440 H 0.56441 0.42296 0.47353 0.0
H3441 H 0.55636 0.40494 0.49012 0.0
H3442 H 0.53132 0.42653 0.49935 0.0
H3443 H 0.53243 0.45685 0.51552 0.0
H3444 H 0.43479 0.80385 0.14351 0.0
H3445 H 0.40462 0.79539 0.15863 0.0
H3446 H 0.43018 0.74484 0.18206 0.0
H3447 H 0.46095 0.75409 0.16795 0.0
H3448 H 0.3811 0.76859 0.15629 0.0
H3449 H 0.40953 0.76673 0.23015 0.0
H3450 H 0.42356 0.77443 0.20968 0.0
H3451 H 0.42017 0.74966 0.21433 0.0
C3452 C 0.43396 0.79086 0.15178 0.0
C3453 C 0.45018 0.77971 0.15478 0.0
C3454 C 0.41669 0.786 0.16041 0.0
C3455 C 0.41518 0.76968 0.17189 0.0
C3456 C 0.43113 0.75783 0.17385 0.0
H3457 H 0.29811 0.74873 0.21326 0.0
H3458 H 0.32861 0.74462 0.19622 0.0
C3459 C 0.44863 0.76301 0.16565 0.0
C3460 C 0.397 0.76588 0.18226 0.0
H3461 H 0.37708 0.76092 0.22712 0.0
C3462 C 0.38021 0.76686 0.17179 0.0
C3463 C 0.39586 0.76372 0.20251 0.0
C3464 C 0.41321 0.76374 0.21486 0.0
C3465 C 0.36234 0.76689 0.18102 0.0
C3466 C 0.3612 0.76471 0.20126 0.0
C3467 C 0.37798 0.76263 0.21162 0.0
C3468 C 0.34295 0.76609 0.2122 0.0
C3469 C 0.34507 0.77048 0.169 0.0
C3470 C 0.34112 0.77877 0.22756 0.0
C3471 C 0.32397 0.78053 0.23779 0.0
C3472 C 0.30825 0.77003 0.23248 0.0
C3473 C 0.31003 0.75725 0.21728 0.0
C3474 C 0.32738 0.755 0.20748 0.0
H3475 H 0.34886 0.77726 0.155 0.0
H3476 H 0.33825 0.75686 0.1659 0.0
H3477 H 0.33457 0.77967 0.17661 0.0
H3478 H 0.35292 0.78746 0.23153 0.0
H3479 H 0.32287 0.7904 0.24955 0.0
H3480 H 0.00708 0.73312 0.96094 0.0
H3481 H 0.01002 0.70105 0.97301 0.0
H3482 H 0.03198 0.68311 0.91779 0.0
H3483 H 0.02944 0.71568 0.90555 0.0
H3484 H 0.99274 0.67013 0.96302 0.0
H3485 H 0.07011 0.65835 0.95244 0.0
H3486 H 0.05923 0.68136 0.95016 0.0
H3487 H 0.058 0.66475 0.93088 0.0
C3488 C 0.01267 0.72249 0.95123 0.0
C3489 C 0.018 0.72724 0.93213 0.0
C3490 C 0.01432 0.70398 0.95825 0.0
C3491 C 0.02139 0.68942 0.94651 0.0
C3492 C 0.02685 0.69401 0.9274 0.0
H3493 H 1.00156 0.57084 0.98065 0.0
H3494 H 1.00109 0.60163 0.96457 0.0
C3495 C 0.02528 0.7127 0.92033 0.0
C3496 C 0.02225 0.66955 0.95441 0.0
H3497 H 0.05215 0.63219 0.96343 0.0
C3498 C 0.00577 0.66186 0.96302 0.0
C3499 C 0.03923 0.65864 0.95478 0.0
C3500 C 0.05771 0.66621 0.94675 0.0
C3501 C 0.00576 0.64391 0.97195 0.0
C3502 C 0.02262 0.63282 0.97198 0.0
C3503 C 0.03914 0.64047 0.96336 0.0
C3504 C 0.02347 0.61355 0.98128 0.0
C3505 C 0.98773 0.63732 0.98187 0.0
C3506 C 0.03666 0.60942 0.99568 0.0
C3507 C 0.0371 0.59163 0.00482 0.0
C3508 C 0.02437 0.57739 -0.00019 0.0
C3509 C 0.01144 0.58143 0.98513 0.0
C3510 C 0.01108 0.59917 0.97593 0.0
H3511 H 0.97806 0.64931 0.98544 0.0
H3512 H 0.98012 0.62784 0.97215 0.0
H3513 H 0.9908 0.62945 0.99533 0.0
H3514 H 0.04647 0.62011 9e-05 0.0
H3515 H 0.04733 0.5891 0.01595 0.0
H3516 H 0.04084 0.29083 0.67409 0.0
H3517 H 0.06711 0.28304 0.69502 0.0
H3518 H 0.10337 0.3208 0.66254 0.0
H3519 H 0.07725 0.32854 0.64126 0.0
H3520 H 0.11847 0.28502 0.66675 0.0
H3521 H 0.09288 0.31255 0.73712 0.0
H3522 H 0.07624 0.29754 0.72571 0.0
H3523 H 0.08253 0.31967 0.71464 0.0
C3524 C 0.05431 0.29772 0.67151 0.0
C3525 C 0.05695 0.31024 0.6559 0.0
C3526 C 0.06927 0.29332 0.68361 0.0
C3527 C 0.08709 0.3015 0.68044 0.0
C3528 C 0.08966 0.31441 0.66524 0.0
H3529 H 0.18681 0.29047 0.75007 0.0
H3530 H 0.15859 0.30172 0.73353 0.0
C3531 C 0.07472 0.31881 0.65311 0.0
C3532 C 0.10344 0.29529 0.69188 0.0
H3533 H 0.11969 0.29172 0.73762 0.0
C3534 C 0.1188 0.28658 0.68223 0.0
C3535 C 0.10383 0.29747 0.71204 0.0
C3536 C 0.08807 0.30747 0.723 0.0
C3537 C 0.13445 0.27969 0.69225 0.0
C3538 C 0.13455 0.28127 0.71248 0.0
C3539 C 0.11938 0.29031 0.72212 0.0
C3540 C 0.15065 0.27414 0.72373 0.0
C3541 C 0.15087 0.27099 0.68108 0.0
C3542 C 0.15517 0.25485 0.72407 0.0
C3543 C 0.17137 0.24839 0.73338 0.0
C3544 C 0.18326 0.26115 0.74249 0.0
C3545 C 0.17816 0.28036 0.74282 0.0
C3546 C 0.16198 0.28679 0.73353 0.0
H3547 H 0.15052 0.2748 0.66557 0.0
H3548 H 0.16463 0.27553 0.68687 0.0
H3549 H 0.15015 0.25542 0.68238 0.0
H3550 H 0.14639 0.24485 0.7168 0.0
H3551 H 0.17493 0.23354 0.73284 0.0
H3552 H 0.52432 0.7732 0.06708 0.0
H3553 H 0.52972 0.74266 0.0518 0.0
H3554 H 0.50722 0.7146 0.1025 0.0
H3555 H 0.50124 0.74485 0.1176 0.0
H3556 H 0.55318 0.71561 0.06375 0.0
H3557 H 0.48096 0.68667 0.06132 0.0
H3558 H 0.4852 0.71124 0.06593 0.0
H3559 H 0.48604 0.69408 0.08518 0.0
C3560 C 0.52018 0.76053 0.07482 0.0
C3561 C 0.51235 0.76147 0.09357 0.0
C3562 C 0.52329 0.74312 0.06608 0.0
C3563 C 0.51863 0.7264 0.07592 0.0
C3564 C 0.51044 0.72733 0.09443 0.0
H3565 H 0.5701 0.61707 0.07301 0.0
H3566 H 0.56276 0.65075 0.07666 0.0
C3567 C 0.50715 0.74469 0.1031 0.0
C3568 C 0.52384 0.70788 0.06773 0.0
H3569 H 0.50668 0.66382 0.06116 0.0
C3570 C 0.54296 0.70435 0.06281 0.0
C3571 C 0.51047 0.69332 0.0662 0.0
C3572 C 0.4895 0.6966 0.06974 0.0
C3573 C 0.54924 0.68633 0.05739 0.0
C3574 C 0.53611 0.67141 0.05747 0.0
C3575 C 0.51683 0.6752 0.0614 0.0
C3576 C 0.54197 0.65162 0.05415 0.0
C3577 C 0.56984 0.6835 0.05171 0.0
C3578 C 0.53255 0.64093 0.04056 0.0
C3579 C 0.53639 0.62173 0.03888 0.0
C3580 C 0.54984 0.61293 0.05063 0.0
C3581 C 0.55979 0.62369 0.06375 0.0
C3582 C 0.5557 0.64289 0.0657 0.0
H3583 H 0.57612 0.69675 0.04595 0.0
H3584 H 0.57791 0.67927 0.06459 0.0
H3585 H 0.57166 0.67236 0.04071 0.0
H3586 H 0.52192 0.64736 0.03151 0.0
H3587 H 0.52874 0.61369 0.02848 0.0
H3588 H 0.08816 0.76329 0.89728 0.0
H3589 H 0.11905 0.76152 0.88055 0.0
H3590 H 0.09243 0.77647 0.82719 0.0
H3591 H 0.06143 0.77668 0.84367 0.0
H3592 H 0.1177 0.75358 0.81856 0.0
H3593 H 0.15297 0.80254 0.86704 0.0
H3594 H 0.14498 0.78217 0.88011 0.0
H3595 H 0.12797 0.79792 0.86917 0.0
C3596 C 0.08892 0.76605 0.88194 0.0
C3597 C 0.07231 0.77015 0.87183 0.0
C3598 C 0.1067 0.76532 0.87237 0.0
C3599 C 0.10849 0.76951 0.85256 0.0
C3600 C 0.09174 0.77325 0.84244 0.0
H3601 H 0.21855 0.8001 0.80008 0.0
H3602 H 0.1872 0.79958 0.8159 0.0
C3603 C 0.07392 0.77338 0.85189 0.0
C3604 C 0.1276 0.7698 0.84228 0.0
H3605 H 0.1732 0.78556 0.84535 0.0
C3606 C 0.12975 0.76076 0.82442 0.0
C3607 C 0.1435 0.77942 0.84946 0.0
C3608 C 0.14219 0.79123 0.86737 0.0
C3609 C 0.14701 0.76099 0.81373 0.0
C3610 C 0.16323 0.7696 0.82148 0.0
C3611 C 0.16106 0.77869 0.83931 0.0
C3612 C 0.18237 0.76986 0.81127 0.0
C3613 C 0.14726 0.75262 0.79387 0.0
C3614 C 0.19055 0.75341 0.80329 0.0
C3615 C 0.20826 0.75389 0.79359 0.0
C3616 C 0.2187 0.77065 0.79229 0.0
C3617 C 0.21089 0.78696 0.80079 0.0
C3618 C 0.19291 0.78662 0.80994 0.0
H3619 H 0.1329 0.75299 0.7876 0.0
H3620 H 0.1571 0.76024 0.78393 0.0
H3621 H 0.15179 0.73763 0.79477 0.0
H3622 H 0.18339 0.74005 0.8047 0.0
H3623 H 0.214 0.74099 0.78749 0.0
H3624 H 0.01805 0.35678 0.60682 0.0
H3625 H 0.01767 0.39097 0.60353 0.0
H3626 H 0.98083 0.39538 0.65364 0.0
H3627 H 0.98131 0.36086 0.6572 0.0
H3628 H 0.96781 0.41393 0.61879 0.0
H3629 H 0.04115 0.43349 0.63585 0.0
H3630 H 0.0405 0.41317 0.62072 0.0
H3631 H 0.03029 0.412 0.64464 0.0
C3632 C 0.0101 0.365 0.61733 0.0
C3633 C 0.99966 0.35623 0.63222 0.0
C3634 C 0.01002 0.38453 0.61553 0.0
C3635 C 0.99943 0.39562 0.62851 0.0
C3636 C 0.98925 0.38698 0.64366 0.0
H3637 H 0.01478 0.51026 0.58567 0.0
H3638 H 0.00726 0.48699 0.61073 0.0
C3639 C 0.98954 0.36734 0.64564 0.0
C3640 C 0.99761 0.41597 0.62457 0.0
H3641 H 0.02538 0.45323 0.61213 0.0
C3642 C 0.98022 0.42284 0.6179 0.0
C3643 C 0.01372 0.42761 0.62378 0.0
C3644 C 0.03243 0.42125 0.63183 0.0
C3645 C 0.97906 0.44032 0.60844 0.0
C3646 C 0.99576 0.45089 0.60549 0.0
C3647 C 0.01262 0.44497 0.61414 0.0
C3648 C 0.99694 0.46624 0.59106 0.0
C3649 C 0.96024 0.44679 0.60074 0.0
C3650 C 0.99343 0.46232 0.57174 0.0
C3651 C 0.99779 0.4755 0.55737 0.0
C3652 C 0.00587 0.49279 0.5621 0.0
C3653 C 0.0086 0.49703 0.58156 0.0
C3654 C 0.00426 0.4838 0.59592 0.0
H3655 H 0.94831 0.44145 0.6099 0.0
H3656 H 0.95926 0.4624 0.5999 0.0
H3657 H 0.95856 0.44107 0.5861 0.0
H3658 H 0.98826 0.44865 0.56763 0.0
H3659 H 0.99552 0.47184 0.54253 0.0
H3660 H 0.44626 0.2994 0.3957 0.0
H3661 H 0.41891 0.29651 0.37516 0.0
H3662 H 0.45169 0.2613 0.33646 0.0
H3663 H 0.47951 0.26466 0.35679 0.0
H3664 H 0.42961 0.28441 0.31628 0.0
H3665 H 0.38453 0.25248 0.37347 0.0
H3666 H 0.39295 0.27507 0.38045 0.0
H3667 H 0.40958 0.256 0.37633 0.0
C3668 C 0.44776 0.29103 0.38281 0.0
C3669 C 0.4652 0.28212 0.37811 0.0
C3670 C 0.43195 0.28926 0.37109 0.0
C3671 C 0.43285 0.27819 0.35443 0.0
C3672 C 0.45042 0.26977 0.3493 0.0
H3673 H 0.32713 0.24233 0.30113 0.0
H3674 H 0.35748 0.24334 0.31751 0.0
C3675 C 0.46639 0.27172 0.36095 0.0
C3676 C 0.41548 0.27552 0.34252 0.0
H3677 H 0.36854 0.26353 0.34558 0.0
C3678 C 0.41631 0.27971 0.32271 0.0
C3679 C 0.39805 0.26901 0.3506 0.0
C3680 C 0.39625 0.26269 0.37132 0.0
C3681 C 0.40025 0.27811 0.31101 0.0
C3682 C 0.38254 0.27263 0.31934 0.0
C3683 C 0.38189 0.26797 0.33905 0.0
C3684 C 0.36454 0.27162 0.30807 0.0
C3685 C 0.40264 0.28193 0.28974 0.0
C3686 C 0.35809 0.28709 0.29708 0.0
C3687 C 0.34081 0.28641 0.2874 0.0
C3688 C 0.32921 0.27036 0.28869 0.0
C3689 C 0.33566 0.25488 0.29965 0.0
C3690 C 0.35306 0.25549 0.30914 0.0
H3691 H 0.41755 0.27955 0.28479 0.0
H3692 H 0.39329 0.27286 0.28125 0.0
H3693 H 0.39898 0.29689 0.28671 0.0
H3694 H 0.36616 0.29997 0.29638 0.0
H3695 H 0.33624 0.29874 0.27939 0.0
H3696 H 0.42021 0.56016 0.31282 0.0
H3697 H 0.43119 0.56196 0.34566 0.0
H3698 H 0.37371 0.55683 0.36736 0.0
H3699 H 0.36238 0.55504 0.33419 0.0
H3700 H 0.411 0.59004 0.37901 0.0
H3701 H 0.41502 0.51211 0.3891 0.0
H3702 H 0.41891 0.5218 0.3653 0.0
H3703 H 0.39582 0.52344 0.37648 0.0
C3704 C 0.40983 0.55949 0.32452 0.0
C3705 C 0.39044 0.55739 0.32099 0.0
C3706 C 0.41614 0.56059 0.34323 0.0
C3707 C 0.40321 0.55956 0.35873 0.0
C3708 C 0.38379 0.5577 0.35542 0.0
H3709 H 0.46174 0.54139 0.46663 0.0
H3710 H 0.43482 0.5444 0.44533 0.0
C3711 C 0.3774 0.55665 0.33657 0.0
C3712 C 0.41067 0.55974 0.37824 0.0
H3713 H 0.43367 0.53064 0.40931 0.0
C3714 C 0.41551 0.5771 0.38605 0.0
C3715 C 0.41636 0.5428 0.38726 0.0
C3716 C 0.41126 0.5239 0.37924 0.0
C3717 C 0.42717 0.57794 0.40205 0.0
C3718 C 0.4344 0.56099 0.40996 0.0
C3719 C 0.42821 0.54362 0.40309 0.0
C3720 C 0.44999 0.56083 0.42375 0.0
C3721 C 0.43222 0.59695 0.40983 0.0
C3722 C 0.46745 0.56899 0.41858 0.0
C3723 C 0.48291 0.56718 0.43065 0.0
C3724 C 0.4812 0.55696 0.44794 0.0
C3725 C 0.46361 0.54902 0.4532 0.0
C3726 C 0.44815 0.5509 0.44117 0.0
H3727 H 0.42081 0.6075 0.40712 0.0
H3728 H 0.43475 0.59621 0.42552 0.0
H3729 H 0.44535 0.60199 0.40243 0.0
H3730 H 0.46931 0.57624 0.40491 0.0
H3731 H 0.49633 0.57328 0.4262 0.0
H3732 H 0.26452 0.72357 0.01732 0.0
H3733 H 0.25731 0.73851 0.0481 0.0
H3734 H 0.28218 0.69116 0.07793 0.0
H3735 H 0.28944 0.67596 0.04725 0.0
H3736 H 0.24311 0.701 0.08846 0.0
H3737 H 0.29171 0.76226 0.08938 0.0
H3738 H 0.27886 0.75896 0.06764 0.0
H3739 H 0.29634 0.74183 0.07465 0.0
C3740 C 0.26878 0.71644 0.03038 0.0
C3741 C 0.27742 0.69848 0.02981 0.0
C3742 C 0.26472 0.72507 0.04794 0.0
C3743 C 0.26928 0.71592 0.06517 0.0
C3744 C 0.27862 0.6984 0.06469 0.0
H3745 H 0.24547 0.73179 0.18522 0.0
H3746 H 0.25311 0.71973 0.15327 0.0
C3747 C 0.28278 0.68979 0.04714 0.0
C3748 C 0.26267 0.72376 0.08369 0.0
H3749 H 0.2683 0.76044 0.11421 0.0
C3750 C 0.24863 0.71397 0.09415 0.0
C3751 C 0.26977 0.74078 0.09082 0.0
C3752 C 0.2851 0.75157 0.08016 0.0
C3753 C 0.24144 0.72079 0.11169 0.0
C3754 C 0.24881 0.73762 0.11906 0.0
C3755 C 0.26268 0.74756 0.10845 0.0
C3756 C 0.24308 0.74461 0.13823 0.0
C3757 C 0.22589 0.71003 0.12206 0.0
C3758 C 0.23507 0.76267 0.14034 0.0
C3759 C 0.23089 0.7697 0.15864 0.0
C3760 C 0.23485 0.75882 0.17508 0.0
C3761 C 0.24247 0.74058 0.17284 0.0
C3762 C 0.24665 0.73358 0.15459 0.0
H3763 H 0.21801 0.70101 0.11207 0.0
H3764 H 0.23226 0.7007 0.13311 0.0
H3765 H 0.21566 0.71973 0.12937 0.0
H3766 H 0.23234 0.77141 0.12783 0.0
H3767 H 0.22524 0.78387 0.15993 0.0
H3768 H 0.11101 0.51593 0.83881 0.0
H3769 H 0.09996 0.51334 0.87221 0.0
H3770 H 0.15364 0.48872 0.88793 0.0
H3771 H 0.16497 0.49129 0.85434 0.0
H3772 H 0.10759 0.47116 0.89677 0.0
H3773 H 0.13185 0.54068 0.92289 0.0
H3774 H 0.12403 0.53896 0.89845 0.0
H3775 H 0.14544 0.52717 0.9054 0.0
C3776 C 0.12055 0.51009 0.84936 0.0
C3777 C 0.13883 0.50378 0.84401 0.0
C3778 C 0.1142 0.5086 0.86838 0.0
C3779 C 0.12601 0.50078 0.88231 0.0
C3780 C 0.1444 0.49476 0.87721 0.0
H3781 H 0.08468 0.50982 0.00075 0.0
H3782 H 0.10657 0.5028 0.97406 0.0
C3783 C 0.15083 0.4963 0.85812 0.0
C3784 C 0.11861 0.49875 0.90209 0.0
H3785 H 0.10904 0.52461 0.94209 0.0
C3786 C 0.1082 0.48261 0.90694 0.0
C3787 C 0.11962 0.51371 0.91516 0.0
C3788 C 0.13088 0.53115 0.91038 0.0
C3789 C 0.09783 0.4815 0.92432 0.0
C3790 C 0.09769 0.49709 0.93681 0.0
C3791 C 0.10911 0.51271 0.93243 0.0
C3792 C 0.08451 0.4984 0.95352 0.0
C3793 C 0.08677 0.46389 0.9289 0.0
C3794 C 0.06484 0.49801 0.95082 0.0
C3795 C 0.05226 0.50198 0.96604 0.0
C3796 C 0.0592 0.50663 0.98412 0.0
C3797 C 0.0789 0.50636 0.98694 0.0
C3798 C 0.09144 0.50231 0.97174 0.0
H3799 H 0.09328 0.45141 0.92173 0.0
H3800 H 0.08589 0.46113 0.94463 0.0
H3801 H 0.07214 0.4656 0.92354 0.0
H3802 H 0.05922 0.49548 0.93673 0.0
H3803 H 0.03717 0.50216 0.96343 0.0
H3804 H 0.26897 0.39362 0.5772 0.0
H3805 H 0.26633 0.38093 0.61027 0.0
H3806 H 0.27627 0.32484 0.58889 0.0
H3807 H 0.27919 0.33722 0.5563 0.0
H3808 H 0.24312 0.35374 0.62869 0.0
H3809 H 0.31798 0.32968 0.6278 0.0
H3810 H 0.30873 0.34556 0.60982 0.0
H3811 H 0.30513 0.32057 0.60803 0.0
C3812 C 0.27045 0.37858 0.57956 0.0
C3813 C 0.27461 0.36654 0.56402 0.0
C3814 C 0.26897 0.37133 0.59849 0.0
C3815 C 0.2716 0.35193 0.6022 0.0
C3816 C 0.27474 0.33989 0.58658 0.0
H3817 H 0.24354 0.28323 0.70368 0.0
H3818 H 0.24358 0.30027 0.67288 0.0
C3819 C 0.27633 0.34706 0.56784 0.0
C3820 C 0.27154 0.34403 0.62225 0.0
H3821 H 0.29802 0.31691 0.65272 0.0
C3822 C 0.25518 0.34584 0.63403 0.0
C3823 C 0.28736 0.33393 0.62945 0.0
C3824 C 0.30586 0.33247 0.6182 0.0
C3825 C 0.254 0.3373 0.65244 0.0
C3826 C 0.26946 0.3263 0.65917 0.0
C3827 C 0.28602 0.32506 0.6476 0.0
C3828 C 0.26901 0.3161 0.67818 0.0
C3829 C 0.23628 0.34042 0.66458 0.0
C3830 C 0.28357 0.31871 0.69135 0.0
C3831 C 0.28377 0.30871 0.70882 0.0
C3832 C 0.26939 0.29578 0.71368 0.0
C3833 C 0.25481 0.29311 0.70049 0.0
C3834 C 0.25471 0.30304 0.68291 0.0
H3835 H 0.22865 0.3535 0.6602 0.0
H3836 H 0.22655 0.32842 0.66268 0.0
H3837 H 0.2396 0.34137 0.68006 0.0
H3838 H 0.29485 0.32858 0.68812 0.0
H3839 H 0.29521 0.31121 0.71859 0.0
H3840 H 0.3888 0.54517 0.21001 0.0
H3841 H 0.40091 0.54237 0.17684 0.0
H3842 H 0.45797 0.53728 0.19742 0.0
H3843 H 0.44623 0.53997 0.2304 0.0
H3844 H 0.42994 0.565 0.15662 0.0
H3845 H 0.44958 0.48949 0.1642 0.0
H3846 H 0.43303 0.50118 0.18044 0.0
H3847 H 0.45816 0.50387 0.18318 0.0
C3848 C 0.40393 0.54352 0.20748 0.0
C3849 C 0.41652 0.5426 0.22289 0.0
C3850 C 0.41078 0.54193 0.18855 0.0
C3851 C 0.43024 0.53929 0.18487 0.0
C3852 C 0.44285 0.53897 0.20011 0.0
H3853 H 0.50849 0.55466 0.09247 0.0
H3854 H 0.48727 0.55684 0.12062 0.0
C3855 C 0.43608 0.54057 0.21894 0.0
C3856 C 0.4377 0.53676 0.16515 0.0
H3857 H 0.4643 0.50635 0.13796 0.0
C3858 C 0.43718 0.5521 0.15234 0.0
C3859 C 0.44681 0.51979 0.15961 0.0
C3860 C 0.4468 0.50257 0.1725 0.0
C3861 C 0.44665 0.55126 0.13444 0.0
C3862 C 0.45705 0.53478 0.12956 0.0
C3863 C 0.45652 0.51906 0.1419 0.0
C3864 C 0.46941 0.53382 0.11224 0.0
C3865 C 0.44567 0.56808 0.12106 0.0
C3866 C 0.46673 0.51975 0.09862 0.0
C3867 C 0.47897 0.51829 0.08269 0.0
C3868 C 0.49414 0.53085 0.0802 0.0
C3869 C 0.49692 0.5448 0.094 0.0
C3870 C 0.48469 0.54621 0.10995 0.0
H3871 H 0.4328 0.57682 0.12406 0.0
H3872 H 0.45825 0.57704 0.12315 0.0
H3873 H 0.44565 0.56366 0.10579 0.0
H3874 H 0.45511 0.50995 0.10029 0.0
H3875 H 0.47642 0.50742 0.07227 0.0
H3876 H 0.30752 0.62971 0.93155 0.0
H3877 H 0.30805 0.63447 0.89649 0.0
H3878 H 0.27352 0.68458 0.90341 0.0
H3879 H 0.27292 0.67998 0.93811 0.0
H3880 H 0.26423 0.6599 0.8712 0.0
H3881 H 0.34038 0.68002 0.8749 0.0
H3882 H 0.33275 0.65759 0.88446 0.0
H3883 H 0.32553 0.67888 0.89633 0.0
C3884 C 0.29975 0.64151 0.9255 0.0
C3885 C 0.29037 0.65463 0.93747 0.0
C3886 C 0.3001 0.6442 0.90555 0.0
C3887 C 0.29096 0.65994 0.89751 0.0
C3888 C 0.28063 0.67233 0.90941 0.0
H3889 H 0.2936 0.74876 0.82517 0.0
H3890 H 0.29874 0.72308 0.84815 0.0
C3891 C 0.28038 0.66974 0.92923 0.0
C3892 C 0.2935 0.66511 0.8771 0.0
H3893 H 0.32348 0.69071 0.84828 0.0
C3894 C 0.27732 0.66608 0.86578 0.0
C3895 C 0.31065 0.67316 0.87029 0.0
C3896 C 0.32838 0.67247 0.88204 0.0
C3897 C 0.27733 0.67651 0.84859 0.0
C3898 C 0.29407 0.68594 0.84262 0.0
C3899 C 0.31072 0.68347 0.85302 0.0
C3900 C 0.29359 0.70091 0.82782 0.0
C3901 C 0.25902 0.67878 0.83791 0.0
C3902 C 0.28954 0.69683 0.80872 0.0
C3903 C 0.28645 0.71147 0.79561 0.0
C3904 C 0.28749 0.73037 0.80142 0.0
C3905 C 0.29262 0.73436 0.8203 0.0
C3906 C 0.29562 0.71971 0.83341 0.0
H3907 H 0.24684 0.6722 0.84573 0.0
H3908 H 0.2557 0.69394 0.83556 0.0
H3909 H 0.26055 0.67206 0.82363 0.0
H3910 H 0.28819 0.68238 0.80413 0.0
H3911 H 0.28271 0.70796 0.78107 0.0
H3912 H 0.14398 0.51773 0.73211 0.0
H3913 H 0.13412 0.52624 0.69964 0.0
H3914 H 0.07786 0.53938 0.72151 0.0
H3915 H 0.08764 0.53136 0.75399 0.0
H3916 H 0.10697 0.51269 0.67694 0.0
H3917 H 0.09164 0.58754 0.69312 0.0
H3918 H 0.1043 0.57222 0.70936 0.0
H3919 H 0.07878 0.57195 0.70896 0.0
C3920 C 0.12947 0.52229 0.72999 0.0
C3921 C 0.11664 0.52406 0.74565 0.0
C3922 C 0.1239 0.52723 0.71145 0.0
C3923 C 0.10543 0.53395 0.70831 0.0
C3924 C 0.09236 0.53482 0.72375 0.0
H3925 H 0.04094 0.53534 0.60677 0.0
H3926 H 0.05609 0.52972 0.63751 0.0
C3927 C 0.09793 0.53007 0.74228 0.0
C3928 C 0.09964 0.53977 0.68884 0.0
H3929 H 0.07866 0.57574 0.66399 0.0
C3930 C 0.101 0.52655 0.67403 0.0
C3931 C 0.09228 0.55802 0.68498 0.0
C3932 C 0.09185 0.57331 0.6999 0.0
C3933 C 0.09426 0.53076 0.65569 0.0
C3934 C 0.08553 0.54848 0.65228 0.0
C3935 C 0.08509 0.56206 0.66677 0.0
C3936 C 0.07584 0.55273 0.63412 0.0
C3937 C 0.09645 0.51612 0.64018 0.0
C3938 C 0.08125 0.56816 0.62255 0.0
C3939 C 0.0724 0.57154 0.60503 0.0
C3940 C 0.05811 0.55949 0.59894 0.0
C3941 C 0.05222 0.54457 0.61098 0.0
C3942 C 0.0609 0.54131 0.62847 0.0
H3943 H 0.10851 0.50637 0.64305 0.0
H3944 H 0.08337 0.50759 0.63982 0.0
H3945 H 0.09875 0.52277 0.62582 0.0
H3946 H 0.09261 0.57726 0.62683 0.0
H3947 H 0.07718 0.5831 0.59595 0.0
H3948 H 0.28054 0.3533 0.4728 0.0
H3949 H 0.27955 0.3382 0.44151 0.0
H3950 H 0.27165 0.3924 0.41418 0.0
H3951 H 0.27203 0.40761 0.44573 0.0
H3952 H 0.24786 0.36754 0.39982 0.0
H3953 H 0.31901 0.33417 0.39989 0.0
H3954 H 0.30516 0.32731 0.42064 0.0
H3955 H 0.31177 0.3516 0.41733 0.0
C3956 C 0.27882 0.36209 0.46014 0.0
C3957 C 0.27649 0.38174 0.46185 0.0
C3958 C 0.27837 0.3534 0.44215 0.0
C3959 C 0.2759 0.36409 0.42525 0.0
C3960 C 0.27369 0.38376 0.4269 0.0
H3961 H 0.27022 0.33185 0.30361 0.0
H3962 H 0.27129 0.34948 0.33369 0.0
C3963 C 0.274 0.39248 0.44497 0.0
C3964 C 0.27482 0.35462 0.40609 0.0
H3965 H 0.29747 0.32263 0.37673 0.0
C3966 C 0.25883 0.35789 0.39471 0.0
C3967 C 0.28911 0.34198 0.39921 0.0
C3968 C 0.30731 0.33871 0.40981 0.0
C3969 C 0.2565 0.34852 0.37713 0.0
C3970 C 0.27052 0.33553 0.37059 0.0
C3971 C 0.28661 0.33243 0.38179 0.0
C3972 C 0.26877 0.32495 0.35222 0.0
C3973 C 0.23879 0.3522 0.36587 0.0
C3974 C 0.26699 0.30525 0.3525 0.0
C3975 C 0.26621 0.29512 0.3353 0.0
C3976 C 0.26745 0.30442 0.31734 0.0
C3977 C 0.26907 0.3242 0.31712 0.0
C3978 C 0.26967 0.33433 0.33434 0.0
H3979 H 0.22776 0.35984 0.37447 0.0
H3980 H 0.24241 0.3609 0.35299 0.0
H3981 H 0.23278 0.33876 0.36086 0.0
H3982 H 0.26635 0.29766 0.36608 0.0
H3983 H 0.26513 0.27992 0.3361 0.0
H3984 H 0.31583 0.44382 0.5193 0.0
H3985 H 0.34331 0.46465 0.52188 0.0
H3986 H 0.38063 0.41891 0.50526 0.0
H3987 H 0.35355 0.39827 0.50236 0.0
H3988 H 0.37486 0.46265 0.54462 0.0
H3989 H 0.39805 0.4597 0.46831 0.0
H3990 H 0.37514 0.45141 0.47656 0.0
H3991 H 0.39592 0.43666 0.4789 0.0
C3992 C 0.32987 0.43822 0.51604 0.0
C3993 C 0.33228 0.41929 0.51045 0.0
C3994 C 0.34562 0.45017 0.51758 0.0
C3995 C 0.36416 0.44354 0.51343 0.0
C3996 C 0.36656 0.42462 0.50808 0.0
H3997 H 0.47359 0.48656 0.54818 0.0
H3998 H 0.4428 0.4712 0.54625 0.0
C3999 C 0.35092 0.41274 0.50653 0.0
C4000 C 0.38112 0.45606 0.51502 0.0
H4001 H 0.42074 0.47119 0.49026 0.0
C4002 C 0.38479 0.46465 0.53267 0.0
C4003 C 0.39407 0.45903 0.49941 0.0
C4004 C 0.39052 0.45138 0.47968 0.0
C4005 C 0.40124 0.47546 0.5353 0.0
C4006 C 0.41471 0.47756 0.51998 0.0
C4007 C 0.41068 0.4695 0.50215 0.0
C4008 C 0.43312 0.48783 0.52205 0.0
C4009 C 0.40386 0.48472 0.55446 0.0
C4010 C 0.43836 0.50223 0.50898 0.0
C4011 C 0.45611 0.51096 0.50996 0.0
C4012 C 0.46922 0.50552 0.52403 0.0
C4013 C 0.46384 0.49134 0.53732 0.0
C4014 C 0.44611 0.48256 0.53627 0.0
H4015 H 0.39006 0.48695 0.56217 0.0
H4016 H 0.41276 0.47545 0.56358 0.0
H4017 H 0.411 0.49853 0.55274 0.0
H4018 H 0.42876 0.50659 0.4978 0.0
H4019 H 0.45971 0.52171 0.49939 0.0
H4020 H 0.82525 0.10739 0.51917 0.0
H4021 H 0.85685 0.09416 0.52511 0.0
H4022 H 0.88239 0.14007 0.49326 0.0
H4023 H 0.85093 0.15345 0.48722 0.0
H4024 H 0.88687 0.09243 0.48422 0.0
H4025 H 0.90772 0.12456 0.55336 0.0
H4026 H 0.8833 0.11844 0.54943 0.0
H4027 H 0.89373 0.13761 0.5362 0.0
C4028 C 0.8376 0.11487 0.51376 0.0
C4029 C 0.83563 0.13138 0.50263 0.0
C4030 C 0.85558 0.1073 0.51715 0.0
C4031 C 0.87177 0.11619 0.50956 0.0
C4032 C 0.86995 0.1331 0.49922 0.0
H4033 H 0.99042 0.08487 0.52101 0.0
H4034 H 0.96094 0.10216 0.51489 0.0
C4035 C 0.85199 0.14069 0.49581 0.0
C4036 C 0.89043 0.10692 0.5109 0.0
H4037 H 0.92899 0.10256 0.53928 0.0
C4038 C 0.89616 0.09463 0.4962 0.0
C4039 C 0.90239 0.11009 0.52646 0.0
C4040 C 0.89663 0.1234 0.54234 0.0
C4041 C 0.91366 0.08514 0.49678 0.0
C4042 C 0.92548 0.08787 0.51264 0.0
C4043 C 0.91985 0.10049 0.52716 0.0
C4044 C 0.94346 0.0773 0.51481 0.0
C4045 C 0.91941 0.07241 0.48037 0.0
C4046 C 0.94333 0.05761 0.51662 0.0
C4047 C 0.96011 0.04768 0.52003 0.0
C4048 C 0.97728 0.05732 0.52185 0.0
C4049 C 0.97742 0.07703 0.51963 0.0
C4050 C 0.96062 0.08694 0.51619 0.0
H4051 H 0.91155 0.07596 0.46713 0.0
H4052 H 0.93486 0.07331 0.47711 0.0
H4053 H 0.91612 0.05762 0.4844 0.0
H4054 H 0.93015 0.04996 0.51596 0.0
H4055 H 0.95951 0.03251 0.52181 0.0
H4056 H 0.68893 0.0452 0.27922 0.0
H4057 H 0.7097 0.0695 0.26548 0.0
H4058 H 0.67324 0.11265 0.2898 0.0
H4059 H 0.65268 0.08864 0.30389 0.0
H4060 H 0.70108 0.09719 0.23933 0.0
H4061 H 0.72499 0.12892 0.30677 0.0
H4062 H 0.71335 0.10641 0.3063 0.0
H4063 H 0.69962 0.12795 0.306 0.0
C4064 C 0.68545 0.05986 0.28185 0.0
C4065 C 0.66917 0.06496 0.29276 0.0
C4066 C 0.69731 0.07371 0.27394 0.0
C4067 C 0.69314 0.09284 0.27686 0.0
C4068 C 0.67696 0.09795 0.28776 0.0
H4069 H 0.71941 0.19335 0.21402 0.0
H4070 H 0.70802 0.16198 0.22355 0.0
C4071 C 0.66517 0.08417 0.29574 0.0
C4072 C 0.70516 0.1076 0.26792 0.0
H4073 H 0.72832 0.14798 0.27824 0.0
C4074 C 0.70733 0.10817 0.24781 0.0
C4075 C 0.71357 0.12168 0.27903 0.0
C4076 C 0.71295 0.12112 0.30073 0.0
C4077 C 0.71692 0.123 0.23846 0.0
C4078 C 0.72411 0.13781 0.24954 0.0
C4079 C 0.72267 0.13673 0.26969 0.0
C4080 C 0.73241 0.15505 0.2408 0.0
C4081 C 0.7192 0.12265 0.21687 0.0
C4082 C 0.74992 0.1615 0.24715 0.0
C4083 C 0.7561 0.17948 0.24207 0.0
C4084 C 0.74505 0.1912 0.23034 0.0
C4085 C 0.72821 0.18434 0.22286 0.0
C4086 C 0.72179 0.16643 0.22824 0.0
H4087 H 0.71914 0.10798 0.21143 0.0
H4088 H 0.7071 0.13032 0.21037 0.0
H4089 H 0.73257 0.12949 0.21196 0.0
H4090 H 0.75834 0.153 0.25684 0.0
H4091 H 0.76916 0.1846 0.24795 0.0
H4092 H 0.73528 0.95446 0.01768 0.0
H4093 H 0.7043 0.97011 0.01997 0.0
H4094 H 0.678 0.91673 0.03302 0.0
H4095 H 0.70889 0.90089 0.02927 0.0
H4096 H 0.65653 0.93348 0.01071 0.0
H4097 H 0.67382 0.98746 0.06371 0.0
H4098 H 0.68908 0.98983 0.04297 0.0
H4099 H 0.69018 0.96871 0.05759 0.0
C4100 C 0.72291 0.94609 0.02126 0.0
C4101 C 0.72461 0.92643 0.02346 0.0
C4102 C 0.70512 0.95511 0.02275 0.0
C4103 C 0.68857 0.94484 0.02722 0.0
C4104 C 0.69037 0.92516 0.02963 0.0
H4105 H 0.58229 0.00465 0.05859 0.0
H4106 H 0.61273 0.98768 0.05881 0.0
C4107 C 0.7081 0.91606 0.02758 0.0
C4108 C 0.66937 0.95437 0.02839 0.0
H4109 H 0.64551 0.99306 0.04595 0.0
C4110 C 0.65416 0.9464 0.01864 0.0
C4111 C 0.6658 0.97109 0.03899 0.0
C4112 C 0.68055 0.97962 0.05157 0.0
C4113 C 0.63587 0.95467 0.01891 0.0
C4114 C 0.63268 0.97212 0.02833 0.0
C4115 C 0.64779 0.97991 0.03839 0.0
C4116 C 0.61386 0.9824 0.02817 0.0
C4117 C 0.62011 0.94412 0.00955 0.0
C4118 C 0.60415 0.9855 0.01092 0.0
C4119 C 0.58643 0.99471 0.0109 0.0
C4120 C 0.57823 0.00179 0.02801 0.0
C4121 C 0.5882 0.99938 0.04515 0.0
C4122 C 0.60568 0.98967 0.04526 0.0
H4123 H 0.62303 0.92871 0.00952 0.0
H4124 H 0.60624 0.94661 0.01701 0.0
H4125 H 0.61906 0.94879 0.99435 0.0
H4126 H 0.6103 0.98091 0.99736 0.0
H4127 H 0.57928 0.99659 0.99739 0.0
H4128 H 0.40682 0.47509 0.28562 0.0
H4129 H 0.39449 0.4435 0.27994 0.0
H4130 H 0.33769 0.46636 0.2776 0.0
H4131 H 0.34978 0.49791 0.28318 0.0
H4132 H 0.34399 0.42958 0.29947 0.0
H4133 H 0.37227 0.43285 0.22404 0.0
H4134 H 0.38806 0.43841 0.24314 0.0
H4135 H 0.36836 0.45376 0.23824 0.0
C4136 C 0.39166 0.47332 0.28434 0.0
C4137 C 0.37927 0.48898 0.28465 0.0
C4138 C 0.38469 0.45532 0.28099 0.0
C4139 C 0.36527 0.45279 0.27813 0.0
C4140 C 0.35275 0.46816 0.2797 0.0
H4141 H 0.29477 0.37039 0.22662 0.0
H4142 H 0.3124 0.39869 0.23499 0.0
C4143 C 0.35969 0.48614 0.28286 0.0
C4144 C 0.35799 0.43447 0.27213 0.0
H4145 H 0.35464 0.40608 0.23308 0.0
C4146 C 0.34645 0.42428 0.28505 0.0
C4147 C 0.36109 0.42791 0.25319 0.0
C4148 C 0.37303 0.43877 0.23872 0.0
C4149 C 0.33777 0.40761 0.27945 0.0
C4150 C 0.34082 0.40107 0.2605 0.0
C4151 C 0.35245 0.4112 0.2476 0.0
C4152 C 0.33164 0.38389 0.2538 0.0
C4153 C 0.325 0.39733 0.29364 0.0
C4154 C 0.33716 0.3663 0.26114 0.0
C4155 C 0.32724 0.35021 0.25633 0.0
C4156 C 0.31161 0.35148 0.24414 0.0
C4157 C 0.30676 0.36901 0.236 0.0
C4158 C 0.31674 0.38514 0.24081 0.0
H4159 H 0.3216 0.40591 0.30656 0.0
H4160 H 0.31154 0.39339 0.2868 0.0
H4161 H 0.33216 0.38414 0.29839 0.0
H4162 H 0.34884 0.36509 0.27094 0.0
H4163 H 0.3316 0.33682 0.26244 0.0
H4164 H 0.21295 0.65157 0.98512 0.0
H4165 H 0.1876 0.63141 0.99729 0.0
H4166 H 0.22875 0.58892 0.01308 0.0
H4167 H 0.25441 0.60939 0.00153 0.0
H4168 H 0.17634 0.59766 0.98725 0.0
H4169 H 0.19952 0.59493 0.06297 0.0
H4170 H 0.20985 0.61078 0.04534 0.0
H4171 H 0.21699 0.58638 0.04596 0.0
C4172 C 0.21667 0.6379 0.99109 0.0
C4173 C 0.23573 0.63214 0.99247 0.0
C4174 C 0.20213 0.6264 0.99808 0.0
C4175 C 0.2063 0.60882 0.00646 0.0
C4176 C 0.22525 0.60266 0.00719 0.0
H4177 H 0.1126 0.5312 0.02664 0.0
H4178 H 0.14316 0.54442 0.01635 0.0
C4179 C 0.23988 0.6143 0.00042 0.0
C4180 C 0.19062 0.59711 0.01428 0.0
H4181 H 0.173 0.57647 0.05538 0.0
C4182 C 0.17563 0.59298 0.00214 0.0
C4183 C 0.18963 0.59124 0.03378 0.0
C4184 C 0.20475 0.59619 0.04784 0.0
C4185 C 0.15952 0.58344 0.00898 0.0
C4186 C 0.1587 0.57719 0.02837 0.0
C4187 C 0.17378 0.5811 0.04048 0.0
C4188 C 0.14183 0.56747 0.03651 0.0
C4189 C 0.14323 0.5809 0.99553 0.0
C4190 C 0.13164 0.57525 0.05215 0.0
C4191 C 0.11443 0.5674 0.05836 0.0
C4192 C 0.10716 0.55182 0.04884 0.0
C4193 C 0.11789 0.54341 0.03395 0.0
C4194 C 0.13523 0.55101 0.02802 0.0
H4195 H 0.14395 0.59098 0.98322 0.0
H4196 H 0.14384 0.56645 0.98961 0.0
H4197 H 0.12936 0.58287 0.00314 0.0
H4198 H 0.13656 0.58789 0.059 0.0
H4199 H 0.10631 0.57409 0.06983 0.0
H4200 H 0.67528 0.96595 0.2593 0.0
H4201 H 0.68774 0.93396 0.2541 0.0
H4202 H 0.66087 0.91572 0.30736 0.0
H4203 H 0.64754 0.94711 0.31192 0.0
H4204 H 0.71188 0.91577 0.27369 0.0
H4205 H 0.64727 0.87282 0.27541 0.0
H4206 H 0.64625 0.89817 0.27371 0.0
H4207 H 0.64792 0.88654 0.29681 0.0
C4208 C 0.6717 0.95494 0.26961 0.0
C4209 C 0.66034 0.95892 0.28591 0.0
C4210 C 0.67884 0.93671 0.26667 0.0
C4211 C 0.67496 0.92228 0.28015 0.0
C4212 C 0.6635 0.92633 0.29637 0.0
H4213 H 0.75179 0.82872 0.30073 0.0
H4214 H 0.73369 0.85834 0.3017 0.0
C4215 C 0.65601 0.94437 0.29905 0.0
C4216 C 0.68427 0.90353 0.27834 0.0
H4217 H 0.67635 0.8564 0.28353 0.0
C4218 C 0.70404 0.90278 0.27552 0.0
C4219 C 0.67409 0.88651 0.28041 0.0
C4220 C 0.6527 0.88607 0.28152 0.0
C4221 C 0.71397 0.88557 0.27532 0.0
C4222 C 0.70396 0.86868 0.27903 0.0
C4223 C 0.68412 0.86937 0.28118 0.0
C4224 C 0.71373 0.85011 0.28016 0.0
C4225 C 0.73501 0.88577 0.27077 0.0
C4226 C 0.70767 0.83515 0.26885 0.0
C4227 C 0.71751 0.81801 0.26888 0.0
C4228 C 0.73378 0.81563 0.27998 0.0
C4229 C 0.73938 0.83028 0.29193 0.0
C4230 C 0.7292 0.84727 0.29228 0.0
H4231 H 0.73902 0.89843 0.26214 0.0
H4232 H 0.74289 0.88622 0.28437 0.0
H4233 H 0.73961 0.87305 0.26268 0.0
H4234 H 0.69569 0.83692 0.25949 0.0
H4235 H 0.71295 0.80697 0.25943 0.0
H4236 H 0.86119 0.10878 0.76575 0.0
H4237 H 0.83718 0.13216 0.75714 0.0
H4238 H 0.80137 0.08826 0.73634 0.0
H4239 H 0.82546 0.06457 0.74494 0.0
H4240 H 0.81814 0.13892 0.71972 0.0
H4241 H 0.77066 0.11675 0.78088 0.0
H4242 H 0.79555 0.11054 0.78036 0.0
H4243 H 0.77979 0.09943 0.76421 0.0
C4244 C 0.84833 0.10408 0.75913 0.0
C4245 C 0.84511 0.08487 0.75615 0.0
C4246 C 0.83467 0.11745 0.75418 0.0
C4247 C 0.81753 0.11183 0.74627 0.0
C4248 C 0.81451 0.09275 0.74254 0.0
H4249 H 0.75089 0.21498 0.72562 0.0
H4250 H 0.75773 0.18138 0.72133 0.0
C4251 C 0.82828 0.07932 0.7474 0.0
C4252 C 0.80263 0.12618 0.74331 0.0
H4253 H 0.76509 0.14655 0.76714 0.0
C4254 C 0.80612 0.14039 0.72962 0.0
C4255 C 0.78709 0.1279 0.75637 0.0
C4256 C 0.78293 0.11292 0.77136 0.0
C4257 C 0.79543 0.15713 0.72971 0.0
C4258 C 0.78079 0.15947 0.74376 0.0
C4259 C 0.77629 0.14458 0.75639 0.0
C4260 C 0.77283 0.17831 0.74791 0.0
C4261 C 0.80101 0.17281 0.71596 0.0
C4262 C 0.77818 0.18731 0.76477 0.0
C4263 C 0.77428 0.20641 0.76731 0.0
C4264 C 0.76496 0.21679 0.753 0.0
C4265 C 0.75826 0.20737 0.73683 0.0
C4266 C 0.76216 0.18821 0.73431 0.0
H4267 H 0.81395 0.16928 0.70728 0.0
H4268 H 0.78926 0.17566 0.70595 0.0
H4269 H 0.80362 0.18596 0.72396 0.0
H4270 H 0.78642 0.17984 0.77543 0.0
H4271 H 0.77948 0.21322 0.77999 0.0
loop_
_geom_bond_atom_site_label_1
_geom_bond_atom_site_label_2
_geom_bond_distance
_geom_bond_site_symmetry_2
_ccdc_geom_bond_type
Co0 O1 2.216 1_455 S
Co0 O2 2.091 1_455 S
Co0 O4 2.004 . S
Co0 O10 2.021 . S
Co0 O12 2.137 . S
Co0 O13 2.244 . S
O1 Co0 2.216 1_655 S
O1 C8 1.247 . S
O2 Co0 2.091 1_655 S
O2 C8 1.261 . S
C3 O12 1.247 . S
C3 O13 1.272 . S
O4 Co0 2.004 . S
O4 C9 1.259 . S
Co5 O6 2.061 . S
Co5 O11 2.052 . S
Co5 O13 2.135 . S
O6 Co5 2.061 . S
O6 C9 1.235 . S
C7 O10 1.238 . S
C7 O11 1.241 . S
C8 O1 1.247 . S
C8 O2 1.261 . S
C9 O4 1.259 . S
C9 O6 1.235 . S
O10 Co0 2.021 . S
O10 C7 1.238 . S
O11 Co5 2.052 . S
O11 C7 1.241 . S
O12 Co0 2.137 . S
O12 C3 1.247 . S
O13 Co0 2.244 . S
O13 C3 1.272 . S
O13 Co5 2.135 . S
Co14 O15 2.216 . S
Co14 O16 2.091 . S
Co14 O18 2.004 . S
Co14 O24 2.021 . S
Co14 O26 2.137 . S
Co14 O27 2.244 . S
O15 Co14 2.216 . S
O15 C22 1.247 . S
O16 Co14 2.091 . S
O16 C22 1.261 . S
C17 O26 1.247 . S
C17 O27 1.272 . S
O18 Co14 2.004 . S
O18 C23 1.259 . S
Co19 O20 2.061 1_455 S
Co19 O25 2.052 . S
Co19 O27 2.135 . S
O20 Co19 2.061 1_655 S
O20 C23 1.235 1_655 S
C21 O24 1.238 . S
C21 O25 1.241 . S
C22 O15 1.247 . S
C22 O16 1.261 . S
C23 O18 1.259 . S
C23 O20 1.235 1_455 S
O24 Co14 2.021 . S
O24 C21 1.238 . S
O25 Co19 2.052 . S
O25 C21 1.241 . S
O26 Co14 2.137 . S
O26 C17 1.247 . S
O27 Co14 2.244 . S
O27 C17 1.272 . S
O27 Co19 2.135 . S
Co28 O29 2.216 . S
Co28 O30 2.091 . S
Co28 O32 2.004 . S
Co28 O38 2.021 . S
Co28 O40 2.137 . S
Co28 O41 2.244 . S
O29 Co28 2.216 . S
O29 C36 1.247 . S
O30 Co28 2.091 . S
O30 C36 1.261 . S
C31 O40 1.247 . S
C31 O41 1.272 . S
O32 Co28 2.004 . S
O32 C37 1.259 . S
Co33 O34 2.061 . S
Co33 O39 2.052 . S
Co33 O41 2.135 . S
O34 Co33 2.061 . S
O34 C37 1.235 . S
C35 O38 1.238 . S
C35 O39 1.241 . S
C36 O29 1.247 . S
C36 O30 1.261 . S
C37 O32 1.259 . S
C37 O34 1.235 . S
O38 Co28 2.021 . S
O38 C35 1.238 . S
O39 Co33 2.052 . S
O39 C35 1.241 . S
O40 Co28 2.137 . S
O40 C31 1.247 . S
O41 Co28 2.244 . S
O41 C31 1.272 . S
O41 Co33 2.135 . S
Co42 O43 2.216 . S
Co42 O44 2.091 . S
Co42 O46 2.004 . S
Co42 O52 2.021 . S
Co42 O54 2.137 . S
Co42 O55 2.244 . S
O43 Co42 2.216 . S
O43 C50 1.247 . S
O44 Co42 2.091 . S
O44 C50 1.261 . S
C45 O54 1.247 . S
C45 O55 1.272 . S
O46 Co42 2.004 . S
O46 C51 1.259 . S
Co47 O48 2.061 . S
Co47 O53 2.052 . S
Co47 O55 2.135 . S
O48 Co47 2.061 . S
O48 C51 1.235 . S
C49 O52 1.238 . S
C49 O53 1.241 . S
C50 O43 1.247 . S
C50 O44 1.261 . S
C51 O46 1.259 . S
C51 O48 1.235 . S
O52 Co42 2.021 . S
O52 C49 1.238 . S
O53 Co47 2.052 . S
O53 C49 1.241 . S
O54 Co42 2.137 . S
O54 C45 1.247 . S
O55 Co42 2.244 . S
O55 C45 1.272 . S
O55 Co47 2.135 . S
Co56 O57 2.216 1_545 S
Co56 O58 2.091 1_545 S
Co56 O60 2.004 . S
Co56 O66 2.021 . S
Co56 O68 2.136 1_545 S
Co56 O69 2.244 . S
O57 Co56 2.216 1_565 S
O57 C64 1.247 . S
O58 Co56 2.091 1_565 S
O58 C64 1.261 . S
C59 O68 1.236 1_545 S
C59 O69 1.272 . S
O60 Co56 2.004 . S
O60 C65 1.259 . S
Co61 O62 2.061 . S
Co61 O67 2.052 . S
Co61 O69 2.135 . S
O62 Co61 2.061 . S
O62 C65 1.235 . S
C63 O66 1.238 . S
C63 O67 1.241 . S
C64 O57 1.247 . S
C64 O58 1.261 . S
C65 O60 1.259 . S
C65 O62 1.235 . S
O66 Co56 2.021 . S
O66 C63 1.238 . S
O67 Co61 2.052 . S
O67 C63 1.241 . S
O68 Co56 2.136 1_565 S
O68 C59 1.236 1_565 S
O69 Co56 2.244 . S
O69 C59 1.272 . S
O69 Co61 2.135 . S
Co70 O71 2.216 . S
Co70 O72 2.091 . S
Co70 O74 2.004 . S
Co70 O80 2.021 . S
Co70 O82 2.137 . S
Co70 O83 2.244 . S
O71 Co70 2.216 . S
O71 C78 1.247 . S
O72 Co70 2.091 . S
O72 C78 1.261 . S
C73 O82 1.247 . S
C73 O83 1.272 . S
O74 Co70 2.004 . S
O74 C79 1.259 . S
Co75 O76 2.061 . S
Co75 O81 2.052 . S
Co75 O83 2.135 . S
O76 Co75 2.061 . S
O76 C79 1.235 . S
C77 O80 1.238 . S
C77 O81 1.241 . S
C78 O71 1.247 . S
C78 O72 1.261 . S
C79 O74 1.259 . S
C79 O76 1.235 . S
O80 Co70 2.021 . S
O80 C77 1.238 . S
O81 Co75 2.052 . S
O81 C77 1.241 . S
O82 Co70 2.137 . S
O82 C73 1.247 . S
O83 Co70 2.244 . S
O83 C73 1.272 . S
O83 Co75 2.135 . S
Co84 O85 2.216 . S
Co84 O86 2.091 . S
Co84 O88 2.004 . S
Co84 O94 2.021 . S
Co84 O96 2.137 . S
Co84 O97 2.244 . S
O85 Co84 2.216 . S
O85 C92 1.247 . S
O86 Co84 2.091 . S
O86 C92 1.261 . S
C87 O96 1.247 . S
C87 O97 1.272 . S
O88 Co84 2.004 . S
O88 C93 1.259 . S
Co89 O90 2.061 . S
Co89 O95 2.052 . S
Co89 O97 2.135 . S
O90 Co89 2.061 . S
O90 C93 1.235 . S
C91 O94 1.238 . S
C91 O95 1.241 . S
C92 O85 1.247 . S
C92 O86 1.261 . S
C93 O88 1.259 . S
C93 O90 1.235 . S
O94 Co84 2.021 . S
O94 C91 1.238 . S
O95 Co89 2.052 . S
O95 C91 1.241 . S
O96 Co84 2.137 . S
O96 C87 1.247 . S
O97 Co84 2.244 . S
O97 C87 1.272 . S
O97 Co89 2.135 . S
Co98 O99 2.216 . S
Co98 O100 2.091 . S
Co98 O102 2.004 . S
Co98 O108 2.021 . S
Co98 O110 2.137 1_554 S
Co98 O111 2.244 . S
O99 Co98 2.216 . S
O99 C106 1.247 . S
O100 Co98 2.091 . S
O100 C106 1.261 . S
C101 O110 1.247 . S
C101 O111 1.272 1_556 S
O102 Co98 2.004 . S
O102 C107 1.259 . S
Co103 O104 2.061 . S
Co103 O109 2.052 . S
Co103 O111 2.135 . S
O104 Co103 2.061 . S
O104 C107 1.235 . S
C105 O108 1.238 . S
C105 O109 1.241 . S
C106 O99 1.247 . S
C106 O100 1.261 . S
C107 O102 1.259 . S
C107 O104 1.235 . S
O108 Co98 2.021 . S
O108 C105 1.238 . S
O109 Co103 2.052 . S
O109 C105 1.241 . S
O110 Co98 2.137 1_556 S
O110 C101 1.247 . S
O111 Co98 2.244 . S
O111 C101 1.272 1_554 S
O111 Co103 2.135 . S
Co112 O113 2.216 . S
Co112 O114 2.091 . S
Co112 O116 2.004 . S
Co112 O122 2.021 . S
Co112 O124 2.137 . S
Co112 O125 2.244 . S
O113 Co112 2.216 . S
O113 C120 1.247 . S
O114 Co112 2.091 . S
O114 C120 1.261 . S
C115 O124 1.247 . S
C115 O125 1.272 . S
O116 Co112 2.004 . S
O116 C121 1.259 . S
Co117 O118 2.061 . S
Co117 O123 2.052 . S
Co117 O125 2.135 . S
O118 Co117 2.061 . S
O118 C121 1.235 . S
C119 O122 1.238 . S
C119 O123 1.241 . S
C120 O113 1.247 . S
C120 O114 1.261 . S
C121 O116 1.259 . S
C121 O118 1.235 . S
O122 Co112 2.021 . S
O122 C119 1.238 . S
O123 Co117 2.052 . S
O123 C119 1.241 . S
O124 Co112 2.137 . S
O124 C115 1.247 . S
O125 Co112 2.244 . S
O125 C115 1.272 . S
O125 Co117 2.135 . S
Co126 O127 2.216 . S
Co126 O128 2.091 . S
Co126 O130 2.004 . S
Co126 O136 2.021 . S
Co126 O138 2.137 . S
Co126 O139 2.244 . S
O127 Co126 2.216 . S
O127 C134 1.247 . S
O128 Co126 2.091 . S
O128 C134 1.261 . S
C129 O138 1.247 . S
C129 O139 1.272 . S
O130 Co126 2.004 . S
O130 C135 1.259 . S
Co131 O132 2.061 . S
Co131 O137 2.052 . S
Co131 O139 2.135 . S
O132 Co131 2.061 . S
O132 C135 1.235 . S
C133 O136 1.238 . S
C133 O137 1.241 . S
C134 O127 1.247 . S
C134 O128 1.261 . S
C135 O130 1.259 . S
C135 O132 1.235 . S
O136 Co126 2.021 . S
O136 C133 1.238 . S
O137 Co131 2.052 . S
O137 C133 1.241 . S
O138 Co126 2.137 . S
O138 C129 1.247 . S
O139 Co126 2.244 . S
O139 C129 1.272 . S
O139 Co131 2.135 . S
Co140 O141 2.216 . S
Co140 O142 2.091 . S
Co140 O144 2.004 . S
Co140 O150 2.021 . S
Co140 O152 2.137 . S
Co140 O153 2.244 . S
O141 Co140 2.216 . S
O141 C148 1.247 . S
O142 Co140 2.091 . S
O142 C148 1.261 . S
C143 O152 1.247 . S
C143 O153 1.272 . S
O144 Co140 2.004 . S
O144 C149 1.259 . S
Co145 O146 2.061 . S
Co145 O151 2.052 . S
Co145 O153 2.135 . S
O146 Co145 2.061 . S
O146 C149 1.235 . S
C147 O150 1.238 . S
C147 O151 1.241 . S
C148 O141 1.247 . S
C148 O142 1.261 . S
C149 O144 1.259 . S
C149 O146 1.235 . S
O150 Co140 2.021 . S
O150 C147 1.238 . S
O151 Co145 2.052 . S
O151 C147 1.241 . S
O152 Co140 2.137 . S
O152 C143 1.247 . S
O153 Co140 2.244 . S
O153 C143 1.272 . S
O153 Co145 2.135 . S
Co154 O155 2.216 . S
Co154 O156 2.091 . S
Co154 O158 2.004 . S
Co154 O164 2.021 . S
Co154 O166 2.137 . S
Co154 O167 2.244 . S
O155 Co154 2.216 . S
O155 C162 1.247 . S
O156 Co154 2.091 . S
O156 C162 1.261 . S
C157 O166 1.247 . S
C157 O167 1.272 . S
O158 Co154 2.004 . S
O158 C163 1.259 . S
Co159 O160 2.061 . S
Co159 O165 2.052 . S
Co159 O167 2.135 . S
O160 Co159 2.061 . S
O160 C163 1.235 . S
C161 O164 1.238 . S
C161 O165 1.241 . S
C162 O155 1.247 . S
C162 O156 1.261 . S
C163 O158 1.259 . S
C163 O160 1.235 . S
O164 Co154 2.021 . S
O164 C161 1.238 . S
O165 Co159 2.052 . S
O165 C161 1.241 . S
O166 Co154 2.137 . S
O166 C157 1.247 . S
O167 Co154 2.244 . S
O167 C157 1.272 . S
O167 Co159 2.135 . S
Co168 O169 2.216 . S
Co168 O170 2.091 . S
Co168 O172 2.004 1_455 S
Co168 O178 2.021 . S
Co168 O180 2.137 . S
Co168 O181 2.244 . S
O169 Co168 2.216 . S
O169 C176 1.247 . S
O170 Co168 2.091 . S
O170 C176 1.261 . S
C171 O180 1.247 . S
C171 O181 1.272 . S
O172 Co168 2.004 1_655 S
O172 C177 1.259 . S
Co173 O174 2.061 . S
Co173 O179 2.052 1_655 S
Co173 O181 2.135 1_655 S
O174 Co173 2.061 . S
O174 C177 1.235 . S
C175 O178 1.238 . S
C175 O179 1.241 . S
C176 O169 1.247 . S
C176 O170 1.261 . S
C177 O172 1.259 . S
C177 O174 1.235 . S
O178 Co168 2.021 . S
O178 C175 1.238 . S
O179 Co173 2.052 1_455 S
O179 C175 1.241 . S
O180 Co168 2.137 . S
O180 C171 1.247 . S
O181 Co168 2.244 . S
O181 C171 1.272 . S
O181 Co173 2.135 1_455 S
Co182 O183 2.216 . S
Co182 O184 2.091 . S
Co182 O186 2.004 1_655 S
Co182 O192 2.021 . S
Co182 O194 2.137 . S
Co182 O195 2.244 1_655 S
O183 Co182 2.216 . S
O183 C190 1.247 . S
O184 Co182 2.091 . S
O184 C190 1.261 . S
C185 O194 1.233 1_455 S
C185 O195 1.283 . S
O186 Co182 2.004 1_455 S
O186 C191 1.259 . S
Co187 O188 2.061 . S
Co187 O193 2.052 . S
Co187 O195 2.135 . S
O188 Co187 2.061 . S
O188 C191 1.235 . S
C189 O192 1.238 1_455 S
C189 O193 1.241 . S
C190 O183 1.247 . S
C190 O184 1.261 . S
C191 O186 1.259 . S
C191 O188 1.235 . S
O192 Co182 2.021 . S
O192 C189 1.238 1_655 S
O193 Co187 2.052 . S
O193 C189 1.241 . S
O194 Co182 2.137 . S
O194 C185 1.233 1_655 S
O195 Co182 2.244 1_455 S
O195 C185 1.283 . S
O195 Co187 2.135 . S
Co196 O197 2.216 . S
Co196 O198 2.091 . S
Co196 O200 2.004 . S
Co196 O206 2.021 . S
Co196 O208 2.137 . S
Co196 O209 2.244 . S
O197 Co196 2.216 . S
O197 C204 1.247 . S
O198 Co196 2.091 . S
O198 C204 1.261 . S
C199 O208 1.247 . S
C199 O209 1.272 . S
O200 Co196 2.004 . S
O200 C205 1.259 . S
Co201 O202 2.061 . S
Co201 O207 2.052 . S
Co201 O209 2.135 . S
O202 Co201 2.061 . S
O202 C205 1.235 . S
C203 O206 1.238 . S
C203 O207 1.241 . S
C204 O197 1.247 . S
C204 O198 1.261 . S
C205 O200 1.259 . S
C205 O202 1.235 . S
O206 Co196 2.021 . S
O206 C203 1.238 . S
O207 Co201 2.052 . S
O207 C203 1.241 . S
O208 Co196 2.137 . S
O208 C199 1.247 . S
O209 Co196 2.244 . S
O209 C199 1.272 . S
O209 Co201 2.135 . S
Co210 O211 2.216 . S
Co210 O212 2.091 . S
Co210 O214 2.004 . S
Co210 O220 2.021 . S
Co210 O222 2.137 . S
Co210 O223 2.244 . S
O211 Co210 2.216 . S
O211 C218 1.247 . S
O212 Co210 2.091 . S
O212 C218 1.261 . S
C213 O222 1.247 . S
C213 O223 1.272 . S
O214 Co210 2.004 . S
O214 C219 1.259 . S
Co215 O216 2.061 . S
Co215 O221 2.052 . S
Co215 O223 2.135 . S
O216 Co215 2.061 . S
O216 C219 1.235 . S
C217 O220 1.238 . S
C217 O221 1.241 . S
C218 O211 1.247 . S
C218 O212 1.261 . S
C219 O214 1.259 . S
C219 O216 1.235 . S
O220 Co210 2.021 . S
O220 C217 1.238 . S
O221 Co215 2.052 . S
O221 C217 1.241 . S
O222 Co210 2.137 . S
O222 C213 1.247 . S
O223 Co210 2.244 . S
O223 C213 1.272 . S
O223 Co215 2.135 . S
Co224 O225 2.216 . S
Co224 O226 2.091 . S
Co224 O228 2.004 . S
Co224 O234 2.021 . S
Co224 O236 2.137 . S
Co224 O237 2.244 . S
O225 Co224 2.216 . S
O225 C232 1.247 . S
O226 Co224 2.091 . S
O226 C232 1.261 . S
C227 O236 1.247 . S
C227 O237 1.272 . S
O228 Co224 2.004 . S
O228 C233 1.259 . S
Co229 O230 2.061 . S
Co229 O235 2.052 . S
Co229 O237 2.135 . S
O230 Co229 2.061 . S
O230 C233 1.235 . S
C231 O234 1.238 . S
C231 O235 1.241 . S
C232 O225 1.247 . S
C232 O226 1.261 . S
C233 O228 1.259 . S
C233 O230 1.235 . S
O234 Co224 2.021 . S
O234 C231 1.238 . S
O235 Co229 2.052 . S
O235 C231 1.241 . S
O236 Co224 2.137 . S
O236 C227 1.247 . S
O237 Co224 2.244 . S
O237 C227 1.272 . S
O237 Co229 2.135 . S
Co238 O239 2.216 . S
Co238 O240 2.091 . S
Co238 O242 2.004 . S
Co238 O248 2.021 . S
Co238 O250 2.137 . S
Co238 O251 2.244 . S
O239 Co238 2.216 . S
O239 C246 1.247 . S
O240 Co238 2.091 . S
O240 C246 1.261 . S
C241 O250 1.247 . S
C241 O251 1.272 . S
O242 Co238 2.004 . S
O242 C247 1.259 . S
Co243 O244 2.061 . S
Co243 O249 2.052 . S
Co243 O251 2.135 . S
O244 Co243 2.061 . S
O244 C247 1.235 . S
C245 O248 1.238 . S
C245 O249 1.241 . S
C246 O239 1.247 . S
C246 O240 1.261 . S
C247 O242 1.259 . S
C247 O244 1.235 . S
O248 Co238 2.021 . S
O248 C245 1.238 . S
O249 Co243 2.052 . S
O249 C245 1.241 . S
O250 Co238 2.137 . S
O250 C241 1.247 . S
O251 Co238 2.244 . S
O251 C241 1.272 . S
O251 Co243 2.135 . S
Co252 O253 2.176 1_545 S
Co252 O254 2.065 1_545 S
Co252 O256 2.040 . S
Co252 O262 2.024 . S
Co252 O264 2.135 1_545 S
Co252 O265 2.256 . S
O253 Co252 2.176 1_565 S
O253 C260 1.247 . S
O254 Co252 2.065 1_565 S
O254 C260 1.261 . S
C255 O264 1.247 1_545 S
C255 O265 1.272 . S
O256 Co252 2.040 . S
O256 C261 1.259 . S
Co257 O258 2.061 . S
Co257 O263 2.052 . S
Co257 O265 2.135 . S
O258 Co257 2.061 . S
O258 C261 1.235 . S
C259 O262 1.238 . S
C259 O263 1.241 . S
C260 O253 1.247 . S
C260 O254 1.261 . S
C261 O256 1.259 . S
C261 O258 1.235 . S
O262 Co252 2.024 . S
O262 C259 1.238 . S
O263 Co257 2.052 . S
O263 C259 1.241 . S
O264 Co252 2.135 1_565 S
O264 C255 1.247 1_565 S
O265 Co252 2.256 . S
O265 C255 1.272 . S
O265 Co257 2.135 . S
Co266 O267 2.216 . S
Co266 O268 2.091 . S
Co266 O270 2.004 . S
Co266 O276 2.021 . S
Co266 O278 2.137 1_554 S
Co266 O279 2.263 . S
O267 Co266 2.216 . S
O267 C274 1.247 . S
O268 Co266 2.091 . S
O268 C274 1.261 . S
C269 O278 1.247 . S
C269 O279 1.234 1_556 S
O270 Co266 2.004 . S
O270 C275 1.259 . S
Co271 O272 2.061 . S
Co271 O277 2.052 . S
Co271 O279 2.158 . S
O272 Co271 2.061 . S
O272 C275 1.235 . S
C273 O276 1.238 . S
C273 O277 1.241 . S
C274 O267 1.247 . S
C274 O268 1.261 . S
C275 O270 1.259 . S
C275 O272 1.235 . S
O276 Co266 2.021 . S
O276 C273 1.238 . S
O277 Co271 2.052 . S
O277 C273 1.241 . S
O278 Co266 2.137 1_556 S
O278 C269 1.247 . S
O279 Co266 2.263 . S
O279 C269 1.234 1_554 S
O279 Co271 2.158 . S
Co280 O281 2.216 . S
Co280 O282 2.090 1_556 S
Co280 O284 2.004 . S
Co280 O290 2.021 1_556 S
Co280 O292 2.137 . S
Co280 O293 2.244 . S
O281 Co280 2.216 . S
O281 C288 1.248 . S
O282 Co280 2.090 1_554 S
O282 C288 1.261 1_554 S
C283 O292 1.247 . S
C283 O293 1.272 . S
O284 Co280 2.004 . S
O284 C289 1.262 . S
Co285 O286 2.061 1_556 S
Co285 O291 2.046 1_556 S
Co285 O293 2.139 . S
O286 Co285 2.061 1_554 S
O286 C289 1.233 1_554 S
C287 O290 1.238 . S
C287 O291 1.241 . S
C288 O281 1.248 . S
C288 O282 1.261 1_556 S
C289 O284 1.262 . S
C289 O286 1.233 1_556 S
O290 Co280 2.021 1_554 S
O290 C287 1.238 . S
O291 Co285 2.046 1_554 S
O291 C287 1.241 . S
O292 Co280 2.137 . S
O292 C283 1.247 . S
O293 Co280 2.244 . S
O293 C283 1.272 . S
O293 Co285 2.139 . S
Co294 O295 2.216 . S
Co294 O296 2.091 . S
Co294 O298 2.004 . S
Co294 O304 2.021 . S
Co294 O306 2.137 . S
Co294 O307 2.244 . S
O295 Co294 2.216 . S
O295 C302 1.247 . S
O296 Co294 2.091 . S
O296 C302 1.261 . S
C297 O306 1.247 . S
C297 O307 1.272 . S
O298 Co294 2.004 . S
O298 C303 1.259 . S
Co299 O300 2.061 . S
Co299 O305 2.052 . S
Co299 O307 2.135 . S
O300 Co299 2.061 . S
O300 C303 1.235 . S
C301 O304 1.238 . S
C301 O305 1.241 . S
C302 O295 1.247 . S
C302 O296 1.261 . S
C303 O298 1.259 . S
C303 O300 1.235 . S
O304 Co294 2.021 . S
O304 C301 1.238 . S
O305 Co299 2.052 . S
O305 C301 1.241 . S
O306 Co294 2.137 . S
O306 C297 1.247 . S
O307 Co294 2.244 . S
O307 C297 1.272 . S
O307 Co299 2.135 . S
Co308 O309 2.216 . S
Co308 O310 2.091 . S
Co308 O312 2.004 . S
Co308 O318 2.021 . S
Co308 O320 2.137 . S
Co308 O321 2.244 . S
O309 Co308 2.216 . S
O309 C316 1.247 . S
O310 Co308 2.091 . S
O310 C316 1.261 . S
C311 O320 1.247 . S
C311 O321 1.272 . S
O312 Co308 2.004 . S
O312 C317 1.259 . S
Co313 O314 2.061 . S
Co313 O319 2.052 . S
Co313 O321 2.135 . S
O314 Co313 2.061 . S
O314 C317 1.235 . S
C315 O318 1.238 . S
C315 O319 1.241 . S
C316 O309 1.247 . S
C316 O310 1.261 . S
C317 O312 1.259 . S
C317 O314 1.235 . S
O318 Co308 2.021 . S
O318 C315 1.238 . S
O319 Co313 2.052 . S
O319 C315 1.241 . S
O320 Co308 2.137 . S
O320 C311 1.247 . S
O321 Co308 2.244 . S
O321 C311 1.272 . S
O321 Co313 2.135 . S
Co322 O323 2.216 . S
Co322 O324 2.091 . S
Co322 O326 2.004 . S
Co322 O332 2.021 . S
Co322 O334 2.137 . S
Co322 O335 2.244 . S
O323 Co322 2.216 . S
O323 C330 1.247 . S
O324 Co322 2.091 . S
O324 C330 1.261 . S
C325 O334 1.247 . S
C325 O335 1.272 . S
O326 Co322 2.004 . S
O326 C331 1.259 . S
Co327 O328 2.061 . S
Co327 O333 2.052 . S
Co327 O335 2.135 . S
O328 Co327 2.061 . S
O328 C331 1.235 . S
C329 O332 1.238 . S
C329 O333 1.241 . S
C330 O323 1.247 . S
C330 O324 1.261 . S
C331 O326 1.259 . S
C331 O328 1.235 . S
O332 Co322 2.021 . S
O332 C329 1.238 . S
O333 Co327 2.052 . S
O333 C329 1.241 . S
O334 Co322 2.137 . S
O334 C325 1.247 . S
O335 Co322 2.244 . S
O335 C325 1.272 . S
O335 Co327 2.135 . S
Co336 N341 2.008 1_554 S
Co336 O353 2.003 1_554 S
Co336 O356 2.081 1_455 S
Co336 O360 2.154 . S
Co336 O361 2.020 . S
C337 O357 1.259 . S
C337 O360 1.258 . S
Co338 N347 2.057 . S
Co338 O354 2.117 1_545 S
Co338 O355 2.020 1_455 S
Co338 O357 2.021 . S
Co338 O362 2.062 . S
C339 N341 1.316 1_655 S
C339 N342 1.347 . S
C339 H344 0.931 1_655 S
C340 N341 1.375 1_655 S
C340 C343 1.350 . S
C340 H345 0.930 . S
N341 Co336 2.008 1_556 S
N341 C339 1.316 1_455 S
N341 C340 1.375 1_455 S
N342 C339 1.347 . S
N342 C343 1.373 . S
C343 C340 1.350 . S
C343 N342 1.373 . S
C343 H364 0.931 . S
H344 C339 0.931 1_455 S
H345 C340 0.930 . S
C346 O353 1.259 1_564 S
C346 O354 1.258 . S
N347 Co338 2.057 . S
N347 C348 1.316 . S
N347 C349 1.375 1_545 S
C348 N347 1.316 . S
C348 N350 1.347 . S
C348 H359 0.931 . S
C349 N347 1.375 1_565 S
C349 C351 1.350 . S
C349 H358 0.930 . S
N350 C348 1.347 . S
N350 C351 1.373 1_545 S
C351 C349 1.350 . S
C351 N350 1.373 1_565 S
C351 H365 0.931 . S
C352 O355 1.256 . S
C352 O356 1.255 . S
O353 Co336 2.003 1_556 S
O353 C346 1.259 1_546 S
O354 Co338 2.117 1_565 S
O354 C346 1.258 . S
O355 Co338 2.020 1_655 S
O355 C352 1.256 . S
O356 Co336 2.081 1_655 S
O356 C352 1.255 . S
O357 C337 1.259 . S
O357 Co338 2.021 . S
H358 C349 0.930 . S
H359 C348 0.931 . S
O360 Co336 2.154 . S
O360 C337 1.258 . S
O361 Co336 2.020 . S
O361 C363 1.293 . S
O362 Co338 2.062 . S
O362 C363 1.255 . S
C363 O361 1.293 . S
C363 O362 1.255 . S
H364 C343 0.931 . S
H365 C351 0.931 . S
Co366 N371 2.057 . S
Co366 O383 2.021 . S
Co366 O386 2.062 . S
Co366 O390 2.117 . S
Co366 O391 2.020 . S
C367 O387 1.259 . S
C367 O390 1.258 . S
Co368 N377 2.057 . S
Co368 O384 2.117 . S
Co368 O385 2.020 . S
Co368 O387 2.021 . S
Co368 O392 2.062 . S
C369 N371 1.316 . S
C369 N372 1.347 . S
C369 H374 0.931 . S
C370 N371 1.375 . S
C370 C373 1.350 . S
C370 H375 0.930 . S
N371 Co366 2.057 . S
N371 C369 1.316 . S
N371 C370 1.375 . S
N372 C369 1.347 . S
N372 C373 1.373 . S
C373 C370 1.350 . S
C373 N372 1.373 . S
C373 H394 0.931 . S
H374 C369 0.931 . S
H375 C370 0.930 . S
C376 O383 1.259 . S
C376 O384 1.258 . S
N377 Co368 2.057 . S
N377 C378 1.316 . S
N377 C379 1.375 . S
C378 N377 1.316 . S
C378 N380 1.347 . S
C378 H389 0.931 . S
C379 N377 1.375 . S
C379 C381 1.350 . S
C379 H388 0.930 . S
N380 C378 1.347 . S
N380 C381 1.373 . S
C381 C379 1.350 . S
C381 N380 1.373 . S
C381 H395 0.931 . S
C382 O385 1.256 . S
C382 O386 1.255 . S
O383 Co366 2.021 . S
O383 C376 1.259 . S
O384 Co368 2.117 . S
O384 C376 1.258 . S
O385 Co368 2.020 . S
O385 C382 1.256 . S
O386 Co366 2.062 . S
O386 C382 1.255 . S
O387 C367 1.259 . S
O387 Co368 2.021 . S
H388 C379 0.930 . S
H389 C378 0.931 . S
O390 Co366 2.117 . S
O390 C367 1.258 . S
O391 Co366 2.020 . S
O391 C393 1.256 . S
O392 Co368 2.062 . S
O392 C393 1.255 . S
C393 O391 1.256 . S
C393 O392 1.255 . S
H394 C373 0.931 . S
H395 C381 0.931 . S
Co396 N401 2.057 . S
Co396 O413 2.021 1_545 S
Co396 O416 2.062 . S
Co396 O420 2.117 . S
Co396 O421 2.020 . S
C397 O417 1.259 . S
C397 O420 1.258 . S
Co398 N407 2.057 . S
Co398 O414 2.117 . S
Co398 O415 2.020 . S
Co398 O417 2.021 . S
Co398 O422 2.062 . S
C399 N401 1.280 1_565 S
C399 N402 1.339 1_565 S
C399 H404 0.970 . S
C400 N401 1.375 . S
C400 C403 1.350 . S
C400 H405 0.930 . S
N401 Co396 2.057 . S
N401 C399 1.280 1_545 S
N401 C400 1.375 . S
N402 C399 1.339 1_545 S
N402 C403 1.373 . S
C403 C400 1.350 . S
C403 N402 1.373 . S
C403 H424 0.931 . S
H404 C399 0.970 . S
H405 C400 0.930 . S
C406 O413 1.259 . S
C406 O414 1.258 1_565 S
N407 Co398 2.057 . S
N407 C408 1.316 . S
N407 C409 1.375 . S
C408 N407 1.316 . S
C408 N410 1.347 . S
C408 H419 0.931 . S
C409 N407 1.375 . S
C409 C411 1.350 . S
C409 H418 0.930 . S
N410 C408 1.347 . S
N410 C411 1.373 . S
C411 C409 1.350 . S
C411 N410 1.373 . S
C411 H425 0.931 . S
C412 O415 1.256 . S
C412 O416 1.255 . S
O413 Co396 2.021 1_565 S
O413 C406 1.259 . S
O414 Co398 2.117 . S
O414 C406 1.258 1_545 S
O415 Co398 2.020 . S
O415 C412 1.256 . S
O416 Co396 2.062 . S
O416 C412 1.255 . S
O417 C397 1.259 . S
O417 Co398 2.021 . S
H418 C409 0.930 . S
H419 C408 0.931 . S
O420 Co396 2.117 . S
O420 C397 1.258 . S
O421 Co396 2.020 . S
O421 C423 1.256 . S
O422 Co398 2.062 . S
O422 C423 1.255 . S
C423 O421 1.256 . S
C423 O422 1.255 . S
H424 C403 0.931 . S
H425 C411 0.931 . S
Co426 N431 2.057 . S
Co426 O443 2.021 . S
Co426 O446 2.062 . S
Co426 O450 2.117 . S
Co426 O451 2.020 . S
C427 O447 1.259 . S
C427 O450 1.258 . S
Co428 N437 2.057 . S
Co428 O444 2.117 . S
Co428 O445 2.020 . S
Co428 O447 2.021 . S
Co428 O452 2.062 . S
C429 N431 1.316 . S
C429 N432 1.347 . S
C429 H434 0.931 . S
C430 N431 1.375 . S
C430 C433 1.350 . S
C430 H435 0.930 . S
N431 Co426 2.057 . S
N431 C429 1.316 . S
N431 C430 1.375 . S
N432 C429 1.347 . S
N432 C433 1.373 . S
C433 C430 1.350 . S
C433 N432 1.373 . S
C433 H454 0.931 . S
H434 C429 0.931 . S
H435 C430 0.930 . S
C436 O443 1.259 . S
C436 O444 1.258 . S
N437 Co428 2.057 . S
N437 C438 1.316 . S
N437 C439 1.375 . S
C438 N437 1.316 . S
C438 N440 1.347 . S
C438 H449 0.931 . S
C439 N437 1.375 . S
C439 C441 1.350 . S
C439 H448 0.930 . S
N440 C438 1.347 . S
N440 C441 1.373 . S
C441 C439 1.350 . S
C441 N440 1.373 . S
C441 H455 0.931 . S
C442 O445 1.256 . S
C442 O446 1.255 . S
O443 Co426 2.021 . S
O443 C436 1.259 . S
O444 Co428 2.117 . S
O444 C436 1.258 . S
O445 Co428 2.020 . S
O445 C442 1.256 . S
O446 Co426 2.062 . S
O446 C442 1.255 . S
O447 C427 1.259 . S
O447 Co428 2.021 . S
H448 C439 0.930 . S
H449 C438 0.931 . S
O450 Co426 2.117 . S
O450 C427 1.258 . S
O451 Co426 2.020 . S
O451 C453 1.256 . S
O452 Co428 2.062 . S
O452 C453 1.255 . S
C453 O451 1.256 . S
C453 O452 1.255 . S
H454 C433 0.931 . S
H455 C441 0.931 . S
Co456 N461 2.057 1_545 S
Co456 O473 2.021 . S
Co456 O476 2.064 . S
Co456 O480 2.117 . S
Co456 O481 2.020 1_455 S
C457 O477 1.259 . S
C457 O480 1.258 . S
Co458 N467 2.057 . S
Co458 O474 2.117 . S
Co458 O475 2.020 . S
Co458 O477 2.021 . S
Co458 O482 2.062 1_455 S
C459 N461 1.316 . S
C459 N462 1.347 . S
C459 H464 0.931 . S
C460 N461 1.375 1_655 S
C460 C463 1.350 . S
C460 H465 0.930 . S
N461 Co456 2.057 1_565 S
N461 C459 1.316 . S
N461 C460 1.375 1_455 S
N462 C459 1.347 . S
N462 C463 1.373 1_455 S
C463 C460 1.350 . S
C463 N462 1.373 1_655 S
C463 H484 0.931 . S
H464 C459 0.931 . S
H465 C460 0.930 . S
C466 O473 1.259 . S
C466 O474 1.258 . S
N467 Co458 2.057 . S
N467 C468 1.316 . S
N467 C469 1.375 . S
C468 N467 1.316 . S
C468 N470 1.347 . S
C468 H479 0.931 . S
C469 N467 1.375 . S
C469 C471 1.350 . S
C469 H478 0.930 . S
N470 C468 1.347 . S
N470 C471 1.373 . S
C471 C469 1.350 . S
C471 N470 1.373 . S
C471 H485 0.931 . S
C472 O475 1.256 . S
C472 O476 1.261 . S
O473 Co456 2.021 . S
O473 C466 1.259 . S
O474 Co458 2.117 . S
O474 C466 1.258 . S
O475 Co458 2.020 . S
O475 C472 1.256 . S
O476 Co456 2.064 . S
O476 C472 1.261 . S
O477 C457 1.259 . S
O477 Co458 2.021 . S
H478 C469 0.930 . S
H479 C468 0.931 . S
O480 Co456 2.117 . S
O480 C457 1.258 . S
O481 Co456 2.020 1_655 S
O481 C483 1.256 . S
O482 Co458 2.062 1_655 S
O482 C483 1.255 . S
C483 O481 1.256 . S
C483 O482 1.255 . S
H484 C463 0.931 . S
H485 C471 0.931 . S
Co486 N491 2.057 . S
Co486 O503 2.021 . S
Co486 O506 2.062 . S
Co486 O510 2.117 . S
Co486 O511 2.020 . S
C487 O507 1.259 . S
C487 O510 1.258 . S
Co488 N497 2.057 . S
Co488 O504 2.117 . S
Co488 O505 2.020 . S
Co488 O507 2.021 . S
Co488 O512 2.062 . S
C489 N491 1.316 . S
C489 N492 1.347 . S
C489 H494 0.931 . S
C490 N491 1.375 . S
C490 C493 1.350 . S
C490 H495 0.930 . S
N491 Co486 2.057 . S
N491 C489 1.316 . S
N491 C490 1.375 . S
N492 C489 1.347 . S
N492 C493 1.373 . S
C493 C490 1.350 . S
C493 N492 1.373 . S
C493 H514 0.931 . S
H494 C489 0.931 . S
H495 C490 0.930 . S
C496 O503 1.259 . S
C496 O504 1.258 . S
N497 Co488 2.057 . S
N497 C498 1.316 . S
N497 C499 1.375 . S
C498 N497 1.316 . S
C498 N500 1.347 . S
C498 H509 0.931 . S
C499 N497 1.375 . S
C499 C501 1.350 . S
C499 H508 0.930 . S
N500 C498 1.347 . S
N500 C501 1.373 . S
C501 C499 1.350 . S
C501 N500 1.373 . S
C501 H515 0.931 . S
C502 O505 1.256 . S
C502 O506 1.255 . S
O503 Co486 2.021 . S
O503 C496 1.259 . S
O504 Co488 2.117 . S
O504 C496 1.258 . S
O505 Co488 2.020 . S
O505 C502 1.256 . S
O506 Co486 2.062 . S
O506 C502 1.255 . S
O507 C487 1.259 . S
O507 Co488 2.021 . S
H508 C499 0.930 . S
H509 C498 0.931 . S
O510 Co486 2.117 . S
O510 C487 1.258 . S
O511 Co486 2.020 . S
O511 C513 1.256 . S
O512 Co488 2.062 . S
O512 C513 1.255 . S
C513 O511 1.256 . S
C513 O512 1.255 . S
H514 C493 0.931 . S
H515 C501 0.931 . S
Co516 N521 2.057 1_554 S
Co516 O533 2.021 . S
Co516 O536 2.062 1_554 S
Co516 O540 2.117 . S
Co516 O541 2.020 1_545 S
C517 O537 1.259 . S
C517 O540 1.258 . S
Co518 N527 2.057 . S
Co518 O534 2.117 . S
Co518 O535 2.020 . S
Co518 O537 2.021 . S
Co518 O542 2.062 . S
C519 N521 1.316 . S
C519 N522 1.347 . S
C519 H524 0.931 . S
C520 N521 1.375 . S
C520 C523 1.350 . S
C520 H525 0.930 1_545 S
N521 Co516 2.057 1_556 S
N521 C519 1.316 . S
N521 C520 1.375 . S
N522 C519 1.347 . S
N522 C523 1.373 . S
C523 C520 1.350 . S
C523 N522 1.373 . S
C523 H544 0.931 1_545 S
H524 C519 0.931 . S
H525 C520 0.930 1_565 S
C526 O533 1.259 . S
C526 O534 1.258 . S
N527 Co518 2.057 . S
N527 C528 1.316 . S
N527 C529 1.375 . S
C528 N527 1.316 . S
C528 N530 1.347 . S
C528 H539 0.931 . S
C529 N527 1.375 . S
C529 C531 1.350 . S
C529 H538 0.930 . S
N530 C528 1.347 . S
N530 C531 1.373 . S
C531 C529 1.350 . S
C531 N530 1.373 . S
C531 H545 0.931 . S
C532 O535 1.256 . S
C532 O536 1.255 1_554 S
O533 Co516 2.021 . S
O533 C526 1.259 . S
O534 Co518 2.117 . S
O534 C526 1.258 . S
O535 Co518 2.020 . S
O535 C532 1.256 . S
O536 Co516 2.062 1_556 S
O536 C532 1.255 1_556 S
O537 C517 1.259 . S
O537 Co518 2.021 . S
H538 C529 0.930 . S
H539 C528 0.931 . S
O540 Co516 2.117 . S
O540 C517 1.258 . S
O541 Co516 2.020 1_565 S
O541 C543 1.256 . S
O542 Co518 2.062 . S
O542 C543 1.255 1_545 S
C543 O541 1.256 . S
C543 O542 1.255 1_565 S
H544 C523 0.931 1_565 S
H545 C531 0.931 . S
Co546 N551 2.057 . S
Co546 O563 2.021 . S
Co546 O566 2.062 . S
Co546 O570 2.117 . S
Co546 O571 2.020 . S
C547 O567 1.259 . S
C547 O570 1.258 . S
Co548 N557 2.057 . S
Co548 O564 2.117 . S
Co548 O565 2.020 . S
Co548 O567 2.021 . S
Co548 O572 2.062 . S
C549 N551 1.316 . S
C549 N552 1.347 . S
C549 H554 0.931 . S
C550 N551 1.375 . S
C550 C553 1.350 . S
C550 H555 0.930 . S
N551 Co546 2.057 . S
N551 C549 1.316 . S
N551 C550 1.375 . S
N552 C549 1.347 . S
N552 C553 1.373 . S
C553 C550 1.350 . S
C553 N552 1.373 . S
C553 H574 0.931 . S
H554 C549 0.931 . S
H555 C550 0.930 . S
C556 O563 1.259 . S
C556 O564 1.258 . S
N557 Co548 2.057 . S
N557 C558 1.316 . S
N557 C559 1.375 . S
C558 N557 1.316 . S
C558 N560 1.347 . S
C558 H569 0.931 . S
C559 N557 1.375 . S
C559 C561 1.350 . S
C559 H568 0.930 . S
N560 C558 1.347 . S
N560 C561 1.373 . S
C561 C559 1.350 . S
C561 N560 1.373 . S
C561 H575 0.931 . S
C562 O565 1.256 . S
C562 O566 1.255 . S
O563 Co546 2.021 . S
O563 C556 1.259 . S
O564 Co548 2.117 . S
O564 C556 1.258 . S
O565 Co548 2.020 . S
O565 C562 1.256 . S
O566 Co546 2.062 . S
O566 C562 1.255 . S
O567 C547 1.259 . S
O567 Co548 2.021 . S
H568 C559 0.930 . S
H569 C558 0.931 . S
O570 Co546 2.117 . S
O570 C547 1.258 . S
O571 Co546 2.020 . S
O571 C573 1.256 . S
O572 Co548 2.062 . S
O572 C573 1.255 . S
C573 O571 1.256 . S
C573 O572 1.255 . S
H574 C553 0.931 . S
H575 C561 0.931 . S
Co576 N581 2.057 . S
Co576 O593 2.021 1_554 S
Co576 O596 2.062 . S
Co576 O600 2.117 . S
Co576 O601 2.020 . S
C577 O597 1.259 . S
C577 O600 1.258 . S
Co578 N587 2.057 . S
Co578 O594 2.117 . S
Co578 O595 2.020 . S
Co578 O597 2.021 . S
Co578 O602 2.062 . S
C579 N581 1.316 1_556 S
C579 N582 1.347 1_556 S
C579 H584 0.931 . S
C580 N581 1.375 . S
C580 C583 1.350 . S
C580 H585 0.930 . S
N581 Co576 2.057 . S
N581 C579 1.316 1_554 S
N581 C580 1.375 . S
N582 C579 1.347 1_554 S
N582 C583 1.373 . S
C583 C580 1.350 . S
C583 N582 1.373 . S
C583 H604 0.931 . S
H584 C579 0.931 . S
H585 C580 0.930 . S
C586 O593 1.259 . S
C586 O594 1.258 1_556 S
N587 Co578 2.057 . S
N587 C588 1.316 . S
N587 C589 1.375 . S
C588 N587 1.316 . S
C588 N590 1.347 . S
C588 H599 0.931 . S
C589 N587 1.375 . S
C589 C591 1.350 . S
C589 H598 0.930 . S
N590 C588 1.347 . S
N590 C591 1.373 . S
C591 C589 1.350 . S
C591 N590 1.373 . S
C591 H605 0.931 . S
C592 O595 1.256 . S
C592 O596 1.255 . S
O593 Co576 2.021 1_556 S
O593 C586 1.259 . S
O594 Co578 2.117 . S
O594 C586 1.258 1_554 S
O595 Co578 2.020 . S
O595 C592 1.256 . S
O596 Co576 2.062 . S
O596 C592 1.255 . S
O597 C577 1.259 . S
O597 Co578 2.021 . S
H598 C589 0.930 . S
H599 C588 0.931 . S
O600 Co576 2.117 . S
O600 C577 1.258 . S
O601 Co576 2.020 . S
O601 C603 1.256 . S
O602 Co578 2.062 . S
O602 C603 1.255 . S
C603 O601 1.256 . S
C603 O602 1.255 . S
H604 C583 0.931 . S
H605 C591 0.931 . S
Co606 N611 2.057 . S
Co606 O623 2.021 . S
Co606 O626 2.062 . S
Co606 O630 2.117 . S
Co606 O631 2.020 . S
C607 O627 1.259 . S
C607 O630 1.258 . S
Co608 N617 2.057 . S
Co608 O624 2.117 . S
Co608 O625 2.020 . S
Co608 O627 2.021 . S
Co608 O632 2.062 . S
C609 N611 1.316 . S
C609 N612 1.347 . S
C609 H614 0.931 . S
C610 N611 1.375 . S
C610 C613 1.350 . S
C610 H615 0.930 . S
N611 Co606 2.057 . S
N611 C609 1.316 . S
N611 C610 1.375 . S
N612 C609 1.347 . S
N612 C613 1.373 . S
C613 C610 1.350 . S
C613 N612 1.373 . S
C613 H634 0.931 . S
H614 C609 0.931 . S
H615 C610 0.930 . S
C616 O623 1.259 . S
C616 O624 1.258 . S
N617 Co608 2.057 . S
N617 C618 1.316 . S
N617 C619 1.375 . S
C618 N617 1.316 . S
C618 N620 1.347 . S
C618 H629 0.931 . S
C619 N617 1.375 . S
C619 C621 1.350 . S
C619 H628 0.930 . S
N620 C618 1.347 . S
N620 C621 1.373 . S
C621 C619 1.350 . S
C621 N620 1.373 . S
C621 H635 0.931 . S
C622 O625 1.256 . S
C622 O626 1.255 . S
O623 Co606 2.021 . S
O623 C616 1.259 . S
O624 Co608 2.117 . S
O624 C616 1.258 . S
O625 Co608 2.020 . S
O625 C622 1.256 . S
O626 Co606 2.062 . S
O626 C622 1.255 . S
O627 C607 1.259 . S
O627 Co608 2.021 . S
H628 C619 0.930 . S
H629 C618 0.931 . S
O630 Co606 2.117 . S
O630 C607 1.258 . S
O631 Co606 2.020 . S
O631 C633 1.256 . S
O632 Co608 2.062 . S
O632 C633 1.255 . S
C633 O631 1.256 . S
C633 O632 1.255 . S
H634 C613 0.931 . S
H635 C621 0.931 . S
Co636 N641 2.057 . S
Co636 O653 2.021 1_455 S
Co636 O656 2.062 . S
Co636 O660 2.117 . S
Co636 O661 2.020 . S
C637 O657 1.259 . S
C637 O660 1.258 . S
Co638 N647 2.057 . S
Co638 O654 2.066 1_455 S
Co638 O655 2.020 . S
Co638 O657 2.021 . S
Co638 O662 2.062 . S
C639 N641 1.316 1_655 S
C639 N642 1.347 . S
C639 H644 0.931 . S
C640 N641 1.375 . S
C640 C643 1.350 . S
C640 H645 0.930 . S
N641 Co636 2.057 . S
N641 C639 1.316 1_455 S
N641 C640 1.375 . S
N642 C639 1.347 . S
N642 C643 1.373 1_655 S
C643 C640 1.350 . S
C643 N642 1.373 1_455 S
C643 H664 0.931 . S
H644 C639 0.931 . S
H645 C640 0.930 . S
C646 O653 1.259 . S
C646 O654 1.299 . S
N647 Co638 2.057 . S
N647 C648 1.316 . S
N647 C649 1.375 . S
C648 N647 1.316 . S
C648 N650 1.347 . S
C648 H659 0.931 . S
C649 N647 1.375 . S
C649 C651 1.350 . S
C649 H658 0.930 . S
N650 C648 1.347 . S
N650 C651 1.373 . S
C651 C649 1.350 . S
C651 N650 1.373 . S
C651 H665 0.931 . S
C652 O655 1.256 . S
C652 O656 1.255 . S
O653 Co636 2.021 1_655 S
O653 C646 1.259 . S
O654 Co638 2.066 1_655 S
O654 C646 1.299 . S
O655 Co638 2.020 . S
O655 C652 1.256 . S
O656 Co636 2.062 . S
O656 C652 1.255 . S
O657 C637 1.259 . S
O657 Co638 2.021 . S
H658 C649 0.930 . S
H659 C648 0.931 . S
O660 Co636 2.117 . S
O660 C637 1.258 . S
O661 Co636 2.020 . S
O661 C663 1.256 . S
O662 Co638 2.062 . S
O662 C663 1.255 . S
C663 O661 1.256 . S
C663 O662 1.255 . S
H664 C643 0.931 . S
H665 C651 0.931 . S
Co666 N671 2.057 . S
Co666 O683 2.021 . S
Co666 O686 2.062 . S
Co666 O690 2.117 . S
Co666 O691 2.020 . S
C667 O687 1.259 . S
C667 O690 1.258 . S
Co668 N677 2.057 . S
Co668 O684 2.117 . S
Co668 O685 2.020 . S
Co668 O687 2.021 . S
Co668 O692 2.062 . S
C669 N671 1.316 . S
C669 N672 1.347 . S
C669 H674 0.931 . S
C670 N671 1.375 . S
C670 C673 1.350 . S
C670 H675 0.930 . S
N671 Co666 2.057 . S
N671 C669 1.316 . S
N671 C670 1.375 . S
N672 C669 1.347 . S
N672 C673 1.373 . S
C673 C670 1.350 . S
C673 N672 1.373 . S
C673 H694 0.931 . S
H674 C669 0.931 . S
H675 C670 0.930 . S
C676 O683 1.259 . S
C676 O684 1.258 . S
N677 Co668 2.057 . S
N677 C678 1.316 . S
N677 C679 1.375 . S
C678 N677 1.316 . S
C678 N680 1.347 . S
C678 H689 0.931 . S
C679 N677 1.375 . S
C679 C681 1.350 . S
C679 H688 0.930 . S
N680 C678 1.347 . S
N680 C681 1.373 . S
C681 C679 1.350 . S
C681 N680 1.373 . S
C681 H695 0.931 . S
C682 O685 1.256 . S
C682 O686 1.255 . S
O683 Co666 2.021 . S
O683 C676 1.259 . S
O684 Co668 2.117 . S
O684 C676 1.258 . S
O685 Co668 2.020 . S
O685 C682 1.256 . S
O686 Co666 2.062 . S
O686 C682 1.255 . S
O687 C667 1.259 . S
O687 Co668 2.021 . S
H688 C679 0.930 . S
H689 C678 0.931 . S
O690 Co666 2.117 . S
O690 C667 1.258 . S
O691 Co666 2.020 . S
O691 C693 1.256 . S
O692 Co668 2.062 . S
O692 C693 1.255 . S
C693 O691 1.256 . S
C693 O692 1.255 . S
H694 C673 0.931 . S
H695 C681 0.931 . S
Co696 N701 2.057 . S
Co696 O713 2.021 . S
Co696 O716 2.062 . S
Co696 O720 2.117 . S
Co696 O721 2.020 . S
C697 O717 1.259 . S
C697 O720 1.258 . S
Co698 N707 2.057 . S
Co698 O714 2.117 . S
Co698 O715 2.020 . S
Co698 O717 2.021 . S
Co698 O722 2.062 . S
C699 N701 1.316 . S
C699 N702 1.347 . S
C699 H704 0.931 . S
C700 N701 1.375 . S
C700 C703 1.350 . S
C700 H705 0.930 . S
N701 Co696 2.057 . S
N701 C699 1.316 . S
N701 C700 1.375 . S
N702 C699 1.347 . S
N702 C703 1.373 . S
C703 C700 1.350 . S
C703 N702 1.373 . S
C703 H724 0.931 . S
H704 C699 0.931 . S
H705 C700 0.930 . S
C706 O713 1.259 . S
C706 O714 1.258 . S
N707 Co698 2.057 . S
N707 C708 1.316 . S
N707 C709 1.375 . S
C708 N707 1.316 . S
C708 N710 1.347 . S
C708 H719 0.931 . S
C709 N707 1.375 . S
C709 C711 1.350 . S
C709 H718 0.930 . S
N710 C708 1.347 . S
N710 C711 1.373 . S
C711 C709 1.350 . S
C711 N710 1.373 . S
C711 H725 0.931 . S
C712 O715 1.256 . S
C712 O716 1.255 . S
O713 Co696 2.021 . S
O713 C706 1.259 . S
O714 Co698 2.117 . S
O714 C706 1.258 . S
O715 Co698 2.020 . S
O715 C712 1.256 . S
O716 Co696 2.062 . S
O716 C712 1.255 . S
O717 C697 1.259 . S
O717 Co698 2.021 . S
H718 C709 0.930 . S
H719 C708 0.931 . S
O720 Co696 2.117 . S
O720 C697 1.258 . S
O721 Co696 2.020 . S
O721 C723 1.256 . S
O722 Co698 2.062 . S
O722 C723 1.255 . S
C723 O721 1.256 . S
C723 O722 1.255 . S
H724 C703 0.931 . S
H725 C711 0.931 . S
Co726 N731 2.057 . S
Co726 O743 2.021 . S
Co726 O746 2.062 . S
Co726 O750 2.117 . S
Co726 O751 2.020 . S
C727 O747 1.259 . S
C727 O750 1.258 . S
Co728 N737 2.057 . S
Co728 O744 2.117 . S
Co728 O745 2.020 . S
Co728 O747 2.021 . S
Co728 O752 2.062 . S
C729 N731 1.316 . S
C729 N732 1.347 . S
C729 H734 0.931 . S
C730 N731 1.375 . S
C730 C733 1.350 . S
C730 H735 0.930 . S
N731 Co726 2.057 . S
N731 C729 1.316 . S
N731 C730 1.375 . S
N732 C729 1.347 . S
N732 C733 1.373 . S
C733 C730 1.350 . S
C733 N732 1.373 . S
C733 H754 0.931 . S
H734 C729 0.931 . S
H735 C730 0.930 . S
C736 O743 1.259 . S
C736 O744 1.258 . S
N737 Co728 2.057 . S
N737 C738 1.316 . S
N737 C739 1.375 . S
C738 N737 1.316 . S
C738 N740 1.347 . S
C738 H749 0.931 . S
C739 N737 1.375 . S
C739 C741 1.350 . S
C739 H748 0.930 . S
N740 C738 1.347 . S
N740 C741 1.373 . S
C741 C739 1.350 . S
C741 N740 1.373 . S
C741 H755 0.931 . S
C742 O745 1.256 . S
C742 O746 1.255 . S
O743 Co726 2.021 . S
O743 C736 1.259 . S
O744 Co728 2.117 . S
O744 C736 1.258 . S
O745 Co728 2.020 . S
O745 C742 1.256 . S
O746 Co726 2.062 . S
O746 C742 1.255 . S
O747 C727 1.259 . S
O747 Co728 2.021 . S
H748 C739 0.930 . S
H749 C738 0.931 . S
O750 Co726 2.117 . S
O750 C727 1.258 . S
O751 Co726 2.020 . S
O751 C753 1.256 . S
O752 Co728 2.062 . S
O752 C753 1.255 . S
C753 O751 1.256 . S
C753 O752 1.255 . S
H754 C733 0.931 . S
H755 C741 0.931 . S
Co756 N761 2.057 . S
Co756 O773 2.021 . S
Co756 O776 2.062 . S
Co756 O780 2.117 . S
Co756 O781 2.020 . S
C757 O777 1.259 . S
C757 O780 1.258 . S
Co758 N767 2.057 . S
Co758 O774 2.117 . S
Co758 O775 2.020 . S
Co758 O777 2.021 . S
Co758 O782 2.062 . S
C759 N761 1.316 . S
C759 N762 1.347 . S
C759 H764 0.931 . S
C760 N761 1.375 . S
C760 C763 1.350 . S
C760 H765 0.930 . S
N761 Co756 2.057 . S
N761 C759 1.316 . S
N761 C760 1.375 . S
N762 C759 1.347 . S
N762 C763 1.373 . S
C763 C760 1.350 . S
C763 N762 1.373 . S
C763 H784 0.931 . S
H764 C759 0.931 . S
H765 C760 0.930 . S
C766 O773 1.259 . S
C766 O774 1.258 . S
N767 Co758 2.057 . S
N767 C768 1.316 . S
N767 C769 1.375 . S
C768 N767 1.316 . S
C768 N770 1.347 . S
C768 H779 0.931 . S
C769 N767 1.375 . S
C769 C771 1.350 . S
C769 H778 0.930 . S
N770 C768 1.347 . S
N770 C771 1.373 . S
C771 C769 1.350 . S
C771 N770 1.373 . S
C771 H785 0.931 . S
C772 O775 1.256 . S
C772 O776 1.255 . S
O773 Co756 2.021 . S
O773 C766 1.259 . S
O774 Co758 2.117 . S
O774 C766 1.258 . S
O775 Co758 2.020 . S
O775 C772 1.256 . S
O776 Co756 2.062 . S
O776 C772 1.255 . S
O777 C757 1.259 . S
O777 Co758 2.021 . S
H778 C769 0.930 . S
H779 C768 0.931 . S
O780 Co756 2.117 . S
O780 C757 1.258 . S
O781 Co756 2.020 . S
O781 C783 1.256 . S
O782 Co758 2.062 . S
O782 C783 1.255 . S
C783 O781 1.256 . S
C783 O782 1.255 . S
H784 C763 0.931 . S
H785 C771 0.931 . S
Co786 N791 2.057 1_455 S
Co786 O803 2.021 . S
Co786 O806 2.062 1_455 S
Co786 O810 2.117 . S
Co786 O811 2.020 1_554 S
C787 O807 1.259 . S
C787 O810 1.258 . S
Co788 N797 2.057 . S
Co788 O804 2.117 . S
Co788 O805 2.020 . S
Co788 O807 2.021 . S
Co788 O812 2.062 1_554 S
C789 N791 1.316 . S
C789 N792 1.347 . S
C789 H794 0.931 . S
C790 N791 1.375 1_556 S
C790 C793 1.350 . S
C790 H795 0.930 . S
N791 Co786 2.057 1_655 S
N791 C789 1.316 . S
N791 C790 1.375 1_554 S
N792 C789 1.347 . S
N792 C793 1.373 1_554 S
C793 C790 1.350 . S
C793 N792 1.373 1_556 S
C793 H814 0.931 . S
H794 C789 0.931 . S
H795 C790 0.930 . S
C796 O803 1.259 . S
C796 O804 1.258 . S
N797 Co788 2.057 . S
N797 C798 1.316 . S
N797 C799 1.375 . S
C798 N797 1.316 . S
C798 N800 1.347 . S
C798 H809 0.931 . S
C799 N797 1.375 . S
C799 C801 1.350 . S
C799 H808 0.930 . S
N800 C798 1.347 . S
N800 C801 1.373 . S
C801 C799 1.350 . S
C801 N800 1.373 . S
C801 H815 0.931 . S
C802 O805 1.256 . S
C802 O806 1.255 1_455 S
O803 Co786 2.021 . S
O803 C796 1.259 . S
O804 Co788 2.117 . S
O804 C796 1.258 . S
O805 Co788 2.020 . S
O805 C802 1.256 . S
O806 Co786 2.062 1_655 S
O806 C802 1.255 1_655 S
O807 C787 1.259 . S
O807 Co788 2.021 . S
H808 C799 0.930 . S
H809 C798 0.931 . S
O810 Co786 2.117 . S
O810 C787 1.258 . S
O811 Co786 2.020 1_556 S
O811 C813 1.256 . S
O812 Co788 2.062 1_556 S
O812 C813 1.255 . S
C813 O811 1.256 . S
C813 O812 1.255 . S
H814 C793 0.931 . S
H815 C801 0.931 . S
H816 C824 0.929 . S
H817 C826 0.930 . S
H818 C828 0.930 . S
H819 C831 0.929 . S
H820 C834 0.930 1_655 S
H821 C836 0.960 . S
H822 C836 0.960 . S
H823 C836 0.960 . S
C824 H816 0.929 . S
C824 C825 1.377 . S
C824 C826 1.384 . S
C825 C824 1.377 . S
C825 C831 1.390 . S
C826 H817 0.930 . S
C826 C824 1.384 . S
C826 C827 1.372 . S
C827 C826 1.372 . S
C827 C828 1.400 . S
C827 C832 1.490 . S
C828 H818 0.930 . S
C828 C827 1.400 . S
C828 C831 1.386 . S
H829 C845 0.930 1_655 S
H830 C846 0.931 1_655 S
C831 H819 0.929 . S
C831 C825 1.390 . S
C831 C828 1.386 . S
C832 C827 1.490 . S
C832 C834 1.395 . S
C832 C835 1.403 . S
H833 C839 0.930 . S
C834 H820 0.930 1_455 S
C834 C832 1.395 . S
C834 C837 1.408 . S
C835 C832 1.403 . S
C835 C836 1.524 . S
C835 C839 1.400 . S
C836 H821 0.960 . S
C836 H822 0.960 . S
C836 H823 0.960 . S
C836 C835 1.524 . S
C837 C834 1.408 . S
C837 C838 1.406 . S
C837 C841 1.478 1_455 S
C838 C837 1.406 . S
C838 C839 1.385 . S
C838 C840 1.478 . S
C839 H833 0.930 . S
C839 C835 1.400 . S
C839 C838 1.385 . S
C840 C838 1.478 . S
C840 C842 1.381 . S
C840 C846 1.383 . S
C841 C837 1.478 1_655 S
C841 H847 0.959 . S
C841 H848 0.961 . S
C841 H849 0.960 . S
C842 C840 1.381 . S
C842 C843 1.394 . S
C842 H850 0.930 . S
C843 C842 1.394 . S
C843 C844 1.383 . S
C843 H851 0.929 . S
C844 C843 1.383 . S
C844 C845 1.377 . S
C845 H829 0.930 1_455 S
C845 C844 1.377 . S
C845 C846 1.379 . S
C846 H830 0.931 1_455 S
C846 C840 1.383 . S
C846 C845 1.379 . S
H847 C841 0.959 . S
H848 C841 0.961 . S
H849 C841 0.960 . S
H850 C842 0.930 . S
H851 C843 0.929 . S
H852 C860 0.929 . S
H853 C862 0.930 . S
H854 C864 0.930 . S
H855 C867 0.929 . S
H856 C870 0.930 . S
H857 C872 0.960 . S
H858 C872 0.960 . S
H859 C872 0.960 . S
C860 H852 0.929 . S
C860 C861 1.377 . S
C860 C862 1.384 . S
C861 C860 1.377 . S
C861 C867 1.390 . S
C862 H853 0.930 . S
C862 C860 1.384 . S
C862 C863 1.372 . S
C863 C862 1.372 . S
C863 C864 1.400 . S
C863 C868 1.490 . S
C864 H854 0.930 . S
C864 C863 1.400 . S
C864 C867 1.386 . S
H865 C881 0.930 . S
H866 C882 0.931 . S
C867 H855 0.929 . S
C867 C861 1.390 . S
C867 C864 1.386 . S
C868 C863 1.490 . S
C868 C870 1.395 . S
C868 C871 1.403 . S
H869 C875 0.930 . S
C870 H856 0.930 . S
C870 C868 1.395 . S
C870 C873 1.403 . S
C871 C868 1.403 . S
C871 C872 1.524 . S
C871 C875 1.400 . S
C872 H857 0.960 . S
C872 H858 0.960 . S
C872 H859 0.960 . S
C872 C871 1.524 . S
C873 C870 1.403 . S
C873 C874 1.392 . S
C873 C877 1.495 . S
C874 C873 1.392 . S
C874 C875 1.385 . S
C874 C876 1.478 . S
C875 H869 0.930 . S
C875 C871 1.400 . S
C875 C874 1.385 . S
C876 C874 1.478 . S
C876 C878 1.381 . S
C876 C882 1.383 . S
C877 C873 1.495 . S
C877 H883 0.959 . S
C877 H884 0.961 . S
C877 H885 0.960 . S
C878 C876 1.381 . S
C878 C879 1.394 . S
C878 H886 0.930 . S
C879 C878 1.394 . S
C879 C880 1.383 . S
C879 H887 0.929 . S
C880 C879 1.383 . S
C880 C881 1.377 . S
C881 H865 0.930 . S
C881 C880 1.377 . S
C881 C882 1.379 . S
C882 H866 0.931 . S
C882 C876 1.383 . S
C882 C881 1.379 . S
H883 C877 0.959 . S
H884 C877 0.961 . S
H885 C877 0.960 . S
H886 C878 0.930 . S
H887 C879 0.929 . S
H888 C896 0.929 . S
H889 C898 0.930 . S
H890 C900 0.930 . S
H891 C903 0.929 . S
H892 C906 0.930 . S
H893 C908 0.960 . S
H894 C908 0.960 . S
H895 C908 0.960 . S
C896 H888 0.929 . S
C896 C897 1.377 . S
C896 C898 1.384 . S
C897 C896 1.377 . S
C897 C903 1.390 . S
C898 H889 0.930 . S
C898 C896 1.384 . S
C898 C899 1.372 . S
C899 C898 1.372 . S
C899 C900 1.400 . S
C899 C904 1.490 . S
C900 H890 0.930 . S
C900 C899 1.400 . S
C900 C903 1.386 . S
H901 C917 0.930 . S
H902 C918 0.931 . S
C903 H891 0.929 . S
C903 C897 1.390 . S
C903 C900 1.386 . S
C904 C899 1.490 . S
C904 C906 1.395 . S
C904 C907 1.403 . S
H905 C911 0.930 . S
C906 H892 0.930 . S
C906 C904 1.395 . S
C906 C909 1.403 . S
C907 C904 1.403 . S
C907 C908 1.524 . S
C907 C911 1.400 . S
C908 H893 0.960 . S
C908 H894 0.960 . S
C908 H895 0.960 . S
C908 C907 1.524 . S
C909 C906 1.403 . S
C909 C910 1.392 . S
C909 C913 1.495 . S
C910 C909 1.392 . S
C910 C911 1.385 . S
C910 C912 1.478 . S
C911 H905 0.930 . S
C911 C907 1.400 . S
C911 C910 1.385 . S
C912 C910 1.478 . S
C912 C914 1.381 . S
C912 C918 1.383 . S
C913 C909 1.495 . S
C913 H919 0.959 . S
C913 H920 0.961 . S
C913 H921 0.960 . S
C914 C912 1.381 . S
C914 C915 1.394 . S
C914 H922 0.930 . S
C915 C914 1.394 . S
C915 C916 1.383 . S
C915 H923 0.929 . S
C916 C915 1.383 . S
C916 C917 1.377 . S
C917 H901 0.930 . S
C917 C916 1.377 . S
C917 C918 1.379 . S
C918 H902 0.931 . S
C918 C912 1.383 . S
C918 C917 1.379 . S
H919 C913 0.959 . S
H920 C913 0.961 . S
H921 C913 0.960 . S
H922 C914 0.930 . S
H923 C915 0.929 . S
H924 C932 0.929 . S
H925 C934 0.930 . S
H926 C936 0.930 . S
H927 C939 0.929 . S
H928 C942 0.930 . S
H929 C944 0.960 . S
H930 C944 0.960 . S
H931 C944 0.960 . S
C932 H924 0.929 . S
C932 C933 1.377 . S
C932 C934 1.384 . S
C933 C932 1.377 . S
C933 C939 1.390 . S
C934 H925 0.930 . S
C934 C932 1.384 . S
C934 C935 1.372 . S
C935 C934 1.372 . S
C935 C936 1.400 . S
C935 C940 1.490 . S
C936 H926 0.930 . S
C936 C935 1.400 . S
C936 C939 1.386 . S
H937 C953 0.930 . S
H938 C954 0.931 . S
C939 H927 0.929 . S
C939 C933 1.390 . S
C939 C936 1.386 . S
C940 C935 1.490 . S
C940 C942 1.395 . S
C940 C943 1.403 . S
H941 C947 0.930 . S
C942 H928 0.930 . S
C942 C940 1.395 . S
C942 C945 1.403 . S
C943 C940 1.403 . S
C943 C944 1.524 . S
C943 C947 1.400 . S
C944 H929 0.960 . S
C944 H930 0.960 . S
C944 H931 0.960 . S
C944 C943 1.524 . S
C945 C942 1.403 . S
C945 C946 1.392 . S
C945 C949 1.495 . S
C946 C945 1.392 . S
C946 C947 1.385 . S
C946 C948 1.478 . S
C947 H941 0.930 . S
C947 C943 1.400 . S
C947 C946 1.385 . S
C948 C946 1.478 . S
C948 C950 1.381 . S
C948 C954 1.383 . S
C949 C945 1.495 . S
C949 H955 0.959 . S
C949 H956 0.961 . S
C949 H957 0.960 . S
C950 C948 1.381 . S
C950 C951 1.394 . S
C950 H958 0.930 . S
C951 C950 1.394 . S
C951 C952 1.383 . S
C951 H959 0.929 . S
C952 C951 1.383 . S
C952 C953 1.377 . S
C953 H937 0.930 . S
C953 C952 1.377 . S
C953 C954 1.379 . S
C954 H938 0.931 . S
C954 C948 1.383 . S
C954 C953 1.379 . S
H955 C949 0.959 . S
H956 C949 0.961 . S
H957 C949 0.960 . S
H958 C950 0.930 . S
H959 C951 0.929 . S
H960 C968 0.929 . S
H961 C970 0.930 . S
H962 C972 0.930 . S
H963 C975 0.929 . S
H964 C978 0.930 . S
H965 C980 0.960 1_655 S
H966 C980 0.960 . S
H967 C980 0.960 1_655 S
C968 H960 0.929 . S
C968 C969 1.377 . S
C968 C970 1.384 . S
C969 C968 1.377 . S
C969 C975 1.390 . S
C970 H961 0.930 . S
C970 C968 1.384 . S
C970 C971 1.372 . S
C971 C970 1.372 . S
C971 C972 1.400 . S
C971 C976 1.490 . S
C972 H962 0.930 . S
C972 C971 1.400 . S
C972 C975 1.386 . S
H973 C989 0.930 . S
H974 C990 0.931 . S
C975 H963 0.929 . S
C975 C969 1.390 . S
C975 C972 1.386 . S
C976 C971 1.490 . S
C976 C978 1.395 . S
C976 C979 1.403 . S
H977 C983 0.930 . S
C978 H964 0.930 . S
C978 C976 1.395 . S
C978 C981 1.403 . S
C979 C976 1.403 . S
C979 C980 1.524 . S
C979 C983 1.400 . S
C980 H965 0.960 1_455 S
C980 H966 0.960 . S
C980 H967 0.960 1_455 S
C980 C979 1.524 . S
C981 C978 1.403 . S
C981 C982 1.392 . S
C981 C985 1.495 . S
C982 C981 1.392 . S
C982 C983 1.385 . S
C982 C984 1.478 . S
C983 H977 0.930 . S
C983 C979 1.400 . S
C983 C982 1.385 . S
C984 C982 1.478 . S
C984 C986 1.381 . S
C984 C990 1.383 1_455 S
C985 C981 1.495 . S
C985 H991 0.959 . S
C985 H992 0.961 . S
C985 H993 0.960 . S
C986 C984 1.381 . S
C986 C987 1.394 . S
C986 H994 0.930 . S
C987 C986 1.394 . S
C987 C988 1.383 . S
C987 H995 0.929 . S
C988 C987 1.383 . S
C988 C989 1.377 1_455 S
C989 H973 0.930 . S
C989 C988 1.377 1_655 S
C989 C990 1.379 . S
C990 H974 0.931 . S
C990 C984 1.383 1_655 S
C990 C989 1.379 . S
H991 C985 0.959 . S
H992 C985 0.961 . S
H993 C985 0.960 . S
H994 C986 0.930 . S
H995 C987 0.929 . S
H996 C1004 0.929 . S
H997 C1006 0.930 . S
H998 C1008 0.930 . S
H999 C1011 0.929 . S
H1000 C1014 0.930 . S
H1001 C1016 0.960 . S
H1002 C1016 0.960 . S
H1003 C1016 0.960 . S
C1004 H996 0.929 . S
C1004 C1005 1.377 . S
C1004 C1006 1.384 . S
C1005 C1004 1.377 . S
C1005 C1011 1.390 . S
C1006 H997 0.930 . S
C1006 C1004 1.384 . S
C1006 C1007 1.372 . S
C1007 C1006 1.372 . S
C1007 C1008 1.400 . S
C1007 C1012 1.490 . S
C1008 H998 0.930 . S
C1008 C1007 1.400 . S
C1008 C1011 1.386 . S
H1009 C1025 0.930 . S
H1010 C1026 0.931 . S
C1011 H999 0.929 . S
C1011 C1005 1.390 . S
C1011 C1008 1.386 . S
C1012 C1007 1.490 . S
C1012 C1014 1.395 . S
C1012 C1015 1.403 . S
H1013 C1019 0.930 . S
C1014 H1000 0.930 . S
C1014 C1012 1.395 . S
C1014 C1017 1.403 . S
C1015 C1012 1.403 . S
C1015 C1016 1.524 . S
C1015 C1019 1.400 . S
C1016 H1001 0.960 . S
C1016 H1002 0.960 . S
C1016 H1003 0.960 . S
C1016 C1015 1.524 . S
C1017 C1014 1.403 . S
C1017 C1018 1.392 . S
C1017 C1021 1.495 . S
C1018 C1017 1.392 . S
C1018 C1019 1.385 . S
C1018 C1020 1.478 . S
C1019 H1013 0.930 . S
C1019 C1015 1.400 . S
C1019 C1018 1.385 . S
C1020 C1018 1.478 . S
C1020 C1022 1.381 . S
C1020 C1026 1.383 . S
C1021 C1017 1.495 . S
C1021 H1027 0.959 . S
C1021 H1028 0.961 . S
C1021 H1029 0.960 . S
C1022 C1020 1.381 . S
C1022 C1023 1.394 . S
C1022 H1030 0.930 . S
C1023 C1022 1.394 . S
C1023 C1024 1.383 . S
C1023 H1031 0.929 . S
C1024 C1023 1.383 . S
C1024 C1025 1.377 . S
C1025 H1009 0.930 . S
C1025 C1024 1.377 . S
C1025 C1026 1.379 . S
C1026 H1010 0.931 . S
C1026 C1020 1.383 . S
C1026 C1025 1.379 . S
H1027 C1021 0.959 . S
H1028 C1021 0.961 . S
H1029 C1021 0.960 . S
H1030 C1022 0.930 . S
H1031 C1023 0.929 . S
H1032 C1040 0.929 . S
H1033 C1042 0.930 . S
H1034 C1044 0.930 . S
H1035 C1047 0.929 . S
H1036 C1050 0.930 . S
H1037 C1052 0.960 . S
H1038 C1052 0.960 . S
H1039 C1052 0.960 . S
C1040 H1032 0.929 . S
C1040 C1041 1.377 . S
C1040 C1042 1.384 . S
C1041 C1040 1.377 . S
C1041 C1047 1.390 . S
C1042 H1033 0.930 . S
C1042 C1040 1.384 . S
C1042 C1043 1.372 . S
C1043 C1042 1.372 . S
C1043 C1044 1.400 . S
C1043 C1048 1.490 . S
C1044 H1034 0.930 . S
C1044 C1043 1.400 . S
C1044 C1047 1.386 . S
H1045 C1061 0.930 . S
H1046 C1062 0.931 . S
C1047 H1035 0.929 . S
C1047 C1041 1.390 . S
C1047 C1044 1.386 . S
C1048 C1043 1.490 . S
C1048 C1050 1.395 . S
C1048 C1051 1.403 . S
H1049 C1055 0.930 . S
C1050 H1036 0.930 . S
C1050 C1048 1.395 . S
C1050 C1053 1.403 . S
C1051 C1048 1.403 . S
C1051 C1052 1.524 . S
C1051 C1055 1.400 . S
C1052 H1037 0.960 . S
C1052 H1038 0.960 . S
C1052 H1039 0.960 . S
C1052 C1051 1.524 . S
C1053 C1050 1.403 . S
C1053 C1054 1.392 . S
C1053 C1057 1.495 1_556 S
C1054 C1053 1.392 . S
C1054 C1055 1.385 . S
C1054 C1056 1.478 . S
C1055 H1049 0.930 . S
C1055 C1051 1.400 . S
C1055 C1054 1.385 . S
C1056 C1054 1.478 . S
C1056 C1058 1.381 . S
C1056 C1062 1.383 . S
C1057 C1053 1.495 1_554 S
C1057 H1063 0.959 . S
C1057 H1064 0.961 . S
C1057 H1065 0.960 . S
C1058 C1056 1.381 . S
C1058 C1059 1.394 1_556 S
C1058 H1066 0.930 . S
C1059 C1058 1.394 1_554 S
C1059 C1060 1.383 . S
C1059 H1067 0.929 . S
C1060 C1059 1.383 . S
C1060 C1061 1.377 1_554 S
C1061 H1045 0.930 . S
C1061 C1060 1.377 1_556 S
C1061 C1062 1.379 . S
C1062 H1046 0.931 . S
C1062 C1056 1.383 . S
C1062 C1061 1.379 . S
H1063 C1057 0.959 . S
H1064 C1057 0.961 . S
H1065 C1057 0.960 . S
H1066 C1058 0.930 . S
H1067 C1059 0.929 . S
H1068 C1076 0.929 . S
H1069 C1078 0.930 . S
H1070 C1080 0.930 . S
H1071 C1083 0.929 . S
H1072 C1086 0.930 . S
H1073 C1088 0.960 . S
H1074 C1088 0.960 . S
H1075 C1088 0.960 . S
C1076 H1068 0.929 . S
C1076 C1077 1.377 . S
C1076 C1078 1.384 . S
C1077 C1076 1.377 . S
C1077 C1083 1.390 . S
C1078 H1069 0.930 . S
C1078 C1076 1.384 . S
C1078 C1079 1.372 . S
C1079 C1078 1.372 . S
C1079 C1080 1.400 . S
C1079 C1084 1.490 . S
C1080 H1070 0.930 . S
C1080 C1079 1.400 . S
C1080 C1083 1.386 . S
H1081 C1097 0.930 . S
H1082 C1098 0.931 . S
C1083 H1071 0.929 . S
C1083 C1077 1.390 . S
C1083 C1080 1.386 . S
C1084 C1079 1.490 . S
C1084 C1086 1.395 . S
C1084 C1087 1.403 . S
H1085 C1091 0.930 . S
C1086 H1072 0.930 . S
C1086 C1084 1.395 . S
C1086 C1089 1.403 . S
C1087 C1084 1.403 . S
C1087 C1088 1.524 . S
C1087 C1091 1.400 . S
C1088 H1073 0.960 . S
C1088 H1074 0.960 . S
C1088 H1075 0.960 . S
C1088 C1087 1.524 . S
C1089 C1086 1.403 . S
C1089 C1090 1.392 . S
C1089 C1093 1.495 . S
C1090 C1089 1.392 . S
C1090 C1091 1.385 . S
C1090 C1092 1.478 . S
C1091 H1085 0.930 . S
C1091 C1087 1.400 . S
C1091 C1090 1.385 . S
C1092 C1090 1.478 . S
C1092 C1094 1.381 . S
C1092 C1098 1.383 . S
C1093 C1089 1.495 . S
C1093 H1099 0.959 . S
C1093 H1100 0.961 . S
C1093 H1101 0.960 . S
C1094 C1092 1.381 . S
C1094 C1095 1.394 . S
C1094 H1102 0.930 . S
C1095 C1094 1.394 . S
C1095 C1096 1.383 . S
C1095 H1103 0.929 . S
C1096 C1095 1.383 . S
C1096 C1097 1.377 . S
C1097 H1081 0.930 . S
C1097 C1096 1.377 . S
C1097 C1098 1.379 . S
C1098 H1082 0.931 . S
C1098 C1092 1.383 . S
C1098 C1097 1.379 . S
H1099 C1093 0.959 . S
H1100 C1093 0.961 . S
H1101 C1093 0.960 . S
H1102 C1094 0.930 . S
H1103 C1095 0.929 . S
H1104 C1112 0.929 . S
H1105 C1114 0.930 . S
H1106 C1116 0.930 . S
H1107 C1119 0.929 . S
H1108 C1122 0.930 . S
H1109 C1124 0.960 . S
H1110 C1124 0.960 . S
H1111 C1124 0.960 1_545 S
C1112 H1104 0.929 . S
C1112 C1113 1.377 1_565 S
C1112 C1114 1.384 . S
C1113 C1112 1.377 1_545 S
C1113 C1119 1.390 . S
C1114 H1105 0.930 . S
C1114 C1112 1.384 . S
C1114 C1115 1.372 1_565 S
C1115 C1114 1.372 1_545 S
C1115 C1116 1.400 . S
C1115 C1120 1.490 . S
C1116 H1106 0.930 . S
C1116 C1115 1.400 . S
C1116 C1119 1.386 . S
H1117 C1133 0.930 . S
H1118 C1134 0.931 . S
C1119 H1107 0.929 . S
C1119 C1113 1.390 . S
C1119 C1116 1.386 . S
C1120 C1115 1.490 . S
C1120 C1122 1.395 . S
C1120 C1123 1.403 . S
H1121 C1127 0.931 . S
C1122 H1108 0.930 . S
C1122 C1120 1.395 . S
C1122 C1125 1.403 . S
C1123 C1120 1.403 . S
C1123 C1124 1.524 1_545 S
C1123 C1127 1.400 . S
C1124 H1109 0.960 . S
C1124 H1110 0.960 . S
C1124 H1111 0.960 1_565 S
C1124 C1123 1.524 1_565 S
C1125 C1122 1.403 . S
C1125 C1126 1.392 . S
C1125 C1129 1.495 . S
C1126 C1125 1.392 . S
C1126 C1127 1.385 . S
C1126 C1128 1.478 . S
C1127 H1121 0.931 . S
C1127 C1123 1.400 . S
C1127 C1126 1.385 . S
C1128 C1126 1.478 . S
C1128 C1130 1.381 1_545 S
C1128 C1134 1.383 . S
C1129 C1125 1.495 . S
C1129 H1135 0.959 . S
C1129 H1136 0.961 . S
C1129 H1137 0.946 1_545 S
C1130 C1128 1.381 1_565 S
C1130 C1131 1.394 . S
C1130 H1138 0.930 . S
C1131 C1130 1.394 . S
C1131 C1132 1.383 1_565 S
C1131 H1139 0.929 . S
C1132 C1131 1.383 1_545 S
C1132 C1133 1.377 . S
C1133 H1117 0.930 . S
C1133 C1132 1.377 . S
C1133 C1134 1.379 . S
C1134 H1118 0.931 . S
C1134 C1128 1.383 . S
C1134 C1133 1.379 . S
H1135 C1129 0.959 . S
H1136 C1129 0.961 . S
H1137 C1129 0.946 1_565 S
H1138 C1130 0.930 . S
H1139 C1131 0.929 . S
H1140 C1148 0.929 . S
H1141 C1150 0.930 . S
H1142 C1152 0.930 . S
H1143 C1155 0.929 . S
H1144 C1158 0.930 . S
H1145 C1160 0.960 . S
H1146 C1160 0.960 . S
H1147 C1160 0.960 . S
C1148 H1140 0.929 . S
C1148 C1149 1.377 . S
C1148 C1150 1.384 . S
C1149 C1148 1.377 . S
C1149 C1155 1.390 . S
C1150 H1141 0.930 . S
C1150 C1148 1.384 . S
C1150 C1151 1.372 . S
C1151 C1150 1.372 . S
C1151 C1152 1.400 . S
C1151 C1156 1.490 . S
C1152 H1142 0.930 . S
C1152 C1151 1.400 . S
C1152 C1155 1.386 . S
H1153 C1169 0.930 . S
H1154 C1170 0.931 . S
C1155 H1143 0.929 . S
C1155 C1149 1.390 . S
C1155 C1152 1.386 . S
C1156 C1151 1.490 . S
C1156 C1158 1.395 . S
C1156 C1159 1.403 . S
H1157 C1163 0.930 . S
C1158 H1144 0.930 . S
C1158 C1156 1.395 . S
C1158 C1161 1.403 . S
C1159 C1156 1.403 . S
C1159 C1160 1.524 . S
C1159 C1163 1.400 . S
C1160 H1145 0.960 . S
C1160 H1146 0.960 . S
C1160 H1147 0.960 . S
C1160 C1159 1.524 . S
C1161 C1158 1.403 . S
C1161 C1162 1.392 . S
C1161 C1165 1.495 . S
C1162 C1161 1.392 . S
C1162 C1163 1.385 . S
C1162 C1164 1.478 . S
C1163 H1157 0.930 . S
C1163 C1159 1.400 . S
C1163 C1162 1.385 . S
C1164 C1162 1.478 . S
C1164 C1166 1.381 . S
C1164 C1170 1.383 . S
C1165 C1161 1.495 . S
C1165 H1171 0.959 . S
C1165 H1172 0.961 . S
C1165 H1173 0.960 . S
C1166 C1164 1.381 . S
C1166 C1167 1.394 . S
C1166 H1174 0.930 . S
C1167 C1166 1.394 . S
C1167 C1168 1.383 . S
C1167 H1175 0.929 . S
C1168 C1167 1.383 . S
C1168 C1169 1.377 . S
C1169 H1153 0.930 . S
C1169 C1168 1.377 . S
C1169 C1170 1.379 . S
C1170 H1154 0.931 . S
C1170 C1164 1.383 . S
C1170 C1169 1.379 . S
H1171 C1165 0.959 . S
H1172 C1165 0.961 . S
H1173 C1165 0.960 . S
H1174 C1166 0.930 . S
H1175 C1167 0.929 . S
H1176 C1184 0.929 . S
H1177 C1186 0.930 . S
H1178 C1188 0.930 . S
H1179 C1191 0.929 . S
H1180 C1194 0.930 . S
H1181 C1196 0.960 1_565 S
H1182 C1196 0.960 . S
H1183 C1196 0.960 . S
C1184 H1176 0.929 . S
C1184 C1185 1.377 . S
C1184 C1186 1.384 . S
C1185 C1184 1.377 . S
C1185 C1191 1.390 . S
C1186 H1177 0.930 . S
C1186 C1184 1.384 . S
C1186 C1187 1.372 . S
C1187 C1186 1.372 . S
C1187 C1188 1.400 . S
C1187 C1192 1.490 . S
C1188 H1178 0.930 . S
C1188 C1187 1.400 . S
C1188 C1191 1.386 . S
H1189 C1205 0.930 . S
H1190 C1206 0.931 . S
C1191 H1179 0.929 . S
C1191 C1185 1.390 . S
C1191 C1188 1.386 . S
C1192 C1187 1.490 . S
C1192 C1194 1.395 . S
C1192 C1195 1.403 . S
H1193 C1199 0.930 . S
C1194 H1180 0.930 . S
C1194 C1192 1.395 . S
C1194 C1197 1.403 . S
C1195 C1192 1.403 . S
C1195 C1196 1.524 . S
C1195 C1199 1.400 . S
C1196 H1181 0.960 1_545 S
C1196 H1182 0.960 . S
C1196 H1183 0.960 . S
C1196 C1195 1.524 . S
C1197 C1194 1.403 . S
C1197 C1198 1.392 . S
C1197 C1201 1.495 . S
C1198 C1197 1.392 . S
C1198 C1199 1.385 . S
C1198 C1200 1.478 . S
C1199 H1193 0.930 . S
C1199 C1195 1.400 . S
C1199 C1198 1.385 . S
C1200 C1198 1.478 . S
C1200 C1202 1.381 . S
C1200 C1206 1.383 . S
C1201 C1197 1.495 . S
C1201 H1207 0.959 . S
C1201 H1208 0.961 . S
C1201 H1209 0.960 . S
C1202 C1200 1.381 . S
C1202 C1203 1.394 . S
C1202 H1210 0.930 . S
C1203 C1202 1.394 . S
C1203 C1204 1.383 . S
C1203 H1211 0.929 . S
C1204 C1203 1.383 . S
C1204 C1205 1.377 . S
C1205 H1189 0.930 . S
C1205 C1204 1.377 . S
C1205 C1206 1.379 . S
C1206 H1190 0.931 . S
C1206 C1200 1.383 . S
C1206 C1205 1.379 . S
H1207 C1201 0.959 . S
H1208 C1201 0.961 . S
H1209 C1201 0.960 . S
H1210 C1202 0.930 . S
H1211 C1203 0.929 . S
H1212 C1220 0.929 . S
H1213 C1222 0.930 . S
H1214 C1224 0.930 . S
H1215 C1227 0.929 . S
H1216 C1230 0.930 . S
H1217 C1232 0.960 . S
H1218 C1232 0.960 . S
H1219 C1232 0.960 . S
C1220 H1212 0.929 . S
C1220 C1221 1.377 . S
C1220 C1222 1.384 . S
C1221 C1220 1.377 . S
C1221 C1227 1.390 . S
C1222 H1213 0.930 . S
C1222 C1220 1.384 . S
C1222 C1223 1.372 . S
C1223 C1222 1.372 . S
C1223 C1224 1.400 . S
C1223 C1228 1.490 . S
C1224 H1214 0.930 . S
C1224 C1223 1.400 . S
C1224 C1227 1.386 . S
H1225 C1241 0.930 . S
H1226 C1242 0.931 . S
C1227 H1215 0.929 . S
C1227 C1221 1.390 . S
C1227 C1224 1.386 . S
C1228 C1223 1.490 . S
C1228 C1230 1.395 . S
C1228 C1231 1.403 . S
H1229 C1235 0.930 . S
C1230 H1216 0.930 . S
C1230 C1228 1.395 . S
C1230 C1233 1.403 . S
C1231 C1228 1.403 . S
C1231 C1232 1.524 . S
C1231 C1235 1.400 . S
C1232 H1217 0.960 . S
C1232 H1218 0.960 . S
C1232 H1219 0.960 . S
C1232 C1231 1.524 . S
C1233 C1230 1.403 . S
C1233 C1234 1.392 . S
C1233 C1237 1.495 . S
C1234 C1233 1.392 . S
C1234 C1235 1.385 . S
C1234 C1236 1.478 . S
C1235 H1229 0.930 . S
C1235 C1231 1.400 . S
C1235 C1234 1.385 . S
C1236 C1234 1.478 . S
C1236 C1238 1.381 . S
C1236 C1242 1.383 . S
C1237 C1233 1.495 . S
C1237 H1243 0.959 . S
C1237 H1244 0.961 . S
C1237 H1245 0.960 . S
C1238 C1236 1.381 . S
C1238 C1239 1.394 . S
C1238 H1246 0.930 . S
C1239 C1238 1.394 . S
C1239 C1240 1.383 . S
C1239 H1247 0.929 . S
C1240 C1239 1.383 . S
C1240 C1241 1.377 . S
C1241 H1225 0.930 . S
C1241 C1240 1.377 . S
C1241 C1242 1.379 . S
C1242 H1226 0.931 . S
C1242 C1236 1.383 . S
C1242 C1241 1.379 . S
H1243 C1237 0.959 . S
H1244 C1237 0.961 . S
H1245 C1237 0.960 . S
H1246 C1238 0.930 . S
H1247 C1239 0.929 . S
H1248 C1256 0.929 . S
H1249 C1258 0.930 . S
H1250 C1260 0.930 1_565 S
H1251 C1263 0.932 1_565 S
H1252 C1266 0.930 . S
H1253 C1268 0.960 . S
H1254 C1268 0.960 . S
H1255 C1268 0.960 . S
C1256 H1248 0.929 . S
C1256 C1257 1.377 . S
C1256 C1258 1.384 . S
C1257 C1256 1.377 . S
C1257 C1263 1.388 . S
C1258 H1249 0.930 . S
C1258 C1256 1.384 . S
C1258 C1259 1.372 . S
C1259 C1258 1.372 . S
C1259 C1260 1.400 . S
C1259 C1264 1.490 . S
C1260 H1250 0.930 1_545 S
C1260 C1259 1.400 . S
C1260 C1263 1.385 . S
H1261 C1277 0.930 . S
H1262 C1278 0.931 . S
C1263 H1251 0.932 1_545 S
C1263 C1257 1.388 . S
C1263 C1260 1.385 . S
C1264 C1259 1.490 . S
C1264 C1266 1.395 . S
C1264 C1267 1.403 . S
H1265 C1271 0.930 . S
C1266 H1252 0.930 . S
C1266 C1264 1.395 . S
C1266 C1269 1.403 . S
C1267 C1264 1.403 . S
C1267 C1268 1.524 . S
C1267 C1271 1.400 . S
C1268 H1253 0.960 . S
C1268 H1254 0.960 . S
C1268 H1255 0.960 . S
C1268 C1267 1.524 . S
C1269 C1266 1.403 . S
C1269 C1270 1.392 . S
C1269 C1273 1.495 . S
C1270 C1269 1.392 . S
C1270 C1271 1.385 . S
C1270 C1272 1.478 . S
C1271 H1265 0.930 . S
C1271 C1267 1.400 . S
C1271 C1270 1.385 . S
C1272 C1270 1.478 . S
C1272 C1274 1.381 . S
C1272 C1278 1.383 . S
C1273 C1269 1.495 . S
C1273 H1279 0.953 1_545 S
C1273 H1280 0.961 1_545 S
C1273 H1281 0.960 . S
C1274 C1272 1.381 . S
C1274 C1275 1.394 . S
C1274 H1282 0.930 . S
C1275 C1274 1.394 . S
C1275 C1276 1.383 . S
C1275 H1283 0.929 . S
C1276 C1275 1.383 . S
C1276 C1277 1.377 . S
C1277 H1261 0.930 . S
C1277 C1276 1.377 . S
C1277 C1278 1.379 . S
C1278 H1262 0.931 . S
C1278 C1272 1.383 . S
C1278 C1277 1.379 . S
H1279 C1273 0.953 1_565 S
H1280 C1273 0.961 1_565 S
H1281 C1273 0.960 . S
H1282 C1274 0.930 . S
H1283 C1275 0.929 . S
H1284 C1292 0.929 . S
H1285 C1294 0.930 . S
H1286 C1296 0.930 . S
H1287 C1299 0.929 . S
H1288 C1302 0.930 . S
H1289 C1304 0.960 . S
H1290 C1304 0.960 . S
H1291 C1304 0.960 . S
C1292 H1284 0.929 . S
C1292 C1293 1.377 . S
C1292 C1294 1.384 . S
C1293 C1292 1.377 . S
C1293 C1299 1.390 . S
C1294 H1285 0.930 . S
C1294 C1292 1.384 . S
C1294 C1295 1.372 . S
C1295 C1294 1.372 . S
C1295 C1296 1.400 . S
C1295 C1300 1.490 . S
C1296 H1286 0.930 . S
C1296 C1295 1.400 . S
C1296 C1299 1.386 . S
H1297 C1313 0.930 . S
H1298 C1314 0.931 . S
C1299 H1287 0.929 . S
C1299 C1293 1.390 . S
C1299 C1296 1.386 . S
C1300 C1295 1.490 . S
C1300 C1302 1.395 . S
C1300 C1303 1.403 . S
H1301 C1307 0.930 . S
C1302 H1288 0.930 . S
C1302 C1300 1.395 . S
C1302 C1305 1.403 . S
C1303 C1300 1.403 . S
C1303 C1304 1.524 . S
C1303 C1307 1.400 . S
C1304 H1289 0.960 . S
C1304 H1290 0.960 . S
C1304 H1291 0.960 . S
C1304 C1303 1.524 . S
C1305 C1302 1.403 . S
C1305 C1306 1.392 . S
C1305 C1309 1.495 . S
C1306 C1305 1.392 . S
C1306 C1307 1.385 . S
C1306 C1308 1.478 . S
C1307 H1301 0.930 . S
C1307 C1303 1.400 . S
C1307 C1306 1.385 . S
C1308 C1306 1.478 . S
C1308 C1310 1.381 . S
C1308 C1314 1.383 . S
C1309 C1305 1.495 . S
C1309 H1315 0.959 . S
C1309 H1316 0.961 . S
C1309 H1317 0.960 . S
C1310 C1308 1.381 . S
C1310 C1311 1.394 . S
C1310 H1318 0.930 . S
C1311 C1310 1.394 . S
C1311 C1312 1.383 . S
C1311 H1319 0.929 . S
C1312 C1311 1.383 . S
C1312 C1313 1.377 . S
C1313 H1297 0.930 . S
C1313 C1312 1.377 . S
C1313 C1314 1.379 . S
C1314 H1298 0.931 . S
C1314 C1308 1.383 . S
C1314 C1313 1.379 . S
H1315 C1309 0.959 . S
H1316 C1309 0.961 . S
H1317 C1309 0.960 . S
H1318 C1310 0.930 . S
H1319 C1311 0.929 . S
H1320 C1328 0.929 . S
H1321 C1330 0.930 . S
H1322 C1332 0.930 . S
H1323 C1335 0.929 . S
H1324 C1338 0.930 . S
H1325 C1340 0.960 . S
H1326 C1340 0.960 . S
H1327 C1340 0.960 . S
C1328 H1320 0.929 . S
C1328 C1329 1.377 . S
C1328 C1330 1.384 . S
C1329 C1328 1.377 . S
C1329 C1335 1.390 . S
C1330 H1321 0.930 . S
C1330 C1328 1.384 . S
C1330 C1331 1.372 . S
C1331 C1330 1.372 . S
C1331 C1332 1.400 . S
C1331 C1336 1.490 . S
C1332 H1322 0.930 . S
C1332 C1331 1.400 . S
C1332 C1335 1.386 . S
H1333 C1349 0.977 . S
H1334 C1350 0.931 1_565 S
C1335 H1323 0.929 . S
C1335 C1329 1.390 . S
C1335 C1332 1.386 . S
C1336 C1331 1.490 . S
C1336 C1338 1.395 . S
C1336 C1339 1.403 . S
H1337 C1343 0.930 . S
C1338 H1324 0.930 . S
C1338 C1336 1.395 . S
C1338 C1341 1.403 . S
C1339 C1336 1.403 . S
C1339 C1340 1.524 . S
C1339 C1343 1.400 . S
C1340 H1325 0.960 . S
C1340 H1326 0.960 . S
C1340 H1327 0.960 . S
C1340 C1339 1.524 . S
C1341 C1338 1.403 . S
C1341 C1342 1.392 . S
C1341 C1345 1.495 . S
C1342 C1341 1.392 . S
C1342 C1343 1.385 . S
C1342 C1344 1.478 . S
C1343 H1337 0.930 . S
C1343 C1339 1.400 . S
C1343 C1342 1.385 . S
C1344 C1342 1.478 . S
C1344 C1346 1.381 . S
C1344 C1350 1.383 . S
C1345 C1341 1.495 . S
C1345 H1351 0.959 . S
C1345 H1352 0.961 . S
C1345 H1353 0.960 . S
C1346 C1344 1.381 . S
C1346 C1347 1.394 . S
C1346 H1354 0.930 . S
C1347 C1346 1.394 . S
C1347 C1348 1.383 . S
C1347 H1355 0.929 . S
C1348 C1347 1.383 . S
C1348 C1349 1.340 1_545 S
C1349 H1333 0.977 . S
C1349 C1348 1.340 1_565 S
C1349 C1350 1.371 1_565 S
C1350 H1334 0.931 1_545 S
C1350 C1344 1.383 . S
C1350 C1349 1.371 1_545 S
H1351 C1345 0.959 . S
H1352 C1345 0.961 . S
H1353 C1345 0.960 . S
H1354 C1346 0.930 . S
H1355 C1347 0.929 . S
H1356 C1364 0.929 . S
H1357 C1366 0.930 . S
H1358 C1368 0.930 . S
H1359 C1371 0.929 . S
H1360 C1374 0.930 . S
H1361 C1376 0.960 . S
H1362 C1376 0.960 . S
H1363 C1376 0.960 . S
C1364 H1356 0.929 . S
C1364 C1365 1.377 . S
C1364 C1366 1.384 . S
C1365 C1364 1.377 . S
C1365 C1371 1.390 . S
C1366 H1357 0.930 . S
C1366 C1364 1.384 . S
C1366 C1367 1.372 . S
C1367 C1366 1.372 . S
C1367 C1368 1.400 . S
C1367 C1372 1.490 . S
C1368 H1358 0.930 . S
C1368 C1367 1.400 . S
C1368 C1371 1.386 . S
H1369 C1385 0.930 . S
H1370 C1386 0.931 . S
C1371 H1359 0.929 . S
C1371 C1365 1.390 . S
C1371 C1368 1.386 . S
C1372 C1367 1.490 . S
C1372 C1374 1.395 . S
C1372 C1375 1.403 . S
H1373 C1379 0.930 . S
C1374 H1360 0.930 . S
C1374 C1372 1.395 . S
C1374 C1377 1.403 . S
C1375 C1372 1.403 . S
C1375 C1376 1.524 . S
C1375 C1379 1.400 . S
C1376 H1361 0.960 . S
C1376 H1362 0.960 . S
C1376 H1363 0.960 . S
C1376 C1375 1.524 . S
C1377 C1374 1.403 . S
C1377 C1378 1.392 . S
C1377 C1381 1.495 . S
C1378 C1377 1.392 . S
C1378 C1379 1.385 . S
C1378 C1380 1.478 . S
C1379 H1373 0.930 . S
C1379 C1375 1.400 . S
C1379 C1378 1.385 . S
C1380 C1378 1.478 . S
C1380 C1382 1.381 . S
C1380 C1386 1.383 . S
C1381 C1377 1.495 . S
C1381 H1387 0.959 . S
C1381 H1388 0.961 . S
C1381 H1389 0.960 . S
C1382 C1380 1.381 . S
C1382 C1383 1.394 . S
C1382 H1390 0.930 . S
C1383 C1382 1.394 . S
C1383 C1384 1.383 . S
C1383 H1391 0.929 . S
C1384 C1383 1.383 . S
C1384 C1385 1.377 . S
C1385 H1369 0.930 . S
C1385 C1384 1.377 . S
C1385 C1386 1.379 . S
C1386 H1370 0.931 . S
C1386 C1380 1.383 . S
C1386 C1385 1.379 . S
H1387 C1381 0.959 . S
H1388 C1381 0.961 . S
H1389 C1381 0.960 . S
H1390 C1382 0.930 . S
H1391 C1383 0.929 . S
H1392 C1400 0.929 1_556 S
H1393 C1402 0.930 1_556 S
H1394 C1404 0.930 . S
H1395 C1407 0.929 . S
H1396 C1410 0.930 . S
H1397 C1412 0.960 . S
H1398 C1412 0.960 . S
H1399 C1412 0.960 . S
C1400 H1392 0.929 1_554 S
C1400 C1401 1.377 . S
C1400 C1402 1.384 . S
C1401 C1400 1.377 . S
C1401 C1407 1.390 . S
C1402 H1393 0.930 1_554 S
C1402 C1400 1.384 . S
C1402 C1403 1.372 . S
C1403 C1402 1.372 . S
C1403 C1404 1.400 . S
C1403 C1408 1.490 . S
C1404 H1394 0.930 . S
C1404 C1403 1.400 . S
C1404 C1407 1.386 . S
H1405 C1421 0.930 . S
H1406 C1422 0.931 . S
C1407 H1395 0.929 . S
C1407 C1401 1.390 . S
C1407 C1404 1.386 . S
C1408 C1403 1.490 . S
C1408 C1410 1.395 . S
C1408 C1411 1.403 . S
H1409 C1415 0.930 . S
C1410 H1396 0.930 . S
C1410 C1408 1.395 . S
C1410 C1413 1.403 . S
C1411 C1408 1.403 . S
C1411 C1412 1.524 . S
C1411 C1415 1.400 . S
C1412 H1397 0.960 . S
C1412 H1398 0.960 . S
C1412 H1399 0.960 . S
C1412 C1411 1.524 . S
C1413 C1410 1.403 . S
C1413 C1414 1.392 . S
C1413 C1417 1.495 1_554 S
C1414 C1413 1.392 . S
C1414 C1415 1.385 . S
C1414 C1416 1.478 . S
C1415 H1409 0.930 . S
C1415 C1411 1.400 . S
C1415 C1414 1.385 . S
C1416 C1414 1.478 . S
C1416 C1418 1.381 1_554 S
C1416 C1422 1.383 . S
C1417 C1413 1.495 1_556 S
C1417 H1423 0.959 . S
C1417 H1424 0.961 1_556 S
C1417 H1425 0.960 . S
C1418 C1416 1.381 1_556 S
C1418 C1419 1.394 . S
C1418 H1426 0.930 . S
C1419 C1418 1.394 . S
C1419 C1420 1.383 1_556 S
C1419 H1427 0.929 . S
C1420 C1419 1.383 1_554 S
C1420 C1421 1.377 . S
C1421 H1405 0.930 . S
C1421 C1420 1.377 . S
C1421 C1422 1.379 . S
C1422 H1406 0.931 . S
C1422 C1416 1.383 . S
C1422 C1421 1.379 . S
H1423 C1417 0.959 . S
H1424 C1417 0.961 1_554 S
H1425 C1417 0.960 . S
H1426 C1418 0.930 . S
H1427 C1419 0.929 . S
H1428 C1436 0.929 . S
H1429 C1438 0.930 . S
H1430 C1440 0.930 . S
H1431 C1443 0.929 . S
H1432 C1446 0.930 . S
H1433 C1448 0.960 . S
H1434 C1448 0.960 . S
H1435 C1448 0.960 . S
C1436 H1428 0.929 . S
C1436 C1437 1.377 . S
C1436 C1438 1.384 . S
C1437 C1436 1.377 . S
C1437 C1443 1.390 . S
C1438 H1429 0.930 . S
C1438 C1436 1.384 . S
C1438 C1439 1.372 . S
C1439 C1438 1.372 . S
C1439 C1440 1.400 . S
C1439 C1444 1.490 . S
C1440 H1430 0.930 . S
C1440 C1439 1.400 . S
C1440 C1443 1.386 . S
H1441 C1457 0.930 . S
H1442 C1458 0.931 . S
C1443 H1431 0.929 . S
C1443 C1437 1.390 . S
C1443 C1440 1.386 . S
C1444 C1439 1.490 . S
C1444 C1446 1.395 . S
C1444 C1447 1.403 . S
H1445 C1451 0.930 . S
C1446 H1432 0.930 . S
C1446 C1444 1.395 . S
C1446 C1449 1.403 . S
C1447 C1444 1.403 . S
C1447 C1448 1.524 . S
C1447 C1451 1.400 . S
C1448 H1433 0.960 . S
C1448 H1434 0.960 . S
C1448 H1435 0.960 . S
C1448 C1447 1.524 . S
C1449 C1446 1.403 . S
C1449 C1450 1.392 . S
C1449 C1453 1.495 . S
C1450 C1449 1.392 . S
C1450 C1451 1.385 . S
C1450 C1452 1.478 . S
C1451 H1445 0.930 . S
C1451 C1447 1.400 . S
C1451 C1450 1.385 . S
C1452 C1450 1.478 . S
C1452 C1454 1.381 . S
C1452 C1458 1.383 . S
C1453 C1449 1.495 . S
C1453 H1459 0.959 . S
C1453 H1460 0.961 . S
C1453 H1461 0.960 . S
C1454 C1452 1.381 . S
C1454 C1455 1.394 . S
C1454 H1462 0.930 . S
C1455 C1454 1.394 . S
C1455 C1456 1.383 . S
C1455 H1463 0.929 . S
C1456 C1455 1.383 . S
C1456 C1457 1.377 . S
C1457 H1441 0.930 . S
C1457 C1456 1.377 . S
C1457 C1458 1.379 . S
C1458 H1442 0.931 . S
C1458 C1452 1.383 . S
C1458 C1457 1.379 . S
H1459 C1453 0.959 . S
H1460 C1453 0.961 . S
H1461 C1453 0.960 . S
H1462 C1454 0.930 . S
H1463 C1455 0.929 . S
H1464 C1472 0.929 . S
H1465 C1474 0.930 . S
H1466 C1476 0.930 . S
H1467 C1479 0.929 . S
H1468 C1482 0.930 . S
H1469 C1484 0.960 . S
H1470 C1484 0.960 . S
H1471 C1484 0.960 . S
C1472 H1464 0.929 . S
C1472 C1473 1.377 . S
C1472 C1474 1.384 . S
C1473 C1472 1.377 . S
C1473 C1479 1.390 . S
C1474 H1465 0.930 . S
C1474 C1472 1.384 . S
C1474 C1475 1.372 . S
C1475 C1474 1.372 . S
C1475 C1476 1.400 . S
C1475 C1480 1.490 . S
C1476 H1466 0.930 . S
C1476 C1475 1.400 . S
C1476 C1479 1.386 . S
H1477 C1493 0.930 . S
H1478 C1494 0.931 . S
C1479 H1467 0.929 . S
C1479 C1473 1.390 . S
C1479 C1476 1.386 . S
C1480 C1475 1.490 . S
C1480 C1482 1.395 . S
C1480 C1483 1.403 . S
H1481 C1487 0.930 . S
C1482 H1468 0.930 . S
C1482 C1480 1.395 . S
C1482 C1485 1.403 . S
C1483 C1480 1.403 . S
C1483 C1484 1.524 . S
C1483 C1487 1.400 . S
C1484 H1469 0.960 . S
C1484 H1470 0.960 . S
C1484 H1471 0.960 . S
C1484 C1483 1.524 . S
C1485 C1482 1.403 . S
C1485 C1486 1.392 . S
C1485 C1489 1.495 . S
C1486 C1485 1.392 . S
C1486 C1487 1.385 . S
C1486 C1488 1.478 . S
C1487 H1481 0.930 . S
C1487 C1483 1.400 . S
C1487 C1486 1.385 . S
C1488 C1486 1.478 . S
C1488 C1490 1.381 . S
C1488 C1494 1.383 . S
C1489 C1485 1.495 . S
C1489 H1495 0.959 . S
C1489 H1496 0.961 . S
C1489 H1497 0.960 . S
C1490 C1488 1.381 . S
C1490 C1491 1.394 . S
C1490 H1498 0.930 . S
C1491 C1490 1.394 . S
C1491 C1492 1.383 . S
C1491 H1499 0.929 . S
C1492 C1491 1.383 . S
C1492 C1493 1.377 . S
C1493 H1477 0.930 . S
C1493 C1492 1.377 . S
C1493 C1494 1.379 . S
C1494 H1478 0.931 . S
C1494 C1488 1.383 . S
C1494 C1493 1.379 . S
H1495 C1489 0.959 . S
H1496 C1489 0.961 . S
H1497 C1489 0.960 . S
H1498 C1490 0.930 . S
H1499 C1491 0.929 . S
H1500 C1508 0.929 . S
H1501 C1510 0.930 . S
H1502 C1512 0.930 . S
H1503 C1515 0.929 . S
H1504 C1518 0.930 . S
H1505 C1520 0.960 . S
H1506 C1520 0.960 . S
H1507 C1520 0.960 . S
C1508 H1500 0.929 . S
C1508 C1509 1.377 . S
C1508 C1510 1.384 . S
C1509 C1508 1.377 . S
C1509 C1515 1.390 . S
C1510 H1501 0.930 . S
C1510 C1508 1.384 . S
C1510 C1511 1.372 . S
C1511 C1510 1.372 . S
C1511 C1512 1.400 . S
C1511 C1516 1.490 . S
C1512 H1502 0.930 . S
C1512 C1511 1.400 . S
C1512 C1515 1.386 . S
H1513 C1529 0.930 . S
H1514 C1530 0.931 . S
C1515 H1503 0.929 . S
C1515 C1509 1.390 . S
C1515 C1512 1.386 . S
C1516 C1511 1.490 . S
C1516 C1518 1.395 . S
C1516 C1519 1.403 . S
H1517 C1523 0.930 . S
C1518 H1504 0.930 . S
C1518 C1516 1.395 . S
C1518 C1521 1.403 . S
C1519 C1516 1.403 . S
C1519 C1520 1.524 . S
C1519 C1523 1.400 . S
C1520 H1505 0.960 . S
C1520 H1506 0.960 . S
C1520 H1507 0.960 . S
C1520 C1519 1.524 . S
C1521 C1518 1.403 . S
C1521 C1522 1.392 . S
C1521 C1525 1.495 . S
C1522 C1521 1.392 . S
C1522 C1523 1.385 . S
C1522 C1524 1.478 . S
C1523 H1517 0.930 . S
C1523 C1519 1.400 . S
C1523 C1522 1.385 . S
C1524 C1522 1.478 . S
C1524 C1526 1.381 . S
C1524 C1530 1.383 . S
C1525 C1521 1.495 . S
C1525 H1531 0.959 . S
C1525 H1532 0.961 . S
C1525 H1533 0.960 . S
C1526 C1524 1.381 . S
C1526 C1527 1.394 . S
C1526 H1534 0.930 . S
C1527 C1526 1.394 . S
C1527 C1528 1.383 . S
C1527 H1535 0.929 . S
C1528 C1527 1.383 . S
C1528 C1529 1.377 . S
C1529 H1513 0.930 . S
C1529 C1528 1.377 . S
C1529 C1530 1.379 . S
C1530 H1514 0.931 . S
C1530 C1524 1.383 . S
C1530 C1529 1.379 . S
H1531 C1525 0.959 . S
H1532 C1525 0.961 . S
H1533 C1525 0.960 . S
H1534 C1526 0.930 . S
H1535 C1527 0.929 . S
H1536 C1544 0.929 . S
H1537 C1546 0.930 . S
H1538 C1548 0.930 . S
H1539 C1551 0.929 . S
H1540 C1554 0.930 . S
H1541 C1556 0.960 . S
H1542 C1556 0.960 . S
H1543 C1556 0.960 . S
C1544 H1536 0.929 . S
C1544 C1545 1.377 . S
C1544 C1546 1.384 . S
C1545 C1544 1.377 . S
C1545 C1551 1.390 . S
C1546 H1537 0.930 . S
C1546 C1544 1.384 . S
C1546 C1547 1.372 . S
C1547 C1546 1.372 . S
C1547 C1548 1.400 . S
C1547 C1552 1.490 . S
C1548 H1538 0.930 . S
C1548 C1547 1.400 . S
C1548 C1551 1.386 . S
H1549 C1565 0.930 . S
H1550 C1566 0.931 . S
C1551 H1539 0.929 . S
C1551 C1545 1.390 . S
C1551 C1548 1.386 . S
C1552 C1547 1.490 . S
C1552 C1554 1.395 . S
C1552 C1555 1.403 . S
H1553 C1559 0.930 . S
C1554 H1540 0.930 . S
C1554 C1552 1.395 . S
C1554 C1557 1.403 . S
C1555 C1552 1.403 . S
C1555 C1556 1.524 . S
C1555 C1559 1.400 . S
C1556 H1541 0.960 . S
C1556 H1542 0.960 . S
C1556 H1543 0.960 . S
C1556 C1555 1.524 . S
C1557 C1554 1.403 . S
C1557 C1558 1.392 . S
C1557 C1561 1.495 . S
C1558 C1557 1.392 . S
C1558 C1559 1.385 . S
C1558 C1560 1.478 . S
C1559 H1553 0.930 . S
C1559 C1555 1.400 . S
C1559 C1558 1.385 . S
C1560 C1558 1.478 . S
C1560 C1562 1.381 . S
C1560 C1566 1.383 . S
C1561 C1557 1.495 . S
C1561 H1567 0.959 . S
C1561 H1568 0.961 . S
C1561 H1569 0.960 . S
C1562 C1560 1.381 . S
C1562 C1563 1.394 . S
C1562 H1570 0.930 . S
C1563 C1562 1.394 . S
C1563 C1564 1.383 . S
C1563 H1571 0.929 . S
C1564 C1563 1.383 . S
C1564 C1565 1.377 . S
C1565 H1549 0.930 . S
C1565 C1564 1.377 . S
C1565 C1566 1.379 . S
C1566 H1550 0.931 . S
C1566 C1560 1.383 . S
C1566 C1565 1.379 . S
H1567 C1561 0.959 . S
H1568 C1561 0.961 . S
H1569 C1561 0.960 . S
H1570 C1562 0.930 . S
H1571 C1563 0.929 . S
H1572 C1580 0.929 . S
H1573 C1582 0.930 . S
H1574 C1584 0.930 . S
H1575 C1587 0.929 . S
H1576 C1590 0.930 . S
H1577 C1592 0.960 . S
H1578 C1592 0.960 . S
H1579 C1592 0.960 . S
C1580 H1572 0.929 . S
C1580 C1581 1.377 . S
C1580 C1582 1.384 . S
C1581 C1580 1.377 . S
C1581 C1587 1.390 . S
C1582 H1573 0.930 . S
C1582 C1580 1.384 . S
C1582 C1583 1.372 . S
C1583 C1582 1.372 . S
C1583 C1584 1.400 . S
C1583 C1588 1.490 . S
C1584 H1574 0.930 . S
C1584 C1583 1.400 . S
C1584 C1587 1.386 . S
H1585 C1601 0.930 . S
H1586 C1602 0.931 . S
C1587 H1575 0.929 . S
C1587 C1581 1.390 . S
C1587 C1584 1.386 . S
C1588 C1583 1.490 . S
C1588 C1590 1.395 . S
C1588 C1591 1.403 . S
H1589 C1595 0.930 . S
C1590 H1576 0.930 . S
C1590 C1588 1.395 . S
C1590 C1593 1.403 . S
C1591 C1588 1.403 . S
C1591 C1592 1.524 . S
C1591 C1595 1.400 . S
C1592 H1577 0.960 . S
C1592 H1578 0.960 . S
C1592 H1579 0.960 . S
C1592 C1591 1.524 . S
C1593 C1590 1.403 . S
C1593 C1594 1.392 . S
C1593 C1597 1.434 1_565 S
C1594 C1593 1.392 . S
C1594 C1595 1.385 . S
C1594 C1596 1.478 . S
C1595 H1589 0.930 . S
C1595 C1591 1.400 . S
C1595 C1594 1.385 . S
C1596 C1594 1.478 . S
C1596 C1598 1.381 . S
C1596 C1602 1.383 . S
C1597 C1593 1.434 1_545 S
C1597 H1603 0.977 . S
C1597 H1604 0.992 . S
C1597 H1605 0.977 . S
C1598 C1596 1.381 . S
C1598 C1599 1.394 . S
C1598 H1606 0.930 . S
C1599 C1598 1.394 . S
C1599 C1600 1.383 . S
C1599 H1607 0.929 1_565 S
C1600 C1599 1.383 . S
C1600 C1601 1.377 . S
C1601 H1585 0.930 . S
C1601 C1600 1.377 . S
C1601 C1602 1.379 . S
C1602 H1586 0.931 . S
C1602 C1596 1.383 . S
C1602 C1601 1.379 . S
H1603 C1597 0.977 . S
H1604 C1597 0.992 . S
H1605 C1597 0.977 . S
H1606 C1598 0.930 . S
H1607 C1599 0.929 1_545 S
H1608 C1616 0.929 . S
H1609 C1618 0.930 . S
H1610 C1620 0.930 . S
H1611 C1623 0.929 . S
H1612 C1626 0.930 . S
H1613 C1628 0.960 . S
H1614 C1628 0.960 . S
H1615 C1628 0.960 . S
C1616 H1608 0.929 . S
C1616 C1617 1.377 . S
C1616 C1618 1.384 . S
C1617 C1616 1.377 . S
C1617 C1623 1.390 . S
C1618 H1609 0.930 . S
C1618 C1616 1.384 . S
C1618 C1619 1.372 . S
C1619 C1618 1.372 . S
C1619 C1620 1.400 . S
C1619 C1624 1.490 . S
C1620 H1610 0.930 . S
C1620 C1619 1.400 . S
C1620 C1623 1.386 . S
H1621 C1637 0.930 . S
H1622 C1638 0.931 . S
C1623 H1611 0.929 . S
C1623 C1617 1.390 . S
C1623 C1620 1.386 . S
C1624 C1619 1.490 . S
C1624 C1626 1.395 . S
C1624 C1627 1.403 . S
H1625 C1631 0.930 . S
C1626 H1612 0.930 . S
C1626 C1624 1.395 . S
C1626 C1629 1.403 . S
C1627 C1624 1.403 . S
C1627 C1628 1.524 . S
C1627 C1631 1.400 . S
C1628 H1613 0.960 . S
C1628 H1614 0.960 . S
C1628 H1615 0.960 . S
C1628 C1627 1.524 . S
C1629 C1626 1.403 . S
C1629 C1630 1.392 . S
C1629 C1633 1.495 . S
C1630 C1629 1.392 . S
C1630 C1631 1.385 . S
C1630 C1632 1.478 . S
C1631 H1625 0.930 . S
C1631 C1627 1.400 . S
C1631 C1630 1.385 . S
C1632 C1630 1.478 . S
C1632 C1634 1.381 . S
C1632 C1638 1.383 . S
C1633 C1629 1.495 . S
C1633 H1639 0.959 . S
C1633 H1640 0.961 . S
C1633 H1641 0.960 . S
C1634 C1632 1.381 . S
C1634 C1635 1.394 . S
C1634 H1642 0.930 . S
C1635 C1634 1.394 . S
C1635 C1636 1.383 . S
C1635 H1643 0.929 . S
C1636 C1635 1.383 . S
C1636 C1637 1.377 . S
C1637 H1621 0.930 . S
C1637 C1636 1.377 . S
C1637 C1638 1.379 . S
C1638 H1622 0.931 . S
C1638 C1632 1.383 . S
C1638 C1637 1.379 . S
H1639 C1633 0.959 . S
H1640 C1633 0.961 . S
H1641 C1633 0.960 . S
H1642 C1634 0.930 . S
H1643 C1635 0.929 . S
H1644 C1652 0.929 . S
H1645 C1654 0.930 . S
H1646 C1656 0.930 . S
H1647 C1659 0.929 . S
H1648 C1662 0.930 . S
H1649 C1664 0.960 . S
H1650 C1664 0.960 . S
H1651 C1664 0.960 . S
C1652 H1644 0.929 . S
C1652 C1653 1.377 . S
C1652 C1654 1.384 . S
C1653 C1652 1.377 . S
C1653 C1659 1.390 . S
C1654 H1645 0.930 . S
C1654 C1652 1.384 . S
C1654 C1655 1.372 . S
C1655 C1654 1.372 . S
C1655 C1656 1.400 . S
C1655 C1660 1.490 . S
C1656 H1646 0.930 . S
C1656 C1655 1.400 . S
C1656 C1659 1.386 . S
H1657 C1673 0.930 . S
H1658 C1674 0.931 . S
C1659 H1647 0.929 . S
C1659 C1653 1.390 . S
C1659 C1656 1.386 . S
C1660 C1655 1.490 . S
C1660 C1662 1.395 . S
C1660 C1663 1.403 . S
H1661 C1667 0.930 . S
C1662 H1648 0.930 . S
C1662 C1660 1.395 . S
C1662 C1665 1.403 . S
C1663 C1660 1.403 . S
C1663 C1664 1.524 . S
C1663 C1667 1.400 . S
C1664 H1649 0.960 . S
C1664 H1650 0.960 . S
C1664 H1651 0.960 . S
C1664 C1663 1.524 . S
C1665 C1662 1.403 . S
C1665 C1666 1.392 . S
C1665 C1669 1.495 . S
C1666 C1665 1.392 . S
C1666 C1667 1.385 . S
C1666 C1668 1.478 . S
C1667 H1661 0.930 . S
C1667 C1663 1.400 . S
C1667 C1666 1.385 . S
C1668 C1666 1.478 . S
C1668 C1670 1.381 . S
C1668 C1674 1.383 . S
C1669 C1665 1.495 . S
C1669 H1675 0.959 . S
C1669 H1676 0.961 . S
C1669 H1677 0.960 . S
C1670 C1668 1.381 . S
C1670 C1671 1.394 . S
C1670 H1678 0.930 . S
C1671 C1670 1.394 . S
C1671 C1672 1.383 . S
C1671 H1679 0.929 . S
C1672 C1671 1.383 . S
C1672 C1673 1.377 . S
C1673 H1657 0.930 . S
C1673 C1672 1.377 . S
C1673 C1674 1.379 . S
C1674 H1658 0.931 . S
C1674 C1668 1.383 . S
C1674 C1673 1.379 . S
H1675 C1669 0.959 . S
H1676 C1669 0.961 . S
H1677 C1669 0.960 . S
H1678 C1670 0.930 . S
H1679 C1671 0.929 . S
H1680 C1688 0.929 . S
H1681 C1690 0.930 . S
H1682 C1692 0.930 1_655 S
H1683 C1695 0.929 1_655 S
H1684 C1698 0.930 . S
H1685 C1700 0.960 . S
H1686 C1700 0.960 . S
H1687 C1700 0.960 . S
C1688 H1680 0.929 . S
C1688 C1689 1.377 . S
C1688 C1690 1.384 . S
C1689 C1688 1.377 . S
C1689 C1695 1.390 . S
C1690 H1681 0.930 . S
C1690 C1688 1.384 . S
C1690 C1691 1.372 . S
C1691 C1690 1.372 . S
C1691 C1692 1.400 . S
C1691 C1696 1.490 . S
C1692 H1682 0.930 1_455 S
C1692 C1691 1.400 . S
C1692 C1695 1.386 . S
H1693 C1709 0.930 . S
H1694 C1710 0.931 . S
C1695 H1683 0.929 1_455 S
C1695 C1689 1.390 . S
C1695 C1692 1.386 . S
C1696 C1691 1.490 . S
C1696 C1698 1.395 . S
C1696 C1699 1.403 . S
H1697 C1703 0.948 . S
C1698 H1684 0.930 . S
C1698 C1696 1.395 . S
C1698 C1701 1.403 . S
C1699 C1696 1.403 . S
C1699 C1700 1.524 1_455 S
C1699 C1703 1.400 . S
C1700 H1685 0.960 . S
C1700 H1686 0.960 . S
C1700 H1687 0.960 . S
C1700 C1699 1.524 1_655 S
C1701 C1698 1.403 . S
C1701 C1702 1.392 . S
C1701 C1705 1.495 . S
C1702 C1701 1.392 . S
C1702 C1703 1.385 . S
C1702 C1704 1.478 . S
C1703 H1697 0.948 . S
C1703 C1699 1.400 . S
C1703 C1702 1.385 . S
C1704 C1702 1.478 . S
C1704 C1706 1.381 . S
C1704 C1710 1.383 . S
C1705 C1701 1.495 . S
C1705 H1711 0.959 . S
C1705 H1712 0.961 . S
C1705 H1713 0.960 . S
C1706 C1704 1.381 . S
C1706 C1707 1.394 1_556 S
C1706 H1714 0.930 . S
C1707 C1706 1.394 1_554 S
C1707 C1708 1.383 1_554 S
C1707 H1715 0.929 . S
C1708 C1707 1.383 1_556 S
C1708 C1709 1.377 . S
C1709 H1693 0.930 . S
C1709 C1708 1.377 . S
C1709 C1710 1.379 . S
C1710 H1694 0.931 . S
C1710 C1704 1.383 . S
C1710 C1709 1.379 . S
H1711 C1705 0.959 . S
H1712 C1705 0.961 . S
H1713 C1705 0.960 . S
H1714 C1706 0.930 . S
H1715 C1707 0.929 . S
H1716 C1724 0.929 . S
H1717 C1726 0.930 . S
H1718 C1728 0.930 . S
H1719 C1731 0.929 . S
H1720 C1734 0.930 . S
H1721 C1736 0.960 . S
H1722 C1736 0.960 . S
H1723 C1736 0.960 . S
C1724 H1716 0.929 . S
C1724 C1725 1.377 . S
C1724 C1726 1.384 . S
C1725 C1724 1.377 . S
C1725 C1731 1.390 . S
C1726 H1717 0.930 . S
C1726 C1724 1.384 . S
C1726 C1727 1.372 . S
C1727 C1726 1.372 . S
C1727 C1728 1.400 . S
C1727 C1732 1.490 . S
C1728 H1718 0.930 . S
C1728 C1727 1.400 . S
C1728 C1731 1.386 . S
H1729 C1745 0.930 . S
H1730 C1746 0.931 . S
C1731 H1719 0.929 . S
C1731 C1725 1.390 . S
C1731 C1728 1.386 . S
C1732 C1727 1.490 . S
C1732 C1734 1.395 . S
C1732 C1735 1.403 . S
H1733 C1739 0.930 . S
C1734 H1720 0.930 . S
C1734 C1732 1.395 . S
C1734 C1737 1.403 . S
C1735 C1732 1.403 . S
C1735 C1736 1.524 . S
C1735 C1739 1.400 . S
C1736 H1721 0.960 . S
C1736 H1722 0.960 . S
C1736 H1723 0.960 . S
C1736 C1735 1.524 . S
C1737 C1734 1.403 . S
C1737 C1738 1.392 . S
C1737 C1741 1.495 . S
C1738 C1737 1.392 . S
C1738 C1739 1.385 . S
C1738 C1740 1.478 . S
C1739 H1733 0.930 . S
C1739 C1735 1.400 . S
C1739 C1738 1.385 . S
C1740 C1738 1.478 . S
C1740 C1742 1.381 . S
C1740 C1746 1.383 . S
C1741 C1737 1.495 . S
C1741 H1747 0.959 . S
C1741 H1748 0.961 . S
C1741 H1749 0.960 . S
C1742 C1740 1.381 . S
C1742 C1743 1.394 . S
C1742 H1750 0.930 . S
C1743 C1742 1.394 . S
C1743 C1744 1.383 . S
C1743 H1751 0.929 . S
C1744 C1743 1.383 . S
C1744 C1745 1.377 . S
C1745 H1729 0.930 . S
C1745 C1744 1.377 . S
C1745 C1746 1.379 . S
C1746 H1730 0.931 . S
C1746 C1740 1.383 . S
C1746 C1745 1.379 . S
H1747 C1741 0.959 . S
H1748 C1741 0.961 . S
H1749 C1741 0.960 . S
H1750 C1742 0.930 . S
H1751 C1743 0.929 . S
H1752 C1760 0.929 . S
H1753 C1762 0.930 . S
H1754 C1764 0.930 . S
H1755 C1767 0.929 . S
H1756 C1770 0.930 . S
H1757 C1772 0.960 . S
H1758 C1772 0.960 . S
H1759 C1772 0.960 . S
C1760 H1752 0.929 . S
C1760 C1761 1.377 . S
C1760 C1762 1.384 . S
C1761 C1760 1.377 . S
C1761 C1767 1.390 . S
C1762 H1753 0.930 . S
C1762 C1760 1.384 . S
C1762 C1763 1.372 . S
C1763 C1762 1.372 . S
C1763 C1764 1.400 . S
C1763 C1768 1.490 . S
C1764 H1754 0.930 . S
C1764 C1763 1.400 . S
C1764 C1767 1.386 . S
H1765 C1781 0.930 . S
H1766 C1782 0.931 . S
C1767 H1755 0.929 . S
C1767 C1761 1.390 . S
C1767 C1764 1.386 . S
C1768 C1763 1.490 . S
C1768 C1770 1.395 . S
C1768 C1771 1.403 . S
H1769 C1775 0.930 . S
C1770 H1756 0.930 . S
C1770 C1768 1.395 . S
C1770 C1773 1.403 . S
C1771 C1768 1.403 . S
C1771 C1772 1.524 . S
C1771 C1775 1.400 . S
C1772 H1757 0.960 . S
C1772 H1758 0.960 . S
C1772 H1759 0.960 . S
C1772 C1771 1.524 . S
C1773 C1770 1.403 . S
C1773 C1774 1.392 . S
C1773 C1777 1.495 . S
C1774 C1773 1.392 . S
C1774 C1775 1.385 . S
C1774 C1776 1.478 . S
C1775 H1769 0.930 . S
C1775 C1771 1.400 . S
C1775 C1774 1.385 . S
C1776 C1774 1.478 . S
C1776 C1778 1.381 . S
C1776 C1782 1.383 . S
C1777 C1773 1.495 . S
C1777 H1783 0.959 . S
C1777 H1784 0.961 . S
C1777 H1785 0.960 . S
C1778 C1776 1.381 . S
C1778 C1779 1.394 . S
C1778 H1786 0.930 . S
C1779 C1778 1.394 . S
C1779 C1780 1.383 . S
C1779 H1787 0.929 . S
C1780 C1779 1.383 . S
C1780 C1781 1.377 . S
C1781 H1765 0.930 . S
C1781 C1780 1.377 . S
C1781 C1782 1.379 . S
C1782 H1766 0.931 . S
C1782 C1776 1.383 . S
C1782 C1781 1.379 . S
H1783 C1777 0.959 . S
H1784 C1777 0.961 . S
H1785 C1777 0.960 . S
H1786 C1778 0.930 . S
H1787 C1779 0.929 . S
H1788 C1796 0.929 . S
H1789 C1798 0.930 . S
H1790 C1800 0.930 . S
H1791 C1803 0.929 . S
H1792 C1806 0.930 . S
H1793 C1808 0.960 . S
H1794 C1808 0.960 . S
H1795 C1808 0.960 . S
C1796 H1788 0.929 . S
C1796 C1797 1.377 . S
C1796 C1798 1.384 . S
C1797 C1796 1.377 . S
C1797 C1803 1.390 . S
C1798 H1789 0.930 . S
C1798 C1796 1.384 . S
C1798 C1799 1.372 . S
C1799 C1798 1.372 . S
C1799 C1800 1.400 . S
C1799 C1804 1.490 . S
C1800 H1790 0.930 . S
C1800 C1799 1.400 . S
C1800 C1803 1.386 . S
H1801 C1817 0.930 . S
H1802 C1818 0.931 . S
C1803 H1791 0.929 . S
C1803 C1797 1.390 . S
C1803 C1800 1.386 . S
C1804 C1799 1.490 . S
C1804 C1806 1.395 . S
C1804 C1807 1.403 . S
H1805 C1811 0.930 . S
C1806 H1792 0.930 . S
C1806 C1804 1.395 . S
C1806 C1809 1.403 . S
C1807 C1804 1.403 . S
C1807 C1808 1.524 . S
C1807 C1811 1.400 . S
C1808 H1793 0.960 . S
C1808 H1794 0.960 . S
C1808 H1795 0.960 . S
C1808 C1807 1.524 . S
C1809 C1806 1.403 . S
C1809 C1810 1.392 . S
C1809 C1813 1.495 . S
C1810 C1809 1.392 . S
C1810 C1811 1.385 . S
C1810 C1812 1.478 . S
C1811 H1805 0.930 . S
C1811 C1807 1.400 . S
C1811 C1810 1.385 . S
C1812 C1810 1.478 . S
C1812 C1814 1.381 . S
C1812 C1818 1.383 . S
C1813 C1809 1.495 . S
C1813 H1819 0.959 . S
C1813 H1820 0.961 . S
C1813 H1821 0.960 . S
C1814 C1812 1.381 . S
C1814 C1815 1.394 . S
C1814 H1822 0.930 . S
C1815 C1814 1.394 . S
C1815 C1816 1.383 . S
C1815 H1823 0.929 . S
C1816 C1815 1.383 . S
C1816 C1817 1.377 . S
C1817 H1801 0.930 . S
C1817 C1816 1.377 . S
C1817 C1818 1.379 . S
C1818 H1802 0.931 . S
C1818 C1812 1.383 . S
C1818 C1817 1.379 . S
H1819 C1813 0.959 . S
H1820 C1813 0.961 . S
H1821 C1813 0.960 . S
H1822 C1814 0.930 . S
H1823 C1815 0.929 . S
H1824 C1832 0.929 . S
H1825 C1834 0.930 . S
H1826 C1836 0.930 . S
H1827 C1839 0.929 . S
H1828 C1842 0.930 1_655 S
H1829 C1844 0.960 . S
H1830 C1844 0.960 . S
H1831 C1844 0.960 . S
C1832 H1824 0.929 . S
C1832 C1833 1.331 1_655 S
C1832 C1834 1.384 . S
C1833 C1832 1.331 1_455 S
C1833 C1839 1.447 . S
C1834 H1825 0.930 . S
C1834 C1832 1.384 . S
C1834 C1835 1.372 1_655 S
C1835 C1834 1.372 1_455 S
C1835 C1836 1.400 . S
C1835 C1840 1.490 . S
C1836 H1826 0.930 . S
C1836 C1835 1.400 . S
C1836 C1839 1.386 . S
H1837 C1853 0.930 . S
H1838 C1854 0.931 . S
C1839 H1827 0.929 . S
C1839 C1833 1.447 . S
C1839 C1836 1.386 . S
C1840 C1835 1.490 . S
C1840 C1842 1.395 . S
C1840 C1843 1.403 . S
H1841 C1847 0.930 . S
C1842 H1828 0.930 1_455 S
C1842 C1840 1.395 . S
C1842 C1845 1.403 . S
C1843 C1840 1.403 . S
C1843 C1844 1.524 . S
C1843 C1847 1.400 . S
C1844 H1829 0.960 . S
C1844 H1830 0.960 . S
C1844 H1831 0.960 . S
C1844 C1843 1.524 . S
C1845 C1842 1.403 . S
C1845 C1846 1.392 . S
C1845 C1849 1.495 1_455 S
C1846 C1845 1.392 . S
C1846 C1847 1.385 . S
C1846 C1848 1.478 . S
C1847 H1841 0.930 . S
C1847 C1843 1.400 . S
C1847 C1846 1.385 . S
C1848 C1846 1.478 . S
C1848 C1850 1.381 . S
C1848 C1854 1.383 . S
C1849 C1845 1.495 1_655 S
C1849 H1855 0.959 . S
C1849 H1856 0.961 1_655 S
C1849 H1857 0.960 . S
C1850 C1848 1.381 . S
C1850 C1851 1.394 . S
C1850 H1858 0.930 1_455 S
C1851 C1850 1.394 . S
C1851 C1852 1.383 . S
C1851 H1859 0.929 . S
C1852 C1851 1.383 . S
C1852 C1853 1.377 . S
C1853 H1837 0.930 . S
C1853 C1852 1.377 . S
C1853 C1854 1.379 . S
C1854 H1838 0.931 . S
C1854 C1848 1.383 . S
C1854 C1853 1.379 . S
H1855 C1849 0.959 . S
H1856 C1849 0.961 1_455 S
H1857 C1849 0.960 . S
H1858 C1850 0.930 1_655 S
H1859 C1851 0.929 . S
H1860 C1868 0.929 . S
H1861 C1870 0.930 . S
H1862 C1872 0.930 . S
H1863 C1875 0.929 . S
H1864 C1878 0.930 . S
H1865 C1880 0.960 . S
H1866 C1880 0.960 . S
H1867 C1880 0.960 . S
C1868 H1860 0.929 . S
C1868 C1869 1.377 . S
C1868 C1870 1.384 . S
C1869 C1868 1.377 . S
C1869 C1875 1.390 . S
C1870 H1861 0.930 . S
C1870 C1868 1.384 . S
C1870 C1871 1.372 . S
C1871 C1870 1.372 . S
C1871 C1872 1.400 . S
C1871 C1876 1.490 . S
C1872 H1862 0.930 . S
C1872 C1871 1.400 . S
C1872 C1875 1.386 . S
H1873 C1889 0.930 . S
H1874 C1890 0.931 . S
C1875 H1863 0.929 . S
C1875 C1869 1.390 . S
C1875 C1872 1.386 . S
C1876 C1871 1.490 . S
C1876 C1878 1.395 . S
C1876 C1879 1.403 . S
H1877 C1883 0.930 . S
C1878 H1864 0.930 . S
C1878 C1876 1.395 . S
C1878 C1881 1.403 . S
C1879 C1876 1.403 . S
C1879 C1880 1.524 . S
C1879 C1883 1.400 . S
C1880 H1865 0.960 . S
C1880 H1866 0.960 . S
C1880 H1867 0.960 . S
C1880 C1879 1.524 . S
C1881 C1878 1.403 . S
C1881 C1882 1.392 . S
C1881 C1885 1.495 . S
C1882 C1881 1.392 . S
C1882 C1883 1.385 . S
C1882 C1884 1.478 . S
C1883 H1877 0.930 . S
C1883 C1879 1.400 . S
C1883 C1882 1.385 . S
C1884 C1882 1.478 . S
C1884 C1886 1.381 . S
C1884 C1890 1.383 . S
C1885 C1881 1.495 . S
C1885 H1891 0.959 . S
C1885 H1892 0.961 . S
C1885 H1893 0.960 . S
C1886 C1884 1.381 . S
C1886 C1887 1.394 . S
C1886 H1894 0.930 . S
C1887 C1886 1.394 . S
C1887 C1888 1.383 . S
C1887 H1895 0.929 . S
C1888 C1887 1.383 . S
C1888 C1889 1.377 . S
C1889 H1873 0.930 . S
C1889 C1888 1.377 . S
C1889 C1890 1.379 . S
C1890 H1874 0.931 . S
C1890 C1884 1.383 . S
C1890 C1889 1.379 . S
H1891 C1885 0.959 . S
H1892 C1885 0.961 . S
H1893 C1885 0.960 . S
H1894 C1886 0.930 . S
H1895 C1887 0.929 . S
H1896 C1904 0.929 . S
H1897 C1906 0.930 . S
H1898 C1908 0.930 . S
H1899 C1911 0.929 . S
H1900 C1914 0.930 . S
H1901 C1916 0.960 . S
H1902 C1916 0.960 . S
H1903 C1916 0.960 . S
C1904 H1896 0.929 . S
C1904 C1905 1.377 . S
C1904 C1906 1.384 . S
C1905 C1904 1.377 . S
C1905 C1911 1.390 . S
C1906 H1897 0.930 . S
C1906 C1904 1.384 . S
C1906 C1907 1.372 . S
C1907 C1906 1.372 . S
C1907 C1908 1.400 . S
C1907 C1912 1.490 . S
C1908 H1898 0.930 . S
C1908 C1907 1.400 . S
C1908 C1911 1.386 . S
H1909 C1925 0.930 . S
H1910 C1926 0.931 . S
C1911 H1899 0.929 . S
C1911 C1905 1.390 . S
C1911 C1908 1.386 . S
C1912 C1907 1.490 . S
C1912 C1914 1.395 . S
C1912 C1915 1.403 . S
H1913 C1919 0.930 . S
C1914 H1900 0.930 . S
C1914 C1912 1.395 . S
C1914 C1917 1.403 . S
C1915 C1912 1.403 . S
C1915 C1916 1.524 . S
C1915 C1919 1.400 . S
C1916 H1901 0.960 . S
C1916 H1902 0.960 . S
C1916 H1903 0.960 . S
C1916 C1915 1.524 . S
C1917 C1914 1.403 . S
C1917 C1918 1.392 . S
C1917 C1921 1.495 . S
C1918 C1917 1.392 . S
C1918 C1919 1.385 . S
C1918 C1920 1.478 . S
C1919 H1913 0.930 . S
C1919 C1915 1.400 . S
C1919 C1918 1.385 . S
C1920 C1918 1.478 . S
C1920 C1922 1.381 . S
C1920 C1926 1.383 . S
C1921 C1917 1.495 . S
C1921 H1927 0.959 . S
C1921 H1928 0.961 . S
C1921 H1929 0.960 . S
C1922 C1920 1.381 . S
C1922 C1923 1.394 . S
C1922 H1930 0.930 . S
C1923 C1922 1.394 . S
C1923 C1924 1.383 . S
C1923 H1931 0.929 . S
C1924 C1923 1.383 . S
C1924 C1925 1.377 . S
C1925 H1909 0.930 . S
C1925 C1924 1.377 . S
C1925 C1926 1.379 . S
C1926 H1910 0.931 . S
C1926 C1920 1.383 . S
C1926 C1925 1.379 . S
H1927 C1921 0.959 . S
H1928 C1921 0.961 . S
H1929 C1921 0.960 . S
H1930 C1922 0.930 . S
H1931 C1923 0.929 . S
H1932 C1940 0.929 . S
H1933 C1942 0.930 . S
H1934 C1944 0.930 . S
H1935 C1947 0.929 . S
H1936 C1950 0.930 . S
H1937 C1952 0.960 . S
H1938 C1952 0.960 . S
H1939 C1952 0.960 . S
C1940 H1932 0.929 . S
C1940 C1941 1.377 . S
C1940 C1942 1.384 . S
C1941 C1940 1.377 . S
C1941 C1947 1.390 . S
C1942 H1933 0.930 . S
C1942 C1940 1.384 . S
C1942 C1943 1.372 . S
C1943 C1942 1.372 . S
C1943 C1944 1.400 . S
C1943 C1948 1.490 . S
C1944 H1934 0.930 . S
C1944 C1943 1.400 . S
C1944 C1947 1.386 . S
H1945 C1961 0.930 . S
H1946 C1962 0.931 . S
C1947 H1935 0.929 . S
C1947 C1941 1.390 . S
C1947 C1944 1.386 . S
C1948 C1943 1.490 . S
C1948 C1950 1.395 . S
C1948 C1951 1.403 . S
H1949 C1955 0.930 . S
C1950 H1936 0.930 . S
C1950 C1948 1.395 . S
C1950 C1953 1.403 . S
C1951 C1948 1.403 . S
C1951 C1952 1.524 . S
C1951 C1955 1.400 . S
C1952 H1937 0.960 . S
C1952 H1938 0.960 . S
C1952 H1939 0.960 . S
C1952 C1951 1.524 . S
C1953 C1950 1.403 . S
C1953 C1954 1.392 . S
C1953 C1957 1.495 . S
C1954 C1953 1.392 . S
C1954 C1955 1.385 . S
C1954 C1956 1.478 . S
C1955 H1949 0.930 . S
C1955 C1951 1.400 . S
C1955 C1954 1.385 . S
C1956 C1954 1.478 . S
C1956 C1958 1.381 . S
C1956 C1962 1.383 . S
C1957 C1953 1.495 . S
C1957 H1963 0.959 . S
C1957 H1964 0.961 . S
C1957 H1965 0.960 . S
C1958 C1956 1.381 . S
C1958 C1959 1.394 . S
C1958 H1966 0.930 . S
C1959 C1958 1.394 . S
C1959 C1960 1.383 . S
C1959 H1967 0.929 . S
C1960 C1959 1.383 . S
C1960 C1961 1.377 . S
C1961 H1945 0.930 . S
C1961 C1960 1.377 . S
C1961 C1962 1.379 . S
C1962 H1946 0.931 . S
C1962 C1956 1.383 . S
C1962 C1961 1.379 . S
H1963 C1957 0.959 . S
H1964 C1957 0.961 . S
H1965 C1957 0.960 . S
H1966 C1958 0.930 . S
H1967 C1959 0.929 . S
H1968 C1976 0.929 . S
H1969 C1978 0.930 . S
H1970 C1980 0.930 . S
H1971 C1983 0.929 . S
H1972 C1986 0.930 . S
H1973 C1988 0.960 . S
H1974 C1988 0.960 . S
H1975 C1988 0.960 . S
C1976 H1968 0.929 . S
C1976 C1977 1.377 . S
C1976 C1978 1.384 . S
C1977 C1976 1.377 . S
C1977 C1983 1.390 . S
C1978 H1969 0.930 . S
C1978 C1976 1.384 . S
C1978 C1979 1.372 . S
C1979 C1978 1.372 . S
C1979 C1980 1.400 . S
C1979 C1984 1.490 . S
C1980 H1970 0.930 . S
C1980 C1979 1.400 . S
C1980 C1983 1.386 . S
H1981 C1997 0.930 . S
H1982 C1998 0.931 . S
C1983 H1971 0.929 . S
C1983 C1977 1.390 . S
C1983 C1980 1.386 . S
C1984 C1979 1.490 . S
C1984 C1986 1.395 . S
C1984 C1987 1.403 . S
H1985 C1991 0.930 . S
C1986 H1972 0.930 . S
C1986 C1984 1.395 . S
C1986 C1989 1.403 . S
C1987 C1984 1.403 . S
C1987 C1988 1.524 . S
C1987 C1991 1.400 . S
C1988 H1973 0.960 . S
C1988 H1974 0.960 . S
C1988 H1975 0.960 . S
C1988 C1987 1.524 . S
C1989 C1986 1.403 . S
C1989 C1990 1.392 . S
C1989 C1993 1.495 . S
C1990 C1989 1.392 . S
C1990 C1991 1.385 . S
C1990 C1992 1.478 . S
C1991 H1985 0.930 . S
C1991 C1987 1.400 . S
C1991 C1990 1.385 . S
C1992 C1990 1.478 . S
C1992 C1994 1.381 . S
C1992 C1998 1.383 . S
C1993 C1989 1.495 . S
C1993 H1999 0.959 . S
C1993 H2000 0.961 . S
C1993 H2001 0.960 . S
C1994 C1992 1.381 . S
C1994 C1995 1.394 . S
C1994 H2002 0.930 . S
C1995 C1994 1.394 . S
C1995 C1996 1.383 . S
C1995 H2003 0.929 1_655 S
C1996 C1995 1.383 . S
C1996 C1997 1.377 . S
C1997 H1981 0.930 . S
C1997 C1996 1.377 . S
C1997 C1998 1.379 . S
C1998 H1982 0.931 . S
C1998 C1992 1.383 . S
C1998 C1997 1.379 . S
H1999 C1993 0.959 . S
H2000 C1993 0.961 . S
H2001 C1993 0.960 . S
H2002 C1994 0.930 . S
H2003 C1995 0.929 1_455 S
H2004 C2012 0.929 . S
H2005 C2014 0.930 . S
H2006 C2016 0.930 . S
H2007 C2019 0.929 . S
H2008 C2022 0.930 . S
H2009 C2024 0.960 . S
H2010 C2024 0.960 . S
H2011 C2024 0.960 . S
C2012 H2004 0.929 . S
C2012 C2013 1.377 . S
C2012 C2014 1.384 . S
C2013 C2012 1.377 . S
C2013 C2019 1.390 . S
C2014 H2005 0.930 . S
C2014 C2012 1.384 . S
C2014 C2015 1.372 . S
C2015 C2014 1.372 . S
C2015 C2016 1.400 . S
C2015 C2020 1.490 . S
C2016 H2006 0.930 . S
C2016 C2015 1.400 . S
C2016 C2019 1.386 . S
H2017 C2033 0.930 . S
H2018 C2034 0.931 . S
C2019 H2007 0.929 . S
C2019 C2013 1.390 . S
C2019 C2016 1.386 . S
C2020 C2015 1.490 . S
C2020 C2022 1.395 . S
C2020 C2023 1.403 . S
H2021 C2027 0.930 . S
C2022 H2008 0.930 . S
C2022 C2020 1.395 . S
C2022 C2025 1.403 . S
C2023 C2020 1.403 . S
C2023 C2024 1.524 . S
C2023 C2027 1.400 . S
C2024 H2009 0.960 . S
C2024 H2010 0.960 . S
C2024 H2011 0.960 . S
C2024 C2023 1.524 . S
C2025 C2022 1.403 . S
C2025 C2026 1.392 . S
C2025 C2029 1.495 . S
C2026 C2025 1.392 . S
C2026 C2027 1.385 . S
C2026 C2028 1.478 . S
C2027 H2021 0.930 . S
C2027 C2023 1.400 . S
C2027 C2026 1.385 . S
C2028 C2026 1.478 . S
C2028 C2030 1.381 . S
C2028 C2034 1.383 . S
C2029 C2025 1.495 . S
C2029 H2035 0.959 . S
C2029 H2036 0.961 . S
C2029 H2037 0.960 . S
C2030 C2028 1.381 . S
C2030 C2031 1.394 . S
C2030 H2038 0.930 . S
C2031 C2030 1.394 . S
C2031 C2032 1.383 . S
C2031 H2039 0.929 . S
C2032 C2031 1.383 . S
C2032 C2033 1.377 . S
C2033 H2017 0.930 . S
C2033 C2032 1.377 . S
C2033 C2034 1.379 . S
C2034 H2018 0.931 . S
C2034 C2028 1.383 . S
C2034 C2033 1.379 . S
H2035 C2029 0.959 . S
H2036 C2029 0.961 . S
H2037 C2029 0.960 . S
H2038 C2030 0.930 . S
H2039 C2031 0.929 . S
H2040 C2048 0.929 . S
H2041 C2050 0.930 . S
H2042 C2052 0.930 . S
H2043 C2055 0.929 . S
H2044 C2058 0.930 . S
H2045 C2060 0.960 . S
H2046 C2060 0.960 1_565 S
H2047 C2060 0.960 . S
C2048 H2040 0.929 . S
C2048 C2049 1.377 1_565 S
C2048 C2050 1.384 . S
C2049 C2048 1.377 1_545 S
C2049 C2055 1.390 . S
C2050 H2041 0.930 . S
C2050 C2048 1.384 . S
C2050 C2051 1.372 1_565 S
C2051 C2050 1.372 1_545 S
C2051 C2052 1.400 . S
C2051 C2056 1.490 . S
C2052 H2042 0.930 . S
C2052 C2051 1.400 . S
C2052 C2055 1.386 . S
H2053 C2069 0.930 . S
H2054 C2070 0.931 . S
C2055 H2043 0.929 . S
C2055 C2049 1.390 . S
C2055 C2052 1.386 . S
C2056 C2051 1.490 . S
C2056 C2058 1.395 . S
C2056 C2059 1.403 . S
H2057 C2063 0.930 . S
C2058 H2044 0.930 . S
C2058 C2056 1.395 . S
C2058 C2061 1.403 . S
C2059 C2056 1.403 . S
C2059 C2060 1.524 . S
C2059 C2063 1.400 . S
C2060 H2045 0.960 . S
C2060 H2046 0.960 1_545 S
C2060 H2047 0.960 . S
C2060 C2059 1.524 . S
C2061 C2058 1.403 . S
C2061 C2062 1.392 . S
C2061 C2065 1.495 . S
C2062 C2061 1.392 . S
C2062 C2063 1.385 . S
C2062 C2064 1.478 . S
C2063 H2057 0.930 . S
C2063 C2059 1.400 . S
C2063 C2062 1.385 . S
C2064 C2062 1.478 . S
C2064 C2066 1.381 1_545 S
C2064 C2070 1.383 . S
C2065 C2061 1.495 . S
C2065 H2071 0.959 . S
C2065 H2072 0.961 . S
C2065 H2073 0.960 . S
C2066 C2064 1.381 1_565 S
C2066 C2067 1.395 . S
C2066 H2074 0.930 . S
C2067 C2066 1.395 . S
C2067 C2068 1.370 1_565 S
C2067 H2075 0.942 . S
C2068 C2067 1.370 1_545 S
C2068 C2069 1.377 . S
C2069 H2053 0.930 . S
C2069 C2068 1.377 . S
C2069 C2070 1.379 . S
C2070 H2054 0.931 . S
C2070 C2064 1.383 . S
C2070 C2069 1.379 . S
H2071 C2065 0.959 . S
H2072 C2065 0.961 . S
H2073 C2065 0.960 . S
H2074 C2066 0.930 . S
H2075 C2067 0.942 . S
H2076 C2084 0.929 . S
H2077 C2086 0.930 . S
H2078 C2088 0.930 . S
H2079 C2091 0.929 . S
H2080 C2094 0.930 . S
H2081 C2096 0.960 . S
H2082 C2096 0.960 . S
H2083 C2096 0.960 . S
C2084 H2076 0.929 . S
C2084 C2085 1.377 . S
C2084 C2086 1.384 . S
C2085 C2084 1.377 . S
C2085 C2091 1.390 . S
C2086 H2077 0.930 . S
C2086 C2084 1.384 . S
C2086 C2087 1.372 . S
C2087 C2086 1.372 . S
C2087 C2088 1.400 . S
C2087 C2092 1.490 . S
C2088 H2078 0.930 . S
C2088 C2087 1.400 . S
C2088 C2091 1.386 . S
H2089 C2105 0.930 . S
H2090 C2106 0.931 . S
C2091 H2079 0.929 . S
C2091 C2085 1.390 . S
C2091 C2088 1.386 . S
C2092 C2087 1.490 . S
C2092 C2094 1.395 . S
C2092 C2095 1.403 . S
H2093 C2099 0.930 . S
C2094 H2080 0.930 . S
C2094 C2092 1.395 . S
C2094 C2097 1.403 . S
C2095 C2092 1.403 . S
C2095 C2096 1.524 . S
C2095 C2099 1.400 . S
C2096 H2081 0.960 . S
C2096 H2082 0.960 . S
C2096 H2083 0.960 . S
C2096 C2095 1.524 . S
C2097 C2094 1.403 . S
C2097 C2098 1.392 . S
C2097 C2101 1.495 . S
C2098 C2097 1.392 . S
C2098 C2099 1.385 . S
C2098 C2100 1.478 . S
C2099 H2093 0.930 . S
C2099 C2095 1.400 . S
C2099 C2098 1.385 . S
C2100 C2098 1.478 . S
C2100 C2102 1.381 . S
C2100 C2106 1.383 . S
C2101 C2097 1.495 . S
C2101 H2107 0.959 . S
C2101 H2108 0.961 . S
C2101 H2109 0.960 . S
C2102 C2100 1.381 . S
C2102 C2103 1.394 . S
C2102 H2110 0.930 . S
C2103 C2102 1.394 . S
C2103 C2104 1.383 . S
C2103 H2111 0.929 . S
C2104 C2103 1.383 . S
C2104 C2105 1.377 . S
C2105 H2089 0.930 . S
C2105 C2104 1.377 . S
C2105 C2106 1.379 . S
C2106 H2090 0.931 . S
C2106 C2100 1.383 . S
C2106 C2105 1.379 . S
H2107 C2101 0.959 . S
H2108 C2101 0.961 . S
H2109 C2101 0.960 . S
H2110 C2102 0.930 . S
H2111 C2103 0.929 . S
H2112 C2120 0.929 . S
H2113 C2122 0.930 . S
H2114 C2124 0.930 . S
H2115 C2127 0.929 . S
H2116 C2130 0.930 . S
H2117 C2132 0.960 . S
H2118 C2132 0.960 . S
H2119 C2132 0.960 . S
C2120 H2112 0.929 . S
C2120 C2121 1.377 . S
C2120 C2122 1.384 . S
C2121 C2120 1.377 . S
C2121 C2127 1.390 . S
C2122 H2113 0.930 . S
C2122 C2120 1.384 . S
C2122 C2123 1.372 . S
C2123 C2122 1.372 . S
C2123 C2124 1.400 . S
C2123 C2128 1.490 . S
C2124 H2114 0.930 . S
C2124 C2123 1.400 . S
C2124 C2127 1.386 . S
H2125 C2141 0.930 . S
H2126 C2142 0.931 . S
C2127 H2115 0.929 . S
C2127 C2121 1.390 . S
C2127 C2124 1.386 . S
C2128 C2123 1.490 . S
C2128 C2130 1.395 . S
C2128 C2131 1.403 . S
H2129 C2135 0.930 . S
C2130 H2116 0.930 . S
C2130 C2128 1.395 . S
C2130 C2133 1.403 . S
C2131 C2128 1.403 . S
C2131 C2132 1.524 . S
C2131 C2135 1.400 . S
C2132 H2117 0.960 . S
C2132 H2118 0.960 . S
C2132 H2119 0.960 . S
C2132 C2131 1.524 . S
C2133 C2130 1.403 . S
C2133 C2134 1.392 . S
C2133 C2137 1.495 . S
C2134 C2133 1.392 . S
C2134 C2135 1.385 . S
C2134 C2136 1.478 . S
C2135 H2129 0.930 . S
C2135 C2131 1.400 . S
C2135 C2134 1.385 . S
C2136 C2134 1.478 . S
C2136 C2138 1.381 . S
C2136 C2142 1.383 . S
C2137 C2133 1.495 . S
C2137 H2143 0.959 . S
C2137 H2144 0.961 . S
C2137 H2145 0.960 . S
C2138 C2136 1.381 . S
C2138 C2139 1.394 . S
C2138 H2146 0.930 . S
C2139 C2138 1.394 . S
C2139 C2140 1.383 . S
C2139 H2147 0.929 . S
C2140 C2139 1.383 . S
C2140 C2141 1.377 1_655 S
C2141 H2125 0.930 . S
C2141 C2140 1.377 1_455 S
C2141 C2142 1.379 1_455 S
C2142 H2126 0.931 . S
C2142 C2136 1.383 . S
C2142 C2141 1.379 1_655 S
H2143 C2137 0.959 . S
H2144 C2137 0.961 . S
H2145 C2137 0.960 . S
H2146 C2138 0.930 . S
H2147 C2139 0.929 . S
H2148 C2156 0.929 . S
H2149 C2158 0.930 . S
H2150 C2160 0.930 . S
H2151 C2163 0.929 . S
H2152 C2166 0.930 . S
H2153 C2168 0.960 . S
H2154 C2168 0.960 . S
H2155 C2168 0.960 . S
C2156 H2148 0.929 . S
C2156 C2157 1.377 . S
C2156 C2158 1.384 . S
C2157 C2156 1.377 . S
C2157 C2163 1.390 . S
C2158 H2149 0.930 . S
C2158 C2156 1.384 . S
C2158 C2159 1.372 . S
C2159 C2158 1.372 . S
C2159 C2160 1.400 . S
C2159 C2164 1.490 . S
C2160 H2150 0.930 . S
C2160 C2159 1.400 . S
C2160 C2163 1.386 . S
H2161 C2177 0.930 . S
H2162 C2178 0.931 . S
C2163 H2151 0.929 . S
C2163 C2157 1.390 . S
C2163 C2160 1.386 . S
C2164 C2159 1.490 . S
C2164 C2166 1.395 . S
C2164 C2167 1.403 . S
H2165 C2171 0.930 . S
C2166 H2152 0.930 . S
C2166 C2164 1.395 . S
C2166 C2169 1.403 . S
C2167 C2164 1.403 . S
C2167 C2168 1.524 . S
C2167 C2171 1.400 . S
C2168 H2153 0.960 . S
C2168 H2154 0.960 . S
C2168 H2155 0.960 . S
C2168 C2167 1.524 . S
C2169 C2166 1.403 . S
C2169 C2170 1.392 . S
C2169 C2173 1.495 . S
C2170 C2169 1.392 . S
C2170 C2171 1.385 . S
C2170 C2172 1.478 . S
C2171 H2165 0.930 . S
C2171 C2167 1.400 . S
C2171 C2170 1.385 . S
C2172 C2170 1.478 . S
C2172 C2174 1.381 . S
C2172 C2178 1.383 . S
C2173 C2169 1.495 . S
C2173 H2179 0.959 . S
C2173 H2180 0.961 . S
C2173 H2181 0.960 . S
C2174 C2172 1.381 . S
C2174 C2175 1.394 . S
C2174 H2182 0.930 . S
C2175 C2174 1.394 . S
C2175 C2176 1.383 . S
C2175 H2183 0.929 . S
C2176 C2175 1.383 . S
C2176 C2177 1.377 . S
C2177 H2161 0.930 . S
C2177 C2176 1.377 . S
C2177 C2178 1.379 . S
C2178 H2162 0.931 . S
C2178 C2172 1.383 . S
C2178 C2177 1.379 . S
H2179 C2173 0.959 . S
H2180 C2173 0.961 . S
H2181 C2173 0.960 . S
H2182 C2174 0.930 . S
H2183 C2175 0.929 . S
H2184 C2192 0.929 . S
H2185 C2194 0.930 . S
H2186 C2196 0.930 . S
H2187 C2199 0.929 . S
H2188 C2202 0.930 1_565 S
H2189 C2204 0.960 . S
H2190 C2204 0.960 . S
H2191 C2204 0.960 . S
C2192 H2184 0.929 . S
C2192 C2193 1.377 1_565 S
C2192 C2194 1.384 . S
C2193 C2192 1.377 1_545 S
C2193 C2199 1.390 . S
C2194 H2185 0.930 . S
C2194 C2192 1.384 . S
C2194 C2195 1.372 1_565 S
C2195 C2194 1.372 1_545 S
C2195 C2196 1.400 . S
C2195 C2200 1.490 . S
C2196 H2186 0.930 . S
C2196 C2195 1.400 . S
C2196 C2199 1.386 . S
H2197 C2213 0.930 . S
H2198 C2214 0.931 . S
C2199 H2187 0.929 . S
C2199 C2193 1.390 . S
C2199 C2196 1.386 . S
C2200 C2195 1.490 . S
C2200 C2202 1.395 . S
C2200 C2203 1.403 . S
H2201 C2207 0.930 . S
C2202 H2188 0.930 1_545 S
C2202 C2200 1.395 . S
C2202 C2205 1.403 . S
C2203 C2200 1.403 . S
C2203 C2204 1.524 . S
C2203 C2207 1.400 . S
C2204 H2189 0.960 . S
C2204 H2190 0.960 . S
C2204 H2191 0.960 . S
C2204 C2203 1.524 . S
C2205 C2202 1.403 . S
C2205 C2206 1.392 . S
C2205 C2209 1.495 1_545 S
C2206 C2205 1.392 . S
C2206 C2207 1.385 . S
C2206 C2208 1.478 . S
C2207 H2201 0.930 . S
C2207 C2203 1.400 . S
C2207 C2206 1.385 . S
C2208 C2206 1.478 . S
C2208 C2210 1.381 . S
C2208 C2214 1.383 . S
C2209 C2205 1.495 1_565 S
C2209 H2215 0.959 . S
C2209 H2216 0.961 . S
C2209 H2217 0.960 . S
C2210 C2208 1.381 . S
C2210 C2211 1.394 . S
C2210 H2218 0.930 . S
C2211 C2210 1.394 . S
C2211 C2212 1.383 . S
C2211 H2219 0.929 . S
C2212 C2211 1.383 . S
C2212 C2213 1.377 . S
C2213 H2197 0.930 . S
C2213 C2212 1.377 . S
C2213 C2214 1.379 . S
C2214 H2198 0.931 . S
C2214 C2208 1.383 . S
C2214 C2213 1.379 . S
H2215 C2209 0.959 . S
H2216 C2209 0.961 . S
H2217 C2209 0.960 . S
H2218 C2210 0.930 . S
H2219 C2211 0.929 . S
H2220 C2228 0.929 . S
H2221 C2230 0.930 . S
H2222 C2232 0.930 . S
H2223 C2235 0.929 . S
H2224 C2238 0.930 . S
H2225 C2240 0.960 . S
H2226 C2240 0.960 . S
H2227 C2240 0.960 . S
C2228 H2220 0.929 . S
C2228 C2229 1.377 . S
C2228 C2230 1.384 . S
C2229 C2228 1.377 . S
C2229 C2235 1.390 . S
C2230 H2221 0.930 . S
C2230 C2228 1.384 . S
C2230 C2231 1.372 . S
C2231 C2230 1.372 . S
C2231 C2232 1.400 . S
C2231 C2236 1.490 . S
C2232 H2222 0.930 . S
C2232 C2231 1.400 . S
C2232 C2235 1.386 . S
H2233 C2249 0.930 . S
H2234 C2250 0.931 . S
C2235 H2223 0.929 . S
C2235 C2229 1.390 . S
C2235 C2232 1.386 . S
C2236 C2231 1.490 . S
C2236 C2238 1.395 . S
C2236 C2239 1.403 . S
H2237 C2243 0.930 . S
C2238 H2224 0.930 . S
C2238 C2236 1.395 . S
C2238 C2241 1.403 . S
C2239 C2236 1.403 . S
C2239 C2240 1.524 . S
C2239 C2243 1.400 . S
C2240 H2225 0.960 . S
C2240 H2226 0.960 . S
C2240 H2227 0.960 . S
C2240 C2239 1.524 . S
C2241 C2238 1.403 . S
C2241 C2242 1.392 . S
C2241 C2245 1.495 . S
C2242 C2241 1.392 . S
C2242 C2243 1.385 . S
C2242 C2244 1.478 . S
C2243 H2237 0.930 . S
C2243 C2239 1.400 . S
C2243 C2242 1.385 . S
C2244 C2242 1.478 . S
C2244 C2246 1.381 . S
C2244 C2250 1.383 . S
C2245 C2241 1.495 . S
C2245 H2251 0.959 . S
C2245 H2252 0.961 . S
C2245 H2253 0.960 . S
C2246 C2244 1.381 . S
C2246 C2247 1.394 . S
C2246 H2254 0.930 . S
C2247 C2246 1.394 . S
C2247 C2248 1.383 . S
C2247 H2255 0.929 . S
C2248 C2247 1.383 . S
C2248 C2249 1.377 . S
C2249 H2233 0.930 . S
C2249 C2248 1.377 . S
C2249 C2250 1.379 . S
C2250 H2234 0.931 . S
C2250 C2244 1.383 . S
C2250 C2249 1.379 . S
H2251 C2245 0.959 . S
H2252 C2245 0.961 . S
H2253 C2245 0.960 . S
H2254 C2246 0.930 . S
H2255 C2247 0.929 . S
H2256 C2264 0.929 . S
H2257 C2266 0.930 . S
H2258 C2268 0.930 1_556 S
H2259 C2271 0.929 1_556 S
H2260 C2274 0.930 . S
H2261 C2276 0.960 1_545 S
H2262 C2276 0.960 . S
H2263 C2276 0.960 . S
C2264 H2256 0.929 . S
C2264 C2265 1.377 . S
C2264 C2266 1.384 . S
C2265 C2264 1.377 . S
C2265 C2271 1.390 . S
C2266 H2257 0.930 . S
C2266 C2264 1.384 . S
C2266 C2267 1.372 . S
C2267 C2266 1.372 . S
C2267 C2268 1.400 . S
C2267 C2272 1.490 . S
C2268 H2258 0.930 1_554 S
C2268 C2267 1.400 . S
C2268 C2271 1.386 . S
H2269 C2285 0.954 . S
H2270 C2286 0.931 1_556 S
C2271 H2259 0.929 1_554 S
C2271 C2265 1.390 . S
C2271 C2268 1.386 . S
C2272 C2267 1.490 . S
C2272 C2274 1.395 . S
C2272 C2275 1.403 . S
H2273 C2279 0.930 . S
C2274 H2260 0.930 . S
C2274 C2272 1.395 . S
C2274 C2277 1.403 . S
C2275 C2272 1.403 . S
C2275 C2276 1.524 . S
C2275 C2279 1.400 . S
C2276 H2261 0.960 1_565 S
C2276 H2262 0.960 . S
C2276 H2263 0.960 . S
C2276 C2275 1.524 . S
C2277 C2274 1.403 . S
C2277 C2278 1.392 . S
C2277 C2281 1.495 . S
C2278 C2277 1.392 . S
C2278 C2279 1.385 . S
C2278 C2280 1.478 . S
C2279 H2273 0.930 . S
C2279 C2275 1.400 . S
C2279 C2278 1.385 . S
C2280 C2278 1.478 . S
C2280 C2282 1.381 . S
C2280 C2286 1.383 . S
C2281 C2277 1.495 . S
C2281 H2287 0.959 . S
C2281 H2288 0.961 . S
C2281 H2289 0.960 . S
C2282 C2280 1.381 . S
C2282 C2283 1.394 . S
C2282 H2290 0.930 . S
C2283 C2282 1.394 . S
C2283 C2284 1.383 1_565 S
C2283 H2291 0.929 . S
C2284 C2283 1.383 1_545 S
C2284 C2285 1.377 . S
C2285 H2269 0.954 . S
C2285 C2284 1.377 . S
C2285 C2286 1.379 1_545 S
C2286 H2270 0.931 1_554 S
C2286 C2280 1.383 . S
C2286 C2285 1.379 1_565 S
H2287 C2281 0.959 . S
H2288 C2281 0.961 . S
H2289 C2281 0.960 . S
H2290 C2282 0.930 . S
H2291 C2283 0.929 . S
H2292 C2300 0.929 . S
H2293 C2302 0.930 . S
H2294 C2304 0.930 . S
H2295 C2307 0.929 . S
H2296 C2310 0.930 . S
H2297 C2312 0.960 . S
H2298 C2312 0.960 . S
H2299 C2312 0.960 . S
C2300 H2292 0.929 . S
C2300 C2301 1.401 . S
C2300 C2302 1.384 . S
C2301 C2300 1.401 . S
C2301 C2307 1.369 1_554 S
C2302 H2293 0.930 . S
C2302 C2300 1.384 . S
C2302 C2303 1.372 . S
C2303 C2302 1.372 . S
C2303 C2304 1.400 1_554 S
C2303 C2308 1.490 . S
C2304 H2294 0.930 . S
C2304 C2303 1.400 1_556 S
C2304 C2307 1.386 . S
H2305 C2321 0.930 . S
H2306 C2322 0.931 . S
C2307 H2295 0.929 . S
C2307 C2301 1.369 1_556 S
C2307 C2304 1.386 . S
C2308 C2303 1.490 . S
C2308 C2310 1.395 . S
C2308 C2311 1.403 1_554 S
H2309 C2315 0.930 . S
C2310 H2296 0.930 . S
C2310 C2308 1.395 . S
C2310 C2313 1.403 . S
C2311 C2308 1.403 1_556 S
C2311 C2312 1.524 . S
C2311 C2315 1.400 . S
C2312 H2297 0.960 . S
C2312 H2298 0.960 . S
C2312 H2299 0.960 . S
C2312 C2311 1.524 . S
C2313 C2310 1.403 . S
C2313 C2314 1.392 . S
C2313 C2317 1.495 . S
C2314 C2313 1.392 . S
C2314 C2315 1.385 1_554 S
C2314 C2316 1.478 . S
C2315 H2309 0.930 . S
C2315 C2311 1.400 . S
C2315 C2314 1.385 1_556 S
C2316 C2314 1.478 . S
C2316 C2318 1.381 . S
C2316 C2322 1.383 1_554 S
C2317 C2313 1.495 . S
C2317 H2323 0.959 . S
C2317 H2324 0.961 . S
C2317 H2325 0.960 . S
C2318 C2316 1.381 . S
C2318 C2319 1.394 . S
C2318 H2326 0.930 . S
C2319 C2318 1.394 . S
C2319 C2320 1.383 . S
C2319 H2327 0.929 . S
C2320 C2319 1.383 . S
C2320 C2321 1.377 1_554 S
C2321 H2305 0.930 . S
C2321 C2320 1.377 1_556 S
C2321 C2322 1.379 . S
C2322 H2306 0.931 . S
C2322 C2316 1.383 1_556 S
C2322 C2321 1.379 . S
H2323 C2317 0.959 . S
H2324 C2317 0.961 . S
H2325 C2317 0.960 . S
H2326 C2318 0.930 . S
H2327 C2319 0.929 . S
H2328 C2336 0.929 . S
H2329 C2338 0.930 . S
H2330 C2340 0.930 . S
H2331 C2343 0.929 . S
H2332 C2346 0.930 . S
H2333 C2348 0.960 . S
H2334 C2348 0.960 . S
H2335 C2348 0.960 . S
C2336 H2328 0.929 . S
C2336 C2337 1.377 . S
C2336 C2338 1.384 . S
C2337 C2336 1.377 . S
C2337 C2343 1.390 . S
C2338 H2329 0.930 . S
C2338 C2336 1.384 . S
C2338 C2339 1.372 . S
C2339 C2338 1.372 . S
C2339 C2340 1.400 . S
C2339 C2344 1.490 . S
C2340 H2330 0.930 . S
C2340 C2339 1.400 . S
C2340 C2343 1.386 . S
H2341 C2357 0.930 . S
H2342 C2358 0.931 . S
C2343 H2331 0.929 . S
C2343 C2337 1.390 . S
C2343 C2340 1.386 . S
C2344 C2339 1.490 . S
C2344 C2346 1.395 . S
C2344 C2347 1.403 . S
H2345 C2351 0.930 . S
C2346 H2332 0.930 . S
C2346 C2344 1.395 . S
C2346 C2349 1.403 . S
C2347 C2344 1.403 . S
C2347 C2348 1.524 . S
C2347 C2351 1.400 . S
C2348 H2333 0.960 . S
C2348 H2334 0.960 . S
C2348 H2335 0.960 . S
C2348 C2347 1.524 . S
C2349 C2346 1.403 . S
C2349 C2350 1.392 . S
C2349 C2353 1.495 . S
C2350 C2349 1.392 . S
C2350 C2351 1.385 . S
C2350 C2352 1.478 . S
C2351 H2345 0.930 . S
C2351 C2347 1.400 . S
C2351 C2350 1.385 . S
C2352 C2350 1.478 . S
C2352 C2354 1.381 . S
C2352 C2358 1.383 . S
C2353 C2349 1.495 . S
C2353 H2359 0.959 . S
C2353 H2360 0.961 . S
C2353 H2361 0.960 . S
C2354 C2352 1.381 . S
C2354 C2355 1.394 . S
C2354 H2362 0.930 . S
C2355 C2354 1.394 . S
C2355 C2356 1.383 . S
C2355 H2363 0.929 . S
C2356 C2355 1.383 . S
C2356 C2357 1.377 . S
C2357 H2341 0.930 . S
C2357 C2356 1.377 . S
C2357 C2358 1.379 . S
C2358 H2342 0.931 . S
C2358 C2352 1.383 . S
C2358 C2357 1.379 . S
H2359 C2353 0.959 . S
H2360 C2353 0.961 . S
H2361 C2353 0.960 . S
H2362 C2354 0.930 . S
H2363 C2355 0.929 . S
H2364 C2372 0.929 . S
H2365 C2374 0.930 . S
H2366 C2376 0.930 . S
H2367 C2379 0.929 . S
H2368 C2382 0.930 . S
H2369 C2384 0.960 . S
H2370 C2384 0.960 . S
H2371 C2384 0.960 . S
C2372 H2364 0.929 . S
C2372 C2373 1.377 . S
C2372 C2374 1.384 . S
C2373 C2372 1.377 . S
C2373 C2379 1.390 . S
C2374 H2365 0.930 . S
C2374 C2372 1.384 . S
C2374 C2375 1.372 . S
C2375 C2374 1.372 . S
C2375 C2376 1.400 . S
C2375 C2380 1.490 . S
C2376 H2366 0.930 . S
C2376 C2375 1.400 . S
C2376 C2379 1.386 . S
H2377 C2393 0.930 . S
H2378 C2394 0.931 . S
C2379 H2367 0.929 . S
C2379 C2373 1.390 . S
C2379 C2376 1.386 . S
C2380 C2375 1.490 . S
C2380 C2382 1.395 . S
C2380 C2383 1.403 . S
H2381 C2387 0.930 . S
C2382 H2368 0.930 . S
C2382 C2380 1.395 . S
C2382 C2385 1.403 . S
C2383 C2380 1.403 . S
C2383 C2384 1.524 . S
C2383 C2387 1.400 . S
C2384 H2369 0.960 . S
C2384 H2370 0.960 . S
C2384 H2371 0.960 . S
C2384 C2383 1.524 . S
C2385 C2382 1.403 . S
C2385 C2386 1.392 . S
C2385 C2389 1.495 . S
C2386 C2385 1.392 . S
C2386 C2387 1.385 . S
C2386 C2388 1.478 . S
C2387 H2381 0.930 . S
C2387 C2383 1.400 . S
C2387 C2386 1.385 . S
C2388 C2386 1.478 . S
C2388 C2390 1.381 . S
C2388 C2394 1.383 . S
C2389 C2385 1.495 . S
C2389 H2395 0.959 . S
C2389 H2396 0.961 . S
C2389 H2397 0.960 . S
C2390 C2388 1.381 . S
C2390 C2391 1.394 . S
C2390 H2398 0.930 . S
C2391 C2390 1.394 . S
C2391 C2392 1.383 . S
C2391 H2399 0.929 . S
C2392 C2391 1.383 . S
C2392 C2393 1.377 . S
C2393 H2377 0.930 . S
C2393 C2392 1.377 . S
C2393 C2394 1.379 . S
C2394 H2378 0.931 . S
C2394 C2388 1.383 . S
C2394 C2393 1.379 . S
H2395 C2389 0.959 . S
H2396 C2389 0.961 . S
H2397 C2389 0.960 . S
H2398 C2390 0.930 . S
H2399 C2391 0.929 . S
H2400 C2408 0.929 . S
H2401 C2410 0.930 . S
H2402 C2412 0.930 . S
H2403 C2415 0.929 1_545 S
H2404 C2418 0.930 . S
H2405 C2420 0.960 . S
H2406 C2420 0.960 . S
H2407 C2420 0.960 . S
C2408 H2400 0.929 . S
C2408 C2409 1.377 . S
C2408 C2410 1.384 . S
C2409 C2408 1.377 . S
C2409 C2415 1.390 . S
C2410 H2401 0.930 . S
C2410 C2408 1.384 . S
C2410 C2411 1.372 . S
C2411 C2410 1.372 . S
C2411 C2412 1.400 . S
C2411 C2416 1.490 . S
C2412 H2402 0.930 . S
C2412 C2411 1.400 . S
C2412 C2415 1.386 . S
H2413 C2429 0.930 . S
H2414 C2430 0.931 . S
C2415 H2403 0.929 1_565 S
C2415 C2409 1.390 . S
C2415 C2412 1.386 . S
C2416 C2411 1.490 . S
C2416 C2418 1.395 . S
C2416 C2419 1.403 . S
H2417 C2423 0.930 . S
C2418 H2404 0.930 . S
C2418 C2416 1.395 . S
C2418 C2421 1.403 . S
C2419 C2416 1.403 . S
C2419 C2420 1.524 . S
C2419 C2423 1.400 . S
C2420 H2405 0.960 . S
C2420 H2406 0.960 . S
C2420 H2407 0.960 . S
C2420 C2419 1.524 . S
C2421 C2418 1.403 . S
C2421 C2422 1.392 . S
C2421 C2425 1.495 . S
C2422 C2421 1.392 . S
C2422 C2423 1.385 . S
C2422 C2424 1.478 . S
C2423 H2417 0.930 . S
C2423 C2419 1.400 . S
C2423 C2422 1.385 . S
C2424 C2422 1.478 . S
C2424 C2426 1.381 . S
C2424 C2430 1.383 . S
C2425 C2421 1.495 . S
C2425 H2431 0.959 . S
C2425 H2432 0.961 . S
C2425 H2433 0.960 . S
C2426 C2424 1.381 . S
C2426 C2427 1.394 . S
C2426 H2434 0.930 . S
C2427 C2426 1.394 . S
C2427 C2428 1.383 . S
C2427 H2435 0.929 . S
C2428 C2427 1.383 . S
C2428 C2429 1.377 . S
C2429 H2413 0.930 . S
C2429 C2428 1.377 . S
C2429 C2430 1.379 . S
C2430 H2414 0.931 . S
C2430 C2424 1.383 . S
C2430 C2429 1.379 . S
H2431 C2425 0.959 . S
H2432 C2425 0.961 . S
H2433 C2425 0.960 . S
H2434 C2426 0.930 . S
H2435 C2427 0.929 . S
H2436 C2444 0.929 . S
H2437 C2446 0.930 . S
H2438 C2448 0.930 . S
H2439 C2451 0.929 . S
H2440 C2454 0.930 . S
H2441 C2456 0.960 . S
H2442 C2456 0.960 . S
H2443 C2456 0.960 . S
C2444 H2436 0.929 . S
C2444 C2445 1.377 . S
C2444 C2446 1.384 . S
C2445 C2444 1.377 . S
C2445 C2451 1.390 . S
C2446 H2437 0.930 . S
C2446 C2444 1.384 . S
C2446 C2447 1.372 . S
C2447 C2446 1.372 . S
C2447 C2448 1.400 . S
C2447 C2452 1.490 . S
C2448 H2438 0.930 . S
C2448 C2447 1.400 . S
C2448 C2451 1.386 . S
H2449 C2465 0.930 . S
H2450 C2466 0.931 . S
C2451 H2439 0.929 . S
C2451 C2445 1.390 . S
C2451 C2448 1.386 . S
C2452 C2447 1.490 . S
C2452 C2454 1.395 . S
C2452 C2455 1.403 . S
H2453 C2459 0.930 . S
C2454 H2440 0.930 . S
C2454 C2452 1.395 . S
C2454 C2457 1.403 . S
C2455 C2452 1.403 . S
C2455 C2456 1.524 . S
C2455 C2459 1.400 . S
C2456 H2441 0.960 . S
C2456 H2442 0.960 . S
C2456 H2443 0.960 . S
C2456 C2455 1.524 . S
C2457 C2454 1.403 . S
C2457 C2458 1.392 . S
C2457 C2461 1.495 . S
C2458 C2457 1.392 . S
C2458 C2459 1.385 . S
C2458 C2460 1.478 . S
C2459 H2453 0.930 . S
C2459 C2455 1.400 . S
C2459 C2458 1.385 . S
C2460 C2458 1.478 . S
C2460 C2462 1.381 . S
C2460 C2466 1.383 . S
C2461 C2457 1.495 . S
C2461 H2467 0.959 . S
C2461 H2468 0.961 . S
C2461 H2469 0.960 . S
C2462 C2460 1.381 . S
C2462 C2463 1.394 . S
C2462 H2470 0.930 . S
C2463 C2462 1.394 . S
C2463 C2464 1.383 . S
C2463 H2471 0.929 . S
C2464 C2463 1.383 . S
C2464 C2465 1.377 . S
C2465 H2449 0.930 . S
C2465 C2464 1.377 . S
C2465 C2466 1.379 . S
C2466 H2450 0.931 . S
C2466 C2460 1.383 . S
C2466 C2465 1.379 . S
H2467 C2461 0.959 . S
H2468 C2461 0.961 . S
H2469 C2461 0.960 . S
H2470 C2462 0.930 . S
H2471 C2463 0.929 . S
H2472 C2480 0.929 . S
H2473 C2482 0.930 . S
H2474 C2484 0.930 . S
H2475 C2487 0.929 . S
H2476 C2490 0.930 . S
H2477 C2492 0.960 . S
H2478 C2492 0.960 . S
H2479 C2492 0.960 . S
C2480 H2472 0.929 . S
C2480 C2481 1.377 . S
C2480 C2482 1.384 . S
C2481 C2480 1.377 . S
C2481 C2487 1.390 . S
C2482 H2473 0.930 . S
C2482 C2480 1.384 . S
C2482 C2483 1.372 . S
C2483 C2482 1.372 . S
C2483 C2484 1.400 . S
C2483 C2488 1.490 . S
C2484 H2474 0.930 . S
C2484 C2483 1.400 . S
C2484 C2487 1.386 . S
H2485 C2501 0.930 . S
H2486 C2502 0.931 . S
C2487 H2475 0.929 . S
C2487 C2481 1.390 . S
C2487 C2484 1.386 . S
C2488 C2483 1.490 . S
C2488 C2490 1.395 . S
C2488 C2491 1.403 . S
H2489 C2495 0.930 . S
C2490 H2476 0.930 . S
C2490 C2488 1.395 . S
C2490 C2493 1.403 . S
C2491 C2488 1.403 . S
C2491 C2492 1.524 . S
C2491 C2495 1.400 . S
C2492 H2477 0.960 . S
C2492 H2478 0.960 . S
C2492 H2479 0.960 . S
C2492 C2491 1.524 . S
C2493 C2490 1.403 . S
C2493 C2494 1.392 . S
C2493 C2497 1.495 . S
C2494 C2493 1.392 . S
C2494 C2495 1.385 . S
C2494 C2496 1.478 . S
C2495 H2489 0.930 . S
C2495 C2491 1.400 . S
C2495 C2494 1.385 . S
C2496 C2494 1.478 . S
C2496 C2498 1.381 . S
C2496 C2502 1.383 . S
C2497 C2493 1.495 . S
C2497 H2503 0.959 . S
C2497 H2504 0.961 . S
C2497 H2505 0.960 . S
C2498 C2496 1.381 . S
C2498 C2499 1.394 . S
C2498 H2506 0.930 . S
C2499 C2498 1.394 . S
C2499 C2500 1.383 . S
C2499 H2507 0.929 . S
C2500 C2499 1.383 . S
C2500 C2501 1.377 . S
C2501 H2485 0.930 . S
C2501 C2500 1.377 . S
C2501 C2502 1.379 . S
C2502 H2486 0.931 . S
C2502 C2496 1.383 . S
C2502 C2501 1.379 . S
H2503 C2497 0.959 . S
H2504 C2497 0.961 . S
H2505 C2497 0.960 . S
H2506 C2498 0.930 . S
H2507 C2499 0.929 . S
H2508 C2516 0.929 . S
H2509 C2518 0.930 . S
H2510 C2520 0.930 . S
H2511 C2523 0.929 . S
H2512 C2526 0.930 . S
H2513 C2528 0.960 . S
H2514 C2528 0.960 . S
H2515 C2528 0.960 . S
C2516 H2508 0.929 . S
C2516 C2517 1.377 . S
C2516 C2518 1.384 . S
C2517 C2516 1.377 . S
C2517 C2523 1.390 . S
C2518 H2509 0.930 . S
C2518 C2516 1.384 . S
C2518 C2519 1.372 . S
C2519 C2518 1.372 . S
C2519 C2520 1.400 . S
C2519 C2524 1.490 . S
C2520 H2510 0.930 . S
C2520 C2519 1.400 . S
C2520 C2523 1.386 . S
H2521 C2537 0.930 . S
H2522 C2538 0.931 . S
C2523 H2511 0.929 . S
C2523 C2517 1.390 . S
C2523 C2520 1.386 . S
C2524 C2519 1.490 . S
C2524 C2526 1.395 . S
C2524 C2527 1.403 . S
H2525 C2531 0.930 . S
C2526 H2512 0.930 . S
C2526 C2524 1.395 . S
C2526 C2529 1.403 . S
C2527 C2524 1.403 . S
C2527 C2528 1.524 . S
C2527 C2531 1.400 . S
C2528 H2513 0.960 . S
C2528 H2514 0.960 . S
C2528 H2515 0.960 . S
C2528 C2527 1.524 . S
C2529 C2526 1.403 . S
C2529 C2530 1.392 . S
C2529 C2533 1.495 . S
C2530 C2529 1.392 . S
C2530 C2531 1.385 . S
C2530 C2532 1.478 . S
C2531 H2525 0.930 . S
C2531 C2527 1.400 . S
C2531 C2530 1.385 . S
C2532 C2530 1.478 . S
C2532 C2534 1.381 . S
C2532 C2538 1.383 . S
C2533 C2529 1.495 . S
C2533 H2539 0.959 . S
C2533 H2540 0.961 . S
C2533 H2541 0.960 . S
C2534 C2532 1.381 . S
C2534 C2535 1.394 . S
C2534 H2542 0.930 . S
C2535 C2534 1.394 . S
C2535 C2536 1.383 . S
C2535 H2543 0.929 . S
C2536 C2535 1.383 . S
C2536 C2537 1.377 . S
C2537 H2521 0.930 . S
C2537 C2536 1.377 . S
C2537 C2538 1.379 . S
C2538 H2522 0.931 . S
C2538 C2532 1.383 . S
C2538 C2537 1.379 . S
H2539 C2533 0.959 . S
H2540 C2533 0.961 . S
H2541 C2533 0.960 . S
H2542 C2534 0.930 . S
H2543 C2535 0.929 . S
H2544 C2552 0.929 . S
H2545 C2554 0.930 . S
H2546 C2556 0.930 . S
H2547 C2559 0.929 . S
H2548 C2562 0.930 . S
H2549 C2564 0.960 . S
H2550 C2564 0.960 . S
H2551 C2564 0.960 . S
C2552 H2544 0.929 . S
C2552 C2553 1.377 . S
C2552 C2554 1.384 . S
C2553 C2552 1.377 . S
C2553 C2559 1.390 . S
C2554 H2545 0.930 . S
C2554 C2552 1.384 . S
C2554 C2555 1.372 . S
C2555 C2554 1.372 . S
C2555 C2556 1.400 . S
C2555 C2560 1.490 . S
C2556 H2546 0.930 . S
C2556 C2555 1.400 . S
C2556 C2559 1.386 . S
H2557 C2573 0.930 . S
H2558 C2574 0.931 . S
C2559 H2547 0.929 . S
C2559 C2553 1.390 . S
C2559 C2556 1.386 . S
C2560 C2555 1.490 . S
C2560 C2562 1.395 . S
C2560 C2563 1.403 . S
H2561 C2567 0.930 . S
C2562 H2548 0.930 . S
C2562 C2560 1.395 . S
C2562 C2565 1.403 . S
C2563 C2560 1.403 . S
C2563 C2564 1.524 . S
C2563 C2567 1.400 . S
C2564 H2549 0.960 . S
C2564 H2550 0.960 . S
C2564 H2551 0.960 . S
C2564 C2563 1.524 . S
C2565 C2562 1.403 . S
C2565 C2566 1.392 . S
C2565 C2569 1.495 . S
C2566 C2565 1.392 . S
C2566 C2567 1.385 . S
C2566 C2568 1.478 . S
C2567 H2561 0.930 . S
C2567 C2563 1.400 . S
C2567 C2566 1.385 . S
C2568 C2566 1.478 . S
C2568 C2570 1.381 . S
C2568 C2574 1.383 . S
C2569 C2565 1.495 . S
C2569 H2575 0.959 . S
C2569 H2576 0.961 . S
C2569 H2577 0.960 . S
C2570 C2568 1.381 . S
C2570 C2571 1.394 . S
C2570 H2578 0.930 . S
C2571 C2570 1.394 . S
C2571 C2572 1.383 . S
C2571 H2579 0.929 . S
C2572 C2571 1.383 . S
C2572 C2573 1.377 . S
C2573 H2557 0.930 . S
C2573 C2572 1.377 . S
C2573 C2574 1.379 . S
C2574 H2558 0.931 . S
C2574 C2568 1.383 . S
C2574 C2573 1.379 . S
H2575 C2569 0.959 . S
H2576 C2569 0.961 . S
H2577 C2569 0.960 . S
H2578 C2570 0.930 . S
H2579 C2571 0.929 . S
H2580 C2588 0.929 . S
H2581 C2590 0.930 . S
H2582 C2592 0.930 . S
H2583 C2595 0.929 . S
H2584 C2598 0.930 . S
H2585 C2600 0.960 . S
H2586 C2600 0.960 . S
H2587 C2600 0.960 . S
C2588 H2580 0.929 . S
C2588 C2589 1.377 . S
C2588 C2590 1.384 . S
C2589 C2588 1.377 . S
C2589 C2595 1.390 . S
C2590 H2581 0.930 . S
C2590 C2588 1.384 . S
C2590 C2591 1.372 . S
C2591 C2590 1.372 . S
C2591 C2592 1.400 . S
C2591 C2596 1.490 . S
C2592 H2582 0.930 . S
C2592 C2591 1.400 . S
C2592 C2595 1.386 . S
H2593 C2609 0.930 . S
H2594 C2610 0.931 . S
C2595 H2583 0.929 . S
C2595 C2589 1.390 . S
C2595 C2592 1.386 . S
C2596 C2591 1.490 . S
C2596 C2598 1.395 . S
C2596 C2599 1.403 . S
H2597 C2603 0.930 . S
C2598 H2584 0.930 . S
C2598 C2596 1.395 . S
C2598 C2601 1.403 . S
C2599 C2596 1.403 . S
C2599 C2600 1.524 . S
C2599 C2603 1.400 . S
C2600 H2585 0.960 . S
C2600 H2586 0.960 . S
C2600 H2587 0.960 . S
C2600 C2599 1.524 . S
C2601 C2598 1.403 . S
C2601 C2602 1.392 . S
C2601 C2605 1.495 . S
C2602 C2601 1.392 . S
C2602 C2603 1.385 . S
C2602 C2604 1.478 . S
C2603 H2597 0.930 . S
C2603 C2599 1.400 . S
C2603 C2602 1.385 . S
C2604 C2602 1.478 . S
C2604 C2606 1.381 . S
C2604 C2610 1.383 . S
C2605 C2601 1.495 . S
C2605 H2611 0.959 . S
C2605 H2612 0.961 . S
C2605 H2613 0.960 . S
C2606 C2604 1.381 . S
C2606 C2607 1.394 . S
C2606 H2614 0.930 . S
C2607 C2606 1.394 . S
C2607 C2608 1.383 . S
C2607 H2615 0.929 . S
C2608 C2607 1.383 . S
C2608 C2609 1.377 . S
C2609 H2593 0.930 . S
C2609 C2608 1.377 . S
C2609 C2610 1.379 . S
C2610 H2594 0.931 . S
C2610 C2604 1.383 . S
C2610 C2609 1.379 . S
H2611 C2605 0.959 . S
H2612 C2605 0.961 . S
H2613 C2605 0.960 . S
H2614 C2606 0.930 . S
H2615 C2607 0.929 . S
H2616 C2624 0.929 . S
H2617 C2626 0.930 . S
H2618 C2628 0.930 . S
H2619 C2631 0.929 . S
H2620 C2634 0.930 . S
H2621 C2636 0.960 . S
H2622 C2636 0.960 . S
H2623 C2636 0.960 . S
C2624 H2616 0.929 . S
C2624 C2625 1.377 . S
C2624 C2626 1.384 . S
C2625 C2624 1.377 . S
C2625 C2631 1.390 . S
C2626 H2617 0.930 . S
C2626 C2624 1.384 . S
C2626 C2627 1.372 . S
C2627 C2626 1.372 . S
C2627 C2628 1.400 . S
C2627 C2632 1.490 . S
C2628 H2618 0.930 . S
C2628 C2627 1.400 . S
C2628 C2631 1.386 . S
H2629 C2645 0.930 . S
H2630 C2646 0.931 . S
C2631 H2619 0.929 . S
C2631 C2625 1.390 . S
C2631 C2628 1.386 . S
C2632 C2627 1.490 . S
C2632 C2634 1.395 . S
C2632 C2635 1.403 . S
H2633 C2639 0.930 . S
C2634 H2620 0.930 . S
C2634 C2632 1.395 . S
C2634 C2637 1.403 . S
C2635 C2632 1.403 . S
C2635 C2636 1.524 . S
C2635 C2639 1.400 . S
C2636 H2621 0.960 . S
C2636 H2622 0.960 . S
C2636 H2623 0.960 . S
C2636 C2635 1.524 . S
C2637 C2634 1.403 . S
C2637 C2638 1.392 . S
C2637 C2641 1.495 . S
C2638 C2637 1.392 . S
C2638 C2639 1.385 . S
C2638 C2640 1.478 . S
C2639 H2633 0.930 . S
C2639 C2635 1.400 . S
C2639 C2638 1.385 . S
C2640 C2638 1.478 . S
C2640 C2642 1.381 . S
C2640 C2646 1.383 . S
C2641 C2637 1.495 . S
C2641 H2647 0.959 . S
C2641 H2648 0.961 . S
C2641 H2649 0.960 . S
C2642 C2640 1.381 . S
C2642 C2643 1.394 . S
C2642 H2650 0.930 . S
C2643 C2642 1.394 . S
C2643 C2644 1.383 . S
C2643 H2651 0.929 . S
C2644 C2643 1.383 . S
C2644 C2645 1.377 . S
C2645 H2629 0.930 . S
C2645 C2644 1.377 . S
C2645 C2646 1.379 . S
C2646 H2630 0.931 . S
C2646 C2640 1.383 . S
C2646 C2645 1.379 . S
H2647 C2641 0.959 . S
H2648 C2641 0.961 . S
H2649 C2641 0.960 . S
H2650 C2642 0.930 . S
H2651 C2643 0.929 . S
H2652 C2660 0.929 . S
H2653 C2662 0.930 . S
H2654 C2664 0.930 . S
H2655 C2667 0.929 . S
H2656 C2670 0.930 . S
H2657 C2672 0.960 . S
H2658 C2672 0.960 . S
H2659 C2672 0.960 . S
C2660 H2652 0.929 . S
C2660 C2661 1.377 . S
C2660 C2662 1.384 . S
C2661 C2660 1.377 . S
C2661 C2667 1.390 . S
C2662 H2653 0.930 . S
C2662 C2660 1.384 . S
C2662 C2663 1.372 . S
C2663 C2662 1.372 . S
C2663 C2664 1.400 . S
C2663 C2668 1.490 . S
C2664 H2654 0.930 . S
C2664 C2663 1.400 . S
C2664 C2667 1.386 . S
H2665 C2681 0.930 . S
H2666 C2682 0.931 . S
C2667 H2655 0.929 . S
C2667 C2661 1.390 . S
C2667 C2664 1.386 . S
C2668 C2663 1.490 . S
C2668 C2670 1.395 . S
C2668 C2671 1.403 . S
H2669 C2675 0.930 . S
C2670 H2656 0.930 . S
C2670 C2668 1.395 . S
C2670 C2673 1.403 . S
C2671 C2668 1.403 . S
C2671 C2672 1.524 . S
C2671 C2675 1.400 . S
C2672 H2657 0.960 . S
C2672 H2658 0.960 . S
C2672 H2659 0.960 . S
C2672 C2671 1.524 . S
C2673 C2670 1.403 . S
C2673 C2674 1.392 . S
C2673 C2677 1.495 . S
C2674 C2673 1.392 . S
C2674 C2675 1.385 . S
C2674 C2676 1.478 . S
C2675 H2669 0.930 . S
C2675 C2671 1.400 . S
C2675 C2674 1.385 . S
C2676 C2674 1.478 . S
C2676 C2678 1.381 . S
C2676 C2682 1.383 . S
C2677 C2673 1.495 . S
C2677 H2683 0.959 . S
C2677 H2684 0.961 . S
C2677 H2685 0.960 . S
C2678 C2676 1.381 . S
C2678 C2679 1.394 . S
C2678 H2686 0.930 . S
C2679 C2678 1.394 . S
C2679 C2680 1.383 . S
C2679 H2687 0.929 . S
C2680 C2679 1.383 . S
C2680 C2681 1.377 . S
C2681 H2665 0.930 . S
C2681 C2680 1.377 . S
C2681 C2682 1.379 . S
C2682 H2666 0.931 . S
C2682 C2676 1.383 . S
C2682 C2681 1.379 . S
H2683 C2677 0.959 . S
H2684 C2677 0.961 . S
H2685 C2677 0.960 . S
H2686 C2678 0.930 . S
H2687 C2679 0.929 . S
H2688 C2696 0.929 . S
H2689 C2698 0.930 . S
H2690 C2700 0.930 . S
H2691 C2703 0.929 . S
H2692 C2706 0.930 . S
H2693 C2708 0.960 . S
H2694 C2708 0.960 . S
H2695 C2708 0.960 . S
C2696 H2688 0.929 . S
C2696 C2697 1.377 . S
C2696 C2698 1.384 . S
C2697 C2696 1.377 . S
C2697 C2703 1.390 . S
C2698 H2689 0.930 . S
C2698 C2696 1.384 . S
C2698 C2699 1.372 . S
C2699 C2698 1.372 . S
C2699 C2700 1.400 . S
C2699 C2704 1.490 . S
C2700 H2690 0.930 . S
C2700 C2699 1.400 . S
C2700 C2703 1.386 . S
H2701 C2717 0.930 1_554 S
H2702 C2718 0.931 . S
C2703 H2691 0.929 . S
C2703 C2697 1.390 . S
C2703 C2700 1.386 . S
C2704 C2699 1.490 . S
C2704 C2706 1.395 . S
C2704 C2707 1.403 . S
H2705 C2711 0.930 . S
C2706 H2692 0.930 . S
C2706 C2704 1.395 . S
C2706 C2709 1.403 . S
C2707 C2704 1.403 . S
C2707 C2708 1.524 . S
C2707 C2711 1.400 . S
C2708 H2693 0.960 . S
C2708 H2694 0.960 . S
C2708 H2695 0.960 . S
C2708 C2707 1.524 . S
C2709 C2706 1.403 . S
C2709 C2710 1.392 . S
C2709 C2713 1.495 . S
C2710 C2709 1.392 . S
C2710 C2711 1.385 . S
C2710 C2712 1.478 . S
C2711 H2705 0.930 . S
C2711 C2707 1.400 . S
C2711 C2710 1.385 . S
C2712 C2710 1.478 . S
C2712 C2714 1.381 . S
C2712 C2718 1.383 . S
C2713 C2709 1.495 . S
C2713 H2719 0.959 . S
C2713 H2720 0.961 . S
C2713 H2721 0.960 . S
C2714 C2712 1.381 . S
C2714 C2715 1.394 . S
C2714 H2722 0.930 . S
C2715 C2714 1.394 . S
C2715 C2716 1.383 . S
C2715 H2723 0.929 . S
C2716 C2715 1.383 . S
C2716 C2717 1.377 . S
C2717 H2701 0.930 1_556 S
C2717 C2716 1.377 . S
C2717 C2718 1.379 . S
C2718 H2702 0.931 . S
C2718 C2712 1.383 . S
C2718 C2717 1.379 . S
H2719 C2713 0.959 . S
H2720 C2713 0.961 . S
H2721 C2713 0.960 . S
H2722 C2714 0.930 . S
H2723 C2715 0.929 . S
H2724 C2732 0.929 . S
H2725 C2734 0.930 . S
H2726 C2736 0.930 . S
H2727 C2739 0.929 . S
H2728 C2742 0.930 . S
H2729 C2744 0.960 . S
H2730 C2744 0.960 . S
H2731 C2744 0.960 . S
C2732 H2724 0.929 . S
C2732 C2733 1.377 . S
C2732 C2734 1.384 . S
C2733 C2732 1.377 . S
C2733 C2739 1.390 . S
C2734 H2725 0.930 . S
C2734 C2732 1.384 . S
C2734 C2735 1.372 . S
C2735 C2734 1.372 . S
C2735 C2736 1.400 . S
C2735 C2740 1.490 . S
C2736 H2726 0.930 . S
C2736 C2735 1.400 . S
C2736 C2739 1.386 . S
H2737 C2753 0.930 . S
H2738 C2754 0.931 . S
C2739 H2727 0.929 . S
C2739 C2733 1.390 . S
C2739 C2736 1.386 . S
C2740 C2735 1.490 . S
C2740 C2742 1.395 . S
C2740 C2743 1.403 . S
H2741 C2747 0.930 . S
C2742 H2728 0.930 . S
C2742 C2740 1.395 . S
C2742 C2745 1.403 . S
C2743 C2740 1.403 . S
C2743 C2744 1.524 . S
C2743 C2747 1.400 . S
C2744 H2729 0.960 . S
C2744 H2730 0.960 . S
C2744 H2731 0.960 . S
C2744 C2743 1.524 . S
C2745 C2742 1.403 . S
C2745 C2746 1.392 . S
C2745 C2749 1.495 . S
C2746 C2745 1.392 . S
C2746 C2747 1.385 . S
C2746 C2748 1.478 . S
C2747 H2741 0.930 . S
C2747 C2743 1.400 . S
C2747 C2746 1.385 . S
C2748 C2746 1.478 . S
C2748 C2750 1.381 . S
C2748 C2754 1.383 . S
C2749 C2745 1.495 . S
C2749 H2755 0.959 . S
C2749 H2756 0.961 . S
C2749 H2757 0.960 . S
C2750 C2748 1.381 . S
C2750 C2751 1.394 . S
C2750 H2758 0.930 . S
C2751 C2750 1.394 . S
C2751 C2752 1.383 . S
C2751 H2759 0.929 . S
C2752 C2751 1.383 . S
C2752 C2753 1.377 . S
C2753 H2737 0.930 . S
C2753 C2752 1.377 . S
C2753 C2754 1.379 . S
C2754 H2738 0.931 . S
C2754 C2748 1.383 . S
C2754 C2753 1.379 . S
H2755 C2749 0.959 . S
H2756 C2749 0.961 . S
H2757 C2749 0.960 . S
H2758 C2750 0.930 . S
H2759 C2751 0.929 . S
H2760 C2768 0.929 . S
H2761 C2770 0.930 . S
H2762 C2772 0.930 . S
H2763 C2775 0.929 . S
H2764 C2778 0.930 . S
H2765 C2780 0.960 . S
H2766 C2780 0.960 . S
H2767 C2780 0.960 . S
C2768 H2760 0.929 . S
C2768 C2769 1.377 . S
C2768 C2770 1.384 . S
C2769 C2768 1.377 . S
C2769 C2775 1.390 . S
C2770 H2761 0.930 . S
C2770 C2768 1.384 . S
C2770 C2771 1.372 . S
C2771 C2770 1.372 . S
C2771 C2772 1.400 . S
C2771 C2776 1.490 . S
C2772 H2762 0.930 . S
C2772 C2771 1.400 . S
C2772 C2775 1.386 . S
H2773 C2789 0.930 . S
H2774 C2790 0.931 . S
C2775 H2763 0.929 . S
C2775 C2769 1.390 . S
C2775 C2772 1.386 . S
C2776 C2771 1.490 . S
C2776 C2778 1.395 . S
C2776 C2779 1.403 . S
H2777 C2783 0.930 . S
C2778 H2764 0.930 . S
C2778 C2776 1.395 . S
C2778 C2781 1.403 . S
C2779 C2776 1.403 . S
C2779 C2780 1.524 . S
C2779 C2783 1.400 . S
C2780 H2765 0.960 . S
C2780 H2766 0.960 . S
C2780 H2767 0.960 . S
C2780 C2779 1.524 . S
C2781 C2778 1.403 . S
C2781 C2782 1.392 . S
C2781 C2785 1.495 . S
C2782 C2781 1.392 . S
C2782 C2783 1.385 . S
C2782 C2784 1.478 . S
C2783 H2777 0.930 . S
C2783 C2779 1.400 . S
C2783 C2782 1.385 . S
C2784 C2782 1.478 . S
C2784 C2786 1.381 . S
C2784 C2790 1.383 . S
C2785 C2781 1.495 . S
C2785 H2791 0.959 . S
C2785 H2792 0.961 . S
C2785 H2793 0.960 . S
C2786 C2784 1.381 . S
C2786 C2787 1.394 . S
C2786 H2794 0.930 . S
C2787 C2786 1.394 . S
C2787 C2788 1.383 . S
C2787 H2795 0.929 . S
C2788 C2787 1.383 . S
C2788 C2789 1.377 . S
C2789 H2773 0.930 . S
C2789 C2788 1.377 . S
C2789 C2790 1.379 . S
C2790 H2774 0.931 . S
C2790 C2784 1.383 . S
C2790 C2789 1.379 . S
H2791 C2785 0.959 . S
H2792 C2785 0.961 . S
H2793 C2785 0.960 . S
H2794 C2786 0.930 . S
H2795 C2787 0.929 . S
H2796 C2804 0.929 . S
H2797 C2806 0.930 . S
H2798 C2808 0.930 . S
H2799 C2811 0.929 . S
H2800 C2814 0.930 . S
H2801 C2816 0.960 . S
H2802 C2816 0.960 . S
H2803 C2816 0.960 . S
C2804 H2796 0.929 . S
C2804 C2805 1.377 . S
C2804 C2806 1.384 . S
C2805 C2804 1.377 . S
C2805 C2811 1.390 . S
C2806 H2797 0.930 . S
C2806 C2804 1.384 . S
C2806 C2807 1.372 . S
C2807 C2806 1.372 . S
C2807 C2808 1.400 . S
C2807 C2812 1.490 . S
C2808 H2798 0.930 . S
C2808 C2807 1.400 . S
C2808 C2811 1.386 . S
H2809 C2825 0.930 . S
H2810 C2826 0.931 . S
C2811 H2799 0.929 . S
C2811 C2805 1.390 . S
C2811 C2808 1.386 . S
C2812 C2807 1.490 . S
C2812 C2814 1.395 . S
C2812 C2815 1.403 . S
H2813 C2819 0.930 . S
C2814 H2800 0.930 . S
C2814 C2812 1.395 . S
C2814 C2817 1.403 . S
C2815 C2812 1.403 . S
C2815 C2816 1.524 . S
C2815 C2819 1.400 . S
C2816 H2801 0.960 . S
C2816 H2802 0.960 . S
C2816 H2803 0.960 . S
C2816 C2815 1.524 . S
C2817 C2814 1.403 . S
C2817 C2818 1.392 . S
C2817 C2821 1.495 . S
C2818 C2817 1.392 . S
C2818 C2819 1.385 . S
C2818 C2820 1.478 . S
C2819 H2813 0.930 . S
C2819 C2815 1.400 . S
C2819 C2818 1.385 . S
C2820 C2818 1.478 . S
C2820 C2822 1.381 . S
C2820 C2826 1.383 . S
C2821 C2817 1.495 . S
C2821 H2827 0.959 . S
C2821 H2828 0.961 . S
C2821 H2829 0.960 . S
C2822 C2820 1.381 . S
C2822 C2823 1.394 . S
C2822 H2830 0.930 . S
C2823 C2822 1.394 . S
C2823 C2824 1.383 . S
C2823 H2831 0.929 . S
C2824 C2823 1.383 . S
C2824 C2825 1.377 . S
C2825 H2809 0.930 . S
C2825 C2824 1.377 . S
C2825 C2826 1.379 . S
C2826 H2810 0.931 . S
C2826 C2820 1.383 . S
C2826 C2825 1.379 . S
H2827 C2821 0.959 . S
H2828 C2821 0.961 . S
H2829 C2821 0.960 . S
H2830 C2822 0.930 . S
H2831 C2823 0.929 . S
H2832 C2840 0.929 . S
H2833 C2842 0.930 . S
H2834 C2844 0.930 . S
H2835 C2847 0.929 . S
H2836 C2850 0.930 . S
H2837 C2852 0.960 . S
H2838 C2852 0.960 . S
H2839 C2852 0.960 . S
C2840 H2832 0.929 . S
C2840 C2841 1.377 . S
C2840 C2842 1.384 . S
C2841 C2840 1.377 . S
C2841 C2847 1.390 . S
C2842 H2833 0.930 . S
C2842 C2840 1.384 . S
C2842 C2843 1.372 . S
C2843 C2842 1.372 . S
C2843 C2844 1.400 . S
C2843 C2848 1.490 . S
C2844 H2834 0.930 . S
C2844 C2843 1.400 . S
C2844 C2847 1.386 . S
H2845 C2861 0.930 . S
H2846 C2862 0.931 . S
C2847 H2835 0.929 . S
C2847 C2841 1.390 . S
C2847 C2844 1.386 . S
C2848 C2843 1.490 . S
C2848 C2850 1.395 . S
C2848 C2851 1.403 . S
H2849 C2855 0.930 . S
C2850 H2836 0.930 . S
C2850 C2848 1.395 . S
C2850 C2853 1.403 . S
C2851 C2848 1.403 . S
C2851 C2852 1.524 . S
C2851 C2855 1.400 . S
C2852 H2837 0.960 . S
C2852 H2838 0.960 . S
C2852 H2839 0.960 . S
C2852 C2851 1.524 . S
C2853 C2850 1.403 . S
C2853 C2854 1.392 . S
C2853 C2857 1.495 . S
C2854 C2853 1.392 . S
C2854 C2855 1.385 . S
C2854 C2856 1.478 . S
C2855 H2849 0.930 . S
C2855 C2851 1.400 . S
C2855 C2854 1.385 . S
C2856 C2854 1.478 . S
C2856 C2858 1.381 . S
C2856 C2862 1.383 . S
C2857 C2853 1.495 . S
C2857 H2863 0.959 . S
C2857 H2864 0.961 . S
C2857 H2865 0.960 . S
C2858 C2856 1.381 . S
C2858 C2859 1.394 . S
C2858 H2866 0.930 . S
C2859 C2858 1.394 . S
C2859 C2860 1.383 . S
C2859 H2867 0.929 . S
C2860 C2859 1.383 . S
C2860 C2861 1.377 . S
C2861 H2845 0.930 . S
C2861 C2860 1.377 . S
C2861 C2862 1.379 . S
C2862 H2846 0.931 . S
C2862 C2856 1.383 . S
C2862 C2861 1.379 . S
H2863 C2857 0.959 . S
H2864 C2857 0.961 . S
H2865 C2857 0.960 . S
H2866 C2858 0.930 . S
H2867 C2859 0.929 . S
H2868 C2876 0.929 1_554 S
H2869 C2878 0.930 . S
H2870 C2880 0.930 . S
H2871 C2883 0.929 . S
H2872 C2886 0.930 . S
H2873 C2888 0.960 . S
H2874 C2888 0.960 . S
H2875 C2888 0.960 . S
C2876 H2868 0.929 1_556 S
C2876 C2877 1.377 . S
C2876 C2878 1.384 . S
C2877 C2876 1.377 . S
C2877 C2883 1.390 . S
C2878 H2869 0.930 . S
C2878 C2876 1.384 . S
C2878 C2879 1.372 . S
C2879 C2878 1.372 . S
C2879 C2880 1.400 . S
C2879 C2884 1.490 . S
C2880 H2870 0.930 . S
C2880 C2879 1.400 . S
C2880 C2883 1.386 . S
H2881 C2897 0.930 . S
H2882 C2898 0.931 . S
C2883 H2871 0.929 . S
C2883 C2877 1.390 . S
C2883 C2880 1.386 . S
C2884 C2879 1.490 . S
C2884 C2886 1.395 . S
C2884 C2887 1.403 . S
H2885 C2891 0.930 . S
C2886 H2872 0.930 . S
C2886 C2884 1.395 . S
C2886 C2889 1.403 . S
C2887 C2884 1.403 . S
C2887 C2888 1.524 . S
C2887 C2891 1.400 . S
C2888 H2873 0.960 . S
C2888 H2874 0.960 . S
C2888 H2875 0.960 . S
C2888 C2887 1.524 . S
C2889 C2886 1.403 . S
C2889 C2890 1.392 . S
C2889 C2893 1.495 . S
C2890 C2889 1.392 . S
C2890 C2891 1.385 . S
C2890 C2892 1.478 . S
C2891 H2885 0.930 . S
C2891 C2887 1.400 . S
C2891 C2890 1.385 . S
C2892 C2890 1.478 . S
C2892 C2894 1.381 . S
C2892 C2898 1.383 . S
C2893 C2889 1.495 . S
C2893 H2899 0.959 . S
C2893 H2900 0.961 . S
C2893 H2901 0.960 . S
C2894 C2892 1.381 . S
C2894 C2895 1.394 . S
C2894 H2902 0.930 . S
C2895 C2894 1.394 . S
C2895 C2896 1.383 . S
C2895 H2903 0.929 . S
C2896 C2895 1.383 . S
C2896 C2897 1.377 . S
C2897 H2881 0.930 . S
C2897 C2896 1.377 . S
C2897 C2898 1.379 . S
C2898 H2882 0.931 . S
C2898 C2892 1.383 . S
C2898 C2897 1.379 . S
H2899 C2893 0.959 . S
H2900 C2893 0.961 . S
H2901 C2893 0.960 . S
H2902 C2894 0.930 . S
H2903 C2895 0.929 . S
H2904 C2912 0.929 . S
H2905 C2914 0.930 . S
H2906 C2916 0.930 . S
H2907 C2919 0.929 . S
H2908 C2922 0.930 . S
H2909 C2924 0.960 . S
H2910 C2924 0.960 . S
H2911 C2924 0.960 . S
C2912 H2904 0.929 . S
C2912 C2913 1.377 . S
C2912 C2914 1.384 . S
C2913 C2912 1.377 . S
C2913 C2919 1.390 . S
C2914 H2905 0.930 . S
C2914 C2912 1.384 . S
C2914 C2915 1.372 . S
C2915 C2914 1.372 . S
C2915 C2916 1.400 . S
C2915 C2920 1.490 . S
C2916 H2906 0.930 . S
C2916 C2915 1.400 . S
C2916 C2919 1.386 . S
H2917 C2933 0.930 . S
H2918 C2934 0.931 . S
C2919 H2907 0.929 . S
C2919 C2913 1.390 . S
C2919 C2916 1.386 . S
C2920 C2915 1.490 . S
C2920 C2922 1.395 . S
C2920 C2923 1.403 . S
H2921 C2927 0.930 . S
C2922 H2908 0.930 . S
C2922 C2920 1.395 . S
C2922 C2925 1.403 . S
C2923 C2920 1.403 . S
C2923 C2924 1.524 . S
C2923 C2927 1.400 . S
C2924 H2909 0.960 . S
C2924 H2910 0.960 . S
C2924 H2911 0.960 . S
C2924 C2923 1.524 . S
C2925 C2922 1.403 . S
C2925 C2926 1.392 . S
C2925 C2929 1.495 . S
C2926 C2925 1.392 . S
C2926 C2927 1.385 . S
C2926 C2928 1.478 . S
C2927 H2921 0.930 . S
C2927 C2923 1.400 . S
C2927 C2926 1.385 . S
C2928 C2926 1.478 . S
C2928 C2930 1.381 . S
C2928 C2934 1.383 . S
C2929 C2925 1.495 . S
C2929 H2935 0.959 . S
C2929 H2936 0.961 . S
C2929 H2937 0.960 . S
C2930 C2928 1.381 . S
C2930 C2931 1.394 . S
C2930 H2938 0.930 . S
C2931 C2930 1.394 . S
C2931 C2932 1.383 . S
C2931 H2939 0.929 . S
C2932 C2931 1.383 . S
C2932 C2933 1.377 1_655 S
C2933 H2917 0.930 . S
C2933 C2932 1.377 1_455 S
C2933 C2934 1.379 1_455 S
C2934 H2918 0.931 . S
C2934 C2928 1.383 . S
C2934 C2933 1.379 1_655 S
H2935 C2929 0.959 . S
H2936 C2929 0.961 . S
H2937 C2929 0.960 . S
H2938 C2930 0.930 . S
H2939 C2931 0.929 . S
H2940 C2948 0.929 . S
H2941 C2950 0.930 . S
H2942 C2952 0.930 . S
H2943 C2955 0.929 . S
H2944 C2958 0.930 . S
H2945 C2960 0.960 . S
H2946 C2960 0.960 . S
H2947 C2960 0.960 . S
C2948 H2940 0.929 . S
C2948 C2949 1.377 . S
C2948 C2950 1.384 . S
C2949 C2948 1.377 . S
C2949 C2955 1.390 . S
C2950 H2941 0.930 . S
C2950 C2948 1.384 . S
C2950 C2951 1.372 . S
C2951 C2950 1.372 . S
C2951 C2952 1.400 . S
C2951 C2956 1.490 . S
C2952 H2942 0.930 . S
C2952 C2951 1.400 . S
C2952 C2955 1.386 . S
H2953 C2969 0.930 . S
H2954 C2970 0.931 . S
C2955 H2943 0.929 . S
C2955 C2949 1.390 . S
C2955 C2952 1.386 . S
C2956 C2951 1.490 . S
C2956 C2958 1.395 . S
C2956 C2959 1.403 . S
H2957 C2963 0.930 . S
C2958 H2944 0.930 . S
C2958 C2956 1.395 . S
C2958 C2961 1.403 . S
C2959 C2956 1.403 . S
C2959 C2960 1.524 . S
C2959 C2963 1.400 . S
C2960 H2945 0.960 . S
C2960 H2946 0.960 . S
C2960 H2947 0.960 . S
C2960 C2959 1.524 . S
C2961 C2958 1.403 . S
C2961 C2962 1.392 . S
C2961 C2965 1.495 . S
C2962 C2961 1.392 . S
C2962 C2963 1.385 . S
C2962 C2964 1.478 . S
C2963 H2957 0.930 . S
C2963 C2959 1.400 . S
C2963 C2962 1.385 . S
C2964 C2962 1.478 . S
C2964 C2966 1.381 . S
C2964 C2970 1.383 . S
C2965 C2961 1.495 . S
C2965 H2971 0.959 . S
C2965 H2972 0.961 . S
C2965 H2973 0.960 . S
C2966 C2964 1.381 . S
C2966 C2967 1.394 . S
C2966 H2974 0.930 . S
C2967 C2966 1.394 . S
C2967 C2968 1.383 . S
C2967 H2975 0.929 . S
C2968 C2967 1.383 . S
C2968 C2969 1.377 . S
C2969 H2953 0.930 . S
C2969 C2968 1.377 . S
C2969 C2970 1.379 . S
C2970 H2954 0.931 . S
C2970 C2964 1.383 . S
C2970 C2969 1.379 . S
H2971 C2965 0.959 . S
H2972 C2965 0.961 . S
H2973 C2965 0.960 . S
H2974 C2966 0.930 . S
H2975 C2967 0.929 . S
H2976 C2984 0.929 . S
H2977 C2986 0.930 . S
H2978 C2988 0.930 . S
H2979 C2991 0.929 . S
H2980 C2994 0.930 . S
H2981 C2996 0.960 . S
H2982 C2996 0.960 . S
H2983 C2996 0.960 . S
C2984 H2976 0.929 . S
C2984 C2985 1.377 . S
C2984 C2986 1.384 . S
C2985 C2984 1.377 . S
C2985 C2991 1.390 . S
C2986 H2977 0.930 . S
C2986 C2984 1.384 . S
C2986 C2987 1.372 . S
C2987 C2986 1.372 . S
C2987 C2988 1.400 . S
C2987 C2992 1.490 . S
C2988 H2978 0.930 . S
C2988 C2987 1.400 . S
C2988 C2991 1.386 . S
H2989 C3005 0.930 . S
H2990 C3006 0.931 . S
C2991 H2979 0.929 . S
C2991 C2985 1.390 . S
C2991 C2988 1.386 . S
C2992 C2987 1.490 . S
C2992 C2994 1.395 . S
C2992 C2995 1.403 . S
H2993 C2999 0.930 . S
C2994 H2980 0.930 . S
C2994 C2992 1.395 . S
C2994 C2997 1.403 . S
C2995 C2992 1.403 . S
C2995 C2996 1.524 . S
C2995 C2999 1.400 . S
C2996 H2981 0.960 . S
C2996 H2982 0.960 . S
C2996 H2983 0.960 . S
C2996 C2995 1.524 . S
C2997 C2994 1.403 . S
C2997 C2998 1.392 . S
C2997 C3001 1.495 . S
C2998 C2997 1.392 . S
C2998 C2999 1.385 . S
C2998 C3000 1.478 . S
C2999 H2993 0.930 . S
C2999 C2995 1.400 . S
C2999 C2998 1.385 . S
C3000 C2998 1.478 . S
C3000 C3002 1.381 . S
C3000 C3006 1.383 . S
C3001 C2997 1.495 . S
C3001 H3007 0.959 . S
C3001 H3008 0.961 . S
C3001 H3009 0.960 . S
C3002 C3000 1.381 . S
C3002 C3003 1.394 . S
C3002 H3010 0.930 . S
C3003 C3002 1.394 . S
C3003 C3004 1.383 . S
C3003 H3011 0.929 . S
C3004 C3003 1.383 . S
C3004 C3005 1.377 . S
C3005 H2989 0.930 . S
C3005 C3004 1.377 . S
C3005 C3006 1.379 . S
C3006 H2990 0.931 . S
C3006 C3000 1.383 . S
C3006 C3005 1.379 . S
H3007 C3001 0.959 . S
H3008 C3001 0.961 . S
H3009 C3001 0.960 . S
H3010 C3002 0.930 . S
H3011 C3003 0.929 . S
H3012 C3020 0.929 . S
H3013 C3022 0.930 . S
H3014 C3024 0.930 . S
H3015 C3027 0.929 . S
H3016 C3030 0.930 . S
H3017 C3032 0.960 . S
H3018 C3032 0.960 . S
H3019 C3032 0.960 . S
C3020 H3012 0.929 . S
C3020 C3021 1.377 . S
C3020 C3022 1.384 . S
C3021 C3020 1.377 . S
C3021 C3027 1.390 . S
C3022 H3013 0.930 . S
C3022 C3020 1.384 . S
C3022 C3023 1.372 . S
C3023 C3022 1.372 . S
C3023 C3024 1.400 . S
C3023 C3028 1.490 . S
C3024 H3014 0.930 . S
C3024 C3023 1.400 . S
C3024 C3027 1.386 . S
H3025 C3041 0.930 . S
H3026 C3042 0.931 . S
C3027 H3015 0.929 . S
C3027 C3021 1.390 . S
C3027 C3024 1.386 . S
C3028 C3023 1.490 . S
C3028 C3030 1.395 . S
C3028 C3031 1.403 . S
H3029 C3035 0.930 . S
C3030 H3016 0.930 . S
C3030 C3028 1.395 . S
C3030 C3033 1.403 . S
C3031 C3028 1.403 . S
C3031 C3032 1.524 . S
C3031 C3035 1.400 . S
C3032 H3017 0.960 . S
C3032 H3018 0.960 . S
C3032 H3019 0.960 . S
C3032 C3031 1.524 . S
C3033 C3030 1.403 . S
C3033 C3034 1.392 . S
C3033 C3037 1.495 . S
C3034 C3033 1.392 . S
C3034 C3035 1.385 . S
C3034 C3036 1.478 . S
C3035 H3029 0.930 . S
C3035 C3031 1.400 . S
C3035 C3034 1.385 . S
C3036 C3034 1.478 . S
C3036 C3038 1.381 . S
C3036 C3042 1.383 . S
C3037 C3033 1.495 . S
C3037 H3043 0.959 . S
C3037 H3044 0.961 . S
C3037 H3045 0.960 . S
C3038 C3036 1.381 . S
C3038 C3039 1.394 . S
C3038 H3046 0.930 . S
C3039 C3038 1.394 . S
C3039 C3040 1.383 . S
C3039 H3047 0.929 . S
C3040 C3039 1.383 . S
C3040 C3041 1.377 . S
C3041 H3025 0.930 . S
C3041 C3040 1.377 . S
C3041 C3042 1.379 . S
C3042 H3026 0.931 . S
C3042 C3036 1.383 . S
C3042 C3041 1.379 . S
H3043 C3037 0.959 . S
H3044 C3037 0.961 . S
H3045 C3037 0.960 . S
H3046 C3038 0.930 . S
H3047 C3039 0.929 . S
H3048 C3056 0.929 . S
H3049 C3058 0.930 . S
H3050 C3060 0.930 . S
H3051 C3063 0.929 . S
H3052 C3066 0.930 . S
H3053 C3068 0.960 . S
H3054 C3068 0.960 . S
H3055 C3068 0.960 . S
C3056 H3048 0.929 . S
C3056 C3057 1.377 . S
C3056 C3058 1.384 . S
C3057 C3056 1.377 . S
C3057 C3063 1.390 . S
C3058 H3049 0.930 . S
C3058 C3056 1.384 . S
C3058 C3059 1.372 . S
C3059 C3058 1.372 . S
C3059 C3060 1.400 . S
C3059 C3064 1.490 . S
C3060 H3050 0.930 . S
C3060 C3059 1.400 . S
C3060 C3063 1.386 . S
H3061 C3077 0.930 1_455 S
H3062 C3078 0.931 . S
C3063 H3051 0.929 . S
C3063 C3057 1.390 . S
C3063 C3060 1.386 . S
C3064 C3059 1.490 . S
C3064 C3066 1.395 . S
C3064 C3067 1.403 . S
H3065 C3071 0.930 . S
C3066 H3052 0.930 . S
C3066 C3064 1.395 . S
C3066 C3069 1.403 . S
C3067 C3064 1.403 . S
C3067 C3068 1.524 . S
C3067 C3071 1.400 . S
C3068 H3053 0.960 . S
C3068 H3054 0.960 . S
C3068 H3055 0.960 . S
C3068 C3067 1.524 . S
C3069 C3066 1.403 . S
C3069 C3070 1.392 . S
C3069 C3073 1.495 . S
C3070 C3069 1.392 . S
C3070 C3071 1.385 . S
C3070 C3072 1.478 . S
C3071 H3065 0.930 . S
C3071 C3067 1.400 . S
C3071 C3070 1.385 . S
C3072 C3070 1.478 . S
C3072 C3074 1.381 . S
C3072 C3078 1.383 . S
C3073 C3069 1.495 . S
C3073 H3079 0.959 . S
C3073 H3080 0.961 . S
C3073 H3081 0.960 . S
C3074 C3072 1.381 . S
C3074 C3075 1.394 . S
C3074 H3082 0.930 . S
C3075 C3074 1.394 . S
C3075 C3076 1.383 . S
C3075 H3083 0.929 . S
C3076 C3075 1.383 . S
C3076 C3077 1.377 . S
C3077 H3061 0.930 1_655 S
C3077 C3076 1.377 . S
C3077 C3078 1.379 . S
C3078 H3062 0.931 . S
C3078 C3072 1.383 . S
C3078 C3077 1.379 . S
H3079 C3073 0.959 . S
H3080 C3073 0.961 . S
H3081 C3073 0.960 . S
H3082 C3074 0.930 . S
H3083 C3075 0.929 . S
H3084 C3092 0.929 . S
H3085 C3094 0.930 . S
H3086 C3096 0.930 . S
H3087 C3099 0.929 . S
H3088 C3102 0.930 . S
H3089 C3104 0.960 . S
H3090 C3104 0.960 . S
H3091 C3104 0.960 . S
C3092 H3084 0.929 . S
C3092 C3093 1.377 . S
C3092 C3094 1.384 . S
C3093 C3092 1.377 . S
C3093 C3099 1.390 . S
C3094 H3085 0.930 . S
C3094 C3092 1.384 . S
C3094 C3095 1.372 . S
C3095 C3094 1.372 . S
C3095 C3096 1.400 . S
C3095 C3100 1.490 . S
C3096 H3086 0.930 . S
C3096 C3095 1.400 . S
C3096 C3099 1.386 . S
H3097 C3113 0.930 . S
H3098 C3114 0.931 . S
C3099 H3087 0.929 . S
C3099 C3093 1.390 . S
C3099 C3096 1.386 . S
C3100 C3095 1.490 . S
C3100 C3102 1.395 . S
C3100 C3103 1.403 . S
H3101 C3107 0.930 . S
C3102 H3088 0.930 . S
C3102 C3100 1.395 . S
C3102 C3105 1.403 . S
C3103 C3100 1.403 . S
C3103 C3104 1.524 . S
C3103 C3107 1.400 . S
C3104 H3089 0.960 . S
C3104 H3090 0.960 . S
C3104 H3091 0.960 . S
C3104 C3103 1.524 . S
C3105 C3102 1.403 . S
C3105 C3106 1.392 . S
C3105 C3109 1.495 . S
C3106 C3105 1.392 . S
C3106 C3107 1.385 . S
C3106 C3108 1.478 . S
C3107 H3101 0.930 . S
C3107 C3103 1.400 . S
C3107 C3106 1.385 . S
C3108 C3106 1.478 . S
C3108 C3110 1.381 . S
C3108 C3114 1.383 . S
C3109 C3105 1.495 . S
C3109 H3115 0.959 . S
C3109 H3116 0.961 . S
C3109 H3117 0.960 . S
C3110 C3108 1.381 . S
C3110 C3111 1.394 . S
C3110 H3118 0.930 . S
C3111 C3110 1.394 . S
C3111 C3112 1.383 . S
C3111 H3119 0.929 . S
C3112 C3111 1.383 . S
C3112 C3113 1.377 . S
C3113 H3097 0.930 . S
C3113 C3112 1.377 . S
C3113 C3114 1.379 . S
C3114 H3098 0.931 . S
C3114 C3108 1.383 . S
C3114 C3113 1.379 . S
H3115 C3109 0.959 . S
H3116 C3109 0.961 . S
H3117 C3109 0.960 . S
H3118 C3110 0.930 . S
H3119 C3111 0.929 . S
H3120 C3128 0.929 . S
H3121 C3130 0.930 . S
H3122 C3132 0.930 . S
H3123 C3135 0.929 . S
H3124 C3138 0.930 . S
H3125 C3140 0.960 . S
H3126 C3140 0.960 . S
H3127 C3140 0.960 . S
C3128 H3120 0.929 . S
C3128 C3129 1.377 . S
C3128 C3130 1.384 . S
C3129 C3128 1.377 . S
C3129 C3135 1.390 . S
C3130 H3121 0.930 . S
C3130 C3128 1.384 . S
C3130 C3131 1.372 . S
C3131 C3130 1.372 . S
C3131 C3132 1.400 . S
C3131 C3136 1.490 . S
C3132 H3122 0.930 . S
C3132 C3131 1.400 . S
C3132 C3135 1.386 . S
H3133 C3149 0.930 . S
H3134 C3150 0.931 . S
C3135 H3123 0.929 . S
C3135 C3129 1.390 . S
C3135 C3132 1.386 . S
C3136 C3131 1.490 . S
C3136 C3138 1.395 . S
C3136 C3139 1.403 . S
H3137 C3143 0.930 . S
C3138 H3124 0.930 . S
C3138 C3136 1.395 . S
C3138 C3141 1.403 . S
C3139 C3136 1.403 . S
C3139 C3140 1.524 . S
C3139 C3143 1.400 . S
C3140 H3125 0.960 . S
C3140 H3126 0.960 . S
C3140 H3127 0.960 . S
C3140 C3139 1.524 . S
C3141 C3138 1.403 . S
C3141 C3142 1.392 . S
C3141 C3145 1.495 . S
C3142 C3141 1.392 . S
C3142 C3143 1.385 . S
C3142 C3144 1.478 . S
C3143 H3137 0.930 . S
C3143 C3139 1.400 . S
C3143 C3142 1.385 . S
C3144 C3142 1.478 . S
C3144 C3146 1.381 . S
C3144 C3150 1.383 . S
C3145 C3141 1.495 . S
C3145 H3151 0.959 . S
C3145 H3152 0.961 . S
C3145 H3153 0.960 . S
C3146 C3144 1.381 . S
C3146 C3147 1.394 . S
C3146 H3154 0.930 . S
C3147 C3146 1.394 . S
C3147 C3148 1.383 . S
C3147 H3155 0.929 . S
C3148 C3147 1.383 . S
C3148 C3149 1.377 . S
C3149 H3133 0.930 . S
C3149 C3148 1.377 . S
C3149 C3150 1.379 . S
C3150 H3134 0.931 . S
C3150 C3144 1.383 . S
C3150 C3149 1.379 . S
H3151 C3145 0.959 . S
H3152 C3145 0.961 . S
H3153 C3145 0.960 . S
H3154 C3146 0.930 . S
H3155 C3147 0.929 . S
H3156 C3164 0.929 . S
H3157 C3166 0.930 . S
H3158 C3168 0.930 . S
H3159 C3171 0.929 . S
H3160 C3174 0.930 . S
H3161 C3176 0.960 . S
H3162 C3176 0.960 . S
H3163 C3176 0.960 . S
C3164 H3156 0.929 . S
C3164 C3165 1.377 . S
C3164 C3166 1.384 . S
C3165 C3164 1.377 . S
C3165 C3171 1.390 . S
C3166 H3157 0.930 . S
C3166 C3164 1.384 . S
C3166 C3167 1.372 . S
C3167 C3166 1.372 . S
C3167 C3168 1.400 . S
C3167 C3172 1.490 . S
C3168 H3158 0.930 . S
C3168 C3167 1.400 . S
C3168 C3171 1.386 . S
H3169 C3185 0.930 . S
H3170 C3186 0.931 . S
C3171 H3159 0.929 . S
C3171 C3165 1.390 . S
C3171 C3168 1.386 . S
C3172 C3167 1.490 . S
C3172 C3174 1.395 . S
C3172 C3175 1.403 . S
H3173 C3179 0.930 . S
C3174 H3160 0.930 . S
C3174 C3172 1.395 . S
C3174 C3177 1.403 . S
C3175 C3172 1.403 . S
C3175 C3176 1.524 . S
C3175 C3179 1.400 . S
C3176 H3161 0.960 . S
C3176 H3162 0.960 . S
C3176 H3163 0.960 . S
C3176 C3175 1.524 . S
C3177 C3174 1.403 . S
C3177 C3178 1.392 . S
C3177 C3181 1.495 . S
C3178 C3177 1.392 . S
C3178 C3179 1.385 . S
C3178 C3180 1.478 . S
C3179 H3173 0.930 . S
C3179 C3175 1.400 . S
C3179 C3178 1.385 . S
C3180 C3178 1.478 . S
C3180 C3182 1.381 . S
C3180 C3186 1.383 . S
C3181 C3177 1.495 . S
C3181 H3187 0.959 . S
C3181 H3188 0.961 . S
C3181 H3189 0.960 . S
C3182 C3180 1.381 . S
C3182 C3183 1.394 . S
C3182 H3190 0.930 . S
C3183 C3182 1.394 . S
C3183 C3184 1.383 1_565 S
C3183 H3191 0.929 . S
C3184 C3183 1.383 1_545 S
C3184 C3185 1.377 . S
C3185 H3169 0.930 . S
C3185 C3184 1.377 . S
C3185 C3186 1.379 1_545 S
C3186 H3170 0.931 . S
C3186 C3180 1.383 . S
C3186 C3185 1.379 1_565 S
H3187 C3181 0.959 . S
H3188 C3181 0.961 . S
H3189 C3181 0.960 . S
H3190 C3182 0.930 . S
H3191 C3183 0.929 . S
H3192 C3200 0.929 . S
H3193 C3202 0.930 . S
H3194 C3204 0.930 . S
H3195 C3207 0.929 . S
H3196 C3210 0.930 . S
H3197 C3212 0.960 . S
H3198 C3212 0.960 . S
H3199 C3212 0.960 . S
C3200 H3192 0.929 . S
C3200 C3201 1.377 . S
C3200 C3202 1.384 . S
C3201 C3200 1.377 . S
C3201 C3207 1.390 . S
C3202 H3193 0.930 . S
C3202 C3200 1.384 . S
C3202 C3203 1.372 . S
C3203 C3202 1.372 . S
C3203 C3204 1.400 . S
C3203 C3208 1.490 . S
C3204 H3194 0.930 . S
C3204 C3203 1.400 . S
C3204 C3207 1.386 . S
H3205 C3221 0.930 . S
H3206 C3222 0.931 . S
C3207 H3195 0.929 . S
C3207 C3201 1.390 . S
C3207 C3204 1.386 . S
C3208 C3203 1.490 . S
C3208 C3210 1.395 . S
C3208 C3211 1.403 . S
H3209 C3215 0.930 . S
C3210 H3196 0.930 . S
C3210 C3208 1.395 . S
C3210 C3213 1.403 . S
C3211 C3208 1.403 . S
C3211 C3212 1.524 . S
C3211 C3215 1.400 . S
C3212 H3197 0.960 . S
C3212 H3198 0.960 . S
C3212 H3199 0.960 . S
C3212 C3211 1.524 . S
C3213 C3210 1.403 . S
C3213 C3214 1.392 . S
C3213 C3217 1.495 . S
C3214 C3213 1.392 . S
C3214 C3215 1.385 . S
C3214 C3216 1.478 . S
C3215 H3209 0.930 . S
C3215 C3211 1.400 . S
C3215 C3214 1.385 . S
C3216 C3214 1.478 . S
C3216 C3218 1.381 . S
C3216 C3222 1.383 . S
C3217 C3213 1.495 . S
C3217 H3223 0.959 . S
C3217 H3224 0.961 . S
C3217 H3225 0.960 . S
C3218 C3216 1.381 . S
C3218 C3219 1.394 . S
C3218 H3226 0.930 . S
C3219 C3218 1.394 . S
C3219 C3220 1.383 . S
C3219 H3227 0.929 . S
C3220 C3219 1.383 . S
C3220 C3221 1.377 . S
C3221 H3205 0.930 . S
C3221 C3220 1.377 . S
C3221 C3222 1.379 . S
C3222 H3206 0.931 . S
C3222 C3216 1.383 . S
C3222 C3221 1.379 . S
H3223 C3217 0.959 . S
H3224 C3217 0.961 . S
H3225 C3217 0.960 . S
H3226 C3218 0.930 . S
H3227 C3219 0.929 . S
H3228 C3236 0.929 . S
H3229 C3238 0.930 . S
H3230 C3240 0.908 1_556 S
H3231 C3243 0.929 1_556 S
H3232 C3246 0.930 . S
H3233 C3248 0.960 . S
H3234 C3248 0.960 . S
H3235 C3248 0.960 . S
C3236 H3228 0.929 . S
C3236 C3237 1.377 . S
C3236 C3238 1.384 . S
C3237 C3236 1.377 . S
C3237 C3243 1.390 . S
C3238 H3229 0.930 . S
C3238 C3236 1.384 . S
C3238 C3239 1.372 . S
C3239 C3238 1.372 . S
C3239 C3240 1.400 . S
C3239 C3244 1.490 . S
C3240 H3230 0.908 1_554 S
C3240 C3239 1.400 . S
C3240 C3243 1.386 . S
H3241 C3257 0.930 . S
H3242 C3258 0.931 . S
C3243 H3231 0.929 1_554 S
C3243 C3237 1.390 . S
C3243 C3240 1.386 . S
C3244 C3239 1.490 . S
C3244 C3246 1.395 . S
C3244 C3247 1.403 . S
H3245 C3251 0.930 . S
C3246 H3232 0.930 . S
C3246 C3244 1.395 . S
C3246 C3249 1.403 . S
C3247 C3244 1.403 . S
C3247 C3248 1.524 . S
C3247 C3251 1.400 . S
C3248 H3233 0.960 . S
C3248 H3234 0.960 . S
C3248 H3235 0.960 . S
C3248 C3247 1.524 . S
C3249 C3246 1.403 . S
C3249 C3250 1.392 . S
C3249 C3253 1.495 . S
C3250 C3249 1.392 . S
C3250 C3251 1.385 . S
C3250 C3252 1.478 . S
C3251 H3245 0.930 . S
C3251 C3247 1.400 . S
C3251 C3250 1.385 . S
C3252 C3250 1.478 . S
C3252 C3254 1.381 . S
C3252 C3258 1.383 . S
C3253 C3249 1.495 . S
C3253 H3259 0.959 . S
C3253 H3260 0.961 . S
C3253 H3261 0.960 . S
C3254 C3252 1.381 . S
C3254 C3255 1.394 . S
C3254 H3262 0.930 . S
C3255 C3254 1.394 . S
C3255 C3256 1.383 . S
C3255 H3263 0.929 . S
C3256 C3255 1.383 . S
C3256 C3257 1.377 . S
C3257 H3241 0.930 . S
C3257 C3256 1.377 . S
C3257 C3258 1.379 . S
C3258 H3242 0.931 . S
C3258 C3252 1.383 . S
C3258 C3257 1.379 . S
H3259 C3253 0.959 . S
H3260 C3253 0.961 . S
H3261 C3253 0.960 . S
H3262 C3254 0.930 . S
H3263 C3255 0.929 . S
H3264 C3272 0.929 . S
H3265 C3274 0.930 . S
H3266 C3276 0.930 . S
H3267 C3279 0.929 . S
H3268 C3282 0.930 . S
H3269 C3284 0.960 . S
H3270 C3284 0.960 . S
H3271 C3284 0.960 . S
C3272 H3264 0.929 . S
C3272 C3273 1.377 . S
C3272 C3274 1.384 . S
C3273 C3272 1.377 . S
C3273 C3279 1.390 . S
C3274 H3265 0.930 . S
C3274 C3272 1.384 . S
C3274 C3275 1.372 . S
C3275 C3274 1.372 . S
C3275 C3276 1.400 . S
C3275 C3280 1.490 . S
C3276 H3266 0.930 . S
C3276 C3275 1.400 . S
C3276 C3279 1.386 . S
H3277 C3293 0.930 . S
H3278 C3294 0.931 . S
C3279 H3267 0.929 . S
C3279 C3273 1.390 . S
C3279 C3276 1.386 . S
C3280 C3275 1.490 . S
C3280 C3282 1.395 . S
C3280 C3283 1.403 . S
H3281 C3287 0.930 . S
C3282 H3268 0.930 . S
C3282 C3280 1.395 . S
C3282 C3285 1.403 . S
C3283 C3280 1.403 . S
C3283 C3284 1.524 . S
C3283 C3287 1.400 . S
C3284 H3269 0.960 . S
C3284 H3270 0.960 . S
C3284 H3271 0.960 . S
C3284 C3283 1.524 . S
C3285 C3282 1.403 . S
C3285 C3286 1.392 . S
C3285 C3289 1.495 . S
C3286 C3285 1.392 . S
C3286 C3287 1.385 . S
C3286 C3288 1.478 . S
C3287 H3281 0.930 . S
C3287 C3283 1.400 . S
C3287 C3286 1.385 . S
C3288 C3286 1.478 . S
C3288 C3290 1.381 . S
C3288 C3294 1.383 . S
C3289 C3285 1.495 . S
C3289 H3295 0.959 . S
C3289 H3296 0.961 . S
C3289 H3297 0.960 . S
C3290 C3288 1.381 . S
C3290 C3291 1.394 . S
C3290 H3298 0.930 . S
C3291 C3290 1.394 . S
C3291 C3292 1.383 . S
C3291 H3299 0.929 . S
C3292 C3291 1.383 . S
C3292 C3293 1.377 . S
C3293 H3277 0.930 . S
C3293 C3292 1.377 . S
C3293 C3294 1.379 . S
C3294 H3278 0.931 . S
C3294 C3288 1.383 . S
C3294 C3293 1.379 . S
H3295 C3289 0.959 . S
H3296 C3289 0.961 . S
H3297 C3289 0.960 . S
H3298 C3290 0.930 . S
H3299 C3291 0.929 . S
H3300 C3308 0.929 . S
H3301 C3310 0.930 . S
H3302 C3312 0.930 . S
H3303 C3315 0.929 . S
H3304 C3318 0.930 . S
H3305 C3320 0.960 . S
H3306 C3320 0.960 . S
H3307 C3320 0.949 1_554 S
C3308 H3300 0.929 . S
C3308 C3309 1.377 . S
C3308 C3310 1.384 . S
C3309 C3308 1.377 . S
C3309 C3315 1.390 . S
C3310 H3301 0.930 . S
C3310 C3308 1.384 . S
C3310 C3311 1.372 . S
C3311 C3310 1.372 . S
C3311 C3312 1.400 . S
C3311 C3316 1.490 . S
C3312 H3302 0.930 . S
C3312 C3311 1.400 . S
C3312 C3315 1.386 . S
H3313 C3329 0.930 . S
H3314 C3330 0.931 . S
C3315 H3303 0.929 . S
C3315 C3309 1.390 . S
C3315 C3312 1.386 . S
C3316 C3311 1.490 . S
C3316 C3318 1.395 . S
C3316 C3319 1.403 . S
H3317 C3323 0.890 1_556 S
C3318 H3304 0.930 . S
C3318 C3316 1.395 . S
C3318 C3321 1.403 . S
C3319 C3316 1.403 . S
C3319 C3320 1.524 1_554 S
C3319 C3323 1.400 . S
C3320 H3305 0.960 . S
C3320 H3306 0.960 . S
C3320 H3307 0.949 1_556 S
C3320 C3319 1.524 1_556 S
C3321 C3318 1.403 . S
C3321 C3322 1.392 . S
C3321 C3325 1.495 . S
C3322 C3321 1.392 . S
C3322 C3323 1.385 . S
C3322 C3324 1.478 . S
C3323 H3317 0.890 1_554 S
C3323 C3319 1.400 . S
C3323 C3322 1.385 . S
C3324 C3322 1.478 . S
C3324 C3326 1.381 . S
C3324 C3330 1.383 . S
C3325 C3321 1.495 . S
C3325 H3331 0.959 . S
C3325 H3332 0.961 . S
C3325 H3333 0.960 . S
C3326 C3324 1.381 . S
C3326 C3327 1.394 . S
C3326 H3334 0.930 . S
C3327 C3326 1.394 . S
C3327 C3328 1.383 . S
C3327 H3335 0.929 . S
C3328 C3327 1.383 . S
C3328 C3329 1.377 . S
C3329 H3313 0.930 . S
C3329 C3328 1.377 . S
C3329 C3330 1.379 . S
C3330 H3314 0.931 . S
C3330 C3324 1.383 . S
C3330 C3329 1.379 . S
H3331 C3325 0.959 . S
H3332 C3325 0.961 . S
H3333 C3325 0.960 . S
H3334 C3326 0.930 . S
H3335 C3327 0.929 . S
H3336 C3344 0.929 . S
H3337 C3346 0.930 . S
H3338 C3348 0.930 . S
H3339 C3351 0.929 . S
H3340 C3354 0.930 . S
H3341 C3356 0.960 . S
H3342 C3356 0.960 . S
H3343 C3356 0.960 . S
C3344 H3336 0.929 . S
C3344 C3345 1.377 . S
C3344 C3346 1.384 . S
C3345 C3344 1.377 . S
C3345 C3351 1.390 . S
C3346 H3337 0.930 . S
C3346 C3344 1.384 . S
C3346 C3347 1.372 . S
C3347 C3346 1.372 . S
C3347 C3348 1.400 . S
C3347 C3352 1.490 . S
C3348 H3338 0.930 . S
C3348 C3347 1.400 . S
C3348 C3351 1.386 . S
H3349 C3365 0.930 . S
H3350 C3366 0.931 . S
C3351 H3339 0.929 . S
C3351 C3345 1.390 . S
C3351 C3348 1.386 . S
C3352 C3347 1.490 . S
C3352 C3354 1.395 . S
C3352 C3355 1.403 . S
H3353 C3359 0.930 . S
C3354 H3340 0.930 . S
C3354 C3352 1.395 . S
C3354 C3357 1.403 . S
C3355 C3352 1.403 . S
C3355 C3356 1.524 . S
C3355 C3359 1.400 . S
C3356 H3341 0.960 . S
C3356 H3342 0.960 . S
C3356 H3343 0.960 . S
C3356 C3355 1.524 . S
C3357 C3354 1.403 . S
C3357 C3358 1.392 . S
C3357 C3361 1.495 . S
C3358 C3357 1.392 . S
C3358 C3359 1.385 . S
C3358 C3360 1.478 . S
C3359 H3353 0.930 . S
C3359 C3355 1.400 . S
C3359 C3358 1.385 . S
C3360 C3358 1.478 . S
C3360 C3362 1.381 . S
C3360 C3366 1.383 . S
C3361 C3357 1.495 . S
C3361 H3367 0.959 . S
C3361 H3368 0.961 . S
C3361 H3369 0.960 . S
C3362 C3360 1.381 . S
C3362 C3363 1.394 . S
C3362 H3370 0.930 . S
C3363 C3362 1.394 . S
C3363 C3364 1.383 . S
C3363 H3371 0.929 . S
C3364 C3363 1.383 . S
C3364 C3365 1.377 . S
C3365 H3349 0.930 . S
C3365 C3364 1.377 . S
C3365 C3366 1.379 . S
C3366 H3350 0.931 . S
C3366 C3360 1.383 . S
C3366 C3365 1.379 . S
H3367 C3361 0.959 . S
H3368 C3361 0.961 . S
H3369 C3361 0.960 . S
H3370 C3362 0.930 . S
H3371 C3363 0.929 . S
H3372 C3380 0.929 . S
H3373 C3382 0.930 . S
H3374 C3384 0.930 . S
H3375 C3387 0.929 . S
H3376 C3390 0.930 . S
H3377 C3392 0.960 . S
H3378 C3392 0.960 . S
H3379 C3392 0.960 . S
C3380 H3372 0.929 . S
C3380 C3381 1.377 . S
C3380 C3382 1.384 . S
C3381 C3380 1.377 . S
C3381 C3387 1.390 . S
C3382 H3373 0.930 . S
C3382 C3380 1.384 . S
C3382 C3383 1.372 . S
C3383 C3382 1.372 . S
C3383 C3384 1.400 . S
C3383 C3388 1.490 . S
C3384 H3374 0.930 . S
C3384 C3383 1.400 . S
C3384 C3387 1.386 . S
H3385 C3401 0.930 . S
H3386 C3402 0.931 . S
C3387 H3375 0.929 . S
C3387 C3381 1.390 . S
C3387 C3384 1.386 . S
C3388 C3383 1.490 . S
C3388 C3390 1.395 . S
C3388 C3391 1.403 . S
H3389 C3395 0.930 . S
C3390 H3376 0.930 . S
C3390 C3388 1.395 . S
C3390 C3393 1.403 . S
C3391 C3388 1.403 . S
C3391 C3392 1.524 . S
C3391 C3395 1.400 . S
C3392 H3377 0.960 . S
C3392 H3378 0.960 . S
C3392 H3379 0.960 . S
C3392 C3391 1.524 . S
C3393 C3390 1.403 . S
C3393 C3394 1.392 . S
C3393 C3397 1.495 . S
C3394 C3393 1.392 . S
C3394 C3395 1.385 . S
C3394 C3396 1.478 . S
C3395 H3389 0.930 . S
C3395 C3391 1.400 . S
C3395 C3394 1.385 . S
C3396 C3394 1.478 . S
C3396 C3398 1.381 . S
C3396 C3402 1.383 . S
C3397 C3393 1.495 . S
C3397 H3403 0.959 . S
C3397 H3404 0.961 . S
C3397 H3405 0.960 . S
C3398 C3396 1.381 . S
C3398 C3399 1.394 . S
C3398 H3406 0.930 . S
C3399 C3398 1.394 . S
C3399 C3400 1.383 . S
C3399 H3407 0.929 . S
C3400 C3399 1.383 . S
C3400 C3401 1.377 . S
C3401 H3385 0.930 . S
C3401 C3400 1.377 . S
C3401 C3402 1.379 . S
C3402 H3386 0.931 . S
C3402 C3396 1.383 . S
C3402 C3401 1.379 . S
H3403 C3397 0.959 . S
H3404 C3397 0.961 . S
H3405 C3397 0.960 . S
H3406 C3398 0.930 . S
H3407 C3399 0.929 . S
H3408 C3416 0.929 . S
H3409 C3418 0.930 . S
H3410 C3420 0.930 . S
H3411 C3423 0.929 . S
H3412 C3426 0.930 . S
H3413 C3428 0.960 . S
H3414 C3428 0.960 . S
H3415 C3428 0.960 . S
C3416 H3408 0.929 . S
C3416 C3417 1.377 . S
C3416 C3418 1.384 . S
C3417 C3416 1.377 . S
C3417 C3423 1.390 . S
C3418 H3409 0.930 . S
C3418 C3416 1.384 . S
C3418 C3419 1.372 . S
C3419 C3418 1.372 . S
C3419 C3420 1.400 . S
C3419 C3424 1.490 . S
C3420 H3410 0.930 . S
C3420 C3419 1.400 . S
C3420 C3423 1.386 . S
H3421 C3437 0.930 . S
H3422 C3438 0.931 . S
C3423 H3411 0.929 . S
C3423 C3417 1.390 . S
C3423 C3420 1.386 . S
C3424 C3419 1.490 . S
C3424 C3426 1.395 . S
C3424 C3427 1.403 . S
H3425 C3431 0.930 . S
C3426 H3412 0.930 . S
C3426 C3424 1.395 . S
C3426 C3429 1.403 . S
C3427 C3424 1.403 . S
C3427 C3428 1.524 . S
C3427 C3431 1.400 . S
C3428 H3413 0.960 . S
C3428 H3414 0.960 . S
C3428 H3415 0.960 . S
C3428 C3427 1.524 . S
C3429 C3426 1.403 . S
C3429 C3430 1.392 . S
C3429 C3433 1.495 . S
C3430 C3429 1.392 . S
C3430 C3431 1.385 . S
C3430 C3432 1.478 . S
C3431 H3425 0.930 . S
C3431 C3427 1.400 . S
C3431 C3430 1.385 . S
C3432 C3430 1.478 . S
C3432 C3434 1.381 . S
C3432 C3438 1.383 . S
C3433 C3429 1.495 . S
C3433 H3439 0.959 . S
C3433 H3440 0.961 . S
C3433 H3441 0.960 . S
C3434 C3432 1.381 . S
C3434 C3435 1.394 . S
C3434 H3442 0.930 . S
C3435 C3434 1.394 . S
C3435 C3436 1.383 . S
C3435 H3443 0.929 . S
C3436 C3435 1.383 . S
C3436 C3437 1.377 . S
C3437 H3421 0.930 . S
C3437 C3436 1.377 . S
C3437 C3438 1.379 . S
C3438 H3422 0.931 . S
C3438 C3432 1.383 . S
C3438 C3437 1.379 . S
H3439 C3433 0.959 . S
H3440 C3433 0.961 . S
H3441 C3433 0.960 . S
H3442 C3434 0.930 . S
H3443 C3435 0.929 . S
H3444 C3452 0.929 . S
H3445 C3454 0.930 . S
H3446 C3456 0.930 . S
H3447 C3459 0.929 . S
H3448 C3462 0.930 . S
H3449 C3464 0.960 . S
H3450 C3464 0.960 . S
H3451 C3464 0.960 . S
C3452 H3444 0.929 . S
C3452 C3453 1.377 . S
C3452 C3454 1.384 . S
C3453 C3452 1.377 . S
C3453 C3459 1.390 . S
C3454 H3445 0.930 . S
C3454 C3452 1.384 . S
C3454 C3455 1.372 . S
C3455 C3454 1.372 . S
C3455 C3456 1.400 . S
C3455 C3460 1.490 . S
C3456 H3446 0.930 . S
C3456 C3455 1.400 . S
C3456 C3459 1.386 . S
H3457 C3473 0.930 . S
H3458 C3474 0.931 . S
C3459 H3447 0.929 . S
C3459 C3453 1.390 . S
C3459 C3456 1.386 . S
C3460 C3455 1.490 . S
C3460 C3462 1.395 . S
C3460 C3463 1.403 . S
H3461 C3467 0.930 . S
C3462 H3448 0.930 . S
C3462 C3460 1.395 . S
C3462 C3465 1.403 . S
C3463 C3460 1.403 . S
C3463 C3464 1.524 . S
C3463 C3467 1.400 . S
C3464 H3449 0.960 . S
C3464 H3450 0.960 . S
C3464 H3451 0.960 . S
C3464 C3463 1.524 . S
C3465 C3462 1.403 . S
C3465 C3466 1.392 . S
C3465 C3469 1.495 . S
C3466 C3465 1.392 . S
C3466 C3467 1.385 . S
C3466 C3468 1.478 . S
C3467 H3461 0.930 . S
C3467 C3463 1.400 . S
C3467 C3466 1.385 . S
C3468 C3466 1.478 . S
C3468 C3470 1.381 . S
C3468 C3474 1.383 . S
C3469 C3465 1.495 . S
C3469 H3475 0.959 . S
C3469 H3476 0.961 . S
C3469 H3477 0.960 . S
C3470 C3468 1.381 . S
C3470 C3471 1.394 . S
C3470 H3478 0.930 . S
C3471 C3470 1.394 . S
C3471 C3472 1.383 . S
C3471 H3479 0.929 . S
C3472 C3471 1.383 . S
C3472 C3473 1.377 . S
C3473 H3457 0.930 . S
C3473 C3472 1.377 . S
C3473 C3474 1.379 . S
C3474 H3458 0.931 . S
C3474 C3468 1.383 . S
C3474 C3473 1.379 . S
H3475 C3469 0.959 . S
H3476 C3469 0.961 . S
H3477 C3469 0.960 . S
H3478 C3470 0.930 . S
H3479 C3471 0.929 . S
H3480 C3488 0.929 . S
H3481 C3490 0.930 . S
H3482 C3492 0.930 . S
H3483 C3495 0.929 . S
H3484 C3498 0.929 1_655 S
H3485 C3500 0.960 . S
H3486 C3500 0.960 . S
H3487 C3500 0.960 . S
C3488 H3480 0.929 . S
C3488 C3489 1.377 . S
C3488 C3490 1.384 . S
C3489 C3488 1.377 . S
C3489 C3495 1.390 . S
C3490 H3481 0.930 . S
C3490 C3488 1.384 . S
C3490 C3491 1.372 . S
C3491 C3490 1.372 . S
C3491 C3492 1.400 . S
C3491 C3496 1.490 . S
C3492 H3482 0.930 . S
C3492 C3491 1.400 . S
C3492 C3495 1.386 . S
H3493 C3509 0.930 . S
H3494 C3510 0.931 . S
C3495 H3483 0.929 . S
C3495 C3489 1.390 . S
C3495 C3492 1.386 . S
C3496 C3491 1.490 . S
C3496 C3498 1.395 . S
C3496 C3499 1.403 . S
H3497 C3503 0.930 . S
C3498 H3484 0.929 1_455 S
C3498 C3496 1.395 . S
C3498 C3501 1.403 1_455 S
C3499 C3496 1.403 . S
C3499 C3500 1.524 . S
C3499 C3503 1.400 . S
C3500 H3485 0.960 . S
C3500 H3486 0.960 . S
C3500 H3487 0.960 . S
C3500 C3499 1.524 . S
C3501 C3498 1.403 1_655 S
C3501 C3502 1.392 1_655 S
C3501 C3505 1.495 . S
C3502 C3501 1.392 1_455 S
C3502 C3503 1.385 . S
C3502 C3504 1.478 . S
C3503 H3497 0.930 . S
C3503 C3499 1.400 . S
C3503 C3502 1.385 . S
C3504 C3502 1.478 . S
C3504 C3506 1.388 1_556 S
C3504 C3510 1.383 . S
C3505 C3501 1.495 . S
C3505 H3511 0.959 . S
C3505 H3512 0.961 . S
C3505 H3513 0.960 1_556 S
C3506 C3504 1.388 1_554 S
C3506 C3507 1.392 . S
C3506 H3514 0.926 . S
C3507 C3506 1.392 . S
C3507 C3508 1.383 1_554 S
C3507 H3515 0.929 . S
C3508 C3507 1.383 1_556 S
C3508 C3509 1.377 . S
C3509 H3493 0.930 . S
C3509 C3508 1.377 . S
C3509 C3510 1.379 . S
C3510 H3494 0.931 . S
C3510 C3504 1.383 . S
C3510 C3509 1.379 . S
H3511 C3505 0.959 . S
H3512 C3505 0.961 . S
H3513 C3505 0.960 1_554 S
H3514 C3506 0.926 . S
H3515 C3507 0.929 . S
H3516 C3524 0.929 . S
H3517 C3526 0.930 . S
H3518 C3528 0.930 . S
H3519 C3531 0.929 . S
H3520 C3534 0.930 . S
H3521 C3536 0.960 . S
H3522 C3536 0.960 . S
H3523 C3536 0.960 . S
C3524 H3516 0.929 . S
C3524 C3525 1.377 . S
C3524 C3526 1.384 . S
C3525 C3524 1.377 . S
C3525 C3531 1.390 . S
C3526 H3517 0.930 . S
C3526 C3524 1.384 . S
C3526 C3527 1.372 . S
C3527 C3526 1.372 . S
C3527 C3528 1.400 . S
C3527 C3532 1.490 . S
C3528 H3518 0.930 . S
C3528 C3527 1.400 . S
C3528 C3531 1.386 . S
H3529 C3545 0.930 . S
H3530 C3546 0.931 . S
C3531 H3519 0.929 . S
C3531 C3525 1.390 . S
C3531 C3528 1.386 . S
C3532 C3527 1.490 . S
C3532 C3534 1.395 . S
C3532 C3535 1.403 . S
H3533 C3539 0.930 . S
C3534 H3520 0.930 . S
C3534 C3532 1.395 . S
C3534 C3537 1.403 . S
C3535 C3532 1.403 . S
C3535 C3536 1.524 . S
C3535 C3539 1.400 . S
C3536 H3521 0.960 . S
C3536 H3522 0.960 . S
C3536 H3523 0.960 . S
C3536 C3535 1.524 . S
C3537 C3534 1.403 . S
C3537 C3538 1.392 . S
C3537 C3541 1.495 . S
C3538 C3537 1.392 . S
C3538 C3539 1.385 . S
C3538 C3540 1.478 . S
C3539 H3533 0.930 . S
C3539 C3535 1.400 . S
C3539 C3538 1.385 . S
C3540 C3538 1.478 . S
C3540 C3542 1.381 . S
C3540 C3546 1.383 . S
C3541 C3537 1.495 . S
C3541 H3547 0.959 . S
C3541 H3548 0.961 . S
C3541 H3549 0.960 . S
C3542 C3540 1.381 . S
C3542 C3543 1.394 . S
C3542 H3550 0.930 . S
C3543 C3542 1.394 . S
C3543 C3544 1.383 . S
C3543 H3551 0.929 . S
C3544 C3543 1.383 . S
C3544 C3545 1.377 . S
C3545 H3529 0.930 . S
C3545 C3544 1.377 . S
C3545 C3546 1.379 . S
C3546 H3530 0.931 . S
C3546 C3540 1.383 . S
C3546 C3545 1.379 . S
H3547 C3541 0.959 . S
H3548 C3541 0.961 . S
H3549 C3541 0.960 . S
H3550 C3542 0.930 . S
H3551 C3543 0.929 . S
H3552 C3560 0.929 . S
H3553 C3562 0.930 . S
H3554 C3564 0.930 . S
H3555 C3567 0.929 . S
H3556 C3570 0.930 . S
H3557 C3572 0.960 . S
H3558 C3572 0.960 . S
H3559 C3572 0.960 . S
C3560 H3552 0.929 . S
C3560 C3561 1.377 . S
C3560 C3562 1.384 . S
C3561 C3560 1.377 . S
C3561 C3567 1.390 . S
C3562 H3553 0.930 . S
C3562 C3560 1.384 . S
C3562 C3563 1.372 . S
C3563 C3562 1.372 . S
C3563 C3564 1.400 . S
C3563 C3568 1.490 . S
C3564 H3554 0.930 . S
C3564 C3563 1.400 . S
C3564 C3567 1.386 . S
H3565 C3581 0.930 . S
H3566 C3582 0.931 . S
C3567 H3555 0.929 . S
C3567 C3561 1.390 . S
C3567 C3564 1.386 . S
C3568 C3563 1.490 . S
C3568 C3570 1.395 . S
C3568 C3571 1.403 . S
H3569 C3575 0.930 . S
C3570 H3556 0.930 . S
C3570 C3568 1.395 . S
C3570 C3573 1.403 . S
C3571 C3568 1.403 . S
C3571 C3572 1.524 . S
C3571 C3575 1.400 . S
C3572 H3557 0.960 . S
C3572 H3558 0.960 . S
C3572 H3559 0.960 . S
C3572 C3571 1.524 . S
C3573 C3570 1.403 . S
C3573 C3574 1.392 . S
C3573 C3577 1.495 . S
C3574 C3573 1.392 . S
C3574 C3575 1.385 . S
C3574 C3576 1.478 . S
C3575 H3569 0.930 . S
C3575 C3571 1.400 . S
C3575 C3574 1.385 . S
C3576 C3574 1.478 . S
C3576 C3578 1.381 . S
C3576 C3582 1.383 . S
C3577 C3573 1.495 . S
C3577 H3583 0.959 . S
C3577 H3584 0.961 . S
C3577 H3585 0.960 . S
C3578 C3576 1.381 . S
C3578 C3579 1.394 . S
C3578 H3586 0.930 . S
C3579 C3578 1.394 . S
C3579 C3580 1.383 . S
C3579 H3587 0.929 . S
C3580 C3579 1.383 . S
C3580 C3581 1.377 . S
C3581 H3565 0.930 . S
C3581 C3580 1.377 . S
C3581 C3582 1.379 . S
C3582 H3566 0.931 . S
C3582 C3576 1.383 . S
C3582 C3581 1.379 . S
H3583 C3577 0.959 . S
H3584 C3577 0.961 . S
H3585 C3577 0.960 . S
H3586 C3578 0.930 . S
H3587 C3579 0.929 . S
H3588 C3596 0.929 . S
H3589 C3598 0.930 . S
H3590 C3600 0.930 . S
H3591 C3603 0.929 . S
H3592 C3606 0.930 . S
H3593 C3608 0.960 . S
H3594 C3608 0.960 . S
H3595 C3608 0.960 . S
C3596 H3588 0.929 . S
C3596 C3597 1.377 . S
C3596 C3598 1.384 . S
C3597 C3596 1.377 . S
C3597 C3603 1.390 . S
C3598 H3589 0.930 . S
C3598 C3596 1.384 . S
C3598 C3599 1.372 . S
C3599 C3598 1.372 . S
C3599 C3600 1.400 . S
C3599 C3604 1.490 . S
C3600 H3590 0.930 . S
C3600 C3599 1.400 . S
C3600 C3603 1.386 . S
H3601 C3617 0.930 . S
H3602 C3618 0.931 . S
C3603 H3591 0.929 . S
C3603 C3597 1.390 . S
C3603 C3600 1.386 . S
C3604 C3599 1.490 . S
C3604 C3606 1.395 . S
C3604 C3607 1.403 . S
H3605 C3611 0.930 . S
C3606 H3592 0.930 . S
C3606 C3604 1.395 . S
C3606 C3609 1.403 . S
C3607 C3604 1.403 . S
C3607 C3608 1.524 . S
C3607 C3611 1.400 . S
C3608 H3593 0.960 . S
C3608 H3594 0.960 . S
C3608 H3595 0.960 . S
C3608 C3607 1.524 . S
C3609 C3606 1.403 . S
C3609 C3610 1.392 . S
C3609 C3613 1.495 . S
C3610 C3609 1.392 . S
C3610 C3611 1.385 . S
C3610 C3612 1.478 . S
C3611 H3605 0.930 . S
C3611 C3607 1.400 . S
C3611 C3610 1.385 . S
C3612 C3610 1.478 . S
C3612 C3614 1.381 . S
C3612 C3618 1.383 . S
C3613 C3609 1.495 . S
C3613 H3619 0.959 . S
C3613 H3620 0.961 . S
C3613 H3621 0.960 . S
C3614 C3612 1.381 . S
C3614 C3615 1.394 . S
C3614 H3622 0.930 . S
C3615 C3614 1.394 . S
C3615 C3616 1.383 . S
C3615 H3623 0.929 . S
C3616 C3615 1.383 . S
C3616 C3617 1.377 . S
C3617 H3601 0.930 . S
C3617 C3616 1.377 . S
C3617 C3618 1.379 . S
C3618 H3602 0.931 . S
C3618 C3612 1.383 . S
C3618 C3617 1.379 . S
H3619 C3613 0.959 . S
H3620 C3613 0.961 . S
H3621 C3613 0.960 . S
H3622 C3614 0.930 . S
H3623 C3615 0.929 . S
H3624 C3632 0.929 . S
H3625 C3634 0.930 . S
H3626 C3636 0.930 . S
H3627 C3639 0.929 . S
H3628 C3642 0.930 . S
H3629 C3644 0.960 . S
H3630 C3644 0.960 . S
H3631 C3644 0.960 . S
C3632 H3624 0.929 . S
C3632 C3633 1.377 . S
C3632 C3634 1.384 . S
C3633 C3632 1.377 . S
C3633 C3639 1.390 1_455 S
C3634 H3625 0.930 . S
C3634 C3632 1.384 . S
C3634 C3635 1.372 . S
C3635 C3634 1.372 . S
C3635 C3636 1.400 1_455 S
C3635 C3640 1.490 . S
C3636 H3626 0.930 . S
C3636 C3635 1.400 1_655 S
C3636 C3639 1.386 . S
H3637 C3653 0.930 . S
H3638 C3654 0.931 . S
C3639 H3627 0.929 . S
C3639 C3633 1.390 1_655 S
C3639 C3636 1.386 . S
C3640 C3635 1.490 . S
C3640 C3642 1.395 1_455 S
C3640 C3643 1.403 . S
H3641 C3647 0.930 . S
C3642 H3628 0.930 . S
C3642 C3640 1.395 1_655 S
C3642 C3645 1.403 . S
C3643 C3640 1.403 . S
C3643 C3644 1.524 . S
C3643 C3647 1.400 . S
C3644 H3629 0.960 . S
C3644 H3630 0.960 . S
C3644 H3631 0.960 . S
C3644 C3643 1.524 . S
C3645 C3642 1.403 . S
C3645 C3646 1.392 1_655 S
C3645 C3649 1.495 . S
C3646 C3645 1.392 1_455 S
C3646 C3647 1.385 . S
C3646 C3648 1.478 . S
C3647 H3641 0.930 . S
C3647 C3643 1.400 . S
C3647 C3646 1.385 . S
C3648 C3646 1.478 . S
C3648 C3650 1.381 . S
C3648 C3654 1.383 1_455 S
C3649 C3645 1.495 . S
C3649 H3655 0.959 . S
C3649 H3656 0.961 . S
C3649 H3657 0.996 . S
C3650 C3648 1.381 . S
C3650 C3651 1.394 . S
C3650 H3658 0.930 . S
C3651 C3650 1.394 . S
C3651 C3652 1.383 . S
C3651 H3659 0.929 . S
C3652 C3651 1.383 . S
C3652 C3653 1.377 1_455 S
C3653 H3637 0.930 . S
C3653 C3652 1.377 1_655 S
C3653 C3654 1.379 . S
C3654 H3638 0.931 . S
C3654 C3648 1.383 1_655 S
C3654 C3653 1.379 . S
H3655 C3649 0.959 . S
H3656 C3649 0.961 . S
H3657 C3649 0.996 . S
H3658 C3650 0.930 . S
H3659 C3651 0.929 . S
H3660 C3668 0.929 . S
H3661 C3670 0.930 . S
H3662 C3672 0.930 . S
H3663 C3675 0.929 . S
H3664 C3678 0.930 . S
H3665 C3680 0.960 . S
H3666 C3680 0.960 . S
H3667 C3680 0.960 . S
C3668 H3660 0.929 . S
C3668 C3669 1.377 . S
C3668 C3670 1.384 . S
C3669 C3668 1.377 . S
C3669 C3675 1.390 . S
C3670 H3661 0.930 . S
C3670 C3668 1.384 . S
C3670 C3671 1.372 . S
C3671 C3670 1.372 . S
C3671 C3672 1.400 . S
C3671 C3676 1.490 . S
C3672 H3662 0.930 . S
C3672 C3671 1.400 . S
C3672 C3675 1.386 . S
H3673 C3689 0.930 . S
H3674 C3690 0.931 . S
C3675 H3663 0.929 . S
C3675 C3669 1.390 . S
C3675 C3672 1.386 . S
C3676 C3671 1.490 . S
C3676 C3678 1.395 . S
C3676 C3679 1.403 . S
H3677 C3683 0.930 . S
C3678 H3664 0.930 . S
C3678 C3676 1.395 . S
C3678 C3681 1.403 . S
C3679 C3676 1.403 . S
C3679 C3680 1.524 . S
C3679 C3683 1.400 . S
C3680 H3665 0.960 . S
C3680 H3666 0.960 . S
C3680 H3667 0.960 . S
C3680 C3679 1.524 . S
C3681 C3678 1.403 . S
C3681 C3682 1.392 . S
C3681 C3685 1.495 . S
C3682 C3681 1.392 . S
C3682 C3683 1.385 . S
C3682 C3684 1.478 . S
C3683 H3677 0.930 . S
C3683 C3679 1.400 . S
C3683 C3682 1.385 . S
C3684 C3682 1.478 . S
C3684 C3686 1.381 . S
C3684 C3690 1.383 . S
C3685 C3681 1.495 . S
C3685 H3691 0.959 . S
C3685 H3692 0.961 . S
C3685 H3693 0.960 . S
C3686 C3684 1.381 . S
C3686 C3687 1.394 . S
C3686 H3694 0.930 . S
C3687 C3686 1.394 . S
C3687 C3688 1.383 . S
C3687 H3695 0.929 . S
C3688 C3687 1.383 . S
C3688 C3689 1.377 . S
C3689 H3673 0.930 . S
C3689 C3688 1.377 . S
C3689 C3690 1.379 . S
C3690 H3674 0.931 . S
C3690 C3684 1.383 . S
C3690 C3689 1.379 . S
H3691 C3685 0.959 . S
H3692 C3685 0.961 . S
H3693 C3685 0.960 . S
H3694 C3686 0.930 . S
H3695 C3687 0.929 . S
H3696 C3704 0.929 . S
H3697 C3706 0.930 . S
H3698 C3708 0.930 . S
H3699 C3711 0.929 . S
H3700 C3714 0.930 . S
H3701 C3716 0.960 . S
H3702 C3716 0.960 . S
H3703 C3716 0.960 . S
C3704 H3696 0.929 . S
C3704 C3705 1.377 . S
C3704 C3706 1.384 . S
C3705 C3704 1.377 . S
C3705 C3711 1.390 . S
C3706 H3697 0.930 . S
C3706 C3704 1.384 . S
C3706 C3707 1.372 . S
C3707 C3706 1.372 . S
C3707 C3708 1.400 . S
C3707 C3712 1.490 . S
C3708 H3698 0.930 . S
C3708 C3707 1.400 . S
C3708 C3711 1.386 . S
H3709 C3725 0.930 . S
H3710 C3726 0.931 . S
C3711 H3699 0.929 . S
C3711 C3705 1.390 . S
C3711 C3708 1.386 . S
C3712 C3707 1.490 . S
C3712 C3714 1.395 . S
C3712 C3715 1.403 . S
H3713 C3719 0.930 . S
C3714 H3700 0.930 . S
C3714 C3712 1.395 . S
C3714 C3717 1.403 . S
C3715 C3712 1.403 . S
C3715 C3716 1.524 . S
C3715 C3719 1.400 . S
C3716 H3701 0.960 . S
C3716 H3702 0.960 . S
C3716 H3703 0.960 . S
C3716 C3715 1.524 . S
C3717 C3714 1.403 . S
C3717 C3718 1.392 . S
C3717 C3721 1.495 . S
C3718 C3717 1.392 . S
C3718 C3719 1.385 . S
C3718 C3720 1.478 . S
C3719 H3713 0.930 . S
C3719 C3715 1.400 . S
C3719 C3718 1.385 . S
C3720 C3718 1.478 . S
C3720 C3722 1.381 . S
C3720 C3726 1.383 . S
C3721 C3717 1.495 . S
C3721 H3727 0.959 . S
C3721 H3728 0.961 . S
C3721 H3729 0.960 . S
C3722 C3720 1.381 . S
C3722 C3723 1.394 . S
C3722 H3730 0.930 . S
C3723 C3722 1.394 . S
C3723 C3724 1.383 . S
C3723 H3731 0.929 . S
C3724 C3723 1.383 . S
C3724 C3725 1.377 . S
C3725 H3709 0.930 . S
C3725 C3724 1.377 . S
C3725 C3726 1.379 . S
C3726 H3710 0.931 . S
C3726 C3720 1.383 . S
C3726 C3725 1.379 . S
H3727 C3721 0.959 . S
H3728 C3721 0.961 . S
H3729 C3721 0.960 . S
H3730 C3722 0.930 . S
H3731 C3723 0.929 . S
H3732 C3740 0.929 . S
H3733 C3742 0.930 . S
H3734 C3744 0.930 . S
H3735 C3747 0.929 . S
H3736 C3750 0.930 . S
H3737 C3752 0.960 . S
H3738 C3752 0.960 . S
H3739 C3752 0.960 . S
C3740 H3732 0.929 . S
C3740 C3741 1.377 . S
C3740 C3742 1.384 . S
C3741 C3740 1.377 . S
C3741 C3747 1.390 . S
C3742 H3733 0.930 . S
C3742 C3740 1.384 . S
C3742 C3743 1.372 . S
C3743 C3742 1.372 . S
C3743 C3744 1.400 . S
C3743 C3748 1.490 . S
C3744 H3734 0.930 . S
C3744 C3743 1.400 . S
C3744 C3747 1.386 . S
H3745 C3761 0.930 . S
H3746 C3762 0.931 . S
C3747 H3735 0.929 . S
C3747 C3741 1.390 . S
C3747 C3744 1.386 . S
C3748 C3743 1.490 . S
C3748 C3750 1.395 . S
C3748 C3751 1.403 . S
H3749 C3755 0.930 . S
C3750 H3736 0.930 . S
C3750 C3748 1.395 . S
C3750 C3753 1.403 . S
C3751 C3748 1.403 . S
C3751 C3752 1.524 . S
C3751 C3755 1.400 . S
C3752 H3737 0.960 . S
C3752 H3738 0.960 . S
C3752 H3739 0.960 . S
C3752 C3751 1.524 . S
C3753 C3750 1.403 . S
C3753 C3754 1.392 . S
C3753 C3757 1.495 . S
C3754 C3753 1.392 . S
C3754 C3755 1.385 . S
C3754 C3756 1.478 . S
C3755 H3749 0.930 . S
C3755 C3751 1.400 . S
C3755 C3754 1.385 . S
C3756 C3754 1.478 . S
C3756 C3758 1.381 . S
C3756 C3762 1.383 . S
C3757 C3753 1.495 . S
C3757 H3763 0.959 . S
C3757 H3764 0.961 . S
C3757 H3765 0.960 . S
C3758 C3756 1.381 . S
C3758 C3759 1.394 . S
C3758 H3766 0.930 . S
C3759 C3758 1.394 . S
C3759 C3760 1.383 . S
C3759 H3767 0.929 . S
C3760 C3759 1.383 . S
C3760 C3761 1.377 . S
C3761 H3745 0.930 . S
C3761 C3760 1.377 . S
C3761 C3762 1.379 . S
C3762 H3746 0.931 . S
C3762 C3756 1.383 . S
C3762 C3761 1.379 . S
H3763 C3757 0.959 . S
H3764 C3757 0.961 . S
H3765 C3757 0.960 . S
H3766 C3758 0.930 . S
H3767 C3759 0.929 . S
H3768 C3776 0.929 . S
H3769 C3778 0.930 . S
H3770 C3780 0.930 . S
H3771 C3783 0.929 . S
H3772 C3786 0.930 . S
H3773 C3788 0.960 . S
H3774 C3788 0.960 . S
H3775 C3788 0.960 . S
C3776 H3768 0.929 . S
C3776 C3777 1.377 . S
C3776 C3778 1.384 . S
C3777 C3776 1.377 . S
C3777 C3783 1.390 . S
C3778 H3769 0.930 . S
C3778 C3776 1.384 . S
C3778 C3779 1.372 . S
C3779 C3778 1.372 . S
C3779 C3780 1.400 . S
C3779 C3784 1.490 . S
C3780 H3770 0.930 . S
C3780 C3779 1.400 . S
C3780 C3783 1.386 . S
H3781 C3797 0.930 . S
H3782 C3798 0.931 . S
C3783 H3771 0.929 . S
C3783 C3777 1.390 . S
C3783 C3780 1.386 . S
C3784 C3779 1.490 . S
C3784 C3786 1.395 . S
C3784 C3787 1.403 . S
H3785 C3791 0.930 . S
C3786 H3772 0.930 . S
C3786 C3784 1.395 . S
C3786 C3789 1.403 . S
C3787 C3784 1.403 . S
C3787 C3788 1.524 . S
C3787 C3791 1.400 . S
C3788 H3773 0.960 . S
C3788 H3774 0.960 . S
C3788 H3775 0.960 . S
C3788 C3787 1.524 . S
C3789 C3786 1.403 . S
C3789 C3790 1.392 . S
C3789 C3793 1.495 . S
C3790 C3789 1.392 . S
C3790 C3791 1.385 . S
C3790 C3792 1.478 . S
C3791 H3785 0.930 . S
C3791 C3787 1.400 . S
C3791 C3790 1.385 . S
C3792 C3790 1.478 . S
C3792 C3794 1.381 . S
C3792 C3798 1.383 . S
C3793 C3789 1.495 . S
C3793 H3799 0.959 . S
C3793 H3800 0.961 . S
C3793 H3801 0.960 . S
C3794 C3792 1.381 . S
C3794 C3795 1.394 . S
C3794 H3802 0.930 . S
C3795 C3794 1.394 . S
C3795 C3796 1.383 . S
C3795 H3803 0.929 . S
C3796 C3795 1.383 . S
C3796 C3797 1.377 . S
C3797 H3781 0.930 . S
C3797 C3796 1.377 . S
C3797 C3798 1.379 . S
C3798 H3782 0.931 . S
C3798 C3792 1.383 . S
C3798 C3797 1.379 . S
H3799 C3793 0.959 . S
H3800 C3793 0.961 . S
H3801 C3793 0.960 . S
H3802 C3794 0.930 . S
H3803 C3795 0.929 . S
H3804 C3812 0.929 . S
H3805 C3814 0.930 . S
H3806 C3816 0.930 . S
H3807 C3819 0.929 . S
H3808 C3822 0.930 . S
H3809 C3824 0.960 . S
H3810 C3824 0.960 . S
H3811 C3824 0.960 . S
C3812 H3804 0.929 . S
C3812 C3813 1.377 . S
C3812 C3814 1.384 . S
C3813 C3812 1.377 . S
C3813 C3819 1.390 . S
C3814 H3805 0.930 . S
C3814 C3812 1.384 . S
C3814 C3815 1.372 . S
C3815 C3814 1.372 . S
C3815 C3816 1.400 . S
C3815 C3820 1.490 . S
C3816 H3806 0.930 . S
C3816 C3815 1.400 . S
C3816 C3819 1.386 . S
H3817 C3833 0.930 . S
H3818 C3834 0.931 . S
C3819 H3807 0.929 . S
C3819 C3813 1.390 . S
C3819 C3816 1.386 . S
C3820 C3815 1.490 . S
C3820 C3822 1.395 . S
C3820 C3823 1.403 . S
H3821 C3827 0.930 . S
C3822 H3808 0.930 . S
C3822 C3820 1.395 . S
C3822 C3825 1.403 . S
C3823 C3820 1.403 . S
C3823 C3824 1.524 . S
C3823 C3827 1.400 . S
C3824 H3809 0.960 . S
C3824 H3810 0.960 . S
C3824 H3811 0.960 . S
C3824 C3823 1.524 . S
C3825 C3822 1.403 . S
C3825 C3826 1.392 . S
C3825 C3829 1.495 . S
C3826 C3825 1.392 . S
C3826 C3827 1.385 . S
C3826 C3828 1.478 . S
C3827 H3821 0.930 . S
C3827 C3823 1.400 . S
C3827 C3826 1.385 . S
C3828 C3826 1.478 . S
C3828 C3830 1.381 . S
C3828 C3834 1.383 . S
C3829 C3825 1.495 . S
C3829 H3835 0.959 . S
C3829 H3836 0.961 . S
C3829 H3837 0.960 . S
C3830 C3828 1.381 . S
C3830 C3831 1.394 . S
C3830 H3838 0.930 . S
C3831 C3830 1.394 . S
C3831 C3832 1.383 . S
C3831 H3839 0.929 . S
C3832 C3831 1.383 . S
C3832 C3833 1.377 . S
C3833 H3817 0.930 . S
C3833 C3832 1.377 . S
C3833 C3834 1.379 . S
C3834 H3818 0.931 . S
C3834 C3828 1.383 . S
C3834 C3833 1.379 . S
H3835 C3829 0.959 . S
H3836 C3829 0.961 . S
H3837 C3829 0.960 . S
H3838 C3830 0.930 . S
H3839 C3831 0.929 . S
H3840 C3848 0.929 . S
H3841 C3850 0.930 . S
H3842 C3852 0.930 . S
H3843 C3855 0.929 . S
H3844 C3858 0.930 . S
H3845 C3860 0.960 . S
H3846 C3860 0.960 . S
H3847 C3860 0.960 . S
C3848 H3840 0.929 . S
C3848 C3849 1.377 . S
C3848 C3850 1.384 . S
C3849 C3848 1.377 . S
C3849 C3855 1.390 . S
C3850 H3841 0.930 . S
C3850 C3848 1.384 . S
C3850 C3851 1.372 . S
C3851 C3850 1.372 . S
C3851 C3852 1.400 . S
C3851 C3856 1.490 . S
C3852 H3842 0.930 . S
C3852 C3851 1.400 . S
C3852 C3855 1.386 . S
H3853 C3869 0.930 . S
H3854 C3870 0.931 . S
C3855 H3843 0.929 . S
C3855 C3849 1.390 . S
C3855 C3852 1.386 . S
C3856 C3851 1.490 . S
C3856 C3858 1.395 . S
C3856 C3859 1.403 . S
H3857 C3863 0.930 . S
C3858 H3844 0.930 . S
C3858 C3856 1.395 . S
C3858 C3861 1.403 . S
C3859 C3856 1.403 . S
C3859 C3860 1.524 . S
C3859 C3863 1.400 . S
C3860 H3845 0.960 . S
C3860 H3846 0.960 . S
C3860 H3847 0.960 . S
C3860 C3859 1.524 . S
C3861 C3858 1.403 . S
C3861 C3862 1.392 . S
C3861 C3865 1.495 . S
C3862 C3861 1.392 . S
C3862 C3863 1.385 . S
C3862 C3864 1.478 . S
C3863 H3857 0.930 . S
C3863 C3859 1.400 . S
C3863 C3862 1.385 . S
C3864 C3862 1.478 . S
C3864 C3866 1.381 . S
C3864 C3870 1.383 . S
C3865 C3861 1.495 . S
C3865 H3871 0.959 . S
C3865 H3872 0.961 . S
C3865 H3873 0.960 . S
C3866 C3864 1.381 . S
C3866 C3867 1.394 . S
C3866 H3874 0.930 . S
C3867 C3866 1.394 . S
C3867 C3868 1.383 . S
C3867 H3875 0.929 . S
C3868 C3867 1.383 . S
C3868 C3869 1.377 . S
C3869 H3853 0.930 . S
C3869 C3868 1.377 . S
C3869 C3870 1.379 . S
C3870 H3854 0.931 . S
C3870 C3864 1.383 . S
C3870 C3869 1.379 . S
H3871 C3865 0.959 . S
H3872 C3865 0.961 . S
H3873 C3865 0.960 . S
H3874 C3866 0.930 . S
H3875 C3867 0.929 . S
H3876 C3884 0.929 . S
H3877 C3886 0.930 . S
H3878 C3888 0.930 . S
H3879 C3891 0.929 . S
H3880 C3894 0.930 . S
H3881 C3896 0.960 . S
H3882 C3896 0.960 . S
H3883 C3896 0.960 . S
C3884 H3876 0.929 . S
C3884 C3885 1.377 . S
C3884 C3886 1.384 . S
C3885 C3884 1.377 . S
C3885 C3891 1.390 . S
C3886 H3877 0.930 . S
C3886 C3884 1.384 . S
C3886 C3887 1.372 . S
C3887 C3886 1.372 . S
C3887 C3888 1.400 . S
C3887 C3892 1.490 . S
C3888 H3878 0.930 . S
C3888 C3887 1.400 . S
C3888 C3891 1.386 . S
H3889 C3905 0.930 . S
H3890 C3906 0.931 . S
C3891 H3879 0.929 . S
C3891 C3885 1.390 . S
C3891 C3888 1.386 . S
C3892 C3887 1.490 . S
C3892 C3894 1.395 . S
C3892 C3895 1.403 . S
H3893 C3899 0.930 . S
C3894 H3880 0.930 . S
C3894 C3892 1.395 . S
C3894 C3897 1.403 . S
C3895 C3892 1.403 . S
C3895 C3896 1.524 . S
C3895 C3899 1.400 . S
C3896 H3881 0.960 . S
C3896 H3882 0.960 . S
C3896 H3883 0.960 . S
C3896 C3895 1.524 . S
C3897 C3894 1.403 . S
C3897 C3898 1.392 . S
C3897 C3901 1.495 . S
C3898 C3897 1.392 . S
C3898 C3899 1.385 . S
C3898 C3900 1.478 . S
C3899 H3893 0.930 . S
C3899 C3895 1.400 . S
C3899 C3898 1.385 . S
C3900 C3898 1.478 . S
C3900 C3902 1.381 . S
C3900 C3906 1.383 . S
C3901 C3897 1.495 . S
C3901 H3907 0.959 . S
C3901 H3908 0.961 . S
C3901 H3909 0.960 . S
C3902 C3900 1.381 . S
C3902 C3903 1.394 . S
C3902 H3910 0.930 . S
C3903 C3902 1.394 . S
C3903 C3904 1.383 . S
C3903 H3911 0.929 . S
C3904 C3903 1.383 . S
C3904 C3905 1.377 . S
C3905 H3889 0.930 . S
C3905 C3904 1.377 . S
C3905 C3906 1.379 . S
C3906 H3890 0.931 . S
C3906 C3900 1.383 . S
C3906 C3905 1.379 . S
H3907 C3901 0.959 . S
H3908 C3901 0.961 . S
H3909 C3901 0.960 . S
H3910 C3902 0.930 . S
H3911 C3903 0.929 . S
H3912 C3920 0.929 . S
H3913 C3922 0.930 . S
H3914 C3924 0.930 . S
H3915 C3927 0.929 . S
H3916 C3930 0.930 . S
H3917 C3932 0.960 . S
H3918 C3932 0.960 . S
H3919 C3932 0.960 . S
C3920 H3912 0.929 . S
C3920 C3921 1.377 . S
C3920 C3922 1.384 . S
C3921 C3920 1.377 . S
C3921 C3927 1.390 . S
C3922 H3913 0.930 . S
C3922 C3920 1.384 . S
C3922 C3923 1.372 . S
C3923 C3922 1.372 . S
C3923 C3924 1.400 . S
C3923 C3928 1.490 . S
C3924 H3914 0.930 . S
C3924 C3923 1.400 . S
C3924 C3927 1.386 . S
H3925 C3941 0.930 . S
H3926 C3942 0.931 . S
C3927 H3915 0.929 . S
C3927 C3921 1.390 . S
C3927 C3924 1.386 . S
C3928 C3923 1.490 . S
C3928 C3930 1.395 . S
C3928 C3931 1.403 . S
H3929 C3935 0.930 . S
C3930 H3916 0.930 . S
C3930 C3928 1.395 . S
C3930 C3933 1.403 . S
C3931 C3928 1.403 . S
C3931 C3932 1.524 . S
C3931 C3935 1.400 . S
C3932 H3917 0.960 . S
C3932 H3918 0.960 . S
C3932 H3919 0.960 . S
C3932 C3931 1.524 . S
C3933 C3930 1.403 . S
C3933 C3934 1.392 . S
C3933 C3937 1.495 . S
C3934 C3933 1.392 . S
C3934 C3935 1.385 . S
C3934 C3936 1.478 . S
C3935 H3929 0.930 . S
C3935 C3931 1.400 . S
C3935 C3934 1.385 . S
C3936 C3934 1.478 . S
C3936 C3938 1.381 . S
C3936 C3942 1.383 . S
C3937 C3933 1.495 . S
C3937 H3943 0.959 . S
C3937 H3944 0.961 . S
C3937 H3945 0.960 . S
C3938 C3936 1.381 . S
C3938 C3939 1.394 . S
C3938 H3946 0.930 . S
C3939 C3938 1.394 . S
C3939 C3940 1.383 . S
C3939 H3947 0.929 . S
C3940 C3939 1.383 . S
C3940 C3941 1.377 . S
C3941 H3925 0.930 . S
C3941 C3940 1.377 . S
C3941 C3942 1.379 . S
C3942 H3926 0.931 . S
C3942 C3936 1.383 . S
C3942 C3941 1.379 . S
H3943 C3937 0.959 . S
H3944 C3937 0.961 . S
H3945 C3937 0.960 . S
H3946 C3938 0.930 . S
H3947 C3939 0.929 . S
H3948 C3956 0.929 . S
H3949 C3958 0.930 . S
H3950 C3960 0.930 . S
H3951 C3963 0.929 . S
H3952 C3966 0.930 . S
H3953 C3968 0.960 . S
H3954 C3968 0.960 . S
H3955 C3968 0.960 . S
C3956 H3948 0.929 . S
C3956 C3957 1.377 . S
C3956 C3958 1.384 . S
C3957 C3956 1.377 . S
C3957 C3963 1.390 . S
C3958 H3949 0.930 . S
C3958 C3956 1.384 . S
C3958 C3959 1.372 . S
C3959 C3958 1.372 . S
C3959 C3960 1.400 . S
C3959 C3964 1.490 . S
C3960 H3950 0.930 . S
C3960 C3959 1.400 . S
C3960 C3963 1.386 . S
H3961 C3977 0.930 . S
H3962 C3978 0.931 . S
C3963 H3951 0.929 . S
C3963 C3957 1.390 . S
C3963 C3960 1.386 . S
C3964 C3959 1.490 . S
C3964 C3966 1.395 . S
C3964 C3967 1.403 . S
H3965 C3971 0.930 . S
C3966 H3952 0.930 . S
C3966 C3964 1.395 . S
C3966 C3969 1.403 . S
C3967 C3964 1.403 . S
C3967 C3968 1.524 . S
C3967 C3971 1.400 . S
C3968 H3953 0.960 . S
C3968 H3954 0.960 . S
C3968 H3955 0.960 . S
C3968 C3967 1.524 . S
C3969 C3966 1.403 . S
C3969 C3970 1.392 . S
C3969 C3973 1.495 . S
C3970 C3969 1.392 . S
C3970 C3971 1.385 . S
C3970 C3972 1.478 . S
C3971 H3965 0.930 . S
C3971 C3967 1.400 . S
C3971 C3970 1.385 . S
C3972 C3970 1.478 . S
C3972 C3974 1.381 . S
C3972 C3978 1.383 . S
C3973 C3969 1.495 . S
C3973 H3979 0.959 . S
C3973 H3980 0.961 . S
C3973 H3981 0.960 . S
C3974 C3972 1.381 . S
C3974 C3975 1.394 . S
C3974 H3982 0.930 . S
C3975 C3974 1.394 . S
C3975 C3976 1.383 . S
C3975 H3983 0.929 . S
C3976 C3975 1.383 . S
C3976 C3977 1.377 . S
C3977 H3961 0.930 . S
C3977 C3976 1.377 . S
C3977 C3978 1.379 . S
C3978 H3962 0.931 . S
C3978 C3972 1.383 . S
C3978 C3977 1.379 . S
H3979 C3973 0.959 . S
H3980 C3973 0.961 . S
H3981 C3973 0.960 . S
H3982 C3974 0.930 . S
H3983 C3975 0.929 . S
H3984 C3992 0.929 . S
H3985 C3994 0.930 . S
H3986 C3996 0.930 . S
H3987 C3999 0.929 . S
H3988 C4002 0.930 . S
H3989 C4004 0.960 . S
H3990 C4004 0.960 . S
H3991 C4004 0.960 . S
C3992 H3984 0.929 . S
C3992 C3993 1.377 . S
C3992 C3994 1.384 . S
C3993 C3992 1.377 . S
C3993 C3999 1.390 . S
C3994 H3985 0.930 . S
C3994 C3992 1.384 . S
C3994 C3995 1.372 . S
C3995 C3994 1.372 . S
C3995 C3996 1.400 . S
C3995 C4000 1.490 . S
C3996 H3986 0.930 . S
C3996 C3995 1.400 . S
C3996 C3999 1.386 . S
H3997 C4013 0.930 . S
H3998 C4014 0.931 . S
C3999 H3987 0.929 . S
C3999 C3993 1.390 . S
C3999 C3996 1.386 . S
C4000 C3995 1.490 . S
C4000 C4002 1.395 . S
C4000 C4003 1.403 . S
H4001 C4007 0.930 . S
C4002 H3988 0.930 . S
C4002 C4000 1.395 . S
C4002 C4005 1.403 . S
C4003 C4000 1.403 . S
C4003 C4004 1.524 . S
C4003 C4007 1.400 . S
C4004 H3989 0.960 . S
C4004 H3990 0.960 . S
C4004 H3991 0.960 . S
C4004 C4003 1.524 . S
C4005 C4002 1.403 . S
C4005 C4006 1.392 . S
C4005 C4009 1.495 . S
C4006 C4005 1.392 . S
C4006 C4007 1.385 . S
C4006 C4008 1.478 . S
C4007 H4001 0.930 . S
C4007 C4003 1.400 . S
C4007 C4006 1.385 . S
C4008 C4006 1.478 . S
C4008 C4010 1.381 . S
C4008 C4014 1.383 . S
C4009 C4005 1.495 . S
C4009 H4015 0.959 . S
C4009 H4016 0.961 . S
C4009 H4017 0.960 . S
C4010 C4008 1.381 . S
C4010 C4011 1.394 . S
C4010 H4018 0.930 . S
C4011 C4010 1.394 . S
C4011 C4012 1.383 . S
C4011 H4019 0.929 . S
C4012 C4011 1.383 . S
C4012 C4013 1.377 . S
C4013 H3997 0.930 . S
C4013 C4012 1.377 . S
C4013 C4014 1.379 . S
C4014 H3998 0.931 . S
C4014 C4008 1.383 . S
C4014 C4013 1.379 . S
H4015 C4009 0.959 . S
H4016 C4009 0.961 . S
H4017 C4009 0.960 . S
H4018 C4010 0.930 . S
H4019 C4011 0.929 . S
H4020 C4028 0.929 . S
H4021 C4030 0.930 . S
H4022 C4032 0.930 . S
H4023 C4035 0.929 . S
H4024 C4038 0.930 . S
H4025 C4040 0.960 . S
H4026 C4040 0.960 . S
H4027 C4040 0.960 . S
C4028 H4020 0.929 . S
C4028 C4029 1.377 . S
C4028 C4030 1.384 . S
C4029 C4028 1.377 . S
C4029 C4035 1.390 . S
C4030 H4021 0.930 . S
C4030 C4028 1.384 . S
C4030 C4031 1.372 . S
C4031 C4030 1.372 . S
C4031 C4032 1.400 . S
C4031 C4036 1.490 . S
C4032 H4022 0.930 . S
C4032 C4031 1.400 . S
C4032 C4035 1.386 . S
H4033 C4049 0.930 . S
H4034 C4050 0.931 . S
C4035 H4023 0.929 . S
C4035 C4029 1.390 . S
C4035 C4032 1.386 . S
C4036 C4031 1.490 . S
C4036 C4038 1.395 . S
C4036 C4039 1.403 . S
H4037 C4043 0.930 . S
C4038 H4024 0.930 . S
C4038 C4036 1.395 . S
C4038 C4041 1.403 . S
C4039 C4036 1.403 . S
C4039 C4040 1.524 . S
C4039 C4043 1.400 . S
C4040 H4025 0.960 . S
C4040 H4026 0.960 . S
C4040 H4027 0.960 . S
C4040 C4039 1.524 . S
C4041 C4038 1.403 . S
C4041 C4042 1.392 . S
C4041 C4045 1.495 . S
C4042 C4041 1.392 . S
C4042 C4043 1.385 . S
C4042 C4044 1.478 . S
C4043 H4037 0.930 . S
C4043 C4039 1.400 . S
C4043 C4042 1.385 . S
C4044 C4042 1.478 . S
C4044 C4046 1.381 . S
C4044 C4050 1.383 . S
C4045 C4041 1.495 . S
C4045 H4051 0.959 . S
C4045 H4052 0.961 . S
C4045 H4053 0.960 . S
C4046 C4044 1.381 . S
C4046 C4047 1.394 . S
C4046 H4054 0.930 . S
C4047 C4046 1.394 . S
C4047 C4048 1.383 . S
C4047 H4055 0.929 . S
C4048 C4047 1.383 . S
C4048 C4049 1.377 . S
C4049 H4033 0.930 . S
C4049 C4048 1.377 . S
C4049 C4050 1.379 . S
C4050 H4034 0.931 . S
C4050 C4044 1.383 . S
C4050 C4049 1.379 . S
H4051 C4045 0.959 . S
H4052 C4045 0.961 . S
H4053 C4045 0.960 . S
H4054 C4046 0.930 . S
H4055 C4047 0.929 . S
H4056 C4064 0.929 . S
H4057 C4066 0.930 . S
H4058 C4068 0.930 . S
H4059 C4071 0.929 . S
H4060 C4074 0.930 . S
H4061 C4076 0.960 . S
H4062 C4076 0.960 . S
H4063 C4076 0.960 . S
C4064 H4056 0.929 . S
C4064 C4065 1.377 . S
C4064 C4066 1.384 . S
C4065 C4064 1.377 . S
C4065 C4071 1.390 . S
C4066 H4057 0.930 . S
C4066 C4064 1.384 . S
C4066 C4067 1.372 . S
C4067 C4066 1.372 . S
C4067 C4068 1.400 . S
C4067 C4072 1.490 . S
C4068 H4058 0.930 . S
C4068 C4067 1.400 . S
C4068 C4071 1.386 . S
H4069 C4085 0.930 . S
H4070 C4086 0.931 . S
C4071 H4059 0.929 . S
C4071 C4065 1.390 . S
C4071 C4068 1.386 . S
C4072 C4067 1.490 . S
C4072 C4074 1.395 . S
C4072 C4075 1.403 . S
H4073 C4079 0.930 . S
C4074 H4060 0.930 . S
C4074 C4072 1.395 . S
C4074 C4077 1.403 . S
C4075 C4072 1.403 . S
C4075 C4076 1.524 . S
C4075 C4079 1.400 . S
C4076 H4061 0.960 . S
C4076 H4062 0.960 . S
C4076 H4063 0.960 . S
C4076 C4075 1.524 . S
C4077 C4074 1.403 . S
C4077 C4078 1.392 . S
C4077 C4081 1.495 . S
C4078 C4077 1.392 . S
C4078 C4079 1.385 . S
C4078 C4080 1.478 . S
C4079 H4073 0.930 . S
C4079 C4075 1.400 . S
C4079 C4078 1.385 . S
C4080 C4078 1.478 . S
C4080 C4082 1.381 . S
C4080 C4086 1.383 . S
C4081 C4077 1.495 . S
C4081 H4087 0.959 . S
C4081 H4088 0.961 . S
C4081 H4089 0.960 . S
C4082 C4080 1.381 . S
C4082 C4083 1.394 . S
C4082 H4090 0.930 . S
C4083 C4082 1.394 . S
C4083 C4084 1.383 . S
C4083 H4091 0.929 . S
C4084 C4083 1.383 . S
C4084 C4085 1.377 . S
C4085 H4069 0.930 . S
C4085 C4084 1.377 . S
C4085 C4086 1.379 . S
C4086 H4070 0.931 . S
C4086 C4080 1.383 . S
C4086 C4085 1.379 . S
H4087 C4081 0.959 . S
H4088 C4081 0.961 . S
H4089 C4081 0.960 . S
H4090 C4082 0.930 . S
H4091 C4083 0.929 . S
H4092 C4100 0.929 1_556 S
H4093 C4102 0.896 1_556 S
H4094 C4104 0.930 . S
H4095 C4107 0.929 . S
H4096 C4110 0.937 . S
H4097 C4112 0.960 . S
H4098 C4112 0.960 . S
H4099 C4112 0.960 . S
C4100 H4092 0.929 1_554 S
C4100 C4101 1.377 . S
C4100 C4102 1.388 . S
C4101 C4100 1.377 . S
C4101 C4107 1.390 . S
C4102 H4093 0.896 1_554 S
C4102 C4100 1.388 . S
C4102 C4103 1.403 . S
C4103 C4102 1.403 . S
C4103 C4104 1.400 . S
C4103 C4108 1.490 . S
C4104 H4094 0.930 . S
C4104 C4103 1.400 . S
C4104 C4107 1.386 . S
H4105 C4121 0.930 . S
H4106 C4122 0.931 . S
C4107 H4095 0.929 . S
C4107 C4101 1.390 . S
C4107 C4104 1.386 . S
C4108 C4103 1.490 . S
C4108 C4110 1.386 1_554 S
C4108 C4111 1.403 . S
H4109 C4115 0.930 . S
C4110 H4096 0.937 . S
C4110 C4108 1.386 1_556 S
C4110 C4113 1.405 . S
C4111 C4108 1.403 . S
C4111 C4112 1.524 . S
C4111 C4115 1.400 . S
C4112 H4097 0.960 . S
C4112 H4098 0.960 . S
C4112 H4099 0.960 . S
C4112 C4111 1.524 . S
C4113 C4110 1.405 . S
C4113 C4114 1.392 1_556 S
C4113 C4117 1.495 . S
C4114 C4113 1.392 1_554 S
C4114 C4115 1.385 . S
C4114 C4116 1.478 . S
C4115 H4109 0.930 . S
C4115 C4111 1.400 . S
C4115 C4114 1.385 . S
C4116 C4114 1.478 . S
C4116 C4118 1.381 1_554 S
C4116 C4122 1.383 . S
C4117 C4113 1.495 . S
C4117 H4123 0.959 . S
C4117 H4124 0.961 . S
C4117 H4125 0.960 . S
C4118 C4116 1.381 1_556 S
C4118 C4119 1.394 1_565 S
C4118 H4126 0.930 . S
C4119 C4118 1.394 1_545 S
C4119 C4120 1.388 1_556 S
C4119 H4127 0.929 . S
C4120 C4119 1.388 1_554 S
C4120 C4121 1.355 1_545 S
C4121 H4105 0.930 . S
C4121 C4120 1.355 1_565 S
C4121 C4122 1.379 . S
C4122 H4106 0.931 . S
C4122 C4116 1.383 . S
C4122 C4121 1.379 . S
H4123 C4117 0.959 . S
H4124 C4117 0.961 . S
H4125 C4117 0.960 . S
H4126 C4118 0.930 . S
H4127 C4119 0.929 . S
H4128 C4136 0.929 . S
H4129 C4138 0.930 . S
H4130 C4140 0.930 . S
H4131 C4143 0.929 . S
H4132 C4146 0.930 . S
H4133 C4148 0.960 . S
H4134 C4148 0.960 . S
H4135 C4148 0.960 . S
C4136 H4128 0.929 . S
C4136 C4137 1.377 . S
C4136 C4138 1.384 . S
C4137 C4136 1.377 . S
C4137 C4143 1.390 . S
C4138 H4129 0.930 . S
C4138 C4136 1.384 . S
C4138 C4139 1.372 . S
C4139 C4138 1.372 . S
C4139 C4140 1.400 . S
C4139 C4144 1.490 . S
C4140 H4130 0.930 . S
C4140 C4139 1.400 . S
C4140 C4143 1.386 . S
H4141 C4157 0.930 . S
H4142 C4158 0.931 . S
C4143 H4131 0.929 . S
C4143 C4137 1.390 . S
C4143 C4140 1.386 . S
C4144 C4139 1.490 . S
C4144 C4146 1.395 . S
C4144 C4147 1.403 . S
H4145 C4151 0.930 . S
C4146 H4132 0.930 . S
C4146 C4144 1.395 . S
C4146 C4149 1.403 . S
C4147 C4144 1.403 . S
C4147 C4148 1.524 . S
C4147 C4151 1.400 . S
C4148 H4133 0.960 . S
C4148 H4134 0.960 . S
C4148 H4135 0.960 . S
C4148 C4147 1.524 . S
C4149 C4146 1.403 . S
C4149 C4150 1.392 . S
C4149 C4153 1.495 . S
C4150 C4149 1.392 . S
C4150 C4151 1.385 . S
C4150 C4152 1.478 . S
C4151 H4145 0.930 . S
C4151 C4147 1.400 . S
C4151 C4150 1.385 . S
C4152 C4150 1.478 . S
C4152 C4154 1.381 . S
C4152 C4158 1.383 . S
C4153 C4149 1.495 . S
C4153 H4159 0.959 . S
C4153 H4160 0.961 . S
C4153 H4161 0.960 . S
C4154 C4152 1.381 . S
C4154 C4155 1.394 . S
C4154 H4162 0.930 . S
C4155 C4154 1.394 . S
C4155 C4156 1.383 . S
C4155 H4163 0.929 . S
C4156 C4155 1.383 . S
C4156 C4157 1.377 . S
C4157 H4141 0.930 . S
C4157 C4156 1.377 . S
C4157 C4158 1.379 . S
C4158 H4142 0.931 . S
C4158 C4152 1.383 . S
C4158 C4157 1.379 . S
H4159 C4153 0.959 . S
H4160 C4153 0.961 . S
H4161 C4153 0.960 . S
H4162 C4154 0.930 . S
H4163 C4155 0.929 . S
H4164 C4172 0.929 . S
H4165 C4174 0.930 . S
H4166 C4176 0.930 . S
H4167 C4179 0.929 . S
H4168 C4182 0.930 . S
H4169 C4184 0.960 . S
H4170 C4184 0.960 . S
H4171 C4184 0.960 . S
C4172 H4164 0.929 . S
C4172 C4173 1.423 . S
C4172 C4174 1.384 . S
C4173 C4172 1.423 . S
C4173 C4179 1.357 1_554 S
C4174 H4165 0.930 . S
C4174 C4172 1.384 . S
C4174 C4175 1.372 . S
C4175 C4174 1.372 . S
C4175 C4176 1.400 1_554 S
C4175 C4180 1.490 . S
C4176 H4166 0.930 . S
C4176 C4175 1.400 1_556 S
C4176 C4179 1.386 . S
H4177 C4193 0.930 . S
H4178 C4194 0.947 . S
C4179 H4167 0.929 . S
C4179 C4173 1.357 1_556 S
C4179 C4176 1.386 . S
C4180 C4175 1.490 . S
C4180 C4182 1.395 . S
C4180 C4183 1.403 . S
H4181 C4187 0.930 . S
C4182 H4168 0.930 . S
C4182 C4180 1.395 . S
C4182 C4185 1.403 . S
C4183 C4180 1.403 . S
C4183 C4184 1.524 . S
C4183 C4187 1.400 . S
C4184 H4169 0.960 . S
C4184 H4170 0.960 . S
C4184 H4171 0.960 . S
C4184 C4183 1.524 . S
C4185 C4182 1.403 . S
C4185 C4186 1.392 . S
C4185 C4189 1.495 . S
C4186 C4185 1.392 . S
C4186 C4187 1.385 . S
C4186 C4188 1.478 . S
C4187 H4181 0.930 . S
C4187 C4183 1.400 . S
C4187 C4186 1.385 . S
C4188 C4186 1.478 . S
C4188 C4190 1.381 . S
C4188 C4194 1.383 . S
C4189 C4185 1.495 . S
C4189 H4195 0.959 . S
C4189 H4196 0.961 . S
C4189 H4197 0.960 . S
C4190 C4188 1.381 . S
C4190 C4191 1.394 . S
C4190 H4198 0.930 . S
C4191 C4190 1.394 . S
C4191 C4192 1.383 . S
C4191 H4199 0.929 . S
C4192 C4191 1.383 . S
C4192 C4193 1.377 . S
C4193 H4177 0.930 . S
C4193 C4192 1.377 . S
C4193 C4194 1.379 . S
C4194 H4178 0.947 . S
C4194 C4188 1.383 . S
C4194 C4193 1.379 . S
H4195 C4189 0.959 . S
H4196 C4189 0.961 . S
H4197 C4189 0.960 . S
H4198 C4190 0.930 . S
H4199 C4191 0.929 . S
H4200 C4208 0.929 . S
H4201 C4210 0.930 . S
H4202 C4212 0.930 . S
H4203 C4215 0.929 . S
H4204 C4218 0.930 . S
H4205 C4220 0.960 . S
H4206 C4220 0.960 . S
H4207 C4220 0.960 . S
C4208 H4200 0.929 . S
C4208 C4209 1.377 . S
C4208 C4210 1.384 . S
C4209 C4208 1.377 . S
C4209 C4215 1.390 . S
C4210 H4201 0.930 . S
C4210 C4208 1.384 . S
C4210 C4211 1.372 . S
C4211 C4210 1.372 . S
C4211 C4212 1.400 . S
C4211 C4216 1.490 . S
C4212 H4202 0.930 . S
C4212 C4211 1.400 . S
C4212 C4215 1.386 . S
H4213 C4229 0.930 . S
H4214 C4230 0.931 . S
C4215 H4203 0.929 . S
C4215 C4209 1.390 . S
C4215 C4212 1.386 . S
C4216 C4211 1.490 . S
C4216 C4218 1.395 . S
C4216 C4219 1.403 . S
H4217 C4223 0.930 . S
C4218 H4204 0.930 . S
C4218 C4216 1.395 . S
C4218 C4221 1.403 . S
C4219 C4216 1.403 . S
C4219 C4220 1.524 . S
C4219 C4223 1.400 . S
C4220 H4205 0.960 . S
C4220 H4206 0.960 . S
C4220 H4207 0.960 . S
C4220 C4219 1.524 . S
C4221 C4218 1.403 . S
C4221 C4222 1.392 . S
C4221 C4225 1.495 . S
C4222 C4221 1.392 . S
C4222 C4223 1.385 . S
C4222 C4224 1.478 . S
C4223 H4217 0.930 . S
C4223 C4219 1.400 . S
C4223 C4222 1.385 . S
C4224 C4222 1.478 . S
C4224 C4226 1.381 . S
C4224 C4230 1.383 . S
C4225 C4221 1.495 . S
C4225 H4231 0.959 . S
C4225 H4232 0.961 . S
C4225 H4233 0.960 . S
C4226 C4224 1.381 . S
C4226 C4227 1.394 . S
C4226 H4234 0.930 . S
C4227 C4226 1.394 . S
C4227 C4228 1.383 . S
C4227 H4235 0.929 . S
C4228 C4227 1.383 . S
C4228 C4229 1.377 . S
C4229 H4213 0.930 . S
C4229 C4228 1.377 . S
C4229 C4230 1.379 . S
C4230 H4214 0.931 . S
C4230 C4224 1.383 . S
C4230 C4229 1.379 . S
H4231 C4225 0.959 . S
H4232 C4225 0.961 . S
H4233 C4225 0.960 . S
H4234 C4226 0.930 . S
H4235 C4227 0.929 . S
H4236 C4244 0.929 . S
H4237 C4246 0.930 . S
H4238 C4248 0.930 . S
H4239 C4251 0.929 . S
H4240 C4254 0.930 . S
H4241 C4256 0.960 . S
H4242 C4256 0.960 . S
H4243 C4256 0.960 . S
C4244 H4236 0.929 . S
C4244 C4245 1.377 . S
C4244 C4246 1.384 . S
C4245 C4244 1.377 . S
C4245 C4251 1.390 . S
C4246 H4237 0.930 . S
C4246 C4244 1.384 . S
C4246 C4247 1.372 . S
C4247 C4246 1.372 . S
C4247 C4248 1.400 . S
C4247 C4252 1.490 . S
C4248 H4238 0.930 . S
C4248 C4247 1.400 . S
C4248 C4251 1.386 . S
H4249 C4265 0.930 . S
H4250 C4266 0.931 . S
C4251 H4239 0.929 . S
C4251 C4245 1.390 . S
C4251 C4248 1.386 . S
C4252 C4247 1.490 . S
C4252 C4254 1.395 . S
C4252 C4255 1.403 . S
H4253 C4259 0.930 . S
C4254 H4240 0.930 . S
C4254 C4252 1.395 . S
C4254 C4257 1.403 . S
C4255 C4252 1.403 . S
C4255 C4256 1.524 . S
C4255 C4259 1.400 . S
C4256 H4241 0.960 . S
C4256 H4242 0.960 . S
C4256 H4243 0.960 . S
C4256 C4255 1.524 . S
C4257 C4254 1.403 . S
C4257 C4258 1.392 . S
C4257 C4261 1.495 . S
C4258 C4257 1.392 . S
C4258 C4259 1.385 . S
C4258 C4260 1.478 . S
C4259 H4253 0.930 . S
C4259 C4255 1.400 . S
C4259 C4258 1.385 . S
C4260 C4258 1.478 . S
C4260 C4262 1.381 . S
C4260 C4266 1.383 . S
C4261 C4257 1.495 . S
C4261 H4267 0.959 . S
C4261 H4268 0.961 . S
C4261 H4269 0.960 . S
C4262 C4260 1.381 . S
C4262 C4263 1.394 . S
C4262 H4270 0.930 . S
C4263 C4262 1.394 . S
C4263 C4264 1.383 . S
C4263 H4271 0.929 . S
C4264 C4263 1.383 . S
C4264 C4265 1.377 . S
C4265 H4249 0.930 . S
C4265 C4264 1.377 . S
C4265 C4266 1.379 . S
C4266 H4250 0.931 . S
C4266 C4260 1.383 . S
C4266 C4265 1.379 . S
H4267 C4261 0.959 . S
H4268 C4261 0.961 . S
H4269 C4261 0.960 . S
H4270 C4262 0.930 . S
H4271 C4263 0.929 . S
C844 C337 1.738 . S
C825 C7 1.741 . S
C861 C22 0.910 . S
C880 C382 0.909 . S
C897 C31 1.681 . S
C916 C406 1.656 . S
C952 N432 0.948 . S
C933 C51 0.943 . S
C969 C17 1.005 . S
C988 N462 1.008 . S
C1024 C496 1.489 . S
C1005 C36 1.527 . S
C1060 C532 1.129 . S
C1041 C49 1.112 . S
C1077 C9 1.703 . S
C1096 C556 1.674 . S
C1113 C63 0.871 . S
C1132 N350 0.877 . S
C1149 C73 0.979 . S
C1168 N372 0.977 . S
C1204 C412 0.969 . S
C1185 C91 0.942 . S
C1240 C436 1.736 . S
C1221 C101 1.757 . S
C1257 C59 1.179 . S
C1276 C466 1.141 . S
C1312 C502 0.990 . S
C1293 C77 0.982 . S
C1348 N522 0.977 . S
C1329 C87 0.972 . S
C1384 C562 1.635 . S
C1365 C105 1.618 . S
C1420 C363 1.592 . S
C1401 C107 1.589 . S
C1456 C592 0.920 . S
C1437 C120 0.915 . S
C1473 C135 0.968 . S
C1492 N612 0.971 . S
C1528 C646 1.517 . S
C1509 C148 1.529 . S
C1545 C65 0.800 . S
C1564 N552 0.796 . S
C1600 N402 0.960 1_565 S
C1581 C79 0.959 . S
C1617 C134 0.958 . S
C1636 C682 0.971 . S
C1672 C706 0.930 . S
C1653 C162 0.942 . S
C1689 C171 1.706 . S
C1708 C346 1.687 1_556 S
C1744 C723 0.863 . S
C1725 C190 0.870 . S
C1761 C203 1.601 . S
C1780 C397 1.590 . S
C1797 C219 0.903 . S
C1816 N680 0.896 . S
C1852 N470 0.959 . S
C1833 C189 0.965 . S
C1888 C607 1.470 . S
C1869 C204 1.479 . S
C1924 C543 1.073 . S
C1905 C213 1.072 . S
C1960 C727 1.626 . S
C1941 C177 1.652 . S
C1996 N342 0.827 . S
C1977 C227 0.837 . S
C2013 C245 0.926 . S
C2032 N710 0.936 . S
C2068 C423 0.880 . S
C2049 C255 0.898 . S
C2085 C273 1.661 . S
C2104 C667 1.680 . S
C2121 C231 1.079 . S
C2140 C457 1.082 1_655 S
C2157 C241 0.954 . S
C2176 C633 0.935 . S
C2212 N530 0.933 . S
C2193 C259 0.920 . S
C2229 C269 1.590 . S
C2248 C753 1.579 . S
C2265 C275 1.544 . S
C2284 C352 1.521 . S
C2301 C288 0.869 1_554 S
C2320 C603 0.851 . S
C2337 C303 0.937 . S
C2356 N500 0.936 . S
C2373 C316 1.474 . S
C2392 C637 1.447 . S
C2428 N740 0.784 . S
C2409 C233 0.766 1_565 S
C2464 N410 0.927 . S
C2445 C247 0.923 . S
C2500 C453 0.885 . S
C2481 C302 0.909 . S
C2536 C367 0.886 . S
C2517 C330 0.875 . S
C2553 C35 1.740 . S
C2572 C757 1.730 . S
C2608 C712 0.891 . S
C2589 C50 0.909 . S
C2644 C796 1.647 . S
C2625 C3 1.682 . S
C2661 C23 0.934 1_655 S
C2680 N672 0.935 . S
C2697 C45 1.005 . S
C2716 N582 1.006 1_556 S
C2752 C616 1.506 . S
C2733 C8 1.528 . S
C2788 C652 1.118 . S
C2769 C21 1.100 . S
C2824 C736 1.686 . S
C2805 C37 1.699 . S
C2860 N770 0.862 . S
C2841 C161 0.859 . S
C2877 C115 0.979 1_556 S
C2896 N702 0.978 . S
C2913 C133 0.933 . S
C2932 C802 0.954 1_655 S
C2968 C676 1.710 . S
C2949 C143 1.758 . S
C3004 C586 1.131 . S
C2985 C157 1.181 . S
C3021 C119 0.987 . S
C3040 C622 1.015 . S
C3076 N642 0.975 . S
C3057 C129 0.972 . S
C3093 C147 1.623 . S
C3112 C742 1.633 . S
C3148 C783 1.590 . S
C3129 C149 1.589 . S
C3184 C472 0.905 . S
C3165 C78 0.913 . S
C3220 N492 0.972 . S
C3201 C93 0.969 1_565 S
C3237 C106 1.530 . S
C3256 C526 1.505 . S
C3292 N732 0.791 . S
C3273 C163 0.798 . S
C3309 C121 0.962 . S
C3328 N792 0.966 . S
C3364 C442 0.972 . S
C3345 C92 0.959 . S
C3400 C376 0.904 . S
C3381 C64 0.940 . S
C3417 C199 1.707 . S
C3436 C766 1.696 . S
C3472 C393 0.863 . S
C3453 C218 0.861 . S
C3508 C787 1.619 1_556 S
C3489 C175 1.602 . S
C3525 C191 0.899 . S
C3544 N440 0.904 . S
C3561 C217 0.949 . S
C3580 N590 0.957 . S
C3597 C176 1.480 . S
C3616 C487 1.443 . S
C3633 C185 1.076 . S
C3652 C663 1.077 . S
C3669 C205 1.652 . S
C3688 C547 1.627 . S
C3724 N762 0.818 . S
C3705 C325 0.837 . S
C3741 C287 0.913 . S
C3760 N380 0.936 . S
C3796 C813 0.913 . S
C3777 C297 0.898 . S
C3813 C315 1.663 . S
C3832 C427 1.664 . S
C3849 C329 1.078 . S
C3868 C577 1.083 . S
C3904 C513 0.937 . S
C3885 C283 0.960 . S
C3921 C301 0.905 . S
C3940 N650 0.943 . S
C3976 C573 1.584 . S
C3957 C311 1.590 . S
C4012 C772 1.544 . S
C3993 C317 1.544 . S
C4048 C483 0.883 . S
C4029 C246 0.868 . S
C4065 C261 0.936 . S
C4084 N620 0.928 . S
C4120 C517 1.485 . S
C4101 C274 1.474 . S
C4156 N560 0.772 . S
C4137 C331 0.762 . S
C4173 C289 0.923 1_554 S
C4192 N800 0.936 . S
C4228 C693 0.909 . S
C4209 C260 0.910 . S
C4264 C697 0.847 . S
C4245 C232 0.876 . S
