# Generated by pormake.
# Topology ocu, (6,8)-cn, num edge types: 1
# Building blocks:
#     Node 0, Type 0, BuildingBlock: CUKXOW_clean_sbu_0, # of connection points: 6
#     Node 1, Type 0, BuildingBlock: CUKXOW_clean_sbu_0, # of connection points: 6
#     Node 2, Type 0, BuildingBlock: CUKXOW_clean_sbu_0, # of connection points: 6
#     Node 3, Type 0, BuildingBlock: CUKXOW_clean_sbu_0, # of connection points: 6
#     Node 4, Type 0, BuildingBlock: CUKXOW_clean_sbu_0, # of connection points: 6
#     Node 5, Type 0, BuildingBlock: CUKXOW_clean_sbu_0, # of connection points: 6
#     Node 6, Type 0, BuildingBlock: CUKXOW_clean_sbu_0, # of connection points: 6
#     Node 7, Type 0, BuildingBlock: CUKXOW_clean_sbu_0, # of connection points: 6
#     Node 8, Type 1, BuildingBlock: VETTIZ_charged_sbu_0, # of connection points: 8
#     Node 9, Type 1, BuildingBlock: VETTIZ_charged_sbu_0, # of connection points: 8
#     Node 10, Type 1, BuildingBlock: VETTIZ_charged_sbu_0, # of connection points: 8
#     Node 11, Type 1, BuildingBlock: VETTIZ_charged_sbu_0, # of connection points: 8
#     Node 12, Type 1, BuildingBlock: VETTIZ_charged_sbu_0, # of connection points: 8
#     Node 13, Type 1, BuildingBlock: VETTIZ_charged_sbu_0, # of connection points: 8
#     Edge 14, Type (0, 1), BuildingBlock: CIFDUS_clean_linker_0, # of connection points: 2
#     Edge 15, Type (0, 1), BuildingBlock: CIFDUS_clean_linker_0, # of connection points: 2
#     Edge 16, Type (0, 1), BuildingBlock: CIFDUS_clean_linker_0, # of connection points: 2
#     Edge 17, Type (0, 1), BuildingBlock: CIFDUS_clean_linker_0, # of connection points: 2
#     Edge 18, Type (0, 1), BuildingBlock: CIFDUS_clean_linker_0, # of connection points: 2
#     Edge 19, Type (0, 1), BuildingBlock: CIFDUS_clean_linker_0, # of connection points: 2
#     Edge 20, Type (0, 1), BuildingBlock: CIFDUS_clean_linker_0, # of connection points: 2
#     Edge 21, Type (0, 1), BuildingBlock: CIFDUS_clean_linker_0, # of connection points: 2
#     Edge 22, Type (0, 1), BuildingBlock: CIFDUS_clean_linker_0, # of connection points: 2
#     Edge 23, Type (0, 1), BuildingBlock: CIFDUS_clean_linker_0, # of connection points: 2
#     Edge 24, Type (0, 1), BuildingBlock: CIFDUS_clean_linker_0, # of connection points: 2
#     Edge 25, Type (0, 1), BuildingBlock: CIFDUS_clean_linker_0, # of connection points: 2
#     Edge 26, Type (0, 1), BuildingBlock: CIFDUS_clean_linker_0, # of connection points: 2
#     Edge 27, Type (0, 1), BuildingBlock: CIFDUS_clean_linker_0, # of connection points: 2
#     Edge 28, Type (0, 1), BuildingBlock: CIFDUS_clean_linker_0, # of connection points: 2
#     Edge 29, Type (0, 1), BuildingBlock: CIFDUS_clean_linker_0, # of connection points: 2
#     Edge 30, Type (0, 1), BuildingBlock: CIFDUS_clean_linker_0, # of connection points: 2
#     Edge 31, Type (0, 1), BuildingBlock: CIFDUS_clean_linker_0, # of connection points: 2
#     Edge 32, Type (0, 1), BuildingBlock: CIFDUS_clean_linker_0, # of connection points: 2
#     Edge 33, Type (0, 1), BuildingBlock: CIFDUS_clean_linker_0, # of connection points: 2
#     Edge 34, Type (0, 1), BuildingBlock: CIFDUS_clean_linker_0, # of connection points: 2
#     Edge 35, Type (0, 1), BuildingBlock: CIFDUS_clean_linker_0, # of connection points: 2
#     Edge 36, Type (0, 1), BuildingBlock: CIFDUS_clean_linker_0, # of connection points: 2
#     Edge 37, Type (0, 1), BuildingBlock: CIFDUS_clean_linker_0, # of connection points: 2
#     Edge 38, Type (0, 1), BuildingBlock: CIFDUS_clean_linker_0, # of connection points: 2
#     Edge 39, Type (0, 1), BuildingBlock: CIFDUS_clean_linker_0, # of connection points: 2
#     Edge 40, Type (0, 1), BuildingBlock: CIFDUS_clean_linker_0, # of connection points: 2
#     Edge 41, Type (0, 1), BuildingBlock: CIFDUS_clean_linker_0, # of connection points: 2
#     Edge 42, Type (0, 1), BuildingBlock: CIFDUS_clean_linker_0, # of connection points: 2
#     Edge 43, Type (0, 1), BuildingBlock: CIFDUS_clean_linker_0, # of connection points: 2
#     Edge 44, Type (0, 1), BuildingBlock: CIFDUS_clean_linker_0, # of connection points: 2
#     Edge 45, Type (0, 1), BuildingBlock: CIFDUS_clean_linker_0, # of connection points: 2
#     Edge 46, Type (0, 1), BuildingBlock: CIFDUS_clean_linker_0, # of connection points: 2
#     Edge 47, Type (0, 1), BuildingBlock: CIFDUS_clean_linker_0, # of connection points: 2
#     Edge 48, Type (0, 1), BuildingBlock: CIFDUS_clean_linker_0, # of connection points: 2
#     Edge 49, Type (0, 1), BuildingBlock: CIFDUS_clean_linker_0, # of connection points: 2
#     Edge 50, Type (0, 1), BuildingBlock: CIFDUS_clean_linker_0, # of connection points: 2
#     Edge 51, Type (0, 1), BuildingBlock: CIFDUS_clean_linker_0, # of connection points: 2
#     Edge 52, Type (0, 1), BuildingBlock: CIFDUS_clean_linker_0, # of connection points: 2
#     Edge 53, Type (0, 1), BuildingBlock: CIFDUS_clean_linker_0, # of connection points: 2
#     Edge 54, Type (0, 1), BuildingBlock: CIFDUS_clean_linker_0, # of connection points: 2
#     Edge 55, Type (0, 1), BuildingBlock: CIFDUS_clean_linker_0, # of connection points: 2
#     Edge 56, Type (0, 1), BuildingBlock: CIFDUS_clean_linker_0, # of connection points: 2
#     Edge 57, Type (0, 1), BuildingBlock: CIFDUS_clean_linker_0, # of connection points: 2
#     Edge 58, Type (0, 1), BuildingBlock: CIFDUS_clean_linker_0, # of connection points: 2
#     Edge 59, Type (0, 1), BuildingBlock: CIFDUS_clean_linker_0, # of connection points: 2
#     Edge 60, Type (0, 1), BuildingBlock: CIFDUS_clean_linker_0, # of connection points: 2
#     Edge 61, Type (0, 1), BuildingBlock: CIFDUS_clean_linker_0, # of connection points: 2
# Relax obj value: 0.097
# Max RMSD: 0.206
# Mean RMSD: 0.123
data_MOF--net-ocu--node1-CUKXOW_clean_sbu_0--node2-VETTIZ_charged_sbu_0--edge1-CIFDUS_clean_linker_0
_symmetry_space_group_name_H-M    P1
_symmetry_Int_Tables_number       1
_symmetry_cell_setting            triclinic
loop_
_symmetry_equiv_pos_as_xyz
'x, y, z'
_cell_length_a     32.787845
_cell_length_b     34.701668
_cell_length_c     33.562056
_cell_angle_alpha  91.942138
_cell_angle_beta   91.894827
_cell_angle_gamma 89.789208
loop_
_atom_site_label
_atom_site_type_symbol
_atom_site_fract_x
_atom_site_fract_y
_atom_site_fract_z
_atom_type_partial_charge
Tb0 Tb 0.26287 0.22885 0.22867 0.0
C1 C 0.30786 0.30861 0.21261 0.0
Tb2 Tb 0.25426 0.29583 0.29128 0.0
O3 O 0.21734 0.24854 0.18324 0.0
O4 O 0.22775 0.27928 0.23537 0.0
O5 O 0.30611 0.27072 0.20359 0.0
C6 C 0.22769 0.36095 0.32207 0.0
O7 O 0.28831 0.32388 0.24379 0.0
C8 C 0.30851 0.24342 0.31835 0.0
C9 C 0.20715 0.21696 0.30618 0.0
O10 O 0.26612 0.35239 0.3195 0.0
O11 O 0.20467 0.33241 0.30959 0.0
O12 O 0.2974 0.27456 0.33792 0.0
O13 O 0.28981 0.24547 0.28465 0.0
O14 O 0.20962 0.25477 0.3155 0.0
O15 O 0.22706 0.20151 0.27522 0.0
C16 C 0.28788 0.16507 0.19269 0.0
O17 O 0.25015 0.17636 0.19337 0.0
O18 O 0.31147 0.18987 0.21186 0.0
C19 C 0.20729 0.28002 0.20261 0.0
Tb20 Tb 0.72645 0.24984 0.29674 0.0
C21 C 0.7236 0.20821 0.21247 0.0
Tb22 Tb 0.79621 0.26339 0.24025 0.0
O23 O 0.67997 0.29072 0.27256 0.0
O24 O 0.73589 0.28511 0.24704 0.0
O25 O 0.70836 0.21024 0.24847 0.0
C26 C 0.84033 0.29967 0.18869 0.0
O27 O 0.75611 0.22751 0.20196 0.0
C28 C 0.82264 0.21168 0.29398 0.0
C29 C 0.79201 0.31009 0.32256 0.0
O30 O 0.8272 0.26452 0.18339 0.0
O31 O 0.82846 0.31398 0.22245 0.0
O32 O 0.8433 0.2241 0.2646 0.0
O33 O 0.78768 0.22828 0.29024 0.0
O34 O 0.8073 0.30741 0.28661 0.0
O35 O 0.76158 0.28923 0.33433 0.0
C36 C 0.6945 0.21061 0.35361 0.0
O37 O 0.68293 0.24514 0.34421 0.0
O38 O 0.72212 0.19789 0.3299 0.0
C39 C 0.7016 0.30289 0.24353 0.0
Tb40 Tb 0.7588 0.78191 0.22863 0.0
C41 C 0.69697 0.71491 0.20657 0.0
Tb42 Tb 0.75099 0.73343 0.28251 0.0
O43 O 0.81737 0.76154 0.20421 0.0
O44 O 0.77634 0.72179 0.22485 0.0
O45 O 0.71591 0.74509 0.19352 0.0
C46 C 0.7628 0.67631 0.33271 0.0
O47 O 0.70473 0.70438 0.24336 0.0
C48 C 0.69832 0.78996 0.30053 0.0
C49 C 0.81907 0.79707 0.29769 0.0
O50 O 0.76026 0.71246 0.34269 0.0
O51 O 0.75746 0.67288 0.29461 0.0
O52 O 0.69111 0.75332 0.30091 0.0
O53 O 0.7346 0.79361 0.28798 0.0
O54 O 0.8094 0.7608 0.30441 0.0
O55 O 0.79957 0.81461 0.26871 0.0
C56 C 0.71888 0.8331 0.18803 0.0
O57 O 0.7579 0.82703 0.18438 0.0
O58 O 0.70335 0.81047 0.21304 0.0
C59 C 0.81135 0.72491 0.2096 0.0
Tb60 Tb 0.2711 0.78093 0.23576 0.0
C61 C 0.31578 0.7831 0.31955 0.0
Tb62 Tb 0.2518 0.72169 0.2901 0.0
O63 O 0.21093 0.80822 0.24461 0.0
O64 O 0.2396 0.78214 0.29145 0.0
O65 O 0.31285 0.79825 0.28407 0.0
C66 C 0.21426 0.6893 0.34785 0.0
O67 O 0.29363 0.75368 0.32954 0.0
C68 C 0.30692 0.68833 0.24477 0.0
C69 C 0.21198 0.71756 0.20432 0.0
O70 O 0.25319 0.68703 0.34298 0.0
O71 O 0.19653 0.70826 0.31946 0.0
O72 O 0.28963 0.6726 0.27426 0.0
O73 O 0.29336 0.72288 0.24165 0.0
O74 O 0.20634 0.70978 0.24204 0.0
O75 O 0.24024 0.74177 0.19412 0.0
C76 C 0.31231 0.82506 0.18696 0.0
O77 O 0.27465 0.83054 0.19651 0.0
O78 O 0.32634 0.79523 0.20494 0.0
C79 C 0.20687 0.79962 0.28174 0.0
Tb80 Tb 0.22893 0.74332 0.77325 0.0
C81 C 0.23142 0.70478 0.68934 0.0
Tb82 Tb 0.28977 0.7624 0.72646 0.0
O83 O 0.17809 0.76191 0.73441 0.0
O84 O 0.2319 0.79267 0.73348 0.0
O85 O 0.2254 0.69824 0.72693 0.0
C86 C 0.34587 0.79941 0.68799 0.0
O87 O 0.25366 0.73391 0.67987 0.0
C88 C 0.31175 0.69894 0.76745 0.0
C89 C 0.2855 0.80765 0.80787 0.0
O90 O 0.31153 0.7873 0.67233 0.0
O91 O 0.34918 0.78924 0.7245 0.0
O92 O 0.31953 0.70524 0.73061 0.0
O93 O 0.29264 0.72887 0.7798 0.0
O94 O 0.29804 0.80824 0.77107 0.0
O95 O 0.25695 0.78327 0.8175 0.0
C96 C 0.19167 0.69931 0.82325 0.0
O97 O 0.18317 0.73572 0.81898 0.0
O98 O 0.22002 0.68849 0.79959 0.0
C99 C 0.19624 0.78918 0.71643 0.0
Tb100 Tb 0.25935 0.27326 0.73361 0.0
C101 C 0.20143 0.20238 0.71586 0.0
Tb102 Tb 0.25611 0.23006 0.78694 0.0
O103 O 0.31635 0.25924 0.70566 0.0
O104 O 0.28184 0.2144 0.72867 0.0
O105 O 0.21893 0.23231 0.70088 0.0
C106 C 0.28606 0.17794 0.83611 0.0
O107 O 0.20992 0.19499 0.75339 0.0
C108 C 0.20511 0.28746 0.80829 0.0
C109 C 0.32228 0.29668 0.79731 0.0
O110 O 0.25834 0.20306 0.84513 0.0
O111 O 0.29449 0.18134 0.7993 0.0
O112 O 0.19715 0.25084 0.81037 0.0
O113 O 0.2401 0.29031 0.79282 0.0
O114 O 0.30911 0.26402 0.81139 0.0
O115 O 0.30521 0.30908 0.76422 0.0
C116 C 0.2125 0.3164 0.68984 0.0
O117 O 0.25172 0.3133 0.68549 0.0
O118 O 0.2008 0.29686 0.71935 0.0
C119 C 0.31448 0.22212 0.70991 0.0
Tb120 Tb 0.75747 0.29329 0.71137 0.0
C121 C 0.80646 0.30387 0.79392 0.0
Tb122 Tb 0.7459 0.2343 0.7789 0.0
O123 O 0.71491 0.33849 0.72956 0.0
O124 O 0.72268 0.29047 0.76406 0.0
O125 O 0.80363 0.31151 0.75549 0.0
C126 C 0.70379 0.19582 0.83191 0.0
O127 O 0.78454 0.27701 0.81065 0.0
C128 C 0.80209 0.21188 0.72443 0.0
C129 C 0.69823 0.22408 0.69505 0.0
O130 O 0.74347 0.19705 0.83094 0.0
O131 O 0.68854 0.21679 0.80388 0.0
O132 O 0.79684 0.1953 0.75832 0.0
O133 O 0.77268 0.23557 0.72298 0.0
O134 O 0.70316 0.21327 0.73246 0.0
O135 O 0.71727 0.2533 0.67966 0.0
C136 C 0.79295 0.32423 0.65093 0.0
O137 O 0.75494 0.32967 0.65935 0.0
O138 O 0.81042 0.30178 0.67653 0.0
C139 C 0.70359 0.32275 0.76199 0.0
Tb140 Tb 0.75206 0.71344 0.71793 0.0
C141 C 0.80238 0.79015 0.70876 0.0
Tb142 Tb 0.74141 0.77465 0.78043 0.0
O143 O 0.72757 0.75078 0.6712 0.0
O144 O 0.70585 0.75623 0.72853 0.0
O145 O 0.80118 0.75249 0.69964 0.0
C146 C 0.70817 0.83766 0.81175 0.0
O147 O 0.77913 0.80489 0.73746 0.0
C148 C 0.80028 0.72745 0.80699 0.0
C149 C 0.69794 0.69446 0.79514 0.0
O150 O 0.74508 0.82597 0.81955 0.0
O151 O 0.6895 0.81286 0.78816 0.0
O152 O 0.78777 0.7581 0.82643 0.0
O153 O 0.78007 0.72635 0.77393 0.0
O154 O 0.70293 0.73095 0.80837 0.0
O155 O 0.71371 0.68233 0.76047 0.0
C156 C 0.77251 0.64909 0.67942 0.0
O157 O 0.7381 0.66704 0.67367 0.0
O158 O 0.79509 0.66768 0.7059 0.0
C159 C 0.70422 0.77112 0.69421 0.0
Fe160 Fe 1.00471 0.05033 0.50852 0.0
O161 O 0.97274 0.00556 0.52873 0.0
Fe162 Fe 0.09857 1.00253 0.48988 0.0
Fe163 Fe 0.91289 1.00275 0.52627 0.0
O164 O 0.03724 0.00539 0.4844 0.0
O165 O 0.03854 0.99858 0.48644 0.0
O166 O 0.97423 0.99894 0.53094 0.0
Fe167 Fe 0.00728 0.95361 0.50766 0.0
C168 C 0.93502 0.08234 0.56643 0.0
O169 O 0.96551 0.05777 0.45724 0.0
O170 O 0.90555 0.04522 0.48307 0.0
O171 O 0.04826 0.91494 0.47423 0.0
O172 O 0.09434 0.95684 0.44798 0.0
O173 O 0.09308 0.04823 0.45081 0.0
O174 O 0.04656 0.08957 0.48019 0.0
O175 O 0.90768 0.96054 0.48125 0.0
O176 O 0.96939 0.95087 0.45639 0.0
C177 C 0.07634 0.08219 0.4552 0.0
O178 O 0.04671 0.94772 0.55935 0.0
O179 O 0.1064 0.9599 0.53309 0.0
O180 O 0.96522 0.08932 0.54248 0.0
O181 O 0.91715 0.04898 0.568 0.0
C182 C 0.92634 0.0615 0.45675 0.0
C183 C 0.93065 0.94659 0.45442 0.0
C184 C 0.93575 0.923 0.56157 0.0
O185 O 0.9186 0.9569 0.56533 0.0
O186 O 0.96579 0.91515 0.537 0.0
C187 C 0.07749 0.923 0.44934 0.0
O188 O 0.10315 0.04523 0.5349 0.0
O189 O 0.04148 0.04971 0.56 0.0
C190 C 0.08588 0.94385 0.55978 0.0
C191 C 0.07961 0.05657 0.56244 0.0
Fe192 Fe 0.50112 0.96319 0.00697 0.0
O193 O 0.53442 1.00255 0.03819 0.0
Fe194 Fe 0.42224 0.01788 0.96781 0.0
Fe195 Fe 0.59289 0.99782 0.0501 0.0
O196 O 0.48047 0.00828 0.97754 0.0
O197 O 0.48141 0.01214 0.97757 0.0
O198 O 0.53571 0.00586 0.03764 0.0
Fe199 Fe 0.51371 0.05129 0.01037 0.0
C200 C 0.5494 0.92607 0.07553 0.0
O201 O 0.54627 0.95563 0.96661 0.0
O202 O 0.60024 0.95404 0.00916 0.0
O203 O 0.48563 0.09415 0.97794 0.0
O204 O 0.44361 0.06013 0.93287 0.0
O205 O 0.42868 0.9714 0.92927 0.0
O206 O 0.46258 0.92792 0.96946 0.0
O207 O 0.61275 0.03708 0.00949 0.0
O208 O 0.559 0.0499 0.96954 0.0
C209 C 0.44001 0.93685 0.93831 0.0
O210 O 0.46984 0.05382 0.05172 0.0
O211 O 0.41596 0.06053 0.01094 0.0
O212 O 0.52727 0.92114 0.04286 0.0
O213 O 0.57063 0.95671 0.08549 0.0
C214 C 0.58266 0.94572 0.97574 0.0
C215 C 0.59715 0.05147 0.97789 0.0
C216 C 0.57364 0.07867 0.07881 0.0
O217 O 0.58515 0.04434 0.08809 0.0
O218 O 0.55005 0.08693 0.04842 0.0
C219 C 0.46387 0.09063 0.94514 0.0
O220 O 0.40235 0.97852 0.0081 0.0
O221 O 0.45665 0.96856 0.04796 0.0
C222 C 0.43235 0.06113 0.04575 0.0
C223 C 0.41849 0.96707 0.04064 0.0
Fe224 Fe 1.00448 0.55218 1.00642 0.0
O225 O 0.96939 0.50884 0.98639 0.0
Fe226 Fe 0.09933 0.50279 0.02386 0.0
Fe227 Fe 0.91052 0.50957 0.991 0.0
O228 O 0.0386 0.50863 0.03022 0.0
O229 O 0.04049 0.50348 0.02749 0.0
O230 O 0.97125 0.50353 0.98374 0.0
Fe231 Fe 1.00511 0.46008 0.00811 0.0
C232 C 0.93295 0.57108 0.0601 0.0
O233 O 0.96419 0.59118 0.97447 0.0
O234 O 0.9127 0.55193 0.9485 0.0
O235 O 0.03906 0.44705 0.9563 0.0
O236 O 0.10205 0.45648 0.98115 0.0
O237 O 0.10051 0.54157 0.97918 0.0
O238 O 0.03653 0.54641 0.95527 0.0
O239 O 0.91298 0.46162 0.95331 0.0
O240 O 0.96102 0.42138 0.98312 0.0
C241 C 0.07444 0.55282 0.95306 0.0
O242 O 0.04518 0.42137 0.04007 0.0
O243 O 0.09669 0.46046 0.06658 0.0
O244 O 0.97128 0.56353 0.05852 0.0
O245 O 0.90812 0.55573 0.03401 0.0
C246 C 0.9324 0.58441 0.95016 0.0
C247 C 0.93121 0.4285 0.95751 0.0
C248 C 0.93552 0.46105 0.06198 0.0
O249 O 0.90934 0.47025 0.03519 0.0
O250 O 0.9733 0.4677 0.05945 0.0
C251 C 0.07774 0.44039 0.95505 0.0
O252 O 0.09696 0.55121 0.06149 0.0
O253 O 0.04763 0.59072 0.03236 0.0
C254 C 0.07706 0.42792 0.06422 0.0
C255 C 0.07795 0.58395 0.05739 0.0
Fe256 Fe 0.50652 0.50223 0.95741 0.0
O257 O 0.54023 0.48282 1.00471 0.0
Fe258 Fe 0.41181 0.51596 1.0056 0.0
Fe259 Fe 0.60029 0.48877 0.00985 0.0
O260 O 0.47227 0.52317 1.00291 0.0
O261 O 0.47166 0.52166 0.00929 0.0
O262 O 0.53973 0.48139 0.01127 0.0
Fe263 Fe 0.50551 0.50293 0.05641 0.0
C264 C 0.57959 0.44735 0.92894 0.0
O265 O 0.54118 0.55342 0.95512 0.0
O266 O 0.60352 0.52926 0.96407 0.0
O267 O 0.46338 0.53469 0.09524 0.0
O268 O 0.41519 0.55791 0.05015 0.0
O269 O 0.41233 0.55244 0.95707 0.0
O270 O 0.46264 0.52976 0.91554 0.0
O271 O 0.60227 0.5332 0.05302 0.0
O272 O 0.53834 0.55369 0.05894 0.0
C273 C 0.42974 0.55106 0.92272 0.0
O274 O 0.47118 0.45192 0.05981 0.0
O275 O 0.40898 0.47625 0.052 0.0
O276 O 0.54941 0.47108 0.91882 0.0
O277 O 0.59757 0.44774 0.96406 0.0
C278 C 0.57966 0.55479 0.94938 0.0
C279 C 0.57647 0.55772 0.06602 0.0
C280 C 0.58106 0.45322 0.09204 0.0
O281 O 0.59936 0.45123 0.05809 0.0
O282 O 0.54895 0.47581 0.09831 0.0
C283 C 0.43355 0.55871 0.08503 0.0
O284 O 0.40928 0.4706 0.96415 0.0
O285 O 0.47319 0.45129 0.95332 0.0
C286 C 0.43288 0.45056 0.06626 0.0
C287 C 0.43468 0.44628 0.95019 0.0
Fe288 Fe 0.01172 0.46858 0.5041 0.0
O289 O 0.03275 0.51034 0.54064 0.0
Fe290 Fe 0.98134 0.5143 0.41953 0.0
Fe291 Fe 0.03608 0.50503 0.59797 0.0
O292 O 0.98028 0.50932 0.4773 0.0
O293 O 0.97987 0.51244 0.47783 0.0
O294 O 0.03279 0.51329 0.54094 0.0
Fe295 Fe 1.00076 0.55445 0.51496 0.0
C296 C 0.96831 0.44885 0.57474 0.0
O297 O 0.04808 0.43071 0.53471 0.0
O298 O 0.08269 0.46882 0.582 0.0
O299 O 0.04921 0.56342 0.48055 0.0
O300 O 0.01897 0.56097 0.42005 0.0
O301 O 0.03094 0.47798 0.41053 0.0
O302 O 0.06011 0.47785 0.47084 0.0
O303 O 0.06777 0.55586 0.5973 0.0
O304 O 0.02715 0.59367 0.55645 0.0
C305 C 0.06157 0.47215 0.43381 0.0
O306 O 0.9646 0.59265 0.48233 0.0
O307 O 0.93699 0.5532 0.43126 0.0
O308 O 0.96404 0.45994 0.53937 0.0
O309 O 0.99988 0.4564 0.59669 0.0
C310 C 0.07964 0.43935 0.55722 0.0
C311 C 0.05714 0.58834 0.58193 0.0
C312 C 0.95271 0.54331 0.58827 0.0
O313 O 0.98497 0.5375 0.60958 0.0
O314 O 0.95277 0.54574 0.55056 0.0
C315 C 0.04712 0.57235 0.44442 0.0
O316 O 0.94672 0.46587 0.42093 0.0
O317 O 0.98558 0.42848 0.46308 0.0
C318 C 0.93922 0.58516 0.4525 0.0
C319 C 0.95549 0.43375 0.43775 0.0
Fe320 Fe 0.51481 0.96056 0.50363 0.0
O321 O 0.53386 0.00781 0.53483 0.0
Fe322 Fe 0.48332 0.99884 0.41244 0.0
Fe323 Fe 0.53053 0.01287 0.59426 0.0
O324 O 0.4846 0.9995 0.4704 0.0
O325 O 0.47854 1.0041 0.47226 0.0
O326 O 0.52846 0.01208 0.53642 0.0
Fe327 Fe 0.49929 0.05127 0.50286 0.0
C328 C 0.4627 0.95605 0.57446 0.0
O329 O 0.54835 0.92551 0.54531 0.0
O330 O 0.57557 0.9695 0.59167 0.0
O331 O 0.54942 0.04879 0.46814 0.0
O332 O 0.52053 0.04571 0.40776 0.0
O333 O 0.53351 0.96131 0.40738 0.0
O334 O 0.56587 0.95578 0.46641 0.0
O335 O 0.56561 0.06004 0.58553 0.0
O336 O 0.52965 0.09408 0.53723 0.0
C337 C 0.56396 0.94933 0.42833 0.0
O338 O 0.46581 0.08579 0.46008 0.0
O339 O 0.43722 0.04085 0.41524 0.0
O340 O 0.46412 0.95999 0.53722 0.0
O341 O 0.49048 0.96862 0.59877 0.0
C342 C 0.57282 0.93476 0.57583 0.0
C343 C 0.5587 0.09024 0.56426 0.0
C344 C 0.45167 0.06516 0.57956 0.0
O345 O 0.48216 0.05224 0.5998 0.0
O346 O 0.44893 0.05889 0.54137 0.0
C347 C 0.54781 0.05856 0.43229 0.0
O348 O 0.45001 0.94979 0.42027 0.0
O349 O 0.48764 0.91715 0.46833 0.0
C350 C 0.44072 0.07601 0.42998 0.0
C351 C 0.45886 0.91965 0.44104 0.0
H352 H 0.14642 0.23038 0.36471 0.0
H353 H 0.21541 0.13902 0.3076 0.0
H354 H 0.18203 0.09178 0.34674 0.0
H355 H 0.13377 0.07433 0.39708 0.0
H356 H 0.06203 0.16248 0.45547 0.0
H357 H 0.0951 0.21167 0.41628 0.0
C358 C 0.15416 0.20016 0.36068 0.0
C359 C 0.18398 0.18913 0.33215 0.0
C360 C 0.13397 0.1719 0.38373 0.0
C361 C 0.19283 0.14933 0.32827 0.0
C362 C 0.17361 0.12183 0.35102 0.0
C363 C 0.12487 0.10422 0.40161 0.0
C364 C 0.09476 0.11381 0.43004 0.0
C365 C 0.14411 0.13252 0.37878 0.0
C366 C 0.0846 0.15333 0.43428 0.0
C367 C 0.10384 0.18176 0.41169 0.0
H368 H 0.79584 0.14726 0.3385 0.0
H369 H 0.89874 0.22205 0.32503 0.0
H370 H 0.94006 0.18357 0.37047 0.0
H371 H 0.94954 0.12689 0.41412 0.0
H372 H 0.84704 0.05202 0.42888 0.0
H373 H 0.80498 0.09093 0.38404 0.0
C374 C 0.827 0.1557 0.34599 0.0
C375 C 0.84329 0.18871 0.32783 0.0
C376 C 0.85179 0.13245 0.37252 0.0
C377 C 0.8845 0.19753 0.33806 0.0
C378 C 0.90865 0.17513 0.36422 0.0
C379 C 0.91817 0.11864 0.40734 0.0
C380 C 0.90245 0.08544 0.42546 0.0
C381 C 0.89313 0.14206 0.38144 0.0
C382 C 0.86096 0.07675 0.41599 0.0
C383 C 0.83642 0.09936 0.39008 0.0
H384 H 0.81051 0.87178 0.32193 0.0
H385 H 0.89032 0.77412 0.33673 0.0
H386 H 0.93483 0.8129 0.38288 0.0
H387 H 0.94917 0.87448 0.42208 0.0
H388 H 0.86414 0.96888 0.41124 0.0
H389 H 0.82391 0.93188 0.36085 0.0
C390 C 0.83786 0.85899 0.33496 0.0
C391 C 0.84719 0.82007 0.32544 0.0
C392 C 0.86246 0.88112 0.36245 0.0
C393 C 0.88233 0.8039 0.3434 0.0
C394 C 0.90783 0.82618 0.3698 0.0
C395 C 0.92229 0.88714 0.40803 0.0
C396 C 0.91019 0.92488 0.42 0.0
C397 C 0.89808 0.86485 0.37989 0.0
C398 C 0.8745 0.94027 0.40233 0.0
C399 C 0.85132 0.91899 0.37358 0.0
H400 H 0.16414 0.7821 0.35123 0.0
H401 H 0.19377 0.87651 0.27703 0.0
H402 H 0.15636 0.92091 0.3202 0.0
H403 H 0.116 0.93466 0.37931 0.0
H404 H 0.08159 0.84212 0.4536 0.0
H405 H 0.11864 0.79605 0.41027 0.0
C406 C 0.16242 0.81239 0.34447 0.0
C407 C 0.18255 0.8255 0.31029 0.0
C408 C 0.1394 0.83844 0.36953 0.0
C409 C 0.17905 0.86503 0.3025 0.0
C410 C 0.15746 0.89071 0.32741 0.0
C411 C 0.11613 0.90438 0.38628 0.0
C412 C 0.0955 0.89256 0.42051 0.0
C413 C 0.13752 0.87796 0.36101 0.0
C414 C 0.09646 0.85273 0.42783 0.0
C415 C 0.11816 0.82623 0.40297 0.0
H416 H 0.21936 0.85742 0.67517 0.0
H417 H 0.11583 0.78478 0.69404 0.0
H418 H 0.07292 0.82467 0.65157 0.0
H419 H 0.06272 0.88039 0.60635 0.0
H420 H 0.16627 0.95194 0.58488 0.0
H421 H 0.20897 0.91366 0.62964 0.0
C422 C 0.18741 0.85024 0.67034 0.0
C423 C 0.17175 0.81726 0.68923 0.0
C424 C 0.16181 0.87379 0.64462 0.0
C425 C 0.1298 0.80945 0.6811 0.0
C426 C 0.10469 0.83257 0.65633 0.0
C427 C 0.09446 0.88815 0.61167 0.0
C428 C 0.11019 0.92024 0.59144 0.0
C429 C 0.11999 0.86498 0.63763 0.0
C430 C 0.15218 0.92814 0.59925 0.0
C431 C 0.17714 0.90587 0.62521 0.0
H432 H 0.12629 0.16471 0.71546 0.0
H433 H 0.2371 0.17395 0.65073 0.0
H434 H 0.21065 0.12875 0.59928 0.0
H435 H 0.15559 0.08836 0.57065 0.0
H436 H 0.04251 0.08032 0.63182 0.0
H437 H 0.06992 0.12286 0.68596 0.0
C438 C 0.14463 0.15645 0.69026 0.0
C439 C 0.18376 0.17271 0.6871 0.0
C440 C 0.12869 0.1307 0.65977 0.0
C441 C 0.2069 0.16204 0.65391 0.0
C442 C 0.1918 0.13611 0.62436 0.0
C443 C 0.1369 0.09551 0.59593 0.0
C444 C 0.09693 0.08077 0.59688 0.0
C445 C 0.15264 0.12051 0.62669 0.0
C446 C 0.07334 0.09103 0.63 0.0
C447 C 0.08906 0.11547 0.66111 0.0
H448 H 0.88191 0.18413 0.71971 0.0
H449 H 0.77166 0.19646 0.64791 0.0
H450 H 0.8024 0.15949 0.59307 0.0
H451 H 0.85978 0.11933 0.56609 0.0
H452 H 0.97289 0.11354 0.63447 0.0
H453 H 0.94281 0.15235 0.68862 0.0
C454 C 0.86471 0.17928 0.69188 0.0
C455 C 0.82381 0.19315 0.68886 0.0
C456 C 0.8835 0.15899 0.65926 0.0
C457 C 0.80274 0.18642 0.65193 0.0
C458 C 0.82051 0.16505 0.62025 0.0
C459 C 0.87831 0.12737 0.59239 0.0
C460 C 0.9192 0.11342 0.59541 0.0
C461 C 0.86076 0.15064 0.62357 0.0
C462 C 0.94193 0.12401 0.63042 0.0
C463 C 0.9244 0.14607 0.66181 0.0
H464 H 0.85792 0.77603 0.64637 0.0
H465 H 0.80437 0.86866 0.7164 0.0
H466 H 0.8405 0.91564 0.67909 0.0
H467 H 0.88612 0.93234 0.62594 0.0
H468 H 0.94221 0.84229 0.55491 0.0
H469 H 0.9072 0.79356 0.593 0.0
C470 C 0.85428 0.80645 0.65374 0.0
C471 C 0.8278 0.81797 0.68504 0.0
C472 C 0.87593 0.83437 0.63173 0.0
C473 C 0.82409 0.858 0.69322 0.0
C474 C 0.84493 0.88532 0.67161 0.0
C475 C 0.89115 0.90209 0.61852 0.0
C476 C 0.91736 0.89174 0.58686 0.0
C477 C 0.8708 0.87407 0.64071 0.0
C478 C 0.92284 0.85188 0.57882 0.0
C479 C 0.90244 0.82377 0.6007 0.0
H480 H 0.3578 0.12668 0.20265 0.0
H481 H 0.25237 0.13743 0.12359 0.0
H482 H 0.28749 0.10174 0.07076 0.0
H483 H 0.35162 0.07731 0.04472 0.0
H484 H 0.45781 0.06842 0.12377 0.0
H485 H 0.41857 0.09311 0.17943 0.0
C486 C 0.34227 0.1201 0.17416 0.0
C487 C 0.30319 0.13472 0.16636 0.0
C488 C 0.3629 0.10062 0.14395 0.0
C489 C 0.28266 0.1261 0.12987 0.0
C490 C 0.30284 0.10617 0.09964 0.0
C491 C 0.36613 0.08054 0.07416 0.0
C492 C 0.40781 0.07243 0.07991 0.0
C493 C 0.34359 0.09495 0.10589 0.0
C494 C 0.42596 0.07556 0.11841 0.0
C495 C 0.40357 0.08947 0.15028 0.0
H496 H 0.88424 0.36324 0.20518 0.0
H497 H 0.84358 0.28632 0.10841 0.0
H498 H 0.87061 0.33025 0.06006 0.0
H499 H 0.90087 0.3928 0.04588 0.0
H500 H 0.94425 0.46826 0.14264 0.0
H501 H 0.92077 0.42251 0.19118 0.0
C502 C 0.8818 0.35596 0.17348 0.0
C503 C 0.86177 0.32212 0.15999 0.0
C504 C 0.89728 0.38119 0.14626 0.0
C505 C 0.85903 0.31239 0.11914 0.0
C506 C 0.87415 0.33755 0.09165 0.0
C507 C 0.90505 0.39903 0.07768 0.0
C508 C 0.92314 0.4338 0.09124 0.0
C509 C 0.89239 0.3724 0.10493 0.0
C510 C 0.92977 0.44164 0.13209 0.0
C511 C 0.91648 0.41558 0.15959 0.0
H512 H 0.68126 0.81595 0.11872 0.0
H513 H 0.694 0.90219 0.21363 0.0
H514 H 0.62662 0.92811 0.1964 0.0
H515 H 0.5657 0.9267 0.15381 0.0
H516 H 0.55967 0.85106 0.04946 0.0
H517 H 0.61955 0.81576 0.07429 0.0
C518 C 0.66991 0.84163 0.13414 0.0
C519 C 0.69267 0.85849 0.1661 0.0
C520 C 0.63104 0.85567 0.12452 0.0
C521 C 0.67737 0.89032 0.1876 0.0
C522 C 0.63842 0.90406 0.17877 0.0
C523 C 0.57692 0.90163 0.13721 0.0
C524 C 0.56029 0.89275 0.09905 0.0
C525 C 0.6149 0.88654 0.14771 0.0
C526 C 0.57297 0.85913 0.07852 0.0
C527 C 0.60813 0.84002 0.09184 0.0
H528 H 0.13231 0.69428 0.20107 0.0
H529 H 0.2434 0.69174 0.13554 0.0
H530 H 0.21026 0.65304 0.08209 0.0
H531 H 0.15133 0.61636 0.05586 0.0
H532 H 0.03894 0.61979 0.11855 0.0
H533 H 0.07032 0.66241 0.17084 0.0
C534 C 0.14896 0.68533 0.17492 0.0
C535 C 0.19015 0.69556 0.17217 0.0
C536 C 0.1294 0.66364 0.14372 0.0
C537 C 0.21154 0.68429 0.13811 0.0
C538 C 0.19269 0.66214 0.10756 0.0
C539 C 0.13359 0.62732 0.08056 0.0
C540 C 0.09309 0.61562 0.08356 0.0
C541 C 0.15185 0.65136 0.11023 0.0
C542 C 0.0701 0.62929 0.11561 0.0
C543 C 0.08817 0.65317 0.14563 0.0
H544 H 0.35196 0.85062 0.79616 0.0
H545 H 0.27466 0.8135 0.88918 0.0
H546 H 0.32017 0.84559 0.93949 0.0
H547 H 0.38081 0.88686 0.95615 0.0
H548 H 0.45653 0.92237 0.86156 0.0
H549 H 0.41343 0.88664 0.81251 0.0
C550 C 0.34462 0.84954 0.82737 0.0
C551 C 0.30943 0.83017 0.83875 0.0
C552 C 0.37133 0.86689 0.85584 0.0
C553 C 0.30109 0.82883 0.8795 0.0
C554 C 0.32736 0.84678 0.90827 0.0
C555 C 0.38851 0.88541 0.92494 0.0
C556 C 0.42218 0.90626 0.91227 0.0
C557 C 0.36263 0.8659 0.89673 0.0
C558 C 0.43131 0.90562 0.87178 0.0
C559 C 0.40632 0.88579 0.84378 0.0
H560 H 0.13864 0.28534 0.86026 0.0
H561 H 0.22184 0.36535 0.81093 0.0
H562 H 0.19081 0.41847 0.84932 0.0
H563 H 0.1411 0.44351 0.89994 0.0
H564 H 0.05566 0.36418 0.94669 0.0
H565 H 0.08636 0.31101 0.90793 0.0
C566 C 0.15008 0.31436 0.85762 0.0
C567 C 0.18347 0.32033 0.83208 0.0
C568 C 0.1315 0.34565 0.88012 0.0
C569 C 0.19688 0.35885 0.82993 0.0
C570 C 0.17891 0.38965 0.85218 0.0
C571 C 0.12864 0.41473 0.9013 0.0
C572 C 0.095 0.40882 0.92649 0.0
C573 C 0.14632 0.38366 0.8778 0.0
C574 C 0.08043 0.37061 0.92743 0.0
C575 C 0.09841 0.33979 0.9052 0.0
H576 H 0.72903 0.15276 0.89519 0.0
H577 H 0.62286 0.18222 0.82308 0.0
H578 H 0.58113 0.13865 0.85991 0.0
H579 H 0.57427 0.09258 0.91285 0.0
H580 H 0.67954 0.06404 0.98691 0.0
H581 H 0.72182 0.10656 0.9492 0.0
C582 C 0.69674 0.14968 0.88776 0.0
C583 C 0.67909 0.17075 0.85652 0.0
C584 C 0.67267 0.12455 0.9093 0.0
C585 C 0.63719 0.16652 0.84717 0.0
C586 C 0.61327 0.14145 0.86811 0.0
C587 C 0.60654 0.09526 0.9206 0.0
C588 C 0.62358 0.0747 0.95261 0.0
C589 C 0.63065 0.12026 0.89919 0.0
C590 C 0.66548 0.0791 0.96226 0.0
C591 C 0.68975 0.10363 0.9408 0.0
H592 H 0.85944 0.73505 0.86689 0.0
H593 H 0.79902 0.64894 0.79086 0.0
H594 H 0.83466 0.5979 0.82726 0.0
H595 H 0.88056 0.57721 0.8833 0.0
H596 H 0.94414 0.66342 0.95694 0.0
H597 H 0.91054 0.71431 0.91883 0.0
C598 C 0.85447 0.70511 0.85784 0.0
C599 C 0.82632 0.69621 0.82573 0.0
C600 C 0.87574 0.67566 0.87879 0.0
C601 C 0.82057 0.65704 0.81482 0.0
C602 C 0.84088 0.62771 0.83598 0.0
C603 C 0.88748 0.6071 0.89103 0.0
C604 C 0.91508 0.61592 0.92378 0.0
C605 C 0.8682 0.63655 0.86841 0.0
C606 C 0.92342 0.65518 0.93235 0.0
C607 C 0.90391 0.6845 0.91049 0.0
H608 H 0.16367 0.27732 0.132 0.0
H609 H 0.19277 0.35473 0.23186 0.0
H610 H 0.15394 0.40635 0.19921 0.0
H611 H 0.11414 0.43075 0.13993 0.0
H612 H 0.08362 0.35165 0.04171 0.0
H613 H 0.12061 0.30009 0.07556 0.0
C614 C 0.16136 0.3054 0.14693 0.0
C615 C 0.18142 0.31175 0.18472 0.0
C616 C 0.13874 0.33498 0.12786 0.0
C617 C 0.17778 0.34858 0.20315 0.0
C618 C 0.15558 0.37827 0.18423 0.0
C619 C 0.11504 0.40207 0.12615 0.0
C620 C 0.09543 0.39538 0.08806 0.0
C621 C 0.13621 0.37202 0.14631 0.0
C622 C 0.09742 0.35785 0.07099 0.0
C623 C 0.11898 0.32828 0.09034 0.0
H624 H 0.11222 0.69086 0.8427 0.0
H625 H 0.23425 0.64814 0.86487 0.0
H626 H 0.20825 0.59656 0.90407 0.0
H627 H 0.15145 0.56323 0.93121 0.0
H628 H 0.0284 0.60418 0.91023 0.0
H629 H 0.05391 0.65614 0.87038 0.0
C630 C 0.13286 0.6706 0.8569 0.0
C631 C 0.17493 0.67318 0.85153 0.0
C632 C 0.11753 0.64029 0.87868 0.0
C633 C 0.20169 0.64649 0.86896 0.0
C634 C 0.18689 0.61692 0.89111 0.0
C635 C 0.13011 0.58332 0.91768 0.0
C636 C 0.08825 0.57991 0.92363 0.0
C637 C 0.14492 0.61332 0.89576 0.0
C638 C 0.06089 0.60597 0.90569 0.0
C639 C 0.07545 0.63598 0.88334 0.0
H640 H 0.36061 0.15522 0.81775 0.0
H641 H 0.28136 0.17345 0.91697 0.0
H642 H 0.3387 0.16038 0.96359 0.0
H643 H 0.40903 0.13808 0.9742 0.0
H644 H 0.48511 0.11621 0.87373 0.0
H645 H 0.43212 0.1415 0.82883 0.0
C646 C 0.35566 0.15625 0.84959 0.0
C647 C 0.31692 0.16436 0.86427 0.0
C648 C 0.38859 0.15052 0.87559 0.0
C649 C 0.31099 0.16626 0.90539 0.0
C650 C 0.34377 0.15964 0.93182 0.0
C651 C 0.4146 0.14104 0.94272 0.0
C652 C 0.45006 0.12525 0.92663 0.0
C653 C 0.38259 0.15163 0.9171 0.0
C654 C 0.45775 0.12861 0.8862 0.0
C655 C 0.42705 0.14177 0.8606 0.0
H656 H 0.8453 0.28818 0.86524 0.0
H657 H 0.82742 0.3769 0.77897 0.0
H658 H 0.8682 0.42145 0.82057 0.0
H659 H 0.90491 0.4369 0.88246 0.0
H660 H 0.92387 0.35078 0.97083 0.0
H661 H 0.88795 0.30295 0.92675 0.0
C662 C 0.85061 0.31721 0.85563 0.0
C663 C 0.83325 0.32922 0.81917 0.0
C664 C 0.87447 0.34296 0.87978 0.0
C665 C 0.84063 0.36677 0.80674 0.0
C666 C 0.86388 0.39239 0.83053 0.0
C667 C 0.90139 0.40757 0.89208 0.0
C668 C 0.91618 0.39742 0.92998 0.0
C669 C 0.88038 0.38095 0.8672 0.0
C670 C 0.91248 0.35918 0.94172 0.0
C671 C 0.89168 0.33204 0.9167 0.0
H672 H 0.70171 0.8337 0.88918 0.0
H673 H 0.66436 0.90004 0.78819 0.0
H674 H 0.61973 0.93991 0.83048 0.0
H675 H 0.59026 0.95375 0.8965 0.0
H676 H 0.62564 0.88317 0.99534 0.0
H677 H 0.67117 0.8456 0.95321 0.0
C678 C 0.68428 0.85742 0.87682 0.0
C679 C 0.6865 0.86509 0.83652 0.0
C680 C 0.65765 0.87839 0.90056 0.0
C681 C 0.66315 0.89465 0.81974 0.0
C682 C 0.63752 0.91695 0.84368 0.0
C683 C 0.60765 0.92979 0.90833 0.0
C684 C 0.60516 0.92099 0.94854 0.0
C685 C 0.63408 0.90862 0.88406 0.0
C686 C 0.62771 0.89029 0.96426 0.0
C687 C 0.65377 0.86903 0.9404 0.0
H688 H 0.88715 0.72111 0.17097 0.0
H689 H 0.78043 0.65296 0.19036 0.0
H690 H 0.80663 0.60119 0.14711 0.0
H691 H 0.85939 0.57424 0.10122 0.0
H692 H 0.96945 0.63897 0.08706 0.0
H693 H 0.94305 0.69141 0.12982 0.0
C694 C 0.86957 0.69492 0.16601 0.0
C695 C 0.83093 0.69212 0.18426 0.0
C696 C 0.88573 0.66385 0.14147 0.0
C697 C 0.80969 0.65706 0.17708 0.0
C698 C 0.82485 0.627 0.15204 0.0
C699 C 0.87794 0.5996 0.10768 0.0
C700 C 0.917 0.60174 0.09027 0.0
C701 C 0.86275 0.6299 0.13367 0.0
C702 C 0.93985 0.63545 0.09983 0.0
C703 C 0.92445 0.66593 0.12436 0.0
H704 H 0.29238 0.89457 0.1553 0.0
H705 H 0.38538 0.80627 0.15736 0.0
H706 H 0.4266 0.84297 0.11307 0.0
H707 H 0.43674 0.90002 0.07407 0.0
H708 H 0.344 0.9881 0.06893 0.0
H709 H 0.3024 0.95221 0.1147 0.0
C710 C 0.32165 0.88351 0.14593 0.0
C711 C 0.33598 0.84793 0.15966 0.0
C712 C 0.34535 0.90488 0.1203 0.0
C713 C 0.37389 0.83376 0.1474 0.0
C714 C 0.39749 0.85469 0.12207 0.0
C715 C 0.40747 0.91138 0.08318 0.0
C716 C 0.39332 0.94652 0.06851 0.0
C717 C 0.38365 0.8903 0.10853 0.0
C718 C 0.35521 0.96089 0.07988 0.0
C719 C 0.33156 0.94041 0.10599 0.0
H720 H 0.64423 0.21254 0.1908 0.0
H721 H 0.75556 0.15064 0.16719 0.0
H722 H 0.71821 0.10584 0.12145 0.0
H723 H 0.65358 0.08224 0.09235 0.0
H724 H 0.54205 0.14494 0.11262 0.0
H725 H 0.57994 0.1927 0.15515 0.0
C726 C 0.6601 0.18933 0.17524 0.0
C727 C 0.70214 0.1841 0.1823 0.0
C728 C 0.63855 0.1643 0.14869 0.0
C729 C 0.72307 0.15474 0.1619 0.0
C730 C 0.70178 0.12925 0.13599 0.0
C731 C 0.63765 0.10649 0.10607 0.0
C732 C 0.59524 0.10996 0.10059 0.0
C733 C 0.6595 0.13341 0.12984 0.0
C734 C 0.57475 0.14182 0.11713 0.0
C735 C 0.59634 0.16884 0.1414 0.0
H736 H 0.65042 0.70472 0.86425 0.0
H737 H 0.69584 0.61581 0.78421 0.0
H738 H 0.6651 0.5666 0.82353 0.0
H739 H 0.62582 0.5468 0.88175 0.0
H740 H 0.57537 0.63436 0.95962 0.0
H741 H 0.60717 0.68468 0.92113 0.0
C742 C 0.65354 0.67463 0.85513 0.0
C743 C 0.6761 0.6649 0.8204 0.0
C744 C 0.63471 0.64552 0.87807 0.0
C745 C 0.67904 0.62518 0.81005 0.0
C746 C 0.66135 0.59656 0.83287 0.0
C747 C 0.62153 0.57691 0.89033 0.0
C748 C 0.59781 0.58618 0.92412 0.0
C749 C 0.6392 0.60611 0.86708 0.0
C750 C 0.59287 0.62576 0.93398 0.0
C751 C 0.61135 0.65477 0.9118 0.0
H752 H 0.29192 0.64312 0.822 0.0
H753 H 0.39588 0.69558 0.77126 0.0
H754 H 0.44192 0.65477 0.81092 0.0
H755 H 0.45383 0.60378 0.86284 0.0
H756 H 0.34803 0.55038 0.91019 0.0
H757 H 0.30331 0.59061 0.86999 0.0
C758 C 0.32461 0.64599 0.81978 0.0
C759 C 0.33972 0.67354 0.79358 0.0
C760 C 0.35142 0.62138 0.84238 0.0
C761 C 0.38265 0.67535 0.791 0.0
C762 C 0.40931 0.65165 0.81386 0.0
C763 C 0.42108 0.60019 0.86382 0.0
C764 C 0.40519 0.57293 0.8903 0.0
C765 C 0.39434 0.62425 0.83991 0.0
C766 C 0.36209 0.57037 0.89071 0.0
C767 C 0.33599 0.5938 0.86757 0.0
H768 H 0.32973 0.30622 0.87831 0.0
H769 H 0.37957 0.34496 0.76948 0.0
H770 H 0.42286 0.39137 0.80764 0.0
H771 H 0.44248 0.42502 0.87183 0.0
H772 H 0.38644 0.39126 0.97945 0.0
H773 H 0.35013 0.33902 0.94244 0.0
C774 C 0.35062 0.32435 0.86304 0.0
C775 C 0.35168 0.32178 0.82104 0.0
C776 C 0.37424 0.35218 0.88516 0.0
C777 C 0.37823 0.3462 0.80171 0.0
C778 C 0.40296 0.37284 0.82357 0.0
C779 C 0.42299 0.40562 0.8872 0.0
C780 C 0.41773 0.4115 0.92849 0.0
C781 C 0.40073 0.37664 0.86527 0.0
C782 C 0.39139 0.38695 0.94784 0.0
C783 C 0.37046 0.3572 0.92661 0.0
H784 H 0.68736 0.31571 0.84386 0.0
H785 H 0.64882 0.37617 0.73899 0.0
H786 H 0.60541 0.41835 0.77846 0.0
H787 H 0.58188 0.44327 0.84448 0.0
H788 H 0.61867 0.38116 0.94902 0.0
H789 H 0.65767 0.33608 0.90881 0.0
C790 C 0.66885 0.3375 0.82949 0.0
C791 C 0.6721 0.34234 0.78807 0.0
C792 C 0.64338 0.36256 0.85276 0.0
C793 C 0.64767 0.37142 0.77067 0.0
C794 C 0.62258 0.39598 0.79336 0.0
C795 C 0.5977 0.41953 0.85846 0.0
C796 C 0.59716 0.41682 0.90042 0.0
C797 C 0.6207 0.39265 0.83475 0.0
C798 C 0.61847 0.38524 0.91716 0.0
C799 C 0.64112 0.35893 0.89403 0.0
H800 H 0.63202 0.34933 0.24373 0.0
H801 H 0.73397 0.32055 0.17054 0.0
H802 H 0.70631 0.36287 0.11881 0.0
H803 H 0.6525 0.40814 0.09306 0.0
H804 H 0.55162 0.43863 0.16731 0.0
H805 H 0.5794 0.39652 0.21892 0.0
C806 C 0.64854 0.35234 0.21658 0.0
C807 C 0.68571 0.33107 0.21184 0.0
C808 C 0.63235 0.37748 0.18662 0.0
C809 C 0.70586 0.33609 0.17592 0.0
C810 C 0.68975 0.36047 0.14601 0.0
C811 C 0.63627 0.40589 0.12047 0.0
C812 C 0.59914 0.42742 0.12523 0.0
C813 C 0.65291 0.38137 0.15078 0.0
C814 C 0.57975 0.42321 0.16177 0.0
C815 C 0.59584 0.39877 0.19163 0.0
H816 H 0.6202 0.68155 0.20532 0.0
H817 H 0.73096 0.68679 0.14009 0.0
H818 H 0.7043 0.63902 0.0911 0.0
H819 H 0.65012 0.59435 0.06702 0.0
H820 H 0.53609 0.59331 0.12729 0.0
H821 H 0.56269 0.64094 0.17698 0.0
C822 C 0.63824 0.67229 0.18023 0.0
C823 C 0.67772 0.68744 0.1766 0.0
C824 C 0.62195 0.64564 0.15095 0.0
C825 C 0.70057 0.67552 0.14365 0.0
C826 C 0.68533 0.64815 0.11554 0.0
C827 C 0.63095 0.60478 0.09083 0.0
C828 C 0.59121 0.58999 0.09338 0.0
C829 C 0.64614 0.63284 0.11889 0.0
C830 C 0.56672 0.60423 0.12434 0.0
C831 C 0.58204 0.63136 0.15301 0.0
H832 H 0.32833 0.69428 0.16499 0.0
H833 H 0.35722 0.63221 0.27128 0.0
H834 H 0.40191 0.58874 0.23421 0.0
H835 H 0.42827 0.56312 0.16932 0.0
H836 H 0.39945 0.62647 0.0635 0.0
H837 H 0.36037 0.67296 0.10188 0.0
C838 C 0.34501 0.67178 0.18021 0.0
C839 C 0.33892 0.66687 0.22117 0.0
C840 C 0.37071 0.64594 0.15834 0.0
C841 C 0.36078 0.6369 0.23983 0.0
C842 C 0.38652 0.61169 0.21853 0.0
C843 C 0.4143 0.58749 0.15476 0.0
C844 C 0.41698 0.59019 0.11293 0.0
C845 C 0.39112 0.6151 0.17738 0.0
C846 C 0.39797 0.62252 0.0953 0.0
C847 C 0.37528 0.64959 0.11734 0.0
H848 H 0.38557 0.30844 0.17717 0.0
H849 H 0.27351 0.37336 0.18337 0.0
H850 H 0.30021 0.42068 0.13882 0.0
H851 H 0.35569 0.44564 0.09827 0.0
H852 H 0.47019 0.38446 0.09508 0.0
H853 H 0.44285 0.33517 0.13756 0.0
C854 C 0.36688 0.33284 0.16871 0.0
C855 C 0.32696 0.33663 0.18414 0.0
C856 C 0.38317 0.36131 0.14332 0.0
C857 C 0.30408 0.36917 0.17265 0.0
C858 C 0.31945 0.39651 0.14686 0.0
C859 C 0.37486 0.4215 0.10653 0.0
C860 C 0.41535 0.41935 0.09238 0.0
C861 C 0.35902 0.39321 0.13202 0.0
C862 C 0.43909 0.38751 0.10463 0.0
C863 C 0.4233 0.35901 0.12924 0.0
H864 H 0.81743 0.59096 0.70524 0.0
H865 H 0.76586 0.64006 0.59873 0.0
H866 H 0.81588 0.60523 0.55837 0.0
H867 H 0.88251 0.57291 0.55663 0.0
H868 H 0.93614 0.52785 0.66492 0.0
H869 H 0.87663 0.54858 0.70152 0.0
C870 C 0.8162 0.59255 0.67296 0.0
C871 C 0.78873 0.61785 0.65467 0.0
C872 C 0.84598 0.57405 0.65061 0.0
C873 C 0.78682 0.62024 0.61306 0.0
C874 C 0.81579 0.60089 0.5902 0.0
C875 C 0.88085 0.56698 0.58807 0.0
C876 C 0.9142 0.55017 0.60845 0.0
C877 C 0.84693 0.57963 0.6091 0.0
C878 C 0.91134 0.54193 0.64894 0.0
C879 C 0.87727 0.55353 0.66983 0.0
H880 H 0.34826 0.81933 0.61143 0.0
H881 H 0.3938 0.8495 0.73053 0.0
H882 H 0.42792 0.90577 0.70614 0.0
H883 H 0.44815 0.9435 0.65105 0.0
H884 H 0.40829 0.91084 0.53059 0.0
H885 H 0.36735 0.85892 0.55562 0.0
C886 C 0.36611 0.83811 0.63173 0.0
C887 C 0.36954 0.83023 0.67226 0.0
C888 C 0.38603 0.87003 0.61748 0.0
C889 C 0.39188 0.85474 0.69887 0.0
C890 C 0.41091 0.88707 0.68512 0.0
C891 C 0.43024 0.92527 0.63024 0.0
C892 C 0.43175 0.93044 0.58918 0.0
C893 C 0.40858 0.89462 0.64447 0.0
C894 C 0.40774 0.90721 0.56251 0.0
C895 C 0.38467 0.87731 0.57668 0.0
H896 H 0.22904 0.35896 0.62702 0.0
H897 H 0.13184 0.30423 0.68788 0.0
H898 H 0.08173 0.32867 0.64042 0.0
H899 H 0.06482 0.37439 0.59022 0.0
H900 H 0.15932 0.44016 0.53838 0.0
H901 H 0.21191 0.40077 0.57135 0.0
C902 C 0.19691 0.35234 0.6294 0.0
C903 C 0.18366 0.33095 0.66085 0.0
C904 C 0.16814 0.36765 0.603 0.0
C905 C 0.14229 0.32166 0.66406 0.0
C906 C 0.11371 0.33513 0.6368 0.0
C907 C 0.09701 0.37884 0.58515 0.0
C908 C 0.10913 0.40949 0.56289 0.0
C909 C 0.12619 0.35925 0.60719 0.0
C910 C 0.15028 0.41623 0.55603 0.0
C911 C 0.18 0.39424 0.57516 0.0
H912 H 0.63703 0.23791 0.64216 0.0
H913 H 0.71927 0.15034 0.68556 0.0
H914 H 0.68923 0.10291 0.63825 0.0
H915 H 0.6351 0.08503 0.5917 0.0
H916 H 0.54284 0.16777 0.5578 0.0
H917 H 0.58259 0.21953 0.59218 0.0
C918 C 0.64798 0.20836 0.64092 0.0
C919 C 0.67914 0.19677 0.66727 0.0
C920 C 0.62932 0.18097 0.61505 0.0
C921 C 0.69426 0.15899 0.66585 0.0
C922 C 0.67756 0.1322 0.63866 0.0
C923 C 0.62374 0.11448 0.5916 0.0
C924 C 0.58571 0.12271 0.57379 0.0
C925 C 0.64437 0.14268 0.61414 0.0
C926 C 0.57198 0.16096 0.57205 0.0
C927 C 0.59433 0.19029 0.59209 0.0
H928 H 0.86641 0.29596 0.35143 0.0
H929 H 0.76569 0.37561 0.35967 0.0
H930 H 0.80724 0.41911 0.40347 0.0
H931 H 0.87465 0.43759 0.43057 0.0
H932 H 0.97615 0.35882 0.421 0.0
H933 H 0.93133 0.31041 0.38753 0.0
C934 C 0.8537 0.3227 0.36343 0.0
C935 C 0.81397 0.33364 0.35228 0.0
C936 C 0.87766 0.34713 0.38817 0.0
C937 C 0.79668 0.36748 0.368 0.0
C938 C 0.8203 0.39208 0.39284 0.0
C939 C 0.88667 0.4095 0.42168 0.0
C940 C 0.92843 0.40167 0.42692 0.0
C941 C 0.86118 0.38271 0.40184 0.0
C942 C 0.94397 0.36518 0.41665 0.0
C943 C 0.91853 0.33783 0.39732 0.0
H944 H 0.68429 0.87107 0.29962 0.0
H945 H 0.6618 0.77148 0.36902 0.0
H946 H 0.62328 0.81091 0.41597 0.0
H947 H 0.59122 0.87343 0.43691 0.0
H948 H 0.60856 0.97245 0.36571 0.0
H949 H 0.65283 0.93458 0.32161 0.0
C950 C 0.6714 0.85798 0.32521 0.0
C951 C 0.67675 0.81757 0.33003 0.0
C952 C 0.64776 0.8812 0.35255 0.0
C953 C 0.65873 0.80196 0.36363 0.0
C954 C 0.63641 0.82475 0.39095 0.0
C955 C 0.60548 0.88711 0.41239 0.0
C956 C 0.59691 0.92667 0.40591 0.0
C957 C 0.63015 0.86441 0.38577 0.0
C958 C 0.61484 0.94268 0.37252 0.0
C959 C 0.64015 0.92072 0.34684 0.0
H960 H 0.13782 0.70361 0.36547 0.0
H961 H 0.24186 0.63362 0.39785 0.0
H962 H 0.19841 0.59292 0.43713 0.0
H963 H 0.1288 0.57165 0.45184 0.0
H964 H 0.02524 0.63797 0.41039 0.0
H965 H 0.07048 0.68618 0.38462 0.0
C966 C 0.15101 0.67974 0.38164 0.0
C967 C 0.19218 0.67056 0.37833 0.0
C968 C 0.12583 0.65574 0.40181 0.0
C969 C 0.20973 0.64051 0.39996 0.0
C970 C 0.18497 0.61723 0.42201 0.0
C971 C 0.11659 0.597 0.43751 0.0
C972 C 0.07445 0.60158 0.43196 0.0
C973 C 0.14268 0.62357 0.42145 0.0
C974 C 0.05799 0.63411 0.41383 0.0
C975 C 0.08365 0.66157 0.39945 0.0
H976 H 0.3758 0.19613 0.30027 0.0
H977 H 0.28234 0.21395 0.38624 0.0
H978 H 0.31428 0.16611 0.42904 0.0
H979 H 0.37078 0.11998 0.44446 0.0
H980 H 0.46341 0.10051 0.3581 0.0
H981 H 0.43096 0.14763 0.31446 0.0
C982 C 0.36195 0.18897 0.32794 0.0
C983 C 0.32599 0.20869 0.33939 0.0
C984 C 0.38119 0.16136 0.35331 0.0
C985 C 0.30954 0.19929 0.37612 0.0
C986 C 0.32808 0.17193 0.40098 0.0
C987 C 0.38407 0.1263 0.41627 0.0
C988 C 0.42043 0.10709 0.40539 0.0
C989 C 0.36436 0.15309 0.39041 0.0
C990 C 0.43619 0.11525 0.36799 0.0
C991 C 0.41731 0.14214 0.34267 0.0
H992 H 0.71653 0.82305 0.63623 0.0
H993 H 0.62466 0.78702 0.71566 0.0
H994 H 0.57548 0.83186 0.68499 0.0
H995 H 0.55807 0.88223 0.63465 0.0
H996 H 0.6521 0.92028 0.55857 0.0
H997 H 0.70041 0.8748 0.58876 0.0
C998 C 0.6858 0.82515 0.64711 0.0
C999 C 0.67469 0.80135 0.67855 0.0
C1000 C 0.65774 0.85165 0.62958 0.0
C1001 C 0.63459 0.80496 0.69205 0.0
C1002 C 0.60625 0.8306 0.67419 0.0
C1003 C 0.58903 0.88023 0.62436 0.0
C1004 C 0.60092 0.90436 0.59332 0.0
C1005 C 0.61729 0.85412 0.64272 0.0
C1006 C 0.6416 0.90178 0.58146 0.0
C1007 C 0.66941 0.87577 0.59901 0.0
H1008 H 0.61609 0.21273 0.37256 0.0
H1009 H 0.72969 0.15318 0.39479 0.0
H1010 H 0.69376 0.10151 0.42677 0.0
H1011 H 0.62893 0.06876 0.43806 0.0
H1012 H 0.51552 0.12503 0.40723 0.0
H1013 H 0.55195 0.18255 0.3887 0.0
C1014 C 0.63287 0.18897 0.38557 0.0
C1015 C 0.67497 0.18619 0.38152 0.0
C1016 C 0.61186 0.15839 0.40123 0.0
C1017 C 0.69694 0.15537 0.39779 0.0
C1018 C 0.67647 0.12581 0.41566 0.0
C1019 C 0.61255 0.09382 0.42738 0.0
C1020 C 0.57011 0.09278 0.4225 0.0
C1021 C 0.63378 0.12616 0.41574 0.0
C1022 C 0.54848 0.12517 0.40952 0.0
C1023 C 0.5692 0.15808 0.39946 0.0
H1024 H 0.78281 0.67873 0.41172 0.0
H1025 H 0.8057 0.61842 0.29969 0.0
H1026 H 0.8711 0.59673 0.3256 0.0
H1027 H 0.92237 0.59757 0.37752 0.0
H1028 H 0.89338 0.63719 0.49642 0.0
H1029 H 0.8312 0.66883 0.4696 0.0
C1030 C 0.80157 0.65962 0.39374 0.0
C1031 C 0.79025 0.65081 0.35381 0.0
C1032 C 0.8387 0.64599 0.40923 0.0
C1033 C 0.81408 0.62571 0.33053 0.0
C1034 C 0.85184 0.61404 0.34489 0.0
C1035 C 0.90237 0.61313 0.3977 0.0
C1036 C 0.91137 0.61467 0.43863 0.0
C1037 C 0.86469 0.62504 0.38362 0.0
C1038 C 0.88659 0.63593 0.46459 0.0
C1039 C 0.85074 0.65286 0.44947 0.0
H1040 H 0.38437 0.77002 0.36408 0.0
H1041 H 0.28493 0.84963 0.34501 0.0
H1042 H 0.31781 0.8973 0.3902 0.0
H1043 H 0.37946 0.91988 0.4243 0.0
H1044 H 0.48291 0.84408 0.43882 0.0
H1045 H 0.44348 0.79043 0.40771 0.0
C1046 C 0.36993 0.79756 0.37077 0.0
C1047 C 0.33326 0.8073 0.35129 0.0
C1048 C 0.38966 0.82521 0.3957 0.0
C1049 C 0.31381 0.84248 0.3597 0.0
C1050 C 0.33242 0.86952 0.38542 0.0
C1051 C 0.39307 0.89139 0.42113 0.0
C1052 C 0.43396 0.88574 0.43218 0.0
C1053 C 0.37112 0.8618 0.40192 0.0
C1054 C 0.45135 0.84878 0.42963 0.0
C1055 C 0.42901 0.81836 0.41166 0.0
H1056 H 0.21307 0.36959 0.39829 0.0
H1057 H 0.20231 0.42551 0.28602 0.0
H1058 H 0.14974 0.46898 0.31237 0.0
H1059 H 0.09864 0.48218 0.36368 0.0
H1060 H 0.10682 0.42036 0.47314 0.0
H1061 H 0.16799 0.38748 0.45164 0.0
C1062 C 0.20036 0.39255 0.38043 0.0
C1063 C 0.21125 0.39526 0.34092 0.0
C1064 C 0.16865 0.4152 0.39482 0.0
C1065 C 0.19439 0.42395 0.31703 0.0
C1066 C 0.16392 0.44812 0.33179 0.0
C1067 C 0.11412 0.46163 0.38262 0.0
C1068 C 0.09843 0.4534 0.41961 0.0
C1069 C 0.14927 0.44248 0.36992 0.0
C1070 C 0.11869 0.42718 0.44451 0.0
C1071 C 0.15367 0.4084 0.43235 0.0
H1072 H 0.33933 0.14347 0.71561 0.0
H1073 H 0.34005 0.23792 0.63553 0.0
H1074 H 0.37715 0.19857 0.58721 0.0
H1075 H 0.41429 0.13783 0.56749 0.0
H1076 H 0.41789 0.04474 0.64911 0.0
H1077 H 0.37548 0.08197 0.69516 0.0
C1078 C 0.34723 0.15549 0.68752 0.0
C1079 C 0.33617 0.1945 0.68016 0.0
C1080 C 0.37006 0.13244 0.65926 0.0
C1081 C 0.34774 0.20863 0.6431 0.0
C1082 C 0.36922 0.18585 0.61495 0.0
C1083 C 0.40505 0.12516 0.59484 0.0
C1084 C 0.41925 0.08739 0.60361 0.0
C1085 C 0.38116 0.1477 0.62256 0.0
C1086 C 0.40745 0.07301 0.64047 0.0
C1087 C 0.38312 0.09464 0.66731 0.0
H1088 H 0.86888 0.30999 0.63074 0.0
H1089 H 0.76932 0.3898 0.61304 0.0
H1090 H 0.81607 0.43603 0.58494 0.0
H1091 H 0.88696 0.45616 0.57394 0.0
H1092 H 0.98626 0.37851 0.60107 0.0
H1093 H 0.93794 0.32873 0.61808 0.0
C1094 C 0.8573 0.33723 0.61999 0.0
C1095 C 0.81625 0.34696 0.62409 0.0
C1096 C 0.88446 0.36417 0.60676 0.0
C1097 C 0.80108 0.38193 0.60984 0.0
C1098 C 0.82781 0.40845 0.59442 0.0
C1099 C 0.89762 0.42826 0.58372 0.0
C1100 C 0.93952 0.42062 0.58715 0.0
C1101 C 0.86979 0.40038 0.59432 0.0
C1102 C 0.95385 0.38476 0.59938 0.0
C1103 C 0.92638 0.35636 0.60855 0.0
H1104 H 0.151 0.70465 0.69143 0.0
H1105 H 0.25111 0.66527 0.62061 0.0
H1106 H 0.20312 0.62956 0.57513 0.0
H1107 H 0.13364 0.60319 0.56236 0.0
H1108 H 0.03457 0.64469 0.63348 0.0
H1109 H 0.08124 0.6877 0.67192 0.0
C1110 C 0.16221 0.68867 0.66572 0.0
C1111 C 0.20413 0.68636 0.65952 0.0
C1112 C 0.1347 0.66923 0.63994 0.0
C1113 C 0.21871 0.6665 0.62589 0.0
C1114 C 0.19139 0.64634 0.60008 0.0
C1115 C 0.12236 0.62276 0.58542 0.0
C1116 C 0.08127 0.62135 0.59556 0.0
C1117 C 0.14946 0.64663 0.60764 0.0
C1118 C 0.06623 0.6461 0.62535 0.0
C1119 C 0.0929 0.67015 0.64748 0.0
loop_
_geom_bond_atom_site_label_1
_geom_bond_atom_site_label_2
_geom_bond_distance
_geom_bond_site_symmetry_2
_ccdc_geom_bond_type
Tb0 O3 2.453 . S
Tb0 O4 2.596 . S
Tb0 O5 2.374 . S
Tb0 O13 2.343 . S
Tb0 O15 2.353 . S
Tb0 O17 2.427 . S
Tb0 O18 2.513 . S
C1 O5 1.251 . S
C1 O7 1.263 . S
Tb2 O4 2.343 . S
Tb2 O7 2.353 . S
Tb2 O10 2.427 . S
Tb2 O11 2.513 . S
Tb2 O12 2.453 . S
Tb2 O13 2.596 . S
Tb2 O14 2.374 . S
O3 Tb0 2.453 . S
O3 C19 1.245 . S
O4 Tb0 2.596 . S
O4 Tb2 2.343 . S
O4 C19 1.259 . S
O5 Tb0 2.374 . S
O5 C1 1.251 . S
C6 O10 1.275 . S
C6 O11 1.246 . S
O7 C1 1.263 . S
O7 Tb2 2.353 . S
C8 O12 1.245 . S
C8 O13 1.259 . S
C9 O14 1.250 . S
C9 O15 1.263 . S
O10 Tb2 2.427 . S
O10 C6 1.275 . S
O11 Tb2 2.513 . S
O11 C6 1.246 . S
O12 Tb2 2.453 . S
O12 C8 1.245 . S
O13 Tb0 2.343 . S
O13 Tb2 2.596 . S
O13 C8 1.259 . S
O14 Tb2 2.374 . S
O14 C9 1.250 . S
O15 Tb0 2.353 . S
O15 C9 1.263 . S
C16 O17 1.275 . S
C16 O18 1.246 . S
O17 Tb0 2.427 . S
O17 C16 1.275 . S
O18 Tb0 2.513 . S
O18 C16 1.246 . S
C19 O3 1.245 . S
C19 O4 1.259 . S
Tb20 O23 2.453 . S
Tb20 O24 2.596 . S
Tb20 O25 2.374 . S
Tb20 O33 2.343 . S
Tb20 O35 2.353 . S
Tb20 O37 2.427 . S
Tb20 O38 2.513 . S
C21 O25 1.251 . S
C21 O27 1.263 . S
Tb22 O24 2.343 . S
Tb22 O27 2.353 . S
Tb22 O30 2.427 . S
Tb22 O31 2.513 . S
Tb22 O32 2.453 . S
Tb22 O33 2.596 . S
Tb22 O34 2.374 . S
O23 Tb20 2.453 . S
O23 C39 1.245 . S
O24 Tb20 2.596 . S
O24 Tb22 2.343 . S
O24 C39 1.259 . S
O25 Tb20 2.374 . S
O25 C21 1.251 . S
C26 O30 1.275 . S
C26 O31 1.246 . S
O27 C21 1.263 . S
O27 Tb22 2.353 . S
C28 O32 1.245 . S
C28 O33 1.259 . S
C29 O34 1.250 . S
C29 O35 1.263 . S
O30 Tb22 2.427 . S
O30 C26 1.275 . S
O31 Tb22 2.513 . S
O31 C26 1.246 . S
O32 Tb22 2.453 . S
O32 C28 1.245 . S
O33 Tb20 2.343 . S
O33 Tb22 2.596 . S
O33 C28 1.259 . S
O34 Tb22 2.374 . S
O34 C29 1.250 . S
O35 Tb20 2.353 . S
O35 C29 1.263 . S
C36 O37 1.275 . S
C36 O38 1.246 . S
O37 Tb20 2.427 . S
O37 C36 1.275 . S
O38 Tb20 2.513 . S
O38 C36 1.246 . S
C39 O23 1.245 . S
C39 O24 1.259 . S
Tb40 O43 2.453 . S
Tb40 O44 2.596 . S
Tb40 O45 2.374 . S
Tb40 O53 2.343 . S
Tb40 O55 2.353 . S
Tb40 O57 2.427 . S
Tb40 O58 2.513 . S
C41 O45 1.251 . S
C41 O47 1.263 . S
Tb42 O44 2.343 . S
Tb42 O47 2.353 . S
Tb42 O50 2.427 . S
Tb42 O51 2.513 . S
Tb42 O52 2.453 . S
Tb42 O53 2.596 . S
Tb42 O54 2.374 . S
O43 Tb40 2.453 . S
O43 C59 1.245 . S
O44 Tb40 2.596 . S
O44 Tb42 2.343 . S
O44 C59 1.259 . S
O45 Tb40 2.374 . S
O45 C41 1.251 . S
C46 O50 1.275 . S
C46 O51 1.246 . S
O47 C41 1.263 . S
O47 Tb42 2.353 . S
C48 O52 1.245 . S
C48 O53 1.259 . S
C49 O54 1.250 . S
C49 O55 1.263 . S
O50 Tb42 2.427 . S
O50 C46 1.275 . S
O51 Tb42 2.513 . S
O51 C46 1.246 . S
O52 Tb42 2.453 . S
O52 C48 1.245 . S
O53 Tb40 2.343 . S
O53 Tb42 2.596 . S
O53 C48 1.259 . S
O54 Tb42 2.374 . S
O54 C49 1.250 . S
O55 Tb40 2.353 . S
O55 C49 1.263 . S
C56 O57 1.275 . S
C56 O58 1.246 . S
O57 Tb40 2.427 . S
O57 C56 1.275 . S
O58 Tb40 2.513 . S
O58 C56 1.246 . S
C59 O43 1.245 . S
C59 O44 1.259 . S
Tb60 O63 2.453 . S
Tb60 O64 2.596 . S
Tb60 O65 2.374 . S
Tb60 O73 2.343 . S
Tb60 O75 2.353 . S
Tb60 O77 2.427 . S
Tb60 O78 2.513 . S
C61 O65 1.251 . S
C61 O67 1.263 . S
Tb62 O64 2.343 . S
Tb62 O67 2.353 . S
Tb62 O70 2.427 . S
Tb62 O71 2.513 . S
Tb62 O72 2.453 . S
Tb62 O73 2.596 . S
Tb62 O74 2.374 . S
O63 Tb60 2.453 . S
O63 C79 1.245 . S
O64 Tb60 2.596 . S
O64 Tb62 2.343 . S
O64 C79 1.259 . S
O65 Tb60 2.374 . S
O65 C61 1.251 . S
C66 O70 1.275 . S
C66 O71 1.246 . S
O67 C61 1.263 . S
O67 Tb62 2.353 . S
C68 O72 1.245 . S
C68 O73 1.259 . S
C69 O74 1.250 . S
C69 O75 1.263 . S
O70 Tb62 2.427 . S
O70 C66 1.275 . S
O71 Tb62 2.513 . S
O71 C66 1.246 . S
O72 Tb62 2.453 . S
O72 C68 1.245 . S
O73 Tb60 2.343 . S
O73 Tb62 2.596 . S
O73 C68 1.259 . S
O74 Tb62 2.374 . S
O74 C69 1.250 . S
O75 Tb60 2.353 . S
O75 C69 1.263 . S
C76 O77 1.275 . S
C76 O78 1.246 . S
O77 Tb60 2.427 . S
O77 C76 1.275 . S
O78 Tb60 2.513 . S
O78 C76 1.246 . S
C79 O63 1.245 . S
C79 O64 1.259 . S
Tb80 O83 2.453 . S
Tb80 O84 2.596 . S
Tb80 O85 2.374 . S
Tb80 O93 2.343 . S
Tb80 O95 2.353 . S
Tb80 O97 2.427 . S
Tb80 O98 2.513 . S
C81 O85 1.251 . S
C81 O87 1.263 . S
Tb82 O84 2.343 . S
Tb82 O87 2.353 . S
Tb82 O90 2.427 . S
Tb82 O91 2.513 . S
Tb82 O92 2.453 . S
Tb82 O93 2.596 . S
Tb82 O94 2.374 . S
O83 Tb80 2.453 . S
O83 C99 1.245 . S
O84 Tb80 2.596 . S
O84 Tb82 2.343 . S
O84 C99 1.259 . S
O85 Tb80 2.374 . S
O85 C81 1.251 . S
C86 O90 1.275 . S
C86 O91 1.246 . S
O87 C81 1.263 . S
O87 Tb82 2.353 . S
C88 O92 1.245 . S
C88 O93 1.259 . S
C89 O94 1.250 . S
C89 O95 1.263 . S
O90 Tb82 2.427 . S
O90 C86 1.275 . S
O91 Tb82 2.513 . S
O91 C86 1.246 . S
O92 Tb82 2.453 . S
O92 C88 1.245 . S
O93 Tb80 2.343 . S
O93 Tb82 2.596 . S
O93 C88 1.259 . S
O94 Tb82 2.374 . S
O94 C89 1.250 . S
O95 Tb80 2.353 . S
O95 C89 1.263 . S
C96 O97 1.275 . S
C96 O98 1.246 . S
O97 Tb80 2.427 . S
O97 C96 1.275 . S
O98 Tb80 2.513 . S
O98 C96 1.246 . S
C99 O83 1.245 . S
C99 O84 1.259 . S
Tb100 O103 2.453 . S
Tb100 O104 2.596 . S
Tb100 O105 2.374 . S
Tb100 O113 2.343 . S
Tb100 O115 2.353 . S
Tb100 O117 2.427 . S
Tb100 O118 2.513 . S
C101 O105 1.251 . S
C101 O107 1.263 . S
Tb102 O104 2.343 . S
Tb102 O107 2.353 . S
Tb102 O110 2.427 . S
Tb102 O111 2.513 . S
Tb102 O112 2.453 . S
Tb102 O113 2.596 . S
Tb102 O114 2.374 . S
O103 Tb100 2.453 . S
O103 C119 1.245 . S
O104 Tb100 2.596 . S
O104 Tb102 2.343 . S
O104 C119 1.259 . S
O105 Tb100 2.374 . S
O105 C101 1.251 . S
C106 O110 1.275 . S
C106 O111 1.246 . S
O107 C101 1.263 . S
O107 Tb102 2.353 . S
C108 O112 1.245 . S
C108 O113 1.259 . S
C109 O114 1.250 . S
C109 O115 1.263 . S
O110 Tb102 2.427 . S
O110 C106 1.275 . S
O111 Tb102 2.513 . S
O111 C106 1.246 . S
O112 Tb102 2.453 . S
O112 C108 1.245 . S
O113 Tb100 2.343 . S
O113 Tb102 2.596 . S
O113 C108 1.259 . S
O114 Tb102 2.374 . S
O114 C109 1.250 . S
O115 Tb100 2.353 . S
O115 C109 1.263 . S
C116 O117 1.275 . S
C116 O118 1.246 . S
O117 Tb100 2.427 . S
O117 C116 1.275 . S
O118 Tb100 2.513 . S
O118 C116 1.246 . S
C119 O103 1.245 . S
C119 O104 1.259 . S
Tb120 O123 2.453 . S
Tb120 O124 2.596 . S
Tb120 O125 2.374 . S
Tb120 O133 2.343 . S
Tb120 O135 2.353 . S
Tb120 O137 2.427 . S
Tb120 O138 2.513 . S
C121 O125 1.251 . S
C121 O127 1.263 . S
Tb122 O124 2.343 . S
Tb122 O127 2.353 . S
Tb122 O130 2.427 . S
Tb122 O131 2.513 . S
Tb122 O132 2.453 . S
Tb122 O133 2.596 . S
Tb122 O134 2.374 . S
O123 Tb120 2.453 . S
O123 C139 1.245 . S
O124 Tb120 2.596 . S
O124 Tb122 2.343 . S
O124 C139 1.259 . S
O125 Tb120 2.374 . S
O125 C121 1.251 . S
C126 O130 1.275 . S
C126 O131 1.246 . S
O127 C121 1.263 . S
O127 Tb122 2.353 . S
C128 O132 1.245 . S
C128 O133 1.259 . S
C129 O134 1.250 . S
C129 O135 1.263 . S
O130 Tb122 2.427 . S
O130 C126 1.275 . S
O131 Tb122 2.513 . S
O131 C126 1.246 . S
O132 Tb122 2.453 . S
O132 C128 1.245 . S
O133 Tb120 2.343 . S
O133 Tb122 2.596 . S
O133 C128 1.259 . S
O134 Tb122 2.374 . S
O134 C129 1.250 . S
O135 Tb120 2.353 . S
O135 C129 1.263 . S
C136 O137 1.275 . S
C136 O138 1.246 . S
O137 Tb120 2.427 . S
O137 C136 1.275 . S
O138 Tb120 2.513 . S
O138 C136 1.246 . S
C139 O123 1.245 . S
C139 O124 1.259 . S
Tb140 O143 2.453 . S
Tb140 O144 2.596 . S
Tb140 O145 2.374 . S
Tb140 O153 2.343 . S
Tb140 O155 2.353 . S
Tb140 O157 2.427 . S
Tb140 O158 2.513 . S
C141 O145 1.251 . S
C141 O147 1.263 . S
Tb142 O144 2.343 . S
Tb142 O147 2.353 . S
Tb142 O150 2.427 . S
Tb142 O151 2.513 . S
Tb142 O152 2.453 . S
Tb142 O153 2.596 . S
Tb142 O154 2.374 . S
O143 Tb140 2.453 . S
O143 C159 1.245 . S
O144 Tb140 2.596 . S
O144 Tb142 2.343 . S
O144 C159 1.259 . S
O145 Tb140 2.374 . S
O145 C141 1.251 . S
C146 O150 1.275 . S
C146 O151 1.246 . S
O147 C141 1.263 . S
O147 Tb142 2.353 . S
C148 O152 1.245 . S
C148 O153 1.259 . S
C149 O154 1.250 . S
C149 O155 1.263 . S
O150 Tb142 2.427 . S
O150 C146 1.275 . S
O151 Tb142 2.513 . S
O151 C146 1.246 . S
O152 Tb142 2.453 . S
O152 C148 1.245 . S
O153 Tb140 2.343 . S
O153 Tb142 2.596 . S
O153 C148 1.259 . S
O154 Tb142 2.374 . S
O154 C149 1.250 . S
O155 Tb140 2.353 . S
O155 C149 1.263 . S
C156 O157 1.275 . S
C156 O158 1.246 . S
O157 Tb140 2.427 . S
O157 C156 1.275 . S
O158 Tb140 2.513 . S
O158 C156 1.246 . S
C159 O143 1.245 . S
C159 O144 1.259 . S
Fe160 O161 1.886 1_455 S
Fe160 O164 1.715 . S
Fe160 O169 2.077 1_455 S
Fe160 O174 1.935 . S
Fe160 O180 2.077 1_455 S
Fe160 O189 1.935 . S
O161 Fe160 1.886 1_655 S
O161 Fe163 1.715 1_545 S
Fe162 O164 1.886 . S
Fe162 O165 1.715 1_545 S
Fe162 O172 1.935 1_545 S
Fe162 O173 2.077 . S
Fe162 O179 1.935 1_545 S
Fe162 O188 2.077 . S
Fe163 O161 1.715 1_565 S
Fe163 O166 1.886 . S
Fe163 O170 1.935 1_565 S
Fe163 O175 2.077 . S
Fe163 O181 1.935 1_565 S
Fe163 O185 2.077 . S
O164 Fe160 1.715 . S
O164 Fe162 1.886 . S
O165 Fe162 1.715 1_565 S
O165 Fe167 1.886 1_455 S
O166 Fe163 1.886 . S
O166 Fe167 1.715 . S
Fe167 O165 1.886 1_655 S
Fe167 O166 1.715 . S
Fe167 O171 2.077 1_655 S
Fe167 O176 1.935 . S
Fe167 O178 2.077 1_655 S
Fe167 O186 1.935 . S
C168 O180 1.381 . S
C168 O181 1.421 . S
O169 Fe160 2.077 1_655 S
O169 C182 1.381 . S
O170 Fe163 1.935 1_545 S
O170 C182 1.421 . S
O171 Fe167 2.077 1_455 S
O171 C187 1.381 . S
O172 Fe162 1.935 1_565 S
O172 C187 1.421 . S
O173 Fe162 2.077 . S
O173 C177 1.381 . S
O174 Fe160 1.935 . S
O174 C177 1.421 . S
O175 Fe163 2.077 . S
O175 C183 1.381 . S
O176 Fe167 1.935 . S
O176 C183 1.421 . S
C177 O173 1.381 . S
C177 O174 1.421 . S
O178 Fe167 2.077 1_455 S
O178 C190 1.381 . S
O179 Fe162 1.935 1_565 S
O179 C190 1.421 . S
O180 Fe160 2.077 1_655 S
O180 C168 1.381 . S
O181 Fe163 1.935 1_545 S
O181 C168 1.421 . S
C182 O169 1.381 . S
C182 O170 1.421 . S
C183 O175 1.381 . S
C183 O176 1.421 . S
C184 O185 1.381 . S
C184 O186 1.421 . S
O185 Fe163 2.077 . S
O185 C184 1.381 . S
O186 Fe167 1.935 . S
O186 C184 1.421 . S
C187 O171 1.381 . S
C187 O172 1.421 . S
O188 Fe162 2.077 . S
O188 C191 1.381 . S
O189 Fe160 1.935 . S
O189 C191 1.421 . S
C190 O178 1.381 . S
C190 O179 1.421 . S
C191 O188 1.381 . S
C191 O189 1.421 . S
Fe192 O193 1.886 1_556 S
Fe192 O196 1.715 . S
Fe192 O201 2.077 . S
Fe192 O206 1.935 . S
Fe192 O212 2.077 1_556 S
Fe192 O221 1.935 1_556 S
O193 Fe192 1.886 1_554 S
O193 Fe195 1.715 1_565 S
Fe194 O196 1.886 . S
Fe194 O197 1.715 1_565 S
Fe194 O204 1.935 1_565 S
Fe194 O205 2.077 . S
Fe194 O211 1.935 1_566 S
Fe194 O220 2.077 1_556 S
Fe195 O193 1.715 1_545 S
Fe195 O198 1.886 . S
Fe195 O202 1.935 1_544 S
Fe195 O207 2.077 1_554 S
Fe195 O213 1.935 1_545 S
Fe195 O217 2.077 . S
O196 Fe192 1.715 . S
O196 Fe194 1.886 . S
O197 Fe194 1.715 1_545 S
O197 Fe199 1.886 1_556 S
O198 Fe195 1.886 . S
O198 Fe199 1.715 . S
Fe199 O197 1.886 1_554 S
Fe199 O198 1.715 . S
Fe199 O203 2.077 1_554 S
Fe199 O208 1.935 1_554 S
Fe199 O210 2.077 . S
Fe199 O218 1.935 . S
C200 O212 1.381 . S
C200 O213 1.421 . S
O201 Fe192 2.077 . S
O201 C214 1.381 . S
O202 Fe195 1.935 1_566 S
O202 C214 1.421 . S
O203 Fe199 2.077 1_556 S
O203 C219 1.381 . S
O204 Fe194 1.935 1_545 S
O204 C219 1.421 . S
O205 Fe194 2.077 . S
O205 C209 1.381 . S
O206 Fe192 1.935 . S
O206 C209 1.421 . S
O207 Fe195 2.077 1_556 S
O207 C215 1.381 . S
O208 Fe199 1.935 1_556 S
O208 C215 1.421 . S
C209 O205 1.381 . S
C209 O206 1.421 . S
O210 Fe199 2.077 . S
O210 C222 1.381 . S
O211 Fe194 1.935 1_544 S
O211 C222 1.421 . S
O212 Fe192 2.077 1_554 S
O212 C200 1.381 . S
O213 Fe195 1.935 1_565 S
O213 C200 1.421 . S
C214 O201 1.381 . S
C214 O202 1.421 . S
C215 O207 1.381 . S
C215 O208 1.421 . S
C216 O217 1.381 . S
C216 O218 1.421 . S
O217 Fe195 2.077 . S
O217 C216 1.381 . S
O218 Fe199 1.935 . S
O218 C216 1.421 . S
C219 O203 1.381 . S
C219 O204 1.421 . S
O220 Fe194 2.077 1_554 S
O220 C223 1.381 . S
O221 Fe192 1.935 1_554 S
O221 C223 1.421 . S
C222 O210 1.381 . S
C222 O211 1.421 . S
C223 O220 1.381 . S
C223 O221 1.421 . S
Fe224 O225 1.886 1_454 S
Fe224 O228 1.715 . S
Fe224 O233 2.077 1_454 S
Fe224 O238 1.935 1_554 S
Fe224 O244 2.077 1_455 S
Fe224 O253 1.935 . S
O225 Fe224 1.886 1_656 S
O225 Fe227 1.715 . S
Fe226 O228 1.886 . S
Fe226 O229 1.715 . S
Fe226 O236 1.935 1_554 S
Fe226 O237 2.077 1_554 S
Fe226 O243 1.935 . S
Fe226 O252 2.077 . S
Fe227 O225 1.715 . S
Fe227 O230 1.886 . S
Fe227 O234 1.935 . S
Fe227 O239 2.077 . S
Fe227 O245 1.935 1_556 S
Fe227 O249 2.077 1_556 S
O228 Fe224 1.715 . S
O228 Fe226 1.886 . S
O229 Fe226 1.715 . S
O229 Fe231 1.886 1_454 S
O230 Fe227 1.886 . S
O230 Fe231 1.715 . S
Fe231 O229 1.886 1_656 S
Fe231 O230 1.715 . S
Fe231 O235 2.077 1_655 S
Fe231 O240 1.935 . S
Fe231 O242 2.077 1_656 S
Fe231 O250 1.935 1_556 S
C232 O244 1.381 . S
C232 O245 1.421 . S
O233 Fe224 2.077 1_656 S
O233 C246 1.381 . S
O234 Fe227 1.935 . S
O234 C246 1.421 . S
O235 Fe231 2.077 1_455 S
O235 C251 1.381 . S
O236 Fe226 1.935 1_556 S
O236 C251 1.421 . S
O237 Fe226 2.077 1_556 S
O237 C241 1.381 . S
O238 Fe224 1.935 1_556 S
O238 C241 1.421 . S
O239 Fe227 2.077 . S
O239 C247 1.381 . S
O240 Fe231 1.935 . S
O240 C247 1.421 . S
C241 O237 1.381 . S
C241 O238 1.421 . S
O242 Fe231 2.077 1_454 S
O242 C254 1.381 . S
O243 Fe226 1.935 . S
O243 C254 1.421 . S
O244 Fe224 2.077 1_655 S
O244 C232 1.381 . S
O245 Fe227 1.935 1_554 S
O245 C232 1.421 . S
C246 O233 1.381 . S
C246 O234 1.421 . S
C247 O239 1.381 . S
C247 O240 1.421 . S
C248 O249 1.381 . S
C248 O250 1.421 . S
O249 Fe227 2.077 1_554 S
O249 C248 1.381 . S
O250 Fe231 1.935 1_554 S
O250 C248 1.421 . S
C251 O235 1.381 . S
C251 O236 1.421 . S
O252 Fe226 2.077 . S
O252 C255 1.381 . S
O253 Fe224 1.935 . S
O253 C255 1.421 . S
C254 O242 1.381 . S
C254 O243 1.421 . S
C255 O252 1.381 . S
C255 O253 1.421 . S
Fe256 O257 1.886 . S
Fe256 O260 1.715 . S
Fe256 O265 2.077 . S
Fe256 O270 1.935 . S
Fe256 O276 2.077 . S
Fe256 O285 1.935 . S
O257 Fe256 1.886 . S
O257 Fe259 1.715 1_556 S
Fe258 O260 1.886 . S
Fe258 O261 1.715 1_556 S
Fe258 O268 1.935 1_556 S
Fe258 O269 2.077 . S
Fe258 O275 1.935 1_556 S
Fe258 O284 2.077 . S
Fe259 O257 1.715 1_554 S
Fe259 O262 1.886 . S
Fe259 O266 1.935 1_554 S
Fe259 O271 2.077 . S
Fe259 O277 1.935 1_554 S
Fe259 O281 2.077 . S
O260 Fe256 1.715 . S
O260 Fe258 1.886 . S
O261 Fe258 1.715 1_554 S
O261 Fe263 1.886 . S
O262 Fe259 1.886 . S
O262 Fe263 1.715 . S
Fe263 O261 1.886 . S
Fe263 O262 1.715 . S
Fe263 O267 2.077 . S
Fe263 O272 1.935 . S
Fe263 O274 2.077 . S
Fe263 O282 1.935 . S
C264 O276 1.381 . S
C264 O277 1.421 . S
O265 Fe256 2.077 . S
O265 C278 1.381 . S
O266 Fe259 1.935 1_556 S
O266 C278 1.421 . S
O267 Fe263 2.077 . S
O267 C283 1.381 . S
O268 Fe258 1.935 1_554 S
O268 C283 1.421 . S
O269 Fe258 2.077 . S
O269 C273 1.381 . S
O270 Fe256 1.935 . S
O270 C273 1.421 . S
O271 Fe259 2.077 . S
O271 C279 1.381 . S
O272 Fe263 1.935 . S
O272 C279 1.421 . S
C273 O269 1.381 . S
C273 O270 1.421 . S
O274 Fe263 2.077 . S
O274 C286 1.381 . S
O275 Fe258 1.935 1_554 S
O275 C286 1.421 . S
O276 Fe256 2.077 . S
O276 C264 1.381 . S
O277 Fe259 1.935 1_556 S
O277 C264 1.421 . S
C278 O265 1.381 . S
C278 O266 1.421 . S
C279 O271 1.381 . S
C279 O272 1.421 . S
C280 O281 1.381 . S
C280 O282 1.421 . S
O281 Fe259 2.077 . S
O281 C280 1.381 . S
O282 Fe263 1.935 . S
O282 C280 1.421 . S
C283 O267 1.381 . S
C283 O268 1.421 . S
O284 Fe258 2.077 . S
O284 C287 1.381 . S
O285 Fe256 1.935 . S
O285 C287 1.421 . S
C286 O274 1.381 . S
C286 O275 1.421 . S
C287 O284 1.381 . S
C287 O285 1.421 . S
Fe288 O289 1.886 1_655 S
Fe288 O292 1.715 . S
Fe288 O297 2.077 1_655 S
Fe288 O302 1.935 1_655 S
Fe288 O308 2.077 . S
Fe288 O317 1.935 . S
O289 Fe288 1.886 1_455 S
O289 Fe291 1.715 . S
Fe290 O292 1.886 . S
Fe290 O293 1.715 1_655 S
Fe290 O300 1.935 1_655 S
Fe290 O301 2.077 1_655 S
Fe290 O307 1.935 . S
Fe290 O316 2.077 . S
Fe291 O289 1.715 . S
Fe291 O294 1.886 . S
Fe291 O298 1.935 . S
Fe291 O303 2.077 . S
Fe291 O309 1.935 1_455 S
Fe291 O313 2.077 1_455 S
O292 Fe288 1.715 . S
O292 Fe290 1.886 . S
O293 Fe290 1.715 1_455 S
O293 Fe295 1.886 . S
O294 Fe291 1.886 . S
O294 Fe295 1.715 . S
Fe295 O293 1.886 . S
Fe295 O294 1.715 . S
Fe295 O299 2.077 . S
Fe295 O304 1.935 . S
Fe295 O306 2.077 1_455 S
Fe295 O314 1.935 1_455 S
C296 O308 1.381 . S
C296 O309 1.421 . S
O297 Fe288 2.077 1_455 S
O297 C310 1.381 . S
O298 Fe291 1.935 . S
O298 C310 1.421 . S
O299 Fe295 2.077 . S
O299 C315 1.381 . S
O300 Fe290 1.935 1_455 S
O300 C315 1.421 . S
O301 Fe290 2.077 1_455 S
O301 C305 1.381 . S
O302 Fe288 1.935 1_455 S
O302 C305 1.421 . S
O303 Fe291 2.077 . S
O303 C311 1.381 . S
O304 Fe295 1.935 . S
O304 C311 1.421 . S
C305 O301 1.381 . S
C305 O302 1.421 . S
O306 Fe295 2.077 1_655 S
O306 C318 1.381 . S
O307 Fe290 1.935 . S
O307 C318 1.421 . S
O308 Fe288 2.077 . S
O308 C296 1.381 . S
O309 Fe291 1.935 1_655 S
O309 C296 1.421 . S
C310 O297 1.381 . S
C310 O298 1.421 . S
C311 O303 1.381 . S
C311 O304 1.421 . S
C312 O313 1.381 . S
C312 O314 1.421 . S
O313 Fe291 2.077 1_655 S
O313 C312 1.381 . S
O314 Fe295 1.935 1_655 S
O314 C312 1.421 . S
C315 O299 1.381 . S
C315 O300 1.421 . S
O316 Fe290 2.077 . S
O316 C319 1.381 . S
O317 Fe288 1.935 . S
O317 C319 1.421 . S
C318 O306 1.381 . S
C318 O307 1.421 . S
C319 O316 1.381 . S
C319 O317 1.421 . S
Fe320 O321 1.886 . S
Fe320 O324 1.715 . S
Fe320 O329 2.077 . S
Fe320 O334 1.935 . S
Fe320 O340 2.077 . S
Fe320 O349 1.935 . S
O321 Fe320 1.886 . S
O321 Fe323 1.715 1_565 S
Fe322 O324 1.886 . S
Fe322 O325 1.715 1_565 S
Fe322 O332 1.935 1_565 S
Fe322 O333 2.077 . S
Fe322 O339 1.935 1_565 S
Fe322 O348 2.077 . S
Fe323 O321 1.715 1_545 S
Fe323 O326 1.886 . S
Fe323 O330 1.935 1_545 S
Fe323 O335 2.077 . S
Fe323 O341 1.935 1_545 S
Fe323 O345 2.077 . S
O324 Fe320 1.715 . S
O324 Fe322 1.886 . S
O325 Fe322 1.715 1_545 S
O325 Fe327 1.886 . S
O326 Fe323 1.886 . S
O326 Fe327 1.715 . S
Fe327 O325 1.886 . S
Fe327 O326 1.715 . S
Fe327 O331 2.077 . S
Fe327 O336 1.935 . S
Fe327 O338 2.077 . S
Fe327 O346 1.935 . S
C328 O340 1.381 . S
C328 O341 1.421 . S
O329 Fe320 2.077 . S
O329 C342 1.381 . S
O330 Fe323 1.935 1_565 S
O330 C342 1.421 . S
O331 Fe327 2.077 . S
O331 C347 1.381 . S
O332 Fe322 1.935 1_545 S
O332 C347 1.421 . S
O333 Fe322 2.077 . S
O333 C337 1.381 . S
O334 Fe320 1.935 . S
O334 C337 1.421 . S
O335 Fe323 2.077 . S
O335 C343 1.381 . S
O336 Fe327 1.935 . S
O336 C343 1.421 . S
C337 O333 1.381 . S
C337 O334 1.421 . S
O338 Fe327 2.077 . S
O338 C350 1.381 . S
O339 Fe322 1.935 1_545 S
O339 C350 1.421 . S
O340 Fe320 2.077 . S
O340 C328 1.381 . S
O341 Fe323 1.935 1_565 S
O341 C328 1.421 . S
C342 O329 1.381 . S
C342 O330 1.421 . S
C343 O335 1.381 . S
C343 O336 1.421 . S
C344 O345 1.381 . S
C344 O346 1.421 . S
O345 Fe323 2.077 . S
O345 C344 1.381 . S
O346 Fe327 1.935 . S
O346 C344 1.421 . S
C347 O331 1.381 . S
C347 O332 1.421 . S
O348 Fe322 2.077 . S
O348 C351 1.381 . S
O349 Fe320 1.935 . S
O349 C351 1.421 . S
C350 O338 1.381 . S
C350 O339 1.421 . S
C351 O348 1.381 . S
C351 O349 1.421 . S
H352 C358 0.930 . S
H353 C361 0.930 . S
H354 C362 0.930 . S
H355 C363 0.930 . S
H356 C366 0.930 . S
H357 C367 0.930 . S
C358 H352 0.930 . S
C358 C359 1.355 . S
C358 C360 1.415 . S
C359 C358 1.355 . S
C359 C361 1.419 . S
C360 C358 1.415 . S
C360 C365 1.425 . S
C360 C367 1.409 . S
C361 H353 0.930 . S
C361 C359 1.419 . S
C361 C362 1.362 . S
C362 H354 0.930 . S
C362 C361 1.362 . S
C362 C365 1.409 . S
C363 H355 0.930 . S
C363 C364 1.355 . S
C363 C365 1.415 . S
C364 C363 1.355 . S
C364 C366 1.419 . S
C365 C360 1.425 . S
C365 C362 1.409 . S
C365 C363 1.415 . S
C366 H356 0.930 . S
C366 C364 1.419 . S
C366 C367 1.362 . S
C367 H357 0.930 . S
C367 C360 1.409 . S
C367 C366 1.362 . S
H368 C374 0.930 . S
H369 C377 0.930 . S
H370 C378 0.930 . S
H371 C379 0.930 . S
H372 C382 0.930 . S
H373 C383 0.930 . S
C374 H368 0.930 . S
C374 C375 1.355 . S
C374 C376 1.415 . S
C375 C374 1.355 . S
C375 C377 1.419 . S
C376 C374 1.415 . S
C376 C381 1.425 . S
C376 C383 1.409 . S
C377 H369 0.930 . S
C377 C375 1.419 . S
C377 C378 1.362 . S
C378 H370 0.930 . S
C378 C377 1.362 . S
C378 C381 1.409 . S
C379 H371 0.930 . S
C379 C380 1.355 . S
C379 C381 1.415 . S
C380 C379 1.355 . S
C380 C382 1.419 . S
C381 C376 1.425 . S
C381 C378 1.409 . S
C381 C379 1.415 . S
C382 H372 0.930 . S
C382 C380 1.419 . S
C382 C383 1.362 . S
C383 H373 0.930 . S
C383 C376 1.409 . S
C383 C382 1.362 . S
H384 C390 0.930 . S
H385 C393 0.930 . S
H386 C394 0.930 . S
H387 C395 0.930 . S
H388 C398 0.930 . S
H389 C399 0.930 . S
C390 H384 0.930 . S
C390 C391 1.355 . S
C390 C392 1.415 . S
C391 C390 1.355 . S
C391 C393 1.419 . S
C392 C390 1.415 . S
C392 C397 1.425 . S
C392 C399 1.409 . S
C393 H385 0.930 . S
C393 C391 1.419 . S
C393 C394 1.362 . S
C394 H386 0.930 . S
C394 C393 1.362 . S
C394 C397 1.409 . S
C395 H387 0.930 . S
C395 C396 1.355 . S
C395 C397 1.415 . S
C396 C395 1.355 . S
C396 C398 1.419 . S
C397 C392 1.425 . S
C397 C394 1.409 . S
C397 C395 1.415 . S
C398 H388 0.930 . S
C398 C396 1.419 . S
C398 C399 1.362 . S
C399 H389 0.930 . S
C399 C392 1.409 . S
C399 C398 1.362 . S
H400 C406 0.930 . S
H401 C409 0.930 . S
H402 C410 0.930 . S
H403 C411 0.930 . S
H404 C414 0.930 . S
H405 C415 0.930 . S
C406 H400 0.930 . S
C406 C407 1.355 . S
C406 C408 1.415 . S
C407 C406 1.355 . S
C407 C409 1.419 . S
C408 C406 1.415 . S
C408 C413 1.425 . S
C408 C415 1.409 . S
C409 H401 0.930 . S
C409 C407 1.419 . S
C409 C410 1.362 . S
C410 H402 0.930 . S
C410 C409 1.362 . S
C410 C413 1.409 . S
C411 H403 0.930 . S
C411 C412 1.355 . S
C411 C413 1.415 . S
C412 C411 1.355 . S
C412 C414 1.419 . S
C413 C408 1.425 . S
C413 C410 1.409 . S
C413 C411 1.415 . S
C414 H404 0.930 . S
C414 C412 1.419 . S
C414 C415 1.362 . S
C415 H405 0.930 . S
C415 C408 1.409 . S
C415 C414 1.362 . S
H416 C422 0.930 . S
H417 C425 0.930 . S
H418 C426 0.930 . S
H419 C427 0.930 . S
H420 C430 0.930 . S
H421 C431 0.930 . S
C422 H416 0.930 . S
C422 C423 1.355 . S
C422 C424 1.415 . S
C423 C422 1.355 . S
C423 C425 1.419 . S
C424 C422 1.415 . S
C424 C429 1.425 . S
C424 C431 1.409 . S
C425 H417 0.930 . S
C425 C423 1.419 . S
C425 C426 1.362 . S
C426 H418 0.930 . S
C426 C425 1.362 . S
C426 C429 1.409 . S
C427 H419 0.930 . S
C427 C428 1.355 . S
C427 C429 1.415 . S
C428 C427 1.355 . S
C428 C430 1.419 . S
C429 C424 1.425 . S
C429 C426 1.409 . S
C429 C427 1.415 . S
C430 H420 0.930 . S
C430 C428 1.419 . S
C430 C431 1.362 . S
C431 H421 0.930 . S
C431 C424 1.409 . S
C431 C430 1.362 . S
H432 C438 0.930 . S
H433 C441 0.930 . S
H434 C442 0.930 . S
H435 C443 0.930 . S
H436 C446 0.930 . S
H437 C447 0.930 . S
C438 H432 0.930 . S
C438 C439 1.355 . S
C438 C440 1.415 . S
C439 C438 1.355 . S
C439 C441 1.419 . S
C440 C438 1.415 . S
C440 C445 1.425 . S
C440 C447 1.409 . S
C441 H433 0.930 . S
C441 C439 1.419 . S
C441 C442 1.362 . S
C442 H434 0.930 . S
C442 C441 1.362 . S
C442 C445 1.409 . S
C443 H435 0.930 . S
C443 C444 1.355 . S
C443 C445 1.415 . S
C444 C443 1.355 . S
C444 C446 1.419 . S
C445 C440 1.425 . S
C445 C442 1.409 . S
C445 C443 1.415 . S
C446 H436 0.930 . S
C446 C444 1.419 . S
C446 C447 1.362 . S
C447 H437 0.930 . S
C447 C440 1.409 . S
C447 C446 1.362 . S
H448 C454 0.930 . S
H449 C457 0.930 . S
H450 C458 0.930 . S
H451 C459 0.930 . S
H452 C462 0.930 . S
H453 C463 0.930 . S
C454 H448 0.930 . S
C454 C455 1.355 . S
C454 C456 1.415 . S
C455 C454 1.355 . S
C455 C457 1.419 . S
C456 C454 1.415 . S
C456 C461 1.425 . S
C456 C463 1.409 . S
C457 H449 0.930 . S
C457 C455 1.419 . S
C457 C458 1.362 . S
C458 H450 0.930 . S
C458 C457 1.362 . S
C458 C461 1.409 . S
C459 H451 0.930 . S
C459 C460 1.355 . S
C459 C461 1.415 . S
C460 C459 1.355 . S
C460 C462 1.419 . S
C461 C456 1.425 . S
C461 C458 1.409 . S
C461 C459 1.415 . S
C462 H452 0.930 . S
C462 C460 1.419 . S
C462 C463 1.362 . S
C463 H453 0.930 . S
C463 C456 1.409 . S
C463 C462 1.362 . S
H464 C470 0.930 . S
H465 C473 0.930 . S
H466 C474 0.930 . S
H467 C475 0.930 . S
H468 C478 0.930 . S
H469 C479 0.930 . S
C470 H464 0.930 . S
C470 C471 1.355 . S
C470 C472 1.415 . S
C471 C470 1.355 . S
C471 C473 1.419 . S
C472 C470 1.415 . S
C472 C477 1.425 . S
C472 C479 1.409 . S
C473 H465 0.930 . S
C473 C471 1.419 . S
C473 C474 1.362 . S
C474 H466 0.930 . S
C474 C473 1.362 . S
C474 C477 1.409 . S
C475 H467 0.930 . S
C475 C476 1.355 . S
C475 C477 1.415 . S
C476 C475 1.355 . S
C476 C478 1.419 . S
C477 C472 1.425 . S
C477 C474 1.409 . S
C477 C475 1.415 . S
C478 H468 0.930 . S
C478 C476 1.419 . S
C478 C479 1.362 . S
C479 H469 0.930 . S
C479 C472 1.409 . S
C479 C478 1.362 . S
H480 C486 0.930 . S
H481 C489 0.930 . S
H482 C490 0.930 . S
H483 C491 0.930 . S
H484 C494 0.930 . S
H485 C495 0.930 . S
C486 H480 0.930 . S
C486 C487 1.355 . S
C486 C488 1.415 . S
C487 C486 1.355 . S
C487 C489 1.419 . S
C488 C486 1.415 . S
C488 C493 1.425 . S
C488 C495 1.409 . S
C489 H481 0.930 . S
C489 C487 1.419 . S
C489 C490 1.362 . S
C490 H482 0.930 . S
C490 C489 1.362 . S
C490 C493 1.409 . S
C491 H483 0.930 . S
C491 C492 1.355 . S
C491 C493 1.415 . S
C492 C491 1.355 . S
C492 C494 1.419 . S
C493 C488 1.425 . S
C493 C490 1.409 . S
C493 C491 1.415 . S
C494 H484 0.930 . S
C494 C492 1.419 . S
C494 C495 1.362 . S
C495 H485 0.930 . S
C495 C488 1.409 . S
C495 C494 1.362 . S
H496 C502 0.930 . S
H497 C505 0.930 . S
H498 C506 0.930 . S
H499 C507 0.930 . S
H500 C510 0.930 . S
H501 C511 0.930 . S
C502 H496 0.930 . S
C502 C503 1.355 . S
C502 C504 1.415 . S
C503 C502 1.355 . S
C503 C505 1.419 . S
C504 C502 1.415 . S
C504 C509 1.425 . S
C504 C511 1.409 . S
C505 H497 0.930 . S
C505 C503 1.419 . S
C505 C506 1.362 . S
C506 H498 0.930 . S
C506 C505 1.362 . S
C506 C509 1.409 . S
C507 H499 0.930 . S
C507 C508 1.355 . S
C507 C509 1.415 . S
C508 C507 1.355 . S
C508 C510 1.419 . S
C509 C504 1.425 . S
C509 C506 1.409 . S
C509 C507 1.415 . S
C510 H500 0.930 . S
C510 C508 1.419 . S
C510 C511 1.362 . S
C511 H501 0.930 . S
C511 C504 1.409 . S
C511 C510 1.362 . S
H512 C518 0.930 . S
H513 C521 0.930 . S
H514 C522 0.930 . S
H515 C523 0.930 . S
H516 C526 0.930 . S
H517 C527 0.930 . S
C518 H512 0.930 . S
C518 C519 1.355 . S
C518 C520 1.415 . S
C519 C518 1.355 . S
C519 C521 1.419 . S
C520 C518 1.415 . S
C520 C525 1.425 . S
C520 C527 1.409 . S
C521 H513 0.930 . S
C521 C519 1.419 . S
C521 C522 1.362 . S
C522 H514 0.930 . S
C522 C521 1.362 . S
C522 C525 1.409 . S
C523 H515 0.930 . S
C523 C524 1.355 . S
C523 C525 1.415 . S
C524 C523 1.355 . S
C524 C526 1.419 . S
C525 C520 1.425 . S
C525 C522 1.409 . S
C525 C523 1.415 . S
C526 H516 0.930 . S
C526 C524 1.419 . S
C526 C527 1.362 . S
C527 H517 0.930 . S
C527 C520 1.409 . S
C527 C526 1.362 . S
H528 C534 0.930 . S
H529 C537 0.930 . S
H530 C538 0.930 . S
H531 C539 0.930 . S
H532 C542 0.930 . S
H533 C543 0.930 . S
C534 H528 0.930 . S
C534 C535 1.355 . S
C534 C536 1.415 . S
C535 C534 1.355 . S
C535 C537 1.419 . S
C536 C534 1.415 . S
C536 C541 1.425 . S
C536 C543 1.409 . S
C537 H529 0.930 . S
C537 C535 1.419 . S
C537 C538 1.362 . S
C538 H530 0.930 . S
C538 C537 1.362 . S
C538 C541 1.409 . S
C539 H531 0.930 . S
C539 C540 1.355 . S
C539 C541 1.415 . S
C540 C539 1.355 . S
C540 C542 1.419 . S
C541 C536 1.425 . S
C541 C538 1.409 . S
C541 C539 1.415 . S
C542 H532 0.930 . S
C542 C540 1.419 . S
C542 C543 1.362 . S
C543 H533 0.930 . S
C543 C536 1.409 . S
C543 C542 1.362 . S
H544 C550 0.930 . S
H545 C553 0.930 . S
H546 C554 0.930 . S
H547 C555 0.930 . S
H548 C558 0.930 . S
H549 C559 0.930 . S
C550 H544 0.930 . S
C550 C551 1.355 . S
C550 C552 1.415 . S
C551 C550 1.355 . S
C551 C553 1.419 . S
C552 C550 1.415 . S
C552 C557 1.425 . S
C552 C559 1.409 . S
C553 H545 0.930 . S
C553 C551 1.419 . S
C553 C554 1.362 . S
C554 H546 0.930 . S
C554 C553 1.362 . S
C554 C557 1.409 . S
C555 H547 0.930 . S
C555 C556 1.355 . S
C555 C557 1.415 . S
C556 C555 1.355 . S
C556 C558 1.419 . S
C557 C552 1.425 . S
C557 C554 1.409 . S
C557 C555 1.415 . S
C558 H548 0.930 . S
C558 C556 1.419 . S
C558 C559 1.362 . S
C559 H549 0.930 . S
C559 C552 1.409 . S
C559 C558 1.362 . S
H560 C566 0.930 . S
H561 C569 0.930 . S
H562 C570 0.930 . S
H563 C571 0.930 . S
H564 C574 0.930 . S
H565 C575 0.930 . S
C566 H560 0.930 . S
C566 C567 1.355 . S
C566 C568 1.415 . S
C567 C566 1.355 . S
C567 C569 1.419 . S
C568 C566 1.415 . S
C568 C573 1.425 . S
C568 C575 1.409 . S
C569 H561 0.930 . S
C569 C567 1.419 . S
C569 C570 1.362 . S
C570 H562 0.930 . S
C570 C569 1.362 . S
C570 C573 1.409 . S
C571 H563 0.930 . S
C571 C572 1.355 . S
C571 C573 1.415 . S
C572 C571 1.355 . S
C572 C574 1.419 . S
C573 C568 1.425 . S
C573 C570 1.409 . S
C573 C571 1.415 . S
C574 H564 0.930 . S
C574 C572 1.419 . S
C574 C575 1.362 . S
C575 H565 0.930 . S
C575 C568 1.409 . S
C575 C574 1.362 . S
H576 C582 0.930 . S
H577 C585 0.930 . S
H578 C586 0.930 . S
H579 C587 0.930 . S
H580 C590 0.930 . S
H581 C591 0.930 . S
C582 H576 0.930 . S
C582 C583 1.355 . S
C582 C584 1.415 . S
C583 C582 1.355 . S
C583 C585 1.419 . S
C584 C582 1.415 . S
C584 C589 1.425 . S
C584 C591 1.409 . S
C585 H577 0.930 . S
C585 C583 1.419 . S
C585 C586 1.362 . S
C586 H578 0.930 . S
C586 C585 1.362 . S
C586 C589 1.409 . S
C587 H579 0.930 . S
C587 C588 1.355 . S
C587 C589 1.415 . S
C588 C587 1.355 . S
C588 C590 1.419 . S
C589 C584 1.425 . S
C589 C586 1.409 . S
C589 C587 1.415 . S
C590 H580 0.930 . S
C590 C588 1.419 . S
C590 C591 1.362 . S
C591 H581 0.930 . S
C591 C584 1.409 . S
C591 C590 1.362 . S
H592 C598 0.930 . S
H593 C601 0.930 . S
H594 C602 0.930 . S
H595 C603 0.930 . S
H596 C606 0.930 . S
H597 C607 0.930 . S
C598 H592 0.930 . S
C598 C599 1.355 . S
C598 C600 1.415 . S
C599 C598 1.355 . S
C599 C601 1.419 . S
C600 C598 1.415 . S
C600 C605 1.425 . S
C600 C607 1.409 . S
C601 H593 0.930 . S
C601 C599 1.419 . S
C601 C602 1.362 . S
C602 H594 0.930 . S
C602 C601 1.362 . S
C602 C605 1.409 . S
C603 H595 0.930 . S
C603 C604 1.355 . S
C603 C605 1.415 . S
C604 C603 1.355 . S
C604 C606 1.419 . S
C605 C600 1.425 . S
C605 C602 1.409 . S
C605 C603 1.415 . S
C606 H596 0.930 . S
C606 C604 1.419 . S
C606 C607 1.362 . S
C607 H597 0.930 . S
C607 C600 1.409 . S
C607 C606 1.362 . S
H608 C614 0.930 . S
H609 C617 0.930 . S
H610 C618 0.930 . S
H611 C619 0.930 . S
H612 C622 0.930 . S
H613 C623 0.930 . S
C614 H608 0.930 . S
C614 C615 1.355 . S
C614 C616 1.415 . S
C615 C614 1.355 . S
C615 C617 1.419 . S
C616 C614 1.415 . S
C616 C621 1.425 . S
C616 C623 1.409 . S
C617 H609 0.930 . S
C617 C615 1.419 . S
C617 C618 1.362 . S
C618 H610 0.930 . S
C618 C617 1.362 . S
C618 C621 1.409 . S
C619 H611 0.930 . S
C619 C620 1.355 . S
C619 C621 1.415 . S
C620 C619 1.355 . S
C620 C622 1.419 . S
C621 C616 1.425 . S
C621 C618 1.409 . S
C621 C619 1.415 . S
C622 H612 0.930 . S
C622 C620 1.419 . S
C622 C623 1.362 . S
C623 H613 0.930 . S
C623 C616 1.409 . S
C623 C622 1.362 . S
H624 C630 0.930 . S
H625 C633 0.930 . S
H626 C634 0.930 . S
H627 C635 0.930 . S
H628 C638 0.930 . S
H629 C639 0.930 . S
C630 H624 0.930 . S
C630 C631 1.355 . S
C630 C632 1.415 . S
C631 C630 1.355 . S
C631 C633 1.419 . S
C632 C630 1.415 . S
C632 C637 1.425 . S
C632 C639 1.409 . S
C633 H625 0.930 . S
C633 C631 1.419 . S
C633 C634 1.362 . S
C634 H626 0.930 . S
C634 C633 1.362 . S
C634 C637 1.409 . S
C635 H627 0.930 . S
C635 C636 1.355 . S
C635 C637 1.415 . S
C636 C635 1.355 . S
C636 C638 1.419 . S
C637 C632 1.425 . S
C637 C634 1.409 . S
C637 C635 1.415 . S
C638 H628 0.930 . S
C638 C636 1.419 . S
C638 C639 1.362 . S
C639 H629 0.930 . S
C639 C632 1.409 . S
C639 C638 1.362 . S
H640 C646 0.930 . S
H641 C649 0.930 . S
H642 C650 0.930 . S
H643 C651 0.930 . S
H644 C654 0.930 . S
H645 C655 0.930 . S
C646 H640 0.930 . S
C646 C647 1.355 . S
C646 C648 1.415 . S
C647 C646 1.355 . S
C647 C649 1.419 . S
C648 C646 1.415 . S
C648 C653 1.425 . S
C648 C655 1.409 . S
C649 H641 0.930 . S
C649 C647 1.419 . S
C649 C650 1.362 . S
C650 H642 0.930 . S
C650 C649 1.362 . S
C650 C653 1.409 . S
C651 H643 0.930 . S
C651 C652 1.355 . S
C651 C653 1.415 . S
C652 C651 1.355 . S
C652 C654 1.419 . S
C653 C648 1.425 . S
C653 C650 1.409 . S
C653 C651 1.415 . S
C654 H644 0.930 . S
C654 C652 1.419 . S
C654 C655 1.362 . S
C655 H645 0.930 . S
C655 C648 1.409 . S
C655 C654 1.362 . S
H656 C662 0.930 . S
H657 C665 0.930 . S
H658 C666 0.930 . S
H659 C667 0.930 . S
H660 C670 0.930 . S
H661 C671 0.930 . S
C662 H656 0.930 . S
C662 C663 1.355 . S
C662 C664 1.415 . S
C663 C662 1.355 . S
C663 C665 1.419 . S
C664 C662 1.415 . S
C664 C669 1.425 . S
C664 C671 1.409 . S
C665 H657 0.930 . S
C665 C663 1.419 . S
C665 C666 1.362 . S
C666 H658 0.930 . S
C666 C665 1.362 . S
C666 C669 1.409 . S
C667 H659 0.930 . S
C667 C668 1.355 . S
C667 C669 1.415 . S
C668 C667 1.355 . S
C668 C670 1.419 . S
C669 C664 1.425 . S
C669 C666 1.409 . S
C669 C667 1.415 . S
C670 H660 0.930 . S
C670 C668 1.419 . S
C670 C671 1.362 . S
C671 H661 0.930 . S
C671 C664 1.409 . S
C671 C670 1.362 . S
H672 C678 0.930 . S
H673 C681 0.930 . S
H674 C682 0.930 . S
H675 C683 0.930 . S
H676 C686 0.930 . S
H677 C687 0.930 . S
C678 H672 0.930 . S
C678 C679 1.355 . S
C678 C680 1.415 . S
C679 C678 1.355 . S
C679 C681 1.419 . S
C680 C678 1.415 . S
C680 C685 1.425 . S
C680 C687 1.409 . S
C681 H673 0.930 . S
C681 C679 1.419 . S
C681 C682 1.362 . S
C682 H674 0.930 . S
C682 C681 1.362 . S
C682 C685 1.409 . S
C683 H675 0.930 . S
C683 C684 1.355 . S
C683 C685 1.415 . S
C684 C683 1.355 . S
C684 C686 1.419 . S
C685 C680 1.425 . S
C685 C682 1.409 . S
C685 C683 1.415 . S
C686 H676 0.930 . S
C686 C684 1.419 . S
C686 C687 1.362 . S
C687 H677 0.930 . S
C687 C680 1.409 . S
C687 C686 1.362 . S
H688 C694 0.930 . S
H689 C697 0.930 . S
H690 C698 0.930 . S
H691 C699 0.930 . S
H692 C702 0.930 . S
H693 C703 0.930 . S
C694 H688 0.930 . S
C694 C695 1.355 . S
C694 C696 1.415 . S
C695 C694 1.355 . S
C695 C697 1.419 . S
C696 C694 1.415 . S
C696 C701 1.425 . S
C696 C703 1.409 . S
C697 H689 0.930 . S
C697 C695 1.419 . S
C697 C698 1.362 . S
C698 H690 0.930 . S
C698 C697 1.362 . S
C698 C701 1.409 . S
C699 H691 0.930 . S
C699 C700 1.355 . S
C699 C701 1.415 . S
C700 C699 1.355 . S
C700 C702 1.419 . S
C701 C696 1.425 . S
C701 C698 1.409 . S
C701 C699 1.415 . S
C702 H692 0.930 . S
C702 C700 1.419 . S
C702 C703 1.362 . S
C703 H693 0.930 . S
C703 C696 1.409 . S
C703 C702 1.362 . S
H704 C710 0.930 . S
H705 C713 0.930 . S
H706 C714 0.930 . S
H707 C715 0.930 . S
H708 C718 0.930 . S
H709 C719 0.930 . S
C710 H704 0.930 . S
C710 C711 1.355 . S
C710 C712 1.415 . S
C711 C710 1.355 . S
C711 C713 1.419 . S
C712 C710 1.415 . S
C712 C717 1.425 . S
C712 C719 1.409 . S
C713 H705 0.930 . S
C713 C711 1.419 . S
C713 C714 1.362 . S
C714 H706 0.930 . S
C714 C713 1.362 . S
C714 C717 1.409 . S
C715 H707 0.930 . S
C715 C716 1.355 . S
C715 C717 1.415 . S
C716 C715 1.355 . S
C716 C718 1.419 . S
C717 C712 1.425 . S
C717 C714 1.409 . S
C717 C715 1.415 . S
C718 H708 0.930 . S
C718 C716 1.419 . S
C718 C719 1.362 . S
C719 H709 0.930 . S
C719 C712 1.409 . S
C719 C718 1.362 . S
H720 C726 0.930 . S
H721 C729 0.930 . S
H722 C730 0.930 . S
H723 C731 0.930 . S
H724 C734 0.930 . S
H725 C735 0.930 . S
C726 H720 0.930 . S
C726 C727 1.355 . S
C726 C728 1.415 . S
C727 C726 1.355 . S
C727 C729 1.419 . S
C728 C726 1.415 . S
C728 C733 1.425 . S
C728 C735 1.409 . S
C729 H721 0.930 . S
C729 C727 1.419 . S
C729 C730 1.362 . S
C730 H722 0.930 . S
C730 C729 1.362 . S
C730 C733 1.409 . S
C731 H723 0.930 . S
C731 C732 1.355 . S
C731 C733 1.415 . S
C732 C731 1.355 . S
C732 C734 1.419 . S
C733 C728 1.425 . S
C733 C730 1.409 . S
C733 C731 1.415 . S
C734 H724 0.930 . S
C734 C732 1.419 . S
C734 C735 1.362 . S
C735 H725 0.930 . S
C735 C728 1.409 . S
C735 C734 1.362 . S
H736 C742 0.930 . S
H737 C745 0.930 . S
H738 C746 0.930 . S
H739 C747 0.930 . S
H740 C750 0.930 . S
H741 C751 0.930 . S
C742 H736 0.930 . S
C742 C743 1.355 . S
C742 C744 1.415 . S
C743 C742 1.355 . S
C743 C745 1.419 . S
C744 C742 1.415 . S
C744 C749 1.425 . S
C744 C751 1.409 . S
C745 H737 0.930 . S
C745 C743 1.419 . S
C745 C746 1.362 . S
C746 H738 0.930 . S
C746 C745 1.362 . S
C746 C749 1.409 . S
C747 H739 0.930 . S
C747 C748 1.355 . S
C747 C749 1.415 . S
C748 C747 1.355 . S
C748 C750 1.419 . S
C749 C744 1.425 . S
C749 C746 1.409 . S
C749 C747 1.415 . S
C750 H740 0.930 . S
C750 C748 1.419 . S
C750 C751 1.362 . S
C751 H741 0.930 . S
C751 C744 1.409 . S
C751 C750 1.362 . S
H752 C758 0.930 . S
H753 C761 0.930 . S
H754 C762 0.930 . S
H755 C763 0.930 . S
H756 C766 0.930 . S
H757 C767 0.930 . S
C758 H752 0.930 . S
C758 C759 1.355 . S
C758 C760 1.415 . S
C759 C758 1.355 . S
C759 C761 1.419 . S
C760 C758 1.415 . S
C760 C765 1.425 . S
C760 C767 1.409 . S
C761 H753 0.930 . S
C761 C759 1.419 . S
C761 C762 1.362 . S
C762 H754 0.930 . S
C762 C761 1.362 . S
C762 C765 1.409 . S
C763 H755 0.930 . S
C763 C764 1.355 . S
C763 C765 1.415 . S
C764 C763 1.355 . S
C764 C766 1.419 . S
C765 C760 1.425 . S
C765 C762 1.409 . S
C765 C763 1.415 . S
C766 H756 0.930 . S
C766 C764 1.419 . S
C766 C767 1.362 . S
C767 H757 0.930 . S
C767 C760 1.409 . S
C767 C766 1.362 . S
H768 C774 0.930 . S
H769 C777 0.930 . S
H770 C778 0.930 . S
H771 C779 0.930 . S
H772 C782 0.930 . S
H773 C783 0.930 . S
C774 H768 0.930 . S
C774 C775 1.355 . S
C774 C776 1.415 . S
C775 C774 1.355 . S
C775 C777 1.419 . S
C776 C774 1.415 . S
C776 C781 1.425 . S
C776 C783 1.409 . S
C777 H769 0.930 . S
C777 C775 1.419 . S
C777 C778 1.362 . S
C778 H770 0.930 . S
C778 C777 1.362 . S
C778 C781 1.409 . S
C779 H771 0.930 . S
C779 C780 1.355 . S
C779 C781 1.415 . S
C780 C779 1.355 . S
C780 C782 1.419 . S
C781 C776 1.425 . S
C781 C778 1.409 . S
C781 C779 1.415 . S
C782 H772 0.930 . S
C782 C780 1.419 . S
C782 C783 1.362 . S
C783 H773 0.930 . S
C783 C776 1.409 . S
C783 C782 1.362 . S
H784 C790 0.930 . S
H785 C793 0.930 . S
H786 C794 0.930 . S
H787 C795 0.930 . S
H788 C798 0.930 . S
H789 C799 0.930 . S
C790 H784 0.930 . S
C790 C791 1.355 . S
C790 C792 1.415 . S
C791 C790 1.355 . S
C791 C793 1.419 . S
C792 C790 1.415 . S
C792 C797 1.425 . S
C792 C799 1.409 . S
C793 H785 0.930 . S
C793 C791 1.419 . S
C793 C794 1.362 . S
C794 H786 0.930 . S
C794 C793 1.362 . S
C794 C797 1.409 . S
C795 H787 0.930 . S
C795 C796 1.355 . S
C795 C797 1.415 . S
C796 C795 1.355 . S
C796 C798 1.419 . S
C797 C792 1.425 . S
C797 C794 1.409 . S
C797 C795 1.415 . S
C798 H788 0.930 . S
C798 C796 1.419 . S
C798 C799 1.362 . S
C799 H789 0.930 . S
C799 C792 1.409 . S
C799 C798 1.362 . S
H800 C806 0.930 . S
H801 C809 0.930 . S
H802 C810 0.930 . S
H803 C811 0.930 . S
H804 C814 0.930 . S
H805 C815 0.930 . S
C806 H800 0.930 . S
C806 C807 1.355 . S
C806 C808 1.415 . S
C807 C806 1.355 . S
C807 C809 1.419 . S
C808 C806 1.415 . S
C808 C813 1.425 . S
C808 C815 1.409 . S
C809 H801 0.930 . S
C809 C807 1.419 . S
C809 C810 1.362 . S
C810 H802 0.930 . S
C810 C809 1.362 . S
C810 C813 1.409 . S
C811 H803 0.930 . S
C811 C812 1.355 . S
C811 C813 1.415 . S
C812 C811 1.355 . S
C812 C814 1.419 . S
C813 C808 1.425 . S
C813 C810 1.409 . S
C813 C811 1.415 . S
C814 H804 0.930 . S
C814 C812 1.419 . S
C814 C815 1.362 . S
C815 H805 0.930 . S
C815 C808 1.409 . S
C815 C814 1.362 . S
H816 C822 0.930 . S
H817 C825 0.930 . S
H818 C826 0.930 . S
H819 C827 0.930 . S
H820 C830 0.930 . S
H821 C831 0.930 . S
C822 H816 0.930 . S
C822 C823 1.355 . S
C822 C824 1.415 . S
C823 C822 1.355 . S
C823 C825 1.419 . S
C824 C822 1.415 . S
C824 C829 1.425 . S
C824 C831 1.409 . S
C825 H817 0.930 . S
C825 C823 1.419 . S
C825 C826 1.362 . S
C826 H818 0.930 . S
C826 C825 1.362 . S
C826 C829 1.409 . S
C827 H819 0.930 . S
C827 C828 1.355 . S
C827 C829 1.415 . S
C828 C827 1.355 . S
C828 C830 1.419 . S
C829 C824 1.425 . S
C829 C826 1.409 . S
C829 C827 1.415 . S
C830 H820 0.930 . S
C830 C828 1.419 . S
C830 C831 1.362 . S
C831 H821 0.930 . S
C831 C824 1.409 . S
C831 C830 1.362 . S
H832 C838 0.930 . S
H833 C841 0.930 . S
H834 C842 0.930 . S
H835 C843 0.930 . S
H836 C846 0.930 . S
H837 C847 0.930 . S
C838 H832 0.930 . S
C838 C839 1.355 . S
C838 C840 1.415 . S
C839 C838 1.355 . S
C839 C841 1.419 . S
C840 C838 1.415 . S
C840 C845 1.425 . S
C840 C847 1.409 . S
C841 H833 0.930 . S
C841 C839 1.419 . S
C841 C842 1.362 . S
C842 H834 0.930 . S
C842 C841 1.362 . S
C842 C845 1.409 . S
C843 H835 0.930 . S
C843 C844 1.355 . S
C843 C845 1.415 . S
C844 C843 1.355 . S
C844 C846 1.419 . S
C845 C840 1.425 . S
C845 C842 1.409 . S
C845 C843 1.415 . S
C846 H836 0.930 . S
C846 C844 1.419 . S
C846 C847 1.362 . S
C847 H837 0.930 . S
C847 C840 1.409 . S
C847 C846 1.362 . S
H848 C854 0.930 . S
H849 C857 0.930 . S
H850 C858 0.930 . S
H851 C859 0.930 . S
H852 C862 0.930 . S
H853 C863 0.930 . S
C854 H848 0.930 . S
C854 C855 1.355 . S
C854 C856 1.415 . S
C855 C854 1.355 . S
C855 C857 1.419 . S
C856 C854 1.415 . S
C856 C861 1.425 . S
C856 C863 1.409 . S
C857 H849 0.930 . S
C857 C855 1.419 . S
C857 C858 1.362 . S
C858 H850 0.930 . S
C858 C857 1.362 . S
C858 C861 1.409 . S
C859 H851 0.930 . S
C859 C860 1.355 . S
C859 C861 1.415 . S
C860 C859 1.355 . S
C860 C862 1.419 . S
C861 C856 1.425 . S
C861 C858 1.409 . S
C861 C859 1.415 . S
C862 H852 0.930 . S
C862 C860 1.419 . S
C862 C863 1.362 . S
C863 H853 0.930 . S
C863 C856 1.409 . S
C863 C862 1.362 . S
H864 C870 0.930 . S
H865 C873 0.930 . S
H866 C874 0.930 . S
H867 C875 0.930 . S
H868 C878 0.930 . S
H869 C879 0.930 . S
C870 H864 0.930 . S
C870 C871 1.355 . S
C870 C872 1.415 . S
C871 C870 1.355 . S
C871 C873 1.419 . S
C872 C870 1.415 . S
C872 C877 1.425 . S
C872 C879 1.409 . S
C873 H865 0.930 . S
C873 C871 1.419 . S
C873 C874 1.362 . S
C874 H866 0.930 . S
C874 C873 1.362 . S
C874 C877 1.409 . S
C875 H867 0.930 . S
C875 C876 1.355 . S
C875 C877 1.415 . S
C876 C875 1.355 . S
C876 C878 1.419 . S
C877 C872 1.425 . S
C877 C874 1.409 . S
C877 C875 1.415 . S
C878 H868 0.930 . S
C878 C876 1.419 . S
C878 C879 1.362 . S
C879 H869 0.930 . S
C879 C872 1.409 . S
C879 C878 1.362 . S
H880 C886 0.930 . S
H881 C889 0.930 . S
H882 C890 0.930 . S
H883 C891 0.930 . S
H884 C894 0.930 . S
H885 C895 0.930 . S
C886 H880 0.930 . S
C886 C887 1.355 . S
C886 C888 1.415 . S
C887 C886 1.355 . S
C887 C889 1.419 . S
C888 C886 1.415 . S
C888 C893 1.425 . S
C888 C895 1.409 . S
C889 H881 0.930 . S
C889 C887 1.419 . S
C889 C890 1.362 . S
C890 H882 0.930 . S
C890 C889 1.362 . S
C890 C893 1.409 . S
C891 H883 0.930 . S
C891 C892 1.355 . S
C891 C893 1.415 . S
C892 C891 1.355 . S
C892 C894 1.419 . S
C893 C888 1.425 . S
C893 C890 1.409 . S
C893 C891 1.415 . S
C894 H884 0.930 . S
C894 C892 1.419 . S
C894 C895 1.362 . S
C895 H885 0.930 . S
C895 C888 1.409 . S
C895 C894 1.362 . S
H896 C902 0.930 . S
H897 C905 0.930 . S
H898 C906 0.930 . S
H899 C907 0.930 . S
H900 C910 0.930 . S
H901 C911 0.930 . S
C902 H896 0.930 . S
C902 C903 1.355 . S
C902 C904 1.415 . S
C903 C902 1.355 . S
C903 C905 1.419 . S
C904 C902 1.415 . S
C904 C909 1.425 . S
C904 C911 1.409 . S
C905 H897 0.930 . S
C905 C903 1.419 . S
C905 C906 1.362 . S
C906 H898 0.930 . S
C906 C905 1.362 . S
C906 C909 1.409 . S
C907 H899 0.930 . S
C907 C908 1.355 . S
C907 C909 1.415 . S
C908 C907 1.355 . S
C908 C910 1.419 . S
C909 C904 1.425 . S
C909 C906 1.409 . S
C909 C907 1.415 . S
C910 H900 0.930 . S
C910 C908 1.419 . S
C910 C911 1.362 . S
C911 H901 0.930 . S
C911 C904 1.409 . S
C911 C910 1.362 . S
H912 C918 0.930 . S
H913 C921 0.930 . S
H914 C922 0.930 . S
H915 C923 0.930 . S
H916 C926 0.930 . S
H917 C927 0.930 . S
C918 H912 0.930 . S
C918 C919 1.355 . S
C918 C920 1.415 . S
C919 C918 1.355 . S
C919 C921 1.419 . S
C920 C918 1.415 . S
C920 C925 1.425 . S
C920 C927 1.409 . S
C921 H913 0.930 . S
C921 C919 1.419 . S
C921 C922 1.362 . S
C922 H914 0.930 . S
C922 C921 1.362 . S
C922 C925 1.409 . S
C923 H915 0.930 . S
C923 C924 1.355 . S
C923 C925 1.415 . S
C924 C923 1.355 . S
C924 C926 1.419 . S
C925 C920 1.425 . S
C925 C922 1.409 . S
C925 C923 1.415 . S
C926 H916 0.930 . S
C926 C924 1.419 . S
C926 C927 1.362 . S
C927 H917 0.930 . S
C927 C920 1.409 . S
C927 C926 1.362 . S
H928 C934 0.930 . S
H929 C937 0.930 . S
H930 C938 0.930 . S
H931 C939 0.930 . S
H932 C942 0.930 . S
H933 C943 0.930 . S
C934 H928 0.930 . S
C934 C935 1.355 . S
C934 C936 1.415 . S
C935 C934 1.355 . S
C935 C937 1.419 . S
C936 C934 1.415 . S
C936 C941 1.425 . S
C936 C943 1.409 . S
C937 H929 0.930 . S
C937 C935 1.419 . S
C937 C938 1.362 . S
C938 H930 0.930 . S
C938 C937 1.362 . S
C938 C941 1.409 . S
C939 H931 0.930 . S
C939 C940 1.355 . S
C939 C941 1.415 . S
C940 C939 1.355 . S
C940 C942 1.419 . S
C941 C936 1.425 . S
C941 C938 1.409 . S
C941 C939 1.415 . S
C942 H932 0.930 . S
C942 C940 1.419 . S
C942 C943 1.362 . S
C943 H933 0.930 . S
C943 C936 1.409 . S
C943 C942 1.362 . S
H944 C950 0.930 . S
H945 C953 0.930 . S
H946 C954 0.930 . S
H947 C955 0.930 . S
H948 C958 0.930 . S
H949 C959 0.930 . S
C950 H944 0.930 . S
C950 C951 1.355 . S
C950 C952 1.415 . S
C951 C950 1.355 . S
C951 C953 1.419 . S
C952 C950 1.415 . S
C952 C957 1.425 . S
C952 C959 1.409 . S
C953 H945 0.930 . S
C953 C951 1.419 . S
C953 C954 1.362 . S
C954 H946 0.930 . S
C954 C953 1.362 . S
C954 C957 1.409 . S
C955 H947 0.930 . S
C955 C956 1.355 . S
C955 C957 1.415 . S
C956 C955 1.355 . S
C956 C958 1.419 . S
C957 C952 1.425 . S
C957 C954 1.409 . S
C957 C955 1.415 . S
C958 H948 0.930 . S
C958 C956 1.419 . S
C958 C959 1.362 . S
C959 H949 0.930 . S
C959 C952 1.409 . S
C959 C958 1.362 . S
H960 C966 0.930 . S
H961 C969 0.930 . S
H962 C970 0.930 . S
H963 C971 0.930 . S
H964 C974 0.930 . S
H965 C975 0.930 . S
C966 H960 0.930 . S
C966 C967 1.355 . S
C966 C968 1.415 . S
C967 C966 1.355 . S
C967 C969 1.419 . S
C968 C966 1.415 . S
C968 C973 1.425 . S
C968 C975 1.409 . S
C969 H961 0.930 . S
C969 C967 1.419 . S
C969 C970 1.362 . S
C970 H962 0.930 . S
C970 C969 1.362 . S
C970 C973 1.409 . S
C971 H963 0.930 . S
C971 C972 1.355 . S
C971 C973 1.415 . S
C972 C971 1.355 . S
C972 C974 1.419 . S
C973 C968 1.425 . S
C973 C970 1.409 . S
C973 C971 1.415 . S
C974 H964 0.930 . S
C974 C972 1.419 . S
C974 C975 1.362 . S
C975 H965 0.930 . S
C975 C968 1.409 . S
C975 C974 1.362 . S
H976 C982 0.930 . S
H977 C985 0.930 . S
H978 C986 0.930 . S
H979 C987 0.930 . S
H980 C990 0.930 . S
H981 C991 0.930 . S
C982 H976 0.930 . S
C982 C983 1.355 . S
C982 C984 1.415 . S
C983 C982 1.355 . S
C983 C985 1.419 . S
C984 C982 1.415 . S
C984 C989 1.425 . S
C984 C991 1.409 . S
C985 H977 0.930 . S
C985 C983 1.419 . S
C985 C986 1.362 . S
C986 H978 0.930 . S
C986 C985 1.362 . S
C986 C989 1.409 . S
C987 H979 0.930 . S
C987 C988 1.355 . S
C987 C989 1.415 . S
C988 C987 1.355 . S
C988 C990 1.419 . S
C989 C984 1.425 . S
C989 C986 1.409 . S
C989 C987 1.415 . S
C990 H980 0.930 . S
C990 C988 1.419 . S
C990 C991 1.362 . S
C991 H981 0.930 . S
C991 C984 1.409 . S
C991 C990 1.362 . S
H992 C998 0.930 . S
H993 C1001 0.930 . S
H994 C1002 0.930 . S
H995 C1003 0.930 . S
H996 C1006 0.930 . S
H997 C1007 0.930 . S
C998 H992 0.930 . S
C998 C999 1.355 . S
C998 C1000 1.415 . S
C999 C998 1.355 . S
C999 C1001 1.419 . S
C1000 C998 1.415 . S
C1000 C1005 1.425 . S
C1000 C1007 1.409 . S
C1001 H993 0.930 . S
C1001 C999 1.419 . S
C1001 C1002 1.362 . S
C1002 H994 0.930 . S
C1002 C1001 1.362 . S
C1002 C1005 1.409 . S
C1003 H995 0.930 . S
C1003 C1004 1.355 . S
C1003 C1005 1.415 . S
C1004 C1003 1.355 . S
C1004 C1006 1.419 . S
C1005 C1000 1.425 . S
C1005 C1002 1.409 . S
C1005 C1003 1.415 . S
C1006 H996 0.930 . S
C1006 C1004 1.419 . S
C1006 C1007 1.362 . S
C1007 H997 0.930 . S
C1007 C1000 1.409 . S
C1007 C1006 1.362 . S
H1008 C1014 0.930 . S
H1009 C1017 0.930 . S
H1010 C1018 0.930 . S
H1011 C1019 0.930 . S
H1012 C1022 0.930 . S
H1013 C1023 0.930 . S
C1014 H1008 0.930 . S
C1014 C1015 1.355 . S
C1014 C1016 1.415 . S
C1015 C1014 1.355 . S
C1015 C1017 1.419 . S
C1016 C1014 1.415 . S
C1016 C1021 1.425 . S
C1016 C1023 1.409 . S
C1017 H1009 0.930 . S
C1017 C1015 1.419 . S
C1017 C1018 1.362 . S
C1018 H1010 0.930 . S
C1018 C1017 1.362 . S
C1018 C1021 1.409 . S
C1019 H1011 0.930 . S
C1019 C1020 1.355 . S
C1019 C1021 1.415 . S
C1020 C1019 1.355 . S
C1020 C1022 1.419 . S
C1021 C1016 1.425 . S
C1021 C1018 1.409 . S
C1021 C1019 1.415 . S
C1022 H1012 0.930 . S
C1022 C1020 1.419 . S
C1022 C1023 1.362 . S
C1023 H1013 0.930 . S
C1023 C1016 1.409 . S
C1023 C1022 1.362 . S
H1024 C1030 0.930 . S
H1025 C1033 0.930 . S
H1026 C1034 0.930 . S
H1027 C1035 0.930 . S
H1028 C1038 0.930 . S
H1029 C1039 0.930 . S
C1030 H1024 0.930 . S
C1030 C1031 1.355 . S
C1030 C1032 1.415 . S
C1031 C1030 1.355 . S
C1031 C1033 1.419 . S
C1032 C1030 1.415 . S
C1032 C1037 1.425 . S
C1032 C1039 1.409 . S
C1033 H1025 0.930 . S
C1033 C1031 1.419 . S
C1033 C1034 1.362 . S
C1034 H1026 0.930 . S
C1034 C1033 1.362 . S
C1034 C1037 1.409 . S
C1035 H1027 0.930 . S
C1035 C1036 1.355 . S
C1035 C1037 1.415 . S
C1036 C1035 1.355 . S
C1036 C1038 1.419 . S
C1037 C1032 1.425 . S
C1037 C1034 1.409 . S
C1037 C1035 1.415 . S
C1038 H1028 0.930 . S
C1038 C1036 1.419 . S
C1038 C1039 1.362 . S
C1039 H1029 0.930 . S
C1039 C1032 1.409 . S
C1039 C1038 1.362 . S
H1040 C1046 0.930 . S
H1041 C1049 0.930 . S
H1042 C1050 0.930 . S
H1043 C1051 0.930 . S
H1044 C1054 0.930 . S
H1045 C1055 0.930 . S
C1046 H1040 0.930 . S
C1046 C1047 1.355 . S
C1046 C1048 1.415 . S
C1047 C1046 1.355 . S
C1047 C1049 1.419 . S
C1048 C1046 1.415 . S
C1048 C1053 1.425 . S
C1048 C1055 1.409 . S
C1049 H1041 0.930 . S
C1049 C1047 1.419 . S
C1049 C1050 1.362 . S
C1050 H1042 0.930 . S
C1050 C1049 1.362 . S
C1050 C1053 1.409 . S
C1051 H1043 0.930 . S
C1051 C1052 1.355 . S
C1051 C1053 1.415 . S
C1052 C1051 1.355 . S
C1052 C1054 1.419 . S
C1053 C1048 1.425 . S
C1053 C1050 1.409 . S
C1053 C1051 1.415 . S
C1054 H1044 0.930 . S
C1054 C1052 1.419 . S
C1054 C1055 1.362 . S
C1055 H1045 0.930 . S
C1055 C1048 1.409 . S
C1055 C1054 1.362 . S
H1056 C1062 0.930 . S
H1057 C1065 0.930 . S
H1058 C1066 0.930 . S
H1059 C1067 0.930 . S
H1060 C1070 0.930 . S
H1061 C1071 0.930 . S
C1062 H1056 0.930 . S
C1062 C1063 1.355 . S
C1062 C1064 1.415 . S
C1063 C1062 1.355 . S
C1063 C1065 1.419 . S
C1064 C1062 1.415 . S
C1064 C1069 1.425 . S
C1064 C1071 1.409 . S
C1065 H1057 0.930 . S
C1065 C1063 1.419 . S
C1065 C1066 1.362 . S
C1066 H1058 0.930 . S
C1066 C1065 1.362 . S
C1066 C1069 1.409 . S
C1067 H1059 0.930 . S
C1067 C1068 1.355 . S
C1067 C1069 1.415 . S
C1068 C1067 1.355 . S
C1068 C1070 1.419 . S
C1069 C1064 1.425 . S
C1069 C1066 1.409 . S
C1069 C1067 1.415 . S
C1070 H1060 0.930 . S
C1070 C1068 1.419 . S
C1070 C1071 1.362 . S
C1071 H1061 0.930 . S
C1071 C1064 1.409 . S
C1071 C1070 1.362 . S
H1072 C1078 0.930 . S
H1073 C1081 0.930 . S
H1074 C1082 0.930 . S
H1075 C1083 0.930 . S
H1076 C1086 0.930 . S
H1077 C1087 0.930 . S
C1078 H1072 0.930 . S
C1078 C1079 1.355 . S
C1078 C1080 1.415 . S
C1079 C1078 1.355 . S
C1079 C1081 1.419 . S
C1080 C1078 1.415 . S
C1080 C1085 1.425 . S
C1080 C1087 1.409 . S
C1081 H1073 0.930 . S
C1081 C1079 1.419 . S
C1081 C1082 1.362 . S
C1082 H1074 0.930 . S
C1082 C1081 1.362 . S
C1082 C1085 1.409 . S
C1083 H1075 0.930 . S
C1083 C1084 1.355 . S
C1083 C1085 1.415 . S
C1084 C1083 1.355 . S
C1084 C1086 1.419 . S
C1085 C1080 1.425 . S
C1085 C1082 1.409 . S
C1085 C1083 1.415 . S
C1086 H1076 0.930 . S
C1086 C1084 1.419 . S
C1086 C1087 1.362 . S
C1087 H1077 0.930 . S
C1087 C1080 1.409 . S
C1087 C1086 1.362 . S
H1088 C1094 0.930 . S
H1089 C1097 0.930 . S
H1090 C1098 0.930 . S
H1091 C1099 0.930 . S
H1092 C1102 0.930 . S
H1093 C1103 0.930 . S
C1094 H1088 0.930 . S
C1094 C1095 1.355 . S
C1094 C1096 1.415 . S
C1095 C1094 1.355 . S
C1095 C1097 1.419 . S
C1096 C1094 1.415 . S
C1096 C1101 1.425 . S
C1096 C1103 1.409 . S
C1097 H1089 0.930 . S
C1097 C1095 1.419 . S
C1097 C1098 1.362 . S
C1098 H1090 0.930 . S
C1098 C1097 1.362 . S
C1098 C1101 1.409 . S
C1099 H1091 0.930 . S
C1099 C1100 1.355 . S
C1099 C1101 1.415 . S
C1100 C1099 1.355 . S
C1100 C1102 1.419 . S
C1101 C1096 1.425 . S
C1101 C1098 1.409 . S
C1101 C1099 1.415 . S
C1102 H1092 0.930 . S
C1102 C1100 1.419 . S
C1102 C1103 1.362 . S
C1103 H1093 0.930 . S
C1103 C1096 1.409 . S
C1103 C1102 1.362 . S
H1104 C1110 0.930 . S
H1105 C1113 0.930 . S
H1106 C1114 0.930 . S
H1107 C1115 0.930 . S
H1108 C1118 0.930 . S
H1109 C1119 0.930 . S
C1110 H1104 0.930 . S
C1110 C1111 1.355 . S
C1110 C1112 1.415 . S
C1111 C1110 1.355 . S
C1111 C1113 1.419 . S
C1112 C1110 1.415 . S
C1112 C1117 1.425 . S
C1112 C1119 1.409 . S
C1113 H1105 0.930 . S
C1113 C1111 1.419 . S
C1113 C1114 1.362 . S
C1114 H1106 0.930 . S
C1114 C1113 1.362 . S
C1114 C1117 1.409 . S
C1115 H1107 0.930 . S
C1115 C1116 1.355 . S
C1115 C1117 1.415 . S
C1116 C1115 1.355 . S
C1116 C1118 1.419 . S
C1117 C1112 1.425 . S
C1117 C1114 1.409 . S
C1117 C1115 1.415 . S
C1118 H1108 0.930 . S
C1118 C1116 1.419 . S
C1118 C1119 1.362 . S
C1119 H1109 0.930 . S
C1119 C1112 1.409 . S
C1119 C1118 1.362 . S
C364 C177 1.778 . S
C359 C9 1.783 . S
C380 C182 1.881 . S
C375 C28 1.855 . S
C396 C183 1.205 . S
C391 C49 1.217 . S
C407 C79 1.821 . S
C412 C187 1.864 . S
C423 C99 1.834 . S
C428 C190 1.861 . S
C444 C191 1.232 . S
C439 C101 1.246 . S
C455 C128 1.864 . S
C460 C168 1.907 . S
C471 C141 1.792 . S
C476 C184 1.763 . S
C492 C222 1.207 . S
C487 C16 1.092 . S
C503 C26 1.126 . S
C508 C248 1.135 . S
C524 C200 1.175 . S
C519 C56 1.133 . S
C540 C255 1.193 . S
C535 C69 1.229 . S
C551 C89 1.242 . S
C556 C209 1.227 . S
C572 C251 1.846 . S
C567 C108 1.859 . S
C583 C126 1.060 . S
C588 C215 1.055 . S
C599 C148 1.884 . S
C604 C246 1.881 . S
C615 C19 1.893 . S
C620 C254 1.860 . S
C631 C96 1.130 . S
C636 C241 1.094 . S
C652 C219 1.193 . S
C647 C106 1.082 . S
C668 C247 1.162 . S
C663 C121 1.214 . S
C679 C146 1.197 . S
C684 C214 1.158 . S
C695 C59 1.860 . S
C700 C232 1.866 . S
C716 C223 1.147 . S
C711 C76 1.156 . S
C727 C21 1.185 . S
C732 C216 1.159 . S
C743 C149 1.769 . S
C748 C278 1.747 . S
C759 C88 1.816 . S
C764 C273 1.859 . S
C780 C287 1.215 . S
C775 C109 1.217 . S
C796 C264 1.890 . S
C791 C139 1.815 . S
C807 C39 1.851 . S
C812 C280 1.847 . S
C828 C279 1.186 . S
C823 C41 1.222 . S
C839 C68 1.808 . S
C844 C283 1.894 . S
C855 C1 1.765 . S
C860 C286 1.736 . S
C871 C156 1.098 . S
C876 C312 1.200 . S
C892 C328 1.147 . S
C887 C86 1.064 . S
C903 C116 1.152 . S
C908 C310 1.186 . S
C919 C129 1.223 . S
C924 C343 1.176 . S
C940 C319 1.174 . S
C935 C29 1.217 . S
C951 C48 1.830 . S
C956 C337 1.880 . S
C972 C315 1.095 . S
C967 C66 1.079 . S
C988 C350 1.843 . S
C983 C8 1.872 . S
C1004 C342 1.904 . S
C999 C159 1.895 . S
C1015 C36 1.156 . S
C1020 C347 1.097 . S
C1031 C46 1.172 . S
C1036 C318 1.188 . S
C1052 C351 1.172 . S
C1047 C61 1.235 . S
C1063 C6 1.208 . S
C1068 C305 1.216 . S
C1079 C119 1.830 . S
C1084 C344 1.878 . S
C1100 C296 1.120 . S
C1095 C136 1.043 . S
C1116 C311 1.178 . S
C1111 C81 1.225 . S
