# Generated by pormake.
# Topology ocu, (6,8)-cn, num edge types: 1
# Building blocks:
#     Node 0, Type 0, BuildingBlock: FUNLAD_clean_sbu_0, # of connection points: 6
#     Node 1, Type 0, BuildingBlock: FUNLAD_clean_sbu_0, # of connection points: 6
#     Node 2, Type 0, BuildingBlock: FUNLAD_clean_sbu_0, # of connection points: 6
#     Node 3, Type 0, BuildingBlock: FUNLAD_clean_sbu_0, # of connection points: 6
#     Node 4, Type 0, BuildingBlock: FUNLAD_clean_sbu_0, # of connection points: 6
#     Node 5, Type 0, BuildingBlock: FUNLAD_clean_sbu_0, # of connection points: 6
#     Node 6, Type 0, BuildingBlock: FUNLAD_clean_sbu_0, # of connection points: 6
#     Node 7, Type 0, BuildingBlock: FUNLAD_clean_sbu_0, # of connection points: 6
#     Node 8, Type 1, BuildingBlock: TAGTUT_clean_sbu_1, # of connection points: 8
#     Node 9, Type 1, BuildingBlock: TAGTUT_clean_sbu_1, # of connection points: 8
#     Node 10, Type 1, BuildingBlock: TAGTUT_clean_sbu_1, # of connection points: 8
#     Node 11, Type 1, BuildingBlock: TAGTUT_clean_sbu_1, # of connection points: 8
#     Node 12, Type 1, BuildingBlock: TAGTUT_clean_sbu_1, # of connection points: 8
#     Node 13, Type 1, BuildingBlock: TAGTUT_clean_sbu_1, # of connection points: 8
#     Edge 14, Type (0, 1), None
#     Edge 15, Type (0, 1), None
#     Edge 16, Type (0, 1), None
#     Edge 17, Type (0, 1), None
#     Edge 18, Type (0, 1), None
#     Edge 19, Type (0, 1), None
#     Edge 20, Type (0, 1), None
#     Edge 21, Type (0, 1), None
#     Edge 22, Type (0, 1), None
#     Edge 23, Type (0, 1), None
#     Edge 24, Type (0, 1), None
#     Edge 25, Type (0, 1), None
#     Edge 26, Type (0, 1), None
#     Edge 27, Type (0, 1), None
#     Edge 28, Type (0, 1), None
#     Edge 29, Type (0, 1), None
#     Edge 30, Type (0, 1), None
#     Edge 31, Type (0, 1), None
#     Edge 32, Type (0, 1), None
#     Edge 33, Type (0, 1), None
#     Edge 34, Type (0, 1), None
#     Edge 35, Type (0, 1), None
#     Edge 36, Type (0, 1), None
#     Edge 37, Type (0, 1), None
#     Edge 38, Type (0, 1), None
#     Edge 39, Type (0, 1), None
#     Edge 40, Type (0, 1), None
#     Edge 41, Type (0, 1), None
#     Edge 42, Type (0, 1), None
#     Edge 43, Type (0, 1), None
#     Edge 44, Type (0, 1), None
#     Edge 45, Type (0, 1), None
#     Edge 46, Type (0, 1), None
#     Edge 47, Type (0, 1), None
#     Edge 48, Type (0, 1), None
#     Edge 49, Type (0, 1), None
#     Edge 50, Type (0, 1), None
#     Edge 51, Type (0, 1), None
#     Edge 52, Type (0, 1), None
#     Edge 53, Type (0, 1), None
#     Edge 54, Type (0, 1), None
#     Edge 55, Type (0, 1), None
#     Edge 56, Type (0, 1), None
#     Edge 57, Type (0, 1), None
#     Edge 58, Type (0, 1), None
#     Edge 59, Type (0, 1), None
#     Edge 60, Type (0, 1), None
#     Edge 61, Type (0, 1), None
# Relax obj value: 0.312
# Max RMSD: 0.272
# Mean RMSD: 0.215
data_MOF--net-ocu--node1-FUNLAD_clean_sbu_0--node2-TAGTUT_clean_sbu_1--edge1-none
_symmetry_space_group_name_H-M    P1
_symmetry_Int_Tables_number       1
_symmetry_cell_setting            triclinic
loop_
_symmetry_equiv_pos_as_xyz
'x, y, z'
_cell_length_a     19.580911
_cell_length_b     20.256029
_cell_length_c     20.552691
_cell_angle_alpha  81.49525
_cell_angle_beta   81.63792
_cell_angle_gamma 94.425831
loop_
_atom_site_label
_atom_site_type_symbol
_atom_site_fract_x
_atom_site_fract_y
_atom_site_fract_z
_atom_type_partial_charge
C0 C 0.1951 0.25409 0.38554 0.0
N1 N 0.16684 0.09718 0.27679 0.0
C2 C 0.09665 0.09771 0.28273 0.0
C3 C 0.05577 0.0374 0.28701 0.0
C4 C 0.08949 -0.02051 0.30045 0.0
C5 C 0.15683 -0.01819 0.26574 0.0
C6 C 0.19777 0.04208 0.26144 0.0
Zn7 Zn 0.2266 0.18024 0.27888 0.0
C8 C 0.18143 0.29004 0.18839 0.0
N9 N 0.36617 0.34671 0.2618 0.0
C10 C 0.33537 0.40187 0.2771 0.0
C11 C 0.43636 0.3461 0.25564 0.0
C12 C 0.47735 0.40639 0.25111 0.0
C13 C 0.4437 0.46435 0.23775 0.0
C14 C 0.3764 0.46214 0.27256 0.0
Zn15 Zn 0.30635 0.26367 0.25983 0.0
O16 O 0.16637 0.20206 0.36872 0.0
C17 C 0.35158 0.15392 0.3503 0.0
O18 O 0.2488 0.28472 0.34847 0.0
H19 H 0.46043 0.30063 0.24971 0.0
H20 H 0.07249 0.14314 0.28865 0.0
H21 H 0.27953 0.40064 0.28767 0.0
O22 O 0.29333 0.12594 0.34213 0.0
O23 O 0.37159 0.21224 0.31909 0.0
H24 H 0.25362 0.04337 0.251 0.0
O25 O 0.3666 0.24178 0.17003 0.0
O26 O 0.28408 0.15923 0.19024 0.0
O27 O 0.23971 0.31795 0.19655 0.0
O28 O 0.16133 0.23174 0.21963 0.0
C29 C 0.33782 0.18979 0.1532 0.0
H30 H 1.00012 0.03641 0.30088 0.0
H31 H 0.18211 0.93626 0.26358 0.0
H32 H 0.53296 0.40726 0.2371 0.0
H33 H 0.35107 0.50768 0.27462 0.0
C34 C 0.6763 0.30044 0.20553 0.0
N35 N 0.76925 0.14151 0.15908 0.0
C36 C 0.69838 0.13814 0.17029 0.0
C37 C 0.65907 0.1202 0.12565 0.0
C38 C 0.69037 0.09993 0.0688 0.0
C39 C 0.76237 0.09415 0.05949 0.0
C40 C 0.80221 0.11823 0.10505 0.0
Zn41 Zn 0.79376 0.19382 0.2335 0.0
C42 C 0.87045 0.32575 0.19329 0.0
N43 N 0.76421 0.30279 0.37949 0.0
C44 C 0.73107 0.32576 0.43363 0.0
C45 C 0.83509 0.30642 0.3683 0.0
C46 C 0.87426 0.32423 0.4131 0.0
C47 C 0.84278 0.34407 0.47011 0.0
C48 C 0.77075 0.34965 0.4794 0.0
Zn49 Zn 0.73981 0.25056 0.30499 0.0
O50 O 0.72155 0.26143 0.19084 0.0
C51 C 0.66322 0.1185 0.34522 0.0
O52 O 0.66494 0.3123 0.2652 0.0
H53 H 0.86433 0.28919 0.3271 0.0
H54 H 0.66926 0.15551 0.21147 0.0
H55 H 0.6751 0.32419 0.44221 0.0
O56 O 0.71426 0.11582 0.3001 0.0
O57 O 0.65646 0.17542 0.36434 0.0
H58 H 0.85817 0.11961 0.09644 0.0
O59 O 0.81205 0.18315 0.34756 0.0
O60 O 0.86856 0.13203 0.27336 0.0
O61 O 0.81937 0.32851 0.23836 0.0
O62 O 0.87716 0.26882 0.17419 0.0
C63 C 0.85729 0.14412 0.33296 0.0
H64 H 0.60326 0.12208 0.13627 0.0
H65 H 0.78708 0.07344 1.01754 0.0
H66 H 0.9301 0.32251 0.40252 0.0
H67 H 0.74591 0.37011 0.52145 0.0
C68 C 0.84737 0.6343 0.33896 0.0
N69 N 0.84454 0.82328 0.32627 0.0
C70 C 0.82858 0.78143 0.38696 0.0
C71 C 0.83253 0.80222 0.44626 0.0
C72 C 0.86521 0.86421 0.44646 0.0
C73 C 0.88321 0.90922 0.38537 0.0
C74 C 0.87028 0.88802 0.32512 0.0
Zn75 Zn 0.80437 0.76655 0.25792 0.0
C76 C 0.86458 0.70168 0.16441 0.0
N77 N 0.6887 0.62003 0.21323 0.0
C78 C 0.66249 0.55537 0.21472 0.0
C79 C 0.70476 0.66161 0.15239 0.0
C80 C 0.70082 0.64049 0.09326 0.0
C81 C 0.6675 0.57871 0.0934 0.0
C82 C 0.64928 0.534 0.15463 0.0
Zn83 Zn 0.72906 0.67709 0.2811 0.0
O84 O 0.86476 0.69335 0.30839 0.0
C85 C 0.66885 0.74208 0.37452 0.0
O86 O 0.78619 0.60717 0.33753 0.0
H87 H 0.72967 0.7116 0.14619 0.0
H88 H 0.80364 0.73148 0.39294 0.0
H89 H 0.65075 0.52121 0.26149 0.0
O90 O 0.72056 0.77265 0.33549 0.0
O91 O 0.64842 0.68242 0.36671 0.0
H92 H 0.88183 0.9224 0.27849 0.0
O93 O 0.6687 0.75019 0.2305 0.0
O94 O 0.74713 0.83649 0.2015 0.0
O95 O 0.81294 0.671 0.20346 0.0
O96 O 0.88497 0.76133 0.17228 0.0
C97 C 0.68602 0.80924 0.19996 0.0
H98 H 0.81754 0.7662 0.49184 0.0
H99 H 0.9097 0.9583 0.38372 0.0
H100 H 0.71592 0.67632 0.04754 0.0
H101 H 0.62241 0.48505 0.1565 0.0
C102 C 0.19078 0.78044 0.36528 0.0
N103 N 0.38365 0.71987 0.36145 0.0
C104 C 0.43626 0.77094 0.34546 0.0
C105 C 0.44125 0.82073 0.38627 0.0
C106 C 0.39498 0.81484 0.44621 0.0
C107 C 0.35086 0.75489 0.4667 0.0
C108 C 0.34753 0.70704 0.42435 0.0
Zn109 Zn 0.31357 0.71566 0.29386 0.0
C110 C 0.18729 0.60134 0.34168 0.0
N111 N 0.14857 0.72403 0.17776 0.0
C112 C 0.1847 0.73706 0.11487 0.0
C113 C 0.09603 0.67289 0.19363 0.0
C114 C 0.09112 0.62323 0.15267 0.0
C115 C 0.13738 0.62936 0.09271 0.0
C116 C 0.18138 0.68939 0.07235 0.0
Zn117 Zn 0.21882 0.72817 0.24519 0.0
O118 O 0.25261 0.76602 0.36097 0.0
C119 C 0.34526 0.84245 0.19738 0.0
O120 O 0.15802 0.77585 0.31648 0.0
H121 H 0.06326 0.66546 0.24179 0.0
H122 H 0.46907 0.77818 0.29733 0.0
H123 H 0.22655 0.77666 0.10272 0.0
O124 O 0.37173 0.80608 0.23986 0.0
O125 O 0.2819 0.82548 0.19111 0.0
H126 H 0.30562 0.66749 0.43658 0.0
O127 O 0.27972 0.6778 0.17801 0.0
O128 O 0.37431 0.66796 0.22252 0.0
O129 O 0.16072 0.63768 0.29923 0.0
O130 O 0.25063 0.61841 0.34792 0.0
C131 C 0.34153 0.66334 0.17373 0.0
H132 H 0.48086 0.8628 0.37138 0.0
H133 H 0.31713 0.7463 0.51449 0.0
H134 H 0.05163 0.58106 0.16748 0.0
H135 H 0.21513 0.69813 0.02456 0.0
C136 C 0.1763 0.80044 0.70553 0.0
N137 N 0.26925 0.64151 0.65908 0.0
C138 C 0.19838 0.63814 0.67029 0.0
C139 C 0.15907 0.6202 0.62565 0.0
C140 C 0.19037 0.59993 0.5688 0.0
C141 C 0.26237 0.59415 0.55949 0.0
C142 C 0.30221 0.61823 0.60505 0.0
Zn143 Zn 0.29376 0.69382 0.7335 0.0
C144 C 0.37045 0.82575 0.69329 0.0
N145 N 0.26421 0.80279 0.87949 0.0
C146 C 0.23107 0.82576 0.93363 0.0
C147 C 0.33509 0.80642 0.8683 0.0
C148 C 0.37426 0.82423 0.9131 0.0
C149 C 0.34278 0.84407 0.97011 0.0
C150 C 0.27075 0.84965 0.9794 0.0
Zn151 Zn 0.23981 0.75056 0.80499 0.0
O152 O 0.22155 0.76144 0.69084 0.0
C153 C 0.16322 0.6185 0.84522 0.0
O154 O 0.16494 0.8123 0.7652 0.0
H155 H 0.36433 0.78919 0.8271 0.0
H156 H 0.16926 0.65551 0.71147 0.0
H157 H 0.1751 0.82419 0.94221 0.0
O158 O 0.21426 0.61582 0.8001 0.0
O159 O 0.15646 0.67542 0.86434 0.0
H160 H 0.35817 0.61961 0.59644 0.0
O161 O 0.31205 0.68315 0.84756 0.0
O162 O 0.36856 0.63203 0.77336 0.0
O163 O 0.31937 0.82851 0.73836 0.0
O164 O 0.37716 0.76882 0.67419 0.0
C165 C 0.35729 0.64412 0.83296 0.0
H166 H 0.10326 0.62208 0.63627 0.0
H167 H 0.28708 0.57344 0.51755 0.0
H168 H 0.4301 0.82251 0.90252 0.0
H169 H 0.24591 0.87011 0.02145 0.0
C170 C 0.34737 0.1343 0.83896 0.0
N171 N 0.34454 0.32328 0.82627 0.0
C172 C 0.32858 0.28143 0.88696 0.0
C173 C 0.33253 0.30222 0.94626 0.0
C174 C 0.36521 0.36421 0.94646 0.0
C175 C 0.38321 0.40922 0.88537 0.0
C176 C 0.37028 0.38802 0.82512 0.0
Zn177 Zn 0.30437 0.26655 0.75792 0.0
C178 C 0.36458 0.20168 0.66441 0.0
N179 N 0.1887 0.12003 0.71323 0.0
C180 C 0.16249 0.05537 0.71472 0.0
C181 C 0.20476 0.16161 0.65239 0.0
C182 C 0.20082 0.14049 0.59326 0.0
C183 C 0.1675 0.07871 0.5934 0.0
C184 C 0.14928 0.034 0.65463 0.0
Zn185 Zn 0.22906 0.17709 0.7811 0.0
O186 O 0.36476 0.19335 0.80839 0.0
C187 C 0.16885 0.24208 0.87452 0.0
O188 O 0.28619 0.10717 0.83753 0.0
H189 H 0.22967 0.2116 0.6462 0.0
H190 H 0.30364 0.23148 0.89294 0.0
H191 H 0.15075 0.02121 0.76149 0.0
O192 O 0.22056 0.27266 0.83549 0.0
O193 O 0.14842 0.18242 0.86672 0.0
H194 H 0.38183 0.4224 0.77849 0.0
O195 O 0.1687 0.25019 0.7305 0.0
O196 O 0.24713 0.33649 0.7015 0.0
O197 O 0.31294 0.171 0.70346 0.0
O198 O 0.38497 0.26133 0.67228 0.0
C199 C 0.18602 0.30924 0.69996 0.0
H200 H 0.31754 0.2662 0.99184 0.0
H201 H 0.4097 0.4583 0.88373 0.0
H202 H 0.21592 0.17632 0.54754 0.0
H203 H 0.12241 -0.01495 0.6565 0.0
C204 C 0.69078 0.28044 0.86528 0.0
N205 N 0.88365 0.21987 0.86145 0.0
C206 C 0.93626 0.27094 0.84546 0.0
C207 C 0.94125 0.32073 0.88627 0.0
C208 C 0.89498 0.31484 0.94621 0.0
C209 C 0.85086 0.25489 0.9667 0.0
C210 C 0.84753 0.20704 0.92435 0.0
Zn211 Zn 0.81357 0.21566 0.79386 0.0
C212 C 0.68729 0.10134 0.84168 0.0
N213 N 0.64857 0.22403 0.67776 0.0
C214 C 0.6847 0.23706 0.61487 0.0
C215 C 0.59603 0.17289 0.69363 0.0
C216 C 0.59112 0.12323 0.65267 0.0
C217 C 0.63738 0.12936 0.59271 0.0
C218 C 0.68138 0.18939 0.57235 0.0
Zn219 Zn 0.71882 0.22817 0.74519 0.0
O220 O 0.7526 0.26602 0.86097 0.0
C221 C 0.84526 0.34245 0.69738 0.0
O222 O 0.65801 0.27585 0.81648 0.0
H223 H 0.56326 0.16546 0.74179 0.0
H224 H 0.96907 0.27818 0.79733 0.0
H225 H 0.72655 0.27666 0.60272 0.0
O226 O 0.87173 0.30608 0.73986 0.0
O227 O 0.7819 0.32548 0.69111 0.0
H228 H 0.80562 0.1675 0.93658 0.0
O229 O 0.77972 0.1778 0.67801 0.0
O230 O 0.87431 0.16796 0.72252 0.0
O231 O 0.66072 0.13768 0.79923 0.0
O232 O 0.75063 0.11841 0.84792 0.0
C233 C 0.84153 0.16334 0.67373 0.0
H234 H 0.98086 0.3628 0.87138 0.0
H235 H 0.81713 0.2463 1.01449 0.0
H236 H 0.55163 0.08106 0.66748 0.0
H237 H 0.71513 0.19813 0.52456 0.0
C238 C 0.6951 0.75409 0.88554 0.0
N239 N 0.66684 0.59718 0.77679 0.0
C240 C 0.59665 0.59771 0.78273 0.0
C241 C 0.55577 0.53739 0.78701 0.0
C242 C 0.58948 0.47949 0.80045 0.0
C243 C 0.65683 0.48181 0.76574 0.0
C244 C 0.69777 0.54208 0.76144 0.0
Zn245 Zn 0.7266 0.68024 0.77888 0.0
C246 C 0.68143 0.79004 0.68839 0.0
N247 N 0.86617 0.8467 0.7618 0.0
C248 C 0.83537 0.90187 0.7771 0.0
C249 C 0.93636 0.8461 0.75564 0.0
C250 C 0.97734 0.90639 0.75111 0.0
C251 C 0.9437 0.96434 0.73775 0.0
C252 C 0.8764 0.96214 0.77256 0.0
Zn253 Zn 0.80635 0.76367 0.75983 0.0
O254 O 0.66637 0.70206 0.86872 0.0
C255 C 0.85158 0.65392 0.8503 0.0
O256 O 0.7488 0.78471 0.84847 0.0
H257 H 0.96043 0.80063 0.74971 0.0
H258 H 0.57249 0.64314 0.78865 0.0
H259 H 0.77953 0.90064 0.78767 0.0
O260 O 0.79332 0.62594 0.84213 0.0
O261 O 0.87159 0.71224 0.81909 0.0
H262 H 0.75362 0.54337 0.751 0.0
O263 O 0.8666 0.74178 0.67003 0.0
O264 O 0.78408 0.65923 0.69024 0.0
O265 O 0.73971 0.81795 0.69655 0.0
O266 O 0.66133 0.73174 0.71963 0.0
C267 C 0.83782 0.68978 0.6532 0.0
H268 H 0.50012 0.53641 0.80088 0.0
H269 H 0.68211 0.43626 0.76358 0.0
H270 H 0.03296 0.90726 0.7371 0.0
H271 H 0.85107 0.00768 0.77462 0.0
C272 C 0.87413 0.14592 0.61 0.0
C273 C 0.89301 0.11573 0.38798 0.0
C274 C 0.90268 0.86661 0.5024 0.0
Mg275 Mg 0.99447 0.14555 0.4953 0.0
O276 O 0.96901 0.05519 0.50829 0.0
Mg277 Mg 0.86982 0.02133 0.5383 0.0
Mg278 Mg 0.01675 -0.02775 0.51906 0.0
O279 O 0.06417 0.88931 0.52991 0.0
Mg280 Mg 0.0384 0.79898 0.54384 0.0
Mg281 Mg 0.1633 0.92282 0.50003 0.0
C282 C 0.12928 0.07694 0.53796 0.0
C283 C 0.08555 0.95831 0.37272 0.0
O284 O 0.83687 0.11777 0.57365 0.0
O285 O 0.93796 0.16448 0.58876 0.0
O286 O 0.8612 0.06372 0.4279 0.0
O287 O 0.94077 0.15448 0.40515 0.0
O288 O 0.09594 0.12804 0.52334 0.0
O289 O 0.11972 0.02366 0.5142 0.0
C290 C 0.94765 -0.0143 0.66552 0.0
O291 O 1.00132 -0.02503 0.62753 0.0
O292 O 0.89158 -0.00344 0.6427 0.0
O293 O 0.19562 0.82597 0.46531 0.0
O294 O 0.09434 0.77962 0.45025 0.0
O295 O 0.17207 0.88075 0.61054 0.0
C296 C 0.15823 0.79794 0.42899 0.0
O297 O 0.09245 0.79003 0.63371 0.0
O298 O 0.93589 0.81558 0.51778 0.0
C299 C 0.14037 0.82879 0.65063 0.0
O300 O 0.91404 0.92109 0.52358 0.0
O301 O 0.03202 0.96941 0.41068 0.0
O302 O 0.14158 0.94725 0.39555 0.0
C303 C 0.36852 0.15799 0.09717 0.0
C304 C 0.3884 0.10931 0.89123 0.0
C305 C 0.39236 0.86552 1.01041 0.0
Mg306 Mg 0.49245 0.13186 0.99337 0.0
O307 O 0.46217 0.04645 0.04486 0.0
Mg308 Mg 0.36392 0.01111 0.03709 0.0
Mg309 Mg 0.51652 -0.02814 0.01962 0.0
O310 O 0.57081 0.89724 0.99437 0.0
Mg311 Mg 0.54056 0.81174 0.0457 0.0
Mg312 Mg 0.66909 0.93257 1.00194 0.0
C313 C 0.64064 0.07826 0.02875 0.0
C314 C 0.64546 0.04122 0.88536 0.0
O315 O 0.33533 0.1035 0.0876 0.0
O316 O 0.43 0.17928 0.06666 0.0
O317 O 0.35705 0.06425 0.9367 0.0
O318 O 0.44487 0.142 0.89912 0.0
O319 O 0.60468 0.12478 1.00507 0.0
O320 O 0.61462 0.01732 0.04772 0.0
C321 C 0.38725 0.90253 0.15375 0.0
O322 O 0.45132 0.902 0.12486 0.0
O323 O 0.35114 0.94841 0.13477 0.0
O324 O 0.69759 0.84027 0.95125 0.0
O325 O 0.60297 0.76443 0.97223 0.0
O326 O 0.6762 0.87935 0.10225 0.0
C327 C 0.66441 0.78579 0.94166 0.0
O328 O 0.58843 0.80154 0.13985 0.0
O329 O 0.4282 0.81887 0.0341 0.0
C330 C 0.64493 0.83422 0.1477 0.0
O331 O 0.41863 0.92638 0.99151 0.0
O332 O 0.58144 0.04171 0.91437 0.0
O333 O 0.68166 -0.0046 0.90428 0.0
C334 C 0.89355 0.66485 0.11073 0.0
C335 C 0.88984 0.62501 0.9034 0.0
C336 C 0.90367 0.35856 0.9969 0.0
Mg337 Mg 0.99782 0.63394 1.00013 0.0
O338 O 0.96616 0.54546 0.05031 0.0
Mg339 Mg 0.87054 0.51106 0.04489 0.0
Mg340 Mg 0.01686 0.47214 0.0192 0.0
O341 O 0.06739 0.3988 0.98811 0.0
Mg342 Mg 0.03544 0.31042 0.03838 0.0
Mg343 Mg 0.16303 0.43293 0.99367 0.0
C344 C 0.12904 0.58565 0.04197 0.0
C345 C 0.12753 0.55286 0.88489 0.0
O346 O 0.85978 0.60816 0.10453 0.0
O347 O 0.9515 0.68774 0.07433 0.0
O348 O 0.85891 0.57699 0.947 0.0
O349 O 0.94802 0.65399 0.91057 0.0
O350 O 0.10734 0.61755 0.99228 0.0
O351 O 0.11694 0.52029 0.05634 0.0
C352 C 0.9062 0.39133 0.15358 0.0
O353 O 0.96886 0.39708 0.12178 0.0
O354 O 0.8659 0.43605 0.13986 0.0
O355 O 0.17369 0.33577 0.93416 0.0
O356 O 0.08182 0.25634 0.96441 0.0
O357 O 0.17437 0.36691 0.09159 0.0
C358 C 0.13985 0.27907 0.92805 0.0
O359 O 0.08502 0.2902 0.12806 0.0
O360 O 0.92573 0.32636 0.04625 0.0
C361 C 0.14327 0.31901 0.13523 0.0
O362 O 0.91701 0.4238 0.98216 0.0
O363 O 0.0648 0.54706 0.91656 0.0
O364 O 0.16784 0.50817 0.8987 0.0
C365 C 0.37413 0.64592 0.11 0.0
C366 C 0.39301 0.61573 0.88798 0.0
C367 C 0.40268 0.36661 1.0024 0.0
Mg368 Mg 0.49447 0.64555 0.9953 0.0
O369 O 0.46901 0.55519 1.00829 0.0
Mg370 Mg 0.36981 0.52133 0.0383 0.0
Mg371 Mg 0.51675 0.47225 1.01906 0.0
O372 O 0.56417 0.38931 0.02991 0.0
Mg373 Mg 0.5384 0.29898 0.04384 0.0
Mg374 Mg 0.6633 0.42282 1.00003 0.0
C375 C 0.62928 0.57694 0.03795 0.0
C376 C 0.58555 0.45831 0.87272 0.0
O377 O 0.33687 0.61777 0.07365 0.0
O378 O 0.43796 0.66448 0.08876 0.0
O379 O 0.36119 0.56372 0.9279 0.0
O380 O 0.44077 0.65448 0.90515 0.0
O381 O 0.59594 0.62804 0.02334 0.0
O382 O 0.61972 0.52365 1.0142 0.0
C383 C 0.44765 0.4857 0.16552 0.0
O384 O 0.50132 0.47497 0.12753 0.0
O385 O 0.39158 0.49656 0.1427 0.0
O386 O 0.69561 0.32597 0.96531 0.0
O387 O 0.59434 0.27962 0.95025 0.0
O388 O 0.67207 0.38075 0.11054 0.0
C389 C 0.65823 0.29794 0.92899 0.0
O390 O 0.59245 0.29003 0.13371 0.0
O391 O 0.43589 0.31558 1.01778 0.0
C392 C 0.64037 0.32879 0.15063 0.0
O393 O 0.41404 0.42109 0.02358 0.0
O394 O 0.53202 0.46941 0.91068 0.0
O395 O 0.64158 0.44725 0.89555 0.0
C396 C 0.86852 0.65799 0.59716 0.0
C397 C 0.8884 0.60931 0.39123 0.0
C398 C 0.89236 0.36552 0.51041 0.0
Mg399 Mg 0.99244 0.63186 0.49337 0.0
O400 O 0.96217 0.54645 0.54486 0.0
Mg401 Mg 0.86392 0.51111 0.53709 0.0
Mg402 Mg 0.01652 0.47186 0.51962 0.0
O403 O 0.07081 0.39724 0.49437 0.0
Mg404 Mg 0.04056 0.31174 0.5457 0.0
Mg405 Mg 0.16909 0.43257 0.50194 0.0
C406 C 0.14064 0.57826 0.52875 0.0
C407 C 0.14546 0.54122 0.38536 0.0
O408 O 0.83533 0.6035 0.5876 0.0
O409 O 0.93 0.67928 0.56666 0.0
O410 O 0.85705 0.56425 0.4367 0.0
O411 O 0.94486 0.642 0.39912 0.0
O412 O 0.10468 0.62478 0.50507 0.0
O413 O 0.11462 0.51732 0.54772 0.0
C414 C 0.88725 0.40253 0.65375 0.0
O415 O 0.95132 0.402 0.62486 0.0
O416 O 0.85114 0.44841 0.63477 0.0
O417 O 0.19759 0.34028 0.45125 0.0
O418 O 0.10297 0.26443 0.47223 0.0
O419 O 0.1762 0.37935 0.60225 0.0
C420 C 0.16441 0.28579 0.44166 0.0
O421 O 0.08843 0.30154 0.63985 0.0
O422 O 0.9282 0.31887 0.5341 0.0
C423 C 0.14493 0.33422 0.6477 0.0
O424 O 0.91863 0.42638 0.49151 0.0
O425 O 0.08144 0.54171 0.41437 0.0
O426 O 0.18166 0.4954 0.40428 0.0
C427 C 0.39355 0.16485 0.61073 0.0
C428 C 0.38984 0.12501 0.4034 0.0
C429 C 0.40367 0.85856 0.4969 0.0
Mg430 Mg 0.49782 0.13394 0.50013 0.0
O431 O 0.46616 0.04546 0.55031 0.0
Mg432 Mg 0.37054 0.01106 0.54489 0.0
Mg433 Mg 0.51686 -0.02786 0.5192 0.0
O434 O 0.56739 0.8988 0.48811 0.0
Mg435 Mg 0.53544 0.81042 0.53838 0.0
Mg436 Mg 0.66303 0.93293 0.49367 0.0
C437 C 0.62904 0.08565 0.54197 0.0
C438 C 0.62753 0.05286 0.38489 0.0
O439 O 0.35978 0.10816 0.60453 0.0
O440 O 0.45151 0.18774 0.57433 0.0
O441 O 0.35891 0.077 0.447 0.0
O442 O 0.44802 0.15399 0.41057 0.0
O443 O 0.60734 0.11755 0.49228 0.0
O444 O 0.61694 0.02029 0.55634 0.0
C445 C 0.4062 0.89133 0.65358 0.0
O446 O 0.46886 0.89708 0.62178 0.0
O447 O 0.3659 0.93605 0.63986 0.0
O448 O 0.67369 0.83576 0.43416 0.0
O449 O 0.58182 0.75634 0.46441 0.0
O450 O 0.67437 0.86691 0.59159 0.0
C451 C 0.63985 0.77907 0.42805 0.0
O452 O 0.58501 0.7902 0.62806 0.0
O453 O 0.42573 0.82636 0.54625 0.0
C454 C 0.64327 0.81901 0.63523 0.0
O455 O 0.41701 0.9238 0.48216 0.0
O456 O 0.56481 0.04706 0.41656 0.0
O457 O 0.66784 0.00817 0.3987 0.0
loop_
_geom_bond_atom_site_label_1
_geom_bond_atom_site_label_2
_geom_bond_distance
_geom_bond_site_symmetry_2
_ccdc_geom_bond_type
C0 O16 1.251 . S
C0 O18 1.254 . S
N1 C2 1.333 . S
N1 C6 1.307 . S
N1 Zn7 2.020 . S
C2 N1 1.333 . S
C2 C3 1.379 . S
C2 H20 0.952 . S
C3 C2 1.379 . S
C3 C4 1.390 . S
C3 H30 0.949 . S
C4 C3 1.390 . S
C4 C5 1.357 . S
C5 C4 1.357 . S
C5 C6 1.370 . S
C5 H31 0.950 1_545 S
C6 N1 1.307 . S
C6 C5 1.370 . S
C6 H24 0.948 . S
Zn7 N1 2.020 . S
Zn7 O16 2.039 . S
Zn7 O22 2.034 . S
Zn7 O26 2.025 . S
Zn7 O28 2.024 . S
C8 O27 1.246 . S
C8 O28 1.249 . S
N9 C10 1.307 . S
N9 C11 1.333 . S
N9 Zn15 2.020 . S
C10 N9 1.307 . S
C10 C14 1.370 . S
C10 H21 0.948 . S
C11 N9 1.333 . S
C11 C12 1.379 . S
C11 H19 0.952 . S
C12 C11 1.379 . S
C12 C13 1.390 . S
C12 H32 0.949 . S
C13 C12 1.390 . S
C13 C14 1.357 . S
C14 C10 1.370 . S
C14 C13 1.357 . S
C14 H33 0.950 . S
Zn15 N9 2.020 . S
Zn15 O18 2.025 . S
Zn15 O23 2.024 . S
Zn15 O25 2.039 . S
Zn15 O27 2.034 . S
O16 C0 1.251 . S
O16 Zn7 2.039 . S
C17 O22 1.246 . S
C17 O23 1.249 . S
O18 C0 1.254 . S
O18 Zn15 2.025 . S
H19 C11 0.952 . S
H20 C2 0.952 . S
H21 C10 0.948 . S
O22 Zn7 2.034 . S
O22 C17 1.246 . S
O23 Zn15 2.024 . S
O23 C17 1.249 . S
H24 C6 0.948 . S
O25 Zn15 2.039 . S
O25 C29 1.251 . S
O26 Zn7 2.025 . S
O26 C29 1.254 . S
O27 C8 1.246 . S
O27 Zn15 2.034 . S
O28 Zn7 2.024 . S
O28 C8 1.249 . S
C29 O25 1.251 . S
C29 O26 1.254 . S
H30 C3 0.949 . S
H31 C5 0.950 1_565 S
H32 C12 0.949 . S
H33 C14 0.950 . S
C34 O50 1.251 . S
C34 O52 1.254 . S
N35 C36 1.333 . S
N35 C40 1.307 . S
N35 Zn41 2.020 . S
C36 N35 1.333 . S
C36 C37 1.379 . S
C36 H54 0.952 . S
C37 C36 1.379 . S
C37 C38 1.390 . S
C37 H64 0.949 . S
C38 C37 1.390 . S
C38 C39 1.357 . S
C39 C38 1.357 . S
C39 C40 1.370 . S
C39 H65 0.950 . S
C40 N35 1.307 . S
C40 C39 1.370 . S
C40 H58 0.948 . S
Zn41 N35 2.020 . S
Zn41 O50 2.039 . S
Zn41 O56 2.034 . S
Zn41 O60 2.025 . S
Zn41 O62 2.024 . S
C42 O61 1.246 . S
C42 O62 1.249 . S
N43 C44 1.307 . S
N43 C45 1.333 . S
N43 Zn49 2.020 . S
C44 N43 1.307 . S
C44 C48 1.370 . S
C44 H55 0.948 . S
C45 N43 1.333 . S
C45 C46 1.379 . S
C45 H53 0.952 . S
C46 C45 1.379 . S
C46 C47 1.390 . S
C46 H66 0.949 . S
C47 C46 1.390 . S
C47 C48 1.357 . S
C48 C44 1.370 . S
C48 C47 1.357 . S
C48 H67 0.950 . S
Zn49 N43 2.020 . S
Zn49 O52 2.025 . S
Zn49 O57 2.024 . S
Zn49 O59 2.039 . S
Zn49 O61 2.034 . S
O50 C34 1.251 . S
O50 Zn41 2.039 . S
C51 O56 1.246 . S
C51 O57 1.249 . S
O52 C34 1.254 . S
O52 Zn49 2.025 . S
H53 C45 0.952 . S
H54 C36 0.952 . S
H55 C44 0.948 . S
O56 Zn41 2.034 . S
O56 C51 1.246 . S
O57 Zn49 2.024 . S
O57 C51 1.249 . S
H58 C40 0.948 . S
O59 Zn49 2.039 . S
O59 C63 1.251 . S
O60 Zn41 2.025 . S
O60 C63 1.254 . S
O61 C42 1.246 . S
O61 Zn49 2.034 . S
O62 Zn41 2.024 . S
O62 C42 1.249 . S
C63 O59 1.251 . S
C63 O60 1.254 . S
H64 C37 0.949 . S
H65 C39 0.950 . S
H66 C46 0.949 . S
H67 C48 0.950 . S
C68 O84 1.251 . S
C68 O86 1.254 . S
N69 C70 1.333 . S
N69 C74 1.307 . S
N69 Zn75 2.020 . S
C70 N69 1.333 . S
C70 C71 1.379 . S
C70 H88 0.952 . S
C71 C70 1.379 . S
C71 C72 1.390 . S
C71 H98 0.949 . S
C72 C71 1.390 . S
C72 C73 1.357 . S
C73 C72 1.357 . S
C73 C74 1.370 . S
C73 H99 0.950 1_565 S
C74 N69 1.307 . S
C74 C73 1.370 . S
C74 H92 0.948 . S
Zn75 N69 2.020 . S
Zn75 O84 2.039 . S
Zn75 O90 2.034 . S
Zn75 O94 2.025 . S
Zn75 O96 2.024 . S
C76 O95 1.246 . S
C76 O96 1.249 . S
N77 C78 1.307 . S
N77 C79 1.333 . S
N77 Zn83 2.020 . S
C78 N77 1.307 . S
C78 C82 1.370 . S
C78 H89 0.948 . S
C79 N77 1.333 . S
C79 C80 1.379 . S
C79 H87 0.952 . S
C80 C79 1.379 . S
C80 C81 1.390 . S
C80 H100 0.949 . S
C81 C80 1.390 . S
C81 C82 1.357 . S
C82 C78 1.370 . S
C82 C81 1.357 . S
C82 H101 0.950 . S
Zn83 N77 2.020 . S
Zn83 O86 2.025 . S
Zn83 O91 2.024 . S
Zn83 O93 2.039 . S
Zn83 O95 2.034 . S
O84 C68 1.251 . S
O84 Zn75 2.039 . S
C85 O90 1.246 . S
C85 O91 1.249 . S
O86 C68 1.254 . S
O86 Zn83 2.025 . S
H87 C79 0.952 . S
H88 C70 0.952 . S
H89 C78 0.948 . S
O90 Zn75 2.034 . S
O90 C85 1.246 . S
O91 Zn83 2.024 . S
O91 C85 1.249 . S
H92 C74 0.948 . S
O93 Zn83 2.039 . S
O93 C97 1.251 . S
O94 Zn75 2.025 . S
O94 C97 1.254 . S
O95 C76 1.246 . S
O95 Zn83 2.034 . S
O96 Zn75 2.024 . S
O96 C76 1.249 . S
C97 O93 1.251 . S
C97 O94 1.254 . S
H98 C71 0.949 . S
H99 C73 0.950 1_545 S
H100 C80 0.949 . S
H101 C82 0.950 . S
C102 O118 1.251 . S
C102 O120 1.254 . S
N103 C104 1.333 . S
N103 C108 1.307 . S
N103 Zn109 2.020 . S
C104 N103 1.333 . S
C104 C105 1.379 . S
C104 H122 0.952 . S
C105 C104 1.379 . S
C105 C106 1.390 . S
C105 H132 0.949 . S
C106 C105 1.390 . S
C106 C107 1.357 . S
C107 C106 1.357 . S
C107 C108 1.370 . S
C107 H133 0.950 . S
C108 N103 1.307 . S
C108 C107 1.370 . S
C108 H126 0.948 . S
Zn109 N103 2.020 . S
Zn109 O118 2.039 . S
Zn109 O124 2.034 . S
Zn109 O128 2.025 . S
Zn109 O130 2.024 . S
C110 O129 1.246 . S
C110 O130 1.249 . S
N111 C112 1.307 . S
N111 C113 1.333 . S
N111 Zn117 2.020 . S
C112 N111 1.307 . S
C112 C116 1.370 . S
C112 H123 0.948 . S
C113 N111 1.333 . S
C113 C114 1.379 . S
C113 H121 0.952 . S
C114 C113 1.379 . S
C114 C115 1.390 . S
C114 H134 0.949 . S
C115 C114 1.390 . S
C115 C116 1.357 . S
C116 C112 1.370 . S
C116 C115 1.357 . S
C116 H135 0.950 . S
Zn117 N111 2.020 . S
Zn117 O120 2.025 . S
Zn117 O125 2.024 . S
Zn117 O127 2.039 . S
Zn117 O129 2.034 . S
O118 C102 1.251 . S
O118 Zn109 2.039 . S
C119 O124 1.246 . S
C119 O125 1.249 . S
O120 C102 1.254 . S
O120 Zn117 2.025 . S
H121 C113 0.952 . S
H122 C104 0.952 . S
H123 C112 0.948 . S
O124 Zn109 2.034 . S
O124 C119 1.246 . S
O125 Zn117 2.024 . S
O125 C119 1.249 . S
H126 C108 0.948 . S
O127 Zn117 2.039 . S
O127 C131 1.251 . S
O128 Zn109 2.025 . S
O128 C131 1.254 . S
O129 C110 1.246 . S
O129 Zn117 2.034 . S
O130 Zn109 2.024 . S
O130 C110 1.249 . S
C131 O127 1.251 . S
C131 O128 1.254 . S
H132 C105 0.949 . S
H133 C107 0.950 . S
H134 C114 0.949 . S
H135 C116 0.950 . S
C136 O152 1.251 . S
C136 O154 1.254 . S
N137 C138 1.333 . S
N137 C142 1.307 . S
N137 Zn143 2.020 . S
C138 N137 1.333 . S
C138 C139 1.379 . S
C138 H156 0.952 . S
C139 C138 1.379 . S
C139 C140 1.390 . S
C139 H166 0.949 . S
C140 C139 1.390 . S
C140 C141 1.357 . S
C141 C140 1.357 . S
C141 C142 1.370 . S
C141 H167 0.950 . S
C142 N137 1.307 . S
C142 C141 1.370 . S
C142 H160 0.948 . S
Zn143 N137 2.020 . S
Zn143 O152 2.039 . S
Zn143 O158 2.034 . S
Zn143 O162 2.025 . S
Zn143 O164 2.024 . S
C144 O163 1.246 . S
C144 O164 1.249 . S
N145 C146 1.307 . S
N145 C147 1.333 . S
N145 Zn151 2.020 . S
C146 N145 1.307 . S
C146 C150 1.370 . S
C146 H157 0.948 . S
C147 N145 1.333 . S
C147 C148 1.379 . S
C147 H155 0.952 . S
C148 C147 1.379 . S
C148 C149 1.390 . S
C148 H168 0.949 . S
C149 C148 1.390 . S
C149 C150 1.357 . S
C150 C146 1.370 . S
C150 C149 1.357 . S
C150 H169 0.950 . S
Zn151 N145 2.020 . S
Zn151 O154 2.025 . S
Zn151 O159 2.024 . S
Zn151 O161 2.039 . S
Zn151 O163 2.034 . S
O152 C136 1.251 . S
O152 Zn143 2.039 . S
C153 O158 1.246 . S
C153 O159 1.249 . S
O154 C136 1.254 . S
O154 Zn151 2.025 . S
H155 C147 0.952 . S
H156 C138 0.952 . S
H157 C146 0.948 . S
O158 Zn143 2.034 . S
O158 C153 1.246 . S
O159 Zn151 2.024 . S
O159 C153 1.249 . S
H160 C142 0.948 . S
O161 Zn151 2.039 . S
O161 C165 1.251 . S
O162 Zn143 2.025 . S
O162 C165 1.254 . S
O163 C144 1.246 . S
O163 Zn151 2.034 . S
O164 Zn143 2.024 . S
O164 C144 1.249 . S
C165 O161 1.251 . S
C165 O162 1.254 . S
H166 C139 0.949 . S
H167 C141 0.950 . S
H168 C148 0.949 . S
H169 C150 0.950 . S
C170 O186 1.251 . S
C170 O188 1.254 . S
N171 C172 1.333 . S
N171 C176 1.307 . S
N171 Zn177 2.020 . S
C172 N171 1.333 . S
C172 C173 1.379 . S
C172 H190 0.952 . S
C173 C172 1.379 . S
C173 C174 1.390 . S
C173 H200 0.949 . S
C174 C173 1.390 . S
C174 C175 1.357 . S
C175 C174 1.357 . S
C175 C176 1.370 . S
C175 H201 0.950 . S
C176 N171 1.307 . S
C176 C175 1.370 . S
C176 H194 0.948 . S
Zn177 N171 2.020 . S
Zn177 O186 2.039 . S
Zn177 O192 2.034 . S
Zn177 O196 2.025 . S
Zn177 O198 2.024 . S
C178 O197 1.246 . S
C178 O198 1.249 . S
N179 C180 1.307 . S
N179 C181 1.333 . S
N179 Zn185 2.020 . S
C180 N179 1.307 . S
C180 C184 1.370 . S
C180 H191 0.948 . S
C181 N179 1.333 . S
C181 C182 1.379 . S
C181 H189 0.952 . S
C182 C181 1.379 . S
C182 C183 1.390 . S
C182 H202 0.949 . S
C183 C182 1.390 . S
C183 C184 1.357 . S
C184 C180 1.370 . S
C184 C183 1.357 . S
C184 H203 0.950 1_545 S
Zn185 N179 2.020 . S
Zn185 O188 2.025 . S
Zn185 O193 2.024 . S
Zn185 O195 2.039 . S
Zn185 O197 2.034 . S
O186 C170 1.251 . S
O186 Zn177 2.039 . S
C187 O192 1.246 . S
C187 O193 1.249 . S
O188 C170 1.254 . S
O188 Zn185 2.025 . S
H189 C181 0.952 . S
H190 C172 0.952 . S
H191 C180 0.948 . S
O192 Zn177 2.034 . S
O192 C187 1.246 . S
O193 Zn185 2.024 . S
O193 C187 1.249 . S
H194 C176 0.948 . S
O195 Zn185 2.039 . S
O195 C199 1.251 . S
O196 Zn177 2.025 . S
O196 C199 1.254 . S
O197 C178 1.246 . S
O197 Zn185 2.034 . S
O198 Zn177 2.024 . S
O198 C178 1.249 . S
C199 O195 1.251 . S
C199 O196 1.254 . S
H200 C173 0.949 . S
H201 C175 0.950 . S
H202 C182 0.949 . S
H203 C184 0.950 1_565 S
C204 O220 1.251 . S
C204 O222 1.254 . S
N205 C206 1.333 . S
N205 C210 1.307 . S
N205 Zn211 2.020 . S
C206 N205 1.333 . S
C206 C207 1.379 . S
C206 H224 0.952 . S
C207 C206 1.379 . S
C207 C208 1.390 . S
C207 H234 0.949 . S
C208 C207 1.390 . S
C208 C209 1.357 . S
C209 C208 1.357 . S
C209 C210 1.370 . S
C209 H235 0.950 . S
C210 N205 1.307 . S
C210 C209 1.370 . S
C210 H228 0.948 . S
Zn211 N205 2.020 . S
Zn211 O220 2.039 . S
Zn211 O226 2.034 . S
Zn211 O230 2.025 . S
Zn211 O232 2.024 . S
C212 O231 1.246 . S
C212 O232 1.249 . S
N213 C214 1.307 . S
N213 C215 1.333 . S
N213 Zn219 2.020 . S
C214 N213 1.307 . S
C214 C218 1.370 . S
C214 H225 0.948 . S
C215 N213 1.333 . S
C215 C216 1.379 . S
C215 H223 0.952 . S
C216 C215 1.379 . S
C216 C217 1.390 . S
C216 H236 0.949 . S
C217 C216 1.390 . S
C217 C218 1.357 . S
C218 C214 1.370 . S
C218 C217 1.357 . S
C218 H237 0.950 . S
Zn219 N213 2.020 . S
Zn219 O222 2.025 . S
Zn219 O227 2.024 . S
Zn219 O229 2.039 . S
Zn219 O231 2.034 . S
O220 C204 1.251 . S
O220 Zn211 2.039 . S
C221 O226 1.246 . S
C221 O227 1.249 . S
O222 C204 1.254 . S
O222 Zn219 2.025 . S
H223 C215 0.952 . S
H224 C206 0.952 . S
H225 C214 0.948 . S
O226 Zn211 2.034 . S
O226 C221 1.246 . S
O227 Zn219 2.024 . S
O227 C221 1.249 . S
H228 C210 0.948 . S
O229 Zn219 2.039 . S
O229 C233 1.251 . S
O230 Zn211 2.025 . S
O230 C233 1.254 . S
O231 C212 1.246 . S
O231 Zn219 2.034 . S
O232 Zn211 2.024 . S
O232 C212 1.249 . S
C233 O229 1.251 . S
C233 O230 1.254 . S
H234 C207 0.949 . S
H235 C209 0.950 . S
H236 C216 0.949 . S
H237 C218 0.950 . S
C238 O254 1.251 . S
C238 O256 1.254 . S
N239 C240 1.333 . S
N239 C244 1.307 . S
N239 Zn245 2.020 . S
C240 N239 1.333 . S
C240 C241 1.379 . S
C240 H258 0.952 . S
C241 C240 1.379 . S
C241 C242 1.390 . S
C241 H268 0.949 . S
C242 C241 1.390 . S
C242 C243 1.357 . S
C243 C242 1.357 . S
C243 C244 1.370 . S
C243 H269 0.950 . S
C244 N239 1.307 . S
C244 C243 1.370 . S
C244 H262 0.948 . S
Zn245 N239 2.020 . S
Zn245 O254 2.039 . S
Zn245 O260 2.034 . S
Zn245 O264 2.025 . S
Zn245 O266 2.024 . S
C246 O265 1.246 . S
C246 O266 1.249 . S
N247 C248 1.307 . S
N247 C249 1.333 . S
N247 Zn253 2.020 . S
C248 N247 1.307 . S
C248 C252 1.370 . S
C248 H259 0.948 . S
C249 N247 1.333 . S
C249 C250 1.379 . S
C249 H257 0.952 . S
C250 C249 1.379 . S
C250 C251 1.390 . S
C250 H270 0.949 . S
C251 C250 1.390 . S
C251 C252 1.357 . S
C252 C248 1.370 . S
C252 C251 1.357 . S
C252 H271 0.950 1_565 S
Zn253 N247 2.020 . S
Zn253 O256 2.025 . S
Zn253 O261 2.024 . S
Zn253 O263 2.039 . S
Zn253 O265 2.034 . S
O254 C238 1.251 . S
O254 Zn245 2.039 . S
C255 O260 1.246 . S
C255 O261 1.249 . S
O256 C238 1.254 . S
O256 Zn253 2.025 . S
H257 C249 0.952 . S
H258 C240 0.952 . S
H259 C248 0.948 . S
O260 Zn245 2.034 . S
O260 C255 1.246 . S
O261 Zn253 2.024 . S
O261 C255 1.249 . S
H262 C244 0.948 . S
O263 Zn253 2.039 . S
O263 C267 1.251 . S
O264 Zn245 2.025 . S
O264 C267 1.254 . S
O265 C246 1.246 . S
O265 Zn253 2.034 . S
O266 Zn245 2.024 . S
O266 C246 1.249 . S
C267 O263 1.251 . S
C267 O264 1.254 . S
H268 C241 0.949 . S
H269 C243 0.950 . S
H270 C250 0.949 . S
H271 C252 0.950 1_545 S
C272 O284 1.241 . S
C272 O285 1.280 . S
C273 O286 1.277 . S
C273 O287 1.245 . S
C274 O298 1.247 . S
C274 O300 1.289 . S
Mg275 O276 1.926 . S
Mg275 O285 1.984 . S
Mg275 O287 1.988 . S
Mg275 O288 2.061 1_655 S
O276 Mg275 1.926 . S
O276 Mg277 1.986 . S
O276 Mg278 1.916 1_655 S
Mg277 O276 1.986 . S
Mg277 O284 2.042 . S
Mg277 O286 2.041 . S
Mg277 O292 2.038 1_545 S
Mg277 O300 2.238 1_545 S
Mg278 O276 1.916 1_455 S
Mg278 O279 1.918 1_545 S
Mg278 O289 2.109 . S
Mg278 O291 2.077 1_445 S
Mg278 O300 2.104 1_445 S
Mg278 O301 2.080 . S
O279 Mg278 1.918 1_565 S
O279 Mg280 1.926 . S
O279 Mg281 1.986 . S
Mg280 O279 1.926 . S
Mg280 O294 1.984 . S
Mg280 O297 1.988 . S
Mg280 O298 2.061 1_455 S
Mg281 O279 1.986 . S
Mg281 O289 2.238 1_565 S
Mg281 O293 2.042 . S
Mg281 O295 2.041 . S
Mg281 O302 2.038 1_565 S
C282 O288 1.247 . S
C282 O289 1.289 . S
C283 O301 1.245 . S
C283 O302 1.274 . S
O284 C272 1.241 . S
O284 Mg277 2.042 . S
O285 C272 1.280 . S
O285 Mg275 1.984 . S
O286 C273 1.277 . S
O286 Mg277 2.041 . S
O287 C273 1.245 . S
O287 Mg275 1.988 . S
O288 Mg275 2.061 1_455 S
O288 C282 1.247 . S
O289 Mg278 2.109 . S
O289 Mg281 2.238 1_545 S
O289 C282 1.289 . S
C290 O291 1.245 . S
C290 O292 1.274 . S
O291 Mg278 2.077 1_665 S
O291 C290 1.245 . S
O292 Mg277 2.038 1_565 S
O292 C290 1.274 . S
O293 Mg281 2.042 . S
O293 C296 1.241 . S
O294 Mg280 1.984 . S
O294 C296 1.280 . S
O295 Mg281 2.041 . S
O295 C299 1.277 . S
C296 O293 1.241 . S
C296 O294 1.280 . S
O297 Mg280 1.988 . S
O297 C299 1.245 . S
O298 C274 1.247 . S
O298 Mg280 2.061 1_655 S
C299 O295 1.277 . S
C299 O297 1.245 . S
O300 C274 1.289 . S
O300 Mg277 2.238 1_565 S
O300 Mg278 2.104 1_665 S
O301 Mg278 2.080 . S
O301 C283 1.245 . S
O302 Mg281 2.038 1_545 S
O302 C283 1.274 . S
C303 O315 1.241 . S
C303 O316 1.280 . S
C304 O317 1.277 . S
C304 O318 1.245 . S
C305 O329 1.247 . S
C305 O331 1.289 . S
Mg306 O307 1.926 . S
Mg306 O316 1.984 . S
Mg306 O318 1.988 1_554 S
Mg306 O319 2.061 . S
O307 Mg306 1.926 . S
O307 Mg308 1.986 . S
O307 Mg309 1.919 . S
Mg308 O307 1.986 . S
Mg308 O315 2.042 . S
Mg308 O317 2.041 1_554 S
Mg308 O323 2.038 1_545 S
Mg308 O331 2.238 1_544 S
Mg309 O307 1.919 . S
Mg309 O310 1.915 1_544 S
Mg309 O320 2.109 . S
Mg309 O322 2.081 1_545 S
Mg309 O331 2.104 1_544 S
Mg309 O332 2.076 1_554 S
O310 Mg309 1.915 1_566 S
O310 Mg311 1.926 . S
O310 Mg312 1.986 . S
Mg311 O310 1.926 . S
Mg311 O325 1.984 . S
Mg311 O328 1.988 1_556 S
Mg311 O329 2.061 . S
Mg312 O310 1.986 . S
Mg312 O320 2.238 1_566 S
Mg312 O324 2.042 . S
Mg312 O326 2.041 1_556 S
Mg312 O333 2.038 1_565 S
C313 O319 1.247 . S
C313 O320 1.289 . S
C314 O332 1.245 . S
C314 O333 1.274 . S
O315 C303 1.241 . S
O315 Mg308 2.042 . S
O316 C303 1.280 . S
O316 Mg306 1.984 . S
O317 C304 1.277 . S
O317 Mg308 2.041 1_556 S
O318 C304 1.245 . S
O318 Mg306 1.988 1_556 S
O319 Mg306 2.061 . S
O319 C313 1.247 . S
O320 Mg309 2.109 . S
O320 Mg312 2.238 1_544 S
O320 C313 1.289 . S
C321 O322 1.245 . S
C321 O323 1.274 . S
O322 Mg309 2.081 1_565 S
O322 C321 1.245 . S
O323 Mg308 2.038 1_565 S
O323 C321 1.274 . S
O324 Mg312 2.042 . S
O324 C327 1.241 . S
O325 Mg311 1.984 . S
O325 C327 1.280 . S
O326 Mg312 2.041 1_554 S
O326 C330 1.277 . S
C327 O324 1.241 . S
C327 O325 1.280 . S
O328 Mg311 1.988 1_554 S
O328 C330 1.245 . S
O329 C305 1.247 . S
O329 Mg311 2.061 . S
C330 O326 1.277 . S
C330 O328 1.245 . S
O331 C305 1.289 . S
O331 Mg308 2.238 1_566 S
O331 Mg309 2.104 1_566 S
O332 Mg309 2.076 1_556 S
O332 C314 1.245 . S
O333 Mg312 2.038 1_545 S
O333 C314 1.274 . S
C334 O346 1.241 . S
C334 O347 1.280 . S
C335 O348 1.277 . S
C335 O349 1.245 . S
C336 O360 1.247 . S
C336 O362 1.289 . S
Mg337 O338 1.926 . S
Mg337 O347 1.984 . S
Mg337 O349 1.988 1_554 S
Mg337 O350 2.061 1_655 S
O338 Mg337 1.926 . S
O338 Mg339 1.986 . S
O338 Mg340 1.916 1_655 S
Mg339 O338 1.986 . S
Mg339 O346 2.042 . S
Mg339 O348 2.041 1_554 S
Mg339 O354 2.038 . S
Mg339 O362 2.238 1_554 S
Mg340 O338 1.916 1_455 S
Mg340 O341 1.918 1_554 S
Mg340 O351 2.111 . S
Mg340 O353 2.081 1_455 S
Mg340 O362 2.102 1_454 S
Mg340 O363 2.076 1_554 S
O341 Mg340 1.918 1_556 S
O341 Mg342 1.926 . S
O341 Mg343 1.986 . S
Mg342 O341 1.926 . S
Mg342 O356 1.984 . S
Mg342 O359 1.988 1_556 S
Mg342 O360 2.061 1_455 S
Mg343 O341 1.986 . S
Mg343 O351 2.238 1_556 S
Mg343 O355 2.042 . S
Mg343 O357 2.041 1_556 S
Mg343 O364 2.038 . S
C344 O350 1.247 . S
C344 O351 1.289 . S
C345 O363 1.245 . S
C345 O364 1.274 . S
O346 C334 1.241 . S
O346 Mg339 2.042 . S
O347 C334 1.280 . S
O347 Mg337 1.984 . S
O348 C335 1.277 . S
O348 Mg339 2.041 1_556 S
O349 C335 1.245 . S
O349 Mg337 1.988 1_556 S
O350 Mg337 2.061 1_455 S
O350 C344 1.247 . S
O351 Mg340 2.111 . S
O351 Mg343 2.238 1_554 S
O351 C344 1.289 . S
C352 O353 1.245 . S
C352 O354 1.274 . S
O353 Mg340 2.081 1_655 S
O353 C352 1.245 . S
O354 Mg339 2.038 . S
O354 C352 1.274 . S
O355 Mg343 2.042 . S
O355 C358 1.241 . S
O356 Mg342 1.984 . S
O356 C358 1.280 . S
O357 Mg343 2.041 1_554 S
O357 C361 1.277 . S
C358 O355 1.241 . S
C358 O356 1.280 . S
O359 Mg342 1.988 1_554 S
O359 C361 1.245 . S
O360 C336 1.247 . S
O360 Mg342 2.061 1_655 S
C361 O357 1.277 . S
C361 O359 1.245 . S
O362 C336 1.289 . S
O362 Mg339 2.238 1_556 S
O362 Mg340 2.102 1_656 S
O363 Mg340 2.076 1_556 S
O363 C345 1.245 . S
O364 Mg343 2.038 . S
O364 C345 1.274 . S
C365 O377 1.241 . S
C365 O378 1.280 . S
C366 O379 1.277 . S
C366 O380 1.245 . S
C367 O391 1.247 . S
C367 O393 1.289 . S
Mg368 O369 1.926 . S
Mg368 O378 1.984 . S
Mg368 O380 1.988 1_554 S
Mg368 O381 2.061 . S
O369 Mg368 1.926 . S
O369 Mg370 1.986 . S
O369 Mg371 1.918 . S
Mg370 O369 1.986 . S
Mg370 O377 2.042 . S
Mg370 O379 2.041 1_554 S
Mg370 O385 2.038 . S
Mg370 O393 2.238 1_554 S
Mg371 O369 1.918 . S
Mg371 O372 1.916 1_554 S
Mg371 O382 2.109 . S
Mg371 O384 2.082 . S
Mg371 O393 2.104 1_554 S
Mg371 O394 2.076 1_554 S
O372 Mg371 1.916 1_556 S
O372 Mg373 1.926 . S
O372 Mg374 1.986 . S
Mg373 O372 1.926 . S
Mg373 O387 1.984 . S
Mg373 O390 1.988 1_556 S
Mg373 O391 2.061 . S
Mg374 O372 1.986 . S
Mg374 O382 2.238 1_556 S
Mg374 O386 2.042 . S
Mg374 O388 2.041 1_556 S
Mg374 O395 2.038 . S
C375 O381 1.247 . S
C375 O382 1.289 . S
C376 O394 1.245 . S
C376 O395 1.274 . S
O377 C365 1.241 . S
O377 Mg370 2.042 . S
O378 C365 1.280 . S
O378 Mg368 1.984 . S
O379 C366 1.277 . S
O379 Mg370 2.041 1_556 S
O380 C366 1.245 . S
O380 Mg368 1.988 1_556 S
O381 Mg368 2.061 . S
O381 C375 1.247 . S
O382 Mg371 2.109 . S
O382 Mg374 2.238 1_554 S
O382 C375 1.289 . S
C383 O384 1.245 . S
C383 O385 1.274 . S
O384 Mg371 2.082 . S
O384 C383 1.245 . S
O385 Mg370 2.038 . S
O385 C383 1.274 . S
O386 Mg374 2.042 . S
O386 C389 1.241 . S
O387 Mg373 1.984 . S
O387 C389 1.280 . S
O388 Mg374 2.041 1_554 S
O388 C392 1.277 . S
C389 O386 1.241 . S
C389 O387 1.280 . S
O390 Mg373 1.988 1_554 S
O390 C392 1.245 . S
O391 C367 1.247 . S
O391 Mg373 2.061 . S
C392 O388 1.277 . S
C392 O390 1.245 . S
O393 C367 1.289 . S
O393 Mg370 2.238 1_556 S
O393 Mg371 2.104 1_556 S
O394 Mg371 2.076 1_556 S
O394 C376 1.245 . S
O395 Mg374 2.038 . S
O395 C376 1.274 . S
C396 O408 1.241 . S
C396 O409 1.280 . S
C397 O410 1.277 . S
C397 O411 1.245 . S
C398 O422 1.247 . S
C398 O424 1.289 . S
Mg399 O400 1.926 . S
Mg399 O409 1.984 . S
Mg399 O411 1.988 . S
Mg399 O412 2.061 1_655 S
O400 Mg399 1.926 . S
O400 Mg401 1.986 . S
O400 Mg402 1.915 1_655 S
Mg401 O400 1.986 . S
Mg401 O408 2.042 . S
Mg401 O410 2.041 . S
Mg401 O416 2.038 . S
Mg401 O424 2.238 . S
Mg402 O400 1.915 1_455 S
Mg402 O403 1.919 . S
Mg402 O413 2.109 . S
Mg402 O415 2.078 1_455 S
Mg402 O424 2.104 1_455 S
Mg402 O425 2.079 . S
O403 Mg402 1.919 . S
O403 Mg404 1.926 . S
O403 Mg405 1.986 . S
Mg404 O403 1.926 . S
Mg404 O418 1.984 . S
Mg404 O421 1.988 . S
Mg404 O422 2.061 1_455 S
Mg405 O403 1.986 . S
Mg405 O413 2.238 . S
Mg405 O417 2.042 . S
Mg405 O419 2.041 . S
Mg405 O426 2.038 . S
C406 O412 1.247 . S
C406 O413 1.289 . S
C407 O425 1.245 . S
C407 O426 1.274 . S
O408 C396 1.241 . S
O408 Mg401 2.042 . S
O409 C396 1.280 . S
O409 Mg399 1.984 . S
O410 C397 1.277 . S
O410 Mg401 2.041 . S
O411 C397 1.245 . S
O411 Mg399 1.988 . S
O412 Mg399 2.061 1_455 S
O412 C406 1.247 . S
O413 Mg402 2.109 . S
O413 Mg405 2.238 . S
O413 C406 1.289 . S
C414 O415 1.245 . S
C414 O416 1.274 . S
O415 Mg402 2.078 1_655 S
O415 C414 1.245 . S
O416 Mg401 2.038 . S
O416 C414 1.274 . S
O417 Mg405 2.042 . S
O417 C420 1.241 . S
O418 Mg404 1.984 . S
O418 C420 1.280 . S
O419 Mg405 2.041 . S
O419 C423 1.277 . S
C420 O417 1.241 . S
C420 O418 1.280 . S
O421 Mg404 1.988 . S
O421 C423 1.245 . S
O422 C398 1.247 . S
O422 Mg404 2.061 1_655 S
C423 O419 1.277 . S
C423 O421 1.245 . S
O424 C398 1.289 . S
O424 Mg401 2.238 . S
O424 Mg402 2.104 1_655 S
O425 Mg402 2.079 . S
O425 C407 1.245 . S
O426 Mg405 2.038 . S
O426 C407 1.274 . S
C427 O439 1.241 . S
C427 O440 1.280 . S
C428 O441 1.277 . S
C428 O442 1.245 . S
C429 O453 1.247 . S
C429 O455 1.289 . S
Mg430 O431 1.926 . S
Mg430 O440 1.984 . S
Mg430 O442 1.988 . S
Mg430 O443 2.061 . S
O431 Mg430 1.926 . S
O431 Mg432 1.986 . S
O431 Mg433 1.918 . S
Mg432 O431 1.986 . S
Mg432 O439 2.042 . S
Mg432 O441 2.041 . S
Mg432 O447 2.038 1_545 S
Mg432 O455 2.238 1_545 S
Mg433 O431 1.918 . S
Mg433 O434 1.916 1_545 S
Mg433 O444 2.107 . S
Mg433 O446 2.078 1_545 S
Mg433 O455 2.106 1_545 S
Mg433 O456 2.079 . S
O434 Mg433 1.916 1_565 S
O434 Mg435 1.926 . S
O434 Mg436 1.986 . S
Mg435 O434 1.926 . S
Mg435 O449 1.984 . S
Mg435 O452 1.988 . S
Mg435 O453 2.061 . S
Mg436 O434 1.986 . S
Mg436 O444 2.238 1_565 S
Mg436 O448 2.042 . S
Mg436 O450 2.041 . S
Mg436 O457 2.038 1_565 S
C437 O443 1.247 . S
C437 O444 1.289 . S
C438 O456 1.245 . S
C438 O457 1.274 . S
O439 C427 1.241 . S
O439 Mg432 2.042 . S
O440 C427 1.280 . S
O440 Mg430 1.984 . S
O441 C428 1.277 . S
O441 Mg432 2.041 . S
O442 C428 1.245 . S
O442 Mg430 1.988 . S
O443 Mg430 2.061 . S
O443 C437 1.247 . S
O444 Mg433 2.107 . S
O444 Mg436 2.238 1_545 S
O444 C437 1.289 . S
C445 O446 1.245 . S
C445 O447 1.274 . S
O446 Mg433 2.078 1_565 S
O446 C445 1.245 . S
O447 Mg432 2.038 1_565 S
O447 C445 1.274 . S
O448 Mg436 2.042 . S
O448 C451 1.241 . S
O449 Mg435 1.984 . S
O449 C451 1.280 . S
O450 Mg436 2.041 . S
O450 C454 1.277 . S
C451 O448 1.241 . S
C451 O449 1.280 . S
O452 Mg435 1.988 . S
O452 C454 1.245 . S
O453 C429 1.247 . S
O453 Mg435 2.061 . S
C454 O450 1.277 . S
C454 O452 1.245 . S
O455 C429 1.289 . S
O455 Mg432 2.238 1_565 S
O455 Mg433 2.106 1_565 S
O456 Mg433 2.079 . S
O456 C438 1.245 . S
O457 Mg436 2.038 1_545 S
O457 C438 1.274 . S
C283 C4 1.237 . S
C273 C63 2.446 . S
C274 C72 2.058 . S
C102 C296 2.488 . S
C136 C299 2.446 . S
C282 C183 2.058 . S
C233 C272 2.488 . S
C251 C290 1.237 . S
C303 C29 1.859 . S
C42 C352 2.903 . S
C330 C97 2.292 . S
C344 C115 1.510 . S
C149 C305 1.940 . S
C358 C187 2.293 . S
C212 C314 2.868 . S
C255 C335 1.909 . S
C8 C361 1.909 . S
C153 C345 2.903 . S
C304 C170 2.292 . S
C336 C208 1.509 . S
C238 C327 1.859 . S
C76 C334 2.293 . S
C321 C119 2.868 . S
C38 C313 1.940 . S
C242 C376 1.237 . S
C165 C366 2.446 . S
C367 C174 2.058 . S
C389 C204 2.488 . S
C34 C392 2.446 . S
C375 C81 2.058 . S
C131 C365 2.488 . S
C13 C383 1.237 . S
C267 C396 1.859 . S
C445 C144 2.903 . S
C199 C423 2.292 . S
C217 C437 1.510 . S
C398 C47 1.940 . S
C85 C451 2.292 . S
C407 C110 2.868 . S
C428 C17 1.909 . S
C454 C246 1.909 . S
C51 C438 2.903 . S
C68 C397 2.291 . S
C429 C106 1.509 . S
C0 C420 1.858 . S
C178 C427 2.293 . S
C414 C221 2.868 . S
C406 C140 1.940 . S
