# Generated by pormake.
# Topology ocu, (6,8)-cn, num edge types: 1
# Building blocks:
#     Node 0, Type 0, BuildingBlock: MIFKUJ_clean_sbu_0, # of connection points: 6
#     Node 1, Type 0, BuildingBlock: MIFKUJ_clean_sbu_0, # of connection points: 6
#     Node 2, Type 0, BuildingBlock: MIFKUJ_clean_sbu_0, # of connection points: 6
#     Node 3, Type 0, BuildingBlock: MIFKUJ_clean_sbu_0, # of connection points: 6
#     Node 4, Type 0, BuildingBlock: MIFKUJ_clean_sbu_0, # of connection points: 6
#     Node 5, Type 0, BuildingBlock: MIFKUJ_clean_sbu_0, # of connection points: 6
#     Node 6, Type 0, BuildingBlock: MIFKUJ_clean_sbu_0, # of connection points: 6
#     Node 7, Type 0, BuildingBlock: MIFKUJ_clean_sbu_0, # of connection points: 6
#     Node 8, Type 1, BuildingBlock: TAGTUT_clean_sbu_1, # of connection points: 8
#     Node 9, Type 1, BuildingBlock: TAGTUT_clean_sbu_1, # of connection points: 8
#     Node 10, Type 1, BuildingBlock: TAGTUT_clean_sbu_1, # of connection points: 8
#     Node 11, Type 1, BuildingBlock: TAGTUT_clean_sbu_1, # of connection points: 8
#     Node 12, Type 1, BuildingBlock: TAGTUT_clean_sbu_1, # of connection points: 8
#     Node 13, Type 1, BuildingBlock: TAGTUT_clean_sbu_1, # of connection points: 8
#     Edge 14, Type (0, 1), None
#     Edge 15, Type (0, 1), None
#     Edge 16, Type (0, 1), None
#     Edge 17, Type (0, 1), None
#     Edge 18, Type (0, 1), None
#     Edge 19, Type (0, 1), None
#     Edge 20, Type (0, 1), None
#     Edge 21, Type (0, 1), None
#     Edge 22, Type (0, 1), None
#     Edge 23, Type (0, 1), None
#     Edge 24, Type (0, 1), None
#     Edge 25, Type (0, 1), None
#     Edge 26, Type (0, 1), None
#     Edge 27, Type (0, 1), None
#     Edge 28, Type (0, 1), None
#     Edge 29, Type (0, 1), None
#     Edge 30, Type (0, 1), None
#     Edge 31, Type (0, 1), None
#     Edge 32, Type (0, 1), None
#     Edge 33, Type (0, 1), None
#     Edge 34, Type (0, 1), None
#     Edge 35, Type (0, 1), None
#     Edge 36, Type (0, 1), None
#     Edge 37, Type (0, 1), None
#     Edge 38, Type (0, 1), None
#     Edge 39, Type (0, 1), None
#     Edge 40, Type (0, 1), None
#     Edge 41, Type (0, 1), None
#     Edge 42, Type (0, 1), None
#     Edge 43, Type (0, 1), None
#     Edge 44, Type (0, 1), None
#     Edge 45, Type (0, 1), None
#     Edge 46, Type (0, 1), None
#     Edge 47, Type (0, 1), None
#     Edge 48, Type (0, 1), None
#     Edge 49, Type (0, 1), None
#     Edge 50, Type (0, 1), None
#     Edge 51, Type (0, 1), None
#     Edge 52, Type (0, 1), None
#     Edge 53, Type (0, 1), None
#     Edge 54, Type (0, 1), None
#     Edge 55, Type (0, 1), None
#     Edge 56, Type (0, 1), None
#     Edge 57, Type (0, 1), None
#     Edge 58, Type (0, 1), None
#     Edge 59, Type (0, 1), None
#     Edge 60, Type (0, 1), None
#     Edge 61, Type (0, 1), None
# Relax obj value: 0.070
# Max RMSD: 0.256
# Mean RMSD: 0.112
data_MOF--net-ocu--node1-MIFKUJ_clean_sbu_0--node2-TAGTUT_clean_sbu_1--edge1-none
_symmetry_space_group_name_H-M    P1
_symmetry_Int_Tables_number       1
_symmetry_cell_setting            triclinic
loop_
_symmetry_equiv_pos_as_xyz
'x, y, z'
_cell_length_a     21.758971
_cell_length_b     20.612841
_cell_length_c     18.531871
_cell_angle_alpha  90.023235
_cell_angle_beta   96.153727
_cell_angle_gamma 115.4833
loop_
_atom_site_label
_atom_site_type_symbol
_atom_site_fract_x
_atom_site_fract_y
_atom_site_fract_z
_atom_type_partial_charge
Zn0 Zn 0.16758 0.28848 0.28269 0.0
Zn1 Zn 0.25002 0.16171 0.24815 0.0
C2 C 0.19406 0.36714 0.42051 0.0
O3 O 0.20593 0.31372 0.44613 0.0
C4 C 0.22355 0.08338 0.11015 0.0
O5 O 0.21187 0.13695 0.08467 0.0
O6 O 0.08559 0.28679 0.2218 0.0
O7 O 0.24547 0.32251 0.20792 0.0
O8 O 0.29671 0.25398 0.18667 0.0
C9 C 0.03945 0.30252 0.24258 0.0
O10 O 0.04017 0.31701 0.31148 0.0
O11 O 0.19045 0.37372 0.35229 0.0
C12 C 0.378 0.14723 0.28809 0.0
O13 O 0.37717 0.13267 0.21919 0.0
O14 O 0.33197 0.16313 0.30893 0.0
O15 O 0.17214 0.12773 0.32296 0.0
O16 O 0.12097 0.19632 0.34429 0.0
O17 O 0.22698 0.07657 0.17834 0.0
C18 C 0.29061 0.31211 0.17598 0.0
C19 C 0.12703 0.13816 0.35494 0.0
Zn20 Zn 0.72157 0.25023 0.21016 0.0
Zn21 Zn 0.69607 0.20006 0.32065 0.0
C22 C 0.61937 0.29484 0.14593 0.0
O23 O 0.63043 0.25974 0.0935 0.0
C24 C 0.79836 0.15534 0.38452 0.0
O25 O 0.78745 0.19043 0.43707 0.0
O26 O 0.7697 0.29229 0.13371 0.0
O27 O 0.80554 0.28076 0.28661 0.0
O28 O 0.74538 0.30367 0.35889 0.0
C29 C 0.79827 0.35872 0.15003 0.0
O30 O 0.78853 0.38605 0.20929 0.0
O31 O 0.65421 0.30251 0.20827 0.0
C32 C 0.61958 0.09144 0.38083 0.0
O33 O 0.62915 0.06418 0.32142 0.0
O34 O 0.64806 0.15786 0.39715 0.0
O35 O 0.61207 0.16966 0.24422 0.0
O36 O 0.67226 0.14662 0.17206 0.0
O37 O 0.76344 0.14778 0.32225 0.0
C38 C 0.80343 0.31338 0.34319 0.0
C39 C 0.6142 0.13706 0.18763 0.0
Zn40 Zn 0.76572 0.6697 0.23238 0.0
Zn41 Zn 0.65206 0.78083 0.2982 0.0
C42 C 0.85574 0.63133 0.32279 0.0
O43 O 0.89986 0.69579 0.30773 0.0
C44 C 0.56188 0.81898 0.2079 0.0
O45 O 0.51789 0.75441 0.22283 0.0
O46 O 0.8168 0.68667 0.14307 0.0
O47 O 0.66769 0.61363 0.19408 0.0
O48 O 0.63423 0.69308 0.23156 0.0
C49 C 0.78554 0.64865 0.08452 0.0
O50 O 0.7194 0.60933 0.07942 0.0
O51 O 0.79411 0.60652 0.29348 0.0
C52 C 0.6322 0.80128 0.44619 0.0
O53 O 0.69839 0.8404 0.45149 0.0
O54 O 0.60097 0.76355 0.38748 0.0
O55 O 0.75012 0.83706 0.33647 0.0
O56 O 0.78332 0.75751 0.29877 0.0
O57 O 0.6235 0.84397 0.23731 0.0
C58 C 0.62388 0.63863 0.19057 0.0
C59 C 0.79389 0.81201 0.3398 0.0
Zn60 Zn 0.17855 0.76492 0.28853 0.0
Zn61 Zn 0.23912 0.68539 0.24218 0.0
C62 C 0.08981 0.65422 0.37439 0.0
O63 O 0.04306 0.6716 0.34103 0.0
C64 C 0.32777 0.79622 0.15654 0.0
O65 O 0.37451 0.77884 0.18991 0.0
O66 O 0.1371 0.8255 0.32068 0.0
O67 O 0.27851 0.82886 0.3077 0.0
O68 O 0.28069 0.72838 0.34231 0.0
C69 C 0.16445 0.86 0.38131 0.0
O70 O 0.21945 0.85756 0.4146 0.0
O71 O 0.15125 0.68567 0.35992 0.0
C72 C 0.25334 0.59053 0.14922 0.0
O73 O 0.19822 0.59278 0.11607 0.0
O74 O 0.28072 0.62502 0.20985 0.0
O75 O 0.13921 0.62141 0.22313 0.0
O76 O 0.1369 0.72179 0.1884 0.0
O77 O 0.26631 0.76471 0.17093 0.0
C78 C 0.3007 0.79577 0.35271 0.0
C79 C 0.11696 0.6544 0.17807 0.0
Zn80 Zn 0.22157 0.75024 0.71016 0.0
Zn81 Zn 0.19607 0.70006 0.82065 0.0
C82 C 0.11938 0.79484 0.64594 0.0
O83 O 0.13043 0.75975 0.59351 0.0
C84 C 0.29835 0.65533 0.88451 0.0
O85 O 0.28745 0.69042 0.93707 0.0
O86 O 0.2697 0.7923 0.63372 0.0
O87 O 0.30554 0.78075 0.78661 0.0
O88 O 0.24538 0.80367 0.85889 0.0
C89 C 0.29827 0.85872 0.65003 0.0
O90 O 0.28853 0.88605 0.70929 0.0
O91 O 0.15421 0.80251 0.70828 0.0
C92 C 0.11958 0.59144 0.88083 0.0
O93 O 0.12914 0.56418 0.82142 0.0
O94 O 0.14806 0.65786 0.89714 0.0
O95 O 0.11207 0.66966 0.74422 0.0
O96 O 0.17225 0.64662 0.67205 0.0
O97 O 0.26344 0.64778 0.82224 0.0
C98 C 0.30343 0.81337 0.84319 0.0
C99 C 0.1142 0.63706 0.68763 0.0
Zn100 Zn 0.26572 0.16969 0.73239 0.0
Zn101 Zn 0.15206 0.28083 0.79819 0.0
C102 C 0.35575 0.13133 0.8228 0.0
O103 O 0.39987 0.19579 0.80774 0.0
C104 C 0.06187 0.31897 0.70789 0.0
O105 O 0.01788 0.25441 0.72283 0.0
O106 O 0.3168 0.18667 0.64308 0.0
O107 O 0.16769 0.11361 0.69409 0.0
O108 O 0.13425 0.19308 0.73157 0.0
C109 C 0.28554 0.14866 0.58452 0.0
O110 O 0.21939 0.10935 0.57942 0.0
O111 O 0.29411 0.10652 0.7935 0.0
C112 C 0.1322 0.30127 0.94619 0.0
O113 O 0.19839 0.34038 0.95149 0.0
O114 O 0.10097 0.26356 0.88747 0.0
O115 O 0.25012 0.33707 0.83647 0.0
O116 O 0.2833 0.25751 0.79876 0.0
O117 O 0.12349 0.34396 0.73729 0.0
C118 C 0.12389 0.13863 0.69057 0.0
C119 C 0.29389 0.31201 0.8398 0.0
Zn120 Zn 0.67855 0.26492 0.78853 0.0
Zn121 Zn 0.73912 0.18539 0.74218 0.0
C122 C 0.58981 0.15421 0.87439 0.0
O123 O 0.54306 0.1716 0.84103 0.0
C124 C 0.82777 0.29623 0.65653 0.0
O125 O 0.87451 0.27885 0.6899 0.0
O126 O 0.6371 0.32549 0.82068 0.0
O127 O 0.77851 0.32885 0.8077 0.0
O128 O 0.78069 0.22838 0.84231 0.0
C129 C 0.66445 0.36 0.88131 0.0
O130 O 0.71944 0.35755 0.9146 0.0
O131 O 0.65125 0.18566 0.85992 0.0
C132 C 0.75335 0.09053 0.64922 0.0
O133 O 0.69822 0.09278 0.61607 0.0
O134 O 0.78072 0.12502 0.70985 0.0
O135 O 0.63921 0.12141 0.72312 0.0
O136 O 0.6369 0.2218 0.6884 0.0
O137 O 0.76631 0.26471 0.67092 0.0
C138 C 0.8007 0.29577 0.85271 0.0
C139 C 0.61696 0.1544 0.67807 0.0
Zn140 Zn 0.66758 0.78848 0.78269 0.0
Zn141 Zn 0.75002 0.66172 0.74815 0.0
C142 C 0.69406 0.86713 0.92051 0.0
O143 O 0.70594 0.81372 0.94613 0.0
C144 C 0.72355 0.58338 0.61015 0.0
O145 O 0.71186 0.63695 0.58467 0.0
O146 O 0.58559 0.78679 0.7218 0.0
O147 O 0.74547 0.82251 0.70792 0.0
O148 O 0.79671 0.75398 0.68667 0.0
C149 C 0.53945 0.80253 0.74259 0.0
O150 O 0.54018 0.81701 0.81148 0.0
O151 O 0.69045 0.87371 0.85229 0.0
C152 C 0.878 0.64723 0.78808 0.0
O153 O 0.87717 0.63267 0.71918 0.0
O154 O 0.83198 0.66313 0.80893 0.0
O155 O 0.67214 0.62773 0.82296 0.0
O156 O 0.62097 0.69631 0.84429 0.0
O157 O 0.72698 0.57657 0.67834 0.0
C158 C 0.79061 0.81211 0.67598 0.0
C159 C 0.62703 0.63816 0.85494 0.0
C160 C 0.79468 0.07033 0.60715 0.0
C161 C 0.84443 0.12015 0.40526 0.0
C162 C 0.85436 0.84393 0.39453 0.0
Mg163 Mg 0.93256 0.11935 0.5525 0.0
O164 O 0.90127 0.02258 0.53509 0.0
Mg165 Mg 0.80839 0.96264 0.48252 0.0
Mg166 Mg -0.04118 -0.02489 0.51546 0.0
O167 O 0.01631 0.92763 0.49579 0.0
Mg168 Mg -0.01483 0.83097 0.47772 0.0
Mg169 Mg 0.1092 -0.01246 0.54824 0.0
C170 C 0.06348 0.10653 0.63581 0.0
C171 C 0.09103 0.08762 0.41466 0.0
O172 O 0.76623 0.02301 0.554 0.0
O173 O 0.85906 0.10835 0.6204 0.0
O174 O 0.8187 0.05107 0.39739 0.0
O175 O 0.8937 0.15557 0.4552 0.0
O176 O 0.02985 0.1438 0.61949 0.0
O177 O 0.04694 0.04418 0.60431 0.0
C178 C 0.82661 0.86265 0.61626 0.0
O179 O 0.89119 0.88558 0.60628 0.0
O180 O 0.78895 0.8834 0.57463 0.0
O181 O 0.15145 0.92734 0.47663 0.0
O182 O 0.05871 0.84239 0.40978 0.0
O183 O 0.09884 0.899 0.63316 0.0
C184 C 0.12309 0.88027 0.42326 0.0
O185 O 0.02423 0.79461 0.57481 0.0
O186 O 0.88803 0.80664 0.41045 0.0
C187 C 0.07328 0.82995 0.625 0.0
O188 O 0.8707 0.9059 0.42679 0.0
O189 O 0.02644 0.06466 0.42463 0.0
O190 O 0.1287 0.0669 0.4563 0.0
C191 C 0.27012 0.06434 0.07348 0.0
C192 C 0.37095 0.0968 0.88635 0.0
C193 C 0.36414 0.84662 0.89592 0.0
Mg194 Mg 0.42225 0.1097 0.04604 0.0
O195 O 0.3932 0.01073 0.0488 0.0
Mg196 Mg 0.30822 0.94797 0.98288 0.0
Mg197 Mg 0.4588 -0.02481 0.0155 0.0
O198 O 0.52436 0.93965 0.98212 0.0
Mg199 Mg 0.49536 0.84067 0.98467 0.0
Mg200 Mg 0.60935 0.00238 0.04797 0.0
C201 C 0.55355 0.10381 0.13483 0.0
C202 C 0.57124 0.09873 0.92792 0.0
O203 O 0.25038 0.00084 0.04419 0.0
O204 O 0.33209 0.11249 0.07814 0.0
O205 O 0.32656 0.03377 0.89813 0.0
O206 O 0.42101 0.1346 0.93373 0.0
O207 O 0.515 0.13652 0.12263 0.0
O208 O 0.54117 0.04471 0.10102 0.0
C209 C 0.34634 0.85172 0.10303 0.0
O210 O 0.40931 0.88433 0.09137 0.0
O211 O 0.29911 0.86604 0.06969 0.0
O212 O 0.66721 0.94962 0.98652 0.0
O213 O 0.58553 0.83798 0.95252 0.0
O214 O 0.59104 0.91652 0.13259 0.0
C215 C 0.64749 0.88615 0.95718 0.0
O216 O 0.49659 0.81569 0.09697 0.0
O217 O 0.40272 0.81392 0.90792 0.0
C218 C 0.54665 0.85348 0.14435 0.0
O219 O 0.37642 0.90547 0.93018 0.0
O220 O 0.50828 0.06608 0.93959 0.0
O221 O 0.61848 0.08442 0.96127 0.0
C222 C 0.82447 0.62871 0.03668 0.0
C223 C 0.90631 0.61401 0.84214 0.0
C224 C 0.84947 0.33291 0.91572 0.0
Mg225 Mg -0.03994 0.63696 1.00151 0.0
O226 O 0.91365 0.53911 0.01586 0.0
Mg227 Mg 0.82814 0.48274 0.9533 0.0
Mg228 Mg -0.04106 0.47505 0.01542 0.0
O229 O 0.00413 0.41091 1.01491 0.0
Mg230 Mg 0.95766 0.313 0.02911 0.0
Mg231 Mg 0.08961 0.46719 0.07746 0.0
C232 C 0.06829 0.61712 0.11503 0.0
C233 C 0.08498 0.54628 0.93306 0.0
O234 O 0.79428 0.5671 1.0009 0.0
O235 O 0.8893 0.66572 0.04478 0.0
O236 O 0.86264 0.55213 0.85742 0.0
O237 O 0.95462 0.6559 0.8887 0.0
O238 O 0.04819 0.6573 0.0762 0.0
O239 O 0.04136 0.54772 0.10556 0.0
C240 C 0.83287 0.40381 0.09776 0.0
O241 O 0.89471 0.41577 0.09569 0.0
O242 O 0.79745 0.42082 0.04937 0.0
O243 O 0.12347 0.38286 0.02978 0.0
O244 O 0.02845 0.28425 0.9859 0.0
O245 O 0.05501 0.39766 0.17323 0.0
C246 C 0.09328 0.32125 0.99402 0.0
O247 O -0.03706 0.29397 0.1419 0.0
O248 O 0.86952 0.29259 0.95437 0.0
C249 C 0.01125 0.3358 0.18848 0.0
O250 O 0.87653 0.40227 0.92549 0.0
O251 O 0.02314 0.53431 0.93514 0.0
O252 O 0.12038 0.52924 0.98144 0.0
C253 C 0.29468 0.57033 0.10714 0.0
C254 C 0.34443 0.62014 0.90525 0.0
C255 C 0.35435 0.34393 0.89452 0.0
Mg256 Mg 0.43255 0.61934 0.05249 0.0
O257 O 0.40127 0.52257 0.03509 0.0
Mg258 Mg 0.30839 0.46264 0.98252 0.0
Mg259 Mg 0.45882 0.47511 0.01546 0.0
O260 O 0.5163 0.42763 0.99578 0.0
Mg261 Mg 0.48516 0.33096 0.97771 0.0
Mg262 Mg 0.6092 0.48754 0.04824 0.0
C263 C 0.56347 0.60653 0.1358 0.0
C264 C 0.59103 0.58762 0.91466 0.0
O265 O 0.26622 0.52301 0.054 0.0
O266 O 0.35905 0.60835 0.12039 0.0
O267 O 0.31869 0.55106 0.89739 0.0
O268 O 0.3937 0.65556 0.95519 0.0
O269 O 0.52984 0.64379 0.11948 0.0
O270 O 0.54694 0.54418 0.1043 0.0
C271 C 0.32661 0.36265 0.11626 0.0
O272 O 0.39119 0.38557 0.10628 0.0
O273 O 0.28894 0.3834 0.07463 0.0
O274 O 0.65144 0.42733 0.97663 0.0
O275 O 0.55871 0.34239 0.90977 0.0
O276 O 0.59883 0.39899 0.13316 0.0
C277 C 0.62308 0.38026 0.92326 0.0
O278 O 0.52423 0.2946 0.07479 0.0
O279 O 0.38803 0.30664 0.91044 0.0
C280 C 0.57327 0.32994 0.12499 0.0
O281 O 0.3707 0.40589 0.92679 0.0
O282 O 0.52644 0.56465 0.92462 0.0
O283 O 0.62869 0.56689 0.9563 0.0
C284 C 0.77011 0.56434 0.57348 0.0
C285 C 0.87094 0.5968 0.38634 0.0
C286 C 0.86413 0.34663 0.39591 0.0
Mg287 Mg 0.92224 0.60971 0.54603 0.0
O288 O 0.8932 0.51074 0.5488 0.0
Mg289 Mg 0.80822 0.44797 0.48288 0.0
Mg290 Mg -0.0412 0.47519 0.51549 0.0
O291 O 0.02436 0.43965 0.48211 0.0
Mg292 Mg -0.00465 0.34067 0.48466 0.0
Mg293 Mg 0.10935 0.50238 0.54797 0.0
C294 C 0.05355 0.60381 0.63483 0.0
C295 C 0.07124 0.59873 0.42792 0.0
O296 O 0.75038 0.50084 0.54419 0.0
O297 O 0.83208 0.61249 0.57814 0.0
O298 O 0.82655 0.53377 0.39813 0.0
O299 O 0.921 0.6346 0.43372 0.0
O300 O 0.015 0.63652 0.62262 0.0
O301 O 0.04116 0.54472 0.60101 0.0
C302 C 0.84634 0.35172 0.60303 0.0
O303 O 0.90931 0.38433 0.59136 0.0
O304 O 0.79911 0.36604 0.56969 0.0
O305 O 0.1672 0.44963 0.48652 0.0
O306 O 0.08552 0.33798 0.45251 0.0
O307 O 0.09103 0.41652 0.63258 0.0
C308 C 0.14748 0.38615 0.45718 0.0
O309 O -0.00342 0.31569 0.59696 0.0
O310 O 0.90272 0.31393 0.40791 0.0
C311 C 0.04664 0.35348 0.64434 0.0
O312 O 0.87642 0.40547 0.43018 0.0
O313 O 0.00828 0.56608 0.43958 0.0
O314 O 0.11847 0.58442 0.46126 0.0
C315 C 0.32447 0.12871 0.53668 0.0
C316 C 0.40631 0.11401 0.34215 0.0
C317 C 0.34947 0.83291 0.41572 0.0
Mg318 Mg 0.46006 0.13697 0.50151 0.0
O319 O 0.41365 0.03911 0.51586 0.0
Mg320 Mg 0.32814 -0.01726 0.45331 0.0
Mg321 Mg 0.45894 -0.02495 0.51543 0.0
O322 O 0.50412 0.91091 0.51491 0.0
Mg323 Mg 0.45766 0.813 0.52912 0.0
Mg324 Mg 0.58961 0.96719 0.57746 0.0
C325 C 0.56829 0.11712 0.61503 0.0
C326 C 0.58498 0.04629 0.43307 0.0
O327 O 0.29428 0.0671 0.50091 0.0
O328 O 0.3893 0.16572 0.54479 0.0
O329 O 0.36264 0.05213 0.35742 0.0
O330 O 0.45462 0.15591 0.3887 0.0
O331 O 0.54819 0.1573 0.57621 0.0
O332 O 0.54135 0.04773 0.60556 0.0
C333 C 0.33287 0.90381 0.59776 0.0
O334 O 0.39471 0.91578 0.59569 0.0
O335 O 0.29745 0.92082 0.54937 0.0
O336 O 0.62347 0.88287 0.52978 0.0
O337 O 0.52845 0.78425 0.4859 0.0
O338 O 0.55501 0.89766 0.67324 0.0
C339 C 0.59328 0.82125 0.49402 0.0
O340 O 0.46294 0.79397 0.64191 0.0
O341 O 0.36952 0.79259 0.45438 0.0
C342 C 0.51125 0.83581 0.68849 0.0
O343 O 0.37653 0.90227 0.42549 0.0
O344 O 0.52314 0.03431 0.43515 0.0
O345 O 0.62038 0.02924 0.48145 0.0
loop_
_geom_bond_atom_site_label_1
_geom_bond_atom_site_label_2
_geom_bond_distance
_geom_bond_site_symmetry_2
_ccdc_geom_bond_type
Zn0 O6 1.969 . S
Zn0 O7 1.965 . S
Zn0 O11 2.024 . S
Zn0 O16 1.969 . S
Zn1 O8 1.969 . S
Zn1 O14 1.969 . S
Zn1 O15 1.965 . S
Zn1 O17 2.024 . S
C2 O3 1.229 . S
C2 O11 1.058 . S
O3 C2 1.229 . S
C4 O5 1.229 . S
C4 O17 1.058 . S
O5 C4 1.229 . S
O6 Zn0 1.969 . S
O6 C9 1.267 . S
O7 Zn0 1.965 . S
O7 C18 1.260 . S
O8 Zn1 1.969 . S
O8 C18 1.258 . S
C9 O6 1.267 . S
C9 O10 1.228 . S
O10 C9 1.228 . S
O11 Zn0 2.024 . S
O11 C2 1.058 . S
C12 O13 1.228 . S
C12 O14 1.267 . S
O13 C12 1.228 . S
O14 Zn1 1.969 . S
O14 C12 1.267 . S
O15 Zn1 1.965 . S
O15 C19 1.260 . S
O16 Zn0 1.969 . S
O16 C19 1.258 . S
O17 Zn1 2.024 . S
O17 C4 1.058 . S
C18 O7 1.260 . S
C18 O8 1.258 . S
C19 O15 1.260 . S
C19 O16 1.258 . S
Zn20 O26 1.969 . S
Zn20 O27 1.965 . S
Zn20 O31 2.024 . S
Zn20 O36 1.969 . S
Zn21 O28 1.969 . S
Zn21 O34 1.969 . S
Zn21 O35 1.965 . S
Zn21 O37 2.024 . S
C22 O23 1.229 . S
C22 O31 1.058 . S
O23 C22 1.229 . S
C24 O25 1.229 . S
C24 O37 1.058 . S
O25 C24 1.229 . S
O26 Zn20 1.969 . S
O26 C29 1.267 . S
O27 Zn20 1.965 . S
O27 C38 1.260 . S
O28 Zn21 1.969 . S
O28 C38 1.258 . S
C29 O26 1.267 . S
C29 O30 1.228 . S
O30 C29 1.228 . S
O31 Zn20 2.024 . S
O31 C22 1.058 . S
C32 O33 1.228 . S
C32 O34 1.267 . S
O33 C32 1.228 . S
O34 Zn21 1.969 . S
O34 C32 1.267 . S
O35 Zn21 1.965 . S
O35 C39 1.260 . S
O36 Zn20 1.969 . S
O36 C39 1.258 . S
O37 Zn21 2.024 . S
O37 C24 1.058 . S
C38 O27 1.260 . S
C38 O28 1.258 . S
C39 O35 1.260 . S
C39 O36 1.258 . S
Zn40 O46 1.969 . S
Zn40 O47 1.965 . S
Zn40 O51 2.024 . S
Zn40 O56 1.969 . S
Zn41 O48 1.969 . S
Zn41 O54 1.969 . S
Zn41 O55 1.965 . S
Zn41 O57 2.024 . S
C42 O43 1.229 . S
C42 O51 1.058 . S
O43 C42 1.229 . S
C44 O45 1.229 . S
C44 O57 1.058 . S
O45 C44 1.229 . S
O46 Zn40 1.969 . S
O46 C49 1.267 . S
O47 Zn40 1.965 . S
O47 C58 1.260 . S
O48 Zn41 1.969 . S
O48 C58 1.258 . S
C49 O46 1.267 . S
C49 O50 1.228 . S
O50 C49 1.228 . S
O51 Zn40 2.024 . S
O51 C42 1.058 . S
C52 O53 1.228 . S
C52 O54 1.267 . S
O53 C52 1.228 . S
O54 Zn41 1.969 . S
O54 C52 1.267 . S
O55 Zn41 1.965 . S
O55 C59 1.260 . S
O56 Zn40 1.969 . S
O56 C59 1.258 . S
O57 Zn41 2.024 . S
O57 C44 1.058 . S
C58 O47 1.260 . S
C58 O48 1.258 . S
C59 O55 1.260 . S
C59 O56 1.258 . S
Zn60 O66 1.969 . S
Zn60 O67 1.965 . S
Zn60 O71 2.024 . S
Zn60 O76 1.969 . S
Zn61 O68 1.969 . S
Zn61 O74 1.969 . S
Zn61 O75 1.965 . S
Zn61 O77 2.024 . S
C62 O63 1.229 . S
C62 O71 1.058 . S
O63 C62 1.229 . S
C64 O65 1.229 . S
C64 O77 1.058 . S
O65 C64 1.229 . S
O66 Zn60 1.969 . S
O66 C69 1.267 . S
O67 Zn60 1.965 . S
O67 C78 1.260 . S
O68 Zn61 1.969 . S
O68 C78 1.258 . S
C69 O66 1.267 . S
C69 O70 1.228 . S
O70 C69 1.228 . S
O71 Zn60 2.024 . S
O71 C62 1.058 . S
C72 O73 1.228 . S
C72 O74 1.267 . S
O73 C72 1.228 . S
O74 Zn61 1.969 . S
O74 C72 1.267 . S
O75 Zn61 1.965 . S
O75 C79 1.260 . S
O76 Zn60 1.969 . S
O76 C79 1.258 . S
O77 Zn61 2.024 . S
O77 C64 1.058 . S
C78 O67 1.260 . S
C78 O68 1.258 . S
C79 O75 1.260 . S
C79 O76 1.258 . S
Zn80 O86 1.969 . S
Zn80 O87 1.965 . S
Zn80 O91 2.024 . S
Zn80 O96 1.969 . S
Zn81 O88 1.969 . S
Zn81 O94 1.969 . S
Zn81 O95 1.965 . S
Zn81 O97 2.024 . S
C82 O83 1.229 . S
C82 O91 1.058 . S
O83 C82 1.229 . S
C84 O85 1.229 . S
C84 O97 1.058 . S
O85 C84 1.229 . S
O86 Zn80 1.969 . S
O86 C89 1.267 . S
O87 Zn80 1.965 . S
O87 C98 1.260 . S
O88 Zn81 1.969 . S
O88 C98 1.258 . S
C89 O86 1.267 . S
C89 O90 1.228 . S
O90 C89 1.228 . S
O91 Zn80 2.024 . S
O91 C82 1.058 . S
C92 O93 1.228 . S
C92 O94 1.267 . S
O93 C92 1.228 . S
O94 Zn81 1.969 . S
O94 C92 1.267 . S
O95 Zn81 1.965 . S
O95 C99 1.260 . S
O96 Zn80 1.969 . S
O96 C99 1.258 . S
O97 Zn81 2.024 . S
O97 C84 1.058 . S
C98 O87 1.260 . S
C98 O88 1.258 . S
C99 O95 1.260 . S
C99 O96 1.258 . S
Zn100 O106 1.969 . S
Zn100 O107 1.965 . S
Zn100 O111 2.024 . S
Zn100 O116 1.969 . S
Zn101 O108 1.969 . S
Zn101 O114 1.969 . S
Zn101 O115 1.965 . S
Zn101 O117 2.024 . S
C102 O103 1.229 . S
C102 O111 1.058 . S
O103 C102 1.229 . S
C104 O105 1.229 . S
C104 O117 1.058 . S
O105 C104 1.229 . S
O106 Zn100 1.969 . S
O106 C109 1.267 . S
O107 Zn100 1.965 . S
O107 C118 1.260 . S
O108 Zn101 1.969 . S
O108 C118 1.258 . S
C109 O106 1.267 . S
C109 O110 1.228 . S
O110 C109 1.228 . S
O111 Zn100 2.024 . S
O111 C102 1.058 . S
C112 O113 1.228 . S
C112 O114 1.267 . S
O113 C112 1.228 . S
O114 Zn101 1.969 . S
O114 C112 1.267 . S
O115 Zn101 1.965 . S
O115 C119 1.260 . S
O116 Zn100 1.969 . S
O116 C119 1.258 . S
O117 Zn101 2.024 . S
O117 C104 1.058 . S
C118 O107 1.260 . S
C118 O108 1.258 . S
C119 O115 1.260 . S
C119 O116 1.258 . S
Zn120 O126 1.969 . S
Zn120 O127 1.965 . S
Zn120 O131 2.024 . S
Zn120 O136 1.969 . S
Zn121 O128 1.969 . S
Zn121 O134 1.969 . S
Zn121 O135 1.965 . S
Zn121 O137 2.024 . S
C122 O123 1.229 . S
C122 O131 1.058 . S
O123 C122 1.229 . S
C124 O125 1.229 . S
C124 O137 1.058 . S
O125 C124 1.229 . S
O126 Zn120 1.969 . S
O126 C129 1.267 . S
O127 Zn120 1.965 . S
O127 C138 1.260 . S
O128 Zn121 1.969 . S
O128 C138 1.258 . S
C129 O126 1.267 . S
C129 O130 1.228 . S
O130 C129 1.228 . S
O131 Zn120 2.024 . S
O131 C122 1.058 . S
C132 O133 1.228 . S
C132 O134 1.267 . S
O133 C132 1.228 . S
O134 Zn121 1.969 . S
O134 C132 1.267 . S
O135 Zn121 1.965 . S
O135 C139 1.260 . S
O136 Zn120 1.969 . S
O136 C139 1.258 . S
O137 Zn121 2.024 . S
O137 C124 1.058 . S
C138 O127 1.260 . S
C138 O128 1.258 . S
C139 O135 1.260 . S
C139 O136 1.258 . S
Zn140 O146 1.969 . S
Zn140 O147 1.965 . S
Zn140 O151 2.024 . S
Zn140 O156 1.969 . S
Zn141 O148 1.969 . S
Zn141 O154 1.969 . S
Zn141 O155 1.965 . S
Zn141 O157 2.024 . S
C142 O143 1.229 . S
C142 O151 1.058 . S
O143 C142 1.229 . S
C144 O145 1.229 . S
C144 O157 1.058 . S
O145 C144 1.229 . S
O146 Zn140 1.969 . S
O146 C149 1.267 . S
O147 Zn140 1.965 . S
O147 C158 1.260 . S
O148 Zn141 1.969 . S
O148 C158 1.258 . S
C149 O146 1.267 . S
C149 O150 1.228 . S
O150 C149 1.228 . S
O151 Zn140 2.024 . S
O151 C142 1.058 . S
C152 O153 1.228 . S
C152 O154 1.267 . S
O153 C152 1.228 . S
O154 Zn141 1.969 . S
O154 C152 1.267 . S
O155 Zn141 1.965 . S
O155 C159 1.260 . S
O156 Zn140 1.969 . S
O156 C159 1.258 . S
O157 Zn141 2.024 . S
O157 C144 1.058 . S
C158 O147 1.260 . S
C158 O148 1.258 . S
C159 O155 1.260 . S
C159 O156 1.258 . S
C160 O172 1.241 . S
C160 O173 1.280 . S
C161 O174 1.277 . S
C161 O175 1.245 . S
C162 O186 1.247 . S
C162 O188 1.289 . S
Mg163 O164 1.926 . S
Mg163 O173 1.983 . S
Mg163 O175 1.987 . S
Mg163 O176 2.063 1_655 S
O164 Mg163 1.926 . S
O164 Mg165 1.986 1_545 S
O164 Mg166 1.926 1_655 S
Mg165 O164 1.986 1_565 S
Mg165 O172 2.042 1_565 S
Mg165 O174 2.041 1_565 S
Mg165 O180 2.038 . S
Mg165 O188 2.238 . S
Mg166 O164 1.926 1_455 S
Mg166 O167 1.908 1_545 S
Mg166 O177 2.109 . S
Mg166 O179 2.072 1_445 S
Mg166 O188 2.104 1_445 S
Mg166 O189 2.086 . S
O167 Mg166 1.908 1_565 S
O167 Mg168 1.926 . S
O167 Mg169 1.986 1_565 S
Mg168 O167 1.926 . S
Mg168 O182 1.990 . S
Mg168 O185 1.990 . S
Mg168 O186 2.056 1_455 S
Mg169 O167 1.986 1_545 S
Mg169 O177 2.238 . S
Mg169 O181 2.042 1_545 S
Mg169 O183 2.041 1_545 S
Mg169 O190 2.038 . S
C170 O176 1.247 . S
C170 O177 1.289 . S
C171 O189 1.245 . S
C171 O190 1.274 . S
O172 C160 1.241 . S
O172 Mg165 2.042 1_545 S
O173 C160 1.280 . S
O173 Mg163 1.983 . S
O174 C161 1.277 . S
O174 Mg165 2.041 1_545 S
O175 C161 1.245 . S
O175 Mg163 1.987 . S
O176 Mg163 2.063 1_455 S
O176 C170 1.247 . S
O177 Mg166 2.109 . S
O177 Mg169 2.238 . S
O177 C170 1.289 . S
C178 O179 1.245 . S
C178 O180 1.274 . S
O179 Mg166 2.072 1_665 S
O179 C178 1.245 . S
O180 Mg165 2.038 . S
O180 C178 1.274 . S
O181 Mg169 2.042 1_565 S
O181 C184 1.241 . S
O182 Mg168 1.990 . S
O182 C184 1.280 . S
O183 Mg169 2.041 1_565 S
O183 C187 1.277 . S
C184 O181 1.241 . S
C184 O182 1.280 . S
O185 Mg168 1.990 . S
O185 C187 1.245 . S
O186 C162 1.247 . S
O186 Mg168 2.056 1_655 S
C187 O183 1.277 . S
C187 O185 1.245 . S
O188 C162 1.289 . S
O188 Mg165 2.238 . S
O188 Mg166 2.104 1_665 S
O189 Mg166 2.086 . S
O189 C171 1.245 . S
O190 Mg169 2.038 . S
O190 C171 1.274 . S
C191 O203 1.241 . S
C191 O204 1.280 . S
C192 O205 1.277 . S
C192 O206 1.245 . S
C193 O217 1.247 . S
C193 O219 1.289 . S
Mg194 O195 1.926 . S
Mg194 O204 1.984 . S
Mg194 O206 1.988 1_554 S
Mg194 O207 2.061 . S
O195 Mg194 1.926 . S
O195 Mg196 1.986 1_544 S
O195 Mg197 1.929 . S
Mg196 O195 1.986 1_566 S
Mg196 O203 2.042 1_566 S
Mg196 O205 2.041 1_565 S
Mg196 O211 2.038 1_556 S
Mg196 O219 2.238 . S
Mg197 O195 1.929 . S
Mg197 O198 1.905 1_544 S
Mg197 O208 2.110 . S
Mg197 O210 2.076 1_545 S
Mg197 O219 2.103 1_544 S
Mg197 O220 2.081 1_554 S
O198 Mg197 1.905 1_566 S
O198 Mg199 1.926 . S
O198 Mg200 1.986 1_566 S
Mg199 O198 1.926 . S
Mg199 O213 1.984 . S
Mg199 O216 1.988 1_556 S
Mg199 O217 2.061 . S
Mg200 O198 1.986 1_544 S
Mg200 O208 2.238 . S
Mg200 O212 2.042 1_544 S
Mg200 O214 2.041 1_545 S
Mg200 O221 2.038 1_554 S
C201 O207 1.247 . S
C201 O208 1.289 . S
C202 O220 1.245 . S
C202 O221 1.274 . S
O203 C191 1.241 . S
O203 Mg196 2.042 1_544 S
O204 C191 1.280 . S
O204 Mg194 1.984 . S
O205 C192 1.277 . S
O205 Mg196 2.041 1_545 S
O206 C192 1.245 . S
O206 Mg194 1.988 1_556 S
O207 Mg194 2.061 . S
O207 C201 1.247 . S
O208 Mg197 2.110 . S
O208 Mg200 2.238 . S
O208 C201 1.289 . S
C209 O210 1.245 . S
C209 O211 1.274 . S
O210 Mg197 2.076 1_565 S
O210 C209 1.245 . S
O211 Mg196 2.038 1_554 S
O211 C209 1.274 . S
O212 Mg200 2.042 1_566 S
O212 C215 1.241 . S
O213 Mg199 1.984 . S
O213 C215 1.280 . S
O214 Mg200 2.041 1_565 S
O214 C218 1.277 . S
C215 O212 1.241 . S
C215 O213 1.280 . S
O216 Mg199 1.988 1_554 S
O216 C218 1.245 . S
O217 C193 1.247 . S
O217 Mg199 2.061 . S
C218 O214 1.277 . S
C218 O216 1.245 . S
O219 C193 1.289 . S
O219 Mg196 2.238 . S
O219 Mg197 2.103 1_566 S
O220 Mg197 2.081 1_556 S
O220 C202 1.245 . S
O221 Mg200 2.038 1_556 S
O221 C202 1.274 . S
C222 O234 1.241 . S
C222 O235 1.280 . S
C223 O236 1.277 . S
C223 O237 1.245 . S
C224 O248 1.247 . S
C224 O250 1.289 . S
Mg225 O226 1.926 . S
Mg225 O235 1.983 . S
Mg225 O237 1.987 1_554 S
Mg225 O238 2.063 1_655 S
O226 Mg225 1.926 . S
O226 Mg227 1.986 1_554 S
O226 Mg228 1.917 1_655 S
Mg227 O226 1.986 1_556 S
Mg227 O234 2.042 1_556 S
Mg227 O236 2.041 . S
Mg227 O242 2.038 1_556 S
Mg227 O250 2.238 . S
Mg228 O226 1.917 1_455 S
Mg228 O229 1.917 1_554 S
Mg228 O239 2.110 . S
Mg228 O241 2.082 1_455 S
Mg228 O250 2.103 1_454 S
Mg228 O251 2.075 1_554 S
O229 Mg228 1.917 1_556 S
O229 Mg230 1.926 . S
O229 Mg231 1.986 1_556 S
Mg230 O229 1.926 . S
Mg230 O244 1.990 . S
Mg230 O247 1.990 1_556 S
Mg230 O248 2.056 1_455 S
Mg231 O229 1.986 1_554 S
Mg231 O239 2.238 . S
Mg231 O243 2.042 1_554 S
Mg231 O245 2.041 . S
Mg231 O252 2.038 1_554 S
C232 O238 1.247 . S
C232 O239 1.289 . S
C233 O251 1.245 . S
C233 O252 1.274 . S
O234 C222 1.241 . S
O234 Mg227 2.042 1_554 S
O235 C222 1.280 . S
O235 Mg225 1.983 . S
O236 C223 1.277 . S
O236 Mg227 2.041 . S
O237 C223 1.245 . S
O237 Mg225 1.987 1_556 S
O238 Mg225 2.063 1_455 S
O238 C232 1.247 . S
O239 Mg228 2.110 . S
O239 Mg231 2.238 . S
O239 C232 1.289 . S
C240 O241 1.245 . S
C240 O242 1.274 . S
O241 Mg228 2.082 1_655 S
O241 C240 1.245 . S
O242 Mg227 2.038 1_554 S
O242 C240 1.274 . S
O243 Mg231 2.042 1_556 S
O243 C246 1.241 . S
O244 Mg230 1.990 . S
O244 C246 1.280 . S
O245 Mg231 2.041 . S
O245 C249 1.277 . S
C246 O243 1.241 . S
C246 O244 1.280 . S
O247 Mg230 1.990 1_554 S
O247 C249 1.245 . S
O248 C224 1.247 . S
O248 Mg230 2.056 1_655 S
C249 O245 1.277 . S
C249 O247 1.245 . S
O250 C224 1.289 . S
O250 Mg227 2.238 . S
O250 Mg228 2.103 1_656 S
O251 Mg228 2.075 1_556 S
O251 C233 1.245 . S
O252 Mg231 2.038 1_556 S
O252 C233 1.274 . S
C253 O265 1.241 . S
C253 O266 1.280 . S
C254 O267 1.277 . S
C254 O268 1.245 . S
C255 O279 1.247 . S
C255 O281 1.289 . S
Mg256 O257 1.926 . S
Mg256 O266 1.984 . S
Mg256 O268 1.988 1_554 S
Mg256 O269 2.061 . S
O257 Mg256 1.926 . S
O257 Mg258 1.986 1_554 S
O257 Mg259 1.918 . S
Mg258 O257 1.986 1_556 S
Mg258 O265 2.042 1_556 S
Mg258 O267 2.041 . S
Mg258 O273 2.038 1_556 S
Mg258 O281 2.238 . S
Mg259 O257 1.918 . S
Mg259 O260 1.915 1_554 S
Mg259 O270 2.109 . S
Mg259 O272 2.083 . S
Mg259 O281 2.104 1_554 S
Mg259 O282 2.075 1_554 S
O260 Mg259 1.915 1_556 S
O260 Mg261 1.926 . S
O260 Mg262 1.986 1_556 S
Mg261 O260 1.926 . S
Mg261 O275 1.984 . S
Mg261 O278 1.988 1_556 S
Mg261 O279 2.061 . S
Mg262 O260 1.986 1_554 S
Mg262 O270 2.238 . S
Mg262 O274 2.042 1_554 S
Mg262 O276 2.041 . S
Mg262 O283 2.038 1_554 S
C263 O269 1.247 . S
C263 O270 1.289 . S
C264 O282 1.245 . S
C264 O283 1.274 . S
O265 C253 1.241 . S
O265 Mg258 2.042 1_554 S
O266 C253 1.280 . S
O266 Mg256 1.984 . S
O267 C254 1.277 . S
O267 Mg258 2.041 . S
O268 C254 1.245 . S
O268 Mg256 1.988 1_556 S
O269 Mg256 2.061 . S
O269 C263 1.247 . S
O270 Mg259 2.109 . S
O270 Mg262 2.238 . S
O270 C263 1.289 . S
C271 O272 1.245 . S
C271 O273 1.274 . S
O272 Mg259 2.083 . S
O272 C271 1.245 . S
O273 Mg258 2.038 1_554 S
O273 C271 1.274 . S
O274 Mg262 2.042 1_556 S
O274 C277 1.241 . S
O275 Mg261 1.984 . S
O275 C277 1.280 . S
O276 Mg262 2.041 . S
O276 C280 1.277 . S
C277 O274 1.241 . S
C277 O275 1.280 . S
O278 Mg261 1.988 1_554 S
O278 C280 1.245 . S
O279 C255 1.247 . S
O279 Mg261 2.061 . S
C280 O276 1.277 . S
C280 O278 1.245 . S
O281 C255 1.289 . S
O281 Mg258 2.238 . S
O281 Mg259 2.104 1_556 S
O282 Mg259 2.075 1_556 S
O282 C264 1.245 . S
O283 Mg262 2.038 1_556 S
O283 C264 1.274 . S
C284 O296 1.241 . S
C284 O297 1.280 . S
C285 O298 1.277 . S
C285 O299 1.245 . S
C286 O310 1.247 . S
C286 O312 1.289 . S
Mg287 O288 1.926 . S
Mg287 O297 1.983 . S
Mg287 O299 1.987 . S
Mg287 O300 2.063 1_655 S
O288 Mg287 1.926 . S
O288 Mg289 1.986 . S
O288 Mg290 1.915 1_655 S
Mg289 O288 1.986 . S
Mg289 O296 2.042 . S
Mg289 O298 2.041 . S
Mg289 O304 2.038 . S
Mg289 O312 2.238 . S
Mg290 O288 1.915 1_455 S
Mg290 O291 1.919 . S
Mg290 O301 2.108 . S
Mg290 O303 2.078 1_455 S
Mg290 O312 2.105 1_455 S
Mg290 O313 2.079 . S
O291 Mg290 1.919 . S
O291 Mg292 1.926 . S
O291 Mg293 1.986 . S
Mg292 O291 1.926 . S
Mg292 O306 1.990 . S
Mg292 O309 1.990 . S
Mg292 O310 2.056 1_455 S
Mg293 O291 1.986 . S
Mg293 O301 2.238 . S
Mg293 O305 2.042 . S
Mg293 O307 2.041 . S
Mg293 O314 2.038 . S
C294 O300 1.247 . S
C294 O301 1.289 . S
C295 O313 1.245 . S
C295 O314 1.274 . S
O296 C284 1.241 . S
O296 Mg289 2.042 . S
O297 C284 1.280 . S
O297 Mg287 1.983 . S
O298 C285 1.277 . S
O298 Mg289 2.041 . S
O299 C285 1.245 . S
O299 Mg287 1.987 . S
O300 Mg287 2.063 1_455 S
O300 C294 1.247 . S
O301 Mg290 2.108 . S
O301 Mg293 2.238 . S
O301 C294 1.289 . S
C302 O303 1.245 . S
C302 O304 1.274 . S
O303 Mg290 2.078 1_655 S
O303 C302 1.245 . S
O304 Mg289 2.038 . S
O304 C302 1.274 . S
O305 Mg293 2.042 . S
O305 C308 1.241 . S
O306 Mg292 1.990 . S
O306 C308 1.280 . S
O307 Mg293 2.041 . S
O307 C311 1.277 . S
C308 O305 1.241 . S
C308 O306 1.280 . S
O309 Mg292 1.990 . S
O309 C311 1.245 . S
O310 C286 1.247 . S
O310 Mg292 2.056 1_655 S
C311 O307 1.277 . S
C311 O309 1.245 . S
O312 C286 1.289 . S
O312 Mg289 2.238 . S
O312 Mg290 2.105 1_655 S
O313 Mg290 2.079 . S
O313 C295 1.245 . S
O314 Mg293 2.038 . S
O314 C295 1.274 . S
C315 O327 1.241 . S
C315 O328 1.280 . S
C316 O329 1.277 . S
C316 O330 1.245 . S
C317 O341 1.247 . S
C317 O343 1.289 . S
Mg318 O319 1.926 . S
Mg318 O328 1.984 . S
Mg318 O330 1.988 . S
Mg318 O331 2.061 . S
O319 Mg318 1.926 . S
O319 Mg320 1.986 1_545 S
O319 Mg321 1.928 . S
Mg320 O319 1.986 1_565 S
Mg320 O327 2.042 1_565 S
Mg320 O329 2.041 1_565 S
Mg320 O335 2.038 . S
Mg320 O343 2.238 . S
Mg321 O319 1.928 . S
Mg321 O322 1.906 1_545 S
Mg321 O332 2.108 . S
Mg321 O334 2.072 1_545 S
Mg321 O343 2.105 1_545 S
Mg321 O344 2.085 . S
O322 Mg321 1.906 1_565 S
O322 Mg323 1.926 . S
O322 Mg324 1.986 1_565 S
Mg323 O322 1.926 . S
Mg323 O337 1.984 . S
Mg323 O340 1.988 . S
Mg323 O341 2.061 . S
Mg324 O322 1.986 1_545 S
Mg324 O332 2.238 . S
Mg324 O336 2.042 1_545 S
Mg324 O338 2.041 1_545 S
Mg324 O345 2.038 . S
C325 O331 1.247 . S
C325 O332 1.289 . S
C326 O344 1.245 . S
C326 O345 1.274 . S
O327 C315 1.241 . S
O327 Mg320 2.042 1_545 S
O328 C315 1.280 . S
O328 Mg318 1.984 . S
O329 C316 1.277 . S
O329 Mg320 2.041 1_545 S
O330 C316 1.245 . S
O330 Mg318 1.988 . S
O331 Mg318 2.061 . S
O331 C325 1.247 . S
O332 Mg321 2.108 . S
O332 Mg324 2.238 . S
O332 C325 1.289 . S
C333 O334 1.245 . S
C333 O335 1.274 . S
O334 Mg321 2.072 1_565 S
O334 C333 1.245 . S
O335 Mg320 2.038 . S
O335 C333 1.274 . S
O336 Mg324 2.042 1_565 S
O336 C339 1.241 . S
O337 Mg323 1.984 . S
O337 C339 1.280 . S
O338 Mg324 2.041 1_565 S
O338 C342 1.277 . S
C339 O336 1.241 . S
C339 O337 1.280 . S
O340 Mg323 1.988 . S
O340 C342 1.245 . S
O341 C317 1.247 . S
O341 Mg323 2.061 . S
C342 O338 1.277 . S
C342 O340 1.245 . S
O343 C317 1.289 . S
O343 Mg320 2.238 . S
O343 Mg321 2.105 1_565 S
O344 Mg321 2.085 . S
O344 C326 1.245 . S
O345 Mg324 2.038 . S
O345 C326 1.274 . S
C171 C19 2.994 . S
C161 C24 1.597 . S
C162 C59 1.193 . S
C69 C184 1.187 . S
C82 C187 1.597 . S
C170 C118 1.193 . S
C132 C160 1.187 . S
C158 C178 2.994 . S
C191 C4 1.778 . S
C29 C240 0.635 . S
C218 C44 1.582 . S
C232 C79 1.210 . S
C98 C193 1.160 . S
C246 C112 1.255 . S
C122 C202 1.204 . S
C152 C223 1.164 . S
C9 C249 1.165 . S
C92 C233 0.635 . S
C192 C102 1.582 . S
C224 C138 1.210 . S
C142 C215 1.778 . S
C49 C222 1.254 . S
C209 C64 1.204 . S
C39 C201 1.160 . S
C159 C264 2.994 . S
C84 C254 1.596 . S
C255 C119 1.193 . S
C277 C129 1.187 . S
C22 C280 1.597 . S
C263 C58 1.193 . S
C72 C253 1.187 . S
C18 C271 2.994 . S
C144 C284 1.778 . S
C333 C89 0.635 . S
C104 C311 1.581 . S
C139 C325 1.211 . S
C286 C38 1.160 . S
C52 C339 1.254 . S
C295 C62 1.204 . S
C316 C12 1.164 . S
C342 C149 1.165 . S
C32 C326 0.635 . S
C42 C285 1.582 . S
C317 C78 1.210 . S
C2 C308 1.778 . S
C109 C315 1.254 . S
C302 C124 1.204 . S
C294 C99 1.160 . S
