# Generated by pormake.
# Topology pyr, (3,6)-cn, num edge types: 1
# Building blocks:
#     Node 0, Type 0, BuildingBlock: OLANEW_clean_sbu_2, # of connection points: 3
#     Node 1, Type 0, BuildingBlock: OLANEW_clean_sbu_2, # of connection points: 3
#     Node 2, Type 0, BuildingBlock: OLANEW_clean_sbu_2, # of connection points: 3
#     Node 3, Type 0, BuildingBlock: OLANEW_clean_sbu_2, # of connection points: 3
#     Node 4, Type 0, BuildingBlock: OLANEW_clean_sbu_2, # of connection points: 3
#     Node 5, Type 0, BuildingBlock: OLANEW_clean_sbu_2, # of connection points: 3
#     Node 6, Type 0, BuildingBlock: OLANEW_clean_sbu_2, # of connection points: 3
#     Node 7, Type 0, BuildingBlock: OLANEW_clean_sbu_2, # of connection points: 3
#     Node 8, Type 1, BuildingBlock: BETFAJ_clean_sbu_0, # of connection points: 6
#     Node 9, Type 1, BuildingBlock: BETFAJ_clean_sbu_0, # of connection points: 6
#     Node 10, Type 1, BuildingBlock: BETFAJ_clean_sbu_0, # of connection points: 6
#     Node 11, Type 1, BuildingBlock: BETFAJ_clean_sbu_0, # of connection points: 6
#     Edge 12, Type (0, 1), BuildingBlock: TEMPAE_clean_linker_10, # of connection points: 2
#     Edge 13, Type (0, 1), BuildingBlock: TEMPAE_clean_linker_10, # of connection points: 2
#     Edge 14, Type (0, 1), BuildingBlock: TEMPAE_clean_linker_10, # of connection points: 2
#     Edge 15, Type (0, 1), BuildingBlock: TEMPAE_clean_linker_10, # of connection points: 2
#     Edge 16, Type (0, 1), BuildingBlock: TEMPAE_clean_linker_10, # of connection points: 2
#     Edge 17, Type (0, 1), BuildingBlock: TEMPAE_clean_linker_10, # of connection points: 2
#     Edge 18, Type (0, 1), BuildingBlock: TEMPAE_clean_linker_10, # of connection points: 2
#     Edge 19, Type (0, 1), BuildingBlock: TEMPAE_clean_linker_10, # of connection points: 2
#     Edge 20, Type (0, 1), BuildingBlock: TEMPAE_clean_linker_10, # of connection points: 2
#     Edge 21, Type (0, 1), BuildingBlock: TEMPAE_clean_linker_10, # of connection points: 2
#     Edge 22, Type (0, 1), BuildingBlock: TEMPAE_clean_linker_10, # of connection points: 2
#     Edge 23, Type (0, 1), BuildingBlock: TEMPAE_clean_linker_10, # of connection points: 2
#     Edge 24, Type (0, 1), BuildingBlock: TEMPAE_clean_linker_10, # of connection points: 2
#     Edge 25, Type (0, 1), BuildingBlock: TEMPAE_clean_linker_10, # of connection points: 2
#     Edge 26, Type (0, 1), BuildingBlock: TEMPAE_clean_linker_10, # of connection points: 2
#     Edge 27, Type (0, 1), BuildingBlock: TEMPAE_clean_linker_10, # of connection points: 2
#     Edge 28, Type (0, 1), BuildingBlock: TEMPAE_clean_linker_10, # of connection points: 2
#     Edge 29, Type (0, 1), BuildingBlock: TEMPAE_clean_linker_10, # of connection points: 2
#     Edge 30, Type (0, 1), BuildingBlock: TEMPAE_clean_linker_10, # of connection points: 2
#     Edge 31, Type (0, 1), BuildingBlock: TEMPAE_clean_linker_10, # of connection points: 2
#     Edge 32, Type (0, 1), BuildingBlock: TEMPAE_clean_linker_10, # of connection points: 2
#     Edge 33, Type (0, 1), BuildingBlock: TEMPAE_clean_linker_10, # of connection points: 2
#     Edge 34, Type (0, 1), BuildingBlock: TEMPAE_clean_linker_10, # of connection points: 2
#     Edge 35, Type (0, 1), BuildingBlock: TEMPAE_clean_linker_10, # of connection points: 2
# Relax obj value: 0.126
# Max RMSD: 0.168
# Mean RMSD: 0.121
data_MOF--net-pyr--node1-OLANEW_clean_sbu_2--node2-BETFAJ_clean_sbu_0--edge1-TEMPAE_clean_linker_10
_symmetry_space_group_name_H-M    P1
_symmetry_Int_Tables_number       1
_symmetry_cell_setting            triclinic
loop_
_symmetry_equiv_pos_as_xyz
'x, y, z'
_cell_length_a     41.053019
_cell_length_b     45.626653
_cell_length_c     40.098359
_cell_angle_alpha  95.99059
_cell_angle_beta   87.791338
_cell_angle_gamma 103.39444
loop_
_atom_site_label
_atom_site_type_symbol
_atom_site_fract_x
_atom_site_fract_y
_atom_site_fract_z
_atom_type_partial_charge
O0 O 0.37739 0.28518 0.18358 0.0
Cd1 Cd 0.37022 0.33633 0.20539 0.0
O2 O 0.36395 0.27267 0.23398 0.0
Cd3 Cd 0.34877 0.24548 0.27558 0.0
O4 O 0.31094 0.22984 0.31279 0.0
C5 C 0.31362 0.23903 0.34377 0.0
O6 O 0.3414 0.25752 0.35487 0.0
C7 C 0.37363 0.26541 0.20441 0.0
C8 C 0.31399 0.35727 0.18954 0.0
O9 O 0.33838 0.3569 0.16867 0.0
O10 O 0.31528 0.34655 0.21765 0.0
O11 O 0.31619 0.91035 0.65672 0.0
Cd12 Cd 0.29509 0.89312 0.6007 0.0
O13 O 0.27484 0.87523 0.67286 0.0
Cd14 Cd 0.23358 0.85397 0.70471 0.0
O15 O 0.19442 0.87195 0.68529 0.0
C16 C 0.20367 0.9002 0.68271 0.0
O17 O 0.23244 0.91515 0.69555 0.0
C18 C 0.30029 0.89651 0.68038 0.0
C19 C 0.31942 0.84221 0.58484 0.0
O20 O 0.33653 0.86826 0.57832 0.0
O21 O 0.28984 0.83982 0.59734 0.0
O22 O 0.72017 0.40766 0.86019 0.0
Cd23 Cd 0.66796 0.39279 0.8245 0.0
O24 O 0.71168 0.36889 0.89113 0.0
Cd25 Cd 0.67927 0.3248 0.90548 0.0
O26 O 0.64563 0.28192 0.92146 0.0
C27 C 0.65355 0.26904 0.94573 0.0
O28 O 0.68195 0.2813 0.96096 0.0
C29 C 0.73005 0.39396 0.88292 0.0
C30 C 0.64909 0.42652 0.77472 0.0
O31 O 0.63958 0.42985 0.80546 0.0
O32 O 0.66908 0.40883 0.76764 0.0
O33 O 0.92725 0.74918 0.37597 0.0
Cd34 Cd 0.90276 0.69982 0.34302 0.0
O35 O 0.89226 0.73539 0.41761 0.0
Cd36 Cd 0.86977 0.68847 0.40092 0.0
O37 O 0.825 0.65763 0.41818 0.0
C38 C 0.79994 0.66956 0.423 0.0
O39 O 0.80293 0.69746 0.41561 0.0
C40 C 0.91453 0.75541 0.40469 0.0
C41 C 0.93261 0.67156 0.28765 0.0
O42 O 0.91999 0.6943 0.28434 0.0
O43 O 0.93312 0.66343 0.31727 0.0
O44 O 0.69154 0.74931 0.77734 0.0
Cd45 Cd 0.6648 0.70452 0.80421 0.0
O46 O 0.67444 0.77577 0.82027 0.0
Cd47 Cd 0.66605 0.81594 0.85073 0.0
O48 O 0.63838 0.84322 0.88366 0.0
C49 C 0.62194 0.85968 0.87108 0.0
O50 O 0.62291 0.86082 0.83844 0.0
C51 C 0.69096 0.77487 0.79286 0.0
C52 C 0.71501 0.6863 0.83555 0.0
O53 O 0.70659 0.67606 0.80536 0.0
O54 O 0.69905 0.70469 0.85127 0.0
O55 O 0.6998 0.15471 0.46284 0.0
Cd56 Cd 0.72498 0.16544 0.51745 0.0
O57 O 0.74477 0.18476 0.4445 0.0
Cd58 Cd 0.768 0.22267 0.41647 0.0
O59 O 0.7505 0.26256 0.43673 0.0
C60 C 0.73361 0.2591 0.46391 0.0
O61 O 0.73006 0.23374 0.47778 0.0
C62 C 0.71543 0.16861 0.43915 0.0
C63 C 0.78303 0.14483 0.51545 0.0
O64 O 0.75415 0.12701 0.51817 0.0
O65 O 0.7848 0.17307 0.51392 0.0
O66 O 0.42197 0.78473 0.23819 0.0
Cd67 Cd 0.40544 0.73949 0.27482 0.0
O68 O 0.37893 0.77483 0.20322 0.0
Cd69 Cd 0.34157 0.73172 0.2065 0.0
O70 O 0.29333 0.70171 0.18892 0.0
C71 C 0.29186 0.68549 0.1609 0.0
O72 O 0.31969 0.68577 0.14347 0.0
C73 C 0.40627 0.79211 0.21427 0.0
C74 C 0.43534 0.70451 0.31653 0.0
O75 O 0.43765 0.73298 0.32407 0.0
O76 O 0.42144 0.69301 0.28856 0.0
O77 O 0.16414 0.43055 0.75386 0.0
Cd78 Cd 0.18437 0.40986 0.6992 0.0
O79 O 0.13778 0.38785 0.77433 0.0
Cd80 Cd 0.14446 0.35255 0.7346 0.0
O81 O 0.13346 0.30484 0.71305 0.0
C82 C 0.11006 0.29458 0.69209 0.0
O83 O 0.0935 0.31332 0.68183 0.0
C84 C 0.14685 0.41665 0.77699 0.0
C85 C 0.24906 0.43494 0.67398 0.0
O86 O 0.22583 0.44956 0.67524 0.0
O87 O 0.24243 0.40913 0.68578 0.0
Sm88 Sm 0.01578 0.03115 0.53941 0.0
Sm89 Sm 0.98679 1.00421 0.60957 0.0
C90 C 0.03142 0.05551 0.48303 0.0
C91 C 0.06195 0.07719 0.47414 0.0
C92 C 0.05964 0.10252 0.45826 0.0
C93 C 0.08844 0.12458 0.45224 0.0
C94 C 0.11987 0.12152 0.46212 0.0
C95 C 0.12199 0.09644 0.47867 0.0
C96 C 0.09326 0.07449 0.48474 0.0
C97 C 0.06052 0.01342 0.57757 0.0
C98 C 0.02946 0.07446 0.60921 0.0
C99 C 0.97389 0.97564 0.66413 0.0
C100 C 0.94269 0.95877 0.67857 0.0
C101 C 0.94387 0.93946 0.70314 0.0
C102 C 0.91426 0.92202 0.71564 0.0
C103 C 0.88298 0.92353 0.70358 0.0
C104 C 0.88196 0.94319 0.67909 0.0
C105 C 0.91159 0.96061 0.66663 0.0
C106 C 0.94175 0.03019 0.58051 0.0
C107 C 0.97192 0.96113 0.53768 0.0
O108 O 0.01292 0.06633 0.50633 0.0
O109 O 0.03478 0.02816 0.48709 0.0
O110 O 0.03006 1.00103 0.57442 0.0
O111 O 0.06948 0.03389 0.55682 0.0
O112 O 0.02377 0.07317 0.57685 0.0
O113 O 0.02262 0.05029 0.6263 0.0
O114 O 0.98338 0.96312 0.63569 0.0
O115 O 0.97698 1.00488 0.66439 0.0
O116 O 0.96963 0.02669 0.56995 0.0
O117 O 0.93527 0.0179 0.60844 0.0
O118 O 0.97292 0.96247 0.57083 0.0
O119 O 0.98251 0.98498 0.52063 0.0
H120 H 0.03555 0.10529 0.45072 0.0
H121 H 0.08623 0.14364 0.4392 0.0
H122 H 0.14589 0.0938 0.48689 0.0
H123 H 0.09559 0.05555 0.49791 0.0
H124 H 0.9677 0.93764 0.7124 0.0
H125 H 0.91588 0.90735 0.73477 0.0
H126 H 0.85834 0.94454 0.66893 0.0
H127 H 0.91023 0.97512 0.6473 0.0
Sm128 Sm 0.51746 0.04704 0.09204 0.0
Sm129 Sm 0.45544 0.03334 0.05403 0.0
C130 C 0.57407 0.0784 0.11866 0.0
C131 C 0.58477 0.08992 0.15283 0.0
C132 C 0.60647 0.11847 0.15843 0.0
C133 C 0.61602 0.13043 0.19094 0.0
C134 C 0.60399 0.11387 0.21824 0.0
C135 C 0.58154 0.08553 0.21262 0.0
C136 C 0.57185 0.07368 0.18012 0.0
C137 C 0.4779 0.99799 0.12108 0.0
C138 C 0.45462 0.07761 0.11917 0.0
C139 C 0.40286 0.01232 0.01508 0.0
C140 C 0.39645 0.99922 0.98006 0.0
C141 C 0.39275 0.96801 0.97108 0.0
C142 C 0.38438 0.95563 0.93833 0.0
C143 C 0.37932 0.97424 0.9142 0.0
C144 C 0.38413 1.00552 0.92284 0.0
C145 C 0.39257 0.0179 0.95546 0.0
C146 C 0.50145 0.08481 0.03801 0.0
C147 C 0.51554 0.9998 0.0264 0.0
O148 O 0.55185 0.091 0.10709 0.0
O149 O 0.56788 0.04899 0.11125 0.0
O150 O 0.46893 1.00996 0.09679 0.0
O151 O 0.50749 0.01225 0.13076 0.0
O152 O 0.48736 0.08095 0.11661 0.0
O153 O 0.43475 0.05498 0.1017 0.0
O154 O 0.413 0.996 0.03566 0.0
O155 O 0.4181 0.04085 0.01946 0.0
O156 O 0.50785 0.05947 0.04101 0.0
O157 O 0.47029 0.08405 0.04509 0.0
O158 O 0.48383 1.00078 0.0243 0.0
O159 O 0.53539 0.01782 0.04872 0.0
H160 H 0.6161 0.13148 0.13761 0.0
H161 H 0.63353 0.15221 0.19463 0.0
H162 H 0.57165 0.07252 0.23336 0.0
H163 H 0.55435 0.0519 0.17633 0.0
H164 H 0.39556 0.95303 0.98947 0.0
H165 H 0.38064 0.9314 0.93219 0.0
H166 H 0.38075 0.02033 0.90446 0.0
H167 H 0.39536 0.04204 0.96154 0.0
Sm168 Sm 0.52577 0.5232 0.51665 0.0
Sm169 Sm 0.5218 0.57341 0.56726 0.0
C170 C 0.5446 0.47906 0.47894 0.0
C171 C 0.55966 0.45429 0.4864 0.0
C172 C 0.5887 0.46002 0.50581 0.0
C173 C 0.60356 0.43645 0.51133 0.0
C174 C 0.58952 0.40676 0.49778 0.0
C175 C 0.55952 0.40089 0.47991 0.0
C176 C 0.54481 0.42451 0.47415 0.0
C177 C 0.46462 0.51638 0.54915 0.0
C178 C 0.55269 0.52213 0.5941 0.0
C179 C 0.50189 0.61609 0.6063 0.0
C180 C 0.48225 0.63796 0.60031 0.0
C181 C 0.45207 0.62876 0.58266 0.0
C182 C 0.43391 0.64992 0.57681 0.0
C183 C 0.44598 0.68053 0.58799 0.0
C184 C 0.47661 0.68988 0.60468 0.0
C185 C 0.49458 0.66865 0.61094 0.0
C186 C 0.58393 0.5794 0.53822 0.0
C187 C 0.49979 0.5771 0.48885 0.0
O188 O 0.56344 0.50641 0.48398 0.0
O189 O 0.5136 0.47724 0.489 0.0
O190 O 0.49279 0.52506 0.56282 0.0
O191 O 0.46785 0.51146 0.5168 0.0
O192 O 0.55206 0.5109 0.56227 0.0
O193 O 0.54005 0.54567 0.60389 0.0
O194 O 0.48584 0.58762 0.60436 0.0
O195 O 0.53145 0.62036 0.59183 0.0
O196 O 0.55668 0.57092 0.52259 0.0
O197 O 0.5789 0.5861 0.56996 0.0
O198 O 0.4954 0.58521 0.52114 0.0
O199 O 0.51469 0.55479 0.47962 0.0
H200 H 0.60041 0.48278 0.51609 0.0
H201 H 0.62681 0.4417 0.52495 0.0
H202 H 0.54789 0.37811 0.46966 0.0
H203 H 0.52211 0.41959 0.45965 0.0
H204 H 0.44244 0.60526 0.57346 0.0
H205 H 0.41046 0.64243 0.56358 0.0
H206 H 0.4862 0.71346 0.61356 0.0
H207 H 0.51807 0.67614 0.62412 0.0
Sm208 Sm 0.01998 0.50047 0.04055 0.0
Sm209 Sm 0.00811 0.55968 0.01106 0.0
C210 C 0.04957 0.45624 0.04855 0.0
C211 C 0.07577 0.45132 0.07057 0.0
C212 C 0.10997 0.46116 0.06239 0.0
C213 C 0.13463 0.45502 0.08193 0.0
C214 C 0.12577 0.43873 0.11007 0.0
C215 C 0.09164 0.42954 0.11876 0.0
C216 C 0.06694 0.43573 0.09921 0.0
C217 C 0.9951 0.53725 0.09004 0.0
C218 C 0.07406 0.56695 0.05549 0.0
C219 C 0.98424 0.60531 0.9953 0.0
C220 C 0.95564 0.61092 0.97783 0.0
C221 C 0.92407 0.60839 0.99362 0.0
C222 C 0.89783 0.61546 0.97735 0.0
C223 C 0.90268 0.62522 0.94504 0.0
C224 C 0.9341 0.62728 0.92912 0.0
C225 C 0.96033 0.62034 0.94542 0.0
C226 C 0.04641 0.52678 0.97228 0.0
C227 C 0.95054 0.4941 0.99918 0.0
O228 O 0.05961 0.47585 0.02645 0.0
O229 O 0.02016 0.45746 0.06213 0.0
O230 O 1.00101 0.54083 0.0597 0.0
O231 O 1.00217 0.51194 0.09582 0.0
O232 O 0.0688 0.53703 0.052 0.0
O233 O 0.0525 0.58141 0.04515 0.0
O234 O 0.97821 0.59398 0.02424 0.0
O235 O 0.00629 0.59418 0.97669 0.0
O236 O 0.02017 0.5159 0.98856 0.0
O237 O 0.05275 0.55622 0.97536 0.0
O238 O 0.95927 0.52369 0.9965 0.0
O239 O 0.96966 0.47939 0.01373 0.0
H240 H 0.11781 0.4731 0.04042 0.0
H241 H 0.16061 0.46204 0.0742 0.0
H242 H 0.08399 0.4172 0.14047 0.0
H243 H 0.04088 0.42784 0.10624 0.0
H244 H 0.9197 0.60142 0.01873 0.0
H245 H 0.87401 0.61403 0.99042 0.0
H246 H 0.93847 0.63436 0.90406 0.0
H247 H 0.98445 0.62267 0.93274 0.0
C248 C 0.25323 0.2173 0.35384 0.0
C249 C 0.28541 0.2287 0.36678 0.0
C250 C 0.22652 0.20469 0.3744 0.0
C251 C 0.23231 0.20306 0.40863 0.0
C252 C 0.2642 0.21625 0.42237 0.0
C253 C 0.2905 0.22909 0.4012 0.0
C254 C 0.19262 0.1913 0.35898 0.0
C255 C 0.27109 0.21501 0.45884 0.0
C256 C 0.15259 0.17444 0.45718 0.0
C257 C 0.15064 0.14321 0.45296 0.0
C258 C 0.18043 0.19479 0.44507 0.0
C259 C 0.20643 0.18338 0.42806 0.0
C260 C 0.20534 0.152 0.42546 0.0
C261 C 0.17741 0.13229 0.43797 0.0
C262 C 0.18103 0.22815 0.44877 0.0
C263 C 0.23253 0.13894 0.40733 0.0
H264 H 0.24905 0.21756 0.32734 0.0
H265 H 0.31532 0.23814 0.41132 0.0
H266 H 0.18702 0.16626 0.35845 0.0
H267 H 0.17272 0.1993 0.37428 0.0
H268 H 0.19145 0.19724 0.33295 0.0
H269 H 0.29478 0.23109 0.46697 0.0
H270 H 0.25023 0.22016 0.47507 0.0
H271 H 0.27318 0.1918 0.46275 0.0
H272 H 0.13201 0.18286 0.46926 0.0
H273 H 0.17577 0.1081 0.43444 0.0
H274 H 0.17424 0.23479 0.42459 0.0
H275 H 0.20644 0.24183 0.45522 0.0
H276 H 0.16295 0.23384 0.46833 0.0
H277 H 0.23194 0.14144 0.38013 0.0
H278 H 0.22952 0.11456 0.4105 0.0
H279 H 0.25755 0.15141 0.41655 0.0
C280 C 0.33375 0.93431 0.72263 0.0
C281 C 0.3103 0.9068 0.71553 0.0
C282 C 0.34501 0.94415 0.75529 0.0
C283 C 0.33212 0.9263 0.78165 0.0
C284 C 0.30834 0.89862 0.77485 0.0
C285 C 0.29811 0.88895 0.74173 0.0
C286 C 0.37088 0.97358 0.76155 0.0
C287 C 0.29381 0.87922 0.80255 0.0
C288 C 0.38281 0.94094 0.86121 0.0
C289 C 0.36691 0.96099 0.88067 0.0
C290 C 0.37144 0.92901 0.82896 0.0
C291 C 0.34326 0.93705 0.81639 0.0
C292 C 0.32665 0.95667 0.83639 0.0
C293 C 0.33885 0.96857 0.86823 0.0
C294 C 0.39001 0.90847 0.80806 0.0
C295 C 0.29631 0.96546 0.82397 0.0
H296 H 0.3436 0.94817 0.70255 0.0
H297 H 0.28122 0.86712 0.73646 0.0
H298 H 0.36088 0.98947 0.77974 0.0
H299 H 0.39347 0.9694 0.77278 0.0
H300 H 0.37852 0.9847 0.73821 0.0
H301 H 0.27464 0.85884 0.79326 0.0
H302 H 0.31404 0.87181 0.81455 0.0
H303 H 0.28217 0.8926 0.82227 0.0
H304 H 0.40458 0.93519 0.87092 0.0
H305 H 0.3263 0.98375 0.88359 0.0
H306 H 0.40022 0.91892 0.78495 0.0
H307 H 0.37261 0.88658 0.8001 0.0
H308 H 0.411 0.90393 0.82183 0.0
H309 H 0.30345 0.9787 0.80207 0.0
H310 H 0.28498 0.97927 0.84356 0.0
H311 H 0.27705 0.9449 0.81549 0.0
C312 C 0.64773 0.4386 0.71464 0.0
C313 C 0.63597 0.4413 0.74797 0.0
C314 C 0.63457 0.45127 0.68899 0.0
C315 C 0.60867 0.46692 0.69653 0.0
C316 C 0.59656 0.4696 0.73007 0.0
C317 C 0.61042 0.45698 0.75529 0.0
C318 C 0.64863 0.44813 0.65378 0.0
C319 C 0.56857 0.48549 0.73927 0.0
C320 C 0.59361 0.52489 0.63973 0.0
C321 C 0.56751 0.50779 0.61949 0.0
C322 C 0.60778 0.51169 0.66416 0.0
C323 C 0.59462 0.48089 0.66955 0.0
C324 C 0.56776 0.46371 0.64941 0.0
C325 C 0.55506 0.47718 0.62418 0.0
C326 C 0.63698 0.53069 0.68412 0.0
C327 C 0.55205 0.4312 0.65485 0.0
H328 H 0.66732 0.42649 0.70851 0.0
H329 H 0.6008 0.45904 0.78076 0.0
H330 H 0.62836 0.43694 0.63608 0.0
H331 H 0.65963 0.4709 0.64566 0.0
H332 H 0.66821 0.4348 0.65176 0.0
H333 H 0.56146 0.48522 0.76626 0.0
H334 H 0.57614 0.50936 0.73339 0.0
H335 H 0.54617 0.47448 0.72412 0.0
H336 H 0.60333 0.54855 0.63603 0.0
H337 H 0.53465 0.46401 0.60873 0.0
H338 H 0.65837 0.51949 0.68163 0.0
H339 H 0.62999 0.53277 0.7111 0.0
H340 H 0.64537 0.55377 0.67584 0.0
H341 H 0.5707 0.41716 0.64938 0.0
H342 H 0.52998 0.4216 0.6387 0.0
H343 H 0.54406 0.4295 0.68147 0.0
C344 C 0.95323 0.6668 0.22773 0.0
C345 C 0.94395 0.65382 0.25792 0.0
C346 C 0.96254 0.64966 0.19912 0.0
C347 C 0.96151 0.6185 0.2003 0.0
C348 C 0.95177 0.60524 0.23065 0.0
C349 C 0.94365 0.62312 0.25913 0.0
C350 C 0.97347 0.66491 0.1676 0.0
C351 C 0.9494 0.57198 0.23289 0.0
C352 C 0.95484 0.56534 0.11921 0.0
C353 C 0.9871 0.56001 0.11611 0.0
C354 C 0.94624 0.5847 0.14616 0.0
C355 C 0.97077 0.59965 0.17005 0.0
C356 C 0.00383 0.59523 0.16596 0.0
C357 C 0.01143 0.57511 0.13934 0.0
C358 C 0.91054 0.5881 0.14987 0.0
C359 C 0.03106 0.61128 0.19009 0.0
H360 H 0.95347 0.69047 0.22653 0.0
H361 H 0.93604 0.61275 0.28217 0.0
H362 H 0.99833 0.66113 0.15901 0.0
H363 H 0.95554 0.65485 0.14725 0.0
H364 H 0.97505 0.68967 0.17134 0.0
H365 H 0.93983 0.56477 0.25774 0.0
H366 H 0.93255 0.55824 0.21322 0.0
H367 H 0.97442 0.56688 0.22833 0.0
H368 H 0.93603 0.55347 0.10125 0.0
H369 H 0.03645 0.57102 0.13675 0.0
H370 H 0.9098 0.61237 0.15213 0.0
H371 H 0.89927 0.57876 0.17323 0.0
H372 H 0.89489 0.57621 0.12837 0.0
H373 H 0.03229 0.63597 0.19298 0.0
H374 H 0.05605 0.60761 0.18169 0.0
H375 H 0.02528 0.603 0.21517 0.0
C376 C 0.38947 0.21777 0.21799 0.0
C377 C 0.38111 0.23523 0.19419 0.0
C378 C 0.39939 0.19053 0.20818 0.0
C379 C 0.40161 0.18064 0.17365 0.0
C380 C 0.39275 0.19793 0.14954 0.0
C381 C 0.38261 0.22489 0.16007 0.0
C382 C 0.40867 0.17292 0.23477 0.0
C383 C 0.39501 0.18844 0.11246 0.0
C384 C 0.46246 0.13122 0.14455 0.0
C385 C 0.44093 0.10271 0.13675 0.0
C386 C 0.45004 0.15652 0.15699 0.0
C387 C 0.41517 0.15334 0.16253 0.0
C388 C 0.39336 0.12441 0.15598 0.0
C389 C 0.40643 0.09951 0.14283 0.0
C390 C 0.47424 0.18695 0.163 0.0
C391 C 0.35613 0.11993 0.16225 0.0
H392 H 0.3897 0.22592 0.24429 0.0
H393 H 0.37641 0.23822 0.14143 0.0
H394 H 0.39619 0.14858 0.23013 0.0
H395 H 0.43608 0.17463 0.23379 0.0
H396 H 0.40172 0.18147 0.26039 0.0
H397 H 0.38633 0.20385 0.09692 0.0
H398 H 0.42131 0.18814 0.10526 0.0
H399 H 0.37972 0.16514 0.10651 0.0
H400 H 0.48911 0.13416 0.13965 0.0
H401 H 0.38956 0.07765 0.13687 0.0
H402 H 0.47219 0.19643 0.1894 0.0
H403 H 0.46786 0.20307 0.14683 0.0
H404 H 0.50063 0.1856 0.15766 0.0
H405 H 0.35118 0.12777 0.1887 0.0
H406 H 0.34263 0.09588 0.15709 0.0
H407 H 0.34571 0.1338 0.14616 0.0
C408 C 0.19629 0.94651 0.65911 0.0
C409 C 0.18399 0.91581 0.66359 0.0
C410 C 0.17792 0.96207 0.64166 0.0
C411 C 0.1465 0.94655 0.62853 0.0
C412 C 0.13475 0.91519 0.63124 0.0
C413 C 0.1536 0.90014 0.64896 0.0
C414 C 0.19159 0.99536 0.63828 0.0
C415 C 0.102 0.89776 0.61599 0.0
C416 C 0.08081 0.99179 0.62423 0.0
C417 C 0.08377 0.99799 0.59079 0.0
C418 C 0.10153 0.97531 0.63686 0.0
C419 C 0.12454 0.96379 0.61498 0.0
C420 C 0.12686 0.96936 0.58081 0.0
C421 C 0.10683 0.98709 0.56926 0.0
C422 C 0.0989 0.97034 0.67361 0.0
C423 C 0.15035 0.95684 0.55638 0.0
H424 H 0.22015 0.9586 0.66962 0.0
H425 H 0.14436 0.87624 0.65164 0.0
H426 H 0.19235 0.9997 0.61153 0.0
H427 H 0.17482 1.00867 0.65176 0.0
H428 H 0.21721 1.00371 0.64849 0.0
H429 H 0.09806 0.87299 0.61734 0.0
H430 H 0.08091 0.9056 0.62933 0.0
H431 H 0.10119 0.90208 0.58932 0.0
H432 H 0.06249 1.00009 0.64049 0.0
H433 H 0.10837 0.99155 0.54312 0.0
H434 H 0.12367 0.97925 0.68551 0.0
H435 H 0.09147 0.94575 0.67649 0.0
H436 H 0.08036 0.98157 0.68733 0.0
H437 H 0.17553 0.97235 0.55789 0.0
H438 H 0.14171 0.95495 0.53015 0.0
H439 H 0.15288 0.93422 0.56216 0.0
C440 C 0.77904 0.39012 0.91764 0.0
C441 C 0.76283 0.40763 0.90003 0.0
C442 C 0.81004 0.40282 0.93347 0.0
C443 C 0.82518 0.43402 0.93243 0.0
C444 C 0.80886 0.45181 0.91481 0.0
C445 C 0.77825 0.43841 0.89866 0.0
C446 C 0.82664 0.38281 0.95138 0.0
C447 C 0.82367 0.48516 0.91315 0.0
C448 C 0.88804 0.47519 1.00001 0.0
C449 C 0.91883 0.4768 0.98315 0.0
C450 C 0.85755 0.46093 0.98405 0.0
C451 C 0.8577 0.44821 0.95017 0.0
C452 C 0.88896 0.44972 0.93316 0.0
C453 C 0.91906 0.46392 0.94985 0.0
C454 C 0.82508 0.45994 1.00331 0.0
C455 C 0.89064 0.43673 0.89712 0.0
H456 H 0.76767 0.3663 0.91874 0.0
H457 H 0.7661 0.45228 0.88529 0.0
H458 H 0.85227 0.38372 0.94101 0.0
H459 H 0.82918 0.39116 0.97836 0.0
H460 H 0.81235 0.35885 0.94912 0.0
H461 H 0.80764 0.49607 0.89916 0.0
H462 H 0.8272 0.49691 0.93886 0.0
H463 H 0.84871 0.48845 0.90077 0.0
H464 H 0.8878 0.48544 0.02564 0.0
H465 H 0.94286 0.46549 0.93663 0.0
H466 H 0.81067 0.43617 1.00352 0.0
H467 H 0.80948 0.47228 0.99077 0.0
H468 H 0.82914 0.47016 0.02964 0.0
H469 H 0.87856 0.41221 0.89474 0.0
H470 H 0.9168 0.43973 0.88741 0.0
H471 H 0.87662 0.4478 0.88108 0.0
C472 C 0.76762 0.62748 0.4549 0.0
C473 C 0.76853 0.65334 0.43845 0.0
C474 C 0.73832 0.6132 0.47138 0.0
C475 C 0.70929 0.62491 0.47103 0.0
C476 C 0.70995 0.65068 0.45398 0.0
C477 C 0.73959 0.66463 0.43802 0.0
C478 C 0.73854 0.58589 0.48956 0.0
C479 C 0.67948 0.66387 0.45312 0.0
C480 C 0.62219 0.57829 0.4884 0.0
C481 C 0.61678 0.58901 0.52167 0.0
C482 C 0.65294 0.58867 0.47206 0.0
C483 C 0.67831 0.61091 0.48917 0.0
C484 C 0.67304 0.62149 0.52294 0.0
C485 C 0.64248 0.61006 0.53893 0.0
C486 C 0.65795 0.57652 0.43621 0.0
C487 C 0.69916 0.64571 0.5418 0.0
H488 H 0.79 0.61878 0.45553 0.0
H489 H 0.7401 0.68457 0.4253 0.0
H490 H 0.73264 0.59053 0.51656 0.0
H491 H 0.71886 0.56631 0.47943 0.0
H492 H 0.7631 0.57948 0.48728 0.0
H493 H 0.68396 0.68365 0.4382 0.0
H494 H 0.65805 0.64642 0.44222 0.0
H495 H 0.67204 0.6711 0.47901 0.0
H496 H 0.60231 0.562 0.47506 0.0
H497 H 0.63827 0.61848 0.56465 0.0
H498 H 0.68147 0.56838 0.43367 0.0
H499 H 0.66045 0.5949 0.41957 0.0
H500 H 0.63682 0.55765 0.42736 0.0
H501 H 0.72314 0.63845 0.54187 0.0
H502 H 0.69137 0.65101 0.56816 0.0
H503 H 0.70401 0.66678 0.52904 0.0
C504 C 0.26593 0.38143 0.20697 0.0
C505 C 0.2857 0.37042 0.18148 0.0
C506 C 0.23996 0.395 0.19928 0.0
C507 C 0.233 0.39674 0.1653 0.0
C508 C 0.25291 0.38561 0.13957 0.0
C509 C 0.27919 0.37295 0.14799 0.0
C510 C 0.21995 0.40737 0.22745 0.0
C511 C 0.24622 0.38675 0.10301 0.0
C512 C 0.14665 0.39959 0.13709 0.0
C513 C 0.15194 0.42939 0.12853 0.0
C514 C 0.17234 0.38914 0.15073 0.0
C515 C 0.20417 0.40896 0.15611 0.0
C516 C 0.20913 0.43955 0.14934 0.0
C517 C 0.18302 0.44937 0.13547 0.0
C518 C 0.16592 0.35638 0.15764 0.0
C519 C 0.24236 0.46166 0.15577 0.0
H520 H 0.27114 0.37994 0.23296 0.0
H521 H 0.2944 0.36457 0.1282 0.0
H522 H 0.21793 0.4306 0.22353 0.0
H523 H 0.19413 0.39306 0.22782 0.0
H524 H 0.23125 0.40796 0.25232 0.0
H525 H 0.26362 0.37666 0.08605 0.0
H526 H 0.22016 0.37441 0.09703 0.0
H527 H 0.24878 0.41057 0.09771 0.0
H528 H 0.12284 0.38392 0.1316 0.0
H529 H 0.1871 0.4726 0.12953 0.0
H530 H 0.17259 0.35474 0.1838 0.0
H531 H 0.18201 0.34461 0.14085 0.0
H532 H 0.13936 0.34431 0.15372 0.0
H533 H 0.24958 0.46217 0.18224 0.0
H534 H 0.24172 0.48497 0.15061 0.0
H535 H 0.26217 0.45424 0.13975 0.0
C536 C 0.60145 0.22608 0.9411 0.0
C537 C 0.63125 0.241 0.95754 0.0
C538 C 0.58054 0.19984 0.95283 0.0
C539 C 0.58931 0.18834 0.98196 0.0
C540 C 0.61942 0.20322 0.99844 0.0
C541 C 0.63995 0.22908 0.98601 0.0
C542 C 0.5489 0.18454 0.93422 0.0
C543 C 0.62979 0.19208 0.02966 0.0
C544 C 0.51993 0.14035 0.03267 0.0
C545 C 0.52483 0.11104 0.02439 0.0
C546 C 0.54076 0.16558 0.01925 0.0
C547 C 0.56665 0.16144 0.99603 0.0
C548 C 0.57151 0.13175 0.98733 0.0
C549 C 0.55092 0.107 1.00203 0.0
C550 C 0.53518 0.19673 0.03018 0.0
C551 C 0.59808 0.12608 0.96202 0.0
H552 H 0.59441 0.2349 0.91906 0.0
H553 H 0.66283 0.24022 0.99901 0.0
H554 H 0.54778 0.16001 0.92844 0.0
H555 H 0.52676 0.18665 0.95024 0.0
H556 H 0.54703 0.1945 0.91044 0.0
H557 H 0.65367 0.20641 0.03987 0.0
H558 H 0.60997 0.19177 0.04932 0.0
H559 H 0.63284 0.16853 0.0241 0.0
H560 H 0.49989 0.14361 0.05008 0.0
H561 H 0.55461 0.08435 0.99527 0.0
H562 H 0.52876 0.20708 1.00822 0.0
H563 H 0.55853 0.21162 0.04082 0.0
H564 H 0.51476 0.19625 0.04927 0.0
H565 H 0.59356 0.1341 0.93779 0.0
H566 H 0.59854 0.10173 0.95767 0.0
H567 H 0.62312 0.1391 0.97061 0.0
C568 C 0.95247 0.80763 0.41527 0.0
C569 C 0.92359 0.78615 0.42322 0.0
C570 C 0.9606 0.83647 0.4335 0.0
C571 C 0.93904 0.84414 0.45982 0.0
C572 C 0.90965 0.82269 0.46757 0.0
C573 C 0.90246 0.79403 0.44942 0.0
C574 C 0.99248 0.8586 0.42492 0.0
C575 C 0.8856 0.83006 0.49494 0.0
C576 C 0.97154 0.90622 0.52942 0.0
C577 C 0.96177 0.93108 0.51855 0.0
C578 C 0.96501 0.87804 0.51015 0.0
C579 C 0.94731 0.87434 0.47979 0.0
C580 C 0.93656 0.89922 0.4692 0.0
C581 C 0.94454 0.92748 0.48838 0.0
C582 C 0.97732 0.85229 0.52217 0.0
C583 C 0.91645 0.89593 0.43775 0.0
H584 H 0.96894 0.80178 0.39518 0.0
H585 H 0.87983 0.77781 0.45563 0.0
H586 H 0.98663 0.87969 0.41793 0.0
H587 H 0.00876 0.86489 0.44721 0.0
H588 H 0.00665 0.84923 0.40391 0.0
H589 H 0.86387 0.8108 0.49796 0.0
H590 H 0.89867 0.83638 0.51924 0.0
H591 H 0.87612 0.84983 0.48919 0.0
H592 H 0.98535 0.9091 0.5525 0.0
H593 H 0.93698 0.94672 0.47999 0.0
H594 H 0.99296 0.84319 0.50235 0.0
H595 H 0.95573 0.83356 0.52731 0.0
H596 H 0.99229 0.85933 0.54534 0.0
H597 H 0.93126 0.88939 0.41567 0.0
H598 H 0.90899 0.91715 0.43362 0.0
H599 H 0.8935 0.87761 0.43923 0.0
C600 C 0.33058 0.79425 0.5568 0.0
C601 C 0.33565 0.81693 0.58354 0.0
C602 C 0.34775 0.77088 0.5553 0.0
C603 C 0.36984 0.77038 0.5814 0.0
C604 C 0.37434 0.79307 0.60878 0.0
C605 C 0.35729 0.81629 0.60934 0.0
C606 C 0.34269 0.74703 0.52572 0.0
C607 C 0.39729 0.79296 0.63733 0.0
C608 C 0.39293 0.69752 0.59649 0.0
C609 C 0.42578 0.70251 0.58386 0.0
C610 C 0.37406 0.71923 0.59518 0.0
C611 C 0.38837 0.74617 0.58034 0.0
C612 C 0.42122 0.75083 0.56656 0.0
C613 C 0.43974 0.72895 0.56878 0.0
C614 C 0.33942 0.71394 0.61089 0.0
C615 C 0.43704 0.77918 0.55022 0.0
H616 H 0.31372 0.79511 0.53695 0.0
H617 H 0.36086 0.83405 0.62998 0.0
H618 H 0.36695 0.74723 0.51243 0.0
H619 H 0.33363 0.72423 0.53447 0.0
H620 H 0.32446 0.75058 0.50765 0.0
H621 H 0.39645 0.81136 0.65758 0.0
H622 H 0.3903 0.77095 0.64826 0.0
H623 H 0.42345 0.79572 0.62785 0.0
H624 H 0.38246 0.67709 0.60847 0.0
H625 H 0.46517 0.73251 0.55891 0.0
H626 H 0.3209 0.71636 0.59255 0.0
H627 H 0.33891 0.73125 0.63238 0.0
H628 H 0.33143 0.69116 0.62002 0.0
H629 H 0.42059 0.78247 0.53029 0.0
H630 H 0.46205 0.77844 0.53901 0.0
H631 H 0.43993 0.7992 0.56904 0.0
C632 C 0.71458 0.8044 0.74545 0.0
C633 C 0.71156 0.8024 0.78009 0.0
C634 C 0.73928 0.82698 0.73216 0.0
C635 C 0.76224 0.84722 0.75404 0.0
C636 C 0.75814 0.84631 0.7892 0.0
C637 C 0.73243 0.82408 0.80186 0.0
C638 C 0.74213 0.82779 0.6946 0.0
C639 C 0.7825 0.86719 0.81326 0.0
C640 C 0.85061 0.87387 0.72082 0.0
C641 C 0.85165 0.90404 0.71592 0.0
C642 C 0.82159 0.85516 0.73303 0.0
C643 C 0.7927 0.8668 0.74019 0.0
C644 C 0.79325 0.89702 0.73461 0.0
C645 C 0.82281 0.91536 0.72266 0.0
C646 C 0.82198 0.82298 0.7385 0.0
C647 C 0.76263 0.90988 0.74127 0.0
H648 H 0.69837 0.78756 0.72866 0.0
H649 H 0.73038 0.8222 0.82863 0.0
H650 H 0.74778 0.85144 0.68786 0.0
H651 H 0.76298 0.81748 0.68479 0.0
H652 H 0.71879 0.81501 0.68188 0.0
H653 H 0.77434 0.86524 0.83983 0.0
H654 H 0.80744 0.86164 0.8099 0.0
H655 H 0.78563 0.89106 0.80792 0.0
H656 H 0.87253 0.86476 0.7149 0.0
H657 H 0.82348 0.9387 0.71905 0.0
H658 H 0.80273 0.80693 0.72282 0.0
H659 H 0.81569 0.81906 0.76507 0.0
H660 H 0.8467 0.81765 0.7322 0.0
H661 H 0.74154 0.89614 0.72589 0.0
H662 H 0.76711 0.93378 0.73547 0.0
H663 H 0.75466 0.90871 0.76794 0.0
C664 C 0.66285 0.16014 0.4072 0.0
C665 C 0.69796 0.16806 0.40755 0.0
C666 C 0.64552 0.15532 0.37704 0.0
C667 C 0.66382 0.15839 0.34654 0.0
C668 C 0.69915 0.16831 0.34682 0.0
C669 C 0.71589 0.17294 0.37743 0.0
C670 C 0.60781 0.14487 0.37774 0.0
C671 C 0.71935 0.17205 0.31463 0.0
C672 C 0.62849 0.1057 0.27112 0.0
C673 C 0.61685 0.12511 0.25213 0.0
C674 C 0.64337 0.11628 0.30214 0.0
C675 C 0.64657 0.14702 0.31445 0.0
C676 C 0.63401 0.16659 0.29587 0.0
C677 C 0.61935 0.15539 0.26471 0.0
C678 C 0.65642 0.09468 0.32132 0.0
C679 C 0.63651 0.19933 0.30867 0.0
H680 H 0.64885 0.15669 0.4305 0.0
H681 H 0.74301 0.17868 0.37752 0.0
H682 H 0.59635 0.1572 0.36074 0.0
H683 H 0.60057 0.12044 0.36875 0.0
H684 H 0.59715 0.14811 0.40338 0.0
H685 H 0.74615 0.18289 0.31927 0.0
H686 H 0.71775 0.14955 0.30045 0.0
H687 H 0.70901 0.18593 0.2985 0.0
H688 H 0.62695 0.0824 0.26117 0.0
H689 H 0.61001 0.17029 0.25008 0.0
H690 H 0.64511 0.09412 0.34689 0.0
H691 H 0.68394 0.10261 0.32412 0.0
H692 H 0.65094 0.07126 0.30866 0.0
H693 H 0.62423 0.20087 0.33371 0.0
H694 H 0.62473 0.21134 0.29151 0.0
H695 H 0.6632 0.21122 0.31174 0.0
C696 C 0.43201 0.65376 0.33866 0.0
C697 C 0.44618 0.68508 0.3403 0.0
C698 C 0.43993 0.63543 0.36218 0.0
C699 C 0.46341 0.64832 0.38779 0.0
C700 C 0.47848 0.67976 0.38903 0.0
C701 C 0.46934 0.69774 0.36579 0.0
C702 C 0.42235 0.60236 0.36017 0.0
C703 C 0.50445 0.69447 0.41497 0.0
C704 C 0.46437 0.61058 0.46934 0.0
C705 C 0.48947 0.59434 0.46268 0.0
C706 C 0.45508 0.62742 0.44505 0.0
C707 C 0.47199 0.62913 0.41343 0.0
C708 C 0.49753 0.61288 0.40672 0.0
C709 C 0.50552 0.59542 0.43106 0.0
C710 C 0.42696 0.64332 0.45324 0.0
C711 C 0.51697 0.61434 0.37398 0.0
H712 H 0.41379 0.64361 0.31948 0.0
H713 H 0.48058 0.72179 0.36746 0.0
H714 H 0.4409 0.58803 0.35832 0.0
H715 H 0.40735 0.5977 0.38344 0.0
H716 H 0.40544 0.59547 0.33835 0.0
H717 H 0.51497 0.71877 0.4119 0.0
H718 H 0.49326 0.6926 0.4405 0.0
H719 H 0.52522 0.68252 0.41325 0.0
H720 H 0.45164 0.60988 0.49355 0.0
H721 H 0.52515 0.58323 0.4256 0.0
H722 H 0.40735 0.63589 0.43389 0.0
H723 H 0.43646 0.66811 0.45292 0.0
H724 H 0.41532 0.63879 0.47822 0.0
H725 H 0.49993 0.60441 0.35288 0.0
H726 H 0.5374 0.602 0.37334 0.0
H727 H 0.52804 0.63828 0.36974 0.0
C728 C 0.13446 0.4238 0.83852 0.0
C729 C 0.13499 0.43387 0.8066 0.0
C730 C 0.12123 0.43863 0.86656 0.0
C731 C 0.10678 0.46335 0.86237 0.0
C732 C 0.10694 0.47339 0.83003 0.0
C733 C 0.12166 0.45893 0.80269 0.0
C734 C 0.12263 0.42776 0.90065 0.0
C735 C 0.09086 0.49896 0.82415 0.0
C736 C 0.04375 0.48259 0.9289 0.0
C737 C 0.06238 0.50919 0.94602 0.0
C738 C 0.05775 0.46755 0.9015 0.0
C739 C 0.09159 0.47875 0.89178 0.0
C740 C 0.1108 0.50501 0.9099 0.0
C741 C 0.09578 0.52019 0.93637 0.0
C742 C 0.03597 0.44031 0.88225 0.0
C743 C 0.14719 0.51719 0.90118 0.0
H744 H 0.14468 0.40437 0.84159 0.0
H745 H 0.12151 0.46645 0.77793 0.0
H746 H 0.13418 0.447 0.91892 0.0
H747 H 0.09689 0.41841 0.9099 0.0
H748 H 0.13716 0.40999 0.90015 0.0
H749 H 0.09069 0.50246 0.79716 0.0
H750 H 0.06467 0.49431 0.83387 0.0
H751 H 0.10454 0.5203 0.83799 0.0
H752 H 0.01777 0.47424 0.93605 0.0
H753 H 0.11024 0.54073 0.94964 0.0
H754 H 0.04698 0.42033 0.88251 0.0
H755 H 0.03477 0.44464 0.85564 0.0
H756 H 0.01006 0.4347 0.89271 0.0
H757 H 0.16114 0.49903 0.90089 0.0
H758 H 0.15928 0.53648 0.91917 0.0
H759 H 0.14944 0.52489 0.87569 0.0
C760 C 0.59401 0.903 0.88144 0.0
C761 C 0.60252 0.87782 0.89295 0.0
C762 C 0.57742 0.92157 0.90252 0.0
C763 C 0.5686 0.91443 0.93568 0.0
C764 C 0.57561 0.88815 0.94689 0.0
C765 C 0.59288 0.87034 0.92551 0.0
C766 C 0.57072 0.94958 0.88978 0.0
C767 C 0.5656 0.8793 0.98173 0.0
C768 C 0.56356 0.97963 1.00109 0.0
C769 C 0.52902 0.97796 1.00315 0.0
C770 C 0.57665 0.95896 0.97932 0.0
C771 C 0.55464 0.93583 0.95941 0.0
C772 C 0.5197 0.93373 0.9617 0.0
C773 C 0.50732 0.95497 0.98338 0.0
C774 C 0.61409 0.96203 0.97741 0.0
C775 C 0.4954 0.90914 0.94124 0.0
H776 H 0.60133 0.90884 0.85628 0.0
H777 H 0.5989 0.85059 0.93433 0.0
H778 H 0.54415 0.95053 0.89427 0.0
H779 H 0.58629 0.97001 0.90371 0.0
H780 H 0.57653 0.95055 0.86257 0.0
H781 H 0.57006 0.85678 0.98551 0.0
H782 H 0.58009 0.89639 1.00059 0.0
H783 H 0.5387 0.87882 0.98661 0.0
H784 H 0.5805 0.99729 0.01629 0.0
H785 H 0.48056 0.95335 0.98503 0.0
H786 H 0.62327 0.96507 0.95132 0.0
H787 H 0.62029 0.94106 0.98432 0.0
H788 H 0.62781 0.98148 0.99428 0.0
H789 H 0.49974 0.91189 0.91416 0.0
H790 H 0.46889 0.90949 0.94758 0.0
H791 H 0.49949 0.88659 0.94535 0.0
C792 C 0.84206 0.14999 0.53228 0.0
C793 C 0.81319 0.13286 0.51606 0.0
C794 C 0.86803 0.13632 0.53917 0.0
C795 C 0.86488 0.10514 0.52905 0.0
C796 C 0.83729 0.0887 0.50973 0.0
C797 C 0.81158 0.10274 0.50372 0.0
C798 C 0.8973 0.15448 0.55969 0.0
C799 C 0.83332 0.05549 0.49812 0.0
C800 C 0.9325 0.06267 0.53743 0.0
C801 C 0.9225 0.04956 0.56726 0.0
C802 C 0.91516 0.08235 0.5254 0.0
C803 C 0.88671 0.08826 0.54339 0.0
C804 C 0.87673 0.07525 0.5738 0.0
C805 C 0.89488 0.05607 0.58542 0.0
C806 C 0.92677 0.09619 0.49318 0.0
C807 C 0.84632 0.0809 0.5936 0.0
H808 H 0.84326 0.17337 0.5417 0.0
H809 H 0.78941 0.08972 0.49067 0.0
H810 H 0.89484 0.14749 0.58552 0.0
H811 H 0.92121 0.15008 0.54891 0.0
H812 H 0.89861 0.17918 0.56123 0.0
H813 H 0.81305 0.04725 0.47952 0.0
H814 H 0.85699 0.05111 0.48673 0.0
H815 H 0.82719 0.04209 0.52001 0.0
H816 H 0.9536 0.05724 0.52334 0.0
H817 H 0.88733 0.04605 0.60868 0.0
H818 H 0.92948 0.12107 0.49684 0.0
H819 H 0.90777 0.08712 0.47352 0.0
H820 H 0.95106 0.09141 0.48394 0.0
H821 H 0.84842 0.10556 0.59939 0.0
H822 H 0.84296 0.07019 0.61752 0.0
H823 H 0.8235 0.07174 0.57843 0.0
C824 C 0.25865 0.64743 0.11798 0.0
C825 C 0.25925 0.66753 0.14709 0.0
C826 C 0.22828 0.63108 0.10364 0.0
C827 C 0.19753 0.63492 0.1186 0.0
C828 C 0.19788 0.65497 0.14814 0.0
C829 C 0.22869 0.67096 0.16208 0.0
C830 C 0.22913 0.60993 0.07219 0.0
C831 C 0.16565 0.65964 0.16491 0.0
C832 C 0.11984 0.61409 0.06399 0.0
C833 C 0.10519 0.58469 0.07202 0.0
C834 C 0.14986 0.6307 0.07895 0.0
C835 C 0.16512 0.61793 0.10319 0.0
C836 C 0.14991 0.58852 0.11195 0.0
C837 C 0.12041 0.57213 0.09596 0.0
C838 C 0.16557 0.66169 0.06835 0.0
C839 C 0.16492 0.57425 0.13808 0.0
H840 H 0.28204 0.64449 0.10619 0.0
H841 H 0.22881 0.68648 0.18449 0.0
H842 H 0.2149 0.58673 0.0763 0.0
H843 H 0.21686 0.61746 0.05151 0.0
H844 H 0.25506 0.6089 0.0641 0.0
H845 H 0.17011 0.67584 0.18785 0.0
H846 H 0.15085 0.66831 0.14724 0.0
H847 H 0.15019 0.6377 0.17181 0.0
H848 H 0.10826 0.62385 0.04539 0.0
H849 H 0.10899 0.54953 0.10254 0.0
H850 H 0.19102 0.66203 0.05778 0.0
H851 H 0.1684 0.67883 0.09043 0.0
H852 H 0.15056 0.66846 0.04927 0.0
H853 H 0.19002 0.57117 0.12951 0.0
H854 H 0.14909 0.55189 0.14334 0.0
H855 H 0.16833 0.5894 0.16182 0.0
C856 C 0.29688 0.47774 0.66113 0.0
C857 C 0.28184 0.44672 0.6576 0.0
C858 C 0.32733 0.48925 0.6446 0.0
C859 C 0.34243 0.46943 0.62296 0.0
C860 C 0.3272 0.43807 0.61918 0.0
C861 C 0.29741 0.42704 0.63699 0.0
C862 C 0.34322 0.52266 0.65008 0.0
C863 C 0.34203 0.41626 0.59582 0.0
C864 C 0.40205 0.50261 0.55396 0.0
C865 C 0.43335 0.50492 0.568 0.0
C866 C 0.37227 0.49142 0.57173 0.0
C867 C 0.37388 0.48158 0.60391 0.0
C868 C 0.40555 0.48342 0.61788 0.0
C869 C 0.43487 0.49548 0.59998 0.0
C870 C 0.33906 0.49013 0.55607 0.0
C871 C 0.40852 0.47257 0.65169 0.0
H872 H 0.28495 0.49298 0.67714 0.0
H873 H 0.28563 0.40308 0.63389 0.0
H874 H 0.36932 0.52614 0.65873 0.0
H875 H 0.34443 0.53297 0.62606 0.0
H876 H 0.32919 0.53482 0.66886 0.0
H877 H 0.32699 0.39261 0.59541 0.0
H878 H 0.34371 0.42312 0.56995 0.0
H879 H 0.36787 0.41689 0.6035 0.0
H880 H 0.40088 0.50993 0.52926 0.0
H881 H 0.45908 0.49692 0.61076 0.0
H882 H 0.32461 0.50375 0.57258 0.0
H883 H 0.32402 0.46646 0.55348 0.0
H884 H 0.34205 0.49877 0.53097 0.0
H885 H 0.39701 0.48609 0.67135 0.0
H886 H 0.43498 0.47434 0.65836 0.0
H887 H 0.3947 0.44861 0.65192 0.0
C888 C 0.76067 0.65821 0.83344 0.0
C889 C 0.74269 0.67746 0.85153 0.0
C890 C 0.78724 0.64988 0.84803 0.0
C891 C 0.79591 0.66096 0.88155 0.0
C892 C 0.77801 0.6805 0.89994 0.0
C893 C 0.7516 0.68855 0.88468 0.0
C894 C 0.80592 0.62909 0.82766 0.0
C895 C 0.78669 0.69279 0.93575 0.0
C896 C 0.8424 0.61678 0.92993 0.0
C897 C 0.87535 0.63406 0.92834 0.0
C898 C 0.81628 0.62531 0.91478 0.0
C899 C 0.82336 0.65167 0.89757 0.0
C900 C 0.8566 0.66907 0.89563 0.0
C901 C 0.88219 0.6601 0.91115 0.0
C902 C 0.7811 0.60619 0.91724 0.0
C903 C 0.8651 0.69723 0.87733 0.0
H904 H 0.75404 0.64964 0.80777 0.0
H905 H 0.73791 0.70352 0.89877 0.0
H906 H 0.83311 0.63971 0.82708 0.0
H907 H 0.80284 0.6077 0.83955 0.0
H908 H 0.79698 0.62351 0.80145 0.0
H909 H 0.77036 0.70779 0.94655 0.0
H910 H 0.78428 0.67382 0.95157 0.0
H911 H 0.81312 0.70577 0.93703 0.0
H912 H 0.83708 0.59642 0.94282 0.0
H913 H 0.90755 0.67378 0.91028 0.0
H914 H 0.77106 0.5982 0.89177 0.0
H915 H 0.76448 0.62001 0.93003 0.0
H916 H 0.77986 0.58618 0.93123 0.0
H917 H 0.85693 0.6917 0.85091 0.0
H918 H 0.89236 0.7078 0.87748 0.0
H919 H 0.85148 0.71409 0.8891 0.0
C920 C 0.44391 0.84534 0.21281 0.0
C921 C 0.41813 0.82178 0.19897 0.0
C922 C 0.4528 0.8737 0.19922 0.0
C923 C 0.43567 0.87893 0.17102 0.0
C924 C 0.41005 0.85511 0.1567 0.0
C925 C 0.40173 0.82714 0.17067 0.0
C926 C 0.4804 0.8983 0.21529 0.0
C927 C 0.39129 0.85907 0.12641 0.0
C928 C 0.43768 0.96113 0.15454 0.0
C929 C 0.46314 0.96671 0.13017 0.0
C930 C 0.42817 0.93267 0.16767 0.0
C931 C 0.44458 0.90912 0.15632 0.0
C932 C 0.46958 0.91452 0.1308 0.0
C933 C 0.47867 0.94318 0.11833 0.0
C934 C 0.40111 0.92806 0.1944 0.0
C935 C 0.48746 0.89027 0.11727 0.0
H936 H 0.45679 0.84183 0.23462 0.0
H937 H 0.38189 0.80936 0.15929 0.0
H938 H 0.5005 0.90544 0.19654 0.0
H939 H 0.47048 0.91846 0.22413 0.0
H940 H 0.49151 0.8909 0.23687 0.0
H941 H 0.37047 0.8392 0.1196 0.0
H942 H 0.38085 0.87951 0.13111 0.0
H943 H 0.40876 0.86248 0.10462 0.0
H944 H 0.42601 0.97936 0.16422 0.0
H945 H 0.49873 0.94752 0.09981 0.0
H946 H 0.41151 0.92312 0.21777 0.0
H947 H 0.38073 0.90826 0.18632 0.0
H948 H 0.39024 0.94821 0.20007 0.0
H949 H 0.50192 0.88466 0.13755 0.0
H950 H 0.50492 0.89738 0.09621 0.0
H951 H 0.46906 0.86926 0.1084 0.0
C952 C 0.11417 0.24084 0.69549 0.0
C953 C 0.10016 0.26167 0.68088 0.0
C954 C 0.10393 0.20957 0.68602 0.0
C955 C 0.07921 0.19882 0.66123 0.0
C956 C 0.06519 0.21972 0.64617 0.0
C957 C 0.07576 0.25083 0.65622 0.0
C958 C 0.11955 0.188 0.70253 0.0
C959 C 0.03887 0.20919 0.6195 0.0
C960 C 0.07228 0.12264 0.61056 0.0
C961 C 0.04474 0.10454 0.62592 0.0
C962 C 0.08466 0.15298 0.62271 0.0
C963 C 0.06845 0.16579 0.65039 0.0
C964 C 0.04095 0.14737 0.66647 0.0
C965 C 0.02964 0.11674 0.65426 0.0
C966 C 0.11428 0.17158 0.60507 0.0
C967 C 0.02258 0.16039 0.69557 0.0
H968 H 0.13294 0.24894 0.71464 0.0
H969 H 0.06479 0.26668 0.64473 0.0
H970 H 0.09983 0.17138 0.71469 0.0
H971 H 0.1322 0.17501 0.68331 0.0
H972 H 0.13813 0.19989 0.72171 0.0
H973 H 0.03076 0.22833 0.60995 0.0
H974 H 0.04866 0.19615 0.59808 0.0
H975 H 0.01662 0.19381 0.62978 0.0
H976 H 0.08379 0.11311 0.58849 0.0
H977 H 0.00792 0.10281 0.66569 0.0
H978 H 0.13379 0.18311 0.62345 0.0
H979 H 0.10629 0.18943 0.59283 0.0
H980 H 0.12559 0.1576 0.58565 0.0
H981 H 0.04037 0.17149 0.7157 0.0
H982 H 1.0026 0.14286 0.70619 0.0
H983 H 0.011 0.17803 0.68721 0.0
C984 C 0.72617 0.31193 0.47386 0.0
C985 C 0.71427 0.28111 0.47731 0.0
C986 C 0.70625 0.33251 0.4838 0.0
C987 C 0.67337 0.32166 0.49626 0.0
C988 C 0.66192 0.29074 0.50135 0.0
C989 C 0.68274 0.27083 0.49213 0.0
C990 C 0.71958 0.36554 0.47899 0.0
C991 C 0.6268 0.27823 0.51393 0.0
C992 C 0.62434 0.38005 0.52838 0.0
C993 C 0.60802 0.38274 0.49913 0.0
C994 C 0.64502 0.3595 0.52835 0.0
C995 C 0.64939 0.34149 0.49833 0.0
C996 C 0.63192 0.34331 0.46917 0.0
C997 C 0.61153 0.36397 0.46992 0.0
C998 C 0.66292 0.35771 0.56 0.0
C999 C 0.63574 0.32425 0.43671 0.0
H1000 H 0.75078 0.31982 0.46285 0.0
H1001 H 0.67352 0.24689 0.49472 0.0
H1002 H 0.70654 0.37151 0.45783 0.0
H1003 H 0.71462 0.38 0.50174 0.0
H1004 H 0.74693 0.3709 0.47347 0.0
H1005 H 0.62381 0.25517 0.52199 0.0
H1006 H 0.61993 0.29328 0.53524 0.0
H1007 H 0.60884 0.27695 0.49355 0.0
H1008 H 0.62135 0.39435 0.5511 0.0
H1009 H 0.59942 0.36631 0.44711 0.0
H1010 H 0.69035 0.36546 0.55609 0.0
H1011 H 0.65804 0.33393 0.56618 0.0
H1012 H 0.65511 0.37182 0.58175 0.0
H1013 H 0.662 0.3304 0.42739 0.0
H1014 H 0.61899 0.32728 0.41687 0.0
H1015 H 0.63013 0.29993 0.44093 0.0
loop_
_geom_bond_atom_site_label_1
_geom_bond_atom_site_label_2
_geom_bond_distance
_geom_bond_site_symmetry_2
_ccdc_geom_bond_type
O0 Cd1 2.300 . S
O0 C7 1.275 . S
Cd1 O0 2.300 . S
Cd1 O9 2.381 . S
Cd1 O10 2.378 . S
O2 Cd3 2.385 . S
O2 C7 1.255 . S
Cd3 O2 2.385 . S
Cd3 O4 2.317 . S
O4 Cd3 2.317 . S
O4 C5 1.232 . S
C5 O4 1.232 . S
C5 O6 1.218 . S
O6 C5 1.218 . S
C7 O0 1.275 . S
C7 O2 1.255 . S
C8 O9 1.258 . S
C8 O10 1.256 . S
O9 Cd1 2.381 . S
O9 C8 1.258 . S
O10 Cd1 2.378 . S
O10 C8 1.256 . S
O11 Cd12 2.300 . S
O11 C18 1.275 . S
Cd12 O11 2.300 . S
Cd12 O20 2.381 . S
Cd12 O21 2.378 . S
O13 Cd14 2.385 . S
O13 C18 1.255 . S
Cd14 O13 2.385 . S
Cd14 O15 2.317 . S
O15 Cd14 2.317 . S
O15 C16 1.232 . S
C16 O15 1.232 . S
C16 O17 1.218 . S
O17 C16 1.218 . S
C18 O11 1.275 . S
C18 O13 1.255 . S
C19 O20 1.258 . S
C19 O21 1.256 . S
O20 Cd12 2.381 . S
O20 C19 1.258 . S
O21 Cd12 2.378 . S
O21 C19 1.256 . S
O22 Cd23 2.300 . S
O22 C29 1.275 . S
Cd23 O22 2.300 . S
Cd23 O31 2.381 . S
Cd23 O32 2.378 . S
O24 Cd25 2.385 . S
O24 C29 1.255 . S
Cd25 O24 2.385 . S
Cd25 O26 2.317 . S
O26 Cd25 2.317 . S
O26 C27 1.232 . S
C27 O26 1.232 . S
C27 O28 1.218 . S
O28 C27 1.218 . S
C29 O22 1.275 . S
C29 O24 1.255 . S
C30 O31 1.258 . S
C30 O32 1.256 . S
O31 Cd23 2.381 . S
O31 C30 1.258 . S
O32 Cd23 2.378 . S
O32 C30 1.256 . S
O33 Cd34 2.300 . S
O33 C40 1.275 . S
Cd34 O33 2.300 . S
Cd34 O42 2.381 . S
Cd34 O43 2.378 . S
O35 Cd36 2.385 . S
O35 C40 1.255 . S
Cd36 O35 2.385 . S
Cd36 O37 2.317 . S
O37 Cd36 2.317 . S
O37 C38 1.232 . S
C38 O37 1.232 . S
C38 O39 1.218 . S
O39 C38 1.218 . S
C40 O33 1.275 . S
C40 O35 1.255 . S
C41 O42 1.258 . S
C41 O43 1.256 . S
O42 Cd34 2.381 . S
O42 C41 1.258 . S
O43 Cd34 2.378 . S
O43 C41 1.256 . S
O44 Cd45 2.300 . S
O44 C51 1.275 . S
Cd45 O44 2.300 . S
Cd45 O53 2.381 . S
Cd45 O54 2.378 . S
O46 Cd47 2.385 . S
O46 C51 1.255 . S
Cd47 O46 2.385 . S
Cd47 O48 2.317 . S
O48 Cd47 2.317 . S
O48 C49 1.232 . S
C49 O48 1.232 . S
C49 O50 1.218 . S
O50 C49 1.218 . S
C51 O44 1.275 . S
C51 O46 1.255 . S
C52 O53 1.258 . S
C52 O54 1.256 . S
O53 Cd45 2.381 . S
O53 C52 1.258 . S
O54 Cd45 2.378 . S
O54 C52 1.256 . S
O55 Cd56 2.300 . S
O55 C62 1.275 . S
Cd56 O55 2.300 . S
Cd56 O64 2.381 . S
Cd56 O65 2.378 . S
O57 Cd58 2.385 . S
O57 C62 1.255 . S
Cd58 O57 2.385 . S
Cd58 O59 2.317 . S
O59 Cd58 2.317 . S
O59 C60 1.232 . S
C60 O59 1.232 . S
C60 O61 1.218 . S
O61 C60 1.218 . S
C62 O55 1.275 . S
C62 O57 1.255 . S
C63 O64 1.258 . S
C63 O65 1.256 . S
O64 Cd56 2.381 . S
O64 C63 1.258 . S
O65 Cd56 2.378 . S
O65 C63 1.256 . S
O66 Cd67 2.300 . S
O66 C73 1.275 . S
Cd67 O66 2.300 . S
Cd67 O75 2.381 . S
Cd67 O76 2.378 . S
O68 Cd69 2.385 . S
O68 C73 1.255 . S
Cd69 O68 2.385 . S
Cd69 O70 2.317 . S
O70 Cd69 2.317 . S
O70 C71 1.232 . S
C71 O70 1.232 . S
C71 O72 1.218 . S
O72 C71 1.218 . S
C73 O66 1.275 . S
C73 O68 1.255 . S
C74 O75 1.258 . S
C74 O76 1.256 . S
O75 Cd67 2.381 . S
O75 C74 1.258 . S
O76 Cd67 2.378 . S
O76 C74 1.256 . S
O77 Cd78 2.300 . S
O77 C84 1.275 . S
Cd78 O77 2.300 . S
Cd78 O86 2.381 . S
Cd78 O87 2.378 . S
O79 Cd80 2.385 . S
O79 C84 1.255 . S
Cd80 O79 2.385 . S
Cd80 O81 2.317 . S
O81 Cd80 2.317 . S
O81 C82 1.232 . S
C82 O81 1.232 . S
C82 O83 1.218 . S
O83 C82 1.218 . S
C84 O77 1.275 . S
C84 O79 1.255 . S
C85 O86 1.258 . S
C85 O87 1.256 . S
O86 Cd78 2.381 . S
O86 C85 1.258 . S
O87 Cd78 2.378 . S
O87 C85 1.256 . S
Sm88 C90 2.846 . S
Sm88 O108 2.543 . S
Sm88 O109 2.450 . S
Sm88 O110 2.681 1_545 S
Sm88 O111 2.455 1_545 S
Sm88 O112 2.396 . S
Sm88 O116 2.386 1_455 S
Sm88 O119 2.408 1_445 S
Sm89 C99 2.846 1_545 S
Sm89 O110 2.386 1_645 S
Sm89 O113 2.408 1_655 S
Sm89 O114 2.543 1_545 S
Sm89 O115 2.450 1_545 S
Sm89 O116 2.681 . S
Sm89 O117 2.464 . S
Sm89 O118 2.396 1_545 S
C90 Sm88 2.846 . S
C90 C91 1.506 . S
C90 O108 1.261 . S
C90 O109 1.242 . S
C91 C90 1.506 . S
C91 C92 1.358 . S
C91 C96 1.382 . S
C92 C91 1.358 . S
C92 C93 1.385 . S
C92 H120 0.930 . S
C93 C92 1.385 . S
C93 C94 1.395 . S
C93 H121 0.929 . S
C94 C93 1.395 . S
C94 C95 1.335 . S
C95 C94 1.335 . S
C95 C96 1.398 . S
C95 H122 0.930 . S
C96 C91 1.382 . S
C96 C95 1.398 . S
C96 H123 0.929 . S
C97 O110 1.271 . S
C97 O111 1.255 . S
C98 O112 1.252 . S
C98 O113 1.272 . S
C99 Sm89 2.846 1_565 S
C99 C100 1.506 . S
C99 O114 1.261 . S
C99 O115 1.242 . S
C100 C99 1.506 . S
C100 C101 1.358 . S
C100 C105 1.382 . S
C101 C100 1.358 . S
C101 C102 1.385 . S
C101 H124 0.930 . S
C102 C101 1.385 . S
C102 C103 1.395 . S
C102 H125 0.929 . S
C103 C102 1.395 . S
C103 C104 1.335 . S
C104 C103 1.335 . S
C104 C105 1.398 . S
C104 H126 0.930 . S
C105 C100 1.382 . S
C105 C104 1.398 . S
C105 H127 0.929 . S
C106 O116 1.271 . S
C106 O117 1.251 . S
C107 O118 1.252 . S
C107 O119 1.272 . S
O108 Sm88 2.543 . S
O108 C90 1.261 . S
O109 Sm88 2.450 . S
O109 C90 1.242 . S
O110 Sm88 2.681 1_565 S
O110 Sm89 2.386 1_465 S
O110 C97 1.271 . S
O111 Sm88 2.455 1_565 S
O111 C97 1.255 . S
O112 Sm88 2.396 . S
O112 C98 1.252 . S
O113 Sm89 2.408 1_455 S
O113 C98 1.272 . S
O114 Sm89 2.543 1_565 S
O114 C99 1.261 . S
O115 Sm89 2.450 1_565 S
O115 C99 1.242 . S
O116 Sm88 2.386 1_655 S
O116 Sm89 2.681 . S
O116 C106 1.271 . S
O117 Sm89 2.464 . S
O117 C106 1.251 . S
O118 Sm89 2.396 1_565 S
O118 C107 1.252 . S
O119 Sm88 2.408 1_665 S
O119 C107 1.272 . S
H120 C92 0.930 . S
H121 C93 0.929 . S
H122 C95 0.930 . S
H123 C96 0.929 . S
H124 C101 0.930 . S
H125 C102 0.929 . S
H126 C104 0.930 . S
H127 C105 0.929 . S
Sm128 C130 2.846 . S
Sm128 O148 2.543 . S
Sm128 O149 2.450 . S
Sm128 O150 2.681 . S
Sm128 O151 2.464 1_545 S
Sm128 O152 2.396 . S
Sm128 O156 2.386 . S
Sm128 O159 2.408 . S
Sm129 C139 2.846 1_544 S
Sm129 O150 2.386 . S
Sm129 O153 2.408 . S
Sm129 O154 2.543 1_544 S
Sm129 O155 2.450 1_554 S
Sm129 O156 2.681 . S
Sm129 O157 2.464 . S
Sm129 O158 2.407 . S
C130 Sm128 2.846 . S
C130 C131 1.506 . S
C130 O148 1.261 . S
C130 O149 1.242 . S
C131 C130 1.506 . S
C131 C132 1.358 . S
C131 C136 1.382 . S
C132 C131 1.358 . S
C132 C133 1.385 . S
C132 H160 0.930 . S
C133 C132 1.385 . S
C133 C134 1.395 . S
C133 H161 0.929 . S
C134 C133 1.395 . S
C134 C135 1.335 . S
C135 C134 1.335 . S
C135 C136 1.398 . S
C135 H162 0.930 . S
C136 C131 1.382 . S
C136 C135 1.398 . S
C136 H163 0.929 . S
C137 O150 1.271 1_565 S
C137 O151 1.251 . S
C138 O152 1.252 . S
C138 O153 1.272 . S
C139 Sm129 2.846 1_566 S
C139 C140 1.506 . S
C139 O154 1.261 . S
C139 O155 1.242 1_565 S
C140 C139 1.506 . S
C140 C141 1.358 . S
C140 C145 1.382 . S
C141 C140 1.358 . S
C141 C142 1.385 . S
C141 H164 0.930 . S
C142 C141 1.385 . S
C142 C143 1.395 . S
C142 H165 0.929 . S
C143 C142 1.395 . S
C143 C144 1.335 . S
C144 C143 1.335 . S
C144 C145 1.398 . S
C144 H166 0.930 . S
C145 C140 1.382 . S
C145 C144 1.398 . S
C145 H167 0.929 1_565 S
C146 O156 1.271 . S
C146 O157 1.251 . S
C147 O158 1.242 1_565 S
C147 O159 1.271 1_565 S
O148 Sm128 2.543 . S
O148 C130 1.261 . S
O149 Sm128 2.450 . S
O149 C130 1.242 . S
O150 Sm128 2.681 . S
O150 Sm129 2.386 . S
O150 C137 1.271 1_545 S
O151 Sm128 2.464 1_565 S
O151 C137 1.251 . S
O152 Sm128 2.396 . S
O152 C138 1.252 . S
O153 Sm129 2.408 . S
O153 C138 1.272 . S
O154 Sm129 2.543 1_566 S
O154 C139 1.261 . S
O155 Sm129 2.450 1_556 S
O155 C139 1.242 1_545 S
O156 Sm128 2.386 . S
O156 Sm129 2.681 . S
O156 C146 1.271 . S
O157 Sm129 2.464 . S
O157 C146 1.251 . S
O158 Sm129 2.407 . S
O158 C147 1.242 1_545 S
O159 Sm128 2.408 . S
O159 C147 1.271 1_545 S
H160 C132 0.930 . S
H161 C133 0.929 . S
H162 C135 0.930 . S
H163 C136 0.929 . S
H164 C141 0.930 . S
H165 C142 0.929 . S
H166 C144 0.930 . S
H167 C145 0.929 1_545 S
Sm168 C170 2.846 . S
Sm168 O188 2.543 . S
Sm168 O189 2.450 . S
Sm168 O190 2.681 . S
Sm168 O191 2.464 . S
Sm168 O192 2.396 . S
Sm168 O196 2.386 . S
Sm168 O199 2.408 . S
Sm169 C179 2.846 . S
Sm169 O190 2.386 . S
Sm169 O193 2.408 . S
Sm169 O194 2.543 . S
Sm169 O195 2.450 . S
Sm169 O196 2.681 . S
Sm169 O197 2.464 . S
Sm169 O198 2.396 . S
C170 Sm168 2.846 . S
C170 C171 1.506 . S
C170 O188 1.261 . S
C170 O189 1.242 . S
C171 C170 1.506 . S
C171 C172 1.358 . S
C171 C176 1.382 . S
C172 C171 1.358 . S
C172 C173 1.385 . S
C172 H200 0.930 . S
C173 C172 1.385 . S
C173 C174 1.395 . S
C173 H201 0.929 . S
C174 C173 1.395 . S
C174 C175 1.335 . S
C175 C174 1.335 . S
C175 C176 1.398 . S
C175 H202 0.930 . S
C176 C171 1.382 . S
C176 C175 1.398 . S
C176 H203 0.929 . S
C177 O190 1.271 . S
C177 O191 1.251 . S
C178 O192 1.252 . S
C178 O193 1.272 . S
C179 Sm169 2.846 . S
C179 C180 1.506 . S
C179 O194 1.261 . S
C179 O195 1.242 . S
C180 C179 1.506 . S
C180 C181 1.358 . S
C180 C185 1.382 . S
C181 C180 1.358 . S
C181 C182 1.385 . S
C181 H204 0.930 . S
C182 C181 1.385 . S
C182 C183 1.395 . S
C182 H205 0.929 . S
C183 C182 1.395 . S
C183 C184 1.335 . S
C184 C183 1.335 . S
C184 C185 1.398 . S
C184 H206 0.930 . S
C185 C180 1.382 . S
C185 C184 1.398 . S
C185 H207 0.929 . S
C186 O196 1.271 . S
C186 O197 1.251 . S
C187 O198 1.252 . S
C187 O199 1.272 . S
O188 Sm168 2.543 . S
O188 C170 1.261 . S
O189 Sm168 2.450 . S
O189 C170 1.242 . S
O190 Sm168 2.681 . S
O190 Sm169 2.386 . S
O190 C177 1.271 . S
O191 Sm168 2.464 . S
O191 C177 1.251 . S
O192 Sm168 2.396 . S
O192 C178 1.252 . S
O193 Sm169 2.408 . S
O193 C178 1.272 . S
O194 Sm169 2.543 . S
O194 C179 1.261 . S
O195 Sm169 2.450 . S
O195 C179 1.242 . S
O196 Sm168 2.386 . S
O196 Sm169 2.681 . S
O196 C186 1.271 . S
O197 Sm169 2.464 . S
O197 C186 1.251 . S
O198 Sm169 2.396 . S
O198 C187 1.252 . S
O199 Sm168 2.408 . S
O199 C187 1.272 . S
H200 C172 0.930 . S
H201 C173 0.929 . S
H202 C175 0.930 . S
H203 C176 0.929 . S
H204 C181 0.930 . S
H205 C182 0.929 . S
H206 C184 0.930 . S
H207 C185 0.929 . S
Sm208 C210 2.846 . S
Sm208 O228 2.543 . S
Sm208 O229 2.450 . S
Sm208 O230 2.681 1_455 S
Sm208 O231 2.464 1_455 S
Sm208 O232 2.396 . S
Sm208 O236 2.386 1_554 S
Sm208 O239 2.408 1_455 S
Sm209 C219 2.846 1_455 S
Sm209 O230 2.386 1_456 S
Sm209 O233 2.408 1_556 S
Sm209 O234 2.543 1_455 S
Sm209 O235 2.450 1_455 S
Sm209 O236 2.681 . S
Sm209 O237 2.464 . S
Sm209 O238 2.396 1_455 S
C210 Sm208 2.846 . S
C210 C211 1.506 . S
C210 O228 1.261 . S
C210 O229 1.242 . S
C211 C210 1.506 . S
C211 C212 1.358 . S
C211 C216 1.382 . S
C212 C211 1.358 . S
C212 C213 1.385 . S
C212 H240 0.930 . S
C213 C212 1.385 . S
C213 C214 1.395 . S
C213 H241 0.929 . S
C214 C213 1.395 . S
C214 C215 1.335 . S
C215 C214 1.335 . S
C215 C216 1.398 . S
C215 H242 0.930 . S
C216 C211 1.382 . S
C216 C215 1.398 . S
C216 H243 0.929 . S
C217 O230 1.271 . S
C217 O231 1.251 . S
C218 O232 1.252 . S
C218 O233 1.272 . S
C219 Sm209 2.846 1_655 S
C219 C220 1.506 . S
C219 O234 1.261 . S
C219 O235 1.242 . S
C220 C219 1.506 . S
C220 C221 1.358 . S
C220 C225 1.382 . S
C221 C220 1.358 . S
C221 C222 1.385 . S
C221 H244 0.930 . S
C222 C221 1.385 . S
C222 C223 1.395 . S
C222 H245 0.929 . S
C223 C222 1.395 . S
C223 C224 1.335 . S
C224 C223 1.335 . S
C224 C225 1.398 . S
C224 H246 0.930 . S
C225 C220 1.382 . S
C225 C224 1.398 . S
C225 H247 0.929 . S
C226 O236 1.271 . S
C226 O237 1.251 . S
C227 O238 1.252 . S
C227 O239 1.272 1_556 S
O228 Sm208 2.543 . S
O228 C210 1.261 . S
O229 Sm208 2.450 . S
O229 C210 1.242 . S
O230 Sm208 2.681 1_655 S
O230 Sm209 2.386 1_654 S
O230 C217 1.271 . S
O231 Sm208 2.464 1_655 S
O231 C217 1.251 . S
O232 Sm208 2.396 . S
O232 C218 1.252 . S
O233 Sm209 2.408 1_554 S
O233 C218 1.272 . S
O234 Sm209 2.543 1_655 S
O234 C219 1.261 . S
O235 Sm209 2.450 1_655 S
O235 C219 1.242 . S
O236 Sm208 2.386 1_556 S
O236 Sm209 2.681 . S
O236 C226 1.271 . S
O237 Sm209 2.464 . S
O237 C226 1.251 . S
O238 Sm209 2.396 1_655 S
O238 C227 1.252 . S
O239 Sm208 2.408 1_655 S
O239 C227 1.272 1_554 S
H240 C212 0.930 . S
H241 C213 0.929 . S
H242 C215 0.930 . S
H243 C216 0.929 . S
H244 C221 0.930 . S
H245 C222 0.929 . S
H246 C224 0.930 . S
H247 C225 0.929 . S
C248 C249 1.391 . S
C248 C250 1.394 . S
C248 H264 0.931 . S
C249 C248 1.391 . S
C249 C253 1.376 . S
C250 C248 1.394 . S
C250 C251 1.369 . S
C250 C254 1.531 . S
C251 C250 1.369 . S
C251 C252 1.410 . S
C251 C259 1.503 . S
C252 C251 1.410 . S
C252 C253 1.392 . S
C252 C255 1.511 . S
C253 C249 1.376 . S
C253 C252 1.392 . S
C253 H265 0.929 . S
C254 C250 1.531 . S
C254 H266 0.960 . S
C254 H267 0.962 . S
C254 H268 0.960 . S
C255 C252 1.511 . S
C255 H269 0.961 . S
C255 H270 0.961 . S
C255 H271 0.961 . S
C256 C257 1.370 . S
C256 C258 1.363 . S
C256 H272 0.931 . S
C257 C256 1.370 . S
C257 C261 1.408 . S
C258 C256 1.363 . S
C258 C259 1.370 . S
C258 C262 1.524 . S
C259 C251 1.503 . S
C259 C258 1.370 . S
C259 C260 1.403 . S
C260 C259 1.403 . S
C260 C261 1.404 . S
C260 C263 1.539 . S
C261 C257 1.408 . S
C261 C260 1.404 . S
C261 H273 0.930 . S
C262 C258 1.524 . S
C262 H274 0.956 . S
C262 H275 0.961 . S
C262 H276 0.961 . S
C263 C260 1.539 . S
C263 H277 0.958 . S
C263 H278 0.961 . S
C263 H279 0.960 . S
H264 C248 0.931 . S
H265 C253 0.929 . S
H266 C254 0.960 . S
H267 C254 0.962 . S
H268 C254 0.960 . S
H269 C255 0.961 . S
H270 C255 0.961 . S
H271 C255 0.961 . S
H272 C256 0.931 . S
H273 C261 0.930 . S
H274 C262 0.956 . S
H275 C262 0.961 . S
H276 C262 0.961 . S
H277 C263 0.958 . S
H278 C263 0.961 . S
H279 C263 0.960 . S
C280 C281 1.391 . S
C280 C282 1.394 . S
C280 H296 0.931 . S
C281 C280 1.391 . S
C281 C285 1.376 . S
C282 C280 1.394 . S
C282 C283 1.369 . S
C282 C286 1.531 . S
C283 C282 1.369 . S
C283 C284 1.410 . S
C283 C291 1.503 . S
C284 C283 1.410 . S
C284 C285 1.392 . S
C284 C287 1.511 . S
C285 C281 1.376 . S
C285 C284 1.392 . S
C285 H297 0.929 . S
C286 C282 1.531 . S
C286 H298 0.960 . S
C286 H299 0.962 . S
C286 H300 0.960 . S
C287 C284 1.511 . S
C287 H301 0.961 . S
C287 H302 0.961 . S
C287 H303 0.961 . S
C288 C289 1.370 . S
C288 C290 1.363 . S
C288 H304 0.931 . S
C289 C288 1.370 . S
C289 C293 1.408 . S
C290 C288 1.363 . S
C290 C291 1.370 . S
C290 C294 1.524 . S
C291 C283 1.503 . S
C291 C290 1.370 . S
C291 C292 1.403 . S
C292 C291 1.403 . S
C292 C293 1.404 . S
C292 C295 1.539 . S
C293 C289 1.408 . S
C293 C292 1.404 . S
C293 H305 0.930 . S
C294 C290 1.524 . S
C294 H306 0.956 . S
C294 H307 0.961 . S
C294 H308 0.961 . S
C295 C292 1.539 . S
C295 H309 0.958 . S
C295 H310 0.961 . S
C295 H311 0.960 . S
H296 C280 0.931 . S
H297 C285 0.929 . S
H298 C286 0.960 . S
H299 C286 0.962 . S
H300 C286 0.960 . S
H301 C287 0.961 . S
H302 C287 0.961 . S
H303 C287 0.961 . S
H304 C288 0.931 . S
H305 C293 0.930 . S
H306 C294 0.956 . S
H307 C294 0.961 . S
H308 C294 0.961 . S
H309 C295 0.958 . S
H310 C295 0.961 . S
H311 C295 0.960 . S
C312 C313 1.391 . S
C312 C314 1.394 . S
C312 H328 0.931 . S
C313 C312 1.391 . S
C313 C317 1.376 . S
C314 C312 1.394 . S
C314 C315 1.369 . S
C314 C318 1.531 . S
C315 C314 1.369 . S
C315 C316 1.410 . S
C315 C323 1.503 . S
C316 C315 1.410 . S
C316 C317 1.392 . S
C316 C319 1.511 . S
C317 C313 1.376 . S
C317 C316 1.392 . S
C317 H329 0.929 . S
C318 C314 1.531 . S
C318 H330 0.960 . S
C318 H331 0.962 . S
C318 H332 0.960 . S
C319 C316 1.511 . S
C319 H333 0.961 . S
C319 H334 0.961 . S
C319 H335 0.961 . S
C320 C321 1.370 . S
C320 C322 1.363 . S
C320 H336 0.931 . S
C321 C320 1.370 . S
C321 C325 1.408 . S
C322 C320 1.363 . S
C322 C323 1.370 . S
C322 C326 1.524 . S
C323 C315 1.503 . S
C323 C322 1.370 . S
C323 C324 1.403 . S
C324 C323 1.403 . S
C324 C325 1.404 . S
C324 C327 1.539 . S
C325 C321 1.408 . S
C325 C324 1.404 . S
C325 H337 0.930 . S
C326 C322 1.524 . S
C326 H338 0.956 . S
C326 H339 0.961 . S
C326 H340 0.961 . S
C327 C324 1.539 . S
C327 H341 0.958 . S
C327 H342 0.961 . S
C327 H343 0.960 . S
H328 C312 0.931 . S
H329 C317 0.929 . S
H330 C318 0.960 . S
H331 C318 0.962 . S
H332 C318 0.960 . S
H333 C319 0.961 . S
H334 C319 0.961 . S
H335 C319 0.961 . S
H336 C320 0.931 . S
H337 C325 0.930 . S
H338 C326 0.956 . S
H339 C326 0.961 . S
H340 C326 0.961 . S
H341 C327 0.958 . S
H342 C327 0.961 . S
H343 C327 0.960 . S
C344 C345 1.391 . S
C344 C346 1.394 . S
C344 H360 0.931 . S
C345 C344 1.391 . S
C345 C349 1.376 . S
C346 C344 1.394 . S
C346 C347 1.369 . S
C346 C350 1.531 . S
C347 C346 1.369 . S
C347 C348 1.410 . S
C347 C355 1.503 . S
C348 C347 1.410 . S
C348 C349 1.392 . S
C348 C351 1.511 . S
C349 C345 1.376 . S
C349 C348 1.392 . S
C349 H361 0.929 . S
C350 C346 1.531 . S
C350 H362 0.960 . S
C350 H363 0.962 . S
C350 H364 0.960 . S
C351 C348 1.511 . S
C351 H365 0.961 . S
C351 H366 0.961 . S
C351 H367 0.961 . S
C352 C353 1.370 . S
C352 C354 1.363 . S
C352 H368 0.931 . S
C353 C352 1.370 . S
C353 C357 1.408 . S
C354 C352 1.363 . S
C354 C355 1.370 . S
C354 C358 1.524 . S
C355 C347 1.503 . S
C355 C354 1.370 . S
C355 C356 1.403 . S
C356 C355 1.403 . S
C356 C357 1.404 . S
C356 C359 1.539 1_655 S
C357 C353 1.408 . S
C357 C356 1.404 . S
C357 H369 0.930 1_655 S
C358 C354 1.524 . S
C358 H370 0.956 . S
C358 H371 0.961 . S
C358 H372 0.961 . S
C359 C356 1.539 1_455 S
C359 H373 0.958 . S
C359 H374 0.961 . S
C359 H375 0.960 . S
H360 C344 0.931 . S
H361 C349 0.929 . S
H362 C350 0.960 . S
H363 C350 0.962 . S
H364 C350 0.960 . S
H365 C351 0.961 . S
H366 C351 0.961 . S
H367 C351 0.961 . S
H368 C352 0.931 . S
H369 C357 0.930 1_455 S
H370 C358 0.956 . S
H371 C358 0.961 . S
H372 C358 0.961 . S
H373 C359 0.958 . S
H374 C359 0.961 . S
H375 C359 0.960 . S
C376 C377 1.391 . S
C376 C378 1.394 . S
C376 H392 0.931 . S
C377 C376 1.391 . S
C377 C381 1.376 . S
C378 C376 1.394 . S
C378 C379 1.369 . S
C378 C382 1.531 . S
C379 C378 1.369 . S
C379 C380 1.410 . S
C379 C387 1.503 . S
C380 C379 1.410 . S
C380 C381 1.392 . S
C380 C383 1.511 . S
C381 C377 1.376 . S
C381 C380 1.392 . S
C381 H393 0.929 . S
C382 C378 1.531 . S
C382 H394 0.960 . S
C382 H395 0.962 . S
C382 H396 0.960 . S
C383 C380 1.511 . S
C383 H397 0.961 . S
C383 H398 0.961 . S
C383 H399 0.961 . S
C384 C385 1.370 . S
C384 C386 1.363 . S
C384 H400 0.931 . S
C385 C384 1.370 . S
C385 C389 1.408 . S
C386 C384 1.363 . S
C386 C387 1.370 . S
C386 C390 1.524 . S
C387 C379 1.503 . S
C387 C386 1.370 . S
C387 C388 1.403 . S
C388 C387 1.403 . S
C388 C389 1.404 . S
C388 C391 1.539 . S
C389 C385 1.408 . S
C389 C388 1.404 . S
C389 H401 0.930 . S
C390 C386 1.524 . S
C390 H402 0.956 . S
C390 H403 0.961 . S
C390 H404 0.961 . S
C391 C388 1.539 . S
C391 H405 0.958 . S
C391 H406 0.961 . S
C391 H407 0.960 . S
H392 C376 0.931 . S
H393 C381 0.929 . S
H394 C382 0.960 . S
H395 C382 0.962 . S
H396 C382 0.960 . S
H397 C383 0.961 . S
H398 C383 0.961 . S
H399 C383 0.961 . S
H400 C384 0.931 . S
H401 C389 0.930 . S
H402 C390 0.956 . S
H403 C390 0.961 . S
H404 C390 0.961 . S
H405 C391 0.958 . S
H406 C391 0.961 . S
H407 C391 0.960 . S
C408 C409 1.391 . S
C408 C410 1.394 . S
C408 H424 0.931 . S
C409 C408 1.391 . S
C409 C413 1.376 . S
C410 C408 1.394 . S
C410 C411 1.369 . S
C410 C414 1.531 . S
C411 C410 1.369 . S
C411 C412 1.410 . S
C411 C419 1.503 . S
C412 C411 1.410 . S
C412 C413 1.392 . S
C412 C415 1.511 . S
C413 C409 1.376 . S
C413 C412 1.392 . S
C413 H425 0.929 . S
C414 C410 1.531 . S
C414 H426 0.960 . S
C414 H427 0.962 . S
C414 H428 0.960 . S
C415 C412 1.511 . S
C415 H429 0.961 . S
C415 H430 0.961 . S
C415 H431 0.961 . S
C416 C417 1.370 . S
C416 C418 1.363 . S
C416 H432 0.931 . S
C417 C416 1.370 . S
C417 C421 1.408 . S
C418 C416 1.363 . S
C418 C419 1.370 . S
C418 C422 1.524 . S
C419 C411 1.503 . S
C419 C418 1.370 . S
C419 C420 1.403 . S
C420 C419 1.403 . S
C420 C421 1.404 . S
C420 C423 1.539 . S
C421 C417 1.408 . S
C421 C420 1.404 . S
C421 H433 0.930 . S
C422 C418 1.524 . S
C422 H434 0.956 . S
C422 H435 0.961 . S
C422 H436 0.961 . S
C423 C420 1.539 . S
C423 H437 0.958 . S
C423 H438 0.961 . S
C423 H439 0.960 . S
H424 C408 0.931 . S
H425 C413 0.929 . S
H426 C414 0.960 . S
H427 C414 0.962 . S
H428 C414 0.960 . S
H429 C415 0.961 . S
H430 C415 0.961 . S
H431 C415 0.961 . S
H432 C416 0.931 . S
H433 C421 0.930 . S
H434 C422 0.956 . S
H435 C422 0.961 . S
H436 C422 0.961 . S
H437 C423 0.958 . S
H438 C423 0.961 . S
H439 C423 0.960 . S
C440 C441 1.391 . S
C440 C442 1.394 . S
C440 H456 0.931 . S
C441 C440 1.391 . S
C441 C445 1.376 . S
C442 C440 1.394 . S
C442 C443 1.369 . S
C442 C446 1.531 . S
C443 C442 1.369 . S
C443 C444 1.410 . S
C443 C451 1.503 . S
C444 C443 1.410 . S
C444 C445 1.392 . S
C444 C447 1.511 . S
C445 C441 1.376 . S
C445 C444 1.392 . S
C445 H457 0.929 . S
C446 C442 1.531 . S
C446 H458 0.960 . S
C446 H459 0.962 . S
C446 H460 0.960 . S
C447 C444 1.511 . S
C447 H461 0.961 . S
C447 H462 0.961 . S
C447 H463 0.961 . S
C448 C449 1.370 . S
C448 C450 1.363 . S
C448 H464 0.931 1_556 S
C449 C448 1.370 . S
C449 C453 1.408 . S
C450 C448 1.363 . S
C450 C451 1.370 . S
C450 C454 1.524 . S
C451 C443 1.503 . S
C451 C450 1.370 . S
C451 C452 1.403 . S
C452 C451 1.403 . S
C452 C453 1.404 . S
C452 C455 1.539 . S
C453 C449 1.408 . S
C453 C452 1.404 . S
C453 H465 0.930 . S
C454 C450 1.524 . S
C454 H466 0.956 . S
C454 H467 0.961 . S
C454 H468 0.961 1_556 S
C455 C452 1.539 . S
C455 H469 0.958 . S
C455 H470 0.961 . S
C455 H471 0.960 . S
H456 C440 0.931 . S
H457 C445 0.929 . S
H458 C446 0.960 . S
H459 C446 0.962 . S
H460 C446 0.960 . S
H461 C447 0.961 . S
H462 C447 0.961 . S
H463 C447 0.961 . S
H464 C448 0.931 1_554 S
H465 C453 0.930 . S
H466 C454 0.956 . S
H467 C454 0.961 . S
H468 C454 0.961 1_554 S
H469 C455 0.958 . S
H470 C455 0.961 . S
H471 C455 0.960 . S
C472 C473 1.391 . S
C472 C474 1.394 . S
C472 H488 0.931 . S
C473 C472 1.391 . S
C473 C477 1.376 . S
C474 C472 1.394 . S
C474 C475 1.369 . S
C474 C478 1.531 . S
C475 C474 1.369 . S
C475 C476 1.410 . S
C475 C483 1.503 . S
C476 C475 1.410 . S
C476 C477 1.392 . S
C476 C479 1.511 . S
C477 C473 1.376 . S
C477 C476 1.392 . S
C477 H489 0.929 . S
C478 C474 1.531 . S
C478 H490 0.960 . S
C478 H491 0.962 . S
C478 H492 0.960 . S
C479 C476 1.511 . S
C479 H493 0.961 . S
C479 H494 0.961 . S
C479 H495 0.961 . S
C480 C481 1.370 . S
C480 C482 1.363 . S
C480 H496 0.931 . S
C481 C480 1.370 . S
C481 C485 1.408 . S
C482 C480 1.363 . S
C482 C483 1.370 . S
C482 C486 1.524 . S
C483 C475 1.503 . S
C483 C482 1.370 . S
C483 C484 1.403 . S
C484 C483 1.403 . S
C484 C485 1.404 . S
C484 C487 1.539 . S
C485 C481 1.408 . S
C485 C484 1.404 . S
C485 H497 0.930 . S
C486 C482 1.524 . S
C486 H498 0.956 . S
C486 H499 0.961 . S
C486 H500 0.961 . S
C487 C484 1.539 . S
C487 H501 0.958 . S
C487 H502 0.961 . S
C487 H503 0.960 . S
H488 C472 0.931 . S
H489 C477 0.929 . S
H490 C478 0.960 . S
H491 C478 0.962 . S
H492 C478 0.960 . S
H493 C479 0.961 . S
H494 C479 0.961 . S
H495 C479 0.961 . S
H496 C480 0.931 . S
H497 C485 0.930 . S
H498 C486 0.956 . S
H499 C486 0.961 . S
H500 C486 0.961 . S
H501 C487 0.958 . S
H502 C487 0.961 . S
H503 C487 0.960 . S
C504 C505 1.391 . S
C504 C506 1.394 . S
C504 H520 0.931 . S
C505 C504 1.391 . S
C505 C509 1.376 . S
C506 C504 1.394 . S
C506 C507 1.369 . S
C506 C510 1.531 . S
C507 C506 1.369 . S
C507 C508 1.410 . S
C507 C515 1.503 . S
C508 C507 1.410 . S
C508 C509 1.392 . S
C508 C511 1.511 . S
C509 C505 1.376 . S
C509 C508 1.392 . S
C509 H521 0.929 . S
C510 C506 1.531 . S
C510 H522 0.960 . S
C510 H523 0.962 . S
C510 H524 0.960 . S
C511 C508 1.511 . S
C511 H525 0.961 . S
C511 H526 0.961 . S
C511 H527 0.961 . S
C512 C513 1.370 . S
C512 C514 1.363 . S
C512 H528 0.931 . S
C513 C512 1.370 . S
C513 C517 1.408 . S
C514 C512 1.363 . S
C514 C515 1.370 . S
C514 C518 1.524 . S
C515 C507 1.503 . S
C515 C514 1.370 . S
C515 C516 1.403 . S
C516 C515 1.403 . S
C516 C517 1.404 . S
C516 C519 1.539 . S
C517 C513 1.408 . S
C517 C516 1.404 . S
C517 H529 0.930 . S
C518 C514 1.524 . S
C518 H530 0.956 . S
C518 H531 0.961 . S
C518 H532 0.961 . S
C519 C516 1.539 . S
C519 H533 0.958 . S
C519 H534 0.961 . S
C519 H535 0.960 . S
H520 C504 0.931 . S
H521 C509 0.929 . S
H522 C510 0.960 . S
H523 C510 0.962 . S
H524 C510 0.960 . S
H525 C511 0.961 . S
H526 C511 0.961 . S
H527 C511 0.961 . S
H528 C512 0.931 . S
H529 C517 0.930 . S
H530 C518 0.956 . S
H531 C518 0.961 . S
H532 C518 0.961 . S
H533 C519 0.958 . S
H534 C519 0.961 . S
H535 C519 0.960 . S
C536 C537 1.391 . S
C536 C538 1.394 . S
C536 H552 0.931 . S
C537 C536 1.391 . S
C537 C541 1.376 . S
C538 C536 1.394 . S
C538 C539 1.369 . S
C538 C542 1.531 . S
C539 C538 1.369 . S
C539 C540 1.410 . S
C539 C547 1.503 . S
C540 C539 1.410 . S
C540 C541 1.392 . S
C540 C543 1.511 . S
C541 C537 1.376 . S
C541 C540 1.392 . S
C541 H553 0.929 . S
C542 C538 1.531 . S
C542 H554 0.960 . S
C542 H555 0.962 . S
C542 H556 0.960 . S
C543 C540 1.511 . S
C543 H557 0.961 1_556 S
C543 H558 0.961 1_556 S
C543 H559 0.961 . S
C544 C545 1.370 . S
C544 C546 1.363 1_554 S
C544 H560 0.931 . S
C545 C544 1.370 . S
C545 C549 1.408 1_554 S
C546 C544 1.363 1_556 S
C546 C547 1.370 . S
C546 C550 1.524 1_556 S
C547 C539 1.503 . S
C547 C546 1.370 . S
C547 C548 1.403 . S
C548 C547 1.403 . S
C548 C549 1.404 . S
C548 C551 1.539 . S
C549 C545 1.408 1_556 S
C549 C548 1.404 . S
C549 H561 0.930 . S
C550 C546 1.524 1_554 S
C550 H562 0.956 1_554 S
C550 H563 0.961 . S
C550 H564 0.961 . S
C551 C548 1.539 . S
C551 H565 0.958 . S
C551 H566 0.961 . S
C551 H567 0.960 . S
H552 C536 0.931 . S
H553 C541 0.929 . S
H554 C542 0.960 . S
H555 C542 0.962 . S
H556 C542 0.960 . S
H557 C543 0.961 1_554 S
H558 C543 0.961 1_554 S
H559 C543 0.961 . S
H560 C544 0.931 . S
H561 C549 0.930 . S
H562 C550 0.956 1_556 S
H563 C550 0.961 . S
H564 C550 0.961 . S
H565 C551 0.958 . S
H566 C551 0.961 . S
H567 C551 0.960 . S
C568 C569 1.391 . S
C568 C570 1.394 . S
C568 H584 0.931 . S
C569 C568 1.391 . S
C569 C573 1.376 . S
C570 C568 1.394 . S
C570 C571 1.369 . S
C570 C574 1.531 . S
C571 C570 1.369 . S
C571 C572 1.410 . S
C571 C579 1.503 . S
C572 C571 1.410 . S
C572 C573 1.392 . S
C572 C575 1.511 . S
C573 C569 1.376 . S
C573 C572 1.392 . S
C573 H585 0.929 . S
C574 C570 1.531 . S
C574 H586 0.960 . S
C574 H587 0.962 . S
C574 H588 0.960 . S
C575 C572 1.511 . S
C575 H589 0.961 . S
C575 H590 0.961 . S
C575 H591 0.961 . S
C576 C577 1.370 . S
C576 C578 1.363 . S
C576 H592 0.931 . S
C577 C576 1.370 . S
C577 C581 1.408 . S
C578 C576 1.363 . S
C578 C579 1.370 . S
C578 C582 1.524 . S
C579 C571 1.503 . S
C579 C578 1.370 . S
C579 C580 1.403 . S
C580 C579 1.403 . S
C580 C581 1.404 . S
C580 C583 1.539 . S
C581 C577 1.408 . S
C581 C580 1.404 . S
C581 H593 0.930 . S
C582 C578 1.524 . S
C582 H594 0.956 . S
C582 H595 0.961 . S
C582 H596 0.961 . S
C583 C580 1.539 . S
C583 H597 0.958 . S
C583 H598 0.961 . S
C583 H599 0.960 . S
H584 C568 0.931 . S
H585 C573 0.929 . S
H586 C574 0.960 . S
H587 C574 0.962 . S
H588 C574 0.960 . S
H589 C575 0.961 . S
H590 C575 0.961 . S
H591 C575 0.961 . S
H592 C576 0.931 . S
H593 C581 0.930 . S
H594 C582 0.956 . S
H595 C582 0.961 . S
H596 C582 0.961 . S
H597 C583 0.958 . S
H598 C583 0.961 . S
H599 C583 0.960 . S
C600 C601 1.391 . S
C600 C602 1.394 . S
C600 H616 0.931 . S
C601 C600 1.391 . S
C601 C605 1.376 . S
C602 C600 1.394 . S
C602 C603 1.369 . S
C602 C606 1.531 . S
C603 C602 1.369 . S
C603 C604 1.410 . S
C603 C611 1.503 . S
C604 C603 1.410 . S
C604 C605 1.392 . S
C604 C607 1.511 . S
C605 C601 1.376 . S
C605 C604 1.392 . S
C605 H617 0.929 . S
C606 C602 1.531 . S
C606 H618 0.960 . S
C606 H619 0.962 . S
C606 H620 0.960 . S
C607 C604 1.511 . S
C607 H621 0.961 . S
C607 H622 0.961 . S
C607 H623 0.961 . S
C608 C609 1.370 . S
C608 C610 1.363 . S
C608 H624 0.931 . S
C609 C608 1.370 . S
C609 C613 1.408 . S
C610 C608 1.363 . S
C610 C611 1.370 . S
C610 C614 1.524 . S
C611 C603 1.503 . S
C611 C610 1.370 . S
C611 C612 1.403 . S
C612 C611 1.403 . S
C612 C613 1.404 . S
C612 C615 1.539 . S
C613 C609 1.408 . S
C613 C612 1.404 . S
C613 H625 0.930 . S
C614 C610 1.524 . S
C614 H626 0.956 . S
C614 H627 0.961 . S
C614 H628 0.961 . S
C615 C612 1.539 . S
C615 H629 0.958 . S
C615 H630 0.961 . S
C615 H631 0.960 . S
H616 C600 0.931 . S
H617 C605 0.929 . S
H618 C606 0.960 . S
H619 C606 0.962 . S
H620 C606 0.960 . S
H621 C607 0.961 . S
H622 C607 0.961 . S
H623 C607 0.961 . S
H624 C608 0.931 . S
H625 C613 0.930 . S
H626 C614 0.956 . S
H627 C614 0.961 . S
H628 C614 0.961 . S
H629 C615 0.958 . S
H630 C615 0.961 . S
H631 C615 0.960 . S
C632 C633 1.391 . S
C632 C634 1.394 . S
C632 H648 0.931 . S
C633 C632 1.391 . S
C633 C637 1.376 . S
C634 C632 1.394 . S
C634 C635 1.369 . S
C634 C638 1.531 . S
C635 C634 1.369 . S
C635 C636 1.410 . S
C635 C643 1.503 . S
C636 C635 1.410 . S
C636 C637 1.392 . S
C636 C639 1.511 . S
C637 C633 1.376 . S
C637 C636 1.392 . S
C637 H649 0.929 . S
C638 C634 1.531 . S
C638 H650 0.960 . S
C638 H651 0.962 . S
C638 H652 0.960 . S
C639 C636 1.511 . S
C639 H653 0.961 . S
C639 H654 0.961 . S
C639 H655 0.961 . S
C640 C641 1.370 . S
C640 C642 1.363 . S
C640 H656 0.931 . S
C641 C640 1.370 . S
C641 C645 1.408 . S
C642 C640 1.363 . S
C642 C643 1.370 . S
C642 C646 1.524 . S
C643 C635 1.503 . S
C643 C642 1.370 . S
C643 C644 1.403 . S
C644 C643 1.403 . S
C644 C645 1.404 . S
C644 C647 1.539 . S
C645 C641 1.408 . S
C645 C644 1.404 . S
C645 H657 0.930 . S
C646 C642 1.524 . S
C646 H658 0.956 . S
C646 H659 0.961 . S
C646 H660 0.961 . S
C647 C644 1.539 . S
C647 H661 0.958 . S
C647 H662 0.961 . S
C647 H663 0.960 . S
H648 C632 0.931 . S
H649 C637 0.929 . S
H650 C638 0.960 . S
H651 C638 0.962 . S
H652 C638 0.960 . S
H653 C639 0.961 . S
H654 C639 0.961 . S
H655 C639 0.961 . S
H656 C640 0.931 . S
H657 C645 0.930 . S
H658 C646 0.956 . S
H659 C646 0.961 . S
H660 C646 0.961 . S
H661 C647 0.958 . S
H662 C647 0.961 . S
H663 C647 0.960 . S
C664 C665 1.391 . S
C664 C666 1.394 . S
C664 H680 0.931 . S
C665 C664 1.391 . S
C665 C669 1.376 . S
C666 C664 1.394 . S
C666 C667 1.369 . S
C666 C670 1.531 . S
C667 C666 1.369 . S
C667 C668 1.410 . S
C667 C675 1.503 . S
C668 C667 1.410 . S
C668 C669 1.392 . S
C668 C671 1.511 . S
C669 C665 1.376 . S
C669 C668 1.392 . S
C669 H681 0.929 . S
C670 C666 1.531 . S
C670 H682 0.960 . S
C670 H683 0.962 . S
C670 H684 0.960 . S
C671 C668 1.511 . S
C671 H685 0.961 . S
C671 H686 0.961 . S
C671 H687 0.961 . S
C672 C673 1.370 . S
C672 C674 1.363 . S
C672 H688 0.931 . S
C673 C672 1.370 . S
C673 C677 1.408 . S
C674 C672 1.363 . S
C674 C675 1.370 . S
C674 C678 1.524 . S
C675 C667 1.503 . S
C675 C674 1.370 . S
C675 C676 1.403 . S
C676 C675 1.403 . S
C676 C677 1.404 . S
C676 C679 1.539 . S
C677 C673 1.408 . S
C677 C676 1.404 . S
C677 H689 0.930 . S
C678 C674 1.524 . S
C678 H690 0.956 . S
C678 H691 0.961 . S
C678 H692 0.961 . S
C679 C676 1.539 . S
C679 H693 0.958 . S
C679 H694 0.961 . S
C679 H695 0.960 . S
H680 C664 0.931 . S
H681 C669 0.929 . S
H682 C670 0.960 . S
H683 C670 0.962 . S
H684 C670 0.960 . S
H685 C671 0.961 . S
H686 C671 0.961 . S
H687 C671 0.961 . S
H688 C672 0.931 . S
H689 C677 0.930 . S
H690 C678 0.956 . S
H691 C678 0.961 . S
H692 C678 0.961 . S
H693 C679 0.958 . S
H694 C679 0.961 . S
H695 C679 0.960 . S
C696 C697 1.391 . S
C696 C698 1.394 . S
C696 H712 0.931 . S
C697 C696 1.391 . S
C697 C701 1.376 . S
C698 C696 1.394 . S
C698 C699 1.369 . S
C698 C702 1.531 . S
C699 C698 1.369 . S
C699 C700 1.410 . S
C699 C707 1.503 . S
C700 C699 1.410 . S
C700 C701 1.392 . S
C700 C703 1.511 . S
C701 C697 1.376 . S
C701 C700 1.392 . S
C701 H713 0.929 . S
C702 C698 1.531 . S
C702 H714 0.960 . S
C702 H715 0.962 . S
C702 H716 0.960 . S
C703 C700 1.511 . S
C703 H717 0.961 . S
C703 H718 0.961 . S
C703 H719 0.961 . S
C704 C705 1.370 . S
C704 C706 1.363 . S
C704 H720 0.931 . S
C705 C704 1.370 . S
C705 C709 1.408 . S
C706 C704 1.363 . S
C706 C707 1.370 . S
C706 C710 1.524 . S
C707 C699 1.503 . S
C707 C706 1.370 . S
C707 C708 1.403 . S
C708 C707 1.403 . S
C708 C709 1.404 . S
C708 C711 1.539 . S
C709 C705 1.408 . S
C709 C708 1.404 . S
C709 H721 0.930 . S
C710 C706 1.524 . S
C710 H722 0.956 . S
C710 H723 0.961 . S
C710 H724 0.961 . S
C711 C708 1.539 . S
C711 H725 0.958 . S
C711 H726 0.961 . S
C711 H727 0.960 . S
H712 C696 0.931 . S
H713 C701 0.929 . S
H714 C702 0.960 . S
H715 C702 0.962 . S
H716 C702 0.960 . S
H717 C703 0.961 . S
H718 C703 0.961 . S
H719 C703 0.961 . S
H720 C704 0.931 . S
H721 C709 0.930 . S
H722 C710 0.956 . S
H723 C710 0.961 . S
H724 C710 0.961 . S
H725 C711 0.958 . S
H726 C711 0.961 . S
H727 C711 0.960 . S
C728 C729 1.391 . S
C728 C730 1.394 . S
C728 H744 0.931 . S
C729 C728 1.391 . S
C729 C733 1.376 . S
C730 C728 1.394 . S
C730 C731 1.369 . S
C730 C734 1.531 . S
C731 C730 1.369 . S
C731 C732 1.410 . S
C731 C739 1.503 . S
C732 C731 1.410 . S
C732 C733 1.392 . S
C732 C735 1.511 . S
C733 C729 1.376 . S
C733 C732 1.392 . S
C733 H745 0.929 . S
C734 C730 1.531 . S
C734 H746 0.960 . S
C734 H747 0.962 . S
C734 H748 0.960 . S
C735 C732 1.511 . S
C735 H749 0.961 . S
C735 H750 0.961 . S
C735 H751 0.961 . S
C736 C737 1.370 . S
C736 C738 1.363 . S
C736 H752 0.931 . S
C737 C736 1.370 . S
C737 C741 1.408 . S
C738 C736 1.363 . S
C738 C739 1.370 . S
C738 C742 1.524 . S
C739 C731 1.503 . S
C739 C738 1.370 . S
C739 C740 1.403 . S
C740 C739 1.403 . S
C740 C741 1.404 . S
C740 C743 1.539 . S
C741 C737 1.408 . S
C741 C740 1.404 . S
C741 H753 0.930 . S
C742 C738 1.524 . S
C742 H754 0.956 . S
C742 H755 0.961 . S
C742 H756 0.961 . S
C743 C740 1.539 . S
C743 H757 0.958 . S
C743 H758 0.961 . S
C743 H759 0.960 . S
H744 C728 0.931 . S
H745 C733 0.929 . S
H746 C734 0.960 . S
H747 C734 0.962 . S
H748 C734 0.960 . S
H749 C735 0.961 . S
H750 C735 0.961 . S
H751 C735 0.961 . S
H752 C736 0.931 . S
H753 C741 0.930 . S
H754 C742 0.956 . S
H755 C742 0.961 . S
H756 C742 0.961 . S
H757 C743 0.958 . S
H758 C743 0.961 . S
H759 C743 0.960 . S
C760 C761 1.391 . S
C760 C762 1.394 . S
C760 H776 0.931 . S
C761 C760 1.391 . S
C761 C765 1.376 . S
C762 C760 1.394 . S
C762 C763 1.369 . S
C762 C766 1.531 . S
C763 C762 1.369 . S
C763 C764 1.410 . S
C763 C771 1.503 . S
C764 C763 1.410 . S
C764 C765 1.392 . S
C764 C767 1.511 . S
C765 C761 1.376 . S
C765 C764 1.392 . S
C765 H777 0.929 . S
C766 C762 1.531 . S
C766 H778 0.960 . S
C766 H779 0.962 . S
C766 H780 0.960 . S
C767 C764 1.511 . S
C767 H781 0.961 . S
C767 H782 0.961 . S
C767 H783 0.961 . S
C768 C769 1.370 . S
C768 C770 1.363 . S
C768 H784 0.931 . S
C769 C768 1.370 . S
C769 C773 1.408 . S
C770 C768 1.363 . S
C770 C771 1.370 . S
C770 C774 1.524 . S
C771 C763 1.503 . S
C771 C770 1.370 . S
C771 C772 1.403 . S
C772 C771 1.403 . S
C772 C773 1.404 . S
C772 C775 1.539 . S
C773 C769 1.408 . S
C773 C772 1.404 . S
C773 H785 0.930 . S
C774 C770 1.524 . S
C774 H786 0.956 . S
C774 H787 0.961 . S
C774 H788 0.961 . S
C775 C772 1.539 . S
C775 H789 0.958 . S
C775 H790 0.961 . S
C775 H791 0.960 . S
H776 C760 0.931 . S
H777 C765 0.929 . S
H778 C766 0.960 . S
H779 C766 0.962 . S
H780 C766 0.960 . S
H781 C767 0.961 . S
H782 C767 0.961 . S
H783 C767 0.961 . S
H784 C768 0.931 . S
H785 C773 0.930 . S
H786 C774 0.956 . S
H787 C774 0.961 . S
H788 C774 0.961 . S
H789 C775 0.958 . S
H790 C775 0.961 . S
H791 C775 0.960 . S
C792 C793 1.391 . S
C792 C794 1.394 . S
C792 H808 0.931 . S
C793 C792 1.391 . S
C793 C797 1.376 . S
C794 C792 1.394 . S
C794 C795 1.369 . S
C794 C798 1.531 . S
C795 C794 1.369 . S
C795 C796 1.410 . S
C795 C803 1.503 . S
C796 C795 1.410 . S
C796 C797 1.392 . S
C796 C799 1.511 . S
C797 C793 1.376 . S
C797 C796 1.392 . S
C797 H809 0.929 . S
C798 C794 1.531 . S
C798 H810 0.960 . S
C798 H811 0.962 . S
C798 H812 0.960 . S
C799 C796 1.511 . S
C799 H813 0.961 . S
C799 H814 0.961 . S
C799 H815 0.961 . S
C800 C801 1.370 . S
C800 C802 1.363 . S
C800 H816 0.931 . S
C801 C800 1.370 . S
C801 C805 1.408 . S
C802 C800 1.363 . S
C802 C803 1.370 . S
C802 C806 1.524 . S
C803 C795 1.503 . S
C803 C802 1.370 . S
C803 C804 1.403 . S
C804 C803 1.403 . S
C804 C805 1.404 . S
C804 C807 1.539 . S
C805 C801 1.408 . S
C805 C804 1.404 . S
C805 H817 0.930 . S
C806 C802 1.524 . S
C806 H818 0.956 . S
C806 H819 0.961 . S
C806 H820 0.961 . S
C807 C804 1.539 . S
C807 H821 0.958 . S
C807 H822 0.961 . S
C807 H823 0.960 . S
H808 C792 0.931 . S
H809 C797 0.929 . S
H810 C798 0.960 . S
H811 C798 0.962 . S
H812 C798 0.960 . S
H813 C799 0.961 . S
H814 C799 0.961 . S
H815 C799 0.961 . S
H816 C800 0.931 . S
H817 C805 0.930 . S
H818 C806 0.956 . S
H819 C806 0.961 . S
H820 C806 0.961 . S
H821 C807 0.958 . S
H822 C807 0.961 . S
H823 C807 0.960 . S
C824 C825 1.391 . S
C824 C826 1.394 . S
C824 H840 0.931 . S
C825 C824 1.391 . S
C825 C829 1.376 . S
C826 C824 1.394 . S
C826 C827 1.369 . S
C826 C830 1.531 . S
C827 C826 1.369 . S
C827 C828 1.410 . S
C827 C835 1.503 . S
C828 C827 1.410 . S
C828 C829 1.392 . S
C828 C831 1.511 . S
C829 C825 1.376 . S
C829 C828 1.392 . S
C829 H841 0.929 . S
C830 C826 1.531 . S
C830 H842 0.960 . S
C830 H843 0.962 . S
C830 H844 0.960 . S
C831 C828 1.511 . S
C831 H845 0.961 . S
C831 H846 0.961 . S
C831 H847 0.961 . S
C832 C833 1.370 . S
C832 C834 1.363 . S
C832 H848 0.931 . S
C833 C832 1.370 . S
C833 C837 1.408 . S
C834 C832 1.363 . S
C834 C835 1.370 . S
C834 C838 1.524 . S
C835 C827 1.503 . S
C835 C834 1.370 . S
C835 C836 1.403 . S
C836 C835 1.403 . S
C836 C837 1.404 . S
C836 C839 1.539 . S
C837 C833 1.408 . S
C837 C836 1.404 . S
C837 H849 0.930 . S
C838 C834 1.524 . S
C838 H850 0.956 . S
C838 H851 0.961 . S
C838 H852 0.961 . S
C839 C836 1.539 . S
C839 H853 0.958 . S
C839 H854 0.961 . S
C839 H855 0.960 . S
H840 C824 0.931 . S
H841 C829 0.929 . S
H842 C830 0.960 . S
H843 C830 0.962 . S
H844 C830 0.960 . S
H845 C831 0.961 . S
H846 C831 0.961 . S
H847 C831 0.961 . S
H848 C832 0.931 . S
H849 C837 0.930 . S
H850 C838 0.956 . S
H851 C838 0.961 . S
H852 C838 0.961 . S
H853 C839 0.958 . S
H854 C839 0.961 . S
H855 C839 0.960 . S
C856 C857 1.391 . S
C856 C858 1.394 . S
C856 H872 0.931 . S
C857 C856 1.391 . S
C857 C861 1.376 . S
C858 C856 1.394 . S
C858 C859 1.369 . S
C858 C862 1.531 . S
C859 C858 1.369 . S
C859 C860 1.410 . S
C859 C867 1.503 . S
C860 C859 1.410 . S
C860 C861 1.392 . S
C860 C863 1.511 . S
C861 C857 1.376 . S
C861 C860 1.392 . S
C861 H873 0.929 . S
C862 C858 1.531 . S
C862 H874 0.960 . S
C862 H875 0.962 . S
C862 H876 0.960 . S
C863 C860 1.511 . S
C863 H877 0.961 . S
C863 H878 0.961 . S
C863 H879 0.961 . S
C864 C865 1.370 . S
C864 C866 1.363 . S
C864 H880 0.931 . S
C865 C864 1.370 . S
C865 C869 1.408 . S
C866 C864 1.363 . S
C866 C867 1.370 . S
C866 C870 1.524 . S
C867 C859 1.503 . S
C867 C866 1.370 . S
C867 C868 1.403 . S
C868 C867 1.403 . S
C868 C869 1.404 . S
C868 C871 1.539 . S
C869 C865 1.408 . S
C869 C868 1.404 . S
C869 H881 0.930 . S
C870 C866 1.524 . S
C870 H882 0.956 . S
C870 H883 0.961 . S
C870 H884 0.961 . S
C871 C868 1.539 . S
C871 H885 0.958 . S
C871 H886 0.961 . S
C871 H887 0.960 . S
H872 C856 0.931 . S
H873 C861 0.929 . S
H874 C862 0.960 . S
H875 C862 0.962 . S
H876 C862 0.960 . S
H877 C863 0.961 . S
H878 C863 0.961 . S
H879 C863 0.961 . S
H880 C864 0.931 . S
H881 C869 0.930 . S
H882 C870 0.956 . S
H883 C870 0.961 . S
H884 C870 0.961 . S
H885 C871 0.958 . S
H886 C871 0.961 . S
H887 C871 0.960 . S
C888 C889 1.391 . S
C888 C890 1.394 . S
C888 H904 0.931 . S
C889 C888 1.391 . S
C889 C893 1.376 . S
C890 C888 1.394 . S
C890 C891 1.369 . S
C890 C894 1.531 . S
C891 C890 1.369 . S
C891 C892 1.410 . S
C891 C899 1.503 . S
C892 C891 1.410 . S
C892 C893 1.392 . S
C892 C895 1.511 . S
C893 C889 1.376 . S
C893 C892 1.392 . S
C893 H905 0.929 . S
C894 C890 1.531 . S
C894 H906 0.960 . S
C894 H907 0.962 . S
C894 H908 0.960 . S
C895 C892 1.511 . S
C895 H909 0.961 . S
C895 H910 0.961 . S
C895 H911 0.961 . S
C896 C897 1.370 . S
C896 C898 1.363 . S
C896 H912 0.931 . S
C897 C896 1.370 . S
C897 C901 1.408 . S
C898 C896 1.363 . S
C898 C899 1.370 . S
C898 C902 1.524 . S
C899 C891 1.503 . S
C899 C898 1.370 . S
C899 C900 1.403 . S
C900 C899 1.403 . S
C900 C901 1.404 . S
C900 C903 1.539 . S
C901 C897 1.408 . S
C901 C900 1.404 . S
C901 H913 0.930 . S
C902 C898 1.524 . S
C902 H914 0.956 . S
C902 H915 0.961 . S
C902 H916 0.961 . S
C903 C900 1.539 . S
C903 H917 0.958 . S
C903 H918 0.961 . S
C903 H919 0.960 . S
H904 C888 0.931 . S
H905 C893 0.929 . S
H906 C894 0.960 . S
H907 C894 0.962 . S
H908 C894 0.960 . S
H909 C895 0.961 . S
H910 C895 0.961 . S
H911 C895 0.961 . S
H912 C896 0.931 . S
H913 C901 0.930 . S
H914 C902 0.956 . S
H915 C902 0.961 . S
H916 C902 0.961 . S
H917 C903 0.958 . S
H918 C903 0.961 . S
H919 C903 0.960 . S
C920 C921 1.391 . S
C920 C922 1.394 . S
C920 H936 0.931 . S
C921 C920 1.391 . S
C921 C925 1.376 . S
C922 C920 1.394 . S
C922 C923 1.369 . S
C922 C926 1.531 . S
C923 C922 1.369 . S
C923 C924 1.410 . S
C923 C931 1.503 . S
C924 C923 1.410 . S
C924 C925 1.392 . S
C924 C927 1.511 . S
C925 C921 1.376 . S
C925 C924 1.392 . S
C925 H937 0.929 . S
C926 C922 1.531 . S
C926 H938 0.960 . S
C926 H939 0.962 . S
C926 H940 0.960 . S
C927 C924 1.511 . S
C927 H941 0.961 . S
C927 H942 0.961 . S
C927 H943 0.961 . S
C928 C929 1.370 . S
C928 C930 1.363 . S
C928 H944 0.931 . S
C929 C928 1.370 . S
C929 C933 1.408 . S
C930 C928 1.363 . S
C930 C931 1.370 . S
C930 C934 1.524 . S
C931 C923 1.503 . S
C931 C930 1.370 . S
C931 C932 1.403 . S
C932 C931 1.403 . S
C932 C933 1.404 . S
C932 C935 1.539 . S
C933 C929 1.408 . S
C933 C932 1.404 . S
C933 H945 0.930 . S
C934 C930 1.524 . S
C934 H946 0.956 . S
C934 H947 0.961 . S
C934 H948 0.961 . S
C935 C932 1.539 . S
C935 H949 0.958 . S
C935 H950 0.961 . S
C935 H951 0.960 . S
H936 C920 0.931 . S
H937 C925 0.929 . S
H938 C926 0.960 . S
H939 C926 0.962 . S
H940 C926 0.960 . S
H941 C927 0.961 . S
H942 C927 0.961 . S
H943 C927 0.961 . S
H944 C928 0.931 . S
H945 C933 0.930 . S
H946 C934 0.956 . S
H947 C934 0.961 . S
H948 C934 0.961 . S
H949 C935 0.958 . S
H950 C935 0.961 . S
H951 C935 0.960 . S
C952 C953 1.391 . S
C952 C954 1.394 . S
C952 H968 0.931 . S
C953 C952 1.391 . S
C953 C957 1.376 . S
C954 C952 1.394 . S
C954 C955 1.369 . S
C954 C958 1.531 . S
C955 C954 1.369 . S
C955 C956 1.410 . S
C955 C963 1.503 . S
C956 C955 1.410 . S
C956 C957 1.392 . S
C956 C959 1.511 . S
C957 C953 1.376 . S
C957 C956 1.392 . S
C957 H969 0.929 . S
C958 C954 1.531 . S
C958 H970 0.960 . S
C958 H971 0.962 . S
C958 H972 0.960 . S
C959 C956 1.511 . S
C959 H973 0.961 . S
C959 H974 0.961 . S
C959 H975 0.961 . S
C960 C961 1.370 . S
C960 C962 1.363 . S
C960 H976 0.931 . S
C961 C960 1.370 . S
C961 C965 1.408 . S
C962 C960 1.363 . S
C962 C963 1.370 . S
C962 C966 1.524 . S
C963 C955 1.503 . S
C963 C962 1.370 . S
C963 C964 1.403 . S
C964 C963 1.403 . S
C964 C965 1.404 . S
C964 C967 1.539 . S
C965 C961 1.408 . S
C965 C964 1.404 . S
C965 H977 0.930 . S
C966 C962 1.524 . S
C966 H978 0.956 . S
C966 H979 0.961 . S
C966 H980 0.961 . S
C967 C964 1.539 . S
C967 H981 0.958 . S
C967 H982 0.961 1_455 S
C967 H983 0.960 . S
H968 C952 0.931 . S
H969 C957 0.929 . S
H970 C958 0.960 . S
H971 C958 0.962 . S
H972 C958 0.960 . S
H973 C959 0.961 . S
H974 C959 0.961 . S
H975 C959 0.961 . S
H976 C960 0.931 . S
H977 C965 0.930 . S
H978 C966 0.956 . S
H979 C966 0.961 . S
H980 C966 0.961 . S
H981 C967 0.958 . S
H982 C967 0.961 1_655 S
H983 C967 0.960 . S
C984 C985 1.391 . S
C984 C986 1.394 . S
C984 H1000 0.931 . S
C985 C984 1.391 . S
C985 C989 1.376 . S
C986 C984 1.394 . S
C986 C987 1.369 . S
C986 C990 1.531 . S
C987 C986 1.369 . S
C987 C988 1.410 . S
C987 C995 1.503 . S
C988 C987 1.410 . S
C988 C989 1.392 . S
C988 C991 1.511 . S
C989 C985 1.376 . S
C989 C988 1.392 . S
C989 H1001 0.929 . S
C990 C986 1.531 . S
C990 H1002 0.960 . S
C990 H1003 0.962 . S
C990 H1004 0.960 . S
C991 C988 1.511 . S
C991 H1005 0.961 . S
C991 H1006 0.961 . S
C991 H1007 0.961 . S
C992 C993 1.370 . S
C992 C994 1.363 . S
C992 H1008 0.931 . S
C993 C992 1.370 . S
C993 C997 1.408 . S
C994 C992 1.363 . S
C994 C995 1.370 . S
C994 C998 1.524 . S
C995 C987 1.503 . S
C995 C994 1.370 . S
C995 C996 1.403 . S
C996 C995 1.403 . S
C996 C997 1.404 . S
C996 C999 1.539 . S
C997 C993 1.408 . S
C997 C996 1.404 . S
C997 H1009 0.930 . S
C998 C994 1.524 . S
C998 H1010 0.956 . S
C998 H1011 0.961 . S
C998 H1012 0.961 . S
C999 C996 1.539 . S
C999 H1013 0.958 . S
C999 H1014 0.961 . S
C999 H1015 0.960 . S
H1000 C984 0.931 . S
H1001 C989 0.929 . S
H1002 C990 0.960 . S
H1003 C990 0.962 . S
H1004 C990 0.960 . S
H1005 C991 0.961 . S
H1006 C991 0.961 . S
H1007 C991 0.961 . S
H1008 C992 0.931 . S
H1009 C997 0.930 . S
H1010 C998 0.956 . S
H1011 C998 0.961 . S
H1012 C998 0.961 . S
H1013 C999 0.958 . S
H1014 C999 0.961 . S
H1015 C999 0.960 . S
C249 C5 0.941 . S
C257 C94 1.227 . S
C281 C18 1.057 . S
C289 C143 1.076 . S
C321 C178 2.326 . S
C313 C30 2.363 . S
C345 C41 2.065 . S
C353 C217 2.017 . S
C385 C138 2.348 . S
C377 C7 2.128 . S
C417 C97 0.925 . S
C409 C16 0.955 . S
C449 C227 1.952 . S
C441 C29 1.891 . S
C481 C186 1.215 . S
C473 C38 1.097 . S
C505 C8 1.538 . S
C513 C214 1.593 . S
C545 C146 2.551 . S
C537 C27 2.340 . S
C569 C40 2.435 . S
C577 C107 2.449 . S
C601 C19 0.699 . S
C609 C183 0.704 . S
C641 C103 1.127 . S
C633 C51 1.042 . S
C665 C62 1.348 . S
C673 C134 1.347 . S
C697 C74 2.454 . S
C705 C187 2.420 . S
C729 C84 2.146 . S
C737 C226 2.236 . S
C761 C49 2.006 . S
C769 C147 2.591 1_556 S
C801 C106 0.943 . S
C793 C63 0.998 . S
C833 C218 1.815 . S
C825 C71 1.693 . S
C865 C177 1.356 . S
C857 C85 1.338 . S
C889 C52 1.469 . S
C897 C223 1.612 . S
C929 C137 2.618 . S
C921 C73 2.687 . S
C961 C98 1.976 . S
C953 C82 1.684 . S
C985 C60 0.704 . S
C993 C174 0.823 . S
