# Generated by pormake.
# Topology cor, (4,6)-cn, num edge types: 1
# Building blocks:
#     Node 0, Type 0, BuildingBlock: GALJAG_clean_sbu_0, # of connection points: 4
#     Node 1, Type 0, BuildingBlock: GALJAG_clean_sbu_0, # of connection points: 4
#     Node 2, Type 0, BuildingBlock: GALJAG_clean_sbu_0, # of connection points: 4
#     Node 3, Type 0, BuildingBlock: GALJAG_clean_sbu_0, # of connection points: 4
#     Node 4, Type 0, BuildingBlock: GALJAG_clean_sbu_0, # of connection points: 4
#     Node 5, Type 0, BuildingBlock: GALJAG_clean_sbu_0, # of connection points: 4
#     Node 6, Type 0, BuildingBlock: GALJAG_clean_sbu_0, # of connection points: 4
#     Node 7, Type 0, BuildingBlock: GALJAG_clean_sbu_0, # of connection points: 4
#     Node 8, Type 0, BuildingBlock: GALJAG_clean_sbu_0, # of connection points: 4
#     Node 9, Type 0, BuildingBlock: GALJAG_clean_sbu_0, # of connection points: 4
#     Node 10, Type 0, BuildingBlock: GALJAG_clean_sbu_0, # of connection points: 4
#     Node 11, Type 0, BuildingBlock: GALJAG_clean_sbu_0, # of connection points: 4
#     Node 12, Type 0, BuildingBlock: GALJAG_clean_sbu_0, # of connection points: 4
#     Node 13, Type 0, BuildingBlock: GALJAG_clean_sbu_0, # of connection points: 4
#     Node 14, Type 0, BuildingBlock: GALJAG_clean_sbu_0, # of connection points: 4
#     Node 15, Type 0, BuildingBlock: GALJAG_clean_sbu_0, # of connection points: 4
#     Node 16, Type 0, BuildingBlock: GALJAG_clean_sbu_0, # of connection points: 4
#     Node 17, Type 0, BuildingBlock: GALJAG_clean_sbu_0, # of connection points: 4
#     Node 18, Type 1, BuildingBlock: MIDCAF_clean_sbu_0, # of connection points: 6
#     Node 19, Type 1, BuildingBlock: MIDCAF_clean_sbu_0, # of connection points: 6
#     Node 20, Type 1, BuildingBlock: MIDCAF_clean_sbu_0, # of connection points: 6
#     Node 21, Type 1, BuildingBlock: MIDCAF_clean_sbu_0, # of connection points: 6
#     Node 22, Type 1, BuildingBlock: MIDCAF_clean_sbu_0, # of connection points: 6
#     Node 23, Type 1, BuildingBlock: MIDCAF_clean_sbu_0, # of connection points: 6
#     Node 24, Type 1, BuildingBlock: MIDCAF_clean_sbu_0, # of connection points: 6
#     Node 25, Type 1, BuildingBlock: MIDCAF_clean_sbu_0, # of connection points: 6
#     Node 26, Type 1, BuildingBlock: MIDCAF_clean_sbu_0, # of connection points: 6
#     Node 27, Type 1, BuildingBlock: MIDCAF_clean_sbu_0, # of connection points: 6
#     Node 28, Type 1, BuildingBlock: MIDCAF_clean_sbu_0, # of connection points: 6
#     Node 29, Type 1, BuildingBlock: MIDCAF_clean_sbu_0, # of connection points: 6
#     Edge 30, Type (0, 1), BuildingBlock: UVAHIK_clean_linker_0, # of connection points: 2
#     Edge 31, Type (0, 1), BuildingBlock: UVAHIK_clean_linker_0, # of connection points: 2
#     Edge 32, Type (0, 1), BuildingBlock: UVAHIK_clean_linker_0, # of connection points: 2
#     Edge 33, Type (0, 1), BuildingBlock: UVAHIK_clean_linker_0, # of connection points: 2
#     Edge 34, Type (0, 1), BuildingBlock: UVAHIK_clean_linker_0, # of connection points: 2
#     Edge 35, Type (0, 1), BuildingBlock: UVAHIK_clean_linker_0, # of connection points: 2
#     Edge 36, Type (0, 1), BuildingBlock: UVAHIK_clean_linker_0, # of connection points: 2
#     Edge 37, Type (0, 1), BuildingBlock: UVAHIK_clean_linker_0, # of connection points: 2
#     Edge 38, Type (0, 1), BuildingBlock: UVAHIK_clean_linker_0, # of connection points: 2
#     Edge 39, Type (0, 1), BuildingBlock: UVAHIK_clean_linker_0, # of connection points: 2
#     Edge 40, Type (0, 1), BuildingBlock: UVAHIK_clean_linker_0, # of connection points: 2
#     Edge 41, Type (0, 1), BuildingBlock: UVAHIK_clean_linker_0, # of connection points: 2
#     Edge 42, Type (0, 1), BuildingBlock: UVAHIK_clean_linker_0, # of connection points: 2
#     Edge 43, Type (0, 1), BuildingBlock: UVAHIK_clean_linker_0, # of connection points: 2
#     Edge 44, Type (0, 1), BuildingBlock: UVAHIK_clean_linker_0, # of connection points: 2
#     Edge 45, Type (0, 1), BuildingBlock: UVAHIK_clean_linker_0, # of connection points: 2
#     Edge 46, Type (0, 1), BuildingBlock: UVAHIK_clean_linker_0, # of connection points: 2
#     Edge 47, Type (0, 1), BuildingBlock: UVAHIK_clean_linker_0, # of connection points: 2
#     Edge 48, Type (0, 1), BuildingBlock: UVAHIK_clean_linker_0, # of connection points: 2
#     Edge 49, Type (0, 1), BuildingBlock: UVAHIK_clean_linker_0, # of connection points: 2
#     Edge 50, Type (0, 1), BuildingBlock: UVAHIK_clean_linker_0, # of connection points: 2
#     Edge 51, Type (0, 1), BuildingBlock: UVAHIK_clean_linker_0, # of connection points: 2
#     Edge 52, Type (0, 1), BuildingBlock: UVAHIK_clean_linker_0, # of connection points: 2
#     Edge 53, Type (0, 1), BuildingBlock: UVAHIK_clean_linker_0, # of connection points: 2
#     Edge 54, Type (0, 1), BuildingBlock: UVAHIK_clean_linker_0, # of connection points: 2
#     Edge 55, Type (0, 1), BuildingBlock: UVAHIK_clean_linker_0, # of connection points: 2
#     Edge 56, Type (0, 1), BuildingBlock: UVAHIK_clean_linker_0, # of connection points: 2
#     Edge 57, Type (0, 1), BuildingBlock: UVAHIK_clean_linker_0, # of connection points: 2
#     Edge 58, Type (0, 1), BuildingBlock: UVAHIK_clean_linker_0, # of connection points: 2
#     Edge 59, Type (0, 1), BuildingBlock: UVAHIK_clean_linker_0, # of connection points: 2
#     Edge 60, Type (0, 1), BuildingBlock: UVAHIK_clean_linker_0, # of connection points: 2
#     Edge 61, Type (0, 1), BuildingBlock: UVAHIK_clean_linker_0, # of connection points: 2
#     Edge 62, Type (0, 1), BuildingBlock: UVAHIK_clean_linker_0, # of connection points: 2
#     Edge 63, Type (0, 1), BuildingBlock: UVAHIK_clean_linker_0, # of connection points: 2
#     Edge 64, Type (0, 1), BuildingBlock: UVAHIK_clean_linker_0, # of connection points: 2
#     Edge 65, Type (0, 1), BuildingBlock: UVAHIK_clean_linker_0, # of connection points: 2
#     Edge 66, Type (0, 1), BuildingBlock: UVAHIK_clean_linker_0, # of connection points: 2
#     Edge 67, Type (0, 1), BuildingBlock: UVAHIK_clean_linker_0, # of connection points: 2
#     Edge 68, Type (0, 1), BuildingBlock: UVAHIK_clean_linker_0, # of connection points: 2
#     Edge 69, Type (0, 1), BuildingBlock: UVAHIK_clean_linker_0, # of connection points: 2
#     Edge 70, Type (0, 1), BuildingBlock: UVAHIK_clean_linker_0, # of connection points: 2
#     Edge 71, Type (0, 1), BuildingBlock: UVAHIK_clean_linker_0, # of connection points: 2
#     Edge 72, Type (0, 1), BuildingBlock: UVAHIK_clean_linker_0, # of connection points: 2
#     Edge 73, Type (0, 1), BuildingBlock: UVAHIK_clean_linker_0, # of connection points: 2
#     Edge 74, Type (0, 1), BuildingBlock: UVAHIK_clean_linker_0, # of connection points: 2
#     Edge 75, Type (0, 1), BuildingBlock: UVAHIK_clean_linker_0, # of connection points: 2
#     Edge 76, Type (0, 1), BuildingBlock: UVAHIK_clean_linker_0, # of connection points: 2
#     Edge 77, Type (0, 1), BuildingBlock: UVAHIK_clean_linker_0, # of connection points: 2
#     Edge 78, Type (0, 1), BuildingBlock: UVAHIK_clean_linker_0, # of connection points: 2
#     Edge 79, Type (0, 1), BuildingBlock: UVAHIK_clean_linker_0, # of connection points: 2
#     Edge 80, Type (0, 1), BuildingBlock: UVAHIK_clean_linker_0, # of connection points: 2
#     Edge 81, Type (0, 1), BuildingBlock: UVAHIK_clean_linker_0, # of connection points: 2
#     Edge 82, Type (0, 1), BuildingBlock: UVAHIK_clean_linker_0, # of connection points: 2
#     Edge 83, Type (0, 1), BuildingBlock: UVAHIK_clean_linker_0, # of connection points: 2
#     Edge 84, Type (0, 1), BuildingBlock: UVAHIK_clean_linker_0, # of connection points: 2
#     Edge 85, Type (0, 1), BuildingBlock: UVAHIK_clean_linker_0, # of connection points: 2
#     Edge 86, Type (0, 1), BuildingBlock: UVAHIK_clean_linker_0, # of connection points: 2
#     Edge 87, Type (0, 1), BuildingBlock: UVAHIK_clean_linker_0, # of connection points: 2
#     Edge 88, Type (0, 1), BuildingBlock: UVAHIK_clean_linker_0, # of connection points: 2
#     Edge 89, Type (0, 1), BuildingBlock: UVAHIK_clean_linker_0, # of connection points: 2
#     Edge 90, Type (0, 1), BuildingBlock: UVAHIK_clean_linker_0, # of connection points: 2
#     Edge 91, Type (0, 1), BuildingBlock: UVAHIK_clean_linker_0, # of connection points: 2
#     Edge 92, Type (0, 1), BuildingBlock: UVAHIK_clean_linker_0, # of connection points: 2
#     Edge 93, Type (0, 1), BuildingBlock: UVAHIK_clean_linker_0, # of connection points: 2
#     Edge 94, Type (0, 1), BuildingBlock: UVAHIK_clean_linker_0, # of connection points: 2
#     Edge 95, Type (0, 1), BuildingBlock: UVAHIK_clean_linker_0, # of connection points: 2
#     Edge 96, Type (0, 1), BuildingBlock: UVAHIK_clean_linker_0, # of connection points: 2
#     Edge 97, Type (0, 1), BuildingBlock: UVAHIK_clean_linker_0, # of connection points: 2
#     Edge 98, Type (0, 1), BuildingBlock: UVAHIK_clean_linker_0, # of connection points: 2
#     Edge 99, Type (0, 1), BuildingBlock: UVAHIK_clean_linker_0, # of connection points: 2
#     Edge 100, Type (0, 1), BuildingBlock: UVAHIK_clean_linker_0, # of connection points: 2
#     Edge 101, Type (0, 1), BuildingBlock: UVAHIK_clean_linker_0, # of connection points: 2
# Relax obj value: 0.119
# Max RMSD: 0.171
# Mean RMSD: 0.112
data_MOF--net-cor--node1-GALJAG_clean_sbu_0--node2-MIDCAF_clean_sbu_0--edge1-UVAHIK_clean_linker_0
_symmetry_space_group_name_H-M    P1
_symmetry_Int_Tables_number       1
_symmetry_cell_setting            triclinic
loop_
_symmetry_equiv_pos_as_xyz
'x, y, z'
_cell_length_a     48.197803
_cell_length_b     48.213798
_cell_length_c     137.7256
_cell_angle_alpha  89.918533
_cell_angle_beta   90.051252
_cell_angle_gamma 120.27173
loop_
_atom_site_label
_atom_site_type_symbol
_atom_site_fract_x
_atom_site_fract_y
_atom_site_fract_z
_atom_type_partial_charge
In0 In 0.74978 0.01696 0.25249 0.0
O1 O 0.76092 0.06905 0.25259 0.0
O2 O 0.72245 0.03543 0.24374 0.0
C3 C 0.78788 0.01924 0.26716 0.0
C4 C 0.77988 0.01823 0.23591 0.0
C5 C 0.69515 0.96775 0.25986 0.0
O6 O 0.77538 0.03682 0.26699 0.0
O7 O 0.78203 0.00153 0.25981 0.0
O8 O 0.71083 0.96383 0.25319 0.0
O9 O 0.70622 0.99654 0.26244 0.0
C10 C 0.7397 0.06429 0.24636 0.0
O11 O 0.75125 0.99647 0.23763 0.0
O12 O 0.79344 0.03803 0.24273 0.0
In13 In 0.02194 0.75131 0.25258 0.0
O14 O 0.07476 0.76442 0.25331 0.0
O15 O 0.04124 0.72751 0.26261 0.0
C16 C 0.02113 0.78072 0.23604 0.0
C17 C 0.02095 0.78779 0.26723 0.0
C18 C 0.97298 0.69386 0.24682 0.0
O19 O 0.04211 0.77281 0.23759 0.0
O20 O 0.0019 0.7751 0.24297 0.0
O21 O 0.96954 0.71089 0.25313 0.0
O22 O 0.00142 0.705 0.24385 0.0
C23 C 0.07018 0.7448 0.26007 0.0
O24 O 0.0022 0.75774 0.26695 0.0
O25 O 0.03927 0.79938 0.25997 0.0
In26 In 0.29742 0.29749 0.25672 0.0
O27 O 0.28375 0.33655 0.25605 0.0
O28 O 0.31934 0.34205 0.26624 0.0
C29 C 0.2672 0.26202 0.24099 0.0
C30 C 0.2611 0.26143 0.27165 0.0
C31 C 0.35517 0.30772 0.25083 0.0
O32 O 0.27298 0.29057 0.24191 0.0
O33 O 0.27559 0.25145 0.24811 0.0
O34 O 0.33959 0.28855 0.25765 0.0
O35 O 0.34258 0.32317 0.24747 0.0
C36 C 0.30223 0.35284 0.26291 0.0
O37 O 0.29127 0.27359 0.27156 0.0
O38 O 0.24954 0.26687 0.26415 0.0
In39 In 0.29063 0.02272 0.75203 0.0
O40 O 0.28724 0.04615 0.76608 0.0
O41 O 0.2446 0.00622 0.76045 0.0
C42 C 0.34963 0.0649 0.74512 0.0
C43 C 0.2941 0.97411 0.76029 0.0
C44 C 0.25835 0.02242 0.73602 0.0
O45 O 0.33304 0.07384 0.74984 0.0
O46 O 0.33729 0.03489 0.74446 0.0
O47 O 0.26347 -0.00029 0.73792 0.0
O48 O 0.2681 0.04408 0.7424 0.0
C49 C 0.2576 0.02629 0.76725 0.0
O50 O 0.28037 0.97086 0.75218 0.0
O51 O 0.30715 0.00194 0.76388 0.0
In52 In 0.03298 0.30336 0.75234 0.0
O53 O 0.05096 0.29434 0.73789 0.0
O54 O 0.0067 0.25747 0.74378 0.0
C55 C 0.08041 0.35772 0.76011 0.0
C56 C 0.99076 0.31988 0.74584 0.0
C57 C 0.03316 0.26837 0.7675 0.0
O58 O 0.0855 0.34409 0.75302 0.0
O59 O 0.05145 0.34486 0.76275 0.0
O60 O 0.01115 0.27513 0.76638 0.0
O61 O 0.05367 0.27784 0.76076 0.0
C62 C 0.02656 0.2666 0.73687 0.0
O63 O 0.9835 0.29859 0.7523 0.0
O64 O 0.01959 0.33357 0.743 0.0
In65 In 0.7405 0.74964 0.75569 0.0
O66 O 0.75075 0.77523 0.74102 0.0
O67 O 0.78687 0.76766 0.7472 0.0
C68 C 0.68686 0.7488 0.76166 0.0
C69 C 0.72119 0.68892 0.75036 0.0
C70 C 0.77471 0.78199 0.7714 0.0
O71 O 0.70443 0.76738 0.75499 0.0
O72 O 0.69558 0.72989 0.76489 0.0
O73 O 0.76488 0.75248 0.7702 0.0
O74 O 0.76883 0.79531 0.76444 0.0
C75 C 0.77814 0.77804 0.7401 0.0
O76 O 0.74099 0.70272 0.75718 0.0
O77 O 0.71063 0.70547 0.74645 0.0
In78 In 0.41102 0.35064 0.58741 0.0
O79 O 0.41882 0.332 0.57295 0.0
O80 O 0.45759 0.37458 0.57899 0.0
C81 C 0.35497 0.30113 0.59382 0.0
C82 C 0.39981 0.39661 0.58067 0.0
C83 C 0.44535 0.35143 0.60293 0.0
O84 O 0.37107 0.29796 0.58711 0.0
O85 O 0.36636 0.32949 0.59688 0.0
O86 O 0.43687 0.37212 0.60174 0.0
O87 O 0.43747 0.33127 0.59614 0.0
C88 C 0.4473 0.35509 0.57199 0.0
O89 O 0.41883 0.40152 0.58764 0.0
O90 O 0.38508 0.36809 0.57757 0.0
In91 In 0.68255 0.08404 0.58752 0.0
O92 O 0.65606 0.08972 0.60041 0.0
O93 O 0.69577 0.13188 0.59452 0.0
C94 C 0.63711 0.02526 0.58139 0.0
C95 C 0.7309 0.08034 0.59632 0.0
C96 C 0.68283 0.11221 0.57059 0.0
O97 O 0.63188 0.04049 0.58789 0.0
O98 O 0.66576 0.03882 0.57842 0.0
O99 O 0.70485 0.10627 0.57274 0.0
O100 O 0.66196 0.10518 0.5771 0.0
C101 C 0.67369 0.1199 0.6008 0.0
O102 O 0.73568 0.09885 0.58922 0.0
O103 O 0.70183 0.06319 0.59874 0.0
In104 In 0.96391 0.61784 0.59125 0.0
O105 O 0.94419 0.6521 0.59249 0.0
O106 O 0.9863 0.66349 0.60048 0.0
C107 C 0.92949 0.58254 0.57587 0.0
C108 C 0.93838 0.57989 0.60696 0.0
C109 C 0.02078 0.63233 0.58324 0.0
O110 O 0.93597 0.61116 0.57711 0.0
O111 O 0.93905 0.57157 0.58258 0.0
O112 O 0.00843 0.61287 0.59021 0.0
O113 O 0.00545 0.64601 0.58072 0.0
C114 C 0.96527 0.67083 0.59844 0.0
O115 O 0.96799 0.59357 0.605 0.0
O116 O 0.92174 0.58504 0.60093 0.0
In117 In 0.95292 0.35554 0.08776 0.0
O118 O 0.94321 0.30392 0.08765 0.0
O119 O 0.98001 0.33788 0.09693 0.0
C120 C 0.91738 0.34998 0.07198 0.0
C121 C 0.92124 0.35358 0.10408 0.0
C122 C 0.00673 0.40811 0.08133 0.0
O123 O 0.9332 0.33564 0.07261 0.0
O124 O 0.91846 0.36564 0.07944 0.0
O125 O 0.9849 0.40985 0.08586 0.0
O126 O 0.00218 0.38006 0.08049 0.0
C127 C 0.96387 0.30908 0.09413 0.0
O128 O 0.95017 0.37505 0.10265 0.0
O129 O 0.90817 0.33435 0.09711 0.0
In130 In 0.67909 0.62058 0.08879 0.0
O131 O 0.69864 0.61621 0.0741 0.0
O132 O 0.66398 0.57337 0.08121 0.0
C133 C 0.72553 0.67872 0.0949 0.0
C134 C 0.6288 0.62445 0.08182 0.0
C135 C 0.68403 0.59124 0.10476 0.0
O136 O 0.73025 0.66324 0.08834 0.0
O137 O 0.69694 0.66572 0.09792 0.0
O138 O 0.66074 0.5961 0.1036 0.0
O139 O 0.70343 0.59988 0.09774 0.0
C140 C 0.68145 0.58595 0.07384 0.0
O141 O 0.62555 0.60479 0.08843 0.0
O142 O 0.65742 0.64307 0.0792 0.0
In143 In 0.41559 0.08003 0.08744 0.0
O144 O 0.42653 0.03918 0.08821 0.0
O145 O 0.39282 0.03626 0.07765 0.0
C146 C 0.44604 0.11442 0.10335 0.0
C147 C 0.45213 0.11311 0.07215 0.0
C148 C 0.3578 0.06967 0.0933 0.0
O149 O 0.43944 0.08565 0.10232 0.0
O150 O 0.43868 0.12583 0.09621 0.0
O151 O 0.37548 0.09226 0.08757 0.0
O152 O 0.36839 0.0513 0.09551 0.0
C153 C 0.40844 0.02399 0.08114 0.0
O154 O 0.42284 0.10521 0.07273 0.0
O155 O 0.46288 0.10562 0.07943 0.0
In156 In 0.08621 0.69749 0.92053 0.0
O157 O 0.09708 0.74942 0.92133 0.0
O158 O 0.06011 0.71723 0.91178 0.0
C159 C 0.11728 0.69278 0.93616 0.0
C160 C 0.12183 0.7035 0.90479 0.0
C161 C 0.02892 0.64731 0.92565 0.0
O162 O 0.10935 0.71405 0.93554 0.0
O163 O 0.11098 0.67529 0.92873 0.0
O164 O 0.04559 0.64562 0.91885 0.0
O165 O 0.04049 0.67469 0.92951 0.0
C166 C 0.07688 0.74564 0.91484 0.0
O167 O 0.0934 0.6804 0.90578 0.0
O168 O 0.13268 0.72221 0.91197 0.0
In169 In 0.3506 0.41483 0.92066 0.0
O170 O 0.40253 0.42535 0.92027 0.0
O171 O 0.36951 0.38878 0.92979 0.0
C172 C 0.34885 0.44848 0.9053 0.0
C173 C 0.35193 0.44763 0.93664 0.0
C174 C 0.30205 0.35868 0.91402 0.0
O175 O 0.3711 0.44207 0.90638 0.0
O176 O 0.32886 0.43937 0.91218 0.0
O177 O 0.29841 0.37409 0.92083 0.0
O178 O 0.33051 0.37073 0.91096 0.0
C179 C 0.3981 0.40512 0.92683 0.0
O180 O 0.33094 0.41846 0.9354 0.0
O181 O 0.37111 0.46047 0.92963 0.0
In182 In 0.63308 0.96067 0.92512 0.0
O183 O 0.63095 0.93667 0.93975 0.0
O184 O 0.58867 0.935 0.93445 0.0
C185 C 0.68775 0.97072 0.91668 0.0
C186 C 0.64162 0.01767 0.93112 0.0
C187 C 0.59636 0.92234 0.9107 0.0
O188 O 0.67856 0.9567 0.9248 0.0
O189 O 0.67051 0.98114 0.91321 0.0
O190 O 0.60112 0.95045 0.91183 0.0
O191 O 0.60897 0.9133 0.91708 0.0
C192 C 0.60189 0.9284 0.94125 0.0
O193 O 0.62033 0.00027 0.92502 0.0
O194 O 0.6599 0.0073 0.93367 0.0
In195 In 0.61652 0.67813 0.42044 0.0
O196 O 0.61441 0.69841 0.43523 0.0
O197 O 0.57129 0.65953 0.42949 0.0
C198 C 0.67316 0.72587 0.41378 0.0
C199 C 0.62352 0.62901 0.42669 0.0
C200 C 0.58392 0.67975 0.40476 0.0
O201 O 0.65748 0.73036 0.42032 0.0
O202 O 0.66115 0.6971 0.41105 0.0
O203 O 0.59214 0.65881 0.40576 0.0
O204 O 0.59056 0.69848 0.41189 0.0
C205 C 0.58496 0.67835 0.43652 0.0
O206 O 0.60252 0.6252 0.4205 0.0
O207 O 0.64195 0.65772 0.42926 0.0
In208 In 0.3557 0.95785 0.42172 0.0
O209 O 0.37545 0.95634 0.40676 0.0
O210 O 0.33764 0.91277 0.41264 0.0
C211 C 0.4037 0.01445 0.42835 0.0
C212 C 0.30558 0.9637 0.41579 0.0
C213 C 0.35691 0.92514 0.43743 0.0
O214 O 0.40823 0.99834 0.42197 0.0
O215 O 0.37481 0.00293 0.4309 0.0
O216 O 0.3364 0.93391 0.43643 0.0
O217 O 0.37552 0.93135 0.43028 0.0
C218 C 0.35586 0.92676 0.40551 0.0
O219 O 0.30257 0.94287 0.42193 0.0
O220 O 0.33406 0.98259 0.41308 0.0
In221 In 0.07676 0.41392 0.42066 0.0
O222 O 0.08331 0.43776 0.40577 0.0
O223 O 0.12352 0.4381 0.41232 0.0
C224 C 0.01981 0.40527 0.42671 0.0
C225 C 0.06859 0.35674 0.41515 0.0
C226 C 0.10877 0.45064 0.43601 0.0
O227 O 0.03561 0.4245 0.41993 0.0
O228 O 0.03178 0.38909 0.42994 0.0
O229 O 0.10193 0.42171 0.43535 0.0
O230 O 0.10084 0.46112 0.42876 0.0
C231 C 0.11242 0.4452 0.40504 0.0
O232 O 0.08744 0.37302 0.42194 0.0
O233 O 0.05268 0.36852 0.41155 0.0
Zn234 Zn 0.03006 0.02461 0.13592 0.0
Zn235 Zn 0.01505 0.0193 0.17076 0.0
Zn236 Zn 0.02125 0.02201 0.15251 0.0
C237 C 0.98932 0.95619 0.16495 0.0
C238 C 0.08012 0.0555 0.16787 0.0
O239 O 0.00338 0.05296 0.14643 0.0
O240 O 0.03552 0.06766 0.13379 0.0
C241 C 0.97817 0.9659 0.13824 0.0
O242 O 0.99731 0.97011 0.15657 0.0
O243 O 0.99352 0.97253 0.17252 0.0
O244 O 0.06028 0.04444 0.17477 0.0
O245 O 0.07033 0.0494 0.159 0.0
O246 O 0.98861 0.98793 0.13196 0.0
O247 O 0.99133 0.97212 0.14671 0.0
O248 O 0.0737 0.04316 0.14934 0.0
O249 O 0.06841 0.01992 0.13515 0.0
C250 C 0.08586 0.03534 0.14225 0.0
O251 O 0.99161 0.04436 0.15605 0.0
O252 O 0.98904 0.03982 0.17205 0.0
C253 C 0.01643 0.07164 0.13907 0.0
C254 C 0.98155 0.0484 0.1643 0.0
Zn255 Zn 0.02209 0.02064 0.32726 0.0
Zn256 Zn 0.0154 0.01286 0.37891 0.0
Zn257 Zn 0.01768 0.01555 0.36098 0.0
C258 C 0.05056 0.07832 0.37412 0.0
C259 C 0.95148 0.9833 0.3725 0.0
O260 O 0.0391 0.98855 0.35459 0.0
O261 O 0.03033 0.00779 0.3414 0.0
C262 C 0.04719 0.06617 0.34613 0.0
O263 O 0.04345 0.06638 0.36551 0.0
O264 O 0.04221 0.05992 0.38141 0.0
O265 O 0.96784 0.9921 0.38022 0.0
O266 O 0.96575 0.98968 0.36422 0.0
O267 O 0.03106 0.03931 0.34174 0.0
O268 O 0.04639 0.0652 0.35541 0.0
O269 O 0.96973 0.9955 0.35416 0.0
O270 O -0.00062 0.00847 0.3412 0.0
C271 C 0.97138 0.99693 0.34489 0.0
O272 O 0.04258 0.98909 0.36474 0.0
O273 O 0.03552 0.98578 0.38063 0.0
C274 C 0.04026 0.99031 0.34531 0.0
C275 C 0.04655 0.97974 0.37311 0.0
Zn276 Zn 0.01852 0.02073 0.87407 0.0
Zn277 Zn 0.01822 0.02285 0.83697 0.0
Zn278 Zn 0.01999 0.02283 0.85516 0.0
C279 C 0.04996 0.08652 0.84184 0.0
C280 C 0.95535 0.98947 0.84187 0.0
O281 O 0.04725 -0.0007 0.85983 0.0
O282 O 0.048 0.00381 0.87582 0.0
C283 C 0.0469 0.08528 0.86898 0.0
O284 O 0.04113 0.07361 0.8503 0.0
O285 O 0.04508 0.06917 0.83448 0.0
O286 O 0.97194 0.00343 0.83447 0.0
O287 O 0.96921 0.99305 0.85016 0.0
O288 O 0.036 0.06725 0.87633 0.0
O289 O 0.04364 0.07303 0.86046 0.0
O290 O 0.96931 0.99614 0.86033 0.0
O291 O 0.97192 0.99133 0.87623 0.0
C292 C 0.95537 0.98592 0.86862 0.0
O293 O 0.04989 0.00278 0.84962 0.0
O294 O 0.0377 0.99645 0.83402 0.0
C295 C 0.05605 0.99488 0.86825 0.0
C296 C 0.05265 0.99346 0.84108 0.0
Zn297 Zn 0.01634 0.01747 0.66948 0.0
Zn298 Zn 0.01072 0.01235 0.63222 0.0
Zn299 Zn 0.01389 0.01498 0.65123 0.0
C300 C 0.97882 0.94896 0.63853 0.0
C301 C 0.07588 0.04392 0.63703 0.0
O302 O 0.99382 0.04538 0.65634 0.0
O303 O 0.99092 0.03802 0.67223 0.0
C304 C 0.98242 0.95322 0.66556 0.0
O305 O 0.9877 0.96342 0.64679 0.0
O306 O 0.98465 0.96506 0.6308 0.0
O307 O 0.05759 0.03335 0.62973 0.0
O308 O 0.0639 0.03933 0.64564 0.0
O309 O 0.99646 0.97158 0.67263 0.0
O310 O 0.98517 0.96494 0.65696 0.0
O311 O 0.0652 0.03673 0.6558 0.0
O312 O 0.06294 0.04389 0.67155 0.0
C313 C 0.07929 0.04682 0.66408 0.0
O314 O 0.9883 0.04028 0.64628 0.0
O315 O 0.9894 0.03794 0.63026 0.0
C316 C 0.98615 0.05051 0.66485 0.0
C317 C 0.9812 0.04666 0.63784 0.0
Zn318 Zn 0.68374 0.35147 0.50403 0.0
Zn319 Zn 0.68764 0.35261 0.46681 0.0
Zn320 Zn 0.68687 0.35326 0.48571 0.0
C321 C 0.75133 0.38986 0.47271 0.0
C322 C 0.65941 0.28909 0.47225 0.0
O323 O 0.6565 0.37367 0.49039 0.0
O324 O 0.66263 0.37663 0.50632 0.0
C325 C 0.74838 0.38657 0.49993 0.0
O326 O 0.73793 0.38092 0.48111 0.0
O327 O 0.73435 0.382 0.46513 0.0
O328 O 0.67003 0.30608 0.46469 0.0
O329 O 0.66342 0.30263 0.48061 0.0
O330 O 0.7299 0.37265 0.507 0.0
O331 O 0.73689 0.38326 0.49129 0.0
O332 O 0.6667 0.30271 0.4908 0.0
O333 O 0.65832 0.30496 0.50646 0.0
C334 C 0.65662 0.28872 0.49909 0.0
O335 O 0.65989 0.37641 0.48028 0.0
O336 O 0.65874 0.36986 0.46437 0.0
C337 C 0.65104 0.38171 0.49878 0.0
C338 C 0.65112 0.38003 0.47175 0.0
Zn339 Zn 0.67733 0.33578 0.70915 0.0
Zn340 Zn 0.6959 0.39418 0.68182 0.0
Zn341 Zn 0.68705 0.35766 0.69316 0.0
C342 C 0.63217 0.36174 0.68326 0.0
C343 C 0.75322 0.41032 0.68665 0.0
O344 O 0.72878 0.35163 0.69465 0.0
O345 O 0.71533 0.32965 0.70919 0.0
C346 C 0.62539 0.29194 0.697 0.0
O347 O 0.64141 0.34144 0.68517 0.0
O348 O 0.6527 0.39148 0.68379 0.0
O349 O 0.73913 0.42646 0.68729 0.0
O350 O 0.73632 0.37958 0.68755 0.0
O351 O 0.63502 0.29729 0.70571 0.0
O352 O 0.64178 0.31238 0.69029 0.0
O353 O 0.68453 0.39441 0.70084 0.0
O354 O 0.6797 0.37485 0.71553 0.0
C355 C 0.68229 0.39696 0.70996 0.0
O356 O 0.66071 0.32655 0.6809 0.0
O357 O 0.69645 0.36359 0.67128 0.0
C358 C 0.73417 0.33865 0.70199 0.0
C359 C 0.67585 0.33427 0.67272 0.0
Zn360 Zn 0.68621 0.34913 0.21007 0.0
Zn361 Zn 0.68345 0.35119 0.17288 0.0
Zn362 Zn 0.68455 0.35023 0.19115 0.0
C363 C 0.71388 0.41449 0.1779 0.0
C364 C 0.62011 0.3171 0.17793 0.0
O365 O 0.71108 0.3256 0.19561 0.0
O366 O 0.7136 0.32969 0.21161 0.0
C367 C 0.7149 0.41343 0.20494 0.0
O368 O 0.70528 0.40109 0.18632 0.0
O369 O 0.70946 0.39761 0.17045 0.0
O370 O 0.63701 0.33104 0.17058 0.0
O371 O 0.63354 0.32051 0.18628 0.0
O372 O 0.70577 0.3958 0.21239 0.0
O373 O 0.70931 0.40071 0.19641 0.0
O374 O 0.63419 0.3238 0.19647 0.0
O375 O 0.63951 0.32159 0.21235 0.0
C376 C 0.62167 0.31498 0.20499 0.0
O377 O 0.71379 0.32974 0.18546 0.0
O378 O 0.70333 0.32533 0.16975 0.0
C379 C 0.72009 0.32016 0.20387 0.0
C380 C 0.7172 0.32116 0.17689 0.0
Zn381 Zn 0.70398 0.36266 0.01215 0.0
Zn382 Zn 0.68325 0.34532 0.96427 0.0
Zn383 Zn 0.69158 0.35678 0.98227 0.0
C384 C 0.6543 0.28612 0.97448 0.0
C385 C 0.7493 0.38111 0.96648 0.0
O386 O 0.67064 0.38603 0.98705 0.0
O387 O 0.68867 0.37422 0.99967 0.0
C388 C 0.6652 0.29973 1.00109 0.0
O389 O 0.66606 0.30465 0.98187 0.0
O390 O 0.65756 0.29788 0.96607 0.0
O391 O 0.72891 0.36577 0.95993 0.0
O392 O 0.73986 0.38032 0.97529 0.0
O393 O 0.6775 0.31515 0.009 0.0
O394 O 0.66948 0.31326 0.99257 0.0
O395 O 0.74355 0.38111 0.98517 0.0
O396 O 0.7204 0.37719 0.99871 0.0
C397 C 0.7459 0.38362 0.99435 0.0
O398 O 0.66297 0.37866 0.97729 0.0
O399 O 0.66016 0.36893 0.96154 0.0
C400 C 0.67384 0.38749 0.99624 0.0
C401 C 0.65357 0.38086 0.96872 0.0
Zn402 Zn 0.33069 0.68461 0.84319 0.0
Zn403 Zn 0.34908 0.69355 0.8005 0.0
Zn404 Zn 0.35178 0.6952 0.81931 0.0
C405 C 0.41428 0.73143 0.80562 0.0
C406 C 0.32397 0.63053 0.80665 0.0
O407 O 0.32129 0.7157 0.82437 0.0
O408 O 0.30429 0.70316 0.83978 0.0
C409 C 0.39996 0.72526 0.83355 0.0
O410 O 0.40266 0.72273 0.81424 0.0
O411 O 0.39571 0.72331 0.79838 0.0
O412 O 0.33234 0.64692 0.79894 0.0
O413 O 0.32882 0.64453 0.81493 0.0
O414 O 0.37273 0.70927 0.83728 0.0
O415 O 0.40143 0.72472 0.82433 0.0
O416 O 0.33207 0.64534 0.82551 0.0
O417 O 0.313 0.63872 0.84071 0.0
C418 C 0.31844 0.62761 0.83308 0.0
O419 O 0.32574 0.71918 0.81413 0.0
O420 O 0.31943 0.71031 0.79832 0.0
C421 C 0.30495 0.71625 0.83175 0.0
C422 C 0.31484 0.72216 0.80589 0.0
Zn423 Zn 0.35399 0.68351 0.04269 0.0
Zn424 Zn 0.35177 0.68907 0.00569 0.0
Zn425 Zn 0.35162 0.68535 0.02395 0.0
C426 C 0.28808 0.65971 0.01063 0.0
C427 C 0.38823 0.75124 0.01117 0.0
O428 O 0.37439 0.65655 0.0281 0.0
O429 O 0.37141 0.65449 0.04413 0.0
C430 C 0.28918 0.65671 0.03792 0.0
O431 O 0.30087 0.66643 0.01916 0.0
O432 O 0.30539 0.66519 1.00322 0.0
O433 O 0.37404 0.73573 1.00364 0.0
O434 O 0.38336 0.73646 0.01936 0.0
O435 O 0.30767 0.66516 0.04518 0.0
O436 O 0.30101 0.6621 0.02927 0.0
O437 O 0.37955 0.73541 0.02953 0.0
O438 O 0.38275 0.7298 0.04535 0.0
C439 C 0.38921 0.7478 0.03803 0.0
O440 O 0.37074 0.6553 0.01798 0.0
O441 O 0.37588 0.66743 1.00237 0.0
C442 C 0.37954 0.64699 0.0363 0.0
C443 C 0.37928 0.65243 0.00934 0.0
Zn444 Zn 0.35288 0.68433 0.54178 0.0
Zn445 Zn 0.354 0.68557 0.50474 0.0
Zn446 Zn 0.35362 0.68525 0.52287 0.0
C447 C 0.38707 0.74901 0.50938 0.0
C448 C 0.29044 0.65524 0.5092 0.0
O449 O 0.37831 0.65934 0.52788 0.0
O450 O 0.37909 0.66381 0.54386 0.0
C451 C 0.38393 0.74867 0.53644 0.0
O452 O 0.37659 0.73607 0.51777 0.0
O453 O 0.38329 0.73151 0.50213 0.0
O454 O 0.3082 0.66887 0.50198 0.0
O455 O 0.303 0.65746 0.51764 0.0
O456 O 0.37331 0.73116 0.54389 0.0
O457 O 0.37924 0.73583 0.52795 0.0
O458 O 0.30272 0.66019 0.5278 0.0
O459 O 0.30593 0.65793 0.54376 0.0
C460 C 0.28907 0.65173 0.53618 0.0
O461 O 0.38166 0.66277 0.51771 0.0
O462 O 0.37067 0.6566 0.50204 0.0
C463 C 0.38606 0.65375 0.53632 0.0
C464 C 0.38428 0.65266 0.50929 0.0
Zn465 Zn 0.35232 0.69188 0.29963 0.0
Zn466 Zn 0.35242 0.6912 0.33663 0.0
Zn467 Zn 0.35269 0.69148 0.31853 0.0
C468 C 0.41604 0.72148 0.33219 0.0
C469 C 0.3195 0.62775 0.33199 0.0
O470 O 0.32877 0.71832 0.31358 0.0
O471 O 0.33391 0.72001 0.29762 0.0
C472 C 0.41644 0.71969 0.30509 0.0
O473 O 0.40322 0.7119 0.32374 0.0
O474 O 0.39857 0.71833 0.33939 0.0
O475 O 0.33336 0.64504 0.33927 0.0
O476 O 0.32271 0.64076 0.32357 0.0
O477 O 0.39902 0.71021 0.29759 0.0
O478 O 0.40349 0.7152 0.31356 0.0
O479 O 0.32565 0.64083 0.31341 0.0
O480 O 0.32394 0.6452 0.29747 0.0
C481 C 0.31679 0.6278 0.30496 0.0
O482 O 0.33234 0.72145 0.32377 0.0
O483 O 0.3254 0.71001 0.33941 0.0
C484 C 0.32403 0.72706 0.30518 0.0
C485 C 0.32254 0.72449 0.3322 0.0
C486 C 0.24391 0.25445 0.22421 0.0
C487 C 0.25324 0.24263 0.23214 0.0
C488 C 0.23129 0.23582 0.21582 0.0
C489 C 0.1907 0.15139 0.20795 0.0
H490 H 0.21051 0.18675 0.18189 0.0
C491 C 0.12962 0.06766 0.17661 0.0
C492 C 0.11374 0.07803 0.17036 0.0
C493 C 0.15484 0.08973 0.18243 0.0
C494 C 0.20481 0.17655 0.18913 0.0
H495 H 0.25746 0.20248 0.23741 0.0
H496 H 0.23587 0.17034 0.22283 0.0
H497 H 0.23682 0.2218 0.19586 0.0
H498 H 0.11331 0.11945 0.16451 0.0
H499 H 0.15693 0.15813 0.17482 0.0
H500 H 0.15816 0.10656 0.20141 0.0
C501 C 0.23769 0.19365 0.22311 0.0
C502 C 0.21973 0.19663 0.19712 0.0
C503 C 0.25013 0.21213 0.23147 0.0
C504 C 0.12564 0.11104 0.16919 0.0
C505 C 0.15054 0.13316 0.17515 0.0
C506 C 0.17588 0.13145 0.20002 0.0
C507 C 0.22781 0.20509 0.21522 0.0
C508 C 0.21272 0.18422 0.20662 0.0
C509 C 0.16394 0.12243 0.18227 0.0
C510 C 0.18262 0.14369 0.19049 0.0
H511 H 0.24622 0.27797 0.22451 0.0
H512 H 0.22363 0.24519 0.20989 0.0
H513 H 0.18417 0.14116 0.21517 0.0
H514 H 0.12061 0.04224 0.17766 0.0
H515 H 0.16533 0.08079 0.18763 0.0
C516 C 0.77944 0.00135 0.21864 0.0
C517 C 0.79563 0.02227 0.22639 0.0
C518 C 0.79391 0.00686 0.20947 0.0
C519 C 0.85953 0.07072 0.19467 0.0
H520 H 0.8597 -0.00014 0.18151 0.0
C521 C 0.96317 0.08229 0.17202 0.0
C522 C 0.95764 0.05859 0.16515 0.0
C523 C 0.93743 0.08225 0.17666 0.0
C524 C 0.85924 0.01988 0.1849 0.0
H525 H 0.83969 0.06517 0.23066 0.0
H526 H 0.86499 0.07443 0.21481 0.0
H527 H 0.82601 0.98937 0.19574 0.0
H528 H 0.92127 0.01874 0.15687 0.0
H529 H 0.87601 0.01886 0.16487 0.0
H530 H 0.89396 0.10139 0.18409 0.0
C531 C 0.84094 0.05413 0.21571 0.0
C532 C 0.83998 0.01382 0.19311 0.0
C533 C 0.82658 0.04858 0.22483 0.0
C534 C 0.9261 0.03751 0.16206 0.0
C535 C 0.90022 0.03726 0.16677 0.0
C536 C 0.87877 0.07678 0.18645 0.0
C537 C 0.82474 0.03349 0.2079 0.0
C538 C 0.84085 0.03929 0.1983 0.0
C539 C 0.90567 0.05826 0.17457 0.0
C540 C 0.87977 0.05155 0.18168 0.0
H541 H 0.75547 0.98099 0.21961 0.0
H542 H 0.7808 0.99054 0.2036 0.0
H543 H 0.86014 0.0908 0.19839 0.0
H544 H 0.98732 0.09851 0.1746 0.0
H545 H 0.94264 0.09877 0.18263 0.0
C546 C 0.99139 0.79825 0.22521 0.0
C547 C 0.01726 0.79301 0.2266 0.0
C548 C 0.98598 0.80773 0.21618 0.0
C549 C 0.02615 0.84835 0.19369 0.0
H550 H 0.93853 0.81533 0.1849 0.0
C551 C 0.00165 0.91237 0.16309 0.0
C552 C 0.98057 0.92249 0.16633 0.0
C553 C 0.00237 0.8869 0.16776 0.0
C554 C 0.96315 0.82461 0.1872 0.0
H555 H 0.05795 0.79382 0.21962 0.0
H556 H 0.04868 0.81089 0.20376 0.0
H557 H 0.94904 0.79094 0.19891 0.0
H558 H 0.94116 0.91178 0.17603 0.0
H559 H 0.94174 0.86712 0.184 0.0
H560 H 0.04019 0.88307 0.18231 0.0
C561 C 0.03257 0.80755 0.2097 0.0
C562 C 0.96917 0.81075 0.19525 0.0
C563 C 0.03791 0.79785 0.21877 0.0
C564 C 0.95748 0.90423 0.17338 0.0
C565 C 0.95794 0.87864 0.17796 0.0
C566 C 0.02013 0.86226 0.18564 0.0
C567 C 0.00634 0.8123 0.20829 0.0
C568 C 0.00062 0.82327 0.19881 0.0
C569 C 0.98176 0.87106 0.17564 0.0
C570 C 0.98844 0.85133 0.18253 0.0
H571 H 0.97501 0.79471 0.2311 0.0
H572 H 0.966 0.81189 0.21541 0.0
H573 H 0.05063 0.85865 0.19627 0.0
H574 H 0.0199 0.92631 0.15773 0.0
H575 H 0.02065 0.88125 0.16571 0.0
C576 C 0.25426 0.24236 0.28892 0.0
C577 C 0.24069 0.24322 0.27997 0.0
C578 C 0.23449 0.22601 0.29685 0.0
C579 C 0.15317 0.16097 0.30247 0.0
H580 H 0.16674 0.19937 0.32804 0.0
C581 C 0.05777 0.09861 0.33128 0.0
C582 C 0.06813 0.09521 0.34048 0.0
C583 C 0.07947 0.12071 0.32466 0.0
C584 C 0.16282 0.18826 0.32096 0.0
H585 H 0.19596 0.22775 0.27227 0.0
H586 H 0.16164 0.19905 0.28601 0.0
H587 H 0.20459 0.22891 0.31488 0.0
H588 H 0.10864 0.11354 0.3503 0.0
H589 H 0.1472 0.15201 0.33857 0.0
H590 H 0.11197 0.12025 0.30842 0.0
C591 C 0.18746 0.21088 0.28692 0.0
C592 C 0.18448 0.20512 0.31345 0.0
C593 C 0.20712 0.22738 0.27906 0.0
C594 C 0.10012 0.116 0.34325 0.0
C595 C 0.12214 0.1379 0.33653 0.0
C596 C 0.13176 0.14414 0.30994 0.0
C597 C 0.20089 0.20997 0.29589 0.0
C598 C 0.17952 0.19176 0.30409 0.0
C599 C 0.11224 0.13941 0.32701 0.0
C600 C 0.13594 0.15774 0.31924 0.0
H601 H 0.28009 0.25455 0.28983 0.0
H602 H 0.24544 0.22553 0.30367 0.0
H603 H 0.14912 0.14979 0.29539 0.0
H604 H 0.03311 0.08293 0.32902 0.0
H605 H 0.07082 0.122 0.31751 0.0
C606 C 0.82265 0.00068 0.27479 0.0
C607 C 0.80617 0.01769 0.27555 0.0
C608 C 0.83845 0.99744 0.28282 0.0
C609 C 0.83969 0.99761 0.30941 0.0
H610 H 0.92557 0.01165 0.30581 0.0
C611 C 0.92228 -0.00011 0.34086 0.0
C612 C 0.94403 0.98964 0.33853 0.0
C613 C 0.90204 0.00069 0.33368 0.0
C614 C 0.90138 0.00705 0.30693 0.0
H615 H 0.7932 0.04459 0.2853 0.0
H616 H 0.82089 0.03877 0.29942 0.0
H617 H 0.89824 0.01991 0.29228 0.0
H618 H 0.95971 0.96932 0.32728 0.0
H619 H 0.92346 0.96903 0.31495 0.0
H620 H 0.84279 0.98432 0.32408 0.0
C621 C 0.82148 0.02797 0.29259 0.0
C622 C 0.88582 0.01201 0.29917 0.0
C623 C 0.80591 0.03152 0.2845 0.0
C624 C 0.94328 0.97757 0.32922 0.0
C625 C 0.9228 0.97782 0.32213 0.0
C626 C 0.85523 0.99235 0.3172 0.0
C627 C 0.83792 0.01089 0.29182 0.0
C628 C 0.85472 0.00707 0.30029 0.0
C629 C 0.9031 0.99089 0.32411 0.0
C630 C 0.88614 0.99664 0.31601 0.0
H631 H 0.82314 0.98962 0.268 0.0
H632 H 0.85066 0.98387 0.28204 0.0
H633 H 0.81561 0.99346 0.31044 0.0
H634 H 0.92269 0.00957 0.34799 0.0
H635 H 0.88714 0.01086 0.33546 0.0
C636 C 0.0075 0.79344 0.28441 0.0
C637 C 0.02296 0.80771 0.27563 0.0
C638 C 0.01121 0.81246 0.29253 0.0
C639 C 0.03116 0.89395 0.29927 0.0
H640 H 0.05197 0.87401 0.3246 0.0
C641 C 0.0627 0.98291 0.33008 0.0
C642 C 0.04823 0.97054 0.3391 0.0
C643 C 0.06321 0.96269 0.32296 0.0
C644 C 0.0459 0.87974 0.3176 0.0
H645 H 0.05416 0.85298 0.26841 0.0
H646 H 0.06022 0.88612 0.2825 0.0
H647 H 0.04352 0.83852 0.31081 0.0
H648 H 0.0247 0.92786 0.34805 0.0
H649 H 0.02473 0.89197 0.33546 0.0
H650 H 0.03271 0.93455 0.30594 0.0
C651 C 0.04525 0.86028 0.28313 0.0
C652 C 0.04104 0.85941 0.30972 0.0
C653 C 0.04182 0.84131 0.27507 0.0
C654 C 0.03627 0.93794 0.34116 0.0
C655 C 0.03623 0.91744 0.33393 0.0
C656 C 0.03574 0.91402 0.30712 0.0
C657 C 0.03011 0.84608 0.29195 0.0
C658 C 0.03395 0.86656 0.30046 0.0
C659 C 0.04851 0.92944 0.32461 0.0
C660 C 0.04359 0.90748 0.31636 0.0
H661 H 0.99297 0.76757 0.28507 0.0
H662 H -0.00093 0.80091 0.29922 0.0
H663 H 0.02512 0.89972 0.29227 0.0
H664 H 0.07225 0.00806 0.32837 0.0
H665 H 0.07385 0.97296 0.316 0.0
C666 C 0.79221 0.78273 0.7886 0.0
C667 C 0.78855 0.79887 0.78064 0.0
C668 C 0.80231 0.79805 0.7976 0.0
C669 C 0.8081 0.86635 0.81161 0.0
H670 H 0.87763 0.86467 0.82521 0.0
C671 C 0.90418 0.97062 0.83308 0.0
C672 C 0.92137 0.96518 0.84033 0.0
C673 C 0.87777 0.94487 0.82865 0.0
C674 C 0.85755 0.86474 0.8217 0.0
H675 H 0.79311 0.84383 0.7758 0.0
H676 H 0.81113 0.87061 0.7914 0.0
H677 H 0.85301 0.82984 0.81125 0.0
H678 H 0.92224 0.92914 0.8495 0.0
H679 H 0.87585 0.88381 0.84172 0.0
H680 H 0.81372 0.9024 0.82177 0.0
C681 C 0.80565 0.84595 0.79077 0.0
C682 C 0.84357 0.84486 0.81364 0.0
C683 C 0.79571 0.83074 0.7818 0.0
C684 C 0.90931 0.93393 0.84394 0.0
C685 C 0.88301 0.90799 0.8394 0.0
C686 C 0.82204 0.88618 0.81966 0.0
C687 C 0.80871 0.8297 0.79881 0.0
C688 C 0.81961 0.84644 0.80828 0.0
C689 C 0.86825 0.91315 0.83132 0.0
C690 C 0.84782 0.88656 0.82456 0.0
H691 H 0.78666 0.75807 0.78793 0.0
H692 H 0.80451 0.78494 0.80366 0.0
H693 H 0.7891 0.8675 0.80775 0.0
H694 H 0.91305 0.99457 0.8302 0.0
H695 H 0.86706 0.94982 0.82246 0.0
C696 C 0.25616 0.04377 0.78433 0.0
C697 C 0.2403 0.02366 0.77638 0.0
C698 C 0.24054 0.03857 0.79329 0.0
C699 C 0.1725 0.975 0.8073 0.0
H700 H 0.17484 0.04558 0.82143 0.0
C701 C 0.07095 0.96259 0.83139 0.0
C702 C 0.07733 0.98503 0.83878 0.0
C703 C 0.09605 0.96342 0.82611 0.0
C704 C 0.17455 0.02561 0.81775 0.0
H705 H 0.19544 0.98283 0.77154 0.0
H706 H 0.16819 0.97408 0.78705 0.0
H707 H 0.20847 0.05665 0.8071 0.0
H708 H 0.11485 0.02348 0.84723 0.0
H709 H 0.15901 0.02486 0.83803 0.0
H710 H 0.13772 0.94388 0.81772 0.0
C711 C 0.19284 0.9935 0.78645 0.0
C712 C 0.19374 0.032 0.80949 0.0
C713 C 0.20834 -0.00122 0.77751 0.0
C714 C 0.1093 0.00575 0.8416 0.0
C715 C 0.13455 0.00687 0.83623 0.0
C716 C 0.15339 0.96862 0.81557 0.0
C717 C 0.20886 0.01301 0.79448 0.0
C718 C 0.19208 0.00669 0.80399 0.0
C719 C 0.12809 0.98694 0.82807 0.0
C720 C 0.15336 0.99378 0.8207 0.0
H721 H 0.28088 0.06301 0.78369 0.0
H722 H 0.25352 0.05401 0.79935 0.0
H723 H 0.17128 0.95501 0.80335 0.0
H724 H 0.04647 0.94647 0.82906 0.0
H725 H 0.09005 0.94772 0.81988 0.0
C726 C 0.01459 0.2439 0.78405 0.0
C727 C 0.03676 0.25326 0.77638 0.0
C728 C 0.01959 0.23145 0.79265 0.0
C729 C 0.06426 0.19323 0.80194 0.0
H730 H 0.04493 0.21388 0.82734 0.0
C731 C 0.08818 0.1384 0.8344 0.0
C732 C 0.06063 0.12043 0.84007 0.0
C733 C 0.09088 0.16324 0.82852 0.0
C734 C 0.05054 0.20804 0.82029 0.0
H735 H 0.08171 0.25739 0.77176 0.0
H736 H 0.0906 0.23628 0.78668 0.0
H737 H 0.0363 0.2379 0.81278 0.0
H738 H 0.01628 0.11657 0.84504 0.0
H739 H 0.02059 0.15964 0.83465 0.0
H740 H 0.07789 0.16304 0.80928 0.0
C741 C 0.06902 0.23782 0.78604 0.0
C742 C 0.04538 0.22157 0.81195 0.0
C743 C 0.06395 0.25001 0.77748 0.0
C744 C 0.03795 0.13043 0.8408 0.0
C745 C 0.04034 0.15498 0.83479 0.0
C746 C 0.06953 0.17993 0.81021 0.0
C747 C 0.04689 0.22825 0.79373 0.0
C748 C 0.05217 0.21424 0.80268 0.0
C749 C 0.06568 0.16994 0.82807 0.0
C750 C 0.06277 0.1871 0.8195 0.0
H751 H 0.99352 0.24635 0.78343 0.0
H752 H 0.0019 0.22398 0.79839 0.0
H753 H 0.069 0.18639 0.79492 0.0
H754 H 0.10588 0.13096 0.8337 0.0
H755 H 0.11118 0.17501 0.82363 0.0
C756 C 0.78698 0.80108 0.72329 0.0
C757 C 0.79777 0.79062 0.73121 0.0
C758 C 0.80523 0.81193 0.71478 0.0
C759 C 0.88832 0.84531 0.70608 0.0
H760 H 0.8494 0.82701 0.68049 0.0
C761 C 0.96899 0.90254 0.6738 0.0
C762 C 0.95912 0.91958 0.66785 0.0
C763 C 0.94687 0.87787 0.67978 0.0
C764 C 0.86062 0.83229 0.68759 0.0
H765 H 0.83582 0.78279 0.73635 0.0
H766 H 0.86747 0.80146 0.72153 0.0
H767 H 0.81563 0.80325 0.69486 0.0
H768 H 0.9182 0.92217 0.66261 0.0
H769 H 0.87952 0.87958 0.67318 0.0
H770 H 0.933 0.87507 0.699 0.0
C771 C 0.84519 0.80177 0.72192 0.0
C772 C 0.84127 0.8188 0.69582 0.0
C773 C 0.82701 0.79102 0.73042 0.0
C774 C 0.92625 0.90902 0.66705 0.0
C775 C 0.90413 0.88471 0.67318 0.0
C776 C 0.90756 0.85874 0.69791 0.0
C777 C 0.83463 0.8125 0.71401 0.0
C778 C 0.85492 0.82542 0.70517 0.0
C779 C 0.91465 0.87043 0.68008 0.0
C780 C 0.89402 0.85266 0.68854 0.0
H781 H 0.76445 0.80091 0.72368 0.0
H782 H 0.7966 0.82041 0.70887 0.0
H783 H 0.89959 0.85147 0.71317 0.0
H784 H 0.99428 0.9104 0.67455 0.0
H785 H 0.9556 0.86661 0.68477 0.0
C786 C 0.24056 0.05173 0.72508 0.0
C787 C 0.24475 0.02531 0.7267 0.0
C788 C 0.23021 0.05627 0.71607 0.0
C789 C 0.18675 0.01365 0.69407 0.0
H790 H 0.22058 0.10036 0.68431 0.0
C791 C 0.12392 0.03547 0.66258 0.0
C792 C 0.11315 0.05624 0.66559 0.0
C793 C 0.14942 0.03541 0.66746 0.0
C794 C 0.2111 0.07598 0.68688 0.0
H795 H 0.24116 0.98274 0.72017 0.0
H796 H 0.22287 0.99062 0.70436 0.0
H797 H 0.24515 0.09101 0.6985 0.0
H798 H 0.123 0.09606 0.675 0.0
H799 H 0.16786 0.09671 0.68328 0.0
H800 H 0.1516 -0.00117 0.6828 0.0
C801 C 0.22752 0.00776 0.7101 0.0
C802 C 0.22503 0.07062 0.69504 0.0
C803 C 0.23793 0.00321 0.71915 0.0
C804 C 0.13099 0.07988 0.67254 0.0
C805 C 0.15667 0.08015 0.6773 0.0
C806 C 0.17275 0.01903 0.68593 0.0
C807 C 0.22385 0.03455 0.70843 0.0
C808 C 0.21232 0.03953 0.69893 0.0
C809 C 0.16472 0.0565 0.67527 0.0
C810 C 0.18416 0.05037 0.68241 0.0
H811 H 0.24559 0.06918 0.73076 0.0
H812 H 0.22689 0.07671 0.71512 0.0
H813 H 0.17621 0.98946 0.6969 0.0
H814 H 0.11038 0.01686 0.65728 0.0
H815 H 0.15546 0.01724 0.66564 0.0
C816 C 0.99111 0.21739 0.72733 0.0
C817 C 0.02015 0.2467 0.72807 0.0
C818 C 0.98388 0.19862 0.719 0.0
C819 C 0.0049 0.19965 0.69308 0.0
H820 H 0.96659 0.10811 0.69737 0.0
C821 C 0.0015 0.10764 0.6653 0.0
C822 C 0.97768 0.07537 0.66663 0.0
C823 C 0.00173 0.13157 0.67112 0.0
C824 C 0.97654 0.1335 0.69598 0.0
H825 H 0.06428 0.27956 0.7206 0.0
H826 H 0.05194 0.24616 0.70602 0.0
H827 H 0.979 0.14354 0.71112 0.0
H828 H 0.93308 0.04321 0.6739 0.0
H829 H 0.93219 0.08505 0.68358 0.0
H830 H 0.00314 0.18929 0.67785 0.0
C831 C 0.03459 0.238 0.71188 0.0
C832 C 0.98387 0.15391 0.70391 0.0
C833 C 0.04181 0.25696 0.72025 0.0
C834 C 0.95163 0.06798 0.67274 0.0
C835 C 0.9515 0.0919 0.67841 0.0
C836 C 0.99757 0.17908 0.68508 0.0
C837 C 0.00558 0.20848 0.71119 0.0
C838 C 0.9981 0.18723 0.70259 0.0
C839 C 0.97786 0.12347 0.67823 0.0
C840 C 0.98324 0.1457 0.68645 0.0
H841 H 0.97369 0.20894 0.73317 0.0
H842 H 0.96107 0.17635 0.71866 0.0
H843 H 0.01564 0.2252 0.69182 0.0
H844 H 0.02208 0.11381 0.66072 0.0
H845 H 0.02233 0.15563 0.67075 0.0
C846 C 0.90515 0.57712 0.55934 0.0
C847 C 0.91435 0.56399 0.56695 0.0
C848 C 0.89251 0.5599 0.55071 0.0
C849 C 0.8534 0.47704 0.54114 0.0
H850 H 0.87458 0.51846 0.51589 0.0
C851 C 0.79908 0.39992 0.5081 0.0
C852 C 0.78193 0.41 0.50228 0.0
C853 C 0.82324 0.42159 0.51428 0.0
C854 C 0.86853 0.50659 0.52289 0.0
H855 H 0.91792 0.52277 0.57144 0.0
H856 H 0.89637 0.49306 0.55646 0.0
H857 H 0.89884 0.55043 0.53056 0.0
H858 H 0.77874 0.45102 0.49748 0.0
H859 H 0.82073 0.48901 0.50838 0.0
H860 H 0.82278 0.43346 0.53364 0.0
C861 C 0.89827 0.51633 0.55716 0.0
C862 C 0.88223 0.5249 0.53129 0.0
C863 C 0.91071 0.53341 0.56576 0.0
C864 C 0.79201 0.44283 0.50181 0.0
C865 C 0.81592 0.46453 0.50813 0.0
C866 C 0.8399 0.45883 0.53279 0.0
C867 C 0.88891 0.52926 0.54953 0.0
C868 C 0.87475 0.51028 0.54052 0.0
C869 C 0.83016 0.45358 0.5149 0.0
C870 C 0.84723 0.47328 0.52356 0.0
H871 H 0.90785 0.60074 0.56003 0.0
H872 H 0.88521 0.57042 0.54503 0.0
H873 H 0.84646 0.46506 0.54812 0.0
H874 H 0.79154 0.37465 0.50861 0.0
H875 H 0.83444 0.41261 0.51921 0.0
C876 C 0.49604 0.38938 0.56209 0.0
C877 C 0.46643 0.36079 0.56307 0.0
C878 C 0.5137 0.39612 0.55353 0.0
C879 C 0.50844 0.37356 0.52755 0.0
H880 H 0.60038 0.41071 0.53056 0.0
C881 C 0.59466 0.3686 0.4994 0.0
C882 C 0.62733 0.39185 0.50021 0.0
C883 C 0.57194 0.37071 0.50519 0.0
C884 C 0.57486 0.4011 0.52951 0.0
H885 H 0.43194 0.31688 0.55582 0.0
H886 H 0.46345 0.32819 0.5409 0.0
H887 H 0.56728 0.40055 0.54477 0.0
H888 H 0.66145 0.43772 0.50644 0.0
H889 H 0.62169 0.44256 0.51608 0.0
H890 H 0.5163 0.37309 0.51222 0.0
C891 C 0.47268 0.34567 0.54671 0.0
C892 C 0.55579 0.39509 0.53772 0.0
C893 C 0.45481 0.33901 0.55529 0.0
C894 C 0.63632 0.41959 0.50568 0.0
C895 C 0.6136 0.42203 0.51132 0.0
C896 C 0.52764 0.3795 0.51929 0.0
C897 C 0.50241 0.3743 0.54575 0.0
C898 C 0.52234 0.38113 0.53687 0.0
C899 C 0.58172 0.39634 0.51175 0.0
C900 C 0.56111 0.39326 0.52019 0.0
H901 H 0.50546 0.40688 0.5679 0.0
H902 H 0.53618 0.41866 0.55299 0.0
H903 H 0.48276 0.36307 0.52664 0.0
H904 H 0.5873 0.34678 0.49531 0.0
H905 H 0.54757 0.35057 0.5053 0.0
C906 C 0.65356 0.12831 0.55911 0.0
C907 C 0.67985 0.1241 0.56098 0.0
C908 C 0.64908 0.13764 0.54994 0.0
C909 C 0.69199 0.17961 0.52792 0.0
H910 H 0.60522 0.14627 0.51827 0.0
C911 C 0.66913 0.24487 0.4973 0.0
C912 C 0.64837 0.25522 0.50068 0.0
C913 C 0.66961 0.21911 0.50186 0.0
C914 C 0.62962 0.15555 0.5208 0.0
H915 H 0.72221 0.12647 0.5547 0.0
H916 H 0.71452 0.14318 0.53857 0.0
H917 H 0.61461 0.12105 0.53229 0.0
H918 H 0.60907 0.24452 0.51044 0.0
H919 H 0.60916 0.19924 0.51817 0.0
H920 H 0.70683 0.21508 0.51674 0.0
C921 C 0.69738 0.1392 0.54425 0.0
C922 C 0.635 0.14126 0.52885 0.0
C923 C 0.70182 0.12971 0.55348 0.0
C924 C 0.62529 0.23693 0.50772 0.0
C925 C 0.6254 0.21096 0.51215 0.0
C926 C 0.68662 0.19386 0.51984 0.0
C927 C 0.67077 0.14299 0.54238 0.0
C928 C 0.66605 0.15402 0.53276 0.0
C929 C 0.6489 0.20308 0.50969 0.0
C930 C 0.65521 0.18282 0.51644 0.0
H931 H 0.63619 0.1242 0.56474 0.0
H932 H 0.62879 0.14111 0.54882 0.0
H933 H 0.71617 0.19009 0.53077 0.0
H934 H 0.68727 0.25874 0.49191 0.0
H935 H 0.6877 0.21327 0.49973 0.0
C936 C 0.94337 0.55455 0.62229 0.0
C937 C 0.9244 0.56063 0.61585 0.0
C938 C 0.93031 0.5379 0.63098 0.0
C939 C 0.88888 0.48677 0.64641 0.0
H940 H 0.8362 0.51258 0.66062 0.0
C941 C 0.7932 0.40981 0.67528 0.0
C942 C 0.7856 0.42609 0.68229 0.0
C943 C 0.81783 0.42712 0.66856 0.0
C944 C 0.8513 0.50537 0.65687 0.0
H945 H 0.87678 0.55337 0.61331 0.0
H946 H 0.85411 0.5245 0.62843 0.0
H947 H 0.86269 0.54058 0.6458 0.0
H948 H 0.80048 0.47255 0.68867 0.0
H949 H 0.8442 0.50257 0.67725 0.0
H950 H 0.87687 0.45108 0.65749 0.0
C951 C 0.8791 0.5328 0.62682 0.0
C952 C 0.8661 0.52116 0.64828 0.0
C953 C 0.89204 0.54918 0.61814 0.0
C954 C 0.80563 0.45943 0.68327 0.0
C955 C 0.83045 0.47664 0.67666 0.0
C956 C 0.87384 0.47074 0.65503 0.0
C957 C 0.89819 0.52736 0.6334 0.0
C958 C 0.88458 0.51171 0.64287 0.0
C959 C 0.8354 0.4609 0.66884 0.0
C960 C 0.8546 0.47969 0.66031 0.0
H961 H 0.9684 0.56306 0.6207 0.0
H962 H 0.94557 0.53412 0.63593 0.0
H963 H 0.90299 0.47898 0.64236 0.0
H964 H 0.77806 0.3841 0.67433 0.0
H965 H 0.82105 0.41422 0.66265 0.0
C966 C 0.4664 0.32346 0.61323 0.0
C967 C 0.46133 0.34944 0.61184 0.0
C968 C 0.47991 0.32041 0.62185 0.0
C969 C 0.49644 0.34881 0.64739 0.0
H970 H 0.55908 0.321 0.646 0.0
C971 C 0.59117 0.37388 0.67676 0.0
C972 C 0.60159 0.35169 0.67814 0.0
C973 C 0.56762 0.36816 0.66987 0.0
C974 C 0.54113 0.32815 0.64656 0.0
H975 H 0.46666 0.39276 0.61835 0.0
H976 H 0.49115 0.38799 0.63331 0.0
H977 H 0.53255 0.32332 0.63127 0.0
H978 H 0.59338 0.30471 0.67404 0.0
H979 H 0.55209 0.29468 0.66199 0.0
H980 H 0.50608 0.35475 0.66267 0.0
C981 C 0.48403 0.36956 0.62782 0.0
C982 C 0.52596 0.32959 0.63809 0.0
C983 C 0.47031 0.37249 0.61921 0.0
C984 C 0.58593 0.32233 0.67312 0.0
C985 C 0.56251 0.31671 0.66616 0.0
C986 C 0.51178 0.34754 0.65586 0.0
C987 C 0.48888 0.34339 0.62926 0.0
C988 C 0.50374 0.34035 0.63837 0.0
C989 C 0.5541 0.34018 0.66419 0.0
C990 C 0.5346 0.33759 0.65551 0.0
H991 H 0.45946 0.30513 0.60771 0.0
H992 H 0.48287 0.29973 0.62275 0.0
H993 H 0.47898 0.3566 0.6479 0.0
H994 H 0.60269 0.39666 0.68056 0.0
H995 H 0.56178 0.38677 0.66851 0.0
C996 C 0.68742 0.17339 0.60755 0.0
C997 C 0.66894 0.13975 0.60802 0.0
C998 C 0.68315 0.19231 0.61437 0.0
C999 C 0.65478 0.19093 0.63915 0.0
H1000 H 0.65626 0.26858 0.63087 0.0
C1001 C 0.64621 0.27753 0.66653 0.0
C1002 C 0.66848 0.31024 0.665 0.0
C1003 C 0.64138 0.25479 0.65941 0.0
C1004 C 0.65595 0.24706 0.63331 0.0
H1005 H 0.63147 0.09949 0.616 0.0
H1006 H 0.62412 0.13266 0.62799 0.0
H1007 H 0.65748 0.23242 0.61875 0.0
H1008 H 0.70257 0.3448 0.65474 0.0
H1009 H 0.6944 0.30538 0.64246 0.0
H1010 H 0.65419 0.20606 0.65372 0.0
C1011 C 0.64194 0.14434 0.62234 0.0
C1012 C 0.65664 0.22635 0.62636 0.0
C1013 C 0.64607 0.12538 0.61546 0.0
C1014 C 0.68515 0.31981 0.65614 0.0
C1015 C 0.68031 0.29718 0.64906 0.0
C1016 C 0.65422 0.21175 0.64611 0.0
C1017 C 0.66042 0.17802 0.62185 0.0
C1018 C 0.6567 0.19839 0.62921 0.0
C1019 C 0.65864 0.26436 0.65063 0.0
C1020 C 0.65547 0.2404 0.64327 0.0
H1021 H 0.70526 0.18516 0.6019 0.0
H1022 H 0.69809 0.21818 0.61388 0.0
H1023 H 0.65503 0.16968 0.64156 0.0
H1024 H 0.63296 0.26942 0.67328 0.0
H1025 H 0.62428 0.22971 0.6608 0.0
C1026 C 0.46826 0.12058 0.12025 0.0
C1027 C 0.45904 0.13287 0.11242 0.0
C1028 C 0.47947 0.13809 0.1289 0.0
C1029 C 0.51478 0.22122 0.13806 0.0
H1030 H 0.49532 0.18129 0.16351 0.0
C1031 C 0.56779 0.30127 0.17042 0.0
C1032 C 0.58641 0.29274 0.17614 0.0
C1033 C 0.54334 0.2784 0.16456 0.0
C1034 C 0.50083 0.19274 0.15645 0.0
H1035 H 0.45347 0.17265 0.1076 0.0
H1036 H 0.47228 0.20267 0.12262 0.0
H1037 H 0.47218 0.14804 0.14899 0.0
H1038 H 0.59171 0.25319 0.18121 0.0
H1039 H 0.54934 0.21318 0.17084 0.0
H1040 H 0.54378 0.26564 0.14534 0.0
C1041 C 0.47173 0.17999 0.12207 0.0
C1042 C 0.48778 0.17371 0.14813 0.0
C1043 C 0.46085 0.16271 0.11344 0.0
C1044 C 0.57737 0.26023 0.17693 0.0
C1045 C 0.55322 0.23735 0.17093 0.0
C1046 C 0.52758 0.24011 0.14631 0.0
C1047 C 0.48148 0.16812 0.12988 0.0
C1048 C 0.49472 0.18779 0.13883 0.0
C1049 C 0.53764 0.24679 0.16416 0.0
C1050 C 0.52086 0.22621 0.15562 0.0
H1051 H 0.46692 0.09752 0.11968 0.0
H1052 H 0.48708 0.12838 0.13474 0.0
H1053 H 0.52136 0.23285 0.13102 0.0
H1054 H 0.57443 0.32625 0.16968 0.0
H1055 H 0.53107 0.28621 0.15964 0.0
C1056 C 0.92072 0.36889 0.12146 0.0
C1057 C 0.90468 0.34917 0.11346 0.0
C1058 C 0.90552 0.36288 0.13051 0.0
C1059 C 0.83716 0.29884 0.14445 0.0
H1060 H 0.84023 0.36967 0.15864 0.0
C1061 C 0.73476 0.28951 0.16727 0.0
C1062 C 0.74114 0.3116 0.17477 0.0
C1063 C 0.75991 0.28924 0.16237 0.0
C1064 C 0.83975 0.34962 0.15494 0.0
H1065 H 0.86007 0.30798 0.10864 0.0
H1066 H 0.83345 0.29792 0.1243 0.0
H1067 H 0.87438 0.38061 0.14448 0.0
H1068 H 0.77833 0.34806 0.18382 0.0
H1069 H 0.82262 0.34769 0.17521 0.0
H1070 H 0.80131 0.2678 0.15464 0.0
C1071 C 0.85796 0.31761 0.12367 0.0
C1072 C 0.85926 0.35592 0.14678 0.0
C1073 C 0.87309 0.32362 0.11466 0.0
C1074 C 0.77282 0.3307 0.17808 0.0
C1075 C 0.79815 0.33076 0.17307 0.0
C1076 C 0.81763 0.29254 0.1526 0.0
C1077 C 0.87405 0.33696 0.13173 0.0
C1078 C 0.8573 0.33056 0.14123 0.0
C1079 C 0.79197 0.31134 0.16481 0.0
C1080 C 0.81785 0.31781 0.15774 0.0
H1081 H 0.94518 0.38863 0.12076 0.0
H1082 H 0.91858 0.3782 0.13658 0.0
H1083 H 0.83568 0.27879 0.14046 0.0
H1084 H 0.71048 0.27459 0.16459 0.0
H1085 H 0.7542 0.27399 0.15604 0.0
C1086 C 0.71851 0.57787 0.11485 0.0
C1087 C 0.68982 0.57843 0.11381 0.0
C1088 C 0.7251 0.5668 0.12339 0.0
C1089 C 0.70228 0.54791 0.14928 0.0
H1090 H 0.73922 0.49342 0.14581 0.0
C1091 C 0.69998 0.45713 0.17732 0.0
C1092 C 0.72341 0.44822 0.1763 0.0
C1093 C 0.70126 0.48164 0.17152 0.0
C1094 C 0.72966 0.50923 0.14698 0.0
H1095 H 0.64566 0.56827 0.12097 0.0
H1096 H 0.65678 0.54784 0.13592 0.0
H1097 H 0.72858 0.51664 0.13176 0.0
H1098 H 0.76883 0.46061 0.16966 0.0
H1099 H 0.77227 0.50467 0.16001 0.0
H1100 H 0.70247 0.53927 0.16458 0.0
C1101 C 0.6744 0.55652 0.13014 0.0
C1102 C 0.72337 0.52245 0.13888 0.0
C1103 C 0.66788 0.56789 0.12156 0.0
C1104 C 0.75055 0.46718 0.17057 0.0
C1105 C 0.75218 0.49203 0.16493 0.0
C1106 C 0.70853 0.53449 0.15745 0.0
C1107 C 0.70303 0.55563 0.1311 0.0
C1108 C 0.70961 0.54194 0.13989 0.0
C1109 C 0.72625 0.49769 0.16474 0.0
C1110 C 0.72233 0.51499 0.15638 0.0
H1111 H 0.73616 0.58626 0.10907 0.0
H1112 H 0.74767 0.56708 0.12395 0.0
H1113 H 0.69189 0.56304 0.15031 0.0
H1114 H 0.67861 0.44251 0.1816 0.0
H1115 H 0.68096 0.48544 0.1716 0.0
C1116 C 0.50242 0.13069 0.06277 0.0
C1117 C 0.47196 0.1277 0.06339 0.0
C1118 C 0.52105 0.14306 0.05443 0.0
C1119 C 0.51831 0.16194 0.02839 0.0
H1120 H 0.60945 0.21912 0.03254 0.0
C1121 C 0.60839 0.25647 1.00122 0.0
C1122 C 0.64086 0.26574 1.0024 0.0
C1123 C 0.58479 0.23128 0.00679 0.0
C1124 C 0.58419 0.20263 0.03119 0.0
H1125 H 0.43694 0.13509 0.05572 0.0
H1126 H 0.4701 0.15791 0.04118 0.0
H1127 H 0.57459 0.1944 0.04634 0.0
H1128 H 0.67378 0.25329 0.00905 0.0
H1129 H 0.63257 0.2083 0.01835 0.0
H1130 H 0.52822 0.17158 0.01315 0.0
C1131 C 0.47929 0.15005 0.0471 0.0
C1132 C 0.56409 0.18849 0.03915 0.0
C1133 C 0.46043 0.13731 0.05546 0.0
C1134 C 0.64885 0.2465 0.00802 0.0
C1135 C 0.62529 0.22108 0.01346 0.0
C1136 C 0.53854 0.17637 0.02037 0.0
C1137 C 0.50992 0.1532 0.04651 0.0
C1138 C 0.5309 0.16794 0.03788 0.0
C1139 C 0.5935 0.21496 0.0135 0.0
C1140 C 0.57176 0.19684 0.0217 0.0
H1141 H 0.51182 0.12306 0.0687 0.0
H1142 H 0.54417 0.14446 0.05418 0.0
H1143 H 0.49288 0.146 0.02714 0.0
H1144 H 0.60176 0.27123 0.997 0.0
H1145 H 0.5605 0.22708 0.00661 0.0
C1146 C 0.88623 0.36958 0.06272 0.0
C1147 C 0.90165 0.35147 0.06294 0.0
C1148 C 0.87448 0.3744 0.05402 0.0
C1149 C 0.84822 0.3433 0.02941 0.0
H1150 H 0.86206 0.42889 0.02506 0.0
C1151 C 0.79177 0.37359 0.99677 0.0
C1152 C 0.77376 0.38747 0.99989 0.0
C1153 C 0.8137 0.37193 1.00311 0.0
C1154 C 0.85815 0.40492 0.02614 0.0
H1155 H 0.91595 0.32328 0.05426 0.0
H1156 H 0.89501 0.33155 0.03896 0.0
H1157 H 0.88677 0.41875 0.03902 0.0
H1158 H 0.76578 0.41221 0.01171 0.0
H1159 H 0.80427 0.41003 0.02261 0.0
H1160 H 0.81863 0.32933 0.01666 0.0
C1161 C 0.89215 0.34204 0.04556 0.0
C1162 C 0.87216 0.39906 0.03416 0.0
C1163 C 0.90408 0.33729 0.05431 0.0
C1164 C 0.77944 0.40143 0.00914 0.0
C1165 C 0.80158 0.40027 0.01537 0.0
C1166 C 0.83416 0.34919 0.02136 0.0
C1167 C 0.87783 0.36123 0.04531 0.0
C1168 C 0.86646 0.36798 0.03607 0.0
C1169 C 0.81832 0.38474 0.01254 0.0
C1170 C 0.83815 0.37985 0.01983 0.0
H1171 H 0.88386 0.38073 0.06925 0.0
H1172 H 0.86287 0.38867 0.05411 0.0
H1173 H 0.8434 0.3191 0.0307 0.0
H1174 H 0.78754 0.36243 0.98969 0.0
H1175 H 0.82641 0.35993 1.00075 0.0
C1176 C 0.69347 0.58121 0.05642 0.0
C1177 C 0.6804 0.56662 0.06541 0.0
C1178 C 0.69073 0.56243 0.04834 0.0
C1179 C 0.68075 0.48459 0.04185 0.0
H1180 H 0.64858 0.49512 0.01711 0.0
C1181 C 0.6535 0.39358 0.01203 0.0
C1182 C 0.66419 0.40543 1.00265 0.0
C1183 C 0.65162 0.41312 0.01911 0.0
C1184 C 0.65789 0.49209 0.02394 0.0
H1185 H 0.65445 0.52114 0.07302 0.0
H1186 H 0.65026 0.48851 0.05898 0.0
H1187 H 0.65532 0.53091 0.03066 0.0
H1188 H 0.67949 0.44616 0.99306 0.0
H1189 H 0.67727 0.4811 0.00558 0.0
H1190 H 0.68425 0.44657 0.03524 0.0
C1191 C 0.66251 0.51438 0.05817 0.0
C1192 C 0.66174 0.51257 0.03168 0.0
C1193 C 0.66487 0.53305 0.0662 0.0
C1194 C 0.6709 0.43649 1.00025 0.0
C1195 C 0.66968 0.45645 0.00743 0.0
C1196 C 0.67724 0.46444 0.03414 0.0
C1197 C 0.67531 0.52885 0.04916 0.0
C1198 C 0.67281 0.50866 0.04074 0.0
C1199 C 0.6613 0.44532 0.01705 0.0
C1200 C 0.66527 0.46753 0.02512 0.0
H1201 H 0.70537 0.60705 0.05561 0.0
H1202 H 0.70096 0.57415 0.04148 0.0
H1203 H 0.68989 0.48144 0.04871 0.0
H1204 H 0.64799 0.36956 0.01401 0.0
H1205 H 0.64395 0.40337 0.02634 0.0
C1206 C 0.56334 0.91159 0.89562 0.0
C1207 C 0.57961 0.9024 0.90217 0.0
C1208 C 0.54865 0.89312 0.88735 0.0
C1209 C 0.53186 0.85832 0.86795 0.0
H1210 H 0.48967 0.76588 0.87078 0.0
C1211 C 0.45722 0.76938 0.83684 0.0
C1212 C 0.4274 0.74433 0.84008 0.0
C1213 C 0.48082 0.7891 0.84363 0.0
C1214 C 0.50137 0.79167 0.86984 0.0
H1215 H 0.59399 0.86723 0.90509 0.0
H1216 H 0.5693 0.83564 0.89061 0.0
H1217 H 0.51895 0.79985 0.88435 0.0
H1218 H 0.3994 0.71967 0.85291 0.0
H1219 H 0.43929 0.75378 0.86442 0.0
H1220 H 0.51194 0.84961 0.85359 0.0
C1221 C 0.56696 0.8565 0.89194 0.0
C1222 C 0.51854 0.81124 0.87761 0.0
C1223 C 0.58122 0.87467 0.90025 0.0
C1224 C 0.42207 0.73873 0.85011 0.0
C1225 C 0.4452 0.75822 0.85678 0.0
C1226 C 0.51415 0.83859 0.86018 0.0
C1227 C 0.55028 0.86532 0.88541 0.0
C1228 C 0.53365 0.84482 0.87684 0.0
C1229 C 0.47481 0.78375 0.85368 0.0
C1230 C 0.49808 0.80501 0.86114 0.0
H1231 H 0.56184 0.93295 0.89691 0.0
H1232 H 0.53558 0.90038 0.88258 0.0
H1233 H 0.54371 0.88412 0.86704 0.0
H1234 H 0.46189 0.77427 0.82916 0.0
H1235 H 0.50354 0.8086 0.84104 0.0
C1236 C 0.1686 0.73959 0.89437 0.0
C1237 C 0.13985 0.71027 0.8956 0.0
C1238 C 0.18463 0.7474 0.88548 0.0
C1239 C 0.17435 0.72495 0.85933 0.0
H1240 H 0.26696 0.76411 0.86023 0.0
C1241 C 0.25111 0.70878 0.83105 0.0
C1242 C 0.28432 0.73036 0.83119 0.0
C1243 C 0.23054 0.71509 0.83653 0.0
C1244 C 0.24121 0.75406 0.85976 0.0
H1245 H 0.10532 0.66606 0.8885 0.0
H1246 H 0.134 0.67913 0.87303 0.0
H1247 H 0.23741 0.75561 0.87515 0.0
H1248 H 0.3215 0.77775 0.83554 0.0
H1249 H 0.28545 0.78973 0.84468 0.0
H1250 H 0.17832 0.72201 0.8439 0.0
C1251 C 0.14376 0.69647 0.87888 0.0
C1252 C 0.22417 0.74898 0.86838 0.0
C1253 C 0.12754 0.68878 0.88777 0.0
C1254 C 0.2959 0.76081 0.8353 0.0
C1255 C 0.27531 0.76734 0.8407 0.0
C1256 C 0.19147 0.72997 0.85067 0.0
C1257 C 0.17249 0.72593 0.87762 0.0
C1258 C 0.19049 0.73374 0.86831 0.0
C1259 C 0.24303 0.74329 0.84211 0.0
C1260 C 0.22508 0.74396 0.85081 0.0
H1261 H 0.17845 0.75687 0.90023 0.0
H1262 H 0.20641 0.77049 0.88474 0.0
H1263 H 0.14845 0.71369 0.859 0.0
H1264 H 0.24174 0.68499 0.828 0.0
H1265 H 0.20583 0.69604 0.83737 0.0
C1266 C 0.36807 0.47526 0.88907 0.0
C1267 C 0.34452 0.46285 0.89637 0.0
C1268 C 0.36285 0.48759 0.88048 0.0
C1269 C 0.31185 0.51856 0.87076 0.0
H1270 H 0.34322 0.50963 0.8457 0.0
C1271 C 0.28527 0.5714 0.83838 0.0
C1272 C 0.31357 0.59508 0.83394 0.0
C1273 C 0.28541 0.54704 0.84381 0.0
C1274 C 0.33419 0.5121 0.85265 0.0
H1275 H 0.29673 0.4527 0.9003 0.0
H1276 H 0.28729 0.47319 0.88535 0.0
H1277 H 0.35188 0.48506 0.86013 0.0
H1278 H 0.3628 0.60949 0.83049 0.0
H1279 H 0.36319 0.56691 0.84003 0.0
H1280 H 0.29442 0.54567 0.86341 0.0
C1281 C 0.31021 0.47446 0.88629 0.0
C1282 C 0.33937 0.49831 0.86092 0.0
C1283 C 0.31559 0.4626 0.89488 0.0
C1284 C 0.34059 0.59128 0.83378 0.0
C1285 C 0.34087 0.56702 0.83932 0.0
C1286 C 0.30641 0.53193 0.86253 0.0
C1287 C 0.33384 0.48742 0.87901 0.0
C1288 C 0.32831 0.50149 0.87009 0.0
C1289 C 0.31398 0.54625 0.84497 0.0
C1290 C 0.31751 0.52895 0.85338 0.0
H1291 H 0.39053 0.47556 0.89 0.0
H1292 H 0.38172 0.49768 0.87507 0.0
H1293 H 0.30375 0.52235 0.8777 0.0
H1294 H 0.26416 0.57391 0.8386 0.0
H1295 H 0.26409 0.53084 0.8479 0.0
C1296 C 0.60063 0.90967 0.95839 0.0
C1297 C 0.58518 0.91503 0.95056 0.0
C1298 C 0.58517 0.89947 0.96739 0.0
C1299 C 0.51878 0.89679 0.98172 0.0
H1300 H 0.51448 0.82297 0.99442 0.0
C1301 C 0.41066 0.80358 1.00279 0.0
C1302 C 0.41434 0.78465 0.00984 0.0
C1303 C 0.43752 0.82904 0.9984 0.0
C1304 C 0.51609 0.84419 0.99116 0.0
H1305 H 0.54133 0.91351 0.94599 0.0
H1306 H 0.51448 0.89556 0.96155 0.0
H1307 H 0.55036 0.84754 0.98063 0.0
H1308 H 0.4487 0.77968 0.0187 0.0
H1309 H 0.49595 0.82442 0.01102 0.0
H1310 H 0.4834 0.89253 0.99195 0.0
C1311 C 0.53865 0.89969 0.96083 0.0
C1312 C 0.53659 0.85816 0.98321 0.0
C1313 C 0.55393 0.90962 0.95187 0.0
C1314 C 0.44525 0.79404 0.0133 0.0
C1315 C 0.47227 0.81936 0.00881 0.0
C1316 C 0.49835 0.88288 0.98967 0.0
C1317 C 0.55416 0.8948 0.96873 0.0
C1318 C 0.53714 0.88377 0.97817 0.0
C1319 C 0.46862 0.83586 1.00093 0.0
C1320 C 0.4958 0.8556 0.99424 0.0
H1321 H 0.62479 0.9138 0.95759 0.0
H1322 H 0.59767 0.89581 0.97335 0.0
H1323 H 0.51926 0.917 0.97811 0.0
H1324 H 0.38704 0.79674 0.99999 0.0
H1325 H 0.4337 0.84112 0.99236 0.0
C1326 C 0.13873 0.7073 0.95316 0.0
C1327 C 0.13023 0.68668 0.94512 0.0
C1328 C 0.14955 0.70029 0.96176 0.0
C1329 C 0.18431 0.65176 0.97069 0.0
H1330 H 0.16395 0.6709 0.99616 0.0
C1331 C 0.23566 0.62324 1.00317 0.0
C1332 C 0.25445 0.65043 0.0089 0.0
C1333 C 0.21145 0.62184 0.99726 0.0
C1334 C 0.16968 0.6653 0.9891 0.0
H1335 H 0.12564 0.64219 0.93985 0.0
H1336 H 0.14368 0.62962 0.9548 0.0
H1337 H 0.14149 0.68167 0.98163 0.0
H1338 H 0.26039 0.69559 0.0139 0.0
H1339 H 0.21831 0.69347 1.00349 0.0
H1340 H 0.21279 0.63592 0.97801 0.0
C1341 C 0.14292 0.65167 0.95445 0.0
C1342 C 0.15704 0.67169 0.98077 0.0
C1343 C 0.13248 0.65884 0.94587 0.0
C1344 C 0.24585 0.67415 0.00964 0.0
C1345 C 0.22188 0.67302 1.0036 0.0
C1346 C 0.19665 0.64519 0.97897 0.0
C1347 C 0.15184 0.67237 0.9625 0.0
C1348 C 0.16439 0.66513 0.97145 0.0
C1349 C 0.20613 0.64795 0.99684 0.0
C1350 C 0.18965 0.65196 0.98828 0.0
H1351 H 0.13705 0.72886 0.95281 0.0
H1352 H 0.15658 0.71698 0.96776 0.0
H1353 H 0.19122 0.64714 0.96367 0.0
H1354 H 0.24205 0.60477 1.00245 0.0
H1355 H 0.19909 0.60177 0.99233 0.0
C1356 C 0.38085 0.49657 0.94697 0.0
C1357 C 0.3558 0.4647 0.94588 0.0
C1358 C 0.38628 0.51213 0.9559 0.0
C1359 C 0.34677 0.51081 0.97881 0.0
H1360 H 0.43429 0.57021 0.98687 0.0
C1361 C 0.36963 0.59665 0.01017 0.0
C1362 C 0.3886 0.62848 0.00697 0.0
C1363 C 0.36997 0.57165 0.0051 0.0
C1364 C 0.40972 0.55351 0.98477 0.0
H1365 H 0.3166 0.42416 0.95327 0.0
H1366 H 0.32604 0.45146 0.96891 0.0
H1367 H 0.4245 0.53589 0.97276 0.0
H1368 H 0.42564 0.65971 0.99686 0.0
H1369 H 0.42689 0.61656 0.98818 0.0
H1370 H 0.33198 0.52935 0.99055 0.0
C1371 C 0.3414 0.46443 0.96284 0.0
C1372 C 0.4041 0.534 0.97666 0.0
C1373 C 0.33598 0.44882 0.95388 0.0
C1374 C 0.41079 0.63531 0.99946 0.0
C1375 C 0.41147 0.61049 0.99449 0.0
C1376 C 0.35239 0.5303 0.98693 0.0
C1377 C 0.36682 0.49619 0.96396 0.0
C1378 C 0.37259 0.51327 0.97338 0.0
C1379 C 0.38967 0.5783 0.99687 0.0
C1380 C 0.38396 0.55268 0.9898 0.0
H1381 H 0.39655 0.50945 0.94094 0.0
H1382 H 0.4056 0.53683 0.95645 0.0
H1383 H 0.32223 0.49522 0.97646 0.0
H1384 H 0.35219 0.5908 0.01592 0.0
H1385 H 0.35325 0.54707 0.00719 0.0
C1386 C 0.12556 0.50064 0.44546 0.0
C1387 C 0.12257 0.47019 0.44485 0.0
C1388 C 0.137 0.51882 0.45391 0.0
C1389 C 0.15218 0.51446 0.48013 0.0
H1390 H 0.21235 0.60524 0.47655 0.0
C1391 C 0.24481 0.59962 0.50838 0.0
C1392 C 0.25638 0.63259 0.50724 0.0
C1393 C 0.21969 0.57737 0.50252 0.0
C1394 C 0.19497 0.58011 0.47774 0.0
H1395 H 0.12898 0.43472 0.45263 0.0
H1396 H 0.15002 0.46704 0.46738 0.0
H1397 H 0.18831 0.57147 0.46252 0.0
H1398 H 0.24806 0.66801 0.50032 0.0
H1399 H 0.20298 0.6292 0.49052 0.0
H1400 H 0.16005 0.52331 0.49545 0.0
C1401 C 0.14293 0.47658 0.46136 0.0
C1402 C 0.18127 0.56065 0.46965 0.0
C1403 C 0.13123 0.45822 0.45289 0.0
C1404 C 0.23948 0.64265 0.5013 0.0
C1405 C 0.21402 0.62044 0.49559 0.0
C1406 C 0.16607 0.53405 0.48829 0.0
C1407 C 0.14605 0.50716 0.46195 0.0
C1408 C 0.15981 0.52757 0.47072 0.0
C1409 C 0.20567 0.58796 0.49555 0.0
C1410 C 0.18772 0.56714 0.48717 0.0
H1411 H 0.11867 0.51036 0.43943 0.0
H1412 H 0.13854 0.54201 0.45416 0.0
H1413 H 0.13548 0.48909 0.4812 0.0
H1414 H 0.25775 0.5914 0.51286 0.0
H1415 H 0.21377 0.55253 0.50272 0.0
C1416 C 0.53649 0.65 0.44707 0.0
C1417 C 0.56847 0.67473 0.44587 0.0
C1418 C 0.52152 0.64445 0.45611 0.0
C1419 C 0.52446 0.68323 0.47925 0.0
H1420 H 0.46533 0.59556 0.48725 0.0
C1421 C 0.43927 0.6607 0.51062 0.0
C1422 C 0.40746 0.64195 0.50738 0.0
C1423 C 0.46419 0.65989 0.50564 0.0
C1424 C 0.48197 0.62017 0.48517 0.0
H1425 H 0.60978 0.7133 0.45316 0.0
H1426 H 0.58343 0.70376 0.46899 0.0
H1427 H 0.49901 0.60567 0.47295 0.0
H1428 H 0.37607 0.60453 0.49742 0.0
H1429 H 0.41905 0.60249 0.4889 0.0
H1430 H 0.5064 0.69777 0.49116 0.0
C1431 C 0.56998 0.68869 0.46292 0.0
C1432 C 0.50111 0.62597 0.47695 0.0
C1433 C 0.58503 0.69419 0.45386 0.0
C1434 C 0.40046 0.61923 0.50003 0.0
C1435 C 0.42521 0.61813 0.49514 0.0
C1436 C 0.5053 0.67743 0.48747 0.0
C1437 C 0.53815 0.66351 0.46416 0.0
C1438 C 0.52169 0.65754 0.4737 0.0
C1439 C 0.45746 0.63998 0.49746 0.0
C1440 C 0.48297 0.64581 0.49032 0.0
H1441 H 0.52309 0.63456 0.44106 0.0
H1442 H 0.49675 0.62534 0.45676 0.0
H1443 H 0.53996 0.70782 0.47691 0.0
H1444 H 0.44526 0.67852 0.51625 0.0
H1445 H 0.4888 0.67661 0.5077 0.0
C1446 C 0.34209 0.90813 0.45475 0.0
C1447 C 0.3612 0.91183 0.44661 0.0
C1448 C 0.34819 0.89826 0.46367 0.0
C1449 C 0.41194 0.89241 0.47705 0.0
H1450 H 0.34098 0.82524 0.49157 0.0
C1451 C 0.42013 0.79885 0.50002 0.0
C1452 C 0.39775 0.78299 0.50747 0.0
C1453 C 0.42093 0.82458 0.49513 0.0
C1454 C 0.3611 0.84465 0.48778 0.0
H1455 H 0.40135 0.90766 0.44136 0.0
H1456 H 0.41157 0.88988 0.45681 0.0
H1457 H 0.33008 0.8487 0.47748 0.0
H1458 H 0.36159 0.78402 0.51652 0.0
H1459 H 0.36302 0.8293 0.50798 0.0
H1460 H 0.44297 0.88728 0.48711 0.0
C1461 C 0.39229 0.8952 0.45639 0.0
C1462 C 0.35482 0.85799 0.47965 0.0
C1463 C 0.38617 0.905 0.4475 0.0
C1464 C 0.37914 0.79593 0.51081 0.0
C1465 C 0.37966 0.82155 0.50583 0.0
C1466 C 0.41824 0.87908 0.48518 0.0
C1467 C 0.37359 0.89201 0.46461 0.0
C1468 C 0.38017 0.88122 0.474 0.0
C1469 C 0.39914 0.83477 0.49755 0.0
C1470 C 0.3929 0.85426 0.49045 0.0
H1471 H 0.32281 0.91345 0.4543 0.0
H1472 H 0.3334 0.8961 0.46986 0.0
H1473 H 0.43201 0.91084 0.47298 0.0
H1474 H 0.43473 0.78927 0.49732 0.0
H1475 H 0.43625 0.83411 0.4888 0.0
C1476 C 0.1196 0.46797 0.3882 0.0
C1477 C 0.13169 0.45904 0.39615 0.0
C1478 C 0.13792 0.48012 0.37972 0.0
C1479 C 0.22217 0.51881 0.37138 0.0
H1480 H 0.1849 0.49945 0.34556 0.0
C1481 C 0.30481 0.576 0.33972 0.0
C1482 C 0.29575 0.59392 0.33387 0.0
C1483 C 0.28201 0.55091 0.34542 0.0
C1484 C 0.19562 0.50495 0.35273 0.0
H1485 H 0.17198 0.455 0.40137 0.0
H1486 H 0.20347 0.47549 0.38664 0.0
H1487 H 0.15049 0.47441 0.35976 0.0
H1488 H 0.25557 0.59751 0.32842 0.0
H1489 H 0.21564 0.55402 0.33853 0.0
H1490 H 0.26697 0.54969 0.36452 0.0
C1491 C 0.18027 0.47394 0.38697 0.0
C1492 C 0.17591 0.49081 0.36086 0.0
C1493 C 0.16216 0.4621 0.39543 0.0
C1494 C 0.26302 0.58373 0.33281 0.0
C1495 C 0.24018 0.55892 0.33866 0.0
C1496 C 0.24174 0.53271 0.36331 0.0
C1497 C 0.16857 0.4834 0.37904 0.0
C1498 C 0.18902 0.49769 0.37029 0.0
C1499 C 0.24992 0.54388 0.34553 0.0
C1500 C 0.2288 0.52606 0.35387 0.0
H1501 H 0.09608 0.46568 0.38854 0.0
H1502 H 0.12832 0.48748 0.37378 0.0
H1503 H 0.23301 0.52535 0.37852 0.0
H1504 H 0.32996 0.58353 0.34065 0.0
H1505 H 0.29009 0.5391 0.35043 0.0
C1506 C 0.5652 0.71022 0.39468 0.0
C1507 C 0.57093 0.68451 0.39558 0.0
C1508 C 0.55597 0.71693 0.38578 0.0
C1509 C 0.51842 0.68086 0.36245 0.0
H1510 H 0.55208 0.76983 0.35502 0.0
C1511 C 0.46075 0.71002 0.33103 0.0
C1512 C 0.44948 0.73021 0.33423 0.0
C1513 C 0.48522 0.70874 0.33615 0.0
C1514 C 0.54262 0.74486 0.35695 0.0
H1515 H 0.57103 0.64536 0.38789 0.0
H1516 H 0.55456 0.65695 0.37231 0.0
H1517 H 0.57392 0.75707 0.36922 0.0
H1518 H 0.45766 0.76795 0.34431 0.0
H1519 H 0.50054 0.76637 0.35308 0.0
H1520 H 0.48613 0.66864 0.35047 0.0
C1521 C 0.55722 0.67189 0.37851 0.0
C1522 C 0.55499 0.73755 0.36512 0.0
C1523 C 0.56658 0.66522 0.38743 0.0
C1524 C 0.46598 0.75219 0.34171 0.0
C1525 C 0.49057 0.75118 0.34675 0.0
C1526 C 0.50601 0.68817 0.35429 0.0
C1527 C 0.5522 0.6981 0.37756 0.0
C1528 C 0.54227 0.70553 0.36815 0.0
C1529 C 0.49897 0.72796 0.34444 0.0
C1530 C 0.51722 0.72031 0.35163 0.0
H1531 H 0.56837 0.72556 0.40082 0.0
H1532 H 0.55159 0.73684 0.38536 0.0
H1533 H 0.50799 0.65597 0.36462 0.0
H1534 H 0.44829 0.69271 0.32531 0.0
H1535 H 0.49162 0.69101 0.33409 0.0
C1536 C 0.32697 0.87855 0.3949 0.0
C1537 C 0.35196 0.9104 0.39612 0.0
C1538 C 0.32107 0.86375 0.38583 0.0
C1539 C 0.35895 0.86608 0.36262 0.0
H1540 H 0.27074 0.8094 0.35459 0.0
C1541 C 0.33351 0.78059 0.33107 0.0
C1542 C 0.3134 0.74882 0.33418 0.0
C1543 C 0.33395 0.80599 0.33615 0.0
C1544 C 0.29551 0.82531 0.35668 0.0
H1545 H 0.39068 0.95161 0.38882 0.0
H1546 H 0.3806 0.92546 0.37294 0.0
H1547 H 0.28192 0.8429 0.36898 0.0
H1548 H 0.27501 0.71825 0.34401 0.0
H1549 H 0.27517 0.76207 0.35268 0.0
H1550 H 0.37256 0.84736 0.35064 0.0
C1551 C 0.36555 0.91204 0.37902 0.0
C1552 C 0.30191 0.84438 0.36494 0.0
C1553 C 0.37136 0.92696 0.38811 0.0
C1554 C 0.29073 0.74259 0.34149 0.0
C1555 C 0.29091 0.76783 0.34647 0.0
C1556 C 0.35255 0.84692 0.35436 0.0
C1557 C 0.34007 0.88039 0.37777 0.0
C1558 C 0.33364 0.86409 0.3682 0.0
C1559 C 0.31398 0.79984 0.34428 0.0
C1560 C 0.32069 0.82544 0.3515 0.0
H1561 H 0.31155 0.86515 0.40092 0.0
H1562 H 0.30171 0.8391 0.38516 0.0
H1563 H 0.38364 0.88093 0.36495 0.0
H1564 H 0.35132 0.786 0.32548 0.0
H1565 H 0.35158 0.83042 0.33417 0.0
C1566 C 0.32455 0.09383 0.09821 0.0
C1567 C 0.32955 0.06754 0.09822 0.0
C1568 C 0.30088 0.09372 0.10412 0.0
C1569 C 0.25165 0.0529 0.12601 0.0
H1570 H 0.20131 0.09072 0.11755 0.0
C1571 C 0.12792 0.02062 0.14121 0.0
C1572 C 0.11991 0.04475 0.1419 0.0
C1573 C 0.15806 0.02777 0.13779 0.0
C1574 C 0.21562 0.08063 0.1201 0.0
H1575 H 0.31274 0.01991 0.10406 0.0
H1576 H 0.27066 0.01909 0.11403 0.0
H1577 H 0.24286 0.09306 0.10694 0.0
H1578 H 0.13721 0.09544 0.14008 0.0
H1579 H 0.19019 0.10811 0.13394 0.0
H1580 H 0.2232 0.03918 0.13899 0.0
C1581 C 0.28566 0.04032 0.10974 0.0
C1582 C 0.23942 0.08187 0.114 0.0
C1583 C 0.30951 0.04058 0.10392 0.0
C1584 C 0.14319 0.0766 0.13976 0.0
C1585 C 0.17325 0.08372 0.13615 0.0
C1586 C 0.22762 0.05136 0.13206 0.0
C1587 C 0.28151 0.06718 0.11011 0.0
C1588 C 0.25737 0.06752 0.1168 0.0
C1589 C 0.18048 0.05911 0.13479 0.0
C1590 C 0.20904 0.06479 0.1291 0.0
H1591 H 0.33985 0.11509 0.09397 0.0
H1592 H 0.29859 0.11493 0.10425 0.0
H1593 H 0.26554 0.04234 0.12854 0.0
H1594 H 0.11004 0.99581 0.14268 0.0
H1595 H 0.16279 0.00827 0.13675 0.0
C1596 C 0.98645 0.2898 0.10707 0.0
C1597 C 0.96691 0.28313 0.09882 0.0
C1598 C 0.98763 0.26512 0.11202 0.0
C1599 C 0.97598 0.18489 0.10858 0.0
H1600 H 0.97679 0.18263 0.13677 0.0
C1601 C 0.02793 0.11923 0.12909 0.0
C1602 C 0.00878 0.09669 0.1362 0.0
C1603 C 0.01941 0.14056 0.12523 0.0
C1604 C 0.97621 0.18279 0.12891 0.0
H1605 H 0.93339 0.24537 0.08925 0.0
H1606 H 0.93595 0.20219 0.09782 0.0
H1607 H 0.96774 0.2224 0.12841 0.0
H1608 H 0.96632 0.08002 0.14514 0.0
H1609 H 0.95169 0.11834 0.13847 0.0
H1610 H 0.98532 0.14597 0.10905 0.0
C1611 C 0.95026 0.22657 0.10046 0.0
C1612 C 0.97134 0.20566 0.12412 0.0
C1613 C 0.94885 0.25127 0.09555 0.0
C1614 C 0.98164 0.09717 0.13973 0.0
C1615 C 0.9732 0.11895 0.13588 0.0
C1616 C 0.98117 0.16234 0.11335 0.0
C1617 C 0.96951 0.23322 0.10879 0.0
C1618 C 0.97175 0.20728 0.11391 0.0
C1619 C 0.99162 0.14019 0.1284 0.0
C1620 C 0.98198 0.16148 0.12354 0.0
H1621 H 0.00053 0.31409 0.10981 0.0
H1622 H 0.00309 0.27108 0.11832 0.0
H1623 H 0.97658 0.18561 0.10072 0.0
H1624 H 0.04927 0.11994 0.12628 0.0
H1625 H 0.0344 0.15714 0.11962 0.0
C1626 C 0.74577 0.72268 0.10726 0.0
C1627 C 0.75199 0.70781 0.09947 0.0
C1628 C 0.77103 0.74842 0.11216 0.0
C1629 C 0.85541 0.81187 0.10907 0.0
H1630 H 0.85318 0.82084 0.13702 0.0
C1631 C 0.93251 0.93214 0.12733 0.0
C1632 C 0.951 0.934 0.13547 0.0
C1633 C 0.90877 0.90266 0.12379 0.0
C1634 C 0.85427 0.8184 0.12923 0.0
H1635 H 0.78953 0.70825 0.0907 0.0
H1636 H 0.8336 0.75319 0.09923 0.0
H1637 H 0.81078 0.77261 0.12898 0.0
H1638 H 0.95787 0.90613 0.14656 0.0
H1639 H 0.91558 0.85379 0.14032 0.0
H1640 H 0.89859 0.85759 0.10926 0.0
C1641 C 0.8092 0.74516 0.10151 0.0
C1642 C 0.82986 0.79103 0.12461 0.0
C1643 C 0.78395 0.71942 0.09661 0.0
C1644 C 0.94404 0.90547 0.14029 0.0
C1645 C 0.91994 0.8756 0.13671 0.0
C1646 C 0.87962 0.83912 0.11366 0.0
C1647 C 0.80307 0.75988 0.10938 0.0
C1648 C 0.82991 0.78774 0.11445 0.0
C1649 C 0.90269 0.87402 0.12826 0.0
C1650 C 0.87897 0.84304 0.12376 0.0
H1651 H 0.72139 0.71418 0.10966 0.0
H1652 H 0.76543 0.75955 0.11808 0.0
H1653 H 0.85615 0.81027 0.10124 0.0
H1654 H 0.93669 0.95362 0.12353 0.0
H1655 H 0.89532 0.90228 0.11743 0.0
C1656 C 0.0506 0.31429 0.40239 0.0
C1657 C 0.06786 0.32816 0.41097 0.0
C1658 C 0.05251 0.28944 0.39782 0.0
C1659 C 0.0717 0.22593 0.40228 0.0
H1660 H 0.08312 0.22807 0.37434 0.0
C1661 C 0.0839 0.12686 0.38408 0.0
C1662 C 0.06471 0.11303 0.37584 0.0
C1663 C 0.09014 0.15675 0.38744 0.0
C1664 C 0.07975 0.22702 0.38214 0.0
H1665 H 0.10015 0.32646 0.4216 0.0
H1666 H 0.10314 0.2827 0.4137 0.0
H1667 H 0.08022 0.27173 0.38239 0.0
H1668 H 0.0392 0.12058 0.36414 0.0
H1669 H 0.04927 0.17255 0.37014 0.0
H1670 H 0.0702 0.18098 0.40208 0.0
C1671 C 0.08815 0.29109 0.4105 0.0
C1672 C 0.07806 0.252 0.38674 0.0
C1673 C 0.08643 0.31612 0.41503 0.0
C1674 C 0.05421 0.13084 0.3705 0.0
C1675 C 0.05996 0.16061 0.37396 0.0
C1676 C 0.07317 0.20092 0.39768 0.0
C1677 C 0.07152 0.27775 0.40178 0.0
C1678 C 0.0739 0.25163 0.39686 0.0
C1679 C 0.07672 0.17316 0.38274 0.0
C1680 C 0.07719 0.20106 0.38755 0.0
H1681 H 0.03616 0.32313 0.39906 0.0
H1682 H 0.03905 0.27932 0.39119 0.0
H1683 H 0.068 0.22471 0.41006 0.0
H1684 H 0.09258 0.11371 0.38826 0.0
H1685 H 0.10409 0.16618 0.39402 0.0
C1686 C 0.71413 0.78428 0.41208 0.0
C1687 C 0.70113 0.75252 0.40884 0.0
C1688 C 0.73843 0.80972 0.40679 0.0
C1689 C 0.79966 0.82816 0.38765 0.0
H1690 H 0.80072 0.90906 0.3864 0.0
C1691 C 0.89974 0.93574 0.36717 0.0
C1692 C 0.91636 0.9623 0.37334 0.0
C1693 C 0.86903 0.91082 0.36971 0.0
C1694 C 0.80059 0.88653 0.38664 0.0
H1695 H 0.70354 0.72244 0.39757 0.0
H1696 H 0.74537 0.76667 0.38827 0.0
H1697 H 0.75701 0.86342 0.39486 0.0
H1698 H 0.91285 0.98544 0.38638 0.0
H1699 H 0.85918 0.94255 0.39067 0.0
H1700 H 0.84342 0.85144 0.37951 0.0
C1701 C 0.73734 0.77206 0.39497 0.0
C1702 C 0.77574 0.86046 0.39157 0.0
C1703 C 0.71329 0.74665 0.40031 0.0
C1704 C 0.90057 0.96513 0.38152 0.0
C1705 C 0.86978 0.94057 0.38396 0.0
C1706 C 0.82431 0.85413 0.38265 0.0
C1707 C 0.75004 0.80398 0.39809 0.0
C1708 C 0.77532 0.83113 0.39231 0.0
C1709 C 0.85433 0.91248 0.37835 0.0
C1710 C 0.8254 0.88378 0.38226 0.0
H1711 H 0.70524 0.78954 0.41863 0.0
H1712 H 0.7481 0.8339 0.40953 0.0
H1713 H 0.80043 0.80614 0.38816 0.0
H1714 H 0.91144 0.93294 0.36084 0.0
H1715 H 0.85746 0.88956 0.3652 0.0
C1716 C 0.24636 0.94227 0.4145 0.0
C1717 C 0.27773 0.96377 0.41131 0.0
C1718 C 0.21991 0.94031 0.40966 0.0
C1719 C 0.19492 0.9566 0.38604 0.0
H1720 H 0.12556 0.95428 0.40089 0.0
C1721 C 0.09723 0.97948 0.36965 0.0
C1722 C 0.06752 0.96596 0.37444 0.0
C1723 C 0.12134 0.9739 0.37312 0.0
C1724 C 0.1443 0.95416 0.39659 0.0
H1725 H 0.30602 0.00032 0.40063 0.0
H1726 H 0.25982 0.99698 0.39221 0.0
H1727 H 0.1709 0.95654 0.40932 0.0
H1728 H 0.03817 0.93314 0.38578 0.0
H1729 H 0.07937 0.92193 0.39148 0.0
H1730 H 0.16829 0.95433 0.37329 0.0
C1731 C 0.25568 0.98146 0.39839 0.0
C1732 C 0.17044 0.95567 0.40146 0.0
C1733 C 0.28213 0.9836 0.40328 0.0
C1734 C 0.06105 0.94408 0.38203 0.0
C1735 C 0.08482 0.93803 0.38536 0.0
C1736 C 0.16858 0.95485 0.38115 0.0
C1737 C 0.22428 0.95963 0.40148 0.0
C1738 C 0.19615 0.95715 0.39625 0.0
C1739 C 0.11586 0.95432 0.38133 0.0
C1740 C 0.14298 0.95377 0.38637 0.0
H1741 H 0.2422 0.92654 0.42063 0.0
H1742 H 0.19598 0.92313 0.41218 0.0
H1743 H 0.21424 0.95732 0.38183 0.0
H1744 H 0.10285 0.99663 0.36382 0.0
H1745 H 0.1449 0.98685 0.36981 0.0
C1746 C 0.71126 0.96873 0.90083 0.0
C1747 C 0.71382 0.97107 0.91098 0.0
C1748 C 0.73424 0.96636 0.89529 0.0
C1749 C 0.80352 0.95164 0.89771 0.0
H1750 H 0.81838 0.98151 0.87108 0.0
C1751 C 0.90769 0.99198 0.86644 0.0
C1752 C 0.9207 0.97346 0.86976 0.0
C1753 C 0.87859 0.98706 0.8702 0.0
C1754 C 0.81502 0.97337 0.87853 0.0
H1755 H 0.74271 0.97364 0.92333 0.0
H1756 H 0.7844 0.97224 0.9137 0.0
H1757 H 0.77915 0.98619 0.88068 0.0
H1758 H 0.91217 0.93298 0.87866 0.0
H1759 H 0.85989 0.92202 0.88448 0.0
H1760 H 0.8415 0.94176 0.8959 0.0
C1761 C 0.76387 0.97052 0.90994 0.0
C1762 C 0.79179 0.97547 0.88405 0.0
C1763 C 0.74021 0.97179 0.9155 0.0
C1764 C 0.90257 0.94766 0.87604 0.0
C1765 C 0.87289 0.94191 0.87953 0.0
C1766 C 0.82745 0.9505 0.8923 0.0
C1767 C 0.76105 0.9673 0.89973 0.0
C1768 C 0.7857 0.96476 0.89376 0.0
C1769 C 0.86137 0.9628 0.87716 0.0
C1770 C 0.83378 0.96148 0.88262 0.0
H1771 H 0.69077 0.96754 0.89717 0.0
H1772 H 0.73036 0.96305 0.88754 0.0
H1773 H 0.79927 0.94226 0.90504 0.0
H1774 H 0.92148 0.01231 0.86168 0.0
H1775 H 0.87108 0.00394 0.86815 0.0
C1776 C 0.0564 0.76737 0.902 0.0
C1777 C 0.07603 0.77281 0.91016 0.0
C1778 C 0.05852 0.79313 0.89672 0.0
C1779 C 0.08464 0.87888 0.8984 0.0
H1780 H 0.08576 0.87609 0.87025 0.0
C1781 C 0.09448 0.98397 0.87697 0.0
C1782 C 0.0717 0.97564 0.86954 0.0
C1783 C 0.10157 0.9613 0.88067 0.0
C1784 C 0.08536 0.8772 0.87809 0.0
H1785 H 0.11267 0.80948 0.91934 0.0
H1786 H 0.11608 0.85456 0.91018 0.0
H1787 H 0.08283 0.83175 0.87971 0.0
H1788 H 0.04072 0.93827 0.8595 0.0
H1789 H 0.05237 0.89817 0.86612 0.0
H1790 H 0.08611 0.92361 0.89689 0.0
C1791 C 0.09906 0.83034 0.90787 0.0
C1792 C 0.08361 0.85177 0.88351 0.0
C1793 C 0.09708 0.80454 0.91312 0.0
C1794 C 0.05855 0.9453 0.86519 0.0
C1795 C 0.06519 0.92231 0.86902 0.0
C1796 C 0.0862 0.90415 0.893 0.0
C1797 C 0.08017 0.82491 0.89951 0.0
C1798 C 0.083 0.85226 0.89373 0.0
C1799 C 0.08543 0.92959 0.87717 0.0
C1800 C 0.08644 0.90364 0.88277 0.0
H1801 H 0.03999 0.74319 0.89951 0.0
H1802 H 0.04325 0.78816 0.89042 0.0
H1803 H 0.08376 0.87978 0.90624 0.0
H1804 H 0.10508 0.00735 0.88039 0.0
H1805 H 0.11814 0.96809 0.88671 0.0
C1806 C 0.24326 0.31882 0.91271 0.0
C1807 C 0.2747 0.33086 0.90926 0.0
C1808 C 0.21712 0.29457 0.90766 0.0
C1809 C 0.19239 0.25776 0.88339 0.0
H1810 H 0.12459 0.18638 0.8976 0.0
C1811 C 0.09657 0.13787 0.86581 0.0
C1812 C 0.06706 0.12012 0.87064 0.0
C1813 C 0.12019 0.16757 0.86952 0.0
C1814 C 0.1429 0.20645 0.8935 0.0
H1815 H 0.30346 0.32668 0.89789 0.0
H1816 H 0.2578 0.28414 0.88911 0.0
H1817 H 0.16959 0.22888 0.90638 0.0
H1818 H 0.0374 0.12093 0.8823 0.0
H1819 H 0.07777 0.17328 0.88846 0.0
H1820 H 0.16568 0.23506 0.87047 0.0
C1821 C 0.25335 0.29369 0.89566 0.0
C1822 C 0.16884 0.23076 0.89856 0.0
C1823 C 0.27951 0.3178 0.90075 0.0
C1824 C 0.06015 0.13404 0.87852 0.0
C1825 C 0.08344 0.16385 0.88211 0.0
C1826 C 0.16627 0.23344 0.87831 0.0
C1827 C 0.22184 0.28198 0.89902 0.0
C1828 C 0.19399 0.25658 0.89358 0.0
C1829 C 0.1144 0.18006 0.87803 0.0
C1830 C 0.14123 0.20739 0.8833 0.0
H1831 H 0.23879 0.32856 0.91922 0.0
H1832 H 0.19312 0.28621 0.9104 0.0
H1833 H 0.21125 0.2776 0.87936 0.0
H1834 H 0.10253 0.12755 0.85974 0.0
H1835 H 0.1437 0.17939 0.86616 0.0
C1836 C 0.94162 0.70649 0.60015 0.0
C1837 C 0.96425 0.69798 0.60311 0.0
C1838 C 0.93973 0.73122 0.60485 0.0
C1839 C 0.95952 0.77708 0.62777 0.0
H1840 H 0.95354 0.84046 0.612 0.0
C1841 C 0.98048 0.89925 0.64259 0.0
C1842 C 0.96592 0.91403 0.63762 0.0
C1843 C 0.97568 0.86943 0.63947 0.0
C1844 C 0.95446 0.82266 0.61657 0.0
H1845 H 0.00257 0.70866 0.61335 0.0
H1846 H -0.00077 0.75184 0.62155 0.0
H1847 H 0.95525 0.79626 0.6042 0.0
H1848 H 0.9322 0.90787 0.62627 0.0
H1849 H 0.92225 0.85527 0.62122 0.0
H1850 H 0.95871 0.80355 0.64016 0.0
C1851 C 0.98286 0.73928 0.61563 0.0
C1852 C 0.95565 0.79735 0.61206 0.0
C1853 C 0.98495 0.71474 0.61087 0.0
C1854 C 0.94392 0.89708 0.63018 0.0
C1855 C 0.93863 0.86713 0.62719 0.0
C1856 C 0.95804 0.80233 0.63231 0.0
C1857 C 0.96023 0.74782 0.61267 0.0
C1858 C 0.95834 0.77433 0.61758 0.0
C1859 C 0.95584 0.85373 0.63141 0.0
C1860 C 0.95557 0.82555 0.62677 0.0
H1861 H 0.92522 0.69393 0.59424 0.0
H1862 H 0.92186 0.73704 0.60244 0.0
H1863 H 0.96128 0.75951 0.63223 0.0
H1864 H 0.99778 0.91195 0.6483 0.0
H1865 H 0.98934 0.85995 0.64293 0.0
C1866 C 0.31486 0.24224 0.59484 0.0
C1867 C 0.32683 0.27352 0.5984 0.0
C1868 C 0.28988 0.21594 0.59967 0.0
C1869 C 0.25013 0.19004 0.62355 0.0
H1870 H 0.17942 0.12434 0.60861 0.0
C1871 C 0.1284 0.09381 0.64029 0.0
C1872 C 0.11066 0.06467 0.63528 0.0
C1873 C 0.15824 0.11765 0.6367 0.0
C1874 C 0.19926 0.14203 0.61292 0.0
H1875 H 0.32186 0.30182 0.60977 0.0
H1876 H 0.27819 0.25595 0.61815 0.0
H1877 H 0.22353 0.16934 0.60028 0.0
H1878 H 0.11153 0.03603 0.62333 0.0
H1879 H 0.16409 0.0767 0.61738 0.0
H1880 H 0.22571 0.16268 0.63622 0.0
C1881 C 0.28829 0.25171 0.61168 0.0
C1882 C 0.22451 0.16798 0.60812 0.0
C1883 C 0.31308 0.27801 0.60682 0.0
C1884 C 0.12462 0.05847 0.62726 0.0
C1885 C 0.15456 0.08196 0.62378 0.0
C1886 C 0.2249 0.16387 0.62838 0.0
C1887 C 0.27651 0.22036 0.60819 0.0
C1888 C 0.25014 0.1924 0.61336 0.0
C1889 C 0.17094 0.11251 0.62812 0.0
C1890 C 0.19904 0.13955 0.62312 0.0
H1891 H 0.32511 0.238 0.58841 0.0
H1892 H 0.28147 0.19206 0.59683 0.0
H1893 H 0.26977 0.20833 0.62779 0.0
H1894 H 0.11805 0.09924 0.64646 0.0
H1895 H 0.17013 0.14083 0.64026 0.0
C1896 C 0.75075 0.06253 0.61046 0.0
C1897 C 0.75723 0.07983 0.60172 0.0
C1898 C 0.7756 0.06289 0.61581 0.0
C1899 C 0.86487 0.10771 0.61857 0.0
H1900 H 0.84974 0.02898 0.63093 0.0
C1901 C 0.96416 0.07952 0.62838 0.0
C1902 C 0.96072 0.06121 0.63671 0.0
C1903 C 0.94062 0.08701 0.62587 0.0
C1904 C 0.85422 0.05135 0.62769 0.0
H1905 H 0.79485 0.11086 0.59171 0.0
H1906 H 0.83815 0.11072 0.60087 0.0
H1907 H 0.8058 0.03031 0.62266 0.0
H1908 H 0.93095 0.03807 0.64929 0.0
H1909 H 0.8894 0.05097 0.64484 0.0
H1910 H 0.91375 0.12819 0.62328 0.0
C1911 C 0.81397 0.09748 0.60374 0.0
C1912 C 0.82899 0.05214 0.62292 0.0
C1913 C 0.7891 0.09734 0.59842 0.0
C1914 C 0.93433 0.05243 0.64287 0.0
C1915 C 0.91042 0.05951 0.64027 0.0
C1916 C 0.89017 0.10682 0.62328 0.0
C1917 C 0.80759 0.08035 0.61253 0.0
C1918 C 0.83406 0.08017 0.61815 0.0
C1919 C 0.91283 0.07595 0.63156 0.0
C1920 C 0.88525 0.07848 0.62777 0.0
H1921 H 0.72646 0.04902 0.61324 0.0
H1922 H 0.76971 0.04979 0.6226 0.0
H1923 H 0.86957 0.12995 0.61519 0.0
H1924 H 0.98429 0.08662 0.62351 0.0
H1925 H 0.94319 0.09956 0.6191 0.0
C1926 C 0.98118 0.4254 0.42825 0.0
C1927 C 0.99205 0.40483 0.43143 0.0
C1928 C 0.95757 0.42777 0.43346 0.0
C1929 C 0.92142 0.4144 0.4579 0.0
H1930 H 0.85196 0.41625 0.44432 0.0
C1931 C 0.80313 0.39186 0.476 0.0
C1932 C 0.78634 0.40509 0.47147 0.0
C1933 C 0.83267 0.39785 0.47225 0.0
C1934 C 0.87155 0.41651 0.44826 0.0
H1935 H 0.98621 0.37008 0.44245 0.0
H1936 H 0.94477 0.37396 0.45147 0.0
H1937 H 0.89297 0.41274 0.43511 0.0
H1938 H 0.78879 0.43808 0.46038 0.0
H1939 H 0.84098 0.44999 0.45418 0.0
H1940 H 0.89966 0.41781 0.47108 0.0
C1941 C 0.95479 0.38858 0.44503 0.0
C1942 C 0.895 0.4143 0.44294 0.0
C1943 C 0.97827 0.3861 0.43979 0.0
C1944 C 0.80123 0.4274 0.46394 0.0
C1945 C 0.8309 0.43384 0.46031 0.0
C1946 C 0.89796 0.41676 0.46324 0.0
C1947 C 0.94446 0.40974 0.44199 0.0
C1948 C 0.92006 0.41296 0.44769 0.0
C1949 C 0.84596 0.41752 0.464 0.0
C1950 C 0.87262 0.41769 0.45848 0.0
H1951 H 0.99152 0.44031 0.42187 0.0
H1952 H 0.95024 0.44443 0.43096 0.0
H1953 H 0.94072 0.41386 0.46177 0.0
H1954 H 0.79199 0.37438 0.48178 0.0
H1955 H 0.84361 0.38494 0.4753 0.0
C1956 C 0.64424 0.60729 0.43949 0.0
C1957 C 0.6243 0.60183 0.4314 0.0
C1958 C 0.64284 0.58155 0.44459 0.0
C1959 C 0.61982 0.49697 0.44215 0.0
H1960 H 0.61824 0.49666 0.47032 0.0
C1961 C 0.64771 0.42925 0.47477 0.0
C1962 C 0.63575 0.39944 0.47015 0.0
C1963 C 0.64063 0.45207 0.47106 0.0
C1964 C 0.61885 0.49645 0.46247 0.0
H1965 H 0.58765 0.56516 0.42223 0.0
H1966 H 0.58559 0.52011 0.43106 0.0
H1967 H 0.61924 0.54103 0.46139 0.0
H1968 H 0.60411 0.36848 0.45885 0.0
H1969 H 0.59024 0.40735 0.45273 0.0
H1970 H 0.62063 0.45327 0.44311 0.0
C1971 C 0.60225 0.54435 0.43345 0.0
C1972 C 0.61943 0.52187 0.45735 0.0
C1973 C 0.60344 0.57011 0.42839 0.0
C1974 C 0.61388 0.39147 0.46248 0.0
C1975 C 0.60631 0.41394 0.4589 0.0
C1976 C 0.61951 0.47177 0.44724 0.0
C1977 C 0.62167 0.54979 0.44167 0.0
C1978 C 0.62009 0.52245 0.44714 0.0
C1979 C 0.62109 0.44517 0.46276 0.0
C1980 C 0.6191 0.47114 0.45747 0.0
H1981 H 0.66049 0.63147 0.44201 0.0
H1982 H 0.65843 0.58651 0.45081 0.0
H1983 H 0.6208 0.49697 0.43429 0.0
H1984 H 0.66481 0.43601 0.48067 0.0
H1985 H 0.65245 0.47582 0.47425 0.0
C1986 C 0.46228 0.05471 0.43034 0.0
C1987 C 0.43034 0.04226 0.43336 0.0
C1988 C 0.48759 0.07878 0.43573 0.0
C1989 C 0.50555 0.14016 0.45481 0.0
H1990 H 0.58553 0.13961 0.45691 0.0
C1991 C 0.61057 0.23718 0.47675 0.0
C1992 C 0.63838 0.25406 0.47105 0.0
C1993 C 0.58588 0.20691 0.4738 0.0
C1994 C 0.56327 0.13995 0.45642 0.0
H1995 H 0.39983 0.04542 0.44434 0.0
H1996 H 0.44377 0.08677 0.45381 0.0
H1997 H 0.54046 0.09681 0.448 0.0
H1998 H 0.66367 0.25131 0.45844 0.0
H1999 H 0.62098 0.1984 0.4534 0.0
H2000 H 0.52846 0.18338 0.46318 0.0
C2001 C 0.44945 0.07855 0.4472 0.0
C2002 C 0.53752 0.11562 0.45124 0.0
C2003 C 0.42418 0.05475 0.44177 0.0
C2004 C 0.64243 0.23883 0.46294 0.0
C2005 C 0.61798 0.20848 0.46007 0.0
C2006 C 0.53116 0.16426 0.46006 0.0
C2007 C 0.48153 0.09071 0.44431 0.0
C2008 C 0.50849 0.11571 0.45022 0.0
C2009 C 0.58882 0.19291 0.46519 0.0
C2010 C 0.56048 0.16473 0.4608 0.0
H2011 H 0.46776 0.04554 0.42389 0.0
H2012 H 0.51191 0.08801 0.43316 0.0
H2013 H 0.48382 0.14137 0.45409 0.0
H2014 H 0.60667 0.24842 0.48299 0.0
H2015 H 0.56379 0.19524 0.47795 0.0
C2016 C 0.72176 0.63744 0.75186 0.0
C2017 C 0.71268 0.6568 0.74672 0.0
C2018 C 0.7155 0.60798 0.74803 0.0
C2019 C 0.70578 0.56754 0.72497 0.0
H2020 H 0.66742 0.48914 0.74017 0.0
C2021 C 0.67839 0.44664 0.7082 0.0
C2022 C 0.68335 0.42574 0.71409 0.0
C2023 C 0.67974 0.47398 0.71217 0.0
C2024 C 0.67857 0.51089 0.73585 0.0
H2025 H 0.68954 0.66041 0.73365 0.0
H2026 H 0.67912 0.60922 0.72691 0.0
H2027 H 0.67409 0.5384 0.74733 0.0
H2028 H 0.69396 0.41723 0.72873 0.0
H2029 H 0.6975 0.46531 0.73557 0.0
H2030 H 0.71146 0.54066 0.71362 0.0
C2031 C 0.69096 0.61678 0.73389 0.0
C2032 C 0.68221 0.53903 0.73996 0.0
C2033 C 0.69678 0.64596 0.73778 0.0
C2034 C 0.68974 0.43273 0.72401 0.0
C2035 C 0.69155 0.46024 0.72795 0.0
C2036 C 0.70258 0.53955 0.72091 0.0
C2037 C 0.7005 0.59766 0.73894 0.0
C2038 C 0.69589 0.5676 0.73456 0.0
C2039 C 0.68654 0.48124 0.72209 0.0
C2040 C 0.68902 0.51084 0.72631 0.0
H2041 H 0.73407 0.64523 0.75876 0.0
H2042 H 0.72326 0.59373 0.75203 0.0
H2043 H 0.71676 0.5894 0.7207 0.0
H2044 H 0.6732 0.44175 0.70053 0.0
H2045 H 0.67522 0.48927 0.70746 0.0
C2046 C 0.3862 0.11901 0.73786 0.0
C2047 C 0.37884 0.08731 0.73964 0.0
C2048 C 0.41115 0.13872 0.73152 0.0
C2049 C 0.48549 0.14999 0.72058 0.0
H2050 H 0.47039 0.19886 0.70102 0.0
C2051 C 0.58858 0.23346 0.69596 0.0
C2052 C 0.59317 0.26449 0.69529 0.0
C2053 C 0.55886 0.20779 0.69887 0.0
C2054 C 0.4751 0.1855 0.70645 0.0
H2055 H 0.39243 0.05174 0.73645 0.0
H2056 H 0.43644 0.08639 0.72557 0.0
H2057 H 0.42715 0.16384 0.71209 0.0
H2058 H 0.5701 0.29289 0.69627 0.0
H2059 H 0.51847 0.24855 0.70151 0.0
H2060 H 0.53362 0.1724 0.71535 0.0
C2061 C 0.42281 0.09593 0.72901 0.0
C2062 C 0.45032 0.16549 0.71281 0.0
C2063 C 0.39764 0.07611 0.73525 0.0
C2064 C 0.56684 0.26896 0.69656 0.0
C2065 C 0.53725 0.24344 0.69964 0.0
C2066 C 0.51033 0.17021 0.71432 0.0
C2067 C 0.42947 0.12725 0.72694 0.0
C2068 C 0.45538 0.14779 0.72 0.0
C2069 C 0.53351 0.21295 0.70141 0.0
C2070 C 0.50565 0.18853 0.70721 0.0
H2071 H 0.37197 0.12822 0.74109 0.0
H2072 H 0.41605 0.16292 0.73017 0.0
H2073 H 0.49021 0.13688 0.7261 0.0
H2074 H 0.60874 0.2296 0.69514 0.0
H2075 H 0.55659 0.18444 0.69984 0.0
C2076 C 0.934 0.30648 0.74334 0.0
C2077 C 0.96678 0.32622 0.74127 0.0
C2078 C 0.91104 0.31039 0.73831 0.0
C2079 C 0.89886 0.34391 0.71552 0.0
H2080 H 0.82149 0.32848 0.72881 0.0
C2081 C 0.79359 0.36091 0.70028 0.0
C2082 C 0.76293 0.33546 0.70274 0.0
C2083 C 0.82114 0.36095 0.70365 0.0
C2084 C 0.84296 0.33275 0.72499 0.0
H2085 H 0.00136 0.36614 0.7325 0.0
H2086 H 0.96126 0.37354 0.72388 0.0
H2087 H 0.86453 0.32851 0.73802 0.0
H2088 H 0.73682 0.28879 0.70965 0.0
H2089 H 0.78455 0.2887 0.71536 0.0
H2090 H 0.87686 0.34848 0.70248 0.0
C2091 C 0.95324 0.35459 0.72924 0.0
C2092 C 0.86758 0.33266 0.73026 0.0
C2093 C 0.97622 0.35053 0.73425 0.0
C2094 C 0.76022 0.30884 0.70775 0.0
C2095 C 0.78748 0.30885 0.71106 0.0
C2096 C 0.87419 0.34433 0.71024 0.0
C2097 C 0.92033 0.33434 0.73114 0.0
C2098 C 0.89555 0.33748 0.72558 0.0
C2099 C 0.81809 0.33555 0.70947 0.0
C2100 C 0.84572 0.33797 0.71492 0.0
H2101 H 0.92598 0.28734 0.74864 0.0
H2102 H 0.88591 0.29398 0.73985 0.0
H2103 H 0.92001 0.34754 0.71167 0.0
H2104 H 0.79624 0.38179 0.69649 0.0
H2105 H 0.84456 0.38177 0.70232 0.0
C2106 C 0.39655 0.32651 0.23768 0.0
C2107 C 0.38333 0.30863 0.24622 0.0
C2108 C 0.42032 0.32413 0.23257 0.0
C2109 C 0.48139 0.30007 0.23514 0.0
H2110 H 0.47512 0.29205 0.20708 0.0
C2111 C 0.57234 0.28097 0.21456 0.0
C2112 C 0.587 0.30163 0.20665 0.0
C2113 C 0.5434 0.2763 0.21831 0.0
C2114 C 0.47728 0.2944 0.21491 0.0
H2115 H 0.38522 0.27489 0.25623 0.0
H2116 H 0.42692 0.27096 0.24736 0.0
H2117 H 0.43456 0.29745 0.21621 0.0
H2118 H 0.58155 0.33118 0.19583 0.0
H2119 H 0.53118 0.32359 0.20248 0.0
H2120 H 0.52429 0.29778 0.23392 0.0
C2121 C 0.41898 0.28688 0.24462 0.0
C2122 C 0.45412 0.2976 0.22013 0.0
C2123 C 0.3951 0.28914 0.24971 0.0
C2124 C 0.57062 0.31497 0.20192 0.0
C2125 C 0.5418 0.31069 0.20577 0.0
C2126 C 0.50452 0.297 0.22994 0.0
C2127 C 0.43151 0.30396 0.23591 0.0
C2128 C 0.45597 0.30053 0.23031 0.0
C2129 C 0.52881 0.29269 0.21432 0.0
C2130 C 0.50281 0.29408 0.21975 0.0
H2131 H 0.38791 0.34168 0.23479 0.0
H2132 H 0.42985 0.338 0.22597 0.0
H2133 H 0.48382 0.3028 0.24296 0.0
H2134 H 0.58438 0.27017 0.21828 0.0
H2135 H 0.5335 0.26137 0.22469 0.0
C2136 C 0.71851 0.08446 0.23326 0.0
C2137 C 0.73795 0.09075 0.24151 0.0
C2138 C 0.71966 0.10963 0.22789 0.0
C2139 C 0.77133 0.19749 0.22361 0.0
H2140 H 0.69369 0.18883 0.21228 0.0
C2141 C 0.7538 0.30277 0.21264 0.0
C2142 C 0.73389 0.29902 0.20471 0.0
C2143 C 0.75952 0.27815 0.21529 0.0
C2144 C 0.71572 0.19141 0.21522 0.0
H2145 H 0.77307 0.12831 0.2508 0.0
H2146 H 0.77424 0.17228 0.24165 0.0
H2147 H 0.69112 0.14415 0.22128 0.0
H2148 H 0.70651 0.26776 0.19282 0.0
H2149 H 0.71639 0.22443 0.19748 0.0
H2150 H 0.79554 0.2454 0.21788 0.0
C2151 C 0.75876 0.14792 0.23914 0.0
C2152 C 0.71425 0.16578 0.22042 0.0
C2153 C 0.75781 0.12272 0.24447 0.0
C2154 C 0.72212 0.27137 0.19893 0.0
C2155 C 0.72747 0.24645 0.20167 0.0
C2156 C 0.77272 0.22324 0.21848 0.0
C2157 C 0.74008 0.14174 0.23069 0.0
C2158 C 0.74194 0.16861 0.2248 0.0
C2159 C 0.74508 0.24909 0.21012 0.0
C2160 C 0.74485 0.22061 0.21434 0.0
H2161 H 0.70315 0.06008 0.23074 0.0
H2162 H 0.70518 0.10387 0.22138 0.0
H2163 H 0.79329 0.20032 0.22668 0.0
H2164 H 0.7632 0.32391 0.2172 0.0
H2165 H 0.77312 0.28092 0.22184 0.0
C2166 C 0.91417 0.65349 0.24597 0.0
C2167 C 0.94546 0.66515 0.24244 0.0
C2168 C 0.88784 0.62824 0.24126 0.0
C2169 C 0.86177 0.58757 0.21757 0.0
H2170 H 0.79556 0.51786 0.2327 0.0
C2171 C 0.72939 0.46284 0.21429 0.0
C2172 C 0.73539 0.44836 0.20637 0.0
C2173 C 0.75304 0.49292 0.21761 0.0
C2174 C 0.81339 0.53743 0.22834 0.0
H2175 H 0.97375 0.65928 0.23126 0.0
H2176 H 0.92777 0.61513 0.22305 0.0
H2177 H 0.84096 0.56188 0.24091 0.0
H2178 H 0.76968 0.45493 0.19517 0.0
H2179 H 0.81157 0.50724 0.20111 0.0
H2180 H 0.83414 0.563 0.20497 0.0
C2181 C 0.92359 0.62567 0.22942 0.0
C2182 C 0.83958 0.56261 0.23307 0.0
C2183 C 0.94993 0.65073 0.23418 0.0
C2184 C 0.76441 0.46572 0.20127 0.0
C2185 C 0.78844 0.49568 0.20471 0.0
C2186 C 0.83537 0.56242 0.21281 0.0
C2187 C 0.89223 0.6143 0.23286 0.0
C2188 C 0.86416 0.58788 0.22776 0.0
C2189 C 0.78355 0.50888 0.21322 0.0
C2190 C 0.81085 0.53694 0.21814 0.0
H2191 H 0.90994 0.66424 0.25228 0.0
H2192 H 0.86396 0.62014 0.24405 0.0
H2193 H 0.8802 0.60694 0.21328 0.0
H2194 H 0.70704 0.45001 0.21829 0.0
H2195 H 0.74797 0.50284 0.22396 0.0
C2196 C 0.66455 0.06213 0.94333 0.0
C2197 C 0.64223 0.04537 0.93592 0.0
C2198 C 0.6626 0.08564 0.94873 0.0
C2199 C 0.62804 0.13881 0.94821 0.0
H2200 H 0.64235 0.14389 0.97605 0.0
C2201 C 0.61426 0.23095 0.96953 0.0
C2202 C 0.64122 0.25127 0.97516 0.0
C2203 C 0.60888 0.2009 0.96666 0.0
C2204 C 0.6383 0.14275 0.96829 0.0
H2205 H 0.6007 0.04047 0.92825 0.0
H2206 H 0.59723 0.08138 0.93766 0.0
H2207 H 0.64602 0.10296 0.96656 0.0
H2208 H 0.68165 0.255 0.98314 0.0
H2209 H 0.67267 0.20259 0.97797 0.0
H2210 H 0.62088 0.17874 0.94982 0.0
C2211 C 0.61646 0.07663 0.93925 0.0
C2212 C 0.64057 0.11945 0.96284 0.0
C2213 C 0.61844 0.05317 0.93385 0.0
C2214 C 0.66053 0.23958 0.97885 0.0
C2215 C 0.65545 0.2096 0.97584 0.0
C2216 C 0.62571 0.16196 0.95364 0.0
C2217 C 0.63828 0.0929 0.94684 0.0
C2218 C 0.6356 0.11732 0.95272 0.0
C2219 C 0.63077 0.19092 0.96919 0.0
C2220 C 0.63084 0.16431 0.96374 0.0
H2221 H 0.68312 0.05658 0.94511 0.0
H2222 H 0.68013 0.09809 0.9544 0.0
H2223 H 0.62466 0.1383 0.94043 0.0
H2224 H 0.59901 0.23949 0.96663 0.0
H2225 H 0.58903 0.18663 0.9618 0.0
C2226 C 0.98714 0.58893 0.92486 0.0
C2227 C -4e-05 0.61883 0.92951 0.0
C2228 C 0.96151 0.56147 0.92902 0.0
C2229 C 0.923 0.52805 0.9525 0.0
H2230 H 0.84926 0.46973 0.93702 0.0
C2231 C 0.80266 0.4307 0.96915 0.0
C2232 C 0.78314 0.40295 0.96369 0.0
C2233 C 0.83189 0.45492 0.96538 0.0
C2234 C 0.86993 0.48532 0.94143 0.0
H2235 H 0.99576 0.64353 0.94207 0.0
H2236 H 0.95112 0.59558 0.94934 0.0
H2237 H 0.89384 0.51651 0.9294 0.0
H2238 H 0.78029 0.37734 0.95046 0.0
H2239 H 0.83174 0.41887 0.94407 0.0
H2240 H 0.89923 0.49685 0.96454 0.0
C2241 C 0.96098 0.59335 0.94251 0.0
C2242 C 0.8954 0.51226 0.93705 0.0
C2243 C 0.98633 0.62084 0.9383 0.0
C2244 C 0.79463 0.39868 0.95478 0.0
C2245 C 0.824 0.42265 0.95108 0.0
C2246 C 0.89764 0.50089 0.95688 0.0
C2247 C 0.94849 0.56334 0.93796 0.0
C2248 C 0.92203 0.5341 0.94255 0.0
C2249 C 0.84235 0.45167 0.95613 0.0
C2250 C 0.87061 0.47931 0.95142 0.0
H2251 H 0.99724 0.58664 0.91809 0.0
H2252 H 0.95243 0.53861 0.92537 0.0
H2253 H 0.94348 0.54427 0.95689 0.0
H2254 H 0.79441 0.43476 0.97603 0.0
H2255 H 0.84524 0.47694 0.96948 0.0
C2256 C 0.41917 0.38606 0.94024 0.0
C2257 C 0.42469 0.40328 0.93154 0.0
C2258 C 0.44464 0.38695 0.94535 0.0
C2259 C 0.53382 0.43447 0.94756 0.0
H2260 H 0.52186 0.35854 0.96103 0.0
C2261 C 0.63507 0.41022 0.95822 0.0
C2262 C 0.63275 0.39463 0.96706 0.0
C2263 C 0.6111 0.41669 0.95541 0.0
C2264 C 0.5254 0.38013 0.95746 0.0
H2265 H 0.46108 0.43417 0.92119 0.0
H2266 H 0.5055 0.43468 0.92988 0.0
H2267 H 0.47685 0.35682 0.95246 0.0
H2268 H 0.60476 0.3754 0.98019 0.0
H2269 H 0.56214 0.38614 0.97515 0.0
H2270 H 0.58295 0.4571 0.9522 0.0
C2271 C 0.48161 0.42127 0.93294 0.0
C2272 C 0.4996 0.37917 0.95252 0.0
C2273 C 0.45612 0.42068 0.92789 0.0
C2274 C 0.60714 0.3876 0.97336 0.0
C2275 C 0.58271 0.39349 0.97045 0.0
C2276 C 0.55973 0.43527 0.9524 0.0
C2277 C 0.47628 0.40478 0.94182 0.0
C2278 C 0.50353 0.40621 0.9474 0.0
C2279 C 0.58401 0.40716 0.9613 0.0
C2280 C 0.55585 0.40799 0.95731 0.0
H2281 H 0.39523 0.37266 0.9433 0.0
H2282 H 0.43954 0.3743 0.95221 0.0
H2283 H 0.53763 0.45601 0.9439 0.0
H2284 H 0.65464 0.4159 0.95325 0.0
H2285 H 0.61269 0.42709 0.94831 0.0
C2286 C 0.64557 0.73357 0.77462 0.0
C2287 C 0.66015 0.75099 0.76612 0.0
C2288 C 0.62225 0.73743 0.77942 0.0
C2289 C 0.56212 0.76115 0.77577 0.0
H2290 H 0.56552 0.76967 0.80382 0.0
C2291 C 0.46177 0.76752 0.79557 0.0
C2292 C 0.44909 0.7473 0.80369 0.0
C2293 C 0.49179 0.77536 0.79187 0.0
C2294 C 0.5641 0.76716 0.796 0.0
H2295 H 0.66137 0.78574 0.75587 0.0
H2296 H 0.61991 0.792 0.76418 0.0
H2297 H 0.6086 0.76729 0.79523 0.0
H2298 H 0.45882 0.72154 0.81479 0.0
H2299 H 0.511 0.73444 0.8082 0.0
H2300 H 0.51715 0.75957 0.77647 0.0
C2301 C 0.62677 0.7755 0.76714 0.0
C2302 C 0.5888 0.76583 0.79108 0.0
C2303 C 0.65043 0.77189 0.76238 0.0
C2304 C 0.46817 0.73736 0.80856 0.0
C2305 C 0.49809 0.74475 0.80474 0.0
C2306 C 0.53731 0.76217 0.78068 0.0
C2307 C 0.61274 0.75858 0.77577 0.0
C2308 C 0.58782 0.76238 0.78092 0.0
C2309 C 0.50956 0.76261 0.79608 0.0
C2310 C 0.53774 0.76481 0.79088 0.0
H2311 H 0.65261 0.71733 0.7777 0.0
H2312 H 0.61149 0.72368 0.78596 0.0
H2313 H 0.56054 0.75812 0.76795 0.0
H2314 H 0.4476 0.77574 0.79173 0.0
H2315 H 0.50028 0.79005 0.78538 0.0
C2316 C 0.29333 0.92183 0.761 0.0
C2317 C 0.29228 0.94697 0.76574 0.0
C2318 C 0.29156 0.89629 0.76636 0.0
C2319 C 0.29607 0.87169 0.79203 0.0
H2320 H 0.26557 0.78954 0.77952 0.0
C2321 C 0.27518 0.73485 0.79868 0.0
C2322 C 0.30148 0.74349 0.80482 0.0
C2323 C 0.26779 0.75794 0.79553 0.0
C2324 C 0.2734 0.81193 0.78331 0.0
H2325 H 0.28725 0.9648 0.77964 0.0
H2326 H 0.28172 0.91949 0.78891 0.0
H2327 H 0.26412 0.83203 0.7708 0.0
H2328 H 0.33946 0.78221 0.81303 0.0
H2329 H 0.32832 0.82296 0.8071 0.0
H2330 H 0.30317 0.85086 0.80478 0.0
C2331 C 0.28576 0.91988 0.78117 0.0
C2332 C 0.27339 0.83687 0.77814 0.0
C2333 C 0.28867 0.94587 0.77585 0.0
C2334 C 0.31888 0.77499 0.80833 0.0
C2335 C 0.31231 0.79839 0.80491 0.0
C2336 C 0.29507 0.84641 0.79732 0.0
C2337 C 0.2875 0.89476 0.77655 0.0
C2338 C 0.28546 0.86743 0.78232 0.0
C2339 C 0.28749 0.7905 0.79811 0.0
C2340 C 0.28449 0.8163 0.79297 0.0
H2341 H 0.29622 0.92229 0.75319 0.0
H2342 H 0.29385 0.87806 0.76248 0.0
H2343 H 0.30599 0.89478 0.79557 0.0
H2344 H 0.26125 0.71052 0.79595 0.0
H2345 H 0.24753 0.75037 0.7907 0.0
C2346 C 0.13871 0.3978 0.76302 0.0
C2347 C 0.10633 0.3844 0.76568 0.0
C2348 C 0.16304 0.42108 0.76889 0.0
C2349 C 0.17665 0.47933 0.78851 0.0
H2350 H 0.25746 0.48099 0.79158 0.0
C2351 C 0.27652 0.57776 0.81119 0.0
C2352 C 0.30477 0.59531 0.80574 0.0
C2353 C 0.25322 0.54684 0.80826 0.0
C2354 C 0.23493 0.48067 0.79084 0.0
H2355 H 0.07403 0.38486 0.77656 0.0
H2356 H 0.11616 0.42476 0.78681 0.0
H2357 H 0.21442 0.43848 0.78196 0.0
H2358 H 0.33243 0.59338 0.79366 0.0
H2359 H 0.29208 0.53949 0.78861 0.0
H2360 H 0.19721 0.5217 0.79724 0.0
C2361 C 0.12296 0.41793 0.78013 0.0
C2362 C 0.21038 0.45652 0.78525 0.0
C2363 C 0.09875 0.39495 0.77425 0.0
C2364 C 0.31079 0.58029 0.79797 0.0
C2365 C 0.28769 0.54937 0.79509 0.0
C2366 C 0.20104 0.50326 0.79414 0.0
C2367 C 0.15544 0.43124 0.77757 0.0
C2368 C 0.18112 0.45588 0.78388 0.0
C2369 C 0.25795 0.53302 0.79989 0.0
C2370 C 0.23066 0.50455 0.79523 0.0
H2371 H 0.14526 0.39004 0.75647 0.0
H2372 H 0.18777 0.43121 0.7666 0.0
H2373 H 0.15468 0.47995 0.78752 0.0
H2374 H 0.27108 0.58893 0.81713 0.0
H2375 H 0.23066 0.5346 0.81217 0.0
C2376 C 0.42688 0.98383 0.08039 0.0
C2377 C 0.40803 0.99597 0.07662 0.0
C2378 C 0.42865 0.95923 0.07559 0.0
C2379 C 0.41706 0.92105 0.05151 0.0
H2380 H 0.41186 0.85023 0.06633 0.0
C2381 C 0.42416 0.79679 0.04768 0.0
C2382 C 0.4037 0.78264 0.03969 0.0
C2383 C 0.43059 0.82662 0.05115 0.0
C2384 C 0.41407 0.87013 0.06206 0.0
H2385 H 0.37593 0.99156 0.06491 0.0
H2386 H 0.37881 0.94845 0.05657 0.0
H2387 H 0.40986 0.89344 0.07471 0.0
H2388 H 0.37619 0.78976 0.02854 0.0
H2389 H 0.38682 0.84167 0.03472 0.0
H2390 H 0.42099 0.89747 0.03883 0.0
C2391 C 0.39251 0.95819 0.06319 0.0
C2392 C 0.41274 0.89486 0.06689 0.0
C2393 C 0.39061 0.98266 0.06802 0.0
C2394 C 0.3922 0.80022 0.03468 0.0
C2395 C 0.39825 0.82996 0.03826 0.0
C2396 C 0.41854 0.89631 0.04666 0.0
C2397 C 0.41175 0.94635 0.06687 0.0
C2398 C 0.414 0.92052 0.06168 0.0
C2399 C 0.41621 0.84273 0.04683 0.0
C2400 C 0.41694 0.87043 0.05188 0.0
H2401 H 0.44075 0.99375 0.08697 0.0
H2402 H 0.44386 0.95078 0.07858 0.0
H2403 H 0.4185 0.94073 0.0473 0.0
H2404 H 0.43363 0.78386 0.0516 0.0
H2405 H 0.44545 0.83623 0.05757 0.0
C2406 C 0.06017 0.43437 0.07303 0.0
C2407 C 0.03369 0.43608 0.07648 0.0
C2408 C 0.08441 0.45982 0.06773 0.0
C2409 C 0.11723 0.54643 0.06177 0.0
H2410 H 0.16356 0.52788 0.04228 0.0
C2411 C 0.24257 0.64074 0.04886 0.0
C2412 C 0.25415 0.63796 0.03977 0.0
C2413 C 0.21158 0.61834 0.05185 0.0
C2414 C 0.15052 0.53361 0.04754 0.0
H2415 H 0.01165 0.46564 0.07706 0.0
H2416 H 0.05323 0.50954 0.06757 0.0
H2417 H 0.11792 0.48396 0.05045 0.0
H2418 H 0.24138 0.61078 0.02638 0.0
H2419 H 0.18648 0.57208 0.03145 0.0
H2420 H 0.14916 0.59605 0.05864 0.0
C2421 C 0.05597 0.48906 0.06915 0.0
C2422 C 0.12464 0.5083 0.0524 0.0
C2423 C 0.03202 0.46384 0.0746 0.0
C2424 C 0.23308 0.61373 0.03339 0.0
C2425 C 0.20178 0.59124 0.03638 0.0
C2426 C 0.14275 0.57171 0.0568 0.0
C2427 C 0.08248 0.48739 0.06559 0.0
C2428 C 0.1082 0.51433 0.05979 0.0
C2429 C 0.19108 0.59255 0.04581 0.0
C2430 C 0.16044 0.56572 0.04983 0.0
H2431 H 0.0621 0.41327 0.07439 0.0
H2432 H 0.10475 0.45783 0.06537 0.0
H2433 H 0.1054 0.55226 0.06742 0.0
H2434 H 0.25817 0.65925 0.05393 0.0
H2435 H 0.20463 0.62021 0.05919 0.0
C2436 C 0.60668 0.64403 0.0688 0.0
C2437 C 0.60129 0.62372 0.07679 0.0
C2438 C 0.58092 0.64158 0.06343 0.0
C2439 C 0.49454 0.61313 0.06497 0.0
H2440 H 0.4993 0.6184 0.03685 0.0
C2441 C 0.39021 0.60685 0.04399 0.0
C2442 C 0.39876 0.63112 0.03704 0.0
C2443 C 0.41285 0.5992 0.04737 0.0
C2444 C 0.49762 0.617 0.04469 0.0
H2445 H 0.56463 0.58513 0.08547 0.0
H2446 H 0.51952 0.58103 0.07613 0.0
H2447 H 0.54342 0.6201 0.04612 0.0
H2448 H 0.43658 0.66436 0.02748 0.0
H2449 H 0.47662 0.65174 0.03355 0.0
H2450 H 0.4495 0.61114 0.06367 0.0
C2451 C 0.54373 0.59892 0.07405 0.0
C2452 C 0.52292 0.61802 0.05001 0.0
C2453 C 0.56954 0.60128 0.0794 0.0
C2454 C 0.42937 0.64535 0.03279 0.0
C2455 C 0.45233 0.63815 0.03632 0.0
C2456 C 0.4694 0.61228 0.05968 0.0
C2457 C 0.54914 0.61886 0.06594 0.0
C2458 C 0.52177 0.61637 0.06022 0.0
C2459 C 0.44478 0.61627 0.04404 0.0
C2460 C 0.47061 0.61438 0.04947 0.0
H2461 H 0.63088 0.66154 0.06659 0.0
H2462 H 0.58591 0.65765 0.05734 0.0
H2463 H 0.49309 0.61231 0.07282 0.0
H2464 H 0.36665 0.59544 0.04733 0.0
H2465 H 0.40584 0.58139 0.05307 0.0
C2466 C 0.06312 0.61785 0.58035 0.0
C2467 C 0.04826 0.63532 0.57761 0.0
C2468 C 0.08613 0.61714 0.57437 0.0
C2469 C 0.14187 0.659 0.55403 0.0
H2470 H 0.14055 0.57817 0.5517 0.0
C2471 C 0.2382 0.65071 0.53178 0.0
C2472 C 0.25423 0.6387 0.53737 0.0
C2473 C 0.20824 0.64575 0.53477 0.0
C2474 C 0.14114 0.60087 0.55224 0.0
H2475 H 0.04651 0.66648 0.56656 0.0
H2476 H 0.08668 0.6652 0.55608 0.0
H2477 H 0.09926 0.58072 0.56124 0.0
H2478 H 0.25035 0.60954 0.54984 0.0
H2479 H 0.19812 0.60041 0.55494 0.0
H2480 H 0.1842 0.67929 0.54521 0.0
C2481 C 0.08069 0.65219 0.56289 0.0
C2482 C 0.11764 0.60241 0.55776 0.0
C2483 C 0.05769 0.65295 0.5689 0.0
C2484 C 0.2385 0.61911 0.54541 0.0
C2485 C 0.20851 0.61383 0.54832 0.0
C2486 C 0.16534 0.65743 0.54848 0.0
C2487 C 0.09476 0.63378 0.56547 0.0
C2488 C 0.11819 0.63168 0.55893 0.0
C2489 C 0.19372 0.62833 0.5433 0.0
C2490 C 0.16569 0.62852 0.54772 0.0
H2491 H 0.05639 0.60405 0.58703 0.0
H2492 H 0.09703 0.60334 0.57669 0.0
H2493 H 0.14314 0.68196 0.55481 0.0
H2494 H 0.24991 0.66613 0.52559 0.0
H2495 H 0.1972 0.65688 0.53069 0.0
C2496 C 0.38073 0.41667 0.56694 0.0
C2497 C 0.39815 0.42285 0.57564 0.0
C2498 C 0.38233 0.44187 0.56147 0.0
C2499 C 0.43327 0.52995 0.55784 0.0
H2500 H 0.35759 0.5209 0.54496 0.0
C2501 C 0.41778 0.6355 0.54582 0.0
C2502 C 0.39908 0.63206 0.53759 0.0
C2503 C 0.4228 0.61065 0.54874 0.0
C2504 C 0.37912 0.52361 0.54833 0.0
H2505 H 0.43008 0.4602 0.58558 0.0
H2506 H 0.43212 0.50416 0.57619 0.0
H2507 H 0.35391 0.47594 0.55411 0.0
H2508 H 0.37309 0.60099 0.52551 0.0
H2509 H 0.38189 0.55733 0.53062 0.0
H2510 H 0.45812 0.57812 0.55233 0.0
C2511 C 0.41785 0.47989 0.57346 0.0
C2512 C 0.37699 0.49783 0.55362 0.0
C2513 C 0.41638 0.45468 0.57891 0.0
C2514 C 0.3878 0.60439 0.53184 0.0
C2515 C 0.3925 0.57926 0.53484 0.0
C2516 C 0.43534 0.5558 0.55259 0.0
C2517 C 0.40127 0.47386 0.56458 0.0
C2518 C 0.40391 0.50083 0.55857 0.0
C2519 C 0.40892 0.58166 0.54354 0.0
C2520 C 0.40817 0.55307 0.5479 0.0
H2521 H 0.36665 0.39241 0.56418 0.0
H2522 H 0.36947 0.43629 0.55464 0.0
H2523 H 0.45468 0.53289 0.56136 0.0
H2524 H 0.42678 0.65663 0.55037 0.0
H2525 H 0.43546 0.61327 0.55548 0.0
C2526 C 0.6171 0.98331 0.56839 0.0
C2527 C 0.611 0.99614 0.57673 0.0
C2528 C 0.59181 0.95823 0.56328 0.0
C2529 C 0.50758 0.89341 0.56583 0.0
H2530 H 0.50564 0.89733 0.53771 0.0
C2531 C 0.39848 0.79831 0.54563 0.0
C2532 C 0.40497 0.78349 0.53791 0.0
C2533 C 0.42236 0.82788 0.54918 0.0
C2534 C 0.50592 0.89582 0.54555 0.0
H2535 H 0.57374 0.9923 0.58639 0.0
H2536 H 0.52967 0.94842 0.57754 0.0
H2537 H 0.55076 0.94011 0.5467 0.0
H2538 H 0.44039 0.78911 0.52723 0.0
H2539 H 0.48261 0.8407 0.53358 0.0
H2540 H 0.4633 0.84907 0.56478 0.0
C2541 C 0.55398 0.95763 0.57495 0.0
C2542 C 0.53179 0.92025 0.5507 0.0
C2543 C 0.57922 0.98278 0.58003 0.0
C2544 C 0.43477 0.80017 0.53317 0.0
C2545 C 0.45897 0.82968 0.53684 0.0
C2546 C 0.48187 0.86906 0.56071 0.0
C2547 C 0.55992 0.94534 0.56645 0.0
C2548 C 0.53284 0.91931 0.5609 0.0
C2549 C 0.45347 0.84296 0.54522 0.0
C2550 C 0.48057 0.86997 0.55051 0.0
H2551 H 0.64134 0.99319 0.56565 0.0
H2552 H 0.59721 0.94898 0.55683 0.0
H2553 H 0.50792 0.89165 0.57367 0.0
H2554 H 0.37553 0.78601 0.54933 0.0
H2555 H 0.41697 0.83797 0.55543 0.0
C2556 C 0.28151 0.39118 0.26369 0.0
C2557 C 0.30162 0.38041 0.26738 0.0
C2558 C 0.27899 0.41546 0.26844 0.0
C2559 C 0.29108 0.45497 0.2923 0.0
H2560 H 0.2933 0.52393 0.27722 0.0
C2561 C 0.31448 0.57591 0.30862 0.0
C2562 C 0.30238 0.59286 0.30357 0.0
C2563 C 0.30864 0.54607 0.30519 0.0
C2564 C 0.2919 0.50453 0.28157 0.0
H2565 H 0.33509 0.38686 0.2789 0.0
H2566 H 0.33085 0.42936 0.28713 0.0
H2567 H 0.29591 0.48084 0.26898 0.0
H2568 H 0.27164 0.5905 0.29175 0.0
H2569 H 0.26006 0.53792 0.28606 0.0
H2570 H 0.28732 0.4789 0.30492 0.0
C2571 C 0.31678 0.41882 0.28063 0.0
C2572 C 0.29359 0.47987 0.27682 0.0
C2573 C 0.31946 0.3947 0.27585 0.0
C2574 C 0.28153 0.57802 0.29571 0.0
C2575 C 0.27526 0.54808 0.29238 0.0
C2576 C 0.2892 0.47962 0.29708 0.0
C2577 C 0.29636 0.42934 0.27702 0.0
C2578 C 0.29347 0.45493 0.28212 0.0
C2579 C 0.29026 0.5326 0.29672 0.0
C2580 C 0.28977 0.50484 0.29177 0.0
H2581 H 0.26731 0.38048 0.25722 0.0
H2582 H 0.26289 0.42289 0.2655 0.0
H2583 H 0.29052 0.43583 0.29659 0.0
H2584 H 0.33083 0.58695 0.31466 0.0
H2585 H 0.32057 0.53488 0.30873 0.0
C2586 C 0.65405 0.94643 0.27311 0.0
C2587 C 0.66768 0.9407 0.26489 0.0
C2588 C 0.62966 0.92087 0.27833 0.0
C2589 C 0.56653 0.83634 0.2759 0.0
H2590 H 0.56723 0.83651 0.30408 0.0
C2591 C 0.46572 0.73108 0.29616 0.0
C2592 C 0.45149 0.73911 0.30369 0.0
C2593 C 0.49605 0.75356 0.29266 0.0
C2594 C 0.56658 0.83616 0.29622 0.0
H2595 H 0.66629 0.90369 0.25564 0.0
H2596 H 0.62341 0.859 0.26469 0.0
H2597 H 0.61135 0.88057 0.29516 0.0
H2598 H 0.45874 0.77582 0.31408 0.0
H2599 H 0.51154 0.81566 0.30781 0.0
H2600 H 0.52152 0.79275 0.27685 0.0
C2601 C 0.63156 0.8833 0.26709 0.0
C2602 C 0.59184 0.86142 0.29111 0.0
C2603 C 0.65612 0.90888 0.26191 0.0
C2604 C 0.46933 0.76901 0.30829 0.0
C2605 C 0.49957 0.79185 0.30466 0.0
C2606 C 0.54126 0.81128 0.28099 0.0
C2607 C 0.6182 0.889 0.2754 0.0
C2608 C 0.592 0.86183 0.28089 0.0
C2609 C 0.51254 0.78488 0.29647 0.0
C2610 C 0.54085 0.81081 0.29122 0.0
H2611 H 0.66252 0.9707 0.27561 0.0
H2612 H 0.61957 0.92609 0.28461 0.0
H2613 H 0.56563 0.83619 0.26804 0.0
H2614 H 0.45249 0.70803 0.29255 0.0
H2615 H 0.50575 0.74692 0.28659 0.0
C2616 C 0.09022 0.72614 0.27391 0.0
C2617 C 0.0967 0.74435 0.26536 0.0
C2618 C 0.11524 0.72783 0.27949 0.0
C2619 C 0.20341 0.77865 0.28362 0.0
H2620 H 0.19302 0.70169 0.29598 0.0
C2621 C 0.30739 0.76036 0.29579 0.0
C2622 C 0.30315 0.74108 0.30395 0.0
C2623 C 0.28308 0.76616 0.29282 0.0
C2624 C 0.1961 0.72357 0.29275 0.0
H2625 H 0.1345 0.7781 0.25585 0.0
H2626 H 0.17825 0.78022 0.2654 0.0
H2627 H 0.14878 0.69914 0.28674 0.0
H2628 H 0.27125 0.71494 0.31587 0.0
H2629 H 0.22851 0.72503 0.31066 0.0
H2630 H 0.25135 0.80265 0.28933 0.0
C2631 C 0.15384 0.76526 0.26795 0.0
C2632 C 0.17072 0.7221 0.28741 0.0
C2633 C 0.12876 0.76377 0.2624 0.0
C2634 C 0.27527 0.73006 0.30959 0.0
C2635 C 0.25067 0.73552 0.30654 0.0
C2636 C 0.22891 0.78003 0.2889 0.0
C2637 C 0.14744 0.74756 0.27663 0.0
C2638 C 0.17413 0.74952 0.28266 0.0
C2639 C 0.25382 0.75248 0.29789 0.0
C2640 C 0.22567 0.7524 0.29342 0.0
H2641 H 0.06578 0.71117 0.27644 0.0
H2642 H 0.1093 0.71417 0.28618 0.0
H2643 H 0.20673 0.80043 0.28026 0.0
H2644 H 0.32869 0.76917 0.29132 0.0
H2645 H 0.28628 0.77926 0.28613 0.0
loop_
_geom_bond_atom_site_label_1
_geom_bond_atom_site_label_2
_geom_bond_distance
_geom_bond_site_symmetry_2
_ccdc_geom_bond_type
In0 O1 2.294 . S
In0 O2 2.326 . S
In0 O6 2.266 . S
In0 O7 2.326 1_545 S
In0 O8 2.266 1_545 S
In0 O9 2.326 . S
In0 O11 2.294 1_545 S
In0 O12 2.326 . S
O1 In0 2.294 . S
O1 C10 1.240 . S
O2 In0 2.326 . S
O2 C10 1.252 . S
C3 O6 1.252 . S
C3 O7 1.260 1_545 S
C4 O11 1.240 1_545 S
C4 O12 1.252 . S
C5 O8 1.252 . S
C5 O9 1.260 1_565 S
O6 In0 2.266 . S
O6 C3 1.252 . S
O7 In0 2.326 1_565 S
O7 C3 1.260 1_565 S
O8 In0 2.266 1_565 S
O8 C5 1.252 . S
O9 In0 2.326 . S
O9 C5 1.260 1_545 S
C10 O1 1.240 . S
C10 O2 1.252 . S
O11 In0 2.294 1_565 S
O11 C4 1.240 1_565 S
O12 In0 2.326 . S
O12 C4 1.252 . S
In13 O14 2.294 . S
In13 O15 2.326 . S
In13 O19 2.266 . S
In13 O20 2.326 1_455 S
In13 O21 2.266 1_455 S
In13 O22 2.326 . S
In13 O24 2.294 1_455 S
In13 O25 2.326 . S
O14 In13 2.294 . S
O14 C23 1.240 . S
O15 In13 2.326 . S
O15 C23 1.252 . S
C16 O19 1.252 . S
C16 O20 1.260 1_455 S
C17 O24 1.240 1_455 S
C17 O25 1.252 . S
C18 O21 1.252 . S
C18 O22 1.260 1_655 S
O19 In13 2.266 . S
O19 C16 1.252 . S
O20 In13 2.326 1_655 S
O20 C16 1.260 1_655 S
O21 In13 2.266 1_655 S
O21 C18 1.252 . S
O22 In13 2.326 . S
O22 C18 1.260 1_455 S
C23 O14 1.240 . S
C23 O15 1.252 . S
O24 In13 2.294 1_655 S
O24 C17 1.240 1_655 S
O25 In13 2.326 . S
O25 C17 1.252 . S
In26 O27 2.294 . S
In26 O28 2.326 . S
In26 O32 2.266 . S
In26 O33 2.326 . S
In26 O34 2.266 . S
In26 O35 2.326 . S
In26 O37 2.294 . S
In26 O38 2.326 . S
O27 In26 2.294 . S
O27 C36 1.240 . S
O28 In26 2.326 . S
O28 C36 1.252 . S
C29 O32 1.252 . S
C29 O33 1.260 . S
C30 O37 1.240 . S
C30 O38 1.252 . S
C31 O34 1.252 . S
C31 O35 1.260 . S
O32 In26 2.266 . S
O32 C29 1.252 . S
O33 In26 2.326 . S
O33 C29 1.260 . S
O34 In26 2.266 . S
O34 C31 1.252 . S
O35 In26 2.326 . S
O35 C31 1.260 . S
C36 O27 1.240 . S
C36 O28 1.252 . S
O37 In26 2.294 . S
O37 C30 1.240 . S
O38 In26 2.326 . S
O38 C30 1.252 . S
In39 O40 2.294 . S
In39 O41 2.326 1_545 S
In39 O45 2.266 . S
In39 O46 2.326 . S
In39 O47 2.266 1_545 S
In39 O48 2.326 . S
In39 O50 2.294 1_545 S
In39 O51 2.326 . S
O40 In39 2.294 . S
O40 C49 1.240 . S
O41 In39 2.326 1_565 S
O41 C49 1.252 1_565 S
C42 O45 1.252 . S
C42 O46 1.260 . S
C43 O50 1.240 . S
C43 O51 1.252 1_565 S
C44 O47 1.252 1_545 S
C44 O48 1.260 . S
O45 In39 2.266 . S
O45 C42 1.252 . S
O46 In39 2.326 . S
O46 C42 1.260 . S
O47 In39 2.266 1_565 S
O47 C44 1.252 1_565 S
O48 In39 2.326 . S
O48 C44 1.260 . S
C49 O40 1.240 . S
C49 O41 1.252 1_545 S
O50 In39 2.294 1_565 S
O50 C43 1.240 . S
O51 In39 2.326 . S
O51 C43 1.252 1_545 S
In52 O53 2.294 . S
In52 O54 2.326 1_455 S
In52 O58 2.266 . S
In52 O59 2.326 . S
In52 O60 2.266 1_455 S
In52 O61 2.326 . S
In52 O63 2.294 1_455 S
In52 O64 2.326 . S
O53 In52 2.294 . S
O53 C62 1.240 . S
O54 In52 2.326 1_655 S
O54 C62 1.252 1_655 S
C55 O58 1.252 . S
C55 O59 1.260 . S
C56 O63 1.240 . S
C56 O64 1.252 1_655 S
C57 O60 1.252 1_455 S
C57 O61 1.260 . S
O58 In52 2.266 . S
O58 C55 1.252 . S
O59 In52 2.326 . S
O59 C55 1.260 . S
O60 In52 2.266 1_655 S
O60 C57 1.252 1_655 S
O61 In52 2.326 . S
O61 C57 1.260 . S
C62 O53 1.240 . S
C62 O54 1.252 1_455 S
O63 In52 2.294 1_655 S
O63 C56 1.240 . S
O64 In52 2.326 . S
O64 C56 1.252 1_455 S
In65 O66 2.294 . S
In65 O67 2.326 . S
In65 O71 2.266 . S
In65 O72 2.326 . S
In65 O73 2.266 . S
In65 O74 2.326 . S
In65 O76 2.294 . S
In65 O77 2.326 . S
O66 In65 2.294 . S
O66 C75 1.240 . S
O67 In65 2.326 . S
O67 C75 1.252 . S
C68 O71 1.252 . S
C68 O72 1.260 . S
C69 O76 1.240 . S
C69 O77 1.252 . S
C70 O73 1.252 . S
C70 O74 1.260 . S
O71 In65 2.266 . S
O71 C68 1.252 . S
O72 In65 2.326 . S
O72 C68 1.260 . S
O73 In65 2.266 . S
O73 C70 1.252 . S
O74 In65 2.326 . S
O74 C70 1.260 . S
C75 O66 1.240 . S
C75 O67 1.252 . S
O76 In65 2.294 . S
O76 C69 1.240 . S
O77 In65 2.326 . S
O77 C69 1.252 . S
In78 O79 2.294 . S
In78 O80 2.326 . S
In78 O84 2.266 . S
In78 O85 2.326 . S
In78 O86 2.266 . S
In78 O87 2.326 . S
In78 O89 2.294 . S
In78 O90 2.326 . S
O79 In78 2.294 . S
O79 C88 1.240 . S
O80 In78 2.326 . S
O80 C88 1.252 . S
C81 O84 1.252 . S
C81 O85 1.260 . S
C82 O89 1.240 . S
C82 O90 1.252 . S
C83 O86 1.252 . S
C83 O87 1.260 . S
O84 In78 2.266 . S
O84 C81 1.252 . S
O85 In78 2.326 . S
O85 C81 1.260 . S
O86 In78 2.266 . S
O86 C83 1.252 . S
O87 In78 2.326 . S
O87 C83 1.260 . S
C88 O79 1.240 . S
C88 O80 1.252 . S
O89 In78 2.294 . S
O89 C82 1.240 . S
O90 In78 2.326 . S
O90 C82 1.252 . S
In91 O92 2.294 . S
In91 O93 2.326 . S
In91 O97 2.266 . S
In91 O98 2.326 . S
In91 O99 2.266 . S
In91 O100 2.326 . S
In91 O102 2.294 . S
In91 O103 2.326 . S
O92 In91 2.294 . S
O92 C101 1.240 . S
O93 In91 2.326 . S
O93 C101 1.252 . S
C94 O97 1.252 . S
C94 O98 1.260 . S
C95 O102 1.240 . S
C95 O103 1.252 . S
C96 O99 1.252 . S
C96 O100 1.260 . S
O97 In91 2.266 . S
O97 C94 1.252 . S
O98 In91 2.326 . S
O98 C94 1.260 . S
O99 In91 2.266 . S
O99 C96 1.252 . S
O100 In91 2.326 . S
O100 C96 1.260 . S
C101 O92 1.240 . S
C101 O93 1.252 . S
O102 In91 2.294 . S
O102 C95 1.240 . S
O103 In91 2.326 . S
O103 C95 1.252 . S
In104 O105 2.294 . S
In104 O106 2.326 . S
In104 O110 2.266 . S
In104 O111 2.326 . S
In104 O112 2.266 1_655 S
In104 O113 2.326 1_655 S
In104 O115 2.294 . S
In104 O116 2.326 . S
O105 In104 2.294 . S
O105 C114 1.240 . S
O106 In104 2.326 . S
O106 C114 1.252 . S
C107 O110 1.252 . S
C107 O111 1.260 . S
C108 O115 1.240 . S
C108 O116 1.252 . S
C109 O112 1.252 . S
C109 O113 1.260 . S
O110 In104 2.266 . S
O110 C107 1.252 . S
O111 In104 2.326 . S
O111 C107 1.260 . S
O112 In104 2.266 1_455 S
O112 C109 1.252 . S
O113 In104 2.326 1_455 S
O113 C109 1.260 . S
C114 O105 1.240 . S
C114 O106 1.252 . S
O115 In104 2.294 . S
O115 C108 1.240 . S
O116 In104 2.326 . S
O116 C108 1.252 . S
In117 O118 2.294 . S
In117 O119 2.326 . S
In117 O123 2.266 . S
In117 O124 2.326 . S
In117 O125 2.266 1_655 S
In117 O126 2.326 1_655 S
In117 O128 2.294 . S
In117 O129 2.326 . S
O118 In117 2.294 . S
O118 C127 1.240 . S
O119 In117 2.326 . S
O119 C127 1.252 . S
C120 O123 1.252 . S
C120 O124 1.260 . S
C121 O128 1.240 . S
C121 O129 1.252 . S
C122 O125 1.252 . S
C122 O126 1.260 . S
O123 In117 2.266 . S
O123 C120 1.252 . S
O124 In117 2.326 . S
O124 C120 1.260 . S
O125 In117 2.266 1_455 S
O125 C122 1.252 . S
O126 In117 2.326 1_455 S
O126 C122 1.260 . S
C127 O118 1.240 . S
C127 O119 1.252 . S
O128 In117 2.294 . S
O128 C121 1.240 . S
O129 In117 2.326 . S
O129 C121 1.252 . S
In130 O131 2.294 . S
In130 O132 2.326 . S
In130 O136 2.266 . S
In130 O137 2.326 . S
In130 O138 2.266 . S
In130 O139 2.326 . S
In130 O141 2.294 . S
In130 O142 2.326 . S
O131 In130 2.294 . S
O131 C140 1.240 . S
O132 In130 2.326 . S
O132 C140 1.252 . S
C133 O136 1.252 . S
C133 O137 1.260 . S
C134 O141 1.240 . S
C134 O142 1.252 . S
C135 O138 1.252 . S
C135 O139 1.260 . S
O136 In130 2.266 . S
O136 C133 1.252 . S
O137 In130 2.326 . S
O137 C133 1.260 . S
O138 In130 2.266 . S
O138 C135 1.252 . S
O139 In130 2.326 . S
O139 C135 1.260 . S
C140 O131 1.240 . S
C140 O132 1.252 . S
O141 In130 2.294 . S
O141 C134 1.240 . S
O142 In130 2.326 . S
O142 C134 1.252 . S
In143 O144 2.294 . S
In143 O145 2.326 . S
In143 O149 2.266 . S
In143 O150 2.326 . S
In143 O151 2.266 . S
In143 O152 2.326 . S
In143 O154 2.294 . S
In143 O155 2.326 . S
O144 In143 2.294 . S
O144 C153 1.240 . S
O145 In143 2.326 . S
O145 C153 1.252 . S
C146 O149 1.252 . S
C146 O150 1.260 . S
C147 O154 1.240 . S
C147 O155 1.252 . S
C148 O151 1.252 . S
C148 O152 1.260 . S
O149 In143 2.266 . S
O149 C146 1.252 . S
O150 In143 2.326 . S
O150 C146 1.260 . S
O151 In143 2.266 . S
O151 C148 1.252 . S
O152 In143 2.326 . S
O152 C148 1.260 . S
C153 O144 1.240 . S
C153 O145 1.252 . S
O154 In143 2.294 . S
O154 C147 1.240 . S
O155 In143 2.326 . S
O155 C147 1.252 . S
In156 O157 2.294 . S
In156 O158 2.326 . S
In156 O162 2.266 . S
In156 O163 2.326 . S
In156 O164 2.266 . S
In156 O165 2.326 . S
In156 O167 2.294 . S
In156 O168 2.326 . S
O157 In156 2.294 . S
O157 C166 1.240 . S
O158 In156 2.326 . S
O158 C166 1.252 . S
C159 O162 1.252 . S
C159 O163 1.260 . S
C160 O167 1.240 . S
C160 O168 1.252 . S
C161 O164 1.252 . S
C161 O165 1.260 . S
O162 In156 2.266 . S
O162 C159 1.252 . S
O163 In156 2.326 . S
O163 C159 1.260 . S
O164 In156 2.266 . S
O164 C161 1.252 . S
O165 In156 2.326 . S
O165 C161 1.260 . S
C166 O157 1.240 . S
C166 O158 1.252 . S
O167 In156 2.294 . S
O167 C160 1.240 . S
O168 In156 2.326 . S
O168 C160 1.252 . S
In169 O170 2.294 . S
In169 O171 2.326 . S
In169 O175 2.266 . S
In169 O176 2.326 . S
In169 O177 2.266 . S
In169 O178 2.326 . S
In169 O180 2.294 . S
In169 O181 2.326 . S
O170 In169 2.294 . S
O170 C179 1.240 . S
O171 In169 2.326 . S
O171 C179 1.252 . S
C172 O175 1.252 . S
C172 O176 1.260 . S
C173 O180 1.240 . S
C173 O181 1.252 . S
C174 O177 1.252 . S
C174 O178 1.260 . S
O175 In169 2.266 . S
O175 C172 1.252 . S
O176 In169 2.326 . S
O176 C172 1.260 . S
O177 In169 2.266 . S
O177 C174 1.252 . S
O178 In169 2.326 . S
O178 C174 1.260 . S
C179 O170 1.240 . S
C179 O171 1.252 . S
O180 In169 2.294 . S
O180 C173 1.240 . S
O181 In169 2.326 . S
O181 C173 1.252 . S
In182 O183 2.294 . S
In182 O184 2.326 . S
In182 O188 2.266 . S
In182 O189 2.326 . S
In182 O190 2.266 . S
In182 O191 2.326 . S
In182 O193 2.294 1_565 S
In182 O194 2.326 1_565 S
O183 In182 2.294 . S
O183 C192 1.240 . S
O184 In182 2.326 . S
O184 C192 1.252 . S
C185 O188 1.252 . S
C185 O189 1.260 . S
C186 O193 1.240 . S
C186 O194 1.252 . S
C187 O190 1.252 . S
C187 O191 1.260 . S
O188 In182 2.266 . S
O188 C185 1.252 . S
O189 In182 2.326 . S
O189 C185 1.260 . S
O190 In182 2.266 . S
O190 C187 1.252 . S
O191 In182 2.326 . S
O191 C187 1.260 . S
C192 O183 1.240 . S
C192 O184 1.252 . S
O193 In182 2.294 1_545 S
O193 C186 1.240 . S
O194 In182 2.326 1_545 S
O194 C186 1.252 . S
In195 O196 2.294 . S
In195 O197 2.326 . S
In195 O201 2.266 . S
In195 O202 2.326 . S
In195 O203 2.266 . S
In195 O204 2.326 . S
In195 O206 2.294 . S
In195 O207 2.326 . S
O196 In195 2.294 . S
O196 C205 1.240 . S
O197 In195 2.326 . S
O197 C205 1.252 . S
C198 O201 1.252 . S
C198 O202 1.260 . S
C199 O206 1.240 . S
C199 O207 1.252 . S
C200 O203 1.252 . S
C200 O204 1.260 . S
O201 In195 2.266 . S
O201 C198 1.252 . S
O202 In195 2.326 . S
O202 C198 1.260 . S
O203 In195 2.266 . S
O203 C200 1.252 . S
O204 In195 2.326 . S
O204 C200 1.260 . S
C205 O196 1.240 . S
C205 O197 1.252 . S
O206 In195 2.294 . S
O206 C199 1.240 . S
O207 In195 2.326 . S
O207 C199 1.252 . S
In208 O209 2.294 . S
In208 O210 2.326 . S
In208 O214 2.266 1_565 S
In208 O215 2.326 1_565 S
In208 O216 2.266 . S
In208 O217 2.326 . S
In208 O219 2.294 . S
In208 O220 2.326 . S
O209 In208 2.294 . S
O209 C218 1.240 . S
O210 In208 2.326 . S
O210 C218 1.252 . S
C211 O214 1.252 . S
C211 O215 1.260 . S
C212 O219 1.240 . S
C212 O220 1.252 . S
C213 O216 1.252 . S
C213 O217 1.260 . S
O214 In208 2.266 1_545 S
O214 C211 1.252 . S
O215 In208 2.326 1_545 S
O215 C211 1.260 . S
O216 In208 2.266 . S
O216 C213 1.252 . S
O217 In208 2.326 . S
O217 C213 1.260 . S
C218 O209 1.240 . S
C218 O210 1.252 . S
O219 In208 2.294 . S
O219 C212 1.240 . S
O220 In208 2.326 . S
O220 C212 1.252 . S
In221 O222 2.294 . S
In221 O223 2.326 . S
In221 O227 2.266 . S
In221 O228 2.326 . S
In221 O229 2.266 . S
In221 O230 2.326 . S
In221 O232 2.294 . S
In221 O233 2.326 . S
O222 In221 2.294 . S
O222 C231 1.240 . S
O223 In221 2.326 . S
O223 C231 1.252 . S
C224 O227 1.252 . S
C224 O228 1.260 . S
C225 O232 1.240 . S
C225 O233 1.252 . S
C226 O229 1.252 . S
C226 O230 1.260 . S
O227 In221 2.266 . S
O227 C224 1.252 . S
O228 In221 2.326 . S
O228 C224 1.260 . S
O229 In221 2.266 . S
O229 C226 1.252 . S
O230 In221 2.326 . S
O230 C226 1.260 . S
C231 O222 1.240 . S
C231 O223 1.252 . S
O232 In221 2.294 . S
O232 C225 1.240 . S
O233 In221 2.326 . S
O233 C225 1.252 . S
Zn234 O240 1.920 . S
Zn234 O246 1.898 1_445 S
Zn234 O249 1.905 . S
Zn235 O243 1.905 1_545 S
Zn235 O244 1.898 . S
Zn235 O252 1.920 1_455 S
Zn236 O239 2.080 . S
Zn236 O242 2.114 1_545 S
Zn236 O245 2.120 . S
Zn236 O247 2.120 1_445 S
Zn236 O248 2.114 . S
Zn236 O251 2.080 1_455 S
C237 O242 1.166 . S
C237 O243 1.182 . S
C238 O244 1.167 . S
C238 O245 1.299 . S
O239 Zn236 2.080 . S
O239 C253 1.305 . S
O240 Zn234 1.920 . S
O240 C253 1.234 . S
C241 O246 1.167 . S
C241 O247 1.299 . S
O242 Zn236 2.114 1_565 S
O242 C237 1.166 . S
O243 Zn235 1.905 1_565 S
O243 C237 1.182 . S
O244 Zn235 1.898 . S
O244 C238 1.167 . S
O245 Zn236 2.120 . S
O245 C238 1.299 . S
O246 Zn234 1.898 1_665 S
O246 C241 1.167 . S
O247 Zn236 2.120 1_665 S
O247 C241 1.299 . S
O248 Zn236 2.114 . S
O248 C250 1.166 . S
O249 Zn234 1.905 . S
O249 C250 1.182 . S
C250 O248 1.166 . S
C250 O249 1.182 . S
O251 Zn236 2.080 1_655 S
O251 C254 1.305 . S
O252 Zn235 1.920 1_655 S
O252 C254 1.234 . S
C253 O239 1.305 . S
C253 O240 1.234 . S
C254 O251 1.305 . S
C254 O252 1.234 . S
Zn255 O261 1.920 1_545 S
Zn255 O267 1.898 . S
Zn255 O270 1.905 1_455 S
Zn256 O264 1.905 . S
Zn256 O265 1.898 1_445 S
Zn256 O273 1.920 . S
Zn257 O260 2.080 1_545 S
Zn257 O263 2.114 . S
Zn257 O266 2.120 1_445 S
Zn257 O268 2.120 . S
Zn257 O269 2.114 1_455 S
Zn257 O272 2.080 . S
C258 O263 1.166 . S
C258 O264 1.182 . S
C259 O265 1.167 . S
C259 O266 1.299 . S
O260 Zn257 2.080 1_565 S
O260 C274 1.305 . S
O261 Zn255 1.920 1_565 S
O261 C274 1.234 . S
C262 O267 1.167 . S
C262 O268 1.299 . S
O263 Zn257 2.114 . S
O263 C258 1.166 . S
O264 Zn256 1.905 . S
O264 C258 1.182 . S
O265 Zn256 1.898 1_665 S
O265 C259 1.167 . S
O266 Zn257 2.120 1_665 S
O266 C259 1.299 . S
O267 Zn255 1.898 . S
O267 C262 1.167 . S
O268 Zn257 2.120 . S
O268 C262 1.299 . S
O269 Zn257 2.114 1_655 S
O269 C271 1.166 . S
O270 Zn255 1.905 1_655 S
O270 C271 1.182 . S
C271 O269 1.166 . S
C271 O270 1.182 . S
O272 Zn257 2.080 . S
O272 C275 1.305 . S
O273 Zn256 1.920 . S
O273 C275 1.234 . S
C274 O260 1.305 . S
C274 O261 1.234 . S
C275 O272 1.305 . S
C275 O273 1.234 . S
Zn276 O282 1.920 1_545 S
Zn276 O288 1.898 . S
Zn276 O291 1.905 1_455 S
Zn277 O285 1.905 . S
Zn277 O286 1.898 1_445 S
Zn277 O294 1.920 . S
Zn278 O281 2.080 1_545 S
Zn278 O284 2.114 . S
Zn278 O287 2.120 1_445 S
Zn278 O289 2.120 . S
Zn278 O290 2.114 1_455 S
Zn278 O293 2.080 . S
C279 O284 1.166 . S
C279 O285 1.182 . S
C280 O286 1.167 . S
C280 O287 1.299 . S
O281 Zn278 2.080 1_565 S
O281 C295 1.305 . S
O282 Zn276 1.920 1_565 S
O282 C295 1.234 . S
C283 O288 1.167 . S
C283 O289 1.299 . S
O284 Zn278 2.114 . S
O284 C279 1.166 . S
O285 Zn277 1.905 . S
O285 C279 1.182 . S
O286 Zn277 1.898 1_665 S
O286 C280 1.167 . S
O287 Zn278 2.120 1_665 S
O287 C280 1.299 . S
O288 Zn276 1.898 . S
O288 C283 1.167 . S
O289 Zn278 2.120 . S
O289 C283 1.299 . S
O290 Zn278 2.114 1_655 S
O290 C292 1.166 . S
O291 Zn276 1.905 1_655 S
O291 C292 1.182 . S
C292 O290 1.166 . S
C292 O291 1.182 . S
O293 Zn278 2.080 . S
O293 C296 1.305 . S
O294 Zn277 1.920 . S
O294 C296 1.234 . S
C295 O281 1.305 . S
C295 O282 1.234 . S
C296 O293 1.305 . S
C296 O294 1.234 . S
Zn297 O303 1.920 . S
Zn297 O309 1.898 1_445 S
Zn297 O312 1.905 . S
Zn298 O306 1.905 1_545 S
Zn298 O307 1.898 . S
Zn298 O315 1.920 1_455 S
Zn299 O302 2.080 . S
Zn299 O305 2.114 1_545 S
Zn299 O308 2.120 . S
Zn299 O310 2.120 1_445 S
Zn299 O311 2.114 . S
Zn299 O314 2.080 1_455 S
C300 O305 1.166 . S
C300 O306 1.182 . S
C301 O307 1.167 . S
C301 O308 1.299 . S
O302 Zn299 2.080 . S
O302 C316 1.305 . S
O303 Zn297 1.920 . S
O303 C316 1.234 . S
C304 O309 1.167 . S
C304 O310 1.299 . S
O305 Zn299 2.114 1_565 S
O305 C300 1.166 . S
O306 Zn298 1.905 1_565 S
O306 C300 1.182 . S
O307 Zn298 1.898 . S
O307 C301 1.167 . S
O308 Zn299 2.120 . S
O308 C301 1.299 . S
O309 Zn297 1.898 1_665 S
O309 C304 1.167 . S
O310 Zn299 2.120 1_665 S
O310 C304 1.299 . S
O311 Zn299 2.114 . S
O311 C313 1.166 . S
O312 Zn297 1.905 . S
O312 C313 1.182 . S
C313 O311 1.166 . S
C313 O312 1.182 . S
O314 Zn299 2.080 1_655 S
O314 C317 1.305 . S
O315 Zn298 1.920 1_655 S
O315 C317 1.234 . S
C316 O302 1.305 . S
C316 O303 1.234 . S
C317 O314 1.305 . S
C317 O315 1.234 . S
Zn318 O324 1.920 . S
Zn318 O330 1.898 . S
Zn318 O333 1.905 . S
Zn319 O327 1.905 . S
Zn319 O328 1.898 . S
Zn319 O336 1.920 . S
Zn320 O323 2.080 . S
Zn320 O326 2.114 . S
Zn320 O329 2.120 . S
Zn320 O331 2.120 . S
Zn320 O332 2.114 . S
Zn320 O335 2.080 . S
C321 O326 1.166 . S
C321 O327 1.182 . S
C322 O328 1.167 . S
C322 O329 1.299 . S
O323 Zn320 2.080 . S
O323 C337 1.305 . S
O324 Zn318 1.920 . S
O324 C337 1.234 . S
C325 O330 1.167 . S
C325 O331 1.299 . S
O326 Zn320 2.114 . S
O326 C321 1.166 . S
O327 Zn319 1.905 . S
O327 C321 1.182 . S
O328 Zn319 1.898 . S
O328 C322 1.167 . S
O329 Zn320 2.120 . S
O329 C322 1.299 . S
O330 Zn318 1.898 . S
O330 C325 1.167 . S
O331 Zn320 2.120 . S
O331 C325 1.299 . S
O332 Zn320 2.114 . S
O332 C334 1.166 . S
O333 Zn318 1.905 . S
O333 C334 1.182 . S
C334 O332 1.166 . S
C334 O333 1.182 . S
O335 Zn320 2.080 . S
O335 C338 1.305 . S
O336 Zn319 1.920 . S
O336 C338 1.234 . S
C337 O323 1.305 . S
C337 O324 1.234 . S
C338 O335 1.305 . S
C338 O336 1.234 . S
Zn339 O345 1.920 . S
Zn339 O351 1.898 . S
Zn339 O354 1.905 . S
Zn340 O348 1.905 . S
Zn340 O349 1.898 . S
Zn340 O357 1.920 . S
Zn341 O344 2.080 . S
Zn341 O347 2.114 . S
Zn341 O350 2.120 . S
Zn341 O352 2.120 . S
Zn341 O353 2.114 . S
Zn341 O356 2.080 . S
C342 O347 1.166 . S
C342 O348 1.182 . S
C343 O349 1.167 . S
C343 O350 1.299 . S
O344 Zn341 2.080 . S
O344 C358 1.305 . S
O345 Zn339 1.920 . S
O345 C358 1.234 . S
C346 O351 1.167 . S
C346 O352 1.299 . S
O347 Zn341 2.114 . S
O347 C342 1.166 . S
O348 Zn340 1.905 . S
O348 C342 1.182 . S
O349 Zn340 1.898 . S
O349 C343 1.167 . S
O350 Zn341 2.120 . S
O350 C343 1.299 . S
O351 Zn339 1.898 . S
O351 C346 1.167 . S
O352 Zn341 2.120 . S
O352 C346 1.299 . S
O353 Zn341 2.114 . S
O353 C355 1.166 . S
O354 Zn339 1.905 . S
O354 C355 1.182 . S
C355 O353 1.166 . S
C355 O354 1.182 . S
O356 Zn341 2.080 . S
O356 C359 1.305 . S
O357 Zn340 1.920 . S
O357 C359 1.234 . S
C358 O344 1.305 . S
C358 O345 1.234 . S
C359 O356 1.305 . S
C359 O357 1.234 . S
Zn360 O366 1.920 . S
Zn360 O372 1.898 . S
Zn360 O375 1.905 . S
Zn361 O369 1.905 . S
Zn361 O370 1.898 . S
Zn361 O378 1.920 . S
Zn362 O365 2.080 . S
Zn362 O368 2.114 . S
Zn362 O371 2.120 . S
Zn362 O373 2.120 . S
Zn362 O374 2.114 . S
Zn362 O377 2.080 . S
C363 O368 1.166 . S
C363 O369 1.182 . S
C364 O370 1.167 . S
C364 O371 1.299 . S
O365 Zn362 2.080 . S
O365 C379 1.305 . S
O366 Zn360 1.920 . S
O366 C379 1.234 . S
C367 O372 1.167 . S
C367 O373 1.299 . S
O368 Zn362 2.114 . S
O368 C363 1.166 . S
O369 Zn361 1.905 . S
O369 C363 1.182 . S
O370 Zn361 1.898 . S
O370 C364 1.167 . S
O371 Zn362 2.120 . S
O371 C364 1.299 . S
O372 Zn360 1.898 . S
O372 C367 1.167 . S
O373 Zn362 2.120 . S
O373 C367 1.299 . S
O374 Zn362 2.114 . S
O374 C376 1.166 . S
O375 Zn360 1.905 . S
O375 C376 1.182 . S
C376 O374 1.166 . S
C376 O375 1.182 . S
O377 Zn362 2.080 . S
O377 C380 1.305 . S
O378 Zn361 1.920 . S
O378 C380 1.234 . S
C379 O365 1.305 . S
C379 O366 1.234 . S
C380 O377 1.305 . S
C380 O378 1.234 . S
Zn381 O387 1.920 . S
Zn381 O393 1.898 . S
Zn381 O396 1.905 . S
Zn382 O390 1.905 . S
Zn382 O391 1.898 . S
Zn382 O399 1.920 . S
Zn383 O386 2.080 . S
Zn383 O389 2.114 . S
Zn383 O392 2.120 . S
Zn383 O394 2.120 . S
Zn383 O395 2.114 . S
Zn383 O398 2.080 . S
C384 O389 1.166 . S
C384 O390 1.182 . S
C385 O391 1.167 . S
C385 O392 1.299 . S
O386 Zn383 2.080 . S
O386 C400 1.305 1_556 S
O387 Zn381 1.920 . S
O387 C400 1.234 . S
C388 O393 1.167 . S
C388 O394 1.299 1_554 S
O389 Zn383 2.114 . S
O389 C384 1.166 . S
O390 Zn382 1.905 . S
O390 C384 1.182 . S
O391 Zn382 1.898 . S
O391 C385 1.167 . S
O392 Zn383 2.120 . S
O392 C385 1.299 . S
O393 Zn381 1.898 . S
O393 C388 1.167 . S
O394 Zn383 2.120 . S
O394 C388 1.299 1_556 S
O395 Zn383 2.114 . S
O395 C397 1.166 1_556 S
O396 Zn381 1.905 . S
O396 C397 1.182 . S
C397 O395 1.166 1_554 S
C397 O396 1.182 . S
O398 Zn383 2.080 . S
O398 C401 1.305 . S
O399 Zn382 1.920 . S
O399 C401 1.234 . S
C400 O386 1.305 1_554 S
C400 O387 1.234 . S
C401 O398 1.305 . S
C401 O399 1.234 . S
Zn402 O408 1.920 . S
Zn402 O414 1.898 . S
Zn402 O417 1.905 . S
Zn403 O411 1.905 . S
Zn403 O412 1.898 . S
Zn403 O420 1.920 . S
Zn404 O407 2.080 . S
Zn404 O410 2.114 . S
Zn404 O413 2.120 . S
Zn404 O415 2.120 . S
Zn404 O416 2.114 . S
Zn404 O419 2.080 . S
C405 O410 1.166 . S
C405 O411 1.182 . S
C406 O412 1.167 . S
C406 O413 1.299 . S
O407 Zn404 2.080 . S
O407 C421 1.305 . S
O408 Zn402 1.920 . S
O408 C421 1.234 . S
C409 O414 1.167 . S
C409 O415 1.299 . S
O410 Zn404 2.114 . S
O410 C405 1.166 . S
O411 Zn403 1.905 . S
O411 C405 1.182 . S
O412 Zn403 1.898 . S
O412 C406 1.167 . S
O413 Zn404 2.120 . S
O413 C406 1.299 . S
O414 Zn402 1.898 . S
O414 C409 1.167 . S
O415 Zn404 2.120 . S
O415 C409 1.299 . S
O416 Zn404 2.114 . S
O416 C418 1.166 . S
O417 Zn402 1.905 . S
O417 C418 1.182 . S
C418 O416 1.166 . S
C418 O417 1.182 . S
O419 Zn404 2.080 . S
O419 C422 1.305 . S
O420 Zn403 1.920 . S
O420 C422 1.234 . S
C421 O407 1.305 . S
C421 O408 1.234 . S
C422 O419 1.305 . S
C422 O420 1.234 . S
Zn423 O429 1.920 . S
Zn423 O435 1.898 . S
Zn423 O438 1.905 . S
Zn424 O432 1.905 . S
Zn424 O433 1.898 . S
Zn424 O441 1.920 . S
Zn425 O428 2.080 . S
Zn425 O431 2.114 . S
Zn425 O434 2.120 . S
Zn425 O436 2.120 . S
Zn425 O437 2.114 . S
Zn425 O440 2.080 . S
C426 O431 1.166 1_556 S
C426 O432 1.182 . S
C427 O433 1.167 . S
C427 O434 1.299 1_556 S
O428 Zn425 2.080 . S
O428 C442 1.305 . S
O429 Zn423 1.920 . S
O429 C442 1.234 . S
C430 O435 1.167 . S
C430 O436 1.299 . S
O431 Zn425 2.114 . S
O431 C426 1.166 1_554 S
O432 Zn424 1.905 . S
O432 C426 1.182 . S
O433 Zn424 1.898 . S
O433 C427 1.167 . S
O434 Zn425 2.120 . S
O434 C427 1.299 1_554 S
O435 Zn423 1.898 . S
O435 C430 1.167 . S
O436 Zn425 2.120 . S
O436 C430 1.299 . S
O437 Zn425 2.114 . S
O437 C439 1.166 . S
O438 Zn423 1.905 . S
O438 C439 1.182 . S
C439 O437 1.166 . S
C439 O438 1.182 . S
O440 Zn425 2.080 . S
O440 C443 1.305 1_554 S
O441 Zn424 1.920 . S
O441 C443 1.234 . S
C442 O428 1.305 . S
C442 O429 1.234 . S
C443 O440 1.305 1_556 S
C443 O441 1.234 . S
Zn444 O450 1.920 . S
Zn444 O456 1.898 . S
Zn444 O459 1.905 . S
Zn445 O453 1.905 . S
Zn445 O454 1.898 . S
Zn445 O462 1.920 . S
Zn446 O449 2.080 . S
Zn446 O452 2.114 . S
Zn446 O455 2.120 . S
Zn446 O457 2.120 . S
Zn446 O458 2.114 . S
Zn446 O461 2.080 . S
C447 O452 1.166 . S
C447 O453 1.182 . S
C448 O454 1.167 . S
C448 O455 1.299 . S
O449 Zn446 2.080 . S
O449 C463 1.305 . S
O450 Zn444 1.920 . S
O450 C463 1.234 . S
C451 O456 1.167 . S
C451 O457 1.299 . S
O452 Zn446 2.114 . S
O452 C447 1.166 . S
O453 Zn445 1.905 . S
O453 C447 1.182 . S
O454 Zn445 1.898 . S
O454 C448 1.167 . S
O455 Zn446 2.120 . S
O455 C448 1.299 . S
O456 Zn444 1.898 . S
O456 C451 1.167 . S
O457 Zn446 2.120 . S
O457 C451 1.299 . S
O458 Zn446 2.114 . S
O458 C460 1.166 . S
O459 Zn444 1.905 . S
O459 C460 1.182 . S
C460 O458 1.166 . S
C460 O459 1.182 . S
O461 Zn446 2.080 . S
O461 C464 1.305 . S
O462 Zn445 1.920 . S
O462 C464 1.234 . S
C463 O449 1.305 . S
C463 O450 1.234 . S
C464 O461 1.305 . S
C464 O462 1.234 . S
Zn465 O471 1.920 . S
Zn465 O477 1.898 . S
Zn465 O480 1.905 . S
Zn466 O474 1.905 . S
Zn466 O475 1.898 . S
Zn466 O483 1.920 . S
Zn467 O470 2.080 . S
Zn467 O473 2.114 . S
Zn467 O476 2.120 . S
Zn467 O478 2.120 . S
Zn467 O479 2.114 . S
Zn467 O482 2.080 . S
C468 O473 1.166 . S
C468 O474 1.182 . S
C469 O475 1.167 . S
C469 O476 1.299 . S
O470 Zn467 2.080 . S
O470 C484 1.305 . S
O471 Zn465 1.920 . S
O471 C484 1.234 . S
C472 O477 1.167 . S
C472 O478 1.299 . S
O473 Zn467 2.114 . S
O473 C468 1.166 . S
O474 Zn466 1.905 . S
O474 C468 1.182 . S
O475 Zn466 1.898 . S
O475 C469 1.167 . S
O476 Zn467 2.120 . S
O476 C469 1.299 . S
O477 Zn465 1.898 . S
O477 C472 1.167 . S
O478 Zn467 2.120 . S
O478 C472 1.299 . S
O479 Zn467 2.114 . S
O479 C481 1.166 . S
O480 Zn465 1.905 . S
O480 C481 1.182 . S
C481 O479 1.166 . S
C481 O480 1.182 . S
O482 Zn467 2.080 . S
O482 C485 1.305 . S
O483 Zn466 1.920 . S
O483 C485 1.234 . S
C484 O470 1.305 . S
C484 O471 1.234 . S
C485 O482 1.305 . S
C485 O483 1.234 . S
C486 C487 1.349 . S
C486 C488 1.327 . S
C486 H511 0.950 . S
C487 C486 1.349 . S
C487 C503 1.349 . S
C488 C486 1.327 . S
C488 C507 1.429 . S
C488 H512 0.950 . S
C489 C506 1.574 . S
C489 C508 1.368 . S
C489 H513 0.949 . S
H490 C494 0.949 . S
C491 C492 1.349 . S
C491 C493 1.327 . S
C491 H514 0.950 . S
C492 C491 1.349 . S
C492 C504 1.349 . S
C493 C491 1.327 . S
C493 C509 1.429 . S
C493 H515 0.950 . S
C494 H490 0.949 . S
C494 C502 1.574 . S
C494 C510 1.368 . S
H495 C503 0.950 . S
H496 C501 0.950 . S
H497 C502 0.949 . S
H498 C504 0.950 . S
H499 C505 0.950 . S
H500 C506 0.949 . S
C501 H496 0.950 . S
C501 C503 1.327 . S
C501 C507 1.429 . S
C502 C494 1.574 . S
C502 H497 0.949 . S
C502 C508 1.368 . S
C503 C487 1.349 . S
C503 H495 0.950 . S
C503 C501 1.327 . S
C504 C492 1.349 . S
C504 H498 0.950 . S
C504 C505 1.327 . S
C505 H499 0.950 . S
C505 C504 1.327 . S
C505 C509 1.429 . S
C506 C489 1.574 . S
C506 H500 0.949 . S
C506 C510 1.368 . S
C507 C488 1.429 . S
C507 C501 1.429 . S
C507 C508 1.523 . S
C508 C489 1.368 . S
C508 C502 1.368 . S
C508 C507 1.523 . S
C509 C493 1.429 . S
C509 C505 1.429 . S
C509 C510 1.523 . S
C510 C494 1.368 . S
C510 C506 1.368 . S
C510 C509 1.523 . S
H511 C486 0.950 . S
H512 C488 0.950 . S
H513 C489 0.949 . S
H514 C491 0.950 . S
H515 C493 0.950 . S
C516 C517 1.349 . S
C516 C518 1.327 . S
C516 H541 0.950 1_545 S
C517 C516 1.349 . S
C517 C533 1.349 . S
C518 C516 1.327 . S
C518 C537 1.429 . S
C518 H542 0.950 1_545 S
C519 C536 1.574 . S
C519 C538 1.368 . S
C519 H543 0.949 . S
H520 C524 0.949 1_565 S
C521 C522 1.349 . S
C521 C523 1.327 . S
C521 H544 0.950 . S
C522 C521 1.349 . S
C522 C534 1.349 . S
C523 C521 1.327 . S
C523 C539 1.429 . S
C523 H545 0.950 . S
C524 H520 0.949 1_545 S
C524 C532 1.574 . S
C524 C540 1.368 . S
H525 C533 0.950 . S
H526 C531 0.950 . S
H527 C532 0.949 1_565 S
H528 C534 0.950 . S
H529 C535 0.950 1_565 S
H530 C536 0.949 . S
C531 H526 0.950 . S
C531 C533 1.327 . S
C531 C537 1.429 . S
C532 C524 1.574 . S
C532 H527 0.949 1_545 S
C532 C538 1.368 . S
C533 C517 1.349 . S
C533 H525 0.950 . S
C533 C531 1.327 . S
C534 C522 1.349 . S
C534 H528 0.950 . S
C534 C535 1.327 . S
C535 H529 0.950 1_545 S
C535 C534 1.327 . S
C535 C539 1.429 . S
C536 C519 1.574 . S
C536 H530 0.949 . S
C536 C540 1.368 . S
C537 C518 1.429 . S
C537 C531 1.429 . S
C537 C538 1.523 . S
C538 C519 1.368 . S
C538 C532 1.368 . S
C538 C537 1.523 . S
C539 C523 1.429 . S
C539 C535 1.429 . S
C539 C540 1.523 . S
C540 C524 1.368 . S
C540 C536 1.368 . S
C540 C539 1.523 . S
H541 C516 0.950 1_565 S
H542 C518 0.950 1_565 S
H543 C519 0.949 . S
H544 C521 0.950 . S
H545 C523 0.950 . S
C546 C547 1.349 1_655 S
C546 C548 1.327 . S
C546 H571 0.950 . S
C547 C546 1.349 1_455 S
C547 C563 1.349 . S
C548 C546 1.327 . S
C548 C567 1.429 1_655 S
C548 H572 0.950 . S
C549 C566 1.574 . S
C549 C568 1.368 . S
C549 H573 0.949 . S
H550 C554 0.949 . S
C551 C552 1.349 . S
C551 C553 1.327 . S
C551 H574 0.950 . S
C552 C551 1.349 . S
C552 C564 1.349 1_455 S
C553 C551 1.327 . S
C553 C569 1.429 . S
C553 H575 0.950 . S
C554 H550 0.949 . S
C554 C562 1.574 . S
C554 C570 1.368 1_655 S
H555 C563 0.950 . S
H556 C561 0.950 . S
H557 C562 0.949 . S
H558 C564 0.950 . S
H559 C565 0.950 . S
H560 C566 0.949 . S
C561 H556 0.950 . S
C561 C563 1.327 . S
C561 C567 1.429 . S
C562 C554 1.574 . S
C562 H557 0.949 . S
C562 C568 1.368 1_655 S
C563 C547 1.349 . S
C563 H555 0.950 . S
C563 C561 1.327 . S
C564 C552 1.349 1_655 S
C564 H558 0.950 . S
C564 C565 1.327 . S
C565 H559 0.950 . S
C565 C564 1.327 . S
C565 C569 1.429 1_655 S
C566 C549 1.574 . S
C566 H560 0.949 . S
C566 C570 1.368 . S
C567 C548 1.429 1_455 S
C567 C561 1.429 . S
C567 C568 1.523 . S
C568 C549 1.368 . S
C568 C562 1.368 1_455 S
C568 C567 1.523 . S
C569 C553 1.429 . S
C569 C565 1.429 1_455 S
C569 C570 1.523 . S
C570 C554 1.368 1_455 S
C570 C566 1.368 . S
C570 C569 1.523 . S
H571 C546 0.950 . S
H572 C548 0.950 . S
H573 C549 0.949 . S
H574 C551 0.950 . S
H575 C553 0.950 . S
C576 C577 1.349 . S
C576 C578 1.327 . S
C576 H601 0.950 . S
C577 C576 1.349 . S
C577 C593 1.349 . S
C578 C576 1.327 . S
C578 C597 1.429 . S
C578 H602 0.950 . S
C579 C596 1.574 . S
C579 C598 1.368 . S
C579 H603 0.949 . S
H580 C584 0.949 . S
C581 C582 1.349 . S
C581 C583 1.327 . S
C581 H604 0.950 . S
C582 C581 1.349 . S
C582 C594 1.349 . S
C583 C581 1.327 . S
C583 C599 1.429 . S
C583 H605 0.950 . S
C584 H580 0.949 . S
C584 C592 1.574 . S
C584 C600 1.368 . S
H585 C593 0.950 . S
H586 C591 0.950 . S
H587 C592 0.949 . S
H588 C594 0.950 . S
H589 C595 0.950 . S
H590 C596 0.949 . S
C591 H586 0.950 . S
C591 C593 1.327 . S
C591 C597 1.429 . S
C592 C584 1.574 . S
C592 H587 0.949 . S
C592 C598 1.368 . S
C593 C577 1.349 . S
C593 H585 0.950 . S
C593 C591 1.327 . S
C594 C582 1.349 . S
C594 H588 0.950 . S
C594 C595 1.327 . S
C595 H589 0.950 . S
C595 C594 1.327 . S
C595 C599 1.429 . S
C596 C579 1.574 . S
C596 H590 0.949 . S
C596 C600 1.368 . S
C597 C578 1.429 . S
C597 C591 1.429 . S
C597 C598 1.523 . S
C598 C579 1.368 . S
C598 C592 1.368 . S
C598 C597 1.523 . S
C599 C583 1.429 . S
C599 C595 1.429 . S
C599 C600 1.523 . S
C600 C584 1.368 . S
C600 C596 1.368 . S
C600 C599 1.523 . S
H601 C576 0.950 . S
H602 C578 0.950 . S
H603 C579 0.949 . S
H604 C581 0.950 . S
H605 C583 0.950 . S
C606 C607 1.349 1_565 S
C606 C608 1.327 . S
C606 H631 0.950 . S
C607 C606 1.349 1_545 S
C607 C623 1.349 . S
C608 C606 1.327 . S
C608 C627 1.429 1_565 S
C608 H632 0.950 . S
C609 C626 1.574 . S
C609 C628 1.368 . S
C609 H633 0.949 . S
H610 C614 0.949 . S
C611 C612 1.349 . S
C611 C613 1.327 . S
C611 H634 0.950 . S
C612 C611 1.349 . S
C612 C624 1.349 1_545 S
C613 C611 1.327 . S
C613 C629 1.429 . S
C613 H635 0.950 . S
C614 H610 0.949 . S
C614 C622 1.574 . S
C614 C630 1.368 1_565 S
H615 C623 0.950 . S
H616 C621 0.950 . S
H617 C622 0.949 . S
H618 C624 0.950 . S
H619 C625 0.950 . S
H620 C626 0.949 . S
C621 H616 0.950 . S
C621 C623 1.327 . S
C621 C627 1.429 . S
C622 C614 1.574 . S
C622 H617 0.949 . S
C622 C628 1.368 1_565 S
C623 C607 1.349 . S
C623 H615 0.950 . S
C623 C621 1.327 . S
C624 C612 1.349 1_565 S
C624 H618 0.950 . S
C624 C625 1.327 . S
C625 H619 0.950 . S
C625 C624 1.327 . S
C625 C629 1.429 1_565 S
C626 C609 1.574 . S
C626 H620 0.949 . S
C626 C630 1.368 . S
C627 C608 1.429 1_545 S
C627 C621 1.429 . S
C627 C628 1.523 . S
C628 C609 1.368 . S
C628 C622 1.368 1_545 S
C628 C627 1.523 . S
C629 C613 1.429 . S
C629 C625 1.429 1_545 S
C629 C630 1.523 . S
C630 C614 1.368 1_545 S
C630 C626 1.368 . S
C630 C629 1.523 . S
H631 C606 0.950 . S
H632 C608 0.950 . S
H633 C609 0.949 . S
H634 C611 0.950 . S
H635 C613 0.950 . S
C636 C637 1.349 . S
C636 C638 1.327 . S
C636 H661 0.950 . S
C637 C636 1.349 . S
C637 C653 1.349 . S
C638 C636 1.327 . S
C638 C657 1.429 . S
C638 H662 0.950 . S
C639 C656 1.574 . S
C639 C658 1.368 . S
C639 H663 0.949 . S
H640 C644 0.949 . S
C641 C642 1.349 . S
C641 C643 1.327 . S
C641 H664 0.950 . S
C642 C641 1.349 . S
C642 C654 1.349 . S
C643 C641 1.327 . S
C643 C659 1.429 . S
C643 H665 0.950 . S
C644 H640 0.949 . S
C644 C652 1.574 . S
C644 C660 1.368 . S
H645 C653 0.950 . S
H646 C651 0.950 . S
H647 C652 0.949 . S
H648 C654 0.950 . S
H649 C655 0.950 . S
H650 C656 0.949 . S
C651 H646 0.950 . S
C651 C653 1.327 . S
C651 C657 1.429 . S
C652 C644 1.574 . S
C652 H647 0.949 . S
C652 C658 1.368 . S
C653 C637 1.349 . S
C653 H645 0.950 . S
C653 C651 1.327 . S
C654 C642 1.349 . S
C654 H648 0.950 . S
C654 C655 1.327 . S
C655 H649 0.950 . S
C655 C654 1.327 . S
C655 C659 1.429 . S
C656 C639 1.574 . S
C656 H650 0.949 . S
C656 C660 1.368 . S
C657 C638 1.429 . S
C657 C651 1.429 . S
C657 C658 1.523 . S
C658 C639 1.368 . S
C658 C652 1.368 . S
C658 C657 1.523 . S
C659 C643 1.429 . S
C659 C655 1.429 . S
C659 C660 1.523 . S
C660 C644 1.368 . S
C660 C656 1.368 . S
C660 C659 1.523 . S
H661 C636 0.950 . S
H662 C638 0.950 . S
H663 C639 0.949 . S
H664 C641 0.950 . S
H665 C643 0.950 . S
C666 C667 1.349 . S
C666 C668 1.327 . S
C666 H691 0.950 . S
C667 C666 1.349 . S
C667 C683 1.349 . S
C668 C666 1.327 . S
C668 C687 1.429 . S
C668 H692 0.950 . S
C669 C686 1.574 . S
C669 C688 1.368 . S
C669 H693 0.949 . S
H670 C674 0.949 . S
C671 C672 1.349 . S
C671 C673 1.327 . S
C671 H694 0.950 . S
C672 C671 1.349 . S
C672 C684 1.349 . S
C673 C671 1.327 . S
C673 C689 1.429 . S
C673 H695 0.950 . S
C674 H670 0.949 . S
C674 C682 1.574 . S
C674 C690 1.368 . S
H675 C683 0.950 . S
H676 C681 0.950 . S
H677 C682 0.949 . S
H678 C684 0.950 . S
H679 C685 0.950 . S
H680 C686 0.949 . S
C681 H676 0.950 . S
C681 C683 1.327 . S
C681 C687 1.429 . S
C682 C674 1.574 . S
C682 H677 0.949 . S
C682 C688 1.368 . S
C683 C667 1.349 . S
C683 H675 0.950 . S
C683 C681 1.327 . S
C684 C672 1.349 . S
C684 H678 0.950 . S
C684 C685 1.327 . S
C685 H679 0.950 . S
C685 C684 1.327 . S
C685 C689 1.429 . S
C686 C669 1.574 . S
C686 H680 0.949 . S
C686 C690 1.368 . S
C687 C668 1.429 . S
C687 C681 1.429 . S
C687 C688 1.523 . S
C688 C669 1.368 . S
C688 C682 1.368 . S
C688 C687 1.523 . S
C689 C673 1.429 . S
C689 C685 1.429 . S
C689 C690 1.523 . S
C690 C674 1.368 . S
C690 C686 1.368 . S
C690 C689 1.523 . S
H691 C666 0.950 . S
H692 C668 0.950 . S
H693 C669 0.949 . S
H694 C671 0.950 . S
H695 C673 0.950 . S
C696 C697 1.349 . S
C696 C698 1.327 . S
C696 H721 0.950 . S
C697 C696 1.349 . S
C697 C713 1.349 1_545 S
C698 C696 1.327 . S
C698 C717 1.429 . S
C698 H722 0.950 . S
C699 C716 1.574 . S
C699 C718 1.368 1_565 S
C699 H723 0.949 . S
H700 C704 0.949 . S
C701 C702 1.349 1_565 S
C701 C703 1.327 . S
C701 H724 0.950 . S
C702 C701 1.349 1_545 S
C702 C714 1.349 . S
C703 C701 1.327 . S
C703 C719 1.429 1_565 S
C703 H725 0.950 . S
C704 H700 0.949 . S
C704 C712 1.574 . S
C704 C720 1.368 . S
H705 C713 0.950 . S
H706 C711 0.950 . S
H707 C712 0.949 . S
H708 C714 0.950 . S
H709 C715 0.950 . S
H710 C716 0.949 . S
C711 H706 0.950 . S
C711 C713 1.327 . S
C711 C717 1.429 1_565 S
C712 C704 1.574 . S
C712 H707 0.949 . S
C712 C718 1.368 . S
C713 C697 1.349 1_565 S
C713 H705 0.950 . S
C713 C711 1.327 . S
C714 C702 1.349 . S
C714 H708 0.950 . S
C714 C715 1.327 . S
C715 H709 0.950 . S
C715 C714 1.327 . S
C715 C719 1.429 . S
C716 C699 1.574 . S
C716 H710 0.949 . S
C716 C720 1.368 1_565 S
C717 C698 1.429 . S
C717 C711 1.429 1_545 S
C717 C718 1.523 . S
C718 C699 1.368 1_545 S
C718 C712 1.368 . S
C718 C717 1.523 . S
C719 C703 1.429 1_545 S
C719 C715 1.429 . S
C719 C720 1.523 . S
C720 C704 1.368 . S
C720 C716 1.368 1_545 S
C720 C719 1.523 . S
H721 C696 0.950 . S
H722 C698 0.950 . S
H723 C699 0.949 . S
H724 C701 0.950 . S
H725 C703 0.950 . S
C726 C727 1.349 . S
C726 C728 1.327 . S
C726 H751 0.950 . S
C727 C726 1.349 . S
C727 C743 1.349 . S
C728 C726 1.327 . S
C728 C747 1.429 . S
C728 H752 0.950 . S
C729 C746 1.574 . S
C729 C748 1.368 . S
C729 H753 0.949 . S
H730 C734 0.949 . S
C731 C732 1.349 . S
C731 C733 1.327 . S
C731 H754 0.950 . S
C732 C731 1.349 . S
C732 C744 1.349 . S
C733 C731 1.327 . S
C733 C749 1.429 . S
C733 H755 0.950 . S
C734 H730 0.949 . S
C734 C742 1.574 . S
C734 C750 1.368 . S
H735 C743 0.950 . S
H736 C741 0.950 . S
H737 C742 0.949 . S
H738 C744 0.950 . S
H739 C745 0.950 . S
H740 C746 0.949 . S
C741 H736 0.950 . S
C741 C743 1.327 . S
C741 C747 1.429 . S
C742 C734 1.574 . S
C742 H737 0.949 . S
C742 C748 1.368 . S
C743 C727 1.349 . S
C743 H735 0.950 . S
C743 C741 1.327 . S
C744 C732 1.349 . S
C744 H738 0.950 . S
C744 C745 1.327 . S
C745 H739 0.950 . S
C745 C744 1.327 . S
C745 C749 1.429 . S
C746 C729 1.574 . S
C746 H740 0.949 . S
C746 C750 1.368 . S
C747 C728 1.429 . S
C747 C741 1.429 . S
C747 C748 1.523 . S
C748 C729 1.368 . S
C748 C742 1.368 . S
C748 C747 1.523 . S
C749 C733 1.429 . S
C749 C745 1.429 . S
C749 C750 1.523 . S
C750 C734 1.368 . S
C750 C746 1.368 . S
C750 C749 1.523 . S
H751 C726 0.950 . S
H752 C728 0.950 . S
H753 C729 0.949 . S
H754 C731 0.950 . S
H755 C733 0.950 . S
C756 C757 1.349 . S
C756 C758 1.327 . S
C756 H781 0.950 . S
C757 C756 1.349 . S
C757 C773 1.349 . S
C758 C756 1.327 . S
C758 C777 1.429 . S
C758 H782 0.950 . S
C759 C776 1.574 . S
C759 C778 1.368 . S
C759 H783 0.949 . S
H760 C764 0.949 . S
C761 C762 1.349 . S
C761 C763 1.327 . S
C761 H784 0.950 . S
C762 C761 1.349 . S
C762 C774 1.349 . S
C763 C761 1.327 . S
C763 C779 1.429 . S
C763 H785 0.950 . S
C764 H760 0.949 . S
C764 C772 1.574 . S
C764 C780 1.368 . S
H765 C773 0.950 . S
H766 C771 0.950 . S
H767 C772 0.949 . S
H768 C774 0.950 . S
H769 C775 0.950 . S
H770 C776 0.949 . S
C771 H766 0.950 . S
C771 C773 1.327 . S
C771 C777 1.429 . S
C772 C764 1.574 . S
C772 H767 0.949 . S
C772 C778 1.368 . S
C773 C757 1.349 . S
C773 H765 0.950 . S
C773 C771 1.327 . S
C774 C762 1.349 . S
C774 H768 0.950 . S
C774 C775 1.327 . S
C775 H769 0.950 . S
C775 C774 1.327 . S
C775 C779 1.429 . S
C776 C759 1.574 . S
C776 H770 0.949 . S
C776 C780 1.368 . S
C777 C758 1.429 . S
C777 C771 1.429 . S
C777 C778 1.523 . S
C778 C759 1.368 . S
C778 C772 1.368 . S
C778 C777 1.523 . S
C779 C763 1.429 . S
C779 C775 1.429 . S
C779 C780 1.523 . S
C780 C764 1.368 . S
C780 C776 1.368 . S
C780 C779 1.523 . S
H781 C756 0.950 . S
H782 C758 0.950 . S
H783 C759 0.949 . S
H784 C761 0.950 . S
H785 C763 0.950 . S
C786 C787 1.349 . S
C786 C788 1.327 . S
C786 H811 0.950 . S
C787 C786 1.349 . S
C787 C803 1.339 1_545 S
C788 C786 1.327 . S
C788 C807 1.429 . S
C788 H812 0.950 . S
C789 C806 1.574 . S
C789 C808 1.368 . S
C789 H813 0.949 1_545 S
H790 C794 0.949 . S
C791 C792 1.349 . S
C791 C793 1.327 . S
C791 H814 0.950 1_545 S
C792 C791 1.349 . S
C792 C804 1.349 . S
C793 C791 1.327 . S
C793 C809 1.429 . S
C793 H815 0.950 1_545 S
C794 H790 0.949 . S
C794 C802 1.574 . S
C794 C810 1.368 . S
H795 C803 0.975 . S
H796 C801 0.950 . S
H797 C802 0.949 . S
H798 C804 0.950 . S
H799 C805 0.950 . S
H800 C806 0.949 1_565 S
C801 H796 0.950 . S
C801 C803 1.314 . S
C801 C807 1.427 1_565 S
C802 C794 1.574 . S
C802 H797 0.949 . S
C802 C808 1.368 . S
C803 C787 1.339 1_565 S
C803 H795 0.975 . S
C803 C801 1.314 . S
C804 C792 1.349 . S
C804 H798 0.950 . S
C804 C805 1.327 . S
C805 H799 0.950 . S
C805 C804 1.327 . S
C805 C809 1.429 . S
C806 C789 1.574 . S
C806 H800 0.949 1_545 S
C806 C810 1.368 . S
C807 C788 1.429 . S
C807 C801 1.427 1_545 S
C807 C808 1.523 . S
C808 C789 1.368 . S
C808 C802 1.368 . S
C808 C807 1.523 . S
C809 C793 1.429 . S
C809 C805 1.429 . S
C809 C810 1.523 . S
C810 C794 1.368 . S
C810 C806 1.368 . S
C810 C809 1.523 . S
H811 C786 0.950 . S
H812 C788 0.950 . S
H813 C789 0.949 1_565 S
H814 C791 0.950 1_565 S
H815 C793 0.950 1_565 S
C816 C817 1.349 . S
C816 C818 1.327 . S
C816 H841 0.950 . S
C817 C816 1.349 . S
C817 C833 1.349 . S
C818 C816 1.327 . S
C818 C837 1.429 . S
C818 H842 0.952 1_455 S
C819 C836 1.574 . S
C819 C838 1.368 . S
C819 H843 0.949 . S
H820 C824 0.949 1_655 S
C821 C822 1.349 . S
C821 C823 1.327 . S
C821 H844 0.950 . S
C822 C821 1.349 . S
C822 C834 1.349 1_455 S
C823 C821 1.327 . S
C823 C839 1.429 . S
C823 H845 0.950 . S
C824 H820 0.949 1_455 S
C824 C832 1.574 . S
C824 C840 1.368 . S
H825 C833 0.950 . S
H826 C831 0.950 . S
H827 C832 0.949 1_655 S
H828 C834 0.950 . S
H829 C835 0.951 . S
H830 C836 0.949 . S
C831 H826 0.950 . S
C831 C833 1.327 . S
C831 C837 1.429 . S
C832 C824 1.574 . S
C832 H827 0.949 1_455 S
C832 C838 1.368 . S
C833 C817 1.349 . S
C833 H825 0.950 . S
C833 C831 1.327 . S
C834 C822 1.349 1_655 S
C834 H828 0.950 . S
C834 C835 1.325 . S
C835 H829 0.951 . S
C835 C834 1.325 . S
C835 C839 1.430 1_655 S
C836 C819 1.574 . S
C836 H830 0.949 . S
C836 C840 1.368 . S
C837 C818 1.429 . S
C837 C831 1.429 . S
C837 C838 1.523 . S
C838 C819 1.368 . S
C838 C832 1.368 . S
C838 C837 1.523 . S
C839 C823 1.429 . S
C839 C835 1.430 1_455 S
C839 C840 1.523 . S
C840 C824 1.368 . S
C840 C836 1.368 . S
C840 C839 1.523 . S
H841 C816 0.950 . S
H842 C818 0.952 1_655 S
H843 C819 0.949 . S
H844 C821 0.950 . S
H845 C823 0.950 . S
C846 C847 1.349 . S
C846 C848 1.327 . S
C846 H871 0.950 . S
C847 C846 1.349 . S
C847 C863 1.349 . S
C848 C846 1.327 . S
C848 C867 1.429 . S
C848 H872 0.950 . S
C849 C866 1.574 . S
C849 C868 1.368 . S
C849 H873 0.949 . S
H850 C854 0.949 . S
C851 C852 1.349 . S
C851 C853 1.327 . S
C851 H874 0.950 . S
C852 C851 1.349 . S
C852 C864 1.349 . S
C853 C851 1.327 . S
C853 C869 1.429 . S
C853 H875 0.950 . S
C854 H850 0.949 . S
C854 C862 1.574 . S
C854 C870 1.368 . S
H855 C863 0.950 . S
H856 C861 0.950 . S
H857 C862 0.949 . S
H858 C864 0.950 . S
H859 C865 0.950 . S
H860 C866 0.949 . S
C861 H856 0.950 . S
C861 C863 1.327 . S
C861 C867 1.429 . S
C862 C854 1.574 . S
C862 H857 0.949 . S
C862 C868 1.368 . S
C863 C847 1.349 . S
C863 H855 0.950 . S
C863 C861 1.327 . S
C864 C852 1.349 . S
C864 H858 0.950 . S
C864 C865 1.327 . S
C865 H859 0.950 . S
C865 C864 1.327 . S
C865 C869 1.429 . S
C866 C849 1.574 . S
C866 H860 0.949 . S
C866 C870 1.368 . S
C867 C848 1.429 . S
C867 C861 1.429 . S
C867 C868 1.523 . S
C868 C849 1.368 . S
C868 C862 1.368 . S
C868 C867 1.523 . S
C869 C853 1.429 . S
C869 C865 1.429 . S
C869 C870 1.523 . S
C870 C854 1.368 . S
C870 C866 1.368 . S
C870 C869 1.523 . S
H871 C846 0.950 . S
H872 C848 0.950 . S
H873 C849 0.949 . S
H874 C851 0.950 . S
H875 C853 0.950 . S
C876 C877 1.349 . S
C876 C878 1.327 . S
C876 H901 0.950 . S
C877 C876 1.349 . S
C877 C893 1.349 . S
C878 C876 1.327 . S
C878 C897 1.429 . S
C878 H902 0.950 . S
C879 C896 1.574 . S
C879 C898 1.368 . S
C879 H903 0.949 . S
H880 C884 0.949 . S
C881 C882 1.349 . S
C881 C883 1.327 . S
C881 H904 0.950 . S
C882 C881 1.349 . S
C882 C894 1.349 . S
C883 C881 1.327 . S
C883 C899 1.429 . S
C883 H905 0.950 . S
C884 H880 0.949 . S
C884 C892 1.574 . S
C884 C900 1.368 . S
H885 C893 0.950 . S
H886 C891 0.950 . S
H887 C892 0.949 . S
H888 C894 0.950 . S
H889 C895 0.950 . S
H890 C896 0.949 . S
C891 H886 0.950 . S
C891 C893 1.327 . S
C891 C897 1.429 . S
C892 C884 1.574 . S
C892 H887 0.949 . S
C892 C898 1.368 . S
C893 C877 1.349 . S
C893 H885 0.950 . S
C893 C891 1.327 . S
C894 C882 1.349 . S
C894 H888 0.950 . S
C894 C895 1.327 . S
C895 H889 0.950 . S
C895 C894 1.327 . S
C895 C899 1.429 . S
C896 C879 1.574 . S
C896 H890 0.949 . S
C896 C900 1.368 . S
C897 C878 1.429 . S
C897 C891 1.429 . S
C897 C898 1.523 . S
C898 C879 1.368 . S
C898 C892 1.368 . S
C898 C897 1.523 . S
C899 C883 1.429 . S
C899 C895 1.429 . S
C899 C900 1.523 . S
C900 C884 1.368 . S
C900 C896 1.368 . S
C900 C899 1.523 . S
H901 C876 0.950 . S
H902 C878 0.950 . S
H903 C879 0.949 . S
H904 C881 0.950 . S
H905 C883 0.950 . S
C906 C907 1.349 . S
C906 C908 1.327 . S
C906 H931 0.950 . S
C907 C906 1.349 . S
C907 C923 1.349 . S
C908 C906 1.327 . S
C908 C927 1.429 . S
C908 H932 0.950 . S
C909 C926 1.574 . S
C909 C928 1.368 . S
C909 H933 0.949 . S
H910 C914 0.949 . S
C911 C912 1.349 . S
C911 C913 1.327 . S
C911 H934 0.950 . S
C912 C911 1.349 . S
C912 C924 1.349 . S
C913 C911 1.327 . S
C913 C929 1.429 . S
C913 H935 0.950 . S
C914 H910 0.949 . S
C914 C922 1.574 . S
C914 C930 1.368 . S
H915 C923 0.950 . S
H916 C921 0.950 . S
H917 C922 0.949 . S
H918 C924 0.950 . S
H919 C925 0.950 . S
H920 C926 0.949 . S
C921 H916 0.950 . S
C921 C923 1.327 . S
C921 C927 1.429 . S
C922 C914 1.574 . S
C922 H917 0.949 . S
C922 C928 1.368 . S
C923 C907 1.349 . S
C923 H915 0.950 . S
C923 C921 1.327 . S
C924 C912 1.349 . S
C924 H918 0.950 . S
C924 C925 1.327 . S
C925 H919 0.950 . S
C925 C924 1.327 . S
C925 C929 1.429 . S
C926 C909 1.574 . S
C926 H920 0.949 . S
C926 C930 1.368 . S
C927 C908 1.429 . S
C927 C921 1.429 . S
C927 C928 1.523 . S
C928 C909 1.368 . S
C928 C922 1.368 . S
C928 C927 1.523 . S
C929 C913 1.429 . S
C929 C925 1.429 . S
C929 C930 1.523 . S
C930 C914 1.368 . S
C930 C926 1.368 . S
C930 C929 1.523 . S
H931 C906 0.950 . S
H932 C908 0.950 . S
H933 C909 0.949 . S
H934 C911 0.950 . S
H935 C913 0.950 . S
C936 C937 1.349 . S
C936 C938 1.327 . S
C936 H961 0.950 . S
C937 C936 1.349 . S
C937 C953 1.349 . S
C938 C936 1.327 . S
C938 C957 1.429 . S
C938 H962 0.950 . S
C939 C956 1.574 . S
C939 C958 1.368 . S
C939 H963 0.949 . S
H940 C944 0.949 . S
C941 C942 1.349 . S
C941 C943 1.327 . S
C941 H964 0.950 . S
C942 C941 1.349 . S
C942 C954 1.349 . S
C943 C941 1.327 . S
C943 C959 1.429 . S
C943 H965 0.950 . S
C944 H940 0.949 . S
C944 C952 1.574 . S
C944 C960 1.368 . S
H945 C953 0.950 . S
H946 C951 0.950 . S
H947 C952 0.949 . S
H948 C954 0.950 . S
H949 C955 0.950 . S
H950 C956 0.949 . S
C951 H946 0.950 . S
C951 C953 1.327 . S
C951 C957 1.429 . S
C952 C944 1.574 . S
C952 H947 0.949 . S
C952 C958 1.368 . S
C953 C937 1.349 . S
C953 H945 0.950 . S
C953 C951 1.327 . S
C954 C942 1.349 . S
C954 H948 0.950 . S
C954 C955 1.327 . S
C955 H949 0.950 . S
C955 C954 1.327 . S
C955 C959 1.429 . S
C956 C939 1.574 . S
C956 H950 0.949 . S
C956 C960 1.368 . S
C957 C938 1.429 . S
C957 C951 1.429 . S
C957 C958 1.523 . S
C958 C939 1.368 . S
C958 C952 1.368 . S
C958 C957 1.523 . S
C959 C943 1.429 . S
C959 C955 1.429 . S
C959 C960 1.523 . S
C960 C944 1.368 . S
C960 C956 1.368 . S
C960 C959 1.523 . S
H961 C936 0.950 . S
H962 C938 0.950 . S
H963 C939 0.949 . S
H964 C941 0.950 . S
H965 C943 0.950 . S
C966 C967 1.349 . S
C966 C968 1.327 . S
C966 H991 0.950 . S
C967 C966 1.349 . S
C967 C983 1.349 . S
C968 C966 1.327 . S
C968 C987 1.429 . S
C968 H992 0.950 . S
C969 C986 1.574 . S
C969 C988 1.368 . S
C969 H993 0.949 . S
H970 C974 0.949 . S
C971 C972 1.349 . S
C971 C973 1.327 . S
C971 H994 0.950 . S
C972 C971 1.349 . S
C972 C984 1.349 . S
C973 C971 1.327 . S
C973 C989 1.429 . S
C973 H995 0.950 . S
C974 H970 0.949 . S
C974 C982 1.574 . S
C974 C990 1.368 . S
H975 C983 0.950 . S
H976 C981 0.950 . S
H977 C982 0.949 . S
H978 C984 0.950 . S
H979 C985 0.950 . S
H980 C986 0.949 . S
C981 H976 0.950 . S
C981 C983 1.327 . S
C981 C987 1.429 . S
C982 C974 1.574 . S
C982 H977 0.949 . S
C982 C988 1.368 . S
C983 C967 1.349 . S
C983 H975 0.950 . S
C983 C981 1.327 . S
C984 C972 1.349 . S
C984 H978 0.950 . S
C984 C985 1.327 . S
C985 H979 0.950 . S
C985 C984 1.327 . S
C985 C989 1.429 . S
C986 C969 1.574 . S
C986 H980 0.949 . S
C986 C990 1.368 . S
C987 C968 1.429 . S
C987 C981 1.429 . S
C987 C988 1.523 . S
C988 C969 1.368 . S
C988 C982 1.368 . S
C988 C987 1.523 . S
C989 C973 1.429 . S
C989 C985 1.429 . S
C989 C990 1.523 . S
C990 C974 1.368 . S
C990 C986 1.368 . S
C990 C989 1.523 . S
H991 C966 0.950 . S
H992 C968 0.950 . S
H993 C969 0.949 . S
H994 C971 0.950 . S
H995 C973 0.950 . S
C996 C997 1.349 . S
C996 C998 1.327 . S
C996 H1021 0.950 . S
C997 C996 1.349 . S
C997 C1013 1.349 . S
C998 C996 1.327 . S
C998 C1017 1.429 . S
C998 H1022 0.950 . S
C999 C1016 1.574 . S
C999 C1018 1.368 . S
C999 H1023 0.949 . S
H1000 C1004 0.949 . S
C1001 C1002 1.349 . S
C1001 C1003 1.327 . S
C1001 H1024 0.950 . S
C1002 C1001 1.349 . S
C1002 C1014 1.349 . S
C1003 C1001 1.327 . S
C1003 C1019 1.429 . S
C1003 H1025 0.950 . S
C1004 H1000 0.949 . S
C1004 C1012 1.574 . S
C1004 C1020 1.368 . S
H1005 C1013 0.950 . S
H1006 C1011 0.950 . S
H1007 C1012 0.949 . S
H1008 C1014 0.950 . S
H1009 C1015 0.950 . S
H1010 C1016 0.949 . S
C1011 H1006 0.950 . S
C1011 C1013 1.327 . S
C1011 C1017 1.429 . S
C1012 C1004 1.574 . S
C1012 H1007 0.949 . S
C1012 C1018 1.368 . S
C1013 C997 1.349 . S
C1013 H1005 0.950 . S
C1013 C1011 1.327 . S
C1014 C1002 1.349 . S
C1014 H1008 0.950 . S
C1014 C1015 1.327 . S
C1015 H1009 0.950 . S
C1015 C1014 1.327 . S
C1015 C1019 1.429 . S
C1016 C999 1.574 . S
C1016 H1010 0.949 . S
C1016 C1020 1.368 . S
C1017 C998 1.429 . S
C1017 C1011 1.429 . S
C1017 C1018 1.523 . S
C1018 C999 1.368 . S
C1018 C1012 1.368 . S
C1018 C1017 1.523 . S
C1019 C1003 1.429 . S
C1019 C1015 1.429 . S
C1019 C1020 1.523 . S
C1020 C1004 1.368 . S
C1020 C1016 1.368 . S
C1020 C1019 1.523 . S
H1021 C996 0.950 . S
H1022 C998 0.950 . S
H1023 C999 0.949 . S
H1024 C1001 0.950 . S
H1025 C1003 0.950 . S
C1026 C1027 1.349 . S
C1026 C1028 1.327 . S
C1026 H1051 0.950 . S
C1027 C1026 1.349 . S
C1027 C1043 1.349 . S
C1028 C1026 1.327 . S
C1028 C1047 1.429 . S
C1028 H1052 0.950 . S
C1029 C1046 1.574 . S
C1029 C1048 1.368 . S
C1029 H1053 0.949 . S
H1030 C1034 0.949 . S
C1031 C1032 1.349 . S
C1031 C1033 1.327 . S
C1031 H1054 0.950 . S
C1032 C1031 1.349 . S
C1032 C1044 1.349 . S
C1033 C1031 1.327 . S
C1033 C1049 1.429 . S
C1033 H1055 0.950 . S
C1034 H1030 0.949 . S
C1034 C1042 1.574 . S
C1034 C1050 1.368 . S
H1035 C1043 0.950 . S
H1036 C1041 0.950 . S
H1037 C1042 0.949 . S
H1038 C1044 0.950 . S
H1039 C1045 0.950 . S
H1040 C1046 0.949 . S
C1041 H1036 0.950 . S
C1041 C1043 1.327 . S
C1041 C1047 1.429 . S
C1042 C1034 1.574 . S
C1042 H1037 0.949 . S
C1042 C1048 1.368 . S
C1043 C1027 1.349 . S
C1043 H1035 0.950 . S
C1043 C1041 1.327 . S
C1044 C1032 1.349 . S
C1044 H1038 0.950 . S
C1044 C1045 1.327 . S
C1045 H1039 0.950 . S
C1045 C1044 1.327 . S
C1045 C1049 1.429 . S
C1046 C1029 1.574 . S
C1046 H1040 0.949 . S
C1046 C1050 1.368 . S
C1047 C1028 1.429 . S
C1047 C1041 1.429 . S
C1047 C1048 1.523 . S
C1048 C1029 1.368 . S
C1048 C1042 1.368 . S
C1048 C1047 1.523 . S
C1049 C1033 1.429 . S
C1049 C1045 1.429 . S
C1049 C1050 1.523 . S
C1050 C1034 1.368 . S
C1050 C1046 1.368 . S
C1050 C1049 1.523 . S
H1051 C1026 0.950 . S
H1052 C1028 0.950 . S
H1053 C1029 0.949 . S
H1054 C1031 0.950 . S
H1055 C1033 0.950 . S
C1056 C1057 1.349 . S
C1056 C1058 1.327 . S
C1056 H1081 0.950 . S
C1057 C1056 1.349 . S
C1057 C1073 1.349 . S
C1058 C1056 1.327 . S
C1058 C1077 1.429 . S
C1058 H1082 0.950 . S
C1059 C1076 1.574 . S
C1059 C1078 1.368 . S
C1059 H1083 0.949 . S
H1060 C1064 0.949 . S
C1061 C1062 1.349 . S
C1061 C1063 1.327 . S
C1061 H1084 0.950 . S
C1062 C1061 1.349 . S
C1062 C1074 1.349 . S
C1063 C1061 1.327 . S
C1063 C1079 1.429 . S
C1063 H1085 0.950 . S
C1064 H1060 0.949 . S
C1064 C1072 1.574 . S
C1064 C1080 1.368 . S
H1065 C1073 0.950 . S
H1066 C1071 0.950 . S
H1067 C1072 0.949 . S
H1068 C1074 0.950 . S
H1069 C1075 0.950 . S
H1070 C1076 0.949 . S
C1071 H1066 0.950 . S
C1071 C1073 1.327 . S
C1071 C1077 1.429 . S
C1072 C1064 1.574 . S
C1072 H1067 0.949 . S
C1072 C1078 1.368 . S
C1073 C1057 1.349 . S
C1073 H1065 0.950 . S
C1073 C1071 1.327 . S
C1074 C1062 1.349 . S
C1074 H1068 0.950 . S
C1074 C1075 1.327 . S
C1075 H1069 0.950 . S
C1075 C1074 1.327 . S
C1075 C1079 1.429 . S
C1076 C1059 1.574 . S
C1076 H1070 0.949 . S
C1076 C1080 1.368 . S
C1077 C1058 1.429 . S
C1077 C1071 1.429 . S
C1077 C1078 1.523 . S
C1078 C1059 1.368 . S
C1078 C1072 1.368 . S
C1078 C1077 1.523 . S
C1079 C1063 1.429 . S
C1079 C1075 1.429 . S
C1079 C1080 1.523 . S
C1080 C1064 1.368 . S
C1080 C1076 1.368 . S
C1080 C1079 1.523 . S
H1081 C1056 0.950 . S
H1082 C1058 0.950 . S
H1083 C1059 0.949 . S
H1084 C1061 0.950 . S
H1085 C1063 0.950 . S
C1086 C1087 1.349 . S
C1086 C1088 1.327 . S
C1086 H1111 0.950 . S
C1087 C1086 1.349 . S
C1087 C1103 1.349 . S
C1088 C1086 1.327 . S
C1088 C1107 1.429 . S
C1088 H1112 0.950 . S
C1089 C1106 1.574 . S
C1089 C1108 1.368 . S
C1089 H1113 0.949 . S
H1090 C1094 0.949 . S
C1091 C1092 1.349 . S
C1091 C1093 1.327 . S
C1091 H1114 0.950 . S
C1092 C1091 1.349 . S
C1092 C1104 1.349 . S
C1093 C1091 1.327 . S
C1093 C1109 1.429 . S
C1093 H1115 0.950 . S
C1094 H1090 0.949 . S
C1094 C1102 1.574 . S
C1094 C1110 1.368 . S
H1095 C1103 0.950 . S
H1096 C1101 0.950 . S
H1097 C1102 0.949 . S
H1098 C1104 0.950 . S
H1099 C1105 0.950 . S
H1100 C1106 0.949 . S
C1101 H1096 0.950 . S
C1101 C1103 1.327 . S
C1101 C1107 1.429 . S
C1102 C1094 1.574 . S
C1102 H1097 0.949 . S
C1102 C1108 1.368 . S
C1103 C1087 1.349 . S
C1103 H1095 0.950 . S
C1103 C1101 1.327 . S
C1104 C1092 1.349 . S
C1104 H1098 0.950 . S
C1104 C1105 1.327 . S
C1105 H1099 0.950 . S
C1105 C1104 1.327 . S
C1105 C1109 1.429 . S
C1106 C1089 1.574 . S
C1106 H1100 0.949 . S
C1106 C1110 1.368 . S
C1107 C1088 1.429 . S
C1107 C1101 1.429 . S
C1107 C1108 1.523 . S
C1108 C1089 1.368 . S
C1108 C1102 1.368 . S
C1108 C1107 1.523 . S
C1109 C1093 1.429 . S
C1109 C1105 1.429 . S
C1109 C1110 1.523 . S
C1110 C1094 1.368 . S
C1110 C1106 1.368 . S
C1110 C1109 1.523 . S
H1111 C1086 0.950 . S
H1112 C1088 0.950 . S
H1113 C1089 0.949 . S
H1114 C1091 0.950 . S
H1115 C1093 0.950 . S
C1116 C1117 1.349 . S
C1116 C1118 1.327 . S
C1116 H1141 0.950 . S
C1117 C1116 1.349 . S
C1117 C1133 1.349 . S
C1118 C1116 1.327 . S
C1118 C1137 1.429 . S
C1118 H1142 0.950 . S
C1119 C1136 1.574 . S
C1119 C1138 1.368 . S
C1119 H1143 0.949 . S
H1120 C1124 0.949 . S
C1121 C1122 1.349 . S
C1121 C1123 1.327 . S
C1121 H1144 0.950 1_554 S
C1122 C1121 1.349 . S
C1122 C1134 1.349 . S
C1123 C1121 1.327 . S
C1123 C1139 1.429 . S
C1123 H1145 0.950 . S
C1124 H1120 0.949 . S
C1124 C1132 1.574 . S
C1124 C1140 1.368 . S
H1125 C1133 0.950 . S
H1126 C1131 0.950 . S
H1127 C1132 0.949 . S
H1128 C1134 0.950 . S
H1129 C1135 0.950 . S
H1130 C1136 0.949 . S
C1131 H1126 0.950 . S
C1131 C1133 1.327 . S
C1131 C1137 1.429 . S
C1132 C1124 1.574 . S
C1132 H1127 0.949 . S
C1132 C1138 1.368 . S
C1133 C1117 1.349 . S
C1133 H1125 0.950 . S
C1133 C1131 1.327 . S
C1134 C1122 1.349 . S
C1134 H1128 0.950 . S
C1134 C1135 1.327 . S
C1135 H1129 0.950 . S
C1135 C1134 1.327 . S
C1135 C1139 1.429 . S
C1136 C1119 1.574 . S
C1136 H1130 0.949 . S
C1136 C1140 1.368 . S
C1137 C1118 1.429 . S
C1137 C1131 1.429 . S
C1137 C1138 1.523 . S
C1138 C1119 1.368 . S
C1138 C1132 1.368 . S
C1138 C1137 1.523 . S
C1139 C1123 1.429 . S
C1139 C1135 1.429 . S
C1139 C1140 1.523 . S
C1140 C1124 1.368 . S
C1140 C1136 1.368 . S
C1140 C1139 1.523 . S
H1141 C1116 0.950 . S
H1142 C1118 0.950 . S
H1143 C1119 0.949 . S
H1144 C1121 0.950 1_556 S
H1145 C1123 0.950 . S
C1146 C1147 1.349 . S
C1146 C1148 1.327 . S
C1146 H1171 0.950 . S
C1147 C1146 1.349 . S
C1147 C1163 1.349 . S
C1148 C1146 1.327 . S
C1148 C1167 1.429 . S
C1148 H1172 0.950 . S
C1149 C1166 1.574 . S
C1149 C1168 1.368 . S
C1149 H1173 0.949 . S
H1150 C1154 0.949 . S
C1151 C1152 1.349 . S
C1151 C1153 1.327 . S
C1151 H1174 0.950 . S
C1152 C1151 1.349 . S
C1152 C1164 1.349 . S
C1153 C1151 1.327 . S
C1153 C1169 1.429 . S
C1153 H1175 0.950 . S
C1154 H1150 0.949 . S
C1154 C1162 1.574 . S
C1154 C1170 1.368 . S
H1155 C1163 0.950 . S
H1156 C1161 0.950 . S
H1157 C1162 0.949 . S
H1158 C1164 0.950 . S
H1159 C1165 0.950 . S
H1160 C1166 0.949 . S
C1161 H1156 0.950 . S
C1161 C1163 1.327 . S
C1161 C1167 1.429 . S
C1162 C1154 1.574 . S
C1162 H1157 0.949 . S
C1162 C1168 1.368 . S
C1163 C1147 1.349 . S
C1163 H1155 0.950 . S
C1163 C1161 1.327 . S
C1164 C1152 1.349 . S
C1164 H1158 0.950 . S
C1164 C1165 1.327 . S
C1165 H1159 0.950 . S
C1165 C1164 1.327 . S
C1165 C1169 1.429 . S
C1166 C1149 1.574 . S
C1166 H1160 0.949 . S
C1166 C1170 1.368 . S
C1167 C1148 1.429 . S
C1167 C1161 1.429 . S
C1167 C1168 1.523 . S
C1168 C1149 1.368 . S
C1168 C1162 1.368 . S
C1168 C1167 1.523 . S
C1169 C1153 1.429 . S
C1169 C1165 1.429 . S
C1169 C1170 1.523 . S
C1170 C1154 1.368 . S
C1170 C1166 1.368 . S
C1170 C1169 1.523 . S
H1171 C1146 0.950 . S
H1172 C1148 0.950 . S
H1173 C1149 0.949 . S
H1174 C1151 0.950 . S
H1175 C1153 0.950 . S
C1176 C1177 1.349 . S
C1176 C1178 1.327 . S
C1176 H1201 0.950 . S
C1177 C1176 1.349 . S
C1177 C1193 1.349 . S
C1178 C1176 1.327 . S
C1178 C1197 1.429 . S
C1178 H1202 0.950 . S
C1179 C1196 1.574 . S
C1179 C1198 1.368 . S
C1179 H1203 0.949 . S
H1180 C1184 0.949 . S
C1181 C1182 1.349 . S
C1181 C1183 1.327 . S
C1181 H1204 0.950 . S
C1182 C1181 1.349 . S
C1182 C1194 1.380 . S
C1183 C1181 1.327 . S
C1183 C1199 1.429 . S
C1183 H1205 0.950 . S
C1184 H1180 0.949 . S
C1184 C1192 1.574 . S
C1184 C1200 1.368 . S
H1185 C1193 0.950 . S
H1186 C1191 0.950 . S
H1187 C1192 0.949 . S
H1188 C1194 0.837 1_556 S
H1189 C1195 0.950 . S
H1190 C1196 0.949 . S
C1191 H1186 0.950 . S
C1191 C1193 1.327 . S
C1191 C1197 1.429 . S
C1192 C1184 1.574 . S
C1192 H1187 0.949 . S
C1192 C1198 1.368 . S
C1193 C1177 1.349 . S
C1193 H1185 0.950 . S
C1193 C1191 1.327 . S
C1194 C1182 1.380 . S
C1194 H1188 0.837 1_554 S
C1194 C1195 1.417 . S
C1195 H1189 0.950 . S
C1195 C1194 1.417 . S
C1195 C1199 1.429 . S
C1196 C1179 1.574 . S
C1196 H1190 0.949 . S
C1196 C1200 1.368 . S
C1197 C1178 1.429 . S
C1197 C1191 1.429 . S
C1197 C1198 1.523 . S
C1198 C1179 1.368 . S
C1198 C1192 1.368 . S
C1198 C1197 1.523 . S
C1199 C1183 1.429 . S
C1199 C1195 1.429 . S
C1199 C1200 1.523 . S
C1200 C1184 1.368 . S
C1200 C1196 1.368 . S
C1200 C1199 1.523 . S
H1201 C1176 0.950 . S
H1202 C1178 0.950 . S
H1203 C1179 0.949 . S
H1204 C1181 0.950 . S
H1205 C1183 0.950 . S
C1206 C1207 1.349 . S
C1206 C1208 1.327 . S
C1206 H1231 0.950 . S
C1207 C1206 1.349 . S
C1207 C1223 1.349 . S
C1208 C1206 1.327 . S
C1208 C1227 1.429 . S
C1208 H1232 0.950 . S
C1209 C1226 1.574 . S
C1209 C1228 1.368 . S
C1209 H1233 0.949 . S
H1210 C1214 0.949 . S
C1211 C1212 1.349 . S
C1211 C1213 1.327 . S
C1211 H1234 0.950 . S
C1212 C1211 1.349 . S
C1212 C1224 1.349 . S
C1213 C1211 1.327 . S
C1213 C1229 1.429 . S
C1213 H1235 0.950 . S
C1214 H1210 0.949 . S
C1214 C1222 1.574 . S
C1214 C1230 1.368 . S
H1215 C1223 0.950 . S
H1216 C1221 0.950 . S
H1217 C1222 0.949 . S
H1218 C1224 0.950 . S
H1219 C1225 0.950 . S
H1220 C1226 0.949 . S
C1221 H1216 0.950 . S
C1221 C1223 1.327 . S
C1221 C1227 1.429 . S
C1222 C1214 1.574 . S
C1222 H1217 0.949 . S
C1222 C1228 1.368 . S
C1223 C1207 1.349 . S
C1223 H1215 0.950 . S
C1223 C1221 1.327 . S
C1224 C1212 1.349 . S
C1224 H1218 0.950 . S
C1224 C1225 1.327 . S
C1225 H1219 0.950 . S
C1225 C1224 1.327 . S
C1225 C1229 1.429 . S
C1226 C1209 1.574 . S
C1226 H1220 0.949 . S
C1226 C1230 1.368 . S
C1227 C1208 1.429 . S
C1227 C1221 1.429 . S
C1227 C1228 1.523 . S
C1228 C1209 1.368 . S
C1228 C1222 1.368 . S
C1228 C1227 1.523 . S
C1229 C1213 1.429 . S
C1229 C1225 1.429 . S
C1229 C1230 1.523 . S
C1230 C1214 1.368 . S
C1230 C1226 1.368 . S
C1230 C1229 1.523 . S
H1231 C1206 0.950 . S
H1232 C1208 0.950 . S
H1233 C1209 0.949 . S
H1234 C1211 0.950 . S
H1235 C1213 0.950 . S
C1236 C1237 1.349 . S
C1236 C1238 1.327 . S
C1236 H1261 0.950 . S
C1237 C1236 1.349 . S
C1237 C1253 1.349 . S
C1238 C1236 1.327 . S
C1238 C1257 1.429 . S
C1238 H1262 0.950 . S
C1239 C1256 1.574 . S
C1239 C1258 1.368 . S
C1239 H1263 0.949 . S
H1240 C1244 0.949 . S
C1241 C1242 1.349 . S
C1241 C1243 1.327 . S
C1241 H1264 0.950 . S
C1242 C1241 1.349 . S
C1242 C1254 1.349 . S
C1243 C1241 1.327 . S
C1243 C1259 1.429 . S
C1243 H1265 0.950 . S
C1244 H1240 0.949 . S
C1244 C1252 1.574 . S
C1244 C1260 1.368 . S
H1245 C1253 0.950 . S
H1246 C1251 0.950 . S
H1247 C1252 0.949 . S
H1248 C1254 0.950 . S
H1249 C1255 0.950 . S
H1250 C1256 0.949 . S
C1251 H1246 0.950 . S
C1251 C1253 1.327 . S
C1251 C1257 1.429 . S
C1252 C1244 1.574 . S
C1252 H1247 0.949 . S
C1252 C1258 1.368 . S
C1253 C1237 1.349 . S
C1253 H1245 0.950 . S
C1253 C1251 1.327 . S
C1254 C1242 1.349 . S
C1254 H1248 0.950 . S
C1254 C1255 1.327 . S
C1255 H1249 0.950 . S
C1255 C1254 1.327 . S
C1255 C1259 1.429 . S
C1256 C1239 1.574 . S
C1256 H1250 0.949 . S
C1256 C1260 1.368 . S
C1257 C1238 1.429 . S
C1257 C1251 1.429 . S
C1257 C1258 1.523 . S
C1258 C1239 1.368 . S
C1258 C1252 1.368 . S
C1258 C1257 1.523 . S
C1259 C1243 1.429 . S
C1259 C1255 1.429 . S
C1259 C1260 1.523 . S
C1260 C1244 1.368 . S
C1260 C1256 1.368 . S
C1260 C1259 1.523 . S
H1261 C1236 0.950 . S
H1262 C1238 0.950 . S
H1263 C1239 0.949 . S
H1264 C1241 0.950 . S
H1265 C1243 0.950 . S
C1266 C1267 1.349 . S
C1266 C1268 1.327 . S
C1266 H1291 0.950 . S
C1267 C1266 1.349 . S
C1267 C1283 1.349 . S
C1268 C1266 1.327 . S
C1268 C1287 1.429 . S
C1268 H1292 0.950 . S
C1269 C1286 1.574 . S
C1269 C1288 1.368 . S
C1269 H1293 0.949 . S
H1270 C1274 0.949 . S
C1271 C1272 1.349 . S
C1271 C1273 1.327 . S
C1271 H1294 0.950 . S
C1272 C1271 1.349 . S
C1272 C1284 1.349 . S
C1273 C1271 1.327 . S
C1273 C1289 1.429 . S
C1273 H1295 0.950 . S
C1274 H1270 0.949 . S
C1274 C1282 1.574 . S
C1274 C1290 1.368 . S
H1275 C1283 0.950 . S
H1276 C1281 0.950 . S
H1277 C1282 0.949 . S
H1278 C1284 0.950 . S
H1279 C1285 0.950 . S
H1280 C1286 0.949 . S
C1281 H1276 0.950 . S
C1281 C1283 1.327 . S
C1281 C1287 1.429 . S
C1282 C1274 1.574 . S
C1282 H1277 0.949 . S
C1282 C1288 1.368 . S
C1283 C1267 1.349 . S
C1283 H1275 0.950 . S
C1283 C1281 1.327 . S
C1284 C1272 1.349 . S
C1284 H1278 0.950 . S
C1284 C1285 1.327 . S
C1285 H1279 0.950 . S
C1285 C1284 1.327 . S
C1285 C1289 1.429 . S
C1286 C1269 1.574 . S
C1286 H1280 0.949 . S
C1286 C1290 1.368 . S
C1287 C1268 1.429 . S
C1287 C1281 1.429 . S
C1287 C1288 1.523 . S
C1288 C1269 1.368 . S
C1288 C1282 1.368 . S
C1288 C1287 1.523 . S
C1289 C1273 1.429 . S
C1289 C1285 1.429 . S
C1289 C1290 1.523 . S
C1290 C1274 1.368 . S
C1290 C1286 1.368 . S
C1290 C1289 1.523 . S
H1291 C1266 0.950 . S
H1292 C1268 0.950 . S
H1293 C1269 0.949 . S
H1294 C1271 0.950 . S
H1295 C1273 0.950 . S
C1296 C1297 1.349 . S
C1296 C1298 1.327 . S
C1296 H1321 0.950 . S
C1297 C1296 1.349 . S
C1297 C1313 1.349 . S
C1298 C1296 1.327 . S
C1298 C1317 1.429 . S
C1298 H1322 0.950 . S
C1299 C1316 1.574 . S
C1299 C1318 1.368 . S
C1299 H1323 0.949 . S
H1300 C1304 0.949 . S
C1301 C1302 1.349 . S
C1301 C1303 1.327 . S
C1301 H1324 0.950 1_556 S
C1302 C1301 1.349 . S
C1302 C1314 1.349 . S
C1303 C1301 1.327 . S
C1303 C1319 1.429 . S
C1303 H1325 0.950 . S
C1304 H1300 0.949 . S
C1304 C1312 1.574 . S
C1304 C1320 1.368 . S
H1305 C1313 0.950 . S
H1306 C1311 0.950 . S
H1307 C1312 0.949 . S
H1308 C1314 0.950 . S
H1309 C1315 0.950 . S
H1310 C1316 0.949 . S
C1311 H1306 0.950 . S
C1311 C1313 1.327 . S
C1311 C1317 1.429 . S
C1312 C1304 1.574 . S
C1312 H1307 0.949 . S
C1312 C1318 1.368 . S
C1313 C1297 1.349 . S
C1313 H1305 0.950 . S
C1313 C1311 1.327 . S
C1314 C1302 1.349 . S
C1314 H1308 0.950 . S
C1314 C1315 1.327 . S
C1315 H1309 0.950 . S
C1315 C1314 1.327 . S
C1315 C1319 1.429 . S
C1316 C1299 1.574 . S
C1316 H1310 0.949 . S
C1316 C1320 1.368 . S
C1317 C1298 1.429 . S
C1317 C1311 1.429 . S
C1317 C1318 1.523 . S
C1318 C1299 1.368 . S
C1318 C1312 1.368 . S
C1318 C1317 1.523 . S
C1319 C1303 1.429 . S
C1319 C1315 1.429 . S
C1319 C1320 1.523 . S
C1320 C1304 1.368 . S
C1320 C1316 1.368 . S
C1320 C1319 1.523 . S
H1321 C1296 0.950 . S
H1322 C1298 0.950 . S
H1323 C1299 0.949 . S
H1324 C1301 0.950 1_554 S
H1325 C1303 0.950 . S
C1326 C1327 1.349 . S
C1326 C1328 1.327 . S
C1326 H1351 0.950 . S
C1327 C1326 1.349 . S
C1327 C1343 1.349 . S
C1328 C1326 1.327 . S
C1328 C1347 1.429 . S
C1328 H1352 0.950 . S
C1329 C1346 1.574 . S
C1329 C1348 1.368 . S
C1329 H1353 0.949 . S
H1330 C1334 0.949 . S
C1331 C1332 1.349 . S
C1331 C1333 1.327 . S
C1331 H1354 0.950 . S
C1332 C1331 1.349 . S
C1332 C1344 1.349 . S
C1333 C1331 1.327 . S
C1333 C1349 1.429 . S
C1333 H1355 0.950 . S
C1334 H1330 0.949 . S
C1334 C1342 1.574 . S
C1334 C1350 1.368 . S
H1335 C1343 0.950 . S
H1336 C1341 0.950 . S
H1337 C1342 0.949 . S
H1338 C1344 0.950 . S
H1339 C1345 0.950 . S
H1340 C1346 0.949 . S
C1341 H1336 0.950 . S
C1341 C1343 1.327 . S
C1341 C1347 1.429 . S
C1342 C1334 1.574 . S
C1342 H1337 0.949 . S
C1342 C1348 1.368 . S
C1343 C1327 1.349 . S
C1343 H1335 0.950 . S
C1343 C1341 1.327 . S
C1344 C1332 1.349 . S
C1344 H1338 0.950 . S
C1344 C1345 1.327 . S
C1345 H1339 0.950 . S
C1345 C1344 1.327 . S
C1345 C1349 1.429 . S
C1346 C1329 1.574 . S
C1346 H1340 0.949 . S
C1346 C1350 1.368 . S
C1347 C1328 1.429 . S
C1347 C1341 1.429 . S
C1347 C1348 1.523 . S
C1348 C1329 1.368 . S
C1348 C1342 1.368 . S
C1348 C1347 1.523 . S
C1349 C1333 1.429 . S
C1349 C1345 1.429 . S
C1349 C1350 1.523 . S
C1350 C1334 1.368 . S
C1350 C1346 1.368 . S
C1350 C1349 1.523 . S
H1351 C1326 0.950 . S
H1352 C1328 0.950 . S
H1353 C1329 0.949 . S
H1354 C1331 0.950 . S
H1355 C1333 0.950 . S
C1356 C1357 1.349 . S
C1356 C1358 1.327 . S
C1356 H1381 0.950 . S
C1357 C1356 1.349 . S
C1357 C1373 1.349 . S
C1358 C1356 1.327 . S
C1358 C1377 1.429 . S
C1358 H1382 0.950 . S
C1359 C1376 1.574 . S
C1359 C1378 1.368 . S
C1359 H1383 0.949 . S
H1360 C1364 0.949 . S
C1361 C1362 1.369 . S
C1361 C1363 1.381 . S
C1361 H1384 0.878 1_556 S
C1362 C1361 1.369 . S
C1362 C1374 1.349 . S
C1363 C1361 1.381 . S
C1363 C1379 1.429 . S
C1363 H1385 0.950 . S
C1364 H1360 0.949 . S
C1364 C1372 1.574 . S
C1364 C1380 1.368 . S
H1365 C1373 0.950 . S
H1366 C1371 0.950 . S
H1367 C1372 0.949 . S
H1368 C1374 0.950 . S
H1369 C1375 0.950 . S
H1370 C1376 0.949 . S
C1371 H1366 0.950 . S
C1371 C1373 1.327 . S
C1371 C1377 1.429 . S
C1372 C1364 1.574 . S
C1372 H1367 0.949 . S
C1372 C1378 1.368 . S
C1373 C1357 1.349 . S
C1373 H1365 0.950 . S
C1373 C1371 1.327 . S
C1374 C1362 1.349 . S
C1374 H1368 0.950 . S
C1374 C1375 1.327 . S
C1375 H1369 0.950 . S
C1375 C1374 1.327 . S
C1375 C1379 1.429 . S
C1376 C1359 1.574 . S
C1376 H1370 0.949 . S
C1376 C1380 1.368 . S
C1377 C1358 1.429 . S
C1377 C1371 1.429 . S
C1377 C1378 1.523 . S
C1378 C1359 1.368 . S
C1378 C1372 1.368 . S
C1378 C1377 1.523 . S
C1379 C1363 1.429 . S
C1379 C1375 1.429 . S
C1379 C1380 1.523 . S
C1380 C1364 1.368 . S
C1380 C1376 1.368 . S
C1380 C1379 1.523 . S
H1381 C1356 0.950 . S
H1382 C1358 0.950 . S
H1383 C1359 0.949 . S
H1384 C1361 0.878 1_554 S
H1385 C1363 0.950 . S
C1386 C1387 1.349 . S
C1386 C1388 1.327 . S
C1386 H1411 0.950 . S
C1387 C1386 1.349 . S
C1387 C1403 1.349 . S
C1388 C1386 1.327 . S
C1388 C1407 1.429 . S
C1388 H1412 0.950 . S
C1389 C1406 1.574 . S
C1389 C1408 1.368 . S
C1389 H1413 0.949 . S
H1390 C1394 0.949 . S
C1391 C1392 1.349 . S
C1391 C1393 1.327 . S
C1391 H1414 0.950 . S
C1392 C1391 1.349 . S
C1392 C1404 1.349 . S
C1393 C1391 1.327 . S
C1393 C1409 1.429 . S
C1393 H1415 0.950 . S
C1394 H1390 0.949 . S
C1394 C1402 1.574 . S
C1394 C1410 1.368 . S
H1395 C1403 0.950 . S
H1396 C1401 0.950 . S
H1397 C1402 0.949 . S
H1398 C1404 0.950 . S
H1399 C1405 0.950 . S
H1400 C1406 0.949 . S
C1401 H1396 0.950 . S
C1401 C1403 1.327 . S
C1401 C1407 1.429 . S
C1402 C1394 1.574 . S
C1402 H1397 0.949 . S
C1402 C1408 1.368 . S
C1403 C1387 1.349 . S
C1403 H1395 0.950 . S
C1403 C1401 1.327 . S
C1404 C1392 1.349 . S
C1404 H1398 0.950 . S
C1404 C1405 1.327 . S
C1405 H1399 0.950 . S
C1405 C1404 1.327 . S
C1405 C1409 1.429 . S
C1406 C1389 1.574 . S
C1406 H1400 0.949 . S
C1406 C1410 1.368 . S
C1407 C1388 1.429 . S
C1407 C1401 1.429 . S
C1407 C1408 1.523 . S
C1408 C1389 1.368 . S
C1408 C1402 1.368 . S
C1408 C1407 1.523 . S
C1409 C1393 1.429 . S
C1409 C1405 1.429 . S
C1409 C1410 1.523 . S
C1410 C1394 1.368 . S
C1410 C1406 1.368 . S
C1410 C1409 1.523 . S
H1411 C1386 0.950 . S
H1412 C1388 0.950 . S
H1413 C1389 0.949 . S
H1414 C1391 0.950 . S
H1415 C1393 0.950 . S
C1416 C1417 1.349 . S
C1416 C1418 1.327 . S
C1416 H1441 0.950 . S
C1417 C1416 1.349 . S
C1417 C1433 1.349 . S
C1418 C1416 1.327 . S
C1418 C1437 1.429 . S
C1418 H1442 0.950 . S
C1419 C1436 1.574 . S
C1419 C1438 1.368 . S
C1419 H1443 0.949 . S
H1420 C1424 0.949 . S
C1421 C1422 1.349 . S
C1421 C1423 1.327 . S
C1421 H1444 0.950 . S
C1422 C1421 1.349 . S
C1422 C1434 1.349 . S
C1423 C1421 1.327 . S
C1423 C1439 1.429 . S
C1423 H1445 0.950 . S
C1424 H1420 0.949 . S
C1424 C1432 1.574 . S
C1424 C1440 1.368 . S
H1425 C1433 0.950 . S
H1426 C1431 0.950 . S
H1427 C1432 0.949 . S
H1428 C1434 0.950 . S
H1429 C1435 0.950 . S
H1430 C1436 0.949 . S
C1431 H1426 0.950 . S
C1431 C1433 1.327 . S
C1431 C1437 1.429 . S
C1432 C1424 1.574 . S
C1432 H1427 0.949 . S
C1432 C1438 1.368 . S
C1433 C1417 1.349 . S
C1433 H1425 0.950 . S
C1433 C1431 1.327 . S
C1434 C1422 1.349 . S
C1434 H1428 0.950 . S
C1434 C1435 1.327 . S
C1435 H1429 0.950 . S
C1435 C1434 1.327 . S
C1435 C1439 1.429 . S
C1436 C1419 1.574 . S
C1436 H1430 0.949 . S
C1436 C1440 1.368 . S
C1437 C1418 1.429 . S
C1437 C1431 1.429 . S
C1437 C1438 1.523 . S
C1438 C1419 1.368 . S
C1438 C1432 1.368 . S
C1438 C1437 1.523 . S
C1439 C1423 1.429 . S
C1439 C1435 1.429 . S
C1439 C1440 1.523 . S
C1440 C1424 1.368 . S
C1440 C1436 1.368 . S
C1440 C1439 1.523 . S
H1441 C1416 0.950 . S
H1442 C1418 0.950 . S
H1443 C1419 0.949 . S
H1444 C1421 0.950 . S
H1445 C1423 0.950 . S
C1446 C1447 1.349 . S
C1446 C1448 1.327 . S
C1446 H1471 0.950 . S
C1447 C1446 1.349 . S
C1447 C1463 1.349 . S
C1448 C1446 1.327 . S
C1448 C1467 1.429 . S
C1448 H1472 0.950 . S
C1449 C1466 1.574 . S
C1449 C1468 1.368 . S
C1449 H1473 0.949 . S
H1450 C1454 0.949 . S
C1451 C1452 1.349 . S
C1451 C1453 1.327 . S
C1451 H1474 0.950 . S
C1452 C1451 1.349 . S
C1452 C1464 1.349 . S
C1453 C1451 1.327 . S
C1453 C1469 1.429 . S
C1453 H1475 0.950 . S
C1454 H1450 0.949 . S
C1454 C1462 1.574 . S
C1454 C1470 1.368 . S
H1455 C1463 0.950 . S
H1456 C1461 0.950 . S
H1457 C1462 0.949 . S
H1458 C1464 0.950 . S
H1459 C1465 0.950 . S
H1460 C1466 0.949 . S
C1461 H1456 0.950 . S
C1461 C1463 1.327 . S
C1461 C1467 1.429 . S
C1462 C1454 1.574 . S
C1462 H1457 0.949 . S
C1462 C1468 1.368 . S
C1463 C1447 1.349 . S
C1463 H1455 0.950 . S
C1463 C1461 1.327 . S
C1464 C1452 1.349 . S
C1464 H1458 0.950 . S
C1464 C1465 1.327 . S
C1465 H1459 0.950 . S
C1465 C1464 1.327 . S
C1465 C1469 1.429 . S
C1466 C1449 1.574 . S
C1466 H1460 0.949 . S
C1466 C1470 1.368 . S
C1467 C1448 1.429 . S
C1467 C1461 1.429 . S
C1467 C1468 1.523 . S
C1468 C1449 1.368 . S
C1468 C1462 1.368 . S
C1468 C1467 1.523 . S
C1469 C1453 1.429 . S
C1469 C1465 1.429 . S
C1469 C1470 1.523 . S
C1470 C1454 1.368 . S
C1470 C1466 1.368 . S
C1470 C1469 1.523 . S
H1471 C1446 0.950 . S
H1472 C1448 0.950 . S
H1473 C1449 0.949 . S
H1474 C1451 0.950 . S
H1475 C1453 0.950 . S
C1476 C1477 1.349 . S
C1476 C1478 1.327 . S
C1476 H1501 0.950 . S
C1477 C1476 1.349 . S
C1477 C1493 1.349 . S
C1478 C1476 1.327 . S
C1478 C1497 1.429 . S
C1478 H1502 0.950 . S
C1479 C1496 1.574 . S
C1479 C1498 1.368 . S
C1479 H1503 0.949 . S
H1480 C1484 0.949 . S
C1481 C1482 1.349 . S
C1481 C1483 1.327 . S
C1481 H1504 0.950 . S
C1482 C1481 1.349 . S
C1482 C1494 1.349 . S
C1483 C1481 1.327 . S
C1483 C1499 1.429 . S
C1483 H1505 0.950 . S
C1484 H1480 0.949 . S
C1484 C1492 1.574 . S
C1484 C1500 1.368 . S
H1485 C1493 0.950 . S
H1486 C1491 0.950 . S
H1487 C1492 0.949 . S
H1488 C1494 0.950 . S
H1489 C1495 0.950 . S
H1490 C1496 0.949 . S
C1491 H1486 0.950 . S
C1491 C1493 1.327 . S
C1491 C1497 1.429 . S
C1492 C1484 1.574 . S
C1492 H1487 0.949 . S
C1492 C1498 1.368 . S
C1493 C1477 1.349 . S
C1493 H1485 0.950 . S
C1493 C1491 1.327 . S
C1494 C1482 1.349 . S
C1494 H1488 0.950 . S
C1494 C1495 1.327 . S
C1495 H1489 0.950 . S
C1495 C1494 1.327 . S
C1495 C1499 1.429 . S
C1496 C1479 1.574 . S
C1496 H1490 0.949 . S
C1496 C1500 1.368 . S
C1497 C1478 1.429 . S
C1497 C1491 1.429 . S
C1497 C1498 1.523 . S
C1498 C1479 1.368 . S
C1498 C1492 1.368 . S
C1498 C1497 1.523 . S
C1499 C1483 1.429 . S
C1499 C1495 1.429 . S
C1499 C1500 1.523 . S
C1500 C1484 1.368 . S
C1500 C1496 1.368 . S
C1500 C1499 1.523 . S
H1501 C1476 0.950 . S
H1502 C1478 0.950 . S
H1503 C1479 0.949 . S
H1504 C1481 0.950 . S
H1505 C1483 0.950 . S
C1506 C1507 1.349 . S
C1506 C1508 1.327 . S
C1506 H1531 0.950 . S
C1507 C1506 1.349 . S
C1507 C1523 1.349 . S
C1508 C1506 1.327 . S
C1508 C1527 1.429 . S
C1508 H1532 0.950 . S
C1509 C1526 1.574 . S
C1509 C1528 1.368 . S
C1509 H1533 0.949 . S
H1510 C1514 0.949 . S
C1511 C1512 1.349 . S
C1511 C1513 1.327 . S
C1511 H1534 0.950 . S
C1512 C1511 1.349 . S
C1512 C1524 1.349 . S
C1513 C1511 1.327 . S
C1513 C1529 1.429 . S
C1513 H1535 0.950 . S
C1514 H1510 0.949 . S
C1514 C1522 1.574 . S
C1514 C1530 1.368 . S
H1515 C1523 0.950 . S
H1516 C1521 0.950 . S
H1517 C1522 0.949 . S
H1518 C1524 0.950 . S
H1519 C1525 0.950 . S
H1520 C1526 0.949 . S
C1521 H1516 0.950 . S
C1521 C1523 1.327 . S
C1521 C1527 1.429 . S
C1522 C1514 1.574 . S
C1522 H1517 0.949 . S
C1522 C1528 1.368 . S
C1523 C1507 1.349 . S
C1523 H1515 0.950 . S
C1523 C1521 1.327 . S
C1524 C1512 1.349 . S
C1524 H1518 0.950 . S
C1524 C1525 1.327 . S
C1525 H1519 0.950 . S
C1525 C1524 1.327 . S
C1525 C1529 1.429 . S
C1526 C1509 1.574 . S
C1526 H1520 0.949 . S
C1526 C1530 1.368 . S
C1527 C1508 1.429 . S
C1527 C1521 1.429 . S
C1527 C1528 1.523 . S
C1528 C1509 1.368 . S
C1528 C1522 1.368 . S
C1528 C1527 1.523 . S
C1529 C1513 1.429 . S
C1529 C1525 1.429 . S
C1529 C1530 1.523 . S
C1530 C1514 1.368 . S
C1530 C1526 1.368 . S
C1530 C1529 1.523 . S
H1531 C1506 0.950 . S
H1532 C1508 0.950 . S
H1533 C1509 0.949 . S
H1534 C1511 0.950 . S
H1535 C1513 0.950 . S
C1536 C1537 1.349 . S
C1536 C1538 1.327 . S
C1536 H1561 0.950 . S
C1537 C1536 1.349 . S
C1537 C1553 1.349 . S
C1538 C1536 1.327 . S
C1538 C1557 1.429 . S
C1538 H1562 0.950 . S
C1539 C1556 1.574 . S
C1539 C1558 1.368 . S
C1539 H1563 0.949 . S
H1540 C1544 0.949 . S
C1541 C1542 1.349 . S
C1541 C1543 1.327 . S
C1541 H1564 0.950 . S
C1542 C1541 1.349 . S
C1542 C1554 1.349 . S
C1543 C1541 1.327 . S
C1543 C1559 1.429 . S
C1543 H1565 0.950 . S
C1544 H1540 0.949 . S
C1544 C1552 1.574 . S
C1544 C1560 1.368 . S
H1545 C1553 0.950 . S
H1546 C1551 0.950 . S
H1547 C1552 0.949 . S
H1548 C1554 0.950 . S
H1549 C1555 0.950 . S
H1550 C1556 0.949 . S
C1551 H1546 0.950 . S
C1551 C1553 1.327 . S
C1551 C1557 1.429 . S
C1552 C1544 1.574 . S
C1552 H1547 0.949 . S
C1552 C1558 1.368 . S
C1553 C1537 1.349 . S
C1553 H1545 0.950 . S
C1553 C1551 1.327 . S
C1554 C1542 1.349 . S
C1554 H1548 0.950 . S
C1554 C1555 1.327 . S
C1555 H1549 0.950 . S
C1555 C1554 1.327 . S
C1555 C1559 1.429 . S
C1556 C1539 1.574 . S
C1556 H1550 0.949 . S
C1556 C1560 1.368 . S
C1557 C1538 1.429 . S
C1557 C1551 1.429 . S
C1557 C1558 1.523 . S
C1558 C1539 1.368 . S
C1558 C1552 1.368 . S
C1558 C1557 1.523 . S
C1559 C1543 1.429 . S
C1559 C1555 1.429 . S
C1559 C1560 1.523 . S
C1560 C1544 1.368 . S
C1560 C1556 1.368 . S
C1560 C1559 1.523 . S
H1561 C1536 0.950 . S
H1562 C1538 0.950 . S
H1563 C1539 0.949 . S
H1564 C1541 0.950 . S
H1565 C1543 0.950 . S
C1566 C1567 1.349 . S
C1566 C1568 1.327 . S
C1566 H1591 0.950 . S
C1567 C1566 1.349 . S
C1567 C1583 1.349 . S
C1568 C1566 1.327 . S
C1568 C1587 1.429 . S
C1568 H1592 0.950 . S
C1569 C1586 1.574 . S
C1569 C1588 1.368 . S
C1569 H1593 0.949 . S
H1570 C1574 0.949 . S
C1571 C1572 1.349 . S
C1571 C1573 1.327 . S
C1571 H1594 0.950 . S
C1572 C1571 1.349 . S
C1572 C1584 1.349 . S
C1573 C1571 1.327 . S
C1573 C1589 1.429 . S
C1573 H1595 0.950 . S
C1574 H1570 0.949 . S
C1574 C1582 1.574 . S
C1574 C1590 1.368 . S
H1575 C1583 0.950 . S
H1576 C1581 0.950 . S
H1577 C1582 0.949 . S
H1578 C1584 0.950 . S
H1579 C1585 0.950 . S
H1580 C1586 0.949 . S
C1581 H1576 0.950 . S
C1581 C1583 1.327 . S
C1581 C1587 1.429 . S
C1582 C1574 1.574 . S
C1582 H1577 0.949 . S
C1582 C1588 1.368 . S
C1583 C1567 1.349 . S
C1583 H1575 0.950 . S
C1583 C1581 1.327 . S
C1584 C1572 1.349 . S
C1584 H1578 0.950 . S
C1584 C1585 1.327 . S
C1585 H1579 0.950 . S
C1585 C1584 1.327 . S
C1585 C1589 1.429 . S
C1586 C1569 1.574 . S
C1586 H1580 0.949 . S
C1586 C1590 1.368 . S
C1587 C1568 1.429 . S
C1587 C1581 1.429 . S
C1587 C1588 1.523 . S
C1588 C1569 1.368 . S
C1588 C1582 1.368 . S
C1588 C1587 1.523 . S
C1589 C1573 1.429 . S
C1589 C1585 1.429 . S
C1589 C1590 1.523 . S
C1590 C1574 1.368 . S
C1590 C1586 1.368 . S
C1590 C1589 1.523 . S
H1591 C1566 0.950 . S
H1592 C1568 0.950 . S
H1593 C1569 0.949 . S
H1594 C1571 0.950 . S
H1595 C1573 0.950 . S
C1596 C1597 1.349 . S
C1596 C1598 1.327 . S
C1596 H1621 0.950 . S
C1597 C1596 1.349 . S
C1597 C1613 1.352 . S
C1598 C1596 1.327 . S
C1598 C1617 1.429 . S
C1598 H1622 0.950 . S
C1599 C1616 1.574 . S
C1599 C1618 1.368 1_455 S
C1599 H1623 0.949 . S
H1600 C1604 0.949 . S
C1601 C1602 1.336 1_455 S
C1601 C1603 1.327 . S
C1601 H1624 0.950 . S
C1602 C1601 1.336 1_655 S
C1602 C1614 1.384 . S
C1603 C1601 1.327 . S
C1603 C1619 1.429 1_455 S
C1603 H1625 0.950 . S
C1604 H1600 0.949 . S
C1604 C1612 1.574 . S
C1604 C1620 1.368 . S
H1605 C1613 0.948 1_455 S
H1606 C1611 0.950 . S
H1607 C1612 0.949 . S
H1608 C1614 0.950 . S
H1609 C1615 0.950 . S
H1610 C1616 0.949 . S
C1611 H1606 0.950 . S
C1611 C1613 1.325 1_455 S
C1611 C1617 1.429 1_455 S
C1612 C1604 1.574 . S
C1612 H1607 0.949 . S
C1612 C1618 1.368 . S
C1613 C1597 1.352 . S
C1613 H1605 0.948 1_655 S
C1613 C1611 1.325 1_655 S
C1614 C1602 1.384 . S
C1614 H1608 0.950 . S
C1614 C1615 1.327 . S
C1615 H1609 0.950 . S
C1615 C1614 1.327 . S
C1615 C1619 1.429 . S
C1616 C1599 1.574 . S
C1616 H1610 0.949 . S
C1616 C1620 1.368 1_455 S
C1617 C1598 1.429 . S
C1617 C1611 1.429 1_655 S
C1617 C1618 1.523 . S
C1618 C1599 1.368 1_655 S
C1618 C1612 1.368 . S
C1618 C1617 1.523 . S
C1619 C1603 1.429 1_655 S
C1619 C1615 1.429 . S
C1619 C1620 1.523 . S
C1620 C1604 1.368 . S
C1620 C1616 1.368 1_655 S
C1620 C1619 1.523 . S
H1621 C1596 0.950 . S
H1622 C1598 0.950 . S
H1623 C1599 0.949 . S
H1624 C1601 0.950 . S
H1625 C1603 0.950 . S
C1626 C1627 1.349 . S
C1626 C1628 1.327 . S
C1626 H1651 0.950 . S
C1627 C1626 1.349 . S
C1627 C1643 1.349 . S
C1628 C1626 1.327 . S
C1628 C1647 1.429 . S
C1628 H1652 0.950 . S
C1629 C1646 1.574 . S
C1629 C1648 1.368 . S
C1629 H1653 0.949 . S
H1630 C1634 0.949 . S
C1631 C1632 1.349 . S
C1631 C1633 1.327 . S
C1631 H1654 0.950 . S
C1632 C1631 1.349 . S
C1632 C1644 1.349 . S
C1633 C1631 1.327 . S
C1633 C1649 1.429 . S
C1633 H1655 0.950 . S
C1634 H1630 0.949 . S
C1634 C1642 1.574 . S
C1634 C1650 1.368 . S
H1635 C1643 0.950 . S
H1636 C1641 0.950 . S
H1637 C1642 0.949 . S
H1638 C1644 0.950 . S
H1639 C1645 0.950 . S
H1640 C1646 0.949 . S
C1641 H1636 0.950 . S
C1641 C1643 1.327 . S
C1641 C1647 1.429 . S
C1642 C1634 1.574 . S
C1642 H1637 0.949 . S
C1642 C1648 1.368 . S
C1643 C1627 1.349 . S
C1643 H1635 0.950 . S
C1643 C1641 1.327 . S
C1644 C1632 1.349 . S
C1644 H1638 0.950 . S
C1644 C1645 1.327 . S
C1645 H1639 0.950 . S
C1645 C1644 1.327 . S
C1645 C1649 1.429 . S
C1646 C1629 1.574 . S
C1646 H1640 0.949 . S
C1646 C1650 1.368 . S
C1647 C1628 1.429 . S
C1647 C1641 1.429 . S
C1647 C1648 1.523 . S
C1648 C1629 1.368 . S
C1648 C1642 1.368 . S
C1648 C1647 1.523 . S
C1649 C1633 1.429 . S
C1649 C1645 1.429 . S
C1649 C1650 1.523 . S
C1650 C1634 1.368 . S
C1650 C1646 1.368 . S
C1650 C1649 1.523 . S
H1651 C1626 0.950 . S
H1652 C1628 0.950 . S
H1653 C1629 0.949 . S
H1654 C1631 0.950 . S
H1655 C1633 0.950 . S
C1656 C1657 1.349 . S
C1656 C1658 1.327 . S
C1656 H1681 0.950 . S
C1657 C1656 1.349 . S
C1657 C1673 1.349 . S
C1658 C1656 1.327 . S
C1658 C1677 1.429 . S
C1658 H1682 0.950 . S
C1659 C1676 1.574 . S
C1659 C1678 1.368 . S
C1659 H1683 0.949 . S
H1660 C1664 0.953 . S
C1661 C1662 1.349 . S
C1661 C1663 1.327 . S
C1661 H1684 0.950 . S
C1662 C1661 1.349 . S
C1662 C1674 1.349 . S
C1663 C1661 1.327 . S
C1663 C1679 1.429 . S
C1663 H1685 0.950 . S
C1664 H1660 0.953 . S
C1664 C1672 1.574 . S
C1664 C1680 1.368 . S
H1665 C1673 0.950 . S
H1666 C1671 0.950 . S
H1667 C1672 0.949 . S
H1668 C1674 0.950 1_655 S
H1669 C1675 0.950 1_655 S
H1670 C1676 0.949 . S
C1671 H1666 0.950 . S
C1671 C1673 1.327 . S
C1671 C1677 1.429 . S
C1672 C1664 1.574 . S
C1672 H1667 0.949 . S
C1672 C1678 1.368 . S
C1673 C1657 1.349 . S
C1673 H1665 0.950 . S
C1673 C1671 1.327 . S
C1674 C1662 1.349 . S
C1674 H1668 0.950 1_455 S
C1674 C1675 1.327 . S
C1675 H1669 0.950 1_455 S
C1675 C1674 1.327 . S
C1675 C1679 1.429 . S
C1676 C1659 1.574 . S
C1676 H1670 0.949 . S
C1676 C1680 1.368 . S
C1677 C1658 1.429 . S
C1677 C1671 1.429 . S
C1677 C1678 1.523 . S
C1678 C1659 1.368 . S
C1678 C1672 1.368 . S
C1678 C1677 1.523 . S
C1679 C1663 1.429 . S
C1679 C1675 1.429 . S
C1679 C1680 1.523 . S
C1680 C1664 1.368 . S
C1680 C1676 1.368 . S
C1680 C1679 1.523 . S
H1681 C1656 0.950 . S
H1682 C1658 0.950 . S
H1683 C1659 0.949 . S
H1684 C1661 0.950 . S
H1685 C1663 0.950 . S
C1686 C1687 1.349 . S
C1686 C1688 1.327 . S
C1686 H1711 0.950 . S
C1687 C1686 1.349 . S
C1687 C1703 1.349 . S
C1688 C1686 1.327 . S
C1688 C1707 1.429 . S
C1688 H1712 0.950 . S
C1689 C1706 1.574 . S
C1689 C1708 1.368 . S
C1689 H1713 0.949 . S
H1690 C1694 0.949 . S
C1691 C1692 1.349 . S
C1691 C1693 1.327 . S
C1691 H1714 0.950 . S
C1692 C1691 1.349 . S
C1692 C1704 1.349 . S
C1693 C1691 1.327 . S
C1693 C1709 1.429 . S
C1693 H1715 0.950 . S
C1694 H1690 0.949 . S
C1694 C1702 1.574 . S
C1694 C1710 1.368 . S
H1695 C1703 0.950 . S
H1696 C1701 0.950 . S
H1697 C1702 0.949 . S
H1698 C1704 0.950 . S
H1699 C1705 0.950 . S
H1700 C1706 0.949 . S
C1701 H1696 0.950 . S
C1701 C1703 1.327 . S
C1701 C1707 1.429 . S
C1702 C1694 1.574 . S
C1702 H1697 0.949 . S
C1702 C1708 1.368 . S
C1703 C1687 1.349 . S
C1703 H1695 0.950 . S
C1703 C1701 1.327 . S
C1704 C1692 1.349 . S
C1704 H1698 0.950 . S
C1704 C1705 1.327 . S
C1705 H1699 0.950 . S
C1705 C1704 1.327 . S
C1705 C1709 1.429 . S
C1706 C1689 1.574 . S
C1706 H1700 0.949 . S
C1706 C1710 1.368 . S
C1707 C1688 1.429 . S
C1707 C1701 1.429 . S
C1707 C1708 1.523 . S
C1708 C1689 1.368 . S
C1708 C1702 1.368 . S
C1708 C1707 1.523 . S
C1709 C1693 1.429 . S
C1709 C1705 1.429 . S
C1709 C1710 1.523 . S
C1710 C1694 1.368 . S
C1710 C1706 1.368 . S
C1710 C1709 1.523 . S
H1711 C1686 0.950 . S
H1712 C1688 0.950 . S
H1713 C1689 0.949 . S
H1714 C1691 0.950 . S
H1715 C1693 0.950 . S
C1716 C1717 1.349 . S
C1716 C1718 1.327 . S
C1716 H1741 0.950 . S
C1717 C1716 1.349 . S
C1717 C1733 1.349 . S
C1718 C1716 1.327 . S
C1718 C1737 1.429 . S
C1718 H1742 0.950 . S
C1719 C1736 1.574 . S
C1719 C1738 1.368 . S
C1719 H1743 0.949 . S
H1720 C1724 0.949 . S
C1721 C1722 1.349 1_545 S
C1721 C1723 1.332 . S
C1721 H1744 0.950 . S
C1722 C1721 1.349 1_565 S
C1722 C1734 1.349 . S
C1723 C1721 1.332 . S
C1723 C1739 1.427 1_545 S
C1723 H1745 0.946 . S
C1724 H1720 0.949 . S
C1724 C1732 1.574 . S
C1724 C1740 1.368 . S
H1725 C1733 0.950 . S
H1726 C1731 0.950 . S
H1727 C1732 0.949 . S
H1728 C1734 0.950 . S
H1729 C1735 0.950 . S
H1730 C1736 0.948 1_545 S
C1731 H1726 0.950 . S
C1731 C1733 1.327 . S
C1731 C1737 1.429 . S
C1732 C1724 1.574 . S
C1732 H1727 0.949 . S
C1732 C1738 1.368 . S
C1733 C1717 1.349 . S
C1733 H1725 0.950 . S
C1733 C1731 1.327 . S
C1734 C1722 1.349 . S
C1734 H1728 0.950 . S
C1734 C1735 1.327 . S
C1735 H1729 0.950 . S
C1735 C1734 1.327 . S
C1735 C1739 1.429 . S
C1736 C1719 1.574 . S
C1736 H1730 0.948 1_565 S
C1736 C1740 1.368 . S
C1737 C1718 1.429 . S
C1737 C1731 1.429 . S
C1737 C1738 1.523 . S
C1738 C1719 1.368 . S
C1738 C1732 1.368 . S
C1738 C1737 1.523 . S
C1739 C1723 1.427 1_565 S
C1739 C1735 1.429 . S
C1739 C1740 1.523 . S
C1740 C1724 1.368 . S
C1740 C1736 1.368 . S
C1740 C1739 1.523 . S
H1741 C1716 0.950 . S
H1742 C1718 0.950 . S
H1743 C1719 0.949 . S
H1744 C1721 0.950 . S
H1745 C1723 0.946 . S
C1746 C1747 1.349 . S
C1746 C1748 1.327 . S
C1746 H1771 0.950 . S
C1747 C1746 1.349 . S
C1747 C1763 1.349 1_565 S
C1748 C1746 1.327 . S
C1748 C1767 1.429 . S
C1748 H1772 0.950 . S
C1749 C1766 1.574 . S
C1749 C1768 1.368 1_545 S
C1749 H1773 0.949 . S
H1750 C1754 0.949 . S
C1751 C1752 1.345 1_545 S
C1751 C1753 1.327 . S
C1751 H1774 0.950 . S
C1752 C1751 1.345 1_565 S
C1752 C1764 1.350 . S
C1753 C1751 1.327 . S
C1753 C1769 1.429 1_545 S
C1753 H1775 0.950 . S
C1754 H1750 0.949 . S
C1754 C1762 1.574 . S
C1754 C1770 1.368 . S
H1755 C1763 0.950 . S
H1756 C1761 0.950 . S
H1757 C1762 0.949 . S
H1758 C1764 0.950 . S
H1759 C1765 0.950 . S
H1760 C1766 0.949 . S
C1761 H1756 0.950 . S
C1761 C1763 1.327 . S
C1761 C1767 1.429 1_545 S
C1762 C1754 1.574 . S
C1762 H1757 0.949 . S
C1762 C1768 1.368 . S
C1763 C1747 1.349 1_545 S
C1763 H1755 0.950 . S
C1763 C1761 1.327 . S
C1764 C1752 1.350 . S
C1764 H1758 0.950 . S
C1764 C1765 1.327 . S
C1765 H1759 0.950 . S
C1765 C1764 1.327 . S
C1765 C1769 1.429 . S
C1766 C1749 1.574 . S
C1766 H1760 0.949 . S
C1766 C1770 1.368 1_545 S
C1767 C1748 1.429 . S
C1767 C1761 1.429 1_565 S
C1767 C1768 1.523 . S
C1768 C1749 1.368 1_565 S
C1768 C1762 1.368 . S
C1768 C1767 1.523 . S
C1769 C1753 1.429 1_565 S
C1769 C1765 1.429 . S
C1769 C1770 1.523 . S
C1770 C1754 1.368 . S
C1770 C1766 1.368 1_565 S
C1770 C1769 1.523 . S
H1771 C1746 0.950 . S
H1772 C1748 0.950 . S
H1773 C1749 0.949 . S
H1774 C1751 0.950 . S
H1775 C1753 0.950 . S
C1776 C1777 1.349 . S
C1776 C1778 1.327 . S
C1776 H1801 0.950 . S
C1777 C1776 1.349 . S
C1777 C1793 1.349 . S
C1778 C1776 1.327 . S
C1778 C1797 1.429 . S
C1778 H1802 0.950 . S
C1779 C1796 1.574 . S
C1779 C1798 1.368 . S
C1779 H1803 0.949 . S
H1780 C1784 0.949 . S
C1781 C1782 1.349 . S
C1781 C1783 1.327 . S
C1781 H1804 0.950 . S
C1782 C1781 1.349 . S
C1782 C1794 1.349 . S
C1783 C1781 1.327 . S
C1783 C1799 1.429 . S
C1783 H1805 0.950 . S
C1784 H1780 0.949 . S
C1784 C1792 1.574 . S
C1784 C1800 1.368 . S
H1785 C1793 0.950 . S
H1786 C1791 0.950 . S
H1787 C1792 0.949 . S
H1788 C1794 0.950 . S
H1789 C1795 0.950 . S
H1790 C1796 0.949 . S
C1791 H1786 0.950 . S
C1791 C1793 1.327 . S
C1791 C1797 1.429 . S
C1792 C1784 1.574 . S
C1792 H1787 0.949 . S
C1792 C1798 1.368 . S
C1793 C1777 1.349 . S
C1793 H1785 0.950 . S
C1793 C1791 1.327 . S
C1794 C1782 1.349 . S
C1794 H1788 0.950 . S
C1794 C1795 1.327 . S
C1795 H1789 0.950 . S
C1795 C1794 1.327 . S
C1795 C1799 1.429 . S
C1796 C1779 1.574 . S
C1796 H1790 0.949 . S
C1796 C1800 1.368 . S
C1797 C1778 1.429 . S
C1797 C1791 1.429 . S
C1797 C1798 1.523 . S
C1798 C1779 1.368 . S
C1798 C1792 1.368 . S
C1798 C1797 1.523 . S
C1799 C1783 1.429 . S
C1799 C1795 1.429 . S
C1799 C1800 1.523 . S
C1800 C1784 1.368 . S
C1800 C1796 1.368 . S
C1800 C1799 1.523 . S
H1801 C1776 0.950 . S
H1802 C1778 0.950 . S
H1803 C1779 0.949 . S
H1804 C1781 0.950 . S
H1805 C1783 0.950 . S
C1806 C1807 1.349 . S
C1806 C1808 1.327 . S
C1806 H1831 0.950 . S
C1807 C1806 1.349 . S
C1807 C1823 1.349 . S
C1808 C1806 1.327 . S
C1808 C1827 1.429 . S
C1808 H1832 0.950 . S
C1809 C1826 1.574 . S
C1809 C1828 1.368 . S
C1809 H1833 0.949 . S
H1810 C1814 0.949 . S
C1811 C1812 1.349 . S
C1811 C1813 1.327 . S
C1811 H1834 0.950 . S
C1812 C1811 1.349 . S
C1812 C1824 1.349 . S
C1813 C1811 1.327 . S
C1813 C1829 1.429 . S
C1813 H1835 0.950 . S
C1814 H1810 0.949 . S
C1814 C1822 1.574 . S
C1814 C1830 1.368 . S
H1815 C1823 0.950 . S
H1816 C1821 0.950 . S
H1817 C1822 0.949 . S
H1818 C1824 0.950 . S
H1819 C1825 0.950 . S
H1820 C1826 0.949 . S
C1821 H1816 0.950 . S
C1821 C1823 1.327 . S
C1821 C1827 1.429 . S
C1822 C1814 1.574 . S
C1822 H1817 0.949 . S
C1822 C1828 1.368 . S
C1823 C1807 1.349 . S
C1823 H1815 0.950 . S
C1823 C1821 1.327 . S
C1824 C1812 1.349 . S
C1824 H1818 0.950 . S
C1824 C1825 1.327 . S
C1825 H1819 0.950 . S
C1825 C1824 1.327 . S
C1825 C1829 1.429 . S
C1826 C1809 1.574 . S
C1826 H1820 0.949 . S
C1826 C1830 1.368 . S
C1827 C1808 1.429 . S
C1827 C1821 1.429 . S
C1827 C1828 1.523 . S
C1828 C1809 1.368 . S
C1828 C1822 1.368 . S
C1828 C1827 1.523 . S
C1829 C1813 1.429 . S
C1829 C1825 1.429 . S
C1829 C1830 1.523 . S
C1830 C1814 1.368 . S
C1830 C1826 1.368 . S
C1830 C1829 1.523 . S
H1831 C1806 0.950 . S
H1832 C1808 0.950 . S
H1833 C1809 0.949 . S
H1834 C1811 0.950 . S
H1835 C1813 0.950 . S
C1836 C1837 1.349 . S
C1836 C1838 1.327 . S
C1836 H1861 0.950 . S
C1837 C1836 1.349 . S
C1837 C1853 1.349 1_655 S
C1838 C1836 1.327 . S
C1838 C1857 1.429 . S
C1838 H1862 0.950 . S
C1839 C1856 1.574 . S
C1839 C1858 1.368 1_455 S
C1839 H1863 0.949 . S
H1840 C1844 0.949 . S
C1841 C1842 1.344 1_455 S
C1841 C1843 1.327 . S
C1841 H1864 0.950 . S
C1842 C1841 1.344 1_655 S
C1842 C1854 1.351 . S
C1843 C1841 1.327 . S
C1843 C1859 1.429 1_455 S
C1843 H1865 0.950 . S
C1844 H1840 0.949 . S
C1844 C1852 1.574 . S
C1844 C1860 1.368 . S
H1845 C1853 0.950 . S
H1846 C1851 0.950 . S
H1847 C1852 0.949 . S
H1848 C1854 0.950 . S
H1849 C1855 0.950 . S
H1850 C1856 0.949 . S
C1851 H1846 0.950 . S
C1851 C1853 1.327 . S
C1851 C1857 1.429 1_455 S
C1852 C1844 1.574 . S
C1852 H1847 0.949 . S
C1852 C1858 1.368 . S
C1853 C1837 1.349 1_455 S
C1853 H1845 0.950 . S
C1853 C1851 1.327 . S
C1854 C1842 1.351 . S
C1854 H1848 0.950 . S
C1854 C1855 1.327 . S
C1855 H1849 0.950 . S
C1855 C1854 1.327 . S
C1855 C1859 1.429 . S
C1856 C1839 1.574 . S
C1856 H1850 0.949 . S
C1856 C1860 1.368 1_455 S
C1857 C1838 1.429 . S
C1857 C1851 1.429 1_655 S
C1857 C1858 1.523 . S
C1858 C1839 1.368 1_655 S
C1858 C1852 1.368 . S
C1858 C1857 1.523 . S
C1859 C1843 1.429 1_655 S
C1859 C1855 1.429 . S
C1859 C1860 1.523 . S
C1860 C1844 1.368 . S
C1860 C1856 1.368 1_655 S
C1860 C1859 1.523 . S
H1861 C1836 0.950 . S
H1862 C1838 0.950 . S
H1863 C1839 0.949 . S
H1864 C1841 0.950 . S
H1865 C1843 0.950 . S
C1866 C1867 1.349 . S
C1866 C1868 1.327 . S
C1866 H1891 0.950 . S
C1867 C1866 1.349 . S
C1867 C1883 1.349 . S
C1868 C1866 1.327 . S
C1868 C1887 1.429 . S
C1868 H1892 0.950 . S
C1869 C1886 1.574 . S
C1869 C1888 1.368 . S
C1869 H1893 0.949 . S
H1870 C1874 0.949 . S
C1871 C1872 1.349 . S
C1871 C1873 1.327 . S
C1871 H1894 0.950 . S
C1872 C1871 1.349 . S
C1872 C1884 1.349 . S
C1873 C1871 1.327 . S
C1873 C1889 1.429 . S
C1873 H1895 0.950 . S
C1874 H1870 0.949 . S
C1874 C1882 1.574 . S
C1874 C1890 1.368 . S
H1875 C1883 0.950 . S
H1876 C1881 0.950 . S
H1877 C1882 0.949 . S
H1878 C1884 0.950 . S
H1879 C1885 0.950 . S
H1880 C1886 0.949 . S
C1881 H1876 0.950 . S
C1881 C1883 1.327 . S
C1881 C1887 1.429 . S
C1882 C1874 1.574 . S
C1882 H1877 0.949 . S
C1882 C1888 1.368 . S
C1883 C1867 1.349 . S
C1883 H1875 0.950 . S
C1883 C1881 1.327 . S
C1884 C1872 1.349 . S
C1884 H1878 0.950 . S
C1884 C1885 1.327 . S
C1885 H1879 0.950 . S
C1885 C1884 1.327 . S
C1885 C1889 1.429 . S
C1886 C1869 1.574 . S
C1886 H1880 0.949 . S
C1886 C1890 1.368 . S
C1887 C1868 1.429 . S
C1887 C1881 1.429 . S
C1887 C1888 1.523 . S
C1888 C1869 1.368 . S
C1888 C1882 1.368 . S
C1888 C1887 1.523 . S
C1889 C1873 1.429 . S
C1889 C1885 1.429 . S
C1889 C1890 1.523 . S
C1890 C1874 1.368 . S
C1890 C1886 1.368 . S
C1890 C1889 1.523 . S
H1891 C1866 0.950 . S
H1892 C1868 0.950 . S
H1893 C1869 0.949 . S
H1894 C1871 0.950 . S
H1895 C1873 0.950 . S
C1896 C1897 1.349 . S
C1896 C1898 1.327 . S
C1896 H1921 0.950 . S
C1897 C1896 1.349 . S
C1897 C1913 1.349 . S
C1898 C1896 1.327 . S
C1898 C1917 1.429 . S
C1898 H1922 0.950 . S
C1899 C1916 1.574 . S
C1899 C1918 1.368 . S
C1899 H1923 0.949 . S
H1900 C1904 0.949 . S
C1901 C1902 1.349 . S
C1901 C1903 1.327 . S
C1901 H1924 0.950 . S
C1902 C1901 1.349 . S
C1902 C1914 1.349 . S
C1903 C1901 1.327 . S
C1903 C1919 1.429 . S
C1903 H1925 0.950 . S
C1904 H1900 0.949 . S
C1904 C1912 1.574 . S
C1904 C1920 1.368 . S
H1905 C1913 0.950 . S
H1906 C1911 0.950 . S
H1907 C1912 0.949 . S
H1908 C1914 0.950 . S
H1909 C1915 0.950 . S
H1910 C1916 0.949 . S
C1911 H1906 0.950 . S
C1911 C1913 1.327 . S
C1911 C1917 1.429 . S
C1912 C1904 1.574 . S
C1912 H1907 0.949 . S
C1912 C1918 1.368 . S
C1913 C1897 1.349 . S
C1913 H1905 0.950 . S
C1913 C1911 1.327 . S
C1914 C1902 1.349 . S
C1914 H1908 0.950 . S
C1914 C1915 1.327 . S
C1915 H1909 0.950 . S
C1915 C1914 1.327 . S
C1915 C1919 1.429 . S
C1916 C1899 1.574 . S
C1916 H1910 0.949 . S
C1916 C1920 1.368 . S
C1917 C1898 1.429 . S
C1917 C1911 1.429 . S
C1917 C1918 1.523 . S
C1918 C1899 1.368 . S
C1918 C1912 1.368 . S
C1918 C1917 1.523 . S
C1919 C1903 1.429 . S
C1919 C1915 1.429 . S
C1919 C1920 1.523 . S
C1920 C1904 1.368 . S
C1920 C1916 1.368 . S
C1920 C1919 1.523 . S
H1921 C1896 0.950 . S
H1922 C1898 0.950 . S
H1923 C1899 0.949 . S
H1924 C1901 0.950 . S
H1925 C1903 0.950 . S
C1926 C1927 1.349 . S
C1926 C1928 1.327 . S
C1926 H1951 0.950 . S
C1927 C1926 1.349 . S
C1927 C1943 1.349 . S
C1928 C1926 1.327 . S
C1928 C1947 1.429 . S
C1928 H1952 0.950 . S
C1929 C1946 1.574 . S
C1929 C1948 1.368 . S
C1929 H1953 0.949 . S
H1930 C1934 0.949 . S
C1931 C1932 1.349 . S
C1931 C1933 1.327 . S
C1931 H1954 0.950 . S
C1932 C1931 1.349 . S
C1932 C1944 1.349 . S
C1933 C1931 1.327 . S
C1933 C1949 1.429 . S
C1933 H1955 0.950 . S
C1934 H1930 0.949 . S
C1934 C1942 1.574 . S
C1934 C1950 1.368 . S
H1935 C1943 0.950 . S
H1936 C1941 0.950 . S
H1937 C1942 0.949 . S
H1938 C1944 0.950 . S
H1939 C1945 0.950 . S
H1940 C1946 0.949 . S
C1941 H1936 0.950 . S
C1941 C1943 1.327 . S
C1941 C1947 1.429 . S
C1942 C1934 1.574 . S
C1942 H1937 0.949 . S
C1942 C1948 1.368 . S
C1943 C1927 1.349 . S
C1943 H1935 0.950 . S
C1943 C1941 1.327 . S
C1944 C1932 1.349 . S
C1944 H1938 0.950 . S
C1944 C1945 1.327 . S
C1945 H1939 0.950 . S
C1945 C1944 1.327 . S
C1945 C1949 1.429 . S
C1946 C1929 1.574 . S
C1946 H1940 0.949 . S
C1946 C1950 1.368 . S
C1947 C1928 1.429 . S
C1947 C1941 1.429 . S
C1947 C1948 1.523 . S
C1948 C1929 1.368 . S
C1948 C1942 1.368 . S
C1948 C1947 1.523 . S
C1949 C1933 1.429 . S
C1949 C1945 1.429 . S
C1949 C1950 1.523 . S
C1950 C1934 1.368 . S
C1950 C1946 1.368 . S
C1950 C1949 1.523 . S
H1951 C1926 0.950 . S
H1952 C1928 0.950 . S
H1953 C1929 0.949 . S
H1954 C1931 0.950 . S
H1955 C1933 0.950 . S
C1956 C1957 1.349 . S
C1956 C1958 1.327 . S
C1956 H1981 0.950 . S
C1957 C1956 1.349 . S
C1957 C1973 1.349 . S
C1958 C1956 1.327 . S
C1958 C1977 1.429 . S
C1958 H1982 0.950 . S
C1959 C1976 1.574 . S
C1959 C1978 1.368 . S
C1959 H1983 0.949 . S
H1960 C1964 0.949 . S
C1961 C1962 1.349 . S
C1961 C1963 1.327 . S
C1961 H1984 0.950 . S
C1962 C1961 1.349 . S
C1962 C1974 1.349 . S
C1963 C1961 1.327 . S
C1963 C1979 1.429 . S
C1963 H1985 0.950 . S
C1964 H1960 0.949 . S
C1964 C1972 1.574 . S
C1964 C1980 1.368 . S
H1965 C1973 0.950 . S
H1966 C1971 0.950 . S
H1967 C1972 0.949 . S
H1968 C1974 0.950 . S
H1969 C1975 0.950 . S
H1970 C1976 0.949 . S
C1971 H1966 0.950 . S
C1971 C1973 1.327 . S
C1971 C1977 1.429 . S
C1972 C1964 1.574 . S
C1972 H1967 0.949 . S
C1972 C1978 1.368 . S
C1973 C1957 1.349 . S
C1973 H1965 0.950 . S
C1973 C1971 1.327 . S
C1974 C1962 1.349 . S
C1974 H1968 0.950 . S
C1974 C1975 1.327 . S
C1975 H1969 0.950 . S
C1975 C1974 1.327 . S
C1975 C1979 1.429 . S
C1976 C1959 1.574 . S
C1976 H1970 0.949 . S
C1976 C1980 1.368 . S
C1977 C1958 1.429 . S
C1977 C1971 1.429 . S
C1977 C1978 1.523 . S
C1978 C1959 1.368 . S
C1978 C1972 1.368 . S
C1978 C1977 1.523 . S
C1979 C1963 1.429 . S
C1979 C1975 1.429 . S
C1979 C1980 1.523 . S
C1980 C1964 1.368 . S
C1980 C1976 1.368 . S
C1980 C1979 1.523 . S
H1981 C1956 0.950 . S
H1982 C1958 0.950 . S
H1983 C1959 0.949 . S
H1984 C1961 0.950 . S
H1985 C1963 0.950 . S
C1986 C1987 1.349 . S
C1986 C1988 1.327 . S
C1986 H2011 0.950 . S
C1987 C1986 1.349 . S
C1987 C2003 1.349 . S
C1988 C1986 1.327 . S
C1988 C2007 1.429 . S
C1988 H2012 0.950 . S
C1989 C2006 1.574 . S
C1989 C2008 1.368 . S
C1989 H2013 0.949 . S
H1990 C1994 0.949 . S
C1991 C1992 1.349 . S
C1991 C1993 1.327 . S
C1991 H2014 0.950 . S
C1992 C1991 1.349 . S
C1992 C2004 1.349 . S
C1993 C1991 1.327 . S
C1993 C2009 1.429 . S
C1993 H2015 0.950 . S
C1994 H1990 0.949 . S
C1994 C2002 1.574 . S
C1994 C2010 1.368 . S
H1995 C2003 0.950 . S
H1996 C2001 0.950 . S
H1997 C2002 0.949 . S
H1998 C2004 0.950 . S
H1999 C2005 0.950 . S
H2000 C2006 0.949 . S
C2001 H1996 0.950 . S
C2001 C2003 1.327 . S
C2001 C2007 1.429 . S
C2002 C1994 1.574 . S
C2002 H1997 0.949 . S
C2002 C2008 1.368 . S
C2003 C1987 1.349 . S
C2003 H1995 0.950 . S
C2003 C2001 1.327 . S
C2004 C1992 1.349 . S
C2004 H1998 0.950 . S
C2004 C2005 1.327 . S
C2005 H1999 0.950 . S
C2005 C2004 1.327 . S
C2005 C2009 1.429 . S
C2006 C1989 1.574 . S
C2006 H2000 0.949 . S
C2006 C2010 1.368 . S
C2007 C1988 1.429 . S
C2007 C2001 1.429 . S
C2007 C2008 1.523 . S
C2008 C1989 1.368 . S
C2008 C2002 1.368 . S
C2008 C2007 1.523 . S
C2009 C1993 1.429 . S
C2009 C2005 1.429 . S
C2009 C2010 1.523 . S
C2010 C1994 1.368 . S
C2010 C2006 1.368 . S
C2010 C2009 1.523 . S
H2011 C1986 0.950 . S
H2012 C1988 0.950 . S
H2013 C1989 0.949 . S
H2014 C1991 0.950 . S
H2015 C1993 0.950 . S
C2016 C2017 1.349 . S
C2016 C2018 1.327 . S
C2016 H2041 0.950 . S
C2017 C2016 1.349 . S
C2017 C2033 1.349 . S
C2018 C2016 1.327 . S
C2018 C2037 1.429 . S
C2018 H2042 0.950 . S
C2019 C2036 1.574 . S
C2019 C2038 1.368 . S
C2019 H2043 0.949 . S
H2020 C2024 0.949 . S
C2021 C2022 1.349 . S
C2021 C2023 1.327 . S
C2021 H2044 0.950 . S
C2022 C2021 1.349 . S
C2022 C2034 1.349 . S
C2023 C2021 1.327 . S
C2023 C2039 1.429 . S
C2023 H2045 0.950 . S
C2024 H2020 0.949 . S
C2024 C2032 1.574 . S
C2024 C2040 1.368 . S
H2025 C2033 0.950 . S
H2026 C2031 0.950 . S
H2027 C2032 0.949 . S
H2028 C2034 0.950 . S
H2029 C2035 0.950 . S
H2030 C2036 0.949 . S
C2031 H2026 0.950 . S
C2031 C2033 1.327 . S
C2031 C2037 1.429 . S
C2032 C2024 1.574 . S
C2032 H2027 0.949 . S
C2032 C2038 1.368 . S
C2033 C2017 1.349 . S
C2033 H2025 0.950 . S
C2033 C2031 1.327 . S
C2034 C2022 1.349 . S
C2034 H2028 0.950 . S
C2034 C2035 1.327 . S
C2035 H2029 0.950 . S
C2035 C2034 1.327 . S
C2035 C2039 1.429 . S
C2036 C2019 1.574 . S
C2036 H2030 0.949 . S
C2036 C2040 1.368 . S
C2037 C2018 1.429 . S
C2037 C2031 1.429 . S
C2037 C2038 1.523 . S
C2038 C2019 1.368 . S
C2038 C2032 1.368 . S
C2038 C2037 1.523 . S
C2039 C2023 1.429 . S
C2039 C2035 1.429 . S
C2039 C2040 1.523 . S
C2040 C2024 1.368 . S
C2040 C2036 1.368 . S
C2040 C2039 1.523 . S
H2041 C2016 0.950 . S
H2042 C2018 0.950 . S
H2043 C2019 0.949 . S
H2044 C2021 0.950 . S
H2045 C2023 0.950 . S
C2046 C2047 1.349 . S
C2046 C2048 1.327 . S
C2046 H2071 0.950 . S
C2047 C2046 1.349 . S
C2047 C2063 1.349 . S
C2048 C2046 1.327 . S
C2048 C2067 1.429 . S
C2048 H2072 0.950 . S
C2049 C2066 1.574 . S
C2049 C2068 1.368 . S
C2049 H2073 0.949 . S
H2050 C2054 0.949 . S
C2051 C2052 1.349 . S
C2051 C2053 1.327 . S
C2051 H2074 0.950 . S
C2052 C2051 1.349 . S
C2052 C2064 1.349 . S
C2053 C2051 1.327 . S
C2053 C2069 1.429 . S
C2053 H2075 0.950 . S
C2054 H2050 0.949 . S
C2054 C2062 1.574 . S
C2054 C2070 1.368 . S
H2055 C2063 0.950 . S
H2056 C2061 0.950 . S
H2057 C2062 0.949 . S
H2058 C2064 0.950 . S
H2059 C2065 0.950 . S
H2060 C2066 0.949 . S
C2061 H2056 0.950 . S
C2061 C2063 1.327 . S
C2061 C2067 1.429 . S
C2062 C2054 1.574 . S
C2062 H2057 0.949 . S
C2062 C2068 1.368 . S
C2063 C2047 1.349 . S
C2063 H2055 0.950 . S
C2063 C2061 1.327 . S
C2064 C2052 1.349 . S
C2064 H2058 0.950 . S
C2064 C2065 1.327 . S
C2065 H2059 0.950 . S
C2065 C2064 1.327 . S
C2065 C2069 1.429 . S
C2066 C2049 1.574 . S
C2066 H2060 0.949 . S
C2066 C2070 1.368 . S
C2067 C2048 1.429 . S
C2067 C2061 1.429 . S
C2067 C2068 1.523 . S
C2068 C2049 1.368 . S
C2068 C2062 1.368 . S
C2068 C2067 1.523 . S
C2069 C2053 1.429 . S
C2069 C2065 1.429 . S
C2069 C2070 1.523 . S
C2070 C2054 1.368 . S
C2070 C2066 1.368 . S
C2070 C2069 1.523 . S
H2071 C2046 0.950 . S
H2072 C2048 0.950 . S
H2073 C2049 0.949 . S
H2074 C2051 0.950 . S
H2075 C2053 0.950 . S
C2076 C2077 1.349 . S
C2076 C2078 1.327 . S
C2076 H2101 0.950 . S
C2077 C2076 1.349 . S
C2077 C2093 1.349 . S
C2078 C2076 1.327 . S
C2078 C2097 1.429 . S
C2078 H2102 0.950 . S
C2079 C2096 1.574 . S
C2079 C2098 1.368 . S
C2079 H2103 0.949 . S
H2080 C2084 0.949 . S
C2081 C2082 1.349 . S
C2081 C2083 1.327 . S
C2081 H2104 0.950 . S
C2082 C2081 1.349 . S
C2082 C2094 1.349 . S
C2083 C2081 1.327 . S
C2083 C2099 1.429 . S
C2083 H2105 0.950 . S
C2084 H2080 0.949 . S
C2084 C2092 1.574 . S
C2084 C2100 1.368 . S
H2085 C2093 0.950 . S
H2086 C2091 0.950 . S
H2087 C2092 0.949 . S
H2088 C2094 0.950 . S
H2089 C2095 0.950 . S
H2090 C2096 0.949 . S
C2091 H2086 0.950 . S
C2091 C2093 1.327 . S
C2091 C2097 1.429 . S
C2092 C2084 1.574 . S
C2092 H2087 0.949 . S
C2092 C2098 1.368 . S
C2093 C2077 1.349 . S
C2093 H2085 0.950 . S
C2093 C2091 1.327 . S
C2094 C2082 1.349 . S
C2094 H2088 0.950 . S
C2094 C2095 1.327 . S
C2095 H2089 0.950 . S
C2095 C2094 1.327 . S
C2095 C2099 1.429 . S
C2096 C2079 1.574 . S
C2096 H2090 0.949 . S
C2096 C2100 1.368 . S
C2097 C2078 1.429 . S
C2097 C2091 1.429 . S
C2097 C2098 1.523 . S
C2098 C2079 1.368 . S
C2098 C2092 1.368 . S
C2098 C2097 1.523 . S
C2099 C2083 1.429 . S
C2099 C2095 1.429 . S
C2099 C2100 1.523 . S
C2100 C2084 1.368 . S
C2100 C2096 1.368 . S
C2100 C2099 1.523 . S
H2101 C2076 0.950 . S
H2102 C2078 0.950 . S
H2103 C2079 0.949 . S
H2104 C2081 0.950 . S
H2105 C2083 0.950 . S
C2106 C2107 1.349 . S
C2106 C2108 1.327 . S
C2106 H2131 0.950 . S
C2107 C2106 1.349 . S
C2107 C2123 1.349 . S
C2108 C2106 1.327 . S
C2108 C2127 1.429 . S
C2108 H2132 0.950 . S
C2109 C2126 1.574 . S
C2109 C2128 1.368 . S
C2109 H2133 0.949 . S
H2110 C2114 0.949 . S
C2111 C2112 1.349 . S
C2111 C2113 1.327 . S
C2111 H2134 0.950 . S
C2112 C2111 1.349 . S
C2112 C2124 1.349 . S
C2113 C2111 1.327 . S
C2113 C2129 1.429 . S
C2113 H2135 0.950 . S
C2114 H2110 0.949 . S
C2114 C2122 1.574 . S
C2114 C2130 1.368 . S
H2115 C2123 0.950 . S
H2116 C2121 0.950 . S
H2117 C2122 0.949 . S
H2118 C2124 0.950 . S
H2119 C2125 0.950 . S
H2120 C2126 0.949 . S
C2121 H2116 0.950 . S
C2121 C2123 1.327 . S
C2121 C2127 1.429 . S
C2122 C2114 1.574 . S
C2122 H2117 0.949 . S
C2122 C2128 1.368 . S
C2123 C2107 1.349 . S
C2123 H2115 0.950 . S
C2123 C2121 1.327 . S
C2124 C2112 1.349 . S
C2124 H2118 0.950 . S
C2124 C2125 1.327 . S
C2125 H2119 0.950 . S
C2125 C2124 1.327 . S
C2125 C2129 1.429 . S
C2126 C2109 1.574 . S
C2126 H2120 0.949 . S
C2126 C2130 1.368 . S
C2127 C2108 1.429 . S
C2127 C2121 1.429 . S
C2127 C2128 1.523 . S
C2128 C2109 1.368 . S
C2128 C2122 1.368 . S
C2128 C2127 1.523 . S
C2129 C2113 1.429 . S
C2129 C2125 1.429 . S
C2129 C2130 1.523 . S
C2130 C2114 1.368 . S
C2130 C2126 1.368 . S
C2130 C2129 1.523 . S
H2131 C2106 0.950 . S
H2132 C2108 0.950 . S
H2133 C2109 0.949 . S
H2134 C2111 0.950 . S
H2135 C2113 0.950 . S
C2136 C2137 1.349 . S
C2136 C2138 1.327 . S
C2136 H2161 0.950 . S
C2137 C2136 1.349 . S
C2137 C2153 1.349 . S
C2138 C2136 1.327 . S
C2138 C2157 1.429 . S
C2138 H2162 0.950 . S
C2139 C2156 1.574 . S
C2139 C2158 1.368 . S
C2139 H2163 0.949 . S
H2140 C2144 0.949 . S
C2141 C2142 1.349 . S
C2141 C2143 1.327 . S
C2141 H2164 0.950 . S
C2142 C2141 1.349 . S
C2142 C2154 1.349 . S
C2143 C2141 1.327 . S
C2143 C2159 1.429 . S
C2143 H2165 0.950 . S
C2144 H2140 0.949 . S
C2144 C2152 1.574 . S
C2144 C2160 1.368 . S
H2145 C2153 0.950 . S
H2146 C2151 0.950 . S
H2147 C2152 0.949 . S
H2148 C2154 0.950 . S
H2149 C2155 0.950 . S
H2150 C2156 0.949 . S
C2151 H2146 0.950 . S
C2151 C2153 1.327 . S
C2151 C2157 1.429 . S
C2152 C2144 1.574 . S
C2152 H2147 0.949 . S
C2152 C2158 1.368 . S
C2153 C2137 1.349 . S
C2153 H2145 0.950 . S
C2153 C2151 1.327 . S
C2154 C2142 1.349 . S
C2154 H2148 0.950 . S
C2154 C2155 1.327 . S
C2155 H2149 0.950 . S
C2155 C2154 1.327 . S
C2155 C2159 1.429 . S
C2156 C2139 1.574 . S
C2156 H2150 0.949 . S
C2156 C2160 1.368 . S
C2157 C2138 1.429 . S
C2157 C2151 1.429 . S
C2157 C2158 1.523 . S
C2158 C2139 1.368 . S
C2158 C2152 1.368 . S
C2158 C2157 1.523 . S
C2159 C2143 1.429 . S
C2159 C2155 1.429 . S
C2159 C2160 1.523 . S
C2160 C2144 1.368 . S
C2160 C2156 1.368 . S
C2160 C2159 1.523 . S
H2161 C2136 0.950 . S
H2162 C2138 0.950 . S
H2163 C2139 0.949 . S
H2164 C2141 0.950 . S
H2165 C2143 0.950 . S
C2166 C2167 1.349 . S
C2166 C2168 1.327 . S
C2166 H2191 0.950 . S
C2167 C2166 1.349 . S
C2167 C2183 1.349 . S
C2168 C2166 1.327 . S
C2168 C2187 1.429 . S
C2168 H2192 0.950 . S
C2169 C2186 1.574 . S
C2169 C2188 1.368 . S
C2169 H2193 0.949 . S
H2170 C2174 0.949 . S
C2171 C2172 1.349 . S
C2171 C2173 1.327 . S
C2171 H2194 0.950 . S
C2172 C2171 1.349 . S
C2172 C2184 1.349 . S
C2173 C2171 1.327 . S
C2173 C2189 1.429 . S
C2173 H2195 0.950 . S
C2174 H2170 0.949 . S
C2174 C2182 1.574 . S
C2174 C2190 1.368 . S
H2175 C2183 0.950 . S
H2176 C2181 0.950 . S
H2177 C2182 0.949 . S
H2178 C2184 0.950 . S
H2179 C2185 0.950 . S
H2180 C2186 0.949 . S
C2181 H2176 0.950 . S
C2181 C2183 1.327 . S
C2181 C2187 1.429 . S
C2182 C2174 1.574 . S
C2182 H2177 0.949 . S
C2182 C2188 1.368 . S
C2183 C2167 1.349 . S
C2183 H2175 0.950 . S
C2183 C2181 1.327 . S
C2184 C2172 1.349 . S
C2184 H2178 0.950 . S
C2184 C2185 1.327 . S
C2185 H2179 0.950 . S
C2185 C2184 1.327 . S
C2185 C2189 1.429 . S
C2186 C2169 1.574 . S
C2186 H2180 0.949 . S
C2186 C2190 1.368 . S
C2187 C2168 1.429 . S
C2187 C2181 1.429 . S
C2187 C2188 1.523 . S
C2188 C2169 1.368 . S
C2188 C2182 1.368 . S
C2188 C2187 1.523 . S
C2189 C2173 1.429 . S
C2189 C2185 1.429 . S
C2189 C2190 1.523 . S
C2190 C2174 1.368 . S
C2190 C2186 1.368 . S
C2190 C2189 1.523 . S
H2191 C2166 0.950 . S
H2192 C2168 0.950 . S
H2193 C2169 0.949 . S
H2194 C2171 0.950 . S
H2195 C2173 0.950 . S
C2196 C2197 1.349 . S
C2196 C2198 1.327 . S
C2196 H2221 0.950 . S
C2197 C2196 1.349 . S
C2197 C2213 1.349 . S
C2198 C2196 1.327 . S
C2198 C2217 1.429 . S
C2198 H2222 0.950 . S
C2199 C2216 1.574 . S
C2199 C2218 1.368 . S
C2199 H2223 0.949 . S
H2200 C2204 0.949 . S
C2201 C2202 1.349 . S
C2201 C2203 1.327 . S
C2201 H2224 0.950 . S
C2202 C2201 1.349 . S
C2202 C2214 1.349 . S
C2203 C2201 1.327 . S
C2203 C2219 1.429 . S
C2203 H2225 0.950 . S
C2204 H2200 0.949 . S
C2204 C2212 1.574 . S
C2204 C2220 1.368 . S
H2205 C2213 0.950 . S
H2206 C2211 0.950 . S
H2207 C2212 0.949 . S
H2208 C2214 0.950 . S
H2209 C2215 0.950 . S
H2210 C2216 0.949 . S
C2211 H2206 0.950 . S
C2211 C2213 1.327 . S
C2211 C2217 1.429 . S
C2212 C2204 1.574 . S
C2212 H2207 0.949 . S
C2212 C2218 1.368 . S
C2213 C2197 1.349 . S
C2213 H2205 0.950 . S
C2213 C2211 1.327 . S
C2214 C2202 1.349 . S
C2214 H2208 0.950 . S
C2214 C2215 1.327 . S
C2215 H2209 0.950 . S
C2215 C2214 1.327 . S
C2215 C2219 1.429 . S
C2216 C2199 1.574 . S
C2216 H2210 0.949 . S
C2216 C2220 1.368 . S
C2217 C2198 1.429 . S
C2217 C2211 1.429 . S
C2217 C2218 1.523 . S
C2218 C2199 1.368 . S
C2218 C2212 1.368 . S
C2218 C2217 1.523 . S
C2219 C2203 1.429 . S
C2219 C2215 1.429 . S
C2219 C2220 1.523 . S
C2220 C2204 1.368 . S
C2220 C2216 1.368 . S
C2220 C2219 1.523 . S
H2221 C2196 0.950 . S
H2222 C2198 0.950 . S
H2223 C2199 0.949 . S
H2224 C2201 0.950 . S
H2225 C2203 0.950 . S
C2226 C2227 1.349 . S
C2226 C2228 1.327 . S
C2226 H2251 0.950 . S
C2227 C2226 1.349 . S
C2227 C2243 1.349 . S
C2228 C2226 1.327 . S
C2228 C2247 1.429 . S
C2228 H2252 0.950 . S
C2229 C2246 1.574 . S
C2229 C2248 1.368 . S
C2229 H2253 0.949 . S
H2230 C2234 0.949 . S
C2231 C2232 1.349 . S
C2231 C2233 1.327 . S
C2231 H2254 0.950 . S
C2232 C2231 1.349 . S
C2232 C2244 1.349 . S
C2233 C2231 1.327 . S
C2233 C2249 1.429 . S
C2233 H2255 0.950 . S
C2234 H2230 0.949 . S
C2234 C2242 1.574 . S
C2234 C2250 1.368 . S
H2235 C2243 0.950 . S
H2236 C2241 0.950 . S
H2237 C2242 0.949 . S
H2238 C2244 0.950 . S
H2239 C2245 0.950 . S
H2240 C2246 0.949 . S
C2241 H2236 0.950 . S
C2241 C2243 1.327 . S
C2241 C2247 1.429 . S
C2242 C2234 1.574 . S
C2242 H2237 0.949 . S
C2242 C2248 1.368 . S
C2243 C2227 1.349 . S
C2243 H2235 0.950 . S
C2243 C2241 1.327 . S
C2244 C2232 1.349 . S
C2244 H2238 0.950 . S
C2244 C2245 1.327 . S
C2245 H2239 0.950 . S
C2245 C2244 1.327 . S
C2245 C2249 1.429 . S
C2246 C2229 1.574 . S
C2246 H2240 0.949 . S
C2246 C2250 1.368 . S
C2247 C2228 1.429 . S
C2247 C2241 1.429 . S
C2247 C2248 1.523 . S
C2248 C2229 1.368 . S
C2248 C2242 1.368 . S
C2248 C2247 1.523 . S
C2249 C2233 1.429 . S
C2249 C2245 1.429 . S
C2249 C2250 1.523 . S
C2250 C2234 1.368 . S
C2250 C2246 1.368 . S
C2250 C2249 1.523 . S
H2251 C2226 0.950 . S
H2252 C2228 0.950 . S
H2253 C2229 0.949 . S
H2254 C2231 0.950 . S
H2255 C2233 0.950 . S
C2256 C2257 1.349 . S
C2256 C2258 1.327 . S
C2256 H2281 0.950 . S
C2257 C2256 1.349 . S
C2257 C2273 1.349 . S
C2258 C2256 1.327 . S
C2258 C2277 1.429 . S
C2258 H2282 0.950 . S
C2259 C2276 1.574 . S
C2259 C2278 1.368 . S
C2259 H2283 0.949 . S
H2260 C2264 0.949 . S
C2261 C2262 1.349 . S
C2261 C2263 1.327 . S
C2261 H2284 0.950 . S
C2262 C2261 1.349 . S
C2262 C2274 1.349 . S
C2263 C2261 1.327 . S
C2263 C2279 1.429 . S
C2263 H2285 0.950 . S
C2264 H2260 0.949 . S
C2264 C2272 1.574 . S
C2264 C2280 1.368 . S
H2265 C2273 0.950 . S
H2266 C2271 0.950 . S
H2267 C2272 0.949 . S
H2268 C2274 0.950 . S
H2269 C2275 0.950 . S
H2270 C2276 0.949 . S
C2271 H2266 0.950 . S
C2271 C2273 1.327 . S
C2271 C2277 1.429 . S
C2272 C2264 1.574 . S
C2272 H2267 0.949 . S
C2272 C2278 1.368 . S
C2273 C2257 1.349 . S
C2273 H2265 0.950 . S
C2273 C2271 1.327 . S
C2274 C2262 1.349 . S
C2274 H2268 0.950 . S
C2274 C2275 1.327 . S
C2275 H2269 0.950 . S
C2275 C2274 1.327 . S
C2275 C2279 1.429 . S
C2276 C2259 1.574 . S
C2276 H2270 0.949 . S
C2276 C2280 1.368 . S
C2277 C2258 1.429 . S
C2277 C2271 1.429 . S
C2277 C2278 1.523 . S
C2278 C2259 1.368 . S
C2278 C2272 1.368 . S
C2278 C2277 1.523 . S
C2279 C2263 1.429 . S
C2279 C2275 1.429 . S
C2279 C2280 1.523 . S
C2280 C2264 1.368 . S
C2280 C2276 1.368 . S
C2280 C2279 1.523 . S
H2281 C2256 0.950 . S
H2282 C2258 0.950 . S
H2283 C2259 0.949 . S
H2284 C2261 0.950 . S
H2285 C2263 0.950 . S
C2286 C2287 1.349 . S
C2286 C2288 1.327 . S
C2286 H2311 0.950 . S
C2287 C2286 1.349 . S
C2287 C2303 1.349 . S
C2288 C2286 1.327 . S
C2288 C2307 1.429 . S
C2288 H2312 0.950 . S
C2289 C2306 1.574 . S
C2289 C2308 1.368 . S
C2289 H2313 0.949 . S
H2290 C2294 0.949 . S
C2291 C2292 1.349 . S
C2291 C2293 1.327 . S
C2291 H2314 0.950 . S
C2292 C2291 1.349 . S
C2292 C2304 1.349 . S
C2293 C2291 1.327 . S
C2293 C2309 1.429 . S
C2293 H2315 0.950 . S
C2294 H2290 0.949 . S
C2294 C2302 1.574 . S
C2294 C2310 1.368 . S
H2295 C2303 0.950 . S
H2296 C2301 0.950 . S
H2297 C2302 0.949 . S
H2298 C2304 0.950 . S
H2299 C2305 0.950 . S
H2300 C2306 0.949 . S
C2301 H2296 0.950 . S
C2301 C2303 1.327 . S
C2301 C2307 1.429 . S
C2302 C2294 1.574 . S
C2302 H2297 0.949 . S
C2302 C2308 1.368 . S
C2303 C2287 1.349 . S
C2303 H2295 0.950 . S
C2303 C2301 1.327 . S
C2304 C2292 1.349 . S
C2304 H2298 0.950 . S
C2304 C2305 1.327 . S
C2305 H2299 0.950 . S
C2305 C2304 1.327 . S
C2305 C2309 1.429 . S
C2306 C2289 1.574 . S
C2306 H2300 0.949 . S
C2306 C2310 1.368 . S
C2307 C2288 1.429 . S
C2307 C2301 1.429 . S
C2307 C2308 1.523 . S
C2308 C2289 1.368 . S
C2308 C2302 1.368 . S
C2308 C2307 1.523 . S
C2309 C2293 1.429 . S
C2309 C2305 1.429 . S
C2309 C2310 1.523 . S
C2310 C2294 1.368 . S
C2310 C2306 1.368 . S
C2310 C2309 1.523 . S
H2311 C2286 0.950 . S
H2312 C2288 0.950 . S
H2313 C2289 0.949 . S
H2314 C2291 0.950 . S
H2315 C2293 0.950 . S
C2316 C2317 1.349 . S
C2316 C2318 1.327 . S
C2316 H2341 0.950 . S
C2317 C2316 1.349 . S
C2317 C2333 1.349 . S
C2318 C2316 1.327 . S
C2318 C2337 1.429 . S
C2318 H2342 0.950 . S
C2319 C2336 1.574 . S
C2319 C2338 1.368 . S
C2319 H2343 0.949 . S
H2320 C2324 0.949 . S
C2321 C2322 1.349 . S
C2321 C2323 1.327 . S
C2321 H2344 0.950 . S
C2322 C2321 1.349 . S
C2322 C2334 1.349 . S
C2323 C2321 1.327 . S
C2323 C2339 1.429 . S
C2323 H2345 0.950 . S
C2324 H2320 0.949 . S
C2324 C2332 1.574 . S
C2324 C2340 1.368 . S
H2325 C2333 0.950 . S
H2326 C2331 0.950 . S
H2327 C2332 0.949 . S
H2328 C2334 0.950 . S
H2329 C2335 0.950 . S
H2330 C2336 0.949 . S
C2331 H2326 0.950 . S
C2331 C2333 1.327 . S
C2331 C2337 1.429 . S
C2332 C2324 1.574 . S
C2332 H2327 0.949 . S
C2332 C2338 1.368 . S
C2333 C2317 1.349 . S
C2333 H2325 0.950 . S
C2333 C2331 1.327 . S
C2334 C2322 1.349 . S
C2334 H2328 0.950 . S
C2334 C2335 1.327 . S
C2335 H2329 0.950 . S
C2335 C2334 1.327 . S
C2335 C2339 1.429 . S
C2336 C2319 1.574 . S
C2336 H2330 0.949 . S
C2336 C2340 1.368 . S
C2337 C2318 1.429 . S
C2337 C2331 1.429 . S
C2337 C2338 1.523 . S
C2338 C2319 1.368 . S
C2338 C2332 1.368 . S
C2338 C2337 1.523 . S
C2339 C2323 1.429 . S
C2339 C2335 1.429 . S
C2339 C2340 1.523 . S
C2340 C2324 1.368 . S
C2340 C2336 1.368 . S
C2340 C2339 1.523 . S
H2341 C2316 0.950 . S
H2342 C2318 0.950 . S
H2343 C2319 0.949 . S
H2344 C2321 0.950 . S
H2345 C2323 0.950 . S
C2346 C2347 1.349 . S
C2346 C2348 1.327 . S
C2346 H2371 0.950 . S
C2347 C2346 1.349 . S
C2347 C2363 1.349 . S
C2348 C2346 1.327 . S
C2348 C2367 1.429 . S
C2348 H2372 0.950 . S
C2349 C2366 1.574 . S
C2349 C2368 1.368 . S
C2349 H2373 0.949 . S
H2350 C2354 0.949 . S
C2351 C2352 1.349 . S
C2351 C2353 1.327 . S
C2351 H2374 0.950 . S
C2352 C2351 1.349 . S
C2352 C2364 1.349 . S
C2353 C2351 1.327 . S
C2353 C2369 1.429 . S
C2353 H2375 0.950 . S
C2354 H2350 0.949 . S
C2354 C2362 1.574 . S
C2354 C2370 1.368 . S
H2355 C2363 0.950 . S
H2356 C2361 0.950 . S
H2357 C2362 0.949 . S
H2358 C2364 0.950 . S
H2359 C2365 0.950 . S
H2360 C2366 0.949 . S
C2361 H2356 0.950 . S
C2361 C2363 1.327 . S
C2361 C2367 1.429 . S
C2362 C2354 1.574 . S
C2362 H2357 0.949 . S
C2362 C2368 1.368 . S
C2363 C2347 1.349 . S
C2363 H2355 0.950 . S
C2363 C2361 1.327 . S
C2364 C2352 1.349 . S
C2364 H2358 0.950 . S
C2364 C2365 1.327 . S
C2365 H2359 0.950 . S
C2365 C2364 1.327 . S
C2365 C2369 1.429 . S
C2366 C2349 1.574 . S
C2366 H2360 0.949 . S
C2366 C2370 1.368 . S
C2367 C2348 1.429 . S
C2367 C2361 1.429 . S
C2367 C2368 1.523 . S
C2368 C2349 1.368 . S
C2368 C2362 1.368 . S
C2368 C2367 1.523 . S
C2369 C2353 1.429 . S
C2369 C2365 1.429 . S
C2369 C2370 1.523 . S
C2370 C2354 1.368 . S
C2370 C2366 1.368 . S
C2370 C2369 1.523 . S
H2371 C2346 0.950 . S
H2372 C2348 0.950 . S
H2373 C2349 0.949 . S
H2374 C2351 0.950 . S
H2375 C2353 0.950 . S
C2376 C2377 1.349 . S
C2376 C2378 1.327 . S
C2376 H2401 0.950 . S
C2377 C2376 1.349 . S
C2377 C2393 1.349 . S
C2378 C2376 1.327 . S
C2378 C2397 1.429 . S
C2378 H2402 0.950 . S
C2379 C2396 1.574 . S
C2379 C2398 1.368 . S
C2379 H2403 0.949 . S
H2380 C2384 0.949 . S
C2381 C2382 1.349 . S
C2381 C2383 1.327 . S
C2381 H2404 0.950 . S
C2382 C2381 1.349 . S
C2382 C2394 1.349 . S
C2383 C2381 1.327 . S
C2383 C2399 1.429 . S
C2383 H2405 0.950 . S
C2384 H2380 0.949 . S
C2384 C2392 1.574 . S
C2384 C2400 1.368 . S
H2385 C2393 0.950 1_545 S
H2386 C2391 0.950 . S
H2387 C2392 0.949 . S
H2388 C2394 0.950 . S
H2389 C2395 0.950 . S
H2390 C2396 0.949 . S
C2391 H2386 0.950 . S
C2391 C2393 1.327 . S
C2391 C2397 1.429 . S
C2392 C2384 1.574 . S
C2392 H2387 0.949 . S
C2392 C2398 1.368 . S
C2393 C2377 1.349 . S
C2393 H2385 0.950 1_565 S
C2393 C2391 1.327 . S
C2394 C2382 1.349 . S
C2394 H2388 0.950 . S
C2394 C2395 1.327 . S
C2395 H2389 0.950 . S
C2395 C2394 1.327 . S
C2395 C2399 1.429 . S
C2396 C2379 1.574 . S
C2396 H2390 0.949 . S
C2396 C2400 1.368 . S
C2397 C2378 1.429 . S
C2397 C2391 1.429 . S
C2397 C2398 1.523 . S
C2398 C2379 1.368 . S
C2398 C2392 1.368 . S
C2398 C2397 1.523 . S
C2399 C2383 1.429 . S
C2399 C2395 1.429 . S
C2399 C2400 1.523 . S
C2400 C2384 1.368 . S
C2400 C2396 1.368 . S
C2400 C2399 1.523 . S
H2401 C2376 0.950 . S
H2402 C2378 0.950 . S
H2403 C2379 0.949 . S
H2404 C2381 0.950 . S
H2405 C2383 0.950 . S
C2406 C2407 1.349 . S
C2406 C2408 1.327 . S
C2406 H2431 0.950 . S
C2407 C2406 1.349 . S
C2407 C2423 1.349 . S
C2408 C2406 1.327 . S
C2408 C2427 1.429 . S
C2408 H2432 0.950 . S
C2409 C2426 1.574 . S
C2409 C2428 1.368 . S
C2409 H2433 0.949 . S
H2410 C2414 0.949 . S
C2411 C2412 1.349 . S
C2411 C2413 1.327 . S
C2411 H2434 0.950 . S
C2412 C2411 1.349 . S
C2412 C2424 1.349 . S
C2413 C2411 1.327 . S
C2413 C2429 1.429 . S
C2413 H2435 0.950 . S
C2414 H2410 0.949 . S
C2414 C2422 1.574 . S
C2414 C2430 1.368 . S
H2415 C2423 0.950 . S
H2416 C2421 0.950 . S
H2417 C2422 0.949 . S
H2418 C2424 0.950 . S
H2419 C2425 0.950 . S
H2420 C2426 0.949 . S
C2421 H2416 0.950 . S
C2421 C2423 1.327 . S
C2421 C2427 1.429 . S
C2422 C2414 1.574 . S
C2422 H2417 0.949 . S
C2422 C2428 1.368 . S
C2423 C2407 1.349 . S
C2423 H2415 0.950 . S
C2423 C2421 1.327 . S
C2424 C2412 1.349 . S
C2424 H2418 0.950 . S
C2424 C2425 1.327 . S
C2425 H2419 0.950 . S
C2425 C2424 1.327 . S
C2425 C2429 1.429 . S
C2426 C2409 1.574 . S
C2426 H2420 0.949 . S
C2426 C2430 1.368 . S
C2427 C2408 1.429 . S
C2427 C2421 1.429 . S
C2427 C2428 1.523 . S
C2428 C2409 1.368 . S
C2428 C2422 1.368 . S
C2428 C2427 1.523 . S
C2429 C2413 1.429 . S
C2429 C2425 1.429 . S
C2429 C2430 1.523 . S
C2430 C2414 1.368 . S
C2430 C2426 1.368 . S
C2430 C2429 1.523 . S
H2431 C2406 0.950 . S
H2432 C2408 0.950 . S
H2433 C2409 0.949 . S
H2434 C2411 0.950 . S
H2435 C2413 0.950 . S
C2436 C2437 1.349 . S
C2436 C2438 1.327 . S
C2436 H2461 0.950 . S
C2437 C2436 1.349 . S
C2437 C2453 1.349 . S
C2438 C2436 1.327 . S
C2438 C2457 1.429 . S
C2438 H2462 0.950 . S
C2439 C2456 1.574 . S
C2439 C2458 1.368 . S
C2439 H2463 0.949 . S
H2440 C2444 0.949 . S
C2441 C2442 1.349 . S
C2441 C2443 1.327 . S
C2441 H2464 0.950 . S
C2442 C2441 1.349 . S
C2442 C2454 1.349 . S
C2443 C2441 1.327 . S
C2443 C2459 1.429 . S
C2443 H2465 0.950 . S
C2444 H2440 0.949 . S
C2444 C2452 1.574 . S
C2444 C2460 1.368 . S
H2445 C2453 0.950 . S
H2446 C2451 0.950 . S
H2447 C2452 0.949 . S
H2448 C2454 0.950 . S
H2449 C2455 0.950 . S
H2450 C2456 0.949 . S
C2451 H2446 0.950 . S
C2451 C2453 1.327 . S
C2451 C2457 1.429 . S
C2452 C2444 1.574 . S
C2452 H2447 0.949 . S
C2452 C2458 1.368 . S
C2453 C2437 1.349 . S
C2453 H2445 0.950 . S
C2453 C2451 1.327 . S
C2454 C2442 1.349 . S
C2454 H2448 0.950 . S
C2454 C2455 1.327 . S
C2455 H2449 0.950 . S
C2455 C2454 1.327 . S
C2455 C2459 1.429 . S
C2456 C2439 1.574 . S
C2456 H2450 0.949 . S
C2456 C2460 1.368 . S
C2457 C2438 1.429 . S
C2457 C2451 1.429 . S
C2457 C2458 1.523 . S
C2458 C2439 1.368 . S
C2458 C2452 1.368 . S
C2458 C2457 1.523 . S
C2459 C2443 1.429 . S
C2459 C2455 1.429 . S
C2459 C2460 1.523 . S
C2460 C2444 1.368 . S
C2460 C2456 1.368 . S
C2460 C2459 1.523 . S
H2461 C2436 0.950 . S
H2462 C2438 0.950 . S
H2463 C2439 0.949 . S
H2464 C2441 0.950 . S
H2465 C2443 0.950 . S
C2466 C2467 1.349 . S
C2466 C2468 1.327 . S
C2466 H2491 0.950 . S
C2467 C2466 1.349 . S
C2467 C2483 1.349 . S
C2468 C2466 1.327 . S
C2468 C2487 1.429 . S
C2468 H2492 0.950 . S
C2469 C2486 1.574 . S
C2469 C2488 1.368 . S
C2469 H2493 0.949 . S
H2470 C2474 0.949 . S
C2471 C2472 1.349 . S
C2471 C2473 1.327 . S
C2471 H2494 0.950 . S
C2472 C2471 1.349 . S
C2472 C2484 1.349 . S
C2473 C2471 1.327 . S
C2473 C2489 1.429 . S
C2473 H2495 0.950 . S
C2474 H2470 0.949 . S
C2474 C2482 1.574 . S
C2474 C2490 1.368 . S
H2475 C2483 0.950 . S
H2476 C2481 0.950 . S
H2477 C2482 0.949 . S
H2478 C2484 0.950 . S
H2479 C2485 0.950 . S
H2480 C2486 0.949 . S
C2481 H2476 0.950 . S
C2481 C2483 1.327 . S
C2481 C2487 1.429 . S
C2482 C2474 1.574 . S
C2482 H2477 0.949 . S
C2482 C2488 1.368 . S
C2483 C2467 1.349 . S
C2483 H2475 0.950 . S
C2483 C2481 1.327 . S
C2484 C2472 1.349 . S
C2484 H2478 0.950 . S
C2484 C2485 1.327 . S
C2485 H2479 0.950 . S
C2485 C2484 1.327 . S
C2485 C2489 1.429 . S
C2486 C2469 1.574 . S
C2486 H2480 0.949 . S
C2486 C2490 1.368 . S
C2487 C2468 1.429 . S
C2487 C2481 1.429 . S
C2487 C2488 1.523 . S
C2488 C2469 1.368 . S
C2488 C2482 1.368 . S
C2488 C2487 1.523 . S
C2489 C2473 1.429 . S
C2489 C2485 1.429 . S
C2489 C2490 1.523 . S
C2490 C2474 1.368 . S
C2490 C2486 1.368 . S
C2490 C2489 1.523 . S
H2491 C2466 0.950 . S
H2492 C2468 0.950 . S
H2493 C2469 0.949 . S
H2494 C2471 0.950 . S
H2495 C2473 0.950 . S
C2496 C2497 1.349 . S
C2496 C2498 1.327 . S
C2496 H2521 0.950 . S
C2497 C2496 1.349 . S
C2497 C2513 1.349 . S
C2498 C2496 1.327 . S
C2498 C2517 1.429 . S
C2498 H2522 0.950 . S
C2499 C2516 1.574 . S
C2499 C2518 1.368 . S
C2499 H2523 0.949 . S
H2500 C2504 0.949 . S
C2501 C2502 1.349 . S
C2501 C2503 1.327 . S
C2501 H2524 0.950 . S
C2502 C2501 1.349 . S
C2502 C2514 1.349 . S
C2503 C2501 1.327 . S
C2503 C2519 1.429 . S
C2503 H2525 0.950 . S
C2504 H2500 0.949 . S
C2504 C2512 1.574 . S
C2504 C2520 1.368 . S
H2505 C2513 0.950 . S
H2506 C2511 0.950 . S
H2507 C2512 0.949 . S
H2508 C2514 0.950 . S
H2509 C2515 0.950 . S
H2510 C2516 0.949 . S
C2511 H2506 0.950 . S
C2511 C2513 1.327 . S
C2511 C2517 1.429 . S
C2512 C2504 1.574 . S
C2512 H2507 0.949 . S
C2512 C2518 1.368 . S
C2513 C2497 1.349 . S
C2513 H2505 0.950 . S
C2513 C2511 1.327 . S
C2514 C2502 1.349 . S
C2514 H2508 0.950 . S
C2514 C2515 1.327 . S
C2515 H2509 0.950 . S
C2515 C2514 1.327 . S
C2515 C2519 1.429 . S
C2516 C2499 1.574 . S
C2516 H2510 0.949 . S
C2516 C2520 1.368 . S
C2517 C2498 1.429 . S
C2517 C2511 1.429 . S
C2517 C2518 1.523 . S
C2518 C2499 1.368 . S
C2518 C2512 1.368 . S
C2518 C2517 1.523 . S
C2519 C2503 1.429 . S
C2519 C2515 1.429 . S
C2519 C2520 1.523 . S
C2520 C2504 1.368 . S
C2520 C2516 1.368 . S
C2520 C2519 1.523 . S
H2521 C2496 0.950 . S
H2522 C2498 0.950 . S
H2523 C2499 0.949 . S
H2524 C2501 0.950 . S
H2525 C2503 0.950 . S
C2526 C2527 1.349 . S
C2526 C2528 1.327 . S
C2526 H2551 0.958 . S
C2527 C2526 1.349 . S
C2527 C2543 1.349 . S
C2528 C2526 1.327 . S
C2528 C2547 1.429 . S
C2528 H2552 0.950 . S
C2529 C2546 1.574 . S
C2529 C2548 1.368 . S
C2529 H2553 0.949 . S
H2530 C2534 0.949 . S
C2531 C2532 1.349 . S
C2531 C2533 1.327 . S
C2531 H2554 0.950 . S
C2532 C2531 1.349 . S
C2532 C2544 1.349 . S
C2533 C2531 1.327 . S
C2533 C2549 1.429 . S
C2533 H2555 0.950 . S
C2534 H2530 0.949 . S
C2534 C2542 1.574 . S
C2534 C2550 1.368 . S
H2535 C2543 0.950 . S
H2536 C2541 0.950 . S
H2537 C2542 0.949 . S
H2538 C2544 0.950 . S
H2539 C2545 0.950 . S
H2540 C2546 0.949 . S
C2541 H2536 0.950 . S
C2541 C2543 1.327 . S
C2541 C2547 1.429 . S
C2542 C2534 1.574 . S
C2542 H2537 0.949 . S
C2542 C2548 1.368 . S
C2543 C2527 1.349 . S
C2543 H2535 0.950 . S
C2543 C2541 1.327 . S
C2544 C2532 1.349 . S
C2544 H2538 0.950 . S
C2544 C2545 1.327 . S
C2545 H2539 0.950 . S
C2545 C2544 1.327 . S
C2545 C2549 1.429 . S
C2546 C2529 1.574 . S
C2546 H2540 0.949 . S
C2546 C2550 1.368 . S
C2547 C2528 1.429 . S
C2547 C2541 1.429 . S
C2547 C2548 1.523 . S
C2548 C2529 1.368 . S
C2548 C2542 1.368 . S
C2548 C2547 1.523 . S
C2549 C2533 1.429 . S
C2549 C2545 1.429 . S
C2549 C2550 1.523 . S
C2550 C2534 1.368 . S
C2550 C2546 1.368 . S
C2550 C2549 1.523 . S
H2551 C2526 0.958 . S
H2552 C2528 0.950 . S
H2553 C2529 0.949 . S
H2554 C2531 0.950 . S
H2555 C2533 0.950 . S
C2556 C2557 1.349 . S
C2556 C2558 1.327 . S
C2556 H2581 0.950 . S
C2557 C2556 1.349 . S
C2557 C2573 1.349 . S
C2558 C2556 1.327 . S
C2558 C2577 1.429 . S
C2558 H2582 0.950 . S
C2559 C2576 1.574 . S
C2559 C2578 1.368 . S
C2559 H2583 0.949 . S
H2560 C2564 0.949 . S
C2561 C2562 1.349 . S
C2561 C2563 1.327 . S
C2561 H2584 0.950 . S
C2562 C2561 1.349 . S
C2562 C2574 1.349 . S
C2563 C2561 1.327 . S
C2563 C2579 1.429 . S
C2563 H2585 0.950 . S
C2564 H2560 0.949 . S
C2564 C2572 1.574 . S
C2564 C2580 1.368 . S
H2565 C2573 0.950 . S
H2566 C2571 0.950 . S
H2567 C2572 0.949 . S
H2568 C2574 0.950 . S
H2569 C2575 0.950 . S
H2570 C2576 0.949 . S
C2571 H2566 0.950 . S
C2571 C2573 1.327 . S
C2571 C2577 1.429 . S
C2572 C2564 1.574 . S
C2572 H2567 0.949 . S
C2572 C2578 1.368 . S
C2573 C2557 1.349 . S
C2573 H2565 0.950 . S
C2573 C2571 1.327 . S
C2574 C2562 1.349 . S
C2574 H2568 0.950 . S
C2574 C2575 1.327 . S
C2575 H2569 0.950 . S
C2575 C2574 1.327 . S
C2575 C2579 1.429 . S
C2576 C2559 1.574 . S
C2576 H2570 0.949 . S
C2576 C2580 1.368 . S
C2577 C2558 1.429 . S
C2577 C2571 1.429 . S
C2577 C2578 1.523 . S
C2578 C2559 1.368 . S
C2578 C2572 1.368 . S
C2578 C2577 1.523 . S
C2579 C2563 1.429 . S
C2579 C2575 1.429 . S
C2579 C2580 1.523 . S
C2580 C2564 1.368 . S
C2580 C2576 1.368 . S
C2580 C2579 1.523 . S
H2581 C2556 0.950 . S
H2582 C2558 0.950 . S
H2583 C2559 0.949 . S
H2584 C2561 0.950 . S
H2585 C2563 0.950 . S
C2586 C2587 1.349 . S
C2586 C2588 1.327 . S
C2586 H2611 0.950 . S
C2587 C2586 1.349 . S
C2587 C2603 1.349 . S
C2588 C2586 1.327 . S
C2588 C2607 1.429 . S
C2588 H2612 0.950 . S
C2589 C2606 1.574 . S
C2589 C2608 1.368 . S
C2589 H2613 0.949 . S
H2590 C2594 0.949 . S
C2591 C2592 1.349 . S
C2591 C2593 1.327 . S
C2591 H2614 0.950 . S
C2592 C2591 1.349 . S
C2592 C2604 1.349 . S
C2593 C2591 1.327 . S
C2593 C2609 1.429 . S
C2593 H2615 0.950 . S
C2594 H2590 0.949 . S
C2594 C2602 1.574 . S
C2594 C2610 1.368 . S
H2595 C2603 0.950 . S
H2596 C2601 0.950 . S
H2597 C2602 0.949 . S
H2598 C2604 0.950 . S
H2599 C2605 0.950 . S
H2600 C2606 0.949 . S
C2601 H2596 0.950 . S
C2601 C2603 1.327 . S
C2601 C2607 1.429 . S
C2602 C2594 1.574 . S
C2602 H2597 0.949 . S
C2602 C2608 1.368 . S
C2603 C2587 1.349 . S
C2603 H2595 0.950 . S
C2603 C2601 1.327 . S
C2604 C2592 1.349 . S
C2604 H2598 0.950 . S
C2604 C2605 1.327 . S
C2605 H2599 0.950 . S
C2605 C2604 1.327 . S
C2605 C2609 1.429 . S
C2606 C2589 1.574 . S
C2606 H2600 0.949 . S
C2606 C2610 1.368 . S
C2607 C2588 1.429 . S
C2607 C2601 1.429 . S
C2607 C2608 1.523 . S
C2608 C2589 1.368 . S
C2608 C2602 1.368 . S
C2608 C2607 1.523 . S
C2609 C2593 1.429 . S
C2609 C2605 1.429 . S
C2609 C2610 1.523 . S
C2610 C2594 1.368 . S
C2610 C2606 1.368 . S
C2610 C2609 1.523 . S
H2611 C2586 0.950 . S
H2612 C2588 0.950 . S
H2613 C2589 0.949 . S
H2614 C2591 0.950 . S
H2615 C2593 0.950 . S
C2616 C2617 1.349 . S
C2616 C2618 1.327 . S
C2616 H2641 0.950 . S
C2617 C2616 1.349 . S
C2617 C2633 1.349 . S
C2618 C2616 1.327 . S
C2618 C2637 1.429 . S
C2618 H2642 0.950 . S
C2619 C2636 1.574 . S
C2619 C2638 1.368 . S
C2619 H2643 0.949 . S
H2620 C2624 0.949 . S
C2621 C2622 1.349 . S
C2621 C2623 1.327 . S
C2621 H2644 0.950 . S
C2622 C2621 1.349 . S
C2622 C2634 1.349 . S
C2623 C2621 1.327 . S
C2623 C2639 1.429 . S
C2623 H2645 0.950 . S
C2624 H2620 0.949 . S
C2624 C2632 1.574 . S
C2624 C2640 1.368 . S
H2625 C2633 0.950 . S
H2626 C2631 0.950 . S
H2627 C2632 0.949 . S
H2628 C2634 0.950 . S
H2629 C2635 0.950 . S
H2630 C2636 0.949 . S
C2631 H2626 0.950 . S
C2631 C2633 1.327 . S
C2631 C2637 1.429 . S
C2632 C2624 1.574 . S
C2632 H2627 0.949 . S
C2632 C2638 1.368 . S
C2633 C2617 1.349 . S
C2633 H2625 0.950 . S
C2633 C2631 1.327 . S
C2634 C2622 1.349 . S
C2634 H2628 0.950 . S
C2634 C2635 1.327 . S
C2635 H2629 0.950 . S
C2635 C2634 1.327 . S
C2635 C2639 1.429 . S
C2636 C2619 1.574 . S
C2636 H2630 0.949 . S
C2636 C2640 1.368 . S
C2637 C2618 1.429 . S
C2637 C2631 1.429 . S
C2637 C2638 1.523 . S
C2638 C2619 1.368 . S
C2638 C2632 1.368 . S
C2638 C2637 1.523 . S
C2639 C2623 1.429 . S
C2639 C2635 1.429 . S
C2639 C2640 1.523 . S
C2640 C2624 1.368 . S
C2640 C2636 1.368 . S
C2640 C2639 1.523 . S
H2641 C2616 0.950 . S
H2642 C2618 0.950 . S
H2643 C2619 0.949 . S
H2644 C2621 0.950 . S
H2645 C2623 0.950 . S
C487 C29 1.275 . S
C492 C238 1.097 . S
C517 C4 1.247 . S
C522 C254 1.079 . S
C552 C237 1.124 . S
C547 C16 1.293 . S
C582 C262 1.091 . S
C577 C30 1.269 . S
C607 C3 1.291 . S
C612 C271 1.122 . S
C642 C274 1.079 . S
C637 C17 1.246 . S
C667 C70 1.274 . S
C672 C280 1.096 . S
C702 C296 1.080 . S
C697 C49 1.247 . S
C732 C279 1.124 . S
C727 C57 1.293 . S
C757 C75 1.269 . S
C762 C304 1.091 . S
C792 C313 1.122 . S
C787 C44 1.292 . S
C822 C316 1.079 . S
C817 C62 1.246 . S
C852 C325 1.097 . S
C847 C107 1.275 . S
C882 C337 1.079 . S
C877 C88 1.247 . S
C912 C334 1.124 . S
C907 C96 1.293 . S
C937 C108 1.269 . S
C942 C343 1.091 . S
C972 C342 1.122 . S
C967 C83 1.291 . S
C997 C101 1.247 . S
C1002 C359 1.079 . S
C1032 C364 1.097 . S
C1027 C146 1.274 . S
C1062 C380 1.080 . S
C1057 C121 1.247 . S
C1087 C135 1.293 . S
C1092 C363 1.124 . S
C1122 C388 1.091 . S
C1117 C147 1.269 . S
C1152 C397 1.122 . S
C1147 C120 1.291 . S
C1177 C140 1.246 . S
C1182 C400 1.079 . S
C1207 C187 1.274 . S
C1212 C409 1.097 . S
C1242 C421 1.080 . S
C1237 C160 1.247 . S
C1272 C418 1.124 . S
C1267 C172 1.293 . S
C1297 C192 1.270 . S
C1302 C427 1.091 . S
C1332 C426 1.122 . S
C1327 C159 1.291 . S
C1357 C173 1.246 . S
C1362 C443 1.079 . S
C1392 C448 1.097 . S
C1387 C226 1.275 . S
C1422 C464 1.079 . S
C1417 C205 1.247 . S
C1447 C213 1.293 . S
C1452 C447 1.124 . S
C1482 C469 1.091 . S
C1477 C231 1.269 . S
C1512 C468 1.122 . S
C1507 C200 1.291 . S
C1542 C485 1.079 . S
C1537 C218 1.246 . S
C1572 C250 1.515 . S
C1567 C148 1.633 . S
C1597 C127 1.607 . S
C1602 C253 1.463 1_655 S
C1632 C241 1.471 . S
C1627 C133 1.597 . S
C1657 C225 1.627 . S
C1662 C258 1.512 . S
C1687 C198 1.591 . S
C1692 C259 1.465 . S
C1722 C275 1.487 1_565 S
C1717 C212 1.603 . S
C1752 C292 1.518 1_565 S
C1747 C185 1.634 . S
C1782 C295 1.492 . S
C1777 C166 1.607 . S
C1807 C174 1.597 . S
C1812 C283 1.471 . S
C1842 C300 1.514 1_655 S
C1837 C114 1.627 . S
C1867 C81 1.591 . S
C1872 C301 1.466 . S
C1897 C95 1.603 . S
C1902 C317 1.487 . S
C1927 C224 1.633 1_655 S
C1932 C321 1.515 . S
C1957 C199 1.607 . S
C1962 C338 1.491 . S
C1992 C322 1.471 . S
C1987 C211 1.597 . S
C2022 C355 1.512 . S
C2017 C69 1.627 . S
C2052 C346 1.466 . S
C2047 C42 1.591 . S
C2077 C56 1.603 . S
C2082 C358 1.487 . S
C2112 C376 1.515 . S
C2107 C31 1.633 . S
C2142 C379 1.491 . S
C2137 C10 1.607 . S
C2167 C18 1.597 . S
C2172 C367 1.471 . S
C2202 C384 1.512 . S
C2197 C186 1.627 . S
C2232 C385 1.466 . S
C2227 C161 1.592 1_655 S
C2262 C401 1.487 . S
C2257 C179 1.603 . S
C2292 C405 1.515 . S
C2287 C68 1.634 . S
C2322 C422 1.491 . S
C2317 C43 1.607 . S
C2347 C55 1.597 . S
C2352 C406 1.471 . S
C2377 C153 1.627 1_565 S
C2382 C439 1.512 . S
C2407 C122 1.592 . S
C2412 C430 1.466 . S
C2442 C442 1.487 . S
C2437 C134 1.603 . S
C2467 C109 1.633 . S
C2472 C460 1.515 . S
C2497 C82 1.607 . S
C2502 C463 1.491 . S
C2532 C451 1.471 . S
C2527 C94 1.597 1_565 S
C2562 C481 1.512 . S
C2557 C36 1.627 . S
C2592 C472 1.466 . S
C2587 C5 1.591 . S
C2617 C23 1.603 . S
C2622 C484 1.487 . S
