# Generated by pormake.
# Topology nia, (6,6)-cn, num edge types: 1
# Building blocks:
#     Node 0, Type 0, BuildingBlock: PAMTUU_clean_sbu_0, # of connection points: 6
#     Node 1, Type 0, BuildingBlock: PAMTUU_clean_sbu_0, # of connection points: 6
#     Node 2, Type 1, BuildingBlock: MIDCAF_clean_sbu_0, # of connection points: 6
#     Node 3, Type 1, BuildingBlock: MIDCAF_clean_sbu_0, # of connection points: 6
#     Edge 4, Type (0, 1), BuildingBlock: MIFKUJ_clean_linker_0, # of connection points: 2
#     Edge 5, Type (0, 1), BuildingBlock: MIFKUJ_clean_linker_0, # of connection points: 2
#     Edge 6, Type (0, 1), BuildingBlock: MIFKUJ_clean_linker_0, # of connection points: 2
#     Edge 7, Type (0, 1), BuildingBlock: MIFKUJ_clean_linker_0, # of connection points: 2
#     Edge 8, Type (0, 1), BuildingBlock: MIFKUJ_clean_linker_0, # of connection points: 2
#     Edge 9, Type (0, 1), BuildingBlock: MIFKUJ_clean_linker_0, # of connection points: 2
#     Edge 10, Type (0, 1), BuildingBlock: MIFKUJ_clean_linker_0, # of connection points: 2
#     Edge 11, Type (0, 1), BuildingBlock: MIFKUJ_clean_linker_0, # of connection points: 2
#     Edge 12, Type (0, 1), BuildingBlock: MIFKUJ_clean_linker_0, # of connection points: 2
#     Edge 13, Type (0, 1), BuildingBlock: MIFKUJ_clean_linker_0, # of connection points: 2
#     Edge 14, Type (0, 1), BuildingBlock: MIFKUJ_clean_linker_0, # of connection points: 2
#     Edge 15, Type (0, 1), BuildingBlock: MIFKUJ_clean_linker_0, # of connection points: 2
# Relax obj value: 0.263
# Max RMSD: 0.257
# Mean RMSD: 0.228
data_MOF--net-nia--node1-PAMTUU_clean_sbu_0--node2-MIDCAF_clean_sbu_0--edge1-MIFKUJ_clean_linker_0
_symmetry_space_group_name_H-M    P1
_symmetry_Int_Tables_number       1
_symmetry_cell_setting            triclinic
loop_
_symmetry_equiv_pos_as_xyz
'x, y, z'
_cell_length_a     31.559004
_cell_length_b     34.899437
_cell_length_c     43.890328
_cell_angle_alpha  75.801151
_cell_angle_beta   99.414397
_cell_angle_gamma 126.74335
loop_
_atom_site_label
_atom_site_type_symbol
_atom_site_fract_x
_atom_site_fract_y
_atom_site_fract_z
_atom_type_partial_charge
Tb0 Tb 0.98146 0.95621 0.99903 0.0
Tb1 Tb 0.05721 0.04316 0.04012 0.0
C2 C 0.09868 0.03999 0.98169 0.0
C3 C 0.92747 0.84721 0.9643 0.0
C4 C 0.92652 0.77108 0.95195 0.0
C5 C 0.9504 0.81594 0.931 0.0
C6 C 0.95065 0.8536 0.93704 0.0
C7 C 0.90476 0.80265 0.9856 0.0
C8 C 0.90444 0.76507 0.97952 0.0
C9 C 0.92489 0.88583 0.97001 0.0
O10 O 0.0373 0.94251 0.02486 0.0
O11 O 0.05375 0.97939 0.06613 0.0
O12 O 0.97733 0.0106 0.05309 0.0
O13 O 0.94057 0.93559 0.04207 0.0
O14 O 0.12596 0.11346 0.04105 0.0
O15 O 0.07925 0.06861 0.08276 0.0
O16 O 0.02655 0.07275 1.00071 0.0
O17 O 0.95425 0.00225 0.98504 0.0
O18 O 0.05009 0.01401 0.97062 0.0
O19 O 0.10813 0.04502 1.01115 0.0
C20 C 0.05456 0.94917 0.0537 0.0
O21 O 0.91745 0.88356 0.99888 0.0
O22 O 0.95984 0.93039 0.95649 0.0
C23 C 0.93882 0.96407 0.05584 0.0
C24 C 0.13128 0.15524 0.07822 0.0
C25 C 0.16687 0.23891 0.10127 0.0
C26 C 0.11837 0.19436 0.11099 0.0
C27 C 0.10074 0.15279 0.09961 0.0
C28 C 0.17793 0.20032 0.06712 0.0
C29 C 0.19548 0.24168 0.07843 0.0
C30 C 0.11992 0.11119 0.07026 0.0
C31 C 0.98161 0.04916 0.98479 0.0
H32 H 0.96713 0.82131 0.90937 0.0
H33 H 0.96807 0.88733 0.92005 0.0
H34 H 0.88639 0.7964 1.00677 0.0
H35 H 0.88618 0.73098 0.9962 0.0
H36 H 0.09506 0.19123 0.12826 0.0
H37 H 0.06451 0.1185 0.10857 0.0
H38 H 0.20249 0.20313 0.05086 0.0
H39 H 0.23332 0.27507 0.07071 0.0
Tb40 Tb 0.05442 0.98691 0.49588 0.0
Tb41 Tb 0.98957 0.00852 0.53218 0.0
C42 C 0.0679 0.08829 0.47717 0.0
C43 C 0.14093 0.97394 0.45235 0.0
C44 C 0.21365 0.98186 0.41687 0.0
C45 C 0.19881 0.01403 0.40763 0.0
C46 C 0.16251 0.00997 0.42517 0.0
C47 C 0.15783 0.94373 0.46245 0.0
C48 C 0.19357 0.94748 0.44495 0.0
C49 C 0.09555 0.96153 0.46826 0.0
O50 O 0.11355 0.0398 0.52425 0.0
O51 O 0.05636 0.01741 0.56186 0.0
O52 O 0.95412 0.9312 0.54575 0.0
O53 O 0.02554 0.93303 0.53905 0.0
O54 O 0.99064 0.04575 0.56344 0.0
O55 O 0.91645 0.98772 0.54567 0.0
O56 O 0.95492 0.99927 0.48521 0.0
O57 O 0.97144 0.94547 0.48152 0.0
O58 O 0.07524 0.05794 0.4702 0.0
O59 O 0.03978 0.07726 0.50106 0.0
C60 C 0.10465 0.03943 0.55254 0.0
O61 O 0.09994 0.9605 0.49844 0.0
O62 O 0.06777 0.97742 0.45385 0.0
C63 C 0.97953 0.91118 0.5514 0.0
C64 C 0.91608 0.04719 0.56268 0.0
C65 C 0.87728 0.09583 0.57602 0.0
C66 C 0.84589 0.04473 0.58109 0.0
C67 C 0.8652 0.02071 0.57451 0.0
C68 C 0.94605 0.09822 0.55531 0.0
C69 C 0.92672 0.12235 0.5619 0.0
C70 C 0.9392 0.02091 0.56306 0.0
C71 C 0.94483 0.96427 0.47246 0.0
H72 H 0.21395 0.0413 0.38635 0.0
H73 H 0.1499 0.03366 0.41686 0.0
H74 H 0.1411 0.91522 0.48309 0.0
H75 H 0.20285 0.92128 0.4526 0.0
H76 H 0.80793 0.02317 0.59223 0.0
H77 H 0.84159 0.98133 0.58052 0.0
H78 H 0.98539 0.11951 0.546 0.0
H79 H 0.95145 0.16177 0.55728 0.0
Zn80 Zn 0.34443 0.67171 0.21058 0.0
Zn81 Zn 0.36826 0.66551 0.31936 0.0
Zn82 Zn 0.36302 0.67759 0.26267 0.0
C83 C 0.47131 0.71369 0.29911 0.0
C84 C 0.29528 0.57298 0.30694 0.0
O85 O 0.32412 0.71465 0.23842 0.0
O86 O 0.28018 0.67063 0.20156 0.0
C87 C 0.45124 0.74209 0.20901 0.0
O88 O 0.44771 0.7117 0.27207 0.0
O89 O 0.44516 0.69379 0.324 0.0
O90 O 0.31595 0.59433 0.33014 0.0
O91 O 0.30729 0.59796 0.27895 0.0
O92 O 0.41254 0.73344 0.19044 0.0
O93 O 0.4412 0.7191 0.23795 0.0
O94 O 0.415 0.66296 0.24924 0.0
O95 O 0.3466 0.61344 0.2214 0.0
C96 C 0.39036 0.62611 0.23548 0.0
O97 O 0.34839 0.72786 0.27067 0.0
O98 O 0.34835 0.70862 0.32243 0.0
C99 C 0.28949 0.70251 0.21571 0.0
C100 C 0.34394 0.73351 0.29754 0.0
Zn101 Zn 0.65094 0.24929 0.85509 0.0
Zn102 Zn 0.68662 0.34967 0.72101 0.0
Zn103 Zn 0.67972 0.32654 0.77862 0.0
C104 C 0.7247 0.43385 0.73685 0.0
C105 C 0.58077 0.27502 0.73358 0.0
O106 O 0.72243 0.29214 0.79926 0.0
O107 O 0.66936 0.22048 0.83005 0.0
C108 C 0.73013 0.34373 0.85139 0.0
O109 O 0.72427 0.40747 0.76318 0.0
O110 O 0.70257 0.41469 0.71291 0.0
O111 O 0.61371 0.29549 0.71198 0.0
O112 O 0.59668 0.28478 0.76142 0.0
O113 O 0.71221 0.30724 0.87355 0.0
O114 O 0.71096 0.33713 0.82381 0.0
O115 O 0.59585 0.28796 0.79329 0.0
O116 O 0.58712 0.24889 0.84345 0.0
C117 C 0.56951 0.2638 0.81911 0.0
O118 O 0.71275 0.29678 0.76041 0.0
O119 O 0.74385 0.34468 0.71469 0.0
C120 C 0.71306 0.25212 0.81654 0.0
C121 C 0.73985 0.31123 0.73615 0.0
H122 H 0.0881 0.90492 0.03165 0.0
H123 H 0.12713 0.86398 0.06154 0.0
H124 H 0.10934 0.89197 0.14745 0.0
H125 H 0.07306 0.93557 0.11729 0.0
H126 H 0.19734 0.90556 0.1508 0.0
H127 H 0.02471 0.7752 0.1207 0.0
H128 H 0.95145 0.73111 0.08375 0.0
H129 H 0.05088 0.71935 0.03639 0.0
H130 H 0.12508 0.76415 0.07269 0.0
H131 H 0.25457 0.73911 0.24648 0.0
H132 H 0.21488 0.78278 0.22237 0.0
H133 H 0.23078 0.76892 0.13056 0.0
H134 H 0.26992 0.72587 0.15441 0.0
H135 H 0.13785 0.74475 0.13399 0.0
H136 H 0.31164 0.88045 0.16147 0.0
H137 H 0.38767 0.93406 0.19378 0.0
H138 H 0.28573 0.93743 0.24521 0.0
H139 H 0.20887 0.8833 0.21349 0.0
C140 C 0.09231 0.90224 0.05693 0.0
C141 C 0.07701 0.92318 0.07212 0.0
C142 C 0.11434 0.87841 0.0741 0.0
C143 C 0.12001 0.87348 0.10701 0.0
C144 C 0.10516 0.89483 0.12215 0.0
C145 C 0.08421 0.91966 0.10489 0.0
C146 C 0.14255 0.84718 0.12555 0.0
C147 C 0.18355 0.86989 0.14756 0.0
C148 C 0.12556 0.80107 0.12092 0.0
C149 C 0.08063 0.77339 0.09933 0.0
C150 C 0.03107 0.76345 0.10231 0.0
C151 C 0.98937 0.73834 0.08146 0.0
C152 C 0.99654 0.72253 0.0577 0.0
C153 C 0.0454 0.73167 0.05479 0.0
C154 C 0.08729 0.7569 0.07551 0.0
C155 C 0.25056 0.74645 0.22117 0.0
C156 C 0.26596 0.72956 0.20239 0.0
C157 C 0.22766 0.77122 0.20735 0.0
C158 C 0.21999 0.77961 0.17448 0.0
C159 C 0.23584 0.76289 0.1559 0.0
C160 C 0.25823 0.73812 0.16963 0.0
C161 C 0.19331 0.80348 0.15898 0.0
C162 C 0.15127 0.78014 0.13755 0.0
C163 C 0.20919 0.8489 0.16426 0.0
C164 C 0.25442 0.87741 0.18529 0.0
C165 C 0.30526 0.89196 0.18 0.0
C166 C 0.34857 0.92281 0.19801 0.0
C167 C 0.34155 0.93956 0.22127 0.0
C168 C 0.29107 0.92468 0.22703 0.0
C169 C 0.24765 0.89386 0.20909 0.0
H170 H 0.37514 0.96348 0.23517 0.0
H171 H 0.96422 0.70312 0.04157 0.0
H172 H 0.2039 0.06347 0.54938 0.0
H173 H 0.27716 0.09861 0.58741 0.0
H174 H 0.18085 0.10219 0.64434 0.0
H175 H 0.10703 0.06659 0.60652 0.0
H176 H 0.2869 0.18966 0.6354 0.0
H177 H 0.1959 0.01644 0.66816 0.0
H178 H 0.15467 0.93363 0.65933 0.0
H179 H 0.30335 0.97768 0.62984 0.0
H180 H 0.34531 0.061 0.63802 0.0
H181 H 0.49539 0.26774 0.74954 0.0
H182 H 0.40442 0.21872 0.7287 0.0
H183 H 0.45247 0.16474 0.67317 0.0
H184 H 0.54098 0.20949 0.69632 0.0
H185 H 0.3594 0.09684 0.68889 0.0
H186 H 0.44736 0.26952 0.64636 0.0
H187 H 0.4924 0.35499 0.651 0.0
H188 H 0.35527 0.31583 0.69377 0.0
H189 H 0.30968 0.22998 0.68973 0.0
C190 C 0.19831 0.0719 0.56991 0.0
C191 C 0.14956 0.06199 0.57503 0.0
C192 C 0.24016 0.09186 0.59164 0.0
C193 C 0.23423 0.10267 0.61876 0.0
C194 C 0.18612 0.094 0.62358 0.0
C195 C 0.14396 0.07343 0.60204 0.0
C196 C 0.2781 0.12202 0.64232 0.0
C197 C 0.30232 0.16917 0.64756 0.0
C198 C 0.2985 0.09544 0.65776 0.0
C199 C 0.27367 0.04504 0.65355 0.0
C200 C 0.21975 0.00854 0.65964 0.0
C201 C 0.19625 0.9615 0.65476 0.0
C202 C 0.22635 0.95042 0.64399 0.0
C203 C 0.28008 0.98632 0.63818 0.0
C204 C 0.30376 0.03344 0.64298 0.0
C205 C 0.48551 0.24345 0.7341 0.0
C206 C 0.52458 0.24123 0.7252 0.0
C207 C 0.43391 0.2163 0.7216 0.0
C208 C 0.42153 0.18857 0.6988 0.0
C209 C 0.46053 0.18547 0.69075 0.0
C210 C 0.5113 0.21131 0.70389 0.0
C211 C 0.36985 0.16547 0.68129 0.0
C212 C 0.34379 0.11734 0.67718 0.0
C213 C 0.34851 0.19161 0.66634 0.0
C214 C 0.37533 0.24334 0.66802 0.0
C215 C 0.42689 0.27916 0.65682 0.0
C216 C 0.45253 0.32763 0.65938 0.0
C217 C 0.42676 0.3408 0.67275 0.0
C218 C 0.37521 0.30555 0.68347 0.0
C219 C 0.34944 0.257 0.68104 0.0
H220 H 0.44669 0.37834 0.67474 0.0
H221 H 0.20807 0.91399 0.64019 0.0
H222 H 0.16748 0.23633 0.16408 0.0
H223 H 0.22067 0.30479 0.19169 0.0
H224 H 0.27709 0.40457 0.10316 0.0
H225 H 0.22302 0.33623 0.07522 0.0
H226 H 0.35822 0.42081 0.14403 0.0
H227 H 0.19659 0.40242 0.14454 0.0
H228 H 0.10246 0.3628 0.15313 0.0
H229 H 0.12494 0.32449 0.25206 0.0
H230 H 0.21932 0.36389 0.24411 0.0
H231 H 0.43207 0.63818 0.18243 0.0
H232 H 0.41719 0.56971 0.16538 0.0
H233 H 0.38038 0.48858 0.26042 0.0
H234 H 0.39611 0.55794 0.27746 0.0
H235 H 0.29442 0.45707 0.22132 0.0
H236 H 0.46573 0.49381 0.21738 0.0
H237 H 0.55994 0.54412 0.2042 0.0
H238 H 0.51923 0.55878 0.10585 0.0
H239 H 0.42487 0.50927 0.1184 0.0
C240 C 0.18989 0.27287 0.15036 0.0
C241 C 0.19125 0.28074 0.11741 0.0
C242 C 0.22063 0.31198 0.16623 0.0
C243 C 0.25325 0.35969 0.14949 0.0
C244 C 0.2527 0.36794 0.11654 0.0
C245 C 0.22175 0.32887 0.10063 0.0
C246 C 0.28997 0.4006 0.16646 0.0
C247 C 0.34439 0.42912 0.16079 0.0
C248 C 0.27193 0.41055 0.18882 0.0
C249 C 0.21484 0.38535 0.19364 0.0
C250 C 0.18134 0.38501 0.16809 0.0
C251 C 0.12802 0.36288 0.17287 0.0
C252 C 0.10774 0.34115 0.20314 0.0
C253 C 0.14077 0.3415 0.22867 0.0
C254 C 0.19418 0.36372 0.22404 0.0
C255 C 0.42467 0.60707 0.20005 0.0
C256 C 0.41388 0.60243 0.23103 0.0
C257 C 0.41592 0.56771 0.19027 0.0
C258 C 0.39636 0.52354 0.21148 0.0
C259 C 0.395 0.52223 0.24362 0.0
C260 C 0.40412 0.56186 0.2534 0.0
C261 C 0.36303 0.47772 0.19896 0.0
C262 C 0.30876 0.4482 0.20522 0.0
C263 C 0.38122 0.46797 0.17652 0.0
C264 C 0.4381 0.49794 0.16889 0.0
C265 C 0.47684 0.50809 0.19295 0.0
C266 C 0.53031 0.53642 0.18558 0.0
C267 C 0.54557 0.55469 0.15421 0.0
C268 C 0.50737 0.5446 0.13014 0.0
C269 C 0.45387 0.51633 0.13738 0.0
H270 H 0.58698 0.57661 0.14856 0.0
H271 H 0.06647 0.3241 0.20681 0.0
H272 H 0.93998 0.17074 0.60798 0.0
H273 H 0.91232 0.20308 0.63722 0.0
H274 H 0.75107 0.10786 0.60565 0.0
H275 H 0.77862 0.07585 0.57546 0.0
H276 H 0.78864 0.20841 0.60725 0.0
H277 H 0.76292 0.0637 0.68008 0.0
H278 H 0.79389 0.01179 0.70157 0.0
H279 H 0.94309 0.13527 0.72782 0.0
H280 H 0.91309 0.1878 0.70601 0.0
H281 H 0.6975 0.21445 0.75349 0.0
H282 H 0.71981 0.17049 0.73142 0.0
H283 H 0.85168 0.30712 0.6841 0.0
H284 H 0.8294 0.35094 0.7058 0.0
H285 H 0.81101 0.17118 0.72302 0.0
H286 H 0.82874 0.30217 0.60762 0.0
H287 H 0.79639 0.35283 0.58587 0.0
H288 H 0.65905 0.25415 0.64324 0.0
H289 H 0.69008 0.20249 0.66483 0.0
C290 C 0.89888 0.15761 0.6064 0.0
C291 C 0.86147 0.12063 0.5894 0.0
C292 C 0.88308 0.17581 0.62341 0.0
C293 C 0.82964 0.15733 0.62384 0.0
C294 C 0.79249 0.12237 0.60561 0.0
C295 C 0.80826 0.10403 0.58855 0.0
C296 C 0.81267 0.17236 0.64518 0.0
C297 C 0.79368 0.20046 0.63252 0.0
C298 C 0.81791 0.16082 0.67811 0.0
C299 C 0.83543 0.12928 0.69214 0.0
C300 C 0.80215 0.07955 0.69069 0.0
C301 C 0.81961 0.05011 0.70276 0.0
C302 C 0.87031 0.07015 0.71625 0.0
C303 C 0.90371 0.11971 0.71757 0.0
C304 C 0.88646 0.14929 0.70544 0.0
C305 C 0.73253 0.23502 0.73946 0.0
C306 C 0.76141 0.28593 0.73093 0.0
C307 C 0.74515 0.20991 0.72684 0.0
C308 C 0.78665 0.23564 0.70564 0.0
C309 C 0.81905 0.28668 0.7001 0.0
C310 C 0.80627 0.31165 0.71244 0.0
C311 C 0.7909 0.21037 0.68504 0.0
C312 C 0.80665 0.17968 0.69779 0.0
C313 C 0.78232 0.21932 0.65214 0.0
C314 C 0.7619 0.24867 0.63792 0.0
C315 C 0.79138 0.29105 0.61532 0.0
C316 C 0.77333 0.31999 0.60308 0.0
C317 C 0.72575 0.30677 0.61321 0.0
C318 C 0.69593 0.2644 0.63544 0.0
C319 C 0.71372 0.23529 0.64767 0.0
H320 H 0.71197 0.32933 0.6038 0.0
H321 H 0.88379 0.04733 0.72555 0.0
H322 H 0.92152 0.01059 0.08896 0.0
H323 H 0.84406 0.97611 0.11943 0.0
H324 H 0.77211 0.83625 0.09516 0.0
H325 H 0.84985 0.87009 0.06534 0.0
H326 H 0.74675 0.94019 0.10453 0.0
H327 H 0.69417 0.74517 0.15149 0.0
H328 H 0.74132 0.70684 0.16856 0.0
H329 H 0.88 0.84137 0.19099 0.0
H330 H 0.8335 0.88028 0.17446 0.0
H331 H 0.48188 0.78578 0.14816 0.0
H332 H 0.56758 0.82432 0.12616 0.0
H333 H 0.6287 0.80002 0.21864 0.0
H334 H 0.54163 0.75762 0.24016 0.0
H335 H 0.66714 0.78463 0.18133 0.0
H336 H 0.66074 0.91779 0.17882 0.0
H337 H 0.62084 0.96279 0.16816 0.0
H338 H 0.615 0.96533 0.06928 0.0
H339 H 0.65443 0.91994 0.0794 0.0
C340 C 0.88941 0.97238 0.09029 0.0
C341 C 0.89217 0.94309 0.07481 0.0
C342 C 0.84498 0.95274 0.10766 0.0
C343 C 0.80231 0.90338 0.10998 0.0
C344 C 0.80486 0.87417 0.09434 0.0
C345 C 0.84935 0.8937 0.07711 0.0
C346 C 0.75455 0.8827 0.12798 0.0
C347 C 0.72952 0.90627 0.1214 0.0
C348 C 0.73272 0.83927 0.15082 0.0
C349 C 0.76046 0.81571 0.16146 0.0
C350 C 0.73462 0.76647 0.16023 0.0
C351 C 0.76127 0.74468 0.16977 0.0
C352 C 0.81367 0.77169 0.18076 0.0
C353 C 0.83948 0.82052 0.18237 0.0
C354 C 0.81302 0.84247 0.17288 0.0
C355 C 0.51363 0.78899 0.16394 0.0
C356 C 0.50504 0.76974 0.19626 0.0
C357 C 0.56294 0.81137 0.1513 0.0
C358 C 0.60554 0.81655 0.17075 0.0
C359 C 0.59698 0.79717 0.20303 0.0
C360 C 0.54721 0.77363 0.21553 0.0
C361 C 0.65847 0.84145 0.1572 0.0
C362 C 0.6845 0.8187 0.16462 0.0
C363 C 0.68258 0.88683 0.13619 0.0
C364 C 0.6603 0.91533 0.12988 0.0
C365 C 0.65086 0.9279 0.15481 0.0
C366 C 0.62831 0.95344 0.14887 0.0
C367 C 0.61532 0.96685 0.11807 0.0
C368 C 0.6251 0.95494 0.09313 0.0
C369 C 0.64767 0.92942 0.09894 0.0
H370 H 0.59774 0.98652 0.11352 0.0
H371 H 0.83425 0.75477 0.18807 0.0
H372 H 0.02804 0.8675 0.58043 0.0
H373 H 0.98857 0.78882 0.61599 0.0
H374 H 0.837 0.76626 0.60352 0.0
H375 H 0.87685 0.84581 0.56931 0.0
H376 H 0.84974 0.74122 0.66097 0.0
H377 H 0.87212 0.70446 0.56852 0.0
H378 H 0.92222 0.71646 0.52522 0.0
H379 H 0.0258 0.69585 0.592 0.0
H380 H 0.97655 0.68412 0.6357 0.0
H381 H 0.68506 0.48644 0.71982 0.0
H382 H 0.73228 0.57071 0.6922 0.0
H383 H 0.8793 0.5852 0.70947 0.0
H384 H 0.83158 0.5003 0.73728 0.0
H385 H 0.87284 0.61616 0.65132 0.0
H386 H 0.85632 0.66655 0.74253 0.0
H387 H 0.80562 0.65563 0.7851 0.0
H388 H 0.68974 0.65365 0.71736 0.0
H389 H 0.73931 0.66304 0.6747 0.0
C390 C 0.98626 0.84565 0.58521 0.0
C391 C 0.95556 0.86288 0.57208 0.0
C392 C 0.96359 0.80043 0.60538 0.0
C393 C 0.90946 0.77097 0.61214 0.0
C394 C 0.87881 0.78814 0.59876 0.0
C395 C 0.90164 0.83368 0.57913 0.0
C396 C 0.88491 0.7232 0.63411 0.0
C397 C 0.85438 0.71373 0.65852 0.0
C398 C 0.89177 0.6875 0.63162 0.0
C399 C 0.92089 0.69377 0.60537 0.0
C400 C 0.90571 0.70269 0.57396 0.0
C401 C 0.93394 0.70941 0.54935 0.0
C402 C 0.97724 0.70702 0.55586 0.0
C403 C 0.99227 0.69771 0.58699 0.0
C404 C 0.96415 0.69092 0.61169 0.0
C405 C 0.72785 0.50849 0.71928 0.0
C406 C 0.75484 0.48733 0.73173 0.0
C407 C 0.75498 0.55682 0.70329 0.0
C408 C 0.8099 0.58523 0.69926 0.0
C409 C 0.8372 0.56455 0.71276 0.0
C410 C 0.81004 0.51623 0.72909 0.0
C411 C 0.83753 0.63416 0.67819 0.0
C412 C 0.86853 0.64381 0.65385 0.0
C413 C 0.83067 0.66996 0.68038 0.0
C414 C 0.80052 0.66377 0.70581 0.0
C415 C 0.8193 0.66234 0.737 0.0
C416 C 0.79101 0.65686 0.76104 0.0
C417 C 0.74419 0.65349 0.75398 0.0
C418 C 0.7258 0.65591 0.72284 0.0
C419 C 0.75396 0.66126 0.69875 0.0
H420 H 0.72236 0.64937 0.7726 0.0
H421 H 0.99909 0.71232 0.53678 0.0
H422 H 0.2103 0.99575 0.35229 0.0
H423 H 0.24756 0.97571 0.31967 0.0
H424 H 0.32091 0.93884 0.40205 0.0
H425 H 0.28794 0.96298 0.43423 0.0
H426 H 0.37896 0.96889 0.35677 0.0
H427 H 0.19098 0.85407 0.37194 0.0
H428 H 0.0981 0.82631 0.3687 0.0
H429 H 0.10564 0.86621 0.26803 0.0
H430 H 0.19881 0.89484 0.27075 0.0
H431 H 0.3107 0.73741 0.34917 0.0
H432 H 0.30205 0.79933 0.35653 0.0
H433 H 0.348 0.87255 0.261 0.0
H434 H 0.35808 0.81116 0.25329 0.0
H435 H 0.2389 0.8397 0.29811 0.0
H436 H 0.43114 0.93754 0.29038 0.0
H437 H 0.51648 0.94863 0.30319 0.0
H438 H 0.49152 0.92263 0.40161 0.0
H439 H 0.40549 0.91034 0.3894 0.0
C440 C 0.23605 0.98522 0.36334 0.0
C441 C 0.24496 0.97984 0.39612 0.0
C442 C 0.25674 0.97305 0.34464 0.0
C443 C 0.28546 0.954 0.35848 0.0
C444 C 0.29832 0.9528 0.39072 0.0
C445 C 0.27878 0.96605 0.40925 0.0
C446 C 0.29757 0.9306 0.34055 0.0
C447 C 0.34837 0.94107 0.34365 0.0
C448 C 0.2579 0.89421 0.32325 0.0
C449 C 0.20207 0.87736 0.32157 0.0
C450 C 0.17293 0.85732 0.34914 0.0
C451 C 0.12023 0.84138 0.3474 0.0
C452 C 0.09605 0.8447 0.31818 0.0
C453 C 0.12449 0.86385 0.29065 0.0
C454 C 0.17726 0.87999 0.29228 0.0
C455 C 0.31887 0.76659 0.32954 0.0
C456 C 0.33486 0.76928 0.30053 0.0
C457 C 0.31387 0.80189 0.33386 0.0
C458 C 0.32448 0.84046 0.30927 0.0
C459 C 0.33938 0.84293 0.28008 0.0
C460 C 0.34503 0.80778 0.27575 0.0
C461 C 0.31956 0.87756 0.31498 0.0
C462 C 0.26993 0.86914 0.30999 0.0
C463 C 0.35954 0.91434 0.33163 0.0
C464 C 0.41169 0.92263 0.33896 0.0
C465 C 0.44362 0.93371 0.31476 0.0
C466 C 0.49215 0.94029 0.32191 0.0
C467 C 0.50937 0.93624 0.3532 0.0
C468 C 0.47813 0.92573 0.37739 0.0
C469 C 0.4295 0.91898 0.37036 0.0
H470 H 0.54695 0.94134 0.35869 0.0
H471 H 0.05522 0.83229 0.31687 0.0
H472 H 0.20298 0.10784 0.9939 0.0
H473 H 0.27779 0.14777 0.95979 0.0
H474 H 0.17256 0.0661 0.88849 0.0
H475 H 0.09711 0.02554 0.92265 0.0
H476 H 0.26479 0.06971 0.89806 0.0
H477 H 0.21787 0.18272 0.88101 0.0
H478 H 0.19839 0.23194 0.89937 0.0
H479 H 0.35345 0.31038 0.94205 0.0
H480 H 0.3736 0.26116 0.9243 0.0
H481 H 0.47411 0.19629 0.79473 0.0
H482 H 0.38712 0.1638 0.81265 0.0
H483 H 0.46294 0.26459 0.87707 0.0
H484 H 0.54836 0.30147 0.85545 0.0
H485 H 0.37746 0.24955 0.86637 0.0
H486 H 0.42366 0.13524 0.8932 0.0
H487 H 0.447 0.08423 0.88176 0.0
H488 H 0.301 0.00708 0.82966 0.0
H489 H 0.27707 0.05799 0.84052 0.0
C490 C 0.19559 0.09817 0.971 0.0
C491 C 0.14395 0.06363 0.96094 0.0
C492 C 0.23846 0.12122 0.95148 0.0
C493 C 0.23067 0.11036 0.92145 0.0
C494 C 0.17937 0.07518 0.91154 0.0
C495 C 0.13631 0.05222 0.93102 0.0
C496 C 0.27617 0.13615 0.9004 0.0
C497 C 0.28909 0.10899 0.89067 0.0
C498 C 0.30865 0.18745 0.8916 0.0
C499 C 0.29715 0.21811 0.90141 0.0
C500 C 0.24776 0.21037 0.89438 0.0
C501 C 0.23659 0.23825 0.9047 0.0
C502 C 0.27464 0.27423 0.9219 0.0
C503 C 0.32402 0.28252 0.92872 0.0
C504 C 0.33537 0.2547 0.91848 0.0
C505 C 0.47154 0.2138 0.81085 0.0
C506 C 0.51758 0.25296 0.82249 0.0
C507 C 0.42194 0.19398 0.82214 0.0
C508 C 0.41802 0.2103 0.84723 0.0
C509 C 0.46413 0.25099 0.85776 0.0
C510 C 0.51317 0.27231 0.84531 0.0
C511 C 0.36747 0.18337 0.86433 0.0
C512 C 0.35331 0.21025 0.87341 0.0
C513 C 0.33486 0.13182 0.87348 0.0
C514 C 0.34886 0.10072 0.86739 0.0
C515 C 0.39664 0.10748 0.87923 0.0
C516 C 0.40998 0.07862 0.87283 0.0
C517 C 0.37557 0.04254 0.85492 0.0
C518 C 0.32765 0.0351 0.84348 0.0
C519 C 0.31417 0.06392 0.84976 0.0
H520 H 0.38599 0.02027 0.84996 0.0
H521 H 0.26588 0.29572 0.92991 0.0
H522 H 0.14266 0.13384 0.43178 0.0
H523 H 0.18038 0.21436 0.39845 0.0
H524 H 0.08447 0.2337 0.44358 0.0
H525 H 0.04644 0.15355 0.47671 0.0
H526 H 0.08041 0.25913 0.38106 0.0
H527 H 0.21554 0.29356 0.46081 0.0
H528 H 0.27901 0.28149 0.49416 0.0
H529 H 0.36064 0.31382 0.41212 0.0
H530 H 0.29722 0.32558 0.37823 0.0
H531 H 0.2139 0.51524 0.34676 0.0
H532 H 0.17374 0.42969 0.37021 0.0
H533 H 0.26413 0.42446 0.30958 0.0
H534 H 0.30318 0.51025 0.28518 0.0
H535 H 0.2731 0.39037 0.37607 0.0
H536 H 0.13888 0.36127 0.29702 0.0
H537 H 0.0731 0.37132 0.26506 0.0
H538 H 0.98926 0.32954 0.34844 0.0
H539 H 0.0547 0.3193 0.38086 0.0
C540 C 0.12961 0.15524 0.43462 0.0
C541 C 0.09157 0.13717 0.45699 0.0
C542 C 0.15143 0.20137 0.41566 0.0
C543 C 0.13553 0.23024 0.41867 0.0
C544 C 0.09738 0.21214 0.44085 0.0
C545 C 0.07583 0.16628 0.45989 0.0
C546 C 0.15767 0.27894 0.39835 0.0
C547 C 0.12253 0.28791 0.3802 0.0
C548 C 0.21269 0.31624 0.39669 0.0
C549 C 0.25138 0.31 0.41697 0.0
C550 C 0.24685 0.29782 0.44987 0.0
C551 C 0.28283 0.29109 0.46887 0.0
C552 C 0.32375 0.29676 0.45526 0.0
C553 C 0.32889 0.30939 0.42262 0.0
C554 C 0.29299 0.31617 0.4035 0.0
C555 C 0.22375 0.49535 0.33763 0.0
C556 C 0.26118 0.51918 0.3139 0.0
C557 C 0.20119 0.4466 0.35125 0.0
C558 C 0.21622 0.42075 0.34184 0.0
C559 C 0.25213 0.44382 0.31727 0.0
C560 C 0.27393 0.49257 0.30309 0.0
C561 C 0.19569 0.37045 0.35887 0.0
C562 C 0.23108 0.36133 0.37663 0.0
C563 C 0.1408 0.33303 0.36052 0.0
C564 C 0.10176 0.33974 0.3413 0.0
C565 C 0.10654 0.35447 0.30851 0.0
C566 C 0.06928 0.36011 0.29032 0.0
C567 C 0.02705 0.35115 0.30472 0.0
C568 C 0.02197 0.33645 0.33733 0.0
C569 C 0.05906 0.33059 0.3556 0.0
H570 H 0.99822 0.35554 0.2906 0.0
H571 H 0.35154 0.29147 0.47 0.0
H572 H 0.00902 0.13848 0.98946 0.0
H573 H 0.97149 0.18131 0.95951 0.0
H574 H 0.86787 0.06313 0.90897 0.0
H575 H 0.90503 0.02023 0.93864 0.0
H576 H 0.9168 0.15137 0.86994 0.0
H577 H 0.82135 0.0766 0.96687 0.0
H578 H 0.81286 0.05939 0.02435 0.0
H579 H 0.89416 0.21159 0.0237 0.0
H580 H 0.90377 0.22978 0.96624 0.0
H581 H 0.71115 0.17668 0.8084 0.0
H582 H 0.76888 0.15295 0.83475 0.0
H583 H 0.86287 0.28346 0.87442 0.0
H584 H 0.80589 0.30808 0.84702 0.0
H585 H 0.82796 0.19866 0.91952 0.0
H586 H 0.92039 0.27458 0.82426 0.0
H587 H 0.934 0.29549 0.76719 0.0
H588 H 0.86376 0.14595 0.76543 0.0
H589 H 0.84903 0.12412 0.82229 0.0
C590 C 0.97835 0.12169 0.9719 0.0
C591 C 0.96003 0.07592 0.96644 0.0
C592 C 0.9567 0.14606 0.95497 0.0
C593 C 0.91656 0.12522 0.9322 0.0
C594 C 0.89869 0.07983 0.92649 0.0
C595 C 0.91992 0.0553 0.94355 0.0
C596 C 0.89383 0.15095 0.91363 0.0
C597 C 0.89691 0.16124 0.8808 0.0
C598 C 0.86965 0.16553 0.92783 0.0
C599 C 0.86385 0.1546 0.96233 0.0
C600 C 0.83785 0.10644 0.97903 0.0
C601 C 0.83274 0.0965 1.01159 0.0
C602 C 0.85312 0.13439 0.02768 0.0
C603 C 0.8785 0.18229 1.01122 0.0
C604 C 0.88376 0.19243 0.97866 0.0
C605 C 0.74548 0.20124 0.82164 0.0
C606 C 0.75506 0.24474 0.82503 0.0
C607 C 0.77815 0.1875 0.83694 0.0
C608 C 0.82016 0.21641 0.8566 0.0
C609 C 0.8308 0.26073 0.85927 0.0
C610 C 0.7988 0.27509 0.84328 0.0
C611 C 0.85021 0.19824 0.87581 0.0
C612 C 0.84834 0.18922 0.90872 0.0
C613 C 0.87596 0.18514 0.8618 0.0
C614 C 0.88333 0.1977 0.82745 0.0
C615 C 0.90737 0.24611 0.81159 0.0
C616 C 0.91547 0.25818 0.7793 0.0
C617 C 0.90006 0.22221 0.76267 0.0
C618 C 0.87608 0.17396 0.77827 0.0
C619 C 0.86776 0.16167 0.81054 0.0
H620 H 0.90666 0.23186 0.73769 0.0
H621 H 0.84912 0.12661 0.05289 0.0
H622 H 0.89553 0.00465 0.43819 0.0
H623 H 0.82387 0.97061 0.39913 0.0
H624 H 0.82376 0.84352 0.41478 0.0
H625 H 0.89685 0.87832 0.45275 0.0
H626 H 0.80896 0.86658 0.35499 0.0
H627 H 0.73228 0.84684 0.44939 0.0
H628 H 0.72392 0.87529 0.49277 0.0
H629 H 0.69298 0.96929 0.42626 0.0
H630 H 0.7018 0.94181 0.38245 0.0
H631 H 0.53374 0.68483 0.3262 0.0
H632 H 0.62552 0.73768 0.34465 0.0
H633 H 0.62834 0.86414 0.30089 0.0
H634 H 0.53703 0.81125 0.28156 0.0
H635 H 0.64526 0.84962 0.36889 0.0
H636 H 0.7147 0.86398 0.27467 0.0
H637 H 0.72329 0.83539 0.23149 0.0
H638 H 0.76296 0.74789 0.29801 0.0
H639 H 0.75525 0.77644 0.34165 0.0
C640 C 0.88028 0.96951 0.43324 0.0
C641 C 0.90155 0.94401 0.44875 0.0
C642 C 0.83924 0.95001 0.41094 0.0
C643 C 0.81769 0.90404 0.40433 0.0
C644 C 0.83964 0.87901 0.4194 0.0
C645 C 0.88127 0.89887 0.44126 0.0
C646 C 0.77109 0.88108 0.38267 0.0
C647 C 0.77309 0.86262 0.3582 0.0
C648 C 0.7245 0.87676 0.3863 0.0
C649 C 0.71824 0.89265 0.41265 0.0
C650 C 0.72395 0.87376 0.44402 0.0
C651 C 0.71912 0.8897 0.46868 0.0
C652 C 0.70809 0.92419 0.46227 0.0
C653 C 0.70162 0.94264 0.43119 0.0
C654 C 0.70648 0.92687 0.40643 0.0
C655 C 0.55492 0.72396 0.31942 0.0
C656 C 0.52907 0.74426 0.30224 0.0
C657 C 0.60711 0.75407 0.32998 0.0
C658 C 0.63351 0.80472 0.32412 0.0
C659 C 0.60863 0.82514 0.30544 0.0
C660 C 0.55679 0.79504 0.2943 0.0
C661 C 0.68324 0.83504 0.34155 0.0
C662 C 0.68154 0.85439 0.36544 0.0
C663 C 0.72972 0.83979 0.33751 0.0
C664 C 0.73407 0.82213 0.31146 0.0
C665 C 0.72491 0.83839 0.28013 0.0
C666 C 0.72973 0.82228 0.25555 0.0
C667 C 0.74327 0.78958 0.262 0.0
C668 C 0.7524 0.77318 0.29305 0.0
C669 C 0.7481 0.78952 0.31771 0.0
H670 H 0.7469 0.77712 0.24293 0.0
H671 H 0.70444 0.93654 0.48139 0.0
H672 H 0.83791 0.67851 0.95555 0.0
H673 H 0.82592 0.61061 0.93937 0.0
H674 H 0.98986 0.70119 0.91364 0.0
H675 H 1.00188 0.77001 0.92945 0.0
H676 H 0.92889 0.65066 0.86895 0.0
H677 H 0.94725 0.61167 0.97946 0.0
H678 H 0.93141 0.60004 0.03524 0.0
H679 H 0.76771 0.48531 0.02244 0.0
H680 H 0.78232 0.49685 0.96645 0.0
H681 H 0.80958 0.36984 0.89528 0.0
H682 H 0.86852 0.44908 0.91158 0.0
H683 H 0.798 0.50541 0.83976 0.0
H684 H 0.74115 0.42725 0.82262 0.0
H685 H 0.83724 0.48672 0.93684 0.0
H686 H 0.8637 0.61175 0.81735 0.0
H687 H 0.88416 0.61996 0.76314 0.0
H688 H 0.97454 0.56283 0.79827 0.0
H689 H 0.95401 0.5533 0.85267 0.0
C690 C 0.87165 0.68381 0.94692 0.0
C691 C 0.92091 0.72943 0.94391 0.0
C692 C 0.86477 0.64497 0.93766 0.0
C693 C 0.9072 0.65064 0.92569 0.0
C694 C 0.95664 0.69606 0.92285 0.0
C695 C 0.96345 0.73523 0.93187 0.0
C696 C 0.89865 0.60922 0.91519 0.0
C697 C 0.90955 0.61498 0.88396 0.0
C698 C 0.87477 0.56283 0.93491 0.0
C699 C 0.8659 0.55526 0.96871 0.0
C700 C 0.90782 0.58412 0.9885 0.0
C701 C 0.89905 0.57754 0.02017 0.0
C702 C 0.84858 0.54196 0.03238 0.0
C703 C 0.80679 0.51283 0.01296 0.0
C704 C 0.81531 0.51934 0.98126 0.0
C705 C 0.80788 0.39971 0.88253 0.0
C706 C 0.77098 0.39275 0.85782 0.0
C707 C 0.84145 0.44483 0.89182 0.0
C708 C 0.83797 0.48333 0.87683 0.0
C709 C 0.8026 0.47682 0.85116 0.0
C710 C 0.76985 0.43204 0.84145 0.0
C711 C 0.86562 0.52788 0.89039 0.0
C712 C 0.85803 0.52266 0.92214 0.0
C713 C 0.89393 0.57481 0.87153 0.0
C714 C 0.90774 0.58225 0.83897 0.0
C715 C 0.88839 0.60144 0.81349 0.0
C716 C 0.89968 0.60603 0.78277 0.0
C717 C 0.93089 0.59236 0.7773 0.0
C718 C 0.95047 0.57351 0.80254 0.0
C719 C 0.93883 0.56827 0.8333 0.0
H720 H 0.93995 0.59634 0.75352 0.0
H721 H 0.84186 0.53693 0.05689 0.0
loop_
_geom_bond_atom_site_label_1
_geom_bond_atom_site_label_2
_geom_bond_distance
_geom_bond_site_symmetry_2
_ccdc_geom_bond_type
Tb0 C9 2.764 . S
Tb0 O10 2.325 1_656 S
Tb0 O13 2.303 1_556 S
Tb0 O17 2.322 1_565 S
Tb0 O18 2.349 1_665 S
Tb0 O21 2.415 . S
Tb0 O22 2.413 . S
Tb1 O11 2.322 1_545 S
Tb1 O12 2.349 1_445 S
Tb1 O14 2.415 . S
Tb1 O15 2.399 . S
Tb1 O16 2.342 . S
Tb1 O19 2.303 1_554 S
Tb1 C30 2.764 . S
C2 O18 1.261 . S
C2 O19 1.257 . S
C3 C6 1.358 . S
C3 C7 1.332 . S
C3 C9 1.504 . S
C4 C5 1.373 . S
C4 C8 1.308 . S
C5 C4 1.373 . S
C5 C6 1.429 . S
C5 H32 0.932 . S
C6 C3 1.358 . S
C6 C5 1.429 . S
C6 H33 0.930 . S
C7 C3 1.332 . S
C7 C8 1.394 . S
C7 H34 0.932 . S
C8 C4 1.308 . S
C8 C7 1.394 . S
C8 H35 0.929 . S
C9 Tb0 2.764 . S
C9 C3 1.504 . S
C9 O21 1.239 . S
C9 O22 1.273 . S
O10 Tb0 2.325 1_454 S
O10 C20 1.236 . S
O11 Tb1 2.322 1_565 S
O11 C20 1.257 . S
O12 Tb1 2.349 1_665 S
O12 C23 1.261 . S
O13 Tb0 2.303 1_554 S
O13 C23 1.257 . S
O14 Tb1 2.415 . S
O14 C30 1.239 . S
O15 Tb1 2.399 . S
O15 C30 1.263 . S
O16 Tb1 2.342 . S
O16 C31 1.207 1_554 S
O17 Tb0 2.322 1_545 S
O17 C31 1.257 1_655 S
O18 Tb0 2.349 1_445 S
O18 C2 1.261 . S
O19 Tb1 2.303 1_556 S
O19 C2 1.257 . S
C20 O10 1.236 . S
C20 O11 1.257 . S
O21 Tb0 2.415 . S
O21 C9 1.239 . S
O22 Tb0 2.413 . S
O22 C9 1.273 . S
C23 O12 1.261 . S
C23 O13 1.257 . S
C24 C27 1.358 . S
C24 C28 1.332 . S
C24 C30 1.504 . S
C25 C26 1.373 . S
C25 C29 1.308 . S
C26 C25 1.373 . S
C26 C27 1.429 . S
C26 H36 0.932 . S
C27 C24 1.358 . S
C27 C26 1.429 . S
C27 H37 0.930 . S
C28 C24 1.332 . S
C28 C29 1.394 . S
C28 H38 0.932 . S
C29 C25 1.308 . S
C29 C28 1.394 . S
C29 H39 0.929 . S
C30 Tb1 2.764 . S
C30 O14 1.239 . S
C30 O15 1.263 . S
C30 C24 1.504 . S
C31 O16 1.207 1_556 S
C31 O17 1.257 1_455 S
H32 C5 0.932 . S
H33 C6 0.930 . S
H34 C7 0.932 . S
H35 C8 0.929 . S
H36 C26 0.932 . S
H37 C27 0.930 . S
H38 C28 0.932 . S
H39 C29 0.929 . S
Tb40 C49 2.764 . S
Tb40 O50 2.325 1_565 S
Tb40 O53 2.303 . S
Tb40 O57 2.322 1_455 S
Tb40 O58 2.349 1_565 S
Tb40 O61 2.415 . S
Tb40 O62 2.399 1_565 S
Tb41 O51 2.322 . S
Tb41 O52 2.349 1_445 S
Tb41 O54 2.415 1_455 S
Tb41 O55 2.399 1_455 S
Tb41 O56 2.325 1_445 S
Tb41 O59 2.303 . S
Tb41 C70 2.764 1_455 S
C42 O58 1.261 . S
C42 O59 1.257 . S
C43 C46 1.358 . S
C43 C47 1.332 . S
C43 C49 1.504 . S
C44 C45 1.373 . S
C44 C48 1.308 . S
C45 C44 1.373 . S
C45 C46 1.429 . S
C45 H72 0.932 . S
C46 C43 1.358 . S
C46 C45 1.429 . S
C46 H73 0.930 1_565 S
C47 C43 1.332 . S
C47 C48 1.394 . S
C47 H74 0.932 . S
C48 C44 1.308 . S
C48 C47 1.394 . S
C48 H75 0.929 . S
C49 Tb40 2.764 . S
C49 C43 1.504 . S
C49 O61 1.239 . S
C49 O62 1.263 1_565 S
O50 Tb40 2.325 1_545 S
O50 C60 1.236 . S
O51 Tb41 2.322 . S
O51 C60 1.257 . S
O52 Tb41 2.349 1_665 S
O52 C63 1.261 . S
O53 Tb40 2.303 . S
O53 C63 1.257 1_455 S
O54 Tb41 2.415 1_655 S
O54 C70 1.239 . S
O55 Tb41 2.399 1_655 S
O55 C70 1.263 . S
O56 Tb41 2.325 1_665 S
O56 C71 1.236 . S
O57 Tb40 2.322 1_655 S
O57 C71 1.257 . S
O58 Tb40 2.349 1_545 S
O58 C42 1.261 . S
O59 Tb41 2.303 . S
O59 C42 1.257 . S
C60 O50 1.236 . S
C60 O51 1.257 . S
O61 Tb40 2.415 . S
O61 C49 1.239 . S
O62 Tb40 2.399 1_545 S
O62 C49 1.263 1_545 S
C63 O52 1.261 . S
C63 O53 1.257 1_655 S
C64 C67 1.358 . S
C64 C68 1.332 . S
C64 C70 1.504 . S
C65 C66 1.373 . S
C65 C69 1.308 . S
C66 C65 1.373 . S
C66 C67 1.429 . S
C66 H76 0.932 . S
C67 C64 1.358 . S
C67 C66 1.429 . S
C67 H77 0.930 . S
C68 C64 1.332 . S
C68 C69 1.394 . S
C68 H78 0.932 . S
C69 C65 1.308 . S
C69 C68 1.394 . S
C69 H79 0.929 . S
C70 Tb41 2.764 1_655 S
C70 O54 1.239 . S
C70 O55 1.263 . S
C70 C64 1.504 . S
C71 O56 1.236 . S
C71 O57 1.257 . S
H72 C45 0.932 . S
H73 C46 0.930 1_545 S
H74 C47 0.932 . S
H75 C48 0.929 . S
H76 C66 0.932 . S
H77 C67 0.930 . S
H78 C68 0.932 . S
H79 C69 0.929 . S
Zn80 O86 1.920 . S
Zn80 O92 1.898 . S
Zn80 O95 1.905 . S
Zn81 O89 1.905 . S
Zn81 O90 1.898 . S
Zn81 O98 1.920 . S
Zn82 O85 2.080 . S
Zn82 O88 2.114 . S
Zn82 O91 2.120 . S
Zn82 O93 2.120 . S
Zn82 O94 2.114 . S
Zn82 O97 2.080 . S
C83 O88 1.166 . S
C83 O89 1.182 . S
C84 O90 1.167 . S
C84 O91 1.299 . S
O85 Zn82 2.080 . S
O85 C99 1.305 . S
O86 Zn80 1.920 . S
O86 C99 1.234 . S
C87 O92 1.167 . S
C87 O93 1.299 . S
O88 Zn82 2.114 . S
O88 C83 1.166 . S
O89 Zn81 1.905 . S
O89 C83 1.182 . S
O90 Zn81 1.898 . S
O90 C84 1.167 . S
O91 Zn82 2.120 . S
O91 C84 1.299 . S
O92 Zn80 1.898 . S
O92 C87 1.167 . S
O93 Zn82 2.120 . S
O93 C87 1.299 . S
O94 Zn82 2.114 . S
O94 C96 1.166 . S
O95 Zn80 1.905 . S
O95 C96 1.182 . S
C96 O94 1.166 . S
C96 O95 1.182 . S
O97 Zn82 2.080 . S
O97 C100 1.305 . S
O98 Zn81 1.920 . S
O98 C100 1.234 . S
C99 O85 1.305 . S
C99 O86 1.234 . S
C100 O97 1.305 . S
C100 O98 1.234 . S
Zn101 O107 1.920 . S
Zn101 O113 1.898 . S
Zn101 O116 1.905 . S
Zn102 O110 1.905 . S
Zn102 O111 1.898 . S
Zn102 O119 1.920 . S
Zn103 O106 2.080 . S
Zn103 O109 2.114 . S
Zn103 O112 2.120 . S
Zn103 O114 2.120 . S
Zn103 O115 2.114 . S
Zn103 O118 2.080 . S
C104 O109 1.166 . S
C104 O110 1.182 . S
C105 O111 1.167 . S
C105 O112 1.299 . S
O106 Zn103 2.080 . S
O106 C120 1.305 . S
O107 Zn101 1.920 . S
O107 C120 1.234 . S
C108 O113 1.167 . S
C108 O114 1.299 . S
O109 Zn103 2.114 . S
O109 C104 1.166 . S
O110 Zn102 1.905 . S
O110 C104 1.182 . S
O111 Zn102 1.898 . S
O111 C105 1.167 . S
O112 Zn103 2.120 . S
O112 C105 1.299 . S
O113 Zn101 1.898 . S
O113 C108 1.167 . S
O114 Zn103 2.120 . S
O114 C108 1.299 . S
O115 Zn103 2.114 . S
O115 C117 1.166 . S
O116 Zn101 1.905 . S
O116 C117 1.182 . S
C117 O115 1.166 . S
C117 O116 1.182 . S
O118 Zn103 2.080 . S
O118 C121 1.305 . S
O119 Zn102 1.920 . S
O119 C121 1.234 . S
C120 O106 1.305 . S
C120 O107 1.234 . S
C121 O118 1.305 . S
C121 O119 1.234 . S
H122 C140 0.951 . S
H123 C142 0.951 . S
H124 C144 0.950 . S
H125 C145 0.950 . S
H126 C147 0.950 . S
H127 C150 0.950 . S
H128 C151 0.950 1_655 S
H129 C153 0.950 . S
H130 C154 0.950 . S
H131 C155 0.951 . S
H132 C157 0.951 . S
H133 C159 0.950 . S
H134 C160 0.950 . S
H135 C162 0.950 . S
H136 C165 0.950 . S
H137 C166 0.950 . S
H138 C168 0.950 . S
H139 C169 0.950 . S
C140 H122 0.951 . S
C140 C141 1.366 . S
C140 C142 1.388 . S
C141 C140 1.366 . S
C141 C145 1.385 . S
C142 H123 0.951 . S
C142 C140 1.388 . S
C142 C143 1.366 . S
C143 C142 1.366 . S
C143 C144 1.414 . S
C143 C146 1.499 . S
C144 H124 0.950 . S
C144 C143 1.414 . S
C144 C145 1.374 . S
C145 H125 0.950 . S
C145 C141 1.385 . S
C145 C144 1.374 . S
C146 C143 1.499 . S
C146 C147 1.373 . S
C146 C148 1.389 . S
C147 H126 0.950 . S
C147 C146 1.373 . S
C147 C163 1.377 . S
C148 C146 1.389 . S
C148 C149 1.524 . S
C148 C162 1.377 . S
C149 C148 1.524 . S
C149 C150 1.397 . S
C149 C154 1.363 . S
C150 H127 0.950 . S
C150 C149 1.397 . S
C150 C151 1.334 . S
C151 H128 0.950 1_455 S
C151 C150 1.334 . S
C151 C152 1.287 . S
C152 C151 1.287 . S
C152 C153 1.524 . S
C152 H171 0.913 . S
C153 H129 0.950 . S
C153 C152 1.524 . S
C153 C154 1.415 . S
C154 H130 0.950 . S
C154 C149 1.363 . S
C154 C153 1.415 . S
C155 H131 0.951 . S
C155 C156 1.366 . S
C155 C157 1.388 . S
C156 C155 1.366 . S
C156 C160 1.385 . S
C157 H132 0.951 . S
C157 C155 1.388 . S
C157 C158 1.366 . S
C158 C157 1.366 . S
C158 C159 1.414 . S
C158 C161 1.499 . S
C159 H133 0.950 . S
C159 C158 1.414 . S
C159 C160 1.374 . S
C160 H134 0.950 . S
C160 C156 1.385 . S
C160 C159 1.374 . S
C161 C158 1.499 . S
C161 C162 1.373 . S
C161 C163 1.389 . S
C162 H135 0.950 . S
C162 C148 1.377 . S
C162 C161 1.373 . S
C163 C147 1.377 . S
C163 C161 1.389 . S
C163 C164 1.524 . S
C164 C163 1.524 . S
C164 C165 1.397 . S
C164 C169 1.363 . S
C165 H136 0.950 . S
C165 C164 1.397 . S
C165 C166 1.334 . S
C166 H137 0.950 . S
C166 C165 1.334 . S
C166 C167 1.287 . S
C167 C166 1.287 . S
C167 C168 1.524 . S
C167 H170 0.999 . S
C168 H138 0.950 . S
C168 C167 1.524 . S
C168 C169 1.415 . S
C169 H139 0.950 . S
C169 C164 1.363 . S
C169 C168 1.415 . S
H170 C167 0.999 . S
H171 C152 0.913 . S
H172 C190 0.951 . S
H173 C192 0.951 . S
H174 C194 0.950 . S
H175 C195 0.950 . S
H176 C197 0.950 . S
H177 C200 0.950 . S
H178 C201 0.950 . S
H179 C203 0.950 . S
H180 C204 0.950 . S
H181 C205 0.951 . S
H182 C207 0.951 . S
H183 C209 0.950 . S
H184 C210 0.950 . S
H185 C212 0.950 . S
H186 C215 0.950 . S
H187 C216 0.950 . S
H188 C218 0.950 . S
H189 C219 0.950 . S
C190 H172 0.951 . S
C190 C191 1.366 . S
C190 C192 1.388 . S
C191 C190 1.366 . S
C191 C195 1.385 . S
C192 H173 0.951 . S
C192 C190 1.388 . S
C192 C193 1.366 . S
C193 C192 1.366 . S
C193 C194 1.414 . S
C193 C196 1.499 . S
C194 H174 0.950 . S
C194 C193 1.414 . S
C194 C195 1.374 . S
C195 H175 0.950 . S
C195 C191 1.385 . S
C195 C194 1.374 . S
C196 C193 1.499 . S
C196 C197 1.373 . S
C196 C198 1.389 . S
C197 H176 0.950 . S
C197 C196 1.373 . S
C197 C213 1.377 . S
C198 C196 1.389 . S
C198 C199 1.524 . S
C198 C212 1.377 . S
C199 C198 1.524 . S
C199 C200 1.397 . S
C199 C204 1.363 . S
C200 H177 0.950 . S
C200 C199 1.397 . S
C200 C201 1.334 1_545 S
C201 H178 0.950 . S
C201 C200 1.334 1_565 S
C201 C202 1.287 . S
C202 C201 1.287 . S
C202 C203 1.524 . S
C202 H221 0.913 . S
C203 H179 0.950 . S
C203 C202 1.524 . S
C203 C204 1.415 1_565 S
C204 H180 0.950 . S
C204 C199 1.363 . S
C204 C203 1.415 1_545 S
C205 H181 0.951 . S
C205 C206 1.366 . S
C205 C207 1.388 . S
C206 C205 1.366 . S
C206 C210 1.385 . S
C207 H182 0.951 . S
C207 C205 1.388 . S
C207 C208 1.366 . S
C208 C207 1.366 . S
C208 C209 1.414 . S
C208 C211 1.499 . S
C209 H183 0.950 . S
C209 C208 1.414 . S
C209 C210 1.374 . S
C210 H184 0.950 . S
C210 C206 1.385 . S
C210 C209 1.374 . S
C211 C208 1.499 . S
C211 C212 1.373 . S
C211 C213 1.389 . S
C212 H185 0.950 . S
C212 C198 1.377 . S
C212 C211 1.373 . S
C213 C197 1.377 . S
C213 C211 1.389 . S
C213 C214 1.524 . S
C214 C213 1.524 . S
C214 C215 1.397 . S
C214 C219 1.363 . S
C215 H186 0.950 . S
C215 C214 1.397 . S
C215 C216 1.334 . S
C216 H187 0.950 . S
C216 C215 1.334 . S
C216 C217 1.287 . S
C217 C216 1.287 . S
C217 C218 1.524 . S
C217 H220 0.999 . S
C218 H188 0.950 . S
C218 C217 1.524 . S
C218 C219 1.415 . S
C219 H189 0.950 . S
C219 C214 1.363 . S
C219 C218 1.415 . S
H220 C217 0.999 . S
H221 C202 0.913 . S
H222 C240 0.951 . S
H223 C242 0.951 . S
H224 C244 0.950 . S
H225 C245 0.950 . S
H226 C247 0.950 . S
H227 C250 0.950 . S
H228 C251 0.950 . S
H229 C253 0.950 . S
H230 C254 0.950 . S
H231 C255 0.951 . S
H232 C257 0.951 . S
H233 C259 0.950 . S
H234 C260 0.950 . S
H235 C262 0.950 . S
H236 C265 0.950 . S
H237 C266 0.950 . S
H238 C268 0.950 . S
H239 C269 0.950 . S
C240 H222 0.951 . S
C240 C241 1.366 . S
C240 C242 1.388 . S
C241 C240 1.366 . S
C241 C245 1.385 . S
C242 H223 0.951 . S
C242 C240 1.388 . S
C242 C243 1.366 . S
C243 C242 1.366 . S
C243 C244 1.414 . S
C243 C246 1.499 . S
C244 H224 0.950 . S
C244 C243 1.414 . S
C244 C245 1.374 . S
C245 H225 0.950 . S
C245 C241 1.385 . S
C245 C244 1.374 . S
C246 C243 1.499 . S
C246 C247 1.373 . S
C246 C248 1.389 . S
C247 H226 0.950 . S
C247 C246 1.373 . S
C247 C263 1.377 . S
C248 C246 1.389 . S
C248 C249 1.524 . S
C248 C262 1.377 . S
C249 C248 1.524 . S
C249 C250 1.397 . S
C249 C254 1.363 . S
C250 H227 0.950 . S
C250 C249 1.397 . S
C250 C251 1.334 . S
C251 H228 0.950 . S
C251 C250 1.334 . S
C251 C252 1.287 . S
C252 C251 1.287 . S
C252 C253 1.524 . S
C252 H271 0.913 . S
C253 H229 0.950 . S
C253 C252 1.524 . S
C253 C254 1.415 . S
C254 H230 0.950 . S
C254 C249 1.363 . S
C254 C253 1.415 . S
C255 H231 0.951 . S
C255 C256 1.366 . S
C255 C257 1.388 . S
C256 C255 1.366 . S
C256 C260 1.385 . S
C257 H232 0.951 . S
C257 C255 1.388 . S
C257 C258 1.366 . S
C258 C257 1.366 . S
C258 C259 1.414 . S
C258 C261 1.499 . S
C259 H233 0.950 . S
C259 C258 1.414 . S
C259 C260 1.374 . S
C260 H234 0.950 . S
C260 C256 1.385 . S
C260 C259 1.374 . S
C261 C258 1.499 . S
C261 C262 1.373 . S
C261 C263 1.389 . S
C262 H235 0.950 . S
C262 C248 1.377 . S
C262 C261 1.373 . S
C263 C247 1.377 . S
C263 C261 1.389 . S
C263 C264 1.524 . S
C264 C263 1.524 . S
C264 C265 1.397 . S
C264 C269 1.363 . S
C265 H236 0.950 . S
C265 C264 1.397 . S
C265 C266 1.334 . S
C266 H237 0.950 . S
C266 C265 1.334 . S
C266 C267 1.287 . S
C267 C266 1.287 . S
C267 C268 1.524 . S
C267 H270 0.999 . S
C268 H238 0.950 . S
C268 C267 1.524 . S
C268 C269 1.415 . S
C269 H239 0.950 . S
C269 C264 1.363 . S
C269 C268 1.415 . S
H270 C267 0.999 . S
H271 C252 0.913 . S
H272 C290 0.951 . S
H273 C292 0.951 . S
H274 C294 0.950 . S
H275 C295 0.950 . S
H276 C297 0.950 . S
H277 C300 0.950 . S
H278 C301 0.950 . S
H279 C303 0.950 . S
H280 C304 0.950 . S
H281 C305 0.951 . S
H282 C307 0.951 . S
H283 C309 0.950 . S
H284 C310 0.950 . S
H285 C312 0.950 . S
H286 C315 0.950 . S
H287 C316 0.950 . S
H288 C318 0.950 . S
H289 C319 0.950 . S
C290 H272 0.951 . S
C290 C291 1.366 . S
C290 C292 1.388 . S
C291 C290 1.366 . S
C291 C295 1.385 . S
C292 H273 0.951 . S
C292 C290 1.388 . S
C292 C293 1.366 . S
C293 C292 1.366 . S
C293 C294 1.414 . S
C293 C296 1.499 . S
C294 H274 0.950 . S
C294 C293 1.414 . S
C294 C295 1.374 . S
C295 H275 0.950 . S
C295 C291 1.385 . S
C295 C294 1.374 . S
C296 C293 1.499 . S
C296 C297 1.373 . S
C296 C298 1.389 . S
C297 H276 0.950 . S
C297 C296 1.373 . S
C297 C313 1.377 . S
C298 C296 1.389 . S
C298 C299 1.524 . S
C298 C312 1.377 . S
C299 C298 1.524 . S
C299 C300 1.397 . S
C299 C304 1.363 . S
C300 H277 0.950 . S
C300 C299 1.397 . S
C300 C301 1.334 . S
C301 H278 0.950 . S
C301 C300 1.334 . S
C301 C302 1.287 . S
C302 C301 1.287 . S
C302 C303 1.524 . S
C302 H321 0.913 . S
C303 H279 0.950 . S
C303 C302 1.524 . S
C303 C304 1.415 . S
C304 H280 0.950 . S
C304 C299 1.363 . S
C304 C303 1.415 . S
C305 H281 0.951 . S
C305 C306 1.366 . S
C305 C307 1.388 . S
C306 C305 1.366 . S
C306 C310 1.385 . S
C307 H282 0.951 . S
C307 C305 1.388 . S
C307 C308 1.366 . S
C308 C307 1.366 . S
C308 C309 1.414 . S
C308 C311 1.499 . S
C309 H283 0.950 . S
C309 C308 1.414 . S
C309 C310 1.374 . S
C310 H284 0.950 . S
C310 C306 1.385 . S
C310 C309 1.374 . S
C311 C308 1.499 . S
C311 C312 1.373 . S
C311 C313 1.389 . S
C312 H285 0.950 . S
C312 C298 1.377 . S
C312 C311 1.373 . S
C313 C297 1.377 . S
C313 C311 1.389 . S
C313 C314 1.524 . S
C314 C313 1.524 . S
C314 C315 1.397 . S
C314 C319 1.363 . S
C315 H286 0.950 . S
C315 C314 1.397 . S
C315 C316 1.334 . S
C316 H287 0.950 . S
C316 C315 1.334 . S
C316 C317 1.287 . S
C317 C316 1.287 . S
C317 C318 1.524 . S
C317 H320 0.999 . S
C318 H288 0.950 . S
C318 C317 1.524 . S
C318 C319 1.415 . S
C319 H289 0.950 . S
C319 C314 1.363 . S
C319 C318 1.415 . S
H320 C317 0.999 . S
H321 C302 0.913 . S
H322 C340 0.951 . S
H323 C342 0.951 . S
H324 C344 0.950 . S
H325 C345 0.950 . S
H326 C347 0.950 . S
H327 C350 0.950 . S
H328 C351 0.950 . S
H329 C353 0.950 . S
H330 C354 0.950 . S
H331 C355 0.951 . S
H332 C357 0.951 . S
H333 C359 0.950 . S
H334 C360 0.950 . S
H335 C362 0.950 . S
H336 C365 0.950 . S
H337 C366 0.950 . S
H338 C368 0.950 . S
H339 C369 0.950 . S
C340 H322 0.951 . S
C340 C341 1.366 . S
C340 C342 1.388 . S
C341 C340 1.366 . S
C341 C345 1.385 . S
C342 H323 0.951 . S
C342 C340 1.388 . S
C342 C343 1.366 . S
C343 C342 1.366 . S
C343 C344 1.414 . S
C343 C346 1.499 . S
C344 H324 0.950 . S
C344 C343 1.414 . S
C344 C345 1.374 . S
C345 H325 0.950 . S
C345 C341 1.385 . S
C345 C344 1.374 . S
C346 C343 1.499 . S
C346 C347 1.373 . S
C346 C348 1.389 . S
C347 H326 0.950 . S
C347 C346 1.373 . S
C347 C363 1.377 . S
C348 C346 1.389 . S
C348 C349 1.524 . S
C348 C362 1.377 . S
C349 C348 1.524 . S
C349 C350 1.397 . S
C349 C354 1.363 . S
C350 H327 0.950 . S
C350 C349 1.397 . S
C350 C351 1.334 . S
C351 H328 0.950 . S
C351 C350 1.334 . S
C351 C352 1.287 . S
C352 C351 1.287 . S
C352 C353 1.524 . S
C352 H371 0.913 . S
C353 H329 0.950 . S
C353 C352 1.524 . S
C353 C354 1.415 . S
C354 H330 0.950 . S
C354 C349 1.363 . S
C354 C353 1.415 . S
C355 H331 0.951 . S
C355 C356 1.366 . S
C355 C357 1.388 . S
C356 C355 1.366 . S
C356 C360 1.385 . S
C357 H332 0.951 . S
C357 C355 1.388 . S
C357 C358 1.366 . S
C358 C357 1.366 . S
C358 C359 1.414 . S
C358 C361 1.499 . S
C359 H333 0.950 . S
C359 C358 1.414 . S
C359 C360 1.374 . S
C360 H334 0.950 . S
C360 C356 1.385 . S
C360 C359 1.374 . S
C361 C358 1.499 . S
C361 C362 1.373 . S
C361 C363 1.389 . S
C362 H335 0.950 . S
C362 C348 1.377 . S
C362 C361 1.373 . S
C363 C347 1.377 . S
C363 C361 1.389 . S
C363 C364 1.524 . S
C364 C363 1.524 . S
C364 C365 1.397 . S
C364 C369 1.363 . S
C365 H336 0.950 . S
C365 C364 1.397 . S
C365 C366 1.334 . S
C366 H337 0.950 . S
C366 C365 1.334 . S
C366 C367 1.287 . S
C367 C366 1.287 . S
C367 C368 1.524 . S
C367 H370 0.999 . S
C368 H338 0.950 . S
C368 C367 1.524 . S
C368 C369 1.415 . S
C369 H339 0.950 . S
C369 C364 1.363 . S
C369 C368 1.415 . S
H370 C367 0.999 . S
H371 C352 0.913 . S
H372 C390 0.951 1_455 S
H373 C392 0.951 . S
H374 C394 0.950 . S
H375 C395 0.950 . S
H376 C397 0.950 . S
H377 C400 0.950 . S
H378 C401 0.950 . S
H379 C403 0.950 1_455 S
H380 C404 0.950 . S
H381 C405 0.951 . S
H382 C407 0.951 . S
H383 C409 0.950 . S
H384 C410 0.950 . S
H385 C412 0.950 . S
H386 C415 0.950 . S
H387 C416 0.950 . S
H388 C418 0.950 . S
H389 C419 0.950 . S
C390 H372 0.951 1_655 S
C390 C391 1.366 . S
C390 C392 1.388 . S
C391 C390 1.366 . S
C391 C395 1.385 . S
C392 H373 0.951 . S
C392 C390 1.388 . S
C392 C393 1.366 . S
C393 C392 1.366 . S
C393 C394 1.414 . S
C393 C396 1.499 . S
C394 H374 0.950 . S
C394 C393 1.414 . S
C394 C395 1.374 . S
C395 H375 0.950 . S
C395 C391 1.385 . S
C395 C394 1.374 . S
C396 C393 1.499 . S
C396 C397 1.373 . S
C396 C398 1.389 . S
C397 H376 0.950 . S
C397 C396 1.373 . S
C397 C413 1.377 . S
C398 C396 1.389 . S
C398 C399 1.524 . S
C398 C412 1.377 . S
C399 C398 1.524 . S
C399 C400 1.397 . S
C399 C404 1.363 . S
C400 H377 0.950 . S
C400 C399 1.397 . S
C400 C401 1.334 . S
C401 H378 0.950 . S
C401 C400 1.334 . S
C401 C402 1.287 . S
C402 C401 1.287 . S
C402 C403 1.524 . S
C402 H421 0.913 1_655 S
C403 H379 0.950 1_655 S
C403 C402 1.524 . S
C403 C404 1.415 . S
C404 H380 0.950 . S
C404 C399 1.363 . S
C404 C403 1.415 . S
C405 H381 0.951 . S
C405 C406 1.366 . S
C405 C407 1.388 . S
C406 C405 1.366 . S
C406 C410 1.385 . S
C407 H382 0.951 . S
C407 C405 1.388 . S
C407 C408 1.366 . S
C408 C407 1.366 . S
C408 C409 1.414 . S
C408 C411 1.499 . S
C409 H383 0.950 . S
C409 C408 1.414 . S
C409 C410 1.374 . S
C410 H384 0.950 . S
C410 C406 1.385 . S
C410 C409 1.374 . S
C411 C408 1.499 . S
C411 C412 1.373 . S
C411 C413 1.389 . S
C412 H385 0.950 . S
C412 C398 1.377 . S
C412 C411 1.373 . S
C413 C397 1.377 . S
C413 C411 1.389 . S
C413 C414 1.524 . S
C414 C413 1.524 . S
C414 C415 1.397 . S
C414 C419 1.363 . S
C415 H386 0.950 . S
C415 C414 1.397 . S
C415 C416 1.334 . S
C416 H387 0.950 . S
C416 C415 1.334 . S
C416 C417 1.287 . S
C417 C416 1.287 . S
C417 C418 1.524 . S
C417 H420 0.999 . S
C418 H388 0.950 . S
C418 C417 1.524 . S
C418 C419 1.415 . S
C419 H389 0.950 . S
C419 C414 1.363 . S
C419 C418 1.415 . S
H420 C417 0.999 . S
H421 C402 0.913 1_455 S
H422 C440 0.951 . S
H423 C442 0.951 . S
H424 C444 0.950 . S
H425 C445 0.950 . S
H426 C447 0.950 . S
H427 C450 0.950 . S
H428 C451 0.950 . S
H429 C453 0.950 . S
H430 C454 0.950 . S
H431 C455 0.951 . S
H432 C457 0.951 . S
H433 C459 0.950 . S
H434 C460 0.950 . S
H435 C462 0.950 . S
H436 C465 0.950 . S
H437 C466 0.950 . S
H438 C468 0.950 . S
H439 C469 0.950 . S
C440 H422 0.951 . S
C440 C441 1.366 . S
C440 C442 1.388 . S
C441 C440 1.366 . S
C441 C445 1.385 . S
C442 H423 0.951 . S
C442 C440 1.388 . S
C442 C443 1.366 . S
C443 C442 1.366 . S
C443 C444 1.414 . S
C443 C446 1.499 . S
C444 H424 0.950 . S
C444 C443 1.414 . S
C444 C445 1.374 . S
C445 H425 0.950 . S
C445 C441 1.385 . S
C445 C444 1.374 . S
C446 C443 1.499 . S
C446 C447 1.373 . S
C446 C448 1.389 . S
C447 H426 0.950 . S
C447 C446 1.373 . S
C447 C463 1.377 . S
C448 C446 1.389 . S
C448 C449 1.524 . S
C448 C462 1.377 . S
C449 C448 1.524 . S
C449 C450 1.397 . S
C449 C454 1.363 . S
C450 H427 0.950 . S
C450 C449 1.397 . S
C450 C451 1.334 . S
C451 H428 0.950 . S
C451 C450 1.334 . S
C451 C452 1.287 . S
C452 C451 1.287 . S
C452 C453 1.524 . S
C452 H471 0.913 . S
C453 H429 0.950 . S
C453 C452 1.524 . S
C453 C454 1.415 . S
C454 H430 0.950 . S
C454 C449 1.363 . S
C454 C453 1.415 . S
C455 H431 0.951 . S
C455 C456 1.366 . S
C455 C457 1.388 . S
C456 C455 1.366 . S
C456 C460 1.385 . S
C457 H432 0.951 . S
C457 C455 1.388 . S
C457 C458 1.366 . S
C458 C457 1.366 . S
C458 C459 1.414 . S
C458 C461 1.499 . S
C459 H433 0.950 . S
C459 C458 1.414 . S
C459 C460 1.374 . S
C460 H434 0.950 . S
C460 C456 1.385 . S
C460 C459 1.374 . S
C461 C458 1.499 . S
C461 C462 1.373 . S
C461 C463 1.389 . S
C462 H435 0.950 . S
C462 C448 1.377 . S
C462 C461 1.373 . S
C463 C447 1.377 . S
C463 C461 1.389 . S
C463 C464 1.524 . S
C464 C463 1.524 . S
C464 C465 1.397 . S
C464 C469 1.363 . S
C465 H436 0.950 . S
C465 C464 1.397 . S
C465 C466 1.334 . S
C466 H437 0.950 . S
C466 C465 1.334 . S
C466 C467 1.287 . S
C467 C466 1.287 . S
C467 C468 1.524 . S
C467 H470 0.999 . S
C468 H438 0.950 . S
C468 C467 1.524 . S
C468 C469 1.415 . S
C469 H439 0.950 . S
C469 C464 1.363 . S
C469 C468 1.415 . S
H470 C467 0.999 . S
H471 C452 0.913 . S
H472 C490 0.951 . S
H473 C492 0.951 . S
H474 C494 0.950 . S
H475 C495 0.950 . S
H476 C497 0.950 . S
H477 C500 0.950 . S
H478 C501 0.950 . S
H479 C503 0.950 . S
H480 C504 0.950 . S
H481 C505 0.951 . S
H482 C507 0.951 . S
H483 C509 0.950 . S
H484 C510 0.950 . S
H485 C512 0.950 . S
H486 C515 0.950 . S
H487 C516 0.950 . S
H488 C518 0.950 . S
H489 C519 0.950 . S
C490 H472 0.951 . S
C490 C491 1.366 . S
C490 C492 1.388 . S
C491 C490 1.366 . S
C491 C495 1.385 . S
C492 H473 0.951 . S
C492 C490 1.388 . S
C492 C493 1.366 . S
C493 C492 1.366 . S
C493 C494 1.414 . S
C493 C496 1.499 . S
C494 H474 0.950 . S
C494 C493 1.414 . S
C494 C495 1.374 . S
C495 H475 0.950 . S
C495 C491 1.385 . S
C495 C494 1.374 . S
C496 C493 1.499 . S
C496 C497 1.373 . S
C496 C498 1.389 . S
C497 H476 0.950 . S
C497 C496 1.373 . S
C497 C513 1.377 . S
C498 C496 1.389 . S
C498 C499 1.524 . S
C498 C512 1.377 . S
C499 C498 1.524 . S
C499 C500 1.397 . S
C499 C504 1.363 . S
C500 H477 0.950 . S
C500 C499 1.397 . S
C500 C501 1.334 . S
C501 H478 0.950 . S
C501 C500 1.334 . S
C501 C502 1.287 . S
C502 C501 1.287 . S
C502 C503 1.524 . S
C502 H521 0.913 . S
C503 H479 0.950 . S
C503 C502 1.524 . S
C503 C504 1.415 . S
C504 H480 0.950 . S
C504 C499 1.363 . S
C504 C503 1.415 . S
C505 H481 0.951 . S
C505 C506 1.366 . S
C505 C507 1.388 . S
C506 C505 1.366 . S
C506 C510 1.385 . S
C507 H482 0.951 . S
C507 C505 1.388 . S
C507 C508 1.366 . S
C508 C507 1.366 . S
C508 C509 1.414 . S
C508 C511 1.499 . S
C509 H483 0.950 . S
C509 C508 1.414 . S
C509 C510 1.374 . S
C510 H484 0.950 . S
C510 C506 1.385 . S
C510 C509 1.374 . S
C511 C508 1.499 . S
C511 C512 1.373 . S
C511 C513 1.389 . S
C512 H485 0.950 . S
C512 C498 1.377 . S
C512 C511 1.373 . S
C513 C497 1.377 . S
C513 C511 1.389 . S
C513 C514 1.524 . S
C514 C513 1.524 . S
C514 C515 1.397 . S
C514 C519 1.363 . S
C515 H486 0.950 . S
C515 C514 1.397 . S
C515 C516 1.334 . S
C516 H487 0.950 . S
C516 C515 1.334 . S
C516 C517 1.287 . S
C517 C516 1.287 . S
C517 C518 1.524 . S
C517 H520 0.999 . S
C518 H488 0.950 . S
C518 C517 1.524 . S
C518 C519 1.415 . S
C519 H489 0.950 . S
C519 C514 1.363 . S
C519 C518 1.415 . S
H520 C517 0.999 . S
H521 C502 0.913 . S
H522 C540 0.951 . S
H523 C542 0.951 . S
H524 C544 0.950 . S
H525 C545 0.950 . S
H526 C547 0.950 . S
H527 C550 0.950 . S
H528 C551 0.950 . S
H529 C553 0.950 . S
H530 C554 0.950 . S
H531 C555 0.951 . S
H532 C557 0.951 . S
H533 C559 0.950 . S
H534 C560 0.950 . S
H535 C562 0.950 . S
H536 C565 0.950 . S
H537 C566 0.950 . S
H538 C568 0.950 . S
H539 C569 0.950 . S
C540 H522 0.951 . S
C540 C541 1.366 . S
C540 C542 1.388 . S
C541 C540 1.366 . S
C541 C545 1.385 . S
C542 H523 0.951 . S
C542 C540 1.388 . S
C542 C543 1.366 . S
C543 C542 1.366 . S
C543 C544 1.414 . S
C543 C546 1.499 . S
C544 H524 0.950 . S
C544 C543 1.414 . S
C544 C545 1.374 . S
C545 H525 0.950 . S
C545 C541 1.385 . S
C545 C544 1.374 . S
C546 C543 1.499 . S
C546 C547 1.373 . S
C546 C548 1.389 . S
C547 H526 0.950 . S
C547 C546 1.373 . S
C547 C563 1.377 . S
C548 C546 1.389 . S
C548 C549 1.524 . S
C548 C562 1.377 . S
C549 C548 1.524 . S
C549 C550 1.397 . S
C549 C554 1.363 . S
C550 H527 0.950 . S
C550 C549 1.397 . S
C550 C551 1.334 . S
C551 H528 0.950 . S
C551 C550 1.334 . S
C551 C552 1.287 . S
C552 C551 1.287 . S
C552 C553 1.524 . S
C552 H571 0.913 . S
C553 H529 0.950 . S
C553 C552 1.524 . S
C553 C554 1.415 . S
C554 H530 0.950 . S
C554 C549 1.363 . S
C554 C553 1.415 . S
C555 H531 0.951 . S
C555 C556 1.366 . S
C555 C557 1.388 . S
C556 C555 1.366 . S
C556 C560 1.385 . S
C557 H532 0.951 . S
C557 C555 1.388 . S
C557 C558 1.366 . S
C558 C557 1.366 . S
C558 C559 1.414 . S
C558 C561 1.499 . S
C559 H533 0.950 . S
C559 C558 1.414 . S
C559 C560 1.374 . S
C560 H534 0.950 . S
C560 C556 1.385 . S
C560 C559 1.374 . S
C561 C558 1.499 . S
C561 C562 1.373 . S
C561 C563 1.389 . S
C562 H535 0.950 . S
C562 C548 1.377 . S
C562 C561 1.373 . S
C563 C547 1.377 . S
C563 C561 1.389 . S
C563 C564 1.524 . S
C564 C563 1.524 . S
C564 C565 1.397 . S
C564 C569 1.363 . S
C565 H536 0.950 . S
C565 C564 1.397 . S
C565 C566 1.334 . S
C566 H537 0.950 . S
C566 C565 1.334 . S
C566 C567 1.287 . S
C567 C566 1.287 . S
C567 C568 1.524 . S
C567 H570 0.999 . S
C568 H538 0.950 . S
C568 C567 1.524 . S
C568 C569 1.415 . S
C569 H539 0.950 . S
C569 C564 1.363 . S
C569 C568 1.415 . S
H570 C567 0.999 . S
H571 C552 0.913 . S
H572 C590 0.951 . S
H573 C592 0.951 . S
H574 C594 0.950 . S
H575 C595 0.950 . S
H576 C597 0.950 . S
H577 C600 0.950 . S
H578 C601 0.950 1_554 S
H579 C603 0.923 1_554 S
H580 C604 0.950 . S
H581 C605 0.951 . S
H582 C607 0.951 . S
H583 C609 0.950 . S
H584 C610 0.950 . S
H585 C612 0.950 . S
H586 C615 0.950 . S
H587 C616 0.950 . S
H588 C618 0.950 . S
H589 C619 0.950 . S
C590 H572 0.951 . S
C590 C591 1.366 . S
C590 C592 1.388 . S
C591 C590 1.366 . S
C591 C595 1.385 . S
C592 H573 0.951 . S
C592 C590 1.388 . S
C592 C593 1.366 . S
C593 C592 1.366 . S
C593 C594 1.414 . S
C593 C596 1.499 . S
C594 H574 0.950 . S
C594 C593 1.414 . S
C594 C595 1.374 . S
C595 H575 0.950 . S
C595 C591 1.385 . S
C595 C594 1.374 . S
C596 C593 1.499 . S
C596 C597 1.373 . S
C596 C598 1.389 . S
C597 H576 0.950 . S
C597 C596 1.373 . S
C597 C613 1.377 . S
C598 C596 1.389 . S
C598 C599 1.524 . S
C598 C612 1.377 . S
C599 C598 1.524 . S
C599 C600 1.397 . S
C599 C604 1.363 . S
C600 H577 0.950 . S
C600 C599 1.397 . S
C600 C601 1.334 . S
C601 H578 0.950 1_556 S
C601 C600 1.334 . S
C601 C602 1.287 1_556 S
C602 C601 1.287 1_554 S
C602 C603 1.519 1_554 S
C602 H621 0.913 . S
C603 H579 0.923 1_556 S
C603 C602 1.519 1_556 S
C603 C604 1.452 . S
C604 H580 0.950 . S
C604 C599 1.363 . S
C604 C603 1.452 . S
C605 H581 0.951 . S
C605 C606 1.366 . S
C605 C607 1.388 . S
C606 C605 1.366 . S
C606 C610 1.385 . S
C607 H582 0.951 . S
C607 C605 1.388 . S
C607 C608 1.366 . S
C608 C607 1.366 . S
C608 C609 1.414 . S
C608 C611 1.499 . S
C609 H583 0.950 . S
C609 C608 1.414 . S
C609 C610 1.374 . S
C610 H584 0.950 . S
C610 C606 1.385 . S
C610 C609 1.374 . S
C611 C608 1.499 . S
C611 C612 1.373 . S
C611 C613 1.389 . S
C612 H585 0.950 . S
C612 C598 1.377 . S
C612 C611 1.373 . S
C613 C597 1.377 . S
C613 C611 1.389 . S
C613 C614 1.524 . S
C614 C613 1.524 . S
C614 C615 1.397 . S
C614 C619 1.363 . S
C615 H586 0.950 . S
C615 C614 1.397 . S
C615 C616 1.334 . S
C616 H587 0.950 . S
C616 C615 1.334 . S
C616 C617 1.287 . S
C617 C616 1.287 . S
C617 C618 1.524 . S
C617 H620 0.999 . S
C618 H588 0.950 . S
C618 C617 1.524 . S
C618 C619 1.415 . S
C619 H589 0.950 . S
C619 C614 1.363 . S
C619 C618 1.415 . S
H620 C617 0.999 . S
H621 C602 0.913 . S
H622 C640 0.951 1_545 S
H623 C642 0.951 . S
H624 C644 0.950 . S
H625 C645 0.950 . S
H626 C647 0.950 . S
H627 C650 0.950 . S
H628 C651 0.950 . S
H629 C653 0.950 . S
H630 C654 0.950 . S
H631 C655 0.951 . S
H632 C657 0.951 . S
H633 C659 0.950 . S
H634 C660 0.950 . S
H635 C662 0.950 . S
H636 C665 0.950 . S
H637 C666 0.950 . S
H638 C668 0.950 . S
H639 C669 0.950 . S
C640 H622 0.951 1_565 S
C640 C641 1.366 . S
C640 C642 1.388 . S
C641 C640 1.366 . S
C641 C645 1.385 . S
C642 H623 0.951 . S
C642 C640 1.388 . S
C642 C643 1.366 . S
C643 C642 1.366 . S
C643 C644 1.414 . S
C643 C646 1.499 . S
C644 H624 0.950 . S
C644 C643 1.414 . S
C644 C645 1.374 . S
C645 H625 0.950 . S
C645 C641 1.385 . S
C645 C644 1.374 . S
C646 C643 1.499 . S
C646 C647 1.373 . S
C646 C648 1.389 . S
C647 H626 0.950 . S
C647 C646 1.373 . S
C647 C663 1.377 . S
C648 C646 1.389 . S
C648 C649 1.524 . S
C648 C662 1.377 . S
C649 C648 1.524 . S
C649 C650 1.397 . S
C649 C654 1.363 . S
C650 H627 0.950 . S
C650 C649 1.397 . S
C650 C651 1.334 . S
C651 H628 0.950 . S
C651 C650 1.334 . S
C651 C652 1.287 . S
C652 C651 1.287 . S
C652 C653 1.524 . S
C652 H671 0.913 . S
C653 H629 0.950 . S
C653 C652 1.524 . S
C653 C654 1.415 . S
C654 H630 0.950 . S
C654 C649 1.363 . S
C654 C653 1.415 . S
C655 H631 0.951 . S
C655 C656 1.366 . S
C655 C657 1.388 . S
C656 C655 1.366 . S
C656 C660 1.385 . S
C657 H632 0.951 . S
C657 C655 1.388 . S
C657 C658 1.366 . S
C658 C657 1.366 . S
C658 C659 1.414 . S
C658 C661 1.499 . S
C659 H633 0.950 . S
C659 C658 1.414 . S
C659 C660 1.374 . S
C660 H634 0.950 . S
C660 C656 1.385 . S
C660 C659 1.374 . S
C661 C658 1.499 . S
C661 C662 1.373 . S
C661 C663 1.389 . S
C662 H635 0.950 . S
C662 C648 1.377 . S
C662 C661 1.373 . S
C663 C647 1.377 . S
C663 C661 1.389 . S
C663 C664 1.524 . S
C664 C663 1.524 . S
C664 C665 1.397 . S
C664 C669 1.363 . S
C665 H636 0.950 . S
C665 C664 1.397 . S
C665 C666 1.334 . S
C666 H637 0.950 . S
C666 C665 1.334 . S
C666 C667 1.287 . S
C667 C666 1.287 . S
C667 C668 1.524 . S
C667 H670 0.999 . S
C668 H638 0.950 . S
C668 C667 1.524 . S
C668 C669 1.415 . S
C669 H639 0.950 . S
C669 C664 1.363 . S
C669 C668 1.415 . S
H670 C667 0.999 . S
H671 C652 0.913 . S
H672 C690 0.951 . S
H673 C692 0.951 . S
H674 C694 0.950 . S
H675 C695 0.950 . S
H676 C697 0.950 . S
H677 C700 0.950 . S
H678 C701 0.967 . S
H679 C703 0.950 . S
H680 C704 0.950 . S
H681 C705 0.951 . S
H682 C707 0.951 . S
H683 C709 0.950 . S
H684 C710 0.950 . S
H685 C712 0.950 . S
H686 C715 0.950 . S
H687 C716 0.950 . S
H688 C718 0.950 . S
H689 C719 0.950 . S
C690 H672 0.951 . S
C690 C691 1.366 . S
C690 C692 1.388 . S
C691 C690 1.366 . S
C691 C695 1.385 . S
C692 H673 0.951 . S
C692 C690 1.388 . S
C692 C693 1.366 . S
C693 C692 1.366 . S
C693 C694 1.414 . S
C693 C696 1.499 . S
C694 H674 0.950 . S
C694 C693 1.414 . S
C694 C695 1.374 . S
C695 H675 0.950 . S
C695 C691 1.385 . S
C695 C694 1.374 . S
C696 C693 1.499 . S
C696 C697 1.373 . S
C696 C698 1.389 . S
C697 H676 0.950 . S
C697 C696 1.373 . S
C697 C713 1.377 . S
C698 C696 1.389 . S
C698 C699 1.524 . S
C698 C712 1.377 . S
C699 C698 1.524 . S
C699 C700 1.397 . S
C699 C704 1.363 . S
C700 H677 0.950 . S
C700 C699 1.397 . S
C700 C701 1.334 . S
C701 H678 0.967 . S
C701 C700 1.334 . S
C701 C702 1.287 . S
C702 C701 1.287 . S
C702 C703 1.524 . S
C702 H721 0.913 1_556 S
C703 H679 0.950 . S
C703 C702 1.524 . S
C703 C704 1.415 . S
C704 H680 0.950 . S
C704 C699 1.363 . S
C704 C703 1.415 . S
C705 H681 0.951 . S
C705 C706 1.366 . S
C705 C707 1.388 . S
C706 C705 1.366 . S
C706 C710 1.385 . S
C707 H682 0.951 . S
C707 C705 1.388 . S
C707 C708 1.366 . S
C708 C707 1.366 . S
C708 C709 1.414 . S
C708 C711 1.499 . S
C709 H683 0.950 . S
C709 C708 1.414 . S
C709 C710 1.374 . S
C710 H684 0.950 . S
C710 C706 1.385 . S
C710 C709 1.374 . S
C711 C708 1.499 . S
C711 C712 1.373 . S
C711 C713 1.389 . S
C712 H685 0.950 . S
C712 C698 1.377 . S
C712 C711 1.373 . S
C713 C697 1.377 . S
C713 C711 1.389 . S
C713 C714 1.524 . S
C714 C713 1.524 . S
C714 C715 1.397 . S
C714 C719 1.363 . S
C715 H686 0.950 . S
C715 C714 1.397 . S
C715 C716 1.334 . S
C716 H687 0.950 . S
C716 C715 1.334 . S
C716 C717 1.287 . S
C717 C716 1.287 . S
C717 C718 1.524 . S
C717 H720 0.999 . S
C718 H688 0.950 . S
C718 C717 1.524 . S
C718 C719 1.415 . S
C719 H689 0.950 . S
C719 C714 1.363 . S
C719 C718 1.415 . S
H720 C717 0.999 . S
H721 C702 0.913 1_554 S
C141 C20 1.989 . S
C156 C99 1.886 . S
C191 C60 1.245 . S
C206 C105 1.147 . S
C241 C25 0.744 . S
C256 C96 0.746 . S
C291 C65 1.126 . S
C306 C121 1.023 . S
C341 C23 1.963 . S
C356 C87 1.859 . S
C406 C104 2.263 . S
C391 C63 2.344 . S
C441 C44 1.033 . S
C456 C100 0.960 . S
C506 C117 1.664 . S
C491 C2 1.740 . S
C556 C84 2.095 . S
C541 C42 2.202 . S
C606 C120 2.050 . S
C591 C31 2.153 1_655 S
C656 C83 1.365 . S
C641 C71 1.477 . S
C706 C108 0.755 . S
C691 C4 0.761 . S
