# Generated by pormake.
# Topology anh, (6,3)-cn, num edge types: 1
# Building blocks:
#     Node 0, Type 0, BuildingBlock: BETFAJ_clean_sbu_0, # of connection points: 6
#     Node 1, Type 0, BuildingBlock: BETFAJ_clean_sbu_0, # of connection points: 6
#     Node 2, Type 0, BuildingBlock: BETFAJ_clean_sbu_0, # of connection points: 6
#     Node 3, Type 1, BuildingBlock: OLANEW_clean_sbu_2, # of connection points: 3
#     Node 4, Type 1, BuildingBlock: OLANEW_clean_sbu_2, # of connection points: 3
#     Node 5, Type 1, BuildingBlock: OLANEW_clean_sbu_2, # of connection points: 3
#     Node 6, Type 1, BuildingBlock: OLANEW_clean_sbu_2, # of connection points: 3
#     Node 7, Type 1, BuildingBlock: OLANEW_clean_sbu_2, # of connection points: 3
#     Node 8, Type 1, BuildingBlock: OLANEW_clean_sbu_2, # of connection points: 3
#     Edge 9, Type (0, 1), BuildingBlock: MIFKUJ_clean_linker_0, # of connection points: 2
#     Edge 10, Type (0, 1), BuildingBlock: MIFKUJ_clean_linker_0, # of connection points: 2
#     Edge 11, Type (0, 1), BuildingBlock: MIFKUJ_clean_linker_0, # of connection points: 2
#     Edge 12, Type (0, 1), BuildingBlock: MIFKUJ_clean_linker_0, # of connection points: 2
#     Edge 13, Type (0, 1), BuildingBlock: MIFKUJ_clean_linker_0, # of connection points: 2
#     Edge 14, Type (0, 1), BuildingBlock: MIFKUJ_clean_linker_0, # of connection points: 2
#     Edge 15, Type (0, 1), BuildingBlock: MIFKUJ_clean_linker_0, # of connection points: 2
#     Edge 16, Type (0, 1), BuildingBlock: MIFKUJ_clean_linker_0, # of connection points: 2
#     Edge 17, Type (0, 1), BuildingBlock: MIFKUJ_clean_linker_0, # of connection points: 2
#     Edge 18, Type (0, 1), BuildingBlock: MIFKUJ_clean_linker_0, # of connection points: 2
#     Edge 19, Type (0, 1), BuildingBlock: MIFKUJ_clean_linker_0, # of connection points: 2
#     Edge 20, Type (0, 1), BuildingBlock: MIFKUJ_clean_linker_0, # of connection points: 2
#     Edge 21, Type (0, 1), BuildingBlock: MIFKUJ_clean_linker_0, # of connection points: 2
#     Edge 22, Type (0, 1), BuildingBlock: MIFKUJ_clean_linker_0, # of connection points: 2
#     Edge 23, Type (0, 1), BuildingBlock: MIFKUJ_clean_linker_0, # of connection points: 2
#     Edge 24, Type (0, 1), BuildingBlock: MIFKUJ_clean_linker_0, # of connection points: 2
#     Edge 25, Type (0, 1), BuildingBlock: MIFKUJ_clean_linker_0, # of connection points: 2
#     Edge 26, Type (0, 1), BuildingBlock: MIFKUJ_clean_linker_0, # of connection points: 2
# Relax obj value: 0.113
# Max RMSD: 0.154
# Mean RMSD: 0.109
data_MOF--net-anh--node1-BETFAJ_clean_sbu_0--node2-OLANEW_clean_sbu_2--edge1-MIFKUJ_clean_linker_0
_symmetry_space_group_name_H-M    P1
_symmetry_Int_Tables_number       1
_symmetry_cell_setting            triclinic
loop_
_symmetry_equiv_pos_as_xyz
'x, y, z'
_cell_length_a     46.610876
_cell_length_b     50.899976
_cell_length_c     65.399133
_cell_angle_alpha  91.726937
_cell_angle_beta   89.731508
_cell_angle_gamma 128.66046
loop_
_atom_site_label
_atom_site_type_symbol
_atom_site_fract_x
_atom_site_fract_y
_atom_site_fract_z
_atom_type_partial_charge
Sm0 Sm 0.05156 0.52641 0.13393 0.0
Sm1 Sm 0.0201 0.56071 0.1498 0.0
C2 C 0.06984 0.49283 0.11412 0.0
C3 C 0.10184 0.49372 0.11182 0.0
C4 C 0.13741 0.52402 0.10924 0.0
C5 C 0.16731 0.52396 0.10739 0.0
C6 C 0.16214 0.49365 0.10821 0.0
C7 C 0.12644 0.46349 0.11098 0.0
C8 C 0.09664 0.46355 0.11268 0.0
C9 C 0.04987 0.53162 0.17563 0.0
C10 C 0.11051 0.60539 0.14568 0.0
C11 C 0.99949 0.5904 0.17195 0.0
C12 C 0.9647 0.5772 0.18182 0.0
C13 C 0.94144 0.54392 0.18835 0.0
C14 C 0.9058 0.52947 0.19449 0.0
C15 C 0.89273 0.54795 0.19399 0.0
C16 C 0.91681 0.58186 0.18852 0.0
C17 C 0.95256 0.59637 0.18247 0.0
C18 C 0.01948 0.55411 0.10804 0.0
C19 C 0.96181 0.48231 0.13876 0.0
O20 O 0.07157 0.517 0.106 0.0
O21 O 0.05449 0.48454 0.13205 0.0
O22 O 0.02473 0.52362 0.16331 0.0
O23 O 0.07718 0.53618 0.16618 0.0
O24 O 0.10618 0.57978 0.13631 0.0
O25 O 0.08253 0.60326 0.15275 0.0
O26 O 0.01787 0.58128 0.17962 0.0
O27 O 0.9981 0.58876 0.15194 0.0
O28 O 0.0455 0.56251 0.11985 0.0
O29 O 0.99338 0.55091 0.11806 0.0
O30 O 0.96814 0.50656 0.15092 0.0
O31 O 0.98849 0.48582 0.12846 0.0
H32 H 0.14214 0.5477 0.10869 0.0
H33 H 0.19436 0.54758 0.10512 0.0
H34 H 0.1215 0.43979 0.11215 0.0
H35 H 0.06945 0.43997 0.11484 0.0
H36 H 0.95019 0.52858 0.1878 0.0
H37 H 0.88781 0.50321 0.1984 0.0
H38 H 0.9075 0.59673 0.18816 0.0
H39 H 0.97013 0.62204 0.17741 0.0
Sm40 Sm 0.51777 0.99739 0.49668 0.0
Sm41 Sm 0.47075 0.0162 0.48321 0.0
C42 C 0.5472 0.97344 0.51512 0.0
C43 C 0.53962 0.94155 0.5199 0.0
C44 C 0.50667 0.91508 0.52892 0.0
C45 C 0.50154 0.88607 0.53452 0.0
C46 C 0.52922 0.88304 0.53114 0.0
C47 C 0.56159 0.90919 0.52149 0.0
C48 C 0.56676 0.93815 0.51602 0.0
C49 C 0.51803 0.00568 0.45548 0.0
C50 C 0.42909 0.93748 0.48622 0.0
C51 C 0.44392 0.04377 0.46669 0.0
C52 C 0.45288 0.07722 0.46885 0.0
C53 C 0.48585 0.10618 0.46138 0.0
C54 C 0.49541 0.13796 0.46519 0.0
C55 C 0.47231 0.14156 0.4766 0.0
C56 C 0.4388 0.11244 0.48347 0.0
C57 C 0.42914 0.08065 0.47955 0.0
C58 C 0.47404 0.01142 0.5248 0.0
C59 C 0.56024 0.0761 0.49121 0.0
O60 O 0.52824 0.98088 0.52468 0.0
O61 O 0.55286 0.98171 0.49594 0.0
O62 O 0.48985 0.9906 0.46645 0.0
O63 O 0.54698 0.01548 0.46593 0.0
O64 O 0.45829 0.94658 0.49688 0.0
O65 O 0.4291 0.95972 0.47637 0.0
O66 O 0.46803 0.04232 0.45762 0.0
O67 O 0.42975 0.02502 0.48271 0.0
O68 O 0.50069 0.0249 0.51288 0.0
O69 O 0.44433 0.00118 0.51507 0.0
O70 O 0.52982 0.06644 0.48186 0.0
O71 O 0.56153 0.05457 0.50104 0.0
H72 H 0.48518 0.91702 0.53198 0.0
H73 H 0.47636 0.86649 0.542 0.0
H74 H 0.58313 0.9074 0.51824 0.0
H75 H 0.59228 0.95818 0.50898 0.0
H76 H 0.50469 0.10445 0.45293 0.0
H77 H 0.5211 0.15975 0.45933 0.0
H78 H 0.42049 0.1142 0.4925 0.0
H79 H 0.40351 0.05878 0.48542 0.0
Sm80 Sm 0.55801 0.55268 0.85787 0.0
Sm81 Sm 0.50345 0.47895 0.86755 0.0
C82 C 0.59293 0.61237 0.84168 0.0
C83 C 0.58481 0.63556 0.8387 0.0
C84 C 0.60503 0.66123 0.82471 0.0
C85 C 0.59663 0.68272 0.82123 0.0
C86 C 0.56792 0.67893 0.8318 0.0
C87 C 0.5478 0.65311 0.84589 0.0
C88 C 0.55613 0.63155 0.84926 0.0
C89 C 0.54977 0.53959 0.89878 0.0
C90 C 0.46916 0.51711 0.86353 0.0
C91 C 0.46942 0.41813 0.88164 0.0
C92 C 0.4768 0.39391 0.87994 0.0
C93 C 0.51174 0.40368 0.8846 0.0
C94 C 0.51961 0.38171 0.88045 0.0
C95 C 0.49282 0.34967 0.87132 0.0
C96 C 0.45756 0.3397 0.86724 0.0
C97 C 0.44962 0.36154 0.8716 0.0
C98 C 0.51187 0.49203 0.82658 0.0
C99 C 0.59237 0.51477 0.8639 0.0
O100 O 0.57244 0.58404 0.83092 0.0
O101 O 0.59809 0.60839 0.86062 0.0
O102 O 0.52425 0.52585 0.8856 0.0
O103 O 0.58139 0.56256 0.89079 0.0
O104 O 0.50091 0.54118 0.85507 0.0
O105 O 0.46471 0.49186 0.87244 0.0
O106 O 0.49264 0.4457 0.89273 0.0
O107 O 0.45974 0.4236 0.86455 0.0
O108 O 0.53751 0.50571 0.83971 0.0
O109 O 0.48037 0.46938 0.83468 0.0
O110 O 0.56016 0.49071 0.8718 0.0
O111 O 0.59758 0.54016 0.85468 0.0
H112 H 0.62716 0.6645 0.8164 0.0
H113 H 0.6123 0.70199 0.81006 0.0
H114 H 0.52586 0.64974 0.85449 0.0
H115 H 0.54018 0.61176 0.86011 0.0
H116 H 0.53333 0.42861 0.89092 0.0
H117 H 0.54687 0.39008 0.88408 0.0
H118 H 0.43639 0.3155 0.85988 0.0
H119 H 0.42261 0.3536 0.86771 0.0
O120 O 0.55762 0.10011 0.23572 0.0
Cd121 Cd 0.55659 0.10709 0.19893 0.0
O122 O 0.52832 0.04739 0.2267 0.0
Cd123 Cd 0.49528 0.99279 0.22849 0.0
O124 O 0.45516 0.93946 0.21999 0.0
C125 C 0.42415 0.92989 0.21365 0.0
O126 O 0.41828 0.952 0.2134 0.0
C127 C 0.54188 0.07008 0.24085 0.0
C128 C 0.61925 0.16769 0.18508 0.0
O129 O 0.59125 0.16506 0.19085 0.0
O130 O 0.6177 0.14171 0.18607 0.0
O131 O 0.58355 0.51965 0.60384 0.0
Cd132 Cd 0.59194 0.51939 0.5669 0.0
O133 O 0.55112 0.53618 0.59752 0.0
Cd134 Cd 0.52256 0.55688 0.60407 0.0
O135 O 0.50902 0.59034 0.59922 0.0
C136 C 0.5359 0.62165 0.59926 0.0
O137 O 0.56908 0.63167 0.60316 0.0
C138 C 0.56484 0.52841 0.61041 0.0
C139 C 0.57319 0.45873 0.55136 0.0
O140 O 0.60611 0.48285 0.55746 0.0
O141 O 0.54909 0.46324 0.55274 0.0
O142 O 0.06461 0.5187 0.88696 0.0
Cd143 Cd 0.09126 0.50978 0.85678 0.0
O144 O 0.01596 0.51383 0.87676 0.0
Cd145 Cd 0.96818 0.51485 0.87843 0.0
O146 O 0.92093 0.51607 0.87449 0.0
C147 C 0.89538 0.50458 0.88749 0.0
O148 O 0.89669 0.49153 0.90415 0.0
C149 C 0.03786 0.51899 0.89103 0.0
C150 C 0.15581 0.51543 0.86214 0.0
O151 O 0.15784 0.54072 0.85718 0.0
O152 O 0.12367 0.48785 0.86531 0.0
O153 O 0.03083 0.53188 0.40597 0.0
Cd154 Cd 0.0325 0.53427 0.44339 0.0
O155 O 0.97326 0.48689 0.39964 0.0
Cd156 Cd 0.95426 0.46738 0.4303 0.0
O157 O 0.91067 0.42299 0.44707 0.0
C158 C 0.87807 0.40801 0.44042 0.0
O159 O 0.87298 0.42096 0.42513 0.0
C160 C 0.00452 0.51191 0.39336 0.0
C161 C 0.09623 0.59759 0.4567 0.0
O162 O 0.09571 0.57213 0.45511 0.0
O163 O 0.06653 0.59296 0.45244 0.0
O164 O 0.47422 0.95547 0.74784 0.0
Cd165 Cd 0.47372 0.94841 0.78463 0.0
O166 O 0.49738 0.00739 0.75541 0.0
Cd167 Cd 0.51607 0.05861 0.75251 0.0
O168 O 0.52676 0.10501 0.76337 0.0
C169 C 0.50115 0.10113 0.77356 0.0
O170 O 0.47052 0.07045 0.77591 0.0
C171 C 0.48628 0.98422 0.74189 0.0
C172 C 0.48794 0.90439 0.79357 0.0
O173 O 0.45492 0.89366 0.79096 0.0
O174 O 0.51419 0.93597 0.79201 0.0
O175 O 0.47353 0.34923 0.08556 0.0
Cd176 Cd 0.4594 0.31456 0.11492 0.0
O177 O 0.48186 0.38838 0.10613 0.0
Cd178 Cd 0.48562 0.43301 0.11121 0.0
O179 O 0.45865 0.45575 0.11119 0.0
C180 C 0.42695 0.43704 0.10273 0.0
O181 O 0.4148 0.40769 0.09469 0.0
C182 C 0.48138 0.37793 0.08813 0.0
C183 C 0.52161 0.34452 0.13976 0.0
O184 O 0.51499 0.32481 0.12458 0.0
O185 O 0.49846 0.34973 0.14339 0.0
H186 H 0.16374 0.44678 0.08797 0.0
H187 H 0.21336 0.44298 0.08772 0.0
H188 H 0.28214 0.53596 0.12344 0.0
H189 H 0.23206 0.53951 0.1244 0.0
H190 H 0.31834 0.52855 0.08954 0.0
H191 H 0.24638 0.47143 0.14852 0.0
H192 H 0.1892 0.43191 0.1673 0.0
H193 H 0.16537 0.34932 0.12998 0.0
H194 H 0.22215 0.38844 0.11075 0.0
H195 H 0.44416 0.49707 0.11617 0.0
H196 H 0.40344 0.51213 0.11706 0.0
H197 H 0.31585 0.41491 0.08987 0.0
H198 H 0.35599 0.39956 0.08917 0.0
H199 H 0.29268 0.42939 0.12248 0.0
H200 H 0.3615 0.48613 0.06193 0.0
H201 H 0.41794 0.52506 0.04239 0.0
H202 H 0.44739 0.60762 0.08205 0.0
H203 H 0.39132 0.56907 0.10197 0.0
C204 C 0.1893 0.46639 0.09588 0.0
C205 C 0.19367 0.49319 0.10647 0.0
C206 C 0.21772 0.46429 0.09558 0.0
C207 C 0.2512 0.48903 0.10571 0.0
C208 C 0.25645 0.51667 0.1155 0.0
C209 C 0.22783 0.51866 0.11598 0.0
C210 C 0.27967 0.48467 0.10694 0.0
C211 C 0.31311 0.50723 0.09703 0.0
C212 C 0.27246 0.45657 0.11647 0.0
C213 C 0.23836 0.43292 0.12807 0.0
C214 C 0.22879 0.44488 0.1442 0.0
C215 C 0.19648 0.42254 0.15495 0.0
C216 C 0.17362 0.38814 0.14981 0.0
C217 C 0.18308 0.37598 0.13393 0.0
C218 C 0.21534 0.39822 0.12311 0.0
C219 C 0.41624 0.47896 0.11034 0.0
C220 C 0.40324 0.44706 0.10269 0.0
C221 C 0.39309 0.48768 0.11075 0.0
C222 C 0.35665 0.46467 0.10346 0.0
C223 C 0.34383 0.43299 0.09564 0.0
C224 C 0.36686 0.42428 0.09523 0.0
C225 C 0.33116 0.47278 0.10463 0.0
C226 C 0.2982 0.45092 0.11511 0.0
C227 C 0.33886 0.50145 0.09557 0.0
C228 C 0.37248 0.52466 0.08358 0.0
C229 C 0.3802 0.51254 0.06659 0.0
C230 C 0.41207 0.53453 0.05543 0.0
C231 C 0.43631 0.56876 0.06103 0.0
C232 C 0.42864 0.58109 0.07776 0.0
C233 C 0.3968 0.55918 0.08897 0.0
H234 H 0.46098 0.58575 0.05237 0.0
H235 H 0.14862 0.37088 0.15816 0.0
H236 H 0.56707 0.12656 0.47199 0.0
H237 H 0.62305 0.18335 0.46639 0.0
H238 H 0.68571 0.16338 0.501 0.0
H239 H 0.6295 0.10611 0.50677 0.0
H240 H 0.70666 0.22881 0.50896 0.0
H241 H 0.68695 0.15755 0.4519 0.0
H242 H 0.64993 0.1149 0.42421 0.0
H243 H 0.63491 0.18058 0.39578 0.0
H244 H 0.67123 0.22338 0.42353 0.0
H245 H 0.87891 0.36994 0.46899 0.0
H246 H 0.82673 0.3141 0.48024 0.0
H247 H 0.7538 0.31648 0.44147 0.0
H248 H 0.80564 0.37179 0.42997 0.0
H249 H 0.74078 0.25809 0.43646 0.0
H250 H 0.75653 0.32758 0.49393 0.0
H251 H 0.79039 0.36958 0.52232 0.0
H252 H 0.81139 0.30756 0.55008 0.0
H253 H 0.77804 0.26537 0.52169 0.0
C254 C 0.59261 0.13418 0.47862 0.0
C255 C 0.5938 0.11157 0.48967 0.0
C256 C 0.62463 0.16672 0.47537 0.0
C257 C 0.65857 0.17739 0.48304 0.0
C258 C 0.65975 0.15555 0.4949 0.0
C259 C 0.62763 0.12282 0.49813 0.0
C260 C 0.69284 0.21069 0.47759 0.0
C261 C 0.71455 0.23513 0.49315 0.0
C262 C 0.70267 0.21896 0.45692 0.0
C263 C 0.68161 0.1936 0.4399 0.0
C264 C 0.67558 0.16284 0.43981 0.0
C265 C 0.65471 0.13862 0.4241 0.0
C266 C 0.64003 0.14501 0.40826 0.0
C267 C 0.64629 0.17566 0.40807 0.0
C268 C 0.66703 0.19992 0.42378 0.0
C269 C 0.85171 0.35867 0.463 0.0
C270 C 0.8465 0.37534 0.44855 0.0
C271 C 0.82188 0.32678 0.46948 0.0
C272 C 0.78626 0.31109 0.46175 0.0
C273 C 0.781 0.32797 0.44758 0.0
C274 C 0.81073 0.3597 0.44108 0.0
C275 C 0.75447 0.27668 0.46781 0.0
C276 C 0.73319 0.25185 0.45231 0.0
C277 C 0.74503 0.26815 0.48853 0.0
C278 C 0.76517 0.29352 0.50557 0.0
C279 C 0.76866 0.32304 0.506 0.0
C280 C 0.7877 0.34685 0.52211 0.0
C281 C 0.80314 0.34129 0.53796 0.0
C282 C 0.79948 0.31186 0.53777 0.0
C283 C 0.78049 0.28799 0.52168 0.0
H284 H 0.81785 0.35975 0.55043 0.0
H285 H 0.62388 0.12624 0.39612 0.0
H286 H 0.61582 0.74692 0.8263 0.0
H287 H 0.60111 0.78441 0.82017 0.0
H288 H 0.48546 0.7008 0.82384 0.0
H289 H 0.49987 0.66281 0.82905 0.0
H290 H 0.49801 0.73864 0.79259 0.0
H291 H 0.5325 0.75896 0.8637 0.0
H292 H 0.57236 0.77284 0.89358 0.0
H293 H 0.65752 0.86926 0.86929 0.0
H294 H 0.61835 0.85577 0.8391 0.0
H295 H 0.43826 0.83709 0.80051 0.0
H296 H 0.45103 0.7984 0.80768 0.0
H297 H 0.56738 0.87977 0.80374 0.0
H298 H 0.55488 0.91876 0.79698 0.0
H299 H 0.55311 0.84223 0.83576 0.0
H300 H 0.51881 0.82112 0.76426 0.0
H301 H 0.47874 0.80704 0.73444 0.0
H302 H 0.39279 0.71181 0.75973 0.0
H303 H 0.4322 0.72553 0.78984 0.0
C304 C 0.58723 0.7364 0.82558 0.0
C305 C 0.55903 0.70184 0.82821 0.0
C306 C 0.57888 0.75796 0.82232 0.0
C307 C 0.5422 0.74549 0.82185 0.0
C308 C 0.51396 0.71098 0.82426 0.0
C309 C 0.52228 0.68936 0.82742 0.0
C310 C 0.53328 0.76839 0.81856 0.0
C311 C 0.50963 0.76104 0.80222 0.0
C312 C 0.54905 0.79798 0.83087 0.0
C313 C 0.5726 0.80622 0.84905 0.0
C314 C 0.55983 0.78302 0.86465 0.0
C315 C 0.58229 0.79084 0.88166 0.0
C316 C 0.61748 0.82188 0.88331 0.0
C317 C 0.63027 0.84521 0.86798 0.0
C318 C 0.60794 0.8375 0.85093 0.0
C319 C 0.46657 0.84676 0.80118 0.0
C320 C 0.49557 0.88097 0.7981 0.0
C321 C 0.47382 0.82459 0.8052 0.0
C322 C 0.51014 0.83612 0.80597 0.0
C323 C 0.53914 0.87033 0.80318 0.0
C324 C 0.53194 0.89256 0.79927 0.0
C325 C 0.518 0.81256 0.80973 0.0
C326 C 0.54143 0.81979 0.82617 0.0
C327 C 0.50199 0.78284 0.79754 0.0
C328 C 0.47833 0.7745 0.77939 0.0
C329 C 0.49127 0.79729 0.76353 0.0
C330 C 0.46869 0.78935 0.74657 0.0
C331 C 0.43321 0.75859 0.74522 0.0
C332 C 0.42026 0.73565 0.76081 0.0
C333 C 0.44272 0.74348 0.77782 0.0
H334 H 0.41577 0.75249 0.73207 0.0
H335 H 0.63483 0.82788 0.89648 0.0
H336 H 0.84882 0.55235 0.16981 0.0
H337 H 0.78225 0.51773 0.17024 0.0
H338 H 0.77963 0.46868 0.22374 0.0
H339 H 0.8468 0.50319 0.22314 0.0
H340 H 0.73302 0.42369 0.19675 0.0
H341 H 0.75423 0.5207 0.22581 0.0
H342 H 0.78292 0.58087 0.22995 0.0
H343 H 0.74081 0.57772 0.17089 0.0
H344 H 0.7123 0.51766 0.16625 0.0
H345 H 0.53981 0.3811 0.17573 0.0
H346 H 0.5983 0.41288 0.19474 0.0
H347 H 0.63951 0.38022 0.15006 0.0
H348 H 0.58095 0.34755 0.13156 0.0
H349 H 0.66181 0.46409 0.18394 0.0
H350 H 0.70265 0.37899 0.16658 0.0
H351 H 0.6735 0.31867 0.16434 0.0
H352 H 0.59011 0.2974 0.20576 0.0
H353 H 0.6186 0.35772 0.20806 0.0
C354 C 0.83424 0.53493 0.18204 0.0
C355 C 0.85303 0.53058 0.1965 0.0
C356 C 0.79608 0.51511 0.18229 0.0
C357 C 0.77586 0.49086 0.19719 0.0
C358 C 0.79466 0.48729 0.21213 0.0
C359 C 0.83296 0.50698 0.21178 0.0
C360 C 0.73514 0.46716 0.19564 0.0
C361 C 0.71735 0.43251 0.19427 0.0
C362 C 0.71442 0.47852 0.19289 0.0
C363 C 0.73117 0.51462 0.19567 0.0
C364 C 0.75122 0.53286 0.21366 0.0
C365 C 0.76745 0.56696 0.21609 0.0
C366 C 0.76371 0.58311 0.20069 0.0
C367 C 0.74366 0.56517 0.18282 0.0
C368 C 0.72738 0.53107 0.1803 0.0
C369 C 0.56118 0.38028 0.17018 0.0
C370 C 0.55578 0.36181 0.15215 0.0
C371 C 0.59458 0.39845 0.18105 0.0
C372 C 0.62322 0.3986 0.17405 0.0
C373 C 0.61758 0.37978 0.15618 0.0
C374 C 0.58412 0.3613 0.14547 0.0
C375 C 0.66013 0.4208 0.18412 0.0
C376 C 0.67722 0.45518 0.18703 0.0
C377 C 0.68004 0.40915 0.18871 0.0
C378 C 0.66275 0.37286 0.18747 0.0
C379 C 0.67817 0.36147 0.17527 0.0
C380 C 0.66169 0.32724 0.17395 0.0
C381 C 0.63006 0.30418 0.18498 0.0
C382 C 0.61463 0.31529 0.19723 0.0
C383 C 0.63082 0.34948 0.19846 0.0
H384 H 0.61748 0.2777 0.18401 0.0
H385 H 0.77632 0.60952 0.2026 0.0
H386 H 0.41979 0.88272 0.50115 0.0
H387 H 0.36412 0.82373 0.49915 0.0
H388 H 0.30729 0.85226 0.46697 0.0
H389 H 0.36246 0.91102 0.46891 0.0
H390 H 0.26588 0.80844 0.49768 0.0
H391 H 0.33952 0.81735 0.44129 0.0
H392 H 0.39555 0.83022 0.42633 0.0
H393 H 0.38566 0.75748 0.46413 0.0
H394 H 0.32979 0.74448 0.4795 0.0
H395 H 0.11053 0.65793 0.45255 0.0
H396 H 0.1677 0.71407 0.46046 0.0
H397 H 0.21628 0.67048 0.48252 0.0
H398 H 0.15943 0.61411 0.47377 0.0
H399 H 0.26375 0.72062 0.46081 0.0
H400 H 0.18858 0.70752 0.5155 0.0
H401 H 0.1336 0.6945 0.5321 0.0
H402 H 0.14722 0.77429 0.50051 0.0
H403 H 0.20201 0.78751 0.4835 0.0
C404 C 0.39544 0.87644 0.49364 0.0
C405 C 0.39568 0.90164 0.48512 0.0
C406 C 0.36368 0.8427 0.49248 0.0
C407 C 0.3316 0.83358 0.48282 0.0
C408 C 0.3317 0.85872 0.47452 0.0
C409 C 0.36339 0.89234 0.47557 0.0
C410 C 0.29783 0.79789 0.48111 0.0
C411 C 0.26527 0.78924 0.48949 0.0
C412 C 0.29738 0.77261 0.47108 0.0
C413 C 0.33073 0.7802 0.46169 0.0
C414 C 0.34945 0.80427 0.44651 0.0
C415 C 0.38115 0.81156 0.43794 0.0
C416 C 0.39422 0.79475 0.44431 0.0
C417 C 0.37554 0.77052 0.45923 0.0
C418 C 0.34385 0.76316 0.46786 0.0
C419 C 0.13328 0.66025 0.45923 0.0
C420 C 0.13038 0.63154 0.4626 0.0
C421 C 0.16597 0.69243 0.46387 0.0
C422 C 0.19627 0.69667 0.47247 0.0
C423 C 0.19334 0.66797 0.47595 0.0
C424 C 0.16078 0.63574 0.471 0.0
C425 C 0.23132 0.73109 0.47704 0.0
C426 C 0.26421 0.73957 0.46922 0.0
C427 C 0.23217 0.75614 0.48786 0.0
C428 C 0.19926 0.74833 0.4981 0.0
C429 C 0.17971 0.72214 0.51198 0.0
C430 C 0.1486 0.71475 0.52148 0.0
C431 C 0.13688 0.73351 0.51733 0.0
C432 C 0.15631 0.75976 0.5037 0.0
C433 C 0.18743 0.76725 0.49415 0.0
H434 H 0.11279 0.72774 0.5247 0.0
H435 H 0.41877 0.80043 0.43766 0.0
H436 H 0.55749 0.36781 0.85546 0.0
H437 H 0.56995 0.33069 0.84197 0.0
H438 H 0.46062 0.24409 0.85777 0.0
H439 H 0.44891 0.28093 0.87265 0.0
H440 H 0.5064 0.23198 0.86429 0.0
H441 H 0.48509 0.27953 0.80773 0.0
H442 H 0.50009 0.32768 0.78862 0.0
H443 H 0.60969 0.36162 0.77951 0.0
H444 H 0.59536 0.31377 0.79869 0.0
H445 H 0.45091 0.10048 0.79551 0.0
H446 H 0.45975 0.14749 0.81384 0.0
H447 H 0.57165 0.21463 0.79342 0.0
H448 H 0.56288 0.16754 0.77468 0.0
H449 H 0.53797 0.2428 0.79082 0.0
H450 H 0.5555 0.18937 0.84193 0.0
H451 H 0.54147 0.14214 0.86161 0.0
H452 H 0.44101 0.12029 0.88183 0.0
H453 H 0.45416 0.16709 0.86203 0.0
C454 C 0.53639 0.34089 0.85658 0.0
C455 C 0.50194 0.32738 0.86492 0.0
C456 C 0.54343 0.31966 0.84858 0.0
C457 C 0.5159 0.28457 0.84837 0.0
C458 C 0.48222 0.27109 0.85759 0.0
C459 C 0.47538 0.29222 0.86588 0.0
C460 C 0.52093 0.2616 0.83765 0.0
C461 C 0.51314 0.23426 0.84821 0.0
C462 C 0.5311 0.26524 0.81686 0.0
C463 C 0.53925 0.29327 0.80474 0.0
C464 C 0.51238 0.29729 0.80165 0.0
C465 C 0.52077 0.32452 0.79082 0.0
C466 C 0.55584 0.34773 0.78289 0.0
C467 C 0.58254 0.34364 0.78566 0.0
C468 C 0.57429 0.31644 0.79648 0.0
C469 C 0.47742 0.12522 0.79483 0.0
C470 C 0.50627 0.13021 0.78373 0.0
C471 C 0.48248 0.15206 0.80542 0.0
C472 C 0.51658 0.18443 0.80532 0.0
C473 C 0.5452 0.18979 0.7938 0.0
C474 C 0.54013 0.16286 0.78313 0.0
C475 C 0.52185 0.21243 0.81727 0.0
C476 C 0.53176 0.24075 0.80698 0.0
C477 C 0.5137 0.20975 0.83834 0.0
C478 C 0.50574 0.18165 0.85039 0.0
C479 C 0.53029 0.17436 0.85046 0.0
C480 C 0.52252 0.14768 0.86166 0.0
C481 C 0.49035 0.1282 0.87294 0.0
C482 C 0.46592 0.1354 0.87308 0.0
C483 C 0.47355 0.16204 0.8619 0.0
H484 H 0.48437 0.10754 0.88159 0.0
H485 H 0.56233 0.36886 0.77458 0.0
H486 H 0.58164 0.88265 0.54917 0.0
H487 H 0.57634 0.83427 0.55963 0.0
H488 H 0.46237 0.76783 0.54044 0.0
H489 H 0.4676 0.81634 0.52946 0.0
H490 H 0.47506 0.75209 0.57851 0.0
H491 H 0.52063 0.77101 0.51075 0.0
H492 H 0.56098 0.80431 0.48218 0.0
H493 H 0.65474 0.83118 0.51647 0.0
H494 H 0.61502 0.79845 0.54539 0.0
H495 H 0.47212 0.60932 0.58692 0.0
H496 H 0.46511 0.65021 0.57495 0.0
H497 H 0.58061 0.73039 0.58648 0.0
H498 H 0.58795 0.68983 0.59818 0.0
H499 H 0.56008 0.734 0.54913 0.0
H500 H 0.51463 0.71868 0.61792 0.0
H501 H 0.47411 0.68572 0.64654 0.0
H502 H 0.37954 0.65148 0.60995 0.0
H503 H 0.41951 0.68393 0.58101 0.0
C504 C 0.5555 0.85777 0.54692 0.0
C505 C 0.52518 0.85337 0.53819 0.0
C506 C 0.55248 0.83014 0.55303 0.0
C507 C 0.5191 0.79746 0.55056 0.0
C508 C 0.48839 0.79289 0.54243 0.0
C509 C 0.49143 0.82062 0.53621 0.0
C510 C 0.51694 0.76832 0.55628 0.0
C511 C 0.49313 0.74767 0.57185 0.0
C512 C 0.54084 0.76288 0.54772 0.0
C513 C 0.56485 0.78247 0.53031 0.0
C514 C 0.54989 0.78423 0.51227 0.0
C515 C 0.57265 0.80297 0.49599 0.0
C516 C 0.61041 0.8199 0.49752 0.0
C517 C 0.62548 0.81806 0.51531 0.0
C518 C 0.60285 0.79939 0.53165 0.0
C519 C 0.49596 0.6357 0.58707 0.0
C520 C 0.53063 0.6463 0.59345 0.0
C521 C 0.49187 0.65904 0.58026 0.0
C522 C 0.52233 0.69337 0.57986 0.0
C523 C 0.55677 0.70401 0.58658 0.0
C524 C 0.56088 0.68077 0.59333 0.0
C525 C 0.51898 0.71832 0.57181 0.0
C526 C 0.54171 0.73813 0.55569 0.0
C527 C 0.49403 0.72287 0.57985 0.0
C528 C 0.47002 0.70341 0.59723 0.0
C529 C 0.48517 0.70389 0.61592 0.0
C530 C 0.46231 0.68535 0.63221 0.0
C531 C 0.42426 0.66643 0.63004 0.0
C532 C 0.40901 0.66609 0.6116 0.0
C533 C 0.43175 0.68457 0.59525 0.0
H534 H 0.40661 0.65209 0.64267 0.0
H535 H 0.62798 0.83439 0.4849 0.0
H536 H 0.65316 0.54419 0.83974 0.0
H537 H 0.70337 0.54089 0.84268 0.0
H538 H 0.65186 0.47868 0.89496 0.0
H539 H 0.60125 0.48125 0.89186 0.0
H540 H 0.72991 0.53533 0.90027 0.0
H541 H 0.64705 0.44002 0.85556 0.0
H542 H 0.60645 0.40925 0.82535 0.0
H543 H 0.6974 0.47314 0.78574 0.0
H544 H 0.73853 0.50446 0.81574 0.0
H545 H 0.83791 0.48273 0.91282 0.0
H546 H 0.78711 0.48421 0.90785 0.0
H547 H 0.83078 0.53026 0.84975 0.0
H548 H 0.8818 0.52849 0.85453 0.0
H549 H 0.75673 0.48243 0.84685 0.0
H550 H 0.84015 0.57654 0.89266 0.0
H551 H 0.87957 0.60575 0.92344 0.0
H552 H 0.78605 0.54315 0.96169 0.0
H553 H 0.74613 0.51324 0.93114 0.0
C554 C 0.65247 0.52974 0.85184 0.0
C555 C 0.62305 0.51294 0.86554 0.0
C556 C 0.68115 0.52778 0.85346 0.0
C557 C 0.68147 0.5095 0.86904 0.0
C558 C 0.6523 0.49295 0.88283 0.0
C559 C 0.62327 0.49433 0.88097 0.0
C560 C 0.7126 0.5083 0.87123 0.0
C561 C 0.73553 0.52342 0.8887 0.0
C562 C 0.72045 0.49335 0.85598 0.0
C563 C 0.69578 0.47487 0.83789 0.0
C564 C 0.65832 0.44775 0.84041 0.0
C565 C 0.63523 0.43013 0.82333 0.0
C566 C 0.64931 0.43934 0.80364 0.0
C567 C 0.68653 0.46609 0.801 0.0
C568 C 0.70976 0.48375 0.81804 0.0
C569 C 0.8369 0.49324 0.89895 0.0
C570 C 0.86431 0.50566 0.88414 0.0
C571 C 0.80773 0.49418 0.89616 0.0
C572 C 0.80509 0.50778 0.87854 0.0
C573 C 0.83206 0.51972 0.86353 0.0
C574 C 0.86138 0.5188 0.86632 0.0
C575 C 0.77429 0.50955 0.87595 0.0
C576 C 0.75134 0.49451 0.8584 0.0
C577 C 0.76628 0.52448 0.8912 0.0
C578 C 0.79022 0.54243 0.9096 0.0
C579 C 0.82804 0.56882 0.90764 0.0
C580 C 0.85047 0.58553 0.92505 0.0
C581 C 0.83534 0.57625 0.94451 0.0
C582 C 0.79774 0.55028 0.94661 0.0
C583 C 0.77519 0.53346 0.92925 0.0
H584 H 0.85275 0.58923 0.95797 0.0
H585 H 0.63141 0.4257 0.79043 0.0
H586 H 0.12853 0.66699 0.15234 0.0
H587 H 0.18903 0.72013 0.16011 0.0
H588 H 0.23741 0.67063 0.15453 0.0
H589 H 0.17642 0.61685 0.14649 0.0
H590 H 0.25766 0.7118 0.19116 0.0
H591 H 0.25698 0.72114 0.11915 0.0
H592 H 0.23117 0.71781 0.08547 0.0
H593 H 0.22193 0.79327 0.10566 0.0
H594 H 0.24715 0.79669 0.13959 0.0
H595 H 0.42886 0.8789 0.20903 0.0
H596 H 0.38207 0.82204 0.19448 0.0
H597 H 0.30852 0.84536 0.18593 0.0
H598 H 0.35507 0.9021 0.20009 0.0
H599 H 0.30973 0.81473 0.15242 0.0
H600 H 0.2992 0.7977 0.2255 0.0
H601 H 0.32193 0.79986 0.25998 0.0
H602 H 0.35021 0.73832 0.23825 0.0
H603 H 0.32805 0.73616 0.20355 0.0
C604 C 0.15201 0.66734 0.15259 0.0
C605 C 0.14775 0.63774 0.14884 0.0
C606 C 0.1866 0.69778 0.15695 0.0
C607 C 0.21764 0.69928 0.15777 0.0
C608 C 0.2137 0.6699 0.15388 0.0
C609 C 0.17897 0.63933 0.14921 0.0
C610 C 0.25361 0.73159 0.16366 0.0
C611 C 0.26972 0.73423 0.18246 0.0
C612 C 0.26878 0.76079 0.15242 0.0
C613 C 0.25383 0.75905 0.13197 0.0
C614 C 0.24921 0.73686 0.11647 0.0
C615 C 0.23472 0.73499 0.09731 0.0
C616 C 0.22488 0.75529 0.09343 0.0
C617 C 0.22958 0.77756 0.10869 0.0
C618 C 0.24404 0.77952 0.12788 0.0
C619 C 0.40265 0.87184 0.20411 0.0
C620 C 0.39567 0.89502 0.20571 0.0
C621 C 0.37595 0.83934 0.19583 0.0
C622 C 0.34178 0.82945 0.18916 0.0
C623 C 0.33477 0.85251 0.19087 0.0
C624 C 0.36139 0.88493 0.19907 0.0
C625 C 0.31303 0.7952 0.1803 0.0
C626 C 0.2983 0.79223 0.16091 0.0
C627 C 0.29902 0.76575 0.19107 0.0
C628 C 0.31245 0.76716 0.21188 0.0
C629 C 0.31059 0.7849 0.22803 0.0
C630 C 0.32329 0.78606 0.24762 0.0
C631 C 0.33763 0.76934 0.25129 0.0
C632 C 0.33919 0.75133 0.23538 0.0
C633 C 0.32655 0.75012 0.21575 0.0
H634 H 0.34744 0.77026 0.26647 0.0
H635 H 0.21366 0.75379 0.0786 0.0
H636 H 0.42932 0.16129 0.47854 0.0
H637 H 0.4475 0.21592 0.49008 0.0
H638 H 0.55949 0.25384 0.49793 0.0
H639 H 0.54118 0.19877 0.48749 0.0
H640 H 0.54003 0.27111 0.52991 0.0
H641 H 0.53146 0.27669 0.45738 0.0
H642 H 0.50191 0.2572 0.42315 0.0
H643 H 0.41598 0.25953 0.44394 0.0
H644 H 0.44476 0.27861 0.47839 0.0
H645 H 0.61885 0.44293 0.5446 0.0
H646 H 0.60254 0.39004 0.53055 0.0
H647 H 0.48914 0.34903 0.52506 0.0
H648 H 0.50533 0.4021 0.53876 0.0
H649 H 0.51032 0.33409 0.49137 0.0
H650 H 0.51859 0.32732 0.56411 0.0
H651 H 0.54849 0.34694 0.59826 0.0
H652 H 0.63575 0.34711 0.57669 0.0
H653 H 0.60661 0.32789 0.54232 0.0
C654 C 0.4578 0.18118 0.4828 0.0
C655 C 0.48375 0.17554 0.48209 0.0
C656 C 0.46825 0.21258 0.48916 0.0
C657 C 0.50498 0.23916 0.49465 0.0
C658 C 0.53102 0.23375 0.49371 0.0
C659 C 0.52055 0.2023 0.48751 0.0
C660 C 0.51596 0.27218 0.50221 0.0
C661 C 0.53405 0.28513 0.52131 0.0
C662 C 0.50737 0.29011 0.49125 0.0
C663 C 0.4901 0.27879 0.47052 0.0
C664 C 0.50612 0.27281 0.45469 0.0
C665 C 0.48953 0.26188 0.43524 0.0
C666 C 0.45704 0.25705 0.43138 0.0
C667 C 0.44112 0.26324 0.44696 0.0
C668 C 0.45758 0.27415 0.46644 0.0
C669 C 0.59042 0.42267 0.54042 0.0
C670 C 0.56335 0.42667 0.54289 0.0
C671 C 0.58113 0.3924 0.53244 0.0
C672 C 0.54454 0.36543 0.52698 0.0
C673 C 0.51754 0.3695 0.52919 0.0
C674 C 0.52683 0.39981 0.5371 0.0
C675 C 0.53438 0.33294 0.51902 0.0
C676 C 0.51641 0.32009 0.49989 0.0
C677 C 0.54315 0.31511 0.52992 0.0
C678 C 0.5606 0.32648 0.5506 0.0
C679 C 0.5443 0.33177 0.56661 0.0
C680 C 0.56108 0.34278 0.58601 0.0
C681 C 0.59405 0.34835 0.58963 0.0
C682 C 0.61024 0.34283 0.57386 0.0
C683 C 0.59359 0.33185 0.55443 0.0
H684 H 0.607 0.35688 0.60466 0.0
H685 H 0.44424 0.24858 0.41632 0.0
H686 H 0.39961 0.471 0.87808 0.0
H687 H 0.34851 0.47279 0.87769 0.0
H688 H 0.41631 0.56811 0.84824 0.0
H689 H 0.46793 0.56665 0.84872 0.0
H690 H 0.37614 0.56886 0.87803 0.0
H691 H 0.35039 0.49538 0.82115 0.0
H692 H 0.34148 0.44723 0.80345 0.0
H693 H 0.25147 0.37899 0.84257 0.0
H694 H 0.26019 0.42679 0.86071 0.0
H695 H 0.22646 0.56756 0.85127 0.0
H696 H 0.28031 0.56961 0.85138 0.0
H697 H 0.21533 0.47043 0.87605 0.0
H698 H 0.16114 0.46787 0.87538 0.0
H699 H 0.25557 0.47323 0.84754 0.0
H700 H 0.28234 0.54689 0.9051 0.0
H701 H 0.29193 0.59516 0.92311 0.0
H702 H 0.38018 0.66312 0.88299 0.0
H703 H 0.37082 0.61521 0.86457 0.0
C704 C 0.40384 0.49243 0.8715 0.0
C705 C 0.43809 0.51862 0.86335 0.0
C706 C 0.37438 0.49333 0.87121 0.0
C707 C 0.37815 0.52037 0.8627 0.0
C708 C 0.4125 0.54689 0.85486 0.0
C709 C 0.44204 0.54596 0.85508 0.0
C710 C 0.34622 0.52076 0.86201 0.0
C711 C 0.34994 0.54816 0.8711 0.0
C712 C 0.31162 0.49352 0.85336 0.0
C713 C 0.30616 0.4647 0.84241 0.0
C714 C 0.32887 0.47012 0.82608 0.0
C715 C 0.32383 0.44289 0.81595 0.0
C716 C 0.29598 0.41008 0.82191 0.0
C717 C 0.27306 0.40442 0.83798 0.0
C718 C 0.27801 0.43158 0.84818 0.0
C719 C 0.22364 0.54625 0.85687 0.0
C720 C 0.1893 0.51757 0.86338 0.0
C721 C 0.25464 0.54752 0.85702 0.0
C722 C 0.25238 0.52036 0.86397 0.0
C723 C 0.21811 0.49179 0.87059 0.0
C724 C 0.18704 0.4904 0.87028 0.0
C725 C 0.28522 0.52117 0.86382 0.0
C726 C 0.28172 0.49399 0.8545 0.0
C727 C 0.31999 0.54861 0.87229 0.0
C728 C 0.32561 0.57743 0.88333 0.0
C729 C 0.3036 0.57211 0.90002 0.0
C730 C 0.30903 0.59941 0.91032 0.0
C731 C 0.33657 0.63218 0.90416 0.0
C732 C 0.35882 0.63772 0.88772 0.0
C733 C 0.35348 0.61051 0.87736 0.0
H734 H 0.34074 0.65328 0.91216 0.0
H735 H 0.29212 0.38903 0.81405 0.0
H736 H 0.94122 0.41943 0.13154 0.0
H737 H 0.87988 0.36571 0.13537 0.0
H738 H 0.83642 0.41867 0.1473 0.0
H739 H 0.89797 0.47229 0.14457 0.0
H740 H 0.81315 0.37623 0.17436 0.0
H741 H 0.81621 0.36839 0.10197 0.0
H742 H 0.84106 0.36984 0.0683 0.0
H743 H 0.83938 0.28769 0.08427 0.0
H744 H 0.81499 0.28605 0.11818 0.0
H745 H 0.62901 0.22564 0.17863 0.0
H746 H 0.68419 0.27879 0.16661 0.0
H747 H 0.73965 0.23575 0.16254 0.0
H748 H 0.68434 0.18221 0.17415 0.0
H749 H 0.75366 0.27356 0.12968 0.0
H750 H 0.75169 0.28581 0.20376 0.0
H751 H 0.72419 0.28569 0.23611 0.0
H752 H 0.72047 0.36227 0.21429 0.0
H753 H 0.74755 0.36255 0.18172 0.0
C754 C 0.91841 0.4195 0.13461 0.0
C755 C 0.92429 0.44993 0.13786 0.0
C756 C 0.88328 0.38878 0.13671 0.0
C757 C 0.8533 0.388 0.1415 0.0
C758 C 0.85904 0.41851 0.14373 0.0
C759 C 0.89421 0.44915 0.1421 0.0
C760 C 0.81675 0.35576 0.14599 0.0
C761 C 0.79989 0.35402 0.16432 0.0
C762 C 0.7995 0.3265 0.13312 0.0
C763 C 0.81405 0.32729 0.11271 0.0
C764 C 0.82139 0.35079 0.09837 0.0
C765 C 0.83536 0.35163 0.07923 0.0
C766 C 0.84187 0.32892 0.07417 0.0
C767 C 0.83435 0.30528 0.08822 0.0
C768 C 0.82041 0.30436 0.1074 0.0
C769 C 0.6529 0.22742 0.17513 0.0
C770 C 0.65239 0.19977 0.1775 0.0
C771 C 0.68443 0.25785 0.16828 0.0
C772 C 0.71617 0.26137 0.16392 0.0
C773 C 0.71547 0.2336 0.16583 0.0
C774 C 0.68389 0.20307 0.17257 0.0
C775 C 0.75052 0.29426 0.15801 0.0
C776 C 0.76693 0.29602 0.13949 0.0
C777 C 0.76701 0.3238 0.17046 0.0
C778 C 0.75121 0.32388 0.1902 0.0
C779 C 0.74477 0.30244 0.20581 0.0
C780 C 0.7293 0.30238 0.22419 0.0
C781 C 0.72046 0.32386 0.22722 0.0
C782 C 0.72726 0.3456 0.21192 0.0
C783 C 0.7427 0.34573 0.1935 0.0
H784 H 0.70844 0.32374 0.24146 0.0
H785 H 0.85268 0.3296 0.05934 0.0
H786 H 0.96269 0.52959 0.08135 0.0
H787 H 0.96275 0.52414 0.04401 0.0
H788 H 0.07645 0.5654 0.04672 0.0
H789 H 0.07648 0.57073 0.08412 0.0
H790 H 0.06122 0.59456 0.01725 0.0
H791 H 0.01363 0.48432 0.03848 0.0
H792 H 0.97125 0.43171 0.05686 0.0
H793 H 0.87978 0.41013 0.0228 0.0
H794 H 0.92161 0.46292 0.00441 0.0
H795 H 0.0909 0.55311 0.92059 0.0
H796 H 0.08399 0.55997 0.95679 0.0
H797 H 0.96787 0.50615 0.94696 0.0
H798 H 0.97438 0.49784 0.91063 0.0
H799 H 0.97969 0.48409 0.97976 0.0
H800 H 0.02691 0.59207 0.95682 0.0
H801 H 0.06859 0.64511 0.93875 0.0
H802 H 0.15936 0.67169 0.97608 0.0
H803 H 0.11832 0.61857 0.99419 0.0
C804 C 0.98768 0.53747 0.07397 0.0
C805 C 0.0196 0.55061 0.08558 0.0
C806 C 0.98763 0.53425 0.05267 0.0
C807 C 0.01956 0.54427 0.04263 0.0
C808 C 0.05155 0.55757 0.0542 0.0
C809 C 0.0515 0.56049 0.07553 0.0
C810 C 0.01971 0.5411 0.02003 0.0
C811 C 0.04369 0.5704 0.00903 0.0
C812 C 0.99586 0.50967 0.00934 0.0
C813 C 0.97071 0.47776 0.02023 0.0
C814 C 0.98445 0.4685 0.03503 0.0
C815 C 0.96054 0.43862 0.04542 0.0
C816 C 0.92284 0.41764 0.04103 0.0
C817 C 0.90899 0.42644 0.0262 0.0
C818 C 0.93279 0.45633 0.01577 0.0
C819 C 0.06388 0.54295 0.92604 0.0
C820 C 0.03329 0.52545 0.91258 0.0
C821 C 0.06002 0.5471 0.94677 0.0
C822 C 0.02553 0.53412 0.95459 0.0
C823 C 0.99484 0.51671 0.94122 0.0
C824 C 0.99868 0.51242 0.92038 0.0
C825 C 0.02169 0.53758 0.97689 0.0
C826 C 0.99699 0.50834 0.98789 0.0
C827 C 0.04474 0.56913 0.98759 0.0
C828 C 0.06955 0.60119 0.97677 0.0
C829 C 0.0558 0.6091 0.96108 0.0
C830 C 0.07931 0.63921 0.95084 0.0
C831 C 0.11661 0.66173 0.95624 0.0
C832 C 0.13046 0.65421 0.97191 0.0
C833 C 0.10708 0.62413 0.98219 0.0
H834 H 0.13477 0.68502 0.94829 0.0
H835 H 0.9044 0.39452 0.04909 0.0
H836 H 0.45945 0.97566 0.42899 0.0
H837 H 0.46119 0.98425 0.39215 0.0
H838 H 0.57928 0.05925 0.39621 0.0
H839 H 0.5777 0.04971 0.4327 0.0
H840 H 0.48108 0.03387 0.36978 0.0
H841 H 0.61922 0.05976 0.35396 0.0
H842 H 0.65554 0.04368 0.36734 0.0
H843 H 0.55723 0.95202 0.38919 0.0
H844 H 0.52029 0.96735 0.37573 0.0
H845 H 0.54611 0.10699 0.27348 0.0
H846 H 0.53993 0.09417 0.30966 0.0
H847 H 0.52298 0.00233 0.29411 0.0
H848 H 0.53153 0.01615 0.25809 0.0
H849 H 0.56572 0.03055 0.32565 0.0
H850 H 0.45047 0.00294 0.30794 0.0
H851 H 0.4083 0.0119 0.29386 0.0
H852 H 0.44997 0.09366 0.3374 0.0
H853 H 0.49276 0.08549 0.35157 0.0
C854 C 0.48572 0.99387 0.42193 0.0
C855 C 0.51848 0.01164 0.43354 0.0
C856 C 0.4867 0.99887 0.40093 0.0
C857 C 0.52043 0.02193 0.39129 0.0
C858 C 0.55302 0.04065 0.40314 0.0
C859 C 0.55208 0.03526 0.42401 0.0
C860 C 0.52169 0.02632 0.36884 0.0
C861 C 0.49955 0.03309 0.36013 0.0
C862 C 0.54514 0.02455 0.3561 0.0
C863 C 0.56706 0.01486 0.36398 0.0
C864 C 0.60535 0.0361 0.36153 0.0
C865 C 0.62604 0.02714 0.36915 0.0
C866 C 0.60872 0.99689 0.37915 0.0
C867 C 0.57064 0.97549 0.3815 0.0
C868 C 0.54982 0.98432 0.3739 0.0
C869 C 0.54109 0.08406 0.27775 0.0
C870 C 0.53818 0.06205 0.26277 0.0
C871 C 0.53724 0.07661 0.29846 0.0
C872 C 0.53005 0.04684 0.30462 0.0
C873 C 0.52799 0.02522 0.28973 0.0
C874 C 0.53222 0.03285 0.26904 0.0
C875 C 0.52554 0.03865 0.32662 0.0
C876 C 0.54715 0.03122 0.33527 0.0
C877 C 0.50076 0.03879 0.33916 0.0
C878 C 0.47505 0.04378 0.33069 0.0
C879 C 0.45083 0.02299 0.31442 0.0
C880 C 0.42679 0.0279 0.30644 0.0
C881 C 0.42652 0.05338 0.3147 0.0
C882 C 0.45024 0.07396 0.331 0.0
C883 C 0.47437 0.06918 0.33902 0.0
H884 H 0.40788 0.05714 0.3085 0.0
H885 H 0.62479 0.99001 0.38506 0.0
H886 H 0.57644 0.52997 0.80605 0.0
H887 H 0.58459 0.54014 0.76937 0.0
H888 H 0.46729 0.48174 0.76114 0.0
H889 H 0.45903 0.47052 0.79768 0.0
H890 H 0.49086 0.46409 0.73288 0.0
H891 H 0.52941 0.56997 0.7592 0.0
H892 H 0.56418 0.62214 0.78074 0.0
H893 H 0.66524 0.65226 0.755 0.0
H894 H 0.63119 0.59997 0.73359 0.0
H895 H 0.50477 0.51408 0.62996 0.0
H896 H 0.49528 0.51231 0.66698 0.0
H897 H 0.60392 0.54353 0.67792 0.0
H898 H 0.61342 0.54499 0.64095 0.0
H899 H 0.58231 0.5768 0.7042 0.0
H900 H 0.54068 0.46647 0.68022 0.0
H901 H 0.50367 0.41513 0.65799 0.0
H902 H 0.40462 0.39515 0.67925 0.0
H903 H 0.44113 0.44669 0.7014 0.0
C904 C 0.55245 0.51943 0.79639 0.0
C905 C 0.5171 0.49936 0.80463 0.0
C906 C 0.55713 0.52545 0.77545 0.0
C907 C 0.52658 0.51207 0.76246 0.0
C908 C 0.49128 0.49233 0.7708 0.0
C909 C 0.48658 0.48595 0.79168 0.0
C910 C 0.53124 0.51728 0.74005 0.0
C911 C 0.51042 0.48888 0.72668 0.0
C912 C 0.55708 0.54953 0.73183 0.0
C913 C 0.57773 0.58086 0.74488 0.0
C914 C 0.55908 0.58754 0.75827 0.0
C915 C 0.57866 0.61717 0.77044 0.0
C916 C 0.61689 0.64049 0.76923 0.0
C917 C 0.63563 0.63417 0.75591 0.0
C918 C 0.6162 0.60454 0.74376 0.0
C919 C 0.52689 0.52125 0.64026 0.0
C920 C 0.55993 0.52991 0.63262 0.0
C921 C 0.52135 0.52003 0.66137 0.0
C922 C 0.54894 0.52784 0.67512 0.0
C923 C 0.58241 0.53759 0.66753 0.0
C924 C 0.5877 0.53824 0.64645 0.0
C925 C 0.54213 0.5237 0.69736 0.0
C926 C 0.56256 0.55221 0.71059 0.0
C927 C 0.51557 0.49168 0.70549 0.0
C928 C 0.49364 0.46062 0.69227 0.0
C929 C 0.51103 0.4513 0.68001 0.0
C930 C 0.49014 0.42213 0.66745 0.0
C931 C 0.45182 0.40194 0.66715 0.0
C932 C 0.43431 0.41084 0.67946 0.0
C933 C 0.45508 0.44001 0.69202 0.0
H934 H 0.4357 0.37936 0.65743 0.0
H935 H 0.63199 0.66353 0.77852 0.0
H936 H 0.42055 0.98894 0.55291 0.0
H937 H 0.42597 0.98796 0.59009 0.0
H938 H 0.53977 0.03089 0.58422 0.0
H939 H 0.53465 0.03231 0.54707 0.0
H940 H 0.50147 0.9765 0.60953 0.0
H941 H 0.52132 0.07986 0.60123 0.0
H942 H 0.50707 0.11591 0.58886 0.0
H943 H 0.40664 0.05943 0.62233 0.0
H944 H 0.42004 0.02271 0.63467 0.0
H945 H 0.52938 0.04373 0.72163 0.0
H946 H 0.52962 0.05143 0.6849 0.0
H947 H 0.44529 0.94441 0.67514 0.0
H948 H 0.44424 0.93658 0.71187 0.0
H949 H 0.475 0.03586 0.65776 0.0
H950 H 0.46498 0.92087 0.63115 0.0
H951 H 0.48239 0.88716 0.64352 0.0
H952 H 0.5701 0.97208 0.67986 0.0
H953 H 0.55355 0.00643 0.66748 0.0
C954 C 0.44672 0.99821 0.55957 0.0
C955 C 0.47717 0.01065 0.54715 0.0
C956 C 0.4498 0.99772 0.58078 0.0
C957 C 0.48333 0.00954 0.58988 0.0
C958 C 0.51367 0.02166 0.57747 0.0
C959 C 0.5107 0.02246 0.55629 0.0
C960 C 0.48659 0.00886 0.61234 0.0
C961 C 0.49571 0.98948 0.62008 0.0
C962 C 0.47961 0.02624 0.62606 0.0
C963 C 0.47153 0.04834 0.61873 0.0
C964 C 0.49604 0.07495 0.60582 0.0
C965 C 0.48815 0.09554 0.59884 0.0
C966 C 0.45593 0.08991 0.60477 0.0
C967 C 0.43157 0.06373 0.61774 0.0
C968 C 0.43932 0.04304 0.62474 0.0
C969 C 0.51017 0.02195 0.7118 0.0
C970 C 0.48628 0.98963 0.71977 0.0
C971 C 0.51062 0.02636 0.69075 0.0
C972 C 0.4876 0.99848 0.67731 0.0
C973 C 0.46353 0.96623 0.68524 0.0
C974 C 0.46297 0.96183 0.70624 0.0
C975 C 0.48909 0.00289 0.65494 0.0
C976 C 0.48082 0.02292 0.64721 0.0
C977 C 0.49723 0.98639 0.64122 0.0
C978 C 0.50778 0.9661 0.64853 0.0
C979 C 0.48808 0.93238 0.64171 0.0
C980 C 0.49778 0.91316 0.64874 0.0
C981 C 0.52726 0.92744 0.66251 0.0
C982 C 0.54718 0.96101 0.66924 0.0
C983 C 0.53762 0.98035 0.66225 0.0
H984 H 0.5347 0.9125 0.66795 0.0
H985 H 0.44986 0.10588 0.59935 0.0
H986 H 0.60247 0.56098 0.92808 0.0
H987 H 0.59336 0.53861 0.96227 0.0
H988 H 0.47627 0.46891 0.9507 0.0
H989 H 0.48518 0.49164 0.91683 0.0
H990 H 0.49031 0.49482 0.9886 0.0
H991 H 0.52916 0.44321 0.9462 0.0
H992 H 0.57031 0.44264 0.92267 0.0
H993 H 0.65858 0.50004 0.96693 0.0
H994 H 0.61794 0.50093 0.99076 0.0
H995 H 0.44831 0.35537 0.05052 0.0
H996 H 0.4622 0.38887 0.02037 0.0
H997 H 0.54601 0.47936 0.055 0.0
H998 H 0.5319 0.44609 0.08529 0.0
H999 H 0.55214 0.44726 0.00752 0.0
H1000 H 0.51067 0.50111 0.04897 0.0
H1001 H 0.46656 0.4996 0.07099 0.0
H1002 H 0.38007 0.43411 0.02686 0.0
H1003 H 0.42371 0.43506 0.00464 0.0
C1004 C 0.57481 0.54111 0.93295 0.0
C1005 C 0.54454 0.5279 0.91982 0.0
C1006 C 0.56964 0.52824 0.95241 0.0
C1007 C 0.53416 0.50179 0.95893 0.0
C1008 C 0.50388 0.48929 0.946 0.0
C1009 C 0.50902 0.50222 0.92663 0.0
C1010 C 0.5284 0.48642 0.97899 0.0
C1011 C 0.5039 0.48447 0.9927 0.0
C1012 C 0.54623 0.47305 0.98445 0.0
C1013 C 0.57064 0.47243 0.97018 0.0
C1014 C 0.55741 0.45589 0.95086 0.0
C1015 C 0.58062 0.45548 0.93748 0.0
C1016 C 0.61708 0.47147 0.94324 0.0
C1017 C 0.63036 0.48774 0.96246 0.0
C1018 C 0.60723 0.48812 0.97594 0.0
C1019 C 0.46939 0.38245 0.05174 0.0
C1020 C 0.48863 0.39824 0.07029 0.0
C1021 C 0.47721 0.4015 0.03458 0.0
C1022 C 0.50473 0.43653 0.03564 0.0
C1023 C 0.52419 0.45239 0.05406 0.0
C1024 C 0.51599 0.4334 0.07133 0.0
C1025 C 0.5144 0.45603 0.01702 0.0
C1026 C 0.53924 0.45829 0.00351 0.0
C1027 C 0.49675 0.46948 0.01166 0.0
C1028 C 0.47027 0.46772 0.02534 0.0
C1029 C 0.48213 0.48595 0.04413 0.0
C1030 C 0.45727 0.48535 0.05659 0.0
C1031 C 0.42053 0.46667 0.05034 0.0
C1032 C 0.40853 0.44848 0.03168 0.0
C1033 C 0.4333 0.44907 0.01915 0.0
H1034 H 0.40141 0.46648 0.05988 0.0
H1035 H 0.63501 0.47114 0.93287 0.0
H1036 H 0.98769 0.50384 0.19725 0.0
H1037 H 0.98187 0.50385 0.23433 0.0
H1038 H 0.09953 0.56325 0.24152 0.0
H1039 H 0.10506 0.56146 0.2043 0.0
H1040 H 0.06914 0.51794 0.26799 0.0
H1041 H 0.05036 0.59606 0.24809 0.0
H1042 H 0.02215 0.61535 0.22825 0.0
H1043 H 0.91653 0.53695 0.25244 0.0
H1044 H 0.94399 0.51684 0.27222 0.0
H1045 H 0.06949 0.55587 0.37366 0.0
H1046 H 0.0789 0.56323 0.33678 0.0
H1047 H 0.96225 0.48821 0.32581 0.0
H1048 H 0.9525 0.48056 0.36261 0.0
H1049 H 0.99472 0.5452 0.30187 0.0
H1050 H 0.01402 0.46579 0.31978 0.0
H1051 H 0.04262 0.44655 0.33927 0.0
H1052 H 0.14905 0.52979 0.31845 0.0
H1053 H 0.1211 0.54978 0.29906 0.0
C1054 C 0.0123 0.51693 0.20677 0.0
C1055 C 0.04684 0.53266 0.198 0.0
C1056 C 0.00901 0.51719 0.22797 0.0
C1057 C 0.04034 0.53419 0.24081 0.0
C1058 C 0.07494 0.55004 0.23198 0.0
C1059 C 0.07813 0.54908 0.21075 0.0
C1060 C 0.03684 0.5344 0.26342 0.0
C1061 C 0.05346 0.52459 0.27537 0.0
C1062 C 0.01572 0.54235 0.27313 0.0
C1063 C 0.99925 0.55485 0.26159 0.0
C1064 C 0.0211 0.58286 0.24914 0.0
C1065 C 0.00524 0.59394 0.23791 0.0
C1066 C 0.96761 0.57745 0.23915 0.0
C1067 C 0.94571 0.54977 0.25157 0.0
C1068 C 0.96141 0.53854 0.26282 0.0
C1069 C 0.04581 0.54106 0.36343 0.0
C1070 C 0.01027 0.51746 0.3711 0.0
C1071 C 0.05123 0.54527 0.34236 0.0
C1072 C 0.02127 0.52611 0.32859 0.0
C1073 C 0.9857 0.50325 0.3362 0.0
C1074 C 0.98027 0.49882 0.35724 0.0
C1075 C 0.02706 0.52884 0.30621 0.0
C1076 C 0.01077 0.53905 0.29438 0.0
C1077 C 0.04872 0.52156 0.29659 0.0
C1078 C 0.06552 0.50948 0.30816 0.0
C1079 C 0.04355 0.48014 0.3195 0.0
C1080 C 0.05964 0.46907 0.3305 0.0
C1081 C 0.09764 0.48699 0.33015 0.0
C1082 C 0.11963 0.51597 0.31874 0.0
C1083 C 0.10368 0.52717 0.30773 0.0
H1084 H 0.11004 0.47838 0.33867 0.0
H1085 H 0.9554 0.58612 0.23048 0.0
loop_
_geom_bond_atom_site_label_1
_geom_bond_atom_site_label_2
_geom_bond_distance
_geom_bond_site_symmetry_2
_ccdc_geom_bond_type
Sm0 C2 2.846 . S
Sm0 O20 2.543 . S
Sm0 O21 2.450 . S
Sm0 O22 2.681 . S
Sm0 O23 2.464 . S
Sm0 O24 2.396 . S
Sm0 O28 2.386 . S
Sm0 O31 2.408 1_455 S
Sm1 C11 2.846 . S
Sm1 O22 2.386 1_655 S
Sm1 O25 2.408 1_655 S
Sm1 O26 2.543 . S
Sm1 O27 2.450 . S
Sm1 O28 2.681 1_655 S
Sm1 O29 2.459 1_655 S
Sm1 O30 2.396 . S
C2 Sm0 2.846 . S
C2 C3 1.506 . S
C2 O20 1.261 . S
C2 O21 1.242 . S
C3 C2 1.506 . S
C3 C4 1.358 . S
C3 C8 1.382 . S
C4 C3 1.358 . S
C4 C5 1.385 . S
C4 H32 0.930 . S
C5 C4 1.385 . S
C5 C6 1.395 . S
C5 H33 0.929 . S
C6 C5 1.395 . S
C6 C7 1.335 . S
C7 C6 1.335 . S
C7 C8 1.398 . S
C7 H34 0.930 . S
C8 C3 1.382 . S
C8 C7 1.398 . S
C8 H35 0.929 . S
C9 O22 1.271 . S
C9 O23 1.251 . S
C10 O24 1.252 . S
C10 O25 1.272 . S
C11 Sm1 2.846 . S
C11 C12 1.506 . S
C11 O26 1.261 . S
C11 O27 1.242 . S
C12 C11 1.506 . S
C12 C13 1.358 . S
C12 C17 1.382 . S
C13 C12 1.358 . S
C13 C14 1.385 . S
C13 H36 0.930 . S
C14 C13 1.385 . S
C14 C15 1.395 . S
C14 H37 0.929 . S
C15 C14 1.395 . S
C15 C16 1.335 . S
C16 C15 1.335 . S
C16 C17 1.398 . S
C16 H38 0.930 . S
C17 C12 1.382 . S
C17 C16 1.398 . S
C17 H39 0.929 . S
C18 O28 1.271 . S
C18 O29 1.274 . S
C19 O30 1.252 . S
C19 O31 1.272 . S
O20 Sm0 2.543 . S
O20 C2 1.261 . S
O21 Sm0 2.450 . S
O21 C2 1.242 . S
O22 Sm0 2.681 . S
O22 Sm1 2.386 1_455 S
O22 C9 1.271 . S
O23 Sm0 2.464 . S
O23 C9 1.251 . S
O24 Sm0 2.396 . S
O24 C10 1.252 . S
O25 Sm1 2.408 1_455 S
O25 C10 1.272 . S
O26 Sm1 2.543 . S
O26 C11 1.261 . S
O27 Sm1 2.450 . S
O27 C11 1.242 . S
O28 Sm0 2.386 . S
O28 Sm1 2.681 1_455 S
O28 C18 1.271 . S
O29 Sm1 2.459 1_455 S
O29 C18 1.274 . S
O30 Sm1 2.396 . S
O30 C19 1.252 . S
O31 Sm0 2.408 1_655 S
O31 C19 1.272 . S
H32 C4 0.930 . S
H33 C5 0.929 . S
H34 C7 0.930 . S
H35 C8 0.929 . S
H36 C13 0.930 . S
H37 C14 0.929 . S
H38 C16 0.930 . S
H39 C17 0.929 . S
Sm40 C42 2.846 . S
Sm40 O60 2.543 . S
Sm40 O61 2.450 . S
Sm40 O62 2.681 1_565 S
Sm40 O63 2.464 . S
Sm40 O64 2.396 . S
Sm40 O68 2.386 1_565 S
Sm40 O71 2.408 1_565 S
Sm41 C51 2.846 . S
Sm41 O62 2.386 . S
Sm41 O65 2.408 1_545 S
Sm41 O66 2.543 . S
Sm41 O67 2.450 . S
Sm41 O68 2.681 . S
Sm41 O69 2.464 . S
Sm41 O70 2.396 . S
C42 Sm40 2.846 . S
C42 C43 1.506 . S
C42 O60 1.261 . S
C42 O61 1.242 . S
C43 C42 1.506 . S
C43 C44 1.358 . S
C43 C48 1.382 . S
C44 C43 1.358 . S
C44 C45 1.385 . S
C44 H72 0.930 . S
C45 C44 1.385 . S
C45 C46 1.395 . S
C45 H73 0.929 . S
C46 C45 1.395 . S
C46 C47 1.335 . S
C47 C46 1.335 . S
C47 C48 1.398 . S
C47 H74 0.930 . S
C48 C43 1.382 . S
C48 C47 1.398 . S
C48 H75 0.929 . S
C49 O62 1.271 . S
C49 O63 1.251 1_545 S
C50 O64 1.252 . S
C50 O65 1.272 . S
C51 Sm41 2.846 . S
C51 C52 1.506 . S
C51 O66 1.261 . S
C51 O67 1.242 . S
C52 C51 1.506 . S
C52 C53 1.358 . S
C52 C57 1.382 . S
C53 C52 1.358 . S
C53 C54 1.385 . S
C53 H76 0.930 . S
C54 C53 1.385 . S
C54 C55 1.395 . S
C54 H77 0.929 . S
C55 C54 1.395 . S
C55 C56 1.335 . S
C56 C55 1.335 . S
C56 C57 1.398 . S
C56 H78 0.930 . S
C57 C52 1.382 . S
C57 C56 1.398 . S
C57 H79 0.929 . S
C58 O68 1.271 . S
C58 O69 1.251 . S
C59 O70 1.252 . S
C59 O71 1.272 . S
O60 Sm40 2.543 . S
O60 C42 1.261 . S
O61 Sm40 2.450 . S
O61 C42 1.242 . S
O62 Sm40 2.681 1_545 S
O62 Sm41 2.386 . S
O62 C49 1.271 . S
O63 Sm40 2.464 . S
O63 C49 1.251 1_565 S
O64 Sm40 2.396 . S
O64 C50 1.252 . S
O65 Sm41 2.408 1_565 S
O65 C50 1.272 . S
O66 Sm41 2.543 . S
O66 C51 1.261 . S
O67 Sm41 2.450 . S
O67 C51 1.242 . S
O68 Sm40 2.386 1_545 S
O68 Sm41 2.681 . S
O68 C58 1.271 . S
O69 Sm41 2.464 . S
O69 C58 1.251 . S
O70 Sm41 2.396 . S
O70 C59 1.252 . S
O71 Sm40 2.408 1_545 S
O71 C59 1.272 . S
H72 C44 0.930 . S
H73 C45 0.929 . S
H74 C47 0.930 . S
H75 C48 0.929 . S
H76 C53 0.930 . S
H77 C54 0.929 . S
H78 C56 0.930 . S
H79 C57 0.929 . S
Sm80 C82 2.846 . S
Sm80 O100 2.543 . S
Sm80 O101 2.450 . S
Sm80 O102 2.681 . S
Sm80 O103 2.464 . S
Sm80 O104 2.396 . S
Sm80 O108 2.386 . S
Sm80 O111 2.408 . S
Sm81 C91 2.846 . S
Sm81 O102 2.386 . S
Sm81 O105 2.408 . S
Sm81 O106 2.543 . S
Sm81 O107 2.450 . S
Sm81 O108 2.681 . S
Sm81 O109 2.464 . S
Sm81 O110 2.396 . S
C82 Sm80 2.846 . S
C82 C83 1.506 . S
C82 O100 1.261 . S
C82 O101 1.242 . S
C83 C82 1.506 . S
C83 C84 1.358 . S
C83 C88 1.382 . S
C84 C83 1.358 . S
C84 C85 1.385 . S
C84 H112 0.930 . S
C85 C84 1.385 . S
C85 C86 1.395 . S
C85 H113 0.929 . S
C86 C85 1.395 . S
C86 C87 1.335 . S
C87 C86 1.335 . S
C87 C88 1.398 . S
C87 H114 0.930 . S
C88 C83 1.382 . S
C88 C87 1.398 . S
C88 H115 0.929 . S
C89 O102 1.271 . S
C89 O103 1.251 . S
C90 O104 1.252 . S
C90 O105 1.272 . S
C91 Sm81 2.846 . S
C91 C92 1.506 . S
C91 O106 1.261 . S
C91 O107 1.242 . S
C92 C91 1.506 . S
C92 C93 1.358 . S
C92 C97 1.382 . S
C93 C92 1.358 . S
C93 C94 1.385 . S
C93 H116 0.930 . S
C94 C93 1.385 . S
C94 C95 1.395 . S
C94 H117 0.929 . S
C95 C94 1.395 . S
C95 C96 1.335 . S
C96 C95 1.335 . S
C96 C97 1.398 . S
C96 H118 0.930 . S
C97 C92 1.382 . S
C97 C96 1.398 . S
C97 H119 0.929 . S
C98 O108 1.271 . S
C98 O109 1.251 . S
C99 O110 1.252 . S
C99 O111 1.272 . S
O100 Sm80 2.543 . S
O100 C82 1.261 . S
O101 Sm80 2.450 . S
O101 C82 1.242 . S
O102 Sm80 2.681 . S
O102 Sm81 2.386 . S
O102 C89 1.271 . S
O103 Sm80 2.464 . S
O103 C89 1.251 . S
O104 Sm80 2.396 . S
O104 C90 1.252 . S
O105 Sm81 2.408 . S
O105 C90 1.272 . S
O106 Sm81 2.543 . S
O106 C91 1.261 . S
O107 Sm81 2.450 . S
O107 C91 1.242 . S
O108 Sm80 2.386 . S
O108 Sm81 2.681 . S
O108 C98 1.271 . S
O109 Sm81 2.464 . S
O109 C98 1.251 . S
O110 Sm81 2.396 . S
O110 C99 1.252 . S
O111 Sm80 2.408 . S
O111 C99 1.272 . S
H112 C84 0.930 . S
H113 C85 0.929 . S
H114 C87 0.930 . S
H115 C88 0.929 . S
H116 C93 0.930 . S
H117 C94 0.929 . S
H118 C96 0.930 . S
H119 C97 0.929 . S
O120 Cd121 2.300 . S
O120 C127 1.275 . S
Cd121 O120 2.300 . S
Cd121 O129 2.381 . S
Cd121 O130 2.378 . S
O122 Cd123 2.385 . S
O122 C127 1.255 1_565 S
Cd123 O122 2.385 . S
Cd123 O124 2.317 . S
O124 Cd123 2.317 . S
O124 C125 1.232 . S
C125 O124 1.232 . S
C125 O126 1.218 . S
O126 C125 1.218 . S
C127 O120 1.275 . S
C127 O122 1.255 1_545 S
C128 O129 1.258 . S
C128 O130 1.256 . S
O129 Cd121 2.381 . S
O129 C128 1.258 . S
O130 Cd121 2.378 . S
O130 C128 1.256 . S
O131 Cd132 2.300 . S
O131 C138 1.275 . S
Cd132 O131 2.300 . S
Cd132 O140 2.381 . S
Cd132 O141 2.378 . S
O133 Cd134 2.385 . S
O133 C138 1.255 . S
Cd134 O133 2.385 . S
Cd134 O135 2.317 . S
O135 Cd134 2.317 . S
O135 C136 1.232 . S
C136 O135 1.232 . S
C136 O137 1.218 . S
O137 C136 1.218 . S
C138 O131 1.275 . S
C138 O133 1.255 . S
C139 O140 1.258 . S
C139 O141 1.256 . S
O140 Cd132 2.381 . S
O140 C139 1.258 . S
O141 Cd132 2.378 . S
O141 C139 1.256 . S
O142 Cd143 2.300 . S
O142 C149 1.275 . S
Cd143 O142 2.300 . S
Cd143 O151 2.381 . S
Cd143 O152 2.378 . S
O144 Cd145 2.385 1_455 S
O144 C149 1.255 . S
Cd145 O144 2.385 1_655 S
Cd145 O146 2.317 . S
O146 Cd145 2.317 . S
O146 C147 1.232 . S
C147 O146 1.232 . S
C147 O148 1.218 . S
O148 C147 1.218 . S
C149 O142 1.275 . S
C149 O144 1.255 . S
C150 O151 1.258 . S
C150 O152 1.256 . S
O151 Cd143 2.381 . S
O151 C150 1.258 . S
O152 Cd143 2.378 . S
O152 C150 1.256 . S
O153 Cd154 2.300 . S
O153 C160 1.275 1_455 S
Cd154 O153 2.300 . S
Cd154 O162 2.381 . S
Cd154 O163 2.378 . S
O155 Cd156 2.385 . S
O155 C160 1.255 . S
Cd156 O155 2.385 . S
Cd156 O157 2.317 . S
O157 Cd156 2.317 . S
O157 C158 1.232 . S
C158 O157 1.232 . S
C158 O159 1.218 . S
O159 C158 1.218 . S
C160 O153 1.275 1_655 S
C160 O155 1.255 . S
C161 O162 1.258 . S
C161 O163 1.256 . S
O162 Cd154 2.381 . S
O162 C161 1.258 . S
O163 Cd154 2.378 . S
O163 C161 1.256 . S
O164 Cd165 2.300 . S
O164 C171 1.275 1_565 S
Cd165 O164 2.300 . S
Cd165 O173 2.381 . S
Cd165 O174 2.378 . S
O166 Cd167 2.385 . S
O166 C171 1.255 . S
Cd167 O166 2.385 . S
Cd167 O168 2.317 . S
O168 Cd167 2.317 . S
O168 C169 1.232 . S
C169 O168 1.232 . S
C169 O170 1.218 . S
O170 C169 1.218 . S
C171 O164 1.275 1_545 S
C171 O166 1.255 . S
C172 O173 1.258 . S
C172 O174 1.256 . S
O173 Cd165 2.381 . S
O173 C172 1.258 . S
O174 Cd165 2.378 . S
O174 C172 1.256 . S
O175 Cd176 2.300 . S
O175 C182 1.275 . S
Cd176 O175 2.300 . S
Cd176 O184 2.381 . S
Cd176 O185 2.378 . S
O177 Cd178 2.385 . S
O177 C182 1.255 . S
Cd178 O177 2.385 . S
Cd178 O179 2.317 . S
O179 Cd178 2.317 . S
O179 C180 1.232 . S
C180 O179 1.232 . S
C180 O181 1.218 . S
O181 C180 1.218 . S
C182 O175 1.275 . S
C182 O177 1.255 . S
C183 O184 1.258 . S
C183 O185 1.256 . S
O184 Cd176 2.381 . S
O184 C183 1.258 . S
O185 Cd176 2.378 . S
O185 C183 1.256 . S
H186 C204 0.951 . S
H187 C206 0.951 . S
H188 C208 0.950 . S
H189 C209 0.950 . S
H190 C211 0.950 . S
H191 C214 0.950 . S
H192 C215 0.950 . S
H193 C217 0.950 . S
H194 C218 0.950 . S
H195 C219 0.951 . S
H196 C221 0.951 . S
H197 C223 0.950 . S
H198 C224 0.950 . S
H199 C226 0.950 . S
H200 C229 0.950 . S
H201 C230 0.950 . S
H202 C232 0.950 . S
H203 C233 0.950 . S
C204 H186 0.951 . S
C204 C205 1.366 . S
C204 C206 1.388 . S
C205 C204 1.366 . S
C205 C209 1.385 . S
C206 H187 0.951 . S
C206 C204 1.388 . S
C206 C207 1.366 . S
C207 C206 1.366 . S
C207 C208 1.414 . S
C207 C210 1.499 . S
C208 H188 0.950 . S
C208 C207 1.414 . S
C208 C209 1.374 . S
C209 H189 0.950 . S
C209 C205 1.385 . S
C209 C208 1.374 . S
C210 C207 1.499 . S
C210 C211 1.373 . S
C210 C212 1.389 . S
C211 H190 0.950 . S
C211 C210 1.373 . S
C211 C227 1.377 . S
C212 C210 1.389 . S
C212 C213 1.524 . S
C212 C226 1.377 . S
C213 C212 1.524 . S
C213 C214 1.397 . S
C213 C218 1.363 . S
C214 H191 0.950 . S
C214 C213 1.397 . S
C214 C215 1.334 . S
C215 H192 0.950 . S
C215 C214 1.334 . S
C215 C216 1.287 . S
C216 C215 1.287 . S
C216 C217 1.524 . S
C216 H235 0.913 . S
C217 H193 0.950 . S
C217 C216 1.524 . S
C217 C218 1.415 . S
C218 H194 0.950 . S
C218 C213 1.363 . S
C218 C217 1.415 . S
C219 H195 0.951 . S
C219 C220 1.366 . S
C219 C221 1.388 . S
C220 C219 1.366 . S
C220 C224 1.385 . S
C221 H196 0.951 . S
C221 C219 1.388 . S
C221 C222 1.366 . S
C222 C221 1.366 . S
C222 C223 1.414 . S
C222 C225 1.499 . S
C223 H197 0.950 . S
C223 C222 1.414 . S
C223 C224 1.374 . S
C224 H198 0.950 . S
C224 C220 1.385 . S
C224 C223 1.374 . S
C225 C222 1.499 . S
C225 C226 1.373 . S
C225 C227 1.389 . S
C226 H199 0.950 . S
C226 C212 1.377 . S
C226 C225 1.373 . S
C227 C211 1.377 . S
C227 C225 1.389 . S
C227 C228 1.524 . S
C228 C227 1.524 . S
C228 C229 1.397 . S
C228 C233 1.363 . S
C229 H200 0.950 . S
C229 C228 1.397 . S
C229 C230 1.334 . S
C230 H201 0.950 . S
C230 C229 1.334 . S
C230 C231 1.287 . S
C231 C230 1.287 . S
C231 C232 1.524 . S
C231 H234 0.999 . S
C232 H202 0.950 . S
C232 C231 1.524 . S
C232 C233 1.415 . S
C233 H203 0.950 . S
C233 C228 1.363 . S
C233 C232 1.415 . S
H234 C231 0.999 . S
H235 C216 0.913 . S
H236 C254 0.951 . S
H237 C256 0.951 . S
H238 C258 0.950 . S
H239 C259 0.950 . S
H240 C261 0.950 . S
H241 C264 0.950 . S
H242 C265 0.950 . S
H243 C267 0.950 . S
H244 C268 0.950 . S
H245 C269 0.951 . S
H246 C271 0.951 . S
H247 C273 0.950 . S
H248 C274 0.950 . S
H249 C276 0.950 . S
H250 C279 0.950 . S
H251 C280 0.950 . S
H252 C282 0.950 . S
H253 C283 0.950 . S
C254 H236 0.951 . S
C254 C255 1.366 . S
C254 C256 1.388 . S
C255 C254 1.366 . S
C255 C259 1.385 . S
C256 H237 0.951 . S
C256 C254 1.388 . S
C256 C257 1.366 . S
C257 C256 1.366 . S
C257 C258 1.414 . S
C257 C260 1.499 . S
C258 H238 0.950 . S
C258 C257 1.414 . S
C258 C259 1.374 . S
C259 H239 0.950 . S
C259 C255 1.385 . S
C259 C258 1.374 . S
C260 C257 1.499 . S
C260 C261 1.373 . S
C260 C262 1.389 . S
C261 H240 0.950 . S
C261 C260 1.373 . S
C261 C277 1.377 . S
C262 C260 1.389 . S
C262 C263 1.524 . S
C262 C276 1.377 . S
C263 C262 1.524 . S
C263 C264 1.397 . S
C263 C268 1.363 . S
C264 H241 0.950 . S
C264 C263 1.397 . S
C264 C265 1.334 . S
C265 H242 0.950 . S
C265 C264 1.334 . S
C265 C266 1.287 . S
C266 C265 1.287 . S
C266 C267 1.524 . S
C266 H285 0.913 . S
C267 H243 0.950 . S
C267 C266 1.524 . S
C267 C268 1.415 . S
C268 H244 0.950 . S
C268 C263 1.363 . S
C268 C267 1.415 . S
C269 H245 0.951 . S
C269 C270 1.366 . S
C269 C271 1.388 . S
C270 C269 1.366 . S
C270 C274 1.385 . S
C271 H246 0.951 . S
C271 C269 1.388 . S
C271 C272 1.366 . S
C272 C271 1.366 . S
C272 C273 1.414 . S
C272 C275 1.499 . S
C273 H247 0.950 . S
C273 C272 1.414 . S
C273 C274 1.374 . S
C274 H248 0.950 . S
C274 C270 1.385 . S
C274 C273 1.374 . S
C275 C272 1.499 . S
C275 C276 1.373 . S
C275 C277 1.389 . S
C276 H249 0.950 . S
C276 C262 1.377 . S
C276 C275 1.373 . S
C277 C261 1.377 . S
C277 C275 1.389 . S
C277 C278 1.524 . S
C278 C277 1.524 . S
C278 C279 1.397 . S
C278 C283 1.363 . S
C279 H250 0.950 . S
C279 C278 1.397 . S
C279 C280 1.334 . S
C280 H251 0.950 . S
C280 C279 1.334 . S
C280 C281 1.287 . S
C281 C280 1.287 . S
C281 C282 1.524 . S
C281 H284 0.999 . S
C282 H252 0.950 . S
C282 C281 1.524 . S
C282 C283 1.415 . S
C283 H253 0.950 . S
C283 C278 1.363 . S
C283 C282 1.415 . S
H284 C281 0.999 . S
H285 C266 0.913 . S
H286 C304 0.951 . S
H287 C306 0.951 . S
H288 C308 0.950 . S
H289 C309 0.950 . S
H290 C311 0.950 . S
H291 C314 0.950 . S
H292 C315 0.950 . S
H293 C317 0.950 . S
H294 C318 0.950 . S
H295 C319 0.951 . S
H296 C321 0.951 . S
H297 C323 0.950 . S
H298 C324 0.950 . S
H299 C326 0.950 . S
H300 C329 0.950 . S
H301 C330 0.950 . S
H302 C332 0.950 . S
H303 C333 0.950 . S
C304 H286 0.951 . S
C304 C305 1.366 . S
C304 C306 1.388 . S
C305 C304 1.366 . S
C305 C309 1.385 . S
C306 H287 0.951 . S
C306 C304 1.388 . S
C306 C307 1.366 . S
C307 C306 1.366 . S
C307 C308 1.414 . S
C307 C310 1.499 . S
C308 H288 0.950 . S
C308 C307 1.414 . S
C308 C309 1.374 . S
C309 H289 0.950 . S
C309 C305 1.385 . S
C309 C308 1.374 . S
C310 C307 1.499 . S
C310 C311 1.373 . S
C310 C312 1.389 . S
C311 H290 0.950 . S
C311 C310 1.373 . S
C311 C327 1.377 . S
C312 C310 1.389 . S
C312 C313 1.524 . S
C312 C326 1.377 . S
C313 C312 1.524 . S
C313 C314 1.397 . S
C313 C318 1.363 . S
C314 H291 0.950 . S
C314 C313 1.397 . S
C314 C315 1.334 . S
C315 H292 0.950 . S
C315 C314 1.334 . S
C315 C316 1.287 . S
C316 C315 1.287 . S
C316 C317 1.524 . S
C316 H335 0.913 . S
C317 H293 0.950 . S
C317 C316 1.524 . S
C317 C318 1.415 . S
C318 H294 0.950 . S
C318 C313 1.363 . S
C318 C317 1.415 . S
C319 H295 0.951 . S
C319 C320 1.366 . S
C319 C321 1.388 . S
C320 C319 1.366 . S
C320 C324 1.385 . S
C321 H296 0.951 . S
C321 C319 1.388 . S
C321 C322 1.366 . S
C322 C321 1.366 . S
C322 C323 1.414 . S
C322 C325 1.499 . S
C323 H297 0.950 . S
C323 C322 1.414 . S
C323 C324 1.374 . S
C324 H298 0.950 . S
C324 C320 1.385 . S
C324 C323 1.374 . S
C325 C322 1.499 . S
C325 C326 1.373 . S
C325 C327 1.389 . S
C326 H299 0.950 . S
C326 C312 1.377 . S
C326 C325 1.373 . S
C327 C311 1.377 . S
C327 C325 1.389 . S
C327 C328 1.524 . S
C328 C327 1.524 . S
C328 C329 1.397 . S
C328 C333 1.363 . S
C329 H300 0.950 . S
C329 C328 1.397 . S
C329 C330 1.334 . S
C330 H301 0.950 . S
C330 C329 1.334 . S
C330 C331 1.287 . S
C331 C330 1.287 . S
C331 C332 1.524 . S
C331 H334 0.999 . S
C332 H302 0.950 . S
C332 C331 1.524 . S
C332 C333 1.415 . S
C333 H303 0.950 . S
C333 C328 1.363 . S
C333 C332 1.415 . S
H334 C331 0.999 . S
H335 C316 0.913 . S
H336 C354 0.951 . S
H337 C356 0.951 . S
H338 C358 0.950 . S
H339 C359 0.950 . S
H340 C361 0.950 . S
H341 C364 0.950 . S
H342 C365 0.950 . S
H343 C367 0.950 . S
H344 C368 0.950 . S
H345 C369 0.951 . S
H346 C371 0.951 . S
H347 C373 0.950 . S
H348 C374 0.950 . S
H349 C376 0.950 . S
H350 C379 0.950 . S
H351 C380 0.950 . S
H352 C382 0.950 . S
H353 C383 0.950 . S
C354 H336 0.951 . S
C354 C355 1.366 . S
C354 C356 1.388 . S
C355 C354 1.366 . S
C355 C359 1.385 . S
C356 H337 0.951 . S
C356 C354 1.388 . S
C356 C357 1.366 . S
C357 C356 1.366 . S
C357 C358 1.414 . S
C357 C360 1.499 . S
C358 H338 0.950 . S
C358 C357 1.414 . S
C358 C359 1.374 . S
C359 H339 0.950 . S
C359 C355 1.385 . S
C359 C358 1.374 . S
C360 C357 1.499 . S
C360 C361 1.373 . S
C360 C362 1.389 . S
C361 H340 0.950 . S
C361 C360 1.373 . S
C361 C377 1.377 . S
C362 C360 1.389 . S
C362 C363 1.524 . S
C362 C376 1.377 . S
C363 C362 1.524 . S
C363 C364 1.397 . S
C363 C368 1.363 . S
C364 H341 0.950 . S
C364 C363 1.397 . S
C364 C365 1.334 . S
C365 H342 0.950 . S
C365 C364 1.334 . S
C365 C366 1.287 . S
C366 C365 1.287 . S
C366 C367 1.524 . S
C366 H385 0.913 . S
C367 H343 0.950 . S
C367 C366 1.524 . S
C367 C368 1.415 . S
C368 H344 0.950 . S
C368 C363 1.363 . S
C368 C367 1.415 . S
C369 H345 0.951 . S
C369 C370 1.366 . S
C369 C371 1.388 . S
C370 C369 1.366 . S
C370 C374 1.385 . S
C371 H346 0.951 . S
C371 C369 1.388 . S
C371 C372 1.366 . S
C372 C371 1.366 . S
C372 C373 1.414 . S
C372 C375 1.499 . S
C373 H347 0.950 . S
C373 C372 1.414 . S
C373 C374 1.374 . S
C374 H348 0.950 . S
C374 C370 1.385 . S
C374 C373 1.374 . S
C375 C372 1.499 . S
C375 C376 1.373 . S
C375 C377 1.389 . S
C376 H349 0.950 . S
C376 C362 1.377 . S
C376 C375 1.373 . S
C377 C361 1.377 . S
C377 C375 1.389 . S
C377 C378 1.524 . S
C378 C377 1.524 . S
C378 C379 1.397 . S
C378 C383 1.363 . S
C379 H350 0.950 . S
C379 C378 1.397 . S
C379 C380 1.334 . S
C380 H351 0.950 . S
C380 C379 1.334 . S
C380 C381 1.287 . S
C381 C380 1.287 . S
C381 C382 1.524 . S
C381 H384 0.999 . S
C382 H352 0.950 . S
C382 C381 1.524 . S
C382 C383 1.415 . S
C383 H353 0.950 . S
C383 C378 1.363 . S
C383 C382 1.415 . S
H384 C381 0.999 . S
H385 C366 0.913 . S
H386 C404 0.951 . S
H387 C406 0.951 . S
H388 C408 0.950 . S
H389 C409 0.950 . S
H390 C411 0.950 . S
H391 C414 0.950 . S
H392 C415 0.950 . S
H393 C417 0.950 . S
H394 C418 0.950 . S
H395 C419 0.951 . S
H396 C421 0.951 . S
H397 C423 0.950 . S
H398 C424 0.950 . S
H399 C426 0.950 . S
H400 C429 0.950 . S
H401 C430 0.950 . S
H402 C432 0.950 . S
H403 C433 0.950 . S
C404 H386 0.951 . S
C404 C405 1.366 . S
C404 C406 1.388 . S
C405 C404 1.366 . S
C405 C409 1.385 . S
C406 H387 0.951 . S
C406 C404 1.388 . S
C406 C407 1.366 . S
C407 C406 1.366 . S
C407 C408 1.414 . S
C407 C410 1.499 . S
C408 H388 0.950 . S
C408 C407 1.414 . S
C408 C409 1.374 . S
C409 H389 0.950 . S
C409 C405 1.385 . S
C409 C408 1.374 . S
C410 C407 1.499 . S
C410 C411 1.373 . S
C410 C412 1.389 . S
C411 H390 0.950 . S
C411 C410 1.373 . S
C411 C427 1.377 . S
C412 C410 1.389 . S
C412 C413 1.524 . S
C412 C426 1.377 . S
C413 C412 1.524 . S
C413 C414 1.397 . S
C413 C418 1.363 . S
C414 H391 0.950 . S
C414 C413 1.397 . S
C414 C415 1.334 . S
C415 H392 0.950 . S
C415 C414 1.334 . S
C415 C416 1.287 . S
C416 C415 1.287 . S
C416 C417 1.524 . S
C416 H435 0.913 . S
C417 H393 0.950 . S
C417 C416 1.524 . S
C417 C418 1.415 . S
C418 H394 0.950 . S
C418 C413 1.363 . S
C418 C417 1.415 . S
C419 H395 0.951 . S
C419 C420 1.366 . S
C419 C421 1.388 . S
C420 C419 1.366 . S
C420 C424 1.385 . S
C421 H396 0.951 . S
C421 C419 1.388 . S
C421 C422 1.366 . S
C422 C421 1.366 . S
C422 C423 1.414 . S
C422 C425 1.499 . S
C423 H397 0.950 . S
C423 C422 1.414 . S
C423 C424 1.374 . S
C424 H398 0.950 . S
C424 C420 1.385 . S
C424 C423 1.374 . S
C425 C422 1.499 . S
C425 C426 1.373 . S
C425 C427 1.389 . S
C426 H399 0.950 . S
C426 C412 1.377 . S
C426 C425 1.373 . S
C427 C411 1.377 . S
C427 C425 1.389 . S
C427 C428 1.524 . S
C428 C427 1.524 . S
C428 C429 1.397 . S
C428 C433 1.363 . S
C429 H400 0.950 . S
C429 C428 1.397 . S
C429 C430 1.334 . S
C430 H401 0.950 . S
C430 C429 1.334 . S
C430 C431 1.287 . S
C431 C430 1.287 . S
C431 C432 1.524 . S
C431 H434 0.999 . S
C432 H402 0.950 . S
C432 C431 1.524 . S
C432 C433 1.415 . S
C433 H403 0.950 . S
C433 C428 1.363 . S
C433 C432 1.415 . S
H434 C431 0.999 . S
H435 C416 0.913 . S
H436 C454 0.951 . S
H437 C456 0.951 . S
H438 C458 0.950 . S
H439 C459 0.950 . S
H440 C461 0.950 . S
H441 C464 0.950 . S
H442 C465 0.950 . S
H443 C467 0.950 . S
H444 C468 0.950 . S
H445 C469 0.951 . S
H446 C471 0.951 . S
H447 C473 0.950 . S
H448 C474 0.950 . S
H449 C476 0.950 . S
H450 C479 0.950 . S
H451 C480 0.950 . S
H452 C482 0.950 . S
H453 C483 0.950 . S
C454 H436 0.951 . S
C454 C455 1.366 . S
C454 C456 1.388 . S
C455 C454 1.366 . S
C455 C459 1.385 . S
C456 H437 0.951 . S
C456 C454 1.388 . S
C456 C457 1.366 . S
C457 C456 1.366 . S
C457 C458 1.414 . S
C457 C460 1.499 . S
C458 H438 0.950 . S
C458 C457 1.414 . S
C458 C459 1.374 . S
C459 H439 0.950 . S
C459 C455 1.385 . S
C459 C458 1.374 . S
C460 C457 1.499 . S
C460 C461 1.373 . S
C460 C462 1.389 . S
C461 H440 0.950 . S
C461 C460 1.373 . S
C461 C477 1.377 . S
C462 C460 1.389 . S
C462 C463 1.524 . S
C462 C476 1.377 . S
C463 C462 1.524 . S
C463 C464 1.397 . S
C463 C468 1.363 . S
C464 H441 0.950 . S
C464 C463 1.397 . S
C464 C465 1.334 . S
C465 H442 0.950 . S
C465 C464 1.334 . S
C465 C466 1.287 . S
C466 C465 1.287 . S
C466 C467 1.524 . S
C466 H485 0.913 . S
C467 H443 0.950 . S
C467 C466 1.524 . S
C467 C468 1.415 . S
C468 H444 0.950 . S
C468 C463 1.363 . S
C468 C467 1.415 . S
C469 H445 0.951 . S
C469 C470 1.366 . S
C469 C471 1.388 . S
C470 C469 1.366 . S
C470 C474 1.385 . S
C471 H446 0.951 . S
C471 C469 1.388 . S
C471 C472 1.366 . S
C472 C471 1.366 . S
C472 C473 1.414 . S
C472 C475 1.499 . S
C473 H447 0.950 . S
C473 C472 1.414 . S
C473 C474 1.374 . S
C474 H448 0.950 . S
C474 C470 1.385 . S
C474 C473 1.374 . S
C475 C472 1.499 . S
C475 C476 1.373 . S
C475 C477 1.389 . S
C476 H449 0.950 . S
C476 C462 1.377 . S
C476 C475 1.373 . S
C477 C461 1.377 . S
C477 C475 1.389 . S
C477 C478 1.524 . S
C478 C477 1.524 . S
C478 C479 1.397 . S
C478 C483 1.363 . S
C479 H450 0.950 . S
C479 C478 1.397 . S
C479 C480 1.334 . S
C480 H451 0.950 . S
C480 C479 1.334 . S
C480 C481 1.287 . S
C481 C480 1.287 . S
C481 C482 1.524 . S
C481 H484 0.999 . S
C482 H452 0.950 . S
C482 C481 1.524 . S
C482 C483 1.415 . S
C483 H453 0.950 . S
C483 C478 1.363 . S
C483 C482 1.415 . S
H484 C481 0.999 . S
H485 C466 0.913 . S
H486 C504 0.951 . S
H487 C506 0.951 . S
H488 C508 0.950 . S
H489 C509 0.950 . S
H490 C511 0.950 . S
H491 C514 0.950 . S
H492 C515 0.950 . S
H493 C517 0.950 . S
H494 C518 0.950 . S
H495 C519 0.951 . S
H496 C521 0.951 . S
H497 C523 0.950 . S
H498 C524 0.950 . S
H499 C526 0.950 . S
H500 C529 0.950 . S
H501 C530 0.950 . S
H502 C532 0.950 . S
H503 C533 0.950 . S
C504 H486 0.951 . S
C504 C505 1.366 . S
C504 C506 1.388 . S
C505 C504 1.366 . S
C505 C509 1.385 . S
C506 H487 0.951 . S
C506 C504 1.388 . S
C506 C507 1.366 . S
C507 C506 1.366 . S
C507 C508 1.414 . S
C507 C510 1.499 . S
C508 H488 0.950 . S
C508 C507 1.414 . S
C508 C509 1.374 . S
C509 H489 0.950 . S
C509 C505 1.385 . S
C509 C508 1.374 . S
C510 C507 1.499 . S
C510 C511 1.373 . S
C510 C512 1.389 . S
C511 H490 0.950 . S
C511 C510 1.373 . S
C511 C527 1.377 . S
C512 C510 1.389 . S
C512 C513 1.524 . S
C512 C526 1.377 . S
C513 C512 1.524 . S
C513 C514 1.397 . S
C513 C518 1.363 . S
C514 H491 0.950 . S
C514 C513 1.397 . S
C514 C515 1.334 . S
C515 H492 0.950 . S
C515 C514 1.334 . S
C515 C516 1.287 . S
C516 C515 1.287 . S
C516 C517 1.524 . S
C516 H535 0.913 . S
C517 H493 0.950 . S
C517 C516 1.524 . S
C517 C518 1.415 . S
C518 H494 0.950 . S
C518 C513 1.363 . S
C518 C517 1.415 . S
C519 H495 0.951 . S
C519 C520 1.366 . S
C519 C521 1.388 . S
C520 C519 1.366 . S
C520 C524 1.385 . S
C521 H496 0.951 . S
C521 C519 1.388 . S
C521 C522 1.366 . S
C522 C521 1.366 . S
C522 C523 1.414 . S
C522 C525 1.499 . S
C523 H497 0.950 . S
C523 C522 1.414 . S
C523 C524 1.374 . S
C524 H498 0.950 . S
C524 C520 1.385 . S
C524 C523 1.374 . S
C525 C522 1.499 . S
C525 C526 1.373 . S
C525 C527 1.389 . S
C526 H499 0.950 . S
C526 C512 1.377 . S
C526 C525 1.373 . S
C527 C511 1.377 . S
C527 C525 1.389 . S
C527 C528 1.524 . S
C528 C527 1.524 . S
C528 C529 1.397 . S
C528 C533 1.363 . S
C529 H500 0.950 . S
C529 C528 1.397 . S
C529 C530 1.334 . S
C530 H501 0.950 . S
C530 C529 1.334 . S
C530 C531 1.287 . S
C531 C530 1.287 . S
C531 C532 1.524 . S
C531 H534 0.999 . S
C532 H502 0.950 . S
C532 C531 1.524 . S
C532 C533 1.415 . S
C533 H503 0.950 . S
C533 C528 1.363 . S
C533 C532 1.415 . S
H534 C531 0.999 . S
H535 C516 0.913 . S
H536 C554 0.951 . S
H537 C556 0.951 . S
H538 C558 0.950 . S
H539 C559 0.950 . S
H540 C561 0.950 . S
H541 C564 0.950 . S
H542 C565 0.950 . S
H543 C567 0.950 . S
H544 C568 0.950 . S
H545 C569 0.951 . S
H546 C571 0.951 . S
H547 C573 0.950 . S
H548 C574 0.950 . S
H549 C576 0.950 . S
H550 C579 0.950 . S
H551 C580 0.950 . S
H552 C582 0.950 . S
H553 C583 0.950 . S
C554 H536 0.951 . S
C554 C555 1.366 . S
C554 C556 1.388 . S
C555 C554 1.366 . S
C555 C559 1.385 . S
C556 H537 0.951 . S
C556 C554 1.388 . S
C556 C557 1.366 . S
C557 C556 1.366 . S
C557 C558 1.414 . S
C557 C560 1.499 . S
C558 H538 0.950 . S
C558 C557 1.414 . S
C558 C559 1.374 . S
C559 H539 0.950 . S
C559 C555 1.385 . S
C559 C558 1.374 . S
C560 C557 1.499 . S
C560 C561 1.373 . S
C560 C562 1.389 . S
C561 H540 0.950 . S
C561 C560 1.373 . S
C561 C577 1.377 . S
C562 C560 1.389 . S
C562 C563 1.524 . S
C562 C576 1.377 . S
C563 C562 1.524 . S
C563 C564 1.397 . S
C563 C568 1.363 . S
C564 H541 0.950 . S
C564 C563 1.397 . S
C564 C565 1.334 . S
C565 H542 0.950 . S
C565 C564 1.334 . S
C565 C566 1.287 . S
C566 C565 1.287 . S
C566 C567 1.524 . S
C566 H585 0.913 . S
C567 H543 0.950 . S
C567 C566 1.524 . S
C567 C568 1.415 . S
C568 H544 0.950 . S
C568 C563 1.363 . S
C568 C567 1.415 . S
C569 H545 0.951 . S
C569 C570 1.366 . S
C569 C571 1.388 . S
C570 C569 1.366 . S
C570 C574 1.385 . S
C571 H546 0.951 . S
C571 C569 1.388 . S
C571 C572 1.366 . S
C572 C571 1.366 . S
C572 C573 1.414 . S
C572 C575 1.499 . S
C573 H547 0.950 . S
C573 C572 1.414 . S
C573 C574 1.374 . S
C574 H548 0.950 . S
C574 C570 1.385 . S
C574 C573 1.374 . S
C575 C572 1.499 . S
C575 C576 1.373 . S
C575 C577 1.389 . S
C576 H549 0.950 . S
C576 C562 1.377 . S
C576 C575 1.373 . S
C577 C561 1.377 . S
C577 C575 1.389 . S
C577 C578 1.524 . S
C578 C577 1.524 . S
C578 C579 1.397 . S
C578 C583 1.363 . S
C579 H550 0.950 . S
C579 C578 1.397 . S
C579 C580 1.334 . S
C580 H551 0.950 . S
C580 C579 1.334 . S
C580 C581 1.287 . S
C581 C580 1.287 . S
C581 C582 1.524 . S
C581 H584 0.999 . S
C582 H552 0.950 . S
C582 C581 1.524 . S
C582 C583 1.415 . S
C583 H553 0.950 . S
C583 C578 1.363 . S
C583 C582 1.415 . S
H584 C581 0.999 . S
H585 C566 0.913 . S
H586 C604 0.951 . S
H587 C606 0.951 . S
H588 C608 0.950 . S
H589 C609 0.950 . S
H590 C611 0.950 . S
H591 C614 0.950 . S
H592 C615 0.950 . S
H593 C617 0.950 . S
H594 C618 0.950 . S
H595 C619 0.951 . S
H596 C621 0.951 . S
H597 C623 0.950 . S
H598 C624 0.950 . S
H599 C626 0.950 . S
H600 C629 0.950 . S
H601 C630 0.950 . S
H602 C632 0.950 . S
H603 C633 0.950 . S
C604 H586 0.951 . S
C604 C605 1.366 . S
C604 C606 1.388 . S
C605 C604 1.366 . S
C605 C609 1.385 . S
C606 H587 0.951 . S
C606 C604 1.388 . S
C606 C607 1.366 . S
C607 C606 1.366 . S
C607 C608 1.414 . S
C607 C610 1.499 . S
C608 H588 0.950 . S
C608 C607 1.414 . S
C608 C609 1.374 . S
C609 H589 0.950 . S
C609 C605 1.385 . S
C609 C608 1.374 . S
C610 C607 1.499 . S
C610 C611 1.373 . S
C610 C612 1.389 . S
C611 H590 0.950 . S
C611 C610 1.373 . S
C611 C627 1.377 . S
C612 C610 1.389 . S
C612 C613 1.524 . S
C612 C626 1.377 . S
C613 C612 1.524 . S
C613 C614 1.397 . S
C613 C618 1.363 . S
C614 H591 0.950 . S
C614 C613 1.397 . S
C614 C615 1.334 . S
C615 H592 0.950 . S
C615 C614 1.334 . S
C615 C616 1.287 . S
C616 C615 1.287 . S
C616 C617 1.524 . S
C616 H635 0.913 . S
C617 H593 0.950 . S
C617 C616 1.524 . S
C617 C618 1.415 . S
C618 H594 0.950 . S
C618 C613 1.363 . S
C618 C617 1.415 . S
C619 H595 0.951 . S
C619 C620 1.366 . S
C619 C621 1.388 . S
C620 C619 1.366 . S
C620 C624 1.385 . S
C621 H596 0.951 . S
C621 C619 1.388 . S
C621 C622 1.366 . S
C622 C621 1.366 . S
C622 C623 1.414 . S
C622 C625 1.499 . S
C623 H597 0.950 . S
C623 C622 1.414 . S
C623 C624 1.374 . S
C624 H598 0.950 . S
C624 C620 1.385 . S
C624 C623 1.374 . S
C625 C622 1.499 . S
C625 C626 1.373 . S
C625 C627 1.389 . S
C626 H599 0.950 . S
C626 C612 1.377 . S
C626 C625 1.373 . S
C627 C611 1.377 . S
C627 C625 1.389 . S
C627 C628 1.524 . S
C628 C627 1.524 . S
C628 C629 1.397 . S
C628 C633 1.363 . S
C629 H600 0.950 . S
C629 C628 1.397 . S
C629 C630 1.334 . S
C630 H601 0.950 . S
C630 C629 1.334 . S
C630 C631 1.287 . S
C631 C630 1.287 . S
C631 C632 1.524 . S
C631 H634 0.999 . S
C632 H602 0.950 . S
C632 C631 1.524 . S
C632 C633 1.415 . S
C633 H603 0.950 . S
C633 C628 1.363 . S
C633 C632 1.415 . S
H634 C631 0.999 . S
H635 C616 0.913 . S
H636 C654 0.951 . S
H637 C656 0.951 . S
H638 C658 0.950 . S
H639 C659 0.950 . S
H640 C661 0.950 . S
H641 C664 0.950 . S
H642 C665 0.950 . S
H643 C667 0.950 . S
H644 C668 0.950 . S
H645 C669 0.951 . S
H646 C671 0.951 . S
H647 C673 0.950 . S
H648 C674 0.950 . S
H649 C676 0.950 . S
H650 C679 0.950 . S
H651 C680 0.950 . S
H652 C682 0.950 . S
H653 C683 0.950 . S
C654 H636 0.951 . S
C654 C655 1.366 . S
C654 C656 1.388 . S
C655 C654 1.366 . S
C655 C659 1.385 . S
C656 H637 0.951 . S
C656 C654 1.388 . S
C656 C657 1.366 . S
C657 C656 1.366 . S
C657 C658 1.414 . S
C657 C660 1.499 . S
C658 H638 0.950 . S
C658 C657 1.414 . S
C658 C659 1.374 . S
C659 H639 0.950 . S
C659 C655 1.385 . S
C659 C658 1.374 . S
C660 C657 1.499 . S
C660 C661 1.373 . S
C660 C662 1.389 . S
C661 H640 0.950 . S
C661 C660 1.373 . S
C661 C677 1.377 . S
C662 C660 1.389 . S
C662 C663 1.524 . S
C662 C676 1.377 . S
C663 C662 1.524 . S
C663 C664 1.397 . S
C663 C668 1.363 . S
C664 H641 0.950 . S
C664 C663 1.397 . S
C664 C665 1.334 . S
C665 H642 0.950 . S
C665 C664 1.334 . S
C665 C666 1.287 . S
C666 C665 1.287 . S
C666 C667 1.524 . S
C666 H685 0.913 . S
C667 H643 0.950 . S
C667 C666 1.524 . S
C667 C668 1.415 . S
C668 H644 0.950 . S
C668 C663 1.363 . S
C668 C667 1.415 . S
C669 H645 0.951 . S
C669 C670 1.366 . S
C669 C671 1.388 . S
C670 C669 1.366 . S
C670 C674 1.385 . S
C671 H646 0.951 . S
C671 C669 1.388 . S
C671 C672 1.366 . S
C672 C671 1.366 . S
C672 C673 1.414 . S
C672 C675 1.499 . S
C673 H647 0.950 . S
C673 C672 1.414 . S
C673 C674 1.374 . S
C674 H648 0.950 . S
C674 C670 1.385 . S
C674 C673 1.374 . S
C675 C672 1.499 . S
C675 C676 1.373 . S
C675 C677 1.389 . S
C676 H649 0.950 . S
C676 C662 1.377 . S
C676 C675 1.373 . S
C677 C661 1.377 . S
C677 C675 1.389 . S
C677 C678 1.524 . S
C678 C677 1.524 . S
C678 C679 1.397 . S
C678 C683 1.363 . S
C679 H650 0.950 . S
C679 C678 1.397 . S
C679 C680 1.334 . S
C680 H651 0.950 . S
C680 C679 1.334 . S
C680 C681 1.287 . S
C681 C680 1.287 . S
C681 C682 1.524 . S
C681 H684 0.999 . S
C682 H652 0.950 . S
C682 C681 1.524 . S
C682 C683 1.415 . S
C683 H653 0.950 . S
C683 C678 1.363 . S
C683 C682 1.415 . S
H684 C681 0.999 . S
H685 C666 0.913 . S
H686 C704 0.951 . S
H687 C706 0.951 . S
H688 C708 0.950 . S
H689 C709 0.950 . S
H690 C711 0.950 . S
H691 C714 0.950 . S
H692 C715 0.950 . S
H693 C717 0.950 . S
H694 C718 0.950 . S
H695 C719 0.951 . S
H696 C721 0.951 . S
H697 C723 0.950 . S
H698 C724 0.950 . S
H699 C726 0.950 . S
H700 C729 0.950 . S
H701 C730 0.950 . S
H702 C732 0.950 . S
H703 C733 0.950 . S
C704 H686 0.951 . S
C704 C705 1.366 . S
C704 C706 1.388 . S
C705 C704 1.366 . S
C705 C709 1.385 . S
C706 H687 0.951 . S
C706 C704 1.388 . S
C706 C707 1.366 . S
C707 C706 1.366 . S
C707 C708 1.414 . S
C707 C710 1.499 . S
C708 H688 0.950 . S
C708 C707 1.414 . S
C708 C709 1.374 . S
C709 H689 0.950 . S
C709 C705 1.385 . S
C709 C708 1.374 . S
C710 C707 1.499 . S
C710 C711 1.373 . S
C710 C712 1.389 . S
C711 H690 0.950 . S
C711 C710 1.373 . S
C711 C727 1.377 . S
C712 C710 1.389 . S
C712 C713 1.524 . S
C712 C726 1.377 . S
C713 C712 1.524 . S
C713 C714 1.397 . S
C713 C718 1.363 . S
C714 H691 0.950 . S
C714 C713 1.397 . S
C714 C715 1.334 . S
C715 H692 0.950 . S
C715 C714 1.334 . S
C715 C716 1.287 . S
C716 C715 1.287 . S
C716 C717 1.524 . S
C716 H735 0.913 . S
C717 H693 0.950 . S
C717 C716 1.524 . S
C717 C718 1.415 . S
C718 H694 0.950 . S
C718 C713 1.363 . S
C718 C717 1.415 . S
C719 H695 0.951 . S
C719 C720 1.366 . S
C719 C721 1.388 . S
C720 C719 1.366 . S
C720 C724 1.385 . S
C721 H696 0.951 . S
C721 C719 1.388 . S
C721 C722 1.366 . S
C722 C721 1.366 . S
C722 C723 1.414 . S
C722 C725 1.499 . S
C723 H697 0.950 . S
C723 C722 1.414 . S
C723 C724 1.374 . S
C724 H698 0.950 . S
C724 C720 1.385 . S
C724 C723 1.374 . S
C725 C722 1.499 . S
C725 C726 1.373 . S
C725 C727 1.389 . S
C726 H699 0.950 . S
C726 C712 1.377 . S
C726 C725 1.373 . S
C727 C711 1.377 . S
C727 C725 1.389 . S
C727 C728 1.524 . S
C728 C727 1.524 . S
C728 C729 1.397 . S
C728 C733 1.363 . S
C729 H700 0.950 . S
C729 C728 1.397 . S
C729 C730 1.334 . S
C730 H701 0.950 . S
C730 C729 1.334 . S
C730 C731 1.287 . S
C731 C730 1.287 . S
C731 C732 1.524 . S
C731 H734 0.999 . S
C732 H702 0.950 . S
C732 C731 1.524 . S
C732 C733 1.415 . S
C733 H703 0.950 . S
C733 C728 1.363 . S
C733 C732 1.415 . S
H734 C731 0.999 . S
H735 C716 0.913 . S
H736 C754 0.951 . S
H737 C756 0.951 . S
H738 C758 0.950 . S
H739 C759 0.950 . S
H740 C761 0.950 . S
H741 C764 0.950 . S
H742 C765 0.950 . S
H743 C767 0.950 . S
H744 C768 0.950 . S
H745 C769 0.951 . S
H746 C771 0.951 . S
H747 C773 0.950 . S
H748 C774 0.950 . S
H749 C776 0.950 . S
H750 C779 0.950 . S
H751 C780 0.950 . S
H752 C782 0.950 . S
H753 C783 0.950 . S
C754 H736 0.951 . S
C754 C755 1.366 . S
C754 C756 1.388 . S
C755 C754 1.366 . S
C755 C759 1.385 . S
C756 H737 0.951 . S
C756 C754 1.388 . S
C756 C757 1.366 . S
C757 C756 1.366 . S
C757 C758 1.414 . S
C757 C760 1.499 . S
C758 H738 0.950 . S
C758 C757 1.414 . S
C758 C759 1.374 . S
C759 H739 0.950 . S
C759 C755 1.385 . S
C759 C758 1.374 . S
C760 C757 1.499 . S
C760 C761 1.373 . S
C760 C762 1.389 . S
C761 H740 0.950 . S
C761 C760 1.373 . S
C761 C777 1.377 . S
C762 C760 1.389 . S
C762 C763 1.524 . S
C762 C776 1.377 . S
C763 C762 1.524 . S
C763 C764 1.397 . S
C763 C768 1.363 . S
C764 H741 0.950 . S
C764 C763 1.397 . S
C764 C765 1.334 . S
C765 H742 0.950 . S
C765 C764 1.334 . S
C765 C766 1.287 . S
C766 C765 1.287 . S
C766 C767 1.524 . S
C766 H785 0.913 . S
C767 H743 0.950 . S
C767 C766 1.524 . S
C767 C768 1.415 . S
C768 H744 0.950 . S
C768 C763 1.363 . S
C768 C767 1.415 . S
C769 H745 0.951 . S
C769 C770 1.366 . S
C769 C771 1.388 . S
C770 C769 1.366 . S
C770 C774 1.385 . S
C771 H746 0.951 . S
C771 C769 1.388 . S
C771 C772 1.366 . S
C772 C771 1.366 . S
C772 C773 1.414 . S
C772 C775 1.499 . S
C773 H747 0.950 . S
C773 C772 1.414 . S
C773 C774 1.374 . S
C774 H748 0.950 . S
C774 C770 1.385 . S
C774 C773 1.374 . S
C775 C772 1.499 . S
C775 C776 1.373 . S
C775 C777 1.389 . S
C776 H749 0.950 . S
C776 C762 1.377 . S
C776 C775 1.373 . S
C777 C761 1.377 . S
C777 C775 1.389 . S
C777 C778 1.524 . S
C778 C777 1.524 . S
C778 C779 1.397 . S
C778 C783 1.363 . S
C779 H750 0.950 . S
C779 C778 1.397 . S
C779 C780 1.334 . S
C780 H751 0.950 . S
C780 C779 1.334 . S
C780 C781 1.287 . S
C781 C780 1.287 . S
C781 C782 1.524 . S
C781 H784 0.999 . S
C782 H752 0.950 . S
C782 C781 1.524 . S
C782 C783 1.415 . S
C783 H753 0.950 . S
C783 C778 1.363 . S
C783 C782 1.415 . S
H784 C781 0.999 . S
H785 C766 0.913 . S
H786 C804 0.951 . S
H787 C806 0.951 . S
H788 C808 0.950 . S
H789 C809 0.950 . S
H790 C811 0.950 . S
H791 C814 0.950 . S
H792 C815 0.950 . S
H793 C817 0.950 . S
H794 C818 0.950 . S
H795 C819 0.951 . S
H796 C821 0.951 . S
H797 C823 0.950 . S
H798 C824 0.950 . S
H799 C826 0.924 1_656 S
H800 C829 0.950 . S
H801 C830 0.950 . S
H802 C832 0.950 . S
H803 C833 0.950 . S
C804 H786 0.951 . S
C804 C805 1.366 1_655 S
C804 C806 1.388 . S
C805 C804 1.366 1_455 S
C805 C809 1.385 . S
C806 H787 0.951 . S
C806 C804 1.388 . S
C806 C807 1.366 1_655 S
C807 C806 1.366 1_455 S
C807 C808 1.414 . S
C807 C810 1.499 . S
C808 H788 0.950 . S
C808 C807 1.414 . S
C808 C809 1.374 . S
C809 H789 0.950 . S
C809 C805 1.385 . S
C809 C808 1.374 . S
C810 C807 1.499 . S
C810 C811 1.373 . S
C810 C812 1.389 . S
C811 H790 0.950 . S
C811 C810 1.373 . S
C811 C827 1.377 . S
C812 C810 1.389 . S
C812 C813 1.524 1_455 S
C812 C826 1.377 . S
C813 C812 1.524 1_655 S
C813 C814 1.397 1_655 S
C813 C818 1.363 . S
C814 H791 0.950 . S
C814 C813 1.397 1_455 S
C814 C815 1.334 . S
C815 H792 0.950 . S
C815 C814 1.334 . S
C815 C816 1.287 1_455 S
C816 C815 1.287 1_655 S
C816 C817 1.524 . S
C816 H835 0.913 . S
C817 H793 0.950 . S
C817 C816 1.524 . S
C817 C818 1.415 . S
C818 H794 0.950 . S
C818 C813 1.363 . S
C818 C817 1.415 . S
C819 H795 0.951 . S
C819 C820 1.366 . S
C819 C821 1.388 . S
C820 C819 1.366 . S
C820 C824 1.385 1_455 S
C821 H796 0.951 . S
C821 C819 1.388 . S
C821 C822 1.366 . S
C822 C821 1.366 . S
C822 C823 1.414 1_455 S
C822 C825 1.544 . S
C823 H797 0.950 . S
C823 C822 1.414 1_655 S
C823 C824 1.374 . S
C824 H798 0.950 . S
C824 C820 1.385 1_655 S
C824 C823 1.374 . S
C825 C822 1.544 . S
C825 C826 1.354 1_556 S
C825 C827 1.364 1_556 S
C826 H799 0.924 1_454 S
C826 C812 1.377 . S
C826 C825 1.354 1_554 S
C827 C811 1.377 . S
C827 C825 1.364 1_554 S
C827 C828 1.524 . S
C828 C827 1.524 . S
C828 C829 1.397 1_554 S
C828 C833 1.363 . S
C829 H800 0.950 . S
C829 C828 1.397 1_556 S
C829 C830 1.334 . S
C830 H801 0.950 . S
C830 C829 1.334 . S
C830 C831 1.287 . S
C831 C830 1.287 . S
C831 C832 1.524 1_556 S
C831 H834 0.999 . S
C832 H802 0.950 . S
C832 C831 1.524 1_554 S
C832 C833 1.415 . S
C833 H803 0.950 . S
C833 C828 1.363 . S
C833 C832 1.415 . S
H834 C831 0.999 . S
H835 C816 0.913 . S
H836 C854 0.951 . S
H837 C856 0.951 . S
H838 C858 0.950 . S
H839 C859 0.950 . S
H840 C861 0.950 . S
H841 C864 0.950 . S
H842 C865 0.950 . S
H843 C867 0.950 . S
H844 C868 0.950 . S
H845 C869 0.951 . S
H846 C871 0.951 . S
H847 C873 0.950 . S
H848 C874 0.950 . S
H849 C876 0.950 1_565 S
H850 C879 0.950 1_565 S
H851 C880 0.950 . S
H852 C882 0.950 . S
H853 C883 0.950 . S
C854 H836 0.951 . S
C854 C855 1.366 1_565 S
C854 C856 1.388 . S
C855 C854 1.366 1_545 S
C855 C859 1.385 . S
C856 H837 0.951 . S
C856 C854 1.388 . S
C856 C857 1.366 1_565 S
C857 C856 1.366 1_545 S
C857 C858 1.414 . S
C857 C860 1.499 . S
C858 H838 0.950 . S
C858 C857 1.414 . S
C858 C859 1.374 . S
C859 H839 0.950 . S
C859 C855 1.385 . S
C859 C858 1.374 . S
C860 C857 1.499 . S
C860 C861 1.373 . S
C860 C862 1.389 . S
C861 H840 0.950 . S
C861 C860 1.373 . S
C861 C877 1.377 . S
C862 C860 1.389 . S
C862 C863 1.524 1_545 S
C862 C876 1.377 . S
C863 C862 1.524 1_565 S
C863 C864 1.397 1_565 S
C863 C868 1.363 . S
C864 H841 0.950 . S
C864 C863 1.397 1_545 S
C864 C865 1.334 . S
C865 H842 0.950 . S
C865 C864 1.334 . S
C865 C866 1.287 1_545 S
C866 C865 1.287 1_565 S
C866 C867 1.524 . S
C866 H885 0.913 . S
C867 H843 0.950 . S
C867 C866 1.524 . S
C867 C868 1.415 . S
C868 H844 0.950 . S
C868 C863 1.363 . S
C868 C867 1.415 . S
C869 H845 0.951 . S
C869 C870 1.366 . S
C869 C871 1.388 . S
C870 C869 1.366 . S
C870 C874 1.385 1_545 S
C871 H846 0.951 . S
C871 C869 1.388 . S
C871 C872 1.366 . S
C872 C871 1.366 . S
C872 C873 1.414 1_545 S
C872 C875 1.499 . S
C873 H847 0.950 . S
C873 C872 1.414 1_565 S
C873 C874 1.374 . S
C874 H848 0.950 . S
C874 C870 1.385 1_565 S
C874 C873 1.374 . S
C875 C872 1.499 . S
C875 C876 1.373 . S
C875 C877 1.389 . S
C876 H849 0.950 1_545 S
C876 C862 1.377 . S
C876 C875 1.373 . S
C877 C861 1.377 . S
C877 C875 1.389 . S
C877 C878 1.524 . S
C878 C877 1.524 . S
C878 C879 1.397 . S
C878 C883 1.363 . S
C879 H850 0.950 1_545 S
C879 C878 1.397 . S
C879 C880 1.334 . S
C880 H851 0.950 . S
C880 C879 1.334 . S
C880 C881 1.287 . S
C881 C880 1.287 . S
C881 C882 1.524 . S
C881 H884 0.999 . S
C882 H852 0.950 . S
C882 C881 1.524 . S
C882 C883 1.415 . S
C883 H853 0.950 . S
C883 C878 1.363 . S
C883 C882 1.415 . S
H884 C881 0.999 . S
H885 C866 0.913 . S
H886 C904 0.951 . S
H887 C906 0.951 . S
H888 C908 0.950 . S
H889 C909 0.950 . S
H890 C911 0.950 . S
H891 C914 0.950 . S
H892 C915 0.950 . S
H893 C917 0.950 . S
H894 C918 0.950 . S
H895 C919 0.951 . S
H896 C921 0.951 . S
H897 C923 0.950 . S
H898 C924 0.950 . S
H899 C926 0.950 . S
H900 C929 0.950 . S
H901 C930 0.950 . S
H902 C932 0.950 . S
H903 C933 0.950 . S
C904 H886 0.951 . S
C904 C905 1.366 . S
C904 C906 1.388 . S
C905 C904 1.366 . S
C905 C909 1.385 . S
C906 H887 0.951 . S
C906 C904 1.388 . S
C906 C907 1.366 . S
C907 C906 1.366 . S
C907 C908 1.414 . S
C907 C910 1.499 . S
C908 H888 0.950 . S
C908 C907 1.414 . S
C908 C909 1.374 . S
C909 H889 0.950 . S
C909 C905 1.385 . S
C909 C908 1.374 . S
C910 C907 1.499 . S
C910 C911 1.373 . S
C910 C912 1.389 . S
C911 H890 0.950 . S
C911 C910 1.373 . S
C911 C927 1.377 . S
C912 C910 1.389 . S
C912 C913 1.524 . S
C912 C926 1.377 . S
C913 C912 1.524 . S
C913 C914 1.397 . S
C913 C918 1.363 . S
C914 H891 0.950 . S
C914 C913 1.397 . S
C914 C915 1.334 . S
C915 H892 0.950 . S
C915 C914 1.334 . S
C915 C916 1.287 . S
C916 C915 1.287 . S
C916 C917 1.524 . S
C916 H935 0.913 . S
C917 H893 0.950 . S
C917 C916 1.524 . S
C917 C918 1.415 . S
C918 H894 0.950 . S
C918 C913 1.363 . S
C918 C917 1.415 . S
C919 H895 0.951 . S
C919 C920 1.366 . S
C919 C921 1.388 . S
C920 C919 1.366 . S
C920 C924 1.385 . S
C921 H896 0.951 . S
C921 C919 1.388 . S
C921 C922 1.366 . S
C922 C921 1.366 . S
C922 C923 1.414 . S
C922 C925 1.499 . S
C923 H897 0.950 . S
C923 C922 1.414 . S
C923 C924 1.374 . S
C924 H898 0.950 . S
C924 C920 1.385 . S
C924 C923 1.374 . S
C925 C922 1.499 . S
C925 C926 1.373 . S
C925 C927 1.389 . S
C926 H899 0.950 . S
C926 C912 1.377 . S
C926 C925 1.373 . S
C927 C911 1.377 . S
C927 C925 1.389 . S
C927 C928 1.524 . S
C928 C927 1.524 . S
C928 C929 1.397 . S
C928 C933 1.363 . S
C929 H900 0.950 . S
C929 C928 1.397 . S
C929 C930 1.334 . S
C930 H901 0.950 . S
C930 C929 1.334 . S
C930 C931 1.287 . S
C931 C930 1.287 . S
C931 C932 1.524 . S
C931 H934 0.999 . S
C932 H902 0.950 . S
C932 C931 1.524 . S
C932 C933 1.415 . S
C933 H903 0.950 . S
C933 C928 1.363 . S
C933 C932 1.415 . S
H934 C931 0.999 . S
H935 C916 0.913 . S
H936 C954 0.951 . S
H937 C956 0.951 . S
H938 C958 0.950 . S
H939 C959 0.950 . S
H940 C961 0.950 . S
H941 C964 0.950 . S
H942 C965 0.950 . S
H943 C967 0.950 . S
H944 C968 0.950 . S
H945 C969 0.951 . S
H946 C971 0.979 . S
H947 C973 0.950 . S
H948 C974 0.950 . S
H949 C976 0.950 . S
H950 C979 0.950 . S
H951 C980 0.950 . S
H952 C982 0.950 . S
H953 C983 0.950 . S
C954 H936 0.951 . S
C954 C955 1.366 . S
C954 C956 1.388 . S
C955 C954 1.366 . S
C955 C959 1.385 . S
C956 H937 0.951 . S
C956 C954 1.388 . S
C956 C957 1.366 . S
C957 C956 1.366 . S
C957 C958 1.414 . S
C957 C960 1.499 . S
C958 H938 0.950 . S
C958 C957 1.414 . S
C958 C959 1.374 . S
C959 H939 0.950 . S
C959 C955 1.385 . S
C959 C958 1.374 . S
C960 C957 1.499 . S
C960 C961 1.373 1_545 S
C960 C962 1.389 . S
C961 H940 0.950 . S
C961 C960 1.373 1_565 S
C961 C977 1.377 . S
C962 C960 1.389 . S
C962 C963 1.524 . S
C962 C976 1.377 . S
C963 C962 1.524 . S
C963 C964 1.397 . S
C963 C968 1.363 . S
C964 H941 0.950 . S
C964 C963 1.397 . S
C964 C965 1.334 . S
C965 H942 0.950 . S
C965 C964 1.334 . S
C965 C966 1.287 . S
C966 C965 1.287 . S
C966 C967 1.524 . S
C966 H985 0.913 . S
C967 H943 0.950 . S
C967 C966 1.524 . S
C967 C968 1.415 . S
C968 H944 0.950 . S
C968 C963 1.363 . S
C968 C967 1.415 . S
C969 H945 0.951 . S
C969 C970 1.366 . S
C969 C971 1.388 . S
C970 C969 1.366 . S
C970 C974 1.385 . S
C971 H946 0.979 . S
C971 C969 1.388 . S
C971 C972 1.366 . S
C972 C971 1.366 . S
C972 C973 1.414 . S
C972 C975 1.499 . S
C973 H947 0.950 . S
C973 C972 1.414 . S
C973 C974 1.374 . S
C974 H948 0.950 . S
C974 C970 1.385 . S
C974 C973 1.374 . S
C975 C972 1.499 . S
C975 C976 1.373 . S
C975 C977 1.389 1_545 S
C976 H949 0.950 . S
C976 C962 1.377 . S
C976 C975 1.373 . S
C977 C961 1.377 . S
C977 C975 1.389 1_565 S
C977 C978 1.524 . S
C978 C977 1.524 . S
C978 C979 1.397 . S
C978 C983 1.363 . S
C979 H950 0.950 . S
C979 C978 1.397 . S
C979 C980 1.334 . S
C980 H951 0.950 . S
C980 C979 1.334 . S
C980 C981 1.287 . S
C981 C980 1.287 . S
C981 C982 1.524 . S
C981 H984 0.999 . S
C982 H952 0.950 . S
C982 C981 1.524 . S
C982 C983 1.415 . S
C983 H953 0.950 . S
C983 C978 1.363 . S
C983 C982 1.415 . S
H984 C981 0.999 . S
H985 C966 0.913 . S
H986 C1004 0.951 . S
H987 C1006 0.951 . S
H988 C1008 0.950 . S
H989 C1009 0.950 . S
H990 C1011 0.950 . S
H991 C1014 0.950 . S
H992 C1015 0.950 . S
H993 C1017 0.950 . S
H994 C1018 0.950 . S
H995 C1019 0.951 . S
H996 C1021 0.951 . S
H997 C1023 0.950 . S
H998 C1024 0.950 . S
H999 C1026 0.950 1_554 S
H1000 C1029 0.950 . S
H1001 C1030 0.950 . S
H1002 C1032 0.950 . S
H1003 C1033 0.950 . S
C1004 H986 0.951 . S
C1004 C1005 1.366 . S
C1004 C1006 1.388 . S
C1005 C1004 1.366 . S
C1005 C1009 1.385 . S
C1006 H987 0.951 . S
C1006 C1004 1.388 . S
C1006 C1007 1.366 . S
C1007 C1006 1.366 . S
C1007 C1008 1.414 . S
C1007 C1010 1.499 . S
C1008 H988 0.950 . S
C1008 C1007 1.414 . S
C1008 C1009 1.374 . S
C1009 H989 0.950 . S
C1009 C1005 1.385 . S
C1009 C1008 1.374 . S
C1010 C1007 1.499 . S
C1010 C1011 1.373 . S
C1010 C1012 1.389 . S
C1011 H990 0.950 . S
C1011 C1010 1.373 . S
C1011 C1027 1.377 . S
C1012 C1010 1.389 . S
C1012 C1013 1.524 . S
C1012 C1026 1.377 . S
C1013 C1012 1.524 . S
C1013 C1014 1.397 . S
C1013 C1018 1.363 . S
C1014 H991 0.950 . S
C1014 C1013 1.397 . S
C1014 C1015 1.334 . S
C1015 H992 0.950 . S
C1015 C1014 1.334 . S
C1015 C1016 1.287 . S
C1016 C1015 1.287 . S
C1016 C1017 1.524 . S
C1016 H1035 0.913 . S
C1017 H993 0.950 . S
C1017 C1016 1.524 . S
C1017 C1018 1.415 . S
C1018 H994 0.950 . S
C1018 C1013 1.363 . S
C1018 C1017 1.415 . S
C1019 H995 0.951 . S
C1019 C1020 1.366 . S
C1019 C1021 1.388 . S
C1020 C1019 1.366 . S
C1020 C1024 1.385 . S
C1021 H996 0.951 . S
C1021 C1019 1.388 . S
C1021 C1022 1.366 . S
C1022 C1021 1.366 . S
C1022 C1023 1.414 . S
C1022 C1025 1.499 . S
C1023 H997 0.950 . S
C1023 C1022 1.414 . S
C1023 C1024 1.374 . S
C1024 H998 0.950 . S
C1024 C1020 1.385 . S
C1024 C1023 1.374 . S
C1025 C1022 1.499 . S
C1025 C1026 1.373 1_554 S
C1025 C1027 1.389 1_554 S
C1026 H999 0.950 1_556 S
C1026 C1012 1.377 . S
C1026 C1025 1.373 1_556 S
C1027 C1011 1.377 . S
C1027 C1025 1.389 1_556 S
C1027 C1028 1.524 . S
C1028 C1027 1.524 . S
C1028 C1029 1.397 1_556 S
C1028 C1033 1.363 . S
C1029 H1000 0.950 . S
C1029 C1028 1.397 1_554 S
C1029 C1030 1.334 . S
C1030 H1001 0.950 . S
C1030 C1029 1.334 . S
C1030 C1031 1.287 . S
C1031 C1030 1.287 . S
C1031 C1032 1.524 1_554 S
C1031 H1034 0.999 . S
C1032 H1002 0.950 . S
C1032 C1031 1.524 1_556 S
C1032 C1033 1.415 . S
C1033 H1003 0.950 . S
C1033 C1028 1.363 . S
C1033 C1032 1.415 . S
H1034 C1031 0.999 . S
H1035 C1016 0.913 . S
H1036 C1054 0.951 . S
H1037 C1056 0.951 . S
H1038 C1058 0.950 . S
H1039 C1059 0.950 . S
H1040 C1061 0.950 . S
H1041 C1064 0.950 . S
H1042 C1065 0.943 1_455 S
H1043 C1067 0.950 . S
H1044 C1068 0.950 . S
H1045 C1069 0.951 . S
H1046 C1071 0.951 . S
H1047 C1073 0.950 . S
H1048 C1074 0.950 . S
H1049 C1076 0.950 . S
H1050 C1079 0.965 . S
H1051 C1080 0.950 1_655 S
H1052 C1082 0.950 . S
H1053 C1083 0.950 . S
C1054 H1036 0.951 . S
C1054 C1055 1.366 1_655 S
C1054 C1056 1.388 . S
C1055 C1054 1.366 1_455 S
C1055 C1059 1.385 . S
C1056 H1037 0.951 . S
C1056 C1054 1.388 . S
C1056 C1057 1.366 1_655 S
C1057 C1056 1.366 1_455 S
C1057 C1058 1.414 . S
C1057 C1060 1.499 . S
C1058 H1038 0.950 . S
C1058 C1057 1.414 . S
C1058 C1059 1.374 . S
C1059 H1039 0.950 . S
C1059 C1055 1.385 . S
C1059 C1058 1.374 . S
C1060 C1057 1.499 . S
C1060 C1061 1.373 . S
C1060 C1062 1.389 1_455 S
C1061 H1040 0.950 . S
C1061 C1060 1.373 . S
C1061 C1077 1.377 . S
C1062 C1060 1.389 1_655 S
C1062 C1063 1.524 . S
C1062 C1076 1.377 . S
C1063 C1062 1.524 . S
C1063 C1064 1.397 1_655 S
C1063 C1068 1.363 . S
C1064 H1041 0.950 . S
C1064 C1063 1.397 1_455 S
C1064 C1065 1.314 1_455 S
C1065 H1042 0.943 1_655 S
C1065 C1064 1.314 1_655 S
C1065 C1066 1.315 . S
C1066 C1065 1.315 . S
C1066 C1067 1.524 . S
C1066 H1085 0.913 . S
C1067 H1043 0.950 . S
C1067 C1066 1.524 . S
C1067 C1068 1.415 . S
C1068 H1044 0.950 . S
C1068 C1063 1.363 . S
C1068 C1067 1.415 . S
C1069 H1045 0.951 . S
C1069 C1070 1.366 1_455 S
C1069 C1071 1.388 . S
C1070 C1069 1.366 1_655 S
C1070 C1074 1.385 . S
C1071 H1046 0.951 . S
C1071 C1069 1.388 . S
C1071 C1072 1.366 1_455 S
C1072 C1071 1.366 1_655 S
C1072 C1073 1.414 . S
C1072 C1075 1.499 . S
C1073 H1047 0.950 . S
C1073 C1072 1.414 . S
C1073 C1074 1.374 . S
C1074 H1048 0.950 . S
C1074 C1070 1.385 . S
C1074 C1073 1.374 . S
C1075 C1072 1.499 . S
C1075 C1076 1.373 . S
C1075 C1077 1.389 1_655 S
C1076 H1049 0.950 . S
C1076 C1062 1.377 . S
C1076 C1075 1.373 . S
C1077 C1061 1.377 . S
C1077 C1075 1.389 1_455 S
C1077 C1078 1.524 . S
C1078 C1077 1.524 . S
C1078 C1079 1.393 1_455 S
C1078 C1083 1.363 . S
C1079 H1050 0.965 . S
C1079 C1078 1.393 1_655 S
C1079 C1080 1.323 1_655 S
C1080 H1051 0.950 1_455 S
C1080 C1079 1.323 1_455 S
C1080 C1081 1.287 . S
C1081 C1080 1.287 . S
C1081 C1082 1.524 . S
C1081 H1084 0.999 . S
C1082 H1052 0.950 . S
C1082 C1081 1.524 . S
C1082 C1083 1.415 . S
C1083 H1053 0.950 . S
C1083 C1078 1.363 . S
C1083 C1082 1.415 . S
H1084 C1081 0.999 . S
H1085 C1066 0.913 . S
C205 C6 0.567 . S
C220 C180 0.718 . S
C255 C59 2.064 . S
C270 C158 1.786 . S
C305 C86 0.978 . S
C320 C172 0.962 . S
C355 C15 0.268 . S
C370 C183 0.258 . S
C420 C161 1.747 . S
C405 C50 1.785 . S
C470 C169 1.210 . S
C455 C95 1.415 . S
C505 C46 1.366 . S
C520 C136 1.164 . S
C555 C99 3.286 . S
C570 C147 2.938 . S
C605 C10 2.137 . S
C620 C125 1.835 . S
C670 C139 1.012 . S
C655 C55 1.023 . S
C720 C150 2.754 . S
C705 C90 2.803 . S
C755 C19 1.717 . S
C770 C128 1.680 . S
C820 C149 1.636 . S
C805 C18 1.640 . S
C855 C49 1.415 . S
C870 C127 1.403 . S
C905 C98 1.500 . S
C920 C138 1.478 . S
C970 C171 1.452 . S
C955 C58 1.464 . S
C1020 C182 1.225 . S
C1005 C89 1.256 . S
C1055 C9 1.423 . S
C1070 C160 1.401 . S
