# Generated by pormake.
# Topology ssa, (4,4)-cn, num edge types: 1
# Building blocks:
#     Node 0, Type 0, BuildingBlock: ESEHIV_clean_sbu_0, # of connection points: 4
#     Node 1, Type 0, BuildingBlock: ESEHIV_clean_sbu_0, # of connection points: 4
#     Node 2, Type 0, BuildingBlock: ESEHIV_clean_sbu_0, # of connection points: 4
#     Node 3, Type 0, BuildingBlock: ESEHIV_clean_sbu_0, # of connection points: 4
#     Node 4, Type 0, BuildingBlock: ESEHIV_clean_sbu_0, # of connection points: 4
#     Node 5, Type 0, BuildingBlock: ESEHIV_clean_sbu_0, # of connection points: 4
#     Node 6, Type 1, BuildingBlock: NAWXER_clean_sbu_0, # of connection points: 4
#     Node 7, Type 1, BuildingBlock: NAWXER_clean_sbu_0, # of connection points: 4
#     Node 8, Type 1, BuildingBlock: NAWXER_clean_sbu_0, # of connection points: 4
#     Node 9, Type 1, BuildingBlock: NAWXER_clean_sbu_0, # of connection points: 4
#     Node 10, Type 1, BuildingBlock: NAWXER_clean_sbu_0, # of connection points: 4
#     Node 11, Type 1, BuildingBlock: NAWXER_clean_sbu_0, # of connection points: 4
#     Edge 12, Type (0, 1), BuildingBlock: UVAHIK_clean_linker_0, # of connection points: 2
#     Edge 13, Type (0, 1), BuildingBlock: UVAHIK_clean_linker_0, # of connection points: 2
#     Edge 14, Type (0, 1), BuildingBlock: UVAHIK_clean_linker_0, # of connection points: 2
#     Edge 15, Type (0, 1), BuildingBlock: UVAHIK_clean_linker_0, # of connection points: 2
#     Edge 16, Type (0, 1), BuildingBlock: UVAHIK_clean_linker_0, # of connection points: 2
#     Edge 17, Type (0, 1), BuildingBlock: UVAHIK_clean_linker_0, # of connection points: 2
#     Edge 18, Type (0, 1), BuildingBlock: UVAHIK_clean_linker_0, # of connection points: 2
#     Edge 19, Type (0, 1), BuildingBlock: UVAHIK_clean_linker_0, # of connection points: 2
#     Edge 20, Type (0, 1), BuildingBlock: UVAHIK_clean_linker_0, # of connection points: 2
#     Edge 21, Type (0, 1), BuildingBlock: UVAHIK_clean_linker_0, # of connection points: 2
#     Edge 22, Type (0, 1), BuildingBlock: UVAHIK_clean_linker_0, # of connection points: 2
#     Edge 23, Type (0, 1), BuildingBlock: UVAHIK_clean_linker_0, # of connection points: 2
#     Edge 24, Type (0, 1), BuildingBlock: UVAHIK_clean_linker_0, # of connection points: 2
#     Edge 25, Type (0, 1), BuildingBlock: UVAHIK_clean_linker_0, # of connection points: 2
#     Edge 26, Type (0, 1), BuildingBlock: UVAHIK_clean_linker_0, # of connection points: 2
#     Edge 27, Type (0, 1), BuildingBlock: UVAHIK_clean_linker_0, # of connection points: 2
#     Edge 28, Type (0, 1), BuildingBlock: UVAHIK_clean_linker_0, # of connection points: 2
#     Edge 29, Type (0, 1), BuildingBlock: UVAHIK_clean_linker_0, # of connection points: 2
#     Edge 30, Type (0, 1), BuildingBlock: UVAHIK_clean_linker_0, # of connection points: 2
#     Edge 31, Type (0, 1), BuildingBlock: UVAHIK_clean_linker_0, # of connection points: 2
#     Edge 32, Type (0, 1), BuildingBlock: UVAHIK_clean_linker_0, # of connection points: 2
#     Edge 33, Type (0, 1), BuildingBlock: UVAHIK_clean_linker_0, # of connection points: 2
#     Edge 34, Type (0, 1), BuildingBlock: UVAHIK_clean_linker_0, # of connection points: 2
#     Edge 35, Type (0, 1), BuildingBlock: UVAHIK_clean_linker_0, # of connection points: 2
# Relax obj value: 0.014
# Max RMSD: 0.107
# Mean RMSD: 0.057
data_MOF--net-ssa--node1-ESEHIV_clean_sbu_0--node2-NAWXER_clean_sbu_0--edge1-UVAHIK_clean_linker_0
_symmetry_space_group_name_H-M    P1
_symmetry_Int_Tables_number       1
_symmetry_cell_setting            triclinic
loop_
_symmetry_equiv_pos_as_xyz
'x, y, z'
_cell_length_a     57.975727
_cell_length_b     61.82036
_cell_length_c     50.047891
_cell_angle_alpha  88.418023
_cell_angle_beta   90.849976
_cell_angle_gamma 122.07129
loop_
_atom_site_label
_atom_site_type_symbol
_atom_site_fract_x
_atom_site_fract_y
_atom_site_fract_z
_atom_type_partial_charge
Cu0 Cu 0.0061 0.49986 0.9959 0.0
N1 N 0.01025 0.48293 0.96785 0.0
N2 N 0.99769 0.45489 0.9351 0.0
C3 C 0.9893 0.46413 0.95426 0.0
C4 C 0.02513 0.46843 0.93678 0.0
C5 C 0.03285 0.48584 0.95697 0.0
O6 O 0.9691 0.49244 0.99254 0.0
C7 C 0.02063 0.47328 0.03383 0.0
O8 O 0.0182 0.45878 0.01395 0.0
H9 H 0.96823 0.45713 0.95869 0.0
H10 H 0.0534 0.49956 0.96332 0.0
N11 N 0.03094 0.535 0.99339 0.0
N12 N 0.05895 0.57428 0.00865 0.0
C13 C 0.04463 0.54905 0.01459 0.0
C14 C 0.0368 0.55186 0.97306 0.0
C15 C 0.05408 0.57623 0.98249 0.0
C16 C 0.96253 0.509 0.99421 0.0
O17 O 0.98061 0.53191 1.00263 0.0
H18 H 0.04289 0.54092 0.03443 0.0
H19 H 0.02831 0.54686 0.95317 0.0
O20 O 0.01383 0.48964 0.0304 0.0
H21 H 0.03866 0.46619 0.92411 0.0
H22 H 0.062 0.59394 0.97114 0.0
Cu23 Cu 0.50403 0.014 0.49191 0.0
N24 N 0.52399 0.01368 0.46338 0.0
N25 N 0.53715 0.99744 0.43212 0.0
C26 C 0.51801 0.99259 0.45038 0.0
C27 C 0.55587 0.02269 0.43363 0.0
C28 C 0.54762 0.03271 0.45293 0.0
O29 O 0.46634 0.98706 0.48557 0.0
C30 C 0.53992 0.0089 0.52773 0.0
O31 O 0.55027 0.00547 0.50628 0.0
H32 H 0.5006 0.97382 0.45521 0.0
H33 H 0.55846 0.05223 0.45948 0.0
N34 N 0.50807 0.04588 0.49427 0.0
N35 N 0.51527 0.08102 0.51382 0.0
C36 C 0.50933 0.05688 0.51749 0.0
C37 C 0.51346 0.06364 0.47509 0.0
C38 C 0.5177 0.08532 0.4871 0.0
C39 C 0.45254 0.99077 0.46807 0.0
O40 O 0.46315 0.01357 0.4569 0.0
H41 H 0.5063 0.04737 0.53676 0.0
H42 H 0.51498 0.06125 0.45399 0.0
O43 O 0.51847 0.00971 0.52564 0.0
H44 H 0.57438 0.03307 0.42195 0.0
H45 H 0.52309 0.10311 0.47702 0.0
Cu46 Cu 0.50284 0.49138 0.03122 0.0
N47 N 0.50172 0.46084 0.02844 0.0
N48 N 0.50452 0.43009 0.00944 0.0
C49 C 0.50715 0.45299 0.00593 0.0
C50 C 0.49719 0.42324 0.03524 0.0
C51 C 0.49573 0.44243 0.04702 0.0
O52 O 0.52645 0.51354 1.00214 0.0
C53 C 0.44501 0.46477 0.0363 0.0
O54 O 0.44594 0.44404 0.03583 0.0
H55 H 0.51234 0.46364 0.98714 0.0
H56 H 0.49034 0.44281 0.06753 0.0
N57 N 0.51742 0.50635 0.06393 0.0
N58 N 0.52714 0.53247 0.09787 0.0
C59 C 0.51434 0.5245 0.0742 0.0
C60 C 0.5325 0.50242 0.08178 0.0
C61 C 0.53876 0.51876 0.10274 0.0
C62 C 0.5521 0.52506 0.00577 0.0
O63 O 0.56123 0.52346 0.02943 0.0
H64 H 0.50339 0.5321 0.06414 0.0
H65 H 0.53879 0.48893 0.07953 0.0
O66 O 0.46658 0.48634 0.03129 0.0
H67 H 0.49325 0.40571 0.04487 0.0
H68 H 0.55078 0.52036 0.12019 0.0
Cu69 Cu 0.00786 0.50362 0.52464 0.0
N70 N 0.02957 0.48967 0.52836 0.0
N71 N 0.05462 0.47444 0.51446 0.0
C72 C 0.03608 0.48046 0.50767 0.0
C73 C 0.05988 0.47991 0.54061 0.0
C74 C 0.04421 0.48914 0.54921 0.0
O75 O 0.01972 0.52388 0.49149 0.0
C76 C 0.96184 0.46503 0.5487 0.0
O77 O 0.97885 0.47386 0.56892 0.0
H78 H 0.02858 0.47972 0.48756 0.0
H79 H 0.04426 0.49584 0.56895 0.0
N80 N 0.01203 0.52524 0.55235 0.0
N81 N 0.99962 0.54383 0.58179 0.0
C82 C 0.99239 0.52914 0.56004 0.0
C83 C 0.0327 0.53823 0.5696 0.0
C84 C 0.02503 0.54963 0.58789 0.0
C85 C 0.04538 0.53965 0.49029 0.0
O86 O 0.06029 0.54159 0.51119 0.0
H87 H 0.97261 0.52029 0.55054 0.0
H88 H 0.05175 0.53898 0.56926 0.0
O89 O 0.97011 0.47516 0.52552 0.0
H90 H 0.07448 0.47797 0.55247 0.0
H91 H 0.03712 0.56105 0.60451 0.0
Cu92 Cu 0.52852 0.01156 0.02538 0.0
N93 N 0.52156 0.03775 0.02815 0.0
N94 N 0.51092 0.06626 0.01494 0.0
C95 C 0.5102 0.0448 0.00892 0.0
C96 C 0.52329 0.07311 0.03898 0.0
C97 C 0.52971 0.05538 0.04715 0.0
O98 O 0.54471 0.01579 0.99054 0.0
C99 C 0.47273 0.97411 0.03674 0.0
O100 O 0.46862 0.99285 0.03235 0.0
H101 H 0.5027 0.03515 0.99023 0.0
H102 H 0.54053 0.0559 0.06515 0.0
N103 N 0.55444 0.01526 0.05034 0.0
N104 N 0.57728 0.00352 0.07725 0.0
C105 C 0.55418 0.99575 0.06319 0.0
C106 C 0.57844 0.03627 0.05646 0.0
C107 C 0.59254 0.02911 0.07318 0.0
C108 C 0.53245 0.01247 0.96835 0.0
O109 O 0.50584 0.00135 0.96803 0.0
H110 H 0.53753 0.97613 0.06153 0.0
H111 H 0.58563 0.05523 0.04843 0.0
O112 O 0.49624 0.97796 0.03262 0.0
H113 H 0.52795 0.09002 0.04954 0.0
H114 H 0.61295 0.04168 0.08065 0.0
Cu115 Cu 0.49831 0.48915 0.50432 0.0
N116 N 0.52501 0.51064 0.47936 0.0
N117 N 0.54877 0.54408 0.45134 0.0
C118 C 0.52552 0.52979 0.4654 0.0
C119 C 0.56345 0.53328 0.45652 0.0
C120 C 0.54871 0.51262 0.47381 0.0
O121 O 0.4655 0.48922 0.49613 0.0
C122 C 0.53403 0.51962 0.54612 0.0
O123 O 0.54539 0.53812 0.528 0.0
H124 H 0.5097 0.53394 0.4666 0.0
H125 H 0.55522 0.50051 0.4825 0.0
N126 N 0.49008 0.45578 0.50206 0.0
N127 N 0.47806 0.41667 0.51659 0.0
C128 C 0.47869 0.43822 0.522 0.0
C129 C 0.4968 0.445 0.48319 0.0
C130 C 0.48946 0.42082 0.49216 0.0
C131 C 0.46325 0.50851 0.49806 0.0
O132 O 0.48283 0.52912 0.50954 0.0
H133 H 0.47244 0.44181 0.5408 0.0
H134 H 0.50725 0.4544 0.46474 0.0
O135 O 0.51218 0.49883 0.54041 0.0
H136 H 0.5836 0.54007 0.44889 0.0
H137 H 0.49285 0.4076 0.48181 0.0
C138 C 0.28225 0.49914 0.29434 0.0
C139 C 0.21351 0.49176 0.23003 0.0
O140 O 0.26439 0.47616 0.28794 0.0
Zn141 Zn 0.22929 0.45598 0.26267 0.0
O142 O 0.28148 0.5176 0.28338 0.0
Zn143 Zn 0.24913 0.49685 0.26163 0.0
O144 O 0.21956 0.47739 0.29257 0.0
O145 O 0.20046 0.43574 0.28892 0.0
O146 O 0.2331 0.51229 0.23964 0.0
O147 O 0.21059 0.47038 0.23714 0.0
O148 O 0.2406 0.43984 0.23757 0.0
O149 O 0.26363 0.48178 0.23273 0.0
C150 C 0.20257 0.45457 0.30097 0.0
C151 C 0.25892 0.46003 0.22551 0.0
C152 C 0.76612 0.26096 0.70471 0.0
C153 C 0.71789 0.20476 0.78143 0.0
O154 O 0.74752 0.26031 0.71851 0.0
Zn155 Zn 0.74254 0.23402 0.74406 0.0
O156 O 0.77483 0.24633 0.71126 0.0
Zn157 Zn 0.76734 0.2181 0.74164 0.0
O158 O 0.75572 0.18806 0.72021 0.0
O159 O 0.7266 0.20078 0.72024 0.0
O160 O 0.73692 0.20206 0.77273 0.0
O161 O 0.71429 0.22167 0.77079 0.0
O162 O 0.77923 0.25324 0.76679 0.0
O163 O 0.8017 0.23403 0.76128 0.0
C164 C 0.73304 0.18497 0.71288 0.0
C165 C 0.8001 0.25173 0.77169 0.0
C166 C 0.55587 0.80509 0.29821 0.0
C167 C 0.55662 0.74561 0.23687 0.0
O168 O 0.57991 0.80986 0.2939 0.0
Zn169 Zn 0.59893 0.79476 0.27093 0.0
O170 O 0.5356 0.78608 0.28722 0.0
Zn171 Zn 0.55578 0.7751 0.26743 0.0
O172 O 0.57059 0.76032 0.29776 0.0
O173 O 0.61547 0.78388 0.29777 0.0
O174 O 0.53617 0.74622 0.24455 0.0
O175 O 0.58053 0.76253 0.24498 0.0
O176 O 0.6219 0.82363 0.24723 0.0
O177 O 0.57797 0.80611 0.23943 0.0
C178 C 0.59346 0.765 0.30717 0.0
C179 C 0.60279 0.82317 0.23392 0.0
C180 C 0.77293 0.50941 0.81075 0.0
C181 C 0.71863 0.51507 0.73797 0.0
O182 O 0.75337 0.4909 0.79836 0.0
Zn183 Zn 0.74585 0.5113 0.77376 0.0
O184 O 0.78059 0.53241 0.80379 0.0
Zn185 Zn 0.77012 0.55209 0.77475 0.0
O186 O 0.75934 0.57049 0.7973 0.0
O187 O 0.73192 0.52858 0.80037 0.0
O188 O 0.73804 0.53687 0.74583 0.0
O189 O 0.71565 0.49483 0.74868 0.0
O190 O 0.78111 0.52874 0.74861 0.0
O191 O 0.80294 0.57046 0.75293 0.0
C192 C 0.73842 0.5509 0.80747 0.0
C193 C 0.80124 0.55114 0.74248 0.0
C194 C 0.28338 0.78667 0.2256 0.0
C195 C 0.21675 0.72344 0.28955 0.0
O196 O 0.26424 0.79024 0.23152 0.0
Zn197 Zn 0.2291 0.774 0.25635 0.0
O198 O 0.28414 0.76838 0.23694 0.0
Zn199 Zn 0.25135 0.75516 0.25868 0.0
O200 O 0.21993 0.74145 0.22903 0.0
O201 O 0.20063 0.76411 0.22954 0.0
O202 O 0.23827 0.72493 0.28143 0.0
O203 O 0.21156 0.74036 0.28175 0.0
O204 O 0.23845 0.80138 0.28108 0.0
O205 O 0.26311 0.78416 0.28732 0.0
C206 C 0.20226 0.74616 0.21978 0.0
C207 C 0.25696 0.80036 0.29393 0.0
C208 C 0.50808 0.28061 0.79693 0.0
C209 C 0.51242 0.22601 0.73071 0.0
O210 O 0.52919 0.28486 0.78461 0.0
Zn211 Zn 0.51134 0.25412 0.76353 0.0
O212 O 0.48486 0.26081 0.79146 0.0
Zn213 Zn 0.46793 0.22879 0.7658 0.0
O214 O 0.45216 0.20033 0.7916 0.0
O215 O 0.49698 0.22468 0.79387 0.0
O216 O 0.48822 0.21802 0.73875 0.0
O217 O 0.53242 0.24627 0.74035 0.0
O218 O 0.48879 0.26172 0.73487 0.0
O219 O 0.44485 0.23476 0.74178 0.0
C220 C 0.47442 0.20562 0.80266 0.0
C221 C 0.464 0.2533 0.72846 0.0
C222 C 0.04184 0.45496 0.06325 0.0
C223 C 0.0358 0.47391 0.05826 0.0
C224 C 0.05914 0.45728 0.08429 0.0
C225 C 0.11608 0.50566 0.12383 0.0
H226 H 0.10159 0.44797 0.16922 0.0
C227 C 0.19107 0.51298 0.20735 0.0
C228 C 0.19368 0.49174 0.21091 0.0
C229 C 0.171 0.51177 0.19023 0.0
C230 C 0.10616 0.46425 0.15653 0.0
H231 H 0.04268 0.50989 0.07205 0.0
H232 H 0.07302 0.51396 0.1086 0.0
H233 H 0.06731 0.4434 0.1372 0.0
H234 H 0.17795 0.45296 0.19846 0.0
H235 H 0.14392 0.45114 0.16837 0.0
H236 H 0.15528 0.52631 0.14252 0.0
C237 C 0.06438 0.49734 0.09617 0.0
C238 C 0.0864 0.46161 0.13825 0.0
C239 C 0.0468 0.49486 0.07535 0.0
C240 C 0.17632 0.46959 0.19651 0.0
C241 C 0.15656 0.46846 0.17934 0.0
C242 C 0.136 0.50825 0.14196 0.0
C243 C 0.07105 0.47875 0.10063 0.0
C244 C 0.09125 0.48217 0.12145 0.0
C245 C 0.15329 0.48935 0.17621 0.0
C246 C 0.13148 0.48743 0.15827 0.0
H247 H 0.03378 0.43862 0.05047 0.0
H248 H 0.06402 0.44271 0.0871 0.0
H249 H 0.12051 0.52181 0.11097 0.0
H250 H 0.20408 0.5303 0.2182 0.0
H251 H 0.16902 0.52821 0.18843 0.0
C252 C 0.54863 0.02766 0.57322 0.0
C253 C 0.55667 0.01833 0.55232 0.0
C254 C 0.56691 0.04182 0.59349 0.0
C255 C 0.63346 0.06177 0.62492 0.0
H256 H 0.63624 0.12515 0.63438 0.0
C257 C 0.72095 0.149 0.68162 0.0
C258 C 0.71325 0.16299 0.69673 0.0
C259 C 0.70181 0.12917 0.66543 0.0
C260 C 0.63555 0.10742 0.63237 0.0
H261 H 0.58948 0.01465 0.53774 0.0
H262 H 0.62134 0.03938 0.57322 0.0
H263 H 0.60191 0.09305 0.60545 0.0
H264 H 0.67913 0.16615 0.70796 0.0
H265 H 0.64604 0.13158 0.68062 0.0
H266 H 0.6673 0.07638 0.65202 0.0
C267 C 0.60093 0.0358 0.57382 0.0
C268 C 0.61579 0.08897 0.61576 0.0
C269 C 0.58265 0.02167 0.55344 0.0
C270 C 0.68593 0.15614 0.69615 0.0
C271 C 0.6669 0.13631 0.68034 0.0
C272 C 0.65323 0.08027 0.64182 0.0
C273 C 0.59361 0.04691 0.59342 0.0
C274 C 0.61436 0.06587 0.61193 0.0
C275 C 0.67463 0.12291 0.66429 0.0
C276 C 0.65436 0.10326 0.64588 0.0
H277 H 0.52874 0.02533 0.57315 0.0
H278 H 0.5605 0.04972 0.60866 0.0
H279 H 0.63287 0.04416 0.6223 0.0
H280 H 0.74184 0.15381 0.68175 0.0
H281 H 0.70847 0.11928 0.65326 0.0
C282 C 0.55245 0.56878 0.12805 0.0
C283 C 0.52874 0.5523 0.11368 0.0
C284 C 0.55466 0.58924 0.1417 0.0
C285 C 0.52463 0.62934 0.14358 0.0
H286 H 0.56378 0.65123 0.2107 0.0
C287 C 0.52734 0.70619 0.21022 0.0
C288 C 0.553 0.72446 0.22047 0.0
C289 C 0.5238 0.68516 0.1966 0.0
C290 C 0.55294 0.64541 0.19186 0.0
H291 H 0.48826 0.54348 0.10336 0.0
H292 H 0.49175 0.5787 0.12767 0.0
H293 H 0.55818 0.61382 0.18921 0.0
H294 H 0.59518 0.73523 0.22391 0.0
H295 H 0.58891 0.69858 0.20033 0.0
H296 H 0.51911 0.66084 0.1466 0.0
C297 C 0.50903 0.57642 0.12775 0.0
C298 C 0.5498 0.62403 0.17949 0.0
C299 C 0.50696 0.55617 0.11391 0.0
C300 C 0.57512 0.72154 0.2163 0.0
C301 C 0.57153 0.70044 0.20297 0.0
C302 C 0.52757 0.65059 0.15611 0.0
C303 C 0.53306 0.59346 0.14151 0.0
C304 C 0.53576 0.61581 0.1551 0.0
C305 C 0.54579 0.68189 0.19326 0.0
C306 C 0.54194 0.65895 0.18025 0.0
H307 H 0.56964 0.56638 0.12795 0.0
H308 H 0.57362 0.60215 0.15176 0.0
H309 H 0.5141 0.62385 0.12458 0.0
H310 H 0.50989 0.7079 0.2131 0.0
H311 H 0.50372 0.67108 0.18937 0.0
C312 C 0.98546 0.55314 0.6243 0.0
C313 C 0.98255 0.54985 0.5965 0.0
C314 C 0.96731 0.55675 0.6388 0.0
C315 C 0.93244 0.57433 0.66397 0.0
H316 H 0.85648 0.53244 0.64371 0.0
C317 C 0.84627 0.5777 0.71849 0.0
C318 C 0.82248 0.55386 0.72395 0.0
C319 C 0.86652 0.57959 0.70175 0.0
C320 C 0.87759 0.54424 0.64971 0.0
H321 H 0.95922 0.54926 0.562 0.0
H322 H 0.92783 0.5558 0.58711 0.0
H323 H 0.89087 0.53161 0.6174 0.0
H324 H 0.80134 0.51337 0.71586 0.0
H325 H 0.83642 0.51664 0.68713 0.0
H326 H 0.91884 0.58619 0.69694 0.0
C327 C 0.94367 0.55494 0.59788 0.0
C328 C 0.89741 0.54401 0.63439 0.0
C329 C 0.96171 0.55122 0.58344 0.0
C330 C 0.81932 0.53208 0.71208 0.0
C331 C 0.83942 0.53397 0.6954 0.0
C332 C 0.91255 0.57455 0.67934 0.0
C333 C 0.94588 0.55726 0.62582 0.0
C334 C 0.92509 0.55883 0.64144 0.0
C335 C 0.86332 0.5577 0.69003 0.0
C336 C 0.88482 0.5592 0.67261 0.0
H337 H 1.0011 0.55195 0.63503 0.0
H338 H 0.96949 0.55817 0.66031 0.0
H339 H 0.95358 0.58622 0.66982 0.0
H340 H 0.84938 0.59485 0.72731 0.0
H341 H 0.88459 0.59819 0.69787 0.0
C342 C 0.45783 0.93261 0.06123 0.0
C343 C 0.45181 0.95056 0.05114 0.0
C344 C 0.4397 0.91274 0.07858 0.0
C345 C 0.38727 0.8995 0.12766 0.0
H346 H 0.36811 0.82914 0.12649 0.0
C347 C 0.30074 0.82259 0.19216 0.0
C348 C 0.30381 0.80387 0.2053 0.0
C349 C 0.3196 0.83922 0.17317 0.0
C350 C 0.37359 0.8488 0.12727 0.0
H351 H 0.42117 0.96058 0.04993 0.0
H352 H 0.38965 0.92596 0.07991 0.0
H353 H 0.39876 0.85982 0.09225 0.0
H354 H 0.3291 0.78775 0.20834 0.0
H355 H 0.36254 0.81729 0.17507 0.0
H356 H 0.36252 0.88887 0.16257 0.0
C357 C 0.40859 0.92752 0.07484 0.0
C358 C 0.39104 0.86632 0.10762 0.0
C359 C 0.4266 0.94728 0.0575 0.0
C360 C 0.32619 0.80201 0.19865 0.0
C361 C 0.34524 0.81883 0.17951 0.0
C362 C 0.37006 0.88214 0.14725 0.0
C363 C 0.41528 0.9105 0.08623 0.0
C364 C 0.39763 0.89176 0.10735 0.0
C365 C 0.34225 0.83781 0.16677 0.0
C366 C 0.36254 0.85646 0.14705 0.0
H367 H 0.47707 0.93455 0.05672 0.0
H368 H 0.44543 0.89992 0.08702 0.0
H369 H 0.39256 0.91912 0.12847 0.0
H370 H 0.28365 0.82448 0.19648 0.0
H371 H 0.31627 0.85317 0.16335 0.0
C372 C 0.44921 0.38809 0.55353 0.0
C373 C 0.46999 0.3953 0.53474 0.0
C374 C 0.44284 0.36876 0.57263 0.0
C375 C 0.45499 0.3164 0.59049 0.0
H376 H 0.4411 0.32799 0.66266 0.0
C377 C 0.47803 0.27589 0.68429 0.0
C378 C 0.45854 0.26481 0.70482 0.0
C379 C 0.47423 0.28795 0.66227 0.0
C380 C 0.44447 0.32426 0.64252 0.0
H381 H 0.50019 0.38767 0.52108 0.0
H382 H 0.4897 0.35447 0.55464 0.0
H383 H 0.44457 0.35665 0.62627 0.0
H384 H 0.4196 0.25741 0.71827 0.0
H385 H 0.41331 0.27947 0.67974 0.0
H386 H 0.45643 0.28484 0.60722 0.0
C387 C 0.47771 0.36319 0.55432 0.0
C388 C 0.44643 0.34065 0.62159 0.0
C389 C 0.48383 0.38232 0.53504 0.0
C390 C 0.43489 0.26575 0.70268 0.0
C391 C 0.43135 0.2784 0.68076 0.0
C392 C 0.45338 0.30025 0.61146 0.0
C393 C 0.45733 0.35633 0.5736 0.0
C394 C 0.45232 0.33728 0.59536 0.0
C395 C 0.45107 0.28963 0.66039 0.0
C396 C 0.44866 0.30433 0.63776 0.0
H397 H 0.43795 0.39754 0.55353 0.0
H398 H 0.42667 0.3637 0.58674 0.0
H399 H 0.45884 0.31275 0.57052 0.0
H400 H 0.49639 0.27532 0.68528 0.0
H401 H 0.48988 0.29666 0.64702 0.0
C402 C 0.51421 0.95641 0.40884 0.0
C403 C 0.5383 0.97884 0.41647 0.0
C404 C 0.51521 0.93745 0.39534 0.0
C405 C 0.56132 0.92563 0.3566 0.0
H406 H 0.51034 0.8549 0.37743 0.0
C407 C 0.5754 0.84504 0.32422 0.0
C408 C 0.5524 0.82301 0.31413 0.0
C409 C 0.57276 0.8634 0.33695 0.0
C410 C 0.52453 0.87454 0.37124 0.0
H411 H 0.58234 0.99903 0.4157 0.0
H412 H 0.58417 0.9659 0.39237 0.0
H413 H 0.50764 0.88872 0.3983 0.0
H414 H 0.50844 0.80259 0.31038 0.0
H415 H 0.50385 0.83476 0.33286 0.0
H416 H 0.57844 0.91144 0.32983 0.0
C417 C 0.56446 0.96311 0.39641 0.0
C418 C 0.52296 0.89394 0.38312 0.0
C419 C 0.56344 0.98214 0.40978 0.0
C420 C 0.52655 0.81934 0.31793 0.0
C421 C 0.52391 0.83772 0.33084 0.0
C422 C 0.56297 0.90627 0.34485 0.0
C423 C 0.54034 0.94042 0.38926 0.0
C424 C 0.54144 0.91973 0.37604 0.0
C425 C 0.54707 0.86016 0.34003 0.0
C426 C 0.54472 0.88054 0.35216 0.0
H427 H 0.49454 0.95351 0.41334 0.0
H428 H 0.49626 0.92046 0.38967 0.0
H429 H 0.57554 0.94522 0.3503 0.0
H430 H 0.59561 0.84846 0.32178 0.0
H431 H 0.59092 0.88028 0.34426 0.0
C432 C 0.59965 0.55161 0.98882 0.0
C433 C 0.57165 0.53647 0.98325 0.0
C434 C 0.61886 0.55836 0.9687 0.0
C435 C 0.63095 0.56161 0.89607 0.0
H436 H 0.68284 0.54292 0.9175 0.0
C437 C 0.72093 0.57562 0.82967 0.0
C438 C 0.72126 0.55316 0.82746 0.0
C439 C 0.70347 0.57671 0.848 0.0
C440 C 0.66861 0.54838 0.91127 0.0
H441 H 0.54184 0.51811 0.95173 0.0
H442 H 0.57565 0.53004 0.91632 0.0
H443 H 0.65056 0.54024 0.95005 0.0
H444 H 0.70389 0.51442 0.84298 0.0
H445 H 0.6742 0.51659 0.87515 0.0
H446 H 0.64906 0.56935 0.85701 0.0
C447 C 0.58261 0.53667 0.93638 0.0
C448 C 0.65022 0.54701 0.92993 0.0
C449 C 0.56327 0.52984 0.95664 0.0
C450 C 0.70413 0.53202 0.84413 0.0
C451 C 0.68716 0.53325 0.86263 0.0
C452 C 0.64972 0.56334 0.87739 0.0
C453 C 0.61059 0.55017 0.94246 0.0
C454 C 0.63098 0.55333 0.92253 0.0
C455 C 0.68656 0.55553 0.86475 0.0
C456 C 0.66842 0.55632 0.88477 0.0
H457 H 0.60682 0.55731 0.00905 0.0
H458 H 0.64027 0.56918 0.9739 0.0
H459 H 0.61639 0.56665 0.88985 0.0
H460 H 0.73378 0.59216 0.81697 0.0
H461 H 0.70343 0.59414 0.84935 0.0
C462 C 0.04601 0.56195 0.44707 0.0
C463 C 0.05914 0.5547 0.46576 0.0
C464 C 0.06048 0.57793 0.42513 0.0
C465 C 0.12177 0.60066 0.38383 0.0
H466 H 0.1219 0.66314 0.37449 0.0
C467 C 0.20451 0.68678 0.3216 0.0
C468 C 0.19719 0.70219 0.30746 0.0
C469 C 0.18591 0.6672 0.33894 0.0
C470 C 0.1218 0.64561 0.37638 0.0
H471 H 0.09719 0.55744 0.47553 0.0
H472 H 0.12202 0.5847 0.43727 0.0
H473 H 0.09117 0.63071 0.40689 0.0
H474 H 0.1643 0.70857 0.29975 0.0
H475 H 0.13181 0.67415 0.32912 0.0
H476 H 0.15228 0.61535 0.35337 0.0
C477 C 0.10076 0.57834 0.43954 0.0
C478 C 0.10414 0.62703 0.39501 0.0
C479 C 0.08655 0.56287 0.46159 0.0
C480 C 0.17075 0.69727 0.3106 0.0
C481 C 0.1521 0.67755 0.32762 0.0
C482 C 0.13921 0.61909 0.36498 0.0
C483 C 0.08805 0.58636 0.42128 0.0
C484 C 0.10428 0.60457 0.39925 0.0
C485 C 0.15946 0.66238 0.34226 0.0
C486 C 0.1398 0.64203 0.36129 0.0
H487 H 0.02492 0.55594 0.44985 0.0
H488 H 0.05019 0.58381 0.41127 0.0
H489 H 0.12214 0.5834 0.38655 0.0
H490 H 0.22475 0.69014 0.31968 0.0
H491 H 0.19252 0.65621 0.35015 0.0
C492 C 0.48133 0.06727 0.97957 0.0
C493 C 0.50331 0.08029 0.99732 0.0
C494 C 0.47574 0.08071 0.96032 0.0
C495 C 0.51079 0.13942 0.92039 0.0
H496 H 0.43896 0.12639 0.90389 0.0
C497 C 0.49764 0.20211 0.84327 0.0
C498 C 0.47498 0.19081 0.82616 0.0
C499 C 0.49932 0.18847 0.86504 0.0
C500 C 0.4591 0.13003 0.90798 0.0
H501 H 0.53618 0.11761 0.00931 0.0
H502 H 0.5266 0.14115 0.97548 0.0
H503 H 0.4448 0.103 0.94094 0.0
H504 H 0.43595 0.15638 0.81878 0.0
H505 H 0.43925 0.13199 0.85648 0.0
H506 H 0.52517 0.16562 0.88715 0.0
C507 C 0.51367 0.12052 0.97655 0.0
C508 C 0.46243 0.11673 0.92931 0.0
C509 C 0.51902 0.10709 0.99604 0.0
C510 C 0.45368 0.16557 0.83163 0.0
C511 C 0.45554 0.15168 0.85333 0.0
C512 C 0.50744 0.15241 0.89894 0.0
C513 C 0.49226 0.10744 0.9582 0.0
C514 C 0.48838 0.1215 0.93586 0.0
C515 C 0.47859 0.1629 0.87014 0.0
C516 C 0.48162 0.14815 0.89257 0.0
H517 H 0.46878 0.04662 0.98027 0.0
H518 H 0.45918 0.07013 0.94639 0.0
H519 H 0.53093 0.14306 0.92459 0.0
H520 H 0.5142 0.22169 0.83992 0.0
H521 H 0.51698 0.19809 0.87792 0.0
C522 C 0.42028 0.48696 0.47114 0.0
C523 C 0.44162 0.50928 0.48263 0.0
C524 C 0.40204 0.48806 0.45344 0.0
C525 C 0.39733 0.53208 0.40593 0.0
H526 H 0.32134 0.47753 0.40347 0.0
C527 C 0.31981 0.52757 0.32643 0.0
C528 C 0.30224 0.50334 0.31566 0.0
C529 C 0.33685 0.53049 0.3481 0.0
C530 C 0.34255 0.49286 0.40379 0.0
H531 H 0.45989 0.5502 0.48521 0.0
H532 H 0.42783 0.55206 0.45438 0.0
H533 H 0.34989 0.47849 0.44018 0.0
H534 H 0.2896 0.46339 0.31869 0.0
H535 H 0.31917 0.46855 0.35591 0.0
H536 H 0.38995 0.54615 0.36917 0.0
C537 C 0.42543 0.53374 0.45891 0.0
C538 C 0.35891 0.49341 0.42486 0.0
C539 C 0.44363 0.53262 0.47679 0.0
C540 C 0.30265 0.48233 0.32655 0.0
C541 C 0.3195 0.48522 0.3481 0.0
C542 C 0.38089 0.53153 0.38479 0.0
C543 C 0.40468 0.51151 0.44668 0.0
C544 C 0.38665 0.51269 0.42591 0.0
C545 C 0.33649 0.50921 0.35946 0.0
C546 C 0.35347 0.51156 0.38316 0.0
H547 H 0.41814 0.46867 0.47513 0.0
H548 H 0.38652 0.47059 0.44419 0.0
H549 H 0.41867 0.54709 0.40599 0.0
H550 H 0.31997 0.54414 0.31855 0.0
H551 H 0.34974 0.54924 0.35642 0.0
C552 C 0.98877 0.41912 0.90632 0.0
C553 C 0.98056 0.4349 0.91677 0.0
C554 C 0.97154 0.39923 0.88924 0.0
C555 C 0.91228 0.37778 0.84433 0.0
H556 H 0.89997 0.3101 0.85559 0.0
C557 C 0.81918 0.29005 0.80028 0.0
C558 C 0.82231 0.27133 0.78858 0.0
C559 C 0.84026 0.3096 0.8149 0.0
C560 C 0.90347 0.32897 0.85195 0.0
H561 H 0.94809 0.4425 0.91683 0.0
H562 H 0.91815 0.40791 0.88749 0.0
H563 H 0.93407 0.34552 0.8825 0.0
H564 H 0.85002 0.25823 0.78375 0.0
H565 H 0.88713 0.29267 0.80947 0.0
H566 H 0.88158 0.36138 0.81414 0.0
C567 C 0.93789 0.41087 0.89234 0.0
C568 C 0.92301 0.34926 0.86735 0.0
C569 C 0.95496 0.43056 0.90945 0.0
C570 C 0.84695 0.27234 0.79248 0.0
C571 C 0.86817 0.29202 0.80725 0.0
C572 C 0.89285 0.3576 0.82901 0.0
C573 C 0.9459 0.39491 0.88203 0.0
C574 C 0.9272 0.37379 0.86409 0.0
C575 C 0.86517 0.31111 0.81827 0.0
C576 C 0.88774 0.33282 0.83301 0.0
H577 H 0.00827 0.42185 0.91172 0.0
H578 H 0.97838 0.38737 0.88152 0.0
H579 H 0.91543 0.39654 0.84086 0.0
H580 H 0.80045 0.28982 0.79795 0.0
H581 H 0.837 0.32361 0.82361 0.0
C582 C 0.91866 0.48054 0.96993 0.0
C583 C 0.93668 0.50399 0.98202 0.0
C584 C 0.89648 0.4772 0.95491 0.0
C585 C 0.85539 0.50627 0.93908 0.0
H586 H 0.8449 0.47424 0.87067 0.0
C587 C 0.80505 0.52534 0.84947 0.0
C588 C 0.78721 0.50499 0.83304 0.0
C589 C 0.81947 0.52191 0.86996 0.0
C590 C 0.84723 0.48285 0.88987 0.0
H591 H 0.94467 0.54188 0.98879 0.0
H592 H 0.90635 0.53621 0.96245 0.0
H593 H 0.87671 0.47408 0.90297 0.0
H594 H 0.77034 0.46493 0.82553 0.0
H595 H 0.79592 0.45898 0.86137 0.0
H596 H 0.82661 0.51583 0.92549 0.0
C597 C 0.90909 0.52024 0.96475 0.0
C598 C 0.86545 0.48274 0.90846 0.0
C599 C 0.93121 0.52355 0.97982 0.0
C600 C 0.7839 0.48098 0.83784 0.0
C601 C 0.79863 0.4776 0.85826 0.0
C602 C 0.83729 0.50649 0.92045 0.0
C603 C 0.89178 0.49723 0.95158 0.0
C604 C 0.87018 0.49489 0.9331 0.0
C605 C 0.81664 0.49809 0.8745 0.0
C606 C 0.83341 0.49524 0.89542 0.0
H607 H 0.92219 0.46501 0.97127 0.0
H608 H 0.88332 0.45907 0.94545 0.0
H609 H 0.85808 0.51536 0.95804 0.0
H610 H 0.80806 0.54409 0.84642 0.0
H611 H 0.83345 0.53817 0.88183 0.0
C612 C 0.41059 0.97387 0.44 0.0
C613 C 0.42699 0.96912 0.45707 0.0
C614 C 0.38876 0.95397 0.42626 0.0
C615 C 0.36818 0.89211 0.39884 0.0
H616 H 0.29903 0.88626 0.38553 0.0
C617 C 0.28671 0.81185 0.33426 0.0
C618 C 0.2721 0.81786 0.31609 0.0
C619 C 0.30285 0.82888 0.35404 0.0
C620 C 0.31833 0.88777 0.38882 0.0
H621 H 0.4325 0.93952 0.47408 0.0
H622 H 0.39436 0.90474 0.45001 0.0
H623 H 0.33172 0.91826 0.41632 0.0
H624 H 0.26239 0.84623 0.30492 0.0
H625 H 0.29129 0.87647 0.33908 0.0
H626 H 0.35551 0.86244 0.37081 0.0
C627 C 0.39854 0.92393 0.44715 0.0
C628 C 0.337 0.90604 0.40658 0.0
C629 C 0.42026 0.94383 0.4611 0.0
C630 C 0.27336 0.84104 0.31867 0.0
C631 C 0.28986 0.85831 0.33834 0.0
C632 C 0.34968 0.87405 0.38098 0.0
C633 C 0.38295 0.92888 0.4291 0.0
C634 C 0.36218 0.90845 0.41172 0.0
C635 C 0.3052 0.85262 0.35601 0.0
C636 C 0.32449 0.87162 0.37564 0.0
H637 H 0.41519 0.99313 0.4365 0.0
H638 H 0.37728 0.95846 0.41241 0.0
H639 H 0.38761 0.89382 0.4019 0.0
H640 H 0.28588 0.79398 0.3331 0.0
H641 H 0.3137 0.82346 0.36767 0.0
C642 C 0.49038 0.38895 0.98899 0.0
C643 C 0.50757 0.41564 0.98927 0.0
C644 C 0.49198 0.37514 0.96821 0.0
C645 C 0.5362 0.37621 0.9162 0.0
H646 H 0.46863 0.32975 0.8799 0.0
C647 C 0.53243 0.32232 0.8211 0.0
C648 C 0.50982 0.29737 0.81846 0.0
C649 C 0.53328 0.33779 0.84157 0.0
C650 C 0.48767 0.34231 0.89001 0.0
H651 H 0.54066 0.44872 0.96875 0.0
H652 H 0.54378 0.42447 0.9326 0.0
H653 H 0.46836 0.35391 0.91729 0.0
H654 H 0.47085 0.26878 0.83575 0.0
H655 H 0.47274 0.2951 0.87163 0.0
H656 H 0.55546 0.36409 0.88946 0.0
C657 C 0.52893 0.41432 0.94832 0.0
C658 C 0.48747 0.35622 0.9114 0.0
C659 C 0.52701 0.42817 0.96886 0.0
C660 C 0.4884 0.28807 0.83692 0.0
C661 C 0.48941 0.30329 0.85748 0.0
C662 C 0.53636 0.36195 0.89501 0.0
C663 C 0.51111 0.38772 0.94757 0.0
C664 C 0.51167 0.37319 0.92479 0.0
C665 C 0.51167 0.32847 0.85997 0.0
C666 C 0.51203 0.34464 0.88176 0.0
H667 H 0.47511 0.37886 1.00436 0.0
H668 H 0.47812 0.3546 0.96817 0.0
H669 H 0.55515 0.38916 0.92627 0.0
H670 H 0.54924 0.33 0.80715 0.0
H671 H 0.55065 0.35714 0.84268 0.0
C672 C 0.05448 0.45191 0.47436 0.0
C673 C 0.0684 0.46727 0.49633 0.0
C674 C 0.06839 0.44707 0.45515 0.0
C675 C 0.13506 0.47725 0.42465 0.0
H676 H 0.11119 0.41093 0.39586 0.0
C677 C 0.19997 0.46815 0.34636 0.0
C678 C 0.18694 0.45113 0.32544 0.0
C679 C 0.18533 0.46741 0.36858 0.0
C680 C 0.11797 0.42964 0.4034 0.0
H681 H 0.10768 0.48911 0.51567 0.0
H682 H 0.13212 0.48101 0.48187 0.0
H683 H 0.08563 0.41436 0.43229 0.0
H684 H 0.14853 0.41942 0.31157 0.0
H685 H 0.12236 0.41874 0.35 0.0
H686 H 0.16648 0.49295 0.39533 0.0
C687 C 0.11038 0.47257 0.47966 0.0
C688 C 0.10339 0.43154 0.42438 0.0
C689 C 0.09638 0.47705 0.4991 0.0
C690 C 0.15903 0.43268 0.32754 0.0
C691 C 0.14412 0.4323 0.34963 0.0
C692 C 0.14931 0.47545 0.40348 0.0
C693 C 0.0966 0.45786 0.45728 0.0
C694 C 0.11196 0.45537 0.43534 0.0
C695 C 0.15702 0.45008 0.3702 0.0
C696 C 0.14121 0.45161 0.39266 0.0
H697 H 0.03287 0.44401 0.47185 0.0
H698 H 0.05728 0.43578 0.43805 0.0
H699 H 0.14179 0.49594 0.43229 0.0
H700 H 0.2216 0.48233 0.34539 0.0
H701 H 0.1963 0.48078 0.38432 0.0
C702 C 0.57646 0.03479 0.94329 0.0
C703 C 0.5488 0.0267 0.94448 0.0
C704 C 0.59333 0.05223 0.92346 0.0
C705 C 0.60072 0.10533 0.88304 0.0
H706 H 0.6551 0.10016 0.84465 0.0
C707 C 0.67246 0.18174 0.80438 0.0
C708 C 0.69889 0.18648 0.80194 0.0
C709 C 0.65341 0.16198 0.82125 0.0
C710 C 0.64033 0.10215 0.8555 0.0
H711 H 0.51689 0.0298 0.92517 0.0
H712 H 0.54651 0.06049 0.89062 0.0
H713 H 0.62267 0.06477 0.87346 0.0
H714 H 0.7265 0.17516 0.81632 0.0
H715 H 0.69383 0.14158 0.84647 0.0
H716 H 0.61882 0.14299 0.86594 0.0
C717 C 0.55506 0.05326 0.90506 0.0
C718 C 0.62161 0.08173 0.87184 0.0
C719 C 0.53807 0.03549 0.92466 0.0
C720 C 0.70622 0.17184 0.81759 0.0
C721 C 0.68734 0.15236 0.83468 0.0
C722 C 0.61966 0.12591 0.86696 0.0
C723 C 0.58299 0.06223 0.90464 0.0
C724 C 0.60169 0.08315 0.88588 0.0
C725 C 0.66047 0.14673 0.83629 0.0
C726 C 0.63987 0.12468 0.8531 0.0
H727 H 0.58532 0.0284 0.95833 0.0
H728 H 0.61479 0.05887 0.92371 0.0
H729 H 0.58582 0.10711 0.89395 0.0
H730 H 0.66613 0.19255 0.79241 0.0
H731 H 0.6329 0.15814 0.82173 0.0
C732 C 0.58451 0.58635 0.43245 0.0
C733 C 0.55685 0.56746 0.43652 0.0
C734 C 0.59209 0.6099 0.42022 0.0
C735 C 0.56667 0.65254 0.40968 0.0
H736 H 0.61742 0.68245 0.35048 0.0
C737 C 0.56896 0.72763 0.33866 0.0
C738 C 0.59362 0.74692 0.32713 0.0
C739 C 0.56796 0.70847 0.3549 0.0
C740 C 0.60364 0.67465 0.36736 0.0
H741 H 0.51557 0.55817 0.42921 0.0
H742 H 0.52879 0.59916 0.40857 0.0
H743 H 0.60915 0.64306 0.37243 0.0
H744 H 0.63683 0.76169 0.32446 0.0
H745 H 0.63512 0.72816 0.35327 0.0
H746 H 0.5609 0.6838 0.40472 0.0
C747 C 0.5446 0.59592 0.41526 0.0
C748 C 0.59884 0.65204 0.37983 0.0
C749 C 0.53704 0.5724 0.42716 0.0
C750 C 0.61752 0.74712 0.33308 0.0
C751 C 0.6165 0.7278 0.34939 0.0
C752 C 0.57162 0.67517 0.39743 0.0
C753 C 0.57217 0.61508 0.41206 0.0
C754 C 0.57973 0.64042 0.40061 0.0
C755 C 0.59159 0.70803 0.36017 0.0
C756 C 0.58955 0.68613 0.37561 0.0
H757 H 0.60035 0.58335 0.43949 0.0
H758 H 0.61351 0.62435 0.41796 0.0
H759 H 0.55226 0.64428 0.42604 0.0
H760 H 0.55014 0.72684 0.33452 0.0
H761 H 0.54834 0.6934 0.36247 0.0
C762 C 0.51408 0.11819 0.52904 0.0
C763 C 0.51909 0.0986 0.53433 0.0
C764 C 0.51656 0.13443 0.54932 0.0
C765 C 0.5454 0.1567 0.61703 0.0
H766 H 0.4869 0.16927 0.62267 0.0
C767 C 0.54181 0.22166 0.6973 0.0
C768 C 0.51624 0.21219 0.70918 0.0
C769 C 0.54441 0.20926 0.67556 0.0
C770 C 0.50337 0.1659 0.62142 0.0
H771 H 0.53193 0.08156 0.56487 0.0
H772 H 0.53569 0.10946 0.60026 0.0
H773 H 0.48774 0.14547 0.58518 0.0
H774 H 0.47359 0.18173 0.70809 0.0
H775 H 0.47822 0.16025 0.67064 0.0
H776 H 0.56053 0.17659 0.65382 0.0
C777 C 0.52996 0.11238 0.58042 0.0
C778 C 0.50403 0.15251 0.59973 0.0
C779 C 0.52741 0.09612 0.56019 0.0
C780 C 0.49358 0.18973 0.69934 0.0
C781 C 0.49616 0.17746 0.6777 0.0
C782 C 0.54479 0.17021 0.63873 0.0
C783 C 0.52422 0.13153 0.57534 0.0
C784 C 0.52484 0.14745 0.59743 0.0
C785 C 0.52148 0.18726 0.66526 0.0
C786 C 0.52349 0.17457 0.64138 0.0
H787 H 0.50757 0.12058 0.50939 0.0
H788 H 0.51229 0.14917 0.54465 0.0
H789 H 0.56188 0.15335 0.61568 0.0
H790 H 0.55966 0.23891 0.70439 0.0
H791 H 0.56419 0.21728 0.66635 0.0
C792 C 0.42246 0.48581 0.05644 0.0
C793 C 0.42107 0.46349 0.04849 0.0
C794 C 0.40192 0.48431 0.0723 0.0
C795 C 0.35001 0.4407 0.12141 0.0
H796 H 0.32621 0.48857 0.11604 0.0
C797 C 0.27005 0.43555 0.19411 0.0
C798 C 0.27504 0.45895 0.20332 0.0
C799 C 0.28564 0.43497 0.17329 0.0
C800 C 0.3328 0.47516 0.11798 0.0
H801 H 0.39602 0.4221 0.0496 0.0
H802 H 0.36014 0.41954 0.07686 0.0
H803 H 0.3569 0.48982 0.08233 0.0
H804 H 0.30042 0.50011 0.1977 0.0
H805 H 0.32767 0.49908 0.16198 0.0
H806 H 0.32645 0.42638 0.15733 0.0
C807 C 0.37738 0.4382 0.07133 0.0
C808 C 0.35038 0.47587 0.09859 0.0
C809 C 0.39788 0.4397 0.05548 0.0
C810 C 0.29588 0.4817 0.19112 0.0
C811 C 0.31144 0.48112 0.17041 0.0
C812 C 0.3325 0.44003 0.14083 0.0
C813 C 0.3795 0.46046 0.08059 0.0
C814 C 0.35941 0.45879 0.10018 0.0
C815 C 0.3066 0.45778 0.16119 0.0
C816 C 0.32388 0.45744 0.13956 0.0
H817 H 0.44007 0.50447 0.05156 0.0
H818 H 0.40433 0.50186 0.07917 0.0
H819 H 0.35689 0.42752 0.12356 0.0
H820 H 0.2541 0.41767 0.20297 0.0
H821 H 0.28113 0.41663 0.16654 0.0
C822 C 0.9196 0.44558 0.57541 0.0
C823 C 0.93374 0.4439 0.55387 0.0
C824 C 0.89555 0.42405 0.58472 0.0
C825 C 0.8679 0.35719 0.59412 0.0
H826 H 0.803 0.35426 0.61811 0.0
C827 C 0.79044 0.27334 0.66093 0.0
C828 C 0.77865 0.279 0.68175 0.0
C829 C 0.80458 0.2912 0.64036 0.0
C830 C 0.82108 0.3548 0.6118 0.0
H831 H 0.93364 0.41887 0.52445 0.0
H832 H 0.89167 0.38068 0.54132 0.0
H833 H 0.83596 0.39015 0.58992 0.0
H834 H 0.77178 0.30752 0.69707 0.0
H835 H 0.7976 0.33928 0.66201 0.0
H836 H 0.85453 0.32315 0.61735 0.0
C837 C 0.89898 0.39883 0.55061 0.0
C838 C 0.83979 0.37525 0.5954 0.0
C839 C 0.92279 0.42062 0.54086 0.0
C840 C 0.78056 0.30261 0.68118 0.0
C841 C 0.79526 0.32076 0.6609 0.0
C842 C 0.84952 0.33703 0.61089 0.0
C843 C 0.88556 0.40026 0.57309 0.0
C844 C 0.86359 0.37683 0.58675 0.0
C845 C 0.80792 0.31549 0.64042 0.0
C846 C 0.82603 0.33572 0.62039 0.0
H847 H 0.92787 0.46335 0.58585 0.0
H848 H 0.88583 0.42566 0.60222 0.0
H849 H 0.88633 0.35816 0.58817 0.0
H850 H 0.78897 0.25513 0.66067 0.0
H851 H 0.81325 0.28602 0.62463 0.0
C852 C 0.57146 0.96129 0.08642 0.0
C853 C 0.58485 0.98754 0.09155 0.0
C854 C 0.57869 0.94577 0.10009 0.0
C855 C 0.61287 0.94208 0.16147 0.0
H856 H 0.6074 0.88483 0.12532 0.0
C857 C 0.63078 0.8682 0.21597 0.0
C858 C 0.60837 0.84311 0.21354 0.0
C859 C 0.63322 0.88781 0.19913 0.0
C860 C 0.60916 0.90082 0.13563 0.0
H861 H 0.61655 0.01784 0.11537 0.0
H862 H 0.62965 0.99083 0.13871 0.0
H863 H 0.60174 0.91592 0.09989 0.0
H864 H 0.57185 0.81855 0.19075 0.0
H865 H 0.57647 0.85251 0.16104 0.0
H866 H 0.62004 0.92666 0.19728 0.0
C867 C 0.61324 0.98224 0.12428 0.0
C868 C 0.60573 0.91855 0.12114 0.0
C869 C 0.60588 0.99781 0.11068 0.0
C870 C 0.58934 0.83772 0.19308 0.0
C871 C 0.59204 0.85715 0.176 0.0
C872 C 0.61659 0.92445 0.17592 0.0
C873 C 0.59971 0.95599 0.11915 0.0
C874 C 0.60672 0.939 0.134 0.0
C875 C 0.61359 0.8825 0.17927 0.0
C876 C 0.61404 0.90328 0.16327 0.0
H877 H 0.55546 0.95256 0.07166 0.0
H878 H 0.56742 0.92558 0.09591 0.0
H879 H 0.61356 0.95743 0.17212 0.0
H880 H 0.64563 0.87289 0.23172 0.0
H881 H 0.65008 0.90719 0.20199 0.0
C882 C 0.57505 0.54253 0.5757 0.0
C883 C 0.54967 0.5205 0.57026 0.0
C884 C 0.59213 0.54195 0.59536 0.0
C885 C 0.59512 0.50373 0.65273 0.0
H886 H 0.67105 0.53782 0.63222 0.0
C887 C 0.67429 0.49139 0.71272 0.0
C888 C 0.69932 0.51407 0.71753 0.0
C889 C 0.65543 0.49139 0.69483 0.0
C890 C 0.64996 0.52835 0.63836 0.0
H891 H 0.52169 0.48095 0.58241 0.0
H892 H 0.55153 0.4799 0.61641 0.0
H893 H 0.63888 0.54037 0.60261 0.0
H894 H 0.72437 0.55439 0.70681 0.0
H895 H 0.69173 0.55432 0.67579 0.0
H896 H 0.60637 0.49156 0.68846 0.0
C897 C 0.55823 0.49771 0.60564 0.0
C898 C 0.6315 0.52992 0.62144 0.0
C899 C 0.54109 0.49831 0.58606 0.0
C900 C 0.7053 0.53655 0.70362 0.0
C901 C 0.68662 0.53651 0.68569 0.0
C902 C 0.61362 0.50209 0.66966 0.0
C903 C 0.5843 0.5193 0.60999 0.0
C904 C 0.60386 0.5178 0.62845 0.0
C905 C 0.66136 0.51402 0.68123 0.0
C906 C 0.6413 0.51454 0.66274 0.0
H907 H 0.58224 0.55999 0.56406 0.0
H908 H 0.6118 0.55913 0.59863 0.0
H909 H 0.57404 0.49431 0.65888 0.0
H910 H 0.66902 0.47377 0.72317 0.0
H911 H 0.63622 0.4737 0.69163 0.0
C912 C 0.07563 0.61789 0.02464 0.0
C913 C 0.07396 0.59439 0.02748 0.0
C914 C 0.08774 0.63614 0.04465 0.0
C915 C 0.10388 0.64016 0.11677 0.0
H916 H 0.154 0.71251 0.10258 0.0
C917 C 0.18005 0.70593 0.19442 0.0
C918 C 0.18394 0.7301 0.19814 0.0
C919 C 0.1639 0.69067 0.17361 0.0
C920 C 0.13966 0.69242 0.1068 0.0
H921 H 0.08533 0.5724 0.05261 0.0
H922 H 0.10644 0.60403 0.0872 0.0
H923 H 0.13191 0.6836 0.06518 0.0
H924 H 0.17383 0.75723 0.18293 0.0
H925 H 0.14564 0.73041 0.14585 0.0
H926 H 0.11216 0.64871 0.15821 0.0
C927 C 0.09774 0.60816 0.06998 0.0
C928 C 0.12706 0.67586 0.08542 0.0
C929 C 0.0857 0.59003 0.05011 0.0
C930 C 0.17108 0.73863 0.18059 0.0
C931 C 0.15512 0.7234 0.15934 0.0
C932 C 0.11647 0.6566 0.138 0.0
C933 C 0.09837 0.63119 0.06784 0.0
C934 C 0.10963 0.64943 0.09019 0.0
C935 C 0.15137 0.69923 0.15574 0.0
C936 C 0.13505 0.68278 0.13326 0.0
H937 H 0.06665 0.62175 0.0075 0.0
H938 H 0.08793 0.65371 0.04241 0.0
H939 H 0.08998 0.62001 0.12118 0.0
H940 H 0.18957 0.69871 0.20761 0.0
H941 H 0.16168 0.6723 0.17117 0.0
loop_
_geom_bond_atom_site_label_1
_geom_bond_atom_site_label_2
_geom_bond_distance
_geom_bond_site_symmetry_2
_ccdc_geom_bond_type
Cu0 N1 1.999 1_454 S
Cu0 O6 1.974 1_454 S
Cu0 N11 1.985 . S
Cu0 O20 1.959 . S
N1 Cu0 1.999 1_656 S
N1 C3 1.263 . S
N1 C5 1.389 1_556 S
N2 C3 1.358 . S
N2 C4 1.400 . S
C3 N1 1.263 . S
C3 N2 1.358 . S
C3 H9 0.930 . S
C4 N2 1.400 . S
C4 C5 1.351 1_556 S
C4 H21 0.930 . S
C5 N1 1.389 1_554 S
C5 C4 1.351 1_554 S
C5 H10 0.930 . S
O6 Cu0 1.974 1_656 S
O6 C16 1.282 . S
C7 O8 1.261 . S
C7 O20 1.251 . S
O8 C7 1.261 . S
H9 C3 0.930 . S
H10 C5 0.930 . S
N11 Cu0 1.985 . S
N11 C13 1.335 . S
N11 C14 1.390 . S
N12 C13 1.345 . S
N12 C15 1.336 . S
C13 N11 1.335 . S
C13 N12 1.345 . S
C13 H18 0.930 . S
C14 N11 1.390 . S
C14 C15 1.346 . S
C14 H19 0.930 1_554 S
C15 N12 1.336 . S
C15 C14 1.346 . S
C15 H22 0.929 . S
C16 O6 1.282 . S
C16 O17 1.216 1_655 S
O17 C16 1.216 1_455 S
H18 C13 0.930 . S
H19 C14 0.930 1_556 S
O20 Cu0 1.959 . S
O20 C7 1.251 . S
H21 C4 0.930 . S
H22 C15 0.929 . S
Cu23 N24 1.999 . S
Cu23 O29 1.974 . S
Cu23 N34 1.985 1_565 S
Cu23 O43 1.959 1_565 S
N24 Cu23 1.999 . S
N24 C26 1.263 . S
N24 C28 1.389 . S
N25 C26 1.358 . S
N25 C27 1.400 . S
C26 N24 1.263 . S
C26 N25 1.358 . S
C26 H32 0.930 . S
C27 N25 1.400 . S
C27 C28 1.351 . S
C27 H44 0.930 . S
C28 N24 1.389 . S
C28 C27 1.351 . S
C28 H33 0.930 . S
O29 Cu23 1.974 . S
O29 C39 1.282 . S
C30 O31 1.261 . S
C30 O43 1.251 . S
O31 C30 1.261 . S
H32 C26 0.930 . S
H33 C28 0.930 . S
N34 Cu23 1.985 1_545 S
N34 C36 1.335 . S
N34 C37 1.390 . S
N35 C36 1.345 . S
N35 C38 1.336 . S
C36 N34 1.335 . S
C36 N35 1.345 . S
C36 H41 0.930 . S
C37 N34 1.390 . S
C37 C38 1.346 . S
C37 H42 0.930 . S
C38 N35 1.336 . S
C38 C37 1.346 . S
C38 H45 0.929 . S
C39 O29 1.282 . S
C39 O40 1.216 1_565 S
O40 C39 1.216 1_545 S
H41 C36 0.930 . S
H42 C37 0.930 . S
O43 Cu23 1.959 1_545 S
O43 C30 1.251 . S
H44 C27 0.930 . S
H45 C38 0.929 . S
Cu46 N47 1.999 1_554 S
Cu46 O52 1.974 1_554 S
Cu46 N57 1.985 . S
Cu46 O66 1.959 . S
N47 Cu46 1.999 1_556 S
N47 C49 1.263 . S
N47 C51 1.389 . S
N48 C49 1.358 . S
N48 C50 1.400 . S
C49 N47 1.263 . S
C49 N48 1.358 . S
C49 H55 0.930 . S
C50 N48 1.400 . S
C50 C51 1.351 . S
C50 H67 0.930 . S
C51 N47 1.389 . S
C51 C50 1.351 . S
C51 H56 0.930 . S
O52 Cu46 1.974 1_556 S
O52 C62 1.282 . S
C53 O54 1.261 . S
C53 O66 1.251 . S
O54 C53 1.261 . S
H55 C49 0.930 . S
H56 C51 0.930 . S
N57 Cu46 1.985 . S
N57 C59 1.335 . S
N57 C60 1.390 . S
N58 C59 1.345 . S
N58 C61 1.336 . S
C59 N57 1.335 . S
C59 N58 1.345 . S
C59 H64 0.930 . S
C60 N57 1.390 . S
C60 C61 1.346 . S
C60 H65 0.930 . S
C61 N58 1.336 . S
C61 C60 1.346 . S
C61 H68 0.929 . S
C62 O52 1.282 . S
C62 O63 1.216 1_556 S
O63 C62 1.216 1_554 S
H64 C59 0.930 . S
H65 C60 0.930 . S
O66 Cu46 1.959 . S
O66 C53 1.251 . S
H67 C50 0.930 . S
H68 C61 0.929 . S
Cu69 N70 1.999 1_655 S
Cu69 O75 1.974 1_655 S
Cu69 N80 1.985 . S
Cu69 O89 1.959 . S
N70 Cu69 1.999 1_455 S
N70 C72 1.263 . S
N70 C74 1.389 1_455 S
N71 C72 1.358 . S
N71 C73 1.400 . S
C72 N70 1.263 . S
C72 N71 1.358 . S
C72 H78 0.930 . S
C73 N71 1.400 . S
C73 C74 1.351 1_455 S
C73 H90 0.934 1_455 S
C74 N70 1.389 1_655 S
C74 C73 1.351 1_655 S
C74 H79 0.930 . S
O75 Cu69 1.974 1_455 S
O75 C85 1.282 . S
C76 O77 1.261 1_655 S
C76 O89 1.251 . S
O77 C76 1.261 1_455 S
H78 C72 0.930 . S
H79 C74 0.930 . S
N80 Cu69 1.985 . S
N80 C82 1.335 . S
N80 C83 1.390 . S
N81 C82 1.345 . S
N81 C84 1.336 . S
C82 N80 1.335 . S
C82 N81 1.345 . S
C82 H87 0.930 . S
C83 N80 1.390 . S
C83 C84 1.346 . S
C83 H88 0.930 1_655 S
C84 N81 1.336 . S
C84 C83 1.346 . S
C84 H91 0.929 . S
C85 O75 1.282 . S
C85 O86 1.216 . S
O86 C85 1.216 . S
H87 C82 0.930 . S
H88 C83 0.930 1_455 S
O89 Cu69 1.959 . S
O89 C76 1.251 . S
H90 C73 0.934 1_655 S
H91 C84 0.929 . S
Cu92 N93 1.999 . S
Cu92 O98 1.974 1_554 S
Cu92 N103 1.985 1_545 S
Cu92 O112 1.959 1_545 S
N93 Cu92 1.999 . S
N93 C95 1.263 1_554 S
N93 C97 1.389 . S
N94 C95 1.358 . S
N94 C96 1.400 . S
C95 N93 1.263 1_556 S
C95 N94 1.358 . S
C95 H101 0.930 . S
C96 N94 1.400 . S
C96 C97 1.351 1_556 S
C96 H113 0.931 . S
C97 N93 1.389 . S
C97 C96 1.351 1_554 S
C97 H102 0.930 . S
O98 Cu92 1.974 1_556 S
O98 C108 1.282 . S
C99 O100 1.261 . S
C99 O112 1.251 . S
O100 C99 1.261 . S
H101 C95 0.930 . S
H102 C97 0.930 . S
N103 Cu92 1.985 1_565 S
N103 C105 1.335 . S
N103 C106 1.390 . S
N104 C105 1.345 . S
N104 C107 1.336 . S
C105 N103 1.335 . S
C105 N104 1.345 . S
C105 H110 0.930 . S
C106 N103 1.390 . S
C106 C107 1.346 . S
C106 H111 0.930 . S
C107 N104 1.336 . S
C107 C106 1.346 . S
C107 H114 0.929 . S
C108 O98 1.282 . S
C108 O109 1.216 . S
O109 C108 1.216 . S
H110 C105 0.930 . S
H111 C106 0.930 . S
O112 Cu92 1.959 1_565 S
O112 C99 1.251 . S
H113 C96 0.931 . S
H114 C107 0.929 . S
Cu115 N116 1.999 . S
Cu115 O121 1.974 . S
Cu115 N126 1.985 . S
Cu115 O135 1.959 . S
N116 Cu115 1.999 . S
N116 C118 1.263 . S
N116 C120 1.389 . S
N117 C118 1.358 . S
N117 C119 1.400 . S
C118 N116 1.263 . S
C118 N117 1.358 . S
C118 H124 0.930 . S
C119 N117 1.400 . S
C119 C120 1.351 . S
C119 H136 0.930 . S
C120 N116 1.389 . S
C120 C119 1.351 . S
C120 H125 0.930 . S
O121 Cu115 1.974 . S
O121 C131 1.282 . S
C122 O123 1.261 . S
C122 O135 1.251 . S
O123 C122 1.261 . S
H124 C118 0.930 . S
H125 C120 0.930 . S
N126 Cu115 1.985 . S
N126 C128 1.335 . S
N126 C129 1.390 . S
N127 C128 1.345 . S
N127 C130 1.336 . S
C128 N126 1.335 . S
C128 N127 1.345 . S
C128 H133 0.930 . S
C129 N126 1.390 . S
C129 C130 1.346 . S
C129 H134 0.930 . S
C130 N127 1.336 . S
C130 C129 1.346 . S
C130 H137 0.929 . S
C131 O121 1.282 . S
C131 O132 1.216 . S
O132 C131 1.216 . S
H133 C128 0.930 . S
H134 C129 0.930 . S
O135 Cu115 1.959 . S
O135 C122 1.251 . S
H136 C119 0.930 . S
H137 C130 0.929 . S
C138 O140 1.247 . S
C138 O142 1.258 . S
C139 O146 1.247 . S
C139 O147 1.258 . S
O140 C138 1.247 . S
O140 Zn141 2.028 . S
Zn141 O140 2.028 . S
Zn141 O145 2.035 . S
Zn141 O147 2.035 . S
Zn141 O148 2.028 . S
O142 C138 1.258 . S
O142 Zn143 2.035 . S
Zn143 O142 2.035 . S
Zn143 O144 2.028 . S
Zn143 O146 2.028 . S
Zn143 O149 2.035 . S
O144 Zn143 2.028 . S
O144 C150 1.247 . S
O145 Zn141 2.035 . S
O145 C150 1.258 . S
O146 C139 1.247 . S
O146 Zn143 2.028 . S
O147 C139 1.258 . S
O147 Zn141 2.035 . S
O148 Zn141 2.028 . S
O148 C151 1.247 . S
O149 Zn143 2.035 . S
O149 C151 1.258 . S
C150 O144 1.247 . S
C150 O145 1.258 . S
C151 O148 1.247 . S
C151 O149 1.258 . S
C152 O154 1.247 . S
C152 O156 1.258 . S
C153 O160 1.247 . S
C153 O161 1.258 . S
O154 C152 1.247 . S
O154 Zn155 2.028 . S
Zn155 O154 2.028 . S
Zn155 O159 2.035 . S
Zn155 O161 2.035 . S
Zn155 O162 2.028 . S
O156 C152 1.258 . S
O156 Zn157 2.035 . S
Zn157 O156 2.035 . S
Zn157 O158 2.028 . S
Zn157 O160 2.028 . S
Zn157 O163 2.035 . S
O158 Zn157 2.028 . S
O158 C164 1.247 . S
O159 Zn155 2.035 . S
O159 C164 1.258 . S
O160 C153 1.247 . S
O160 Zn157 2.028 . S
O161 C153 1.258 . S
O161 Zn155 2.035 . S
O162 Zn155 2.028 . S
O162 C165 1.247 . S
O163 Zn157 2.035 . S
O163 C165 1.258 . S
C164 O158 1.247 . S
C164 O159 1.258 . S
C165 O162 1.247 . S
C165 O163 1.258 . S
C166 O168 1.247 . S
C166 O170 1.258 . S
C167 O174 1.247 . S
C167 O175 1.258 . S
O168 C166 1.247 . S
O168 Zn169 2.028 . S
Zn169 O168 2.028 . S
Zn169 O173 2.035 . S
Zn169 O175 2.035 . S
Zn169 O176 2.028 . S
O170 C166 1.258 . S
O170 Zn171 2.035 . S
Zn171 O170 2.035 . S
Zn171 O172 2.028 . S
Zn171 O174 2.028 . S
Zn171 O177 2.035 . S
O172 Zn171 2.028 . S
O172 C178 1.247 . S
O173 Zn169 2.035 . S
O173 C178 1.258 . S
O174 C167 1.247 . S
O174 Zn171 2.028 . S
O175 C167 1.258 . S
O175 Zn169 2.035 . S
O176 Zn169 2.028 . S
O176 C179 1.247 . S
O177 Zn171 2.035 . S
O177 C179 1.258 . S
C178 O172 1.247 . S
C178 O173 1.258 . S
C179 O176 1.247 . S
C179 O177 1.258 . S
C180 O182 1.247 . S
C180 O184 1.258 . S
C181 O188 1.247 . S
C181 O189 1.258 . S
O182 C180 1.247 . S
O182 Zn183 2.028 . S
Zn183 O182 2.028 . S
Zn183 O187 2.035 . S
Zn183 O189 2.035 . S
Zn183 O190 2.028 . S
O184 C180 1.258 . S
O184 Zn185 2.035 . S
Zn185 O184 2.035 . S
Zn185 O186 2.028 . S
Zn185 O188 2.028 . S
Zn185 O191 2.035 . S
O186 Zn185 2.028 . S
O186 C192 1.247 . S
O187 Zn183 2.035 . S
O187 C192 1.258 . S
O188 C181 1.247 . S
O188 Zn185 2.028 . S
O189 C181 1.258 . S
O189 Zn183 2.035 . S
O190 Zn183 2.028 . S
O190 C193 1.247 . S
O191 Zn185 2.035 . S
O191 C193 1.258 . S
C192 O186 1.247 . S
C192 O187 1.258 . S
C193 O190 1.247 . S
C193 O191 1.258 . S
C194 O196 1.247 . S
C194 O198 1.258 . S
C195 O202 1.247 . S
C195 O203 1.258 . S
O196 C194 1.247 . S
O196 Zn197 2.028 . S
Zn197 O196 2.028 . S
Zn197 O201 2.035 . S
Zn197 O203 2.035 . S
Zn197 O204 2.028 . S
O198 C194 1.258 . S
O198 Zn199 2.035 . S
Zn199 O198 2.035 . S
Zn199 O200 2.028 . S
Zn199 O202 2.028 . S
Zn199 O205 2.035 . S
O200 Zn199 2.028 . S
O200 C206 1.247 . S
O201 Zn197 2.035 . S
O201 C206 1.258 . S
O202 C195 1.247 . S
O202 Zn199 2.028 . S
O203 C195 1.258 . S
O203 Zn197 2.035 . S
O204 Zn197 2.028 . S
O204 C207 1.247 . S
O205 Zn199 2.035 . S
O205 C207 1.258 . S
C206 O200 1.247 . S
C206 O201 1.258 . S
C207 O204 1.247 . S
C207 O205 1.258 . S
C208 O210 1.247 . S
C208 O212 1.258 . S
C209 O216 1.247 . S
C209 O217 1.258 . S
O210 C208 1.247 . S
O210 Zn211 2.028 . S
Zn211 O210 2.028 . S
Zn211 O215 2.035 . S
Zn211 O217 2.035 . S
Zn211 O218 2.028 . S
O212 C208 1.258 . S
O212 Zn213 2.035 . S
Zn213 O212 2.035 . S
Zn213 O214 2.028 . S
Zn213 O216 2.028 . S
Zn213 O219 2.035 . S
O214 Zn213 2.028 . S
O214 C220 1.247 . S
O215 Zn211 2.035 . S
O215 C220 1.258 . S
O216 C209 1.247 . S
O216 Zn213 2.028 . S
O217 C209 1.258 . S
O217 Zn211 2.035 . S
O218 Zn211 2.028 . S
O218 C221 1.247 . S
O219 Zn213 2.035 . S
O219 C221 1.258 . S
C220 O214 1.247 . S
C220 O215 1.258 . S
C221 O218 1.247 . S
C221 O219 1.258 . S
C222 C223 1.349 . S
C222 C224 1.327 . S
C222 H247 0.950 . S
C223 C222 1.349 . S
C223 C239 1.349 . S
C224 C222 1.327 . S
C224 C243 1.429 . S
C224 H248 0.950 . S
C225 C242 1.574 . S
C225 C244 1.368 . S
C225 H249 0.949 . S
H226 C230 0.949 . S
C227 C228 1.349 . S
C227 C229 1.327 . S
C227 H250 0.950 . S
C228 C227 1.349 . S
C228 C240 1.349 . S
C229 C227 1.327 . S
C229 C245 1.429 . S
C229 H251 0.950 . S
C230 H226 0.949 . S
C230 C238 1.574 . S
C230 C246 1.368 . S
H231 C239 0.950 . S
H232 C237 0.950 . S
H233 C238 0.949 . S
H234 C240 0.950 . S
H235 C241 0.950 . S
H236 C242 0.949 . S
C237 H232 0.950 . S
C237 C239 1.327 . S
C237 C243 1.429 . S
C238 C230 1.574 . S
C238 H233 0.949 . S
C238 C244 1.368 . S
C239 C223 1.349 . S
C239 H231 0.950 . S
C239 C237 1.327 . S
C240 C228 1.349 . S
C240 H234 0.950 . S
C240 C241 1.327 . S
C241 H235 0.950 . S
C241 C240 1.327 . S
C241 C245 1.429 . S
C242 C225 1.574 . S
C242 H236 0.949 . S
C242 C246 1.368 . S
C243 C224 1.429 . S
C243 C237 1.429 . S
C243 C244 1.523 . S
C244 C225 1.368 . S
C244 C238 1.368 . S
C244 C243 1.523 . S
C245 C229 1.429 . S
C245 C241 1.429 . S
C245 C246 1.523 . S
C246 C230 1.368 . S
C246 C242 1.368 . S
C246 C245 1.523 . S
H247 C222 0.950 . S
H248 C224 0.950 . S
H249 C225 0.949 . S
H250 C227 0.950 . S
H251 C229 0.950 . S
C252 C253 1.349 . S
C252 C254 1.327 . S
C252 H277 0.950 . S
C253 C252 1.349 . S
C253 C269 1.349 . S
C254 C252 1.327 . S
C254 C273 1.429 . S
C254 H278 0.950 . S
C255 C272 1.574 . S
C255 C274 1.368 . S
C255 H279 0.949 . S
H256 C260 0.949 . S
C257 C258 1.349 . S
C257 C259 1.327 . S
C257 H280 0.950 . S
C258 C257 1.349 . S
C258 C270 1.349 . S
C259 C257 1.327 . S
C259 C275 1.429 . S
C259 H281 0.950 . S
C260 H256 0.949 . S
C260 C268 1.574 . S
C260 C276 1.368 . S
H261 C269 0.950 . S
H262 C267 0.950 . S
H263 C268 0.949 . S
H264 C270 0.950 . S
H265 C271 0.950 . S
H266 C272 0.949 . S
C267 H262 0.950 . S
C267 C269 1.327 . S
C267 C273 1.429 . S
C268 C260 1.574 . S
C268 H263 0.949 . S
C268 C274 1.368 . S
C269 C253 1.349 . S
C269 H261 0.950 . S
C269 C267 1.327 . S
C270 C258 1.349 . S
C270 H264 0.950 . S
C270 C271 1.327 . S
C271 H265 0.950 . S
C271 C270 1.327 . S
C271 C275 1.429 . S
C272 C255 1.574 . S
C272 H266 0.949 . S
C272 C276 1.368 . S
C273 C254 1.429 . S
C273 C267 1.429 . S
C273 C274 1.523 . S
C274 C255 1.368 . S
C274 C268 1.368 . S
C274 C273 1.523 . S
C275 C259 1.429 . S
C275 C271 1.429 . S
C275 C276 1.523 . S
C276 C260 1.368 . S
C276 C272 1.368 . S
C276 C275 1.523 . S
H277 C252 0.950 . S
H278 C254 0.950 . S
H279 C255 0.949 . S
H280 C257 0.950 . S
H281 C259 0.950 . S
C282 C283 1.349 . S
C282 C284 1.327 . S
C282 H307 0.950 . S
C283 C282 1.349 . S
C283 C299 1.349 . S
C284 C282 1.327 . S
C284 C303 1.429 . S
C284 H308 0.950 . S
C285 C302 1.574 . S
C285 C304 1.368 . S
C285 H309 0.949 . S
H286 C290 0.949 . S
C287 C288 1.349 . S
C287 C289 1.327 . S
C287 H310 0.950 . S
C288 C287 1.349 . S
C288 C300 1.349 . S
C289 C287 1.327 . S
C289 C305 1.429 . S
C289 H311 0.950 . S
C290 H286 0.949 . S
C290 C298 1.574 . S
C290 C306 1.368 . S
H291 C299 0.950 . S
H292 C297 0.950 . S
H293 C298 0.949 . S
H294 C300 0.950 . S
H295 C301 0.950 . S
H296 C302 0.949 . S
C297 H292 0.950 . S
C297 C299 1.327 . S
C297 C303 1.429 . S
C298 C290 1.574 . S
C298 H293 0.949 . S
C298 C304 1.368 . S
C299 C283 1.349 . S
C299 H291 0.950 . S
C299 C297 1.327 . S
C300 C288 1.349 . S
C300 H294 0.950 . S
C300 C301 1.327 . S
C301 H295 0.950 . S
C301 C300 1.327 . S
C301 C305 1.429 . S
C302 C285 1.574 . S
C302 H296 0.949 . S
C302 C306 1.368 . S
C303 C284 1.429 . S
C303 C297 1.429 . S
C303 C304 1.523 . S
C304 C285 1.368 . S
C304 C298 1.368 . S
C304 C303 1.523 . S
C305 C289 1.429 . S
C305 C301 1.429 . S
C305 C306 1.523 . S
C306 C290 1.368 . S
C306 C302 1.368 . S
C306 C305 1.523 . S
H307 C282 0.950 . S
H308 C284 0.950 . S
H309 C285 0.949 . S
H310 C287 0.950 . S
H311 C289 0.950 . S
C312 C313 1.349 . S
C312 C314 1.327 . S
C312 H337 0.950 . S
C313 C312 1.349 . S
C313 C329 1.349 . S
C314 C312 1.327 . S
C314 C333 1.429 . S
C314 H338 0.950 . S
C315 C332 1.574 . S
C315 C334 1.368 . S
C315 H339 0.949 . S
H316 C320 0.949 . S
C317 C318 1.349 . S
C317 C319 1.327 . S
C317 H340 0.950 . S
C318 C317 1.349 . S
C318 C330 1.349 . S
C319 C317 1.327 . S
C319 C335 1.429 . S
C319 H341 0.950 . S
C320 H316 0.949 . S
C320 C328 1.574 . S
C320 C336 1.368 . S
H321 C329 0.950 . S
H322 C327 0.950 . S
H323 C328 0.949 . S
H324 C330 0.950 . S
H325 C331 0.950 . S
H326 C332 0.949 . S
C327 H322 0.950 . S
C327 C329 1.327 . S
C327 C333 1.429 . S
C328 C320 1.574 . S
C328 H323 0.949 . S
C328 C334 1.368 . S
C329 C313 1.349 . S
C329 H321 0.950 . S
C329 C327 1.327 . S
C330 C318 1.349 . S
C330 H324 0.950 . S
C330 C331 1.327 . S
C331 H325 0.950 . S
C331 C330 1.327 . S
C331 C335 1.429 . S
C332 C315 1.574 . S
C332 H326 0.949 . S
C332 C336 1.368 . S
C333 C314 1.429 . S
C333 C327 1.429 . S
C333 C334 1.523 . S
C334 C315 1.368 . S
C334 C328 1.368 . S
C334 C333 1.523 . S
C335 C319 1.429 . S
C335 C331 1.429 . S
C335 C336 1.523 . S
C336 C320 1.368 . S
C336 C332 1.368 . S
C336 C335 1.523 . S
H337 C312 0.950 . S
H338 C314 0.950 . S
H339 C315 0.949 . S
H340 C317 0.950 . S
H341 C319 0.950 . S
C342 C343 1.349 . S
C342 C344 1.327 . S
C342 H367 0.950 . S
C343 C342 1.349 . S
C343 C359 1.349 . S
C344 C342 1.327 . S
C344 C363 1.429 . S
C344 H368 0.950 . S
C345 C362 1.574 . S
C345 C364 1.368 . S
C345 H369 0.949 . S
H346 C350 0.949 . S
C347 C348 1.349 . S
C347 C349 1.327 . S
C347 H370 0.950 . S
C348 C347 1.349 . S
C348 C360 1.349 . S
C349 C347 1.327 . S
C349 C365 1.429 . S
C349 H371 0.950 . S
C350 H346 0.949 . S
C350 C358 1.574 . S
C350 C366 1.368 . S
H351 C359 0.950 . S
H352 C357 0.950 . S
H353 C358 0.949 . S
H354 C360 0.950 . S
H355 C361 0.950 . S
H356 C362 0.949 . S
C357 H352 0.950 . S
C357 C359 1.327 . S
C357 C363 1.429 . S
C358 C350 1.574 . S
C358 H353 0.949 . S
C358 C364 1.368 . S
C359 C343 1.349 . S
C359 H351 0.950 . S
C359 C357 1.327 . S
C360 C348 1.349 . S
C360 H354 0.950 . S
C360 C361 1.327 . S
C361 H355 0.950 . S
C361 C360 1.327 . S
C361 C365 1.429 . S
C362 C345 1.574 . S
C362 H356 0.949 . S
C362 C366 1.368 . S
C363 C344 1.429 . S
C363 C357 1.429 . S
C363 C364 1.523 . S
C364 C345 1.368 . S
C364 C358 1.368 . S
C364 C363 1.523 . S
C365 C349 1.429 . S
C365 C361 1.429 . S
C365 C366 1.523 . S
C366 C350 1.368 . S
C366 C362 1.368 . S
C366 C365 1.523 . S
H367 C342 0.950 . S
H368 C344 0.950 . S
H369 C345 0.949 . S
H370 C347 0.950 . S
H371 C349 0.950 . S
C372 C373 1.349 . S
C372 C374 1.327 . S
C372 H397 0.950 . S
C373 C372 1.349 . S
C373 C389 1.349 . S
C374 C372 1.327 . S
C374 C393 1.429 . S
C374 H398 0.950 . S
C375 C392 1.574 . S
C375 C394 1.368 . S
C375 H399 0.949 . S
H376 C380 0.949 . S
C377 C378 1.349 . S
C377 C379 1.327 . S
C377 H400 0.950 . S
C378 C377 1.349 . S
C378 C390 1.349 . S
C379 C377 1.327 . S
C379 C395 1.429 . S
C379 H401 0.950 . S
C380 H376 0.949 . S
C380 C388 1.574 . S
C380 C396 1.368 . S
H381 C389 0.950 . S
H382 C387 0.950 . S
H383 C388 0.949 . S
H384 C390 0.950 . S
H385 C391 0.950 . S
H386 C392 0.949 . S
C387 H382 0.950 . S
C387 C389 1.327 . S
C387 C393 1.429 . S
C388 C380 1.574 . S
C388 H383 0.949 . S
C388 C394 1.368 . S
C389 C373 1.349 . S
C389 H381 0.950 . S
C389 C387 1.327 . S
C390 C378 1.349 . S
C390 H384 0.950 . S
C390 C391 1.327 . S
C391 H385 0.950 . S
C391 C390 1.327 . S
C391 C395 1.429 . S
C392 C375 1.574 . S
C392 H386 0.949 . S
C392 C396 1.368 . S
C393 C374 1.429 . S
C393 C387 1.429 . S
C393 C394 1.523 . S
C394 C375 1.368 . S
C394 C388 1.368 . S
C394 C393 1.523 . S
C395 C379 1.429 . S
C395 C391 1.429 . S
C395 C396 1.523 . S
C396 C380 1.368 . S
C396 C392 1.368 . S
C396 C395 1.523 . S
H397 C372 0.950 . S
H398 C374 0.950 . S
H399 C375 0.949 . S
H400 C377 0.950 . S
H401 C379 0.950 . S
C402 C403 1.349 . S
C402 C404 1.327 . S
C402 H427 0.950 . S
C403 C402 1.349 . S
C403 C419 1.349 . S
C404 C402 1.327 . S
C404 C423 1.429 . S
C404 H428 0.950 . S
C405 C422 1.574 . S
C405 C424 1.368 . S
C405 H429 0.949 . S
H406 C410 0.949 . S
C407 C408 1.349 . S
C407 C409 1.327 . S
C407 H430 0.950 . S
C408 C407 1.349 . S
C408 C420 1.349 . S
C409 C407 1.327 . S
C409 C425 1.429 . S
C409 H431 0.950 . S
C410 H406 0.949 . S
C410 C418 1.574 . S
C410 C426 1.368 . S
H411 C419 0.950 . S
H412 C417 0.950 . S
H413 C418 0.949 . S
H414 C420 0.950 . S
H415 C421 0.950 . S
H416 C422 0.949 . S
C417 H412 0.950 . S
C417 C419 1.327 . S
C417 C423 1.429 . S
C418 C410 1.574 . S
C418 H413 0.949 . S
C418 C424 1.368 . S
C419 C403 1.349 . S
C419 H411 0.950 . S
C419 C417 1.327 . S
C420 C408 1.349 . S
C420 H414 0.950 . S
C420 C421 1.327 . S
C421 H415 0.950 . S
C421 C420 1.327 . S
C421 C425 1.429 . S
C422 C405 1.574 . S
C422 H416 0.949 . S
C422 C426 1.368 . S
C423 C404 1.429 . S
C423 C417 1.429 . S
C423 C424 1.523 . S
C424 C405 1.368 . S
C424 C418 1.368 . S
C424 C423 1.523 . S
C425 C409 1.429 . S
C425 C421 1.429 . S
C425 C426 1.523 . S
C426 C410 1.368 . S
C426 C422 1.368 . S
C426 C425 1.523 . S
H427 C402 0.950 . S
H428 C404 0.950 . S
H429 C405 0.949 . S
H430 C407 0.950 . S
H431 C409 0.950 . S
C432 C433 1.349 . S
C432 C434 1.327 . S
C432 H457 0.950 . S
C433 C432 1.349 . S
C433 C449 1.349 . S
C434 C432 1.327 . S
C434 C453 1.429 . S
C434 H458 0.950 . S
C435 C452 1.574 . S
C435 C454 1.368 . S
C435 H459 0.949 . S
H436 C440 0.949 . S
C437 C438 1.349 . S
C437 C439 1.327 . S
C437 H460 0.950 . S
C438 C437 1.349 . S
C438 C450 1.349 . S
C439 C437 1.327 . S
C439 C455 1.429 . S
C439 H461 0.950 . S
C440 H436 0.949 . S
C440 C448 1.574 . S
C440 C456 1.368 . S
H441 C449 0.950 . S
H442 C447 0.950 . S
H443 C448 0.949 . S
H444 C450 0.950 . S
H445 C451 0.950 . S
H446 C452 0.949 . S
C447 H442 0.950 . S
C447 C449 1.327 . S
C447 C453 1.429 . S
C448 C440 1.574 . S
C448 H443 0.949 . S
C448 C454 1.368 . S
C449 C433 1.349 . S
C449 H441 0.950 . S
C449 C447 1.327 . S
C450 C438 1.349 . S
C450 H444 0.950 . S
C450 C451 1.327 . S
C451 H445 0.950 . S
C451 C450 1.327 . S
C451 C455 1.429 . S
C452 C435 1.574 . S
C452 H446 0.949 . S
C452 C456 1.368 . S
C453 C434 1.429 . S
C453 C447 1.429 . S
C453 C454 1.523 . S
C454 C435 1.368 . S
C454 C448 1.368 . S
C454 C453 1.523 . S
C455 C439 1.429 . S
C455 C451 1.429 . S
C455 C456 1.523 . S
C456 C440 1.368 . S
C456 C452 1.368 . S
C456 C455 1.523 . S
H457 C432 0.950 . S
H458 C434 0.950 . S
H459 C435 0.949 . S
H460 C437 0.950 . S
H461 C439 0.950 . S
C462 C463 1.349 . S
C462 C464 1.327 . S
C462 H487 0.950 . S
C463 C462 1.349 . S
C463 C479 1.349 . S
C464 C462 1.327 . S
C464 C483 1.429 . S
C464 H488 0.950 . S
C465 C482 1.574 . S
C465 C484 1.368 . S
C465 H489 0.949 . S
H466 C470 0.949 . S
C467 C468 1.349 . S
C467 C469 1.327 . S
C467 H490 0.950 . S
C468 C467 1.349 . S
C468 C480 1.349 . S
C469 C467 1.327 . S
C469 C485 1.429 . S
C469 H491 0.950 . S
C470 H466 0.949 . S
C470 C478 1.574 . S
C470 C486 1.368 . S
H471 C479 0.950 . S
H472 C477 0.950 . S
H473 C478 0.949 . S
H474 C480 0.950 . S
H475 C481 0.950 . S
H476 C482 0.949 . S
C477 H472 0.950 . S
C477 C479 1.327 . S
C477 C483 1.429 . S
C478 C470 1.574 . S
C478 H473 0.949 . S
C478 C484 1.368 . S
C479 C463 1.349 . S
C479 H471 0.950 . S
C479 C477 1.327 . S
C480 C468 1.349 . S
C480 H474 0.950 . S
C480 C481 1.327 . S
C481 H475 0.950 . S
C481 C480 1.327 . S
C481 C485 1.429 . S
C482 C465 1.574 . S
C482 H476 0.949 . S
C482 C486 1.368 . S
C483 C464 1.429 . S
C483 C477 1.429 . S
C483 C484 1.523 . S
C484 C465 1.368 . S
C484 C478 1.368 . S
C484 C483 1.523 . S
C485 C469 1.429 . S
C485 C481 1.429 . S
C485 C486 1.523 . S
C486 C470 1.368 . S
C486 C482 1.368 . S
C486 C485 1.523 . S
H487 C462 0.950 . S
H488 C464 0.950 . S
H489 C465 0.949 . S
H490 C467 0.950 . S
H491 C469 0.950 . S
C492 C493 1.349 . S
C492 C494 1.327 . S
C492 H517 0.950 . S
C493 C492 1.349 . S
C493 C509 1.349 . S
C494 C492 1.327 . S
C494 C513 1.429 . S
C494 H518 0.950 . S
C495 C512 1.574 . S
C495 C514 1.368 . S
C495 H519 0.949 . S
H496 C500 0.949 . S
C497 C498 1.349 . S
C497 C499 1.327 . S
C497 H520 0.950 . S
C498 C497 1.349 . S
C498 C510 1.349 . S
C499 C497 1.327 . S
C499 C515 1.429 . S
C499 H521 0.950 . S
C500 H496 0.949 . S
C500 C508 1.574 . S
C500 C516 1.368 . S
H501 C509 0.950 . S
H502 C507 0.950 . S
H503 C508 0.949 . S
H504 C510 0.950 . S
H505 C511 0.950 . S
H506 C512 0.949 . S
C507 H502 0.950 . S
C507 C509 1.327 . S
C507 C513 1.429 . S
C508 C500 1.574 . S
C508 H503 0.949 . S
C508 C514 1.368 . S
C509 C493 1.349 . S
C509 H501 0.950 . S
C509 C507 1.327 . S
C510 C498 1.349 . S
C510 H504 0.950 . S
C510 C511 1.327 . S
C511 H505 0.950 . S
C511 C510 1.327 . S
C511 C515 1.429 . S
C512 C495 1.574 . S
C512 H506 0.949 . S
C512 C516 1.368 . S
C513 C494 1.429 . S
C513 C507 1.429 . S
C513 C514 1.523 . S
C514 C495 1.368 . S
C514 C508 1.368 . S
C514 C513 1.523 . S
C515 C499 1.429 . S
C515 C511 1.429 . S
C515 C516 1.523 . S
C516 C500 1.368 . S
C516 C512 1.368 . S
C516 C515 1.523 . S
H517 C492 0.950 . S
H518 C494 0.950 . S
H519 C495 0.949 . S
H520 C497 0.950 . S
H521 C499 0.950 . S
C522 C523 1.349 . S
C522 C524 1.327 . S
C522 H547 0.950 . S
C523 C522 1.349 . S
C523 C539 1.349 . S
C524 C522 1.327 . S
C524 C543 1.429 . S
C524 H548 0.950 . S
C525 C542 1.574 . S
C525 C544 1.368 . S
C525 H549 0.949 . S
H526 C530 0.949 . S
C527 C528 1.349 . S
C527 C529 1.327 . S
C527 H550 0.950 . S
C528 C527 1.349 . S
C528 C540 1.349 . S
C529 C527 1.327 . S
C529 C545 1.429 . S
C529 H551 0.950 . S
C530 H526 0.949 . S
C530 C538 1.574 . S
C530 C546 1.368 . S
H531 C539 0.950 . S
H532 C537 0.950 . S
H533 C538 0.949 . S
H534 C540 0.950 . S
H535 C541 0.950 . S
H536 C542 0.949 . S
C537 H532 0.950 . S
C537 C539 1.327 . S
C537 C543 1.429 . S
C538 C530 1.574 . S
C538 H533 0.949 . S
C538 C544 1.368 . S
C539 C523 1.349 . S
C539 H531 0.950 . S
C539 C537 1.327 . S
C540 C528 1.349 . S
C540 H534 0.950 . S
C540 C541 1.327 . S
C541 H535 0.950 . S
C541 C540 1.327 . S
C541 C545 1.429 . S
C542 C525 1.574 . S
C542 H536 0.949 . S
C542 C546 1.368 . S
C543 C524 1.429 . S
C543 C537 1.429 . S
C543 C544 1.523 . S
C544 C525 1.368 . S
C544 C538 1.368 . S
C544 C543 1.523 . S
C545 C529 1.429 . S
C545 C541 1.429 . S
C545 C546 1.523 . S
C546 C530 1.368 . S
C546 C542 1.368 . S
C546 C545 1.523 . S
H547 C522 0.950 . S
H548 C524 0.950 . S
H549 C525 0.949 . S
H550 C527 0.950 . S
H551 C529 0.950 . S
C552 C553 1.349 . S
C552 C554 1.327 . S
C552 H577 0.950 . S
C553 C552 1.349 . S
C553 C569 1.349 . S
C554 C552 1.327 . S
C554 C573 1.429 . S
C554 H578 0.950 . S
C555 C572 1.574 . S
C555 C574 1.368 . S
C555 H579 0.949 . S
H556 C560 0.949 . S
C557 C558 1.349 . S
C557 C559 1.327 . S
C557 H580 0.950 . S
C558 C557 1.349 . S
C558 C570 1.349 . S
C559 C557 1.327 . S
C559 C575 1.429 . S
C559 H581 0.950 . S
C560 H556 0.949 . S
C560 C568 1.574 . S
C560 C576 1.368 . S
H561 C569 0.950 . S
H562 C567 0.950 . S
H563 C568 0.949 . S
H564 C570 0.950 . S
H565 C571 0.950 . S
H566 C572 0.949 . S
C567 H562 0.950 . S
C567 C569 1.327 . S
C567 C573 1.429 . S
C568 C560 1.574 . S
C568 H563 0.949 . S
C568 C574 1.368 . S
C569 C553 1.349 . S
C569 H561 0.950 . S
C569 C567 1.327 . S
C570 C558 1.349 . S
C570 H564 0.950 . S
C570 C571 1.327 . S
C571 H565 0.950 . S
C571 C570 1.327 . S
C571 C575 1.429 . S
C572 C555 1.574 . S
C572 H566 0.949 . S
C572 C576 1.368 . S
C573 C554 1.429 . S
C573 C567 1.429 . S
C573 C574 1.523 . S
C574 C555 1.368 . S
C574 C568 1.368 . S
C574 C573 1.523 . S
C575 C559 1.429 . S
C575 C571 1.429 . S
C575 C576 1.523 . S
C576 C560 1.368 . S
C576 C572 1.368 . S
C576 C575 1.523 . S
H577 C552 0.950 . S
H578 C554 0.950 . S
H579 C555 0.949 . S
H580 C557 0.950 . S
H581 C559 0.950 . S
C582 C583 1.349 . S
C582 C584 1.327 . S
C582 H607 0.950 . S
C583 C582 1.349 . S
C583 C599 1.349 . S
C584 C582 1.327 . S
C584 C603 1.429 . S
C584 H608 0.950 . S
C585 C602 1.574 . S
C585 C604 1.368 . S
C585 H609 0.949 . S
H586 C590 0.949 . S
C587 C588 1.349 . S
C587 C589 1.327 . S
C587 H610 0.950 . S
C588 C587 1.349 . S
C588 C600 1.349 . S
C589 C587 1.327 . S
C589 C605 1.429 . S
C589 H611 0.950 . S
C590 H586 0.949 . S
C590 C598 1.574 . S
C590 C606 1.368 . S
H591 C599 0.982 . S
H592 C597 0.950 . S
H593 C598 0.949 . S
H594 C600 0.950 . S
H595 C601 0.950 . S
H596 C602 0.949 . S
C597 H592 0.950 . S
C597 C599 1.327 . S
C597 C603 1.429 . S
C598 C590 1.574 . S
C598 H593 0.949 . S
C598 C604 1.368 . S
C599 C583 1.349 . S
C599 H591 0.982 . S
C599 C597 1.327 . S
C600 C588 1.349 . S
C600 H594 0.950 . S
C600 C601 1.327 . S
C601 H595 0.950 . S
C601 C600 1.327 . S
C601 C605 1.429 . S
C602 C585 1.574 . S
C602 H596 0.949 . S
C602 C606 1.368 . S
C603 C584 1.429 . S
C603 C597 1.429 . S
C603 C604 1.523 . S
C604 C585 1.368 . S
C604 C598 1.368 . S
C604 C603 1.523 . S
C605 C589 1.429 . S
C605 C601 1.429 . S
C605 C606 1.523 . S
C606 C590 1.368 . S
C606 C602 1.368 . S
C606 C605 1.523 . S
H607 C582 0.950 . S
H608 C584 0.950 . S
H609 C585 0.949 . S
H610 C587 0.950 . S
H611 C589 0.950 . S
C612 C613 1.349 . S
C612 C614 1.327 . S
C612 H637 0.950 . S
C613 C612 1.349 . S
C613 C629 1.349 . S
C614 C612 1.327 . S
C614 C633 1.429 . S
C614 H638 0.950 . S
C615 C632 1.574 . S
C615 C634 1.368 . S
C615 H639 0.949 . S
H616 C620 0.949 . S
C617 C618 1.349 . S
C617 C619 1.327 . S
C617 H640 0.950 . S
C618 C617 1.349 . S
C618 C630 1.349 . S
C619 C617 1.327 . S
C619 C635 1.429 . S
C619 H641 0.950 . S
C620 H616 0.949 . S
C620 C628 1.574 . S
C620 C636 1.368 . S
H621 C629 0.950 . S
H622 C627 0.950 . S
H623 C628 0.949 . S
H624 C630 0.950 . S
H625 C631 0.950 . S
H626 C632 0.949 . S
C627 H622 0.950 . S
C627 C629 1.327 . S
C627 C633 1.429 . S
C628 C620 1.574 . S
C628 H623 0.949 . S
C628 C634 1.368 . S
C629 C613 1.349 . S
C629 H621 0.950 . S
C629 C627 1.327 . S
C630 C618 1.349 . S
C630 H624 0.950 . S
C630 C631 1.327 . S
C631 H625 0.950 . S
C631 C630 1.327 . S
C631 C635 1.429 . S
C632 C615 1.574 . S
C632 H626 0.949 . S
C632 C636 1.368 . S
C633 C614 1.429 . S
C633 C627 1.429 . S
C633 C634 1.523 . S
C634 C615 1.368 . S
C634 C628 1.368 . S
C634 C633 1.523 . S
C635 C619 1.429 . S
C635 C631 1.429 . S
C635 C636 1.523 . S
C636 C620 1.368 . S
C636 C632 1.368 . S
C636 C635 1.523 . S
H637 C612 0.950 . S
H638 C614 0.950 . S
H639 C615 0.949 . S
H640 C617 0.950 . S
H641 C619 0.950 . S
C642 C643 1.349 . S
C642 C644 1.327 . S
C642 H667 0.950 . S
C643 C642 1.349 . S
C643 C659 1.349 . S
C644 C642 1.327 . S
C644 C663 1.429 . S
C644 H668 0.950 . S
C645 C662 1.574 . S
C645 C664 1.368 . S
C645 H669 0.949 . S
H646 C650 0.949 . S
C647 C648 1.349 . S
C647 C649 1.327 . S
C647 H670 0.950 . S
C648 C647 1.349 . S
C648 C660 1.349 . S
C649 C647 1.327 . S
C649 C665 1.429 . S
C649 H671 0.950 . S
C650 H646 0.949 . S
C650 C658 1.574 . S
C650 C666 1.368 . S
H651 C659 0.950 . S
H652 C657 0.950 . S
H653 C658 0.949 . S
H654 C660 0.950 . S
H655 C661 0.950 . S
H656 C662 0.949 . S
C657 H652 0.950 . S
C657 C659 1.327 . S
C657 C663 1.429 . S
C658 C650 1.574 . S
C658 H653 0.949 . S
C658 C664 1.368 . S
C659 C643 1.349 . S
C659 H651 0.950 . S
C659 C657 1.327 . S
C660 C648 1.349 . S
C660 H654 0.950 . S
C660 C661 1.327 . S
C661 H655 0.950 . S
C661 C660 1.327 . S
C661 C665 1.429 . S
C662 C645 1.574 . S
C662 H656 0.949 . S
C662 C666 1.368 . S
C663 C644 1.429 . S
C663 C657 1.429 . S
C663 C664 1.523 . S
C664 C645 1.368 . S
C664 C658 1.368 . S
C664 C663 1.523 . S
C665 C649 1.429 . S
C665 C661 1.429 . S
C665 C666 1.523 . S
C666 C650 1.368 . S
C666 C662 1.368 . S
C666 C665 1.523 . S
H667 C642 0.950 . S
H668 C644 0.950 . S
H669 C645 0.949 . S
H670 C647 0.950 . S
H671 C649 0.950 . S
C672 C673 1.349 . S
C672 C674 1.327 . S
C672 H697 0.950 . S
C673 C672 1.349 . S
C673 C689 1.349 . S
C674 C672 1.327 . S
C674 C693 1.429 . S
C674 H698 0.950 . S
C675 C692 1.574 . S
C675 C694 1.368 . S
C675 H699 0.949 . S
H676 C680 0.949 . S
C677 C678 1.349 . S
C677 C679 1.327 . S
C677 H700 0.950 . S
C678 C677 1.349 . S
C678 C690 1.349 . S
C679 C677 1.327 . S
C679 C695 1.429 . S
C679 H701 0.950 . S
C680 H676 0.949 . S
C680 C688 1.574 . S
C680 C696 1.368 . S
H681 C689 0.950 . S
H682 C687 0.950 . S
H683 C688 0.949 . S
H684 C690 0.950 . S
H685 C691 0.950 . S
H686 C692 0.949 . S
C687 H682 0.950 . S
C687 C689 1.327 . S
C687 C693 1.429 . S
C688 C680 1.574 . S
C688 H683 0.949 . S
C688 C694 1.368 . S
C689 C673 1.349 . S
C689 H681 0.950 . S
C689 C687 1.327 . S
C690 C678 1.349 . S
C690 H684 0.950 . S
C690 C691 1.327 . S
C691 H685 0.950 . S
C691 C690 1.327 . S
C691 C695 1.429 . S
C692 C675 1.574 . S
C692 H686 0.949 . S
C692 C696 1.368 . S
C693 C674 1.429 . S
C693 C687 1.429 . S
C693 C694 1.523 . S
C694 C675 1.368 . S
C694 C688 1.368 . S
C694 C693 1.523 . S
C695 C679 1.429 . S
C695 C691 1.429 . S
C695 C696 1.523 . S
C696 C680 1.368 . S
C696 C692 1.368 . S
C696 C695 1.523 . S
H697 C672 0.950 . S
H698 C674 0.950 . S
H699 C675 0.949 . S
H700 C677 0.950 . S
H701 C679 0.950 . S
C702 C703 1.349 . S
C702 C704 1.327 . S
C702 H727 0.950 . S
C703 C702 1.349 . S
C703 C719 1.349 . S
C704 C702 1.327 . S
C704 C723 1.429 . S
C704 H728 0.950 . S
C705 C722 1.574 . S
C705 C724 1.368 . S
C705 H729 0.949 . S
H706 C710 0.949 . S
C707 C708 1.349 . S
C707 C709 1.327 . S
C707 H730 0.950 . S
C708 C707 1.349 . S
C708 C720 1.349 . S
C709 C707 1.327 . S
C709 C725 1.429 . S
C709 H731 0.950 . S
C710 H706 0.949 . S
C710 C718 1.574 . S
C710 C726 1.368 . S
H711 C719 0.950 . S
H712 C717 0.950 . S
H713 C718 0.949 . S
H714 C720 0.950 . S
H715 C721 0.950 . S
H716 C722 0.949 . S
C717 H712 0.950 . S
C717 C719 1.327 . S
C717 C723 1.429 . S
C718 C710 1.574 . S
C718 H713 0.949 . S
C718 C724 1.368 . S
C719 C703 1.349 . S
C719 H711 0.950 . S
C719 C717 1.327 . S
C720 C708 1.349 . S
C720 H714 0.950 . S
C720 C721 1.327 . S
C721 H715 0.950 . S
C721 C720 1.327 . S
C721 C725 1.429 . S
C722 C705 1.574 . S
C722 H716 0.949 . S
C722 C726 1.368 . S
C723 C704 1.429 . S
C723 C717 1.429 . S
C723 C724 1.523 . S
C724 C705 1.368 . S
C724 C718 1.368 . S
C724 C723 1.523 . S
C725 C709 1.429 . S
C725 C721 1.429 . S
C725 C726 1.523 . S
C726 C710 1.368 . S
C726 C722 1.368 . S
C726 C725 1.523 . S
H727 C702 0.950 . S
H728 C704 0.950 . S
H729 C705 0.949 . S
H730 C707 0.950 . S
H731 C709 0.950 . S
C732 C733 1.349 . S
C732 C734 1.327 . S
C732 H757 0.950 . S
C733 C732 1.349 . S
C733 C749 1.349 . S
C734 C732 1.327 . S
C734 C753 1.429 . S
C734 H758 0.950 . S
C735 C752 1.574 . S
C735 C754 1.368 . S
C735 H759 0.949 . S
H736 C740 0.949 . S
C737 C738 1.349 . S
C737 C739 1.327 . S
C737 H760 0.950 . S
C738 C737 1.349 . S
C738 C750 1.349 . S
C739 C737 1.327 . S
C739 C755 1.429 . S
C739 H761 0.950 . S
C740 H736 0.949 . S
C740 C748 1.574 . S
C740 C756 1.368 . S
H741 C749 0.950 . S
H742 C747 0.950 . S
H743 C748 0.949 . S
H744 C750 0.950 . S
H745 C751 0.950 . S
H746 C752 0.949 . S
C747 H742 0.950 . S
C747 C749 1.327 . S
C747 C753 1.429 . S
C748 C740 1.574 . S
C748 H743 0.949 . S
C748 C754 1.368 . S
C749 C733 1.349 . S
C749 H741 0.950 . S
C749 C747 1.327 . S
C750 C738 1.349 . S
C750 H744 0.950 . S
C750 C751 1.327 . S
C751 H745 0.950 . S
C751 C750 1.327 . S
C751 C755 1.429 . S
C752 C735 1.574 . S
C752 H746 0.949 . S
C752 C756 1.368 . S
C753 C734 1.429 . S
C753 C747 1.429 . S
C753 C754 1.523 . S
C754 C735 1.368 . S
C754 C748 1.368 . S
C754 C753 1.523 . S
C755 C739 1.429 . S
C755 C751 1.429 . S
C755 C756 1.523 . S
C756 C740 1.368 . S
C756 C752 1.368 . S
C756 C755 1.523 . S
H757 C732 0.950 . S
H758 C734 0.950 . S
H759 C735 0.949 . S
H760 C737 0.950 . S
H761 C739 0.950 . S
C762 C763 1.349 . S
C762 C764 1.327 . S
C762 H787 0.950 . S
C763 C762 1.349 . S
C763 C779 1.349 . S
C764 C762 1.327 . S
C764 C783 1.429 . S
C764 H788 0.950 . S
C765 C782 1.574 . S
C765 C784 1.368 . S
C765 H789 0.949 . S
H766 C770 0.949 . S
C767 C768 1.349 . S
C767 C769 1.327 . S
C767 H790 0.950 . S
C768 C767 1.349 . S
C768 C780 1.349 . S
C769 C767 1.327 . S
C769 C785 1.429 . S
C769 H791 0.950 . S
C770 H766 0.949 . S
C770 C778 1.574 . S
C770 C786 1.368 . S
H771 C779 0.950 . S
H772 C777 0.950 . S
H773 C778 0.949 . S
H774 C780 0.950 . S
H775 C781 0.950 . S
H776 C782 0.949 . S
C777 H772 0.950 . S
C777 C779 1.327 . S
C777 C783 1.429 . S
C778 C770 1.574 . S
C778 H773 0.949 . S
C778 C784 1.368 . S
C779 C763 1.349 . S
C779 H771 0.950 . S
C779 C777 1.327 . S
C780 C768 1.349 . S
C780 H774 0.950 . S
C780 C781 1.327 . S
C781 H775 0.950 . S
C781 C780 1.327 . S
C781 C785 1.429 . S
C782 C765 1.574 . S
C782 H776 0.949 . S
C782 C786 1.368 . S
C783 C764 1.429 . S
C783 C777 1.429 . S
C783 C784 1.523 . S
C784 C765 1.368 . S
C784 C778 1.368 . S
C784 C783 1.523 . S
C785 C769 1.429 . S
C785 C781 1.429 . S
C785 C786 1.523 . S
C786 C770 1.368 . S
C786 C782 1.368 . S
C786 C785 1.523 . S
H787 C762 0.950 . S
H788 C764 0.950 . S
H789 C765 0.949 . S
H790 C767 0.950 . S
H791 C769 0.950 . S
C792 C793 1.349 . S
C792 C794 1.327 . S
C792 H817 0.950 . S
C793 C792 1.349 . S
C793 C809 1.349 . S
C794 C792 1.327 . S
C794 C813 1.429 . S
C794 H818 0.950 . S
C795 C812 1.574 . S
C795 C814 1.368 . S
C795 H819 0.949 . S
H796 C800 0.949 . S
C797 C798 1.349 . S
C797 C799 1.327 . S
C797 H820 0.950 . S
C798 C797 1.349 . S
C798 C810 1.349 . S
C799 C797 1.327 . S
C799 C815 1.429 . S
C799 H821 0.950 . S
C800 H796 0.949 . S
C800 C808 1.574 . S
C800 C816 1.368 . S
H801 C809 0.950 . S
H802 C807 0.950 . S
H803 C808 0.949 . S
H804 C810 0.950 . S
H805 C811 0.950 . S
H806 C812 0.949 . S
C807 H802 0.950 . S
C807 C809 1.327 . S
C807 C813 1.429 . S
C808 C800 1.574 . S
C808 H803 0.949 . S
C808 C814 1.368 . S
C809 C793 1.349 . S
C809 H801 0.950 . S
C809 C807 1.327 . S
C810 C798 1.349 . S
C810 H804 0.950 . S
C810 C811 1.327 . S
C811 H805 0.950 . S
C811 C810 1.327 . S
C811 C815 1.429 . S
C812 C795 1.574 . S
C812 H806 0.949 . S
C812 C816 1.368 . S
C813 C794 1.429 . S
C813 C807 1.429 . S
C813 C814 1.523 . S
C814 C795 1.368 . S
C814 C808 1.368 . S
C814 C813 1.523 . S
C815 C799 1.429 . S
C815 C811 1.429 . S
C815 C816 1.523 . S
C816 C800 1.368 . S
C816 C812 1.368 . S
C816 C815 1.523 . S
H817 C792 0.950 . S
H818 C794 0.950 . S
H819 C795 0.949 . S
H820 C797 0.950 . S
H821 C799 0.950 . S
C822 C823 1.349 . S
C822 C824 1.327 . S
C822 H847 0.950 . S
C823 C822 1.349 . S
C823 C839 1.349 . S
C824 C822 1.327 . S
C824 C843 1.429 . S
C824 H848 0.950 . S
C825 C842 1.574 . S
C825 C844 1.368 . S
C825 H849 0.949 . S
H826 C830 0.949 . S
C827 C828 1.349 . S
C827 C829 1.327 . S
C827 H850 0.950 . S
C828 C827 1.349 . S
C828 C840 1.349 . S
C829 C827 1.327 . S
C829 C845 1.429 . S
C829 H851 0.950 . S
C830 H826 0.949 . S
C830 C838 1.574 . S
C830 C846 1.368 . S
H831 C839 0.950 . S
H832 C837 0.950 . S
H833 C838 0.949 . S
H834 C840 0.950 . S
H835 C841 0.950 . S
H836 C842 0.949 . S
C837 H832 0.950 . S
C837 C839 1.327 . S
C837 C843 1.429 . S
C838 C830 1.574 . S
C838 H833 0.949 . S
C838 C844 1.368 . S
C839 C823 1.349 . S
C839 H831 0.950 . S
C839 C837 1.327 . S
C840 C828 1.349 . S
C840 H834 0.950 . S
C840 C841 1.327 . S
C841 H835 0.950 . S
C841 C840 1.327 . S
C841 C845 1.429 . S
C842 C825 1.574 . S
C842 H836 0.949 . S
C842 C846 1.368 . S
C843 C824 1.429 . S
C843 C837 1.429 . S
C843 C844 1.523 . S
C844 C825 1.368 . S
C844 C838 1.368 . S
C844 C843 1.523 . S
C845 C829 1.429 . S
C845 C841 1.429 . S
C845 C846 1.523 . S
C846 C830 1.368 . S
C846 C842 1.368 . S
C846 C845 1.523 . S
H847 C822 0.950 . S
H848 C824 0.950 . S
H849 C825 0.949 . S
H850 C827 0.950 . S
H851 C829 0.950 . S
C852 C853 1.349 . S
C852 C854 1.327 . S
C852 H877 0.950 . S
C853 C852 1.349 . S
C853 C869 1.349 . S
C854 C852 1.327 . S
C854 C873 1.429 . S
C854 H878 0.950 . S
C855 C872 1.574 . S
C855 C874 1.368 . S
C855 H879 0.949 . S
H856 C860 0.949 . S
C857 C858 1.349 . S
C857 C859 1.327 . S
C857 H880 0.950 . S
C858 C857 1.349 . S
C858 C870 1.349 . S
C859 C857 1.327 . S
C859 C875 1.429 . S
C859 H881 0.950 . S
C860 H856 0.949 . S
C860 C868 1.574 . S
C860 C876 1.368 . S
H861 C869 0.950 . S
H862 C867 0.950 . S
H863 C868 0.949 . S
H864 C870 0.950 . S
H865 C871 0.950 . S
H866 C872 0.949 . S
C867 H862 0.950 . S
C867 C869 1.327 . S
C867 C873 1.429 . S
C868 C860 1.574 . S
C868 H863 0.949 . S
C868 C874 1.368 . S
C869 C853 1.349 . S
C869 H861 0.950 . S
C869 C867 1.327 . S
C870 C858 1.349 . S
C870 H864 0.950 . S
C870 C871 1.327 . S
C871 H865 0.950 . S
C871 C870 1.327 . S
C871 C875 1.429 . S
C872 C855 1.574 . S
C872 H866 0.949 . S
C872 C876 1.368 . S
C873 C854 1.429 . S
C873 C867 1.429 . S
C873 C874 1.523 . S
C874 C855 1.368 . S
C874 C868 1.368 . S
C874 C873 1.523 . S
C875 C859 1.429 . S
C875 C871 1.429 . S
C875 C876 1.523 . S
C876 C860 1.368 . S
C876 C872 1.368 . S
C876 C875 1.523 . S
H877 C852 0.950 . S
H878 C854 0.950 . S
H879 C855 0.949 . S
H880 C857 0.950 . S
H881 C859 0.950 . S
C882 C883 1.349 . S
C882 C884 1.327 . S
C882 H907 0.950 . S
C883 C882 1.349 . S
C883 C899 1.349 . S
C884 C882 1.327 . S
C884 C903 1.429 . S
C884 H908 0.950 . S
C885 C902 1.574 . S
C885 C904 1.368 . S
C885 H909 0.949 . S
H886 C890 0.949 . S
C887 C888 1.349 . S
C887 C889 1.327 . S
C887 H910 0.950 . S
C888 C887 1.349 . S
C888 C900 1.349 . S
C889 C887 1.327 . S
C889 C905 1.429 . S
C889 H911 0.950 . S
C890 H886 0.949 . S
C890 C898 1.574 . S
C890 C906 1.368 . S
H891 C899 0.950 . S
H892 C897 0.950 . S
H893 C898 0.949 . S
H894 C900 0.950 . S
H895 C901 0.950 . S
H896 C902 0.949 . S
C897 H892 0.950 . S
C897 C899 1.327 . S
C897 C903 1.429 . S
C898 C890 1.574 . S
C898 H893 0.949 . S
C898 C904 1.368 . S
C899 C883 1.349 . S
C899 H891 0.950 . S
C899 C897 1.327 . S
C900 C888 1.349 . S
C900 H894 0.950 . S
C900 C901 1.327 . S
C901 H895 0.950 . S
C901 C900 1.327 . S
C901 C905 1.429 . S
C902 C885 1.574 . S
C902 H896 0.949 . S
C902 C906 1.368 . S
C903 C884 1.429 . S
C903 C897 1.429 . S
C903 C904 1.523 . S
C904 C885 1.368 . S
C904 C898 1.368 . S
C904 C903 1.523 . S
C905 C889 1.429 . S
C905 C901 1.429 . S
C905 C906 1.523 . S
C906 C890 1.368 . S
C906 C902 1.368 . S
C906 C905 1.523 . S
H907 C882 0.950 . S
H908 C884 0.950 . S
H909 C885 0.949 . S
H910 C887 0.950 . S
H911 C889 0.950 . S
C912 C913 1.349 . S
C912 C914 1.327 . S
C912 H937 0.950 . S
C913 C912 1.349 . S
C913 C929 1.349 . S
C914 C912 1.327 . S
C914 C933 1.429 . S
C914 H938 0.950 . S
C915 C932 1.574 . S
C915 C934 1.368 . S
C915 H939 0.949 . S
H916 C920 0.949 . S
C917 C918 1.349 . S
C917 C919 1.327 . S
C917 H940 0.950 . S
C918 C917 1.349 . S
C918 C930 1.349 . S
C919 C917 1.327 . S
C919 C935 1.429 . S
C919 H941 0.950 . S
C920 H916 0.949 . S
C920 C928 1.574 . S
C920 C936 1.368 . S
H921 C929 0.950 . S
H922 C927 0.950 . S
H923 C928 0.949 . S
H924 C930 0.950 . S
H925 C931 0.950 . S
H926 C932 0.949 . S
C927 H922 0.950 . S
C927 C929 1.327 . S
C927 C933 1.429 . S
C928 C920 1.574 . S
C928 H923 0.949 . S
C928 C934 1.368 . S
C929 C913 1.349 . S
C929 H921 0.950 . S
C929 C927 1.327 . S
C930 C918 1.349 . S
C930 H924 0.950 . S
C930 C931 1.327 . S
C931 H925 0.950 . S
C931 C930 1.327 . S
C931 C935 1.429 . S
C932 C915 1.574 . S
C932 H926 0.949 . S
C932 C936 1.368 . S
C933 C914 1.429 . S
C933 C927 1.429 . S
C933 C934 1.523 . S
C934 C915 1.368 . S
C934 C928 1.368 . S
C934 C933 1.523 . S
C935 C919 1.429 . S
C935 C931 1.429 . S
C935 C936 1.523 . S
C936 C920 1.368 . S
C936 C932 1.368 . S
C936 C935 1.523 . S
H937 C912 0.950 . S
H938 C914 0.950 . S
H939 C915 0.949 . S
H940 C917 0.950 . S
H941 C919 0.950 . S
C223 C7 1.815 . S
C228 C139 1.791 . S
C253 C30 1.602 . S
C258 C164 1.582 . S
C288 C167 1.655 . S
C283 N58 1.636 . S
C318 C193 1.449 . S
C313 N81 1.430 . S
C348 C194 1.731 . S
C343 C99 1.752 . S
C378 C221 1.434 . S
C373 N127 1.420 . S
C403 N25 1.640 . S
C408 C166 1.655 . S
C433 C62 1.589 . S
C438 C192 1.571 . S
C468 C195 1.745 . S
C463 C85 1.757 . S
C498 C220 1.442 . S
C493 N94 1.430 . S
C523 C131 1.778 . S
C528 C138 1.757 . S
C558 C165 1.458 . S
C553 N2 1.445 . S
C588 C180 1.753 . S
C583 C16 1.766 . S
C613 C39 1.567 . S
C618 C207 1.560 . S
C648 C208 1.650 . S
C643 N48 1.629 . S
C673 N71 1.437 . S
C678 C150 1.456 . S
C703 C108 1.755 . S
C708 C153 1.746 . S
C733 N117 1.413 . S
C738 C178 1.433 . S
C763 N35 1.632 . S
C768 C209 1.654 . S
C798 C151 1.586 . S
C793 C53 1.601 . S
C823 C76 1.798 . S
C828 C152 1.781 . S
C853 N104 1.416 . S
C858 C179 1.434 . S
C883 C122 1.749 . S
C888 C181 1.733 . S
C913 N12 1.415 . S
C918 C206 1.435 . S
