# Generated by pormake.
# Topology pth, (4,4)-cn, num edge types: 1
# Building blocks:
#     Node 0, Type 0, BuildingBlock: KUFVIS_clean_sbu_0, # of connection points: 4
#     Node 1, Type 0, BuildingBlock: KUFVIS_clean_sbu_0, # of connection points: 4
#     Node 2, Type 0, BuildingBlock: KUFVIS_clean_sbu_0, # of connection points: 4
#     Node 3, Type 1, BuildingBlock: KOZSID_clean_sbu_0, # of connection points: 4
#     Node 4, Type 1, BuildingBlock: KOZSID_clean_sbu_0, # of connection points: 4
#     Node 5, Type 1, BuildingBlock: KOZSID_clean_sbu_0, # of connection points: 4
#     Edge 6, Type (0, 1), BuildingBlock: TEMPAE_clean_linker_10, # of connection points: 2
#     Edge 7, Type (0, 1), BuildingBlock: TEMPAE_clean_linker_10, # of connection points: 2
#     Edge 8, Type (0, 1), BuildingBlock: TEMPAE_clean_linker_10, # of connection points: 2
#     Edge 9, Type (0, 1), BuildingBlock: TEMPAE_clean_linker_10, # of connection points: 2
#     Edge 10, Type (0, 1), BuildingBlock: TEMPAE_clean_linker_10, # of connection points: 2
#     Edge 11, Type (0, 1), BuildingBlock: TEMPAE_clean_linker_10, # of connection points: 2
#     Edge 12, Type (0, 1), BuildingBlock: TEMPAE_clean_linker_10, # of connection points: 2
#     Edge 13, Type (0, 1), BuildingBlock: TEMPAE_clean_linker_10, # of connection points: 2
#     Edge 14, Type (0, 1), BuildingBlock: TEMPAE_clean_linker_10, # of connection points: 2
#     Edge 15, Type (0, 1), BuildingBlock: TEMPAE_clean_linker_10, # of connection points: 2
#     Edge 16, Type (0, 1), BuildingBlock: TEMPAE_clean_linker_10, # of connection points: 2
#     Edge 17, Type (0, 1), BuildingBlock: TEMPAE_clean_linker_10, # of connection points: 2
# Relax obj value: 0.010
# Max RMSD: 0.084
# Mean RMSD: 0.052
data_MOF--net-pth--node1-KUFVIS_clean_sbu_0--node2-KOZSID_clean_sbu_0--edge1-TEMPAE_clean_linker_10
_symmetry_space_group_name_H-M    P1
_symmetry_Int_Tables_number       1
_symmetry_cell_setting            triclinic
loop_
_symmetry_equiv_pos_as_xyz
'x, y, z'
_cell_length_a     26.56319
_cell_length_b     26.661775
_cell_length_c     61.611633
_cell_angle_alpha  87.707561
_cell_angle_beta   89.295021
_cell_angle_gamma 120.33364
loop_
_atom_site_label
_atom_site_type_symbol
_atom_site_fract_x
_atom_site_fract_y
_atom_site_fract_z
_atom_type_partial_charge
Mn0 Mn 0.08404 0.05174 0.04452 0.0
Mn1 Mn 0.01872 0.11353 0.01669 0.0
C2 C 0.02558 0.00502 0.0158 0.0
C3 C 0.08434 0.99092 0.07306 0.0
C4 C 0.14626 0.15163 0.00937 0.0
O5 O 0.08926 0.11218 0.06517 0.0
O6 O 0.04627 0.15102 0.04476 0.0
C7 C 0.91605 0.07287 0.04673 0.0
N8 N 0.93876 0.07679 0.02638 0.0
C9 C 0.84316 0.02856 0.01159 0.0
C10 C 0.81869 0.02419 0.03237 0.0
C11 C 0.85529 0.04617 0.05004 0.0
C12 C 0.90392 0.05501 0.00934 0.0
H13 H 0.94409 0.09007 0.06031 0.0
C14 C 0.07178 0.14842 0.0619 0.0
O15 O 0.13254 0.03153 0.06352 0.0
O16 O 0.0364 0.98723 0.06656 0.0
N17 N 0.98945 0.08247 0.98921 0.0
C18 C 0.0199 0.08792 0.97045 0.0
C19 C 0.9898 0.06793 0.95122 0.0
C20 C 0.92894 0.04343 0.95143 0.0
C21 C 0.8985 0.03788 0.97097 0.0
C22 C 0.93084 0.05866 0.9896 0.0
H23 H 0.06682 0.1078 0.97014 0.0
O24 O 0.0652 0.99348 0.02212 0.0
O25 O 0.02096 0.04371 0.02656 0.0
O26 O 0.14755 0.1165 0.02382 0.0
O27 O 0.10011 0.15334 0.00534 0.0
C28 C 0.83738 0.01272 0.9727 0.0
C29 C 0.80968 0.00753 0.99303 0.0
H30 H 0.77187 0.00386 0.03497 0.0
H31 H 0.83674 0.04282 0.06614 0.0
H32 H 0.01352 0.07209 0.93621 0.0
H33 H 0.90606 0.02904 0.93647 0.0
H34 H 0.81117 0.99668 0.95854 0.0
H35 H 0.7626 0.98721 0.99422 0.0
Mn36 Mn 0.05777 0.07128 0.37886 0.0
Mn37 Mn 0.12985 0.1977 0.40402 0.0
C38 C 0.11496 0.07869 0.40828 0.0
C39 C 0.05396 0.00987 0.35192 0.0
C40 C 0.99978 0.113 0.41131 0.0
O41 O 0.05571 0.12971 0.35677 0.0
O42 O 0.10805 0.21155 0.37462 0.0
C43 C 0.23622 0.25565 0.37521 0.0
N44 N 0.21075 0.23724 0.39549 0.0
C45 C 0.30423 0.28114 0.41193 0.0
C46 C 0.33153 0.30104 0.39124 0.0
C47 C 0.29736 0.28785 0.37279 0.0
C48 C 0.24319 0.24863 0.41329 0.0
H49 H 0.21007 0.24589 0.36102 0.0
C50 C 0.08004 0.18481 0.35809 0.0
O51 O 0.00668 0.00436 0.36078 0.0
O52 O 0.10305 0.05236 0.35805 0.0
N53 N 0.15467 0.19216 0.43255 0.0
C54 C 0.1216 0.16656 0.45114 0.0
C55 C 0.1491 0.17423 0.47105 0.0
C56 C 0.2101 0.20897 0.47167 0.0
C57 C 0.24324 0.23464 0.45231 0.0
C58 C 0.21345 0.22517 0.43296 0.0
H59 H 0.07461 0.14088 0.45078 0.0
O60 O 0.07361 0.02842 0.40267 0.0
O61 O 0.12209 0.12345 0.39639 0.0
O62 O 0.99652 0.07494 0.39854 0.0
O63 O 0.04735 0.16025 0.41426 0.0
C64 C 0.30462 0.26934 0.45143 0.0
C65 C 0.33513 0.29202 0.43123 0.0
H66 H 0.37867 0.32614 0.38932 0.0
H67 H 0.3181 0.30278 0.35676 0.0
H68 H 0.12329 0.1541 0.48592 0.0
H69 H 0.23103 0.21551 0.48711 0.0
H70 H 0.3289 0.2784 0.46616 0.0
H71 H 0.38236 0.31758 0.43073 0.0
Mn72 Mn 0.09741 0.04678 0.71323 0.0
Mn73 Mn 0.03834 0.11301 0.74067 0.0
C74 C 0.14462 0.10157 0.74282 0.0
C75 C 0.15754 0.04598 0.68512 0.0
C76 C 0.99366 0.98342 0.74621 0.0
O77 O 0.03794 0.04563 0.69203 0.0
O78 O 0.00472 0.09316 0.71157 0.0
C79 C 0.0866 0.22142 0.71274 0.0
N80 N 0.07909 0.19434 0.73272 0.0
C81 C 0.1256 0.28577 0.74987 0.0
C82 C 0.13375 0.31473 0.72949 0.0
C83 C 0.1145 0.28241 0.71083 0.0
C84 C 0.09834 0.22502 0.75072 0.0
H85 H 0.07119 0.19664 0.69841 0.0
C86 C 0.00541 0.06775 0.69447 0.0
O87 O 0.11529 0.99816 0.69428 0.0
O88 O 0.1636 0.09421 0.6918 0.0
N89 N 0.06649 0.13551 0.7691 0.0
C90 C 0.05808 0.10107 0.78731 0.0
C91 C 0.07569 0.12663 0.80737 0.0
C92 C 0.10069 0.18709 0.80855 0.0
C93 C 0.1092 0.22167 0.78956 0.0
C94 C 0.09116 0.1938 0.77003 0.0
H95 H 0.03758 0.05443 0.78653 0.0
O96 O 0.15482 0.06167 0.73642 0.0
O97 O 0.10711 0.10858 0.73166 0.0
O98 O 0.03055 0.98289 0.73287 0.0
O99 O 0.99323 0.02979 0.75031 0.0
C100 C 0.13458 0.28265 0.78924 0.0
C101 C 0.14344 0.31474 0.76938 0.0
H102 H 0.15486 0.36174 0.72797 0.0
H103 H 0.1207 0.30443 0.69503 0.0
H104 H 0.06922 0.09973 0.82195 0.0
H105 H 0.11326 0.20648 0.82412 0.0
H106 H 0.14796 0.30542 0.80414 0.0
H107 H 0.16405 0.36168 0.76929 0.0
C108 C 0.12167 0.67377 0.17871 0.0
C109 C 0.17656 0.71756 0.17115 0.0
C110 C 0.21615 0.71029 0.18268 0.0
C111 C 0.18331 0.66259 0.1965 0.0
N112 N 0.12507 0.63831 0.1943 0.0
Co113 Co 0.06141 0.56958 0.21176 0.0
N114 N 0.11944 0.56231 0.23012 0.0
C115 C 0.17809 0.59773 0.22909 0.0
C116 C 0.20663 0.58141 0.24355 0.0
C117 C 0.16379 0.53204 0.25424 0.0
C118 C 0.11136 0.52078 0.24552 0.0
N119 N 0.9978 0.50035 0.22909 0.0
C120 C 1.00126 0.46388 0.24424 0.0
C121 C 0.94628 0.41841 0.25095 0.0
C122 C 0.90678 0.42625 0.23964 0.0
C123 C 0.9396 0.47554 0.22659 0.0
N124 N 1.00337 0.57723 0.19349 0.0
C125 C 0.9446 0.5432 0.19506 0.0
C126 C 0.91602 0.56073 0.18109 0.0
C127 C 0.95903 0.6095 0.17014 0.0
C128 C 0.01157 0.61885 0.1781 0.0
N129 N 0.06499 0.51583 0.19104 0.0
C130 C 0.06987 0.43431 0.16417 0.0
C131 C 0.01645 0.42793 0.17116 0.0
C132 C 0.01507 0.46915 0.18413 0.0
C133 C 0.12079 0.48332 0.17059 0.0
C134 C 0.11738 0.52268 0.18403 0.0
N135 N 0.05782 0.62345 0.23251 0.0
C136 C 1.00173 0.65393 0.25395 0.0
C137 C 0.05226 0.7053 0.25864 0.0
C138 C 0.1057 0.71434 0.25065 0.0
C139 C 0.10756 0.67278 0.23804 0.0
C140 C 0.0054 0.61417 0.24079 0.0
H141 H 0.14979 0.68198 0.23275 0.0
H142 H 0.9651 0.57677 0.23727 0.0
H143 H 0.97296 0.46181 0.18861 0.0
H144 H 0.15784 0.55809 0.18869 0.0
C145 C 0.20546 0.64278 0.21307 0.0
C146 C 0.06779 0.66947 0.17133 0.0
C147 C 0.05547 0.46886 0.2518 0.0
C148 C 0.91741 0.49707 0.21065 0.0
H149 H 0.18683 0.75213 0.15898 0.0
H150 H 0.26319 0.73778 0.18167 0.0
H151 H 0.25322 0.60183 0.24557 0.0
H152 H 0.17054 0.5064 0.26668 0.0
H153 H 0.93563 0.38219 0.26233 0.0
H154 H 0.85982 0.39808 0.24024 0.0
H155 H 0.86938 0.54135 0.1795 0.0
H156 H 0.95243 0.63603 0.15806 0.0
H157 H 0.9754 0.39075 0.16705 0.0
H158 H 0.1635 0.4918 0.16528 0.0
H159 H 0.95938 0.64522 0.25992 0.0
H160 H 0.14603 0.75328 0.25422 0.0
C161 C 0.45986 0.99314 0.57889 0.0
C162 C 0.41623 0.93853 0.58679 0.0
C163 C 0.42269 0.89891 0.57556 0.0
C164 C 0.46971 0.93145 0.56152 0.0
N165 N 0.4944 0.98953 0.56334 0.0
Co166 Co 0.56134 0.05276 0.54512 0.0
N167 N 0.5668 0.99468 0.52696 0.0
C168 C 0.53266 0.93605 0.52898 0.0
C169 C 0.54783 0.90747 0.51464 0.0
C170 C 0.59503 0.9503 0.50294 0.0
C171 C 0.6061 0.00274 0.51092 0.0
N172 N 0.62802 0.11611 0.52682 0.0
C173 C 0.66138 0.11271 0.51072 0.0
C174 C 0.70511 0.16756 0.50298 0.0
C175 C 0.69941 0.20693 0.51464 0.0
C176 C 0.65294 0.17417 0.52884 0.0
N177 N 0.55597 0.11084 0.56335 0.0
C178 C 0.59069 0.16942 0.56162 0.0
C179 C 0.57497 0.19798 0.57576 0.0
C180 C 0.5267 0.15521 0.58698 0.0
C181 C 0.51576 0.10284 0.57898 0.0
N182 N 0.61825 0.04996 0.56523 0.0
C183 C 0.70442 0.04649 0.59073 0.0
C184 C 0.70878 0.09936 0.58416 0.0
C185 C 0.66557 0.10009 0.57164 0.0
C186 C 0.65524 0.99529 0.5848 0.0
C187 C 0.61309 0.998 0.5722 0.0
N188 N 0.50458 0.05548 0.52501 0.0
C189 C 0.46695 0.11027 0.50612 0.0
C190 C 0.41847 0.05921 0.49969 0.0
C191 C 0.41498 0.00632 0.50551 0.0
C192 C 0.45815 0.00546 0.51805 0.0
C193 C 0.50916 0.10746 0.51856 0.0
H194 H 0.45242 0.96372 0.52224 0.0
H195 H 0.54469 0.14793 0.52302 0.0
H196 H 0.67179 0.14184 0.56721 0.0
H197 H 0.57714 0.95743 0.56807 0.0
C198 C 0.48874 0.90904 0.54529 0.0
C199 C 0.46496 0.04703 0.58596 0.0
C200 C 0.65552 0.0588 0.50315 0.0
C201 C 0.63443 0.19648 0.54528 0.0
H202 H 0.38232 0.92848 0.59899 0.0
H203 H 0.39511 0.85202 0.57692 0.0
H204 H 0.52781 0.86096 0.51322 0.0
H205 H 0.61927 0.94369 0.49024 0.0
H206 H 0.73879 0.1782 0.49063 0.0
H207 H 0.72711 0.25382 0.51341 0.0
H208 H 0.5949 0.24449 0.57716 0.0
H209 H 0.5014 0.16186 0.59924 0.0
H210 H 0.74527 0.14027 0.58877 0.0
H211 H 0.64974 0.95316 0.58947 0.0
H212 H 0.47237 0.15246 0.5016 0.0
H213 H 0.37825 0.96552 0.50096 0.0
C214 C 0.69137 0.58009 0.84147 0.0
C215 C 0.73656 0.5712 0.83519 0.0
C216 C 0.74018 0.53627 0.85122 0.0
C217 C 0.69689 0.52536 0.86626 0.0
N218 N 0.66527 0.55019 0.86054 0.0
Co219 Co 0.59942 0.54564 0.87808 0.0
N220 N 0.59315 0.48108 0.89746 0.0
C221 C 0.6338 0.46547 0.89959 0.0
C222 C 0.61683 0.41881 0.91411 0.0
C223 C 0.56201 0.40411 0.92159 0.0
C224 C 0.54864 0.44272 0.91111 0.0
N225 N 0.53393 0.54105 0.8958 0.0
C226 C 0.49446 0.4976 0.9096 0.0
C227 C 0.45482 0.51159 0.91821 0.0
C228 C 0.47065 0.56602 0.90968 0.0
C229 C 0.51861 0.58201 0.89628 0.0
N230 N 0.60539 0.6104 0.85876 0.0
C231 C 0.58107 0.64293 0.86303 0.0
C232 C 0.59412 0.68617 0.84739 0.0
C233 C 0.62992 0.68158 0.83249 0.0
C234 C 0.63685 0.63553 0.83989 0.0
N235 N 0.54319 0.48857 0.85883 0.0
C236 C 0.45732 0.40226 0.8341 0.0
C237 C 0.45334 0.45045 0.83991 0.0
C238 C 0.49672 0.49311 0.85211 0.0
C239 C 0.50618 0.39909 0.84043 0.0
C240 C 0.5484 0.44248 0.85284 0.0
N241 N 0.65542 0.60276 0.89747 0.0
C242 C 0.74252 0.69487 0.90204 0.0
C243 C 0.73247 0.68862 0.92458 0.0
C244 C 0.68385 0.63748 0.93339 0.0
C245 C 0.6458 0.59519 0.91955 0.0
C246 C 0.70383 0.65168 0.88888 0.0
H247 H 0.60808 0.55682 0.92672 0.0
H248 H 0.71302 0.65866 0.87169 0.0
H249 H 0.49199 0.52928 0.85643 0.0
H250 H 0.58461 0.43799 0.85795 0.0
C251 C 0.68162 0.48823 0.8849 0.0
C252 C 0.68106 0.62401 0.83057 0.0
C253 C 0.49499 0.444 0.91546 0.0
C254 C 0.54287 0.62898 0.881 0.0
H255 H 0.7654 0.58998 0.82092 0.0
H256 H 0.77065 0.52061 0.85179 0.0
H257 H 0.64031 0.39644 0.91805 0.0
H258 H 0.53493 0.369 0.93335 0.0
H259 H 0.41803 0.48519 0.92934 0.0
H260 H 0.44802 0.58972 0.91209 0.0
H261 H 0.57956 0.71747 0.84692 0.0
H262 H 0.65053 0.7106 0.81829 0.0
H263 H 0.41681 0.45518 0.83509 0.0
H264 H 0.51093 0.3625 0.83638 0.0
H265 H 0.78014 0.73311 0.89452 0.0
H266 H 0.67439 0.63089 0.95076 0.0
C267 C 0.1043 0.24896 0.0725 0.0
C268 C 0.0802 0.18987 0.07862 0.0
C269 C 0.1066 0.28854 0.08737 0.0
C270 C 0.08218 0.26815 0.10869 0.0
C271 C 0.05878 0.20853 0.11508 0.0
C272 C 0.05886 0.17018 0.10002 0.0
C273 C 0.13361 0.35192 0.08004 0.0
C274 C 0.03087 0.18468 0.13742 0.0
C275 C 0.11872 0.37925 0.15176 0.0
C276 C 0.07243 0.39049 0.15032 0.0
C277 C 0.12244 0.33953 0.13841 0.0
C278 C 0.07793 0.30866 0.12368 0.0
C279 C 0.0303 0.31839 0.12254 0.0
C280 C 0.02863 0.35969 0.13554 0.0
C281 C 0.17464 0.33144 0.1398 0.0
C282 C 0.98129 0.28565 0.10733 0.0
H283 H 0.1208 0.26408 0.05591 0.0
H284 H 0.03944 0.12427 0.10462 0.0
H285 H 0.09928 0.3639 0.07927 0.0
H286 H 0.16565 0.37985 0.0919 0.0
H287 H 0.15599 0.3617 0.06376 0.0
H288 H 0.01796 0.13825 0.14033 0.0
H289 H 0.06114 0.21032 0.15012 0.0
H290 H 0.99138 0.18855 0.1393 0.0
H291 H 0.15227 0.40137 0.16336 0.0
H292 H 0.99318 0.36835 0.13378 0.0
H293 H 0.1982 0.34289 0.12373 0.0
H294 H 0.16022 0.28517 0.14398 0.0
H295 H 0.20559 0.35868 0.1521 0.0
H296 H 0.99808 0.29817 0.09023 0.0
H297 H 0.94502 0.29449 0.1097 0.0
H298 H 0.96365 0.23812 0.10982 0.0
C299 C 0.89357 0.04899 0.42302 0.0
C300 C 0.94637 0.10207 0.42379 0.0
C301 C 0.84365 0.03825 0.43528 0.0
C302 C 0.84639 0.08165 0.44858 0.0
C303 C 0.8993 0.1354 0.44929 0.0
C304 C 0.94846 0.14488 0.43698 0.0
C305 C 0.78811 0.98029 0.43415 0.0
C306 C 0.90414 0.18297 0.46319 0.0
C307 C 0.70882 0.08157 0.46692 0.0
C308 C 0.70193 0.06092 0.48863 0.0
C309 C 0.75474 0.08709 0.45349 0.0
C310 C 0.79434 0.07111 0.46199 0.0
C311 C 0.78619 0.0484 0.48378 0.0
C312 C 0.74009 0.04369 0.49685 0.0
C313 C 0.76191 0.11166 0.43043 0.0
C314 C 0.82713 0.03062 0.49347 0.0
H315 H 0.89128 0.01549 0.41297 0.0
H316 H 0.98877 0.18612 0.43778 0.0
H317 H 0.77502 0.958 0.45056 0.0
H318 H 0.75215 0.98695 0.4287 0.0
H319 H 0.79284 0.9513 0.42288 0.0
H320 H 0.94812 0.22267 0.46167 0.0
H321 H 0.87125 0.19499 0.45851 0.0
H322 H 0.89484 0.16711 0.48051 0.0
H323 H 0.67892 0.09454 0.46062 0.0
H324 H 0.73441 0.02756 0.51367 0.0
H325 H 0.76409 0.08179 0.41892 0.0
H326 H 0.8036 0.15374 0.42839 0.0
H327 H 0.72564 0.11895 0.42593 0.0
H328 H 0.83062 0.99938 0.48309 0.0
H329 H 0.81263 0.01032 0.51016 0.0
H330 H 0.87148 0.06934 0.49412 0.0
C331 C 0.90322 0.92617 0.77018 0.0
C332 C 0.94834 0.9277 0.75746 0.0
C333 C 0.85988 0.87436 0.78091 0.0
C334 C 0.86155 0.82244 0.77911 0.0
C335 C 0.90668 0.82339 0.76627 0.0
C336 C 0.94938 0.87588 0.75555 0.0
C337 C 0.8125 0.87535 0.79437 0.0
C338 C 0.91025 0.76908 0.76409 0.0
C339 C 0.78274 0.70882 0.82542 0.0
C340 C 0.72909 0.67115 0.81642 0.0
C341 C 0.82698 0.75684 0.81319 0.0
C342 C 0.8172 0.76796 0.79143 0.0
C343 C 0.76353 0.72911 0.78208 0.0
C344 C 0.72009 0.681 0.7947 0.0
C345 C 0.88344 0.79684 0.82382 0.0
C346 C 0.75118 0.73957 0.75902 0.0
H347 H 0.90153 0.96563 0.77176 0.0
H348 H 0.98388 0.87634 0.74581 0.0
H349 H 0.76893 0.84271 0.78879 0.0
H350 H 0.81477 0.86338 0.81163 0.0
H351 H 0.81608 0.91875 0.79347 0.0
H352 H 0.94707 0.77657 0.75306 0.0
H353 H 0.91583 0.75322 0.7803 0.0
H354 H 0.86899 0.73402 0.75778 0.0
H355 H 0.78956 0.70139 0.84228 0.0
H356 H 0.67844 0.65197 0.78783 0.0
H357 H 0.8878 0.8402 0.82527 0.0
H358 H 0.92118 0.80322 0.81364 0.0
H359 H 0.88582 0.77979 0.84029 0.0
H360 H 0.74959 0.78037 0.75766 0.0
H361 H 0.70912 0.70333 0.75368 0.0
H362 H 0.78679 0.74522 0.74776 0.0
C363 C 0.03009 0.90357 0.09884 0.0
C364 C 0.08336 0.94787 0.08942 0.0
C365 C 0.02757 0.85948 0.11291 0.0
C366 C 0.07957 0.85947 0.11772 0.0
C367 C 0.13367 0.90489 0.10871 0.0
C368 C 0.13493 0.94853 0.09469 0.0
C369 C 0.96902 0.81206 0.12223 0.0
C370 C 0.1901 0.90654 0.11345 0.0
C371 C 0.07816 0.76797 0.16716 0.0
C372 C 0.07032 0.7179 0.15759 0.0
C373 C 0.08139 0.81452 0.1544 0.0
C374 C 0.07699 0.81081 0.13155 0.0
C375 C 0.06934 0.76013 0.12187 0.0
C376 C 0.06604 0.7142 0.13505 0.0
C377 C 0.08934 0.86752 0.16538 0.0
C378 C 0.0646 0.75441 0.0976 0.0
H379 H 0.98998 0.90263 0.09489 0.0
H380 H 0.17627 0.9825 0.08748 0.0
H381 H 0.95943 0.76945 0.11632 0.0
H382 H 0.96986 0.80893 0.14022 0.0
H383 H 0.93298 0.81965 0.11768 0.0
H384 H 0.22875 0.94608 0.10597 0.0
H385 H 0.19543 0.90519 0.13126 0.0
H386 H 0.18903 0.86761 0.10715 0.0
H387 H 0.08165 0.77054 0.18465 0.0
H388 H 0.06027 0.67536 0.12777 0.0
H389 H 0.05225 0.87429 0.16189 0.0
H390 H 0.12965 0.90684 0.15881 0.0
H391 H 0.09222 0.86367 0.18329 0.0
H392 H 0.02668 0.75756 0.09205 0.0
H393 H 0.0594 0.7125 0.09262 0.0
H394 H 0.10418 0.7906 0.08912 0.0
C395 C 0.21799 0.11522 0.41849 0.0
C396 C 0.1582 0.08128 0.42379 0.0
C397 C 0.25954 0.11323 0.43184 0.0
C398 C 0.2407 0.0744 0.45048 0.0
C399 C 0.18019 0.03972 0.45584 0.0
C400 C 0.1397 0.04362 0.44242 0.0
C401 C 0.32355 0.15171 0.42572 0.0
C402 C 0.15815 0.99719 0.47535 0.0
C403 C 0.34622 0.02612 0.46986 0.0
C404 C 0.3715 0.06136 0.48745 0.0
C405 C 0.30285 0.02913 0.45797 0.0
C406 C 0.28425 0.06832 0.46377 0.0
C407 C 0.3085 0.10266 0.48189 0.0
C408 C 0.3519 0.09901 0.4934 0.0
C409 C 0.27736 0.9908 0.43903 0.0
C410 C 0.29007 0.1447 0.48881 0.0
H411 H 0.23225 0.14218 0.40352 0.0
H412 H 0.09334 0.01629 0.44624 0.0
H413 H 0.34677 0.17873 0.43948 0.0
H414 H 0.3432 0.12456 0.42234 0.0
H415 H 0.33106 0.18094 0.41116 0.0
H416 H 0.10991 0.97466 0.47767 0.0
H417 H 0.17109 0.96398 0.47342 0.0
H418 H 0.17823 0.02004 0.49028 0.0
H419 H 0.36121 0.99701 0.4651 0.0
H420 H 0.3704 0.12561 0.50722 0.0
H421 H 0.28786 0.01814 0.42374 0.0
H422 H 0.2291 0.96485 0.44108 0.0
H423 H 0.29427 0.96056 0.43731 0.0
H424 H 0.30858 0.1822 0.47683 0.0
H425 H 0.30584 0.16119 0.50509 0.0
H426 H 0.24189 0.12423 0.4891 0.0
C427 C 0.20243 0.12458 0.77643 0.0
C428 C 0.18394 0.14379 0.75836 0.0
C429 C 0.24539 0.16441 0.78985 0.0
C430 C 0.27063 0.22501 0.78506 0.0
C431 C 0.25137 0.2445 0.76697 0.0
C432 C 0.20919 0.20368 0.75362 0.0
C433 C 0.2649 0.14164 0.80881 0.0
C434 C 0.27625 0.30855 0.76144 0.0
C435 C 0.35136 0.33339 0.82834 0.0
C436 C 0.40992 0.35509 0.82201 0.0
C437 C 0.30579 0.28992 0.81693 0.0
C438 C 0.31872 0.26809 0.79839 0.0
C439 C 0.3779 0.2889 0.7922 0.0
C440 C 0.42276 0.33196 0.80412 0.0
C441 C 0.24383 0.26889 0.8244 0.0
C442 C 0.39386 0.26627 0.77279 0.0
H443 H 0.1839 0.07824 0.77984 0.0
H444 H 0.1971 0.21868 0.73908 0.0
H445 H 0.31191 0.15622 0.8065 0.0
H446 H 0.25982 0.15957 0.82408 0.0
H447 H 0.23983 0.09337 0.81074 0.0
H448 H 0.25532 0.31657 0.74727 0.0
H449 H 0.27029 0.3297 0.77561 0.0
H450 H 0.32383 0.32976 0.75772 0.0
H451 H 0.3411 0.35034 0.84237 0.0
H452 H 0.46795 0.34856 0.79912 0.0
H453 H 0.21687 0.22084 0.82421 0.0
H454 H 0.22525 0.28782 0.81303 0.0
H455 H 0.24096 0.28227 0.841 0.0
H456 H 0.44173 0.28473 0.77073 0.0
H457 H 0.37795 0.27728 0.7578 0.0
H458 H 0.3723 0.21813 0.77449 0.0
C459 C 0.95406 0.02822 0.65953 0.0
C460 C 0.96517 0.06391 0.67711 0.0
C461 C 0.91333 0.02269 0.64395 0.0
C462 C 0.88315 0.05362 0.64598 0.0
C463 C 0.89515 0.09055 0.66341 0.0
C464 C 0.93583 0.09526 0.67865 0.0
C465 C 0.90184 0.98307 0.62553 0.0
C466 C 0.86429 0.12459 0.66619 0.0
C467 C 0.80984 0.08518 0.59902 0.0
C468 C 0.75059 0.04504 0.60383 0.0
C469 C 0.8537 0.08664 0.61198 0.0
C470 C 0.83809 0.04711 0.63027 0.0
C471 C 0.77853 0.00514 0.63478 0.0
C472 C 0.73556 0.00459 0.62152 0.0
C473 C 0.91663 0.13193 0.60653 0.0
C474 C 0.75993 0.96241 0.65418 0.0
H475 H 0.97637 0.00382 0.65815 0.0
H476 H 0.94423 0.12349 0.69198 0.0
H477 H 0.85568 0.94721 0.6266 0.0
H478 H 0.90866 0.00742 0.6097 0.0
H479 H 0.93051 0.96389 0.6257 0.0
H480 H 0.87934 0.1522 0.68042 0.0
H481 H 0.87167 0.15297 0.65141 0.0
H482 H 0.81654 0.09425 0.6683 0.0
H483 H 0.82196 0.11588 0.58515 0.0
H484 H 0.68995 0.9737 0.62548 0.0
H485 H 0.9439 0.11132 0.60602 0.0
H486 H 0.93352 0.16386 0.6194 0.0
H487 H 0.92203 0.15581 0.59068 0.0
H488 H 0.78535 0.93981 0.65433 0.0
H489 H 0.71269 0.92927 0.65434 0.0
H490 H 0.76901 0.98613 0.66936 0.0
C491 C 0.92168 0.94103 0.00618 0.0
C492 C 0.98125 0.9658 1.00087 0.0
C493 C 0.87912 0.89788 0.99363 0.0
C494 C 0.89669 0.87733 0.97587 0.0
C495 C 0.95696 0.90231 0.97048 0.0
C496 C 0.99844 0.94621 0.98305 0.0
C497 C 0.81543 0.8733 0.9997 0.0
C498 C 0.9777 0.8814 0.95185 0.0
C499 C 0.79315 0.72443 0.95764 0.0
C500 C 0.77214 0.73623 0.93849 0.0
C501 C 0.8333 0.76989 0.97008 0.0
C502 C 0.85236 0.82847 0.96333 0.0
C503 C 0.8303 0.84029 0.94422 0.0
C504 C 0.79052 0.79419 0.9321 0.0
C505 C 0.85644 0.75533 0.99015 0.0
C506 C 0.8485 0.90165 0.93657 0.0
H507 H 0.90839 0.95418 0.02055 0.0
H508 H 0.04459 0.96444 0.97925 0.0
H509 H 0.79229 0.87747 0.98549 0.0
H510 H 0.79481 0.82626 0.00441 0.0
H511 H 0.809 0.89562 0.0134 0.0
H512 H 0.026 0.90597 0.94955 0.0
H513 H 0.9629 0.83456 0.95483 0.0
H514 H 0.9584 0.88575 0.93653 0.0
H515 H 0.77943 0.67973 0.96257 0.0
H516 H 0.77361 0.80354 0.91752 0.0
H517 H 0.84766 0.77387 0.00453 0.0
H518 H 0.90449 0.77522 0.98823 0.0
H519 H 0.83665 0.70766 0.99339 0.0
H520 H 0.82994 0.90383 0.92074 0.0
H521 H 0.89675 0.92855 0.93494 0.0
H522 H 0.83346 0.92082 0.94886 0.0
C523 C 1.00239 0.93174 0.32544 0.0
C524 C 0.05255 0.96714 0.33685 0.0
C525 C 1.00037 0.88955 0.31185 0.0
C526 C 0.04903 0.88139 0.31016 0.0
C527 C 0.09968 0.917 0.32172 0.0
C528 C 0.10109 0.95988 0.33466 0.0
C529 C 0.94617 0.85361 0.29934 0.0
C530 C 0.152 0.90895 0.32083 0.0
C531 C 0.02554 0.73551 0.29286 0.0
C532 C 0.0494 0.74962 0.27158 0.0
C533 C 0.02484 0.77786 0.30557 0.0
C534 C 0.04705 0.83527 0.29654 0.0
C535 C 0.06961 0.84912 0.27479 0.0
C536 C 0.07129 0.80634 0.26268 0.0
C537 C 1.00176 0.76155 0.32883 0.0
C538 C 0.09234 0.90924 0.26434 0.0
H539 H 0.96481 0.93727 0.32703 0.0
H540 H 0.13979 0.98665 0.34362 0.0
H541 H 0.95779 0.85737 0.28175 0.0
H542 H 0.92595 0.80702 0.30472 0.0
H543 H 0.9133 0.86723 0.30155 0.0
H544 H 0.18762 0.93952 0.33107 0.0
H545 H 0.13886 0.86375 0.32642 0.0
H546 H 0.16935 0.91563 0.30384 0.0
H547 H 0.00887 0.69165 0.29974 0.0
H548 H 0.08928 0.81704 0.24613 0.0
H549 H 0.96553 0.77019 0.33149 0.0
H550 H 0.03673 0.78879 0.33993 0.0
H551 H 0.98573 0.71501 0.33336 0.0
H552 H 0.05882 0.92218 0.26589 0.0
H553 H 0.10456 0.91183 0.24685 0.0
H554 H 0.13129 0.94133 0.27282 0.0
C555 C 0.19258 0.9929 0.66224 0.0
C556 C 0.19925 0.04563 0.66885 0.0
C557 C 0.23404 0.99193 0.64808 0.0
C558 C 0.28358 0.04495 0.64035 0.0
C559 C 0.28989 0.09835 0.64661 0.0
C560 C 0.24769 0.09805 0.66074 0.0
C561 C 0.22545 0.93407 0.64173 0.0
C562 C 0.34196 0.15585 0.63876 0.0
C563 C 0.42085 0.0435 0.62256 0.0
C564 C 0.41791 0.0453 0.59991 0.0
C565 C 0.3773 0.0431 0.6359 0.0
C566 C 0.32973 0.04456 0.62631 0.0
C567 C 0.32669 0.04613 0.60335 0.0
C568 C 0.37092 0.04651 0.59042 0.0
C569 C 0.38235 0.04148 0.66026 0.0
C570 C 0.27691 0.04774 0.59245 0.0
H571 H 0.15533 0.95217 0.66839 0.0
H572 H 0.25333 0.13903 0.66576 0.0
H573 H 0.2265 0.9326 0.62377 0.0
H574 H 0.26169 0.92863 0.64777 0.0
H575 H 0.18349 0.89685 0.64838 0.0
H576 H 0.33946 0.19357 0.64447 0.0
H577 H 0.38259 0.15872 0.64465 0.0
H578 H 0.34541 0.15912 0.62074 0.0
H579 H 0.45747 0.04269 0.62978 0.0
H580 H 0.36906 0.04803 0.57284 0.0
H581 H 0.34317 0.00276 0.66784 0.0
H582 H 0.38432 0.08049 0.66689 0.0
H583 H 0.42173 0.04002 0.66515 0.0
H584 H 0.23477 0.00927 0.59816 0.0
H585 H 0.28066 0.04827 0.57445 0.0
H586 H 0.27567 0.08698 0.59696 0.0
C587 C 0.25081 0.1882 0.99702 0.0
C588 C 0.20037 0.19267 0.99628 0.0
C589 C 0.30129 0.22652 0.98424 0.0
C590 C 0.30157 0.27064 0.97052 0.0
C591 C 0.25098 0.27551 0.9698 0.0
C592 C 0.20119 0.23654 0.98257 0.0
C593 C 0.35428 0.21973 0.98535 0.0
C594 C 0.24943 0.32216 0.95556 0.0
C595 C 0.44274 0.40793 0.95182 0.0
C596 C 0.44787 0.3978 0.93 0.0
C597 C 0.39641 0.36609 0.96542 0.0
C598 C 0.35468 0.31253 0.95703 0.0
C599 C 0.36135 0.30126 0.93519 0.0
C600 C 0.40796 0.34416 0.92191 0.0
C601 C 0.39091 0.38013 0.98851 0.0
C602 C 0.31818 0.24467 0.92564 0.0
H603 H 0.25074 0.15444 0.00745 0.0
H604 H 0.16277 0.24081 0.98182 0.0
H605 H 0.36621 0.21242 0.96893 0.0
H606 H 0.39207 0.26028 0.9908 0.0
H607 H 0.34697 0.1829 0.99663 0.0
H608 H 0.20676 0.32029 0.95691 0.0
H609 H 0.28421 0.3658 0.96008 0.0
H610 H 0.2581 0.31755 0.93831 0.0
H611 H 0.47432 0.44932 0.95806 0.0
H612 H 0.41256 0.33636 0.90506 0.0
H613 H 0.38653 0.34494 1.00001 0.0
H614 H 0.35086 0.38292 0.99061 0.0
H615 H 0.429 0.42197 0.99296 0.0
H616 H 0.31231 0.20729 0.93622 0.0
H617 H 0.33216 0.24068 0.90904 0.0
H618 H 0.27502 0.24159 0.92479 0.0
C619 C 0.11875 0.28025 0.33734 0.0
C620 C 0.07604 0.22102 0.33998 0.0
C621 C 0.11415 0.31719 0.32167 0.0
C622 C 0.06506 0.29483 0.30842 0.0
C623 C 0.0224 0.23477 0.31056 0.0
C624 C 0.02865 0.19839 0.32621 0.0
C625 C 0.16125 0.38063 0.3197 0.0
C626 C 0.96916 0.20942 0.29688 0.0
C627 C 0.03022 0.40935 0.28707 0.0
C628 C 0.05425 0.42132 0.26584 0.0
C629 C 0.03098 0.36629 0.30074 0.0
C630 C 0.05762 0.33537 0.29314 0.0
C631 C 0.08139 0.34698 0.27158 0.0
C632 C 0.07916 0.38968 0.25815 0.0
C633 C 0.00473 0.35505 0.32353 0.0
C634 C 0.11099 0.31579 0.26294 0.0
H635 H 0.15585 0.2981 0.34775 0.0
H636 H 0.99534 0.15279 0.32821 0.0
H637 H 0.17791 0.39358 0.30259 0.0
H638 H 0.14285 0.40802 0.32441 0.0
H639 H 0.19855 0.39026 0.33015 0.0
H640 H 0.94171 0.16144 0.29962 0.0
H641 H 0.94233 0.22924 0.3008 0.0
H642 H 0.9823 0.21987 0.27939 0.0
H643 H 0.01141 0.43426 0.29302 0.0
H644 H 0.0979 0.39923 0.24172 0.0
H645 H 0.03971 0.36868 0.33544 0.0
H646 H 0.97387 0.30784 0.32684 0.0
H647 H 0.98122 0.37898 0.32628 0.0
H648 H 0.15076 0.32753 0.27216 0.0
H649 H 0.12376 0.32698 0.24541 0.0
H650 H 0.08177 0.26801 0.26529 0.0
loop_
_geom_bond_atom_site_label_1
_geom_bond_atom_site_label_2
_geom_bond_distance
_geom_bond_site_symmetry_2
_ccdc_geom_bond_type
Mn0 O5 2.095 . S
Mn0 O15 2.172 . S
Mn0 O16 2.297 1_545 S
Mn0 O24 2.385 1_545 S
Mn0 O25 2.209 . S
Mn0 O26 2.094 . S
Mn1 O6 2.121 . S
Mn1 N8 2.257 1_455 S
Mn1 N17 2.282 1_554 S
Mn1 O25 2.215 . S
Mn1 O27 2.117 . S
C2 O24 1.234 . S
C2 O25 1.283 1_565 S
C3 O15 1.278 1_565 S
C3 O16 1.236 . S
C4 O26 1.240 . S
C4 O27 1.264 . S
O5 Mn0 2.095 . S
O5 C14 1.250 . S
O6 Mn1 2.121 . S
O6 C14 1.258 . S
C7 N8 1.326 . S
C7 C11 1.460 . S
C7 H13 0.929 . S
N8 Mn1 2.257 1_655 S
N8 C7 1.326 . S
N8 C12 1.362 1_554 S
C9 C10 1.258 1_556 S
C9 C12 1.431 . S
C9 C29 1.449 . S
C10 C9 1.258 1_554 S
C10 C11 1.477 . S
C10 H30 0.929 1_554 S
C11 C7 1.460 . S
C11 C10 1.477 . S
C11 H31 0.930 . S
C12 N8 1.362 1_556 S
C12 C9 1.431 . S
C12 C22 1.476 . S
H13 C7 0.929 . S
C14 O5 1.250 . S
C14 O6 1.258 . S
O15 Mn0 2.172 . S
O15 C3 1.278 1_545 S
O16 Mn0 2.297 1_565 S
O16 C3 1.236 . S
N17 Mn1 2.282 1_556 S
N17 C18 1.328 . S
N17 C22 1.318 1_455 S
C18 N17 1.328 . S
C18 C19 1.457 . S
C18 H23 0.929 . S
C19 C18 1.457 . S
C19 C20 1.291 1_455 S
C19 H32 0.931 . S
C20 C19 1.291 1_655 S
C20 C21 1.373 . S
C20 H33 0.929 . S
C21 C20 1.373 . S
C21 C22 1.396 . S
C21 C28 1.403 . S
C22 C12 1.476 . S
C22 N17 1.318 1_655 S
C22 C21 1.396 . S
H23 C18 0.929 . S
O24 Mn0 2.385 1_565 S
O24 C2 1.234 . S
O25 Mn0 2.209 . S
O25 Mn1 2.215 . S
O25 C2 1.283 1_545 S
O26 Mn0 2.094 . S
O26 C4 1.240 . S
O27 Mn1 2.117 . S
O27 C4 1.264 . S
C28 C21 1.403 . S
C28 C29 1.399 . S
C28 H34 0.929 . S
C29 C9 1.449 . S
C29 C28 1.399 . S
C29 H35 0.930 . S
H30 C10 0.929 1_556 S
H31 C11 0.930 . S
H32 C19 0.931 . S
H33 C20 0.929 . S
H34 C28 0.929 . S
H35 C29 0.930 . S
Mn36 O41 2.095 . S
Mn36 O51 2.162 1_445 S
Mn36 O52 2.297 . S
Mn36 O60 2.385 . S
Mn36 O61 2.209 . S
Mn36 O62 2.094 1_455 S
Mn37 O42 2.121 . S
Mn37 N44 2.257 . S
Mn37 N53 2.282 . S
Mn37 O61 2.215 . S
Mn37 O63 2.117 . S
C38 O60 1.234 . S
C38 O61 1.283 . S
C39 O51 1.281 1_455 S
C39 O52 1.236 1_565 S
C40 O62 1.240 . S
C40 O63 1.264 1_655 S
O41 Mn36 2.095 . S
O41 C50 1.250 . S
O42 Mn37 2.121 . S
O42 C50 1.258 . S
C43 N44 1.326 . S
C43 C47 1.460 . S
C43 H49 0.929 . S
N44 Mn37 2.257 . S
N44 C43 1.326 . S
N44 C48 1.362 . S
C45 C46 1.258 . S
C45 C48 1.431 . S
C45 C65 1.449 . S
C46 C45 1.258 . S
C46 C47 1.477 . S
C46 H66 0.931 . S
C47 C43 1.460 . S
C47 C46 1.477 . S
C47 H67 0.930 . S
C48 N44 1.362 . S
C48 C45 1.431 . S
C48 C58 1.476 . S
H49 C43 0.929 . S
C50 O41 1.250 . S
C50 O42 1.258 . S
O51 Mn36 2.162 1_665 S
O51 C39 1.281 1_655 S
O52 Mn36 2.297 . S
O52 C39 1.236 1_545 S
N53 Mn37 2.282 . S
N53 C54 1.328 . S
N53 C58 1.318 . S
C54 N53 1.328 . S
C54 C55 1.457 . S
C54 H59 0.929 . S
C55 C54 1.457 . S
C55 C56 1.291 . S
C55 H68 0.931 . S
C56 C55 1.291 . S
C56 C57 1.373 . S
C56 H69 0.929 . S
C57 C56 1.373 . S
C57 C58 1.396 . S
C57 C64 1.403 . S
C58 C48 1.476 . S
C58 N53 1.318 . S
C58 C57 1.396 . S
H59 C54 0.929 . S
O60 Mn36 2.385 . S
O60 C38 1.234 . S
O61 Mn36 2.209 . S
O61 Mn37 2.215 . S
O61 C38 1.283 . S
O62 Mn36 2.094 1_655 S
O62 C40 1.240 . S
O63 Mn37 2.117 . S
O63 C40 1.264 1_455 S
C64 C57 1.403 . S
C64 C65 1.399 . S
C64 H70 0.929 . S
C65 C45 1.449 . S
C65 C64 1.399 . S
C65 H71 0.930 . S
H66 C46 0.931 . S
H67 C47 0.930 . S
H68 C55 0.931 . S
H69 C56 0.929 . S
H70 C64 0.929 . S
H71 C65 0.930 . S
Mn72 O77 2.095 . S
Mn72 O87 2.162 1_545 S
Mn72 O88 2.297 . S
Mn72 O96 2.385 . S
Mn72 O97 2.209 . S
Mn72 O98 2.094 1_545 S
Mn73 O78 2.121 1_455 S
Mn73 N80 2.257 . S
Mn73 N89 2.282 . S
Mn73 O97 2.215 . S
Mn73 O99 2.117 1_445 S
C74 O96 1.234 . S
C74 O97 1.283 . S
C75 O87 1.281 1_545 S
C75 O88 1.236 . S
C76 O98 1.240 1_655 S
C76 O99 1.264 . S
O77 Mn72 2.095 . S
O77 C86 1.250 1_455 S
O78 Mn73 2.121 1_655 S
O78 C86 1.258 . S
C79 N80 1.326 . S
C79 C83 1.460 . S
C79 H85 0.929 . S
N80 Mn73 2.257 . S
N80 C79 1.326 . S
N80 C84 1.362 . S
C81 C82 1.258 . S
C81 C84 1.431 . S
C81 C101 1.449 . S
C82 C81 1.258 . S
C82 C83 1.477 . S
C82 H102 0.931 . S
C83 C79 1.460 . S
C83 C82 1.477 . S
C83 H103 0.930 . S
C84 N80 1.362 . S
C84 C81 1.431 . S
C84 C94 1.476 . S
H85 C79 0.929 . S
C86 O77 1.250 1_655 S
C86 O78 1.258 . S
O87 Mn72 2.162 1_565 S
O87 C75 1.281 1_565 S
O88 Mn72 2.297 . S
O88 C75 1.236 . S
N89 Mn73 2.282 . S
N89 C90 1.328 . S
N89 C94 1.318 . S
C90 N89 1.328 . S
C90 C91 1.457 . S
C90 H95 0.929 . S
C91 C90 1.457 . S
C91 C92 1.291 . S
C91 H104 0.931 . S
C92 C91 1.291 . S
C92 C93 1.373 . S
C92 H105 0.929 . S
C93 C92 1.373 . S
C93 C94 1.396 . S
C93 C100 1.403 . S
C94 C84 1.476 . S
C94 N89 1.318 . S
C94 C93 1.396 . S
H95 C90 0.929 . S
O96 Mn72 2.385 . S
O96 C74 1.234 . S
O97 Mn72 2.209 . S
O97 Mn73 2.215 . S
O97 C74 1.283 . S
O98 Mn72 2.094 1_565 S
O98 C76 1.240 1_455 S
O99 Mn73 2.117 1_665 S
O99 C76 1.264 . S
C100 C93 1.403 . S
C100 C101 1.399 . S
C100 H106 0.929 . S
C101 C81 1.449 . S
C101 C100 1.399 . S
C101 H107 0.930 . S
H102 C82 0.931 . S
H103 C83 0.930 . S
H104 C91 0.931 . S
H105 C92 0.929 . S
H106 C100 0.929 . S
H107 C101 0.930 . S
C108 C109 1.443 . S
C108 N112 1.376 . S
C108 C146 1.389 . S
C109 C108 1.443 . S
C109 C110 1.340 . S
C109 H149 0.951 . S
C110 C109 1.340 . S
C110 C111 1.439 . S
C110 H150 0.950 . S
C111 C110 1.439 . S
C111 N112 1.374 . S
C111 C145 1.395 . S
N112 C108 1.376 . S
N112 C111 1.374 . S
N112 Co113 2.008 . S
Co113 N112 2.008 . S
Co113 N114 1.995 . S
Co113 N119 2.008 1_455 S
Co113 N124 1.995 1_455 S
Co113 N129 2.282 . S
Co113 N135 2.282 . S
N114 Co113 1.995 . S
N114 C115 1.376 . S
N114 C118 1.383 . S
C115 N114 1.376 . S
C115 C116 1.446 . S
C115 C145 1.391 . S
C116 C115 1.446 . S
C116 C117 1.339 . S
C116 H151 0.949 . S
C117 C116 1.339 . S
C117 C118 1.439 . S
C117 H152 0.950 . S
C118 N114 1.383 . S
C118 C117 1.439 . S
C118 C147 1.392 . S
N119 Co113 2.008 1_655 S
N119 C120 1.376 . S
N119 C123 1.374 . S
C120 N119 1.376 . S
C120 C121 1.443 . S
C120 C147 1.389 1_655 S
C121 C120 1.443 . S
C121 C122 1.340 . S
C121 H153 0.951 . S
C122 C121 1.340 . S
C122 C123 1.439 . S
C122 H154 0.950 . S
C123 N119 1.374 . S
C123 C122 1.439 . S
C123 C148 1.395 . S
N124 Co113 1.995 1_655 S
N124 C125 1.376 . S
N124 C128 1.383 1_655 S
C125 N124 1.376 . S
C125 C126 1.446 . S
C125 C148 1.391 . S
C126 C125 1.446 . S
C126 C127 1.339 . S
C126 H155 0.949 . S
C127 C126 1.339 . S
C127 C128 1.439 1_655 S
C127 H156 0.950 . S
C128 N124 1.383 1_455 S
C128 C127 1.439 1_455 S
C128 C146 1.392 . S
N129 Co113 2.282 . S
N129 C132 1.332 . S
N129 C134 1.332 . S
C130 C131 1.386 . S
C130 C133 1.388 . S
C131 C130 1.386 . S
C131 C132 1.382 . S
C131 H157 0.950 1_455 S
C132 N129 1.332 . S
C132 C131 1.382 . S
C132 H143 0.952 1_455 S
C133 C130 1.388 . S
C133 C134 1.382 . S
C133 H158 0.950 . S
C134 N129 1.332 . S
C134 C133 1.382 . S
C134 H144 0.948 . S
N135 Co113 2.282 . S
N135 C139 1.332 . S
N135 C140 1.332 1_455 S
C136 C137 1.388 1_655 S
C136 C140 1.382 . S
C136 H159 0.950 . S
C137 C136 1.388 1_455 S
C137 C138 1.386 . S
C138 C137 1.386 . S
C138 C139 1.382 . S
C138 H160 0.950 . S
C139 N135 1.332 . S
C139 C138 1.382 . S
C139 H141 0.952 . S
C140 N135 1.332 1_655 S
C140 C136 1.382 . S
C140 H142 0.948 . S
H141 C139 0.952 . S
H142 C140 0.948 . S
H143 C132 0.952 1_655 S
H144 C134 0.948 . S
C145 C111 1.395 . S
C145 C115 1.391 . S
C146 C108 1.389 . S
C146 C128 1.392 . S
C147 C118 1.392 . S
C147 C120 1.389 1_455 S
C148 C123 1.395 . S
C148 C125 1.391 . S
H149 C109 0.951 . S
H150 C110 0.950 . S
H151 C116 0.949 . S
H152 C117 0.950 . S
H153 C121 0.951 . S
H154 C122 0.950 . S
H155 C126 0.949 . S
H156 C127 0.950 . S
H157 C131 0.950 1_655 S
H158 C133 0.950 . S
H159 C136 0.950 . S
H160 C138 0.950 . S
C161 C162 1.443 1_545 S
C161 N165 1.376 . S
C161 C199 1.389 . S
C162 C161 1.443 1_565 S
C162 C163 1.340 . S
C162 H202 0.951 . S
C163 C162 1.340 . S
C163 C164 1.439 . S
C163 H203 0.950 . S
C164 C163 1.439 . S
C164 N165 1.374 1_565 S
C164 C198 1.395 . S
N165 C161 1.376 . S
N165 C164 1.374 1_545 S
N165 Co166 2.008 . S
Co166 N165 2.008 . S
Co166 N167 1.995 . S
Co166 N172 2.008 . S
Co166 N177 1.995 . S
Co166 N182 2.282 . S
Co166 N188 2.282 . S
N167 Co166 1.995 . S
N167 C168 1.376 1_545 S
N167 C171 1.383 . S
C168 N167 1.376 1_565 S
C168 C169 1.446 . S
C168 C198 1.391 . S
C169 C168 1.446 . S
C169 C170 1.339 . S
C169 H204 0.949 . S
C170 C169 1.339 . S
C170 C171 1.439 1_565 S
C170 H205 0.950 . S
C171 N167 1.383 . S
C171 C170 1.439 1_545 S
C171 C200 1.392 . S
N172 Co166 2.008 . S
N172 C173 1.376 . S
N172 C176 1.374 . S
C173 N172 1.376 . S
C173 C174 1.443 . S
C173 C200 1.389 . S
C174 C173 1.443 . S
C174 C175 1.340 . S
C174 H206 0.951 . S
C175 C174 1.340 . S
C175 C176 1.439 . S
C175 H207 0.950 . S
C176 N172 1.374 . S
C176 C175 1.439 . S
C176 C201 1.395 . S
N177 Co166 1.995 . S
N177 C178 1.376 . S
N177 C181 1.383 . S
C178 N177 1.376 . S
C178 C179 1.446 . S
C178 C201 1.391 . S
C179 C178 1.446 . S
C179 C180 1.339 . S
C179 H208 0.949 . S
C180 C179 1.339 . S
C180 C181 1.439 . S
C180 H209 0.950 . S
C181 N177 1.383 . S
C181 C180 1.439 . S
C181 C199 1.392 . S
N182 Co166 2.282 . S
N182 C185 1.332 . S
N182 C187 1.332 . S
C183 C184 1.386 . S
C183 C186 1.388 . S
C184 C183 1.386 . S
C184 C185 1.382 . S
C184 H210 0.950 . S
C185 N182 1.332 . S
C185 C184 1.382 . S
C185 H196 0.952 . S
C186 C183 1.388 . S
C186 C187 1.382 . S
C186 H211 0.950 . S
C187 N182 1.332 . S
C187 C186 1.382 . S
C187 H197 0.948 . S
N188 Co166 2.282 . S
N188 C192 1.332 . S
N188 C193 1.332 . S
C189 C190 1.388 . S
C189 C193 1.382 . S
C189 H212 0.950 . S
C190 C189 1.388 . S
C190 C191 1.386 . S
C191 C190 1.386 . S
C191 C192 1.382 . S
C191 H213 0.950 . S
C192 N188 1.332 . S
C192 C191 1.382 . S
C192 H194 0.952 . S
C193 N188 1.332 . S
C193 C189 1.382 . S
C193 H195 0.948 . S
H194 C192 0.952 . S
H195 C193 0.948 . S
H196 C185 0.952 . S
H197 C187 0.948 . S
C198 C164 1.395 . S
C198 C168 1.391 . S
C199 C161 1.389 . S
C199 C181 1.392 . S
C200 C171 1.392 . S
C200 C173 1.389 . S
C201 C176 1.395 . S
C201 C178 1.391 . S
H202 C162 0.951 . S
H203 C163 0.950 . S
H204 C169 0.949 . S
H205 C170 0.950 . S
H206 C174 0.951 . S
H207 C175 0.950 . S
H208 C179 0.949 . S
H209 C180 0.950 . S
H210 C184 0.950 . S
H211 C186 0.950 . S
H212 C189 0.950 . S
H213 C191 0.950 . S
C214 C215 1.443 . S
C214 N218 1.376 . S
C214 C252 1.389 . S
C215 C214 1.443 . S
C215 C216 1.340 . S
C215 H255 0.951 . S
C216 C215 1.340 . S
C216 C217 1.439 . S
C216 H256 0.950 . S
C217 C216 1.439 . S
C217 N218 1.374 . S
C217 C251 1.395 . S
N218 C214 1.376 . S
N218 C217 1.374 . S
N218 Co219 2.008 . S
Co219 N218 2.008 . S
Co219 N220 1.995 . S
Co219 N225 2.008 . S
Co219 N230 1.995 . S
Co219 N235 2.282 . S
Co219 N241 2.282 . S
N220 Co219 1.995 . S
N220 C221 1.376 . S
N220 C224 1.383 . S
C221 N220 1.376 . S
C221 C222 1.446 . S
C221 C251 1.391 . S
C222 C221 1.446 . S
C222 C223 1.339 . S
C222 H257 0.949 . S
C223 C222 1.339 . S
C223 C224 1.439 . S
C223 H258 0.950 . S
C224 N220 1.383 . S
C224 C223 1.439 . S
C224 C253 1.392 . S
N225 Co219 2.008 . S
N225 C226 1.376 . S
N225 C229 1.374 . S
C226 N225 1.376 . S
C226 C227 1.443 . S
C226 C253 1.389 . S
C227 C226 1.443 . S
C227 C228 1.340 . S
C227 H259 0.951 . S
C228 C227 1.340 . S
C228 C229 1.439 . S
C228 H260 0.950 . S
C229 N225 1.374 . S
C229 C228 1.439 . S
C229 C254 1.395 . S
N230 Co219 1.995 . S
N230 C231 1.376 . S
N230 C234 1.383 . S
C231 N230 1.376 . S
C231 C232 1.446 . S
C231 C254 1.391 . S
C232 C231 1.446 . S
C232 C233 1.339 . S
C232 H261 0.949 . S
C233 C232 1.339 . S
C233 C234 1.439 . S
C233 H262 0.950 . S
C234 N230 1.383 . S
C234 C233 1.439 . S
C234 C252 1.392 . S
N235 Co219 2.282 . S
N235 C238 1.332 . S
N235 C240 1.332 . S
C236 C237 1.386 . S
C236 C239 1.388 . S
C237 C236 1.386 . S
C237 C238 1.382 . S
C237 H263 0.950 . S
C238 N235 1.332 . S
C238 C237 1.382 . S
C238 H249 0.952 . S
C239 C236 1.388 . S
C239 C240 1.382 . S
C239 H264 0.950 . S
C240 N235 1.332 . S
C240 C239 1.382 . S
C240 H250 0.948 . S
N241 Co219 2.282 . S
N241 C245 1.332 . S
N241 C246 1.332 . S
C242 C243 1.388 . S
C242 C246 1.382 . S
C242 H265 0.950 . S
C243 C242 1.388 . S
C243 C244 1.386 . S
C244 C243 1.386 . S
C244 C245 1.382 . S
C244 H266 0.950 . S
C245 N241 1.332 . S
C245 C244 1.382 . S
C245 H247 0.952 . S
C246 N241 1.332 . S
C246 C242 1.382 . S
C246 H248 0.948 . S
H247 C245 0.952 . S
H248 C246 0.948 . S
H249 C238 0.952 . S
H250 C240 0.948 . S
C251 C217 1.395 . S
C251 C221 1.391 . S
C252 C214 1.389 . S
C252 C234 1.392 . S
C253 C224 1.392 . S
C253 C226 1.389 . S
C254 C229 1.395 . S
C254 C231 1.391 . S
H255 C215 0.951 . S
H256 C216 0.950 . S
H257 C222 0.949 . S
H258 C223 0.950 . S
H259 C227 0.951 . S
H260 C228 0.950 . S
H261 C232 0.949 . S
H262 C233 0.950 . S
H263 C237 0.950 . S
H264 C239 0.950 . S
H265 C242 0.950 . S
H266 C244 0.950 . S
C267 C268 1.391 . S
C267 C269 1.394 . S
C267 H283 0.931 . S
C268 C267 1.391 . S
C268 C272 1.376 . S
C269 C267 1.394 . S
C269 C270 1.369 . S
C269 C273 1.531 . S
C270 C269 1.369 . S
C270 C271 1.410 . S
C270 C278 1.503 . S
C271 C270 1.410 . S
C271 C272 1.392 . S
C271 C274 1.511 1_455 S
C272 C268 1.376 . S
C272 C271 1.392 . S
C272 H284 0.929 . S
C273 C269 1.531 . S
C273 H285 0.960 . S
C273 H286 0.962 . S
C273 H287 0.960 . S
C274 C271 1.511 1_655 S
C274 H288 0.961 . S
C274 H289 0.961 1_655 S
C274 H290 0.961 . S
C275 C276 1.370 . S
C275 C277 1.363 . S
C275 H291 0.931 . S
C276 C275 1.370 . S
C276 C280 1.408 . S
C277 C275 1.363 . S
C277 C278 1.370 . S
C277 C281 1.524 . S
C278 C270 1.503 . S
C278 C277 1.370 . S
C278 C279 1.403 . S
C279 C278 1.403 . S
C279 C280 1.404 . S
C279 C282 1.539 1_455 S
C280 C276 1.408 . S
C280 C279 1.404 . S
C280 H292 0.930 1_455 S
C281 C277 1.524 . S
C281 H293 0.956 . S
C281 H294 0.961 . S
C281 H295 0.961 . S
C282 C279 1.539 1_655 S
C282 H296 0.958 . S
C282 H297 0.961 . S
C282 H298 0.960 . S
H283 C267 0.931 . S
H284 C272 0.929 . S
H285 C273 0.960 . S
H286 C273 0.962 . S
H287 C273 0.960 . S
H288 C274 0.961 . S
H289 C274 0.961 1_455 S
H290 C274 0.961 . S
H291 C275 0.931 . S
H292 C280 0.930 1_655 S
H293 C281 0.956 . S
H294 C281 0.961 . S
H295 C281 0.961 . S
H296 C282 0.958 . S
H297 C282 0.961 . S
H298 C282 0.960 . S
C299 C300 1.391 . S
C299 C301 1.394 . S
C299 H315 0.931 . S
C300 C299 1.391 . S
C300 C304 1.376 . S
C301 C299 1.394 . S
C301 C302 1.369 . S
C301 C305 1.531 1_545 S
C302 C301 1.369 . S
C302 C303 1.410 . S
C302 C310 1.503 . S
C303 C302 1.410 . S
C303 C304 1.392 . S
C303 C306 1.511 . S
C304 C300 1.376 . S
C304 C303 1.392 . S
C304 H316 0.929 . S
C305 C301 1.531 1_565 S
C305 H317 0.960 . S
C305 H318 0.962 1_565 S
C305 H319 0.960 . S
C306 C303 1.511 . S
C306 H320 0.961 . S
C306 H321 0.961 . S
C306 H322 0.961 . S
C307 C308 1.370 . S
C307 C309 1.363 . S
C307 H323 0.931 . S
C308 C307 1.370 . S
C308 C312 1.408 . S
C309 C307 1.363 . S
C309 C310 1.370 . S
C309 C313 1.524 . S
C310 C302 1.503 . S
C310 C309 1.370 . S
C310 C311 1.403 . S
C311 C310 1.403 . S
C311 C312 1.404 . S
C311 C314 1.539 1_545 S
C312 C308 1.408 . S
C312 C311 1.404 . S
C312 H324 0.930 . S
C313 C309 1.524 . S
C313 H325 0.956 . S
C313 H326 0.961 . S
C313 H327 0.961 . S
C314 C311 1.539 1_565 S
C314 H328 0.958 . S
C314 H329 0.961 . S
C314 H330 0.960 1_565 S
H315 C299 0.931 . S
H316 C304 0.929 . S
H317 C305 0.960 . S
H318 C305 0.962 1_545 S
H319 C305 0.960 . S
H320 C306 0.961 . S
H321 C306 0.961 . S
H322 C306 0.961 . S
H323 C307 0.931 . S
H324 C312 0.930 . S
H325 C313 0.956 . S
H326 C313 0.961 . S
H327 C313 0.961 . S
H328 C314 0.958 . S
H329 C314 0.961 . S
H330 C314 0.960 1_545 S
C331 C332 1.391 . S
C331 C333 1.394 . S
C331 H347 0.931 . S
C332 C331 1.391 . S
C332 C336 1.376 . S
C333 C331 1.394 . S
C333 C334 1.369 . S
C333 C337 1.531 . S
C334 C333 1.369 . S
C334 C335 1.410 . S
C334 C342 1.503 . S
C335 C334 1.410 . S
C335 C336 1.392 . S
C335 C338 1.511 . S
C336 C332 1.376 . S
C336 C335 1.392 . S
C336 H348 0.929 1_655 S
C337 C333 1.531 . S
C337 H349 0.960 . S
C337 H350 0.962 . S
C337 H351 0.960 . S
C338 C335 1.511 . S
C338 H352 0.961 . S
C338 H353 0.961 . S
C338 H354 0.961 . S
C339 C340 1.370 . S
C339 C341 1.363 . S
C339 H355 0.931 . S
C340 C339 1.370 . S
C340 C344 1.408 . S
C341 C339 1.363 . S
C341 C342 1.370 . S
C341 C345 1.524 . S
C342 C334 1.503 . S
C342 C341 1.370 . S
C342 C343 1.403 . S
C343 C342 1.403 . S
C343 C344 1.404 . S
C343 C346 1.539 . S
C344 C340 1.408 . S
C344 C343 1.404 . S
C344 H356 0.930 . S
C345 C341 1.524 . S
C345 H357 0.956 . S
C345 H358 0.961 . S
C345 H359 0.961 . S
C346 C343 1.539 . S
C346 H360 0.958 . S
C346 H361 0.961 . S
C346 H362 0.960 . S
H347 C331 0.931 . S
H348 C336 0.929 1_455 S
H349 C337 0.960 . S
H350 C337 0.962 . S
H351 C337 0.960 . S
H352 C338 0.961 . S
H353 C338 0.961 . S
H354 C338 0.961 . S
H355 C339 0.931 . S
H356 C344 0.930 . S
H357 C345 0.956 . S
H358 C345 0.961 . S
H359 C345 0.961 . S
H360 C346 0.958 . S
H361 C346 0.961 . S
H362 C346 0.960 . S
C363 C364 1.391 . S
C363 C365 1.394 . S
C363 H379 0.931 . S
C364 C363 1.391 . S
C364 C368 1.376 . S
C365 C363 1.394 . S
C365 C366 1.369 . S
C365 C369 1.531 . S
C366 C365 1.369 . S
C366 C367 1.410 . S
C366 C374 1.503 . S
C367 C366 1.410 . S
C367 C368 1.392 . S
C367 C370 1.511 . S
C368 C364 1.376 . S
C368 C367 1.392 . S
C368 H380 0.929 . S
C369 C365 1.531 . S
C369 H381 0.960 . S
C369 H382 0.962 1_455 S
C369 H383 0.960 . S
C370 C367 1.511 . S
C370 H384 0.961 . S
C370 H385 0.961 . S
C370 H386 0.961 . S
C371 C372 1.370 . S
C371 C373 1.363 . S
C371 H387 0.931 . S
C372 C371 1.370 . S
C372 C376 1.408 . S
C373 C371 1.363 . S
C373 C374 1.370 . S
C373 C377 1.524 . S
C374 C366 1.503 . S
C374 C373 1.370 . S
C374 C375 1.403 . S
C375 C374 1.403 . S
C375 C376 1.404 . S
C375 C378 1.539 . S
C376 C372 1.408 . S
C376 C375 1.404 . S
C376 H388 0.930 . S
C377 C373 1.524 . S
C377 H389 0.956 1_455 S
C377 H390 0.961 . S
C377 H391 0.961 1_455 S
C378 C375 1.539 . S
C378 H392 0.958 . S
C378 H393 0.961 . S
C378 H394 0.960 . S
H379 C363 0.931 . S
H380 C368 0.929 . S
H381 C369 0.960 . S
H382 C369 0.962 1_655 S
H383 C369 0.960 . S
H384 C370 0.961 . S
H385 C370 0.961 . S
H386 C370 0.961 . S
H387 C371 0.931 . S
H388 C376 0.930 . S
H389 C377 0.956 1_655 S
H390 C377 0.961 . S
H391 C377 0.961 1_655 S
H392 C378 0.958 . S
H393 C378 0.961 . S
H394 C378 0.960 . S
C395 C396 1.391 . S
C395 C397 1.394 . S
C395 H411 0.931 . S
C396 C395 1.391 . S
C396 C400 1.376 . S
C397 C395 1.394 . S
C397 C398 1.369 . S
C397 C401 1.531 . S
C398 C397 1.369 . S
C398 C399 1.410 . S
C398 C406 1.503 . S
C399 C398 1.410 . S
C399 C400 1.392 . S
C399 C402 1.511 . S
C400 C396 1.376 . S
C400 C399 1.392 . S
C400 H412 0.929 . S
C401 C397 1.531 . S
C401 H413 0.960 . S
C401 H414 0.962 . S
C401 H415 0.960 . S
C402 C399 1.511 . S
C402 H416 0.961 . S
C402 H417 0.961 . S
C402 H418 0.961 . S
C403 C404 1.370 . S
C403 C405 1.363 . S
C403 H419 0.931 . S
C404 C403 1.370 . S
C404 C408 1.408 . S
C405 C403 1.363 . S
C405 C406 1.370 . S
C405 C409 1.524 1_545 S
C406 C398 1.503 . S
C406 C405 1.370 . S
C406 C407 1.403 . S
C407 C406 1.403 . S
C407 C408 1.404 . S
C407 C410 1.539 . S
C408 C404 1.408 . S
C408 C407 1.404 . S
C408 H420 0.930 . S
C409 C405 1.524 1_565 S
C409 H421 0.956 . S
C409 H422 0.961 . S
C409 H423 0.961 . S
C410 C407 1.539 . S
C410 H424 0.958 . S
C410 H425 0.961 . S
C410 H426 0.960 . S
H411 C395 0.931 . S
H412 C400 0.929 . S
H413 C401 0.960 . S
H414 C401 0.962 . S
H415 C401 0.960 . S
H416 C402 0.961 . S
H417 C402 0.961 . S
H418 C402 0.961 . S
H419 C403 0.931 . S
H420 C408 0.930 . S
H421 C409 0.956 . S
H422 C409 0.961 . S
H423 C409 0.961 . S
H424 C410 0.958 . S
H425 C410 0.961 . S
H426 C410 0.960 . S
C427 C428 1.391 . S
C427 C429 1.394 . S
C427 H443 0.931 . S
C428 C427 1.391 . S
C428 C432 1.376 . S
C429 C427 1.394 . S
C429 C430 1.369 . S
C429 C433 1.531 . S
C430 C429 1.369 . S
C430 C431 1.410 . S
C430 C438 1.503 . S
C431 C430 1.410 . S
C431 C432 1.392 . S
C431 C434 1.511 . S
C432 C428 1.376 . S
C432 C431 1.392 . S
C432 H444 0.929 . S
C433 C429 1.531 . S
C433 H445 0.960 . S
C433 H446 0.962 . S
C433 H447 0.960 . S
C434 C431 1.511 . S
C434 H448 0.961 . S
C434 H449 0.961 . S
C434 H450 0.961 . S
C435 C436 1.370 . S
C435 C437 1.363 . S
C435 H451 0.931 . S
C436 C435 1.370 . S
C436 C440 1.408 . S
C437 C435 1.363 . S
C437 C438 1.370 . S
C437 C441 1.524 . S
C438 C430 1.503 . S
C438 C437 1.370 . S
C438 C439 1.403 . S
C439 C438 1.403 . S
C439 C440 1.404 . S
C439 C442 1.539 . S
C440 C436 1.408 . S
C440 C439 1.404 . S
C440 H452 0.930 . S
C441 C437 1.524 . S
C441 H453 0.956 . S
C441 H454 0.961 . S
C441 H455 0.961 . S
C442 C439 1.539 . S
C442 H456 0.958 . S
C442 H457 0.961 . S
C442 H458 0.960 . S
H443 C427 0.931 . S
H444 C432 0.929 . S
H445 C433 0.960 . S
H446 C433 0.962 . S
H447 C433 0.960 . S
H448 C434 0.961 . S
H449 C434 0.961 . S
H450 C434 0.961 . S
H451 C435 0.931 . S
H452 C440 0.930 . S
H453 C441 0.956 . S
H454 C441 0.961 . S
H455 C441 0.961 . S
H456 C442 0.958 . S
H457 C442 0.961 . S
H458 C442 0.960 . S
C459 C460 1.391 . S
C459 C461 1.394 . S
C459 H475 0.931 . S
C460 C459 1.391 . S
C460 C464 1.376 . S
C461 C459 1.394 . S
C461 C462 1.369 . S
C461 C465 1.531 . S
C462 C461 1.369 . S
C462 C463 1.410 . S
C462 C470 1.503 . S
C463 C462 1.410 . S
C463 C464 1.392 . S
C463 C466 1.511 . S
C464 C460 1.376 . S
C464 C463 1.392 . S
C464 H476 0.929 . S
C465 C461 1.531 . S
C465 H477 0.960 . S
C465 H478 0.962 . S
C465 H479 0.961 . S
C466 C463 1.511 . S
C466 H480 0.961 . S
C466 H481 0.961 . S
C466 H482 0.961 . S
C467 C468 1.370 . S
C467 C469 1.363 . S
C467 H483 0.931 . S
C468 C467 1.370 . S
C468 C472 1.408 . S
C469 C467 1.363 . S
C469 C470 1.370 . S
C469 C473 1.524 . S
C470 C462 1.503 . S
C470 C469 1.370 . S
C470 C471 1.403 . S
C471 C470 1.403 . S
C471 C472 1.404 . S
C471 C474 1.539 1_545 S
C472 C468 1.408 . S
C472 C471 1.404 . S
C472 H484 0.930 . S
C473 C469 1.524 . S
C473 H485 0.956 . S
C473 H486 0.961 . S
C473 H487 0.961 . S
C474 C471 1.539 1_565 S
C474 H488 0.958 . S
C474 H489 0.961 . S
C474 H490 0.960 . S
H475 C459 0.931 . S
H476 C464 0.929 . S
H477 C465 0.960 . S
H478 C465 0.962 . S
H479 C465 0.961 . S
H480 C466 0.961 . S
H481 C466 0.961 . S
H482 C466 0.961 . S
H483 C467 0.931 . S
H484 C472 0.930 . S
H485 C473 0.956 . S
H486 C473 0.961 . S
H487 C473 0.961 . S
H488 C474 0.958 . S
H489 C474 0.961 . S
H490 C474 0.960 . S
C491 C492 1.391 . S
C491 C493 1.394 . S
C491 H507 0.931 . S
C492 C491 1.391 . S
C492 C496 1.376 1_554 S
C493 C491 1.394 . S
C493 C494 1.369 1_554 S
C493 C497 1.531 . S
C494 C493 1.369 1_556 S
C494 C495 1.410 . S
C494 C502 1.503 . S
C495 C494 1.410 . S
C495 C496 1.392 . S
C495 C498 1.511 . S
C496 C492 1.376 1_556 S
C496 C495 1.392 . S
C496 H508 0.931 1_565 S
C497 C493 1.531 . S
C497 H509 0.960 . S
C497 H510 0.962 . S
C497 H511 0.960 . S
C498 C495 1.511 . S
C498 H512 0.961 . S
C498 H513 0.961 . S
C498 H514 0.961 . S
C499 C500 1.370 . S
C499 C501 1.363 . S
C499 H515 0.931 . S
C500 C499 1.370 . S
C500 C504 1.408 . S
C501 C499 1.363 . S
C501 C502 1.370 . S
C501 C505 1.524 . S
C502 C494 1.503 . S
C502 C501 1.370 . S
C502 C503 1.403 . S
C503 C502 1.403 . S
C503 C504 1.404 . S
C503 C506 1.539 . S
C504 C500 1.408 . S
C504 C503 1.404 . S
C504 H516 0.930 . S
C505 C501 1.524 . S
C505 H517 0.956 . S
C505 H518 0.961 . S
C505 H519 0.961 . S
C506 C503 1.539 . S
C506 H520 0.958 . S
C506 H521 0.961 . S
C506 H522 0.960 . S
H507 C491 0.931 . S
H508 C496 0.931 1_545 S
H509 C497 0.960 . S
H510 C497 0.962 . S
H511 C497 0.960 . S
H512 C498 0.961 . S
H513 C498 0.961 . S
H514 C498 0.961 . S
H515 C499 0.931 . S
H516 C504 0.930 . S
H517 C505 0.956 . S
H518 C505 0.961 . S
H519 C505 0.961 . S
H520 C506 0.958 . S
H521 C506 0.961 . S
H522 C506 0.960 . S
C523 C524 1.391 . S
C523 C525 1.394 . S
C523 H539 0.931 1_455 S
C524 C523 1.391 . S
C524 C528 1.376 . S
C525 C523 1.394 . S
C525 C526 1.369 . S
C525 C529 1.531 1_455 S
C526 C525 1.369 . S
C526 C527 1.410 . S
C526 C534 1.503 . S
C527 C526 1.410 . S
C527 C528 1.392 . S
C527 C530 1.511 . S
C528 C524 1.376 . S
C528 C527 1.392 . S
C528 H540 0.929 . S
C529 C525 1.531 1_655 S
C529 H541 0.960 1_655 S
C529 H542 0.962 . S
C529 H543 0.960 . S
C530 C527 1.511 . S
C530 H544 0.961 . S
C530 H545 0.961 . S
C530 H546 0.961 . S
C531 C532 1.370 . S
C531 C533 1.363 . S
C531 H547 0.931 1_455 S
C532 C531 1.370 . S
C532 C536 1.408 . S
C533 C531 1.363 . S
C533 C534 1.370 . S
C533 C537 1.524 1_455 S
C534 C526 1.503 . S
C534 C533 1.370 . S
C534 C535 1.403 . S
C535 C534 1.403 . S
C535 C536 1.404 . S
C535 C538 1.539 . S
C536 C532 1.408 . S
C536 C535 1.404 . S
C536 H548 0.930 . S
C537 C533 1.524 1_655 S
C537 H549 0.956 . S
C537 H550 0.961 . S
C537 H551 0.961 . S
C538 C535 1.539 . S
C538 H552 0.958 . S
C538 H553 0.961 . S
C538 H554 0.960 . S
H539 C523 0.931 1_655 S
H540 C528 0.929 . S
H541 C529 0.960 1_455 S
H542 C529 0.962 . S
H543 C529 0.960 . S
H544 C530 0.961 . S
H545 C530 0.961 . S
H546 C530 0.961 . S
H547 C531 0.931 1_655 S
H548 C536 0.930 . S
H549 C537 0.956 . S
H550 C537 0.961 . S
H551 C537 0.961 . S
H552 C538 0.958 . S
H553 C538 0.961 . S
H554 C538 0.960 . S
C555 C556 1.391 . S
C555 C557 1.394 . S
C555 H571 0.931 1_545 S
C556 C555 1.391 . S
C556 C560 1.376 . S
C557 C555 1.394 . S
C557 C558 1.369 . S
C557 C561 1.531 1_545 S
C558 C557 1.369 . S
C558 C559 1.410 . S
C558 C566 1.503 . S
C559 C558 1.410 . S
C559 C560 1.392 . S
C559 C562 1.511 . S
C560 C556 1.376 . S
C560 C559 1.392 . S
C560 H572 0.929 . S
C561 C557 1.531 1_565 S
C561 H573 0.960 . S
C561 H574 0.962 . S
C561 H575 0.960 . S
C562 C559 1.511 . S
C562 H576 0.961 . S
C562 H577 0.961 . S
C562 H578 0.961 . S
C563 C564 1.370 . S
C563 C565 1.363 . S
C563 H579 0.931 . S
C564 C563 1.370 . S
C564 C568 1.408 . S
C565 C563 1.363 . S
C565 C566 1.370 . S
C565 C569 1.524 . S
C566 C558 1.503 . S
C566 C565 1.370 . S
C566 C567 1.403 . S
C567 C566 1.403 . S
C567 C568 1.404 . S
C567 C570 1.539 . S
C568 C564 1.408 . S
C568 C567 1.404 . S
C568 H580 0.930 . S
C569 C565 1.524 . S
C569 H581 0.956 . S
C569 H582 0.961 . S
C569 H583 0.961 . S
C570 C567 1.539 . S
C570 H584 0.958 . S
C570 H585 0.961 . S
C570 H586 0.960 . S
H571 C555 0.931 1_565 S
H572 C560 0.929 . S
H573 C561 0.960 . S
H574 C561 0.962 . S
H575 C561 0.960 . S
H576 C562 0.961 . S
H577 C562 0.961 . S
H578 C562 0.961 . S
H579 C563 0.931 . S
H580 C568 0.930 . S
H581 C569 0.956 . S
H582 C569 0.961 . S
H583 C569 0.961 . S
H584 C570 0.958 . S
H585 C570 0.961 . S
H586 C570 0.960 . S
C587 C588 1.391 . S
C587 C589 1.394 . S
C587 H603 0.931 . S
C588 C587 1.391 . S
C588 C592 1.376 . S
C589 C587 1.394 . S
C589 C590 1.369 . S
C589 C593 1.531 . S
C590 C589 1.369 . S
C590 C591 1.410 . S
C590 C598 1.503 . S
C591 C590 1.410 . S
C591 C592 1.392 . S
C591 C594 1.511 . S
C592 C588 1.376 . S
C592 C591 1.392 . S
C592 H604 0.929 . S
C593 C589 1.531 . S
C593 H605 0.960 . S
C593 H606 0.962 . S
C593 H607 0.960 . S
C594 C591 1.511 . S
C594 H608 0.961 . S
C594 H609 0.961 . S
C594 H610 0.961 . S
C595 C596 1.370 . S
C595 C597 1.363 . S
C595 H611 0.931 . S
C596 C595 1.370 . S
C596 C600 1.408 . S
C597 C595 1.363 . S
C597 C598 1.370 . S
C597 C601 1.524 . S
C598 C590 1.503 . S
C598 C597 1.370 . S
C598 C599 1.403 . S
C599 C598 1.403 . S
C599 C600 1.404 . S
C599 C602 1.539 . S
C600 C596 1.408 . S
C600 C599 1.404 . S
C600 H612 0.930 . S
C601 C597 1.524 . S
C601 H613 0.956 . S
C601 H614 0.961 . S
C601 H615 0.961 . S
C602 C599 1.539 . S
C602 H616 0.958 . S
C602 H617 0.961 . S
C602 H618 0.960 . S
H603 C587 0.931 . S
H604 C592 0.929 . S
H605 C593 0.960 . S
H606 C593 0.962 . S
H607 C593 0.960 . S
H608 C594 0.961 . S
H609 C594 0.961 . S
H610 C594 0.961 . S
H611 C595 0.931 . S
H612 C600 0.930 . S
H613 C601 0.956 . S
H614 C601 0.961 . S
H615 C601 0.961 . S
H616 C602 0.958 . S
H617 C602 0.961 . S
H618 C602 0.960 . S
C619 C620 1.391 . S
C619 C621 1.394 . S
C619 H635 0.931 . S
C620 C619 1.391 . S
C620 C624 1.376 1_455 S
C621 C619 1.394 . S
C621 C622 1.369 . S
C621 C625 1.531 . S
C622 C621 1.369 . S
C622 C623 1.410 1_455 S
C622 C630 1.503 . S
C623 C622 1.410 1_655 S
C623 C624 1.392 . S
C623 C626 1.511 . S
C624 C620 1.376 1_655 S
C624 C623 1.392 . S
C624 H636 0.929 . S
C625 C621 1.531 . S
C625 H637 0.960 . S
C625 H638 0.962 . S
C625 H639 0.960 . S
C626 C623 1.511 . S
C626 H640 0.961 . S
C626 H641 0.961 . S
C626 H642 0.961 . S
C627 C628 1.370 . S
C627 C629 1.363 . S
C627 H643 0.931 . S
C628 C627 1.370 . S
C628 C632 1.408 . S
C629 C627 1.363 . S
C629 C630 1.370 . S
C629 C633 1.524 . S
C630 C622 1.503 . S
C630 C629 1.370 . S
C630 C631 1.403 . S
C631 C630 1.403 . S
C631 C632 1.404 . S
C631 C634 1.539 . S
C632 C628 1.408 . S
C632 C631 1.404 . S
C632 H644 0.930 . S
C633 C629 1.524 . S
C633 H645 0.956 . S
C633 H646 0.961 . S
C633 H647 0.961 . S
C634 C631 1.539 . S
C634 H648 0.958 . S
C634 H649 0.961 1_455 S
C634 H650 0.960 . S
H635 C619 0.931 . S
H636 C624 0.929 . S
H637 C625 0.960 . S
H638 C625 0.962 . S
H639 C625 0.960 . S
H640 C626 0.961 . S
H641 C626 0.961 . S
H642 C626 0.961 . S
H643 C627 0.931 . S
H644 C632 0.930 . S
H645 C633 0.956 . S
H646 C633 0.961 . S
H647 C633 0.961 . S
H648 C634 0.958 . S
H649 C634 0.961 1_655 S
H650 C634 0.960 . S
C276 C130 1.482 . S
C268 C14 1.417 . S
C300 C40 1.498 . S
C308 C200 1.508 . S
C332 C76 1.480 . S
C340 C252 1.477 . S
C364 C3 1.468 . S
C372 C146 1.463 . S
C404 C190 1.505 . S
C396 C38 1.501 . S
C428 C74 1.466 . S
C436 C236 1.472 . S
C468 C183 1.458 . S
C460 C86 1.403 . S
C492 C2 1.474 1_655 S
C500 C243 1.474 . S
C532 C137 1.463 . S
C524 C39 1.456 . S
C564 C199 1.475 . S
C556 C75 1.468 . S
C596 C253 1.485 . S
C588 C4 1.459 1_556 S
C620 C50 1.458 . S
C628 C147 1.482 . S
