# Generated by pormake.
# Topology pth, (4,4)-cn, num edge types: 1
# Building blocks:
#     Node 0, Type 0, BuildingBlock: QUQFOY_clean_sbu_3, # of connection points: 4
#     Node 1, Type 0, BuildingBlock: QUQFOY_clean_sbu_3, # of connection points: 4
#     Node 2, Type 0, BuildingBlock: QUQFOY_clean_sbu_3, # of connection points: 4
#     Node 3, Type 1, BuildingBlock: MUDLON_clean_sbu_0, # of connection points: 4
#     Node 4, Type 1, BuildingBlock: MUDLON_clean_sbu_0, # of connection points: 4
#     Node 5, Type 1, BuildingBlock: MUDLON_clean_sbu_0, # of connection points: 4
#     Edge 6, Type (0, 1), BuildingBlock: CIFDUS_clean_linker_0, # of connection points: 2
#     Edge 7, Type (0, 1), BuildingBlock: CIFDUS_clean_linker_0, # of connection points: 2
#     Edge 8, Type (0, 1), BuildingBlock: CIFDUS_clean_linker_0, # of connection points: 2
#     Edge 9, Type (0, 1), BuildingBlock: CIFDUS_clean_linker_0, # of connection points: 2
#     Edge 10, Type (0, 1), BuildingBlock: CIFDUS_clean_linker_0, # of connection points: 2
#     Edge 11, Type (0, 1), BuildingBlock: CIFDUS_clean_linker_0, # of connection points: 2
#     Edge 12, Type (0, 1), BuildingBlock: CIFDUS_clean_linker_0, # of connection points: 2
#     Edge 13, Type (0, 1), BuildingBlock: CIFDUS_clean_linker_0, # of connection points: 2
#     Edge 14, Type (0, 1), BuildingBlock: CIFDUS_clean_linker_0, # of connection points: 2
#     Edge 15, Type (0, 1), BuildingBlock: CIFDUS_clean_linker_0, # of connection points: 2
#     Edge 16, Type (0, 1), BuildingBlock: CIFDUS_clean_linker_0, # of connection points: 2
#     Edge 17, Type (0, 1), BuildingBlock: CIFDUS_clean_linker_0, # of connection points: 2
# Relax obj value: 0.015
# Max RMSD: 0.070
# Mean RMSD: 0.054
data_MOF--net-pth--node1-QUQFOY_clean_sbu_3--node2-MUDLON_clean_sbu_0--edge1-CIFDUS_clean_linker_0
_symmetry_space_group_name_H-M    P1
_symmetry_Int_Tables_number       1
_symmetry_cell_setting            triclinic
loop_
_symmetry_equiv_pos_as_xyz
'x, y, z'
_cell_length_a     20.092349
_cell_length_b     20.060831
_cell_length_c     54.53012
_cell_angle_alpha  89.853063
_cell_angle_beta   90.370024
_cell_angle_gamma 120.68467
loop_
_atom_site_label
_atom_site_type_symbol
_atom_site_fract_x
_atom_site_fract_y
_atom_site_fract_z
_atom_type_partial_charge
C0 C 0.03984 0.27027 0.094 0.0
O1 O 0.00624 0.2606 0.0734 0.0
Cd2 Cd 0.98713 0.16455 0.04338 0.0
O3 O 0.06424 0.22543 0.1005 0.0
Cd4 Cd 0.06081 0.11044 0.08176 0.0
C5 C 0.17275 0.20706 0.03337 0.0
O6 O 0.93121 0.03832 0.06084 0.0
O7 O 0.01797 0.00947 0.05174 0.0
O8 O 0.01887 0.04334 0.12125 0.0
C9 C 0.94845 0.99334 0.04989 0.0
O10 O 0.11017 0.19959 0.02486 0.0
C11 C 0.07018 0.02439 0.12234 0.0
O12 O 0.17634 0.18745 0.05542 0.0
O13 O 0.12004 0.04941 0.1053 0.0
C14 C 0.18881 0.18056 0.44081 0.0
O15 O 0.22376 0.23117 0.4243 0.0
Cd16 Cd 0.15318 0.21569 0.38647 0.0
O17 O 0.11656 0.13244 0.43868 0.0
Cd18 Cd 1.00106 0.09726 0.41326 0.0
C19 C 0.08 0.01963 0.37755 0.0
O20 O 0.03441 0.21751 0.39108 0.0
O21 O 0.94831 0.10892 0.37462 0.0
O22 O 0.94558 0.11035 0.4512 0.0
C23 C 0.98469 0.18236 0.37413 0.0
O24 O 0.12681 0.08932 0.37098 0.0
C25 C 0.88031 0.04866 0.4488 0.0
O26 O 0.02919 0.00469 0.39394 0.0
O27 O 0.87 0.00823 0.42968 0.0
C28 C 0.91596 0.15993 0.71827 0.0
O29 O 0.90781 0.18051 0.7395 0.0
Cd30 Cd 0.98527 0.18538 0.77366 0.0
O31 O 0.96391 0.13695 0.71488 0.0
Cd32 Cd 0.05701 0.11788 0.74074 0.0
C33 C 0.92673 0.99482 0.78169 0.0
O34 O 0.11526 0.24893 0.7581 0.0
O35 O 0.14875 0.17514 0.77606 0.0
O36 O 0.11762 0.12909 0.70069 0.0
C37 C 0.1592 0.24257 0.77337 0.0
O38 O 0.93362 0.05553 0.79152 0.0
C39 C 0.14494 0.08609 0.70604 0.0
O40 O 0.95891 -0.00104 0.76128 0.0
O41 O 0.13213 0.05819 0.72754 0.0
Mg42 Mg 0.06373 0.62408 0.24707 0.0
C43 C 0.99198 0.46359 0.26958 0.0
O44 O 0.02496 0.45256 0.25056 0.0
C45 C 0.9995 0.72769 0.23085 0.0
O46 O 1.003 0.74421 0.25429 0.0
C47 C 0.07453 0.55451 0.20153 0.0
O48 O 0.01135 0.55825 0.19957 0.0
O49 O 0.1162 0.58214 0.22076 0.0
O50 O 0.99021 0.526 0.27093 0.0
O51 O 0.13563 0.72156 0.27154 0.0
C52 C 0.11223 0.71345 0.29361 0.0
O53 O 0.05915 0.64424 0.30098 0.0
O54 O 0.01222 0.67469 0.22398 0.0
Mg55 Mg 0.54065 0.11291 0.57603 0.0
C56 C 0.48123 0.14374 0.53107 0.0
O57 O 0.46511 0.07175 0.52904 0.0
C58 C 0.62791 0.18833 0.623 0.0
O59 O 0.56008 0.17775 0.62917 0.0
C60 C 0.37554 0.05176 0.59299 0.0
O61 O 0.36845 0.0673 0.57009 0.0
O62 O 0.43861 0.05671 0.59985 0.0
O63 O 0.51958 0.18281 0.54972 0.0
O64 O 0.57218 0.04225 0.55399 0.0
C65 C 0.62532 0.03102 0.56196 0.0
O66 O 0.64719 0.04761 0.58497 0.0
O67 O 0.6384 0.17482 0.60103 0.0
Mg68 Mg 0.56017 0.58038 0.91653 0.0
C69 C 0.43898 0.54421 0.87467 0.0
O70 O 0.4908 0.60945 0.86437 0.0
C71 C 0.65853 0.69996 0.94968 0.0
O72 O 0.69848 0.67391 0.93849 0.0
C73 C 0.55538 0.48173 0.96089 0.0
O74 O 0.60581 0.54826 0.97086 0.0
O75 O 0.53993 0.47936 0.93808 0.0
O76 O 0.45159 0.52773 0.89608 0.0
O77 O 0.65846 0.63963 0.89157 0.0
C78 C 0.66565 0.63473 0.8686 0.0
O79 O 0.61005 0.57693 0.85615 0.0
O80 O 0.58762 0.67119 0.94372 0.0
H81 H 0.11952 0.31837 0.13766 0.0
H82 H 0.97863 0.3629 0.08779 0.0
H83 H 0.9838 0.45962 0.11574 0.0
H84 H 0.02014 0.52524 0.15526 0.0
H85 H 0.16027 0.48307 0.20591 0.0
H86 H 0.16495 0.39301 0.17652 0.0
C87 C 0.09032 0.34953 0.13286 0.0
C88 C 0.048 0.33247 0.1107 0.0
C89 C 0.09354 0.4057 0.14911 0.0
C90 C 0.01125 0.37419 0.1047 0.0
C91 C 0.01413 0.4297 0.1207 0.0
C92 C 0.05247 0.497 0.15982 0.0
C93 C 0.08925 0.51028 0.1828 0.0
C94 C 0.05397 0.44497 0.14306 0.0
C95 C 0.13167 0.47401 0.18829 0.0
C96 C 0.13376 0.42204 0.17157 0.0
H97 H 0.89869 0.06268 0.49788 0.0
H98 H 0.72539 0.98682 0.44096 0.0
H99 H 0.6277 0.96802 0.47136 0.0
H100 H 0.59544 0.98544 0.51378 0.0
H101 H 0.76889 0.05376 0.57067 0.0
H102 H 0.86192 0.0616 0.54078 0.0
C103 C 0.83923 0.04109 0.49223 0.0
C104 C 0.81921 0.02711 0.46728 0.0
C105 C 0.78343 0.02912 0.50981 0.0
C106 C 0.74195 0.99803 0.46012 0.0
C107 C 0.68627 0.9876 0.47748 0.0
C108 C 0.65315 0.00063 0.51969 0.0
C109 C 0.67522 0.02003 0.54443 0.0
C110 C 0.70678 0.00464 0.50234 0.0
C111 C 0.75008 0.03879 0.5518 0.0
C112 C 0.80374 0.04381 0.53466 0.0
H113 H 0.91079 0.96763 0.83053 0.0
H114 H 0.83973 0.85198 0.76056 0.0
H115 H 0.75619 0.72807 0.78117 0.0
H116 H 0.69681 0.65447 0.81925 0.0
H117 H 0.77509 0.77138 0.88907 0.0
H118 H 0.86296 0.892 0.86837 0.0
C119 C 0.8772 0.91518 0.81981 0.0
C120 C 0.88043 0.91904 0.79409 0.0
C121 C 0.83067 0.84414 0.83177 0.0
C122 C 0.83789 0.85046 0.78041 0.0
C123 C 0.79007 0.77965 0.79219 0.0
C124 C 0.73395 0.70599 0.82995 0.0
C125 C 0.72821 0.70355 0.85572 0.0
C126 C 0.78511 0.77593 0.81789 0.0
C127 C 0.77747 0.77109 0.86923 0.0
C128 C 0.82774 0.84056 0.85741 0.0
H129 H 0.98719 0.98074 0.16479 0.0
H130 H 0.14638 0.94469 0.12211 0.0
H131 H 0.13363 0.84583 0.15099 0.0
H132 H 0.07693 0.76892 0.18807 0.0
H133 H 0.92588 0.81068 0.23288 0.0
H134 H 0.93481 0.90734 0.2033 0.0
C135 C 0.01945 0.95157 0.16192 0.0
C136 C 0.06763 0.97007 0.14128 0.0
C137 C 0.01249 0.89517 0.17879 0.0
C138 C 0.10931 0.93199 0.13788 0.0
C139 C 0.10165 0.87502 0.15431 0.0
C140 C 0.04512 0.79846 0.19121 0.0
C141 C 0.99957 0.78175 0.21236 0.0
C142 C 0.05301 0.85576 0.17469 0.0
C143 C 0.96056 0.82206 0.21657 0.0
C144 C 0.966 0.87749 0.19973 0.0
H145 H 0.34028 0.27809 0.45515 0.0
H146 H 0.13527 0.05909 0.47218 0.0
H147 H 0.20785 0.03064 0.50182 0.0
H148 H 0.33043 0.06202 0.52068 0.0
H149 H 0.53554 0.28261 0.50693 0.0
H150 H 0.46225 0.31658 0.47822 0.0
C151 C 0.3114 0.22465 0.46557 0.0
C152 C 0.23245 0.17049 0.46113 0.0
C153 C 0.35359 0.20855 0.48298 0.0
C154 C 0.19582 0.10186 0.47503 0.0
C155 C 0.23736 0.08518 0.49198 0.0
C156 C 0.35898 0.11786 0.51154 0.0
C157 C 0.4382 0.16941 0.51553 0.0
C158 C 0.31638 0.13719 0.49569 0.0
C159 C 0.47447 0.24203 0.50397 0.0
C160 C 0.43261 0.2612 0.48756 0.0
H161 H 0.19514 0.23588 0.82099 0.0
H162 H 0.23846 0.39588 0.76192 0.0
H163 H 0.32588 0.50484 0.78833 0.0
H164 H 0.39375 0.55391 0.82795 0.0
H165 H 0.34268 0.39318 0.88765 0.0
H166 H 0.25365 0.28597 0.86149 0.0
C167 C 0.22397 0.29465 0.81393 0.0
C168 C 0.21156 0.30793 0.78949 0.0
C169 C 0.27224 0.35706 0.82942 0.0
C170 C 0.24771 0.38437 0.78067 0.0
C171 C 0.29753 0.44663 0.79577 0.0
C172 C 0.36237 0.49561 0.83534 0.0
C173 C 0.37573 0.48198 0.85972 0.0
C174 C 0.31061 0.43366 0.82017 0.0
C175 C 0.33397 0.40585 0.86898 0.0
C176 C 0.28322 0.34411 0.85397 0.0
H177 H 0.81151 0.20808 0.71937 0.0
H178 H 0.91974 0.12421 0.66997 0.0
H179 H 0.84577 0.13317 0.63568 0.0
H180 H 0.74642 0.15959 0.62004 0.0
H181 H 0.63494 0.23855 0.66987 0.0
H182 H 0.71547 0.23825 0.70356 0.0
C183 C 0.81914 0.19176 0.70112 0.0
C184 C 0.87092 0.165 0.69736 0.0
C185 C 0.77628 0.1968 0.68149 0.0
C186 C 0.88006 0.14454 0.67349 0.0
C187 C 0.83793 0.14989 0.65383 0.0
C188 C 0.74049 0.17787 0.63818 0.0
C189 C 0.68464 0.19913 0.6424 0.0
C190 C 0.78551 0.17548 0.65764 0.0
C191 C 0.67741 0.22196 0.6661 0.0
C192 C 0.72317 0.22141 0.68541 0.0
H193 H 0.81017 0.96578 0.02987 0.0
H194 H 0.96418 0.8751 0.03422 0.0
H195 H 0.88464 0.77434 0.00493 0.0
H196 H 0.77821 0.71722 0.97624 0.0
H197 H 0.62157 0.80364 0.96988 0.0
H198 H 0.69464 0.90033 1.00206 0.0
C199 C 0.82552 0.92329 0.02457 0.0
C200 C 0.89356 0.92851 0.03403 0.0
C201 C 0.77953 0.86522 0.0073 0.0
C202 C 0.91278 0.87308 0.02703 0.0
C203 C 0.8673 0.81528 0.01028 0.0
C204 C 0.75967 0.75709 0.98183 0.0
C205 C 0.69544 0.75427 0.97043 0.0
C206 C 0.80176 0.81188 0.99996 0.0
C207 C 0.6712 0.80506 0.97834 0.0
C208 C 0.71313 0.86038 0.99664 0.0
H209 H 0.16709 0.02742 0.33816 0.0
H210 H 0.00406 0.86724 0.39093 0.0
H211 H 0.00792 0.76044 0.37119 0.0
H212 H 0.05049 0.71126 0.33773 0.0
H213 H 0.20723 0.86842 0.2832 0.0
H214 H 0.21441 0.97809 0.30529 0.0
C215 C 0.13272 0.96923 0.34545 0.0
C216 C 0.08485 0.95545 0.36593 0.0
C217 C 0.13442 0.90765 0.3338 0.0
C218 C 0.04086 0.8796 0.3751 0.0
C219 C 0.0432 0.81843 0.36386 0.0
C220 C 0.0872 0.76953 0.33075 0.0
C221 C 0.1281 0.78143 0.30874 0.0
C222 C 0.08889 0.83165 0.34303 0.0
C223 C 0.17527 0.85751 0.3001 0.0
C224 C 0.1789 0.92017 0.31264 0.0
H225 H 0.13341 0.08483 0.65654 0.0
H226 H 0.25639 0.04978 0.71545 0.0
H227 H 0.33581 0.03025 0.68571 0.0
H228 H 0.3754 0.03125 0.64279 0.0
H229 H 0.24661 0.06021 0.58419 0.0
H230 H 0.16379 0.07249 0.61392 0.0
C231 C 0.17746 0.07266 0.66284 0.0
C232 C 0.18985 0.06984 0.68811 0.0
C233 C 0.22173 0.06004 0.64567 0.0
C234 C 0.24606 0.05257 0.69605 0.0
C235 C 0.29149 0.04145 0.67906 0.0
C236 C 0.32847 0.03901 0.63652 0.0
C237 C 0.31807 0.04562 0.61123 0.0
C238 C 0.2805 0.04602 0.65379 0.0
C239 C 0.25653 0.05528 0.60349 0.0
C240 C 0.20915 0.06273 0.6205 0.0
H241 H 0.32687 0.29026 0.0458 0.0
H242 H 0.17091 0.19678 0.98392 0.0
H243 H 0.27888 0.26285 0.95575 0.0
H244 H 0.41398 0.36003 0.94859 0.0
H245 H 0.57029 0.46277 0.00999 0.0
H246 H 0.46682 0.37906 0.03825 0.0
C247 C 0.31694 0.2834 0.02616 0.0
C248 C 0.24085 0.23954 0.017 0.0
C249 C 0.37946 0.32349 0.0099 0.0
C250 C 0.22878 0.23122 0.99147 0.0
C251 C 0.29054 0.26884 0.9753 0.0
C252 C 0.42621 0.36293 0.96809 0.0
C253 C 0.49977 0.41828 0.97712 0.0
C254 C 0.36573 0.31706 0.98429 0.0
C255 C 0.5141 0.42102 1.00251 0.0
C256 C 0.45473 0.37351 0.01872 0.0
H257 H 0.98851 0.32018 0.37296 0.0
H258 H 0.96525 0.13495 0.32693 0.0
H259 H 0.9592 0.20258 0.29046 0.0
H260 H 0.96803 0.31778 0.27144 0.0
H261 H 0.98156 0.49911 0.31737 0.0
H262 H 0.98205 0.4291 0.35397 0.0
C263 C 0.98193 0.29484 0.35491 0.0
C264 C 0.97838 0.22338 0.35254 0.0
C265 C 0.97619 0.33305 0.33401 0.0
C266 C 0.96837 0.19014 0.32916 0.0
C267 C 0.96488 0.22871 0.3083 0.0
C268 C 0.96982 0.34141 0.28947 0.0
C269 C 0.97586 0.41413 0.29158 0.0
C270 C 0.96953 0.30056 0.31047 0.0
C271 C 0.97723 0.44346 0.31512 0.0
C272 C 0.97807 0.40367 0.33612 0.0
loop_
_geom_bond_atom_site_label_1
_geom_bond_atom_site_label_2
_geom_bond_distance
_geom_bond_site_symmetry_2
_ccdc_geom_bond_type
C0 O1 1.306 1_455 S
C0 O3 1.160 . S
O1 C0 1.306 1_655 S
O1 Cd2 2.228 . S
Cd2 O1 2.228 . S
Cd2 O6 2.273 . S
Cd2 O10 2.277 1_655 S
O3 C0 1.160 . S
O3 Cd4 2.203 . S
Cd4 O3 2.203 . S
Cd4 O6 2.411 1_455 S
Cd4 O7 2.333 . S
Cd4 O8 2.352 . S
Cd4 O12 2.277 . S
Cd4 O13 2.356 . S
C5 O10 1.209 . S
C5 O12 1.226 . S
O6 Cd2 2.273 . S
O6 Cd4 2.411 1_655 S
O6 C9 1.320 . S
O7 Cd4 2.333 . S
O7 C9 1.214 1_455 S
O8 Cd4 2.352 . S
O8 C11 1.258 1_545 S
C9 O6 1.320 . S
C9 O7 1.214 1_655 S
O10 Cd2 2.277 1_455 S
O10 C5 1.209 . S
C11 O8 1.258 1_565 S
C11 O13 1.282 1_565 S
O12 Cd4 2.277 . S
O12 C5 1.226 . S
O13 Cd4 2.356 . S
O13 C11 1.282 1_545 S
C14 O15 1.306 . S
C14 O17 1.160 . S
O15 C14 1.306 . S
O15 Cd16 2.228 . S
Cd16 O15 2.228 . S
Cd16 O20 2.273 . S
Cd16 O24 2.277 . S
O17 C14 1.160 . S
O17 Cd18 2.203 . S
Cd18 O17 2.203 . S
Cd18 O20 2.411 . S
Cd18 O21 2.333 1_455 S
Cd18 O22 2.352 1_455 S
Cd18 O26 2.277 1_445 S
Cd18 O27 2.356 1_455 S
C19 O24 1.209 1_565 S
C19 O26 1.226 1_455 S
O20 Cd16 2.273 . S
O20 Cd18 2.411 . S
O20 C23 1.320 . S
O21 Cd18 2.333 1_655 S
O21 C23 1.214 1_655 S
O22 Cd18 2.352 1_655 S
O22 C25 1.258 . S
C23 O20 1.320 . S
C23 O21 1.214 1_455 S
O24 Cd16 2.277 . S
O24 C19 1.209 1_545 S
C25 O22 1.258 . S
C25 O27 1.282 . S
O26 Cd18 2.277 1_665 S
O26 C19 1.226 1_655 S
O27 Cd18 2.356 1_655 S
O27 C25 1.282 . S
C28 O29 1.306 . S
C28 O31 1.160 . S
O29 C28 1.306 . S
O29 Cd30 2.228 . S
Cd30 O29 2.228 . S
Cd30 O34 2.273 1_655 S
Cd30 O38 2.277 . S
O31 C28 1.160 . S
O31 Cd32 2.203 1_655 S
Cd32 O31 2.203 1_455 S
Cd32 O34 2.411 . S
Cd32 O35 2.333 . S
Cd32 O36 2.352 . S
Cd32 O40 2.277 1_445 S
Cd32 O41 2.356 . S
C33 O38 1.209 . S
C33 O40 1.226 1_545 S
O34 Cd30 2.273 1_455 S
O34 Cd32 2.411 . S
O34 C37 1.320 . S
O35 Cd32 2.333 . S
O35 C37 1.214 . S
O36 Cd32 2.352 . S
O36 C39 1.258 . S
C37 O34 1.320 . S
C37 O35 1.214 . S
O38 Cd30 2.277 . S
O38 C33 1.209 . S
C39 O36 1.258 . S
C39 O41 1.282 . S
O40 Cd32 2.277 1_665 S
O40 C33 1.226 1_565 S
O41 Cd32 2.356 . S
O41 C39 1.282 . S
Mg42 O49 2.141 . S
Mg42 O50 2.048 . S
Mg42 O51 2.048 . S
Mg42 O54 2.141 . S
C43 O44 1.313 1_455 S
C43 O50 1.195 . S
O44 C43 1.313 1_655 S
C45 O46 1.245 1_455 S
C45 O54 1.289 . S
O46 C45 1.245 1_655 S
C47 O48 1.245 1_455 S
C47 O49 1.289 . S
O48 C47 1.245 1_655 S
O49 Mg42 2.141 . S
O49 C47 1.289 . S
O50 Mg42 2.048 . S
O50 C43 1.195 . S
O51 Mg42 2.048 . S
O51 C52 1.195 . S
C52 O51 1.195 . S
C52 O53 1.313 1_455 S
O53 C52 1.313 1_655 S
O54 Mg42 2.141 . S
O54 C45 1.289 . S
Mg55 O62 2.141 . S
Mg55 O63 2.048 . S
Mg55 O64 2.048 . S
Mg55 O67 2.141 . S
C56 O57 1.313 . S
C56 O63 1.195 . S
O57 C56 1.313 . S
C58 O59 1.245 . S
C58 O67 1.289 . S
O59 C58 1.245 . S
C60 O61 1.245 . S
C60 O62 1.289 . S
O61 C60 1.245 . S
O62 Mg55 2.141 . S
O62 C60 1.289 . S
O63 Mg55 2.048 . S
O63 C56 1.195 . S
O64 Mg55 2.048 . S
O64 C65 1.195 . S
C65 O64 1.195 . S
C65 O66 1.313 . S
O66 C65 1.313 . S
O67 Mg55 2.141 . S
O67 C58 1.289 . S
Mg68 O75 2.141 . S
Mg68 O76 2.048 . S
Mg68 O77 2.048 . S
Mg68 O80 2.141 . S
C69 O70 1.313 . S
C69 O76 1.195 . S
O70 C69 1.313 . S
C71 O72 1.245 . S
C71 O80 1.289 . S
O72 C71 1.245 . S
C73 O74 1.245 . S
C73 O75 1.289 . S
O74 C73 1.245 . S
O75 Mg68 2.141 . S
O75 C73 1.289 . S
O76 Mg68 2.048 . S
O76 C69 1.195 . S
O77 Mg68 2.048 . S
O77 C78 1.195 . S
C78 O77 1.195 . S
C78 O79 1.313 . S
O79 C78 1.313 . S
O80 Mg68 2.141 . S
O80 C71 1.289 . S
H81 C87 0.930 . S
H82 C90 0.930 . S
H83 C91 0.930 . S
H84 C92 0.930 . S
H85 C95 0.930 . S
H86 C96 0.930 . S
C87 H81 0.930 . S
C87 C88 1.355 . S
C87 C89 1.415 . S
C88 C87 1.355 . S
C88 C90 1.419 . S
C89 C87 1.415 . S
C89 C94 1.425 . S
C89 C96 1.409 . S
C90 H82 0.930 . S
C90 C88 1.419 . S
C90 C91 1.362 . S
C91 H83 0.930 . S
C91 C90 1.362 . S
C91 C94 1.409 . S
C92 H84 0.930 . S
C92 C93 1.355 . S
C92 C94 1.415 . S
C93 C92 1.355 . S
C93 C95 1.419 . S
C94 C89 1.425 . S
C94 C91 1.409 . S
C94 C92 1.415 . S
C95 H85 0.930 . S
C95 C93 1.419 . S
C95 C96 1.362 . S
C96 H86 0.930 . S
C96 C89 1.409 . S
C96 C95 1.362 . S
H97 C103 0.930 . S
H98 C106 0.930 . S
H99 C107 0.930 . S
H100 C108 0.930 . S
H101 C111 0.930 . S
H102 C112 0.930 . S
C103 H97 0.930 . S
C103 C104 1.355 . S
C103 C105 1.415 . S
C104 C103 1.355 . S
C104 C106 1.419 . S
C105 C103 1.415 . S
C105 C110 1.425 . S
C105 C112 1.409 . S
C106 H98 0.930 . S
C106 C104 1.419 . S
C106 C107 1.362 . S
C107 H99 0.930 . S
C107 C106 1.362 . S
C107 C110 1.409 . S
C108 H100 0.930 . S
C108 C109 1.355 . S
C108 C110 1.415 . S
C109 C108 1.355 . S
C109 C111 1.419 . S
C110 C105 1.425 . S
C110 C107 1.409 . S
C110 C108 1.415 . S
C111 H101 0.930 . S
C111 C109 1.419 . S
C111 C112 1.362 . S
C112 H102 0.930 . S
C112 C105 1.409 . S
C112 C111 1.362 . S
H113 C119 0.930 1_545 S
H114 C122 0.930 . S
H115 C123 0.930 . S
H116 C124 0.930 . S
H117 C127 0.930 . S
H118 C128 0.930 . S
C119 H113 0.930 1_565 S
C119 C120 1.355 . S
C119 C121 1.415 . S
C120 C119 1.355 . S
C120 C122 1.419 . S
C121 C119 1.415 . S
C121 C126 1.425 . S
C121 C128 1.409 . S
C122 H114 0.930 . S
C122 C120 1.419 . S
C122 C123 1.362 . S
C123 H115 0.930 . S
C123 C122 1.362 . S
C123 C126 1.409 . S
C124 H116 0.930 . S
C124 C125 1.355 . S
C124 C126 1.415 . S
C125 C124 1.355 . S
C125 C127 1.419 . S
C126 C121 1.425 . S
C126 C123 1.409 . S
C126 C124 1.415 . S
C127 H117 0.930 . S
C127 C125 1.419 . S
C127 C128 1.362 . S
C128 H118 0.930 . S
C128 C121 1.409 . S
C128 C127 1.362 . S
H129 C135 0.930 . S
H130 C138 0.930 . S
H131 C139 0.930 . S
H132 C140 0.930 . S
H133 C143 0.930 . S
H134 C144 0.930 1_655 S
C135 H129 0.930 . S
C135 C136 1.355 . S
C135 C137 1.415 . S
C136 C135 1.355 . S
C136 C138 1.419 . S
C137 C135 1.415 . S
C137 C142 1.425 . S
C137 C144 1.409 . S
C138 H130 0.930 . S
C138 C136 1.419 . S
C138 C139 1.362 . S
C139 H131 0.930 . S
C139 C138 1.362 . S
C139 C142 1.409 . S
C140 H132 0.930 . S
C140 C141 1.355 . S
C140 C142 1.415 . S
C141 C140 1.355 . S
C141 C143 1.419 . S
C142 C137 1.425 . S
C142 C139 1.409 . S
C142 C140 1.415 . S
C143 H133 0.930 . S
C143 C141 1.419 . S
C143 C144 1.362 . S
C144 H134 0.930 1_455 S
C144 C137 1.409 . S
C144 C143 1.362 . S
H145 C151 0.930 . S
H146 C154 0.930 . S
H147 C155 0.930 . S
H148 C156 0.930 . S
H149 C159 0.930 . S
H150 C160 0.930 . S
C151 H145 0.930 . S
C151 C152 1.355 . S
C151 C153 1.415 . S
C152 C151 1.355 . S
C152 C154 1.419 . S
C153 C151 1.415 . S
C153 C158 1.425 . S
C153 C160 1.409 . S
C154 H146 0.930 . S
C154 C152 1.419 . S
C154 C155 1.362 . S
C155 H147 0.930 . S
C155 C154 1.362 . S
C155 C158 1.409 . S
C156 H148 0.930 . S
C156 C157 1.355 . S
C156 C158 1.415 . S
C157 C156 1.355 . S
C157 C159 1.419 . S
C158 C153 1.425 . S
C158 C155 1.409 . S
C158 C156 1.415 . S
C159 H149 0.930 . S
C159 C157 1.419 . S
C159 C160 1.362 . S
C160 H150 0.930 . S
C160 C153 1.409 . S
C160 C159 1.362 . S
H161 C167 0.930 . S
H162 C170 0.930 . S
H163 C171 0.930 . S
H164 C172 0.930 . S
H165 C175 0.930 . S
H166 C176 0.930 . S
C167 H161 0.930 . S
C167 C168 1.355 . S
C167 C169 1.415 . S
C168 C167 1.355 . S
C168 C170 1.419 . S
C169 C167 1.415 . S
C169 C174 1.425 . S
C169 C176 1.409 . S
C170 H162 0.930 . S
C170 C168 1.419 . S
C170 C171 1.362 . S
C171 H163 0.930 . S
C171 C170 1.362 . S
C171 C174 1.409 . S
C172 H164 0.930 . S
C172 C173 1.355 . S
C172 C174 1.415 . S
C173 C172 1.355 . S
C173 C175 1.419 . S
C174 C169 1.425 . S
C174 C171 1.409 . S
C174 C172 1.415 . S
C175 H165 0.930 . S
C175 C173 1.419 . S
C175 C176 1.362 . S
C176 H166 0.930 . S
C176 C169 1.409 . S
C176 C175 1.362 . S
H177 C183 0.930 . S
H178 C186 0.930 . S
H179 C187 0.930 . S
H180 C188 0.930 . S
H181 C191 0.930 . S
H182 C192 0.930 . S
C183 H177 0.930 . S
C183 C184 1.355 . S
C183 C185 1.415 . S
C184 C183 1.355 . S
C184 C186 1.419 . S
C185 C183 1.415 . S
C185 C190 1.425 . S
C185 C192 1.409 . S
C186 H178 0.930 . S
C186 C184 1.419 . S
C186 C187 1.362 . S
C187 H179 0.930 . S
C187 C186 1.362 . S
C187 C190 1.409 . S
C188 H180 0.930 . S
C188 C189 1.355 . S
C188 C190 1.415 . S
C189 C188 1.355 . S
C189 C191 1.419 . S
C190 C185 1.425 . S
C190 C187 1.409 . S
C190 C188 1.415 . S
C191 H181 0.930 . S
C191 C189 1.419 . S
C191 C192 1.362 . S
C192 H182 0.930 . S
C192 C185 1.409 . S
C192 C191 1.362 . S
H193 C199 0.930 . S
H194 C202 0.930 . S
H195 C203 0.930 . S
H196 C204 0.930 . S
H197 C207 0.930 . S
H198 C208 0.930 . S
C199 H193 0.930 . S
C199 C200 1.355 . S
C199 C201 1.415 . S
C200 C199 1.355 . S
C200 C202 1.419 . S
C201 C199 1.415 . S
C201 C206 1.425 1_554 S
C201 C208 1.409 . S
C202 H194 0.930 . S
C202 C200 1.419 . S
C202 C203 1.362 1_554 S
C203 H195 0.930 . S
C203 C202 1.362 1_556 S
C203 C206 1.409 . S
C204 H196 0.930 . S
C204 C205 1.355 . S
C204 C206 1.415 . S
C205 C204 1.355 . S
C205 C207 1.419 . S
C206 C201 1.425 1_556 S
C206 C203 1.409 . S
C206 C204 1.415 . S
C207 H197 0.930 . S
C207 C205 1.419 . S
C207 C208 1.362 1_556 S
C208 H198 0.930 . S
C208 C201 1.409 . S
C208 C207 1.362 1_554 S
H209 C215 0.930 . S
H210 C218 0.930 . S
H211 C219 0.930 . S
H212 C220 0.930 1_655 S
H213 C223 0.930 . S
H214 C224 0.930 . S
C215 H209 0.930 . S
C215 C216 1.355 . S
C215 C217 1.415 . S
C216 C215 1.355 . S
C216 C218 1.419 1_455 S
C217 C215 1.415 . S
C217 C222 1.425 . S
C217 C224 1.409 . S
C218 H210 0.930 . S
C218 C216 1.419 1_655 S
C218 C219 1.362 . S
C219 H211 0.930 . S
C219 C218 1.362 . S
C219 C222 1.409 1_655 S
C220 H212 0.930 1_455 S
C220 C221 1.355 . S
C220 C222 1.415 . S
C221 C220 1.355 . S
C221 C223 1.419 . S
C222 C217 1.425 . S
C222 C219 1.409 1_455 S
C222 C220 1.415 . S
C223 H213 0.930 . S
C223 C221 1.419 . S
C223 C224 1.362 . S
C224 H214 0.930 . S
C224 C217 1.409 . S
C224 C223 1.362 . S
H225 C231 0.930 . S
H226 C234 0.930 . S
H227 C235 0.930 . S
H228 C236 0.930 . S
H229 C239 0.930 . S
H230 C240 0.930 . S
C231 H225 0.930 . S
C231 C232 1.355 . S
C231 C233 1.415 . S
C232 C231 1.355 . S
C232 C234 1.419 . S
C233 C231 1.415 . S
C233 C238 1.425 . S
C233 C240 1.409 . S
C234 H226 0.930 . S
C234 C232 1.419 . S
C234 C235 1.362 . S
C235 H227 0.930 . S
C235 C234 1.362 . S
C235 C238 1.409 . S
C236 H228 0.930 . S
C236 C237 1.355 . S
C236 C238 1.415 . S
C237 C236 1.355 . S
C237 C239 1.419 . S
C238 C233 1.425 . S
C238 C235 1.409 . S
C238 C236 1.415 . S
C239 H229 0.930 . S
C239 C237 1.419 . S
C239 C240 1.362 . S
C240 H230 0.930 . S
C240 C233 1.409 . S
C240 C239 1.362 . S
H241 C247 0.930 . S
H242 C250 0.930 . S
H243 C251 0.930 . S
H244 C252 0.930 . S
H245 C255 0.930 . S
H246 C256 0.930 1_554 S
C247 H241 0.930 . S
C247 C248 1.355 . S
C247 C249 1.415 . S
C248 C247 1.355 . S
C248 C250 1.419 . S
C249 C247 1.415 . S
C249 C254 1.425 1_554 S
C249 C256 1.409 1_554 S
C250 H242 0.930 . S
C250 C248 1.419 . S
C250 C251 1.362 1_554 S
C251 H243 0.930 . S
C251 C250 1.362 1_556 S
C251 C254 1.409 . S
C252 H244 0.930 . S
C252 C253 1.355 . S
C252 C254 1.415 . S
C253 C252 1.355 . S
C253 C255 1.419 . S
C254 C249 1.425 1_556 S
C254 C251 1.409 . S
C254 C252 1.415 . S
C255 H245 0.930 . S
C255 C253 1.419 . S
C255 C256 1.362 . S
C256 H246 0.930 1_556 S
C256 C249 1.409 1_556 S
C256 C255 1.362 . S
H257 C263 0.930 . S
H258 C266 0.930 . S
H259 C267 0.930 . S
H260 C268 0.930 1_655 S
H261 C271 0.930 . S
H262 C272 0.930 . S
C263 H257 0.930 . S
C263 C264 1.355 . S
C263 C265 1.415 . S
C264 C263 1.355 . S
C264 C266 1.419 1_455 S
C265 C263 1.415 . S
C265 C270 1.425 . S
C265 C272 1.409 . S
C266 H258 0.930 . S
C266 C264 1.419 1_655 S
C266 C267 1.362 . S
C267 H259 0.930 . S
C267 C266 1.362 . S
C267 C270 1.409 1_655 S
C268 H260 0.930 1_455 S
C268 C269 1.355 . S
C268 C270 1.415 . S
C269 C268 1.355 . S
C269 C271 1.419 . S
C270 C265 1.425 . S
C270 C267 1.409 1_455 S
C270 C268 1.415 . S
C271 H261 0.930 . S
C271 C269 1.419 . S
C271 C272 1.362 . S
C272 H262 0.930 . S
C272 C265 1.409 . S
C272 C271 1.362 . S
C93 C47 1.410 . S
C88 C0 1.406 . S
C104 C25 1.482 . S
C109 C65 1.475 . S
C120 C33 1.510 1_565 S
C125 C78 1.509 . S
C136 C11 1.379 . S
C141 C45 1.358 . S
C157 C56 1.487 . S
C152 C14 1.476 . S
C168 C37 1.494 . S
C173 C69 1.487 . S
C189 C58 1.406 . S
C184 C28 1.427 . S
C200 C9 1.419 1_565 S
C205 C71 1.438 . S
C221 C52 1.520 . S
C216 C19 1.522 . S
C237 C60 1.406 . S
C232 C39 1.420 . S
C253 C73 1.402 . S
C248 C5 1.429 . S
C264 C23 1.517 . S
C269 C43 1.544 . S
