# Generated by pormake.
# Topology ocu, (6,8)-cn, num edge types: 1
# Building blocks:
#     Node 0, Type 0, BuildingBlock: CUKXOW_clean_sbu_0, # of connection points: 6
#     Node 1, Type 0, BuildingBlock: CUKXOW_clean_sbu_0, # of connection points: 6
#     Node 2, Type 0, BuildingBlock: CUKXOW_clean_sbu_0, # of connection points: 6
#     Node 3, Type 0, BuildingBlock: CUKXOW_clean_sbu_0, # of connection points: 6
#     Node 4, Type 0, BuildingBlock: CUKXOW_clean_sbu_0, # of connection points: 6
#     Node 5, Type 0, BuildingBlock: CUKXOW_clean_sbu_0, # of connection points: 6
#     Node 6, Type 0, BuildingBlock: CUKXOW_clean_sbu_0, # of connection points: 6
#     Node 7, Type 0, BuildingBlock: CUKXOW_clean_sbu_0, # of connection points: 6
#     Node 8, Type 1, BuildingBlock: TAGTUT_clean_sbu_1, # of connection points: 8
#     Node 9, Type 1, BuildingBlock: TAGTUT_clean_sbu_1, # of connection points: 8
#     Node 10, Type 1, BuildingBlock: TAGTUT_clean_sbu_1, # of connection points: 8
#     Node 11, Type 1, BuildingBlock: TAGTUT_clean_sbu_1, # of connection points: 8
#     Node 12, Type 1, BuildingBlock: TAGTUT_clean_sbu_1, # of connection points: 8
#     Node 13, Type 1, BuildingBlock: TAGTUT_clean_sbu_1, # of connection points: 8
#     Edge 14, Type (0, 1), BuildingBlock: OJICUG_clean_linker_0, # of connection points: 2
#     Edge 15, Type (0, 1), BuildingBlock: OJICUG_clean_linker_0, # of connection points: 2
#     Edge 16, Type (0, 1), BuildingBlock: OJICUG_clean_linker_0, # of connection points: 2
#     Edge 17, Type (0, 1), BuildingBlock: OJICUG_clean_linker_0, # of connection points: 2
#     Edge 18, Type (0, 1), BuildingBlock: OJICUG_clean_linker_0, # of connection points: 2
#     Edge 19, Type (0, 1), BuildingBlock: OJICUG_clean_linker_0, # of connection points: 2
#     Edge 20, Type (0, 1), BuildingBlock: OJICUG_clean_linker_0, # of connection points: 2
#     Edge 21, Type (0, 1), BuildingBlock: OJICUG_clean_linker_0, # of connection points: 2
#     Edge 22, Type (0, 1), BuildingBlock: OJICUG_clean_linker_0, # of connection points: 2
#     Edge 23, Type (0, 1), BuildingBlock: OJICUG_clean_linker_0, # of connection points: 2
#     Edge 24, Type (0, 1), BuildingBlock: OJICUG_clean_linker_0, # of connection points: 2
#     Edge 25, Type (0, 1), BuildingBlock: OJICUG_clean_linker_0, # of connection points: 2
#     Edge 26, Type (0, 1), BuildingBlock: OJICUG_clean_linker_0, # of connection points: 2
#     Edge 27, Type (0, 1), BuildingBlock: OJICUG_clean_linker_0, # of connection points: 2
#     Edge 28, Type (0, 1), BuildingBlock: OJICUG_clean_linker_0, # of connection points: 2
#     Edge 29, Type (0, 1), BuildingBlock: OJICUG_clean_linker_0, # of connection points: 2
#     Edge 30, Type (0, 1), BuildingBlock: OJICUG_clean_linker_0, # of connection points: 2
#     Edge 31, Type (0, 1), BuildingBlock: OJICUG_clean_linker_0, # of connection points: 2
#     Edge 32, Type (0, 1), BuildingBlock: OJICUG_clean_linker_0, # of connection points: 2
#     Edge 33, Type (0, 1), BuildingBlock: OJICUG_clean_linker_0, # of connection points: 2
#     Edge 34, Type (0, 1), BuildingBlock: OJICUG_clean_linker_0, # of connection points: 2
#     Edge 35, Type (0, 1), BuildingBlock: OJICUG_clean_linker_0, # of connection points: 2
#     Edge 36, Type (0, 1), BuildingBlock: OJICUG_clean_linker_0, # of connection points: 2
#     Edge 37, Type (0, 1), BuildingBlock: OJICUG_clean_linker_0, # of connection points: 2
#     Edge 38, Type (0, 1), BuildingBlock: OJICUG_clean_linker_0, # of connection points: 2
#     Edge 39, Type (0, 1), BuildingBlock: OJICUG_clean_linker_0, # of connection points: 2
#     Edge 40, Type (0, 1), BuildingBlock: OJICUG_clean_linker_0, # of connection points: 2
#     Edge 41, Type (0, 1), BuildingBlock: OJICUG_clean_linker_0, # of connection points: 2
#     Edge 42, Type (0, 1), BuildingBlock: OJICUG_clean_linker_0, # of connection points: 2
#     Edge 43, Type (0, 1), BuildingBlock: OJICUG_clean_linker_0, # of connection points: 2
#     Edge 44, Type (0, 1), BuildingBlock: OJICUG_clean_linker_0, # of connection points: 2
#     Edge 45, Type (0, 1), BuildingBlock: OJICUG_clean_linker_0, # of connection points: 2
#     Edge 46, Type (0, 1), BuildingBlock: OJICUG_clean_linker_0, # of connection points: 2
#     Edge 47, Type (0, 1), BuildingBlock: OJICUG_clean_linker_0, # of connection points: 2
#     Edge 48, Type (0, 1), BuildingBlock: OJICUG_clean_linker_0, # of connection points: 2
#     Edge 49, Type (0, 1), BuildingBlock: OJICUG_clean_linker_0, # of connection points: 2
#     Edge 50, Type (0, 1), BuildingBlock: OJICUG_clean_linker_0, # of connection points: 2
#     Edge 51, Type (0, 1), BuildingBlock: OJICUG_clean_linker_0, # of connection points: 2
#     Edge 52, Type (0, 1), BuildingBlock: OJICUG_clean_linker_0, # of connection points: 2
#     Edge 53, Type (0, 1), BuildingBlock: OJICUG_clean_linker_0, # of connection points: 2
#     Edge 54, Type (0, 1), BuildingBlock: OJICUG_clean_linker_0, # of connection points: 2
#     Edge 55, Type (0, 1), BuildingBlock: OJICUG_clean_linker_0, # of connection points: 2
#     Edge 56, Type (0, 1), BuildingBlock: OJICUG_clean_linker_0, # of connection points: 2
#     Edge 57, Type (0, 1), BuildingBlock: OJICUG_clean_linker_0, # of connection points: 2
#     Edge 58, Type (0, 1), BuildingBlock: OJICUG_clean_linker_0, # of connection points: 2
#     Edge 59, Type (0, 1), BuildingBlock: OJICUG_clean_linker_0, # of connection points: 2
#     Edge 60, Type (0, 1), BuildingBlock: OJICUG_clean_linker_0, # of connection points: 2
#     Edge 61, Type (0, 1), BuildingBlock: OJICUG_clean_linker_0, # of connection points: 2
# Relax obj value: 0.100
# Max RMSD: 0.236
# Mean RMSD: 0.136
data_MOF--net-ocu--node1-CUKXOW_clean_sbu_0--node2-TAGTUT_clean_sbu_1--edge1-OJICUG_clean_linker_0
_symmetry_space_group_name_H-M    P1
_symmetry_Int_Tables_number       1
_symmetry_cell_setting            triclinic
loop_
_symmetry_equiv_pos_as_xyz
'x, y, z'
_cell_length_a     28.129842
_cell_length_b     27.519836
_cell_length_c     30.105603
_cell_angle_alpha  92.602581
_cell_angle_beta   93.962515
_cell_angle_gamma 99.129808
loop_
_atom_site_label
_atom_site_type_symbol
_atom_site_fract_x
_atom_site_fract_y
_atom_site_fract_z
_atom_type_partial_charge
Tb0 Tb 0.25142 0.21429 0.19517 0.0
C1 C 0.33252 0.3096 0.18232 0.0
Tb2 Tb 0.26988 0.28999 0.26524 0.0
O3 O 0.17908 0.23255 0.18275 0.0
O4 O 0.23759 0.28807 0.1992 0.0
O5 O 0.3132 0.26345 0.16845 0.0
C6 C 0.25798 0.3676 0.31477 0.0
O7 O 0.31919 0.32914 0.21974 0.0
C8 C 0.32307 0.22568 0.29188 0.0
C9 C 0.19482 0.19101 0.28095 0.0
O10 O 0.29857 0.3515 0.31254 0.0
O11 O 0.2241 0.3398 0.28964 0.0
O12 O 0.32309 0.26808 0.3121 0.0
O13 O 0.2962 0.22148 0.25565 0.0
O14 O 0.20906 0.23908 0.29183 0.0
O15 O 0.21059 0.17103 0.2447 0.0
C16 C 0.25732 0.15324 0.12475 0.0
O17 O 0.23017 0.18674 0.12654 0.0
O18 O 0.28021 0.15304 0.16358 0.0
C19 C 0.19269 0.2799 0.18822 0.0
Tb20 Tb 0.71657 0.23297 0.25416 0.0
C21 C 0.72741 0.18712 0.15953 0.0
Tb22 Tb 0.798 0.26801 0.21351 0.0
O23 O 0.68307 0.2985 0.24056 0.0
O24 O 0.7247 0.27313 0.19451 0.0
O25 O 0.71338 0.17699 0.19945 0.0
C26 C 0.87011 0.3312 0.18743 0.0
O27 O 0.75736 0.22843 0.15494 0.0
C28 C 0.81488 0.19365 0.26265 0.0
C29 C 0.78915 0.31348 0.30715 0.0
O30 O 0.86184 0.28445 0.17589 0.0
O31 O 0.83675 0.34214 0.21145 0.0
O32 O 0.83325 0.20412 0.2254 0.0
O33 O 0.78996 0.22646 0.27235 0.0
O34 O 0.79881 0.32482 0.26656 0.0
O35 O 0.7608 0.27129 0.31219 0.0
C36 C 0.64507 0.17371 0.28689 0.0
O37 O 0.65423 0.22115 0.29446 0.0
O38 O 0.67663 0.16003 0.26195 0.0
C39 C 0.70119 0.30734 0.20283 0.0
Tb40 Tb 0.73253 0.79685 0.21672 0.0
C41 C 0.67263 0.68847 0.19401 0.0
Tb42 Tb 0.76543 0.71146 0.25813 0.0
O43 O 0.78681 0.79998 0.16629 0.0
O44 O 0.75911 0.73424 0.19279 0.0
O45 O 0.6739 0.73687 0.1931 0.0
C46 C 0.83011 0.65368 0.26787 0.0
O47 O 0.70772 0.66944 0.21475 0.0
C48 C 0.70821 0.75549 0.30692 0.0
C49 C 0.82373 0.819 0.28361 0.0
O50 O 0.7873 0.64512 0.28274 0.0
O51 O 0.83665 0.69518 0.24917 0.0
O52 O 0.71306 0.70942 0.31035 0.0
O53 O 0.73902 0.77376 0.28176 0.0
O54 O 0.82461 0.77095 0.28035 0.0
O55 O 0.78856 0.8383 0.26319 0.0
C56 C 0.66611 0.85315 0.21028 0.0
O57 O 0.70809 0.863 0.19374 0.0
O58 O 0.66128 0.81114 0.22817 0.0
C59 C 0.7909 0.75353 0.16879 0.0
Tb60 Tb 0.28087 0.78616 0.20987 0.0
C61 C 0.3119 0.79336 0.31089 0.0
Tb62 Tb 0.23328 0.70992 0.26233 0.0
O63 O 0.25702 0.84575 0.24763 0.0
O64 O 0.21457 0.77656 0.24073 0.0
O65 O 0.32645 0.80411 0.27116 0.0
C66 C 0.16677 0.67076 0.31073 0.0
O67 O 0.27483 0.75838 0.31584 0.0
C68 C 0.29815 0.67757 0.21531 0.0
C69 C 0.20787 0.69972 0.15952 0.0
O70 O 0.1583 0.68827 0.27258 0.0
O71 O 0.21277 0.6729 0.32119 0.0
O72 O 0.26248 0.64908 0.23089 0.0
O73 O 0.30056 0.72055 0.2333 0.0
O74 O 0.19369 0.68654 0.19873 0.0
O75 O 0.24254 0.7373 0.15541 0.0
C76 C 0.33109 0.84424 0.15969 0.0
O77 O 0.28488 0.84115 0.16156 0.0
O78 O 0.34887 0.81316 0.1843 0.0
C79 C 0.2196 0.81871 0.26111 0.0
Tb80 Tb 0.2098 0.73433 0.75948 0.0
C81 C 0.2187 0.68671 0.66585 0.0
Tb82 Tb 0.29179 0.76766 0.71768 0.0
O83 O 0.17409 0.79759 0.74445 0.0
O84 O 0.2187 0.77388 0.69968 0.0
O85 O 0.20741 0.67684 0.70648 0.0
C86 C 0.36443 0.8269 0.6873 0.0
O87 O 0.24804 0.72812 0.66012 0.0
C88 C 0.3064 0.69459 0.77028 0.0
C89 C 0.28165 0.81709 0.81053 0.0
O90 O 0.35427 0.7798 0.67769 0.0
O91 O 0.33292 0.84027 0.71236 0.0
O92 O 0.32463 0.70237 0.73248 0.0
O93 O 0.28332 0.72931 0.77803 0.0
O94 O 0.29399 0.82593 0.76995 0.0
O95 O 0.25204 0.77596 0.8167 0.0
C96 C 0.13904 0.67199 0.78918 0.0
O97 O 0.14647 0.71929 0.79816 0.0
O98 O 0.17229 0.66022 0.76537 0.0
C99 C 0.19417 0.80734 0.70777 0.0
Tb100 Tb 0.2293 0.28724 0.72205 0.0
C101 C 0.18024 0.17992 0.69264 0.0
Tb102 Tb 0.26258 0.20133 0.76704 0.0
O103 O 0.24987 0.26417 0.65611 0.0
O104 O 0.28561 0.24578 0.71431 0.0
O105 O 0.17287 0.22546 0.7013 0.0
C106 C 0.32352 0.13997 0.7805 0.0
O107 O 0.21463 0.16135 0.71431 0.0
C108 C 0.193 0.23939 0.8051 0.0
C109 C 0.31473 0.31087 0.79573 0.0
O110 O 0.30284 0.1466 0.74221 0.0
O111 O 0.30749 0.16565 0.81188 0.0
O112 O 0.19854 0.19325 0.80825 0.0
O113 O 0.22743 0.25927 0.78476 0.0
O114 O 0.31586 0.26271 0.79647 0.0
O115 O 0.28441 0.32995 0.76846 0.0
C116 C 0.17078 0.35093 0.71259 0.0
O117 O 0.21548 0.35811 0.7016 0.0
O118 O 0.15958 0.30789 0.72813 0.0
C119 C 0.28066 0.23773 0.67235 0.0
Tb120 Tb 0.77791 0.30305 0.70854 0.0
C121 C 0.83478 0.2972 0.8025 0.0
Tb122 Tb 0.75535 0.21449 0.75719 0.0
O123 O 0.71089 0.32902 0.72491 0.0
O124 O 0.74564 0.28856 0.76866 0.0
O125 O 0.83268 0.31961 0.76453 0.0
C126 C 0.69864 0.15118 0.79752 0.0
O127 O 0.80615 0.25522 0.80839 0.0
C128 C 0.81388 0.19283 0.69829 0.0
C129 C 0.71022 0.21333 0.66019 0.0
O130 O 0.74542 0.15475 0.80075 0.0
O131 O 0.68409 0.18483 0.77381 0.0
O132 O 0.798 0.16353 0.72834 0.0
O133 O 0.7992 0.23343 0.70462 0.0
O134 O 0.70171 0.20045 0.7008 0.0
O135 O 0.74335 0.2516 0.65385 0.0
C136 C 0.83234 0.37148 0.66855 0.0
O137 O 0.8449 0.35208 0.70469 0.0
O138 O 0.78708 0.35507 0.65699 0.0
C139 C 0.70875 0.30843 0.76287 0.0
Tb140 Tb 0.75241 0.71373 0.70181 0.0
C141 C 0.82667 0.81242 0.68477 0.0
Tb142 Tb 0.76522 0.7961 0.77229 0.0
O143 O 0.69663 0.73663 0.65585 0.0
O144 O 0.72229 0.77773 0.71336 0.0
O145 O 0.80871 0.76558 0.67114 0.0
C146 C 0.75686 0.87365 0.82447 0.0
O147 O 0.81445 0.83201 0.72329 0.0
C148 C 0.80545 0.72035 0.79614 0.0
C149 C 0.68912 0.69848 0.78601 0.0
O150 O 0.79379 0.85063 0.82628 0.0
O151 O 0.72697 0.85487 0.79106 0.0
O152 O 0.78881 0.75005 0.82328 0.0
O153 O 0.80417 0.73708 0.7574 0.0
O154 O 0.70078 0.74721 0.79481 0.0
O155 O 0.70886 0.67687 0.75305 0.0
C156 C 0.75709 0.63259 0.6531 0.0
O157 O 0.72117 0.65646 0.6514 0.0
O158 O 0.79087 0.65472 0.68194 0.0
C159 C 0.69352 0.77641 0.67921 0.0
C160 C 0.89305 0.11527 0.5436 0.0
C161 C 0.91697 0.10214 0.40341 0.0
C162 C 0.93482 0.91351 0.43502 0.0
Mg163 Mg 0.98392 0.11367 0.48971 0.0
O164 O 0.96875 0.04752 0.50381 0.0
Mg165 Mg 0.90253 0.01319 0.48016 0.0
Mg166 Mg 0.01196 1.00116 0.48257 0.0
O167 O 0.05471 0.95481 0.46067 0.0
Mg168 Mg 0.0395 0.88742 0.47018 0.0
Mg169 Mg 0.12094 0.9882 0.48394 0.0
C170 C 0.08858 0.08959 0.52918 0.0
C171 C 0.08843 0.062 0.40835 0.0
O172 O 0.87503 0.07189 0.52638 0.0
O173 O 0.93415 0.13822 0.53411 0.0
O174 O 0.89537 0.06401 0.42074 0.0
O175 O 0.95701 0.1256 0.42152 0.0
O176 O 0.05988 0.11884 0.51502 0.0
O177 O 0.07766 0.04233 0.52404 0.0
C178 C 0.93509 0.94026 0.55697 0.0
O179 O 0.97875 0.94715 0.54341 0.0
O180 O 0.90307 0.96235 0.53854 0.0
O181 O 0.14863 0.9298 0.43555 0.0
O182 O 0.08828 0.86517 0.42358 0.0
O183 O 0.12615 0.93634 0.54328 0.0
C184 C 0.12994 0.88787 0.41543 0.0
O185 O 0.06537 0.87333 0.53807 0.0
O186 O 0.96355 0.88308 0.44595 0.0
C187 C 0.10392 0.89719 0.55872 0.0
O188 O 0.94674 0.96039 0.44127 0.0
O189 O 0.04487 0.05514 0.422 0.0
O190 O 0.12047 0.03964 0.42639 0.0
C191 C 0.37134 0.10724 -0.01379 0.0
C192 C 0.45886 0.08493 0.87153 0.0
C193 C 0.44401 0.90494 0.92811 0.0
Mg194 Mg 0.48059 0.1166 0.97105 0.0
O195 O 0.46318 0.04967 0.9815 0.0
Mg196 Mg 0.40924 0.00787 0.94388 0.0
Mg197 Mg 0.50965 0.00394 0.97844 0.0
O198 O 0.55611 0.95819 0.97649 0.0
Mg199 Mg 0.53942 0.89133 -0.01284 0.0
Mg200 Mg 0.61019 1.00039 0.01417 0.0
C201 C 0.57396 0.10279 0.03139 0.0
C202 C 0.59414 0.04518 0.92039 0.0
O203 O 0.36373 0.06471 0.96553 0.0
O204 O 0.41329 0.13395 -0.0077 0.0
O205 O 0.43084 0.04743 0.88326 0.0
O206 O 0.48287 0.11685 0.90012 0.0
O207 O 0.54896 0.13305 0.01344 0.0
O208 O 0.56076 0.05608 0.02615 0.0
C209 C 0.42577 0.96006 0.03584 0.0
O210 O 0.47133 0.96761 0.03297 0.0
O211 O 0.39557 0.97108 0.00592 0.0
O212 O 0.65694 0.94324 -0.00461 0.0
O213 O 0.60578 0.87882 0.96136 0.0
O214 O 0.58894 0.96295 0.07509 0.0
C215 C 0.64811 0.9042 0.96947 0.0
O216 O 0.54151 0.89067 0.0586 0.0
O217 O 0.46916 0.87533 0.94699 0.0
C218 C 0.56311 0.92427 0.08695 0.0
O219 O 0.45817 0.95167 0.93066 0.0
O220 O 0.54852 0.03951 0.92314 0.0
O221 O 0.62362 0.0348 0.95126 0.0
C222 C 0.89614 0.63724 0.05392 0.0
C223 C 0.90998 0.60798 0.91271 0.0
C224 C 0.91628 0.41481 0.96025 0.0
Mg225 Mg 0.98304 0.62348 -0.00362 0.0
O226 O 0.96676 0.55763 0.01052 0.0
Mg227 Mg 0.89821 0.52661 -0.00322 0.0
Mg228 Mg 1.00109 0.50289 -0.01158 0.0
O229 O 0.03467 0.44693 0.96705 0.0
Mg230 Mg 0.01621 0.38209 0.98459 0.0
Mg231 Mg 0.1038 0.47592 0.98073 0.0
C232 C 0.08929 0.59069 0.02028 0.0
C233 C 0.05515 0.53739 0.90381 0.0
O234 O 0.87649 0.59301 0.04021 0.0
O235 O 0.93802 0.65628 0.0426 0.0
O236 O 0.88744 0.57146 0.93212 0.0
O237 O 0.95077 0.6311 0.92956 0.0
O238 O 0.0609 0.62247 0.01229 0.0
O239 O 0.07416 0.54362 0.01792 0.0
C240 C 0.94836 0.46714 0.07334 0.0
O241 O 0.9859 0.46785 0.05198 0.0
O242 O 0.9118 0.486 0.05914 0.0
O243 O 0.12004 0.4055 0.93745 0.0
O244 O 0.05475 0.34586 0.9352 0.0
O245 O 0.11653 0.43227 0.04645 0.0
C246 C 0.09729 0.36217 0.92354 0.0
O247 O 0.05363 0.37225 0.04756 0.0
O248 O 0.93965 0.39081 -0.0126 0.0
C249 C 0.09432 0.39471 0.06471 0.0
O250 O 0.92858 0.46175 0.95766 0.0
O251 O 0.01757 0.5384 0.92495 0.0
O252 O 0.09031 0.51632 0.918 0.0
C253 C 0.39313 0.61349 0.06151 0.0
C254 C 0.40976 0.61102 0.91578 0.0
C255 C 0.4305 0.41811 0.9381 0.0
Mg256 Mg 0.48048 0.61903 0.00177 0.0
O257 O 0.46673 0.55076 0.00916 0.0
Mg258 Mg 0.40009 0.51697 -0.01298 0.0
Mg259 Mg 0.50942 0.50481 0.98499 0.0
O260 O 0.55158 0.45922 0.9612 0.0
Mg261 Mg 0.53646 0.39153 0.96863 0.0
Mg262 Mg 0.61782 0.49155 0.9849 0.0
C263 C 0.58242 0.59098 0.03304 0.0
C264 C 0.58409 0.56778 0.91188 0.0
O265 O 0.37371 0.57341 0.03861 0.0
O266 O 0.43516 0.63659 0.05438 0.0
O267 O 0.39118 0.56906 0.92872 0.0
O268 O 0.44636 0.63671 0.93793 0.0
O269 O 0.55942 0.61792 0.00824 0.0
O270 O 0.57499 0.54369 0.02775 0.0
C271 C 0.43653 0.44142 0.05856 0.0
O272 O 0.4793 0.44907 0.04368 0.0
O273 O 0.40359 0.46405 0.04276 0.0
O274 O 0.64556 0.43452 0.93418 0.0
O275 O 0.58237 0.37305 0.91874 0.0
O276 O 0.6239 0.43805 0.04366 0.0
C277 C 0.62467 0.39477 0.91165 0.0
O278 O 0.56629 0.37233 0.03381 0.0
O279 O 0.45981 0.38779 0.94761 0.0
C280 C 0.60336 0.39662 0.05648 0.0
O281 O 0.4425 0.46513 0.94396 0.0
O282 O 0.54069 0.56042 0.92568 0.0
O283 O 0.61634 0.54499 0.92896 0.0
C284 C 0.84744 0.55741 0.51798 0.0
C285 C 0.92712 0.57751 0.39906 0.0
C286 C 0.95597 0.40292 0.41965 0.0
Mg287 Mg 0.95412 0.59409 0.49869 0.0
O288 O 0.9495 0.52519 0.50315 0.0
Mg289 Mg 0.90144 0.48085 0.45999 0.0
Mg290 Mg 0.00602 0.49892 0.48449 0.0
O291 O 0.06252 0.47275 0.46552 0.0
Mg292 Mg 0.05798 0.40395 0.47105 0.0
Mg293 Mg 0.11119 0.51788 0.50756 0.0
C294 C 0.05588 0.59481 0.55007 0.0
C295 C 0.06775 0.58353 0.43666 0.0
O296 O 0.84619 0.51644 0.49574 0.0
O297 O 0.8844 0.59167 0.52301 0.0
O298 O 0.90588 0.53524 0.40784 0.0
O299 O 0.95075 0.60768 0.42909 0.0
O300 O 0.02307 0.62051 0.53883 0.0
O301 O 0.05146 0.54909 0.5381 0.0
C302 C 0.94264 0.41658 0.53381 0.0
O303 O 0.98527 0.43954 0.53082 0.0
O304 O 0.90572 0.42669 0.51107 0.0
O305 O 0.16573 0.48218 0.47088 0.0
O306 O 0.12758 0.40602 0.44605 0.0
O307 O 0.10871 0.46469 0.56004 0.0
C308 C 0.16436 0.44055 0.44968 0.0
O309 O 0.06182 0.39269 0.54132 0.0
O310 O 0.98844 0.37698 0.4314 0.0
C311 C 0.08685 0.42332 0.57023 0.0
O312 O 0.96111 0.44887 0.43084 0.0
O313 O 0.02577 0.55904 0.43911 0.0
O314 O 0.10561 0.5729 0.45741 0.0
C315 C 0.38808 0.12438 0.55815 0.0
C316 C 0.41329 0.10891 0.41561 0.0
C317 C 0.42028 0.91238 0.45191 0.0
Mg318 Mg 0.47906 0.12048 0.50511 0.0
O319 O 0.46432 0.05307 0.51187 0.0
Mg320 Mg 0.39708 0.02065 0.49226 0.0
Mg321 Mg 0.50398 0.00325 0.4899 0.0
O322 O 0.54276 0.95255 0.46854 0.0
Mg323 Mg 0.52594 0.88683 0.4825 0.0
Mg324 Mg 0.61017 0.98405 0.48798 0.0
C325 C 0.58691 0.09413 0.52921 0.0
C326 C 0.564 0.04683 0.41079 0.0
O327 O 0.36885 0.08311 0.53723 0.0
O328 O 0.43163 0.14444 0.55313 0.0
O329 O 0.39027 0.06885 0.42925 0.0
O330 O 0.45037 0.13289 0.43849 0.0
O331 O 0.55665 0.12412 0.52228 0.0
O332 O 0.5742 0.04668 0.52533 0.0
C333 C 0.44458 0.95839 0.56852 0.0
O334 O 0.48447 0.9624 0.55025 0.0
O335 O 0.40814 0.97672 0.55299 0.0
O336 O 0.63462 0.91859 0.44371 0.0
O337 O 0.57238 0.85563 0.43874 0.0
O338 O 0.61834 0.93674 0.55176 0.0
C339 C 0.61469 0.87465 0.42885 0.0
O340 O 0.55441 0.87715 0.5494 0.0
O341 O 0.44896 0.882 0.46288 0.0
C342 C 0.59452 0.89909 0.56859 0.0
O343 O 0.43403 0.95965 0.45445 0.0
O344 O 0.52407 0.04429 0.42904 0.0
O345 O 0.59952 0.0273 0.42666 0.0
C346 C 0.15524 0.10636 0.30584 0.0
C347 C 0.16194 0.15844 0.31084 0.0
H348 H 0.12706 0.03636 0.33126 0.0
C349 C 0.13837 0.17821 0.34606 0.0
H350 H 0.17249 0.08876 0.2799 0.0
C351 C 0.11071 0.14747 0.37534 0.0
C352 C 0.10545 0.09539 0.37099 0.0
H353 H 0.14223 0.21781 0.35181 0.0
H354 H 0.09562 0.1647 0.40294 0.0
C355 C 0.1284 0.07588 0.33539 0.0
C356 C 0.88954 0.16361 0.29512 0.0
C357 C 0.84038 0.16779 0.29733 0.0
H358 H 0.95269 0.14079 0.32708 0.0
C359 C 0.81679 0.14919 0.33409 0.0
H360 H 0.90902 0.17801 0.2675 0.0
C361 C 0.8415 0.12646 0.36743 0.0
C362 C 0.89092 0.12326 0.36577 0.0
H363 H 0.77919 0.15221 0.33707 0.0
H364 H 0.82221 0.11267 0.39539 0.0
C365 C 0.91471 0.14242 0.3293 0.0
C366 C 0.8555 0.81927 0.36172 0.0
C367 C 0.84901 0.84577 0.32357 0.0
H368 H 0.88467 0.82134 0.42904 0.0
C369 C 0.86102 0.89727 0.32646 0.0
H370 H 0.84398 0.77975 0.36131 0.0
C371 C 0.88411 0.92131 0.36585 0.0
C372 C 0.89472 0.89381 0.4025 0.0
H373 H 0.85435 0.91852 0.29792 0.0
H374 H 0.89709 0.96057 0.36626 0.0
C375 C 0.87753 0.84316 0.40098 0.0
C376 C 0.21793 0.8771 0.32657 0.0
C377 C 0.19673 0.83345 0.30174 0.0
H378 H 0.21448 0.92797 0.38167 0.0
C379 C 0.15482 0.80606 0.31625 0.0
H380 H 0.25047 0.89912 0.31662 0.0
C381 C 0.13407 0.82272 0.35413 0.0
C382 C 0.15482 0.86715 0.37837 0.0
H383 H 0.13733 0.77268 0.29778 0.0
H384 H 0.10106 0.80129 0.36375 0.0
C385 C 0.19743 0.89365 0.36427 0.0
C386 C 0.19912 0.86025 0.64166 0.0
C387 C 0.17097 0.83279 0.67145 0.0
H388 H 0.20011 0.90338 0.58394 0.0
C389 C 0.12032 0.82765 0.66466 0.0
H390 H 0.23817 0.86444 0.64573 0.0
C391 C 0.09834 0.84863 0.62839 0.0
C392 C 0.12648 0.87663 0.59879 0.0
H393 H 0.0976 0.8061 0.68667 0.0
H394 H 0.0593 0.84297 0.62353 0.0
C395 C 0.17721 0.88264 0.60633 0.0
C396 C 0.15529 0.10404 0.64212 0.0
C397 C 0.15948 0.15526 0.64991 0.0
H398 H 0.13055 0.0421 0.59612 0.0
C399 C 0.15003 0.1844 0.61433 0.0
H400 H 0.16423 0.08103 0.66871 0.0
C401 C 0.13382 0.16268 0.57244 0.0
C402 C 0.12424 0.11114 0.56568 0.0
H403 H 0.1553 0.22425 0.61868 0.0
H404 H 0.12507 0.18629 0.54625 0.0
C405 C 0.13735 0.08197 0.60027 0.0
C406 C 0.82243 0.12451 0.64475 0.0
C407 C 0.83271 0.17513 0.65711 0.0
H408 H 0.83215 0.06626 0.5987 0.0
C409 C 0.8597 0.20704 0.62973 0.0
H410 H 0.8009 0.09916 0.66484 0.0
C411 C 0.87831 0.18793 0.59177 0.0
C412 C 0.86879 0.13692 0.58 0.0
H413 H 0.86756 0.24628 0.63836 0.0
H414 H 0.90065 0.2129 0.572 0.0
C415 C 0.83981 0.10568 0.60646 0.0
C416 C 0.87076 0.89662 0.66156 0.0
C417 C 0.8603 0.8446 0.65492 0.0
H418 H 0.90217 0.96636 0.63732 0.0
C419 C 0.8806 0.82443 0.61772 0.0
H420 H 0.85609 0.91463 0.68898 0.0
C421 C 0.90867 0.85463 0.58831 0.0
C422 C 0.91784 0.90672 0.59436 0.0
H423 H 0.8738 0.78494 0.6105 0.0
H424 H 0.92101 0.83711 0.5593 0.0
C425 C 0.89804 0.9267 0.63182 0.0
C426 C 0.27792 0.09188 0.06948 0.0
C427 C 0.27837 0.14087 0.08377 0.0
H428 H 0.30574 0.04282 0.02496 0.0
C429 C 0.30413 0.17917 0.06155 0.0
H430 H 0.25845 0.0621 0.08666 0.0
C431 C 0.33209 0.16851 0.02711 0.0
C432 C 0.33343 0.11941 0.01378 0.0
H433 H 0.305 0.21733 0.07268 0.0
H434 H 0.35439 0.19842 0.01243 0.0
C435 C 0.30465 0.08115 0.03404 0.0
C436 C 0.93337 0.35398 0.13589 0.0
C437 C 0.9043 0.3681 0.16841 0.0
H438 H 0.97124 0.37632 0.07943 0.0
C439 C 0.9009 0.41801 0.17652 0.0
H440 H 0.93676 0.31564 0.12967 0.0
C441 C 0.91997 0.4524 0.14757 0.0
C442 C 0.94356 0.43702 0.11143 0.0
H443 H 0.87932 0.42967 0.20222 0.0
H444 H 0.9128 0.48988 0.15115 0.0
C445 C 0.9533 0.38866 0.10747 0.0
C446 C 0.5829 0.84713 0.17916 0.0
C447 C 0.62543 0.87683 0.19773 0.0
H448 H 0.52626 0.84058 0.1273 0.0
C449 C 0.63304 0.92741 0.19261 0.0
H450 H 0.57613 0.8079 0.18396 0.0
C451 C 0.60313 0.94657 0.16188 0.0
C452 C 0.56862 0.91401 0.13414 0.0
H453 H 0.66516 0.95079 0.208 0.0
H454 H 0.61309 0.98484 0.15445 0.0
C455 C 0.55423 0.86585 0.14686 0.0
C456 C 0.18289 0.68816 0.07771 0.0
C457 C 0.1868 0.66848 0.1197 0.0
H458 H 0.14933 0.67717 0.01116 0.0
C459 C 0.16934 0.61824 0.12387 0.0
H460 H 0.1971 0.72646 0.07338 0.0
C461 C 0.14378 0.58952 0.08792 0.0
C462 C 0.13406 0.61104 0.04762 0.0
H463 H 0.17345 0.60165 0.15557 0.0
H464 H 0.12701 0.55226 0.09342 0.0
C465 C 0.15635 0.6597 0.04194 0.0
C466 C 0.33666 0.89196 0.84279 0.0
C467 C 0.31408 0.84341 0.84762 0.0
H468 H 0.39516 0.94941 0.86446 0.0
C469 C 0.33138 0.81696 0.88243 0.0
H470 H 0.32446 0.91293 0.81587 0.0
C471 C 0.37285 0.83737 0.90962 0.0
C472 C 0.39715 0.88495 0.90303 0.0
H473 H 0.31525 0.77911 0.88641 0.0
H474 H 0.38681 0.81523 0.93472 0.0
C475 C 0.37745 0.91268 0.87046 0.0
C476 C 0.18183 0.32088 0.84048 0.0
C477 C 0.16681 0.26934 0.83515 0.0
H478 H 0.17277 0.38981 0.8722 0.0
C479 C 0.1283 0.24843 0.85916 0.0
H480 H 0.2114 0.33866 0.82276 0.0
C481 C 0.10533 0.27843 0.88736 0.0
C482 C 0.12094 0.32997 0.89302 0.0
H483 H 0.11581 0.20905 0.85603 0.0
H484 H 0.07568 0.26107 0.90524 0.0
C485 C 0.15968 0.35052 0.86913 0.0
C486 C 0.62002 0.12483 0.82625 0.0
C487 C 0.667 0.11648 0.82021 0.0
H488 H 0.55932 0.10797 0.86435 0.0
C489 C 0.68545 0.07797 0.84016 0.0
H490 H 0.60526 0.15424 0.81021 0.0
C491 C 0.65908 0.05145 0.8704 0.0
C492 C 0.61456 0.06383 0.88085 0.0
H493 H 0.72133 0.07048 0.83466 0.0
H494 H 0.67508 0.02376 0.88792 0.0
C495 C 0.59369 0.09838 0.85687 0.0
C496 C 0.80941 0.64317 0.8351 0.0
C497 C 0.83367 0.68301 0.81356 0.0
H498 H 0.81418 0.58735 0.88187 0.0
C499 C 0.88425 0.69379 0.82039 0.0
H500 H 0.77031 0.63493 0.83157 0.0
C501 C 0.90962 0.66713 0.8502 0.0
C502 C 0.88502 0.62892 0.87387 0.0
H503 H 0.9038 0.72527 0.80546 0.0
H504 H 0.94826 0.67835 0.85658 0.0
C505 C 0.8347 0.61607 0.86431 0.0
C506 C 0.11708 0.30146 0.15044 0.0
C507 C 0.16663 0.31464 0.16298 0.0
H508 H 0.05543 0.3168 0.11131 0.0
C509 C 0.19135 0.35828 0.14701 0.0
H510 H 0.09688 0.26825 0.16212 0.0
C511 C 0.16756 0.3863 0.11712 0.0
C512 C 0.11835 0.37155 0.10271 0.0
H513 H 0.22965 0.36945 0.15581 0.0
H514 H 0.18828 0.41815 0.10376 0.0
C515 C 0.0933 0.32953 0.12111 0.0
C516 C 0.10745 0.58564 0.80199 0.0
C517 C 0.10491 0.63585 0.80943 0.0
H518 H 0.09272 0.51387 0.82721 0.0
C519 C 0.07564 0.65092 0.8414 0.0
H520 H 0.1292 0.57319 0.7768 0.0
C521 C 0.054 0.61672 0.86955 0.0
C522 C 0.06217 0.56776 0.8659 0.0
H523 H 0.07294 0.68949 0.84718 0.0
H524 H 0.03556 0.62968 0.89702 0.0
C525 C 0.08656 0.55172 0.83054 0.0
C526 C 0.40998 0.16282 0.80081 0.0
C527 C 0.37104 0.1267 0.78456 0.0
H528 H 0.47825 0.1761 0.83797 0.0
C529 C 0.37739 0.07779 0.77783 0.0
H530 H 0.40615 0.20142 0.80359 0.0
C531 C 0.41921 0.06357 0.79686 0.0
C532 C 0.45123 0.09808 0.82522 0.0
H533 H 0.34813 0.05006 0.76315 0.0
H534 H 0.42032 0.02447 0.79811 0.0
C535 C 0.4517 0.14838 0.81941 0.0
C536 C 0.85962 0.30566 0.88395 0.0
C537 C 0.86028 0.32594 0.84203 0.0
H538 H 0.87543 0.3185 0.95432 0.0
C539 C 0.87868 0.37629 0.83936 0.0
H540 H 0.84521 0.2672 0.88724 0.0
C541 C 0.89506 0.40592 0.8779 0.0
C542 C 0.89394 0.38564 0.91982 0.0
H543 H 0.87921 0.39332 0.80763 0.0
H544 H 0.90931 0.44445 0.8747 0.0
C545 C 0.87629 0.3352 0.92241 0.0
C546 C 0.75545 0.88471 0.90678 0.0
C547 C 0.73874 0.8954 0.86368 0.0
H548 H 0.73875 0.87857 0.97532 0.0
C549 C 0.69538 0.91388 0.85746 0.0
H550 H 0.78865 0.86982 0.91219 0.0
C551 C 0.6665 0.91656 0.8926 0.0
C552 C 0.68106 0.90189 0.93468 0.0
H553 H 0.68181 0.92226 0.82457 0.0
H554 H 0.63198 0.9289 0.88661 0.0
C555 C 0.72667 0.88847 0.9425 0.0
C556 C 0.8063 0.67263 0.13476 0.0
C557 C 0.81829 0.72443 0.13939 0.0
H558 H 0.82052 0.60492 0.10421 0.0
C559 C 0.85629 0.74734 0.1158 0.0
H560 H 0.77725 0.65359 0.15238 0.0
C561 C 0.88184 0.71916 0.08859 0.0
C562 C 0.86948 0.66732 0.08352 0.0
H563 H 0.86655 0.78705 0.11864 0.0
H564 H 0.91098 0.73814 0.07106 0.0
C565 C 0.83114 0.6446 0.10696 0.0
C566 C 0.40432 0.86962 0.12232 0.0
C567 C 0.35905 0.87836 0.1337 0.0
H568 H 0.4607 0.88901 0.08021 0.0
C569 C 0.33921 0.91833 0.11801 0.0
H570 H 0.41984 0.83871 0.13462 0.0
C571 C 0.36322 0.94765 0.08808 0.0
C572 C 0.40663 0.93646 0.07368 0.0
H573 H 0.30452 0.9258 0.12758 0.0
H574 H 0.34679 0.97744 0.07456 0.0
C575 C 0.42798 0.89862 0.09189 0.0
C576 C 0.67329 0.11341 0.12405 0.0
C577 C 0.6971 0.16177 0.12085 0.0
H578 H 0.61577 0.05701 0.09815 0.0
C579 C 0.68358 0.18892 0.08496 0.0
H580 H 0.68265 0.09193 0.15168 0.0
C581 C 0.64436 0.16933 0.05482 0.0
C582 C 0.6188 0.1219 0.05955 0.0
H583 H 0.70079 0.22665 0.08213 0.0
H584 H 0.63307 0.19189 0.02878 0.0
C585 C 0.63484 0.09351 0.09345 0.0
C586 C 0.64956 0.61395 0.80988 0.0
C587 C 0.6559 0.66597 0.81544 0.0
H588 H 0.62195 0.54349 0.83449 0.0
C589 C 0.63236 0.68524 0.85087 0.0
H590 H 0.66678 0.5967 0.78372 0.0
C591 C 0.60519 0.6539 0.88 0.0
C592 C 0.60043 0.60189 0.87505 0.0
H593 H 0.63611 0.72478 0.85704 0.0
H594 H 0.59016 0.67058 0.90794 0.0
C595 C 0.6231 0.58295 0.83909 0.0
C596 C 0.37037 0.70247 0.83404 0.0
C597 C 0.33341 0.67282 0.8066 0.0
H598 H 0.42386 0.70645 0.88915 0.0
C599 C 0.32299 0.6224 0.81403 0.0
H600 H 0.37931 0.74148 0.82895 0.0
C601 C 0.34838 0.60217 0.84869 0.0
C602 C 0.38533 0.63178 0.87657 0.0
H603 H 0.29477 0.59872 0.79333 0.0
H604 H 0.33872 0.56327 0.85385 0.0
C605 C 0.39614 0.68223 0.86838 0.0
C606 C 0.35348 0.39283 0.8318 0.0
C607 C 0.33928 0.34183 0.83402 0.0
H608 H 0.39312 0.45884 0.86531 0.0
C609 C 0.34499 0.3201 0.87495 0.0
H610 H 0.34781 0.41063 0.80096 0.0
C611 C 0.36876 0.34772 0.91188 0.0
C612 C 0.38826 0.39732 0.90829 0.0
H613 H 0.33207 0.28129 0.87832 0.0
H614 H 0.37575 0.32919 0.94211 0.0
C615 C 0.37816 0.42056 0.86888 0.0
C616 C 0.63949 0.33862 0.79703 0.0
C617 C 0.68741 0.3305 0.80102 0.0
H618 H 0.58207 0.36466 0.82937 0.0
C619 C 0.71551 0.34512 0.84151 0.0
H620 H 0.61728 0.32801 0.76621 0.0
C621 C 0.69598 0.36767 0.87721 0.0
C622 C 0.64758 0.37454 0.87354 0.0
H623 H 0.75286 0.33976 0.84543 0.0
H624 H 0.71824 0.37852 0.90796 0.0
C625 C 0.61954 0.35965 0.83314 0.0
C626 C 0.68421 0.38182 0.16193 0.0
C627 C 0.67488 0.3307 0.16674 0.0
H628 H 0.66939 0.44275 0.12381 0.0
C629 C 0.64047 0.30175 0.13619 0.0
H630 H 0.71055 0.40508 0.18484 0.0
C631 C 0.61612 0.3233 0.10166 0.0
C632 C 0.626 0.37445 0.09606 0.0
H633 H 0.63248 0.26222 0.13894 0.0
H634 H 0.59042 0.29954 0.07856 0.0
C635 C 0.66046 0.40335 0.1269 0.0
C636 C 0.65194 0.61148 0.1455 0.0
C637 C 0.64045 0.65721 0.16005 0.0
H638 H 0.64342 0.55519 0.09277 0.0
C639 C 0.60528 0.67759 0.13521 0.0
H640 H 0.67882 0.5947 0.16406 0.0
C641 C 0.58586 0.65549 0.09419 0.0
C642 C 0.60083 0.61228 0.0776 0.0
H643 H 0.59515 0.71241 0.14593 0.0
H644 H 0.5601 0.67316 0.07502 0.0
C645 C 0.63228 0.58918 0.10442 0.0
C646 C 0.36371 0.69229 0.16124 0.0
C647 C 0.32274 0.66291 0.1756 0.0
H648 H 0.41811 0.69997 0.11421 0.0
C649 C 0.30417 0.61832 0.15113 0.0
H650 H 0.37904 0.72667 0.17936 0.0
C651 C 0.32609 0.60311 0.11363 0.0
C652 C 0.36767 0.63182 0.09952 0.0
H653 H 0.27239 0.59489 0.16096 0.0
H654 H 0.31079 0.56824 0.09621 0.0
C655 C 0.38607 0.67681 0.12381 0.0
C656 C 0.38348 0.3231 0.11414 0.0
C657 C 0.36618 0.34188 0.15346 0.0
H658 H 0.42041 0.3387 0.05432 0.0
C659 C 0.37887 0.39326 0.1633 0.0
H660 H 0.37472 0.2841 0.10475 0.0
C661 C 0.40534 0.42454 0.13432 0.0
C662 C 0.42161 0.40611 0.09453 0.0
H663 H 0.36644 0.40999 0.19266 0.0
H664 H 0.41126 0.46395 0.14214 0.0
C665 C 0.41056 0.35454 0.08529 0.0
C666 C 0.75072 0.60596 0.57371 0.0
C667 C 0.76576 0.59826 0.61795 0.0
H668 H 0.76661 0.59843 0.50531 0.0
C669 C 0.79885 0.56654 0.62706 0.0
H670 H 0.7254 0.63089 0.56635 0.0
C671 C 0.82102 0.54704 0.59226 0.0
C672 C 0.81086 0.56037 0.54868 0.0
H673 H 0.81079 0.56064 0.66111 0.0
H674 H 0.84994 0.52625 0.59994 0.0
C675 C 0.77402 0.58758 0.53892 0.0
C676 C 0.39764 0.91228 0.6731 0.0
C677 C 0.3983 0.86172 0.66546 0.0
H678 H 0.41225 0.98352 0.64682 0.0
C679 C 0.42444 0.84523 0.63148 0.0
H680 H 0.37827 0.92579 0.69971 0.0
C681 C 0.44473 0.87853 0.6019 0.0
C682 C 0.43823 0.92792 0.60624 0.0
H683 H 0.42557 0.80633 0.62545 0.0
H684 H 0.46094 0.86483 0.57325 0.0
C685 C 0.41699 0.94526 0.6431 0.0
C686 C 0.09416 0.34766 0.669 0.0
C687 C 0.13469 0.37638 0.69242 0.0
H688 H 0.04708 0.34012 0.60938 0.0
C689 C 0.14854 0.42543 0.68323 0.0
H690 H 0.08269 0.30958 0.67638 0.0
C691 C 0.12794 0.44295 0.64547 0.0
C692 C 0.09441 0.4108 0.61645 0.0
H693 H 0.17937 0.44798 0.70164 0.0
H694 H 0.14276 0.47964 0.63656 0.0
C695 C 0.07431 0.36472 0.63036 0.0
C696 C 0.67113 0.12967 0.62942 0.0
C697 C 0.6872 0.17966 0.62235 0.0
H698 H 0.62875 0.06146 0.60343 0.0
C699 C 0.68049 0.19641 0.57945 0.0
H700 H 0.67733 0.11518 0.66181 0.0
C701 C 0.65292 0.16529 0.54582 0.0
C702 C 0.63233 0.11684 0.55448 0.0
H703 H 0.69353 0.23436 0.57278 0.0
H704 H 0.64393 0.18049 0.51433 0.0
C705 C 0.64438 0.09837 0.59563 0.0
C706 C 0.84252 0.38789 0.34169 0.0
C707 C 0.82405 0.33766 0.34342 0.0
H708 H 0.89875 0.44729 0.36395 0.0
C709 C 0.84768 0.30908 0.37264 0.0
H710 H 0.82571 0.41046 0.31872 0.0
C711 C 0.89054 0.32997 0.39785 0.0
C712 C 0.90994 0.37992 0.39472 0.0
H713 H 0.83496 0.26989 0.37369 0.0
H714 H 0.9089 0.30692 0.41908 0.0
C715 C 0.88465 0.40883 0.36731 0.0
C716 C 0.69878 0.83736 0.34346 0.0
C717 C 0.68481 0.78571 0.3387 0.0
H718 H 0.68868 0.9058 0.37595 0.0
C719 C 0.64868 0.7637 0.36463 0.0
H720 H 0.72664 0.85565 0.32411 0.0
C721 C 0.62642 0.79263 0.39393 0.0
C722 C 0.64032 0.84434 0.39881 0.0
H723 H 0.63714 0.72415 0.36184 0.0
H724 H 0.59822 0.77431 0.41293 0.0
C725 C 0.67719 0.86624 0.37342 0.0
C726 C 0.14122 0.67983 0.38538 0.0
C727 C 0.13058 0.66082 0.34148 0.0
H728 H 0.12412 0.67124 0.45248 0.0
C729 C 0.0871 0.62976 0.32836 0.0
H730 H 0.17386 0.70587 0.39507 0.0
C731 C 0.05875 0.60988 0.36107 0.0
C732 C 0.07485 0.62184 0.40585 0.0
H733 H 0.07817 0.61657 0.29385 0.0
H734 H 0.0292 0.58004 0.35171 0.0
C735 C 0.1124 0.66103 0.41777 0.0
C736 C 0.39677 0.20469 0.33123 0.0
C737 C 0.34963 0.18856 0.31213 0.0
H738 H 0.45423 0.19189 0.37711 0.0
C739 C 0.32559 0.1422 0.3227 0.0
H740 H 0.41587 0.24063 0.32434 0.0
C741 C 0.3473 0.11424 0.35417 0.0
C742 C 0.39354 0.1321 0.37553 0.0
H743 H 0.28867 0.12943 0.30949 0.0
H744 H 0.32667 0.08019 0.36372 0.0
C745 C 0.4186 0.17675 0.36195 0.0
C746 C 0.61727 0.79972 0.64734 0.0
C747 C 0.66583 0.81453 0.66279 0.0
H748 H 0.55624 0.81532 0.6076 0.0
C749 C 0.68917 0.86124 0.65235 0.0
H750 H 0.59865 0.76356 0.65419 0.0
C751 C 0.66511 0.89092 0.6243 0.0
C752 C 0.61712 0.87458 0.60647 0.0
H753 H 0.72703 0.87304 0.66284 0.0
H754 H 0.68509 0.92516 0.61443 0.0
C755 C 0.59306 0.82949 0.62024 0.0
C756 C 0.61436 0.08901 0.30588 0.0
C757 C 0.61219 0.13953 0.31063 0.0
H758 H 0.60019 0.01934 0.33509 0.0
C759 C 0.58475 0.1571 0.34312 0.0
H760 H 0.63482 0.07456 0.28059 0.0
C761 C 0.56402 0.12513 0.3737 0.0
C762 C 0.57151 0.07594 0.37206 0.0
H763 H 0.58242 0.19596 0.34699 0.0
H764 H 0.54625 0.13982 0.4009 0.0
C765 C 0.5946 0.05744 0.33685 0.0
C766 C 0.86078 0.58004 0.2896 0.0
C767 C 0.86946 0.6306 0.28471 0.0
H768 H 0.87543 0.52222 0.32969 0.0
C769 C 0.90892 0.6606 0.30834 0.0
H770 H 0.83072 0.55669 0.27083 0.0
C771 C 0.93332 0.64165 0.34353 0.0
C772 C 0.91837 0.59275 0.35386 0.0
H773 H 0.91609 0.69996 0.30424 0.0
H774 H 0.9594 0.6665 0.36544 0.0
C775 C 0.88611 0.56077 0.32366 0.0
C776 C 0.33171 0.81103 0.39322 0.0
C777 C 0.33274 0.82676 0.34958 0.0
H778 H 0.35796 0.8277 0.46165 0.0
C779 C 0.35234 0.87597 0.34294 0.0
H780 H 0.31563 0.77376 0.39941 0.0
C781 C 0.37441 0.90751 0.3787 0.0
C782 C 0.37853 0.88997 0.42155 0.0
H783 H 0.35196 0.88978 0.30981 0.0
H784 H 0.3927 0.9438 0.37187 0.0
C785 C 0.35489 0.84226 0.42891 0.0
C786 C 0.21217 0.43017 0.34002 0.0
C787 C 0.24769 0.40129 0.34962 0.0
H788 H 0.15849 0.46736 0.36647 0.0
C789 C 0.26331 0.39489 0.39396 0.0
H790 H 0.19959 0.43474 0.30583 0.0
C791 C 0.23892 0.41223 0.42852 0.0
C792 C 0.20023 0.43695 0.41834 0.0
H793 H 0.29028 0.37178 0.40156 0.0
H794 H 0.24735 0.40273 0.46239 0.0
C795 C 0.1888 0.44854 0.37448 0.0
C796 C 0.28617 0.18387 0.60359 0.0
C797 C 0.3074 0.20611 0.64485 0.0
H798 H 0.2941 0.13931 0.54474 0.0
C799 C 0.35466 0.19933 0.65822 0.0
H800 H 0.24988 0.18843 0.59222 0.0
C801 C 0.38065 0.17261 0.63019 0.0
C802 C 0.35939 0.15037 0.58888 0.0
H803 H 0.3721 0.21603 0.68968 0.0
H804 H 0.4175 0.1693 0.64088 0.0
C805 C 0.31146 0.15559 0.57637 0.0
C806 C 0.85864 0.34683 0.59706 0.0
C807 C 0.86697 0.37822 0.63571 0.0
H808 H 0.88282 0.33031 0.5336 0.0
C809 C 0.91173 0.40821 0.64573 0.0
H810 H 0.82568 0.32037 0.59062 0.0
C811 C 0.94499 0.41285 0.61354 0.0
C812 C 0.93245 0.38786 0.5717 0.0
H813 H 0.9197 0.42985 0.6771 0.0
H814 H 0.97666 0.44116 0.61894 0.0
C815 C 0.89221 0.35059 0.56556 0.0
C816 C 0.16246 0.68945 0.59855 0.0
C817 C 0.18507 0.66156 0.62915 0.0
H818 H 0.10283 0.69051 0.55005 0.0
C819 C 0.16675 0.61134 0.63123 0.0
H820 H 0.17508 0.72862 0.59717 0.0
C821 C 0.12566 0.58972 0.60445 0.0
C822 C 0.10126 0.61805 0.57572 0.0
H823 H 0.18282 0.58933 0.65523 0.0
H824 H 0.11146 0.55131 0.60797 0.0
C825 C 0.12058 0.66795 0.5723 0.0
loop_
_geom_bond_atom_site_label_1
_geom_bond_atom_site_label_2
_geom_bond_distance
_geom_bond_site_symmetry_2
_ccdc_geom_bond_type
Tb0 O3 2.453 . S
Tb0 O4 2.596 . S
Tb0 O5 2.374 . S
Tb0 O13 2.343 . S
Tb0 O15 2.353 . S
Tb0 O17 2.427 . S
Tb0 O18 2.513 . S
C1 O5 1.251 . S
C1 O7 1.263 . S
Tb2 O4 2.343 . S
Tb2 O7 2.353 . S
Tb2 O10 2.427 . S
Tb2 O11 2.513 . S
Tb2 O12 2.453 . S
Tb2 O13 2.596 . S
Tb2 O14 2.374 . S
O3 Tb0 2.453 . S
O3 C19 1.245 . S
O4 Tb0 2.596 . S
O4 Tb2 2.343 . S
O4 C19 1.259 . S
O5 Tb0 2.374 . S
O5 C1 1.251 . S
C6 O10 1.275 . S
C6 O11 1.246 . S
O7 C1 1.263 . S
O7 Tb2 2.353 . S
C8 O12 1.245 . S
C8 O13 1.259 . S
C9 O14 1.250 . S
C9 O15 1.263 . S
O10 Tb2 2.427 . S
O10 C6 1.275 . S
O11 Tb2 2.513 . S
O11 C6 1.246 . S
O12 Tb2 2.453 . S
O12 C8 1.245 . S
O13 Tb0 2.343 . S
O13 Tb2 2.596 . S
O13 C8 1.259 . S
O14 Tb2 2.374 . S
O14 C9 1.250 . S
O15 Tb0 2.353 . S
O15 C9 1.263 . S
C16 O17 1.275 . S
C16 O18 1.246 . S
O17 Tb0 2.427 . S
O17 C16 1.275 . S
O18 Tb0 2.513 . S
O18 C16 1.246 . S
C19 O3 1.245 . S
C19 O4 1.259 . S
Tb20 O23 2.453 . S
Tb20 O24 2.596 . S
Tb20 O25 2.374 . S
Tb20 O33 2.343 . S
Tb20 O35 2.353 . S
Tb20 O37 2.427 . S
Tb20 O38 2.513 . S
C21 O25 1.251 . S
C21 O27 1.263 . S
Tb22 O24 2.343 . S
Tb22 O27 2.353 . S
Tb22 O30 2.427 . S
Tb22 O31 2.513 . S
Tb22 O32 2.453 . S
Tb22 O33 2.596 . S
Tb22 O34 2.374 . S
O23 Tb20 2.453 . S
O23 C39 1.245 . S
O24 Tb20 2.596 . S
O24 Tb22 2.343 . S
O24 C39 1.259 . S
O25 Tb20 2.374 . S
O25 C21 1.251 . S
C26 O30 1.275 . S
C26 O31 1.246 . S
O27 C21 1.263 . S
O27 Tb22 2.353 . S
C28 O32 1.245 . S
C28 O33 1.259 . S
C29 O34 1.250 . S
C29 O35 1.263 . S
O30 Tb22 2.427 . S
O30 C26 1.275 . S
O31 Tb22 2.513 . S
O31 C26 1.246 . S
O32 Tb22 2.453 . S
O32 C28 1.245 . S
O33 Tb20 2.343 . S
O33 Tb22 2.596 . S
O33 C28 1.259 . S
O34 Tb22 2.374 . S
O34 C29 1.250 . S
O35 Tb20 2.353 . S
O35 C29 1.263 . S
C36 O37 1.275 . S
C36 O38 1.246 . S
O37 Tb20 2.427 . S
O37 C36 1.275 . S
O38 Tb20 2.513 . S
O38 C36 1.246 . S
C39 O23 1.245 . S
C39 O24 1.259 . S
Tb40 O43 2.453 . S
Tb40 O44 2.596 . S
Tb40 O45 2.374 . S
Tb40 O53 2.343 . S
Tb40 O55 2.353 . S
Tb40 O57 2.427 . S
Tb40 O58 2.513 . S
C41 O45 1.251 . S
C41 O47 1.263 . S
Tb42 O44 2.343 . S
Tb42 O47 2.353 . S
Tb42 O50 2.427 . S
Tb42 O51 2.513 . S
Tb42 O52 2.453 . S
Tb42 O53 2.596 . S
Tb42 O54 2.374 . S
O43 Tb40 2.453 . S
O43 C59 1.245 . S
O44 Tb40 2.596 . S
O44 Tb42 2.343 . S
O44 C59 1.259 . S
O45 Tb40 2.374 . S
O45 C41 1.251 . S
C46 O50 1.275 . S
C46 O51 1.246 . S
O47 C41 1.263 . S
O47 Tb42 2.353 . S
C48 O52 1.245 . S
C48 O53 1.259 . S
C49 O54 1.250 . S
C49 O55 1.263 . S
O50 Tb42 2.427 . S
O50 C46 1.275 . S
O51 Tb42 2.513 . S
O51 C46 1.246 . S
O52 Tb42 2.453 . S
O52 C48 1.245 . S
O53 Tb40 2.343 . S
O53 Tb42 2.596 . S
O53 C48 1.259 . S
O54 Tb42 2.374 . S
O54 C49 1.250 . S
O55 Tb40 2.353 . S
O55 C49 1.263 . S
C56 O57 1.275 . S
C56 O58 1.246 . S
O57 Tb40 2.427 . S
O57 C56 1.275 . S
O58 Tb40 2.513 . S
O58 C56 1.246 . S
C59 O43 1.245 . S
C59 O44 1.259 . S
Tb60 O63 2.453 . S
Tb60 O64 2.596 . S
Tb60 O65 2.374 . S
Tb60 O73 2.343 . S
Tb60 O75 2.353 . S
Tb60 O77 2.427 . S
Tb60 O78 2.513 . S
C61 O65 1.251 . S
C61 O67 1.263 . S
Tb62 O64 2.343 . S
Tb62 O67 2.353 . S
Tb62 O70 2.427 . S
Tb62 O71 2.513 . S
Tb62 O72 2.453 . S
Tb62 O73 2.596 . S
Tb62 O74 2.374 . S
O63 Tb60 2.453 . S
O63 C79 1.245 . S
O64 Tb60 2.596 . S
O64 Tb62 2.343 . S
O64 C79 1.259 . S
O65 Tb60 2.374 . S
O65 C61 1.251 . S
C66 O70 1.275 . S
C66 O71 1.246 . S
O67 C61 1.263 . S
O67 Tb62 2.353 . S
C68 O72 1.245 . S
C68 O73 1.259 . S
C69 O74 1.250 . S
C69 O75 1.263 . S
O70 Tb62 2.427 . S
O70 C66 1.275 . S
O71 Tb62 2.513 . S
O71 C66 1.246 . S
O72 Tb62 2.453 . S
O72 C68 1.245 . S
O73 Tb60 2.343 . S
O73 Tb62 2.596 . S
O73 C68 1.259 . S
O74 Tb62 2.374 . S
O74 C69 1.250 . S
O75 Tb60 2.353 . S
O75 C69 1.263 . S
C76 O77 1.275 . S
C76 O78 1.246 . S
O77 Tb60 2.427 . S
O77 C76 1.275 . S
O78 Tb60 2.513 . S
O78 C76 1.246 . S
C79 O63 1.245 . S
C79 O64 1.259 . S
Tb80 O83 2.453 . S
Tb80 O84 2.596 . S
Tb80 O85 2.374 . S
Tb80 O93 2.343 . S
Tb80 O95 2.353 . S
Tb80 O97 2.427 . S
Tb80 O98 2.513 . S
C81 O85 1.251 . S
C81 O87 1.263 . S
Tb82 O84 2.343 . S
Tb82 O87 2.353 . S
Tb82 O90 2.427 . S
Tb82 O91 2.513 . S
Tb82 O92 2.453 . S
Tb82 O93 2.596 . S
Tb82 O94 2.374 . S
O83 Tb80 2.453 . S
O83 C99 1.245 . S
O84 Tb80 2.596 . S
O84 Tb82 2.343 . S
O84 C99 1.259 . S
O85 Tb80 2.374 . S
O85 C81 1.251 . S
C86 O90 1.275 . S
C86 O91 1.246 . S
O87 C81 1.263 . S
O87 Tb82 2.353 . S
C88 O92 1.245 . S
C88 O93 1.259 . S
C89 O94 1.250 . S
C89 O95 1.263 . S
O90 Tb82 2.427 . S
O90 C86 1.275 . S
O91 Tb82 2.513 . S
O91 C86 1.246 . S
O92 Tb82 2.453 . S
O92 C88 1.245 . S
O93 Tb80 2.343 . S
O93 Tb82 2.596 . S
O93 C88 1.259 . S
O94 Tb82 2.374 . S
O94 C89 1.250 . S
O95 Tb80 2.353 . S
O95 C89 1.263 . S
C96 O97 1.275 . S
C96 O98 1.246 . S
O97 Tb80 2.427 . S
O97 C96 1.275 . S
O98 Tb80 2.513 . S
O98 C96 1.246 . S
C99 O83 1.245 . S
C99 O84 1.259 . S
Tb100 O103 2.453 . S
Tb100 O104 2.596 . S
Tb100 O105 2.374 . S
Tb100 O113 2.343 . S
Tb100 O115 2.353 . S
Tb100 O117 2.427 . S
Tb100 O118 2.513 . S
C101 O105 1.251 . S
C101 O107 1.263 . S
Tb102 O104 2.343 . S
Tb102 O107 2.353 . S
Tb102 O110 2.427 . S
Tb102 O111 2.513 . S
Tb102 O112 2.453 . S
Tb102 O113 2.596 . S
Tb102 O114 2.374 . S
O103 Tb100 2.453 . S
O103 C119 1.245 . S
O104 Tb100 2.596 . S
O104 Tb102 2.343 . S
O104 C119 1.259 . S
O105 Tb100 2.374 . S
O105 C101 1.251 . S
C106 O110 1.275 . S
C106 O111 1.246 . S
O107 C101 1.263 . S
O107 Tb102 2.353 . S
C108 O112 1.245 . S
C108 O113 1.259 . S
C109 O114 1.250 . S
C109 O115 1.263 . S
O110 Tb102 2.427 . S
O110 C106 1.275 . S
O111 Tb102 2.513 . S
O111 C106 1.246 . S
O112 Tb102 2.453 . S
O112 C108 1.245 . S
O113 Tb100 2.343 . S
O113 Tb102 2.596 . S
O113 C108 1.259 . S
O114 Tb102 2.374 . S
O114 C109 1.250 . S
O115 Tb100 2.353 . S
O115 C109 1.263 . S
C116 O117 1.275 . S
C116 O118 1.246 . S
O117 Tb100 2.427 . S
O117 C116 1.275 . S
O118 Tb100 2.513 . S
O118 C116 1.246 . S
C119 O103 1.245 . S
C119 O104 1.259 . S
Tb120 O123 2.453 . S
Tb120 O124 2.596 . S
Tb120 O125 2.374 . S
Tb120 O133 2.343 . S
Tb120 O135 2.353 . S
Tb120 O137 2.427 . S
Tb120 O138 2.513 . S
C121 O125 1.251 . S
C121 O127 1.263 . S
Tb122 O124 2.343 . S
Tb122 O127 2.353 . S
Tb122 O130 2.427 . S
Tb122 O131 2.513 . S
Tb122 O132 2.453 . S
Tb122 O133 2.596 . S
Tb122 O134 2.374 . S
O123 Tb120 2.453 . S
O123 C139 1.245 . S
O124 Tb120 2.596 . S
O124 Tb122 2.343 . S
O124 C139 1.259 . S
O125 Tb120 2.374 . S
O125 C121 1.251 . S
C126 O130 1.275 . S
C126 O131 1.246 . S
O127 C121 1.263 . S
O127 Tb122 2.353 . S
C128 O132 1.245 . S
C128 O133 1.259 . S
C129 O134 1.250 . S
C129 O135 1.263 . S
O130 Tb122 2.427 . S
O130 C126 1.275 . S
O131 Tb122 2.513 . S
O131 C126 1.246 . S
O132 Tb122 2.453 . S
O132 C128 1.245 . S
O133 Tb120 2.343 . S
O133 Tb122 2.596 . S
O133 C128 1.259 . S
O134 Tb122 2.374 . S
O134 C129 1.250 . S
O135 Tb120 2.353 . S
O135 C129 1.263 . S
C136 O137 1.275 . S
C136 O138 1.246 . S
O137 Tb120 2.427 . S
O137 C136 1.275 . S
O138 Tb120 2.513 . S
O138 C136 1.246 . S
C139 O123 1.245 . S
C139 O124 1.259 . S
Tb140 O143 2.453 . S
Tb140 O144 2.596 . S
Tb140 O145 2.374 . S
Tb140 O153 2.343 . S
Tb140 O155 2.353 . S
Tb140 O157 2.427 . S
Tb140 O158 2.513 . S
C141 O145 1.251 . S
C141 O147 1.263 . S
Tb142 O144 2.343 . S
Tb142 O147 2.353 . S
Tb142 O150 2.427 . S
Tb142 O151 2.513 . S
Tb142 O152 2.453 . S
Tb142 O153 2.596 . S
Tb142 O154 2.374 . S
O143 Tb140 2.453 . S
O143 C159 1.245 . S
O144 Tb140 2.596 . S
O144 Tb142 2.343 . S
O144 C159 1.259 . S
O145 Tb140 2.374 . S
O145 C141 1.251 . S
C146 O150 1.275 . S
C146 O151 1.246 . S
O147 C141 1.263 . S
O147 Tb142 2.353 . S
C148 O152 1.245 . S
C148 O153 1.259 . S
C149 O154 1.250 . S
C149 O155 1.263 . S
O150 Tb142 2.427 . S
O150 C146 1.275 . S
O151 Tb142 2.513 . S
O151 C146 1.246 . S
O152 Tb142 2.453 . S
O152 C148 1.245 . S
O153 Tb140 2.343 . S
O153 Tb142 2.596 . S
O153 C148 1.259 . S
O154 Tb142 2.374 . S
O154 C149 1.250 . S
O155 Tb140 2.353 . S
O155 C149 1.263 . S
C156 O157 1.275 . S
C156 O158 1.246 . S
O157 Tb140 2.427 . S
O157 C156 1.275 . S
O158 Tb140 2.513 . S
O158 C156 1.246 . S
C159 O143 1.245 . S
C159 O144 1.259 . S
C160 O172 1.241 . S
C160 O173 1.280 . S
C161 O174 1.277 . S
C161 O175 1.245 . S
C162 O186 1.247 . S
C162 O188 1.289 . S
Mg163 O164 1.926 . S
Mg163 O173 1.984 . S
Mg163 O175 1.988 . S
Mg163 O176 2.061 1_655 S
O164 Mg163 1.926 . S
O164 Mg165 1.986 . S
O164 Mg166 1.917 1_655 S
Mg165 O164 1.986 . S
Mg165 O172 2.042 . S
Mg165 O174 2.041 . S
Mg165 O180 2.038 1_545 S
Mg165 O188 2.238 1_545 S
Mg166 O164 1.917 1_455 S
Mg166 O167 1.917 1_545 S
Mg166 O177 2.106 . S
Mg166 O179 2.079 1_445 S
Mg166 O188 2.106 1_445 S
Mg166 O189 2.079 . S
O167 Mg166 1.917 1_565 S
O167 Mg168 1.926 . S
O167 Mg169 1.986 . S
Mg168 O167 1.926 . S
Mg168 O182 1.984 . S
Mg168 O185 1.988 . S
Mg168 O186 2.061 1_455 S
Mg169 O167 1.986 . S
Mg169 O177 2.238 1_565 S
Mg169 O181 2.042 . S
Mg169 O183 2.041 . S
Mg169 O190 2.038 1_565 S
C170 O176 1.247 . S
C170 O177 1.289 . S
C171 O189 1.245 . S
C171 O190 1.274 . S
O172 C160 1.241 . S
O172 Mg165 2.042 . S
O173 C160 1.280 . S
O173 Mg163 1.984 . S
O174 C161 1.277 . S
O174 Mg165 2.041 . S
O175 C161 1.245 . S
O175 Mg163 1.988 . S
O176 Mg163 2.061 1_455 S
O176 C170 1.247 . S
O177 Mg166 2.106 . S
O177 Mg169 2.238 1_545 S
O177 C170 1.289 . S
C178 O179 1.245 . S
C178 O180 1.274 . S
O179 Mg166 2.079 1_665 S
O179 C178 1.245 . S
O180 Mg165 2.038 1_565 S
O180 C178 1.274 . S
O181 Mg169 2.042 . S
O181 C184 1.241 . S
O182 Mg168 1.984 . S
O182 C184 1.280 . S
O183 Mg169 2.041 . S
O183 C187 1.277 . S
C184 O181 1.241 . S
C184 O182 1.280 . S
O185 Mg168 1.988 . S
O185 C187 1.245 . S
O186 C162 1.247 . S
O186 Mg168 2.061 1_655 S
C187 O183 1.277 . S
C187 O185 1.245 . S
O188 C162 1.289 . S
O188 Mg165 2.238 1_565 S
O188 Mg166 2.106 1_665 S
O189 Mg166 2.079 . S
O189 C171 1.245 . S
O190 Mg169 2.038 1_545 S
O190 C171 1.274 . S
C191 O203 1.241 . S
C191 O204 1.280 . S
C192 O205 1.277 . S
C192 O206 1.245 . S
C193 O217 1.247 . S
C193 O219 1.289 . S
Mg194 O195 1.926 . S
Mg194 O204 1.984 . S
Mg194 O206 1.988 1_554 S
Mg194 O207 2.061 . S
O195 Mg194 1.926 . S
O195 Mg196 1.986 1_554 S
O195 Mg197 1.917 . S
Mg196 O195 1.986 1_556 S
Mg196 O203 2.042 1_556 S
Mg196 O205 2.041 . S
Mg196 O211 2.038 1_546 S
Mg196 O219 2.238 1_545 S
Mg197 O195 1.917 . S
Mg197 O198 1.917 1_544 S
Mg197 O208 2.107 . S
Mg197 O210 2.079 1_545 S
Mg197 O219 2.106 1_544 S
Mg197 O220 2.078 1_554 S
O198 Mg197 1.917 1_566 S
O198 Mg199 1.926 . S
O198 Mg200 1.986 1_556 S
Mg199 O198 1.926 . S
Mg199 O213 1.984 . S
Mg199 O216 1.988 1_556 S
Mg199 O217 2.061 . S
Mg200 O198 1.986 1_554 S
Mg200 O208 2.238 1_565 S
Mg200 O212 2.042 1_554 S
Mg200 O214 2.041 . S
Mg200 O221 2.038 1_564 S
C201 O207 1.247 . S
C201 O208 1.289 . S
C202 O220 1.245 . S
C202 O221 1.274 . S
O203 C191 1.241 . S
O203 Mg196 2.042 1_554 S
O204 C191 1.280 . S
O204 Mg194 1.984 . S
O205 C192 1.277 . S
O205 Mg196 2.041 . S
O206 C192 1.245 . S
O206 Mg194 1.988 1_556 S
O207 Mg194 2.061 . S
O207 C201 1.247 . S
O208 Mg197 2.107 . S
O208 Mg200 2.238 1_545 S
O208 C201 1.289 . S
C209 O210 1.245 . S
C209 O211 1.274 . S
O210 Mg197 2.079 1_565 S
O210 C209 1.245 . S
O211 Mg196 2.038 1_564 S
O211 C209 1.274 . S
O212 Mg200 2.042 1_556 S
O212 C215 1.241 . S
O213 Mg199 1.984 . S
O213 C215 1.280 . S
O214 Mg200 2.041 . S
O214 C218 1.277 . S
C215 O212 1.241 . S
C215 O213 1.280 . S
O216 Mg199 1.988 1_554 S
O216 C218 1.245 . S
O217 C193 1.247 . S
O217 Mg199 2.061 . S
C218 O214 1.277 . S
C218 O216 1.245 . S
O219 C193 1.289 . S
O219 Mg196 2.238 1_565 S
O219 Mg197 2.106 1_566 S
O220 Mg197 2.078 1_556 S
O220 C202 1.245 . S
O221 Mg200 2.038 1_546 S
O221 C202 1.274 . S
C222 O234 1.241 . S
C222 O235 1.280 . S
C223 O236 1.277 . S
C223 O237 1.245 . S
C224 O248 1.247 . S
C224 O250 1.289 . S
Mg225 O226 1.926 . S
Mg225 O235 1.984 . S
Mg225 O237 1.988 1_554 S
Mg225 O238 2.061 1_655 S
O226 Mg225 1.926 . S
O226 Mg227 1.986 1_554 S
O226 Mg228 1.917 1_655 S
Mg227 O226 1.986 1_556 S
Mg227 O234 2.042 1_556 S
Mg227 O236 2.041 . S
Mg227 O242 2.038 1_556 S
Mg227 O250 2.238 . S
Mg228 O226 1.917 1_455 S
Mg228 O229 1.917 1_554 S
Mg228 O239 2.107 . S
Mg228 O241 2.079 1_455 S
Mg228 O250 2.106 1_454 S
Mg228 O251 2.078 1_554 S
O229 Mg228 1.917 1_556 S
O229 Mg230 1.926 . S
O229 Mg231 1.986 1_556 S
Mg230 O229 1.926 . S
Mg230 O244 1.984 . S
Mg230 O247 1.988 1_556 S
Mg230 O248 2.061 1_455 S
Mg231 O229 1.986 1_554 S
Mg231 O239 2.238 . S
Mg231 O243 2.042 1_554 S
Mg231 O245 2.041 . S
Mg231 O252 2.038 1_554 S
C232 O238 1.247 . S
C232 O239 1.289 . S
C233 O251 1.245 . S
C233 O252 1.274 . S
O234 C222 1.241 . S
O234 Mg227 2.042 1_554 S
O235 C222 1.280 . S
O235 Mg225 1.984 . S
O236 C223 1.277 . S
O236 Mg227 2.041 . S
O237 C223 1.245 . S
O237 Mg225 1.988 1_556 S
O238 Mg225 2.061 1_455 S
O238 C232 1.247 . S
O239 Mg228 2.107 . S
O239 Mg231 2.238 . S
O239 C232 1.289 . S
C240 O241 1.245 . S
C240 O242 1.274 . S
O241 Mg228 2.079 1_655 S
O241 C240 1.245 . S
O242 Mg227 2.038 1_554 S
O242 C240 1.274 . S
O243 Mg231 2.042 1_556 S
O243 C246 1.241 . S
O244 Mg230 1.984 . S
O244 C246 1.280 . S
O245 Mg231 2.041 . S
O245 C249 1.277 . S
C246 O243 1.241 . S
C246 O244 1.280 . S
O247 Mg230 1.988 1_554 S
O247 C249 1.245 . S
O248 C224 1.247 . S
O248 Mg230 2.061 1_655 S
C249 O245 1.277 . S
C249 O247 1.245 . S
O250 C224 1.289 . S
O250 Mg227 2.238 . S
O250 Mg228 2.106 1_656 S
O251 Mg228 2.078 1_556 S
O251 C233 1.245 . S
O252 Mg231 2.038 1_556 S
O252 C233 1.274 . S
C253 O265 1.241 . S
C253 O266 1.280 . S
C254 O267 1.277 . S
C254 O268 1.245 . S
C255 O279 1.247 . S
C255 O281 1.289 . S
Mg256 O257 1.926 . S
Mg256 O266 1.984 . S
Mg256 O268 1.988 1_554 S
Mg256 O269 2.061 . S
O257 Mg256 1.926 . S
O257 Mg258 1.986 1_554 S
O257 Mg259 1.917 . S
Mg258 O257 1.986 1_556 S
Mg258 O265 2.042 1_556 S
Mg258 O267 2.041 . S
Mg258 O273 2.038 1_556 S
Mg258 O281 2.238 . S
Mg259 O257 1.917 . S
Mg259 O260 1.917 1_554 S
Mg259 O270 2.107 . S
Mg259 O272 2.079 . S
Mg259 O281 2.106 1_554 S
Mg259 O282 2.078 1_554 S
O260 Mg259 1.917 1_556 S
O260 Mg261 1.926 . S
O260 Mg262 1.986 1_556 S
Mg261 O260 1.926 . S
Mg261 O275 1.984 . S
Mg261 O278 1.988 1_556 S
Mg261 O279 2.061 . S
Mg262 O260 1.986 1_554 S
Mg262 O270 2.238 . S
Mg262 O274 2.042 1_554 S
Mg262 O276 2.041 . S
Mg262 O283 2.038 1_554 S
C263 O269 1.247 . S
C263 O270 1.289 . S
C264 O282 1.245 . S
C264 O283 1.274 . S
O265 C253 1.241 . S
O265 Mg258 2.042 1_554 S
O266 C253 1.280 . S
O266 Mg256 1.984 . S
O267 C254 1.277 . S
O267 Mg258 2.041 . S
O268 C254 1.245 . S
O268 Mg256 1.988 1_556 S
O269 Mg256 2.061 . S
O269 C263 1.247 . S
O270 Mg259 2.107 . S
O270 Mg262 2.238 . S
O270 C263 1.289 . S
C271 O272 1.245 . S
C271 O273 1.274 . S
O272 Mg259 2.079 . S
O272 C271 1.245 . S
O273 Mg258 2.038 1_554 S
O273 C271 1.274 . S
O274 Mg262 2.042 1_556 S
O274 C277 1.241 . S
O275 Mg261 1.984 . S
O275 C277 1.280 . S
O276 Mg262 2.041 . S
O276 C280 1.277 . S
C277 O274 1.241 . S
C277 O275 1.280 . S
O278 Mg261 1.988 1_554 S
O278 C280 1.245 . S
O279 C255 1.247 . S
O279 Mg261 2.061 . S
C280 O276 1.277 . S
C280 O278 1.245 . S
O281 C255 1.289 . S
O281 Mg258 2.238 . S
O281 Mg259 2.106 1_556 S
O282 Mg259 2.078 1_556 S
O282 C264 1.245 . S
O283 Mg262 2.038 1_556 S
O283 C264 1.274 . S
C284 O296 1.241 . S
C284 O297 1.280 . S
C285 O298 1.277 . S
C285 O299 1.245 . S
C286 O310 1.247 . S
C286 O312 1.289 . S
Mg287 O288 1.926 . S
Mg287 O297 1.984 . S
Mg287 O299 1.988 . S
Mg287 O300 2.061 1_655 S
O288 Mg287 1.926 . S
O288 Mg289 1.986 . S
O288 Mg290 1.917 1_655 S
Mg289 O288 1.986 . S
Mg289 O296 2.042 . S
Mg289 O298 2.041 . S
Mg289 O304 2.038 . S
Mg289 O312 2.238 . S
Mg290 O288 1.917 1_455 S
Mg290 O291 1.917 . S
Mg290 O301 2.107 . S
Mg290 O303 2.079 1_455 S
Mg290 O312 2.106 1_455 S
Mg290 O313 2.079 . S
O291 Mg290 1.917 . S
O291 Mg292 1.926 . S
O291 Mg293 1.986 . S
Mg292 O291 1.926 . S
Mg292 O306 1.984 . S
Mg292 O309 1.988 . S
Mg292 O310 2.061 1_455 S
Mg293 O291 1.986 . S
Mg293 O301 2.238 . S
Mg293 O305 2.042 . S
Mg293 O307 2.041 . S
Mg293 O314 2.038 . S
C294 O300 1.247 . S
C294 O301 1.289 . S
C295 O313 1.245 . S
C295 O314 1.274 . S
O296 C284 1.241 . S
O296 Mg289 2.042 . S
O297 C284 1.280 . S
O297 Mg287 1.984 . S
O298 C285 1.277 . S
O298 Mg289 2.041 . S
O299 C285 1.245 . S
O299 Mg287 1.988 . S
O300 Mg287 2.061 1_455 S
O300 C294 1.247 . S
O301 Mg290 2.107 . S
O301 Mg293 2.238 . S
O301 C294 1.289 . S
C302 O303 1.245 . S
C302 O304 1.274 . S
O303 Mg290 2.079 1_655 S
O303 C302 1.245 . S
O304 Mg289 2.038 . S
O304 C302 1.274 . S
O305 Mg293 2.042 . S
O305 C308 1.241 . S
O306 Mg292 1.984 . S
O306 C308 1.280 . S
O307 Mg293 2.041 . S
O307 C311 1.277 . S
C308 O305 1.241 . S
C308 O306 1.280 . S
O309 Mg292 1.988 . S
O309 C311 1.245 . S
O310 C286 1.247 . S
O310 Mg292 2.061 1_655 S
C311 O307 1.277 . S
C311 O309 1.245 . S
O312 C286 1.289 . S
O312 Mg289 2.238 . S
O312 Mg290 2.106 1_655 S
O313 Mg290 2.079 . S
O313 C295 1.245 . S
O314 Mg293 2.038 . S
O314 C295 1.274 . S
C315 O327 1.241 . S
C315 O328 1.280 . S
C316 O329 1.277 . S
C316 O330 1.245 . S
C317 O341 1.247 . S
C317 O343 1.289 . S
Mg318 O319 1.926 . S
Mg318 O328 1.984 . S
Mg318 O330 1.988 . S
Mg318 O331 2.061 . S
O319 Mg318 1.926 . S
O319 Mg320 1.986 . S
O319 Mg321 1.917 . S
Mg320 O319 1.986 . S
Mg320 O327 2.042 . S
Mg320 O329 2.041 . S
Mg320 O335 2.038 1_545 S
Mg320 O343 2.238 1_545 S
Mg321 O319 1.917 . S
Mg321 O322 1.917 1_545 S
Mg321 O332 2.106 . S
Mg321 O334 2.079 1_545 S
Mg321 O343 2.106 1_545 S
Mg321 O344 2.079 . S
O322 Mg321 1.917 1_565 S
O322 Mg323 1.926 . S
O322 Mg324 1.986 . S
Mg323 O322 1.926 . S
Mg323 O337 1.984 . S
Mg323 O340 1.988 . S
Mg323 O341 2.061 . S
Mg324 O322 1.986 . S
Mg324 O332 2.238 1_565 S
Mg324 O336 2.042 . S
Mg324 O338 2.041 . S
Mg324 O345 2.038 1_565 S
C325 O331 1.247 . S
C325 O332 1.289 . S
C326 O344 1.245 . S
C326 O345 1.274 . S
O327 C315 1.241 . S
O327 Mg320 2.042 . S
O328 C315 1.280 . S
O328 Mg318 1.984 . S
O329 C316 1.277 . S
O329 Mg320 2.041 . S
O330 C316 1.245 . S
O330 Mg318 1.988 . S
O331 Mg318 2.061 . S
O331 C325 1.247 . S
O332 Mg321 2.106 . S
O332 Mg324 2.238 1_545 S
O332 C325 1.289 . S
C333 O334 1.245 . S
C333 O335 1.274 . S
O334 Mg321 2.079 1_565 S
O334 C333 1.245 . S
O335 Mg320 2.038 1_565 S
O335 C333 1.274 . S
O336 Mg324 2.042 . S
O336 C339 1.241 . S
O337 Mg323 1.984 . S
O337 C339 1.280 . S
O338 Mg324 2.041 . S
O338 C342 1.277 . S
C339 O336 1.241 . S
C339 O337 1.280 . S
O340 Mg323 1.988 . S
O340 C342 1.245 . S
O341 C317 1.247 . S
O341 Mg323 2.061 . S
C342 O338 1.277 . S
C342 O340 1.245 . S
O343 C317 1.289 . S
O343 Mg320 2.238 1_565 S
O343 Mg321 2.106 1_565 S
O344 Mg321 2.079 . S
O344 C326 1.245 . S
O345 Mg324 2.038 1_545 S
O345 C326 1.274 . S
C346 C347 1.387 . S
C346 H350 0.950 . S
C346 C355 1.390 . S
C347 C346 1.387 . S
C347 C349 1.387 . S
H348 C355 0.950 . S
C349 C347 1.387 . S
C349 C351 1.390 . S
C349 H353 0.950 . S
H350 C346 0.950 . S
C351 C349 1.390 . S
C351 C352 1.387 . S
C351 H354 0.950 . S
C352 C351 1.387 . S
C352 C355 1.387 . S
H353 C349 0.950 . S
H354 C351 0.950 . S
C355 C346 1.390 . S
C355 H348 0.950 . S
C355 C352 1.387 . S
C356 C357 1.387 . S
C356 H360 0.950 . S
C356 C365 1.390 . S
C357 C356 1.387 . S
C357 C359 1.387 . S
H358 C365 0.950 . S
C359 C357 1.387 . S
C359 C361 1.390 . S
C359 H363 0.950 . S
H360 C356 0.950 . S
C361 C359 1.390 . S
C361 C362 1.387 . S
C361 H364 0.950 . S
C362 C361 1.387 . S
C362 C365 1.387 . S
H363 C359 0.950 . S
H364 C361 0.950 . S
C365 C356 1.390 . S
C365 H358 0.950 . S
C365 C362 1.387 . S
C366 C367 1.387 . S
C366 H370 0.950 . S
C366 C375 1.390 . S
C367 C366 1.387 . S
C367 C369 1.387 . S
H368 C375 0.950 . S
C369 C367 1.387 . S
C369 C371 1.390 . S
C369 H373 0.950 . S
H370 C366 0.950 . S
C371 C369 1.390 . S
C371 C372 1.387 . S
C371 H374 0.950 . S
C372 C371 1.387 . S
C372 C375 1.387 . S
H373 C369 0.950 . S
H374 C371 0.950 . S
C375 C366 1.390 . S
C375 H368 0.950 . S
C375 C372 1.387 . S
C376 C377 1.387 . S
C376 H380 0.950 . S
C376 C385 1.390 . S
C377 C376 1.387 . S
C377 C379 1.387 . S
H378 C385 0.950 . S
C379 C377 1.387 . S
C379 C381 1.390 . S
C379 H383 0.950 . S
H380 C376 0.950 . S
C381 C379 1.390 . S
C381 C382 1.387 . S
C381 H384 0.950 . S
C382 C381 1.387 . S
C382 C385 1.387 . S
H383 C379 0.950 . S
H384 C381 0.950 . S
C385 C376 1.390 . S
C385 H378 0.950 . S
C385 C382 1.387 . S
C386 C387 1.387 . S
C386 H390 0.950 . S
C386 C395 1.390 . S
C387 C386 1.387 . S
C387 C389 1.387 . S
H388 C395 0.950 . S
C389 C387 1.387 . S
C389 C391 1.390 . S
C389 H393 0.950 . S
H390 C386 0.950 . S
C391 C389 1.390 . S
C391 C392 1.387 . S
C391 H394 0.950 . S
C392 C391 1.387 . S
C392 C395 1.387 . S
H393 C389 0.950 . S
H394 C391 0.950 . S
C395 C386 1.390 . S
C395 H388 0.950 . S
C395 C392 1.387 . S
C396 C397 1.387 . S
C396 H400 0.950 . S
C396 C405 1.390 . S
C397 C396 1.387 . S
C397 C399 1.387 . S
H398 C405 0.950 . S
C399 C397 1.387 . S
C399 C401 1.390 . S
C399 H403 0.950 . S
H400 C396 0.950 . S
C401 C399 1.390 . S
C401 C402 1.387 . S
C401 H404 0.950 . S
C402 C401 1.387 . S
C402 C405 1.387 . S
H403 C399 0.950 . S
H404 C401 0.950 . S
C405 C396 1.390 . S
C405 H398 0.950 . S
C405 C402 1.387 . S
C406 C407 1.387 . S
C406 H410 0.950 . S
C406 C415 1.390 . S
C407 C406 1.387 . S
C407 C409 1.387 . S
H408 C415 0.950 . S
C409 C407 1.387 . S
C409 C411 1.390 . S
C409 H413 0.950 . S
H410 C406 0.950 . S
C411 C409 1.390 . S
C411 C412 1.387 . S
C411 H414 0.950 . S
C412 C411 1.387 . S
C412 C415 1.387 . S
H413 C409 0.950 . S
H414 C411 0.950 . S
C415 C406 1.390 . S
C415 H408 0.950 . S
C415 C412 1.387 . S
C416 C417 1.387 . S
C416 H420 0.950 . S
C416 C425 1.390 . S
C417 C416 1.387 . S
C417 C419 1.387 . S
H418 C425 0.950 . S
C419 C417 1.387 . S
C419 C421 1.390 . S
C419 H423 0.950 . S
H420 C416 0.950 . S
C421 C419 1.390 . S
C421 C422 1.387 . S
C421 H424 0.950 . S
C422 C421 1.387 . S
C422 C425 1.387 . S
H423 C419 0.950 . S
H424 C421 0.950 . S
C425 C416 1.390 . S
C425 H418 0.950 . S
C425 C422 1.387 . S
C426 C427 1.387 . S
C426 H430 0.950 . S
C426 C435 1.390 . S
C427 C426 1.387 . S
C427 C429 1.387 . S
H428 C435 0.950 . S
C429 C427 1.387 . S
C429 C431 1.390 . S
C429 H433 0.950 . S
H430 C426 0.950 . S
C431 C429 1.390 . S
C431 C432 1.387 . S
C431 H434 0.950 . S
C432 C431 1.387 . S
C432 C435 1.387 . S
H433 C429 0.950 . S
H434 C431 0.950 . S
C435 C426 1.390 . S
C435 H428 0.950 . S
C435 C432 1.387 . S
C436 C437 1.387 . S
C436 H440 0.950 . S
C436 C445 1.390 . S
C437 C436 1.387 . S
C437 C439 1.387 . S
H438 C445 0.950 . S
C439 C437 1.387 . S
C439 C441 1.390 . S
C439 H443 0.950 . S
H440 C436 0.950 . S
C441 C439 1.390 . S
C441 C442 1.387 . S
C441 H444 0.950 . S
C442 C441 1.387 . S
C442 C445 1.387 . S
H443 C439 0.950 . S
H444 C441 0.950 . S
C445 C436 1.390 . S
C445 H438 0.950 . S
C445 C442 1.387 . S
C446 C447 1.387 . S
C446 H450 0.950 . S
C446 C455 1.390 . S
C447 C446 1.387 . S
C447 C449 1.387 . S
H448 C455 0.950 . S
C449 C447 1.387 . S
C449 C451 1.390 . S
C449 H453 0.950 . S
H450 C446 0.950 . S
C451 C449 1.390 . S
C451 C452 1.387 . S
C451 H454 0.950 . S
C452 C451 1.387 . S
C452 C455 1.387 . S
H453 C449 0.950 . S
H454 C451 0.950 . S
C455 C446 1.390 . S
C455 H448 0.950 . S
C455 C452 1.387 . S
C456 C457 1.387 . S
C456 H460 0.950 . S
C456 C465 1.390 . S
C457 C456 1.387 . S
C457 C459 1.387 . S
H458 C465 0.950 . S
C459 C457 1.387 . S
C459 C461 1.390 . S
C459 H463 0.950 . S
H460 C456 0.950 . S
C461 C459 1.390 . S
C461 C462 1.387 . S
C461 H464 0.950 . S
C462 C461 1.387 . S
C462 C465 1.387 . S
H463 C459 0.950 . S
H464 C461 0.950 . S
C465 C456 1.390 . S
C465 H458 0.950 . S
C465 C462 1.387 . S
C466 C467 1.387 . S
C466 H470 0.950 . S
C466 C475 1.390 . S
C467 C466 1.387 . S
C467 C469 1.387 . S
H468 C475 0.950 . S
C469 C467 1.387 . S
C469 C471 1.390 . S
C469 H473 0.950 . S
H470 C466 0.950 . S
C471 C469 1.390 . S
C471 C472 1.387 . S
C471 H474 0.950 . S
C472 C471 1.387 . S
C472 C475 1.387 . S
H473 C469 0.950 . S
H474 C471 0.950 . S
C475 C466 1.390 . S
C475 H468 0.950 . S
C475 C472 1.387 . S
C476 C477 1.387 . S
C476 H480 0.950 . S
C476 C485 1.390 . S
C477 C476 1.387 . S
C477 C479 1.387 . S
H478 C485 0.950 . S
C479 C477 1.387 . S
C479 C481 1.390 . S
C479 H483 0.950 . S
H480 C476 0.950 . S
C481 C479 1.390 . S
C481 C482 1.387 . S
C481 H484 0.950 . S
C482 C481 1.387 . S
C482 C485 1.387 . S
H483 C479 0.950 . S
H484 C481 0.950 . S
C485 C476 1.390 . S
C485 H478 0.950 . S
C485 C482 1.387 . S
C486 C487 1.387 . S
C486 H490 0.950 . S
C486 C495 1.390 . S
C487 C486 1.387 . S
C487 C489 1.387 . S
H488 C495 0.950 . S
C489 C487 1.387 . S
C489 C491 1.390 . S
C489 H493 0.950 . S
H490 C486 0.950 . S
C491 C489 1.390 . S
C491 C492 1.387 . S
C491 H494 0.950 . S
C492 C491 1.387 . S
C492 C495 1.387 . S
H493 C489 0.950 . S
H494 C491 0.950 . S
C495 C486 1.390 . S
C495 H488 0.950 . S
C495 C492 1.387 . S
C496 C497 1.387 . S
C496 H500 0.950 . S
C496 C505 1.390 . S
C497 C496 1.387 . S
C497 C499 1.387 . S
H498 C505 0.950 . S
C499 C497 1.387 . S
C499 C501 1.390 . S
C499 H503 0.950 . S
H500 C496 0.950 . S
C501 C499 1.390 . S
C501 C502 1.387 . S
C501 H504 0.950 . S
C502 C501 1.387 . S
C502 C505 1.387 . S
H503 C499 0.950 . S
H504 C501 0.950 . S
C505 C496 1.390 . S
C505 H498 0.950 . S
C505 C502 1.387 . S
C506 C507 1.387 . S
C506 H510 0.950 . S
C506 C515 1.390 . S
C507 C506 1.387 . S
C507 C509 1.387 . S
H508 C515 0.950 . S
C509 C507 1.387 . S
C509 C511 1.390 . S
C509 H513 0.950 . S
H510 C506 0.950 . S
C511 C509 1.390 . S
C511 C512 1.387 . S
C511 H514 0.950 . S
C512 C511 1.387 . S
C512 C515 1.387 . S
H513 C509 0.950 . S
H514 C511 0.950 . S
C515 C506 1.390 . S
C515 H508 0.950 . S
C515 C512 1.387 . S
C516 C517 1.387 . S
C516 H520 0.950 . S
C516 C525 1.390 . S
C517 C516 1.387 . S
C517 C519 1.387 . S
H518 C525 0.950 . S
C519 C517 1.387 . S
C519 C521 1.390 . S
C519 H523 0.950 . S
H520 C516 0.950 . S
C521 C519 1.390 . S
C521 C522 1.387 . S
C521 H524 0.950 . S
C522 C521 1.387 . S
C522 C525 1.387 . S
H523 C519 0.950 . S
H524 C521 0.950 . S
C525 C516 1.390 . S
C525 H518 0.950 . S
C525 C522 1.387 . S
C526 C527 1.387 . S
C526 H530 0.950 . S
C526 C535 1.390 . S
C527 C526 1.387 . S
C527 C529 1.387 . S
H528 C535 0.950 . S
C529 C527 1.387 . S
C529 C531 1.390 . S
C529 H533 0.950 . S
H530 C526 0.950 . S
C531 C529 1.390 . S
C531 C532 1.387 . S
C531 H534 0.950 . S
C532 C531 1.387 . S
C532 C535 1.387 . S
H533 C529 0.950 . S
H534 C531 0.950 . S
C535 C526 1.390 . S
C535 H528 0.950 . S
C535 C532 1.387 . S
C536 C537 1.387 . S
C536 H540 0.950 . S
C536 C545 1.390 . S
C537 C536 1.387 . S
C537 C539 1.387 . S
H538 C545 0.950 . S
C539 C537 1.387 . S
C539 C541 1.390 . S
C539 H543 0.950 . S
H540 C536 0.950 . S
C541 C539 1.390 . S
C541 C542 1.387 . S
C541 H544 0.950 . S
C542 C541 1.387 . S
C542 C545 1.387 . S
H543 C539 0.950 . S
H544 C541 0.950 . S
C545 C536 1.390 . S
C545 H538 0.950 . S
C545 C542 1.387 . S
C546 C547 1.387 . S
C546 H550 0.950 . S
C546 C555 1.390 . S
C547 C546 1.387 . S
C547 C549 1.387 . S
H548 C555 0.950 . S
C549 C547 1.387 . S
C549 C551 1.390 . S
C549 H553 0.950 . S
H550 C546 0.950 . S
C551 C549 1.390 . S
C551 C552 1.387 . S
C551 H554 0.950 . S
C552 C551 1.387 . S
C552 C555 1.387 . S
H553 C549 0.950 . S
H554 C551 0.950 . S
C555 C546 1.390 . S
C555 H548 0.950 . S
C555 C552 1.387 . S
C556 C557 1.387 . S
C556 H560 0.950 . S
C556 C565 1.390 . S
C557 C556 1.387 . S
C557 C559 1.387 . S
H558 C565 0.950 . S
C559 C557 1.387 . S
C559 C561 1.390 . S
C559 H563 0.950 . S
H560 C556 0.950 . S
C561 C559 1.390 . S
C561 C562 1.387 . S
C561 H564 0.950 . S
C562 C561 1.387 . S
C562 C565 1.387 . S
H563 C559 0.950 . S
H564 C561 0.950 . S
C565 C556 1.390 . S
C565 H558 0.950 . S
C565 C562 1.387 . S
C566 C567 1.387 . S
C566 H570 0.950 . S
C566 C575 1.390 . S
C567 C566 1.387 . S
C567 C569 1.387 . S
H568 C575 0.950 . S
C569 C567 1.387 . S
C569 C571 1.390 . S
C569 H573 0.950 . S
H570 C566 0.950 . S
C571 C569 1.390 . S
C571 C572 1.387 . S
C571 H574 0.950 . S
C572 C571 1.387 . S
C572 C575 1.387 . S
H573 C569 0.950 . S
H574 C571 0.950 . S
C575 C566 1.390 . S
C575 H568 0.950 . S
C575 C572 1.387 . S
C576 C577 1.387 . S
C576 H580 0.950 . S
C576 C585 1.390 . S
C577 C576 1.387 . S
C577 C579 1.387 . S
H578 C585 0.950 . S
C579 C577 1.387 . S
C579 C581 1.390 . S
C579 H583 0.950 . S
H580 C576 0.950 . S
C581 C579 1.390 . S
C581 C582 1.387 . S
C581 H584 0.950 . S
C582 C581 1.387 . S
C582 C585 1.387 . S
H583 C579 0.950 . S
H584 C581 0.950 . S
C585 C576 1.390 . S
C585 H578 0.950 . S
C585 C582 1.387 . S
C586 C587 1.387 . S
C586 H590 0.950 . S
C586 C595 1.390 . S
C587 C586 1.387 . S
C587 C589 1.387 . S
H588 C595 0.950 . S
C589 C587 1.387 . S
C589 C591 1.390 . S
C589 H593 0.950 . S
H590 C586 0.950 . S
C591 C589 1.390 . S
C591 C592 1.387 . S
C591 H594 0.950 . S
C592 C591 1.387 . S
C592 C595 1.387 . S
H593 C589 0.950 . S
H594 C591 0.950 . S
C595 C586 1.390 . S
C595 H588 0.950 . S
C595 C592 1.387 . S
C596 C597 1.387 . S
C596 H600 0.950 . S
C596 C605 1.390 . S
C597 C596 1.387 . S
C597 C599 1.387 . S
H598 C605 0.950 . S
C599 C597 1.387 . S
C599 C601 1.390 . S
C599 H603 0.950 . S
H600 C596 0.950 . S
C601 C599 1.390 . S
C601 C602 1.387 . S
C601 H604 0.950 . S
C602 C601 1.387 . S
C602 C605 1.387 . S
H603 C599 0.950 . S
H604 C601 0.950 . S
C605 C596 1.390 . S
C605 H598 0.950 . S
C605 C602 1.387 . S
C606 C607 1.387 . S
C606 H610 0.950 . S
C606 C615 1.390 . S
C607 C606 1.387 . S
C607 C609 1.387 . S
H608 C615 0.950 . S
C609 C607 1.387 . S
C609 C611 1.390 . S
C609 H613 0.950 . S
H610 C606 0.950 . S
C611 C609 1.390 . S
C611 C612 1.387 . S
C611 H614 0.950 . S
C612 C611 1.387 . S
C612 C615 1.387 . S
H613 C609 0.950 . S
H614 C611 0.950 . S
C615 C606 1.390 . S
C615 H608 0.950 . S
C615 C612 1.387 . S
C616 C617 1.387 . S
C616 H620 0.950 . S
C616 C625 1.390 . S
C617 C616 1.387 . S
C617 C619 1.387 . S
H618 C625 0.950 . S
C619 C617 1.387 . S
C619 C621 1.390 . S
C619 H623 0.950 . S
H620 C616 0.950 . S
C621 C619 1.390 . S
C621 C622 1.387 . S
C621 H624 0.950 . S
C622 C621 1.387 . S
C622 C625 1.387 . S
H623 C619 0.950 . S
H624 C621 0.950 . S
C625 C616 1.390 . S
C625 H618 0.950 . S
C625 C622 1.387 . S
C626 C627 1.387 . S
C626 H630 0.950 . S
C626 C635 1.390 . S
C627 C626 1.387 . S
C627 C629 1.387 . S
H628 C635 0.950 . S
C629 C627 1.387 . S
C629 C631 1.390 . S
C629 H633 0.950 . S
H630 C626 0.950 . S
C631 C629 1.390 . S
C631 C632 1.387 . S
C631 H634 0.950 . S
C632 C631 1.387 . S
C632 C635 1.387 . S
H633 C629 0.950 . S
H634 C631 0.950 . S
C635 C626 1.390 . S
C635 H628 0.950 . S
C635 C632 1.387 . S
C636 C637 1.387 . S
C636 H640 0.950 . S
C636 C645 1.390 . S
C637 C636 1.387 . S
C637 C639 1.387 . S
H638 C645 0.950 . S
C639 C637 1.387 . S
C639 C641 1.390 . S
C639 H643 0.950 . S
H640 C636 0.950 . S
C641 C639 1.390 . S
C641 C642 1.387 . S
C641 H644 0.950 . S
C642 C641 1.387 . S
C642 C645 1.387 . S
H643 C639 0.950 . S
H644 C641 0.950 . S
C645 C636 1.390 . S
C645 H638 0.950 . S
C645 C642 1.387 . S
C646 C647 1.387 . S
C646 H650 0.950 . S
C646 C655 1.390 . S
C647 C646 1.387 . S
C647 C649 1.387 . S
H648 C655 0.950 . S
C649 C647 1.387 . S
C649 C651 1.390 . S
C649 H653 0.950 . S
H650 C646 0.950 . S
C651 C649 1.390 . S
C651 C652 1.387 . S
C651 H654 0.950 . S
C652 C651 1.387 . S
C652 C655 1.387 . S
H653 C649 0.950 . S
H654 C651 0.950 . S
C655 C646 1.390 . S
C655 H648 0.950 . S
C655 C652 1.387 . S
C656 C657 1.387 . S
C656 H660 0.950 . S
C656 C665 1.390 . S
C657 C656 1.387 . S
C657 C659 1.387 . S
H658 C665 0.950 . S
C659 C657 1.387 . S
C659 C661 1.390 . S
C659 H663 0.950 . S
H660 C656 0.950 . S
C661 C659 1.390 . S
C661 C662 1.387 . S
C661 H664 0.950 . S
C662 C661 1.387 . S
C662 C665 1.387 . S
H663 C659 0.950 . S
H664 C661 0.950 . S
C665 C656 1.390 . S
C665 H658 0.950 . S
C665 C662 1.387 . S
C666 C667 1.387 . S
C666 H670 0.950 . S
C666 C675 1.390 . S
C667 C666 1.387 . S
C667 C669 1.387 . S
H668 C675 0.950 . S
C669 C667 1.387 . S
C669 C671 1.390 . S
C669 H673 0.950 . S
H670 C666 0.950 . S
C671 C669 1.390 . S
C671 C672 1.387 . S
C671 H674 0.950 . S
C672 C671 1.387 . S
C672 C675 1.387 . S
H673 C669 0.950 . S
H674 C671 0.950 . S
C675 C666 1.390 . S
C675 H668 0.950 . S
C675 C672 1.387 . S
C676 C677 1.387 . S
C676 H680 0.950 . S
C676 C685 1.390 . S
C677 C676 1.387 . S
C677 C679 1.387 . S
H678 C685 0.950 . S
C679 C677 1.387 . S
C679 C681 1.390 . S
C679 H683 0.950 . S
H680 C676 0.950 . S
C681 C679 1.390 . S
C681 C682 1.387 . S
C681 H684 0.950 . S
C682 C681 1.387 . S
C682 C685 1.387 . S
H683 C679 0.950 . S
H684 C681 0.950 . S
C685 C676 1.390 . S
C685 H678 0.950 . S
C685 C682 1.387 . S
C686 C687 1.387 . S
C686 H690 0.950 . S
C686 C695 1.390 . S
C687 C686 1.387 . S
C687 C689 1.387 . S
H688 C695 0.950 . S
C689 C687 1.387 . S
C689 C691 1.390 . S
C689 H693 0.950 . S
H690 C686 0.950 . S
C691 C689 1.390 . S
C691 C692 1.387 . S
C691 H694 0.950 . S
C692 C691 1.387 . S
C692 C695 1.387 . S
H693 C689 0.950 . S
H694 C691 0.950 . S
C695 C686 1.390 . S
C695 H688 0.950 . S
C695 C692 1.387 . S
C696 C697 1.387 . S
C696 H700 0.950 . S
C696 C705 1.390 . S
C697 C696 1.387 . S
C697 C699 1.387 . S
H698 C705 0.950 . S
C699 C697 1.387 . S
C699 C701 1.390 . S
C699 H703 0.950 . S
H700 C696 0.950 . S
C701 C699 1.390 . S
C701 C702 1.387 . S
C701 H704 0.950 . S
C702 C701 1.387 . S
C702 C705 1.387 . S
H703 C699 0.950 . S
H704 C701 0.950 . S
C705 C696 1.390 . S
C705 H698 0.950 . S
C705 C702 1.387 . S
C706 C707 1.387 . S
C706 H710 0.950 . S
C706 C715 1.390 . S
C707 C706 1.387 . S
C707 C709 1.387 . S
H708 C715 0.950 . S
C709 C707 1.387 . S
C709 C711 1.390 . S
C709 H713 0.950 . S
H710 C706 0.950 . S
C711 C709 1.390 . S
C711 C712 1.387 . S
C711 H714 0.950 . S
C712 C711 1.387 . S
C712 C715 1.387 . S
H713 C709 0.950 . S
H714 C711 0.950 . S
C715 C706 1.390 . S
C715 H708 0.950 . S
C715 C712 1.387 . S
C716 C717 1.387 . S
C716 H720 0.950 . S
C716 C725 1.390 . S
C717 C716 1.387 . S
C717 C719 1.387 . S
H718 C725 0.950 . S
C719 C717 1.387 . S
C719 C721 1.390 . S
C719 H723 0.950 . S
H720 C716 0.950 . S
C721 C719 1.390 . S
C721 C722 1.387 . S
C721 H724 0.950 . S
C722 C721 1.387 . S
C722 C725 1.387 . S
H723 C719 0.950 . S
H724 C721 0.950 . S
C725 C716 1.390 . S
C725 H718 0.950 . S
C725 C722 1.387 . S
C726 C727 1.387 . S
C726 H730 0.950 . S
C726 C735 1.390 . S
C727 C726 1.387 . S
C727 C729 1.387 . S
H728 C735 0.950 . S
C729 C727 1.387 . S
C729 C731 1.390 . S
C729 H733 0.950 . S
H730 C726 0.950 . S
C731 C729 1.390 . S
C731 C732 1.387 . S
C731 H734 0.950 . S
C732 C731 1.387 . S
C732 C735 1.387 . S
H733 C729 0.950 . S
H734 C731 0.950 . S
C735 C726 1.390 . S
C735 H728 0.950 . S
C735 C732 1.387 . S
C736 C737 1.387 . S
C736 H740 0.950 . S
C736 C745 1.390 . S
C737 C736 1.387 . S
C737 C739 1.387 . S
H738 C745 0.950 . S
C739 C737 1.387 . S
C739 C741 1.390 . S
C739 H743 0.950 . S
H740 C736 0.950 . S
C741 C739 1.390 . S
C741 C742 1.387 . S
C741 H744 0.950 . S
C742 C741 1.387 . S
C742 C745 1.387 . S
H743 C739 0.950 . S
H744 C741 0.950 . S
C745 C736 1.390 . S
C745 H738 0.950 . S
C745 C742 1.387 . S
C746 C747 1.387 . S
C746 H750 0.950 . S
C746 C755 1.390 . S
C747 C746 1.387 . S
C747 C749 1.387 . S
H748 C755 0.950 . S
C749 C747 1.387 . S
C749 C751 1.390 . S
C749 H753 0.950 . S
H750 C746 0.950 . S
C751 C749 1.390 . S
C751 C752 1.387 . S
C751 H754 0.950 . S
C752 C751 1.387 . S
C752 C755 1.387 . S
H753 C749 0.950 . S
H754 C751 0.950 . S
C755 C746 1.390 . S
C755 H748 0.950 . S
C755 C752 1.387 . S
C756 C757 1.387 . S
C756 H760 0.950 . S
C756 C765 1.390 . S
C757 C756 1.387 . S
C757 C759 1.387 . S
H758 C765 0.950 . S
C759 C757 1.387 . S
C759 C761 1.390 . S
C759 H763 0.950 . S
H760 C756 0.950 . S
C761 C759 1.390 . S
C761 C762 1.387 . S
C761 H764 0.950 . S
C762 C761 1.387 . S
C762 C765 1.387 . S
H763 C759 0.950 . S
H764 C761 0.950 . S
C765 C756 1.390 . S
C765 H758 0.950 . S
C765 C762 1.387 . S
C766 C767 1.387 . S
C766 H770 0.950 . S
C766 C775 1.390 . S
C767 C766 1.387 . S
C767 C769 1.387 . S
H768 C775 0.950 . S
C769 C767 1.387 . S
C769 C771 1.390 . S
C769 H773 0.950 . S
H770 C766 0.950 . S
C771 C769 1.390 . S
C771 C772 1.387 . S
C771 H774 0.950 . S
C772 C771 1.387 . S
C772 C775 1.387 . S
H773 C769 0.950 . S
H774 C771 0.950 . S
C775 C766 1.390 . S
C775 H768 0.950 . S
C775 C772 1.387 . S
C776 C777 1.387 . S
C776 H780 0.950 . S
C776 C785 1.390 . S
C777 C776 1.387 . S
C777 C779 1.387 . S
H778 C785 0.950 . S
C779 C777 1.387 . S
C779 C781 1.390 . S
C779 H783 0.950 . S
H780 C776 0.950 . S
C781 C779 1.390 . S
C781 C782 1.387 . S
C781 H784 0.950 . S
C782 C781 1.387 . S
C782 C785 1.387 . S
H783 C779 0.950 . S
H784 C781 0.950 . S
C785 C776 1.390 . S
C785 H778 0.950 . S
C785 C782 1.387 . S
C786 C787 1.387 . S
C786 H790 0.950 . S
C786 C795 1.390 . S
C787 C786 1.387 . S
C787 C789 1.387 . S
H788 C795 0.950 . S
C789 C787 1.387 . S
C789 C791 1.390 . S
C789 H793 0.950 . S
H790 C786 0.950 . S
C791 C789 1.390 . S
C791 C792 1.387 . S
C791 H794 0.950 . S
C792 C791 1.387 . S
C792 C795 1.387 . S
H793 C789 0.950 . S
H794 C791 0.950 . S
C795 C786 1.390 . S
C795 H788 0.950 . S
C795 C792 1.387 . S
C796 C797 1.387 . S
C796 H800 0.950 . S
C796 C805 1.390 . S
C797 C796 1.387 . S
C797 C799 1.387 . S
H798 C805 0.950 . S
C799 C797 1.387 . S
C799 C801 1.390 . S
C799 H803 0.950 . S
H800 C796 0.950 . S
C801 C799 1.390 . S
C801 C802 1.387 . S
C801 H804 0.950 . S
C802 C801 1.387 . S
C802 C805 1.387 . S
H803 C799 0.950 . S
H804 C801 0.950 . S
C805 C796 1.390 . S
C805 H798 0.950 . S
C805 C802 1.387 . S
C806 C807 1.387 . S
C806 H810 0.950 . S
C806 C815 1.390 . S
C807 C806 1.387 . S
C807 C809 1.387 . S
H808 C815 0.950 . S
C809 C807 1.387 . S
C809 C811 1.390 . S
C809 H813 0.950 . S
H810 C806 0.950 . S
C811 C809 1.390 . S
C811 C812 1.387 . S
C811 H814 0.950 . S
C812 C811 1.387 . S
C812 C815 1.387 . S
H813 C809 0.950 . S
H814 C811 0.950 . S
C815 C806 1.390 . S
C815 H808 0.950 . S
C815 C812 1.387 . S
C816 C817 1.387 . S
C816 H820 0.950 . S
C816 C825 1.390 . S
C817 C816 1.387 . S
C817 C819 1.387 . S
H818 C825 0.950 . S
C819 C817 1.387 . S
C819 C821 1.390 . S
C819 H823 0.950 . S
H820 C816 0.950 . S
C821 C819 1.390 . S
C821 C822 1.387 . S
C821 H824 0.950 . S
C822 C821 1.387 . S
C822 C825 1.387 . S
H823 C819 0.950 . S
H824 C821 0.950 . S
C825 C816 1.390 . S
C825 H818 0.950 . S
C825 C822 1.387 . S
C352 C171 1.832 . S
C347 C9 1.842 . S
C362 C161 1.958 . S
C357 C28 1.920 . S
C372 C162 1.047 . S
C367 C49 1.050 . S
C377 C79 1.886 . S
C382 C184 1.906 . S
C387 C99 1.920 . S
C392 C187 1.958 . S
C402 C170 1.047 . S
C397 C101 1.047 . S
C407 C128 1.883 . S
C412 C160 1.901 . S
C417 C141 1.845 . S
C422 C178 1.835 . S
C432 C191 1.289 . S
C427 C16 1.189 . S
C437 C26 1.170 . S
C442 C240 1.153 . S
C452 C218 1.320 . S
C447 C56 1.239 . S
C462 C232 1.010 . S
C457 C69 1.047 . S
C467 C89 1.035 . S
C472 C193 1.009 . S
C482 C246 1.922 . S
C477 C108 1.907 . S
C487 C126 1.174 . S
C492 C202 1.179 . S
C497 C148 1.952 . S
C502 C223 1.983 . S
C507 C19 1.952 . S
C512 C249 1.983 . S
C517 C96 1.170 . S
C522 C233 1.153 . S
C532 C192 1.317 . S
C527 C106 1.239 . S
C542 C224 1.011 . S
C537 C121 1.048 . S
C547 C146 1.189 . S
C552 C215 1.290 . S
C557 C59 1.908 . S
C562 C222 1.921 . S
C572 C209 1.176 . S
C567 C76 1.174 . S
C577 C21 1.034 . S
C582 C201 1.006 . S
C587 C149 1.844 . S
C592 C264 1.831 . S
C597 C88 1.919 . S
C602 C254 1.957 . S
C612 C255 1.049 . S
C607 C109 1.045 . S
C622 C277 1.903 . S
C617 C139 1.883 . S
C627 C39 1.919 . S
C632 C280 1.957 . S
C642 C263 1.048 . S
C637 C41 1.047 . S
C647 C68 1.885 . S
C652 C253 1.904 . S
C657 C1 1.844 . S
C662 C271 1.831 . S
C667 C156 1.191 . S
C672 C284 1.289 . S
C682 C333 1.157 . S
C677 C86 1.176 . S
C687 C116 1.238 . S
C692 C311 1.320 . S
C697 C129 1.047 . S
C702 C325 1.005 . S
C712 C286 1.010 . S
C707 C29 1.037 . S
C717 C48 1.907 . S
C722 C339 1.923 . S
C732 C295 1.180 . S
C727 C66 1.173 . S
C742 C316 1.983 . S
C737 C8 1.951 . S
C752 C342 1.983 . S
C747 C159 1.955 . S
C757 C36 1.169 . S
C762 C326 1.151 . S
C767 C46 1.237 . S
C772 C285 1.320 . S
C782 C317 1.006 . S
C777 C61 1.048 . S
C787 C6 1.191 . S
C792 C308 1.289 . S
C797 C119 1.908 . S
C802 C315 1.919 . S
C812 C302 1.176 . S
C807 C136 1.175 . S
C822 C294 1.009 . S
C817 C81 1.035 . S
