# Generated by pormake.
# Topology gar, (4,6)-cn, num edge types: 1
# Building blocks:
#     Node 0, Type 0, BuildingBlock: GALJAG_clean_sbu_0, # of connection points: 4
#     Node 1, Type 0, BuildingBlock: GALJAG_clean_sbu_0, # of connection points: 4
#     Node 2, Type 0, BuildingBlock: GALJAG_clean_sbu_0, # of connection points: 4
#     Node 3, Type 0, BuildingBlock: GALJAG_clean_sbu_0, # of connection points: 4
#     Node 4, Type 0, BuildingBlock: GALJAG_clean_sbu_0, # of connection points: 4
#     Node 5, Type 0, BuildingBlock: GALJAG_clean_sbu_0, # of connection points: 4
#     Node 6, Type 0, BuildingBlock: GALJAG_clean_sbu_0, # of connection points: 4
#     Node 7, Type 0, BuildingBlock: GALJAG_clean_sbu_0, # of connection points: 4
#     Node 8, Type 0, BuildingBlock: GALJAG_clean_sbu_0, # of connection points: 4
#     Node 9, Type 0, BuildingBlock: GALJAG_clean_sbu_0, # of connection points: 4
#     Node 10, Type 0, BuildingBlock: GALJAG_clean_sbu_0, # of connection points: 4
#     Node 11, Type 0, BuildingBlock: GALJAG_clean_sbu_0, # of connection points: 4
#     Node 12, Type 0, BuildingBlock: GALJAG_clean_sbu_0, # of connection points: 4
#     Node 13, Type 0, BuildingBlock: GALJAG_clean_sbu_0, # of connection points: 4
#     Node 14, Type 0, BuildingBlock: GALJAG_clean_sbu_0, # of connection points: 4
#     Node 15, Type 0, BuildingBlock: GALJAG_clean_sbu_0, # of connection points: 4
#     Node 16, Type 0, BuildingBlock: GALJAG_clean_sbu_0, # of connection points: 4
#     Node 17, Type 0, BuildingBlock: GALJAG_clean_sbu_0, # of connection points: 4
#     Node 18, Type 0, BuildingBlock: GALJAG_clean_sbu_0, # of connection points: 4
#     Node 19, Type 0, BuildingBlock: GALJAG_clean_sbu_0, # of connection points: 4
#     Node 20, Type 0, BuildingBlock: GALJAG_clean_sbu_0, # of connection points: 4
#     Node 21, Type 0, BuildingBlock: GALJAG_clean_sbu_0, # of connection points: 4
#     Node 22, Type 0, BuildingBlock: GALJAG_clean_sbu_0, # of connection points: 4
#     Node 23, Type 0, BuildingBlock: GALJAG_clean_sbu_0, # of connection points: 4
#     Node 24, Type 1, BuildingBlock: PAMTOO_clean_sbu_0, # of connection points: 6
#     Node 25, Type 1, BuildingBlock: PAMTOO_clean_sbu_0, # of connection points: 6
#     Node 26, Type 1, BuildingBlock: PAMTOO_clean_sbu_0, # of connection points: 6
#     Node 27, Type 1, BuildingBlock: PAMTOO_clean_sbu_0, # of connection points: 6
#     Node 28, Type 1, BuildingBlock: PAMTOO_clean_sbu_0, # of connection points: 6
#     Node 29, Type 1, BuildingBlock: PAMTOO_clean_sbu_0, # of connection points: 6
#     Node 30, Type 1, BuildingBlock: PAMTOO_clean_sbu_0, # of connection points: 6
#     Node 31, Type 1, BuildingBlock: PAMTOO_clean_sbu_0, # of connection points: 6
#     Node 32, Type 1, BuildingBlock: PAMTOO_clean_sbu_0, # of connection points: 6
#     Node 33, Type 1, BuildingBlock: PAMTOO_clean_sbu_0, # of connection points: 6
#     Node 34, Type 1, BuildingBlock: PAMTOO_clean_sbu_0, # of connection points: 6
#     Node 35, Type 1, BuildingBlock: PAMTOO_clean_sbu_0, # of connection points: 6
#     Node 36, Type 1, BuildingBlock: PAMTOO_clean_sbu_0, # of connection points: 6
#     Node 37, Type 1, BuildingBlock: PAMTOO_clean_sbu_0, # of connection points: 6
#     Node 38, Type 1, BuildingBlock: PAMTOO_clean_sbu_0, # of connection points: 6
#     Node 39, Type 1, BuildingBlock: PAMTOO_clean_sbu_0, # of connection points: 6
#     Edge 40, Type (0, 1), BuildingBlock: CIFDUS_clean_linker_0, # of connection points: 2
#     Edge 41, Type (0, 1), BuildingBlock: CIFDUS_clean_linker_0, # of connection points: 2
#     Edge 42, Type (0, 1), BuildingBlock: CIFDUS_clean_linker_0, # of connection points: 2
#     Edge 43, Type (0, 1), BuildingBlock: CIFDUS_clean_linker_0, # of connection points: 2
#     Edge 44, Type (0, 1), BuildingBlock: CIFDUS_clean_linker_0, # of connection points: 2
#     Edge 45, Type (0, 1), BuildingBlock: CIFDUS_clean_linker_0, # of connection points: 2
#     Edge 46, Type (0, 1), BuildingBlock: CIFDUS_clean_linker_0, # of connection points: 2
#     Edge 47, Type (0, 1), BuildingBlock: CIFDUS_clean_linker_0, # of connection points: 2
#     Edge 48, Type (0, 1), BuildingBlock: CIFDUS_clean_linker_0, # of connection points: 2
#     Edge 49, Type (0, 1), BuildingBlock: CIFDUS_clean_linker_0, # of connection points: 2
#     Edge 50, Type (0, 1), BuildingBlock: CIFDUS_clean_linker_0, # of connection points: 2
#     Edge 51, Type (0, 1), BuildingBlock: CIFDUS_clean_linker_0, # of connection points: 2
#     Edge 52, Type (0, 1), BuildingBlock: CIFDUS_clean_linker_0, # of connection points: 2
#     Edge 53, Type (0, 1), BuildingBlock: CIFDUS_clean_linker_0, # of connection points: 2
#     Edge 54, Type (0, 1), BuildingBlock: CIFDUS_clean_linker_0, # of connection points: 2
#     Edge 55, Type (0, 1), BuildingBlock: CIFDUS_clean_linker_0, # of connection points: 2
#     Edge 56, Type (0, 1), BuildingBlock: CIFDUS_clean_linker_0, # of connection points: 2
#     Edge 57, Type (0, 1), BuildingBlock: CIFDUS_clean_linker_0, # of connection points: 2
#     Edge 58, Type (0, 1), BuildingBlock: CIFDUS_clean_linker_0, # of connection points: 2
#     Edge 59, Type (0, 1), BuildingBlock: CIFDUS_clean_linker_0, # of connection points: 2
#     Edge 60, Type (0, 1), BuildingBlock: CIFDUS_clean_linker_0, # of connection points: 2
#     Edge 61, Type (0, 1), BuildingBlock: CIFDUS_clean_linker_0, # of connection points: 2
#     Edge 62, Type (0, 1), BuildingBlock: CIFDUS_clean_linker_0, # of connection points: 2
#     Edge 63, Type (0, 1), BuildingBlock: CIFDUS_clean_linker_0, # of connection points: 2
#     Edge 64, Type (0, 1), BuildingBlock: CIFDUS_clean_linker_0, # of connection points: 2
#     Edge 65, Type (0, 1), BuildingBlock: CIFDUS_clean_linker_0, # of connection points: 2
#     Edge 66, Type (0, 1), BuildingBlock: CIFDUS_clean_linker_0, # of connection points: 2
#     Edge 67, Type (0, 1), BuildingBlock: CIFDUS_clean_linker_0, # of connection points: 2
#     Edge 68, Type (0, 1), BuildingBlock: CIFDUS_clean_linker_0, # of connection points: 2
#     Edge 69, Type (0, 1), BuildingBlock: CIFDUS_clean_linker_0, # of connection points: 2
#     Edge 70, Type (0, 1), BuildingBlock: CIFDUS_clean_linker_0, # of connection points: 2
#     Edge 71, Type (0, 1), BuildingBlock: CIFDUS_clean_linker_0, # of connection points: 2
#     Edge 72, Type (0, 1), BuildingBlock: CIFDUS_clean_linker_0, # of connection points: 2
#     Edge 73, Type (0, 1), BuildingBlock: CIFDUS_clean_linker_0, # of connection points: 2
#     Edge 74, Type (0, 1), BuildingBlock: CIFDUS_clean_linker_0, # of connection points: 2
#     Edge 75, Type (0, 1), BuildingBlock: CIFDUS_clean_linker_0, # of connection points: 2
#     Edge 76, Type (0, 1), BuildingBlock: CIFDUS_clean_linker_0, # of connection points: 2
#     Edge 77, Type (0, 1), BuildingBlock: CIFDUS_clean_linker_0, # of connection points: 2
#     Edge 78, Type (0, 1), BuildingBlock: CIFDUS_clean_linker_0, # of connection points: 2
#     Edge 79, Type (0, 1), BuildingBlock: CIFDUS_clean_linker_0, # of connection points: 2
#     Edge 80, Type (0, 1), BuildingBlock: CIFDUS_clean_linker_0, # of connection points: 2
#     Edge 81, Type (0, 1), BuildingBlock: CIFDUS_clean_linker_0, # of connection points: 2
#     Edge 82, Type (0, 1), BuildingBlock: CIFDUS_clean_linker_0, # of connection points: 2
#     Edge 83, Type (0, 1), BuildingBlock: CIFDUS_clean_linker_0, # of connection points: 2
#     Edge 84, Type (0, 1), BuildingBlock: CIFDUS_clean_linker_0, # of connection points: 2
#     Edge 85, Type (0, 1), BuildingBlock: CIFDUS_clean_linker_0, # of connection points: 2
#     Edge 86, Type (0, 1), BuildingBlock: CIFDUS_clean_linker_0, # of connection points: 2
#     Edge 87, Type (0, 1), BuildingBlock: CIFDUS_clean_linker_0, # of connection points: 2
#     Edge 88, Type (0, 1), BuildingBlock: CIFDUS_clean_linker_0, # of connection points: 2
#     Edge 89, Type (0, 1), BuildingBlock: CIFDUS_clean_linker_0, # of connection points: 2
#     Edge 90, Type (0, 1), BuildingBlock: CIFDUS_clean_linker_0, # of connection points: 2
#     Edge 91, Type (0, 1), BuildingBlock: CIFDUS_clean_linker_0, # of connection points: 2
#     Edge 92, Type (0, 1), BuildingBlock: CIFDUS_clean_linker_0, # of connection points: 2
#     Edge 93, Type (0, 1), BuildingBlock: CIFDUS_clean_linker_0, # of connection points: 2
#     Edge 94, Type (0, 1), BuildingBlock: CIFDUS_clean_linker_0, # of connection points: 2
#     Edge 95, Type (0, 1), BuildingBlock: CIFDUS_clean_linker_0, # of connection points: 2
#     Edge 96, Type (0, 1), BuildingBlock: CIFDUS_clean_linker_0, # of connection points: 2
#     Edge 97, Type (0, 1), BuildingBlock: CIFDUS_clean_linker_0, # of connection points: 2
#     Edge 98, Type (0, 1), BuildingBlock: CIFDUS_clean_linker_0, # of connection points: 2
#     Edge 99, Type (0, 1), BuildingBlock: CIFDUS_clean_linker_0, # of connection points: 2
#     Edge 100, Type (0, 1), BuildingBlock: CIFDUS_clean_linker_0, # of connection points: 2
#     Edge 101, Type (0, 1), BuildingBlock: CIFDUS_clean_linker_0, # of connection points: 2
#     Edge 102, Type (0, 1), BuildingBlock: CIFDUS_clean_linker_0, # of connection points: 2
#     Edge 103, Type (0, 1), BuildingBlock: CIFDUS_clean_linker_0, # of connection points: 2
#     Edge 104, Type (0, 1), BuildingBlock: CIFDUS_clean_linker_0, # of connection points: 2
#     Edge 105, Type (0, 1), BuildingBlock: CIFDUS_clean_linker_0, # of connection points: 2
#     Edge 106, Type (0, 1), BuildingBlock: CIFDUS_clean_linker_0, # of connection points: 2
#     Edge 107, Type (0, 1), BuildingBlock: CIFDUS_clean_linker_0, # of connection points: 2
#     Edge 108, Type (0, 1), BuildingBlock: CIFDUS_clean_linker_0, # of connection points: 2
#     Edge 109, Type (0, 1), BuildingBlock: CIFDUS_clean_linker_0, # of connection points: 2
#     Edge 110, Type (0, 1), BuildingBlock: CIFDUS_clean_linker_0, # of connection points: 2
#     Edge 111, Type (0, 1), BuildingBlock: CIFDUS_clean_linker_0, # of connection points: 2
#     Edge 112, Type (0, 1), BuildingBlock: CIFDUS_clean_linker_0, # of connection points: 2
#     Edge 113, Type (0, 1), BuildingBlock: CIFDUS_clean_linker_0, # of connection points: 2
#     Edge 114, Type (0, 1), BuildingBlock: CIFDUS_clean_linker_0, # of connection points: 2
#     Edge 115, Type (0, 1), BuildingBlock: CIFDUS_clean_linker_0, # of connection points: 2
#     Edge 116, Type (0, 1), BuildingBlock: CIFDUS_clean_linker_0, # of connection points: 2
#     Edge 117, Type (0, 1), BuildingBlock: CIFDUS_clean_linker_0, # of connection points: 2
#     Edge 118, Type (0, 1), BuildingBlock: CIFDUS_clean_linker_0, # of connection points: 2
#     Edge 119, Type (0, 1), BuildingBlock: CIFDUS_clean_linker_0, # of connection points: 2
#     Edge 120, Type (0, 1), BuildingBlock: CIFDUS_clean_linker_0, # of connection points: 2
#     Edge 121, Type (0, 1), BuildingBlock: CIFDUS_clean_linker_0, # of connection points: 2
#     Edge 122, Type (0, 1), BuildingBlock: CIFDUS_clean_linker_0, # of connection points: 2
#     Edge 123, Type (0, 1), BuildingBlock: CIFDUS_clean_linker_0, # of connection points: 2
#     Edge 124, Type (0, 1), BuildingBlock: CIFDUS_clean_linker_0, # of connection points: 2
#     Edge 125, Type (0, 1), BuildingBlock: CIFDUS_clean_linker_0, # of connection points: 2
#     Edge 126, Type (0, 1), BuildingBlock: CIFDUS_clean_linker_0, # of connection points: 2
#     Edge 127, Type (0, 1), BuildingBlock: CIFDUS_clean_linker_0, # of connection points: 2
#     Edge 128, Type (0, 1), BuildingBlock: CIFDUS_clean_linker_0, # of connection points: 2
#     Edge 129, Type (0, 1), BuildingBlock: CIFDUS_clean_linker_0, # of connection points: 2
#     Edge 130, Type (0, 1), BuildingBlock: CIFDUS_clean_linker_0, # of connection points: 2
#     Edge 131, Type (0, 1), BuildingBlock: CIFDUS_clean_linker_0, # of connection points: 2
#     Edge 132, Type (0, 1), BuildingBlock: CIFDUS_clean_linker_0, # of connection points: 2
#     Edge 133, Type (0, 1), BuildingBlock: CIFDUS_clean_linker_0, # of connection points: 2
#     Edge 134, Type (0, 1), BuildingBlock: CIFDUS_clean_linker_0, # of connection points: 2
#     Edge 135, Type (0, 1), BuildingBlock: CIFDUS_clean_linker_0, # of connection points: 2
# Relax obj value: 0.172
# Max RMSD: 0.274
# Mean RMSD: 0.176
data_MOF--net-gar--node1-GALJAG_clean_sbu_0--node2-PAMTOO_clean_sbu_0--edge1-CIFDUS_clean_linker_0
_symmetry_space_group_name_H-M    P1
_symmetry_Int_Tables_number       1
_symmetry_cell_setting            triclinic
loop_
_symmetry_equiv_pos_as_xyz
'x, y, z'
_cell_length_a     52.665445
_cell_length_b     52.653071
_cell_length_c     50.547946
_cell_angle_alpha  97.23875
_cell_angle_beta   96.520665
_cell_angle_gamma 105.02079
loop_
_atom_site_label
_atom_site_type_symbol
_atom_site_fract_x
_atom_site_fract_y
_atom_site_fract_z
_atom_type_partial_charge
In0 In 0.07435 0.34865 0.37803 0.0
O1 O 0.09962 0.3348 0.34496 0.0
O2 O 0.12067 0.36227 0.37882 0.0
C3 C 0.02194 0.34219 0.35328 0.0
C4 C 0.0694 0.30646 0.40518 0.0
C5 C 0.07946 0.39544 0.4122 0.0
O6 O 0.04217 0.35523 0.34441 0.0
O7 O 0.02825 0.33159 0.37308 0.0
O8 O 0.08012 0.3737 0.41988 0.0
O9 O 0.07732 0.39427 0.38682 0.0
C10 C 0.1224 0.34789 0.35754 0.0
O11 O 0.07638 0.33041 0.41674 0.0
O12 O 0.06518 0.30361 0.3797 0.0
In13 In 0.04106 0.77382 0.71848 0.0
O14 O 0.03132 0.78527 0.67713 0.0
O15 O 0.0525 0.81664 0.7087 0.0
C16 C 0.03675 0.72517 0.68798 0.0
C17 C 0.09376 0.78258 0.74336 0.0
C18 C 0.99716 0.78005 0.74407 0.0
O19 O 0.03311 0.74504 0.67817 0.0
O20 O 0.04117 0.72914 0.71353 0.0
O21 O 0.99599 0.76032 0.7265 0.0
O22 O 1.02053 0.79538 0.7501 0.0
C23 C 0.04221 0.80993 0.68414 0.0
O24 O 0.07379 0.76983 0.75275 0.0
O25 O 0.08713 0.79176 0.7226 0.0
In26 In 0.5767 0.85156 0.87335 0.0
O27 O 0.59873 0.84112 0.83639 0.0
O28 O 0.62302 0.85954 0.87293 0.0
C29 C 0.52322 0.83965 0.84909 0.0
C30 C 0.57512 0.81536 0.90777 0.0
C31 C 0.57998 0.89999 0.9034 0.0
O32 O 0.53954 0.86241 0.85129 0.0
O33 O 0.53424 0.82271 0.85689 0.0
O34 O 0.57658 0.87842 0.91274 0.0
O35 O 0.58253 0.89758 0.87863 0.0
C36 C 0.62232 0.84914 0.84894 0.0
O37 O 0.58457 0.84017 0.91527 0.0
O38 O 0.56665 0.80866 0.88281 0.0
In39 In 0.53954 0.27389 0.22053 0.0
O40 O 0.53312 0.24916 0.17833 0.0
O41 O 0.54278 0.23012 0.21099 0.0
C42 C 0.5404 0.31119 0.18752 0.0
C43 C 0.49474 0.27557 0.24696 0.0
C44 C 0.59285 0.28553 0.24476 0.0
O45 O 0.52977 0.28661 0.17973 0.0
O46 O 0.55041 0.31718 0.21214 0.0
O47 O 0.57582 0.26371 0.24533 0.0
O48 O 0.5827 0.30158 0.23383 0.0
C49 C 0.53806 0.22864 0.18558 0.0
O50 O 0.51822 0.28986 0.25543 0.0
O51 O 0.49396 0.25878 0.22658 0.0
In52 In 0.09141 0.82525 0.12444 0.0
O53 O 0.10182 0.79208 0.0945 0.0
O54 O 0.0717 0.77924 0.11767 0.0
C55 C 0.0885 0.87007 0.09903 0.0
C56 C 0.04829 0.82114 0.15043 0.0
C57 C 0.13682 0.83023 0.16044 0.0
O58 O 0.07852 0.84602 0.08791 0.0
O59 O 0.1015 0.87169 0.12203 0.0
O60 O 0.11438 0.82987 0.1671 0.0
O61 O 0.13709 0.82938 0.13532 0.0
C62 C 0.08556 0.77225 0.1009 0.0
O63 O 0.07178 0.83261 0.16199 0.0
O64 O 0.04651 0.81209 0.12571 0.0
In65 In 0.51221 0.79006 0.46982 0.0
O66 O 0.52942 0.78879 0.42979 0.0
O67 O 0.55643 0.79675 0.46627 0.0
C68 C 0.46568 0.79016 0.43819 0.0
C69 C 0.5107 0.74093 0.48926 0.0
C70 C 0.52418 0.843 0.49685 0.0
O71 O 0.48629 0.78771 0.42872 0.0
O72 O 0.46797 0.79136 0.46357 0.0
O73 O 0.50363 0.82513 0.49936 0.0
O74 O 0.53907 0.83373 0.4829 0.0
C75 C 0.55336 0.79389 0.44081 0.0
O76 O 0.52207 0.76358 0.50335 0.0
O77 O 0.49892 0.74323 0.4669 0.0
In78 In 0.59227 0.32731 0.63 0.0
O79 O 0.59578 0.29363 0.59541 0.0
O80 O 0.57623 0.28133 0.62748 0.0
C81 C 0.59154 0.37378 0.60665 0.0
C82 C 0.55115 0.3248 0.65872 0.0
C83 C 0.6386 0.33279 0.66451 0.0
O84 O 0.5736 0.3519 0.60016 0.0
O85 O 0.61058 0.37172 0.62308 0.0
O86 O 0.61758 0.33656 0.67195 0.0
O87 O 0.63704 0.32748 0.63911 0.0
C88 C 0.58431 0.27401 0.6061 0.0
O89 O 0.57525 0.33294 0.66951 0.0
O90 O 0.54772 0.31832 0.63337 0.0
In91 In 1.01829 0.28843 0.96372 0.0
O92 O 0.0321 0.26756 0.99954 0.0
O93 O 1.00521 0.24225 0.96755 0.0
C94 C 0.02793 0.34224 0.9867 0.0
C95 C 0.05999 0.29174 0.93542 0.0
C96 C 0.97196 0.28249 0.92901 0.0
O97 O 1.01115 0.32366 0.99434 0.0
O98 O 0.03995 0.33349 0.96904 0.0
O99 O 0.99231 0.27677 0.92196 0.0
O100 O 0.97416 0.29008 0.95417 0.0
C101 C 1.01983 0.24366 0.98956 0.0
O102 O 0.03609 0.28583 0.92421 0.0
O103 O 0.06288 0.29551 0.96089 0.0
In104 In 0.43359 0.07114 0.32463 0.0
O105 O 0.46294 0.09435 0.30027 0.0
O106 O 0.46326 0.05476 0.30502 0.0
C107 C 0.45808 0.09286 0.37481 0.0
C108 C 0.39295 0.09128 0.31122 0.0
C109 C 0.41243 0.01812 0.31681 0.0
O110 O 0.46729 0.10058 0.35437 0.0
O111 O 0.43586 0.07551 0.36982 0.0
O112 O 0.40356 0.03291 0.30265 0.0
O113 O 0.43173 0.03008 0.33503 0.0
C114 C 0.47347 0.07551 0.29574 0.0
O115 O 0.39812 0.08533 0.33421 0.0
O116 O 0.40905 0.08818 0.29521 0.0
In117 In 0.29051 0.21901 0.53791 0.0
O118 O 0.28742 0.25558 0.56722 0.0
O119 O 0.301 0.22573 0.58386 0.0
C120 C 0.29953 0.24019 0.49175 0.0
C121 C 0.32471 0.18847 0.5396 0.0
C122 C 0.23927 0.19012 0.53476 0.0
O123 O 0.28227 0.21875 0.49226 0.0
O124 O 0.31229 0.25156 0.51473 0.0
O125 O 0.25875 0.1807 0.53905 0.0
O126 O 0.2455 0.21434 0.5319 0.0
C127 C 0.29499 0.24734 0.58837 0.0
O128 O 0.30097 0.18002 0.52789 0.0
O129 O 0.33178 0.21288 0.54985 0.0
In130 In 0.14892 0.07957 0.81007 0.0
O131 O 0.11215 0.06591 0.77562 0.0
O132 O 0.14643 0.09494 0.77 0.0
C133 C 0.1326 0.07444 0.85915 0.0
C134 C 0.17359 0.04098 0.79962 0.0
C135 C 0.17748 0.13087 0.82111 0.0
O136 O 0.11613 0.06942 0.8376 0.0
O137 O 0.1565 0.08178 0.85569 0.0
O138 O 0.18793 0.11183 0.81819 0.0
O139 O 0.15232 0.124 0.81901 0.0
C140 C 0.12326 0.08105 0.76021 0.0
O141 O 0.18564 0.0654 0.80542 0.0
O142 O 0.14873 0.0357 0.79885 0.0
In143 In 0.31049 0.96305 0.02299 0.0
O144 O 0.29203 0.93495 0.05093 0.0
O145 O 0.33352 0.94246 0.04881 0.0
C146 C 0.28543 0.93182 0.97595 0.0
C147 C 0.28946 1.00258 0.03908 0.0
C148 C 0.36199 0.98583 0.022 0.0
O149 O 0.29008 0.9568 0.97922 0.0
O150 O 0.29228 0.92281 0.99666 0.0
O151 O 0.34684 0.97112 1.00158 0.0
O152 O 0.35099 0.98929 0.04252 0.0
C153 C 0.31387 0.93035 0.05879 0.0
O154 O 0.30264 1.00292 0.01983 0.0
O155 O 0.2859 0.98173 0.04963 0.0
In156 In 0.31824 0.40424 0.06507 0.0
O157 O 0.30405 0.36631 0.08468 0.0
O158 O 0.31796 0.40335 0.11046 0.0
C159 C 0.31817 0.37683 0.01517 0.0
C160 C 0.2829 0.4337 0.06262 0.0
C161 C 0.36805 0.43712 0.0704 0.0
O162 O 0.29882 0.38508 0.02136 0.0
O163 O 0.33687 0.38099 0.03451 0.0
O164 O 0.34796 0.44224 0.05861 0.0
O165 O 0.36299 0.41553 0.07974 0.0
C166 C 0.30881 0.37855 0.10864 0.0
O167 O 0.3062 0.44251 0.07546 0.0
O168 O 0.27708 0.40972 0.05119 0.0
In169 In 0.82626 0.18825 0.08016 0.0
O170 O 0.83546 0.1501 0.08781 0.0
O171 O 0.84486 0.16399 0.05139 0.0
C172 C 0.77355 0.16783 0.07648 0.0
C173 C 0.85252 0.2137 0.12899 0.0
C174 C 0.82733 0.22405 0.04694 0.0
O175 O 0.78721 0.15844 0.06103 0.0
O176 O 0.78645 0.1876 0.09393 0.0
O177 O 0.80902 0.21735 0.06086 0.0
O178 O 0.84566 0.21263 0.04978 0.0
C179 C 0.84401 0.14598 0.06586 0.0
O180 O 0.85512 0.22411 0.10801 0.0
O181 O 0.83777 0.19019 0.12504 0.0
In182 In 0.20155 0.55429 0.26961 0.0
O183 O 0.23994 0.54307 0.26611 0.0
O184 O 0.21852 0.52963 0.2971 0.0
C185 C 0.22658 0.60482 0.26683 0.0
C186 C 0.16882 0.5293 0.2235 0.0
C187 C 0.16962 0.56193 0.30552 0.0
O188 O 0.22936 0.59462 0.28787 0.0
O189 O 0.2113 0.58938 0.24692 0.0
O190 O 0.17253 0.53911 0.29808 0.0
O191 O 0.18302 0.58052 0.2951 0.0
C192 C 0.23904 0.53109 0.28612 0.0
O193 O 0.16068 0.53492 0.24531 0.0
O194 O 0.19376 0.53486 0.22519 0.0
In195 In 0.8106 0.90149 0.55727 0.0
O196 O 0.79824 0.86563 0.58007 0.0
O197 O 0.81676 0.90352 0.60338 0.0
C198 C 0.8017 0.87547 0.50488 0.0
C199 C 0.77291 0.92791 0.55698 0.0
C200 C 0.8614 0.93201 0.56102 0.0
O201 O 0.81729 0.87052 0.52314 0.0
O202 O 0.79021 0.89239 0.51328 0.0
O203 O 0.84218 0.94186 0.56325 0.0
O204 O 0.85503 0.90688 0.55721 0.0
C205 C 0.8064 0.87914 0.60341 0.0
O206 O 0.79716 0.93923 0.55673 0.0
O207 O 0.76763 0.90316 0.55765 0.0
In208 In 0.96622 0.04557 0.28538 0.0
O209 O 0.99585 0.06209 0.25653 0.0
O210 O 0.96205 0.0298 0.24056 0.0
C211 C 0.99464 0.05126 0.33567 0.0
C212 C 0.94063 0.08398 0.28886 0.0
C213 C 0.93523 0.99551 0.28262 0.0
O214 O 1.00357 0.04433 0.31453 0.0
O215 O 0.97267 0.05639 0.3311 0.0
O216 O 0.92584 0.01477 0.27896 0.0
O217 O 0.96034 1.00143 0.28722 0.0
C218 C 0.98261 0.04594 0.2359 0.0
O219 O 0.92958 0.05983 0.28951 0.0
O220 O 0.96488 0.08903 0.28601 0.0
In221 In 0.31895 0.68787 0.56797 0.0
O222 O 0.32286 0.6539 0.53775 0.0
O223 O 0.35763 0.67713 0.56426 0.0
C224 C 0.26823 0.6583 0.56308 0.0
C225 C 0.3349 0.71015 0.62008 0.0
C226 C 0.32082 0.72878 0.54111 0.0
O227 O 0.27605 0.67462 0.5475 0.0
O228 O 0.28609 0.6567 0.58117 0.0
O229 O 0.30213 0.7202 0.55409 0.0
O230 O 0.33856 0.71659 0.5416 0.0
C231 C 0.34743 0.65811 0.5451 0.0
O232 O 0.33559 0.72342 0.60104 0.0
O233 O 0.32681 0.68525 0.61285 0.0
In234 In 0.46506 0.55546 0.79055 0.0
O235 O 0.42781 0.56964 0.78612 0.0
O236 O 0.46481 0.59936 0.79692 0.0
C237 C 0.42773 0.50931 0.7909 0.0
C238 C 0.48639 0.55637 0.7434 0.0
C239 C 0.49597 0.56181 0.83968 0.0
O240 O 0.42741 0.53144 0.80351 0.0
O241 O 0.44718 0.51026 0.77812 0.0
O242 O 0.48596 0.53942 0.82495 0.0
O243 O 0.49167 0.58101 0.82904 0.0
C244 C 0.43978 0.59412 0.79205 0.0
O245 O 0.50004 0.55769 0.76601 0.0
O246 O 0.46222 0.55427 0.74456 0.0
In247 In 0.68975 0.05282 0.78348 0.0
O248 O 0.7306 0.04998 0.80048 0.0
O249 O 0.70013 1.01393 0.78627 0.0
C250 C 0.71317 0.10558 0.79226 0.0
C251 C 0.66765 0.03624 0.73153 0.0
C252 C 0.65012 0.04746 0.8131 0.0
O253 O 0.70714 0.09285 0.81125 0.0
O254 O 0.70758 0.09164 0.7691 0.0
O255 O 0.65226 0.06183 0.79487 0.0
O256 O 0.66827 0.03605 0.81671 0.0
C257 C 0.72388 0.0249 0.79707 0.0
O258 O 0.6549 0.03205 0.7509 0.0
O259 O 0.69213 0.04785 0.73836 0.0
In260 In 0.79486 0.72197 0.03426 0.0
O261 O 0.80749 0.68671 0.04803 0.0
O262 O 0.83337 0.71159 0.02666 0.0
C263 C 0.74454 0.6916 0.03214 0.0
C264 C 0.80407 0.75459 0.08345 0.0
C265 C 0.7961 0.73924 0.98513 0.0
O266 O 0.76395 0.68171 0.03144 0.0
O267 O 0.75053 0.71661 0.03341 0.0
O268 O 0.80919 0.75382 1.00673 0.0
O269 O 0.78254 0.71677 0.98855 0.0
C270 C 0.82901 0.69143 0.03841 0.0
O271 O 0.82189 0.74627 0.07356 0.0
O272 O 0.78229 0.74826 0.06779 0.0
In273 In 0.92183 0.56975 0.82323 0.0
O274 O 0.89406 0.59281 0.83821 0.0
O275 O 0.89572 0.58705 0.79606 0.0
C276 C 0.89388 0.51834 0.81753 0.0
C277 C 0.95575 0.57118 0.78748 0.0
C278 C 0.9513 0.58752 0.87221 0.0
O279 O 0.88418 0.5357 0.80876 0.0
O280 O 0.91767 0.52687 0.8291 0.0
O281 O 0.95938 0.5953 0.85129 0.0
O282 O 0.92819 0.57183 0.86836 0.0
C283 C 0.8851 0.59593 0.815 0.0
O284 O 0.94937 0.59173 0.79666 0.0
O285 O 0.94458 0.5502 0.79592 0.0
In286 In 0.80565 0.43856 0.52979 0.0
O287 O 0.78927 0.4079 0.55605 0.0
O288 O 0.82165 0.40359 0.53573 0.0
C289 C 0.78164 0.41718 0.47921 0.0
C290 C 0.78244 0.47668 0.54501 0.0
C291 C 0.85776 0.46416 0.53993 0.0
O292 O 0.77423 0.40699 0.49929 0.0
O293 O 0.80025 0.43847 0.48484 0.0
O294 O 0.84337 0.46312 0.55832 0.0
O295 O 0.84585 0.45217 0.51694 0.0
C296 C 0.80546 0.3945 0.55108 0.0
O297 O 0.79247 0.47506 0.52366 0.0
O298 O 0.78338 0.45843 0.55878 0.0
In299 In 0.64128 0.57164 0.31078 0.0
O300 O 0.68267 0.56569 0.3134 0.0
O301 O 0.65024 0.53095 0.30931 0.0
C302 C 0.66938 0.62197 0.30943 0.0
C303 C 0.61101 0.56124 0.26056 0.0
C304 C 0.62414 0.56951 0.36006 0.0
O305 O 0.67805 0.60207 0.30361 0.0
O306 O 0.64624 0.61649 0.31574 0.0
O307 O 0.6101 0.55546 0.33864 0.0
O308 O 0.64588 0.58429 0.35632 0.0
C309 C 0.67514 0.54066 0.31138 0.0
O310 O 0.61162 0.58086 0.27796 0.0
O311 O 0.62385 0.54608 0.26917 0.0
Dy312 Dy 0.08073 0.07687 0.05989 0.0
Dy313 Dy 0.02386 0.03651 0.03081 0.0
C314 C 0.07277 0.05129 0.99648 0.0
O315 O 0.06103 0.10546 0.0421 0.0
O316 O 1.01854 0.07825 0.02839 0.0
O317 O 0.11474 0.11073 0.06226 0.0
O318 O 0.11049 0.08875 0.0956 0.0
O319 O 0.02144 0.04245 0.07512 0.0
O320 O 0.05206 0.08284 0.08775 0.0
O321 O 0.0477 1.00724 0.03873 0.0
O322 O 0.08169 0.03563 0.06949 0.0
O323 O 0.98983 1.00328 0.03133 0.0
O324 O 0.99198 0.02387 0.99701 0.0
C325 C 0.0361 0.10207 0.03166 0.0
O326 O 0.08937 0.06459 0.01826 0.0
O327 O 0.04774 0.03952 0.99728 0.0
C328 C 0.15355 0.10536 0.08605 0.0
C329 C 0.20244 0.09314 0.08842 0.0
C330 C 0.18717 0.09199 0.06338 0.0
C331 C 0.16292 0.09794 0.0622 0.0
C332 C 0.1695 0.10829 0.11104 0.0
C333 C 0.19382 0.10214 0.11225 0.0
C334 C 0.12613 0.10697 0.08513 0.0
C335 C 0.03276 0.06382 0.0931 0.0
C336 C 0.06827 1.01106 0.05777 0.0
C337 C 0.95065 1.01132 0.01123 0.0
C338 C 0.9075 0.03316 0.01357 0.0
C339 C 0.92359 0.03214 0.03739 0.0
C340 C 0.94497 0.02139 0.03623 0.0
C341 C 0.93331 1.01011 0.9876 0.0
C342 C 0.91183 0.02098 0.98874 0.0
C343 C 0.97686 1.00704 0.00932 0.0
H344 H 0.19295 0.08461 0.04466 0.0
H345 H 0.15091 0.0953 0.04265 0.0
H346 H 0.16251 0.11399 0.12964 0.0
H347 H 0.20527 0.10323 0.13177 0.0
H348 H 0.92116 0.04168 0.05684 0.0
H349 H 0.95816 0.02284 0.05479 0.0
H350 H 0.93747 1.00248 0.96811 0.0
H351 H 0.89959 0.02126 0.97011 0.0
Dy352 Dy 0.32512 0.80569 0.26471 0.0
Dy353 Dy 0.295 0.82212 0.31403 0.0
C354 C 0.33131 0.86575 0.28776 0.0
O355 O 0.34538 0.7934 0.30031 0.0
O356 O 0.33597 0.82156 0.33376 0.0
O357 O 0.36137 0.80854 0.2477 0.0
O358 O 0.32397 0.78306 0.22575 0.0
O359 O 0.29066 0.77885 0.31266 0.0
O360 O 0.29376 0.76938 0.26802 0.0
O361 O 0.2645 0.81462 0.27649 0.0
O362 O 0.29301 0.82156 0.24535 0.0
O363 O 0.2615 0.8157 0.33574 0.0
O364 O 0.29542 0.85043 0.34893 0.0
C365 C 0.35027 0.80574 0.32541 0.0
O366 O 0.3445 0.8486 0.28119 0.0
O367 O 0.30794 0.85815 0.29512 0.0
C368 C 0.3534 0.80746 0.20046 0.0
C369 C 0.35404 0.83658 0.15757 0.0
C370 C 0.37243 0.84684 0.18128 0.0
C371 C 0.37211 0.83241 0.2026 0.0
C372 C 0.33665 0.79625 0.17582 0.0
C373 C 0.33683 0.81078 0.1546 0.0
C374 C 0.34876 0.79474 0.22451 0.0
C375 C 0.28697 0.76176 0.29048 0.0
C376 C 0.26914 0.81916 0.25213 0.0
C377 C 0.27721 0.82772 0.38182 0.0
C378 C 0.28678 0.81364 0.43293 0.0
C379 C 0.29608 0.80201 0.4108 0.0
C380 C 0.29143 0.80906 0.38557 0.0
C381 C 0.26763 0.83937 0.40364 0.0
C382 C 0.2723 0.83226 0.42915 0.0
C383 C 0.27379 0.83535 0.35517 0.0
H384 H 0.38588 0.86673 0.18402 0.0
H385 H 0.3855 0.84151 0.22123 0.0
H386 H 0.32232 0.77688 0.1735 0.0
H387 H 0.32275 0.80234 0.13629 0.0
H388 H 0.30668 0.78709 0.41287 0.0
H389 H 0.29901 0.79993 0.36889 0.0
H390 H 0.25675 0.85397 0.40096 0.0
H391 H 0.26487 0.84142 0.4459 0.0
Dy392 Dy 0.51905 0.05245 0.57272 0.0
Dy393 Dy 0.57416 0.06115 0.5456 0.0
C394 C 0.5216 0.06939 0.51424 0.0
O395 O 0.51591 1.01139 0.55001 0.0
O396 O 0.5593 0.0162 0.5436 0.0
O397 O 0.47666 0.03552 0.56888 0.0
O398 O 0.49799 0.06222 0.60532 0.0
O399 O 0.58469 0.05924 0.58914 0.0
O400 O 0.5448 0.0361 0.59952 0.0
O401 O 0.56957 0.10314 0.55491 0.0
O402 O 0.54356 0.09512 0.58794 0.0
O403 O 0.61611 0.08071 0.54873 0.0
O404 O 0.59604 0.0506 0.51427 0.0
C405 C 0.53502 1.00086 0.54336 0.0
O406 O 0.51196 0.07095 0.53686 0.0
O407 O 0.54336 0.06211 0.51188 0.0
C408 C 0.45662 0.06795 0.58699 0.0
C409 C 0.42574 0.10398 0.5792 0.0
C410 C 0.42817 0.08581 0.5574 0.0
C411 C 0.44328 0.06799 0.56124 0.0
C412 C 0.45385 0.08574 0.60893 0.0
C413 C 0.4386 0.10358 0.60509 0.0
C414 C 0.4748 0.05085 0.59056 0.0
C415 C 0.57081 0.04426 0.60427 0.0
C416 C 0.55853 0.1121 0.575 0.0
C417 C 0.63954 0.05138 0.53185 0.0
C418 C 0.67893 0.0243 0.53967 0.0
C419 C 0.65718 0.01978 0.55397 0.0
C420 C 0.63767 0.03318 0.55008 0.0
C421 C 0.6611 0.05599 0.51754 0.0
C422 C 0.68064 0.04258 0.5214 0.0
C423 C 0.61888 0.06527 0.52759 0.0
H424 H 0.41891 0.08574 0.53712 0.0
H425 H 0.4449 0.05462 0.54381 0.0
H426 H 0.46386 0.08616 0.62899 0.0
H427 H 0.43686 0.11703 0.62242 0.0
H428 H 0.65539 1.00612 0.56843 0.0
H429 H 0.62111 0.02937 0.56133 0.0
H430 H 0.66278 0.06986 0.50329 0.0
H431 H 0.6969 0.04628 0.50978 0.0
Dy432 Dy 0.33639 0.3088 0.80762 0.0
Dy433 Dy 0.27913 0.32373 0.79446 0.0
C434 C 0.33417 0.36281 0.78817 0.0
O435 O 0.33078 0.33076 0.84705 0.0
O436 O 0.28548 0.32289 0.83856 0.0
O437 O 0.37847 0.32372 0.82287 0.0
O438 O 0.36168 0.28241 0.80428 0.0
O439 O 0.26904 0.28069 0.79861 0.0
O440 O 0.30755 0.27667 0.82235 0.0
O441 O 0.29063 0.31374 0.75357 0.0
O442 O 0.31681 0.28726 0.76633 0.0
O443 O 0.23837 0.3142 0.77464 0.0
O444 O 0.25524 0.35063 0.80313 0.0
C445 C 0.30788 0.33044 0.85542 0.0
O446 O 0.34226 0.34149 0.78323 0.0
O447 O 0.312 0.36158 0.79811 0.0
C448 C 0.40517 0.30469 0.79609 0.0
C449 C 0.44712 0.31168 0.76451 0.0
C450 C 0.45006 0.32776 0.78977 0.0
C451 C 0.42944 0.32422 0.80535 0.0
C452 C 0.40203 0.28865 0.77079 0.0
C453 C 0.42275 0.29208 0.75524 0.0
C454 C 0.38344 0.30172 0.81288 0.0
C455 C 0.28191 0.26771 0.8133 0.0
C456 C 0.30312 0.29557 0.74745 0.0
C457 C 0.21066 0.3275 0.8041 0.0
C458 C 0.16729 0.31572 0.83335 0.0
C459 C 0.18986 0.30669 0.83965 0.0
C460 C 0.21128 0.31249 0.82516 0.0
C461 C 0.18829 0.33654 0.79772 0.0
C462 C 0.16682 0.33071 0.81215 0.0
C463 C 0.23353 0.33417 0.78926 0.0
H464 H 0.46826 0.34337 0.79748 0.0
H465 H 0.43243 0.33694 0.82469 0.0
H466 H 0.38358 0.27341 0.76295 0.0
H467 H 0.41978 0.27906 0.73612 0.0
H468 H 0.19086 0.29485 0.85556 0.0
H469 H 0.22837 0.30527 0.83041 0.0
H470 H 0.18746 0.34827 0.78167 0.0
H471 H 0.14999 0.33831 0.80693 0.0
Dy472 Dy 0.05758 0.03247 0.54464 0.0
Dy473 Dy 0.04412 0.09093 0.5544 0.0
C474 C 1.00027 0.03719 0.55744 0.0
O475 O 0.05184 0.04293 0.50274 0.0
O476 O 0.02597 0.07095 0.51244 0.0
O477 O 0.04653 0.99 0.52967 0.0
O478 O 0.08521 1.00944 0.55295 0.0
O479 O 0.0802 0.09628 0.53431 0.0
O480 O 0.09614 0.06437 0.55114 0.0
O481 O 0.06411 0.08628 0.59468 0.0
O482 O 0.05341 0.04068 0.5882 0.0
O483 O 0.05832 0.13329 0.56935 0.0
O484 O 1.01831 0.11628 0.54782 0.0
C485 C 0.03494 0.05613 0.4949 0.0
O486 O 1.01379 0.02409 0.54349 0.0
O487 O 1.00988 0.0627 0.56755 0.0
C488 C 0.06398 0.96654 0.56086 0.0
C489 C 0.05929 0.9293 0.59716 0.0
C490 C 0.05312 0.95358 0.6037 0.0
C491 C 0.05535 0.97192 0.58572 0.0
C492 C 0.06976 0.94221 0.55401 0.0
C493 C 0.06734 0.9237 0.57193 0.0
C494 C 0.06795 0.98672 0.54274 0.0
C495 C 0.10009 0.08672 0.54132 0.0
C496 C 0.06152 0.06376 0.60427 0.0
C497 C 0.04189 0.15957 0.54032 0.0
C498 C 0.05129 0.20127 0.50882 0.0
C499 C 0.06714 0.20367 0.53391 0.0
C500 C 0.06242 0.18318 0.54945 0.0
C501 C 0.02617 0.15694 0.51511 0.0
C502 C 0.03082 0.17752 0.49958 0.0
C503 C 0.03721 0.13814 0.55732 0.0
H504 H 0.0465 0.9584 0.62275 0.0
H505 H 0.05063 0.99047 0.59138 0.0
H506 H 0.0765 0.93768 0.53496 0.0
H507 H 0.07243 0.90531 0.56632 0.0
H508 H 0.08338 0.2214 0.54157 0.0
H509 H 0.07492 0.18584 0.56872 0.0
H510 H 1.01013 0.13905 0.50739 0.0
H511 H 1.01798 0.175 0.48056 0.0
Dy512 Dy 0.31459 0.84847 0.78932 0.0
Dy513 Dy 0.30422 0.79018 0.80867 0.0
C514 C 0.29602 0.83939 0.84591 0.0
O515 O 0.35428 0.84905 0.81238 0.0
O516 O 0.34922 0.80424 0.81013 0.0
O517 O 0.32994 0.89116 0.79945 0.0
O518 O 0.31037 0.87303 0.75882 0.0
O519 O 0.30751 0.78363 0.76514 0.0
O520 O 0.33186 0.82516 0.76018 0.0
O521 O 0.2626 0.79564 0.79954 0.0
O522 O 0.27251 0.82569 0.77062 0.0
O523 O 0.28426 0.748 0.80131 0.0
O524 O 0.31247 0.76549 0.83769 0.0
C525 C 0.36471 0.82898 0.81447 0.0
O526 O 0.29305 0.85058 0.82452 0.0
O527 O 0.30569 0.81884 0.84537 0.0
C528 C 0.3033 0.91356 0.77697 0.0
C529 C 0.27283 0.95029 0.78128 0.0
C530 C 0.26521 0.92619 0.79141 0.0
C531 C 0.2803 0.90797 0.78924 0.0
C532 C 0.31073 0.93724 0.76638 0.0
C533 C 0.2956 0.95545 0.76846 0.0
C534 C 0.31995 0.89514 0.776 0.0
C535 C 0.32338 0.79937 0.75221 0.0
C536 C 0.25472 0.80875 0.78099 0.0
C537 C 0.31246 0.72324 0.81666 0.0
C538 C 0.34037 0.6849 0.80681 0.0
C539 C 0.3475 0.70914 0.79688 0.0
C540 C 0.33363 0.72813 0.80173 0.0
C541 C 0.30515 0.69911 0.82649 0.0
C542 C 0.31897 0.68004 0.82158 0.0
C543 C 0.29835 0.7435 0.82222 0.0
H544 H 0.248 0.92172 0.80167 0.0
H545 H 0.2743 0.88971 0.79754 0.0
H546 H 0.32837 0.94178 0.75676 0.0
H547 H 0.30179 0.97362 0.76008 0.0
H548 H 0.36365 0.71332 0.78516 0.0
H549 H 0.33946 0.74668 0.79391 0.0
H550 H 0.28888 0.69509 0.8381 0.0
H551 H 0.31318 0.66168 0.82972 0.0
Dy552 Dy 0.56334 0.0796 0.02899 0.0
Dy553 Dy 0.57825 0.04871 0.07733 0.0
C554 C 0.57159 0.02048 0.01553 0.0
O555 O 0.52841 0.04574 0.02984 0.0
O556 O 0.53523 0.04633 0.07513 0.0
O557 O 0.53446 0.09257 1.00419 0.0
O558 O 0.57606 0.1041 0.99932 0.0
O559 O 0.57946 0.08952 0.09816 0.0
O560 O 0.55387 0.10256 0.06565 0.0
O561 O 0.61344 0.06099 0.05685 0.0
O562 O 0.60487 0.09952 0.04917 0.0
O563 O 0.60672 0.04826 0.11136 0.0
O564 O 0.57071 0.0156 0.09925 0.0
C565 C 0.51918 0.04083 0.05215 0.0
O566 O 0.57383 0.04383 1.00749 0.0
O567 O 0.56882 0.01755 0.04063 0.0
C568 C 0.54511 0.09379 0.96033 0.0
C569 C 0.54821 0.07516 0.90672 0.0
C570 C 0.53828 0.05708 0.92378 0.0
C571 C 0.53692 0.06634 0.95052 0.0
C572 C 0.55209 0.11191 0.94261 0.0
C573 C 0.55356 0.10266 0.91588 0.0
C574 C 0.5518 0.10315 0.98939 0.0
C575 C 0.56511 0.10528 0.09089 0.0
C576 C 0.62177 0.08554 0.05284 0.0
C577 C 0.58318 0.033 0.14493 0.0
C578 C 0.56858 0.04584 0.19547 0.0
C579 C 0.55738 0.05395 0.17255 0.0
C580 C 0.56469 0.04769 0.14763 0.0
C581 C 0.59471 0.02492 0.16758 0.0
C582 C 0.58735 0.03124 0.19283 0.0
C583 C 0.59067 0.02767 0.11833 0.0
H584 H 0.53377 0.03579 0.91714 0.0
H585 H 0.5316 0.05206 0.96403 0.0
H586 H 0.55864 0.13315 0.94999 0.0
H587 H 0.56148 0.1171 0.90331 0.0
H588 H 0.54232 0.06453 0.17364 0.0
H589 H 0.55568 0.05419 0.13031 0.0
H590 H 0.60925 1.01379 0.16573 0.0
H591 H 0.59621 0.0247 0.21019 0.0
Dy592 Dy 0.28557 0.27461 0.27851 0.0
Dy593 Dy 0.32094 0.32969 0.31565 0.0
C594 C 0.30431 0.27761 0.34249 0.0
O595 O 0.25533 0.29765 0.28461 0.0
O596 O 0.2779 0.3277 0.32192 0.0
O597 O 0.25103 0.2404 0.27151 0.0
O598 O 0.27871 0.24488 0.24291 0.0
O599 O 0.30814 0.34259 0.2767 0.0
O600 O 0.29514 0.30222 0.24869 0.0
O601 O 0.35184 0.31346 0.2964 0.0
O602 O 0.32764 0.27007 0.28198 0.0
O603 O 0.35557 0.36364 0.32342 0.0
O604 O 0.32821 0.35816 0.35236 0.0
C605 C 0.25529 0.3152 0.30571 0.0
O606 O 0.28609 0.26684 0.32126 0.0
O607 O 0.32328 0.29925 0.34215 0.0
C608 C 0.26313 0.20256 0.25375 0.0
C609 C 0.28442 0.15925 0.25804 0.0
C610 C 0.28354 0.1766 0.28125 0.0
C611 C 0.27303 0.198 0.27913 0.0
C612 C 0.26206 0.18427 0.23068 0.0
C613 C 0.27256 0.16263 0.23281 0.0
C614 C 0.25913 0.2287 0.25114 0.0
C615 C 0.30169 0.32834 0.25234 0.0
C616 C 0.3506 0.28879 0.28608 0.0
C617 C 0.34609 0.40163 0.34483 0.0
C618 C 0.33081 0.4488 0.34399 0.0
C619 C 0.33327 0.43377 0.31987 0.0
C620 C 0.34078 0.41042 0.32028 0.0
C621 C 0.34556 0.41748 0.36912 0.0
C622 C 0.33795 0.44098 0.36872 0.0
C623 C 0.34823 0.37444 0.34483 0.0
H624 H 0.2929 0.17506 0.30097 0.0
H625 H 0.27449 0.21207 0.2972 0.0
H626 H 0.25469 0.18764 0.21091 0.0
H627 H 0.27267 0.14943 0.2146 0.0
H628 H 0.32743 0.43884 0.30041 0.0
H629 H 0.34079 0.39844 0.30121 0.0
H630 H 0.34954 0.41092 0.38825 0.0
H631 H 0.33638 0.4523 0.38761 0.0
Dy632 Dy 0.56342 0.53518 0.04842 0.0
Dy633 Dy 0.5484 0.59309 0.05177 0.0
C634 C 0.50601 0.53917 0.05776 0.0
O635 O 0.54311 0.53597 1.00701 0.0
O636 O 0.55261 0.5812 1.00874 0.0
O637 O 0.55108 0.49236 0.03659 0.0
O638 O 0.59099 0.51217 0.05719 0.0
O639 O 0.59245 0.60222 0.05563 0.0
O640 O 0.59731 0.56293 0.03442 0.0
O641 O 0.55156 0.58548 0.09483 0.0
O642 O 0.57652 0.55547 0.09124 0.0
O643 O 0.55836 0.63591 0.06418 0.0
O644 O 0.52075 0.61492 0.03946 0.0
C645 C 0.54479 0.55696 0.99491 0.0
O646 O 0.52572 0.52967 0.06575 0.0
O647 O 0.51007 0.56097 0.04689 0.0
C648 C 0.56995 0.47021 0.06783 0.0
C649 C 0.56383 0.43323 0.10429 0.0
C650 C 0.55926 0.45828 0.11104 0.0
C651 C 0.56217 0.47653 0.09293 0.0
C652 C 0.57451 0.44532 0.06096 0.0
C653 C 0.57144 0.42697 0.07898 0.0
C654 C 0.57309 0.48939 0.04873 0.0
C655 C 0.60653 0.58869 0.04318 0.0
C656 C 0.56621 0.57154 0.10591 0.0
C657 C 0.54168 0.65797 0.03027 0.0
C658 C 0.54915 0.69508 0.99362 0.0
C659 C 0.56967 0.6961 0.01451 0.0
C660 C 0.566 0.67776 0.0326 0.0
C661 C 0.52106 0.65728 0.00965 0.0
C662 C 0.52478 0.67547 0.99153 0.0
C663 C 0.53749 0.63811 0.04907 0.0
H664 H 0.55308 0.46365 0.13019 0.0
H665 H 0.55828 0.49556 0.09847 0.0
H666 H 0.5805 0.44008 0.04167 0.0
H667 H 0.57541 0.40802 0.07324 0.0
H668 H 0.58876 0.7108 0.01663 0.0
H669 H 0.5823 0.67903 0.04829 0.0
H670 H 0.50196 0.64256 1.00745 0.0
H671 H 0.50837 0.67435 0.97602 0.0
Dy672 Dy 0.81077 0.33925 0.29461 0.0
Dy673 Dy 0.80133 0.27921 0.31056 0.0
C674 C 0.79103 0.32599 0.34965 0.0
O675 O 0.85301 0.33518 0.3037 0.0
O676 O 0.84347 0.30198 0.32951 0.0
O677 O 0.82675 0.38201 0.30547 0.0
O678 O 0.8027 0.36495 0.26659 0.0
O679 O 0.82438 0.28011 0.27637 0.0
O680 O 0.81335 0.31365 0.25716 0.0
O681 O 0.76205 0.27829 0.28649 0.0
O682 O 0.76581 0.32299 0.29126 0.0
O683 O 0.78693 0.23666 0.29773 0.0
O684 O 0.80527 0.25279 0.33923 0.0
C685 C 0.86106 0.32039 0.32044 0.0
O686 O 0.80786 0.34241 0.33821 0.0
O687 O 0.78275 0.30042 0.34041 0.0
C688 C 0.79586 0.40377 0.28902 0.0
C689 C 0.76004 0.43492 0.29603 0.0
C690 C 0.75683 0.41106 0.30673 0.0
C691 C 0.77454 0.39565 0.30322 0.0
C692 C 0.7994 0.42764 0.27857 0.0
C693 C 0.78167 0.44312 0.28207 0.0
C694 C 0.81344 0.38661 0.28406 0.0
C695 C 0.82343 0.29335 0.25621 0.0
C696 C 0.75101 0.29802 0.28524 0.0
C697 C 0.81263 0.21254 0.31913 0.0
C698 C 0.84292 0.17558 0.31336 0.0
C699 C 0.81507 0.16736 0.30604 0.0
C700 C 0.80012 0.18563 0.309 0.0
C701 C 0.84045 0.22102 0.32622 0.0
C702 C 0.85544 0.20267 0.32348 0.0
C703 C 0.7964 0.23149 0.32081 0.0
H704 H 0.74064 0.40431 0.31788 0.0
H705 H 0.77142 0.37719 0.31134 0.0
H706 H 0.81561 0.4341 0.26736 0.0
H707 H 0.78455 0.46118 0.27328 0.0
H708 H 0.80475 0.14682 0.29763 0.0
H709 H 0.77873 0.17878 0.30305 0.0
H710 H 0.85061 0.24179 0.33379 0.0
H711 H 0.87679 0.20969 0.32956 0.0
Dy712 Dy 0.05076 0.58423 0.51243 0.0
Dy713 Dy 0.06703 0.5554 0.5626 0.0
C714 C 0.06824 0.53014 0.50093 0.0
O715 O 1.01662 0.54952 0.51305 0.0
O716 O 0.02298 0.54826 0.55811 0.0
O717 O 0.02853 0.58214 0.47329 0.0
O718 O 0.05186 0.6203 0.49586 0.0
O719 O 0.06501 0.59586 0.58167 0.0
O720 O 0.03633 0.60318 0.54793 0.0
O721 O 0.10499 0.57161 0.54756 0.0
O722 O 0.09359 0.60443 0.52727 0.0
O723 O 0.09266 0.55662 0.59946 0.0
O724 O 0.06002 0.52147 0.58342 0.0
C725 C 1.00762 0.54201 0.53468 0.0
O726 O 0.06905 0.55351 0.49364 0.0
O727 O 0.0638 0.52559 0.52531 0.0
C728 C 0.05199 0.6127 0.44871 0.0
C729 C 0.08064 0.61257 0.40522 0.0
C730 C 0.09255 0.62876 0.43002 0.0
C731 C 0.07837 0.62875 0.45169 0.0
C732 C 0.03939 0.5985 0.42318 0.0
C733 C 0.05369 0.59826 0.40162 0.0
C734 C 0.03896 0.60728 0.47247 0.0
C735 C 0.04835 0.60891 0.57309 0.0
C736 C 0.11154 0.59372 0.53749 0.0
C737 C 0.06664 0.53699 0.62954 0.0
C738 C 0.04471 0.54297 0.67719 0.0
C739 C 0.03707 0.5545 0.65512 0.0
C740 C 0.04797 0.55158 0.63157 0.0
C741 C 0.07454 0.52546 0.65141 0.0
C742 C 0.06356 0.52839 0.67518 0.0
C743 C 0.07749 0.5344 0.60436 0.0
H744 H 0.11338 0.63985 0.43324 0.0
H745 H 0.08865 0.63998 0.47111 0.0
H746 H 1.01902 0.58614 0.42038 0.0
H747 H 0.04411 0.58583 0.38252 0.0
H748 H 0.02217 0.56531 0.65576 0.0
H749 H 0.04163 0.56055 0.61478 0.0
H750 H 0.08903 0.51421 0.65007 0.0
H751 H 0.06981 0.51936 0.69196 0.0
Dy752 Dy 0.82819 0.80149 0.29643 0.0
Dy753 Dy 0.77106 0.81839 0.29226 0.0
C754 C 0.82596 0.86037 0.28873 0.0
O755 O 0.81882 0.8046 0.339 0.0
O756 O 0.79112 0.83177 0.33505 0.0
O757 O 0.86976 0.80879 0.31271 0.0
O758 O 0.85046 0.77485 0.28169 0.0
O759 O 0.76375 0.78006 0.30822 0.0
O760 O 0.79544 0.76365 0.29039 0.0
O761 O 0.77345 0.7995 0.25037 0.0
O762 O 0.81868 0.80716 0.25365 0.0
O763 O 0.72876 0.8074 0.27819 0.0
O764 O 0.74801 0.84577 0.30281 0.0
C765 C 0.80601 0.82072 0.34994 0.0
O766 O 0.83839 0.84559 0.30111 0.0
O767 O 0.80029 0.85214 0.27961 0.0
C768 C 0.89558 0.79656 0.27975 0.0
C769 C 0.93839 0.80831 0.24968 0.0
C770 C 0.93329 0.82852 0.26757 0.0
C771 C 0.9121 0.82275 0.28237 0.0
C772 C 0.90069 0.77639 0.2619 0.0
C773 C 0.92172 0.78219 0.24696 0.0
C774 C 0.87303 0.78983 0.29528 0.0
C775 C 0.773 0.76003 0.30024 0.0
C776 C 0.795 0.80072 0.23903 0.0
C777 C 0.70385 0.82446 0.30847 0.0
C778 C 0.66114 0.8149 0.33883 0.0
C779 C 0.68371 0.80592 0.34548 0.0
C780 C 0.70482 0.81062 0.33042 0.0
C781 C 0.68164 0.83375 0.30201 0.0
C782 C 0.66056 0.82906 0.317 0.0
C783 C 0.72541 0.82877 0.29173 0.0
H784 H 0.94555 0.84889 0.26997 0.0
H785 H 0.9087 0.83884 0.29581 0.0
H786 H 0.88839 0.75602 0.25953 0.0
H787 H 0.92526 0.76609 0.23365 0.0
H788 H 0.68482 0.79475 0.36194 0.0
H789 H 0.72178 0.80321 0.33572 0.0
H790 H 0.68052 0.84453 0.28522 0.0
H791 H 0.64382 0.8367 0.31151 0.0
Dy792 Dy 0.82448 0.30299 0.77189 0.0
Dy793 Dy 0.79083 0.31734 0.81879 0.0
C794 C 0.83422 0.36138 0.80099 0.0
O795 O 0.84458 0.29124 0.80838 0.0
O796 O 0.82987 0.31576 0.84104 0.0
O797 O 0.85109 0.31639 0.74405 0.0
O798 O 0.8372 0.27422 0.74602 0.0
O799 O 0.78555 0.27348 0.81302 0.0
O800 O 0.78822 0.26931 0.76832 0.0
O801 O 0.76282 0.31459 0.78094 0.0
O802 O 0.79223 0.31768 0.75031 0.0
O803 O 0.75584 0.30913 0.83827 0.0
O804 O 0.78925 0.34357 0.8546 0.0
C805 C 0.84604 0.30168 0.83381 0.0
O806 O 0.84617 0.34297 0.79522 0.0
O807 O 0.80911 0.35477 0.80386 0.0
C808 C 0.83915 0.2876 0.70328 0.0
C809 C 0.81799 0.29581 0.65257 0.0
C810 C 0.8457 0.30358 0.66106 0.0
C811 C 0.85618 0.29947 0.68625 0.0
C812 C 0.81181 0.27723 0.69372 0.0
C813 C 0.80133 0.2811 0.66842 0.0
C814 C 0.8487 0.29219 0.73231 0.0
C815 C 0.78047 0.25882 0.78912 0.0
C816 C 0.76855 0.31775 0.75665 0.0
C817 C 0.77035 0.31745 0.88481 0.0
C818 C 0.78326 0.30148 0.93433 0.0
C819 C 0.78682 0.28746 0.91016 0.0
C820 C 0.78057 0.29545 0.8857 0.0
C821 C 0.76613 0.33126 0.90873 0.0
C822 C 0.77242 0.3232 0.93343 0.0
C823 C 0.76748 0.32735 0.85921 0.0
H824 H 0.85916 0.31518 0.64955 0.0
H825 H 0.87727 0.30784 0.69344 0.0
H826 H 0.79824 0.26818 0.70667 0.0
H827 H 0.77998 0.27445 0.66224 0.0
H828 H 0.79458 0.2703 0.91014 0.0
H829 H 0.78434 0.28476 0.86748 0.0
H830 H 0.75866 0.34856 0.90835 0.0
H831 H 0.7695 0.33433 0.95183 0.0
Dy832 Dy 0.7913 0.78887 0.78304 0.0
Dy833 Dy 0.83084 0.84449 0.8147 0.0
C834 C 0.8164 0.79528 0.84545 0.0
O835 O 0.76303 0.81415 0.79022 0.0
O836 O 0.7897 0.844 0.82562 0.0
O837 O 0.75533 0.75693 0.78029 0.0
O838 O 0.78081 0.7561 0.74982 0.0
O839 O 0.81483 0.85506 0.77565 0.0
O840 O 0.79927 0.81337 0.75033 0.0
O841 O 0.85882 0.82574 0.79363 0.0
O842 O 0.83283 0.78249 0.78389 0.0
O843 O 0.86099 0.88153 0.81606 0.0
O844 O 0.84684 0.87063 0.85264 0.0
C845 C 0.76575 0.83242 0.81153 0.0
O846 O 0.79525 0.78494 0.82708 0.0
O847 O 0.83601 0.8144 0.84075 0.0
C848 C 0.76316 0.71626 0.76481 0.0
C849 C 0.77938 0.67027 0.77068 0.0
C850 C 0.78447 0.6912 0.79253 0.0
C851 C 0.77644 0.71392 0.78962 0.0
C852 C 0.75624 0.6948 0.74349 0.0
C853 C 0.76418 0.67181 0.74645 0.0
C854 C 0.7611 0.74254 0.76017 0.0
C855 C 0.80655 0.83939 0.75213 0.0
C856 C 0.85615 0.80033 0.78523 0.0
C857 C 0.85619 0.91607 0.84785 0.0
C858 C 0.83665 0.96081 0.84959 0.0
C859 C 0.85607 0.9583 0.8334 0.0
C860 C 0.86585 0.93603 0.83258 0.0
C861 C 0.83937 0.92046 0.86658 0.0
C862 C 0.82963 0.94267 0.86738 0.0
C863 C 0.86058 0.88958 0.84145 0.0
H864 H 0.79657 0.69116 0.81133 0.0
H865 H 0.78233 0.73043 0.80623 0.0
H866 H 0.74613 0.69644 0.72415 0.0
H867 H 0.75967 0.65589 0.72936 0.0
H868 H 0.86173 0.9721 0.8195 0.0
H869 H 0.87926 0.93337 0.81838 0.0
H870 H 0.83204 0.90578 0.87913 0.0
H871 H 0.81483 0.94448 0.88021 0.0
Dy872 Dy 0.57704 0.57192 0.5638 0.0
Dy873 Dy 0.51974 0.53988 0.53053 0.0
C874 C 0.56994 0.5496 0.5009 0.0
O875 O 0.55619 0.60437 0.55913 0.0
O876 O 0.52455 0.58285 0.52286 0.0
O877 O 0.61393 0.60287 0.56733 0.0
O878 O 0.60657 0.57966 0.59933 0.0
O879 O 0.50989 0.55454 0.57081 0.0
O880 O 0.55132 0.56434 0.59571 0.0
O881 O 0.53319 0.50849 0.55084 0.0
O882 O 0.57807 0.52826 0.56029 0.0
O883 O 0.4788 0.51636 0.5268 0.0
O884 O 0.49668 0.52406 0.49116 0.0
C885 C 0.53847 0.60529 0.53873 0.0
O886 O 0.58172 0.56989 0.51996 0.0
O887 O 0.54953 0.53123 0.50526 0.0
C888 C 0.64968 0.59027 0.58904 0.0
C889 C 0.69362 0.56936 0.58935 0.0
C890 C 0.67787 0.56913 0.56489 0.0
C891 C 0.65605 0.57938 0.56473 0.0
C892 C 0.66604 0.5917 0.61341 0.0
C893 C 0.68787 0.58122 0.6136 0.0
C894 C 0.62417 0.59651 0.58939 0.0
C895 C 0.52549 0.55987 0.59423 0.0
C896 C 0.55754 0.50695 0.55849 0.0
C897 C 0.45189 0.52416 0.4901 0.0
C898 C 0.4118 0.54964 0.48194 0.0
C899 C 0.40691 0.52625 0.49344 0.0
C900 C 0.4269 0.51355 0.49749 0.0
C901 C 0.45565 0.54577 0.47583 0.0
C902 C 0.43566 0.55833 0.47168 0.0
C903 C 0.47468 0.51521 0.50069 0.0
H904 H 0.68146 0.55964 0.54593 0.0
H905 H 0.64346 0.57759 0.5457 0.0
H906 H 0.66121 0.5998 0.63238 0.0
H907 H 0.69976 0.58167 0.6327 0.0
H908 H 0.38868 0.51926 0.50163 0.0
H909 H 0.42357 0.49676 0.50831 0.0
H910 H 0.47463 0.55427 0.46962 0.0
H911 H 0.43972 0.57623 0.46255 0.0
Dy912 Dy 1.01883 0.54904 0.06549 0.0
Dy913 Dy 0.07586 0.559 0.04109 0.0
C914 C 0.02349 0.56253 1.00719 0.0
O915 O 0.02446 0.50773 0.0585 0.0
O916 O 0.05412 0.51474 0.02827 0.0
O917 O 0.97611 0.53167 0.05788 0.0
O918 O 0.99484 0.55732 0.09564 0.0
O919 O 0.08281 0.54368 0.07948 0.0
O920 O 0.04751 0.54819 0.10083 0.0
O921 O 0.07706 0.60098 0.06063 0.0
O922 O 0.03324 0.5936 0.06672 0.0
O923 O 0.11836 0.57584 0.04611 0.0
O924 O 0.09762 0.55011 1.0088 0.0
C925 C 0.03735 0.49834 0.04034 0.0
O926 O 1.01149 0.545 0.02104 0.0
O927 O 0.04915 0.57365 0.013 0.0
C928 C 0.95336 0.56119 0.07608 0.0
C929 C 0.91653 0.59132 0.0682 0.0
C930 C 0.90775 0.56396 0.06981 0.0
C931 C 0.926 0.54909 0.07375 0.0
C932 C 0.96223 0.58835 0.07413 0.0
C933 C 0.94405 0.60328 0.0704 0.0
C934 C 0.97248 0.54533 0.07977 0.0
C935 C 0.07059 0.54312 0.10067 0.0
C936 C 0.05695 0.61009 0.06696 0.0
C937 C 0.13935 0.54486 0.02652 0.0
C938 C 0.1734 0.51134 0.03108 0.0
C939 C 0.16628 0.52385 0.05422 0.0
C940 C 0.1494 0.54031 0.05198 0.0
C941 C 0.14657 0.53253 1.00338 0.0
C942 C 0.16334 0.51586 1.00561 0.0
C943 C 0.12063 0.56149 0.02391 0.0
H944 H 0.88673 0.55392 0.06773 0.0
H945 H 0.91873 0.52808 0.07486 0.0
H946 H 0.98324 0.59809 0.07557 0.0
H947 H 0.95167 0.62431 0.06965 0.0
H948 H 0.17338 0.52051 0.0741 0.0
H949 H 0.14403 0.54923 0.07026 0.0
H950 H 0.13907 0.53563 0.98353 0.0
H951 H 0.16862 0.50669 0.98741 0.0
H952 H 0.99139 0.1894 0.97647 0.0
H953 H 0.05945 0.24283 0.02922 0.0
H954 H 0.0703 0.20505 0.04658 0.0
H955 H 0.06174 0.15626 0.04632 0.0
H956 H 0.9923 0.10252 0.99593 0.0
H957 H 0.98096 0.14033 0.97867 0.0
C958 C 1.00849 0.19288 0.99193 0.0
C959 C 0.02452 0.21953 1.00129 0.0
C960 C 1.01456 0.17065 1.00239 0.0
C961 C 0.04654 0.22302 0.02146 0.0
C962 C 0.05288 0.2012 0.03143 0.0
C963 C 0.04398 0.15266 0.03166 0.0
C964 C 0.02807 0.12597 0.02257 0.0
C965 C 0.03722 0.17483 0.02199 0.0
C966 C 1.00507 0.12241 1.00361 0.0
C967 C 0.99857 0.14423 0.99357 0.0
H968 H 0.1878 0.82899 0.15238 0.0
H969 H 0.13799 0.83009 0.21438 0.0
H970 H 0.17369 0.82672 0.24775 0.0
H971 H 0.21901 0.82252 0.25977 0.0
H972 H 0.2695 0.82221 0.19831 0.0
H973 H 0.23402 0.82619 0.16486 0.0
C974 C 0.18481 0.82868 0.17322 0.0
C975 C 0.15998 0.82982 0.18063 0.0
C976 C 0.20569 0.82673 0.19264 0.0
C977 C 0.1567 0.8293 0.20786 0.0
C978 C 0.17719 0.8273 0.22709 0.0
C979 C 0.22233 0.82331 0.23907 0.0
C980 C 0.24714 0.82193 0.23182 0.0
C981 C 0.20175 0.82581 0.21976 0.0
C982 C 0.25081 0.8232 0.20476 0.0
C983 C 0.23041 0.82547 0.18547 0.0
H984 H 0.49068 0.87276 0.51535 0.0
H985 H 0.57136 0.88108 0.50102 0.0
H986 H 0.58194 0.92933 0.51386 0.0
H987 H 0.56851 0.97019 0.52823 0.0
H988 H 0.48765 0.96245 0.54174 0.0
H989 H 0.47729 0.914 0.53029 0.0
C990 C 0.51067 0.88506 0.51533 0.0
C991 C 0.53017 0.8727 0.50727 0.0
C992 C 0.5167 0.91341 0.52245 0.0
C993 C 0.55582 0.88951 0.50712 0.0
C994 C 0.56194 0.91737 0.51444 0.0
C995 C 0.54857 0.95803 0.52871 0.0
C996 C 0.52898 0.97065 0.53593 0.0
C997 C 0.54256 0.92972 0.52195 0.0
C998 C 0.50333 0.95391 0.5363 0.0
C999 C 0.49731 0.92591 0.52974 0.0
H1000 H 0.55388 0.33049 0.71337 0.0
H1001 H 0.49801 0.31283 0.63973 0.0
H1002 H 0.46103 0.30743 0.66571 0.0
H1003 H 0.44448 0.30769 0.70943 0.0
H1004 H 0.50055 0.3234 0.78287 0.0
H1005 H 0.53732 0.3299 0.75693 0.0
C1006 C 0.53362 0.32556 0.703 0.0
C1007 C 0.52877 0.32216 0.67462 0.0
C1008 C 0.51239 0.32218 0.71806 0.0
C1009 C 0.50235 0.31559 0.66154 0.0
C1010 C 0.48116 0.31247 0.6764 0.0
C1011 C 0.4647 0.31226 0.71981 0.0
C1012 C 0.46952 0.31518 0.74824 0.0
C1013 C 0.48592 0.31562 0.70469 0.0
C1014 C 0.49604 0.3215 0.76115 0.0
C1015 C 0.51718 0.32506 0.74629 0.0
H1016 H 0.06229 0.86419 0.69445 0.0
H1017 H 0.02439 0.79861 0.63009 0.0
H1018 H 0.02643 0.82942 0.59762 0.0
H1019 H 0.03896 0.87508 0.58727 0.0
H1020 H 0.07656 0.94078 0.65157 0.0
H1021 H 0.07446 0.91 0.68412 0.0
C1022 C 0.05446 0.85666 0.67333 0.0
C1023 C 0.04323 0.82908 0.66477 0.0
C1024 C 0.05559 0.87456 0.65467 0.0
C1025 C 0.03312 0.8197 0.63729 0.0
C1026 C 0.0343 0.83733 0.61866 0.0
C1027 C 0.04685 0.88265 0.60837 0.0
C1028 C 0.05788 0.91027 0.61688 0.0
C1029 C 0.04554 0.8648 0.62707 0.0
C1030 C 0.06767 0.9197 0.64443 0.0
C1031 C 0.06661 0.90207 0.66309 0.0
H1032 H 0.49208 0.87434 0.84167 0.0
H1033 H 0.48628 0.79077 0.83791 0.0
H1034 H 0.43783 0.77987 0.82715 0.0
H1035 H 0.39613 0.79384 0.81944 0.0
H1036 H 0.40217 0.87764 0.82416 0.0
H1037 H 0.4505 0.88827 0.83381 0.0
C1038 C 0.4803 0.8537 0.83825 0.0
C1039 C 0.49335 0.83347 0.84049 0.0
C1040 C 0.45199 0.84745 0.83236 0.0
C1041 C 0.47724 0.8069 0.83626 0.0
C1042 C 0.4493 0.80059 0.83015 0.0
C1043 C 0.40793 0.81447 0.82262 0.0
C1044 C 0.39484 0.8348 0.82102 0.0
C1045 C 0.43628 0.82066 0.8283 0.0
C1046 C 0.41107 0.86135 0.82522 0.0
C1047 C 0.43901 0.86755 0.83074 0.0
H1048 H 0.55884 0.18647 0.19364 0.0
H1049 H 0.52106 0.21951 0.13152 0.0
H1050 H 0.52559 0.18473 0.09716 0.0
H1051 H 0.54134 0.14539 0.08404 0.0
H1052 H 0.58006 0.11258 0.14576 0.0
H1053 H 0.57412 0.14638 0.18043 0.0
C1054 C 0.55138 0.18591 0.17262 0.0
C1055 C 0.53951 0.20574 0.16538 0.0
C1056 C 0.55441 0.16584 0.15262 0.0
C1057 C 0.53024 0.20466 0.13788 0.0
C1058 C 0.53288 0.18472 0.11809 0.0
C1059 C 0.5485 0.14557 0.10505 0.0
C1060 C 0.56132 0.12631 0.11198 0.0
C1061 C 0.54514 0.1653 0.12511 0.0
C1062 C 0.57033 0.1271 0.13952 0.0
C1063 C 0.56687 0.14648 0.15952 0.0
H1064 H 0.13379 0.3157 0.31405 0.0
H1065 H 0.17238 0.37484 0.38377 0.0
H1066 H 0.21579 0.37082 0.37449 0.0
H1067 H 0.24394 0.34975 0.3472 0.0
H1068 H 0.20533 0.29089 0.27719 0.0
H1069 H 0.16208 0.29567 0.2859 0.0
C1070 C 0.15165 0.3279 0.32716 0.0
C1071 C 0.14916 0.34569 0.34973 0.0
C1072 C 0.17717 0.32548 0.32168 0.0
C1073 C 0.17305 0.36102 0.36626 0.0
C1074 C 0.19819 0.35869 0.36096 0.0
C1075 C 0.22616 0.33801 0.33369 0.0
C1076 C 0.22866 0.31988 0.31138 0.0
C1077 C 0.20069 0.34087 0.33882 0.0
C1078 C 0.20477 0.30505 0.29446 0.0
C1079 C 0.17968 0.30775 0.29948 0.0
H1080 H 1.01958 0.08384 0.21692 0.0
H1081 H 0.96085 1.00776 0.19216 0.0
H1082 H 0.97023 1.00701 0.14603 0.0
H1083 H 0.99521 0.02752 0.11244 0.0
H1084 H 0.05377 0.10382 0.13644 0.0
H1085 H 0.04415 0.105 0.18266 0.0
C1086 C 1.00896 0.06707 0.20143 0.0
C1087 C 0.98963 0.04583 0.20815 0.0
C1088 C 1.01425 0.06685 0.1746 0.0
C1089 C 0.97587 0.02437 0.1877 0.0
C1090 C 0.98117 0.02392 0.1612 0.0
C1091 C 1.00578 0.04453 0.12768 0.0
C1092 C 0.02521 0.06553 0.12074 0.0
C1093 C 1.00028 0.04504 0.15437 0.0
C1094 C 0.03865 0.08735 0.14098 0.0
C1095 C 0.03325 0.08801 0.16756 0.0
H1096 H 0.28112 0.75157 0.53039 0.0
H1097 H 0.36087 0.75388 0.51597 0.0
H1098 H 0.35887 0.78506 0.48441 0.0
H1099 H 0.33245 0.80666 0.45682 0.0
H1100 H 0.25118 0.80072 0.46779 0.0
H1101 H 0.2561 0.77685 0.50569 0.0
C1102 C 0.2982 0.75924 0.52065 0.0
C1103 C 0.32095 0.75022 0.5251 0.0
C1104 C 0.29662 0.77653 0.50202 0.0
C1105 C 0.34302 0.76035 0.51254 0.0
C1106 C 0.3419 0.77816 0.49455 0.0
C1107 C 0.31591 0.80036 0.46772 0.0
C1108 C 0.29135 0.80491 0.45927 0.0
C1109 C 0.31848 0.78561 0.48848 0.0
C1110 C 0.27028 0.7974 0.47395 0.0
C1111 C 0.27299 0.7835 0.49539 0.0
H1112 H 0.61499 0.01668 0.71435 0.0
H1113 H 0.68961 0.04834 0.68665 0.0
H1114 H 0.66575 0.05163 0.64336 0.0
H1115 H 0.62389 0.05074 0.61601 0.0
H1116 H 0.54943 0.02101 0.64498 0.0
H1117 H 0.57316 1.01183 0.68534 0.0
C1118 C 0.62605 0.02382 0.69865 0.0
C1119 C 0.65396 0.03256 0.70372 0.0
C1120 C 0.61226 0.0265 0.67432 0.0
C1121 C 0.66808 0.0416 0.6832 0.0
C1122 C 0.65446 0.04369 0.65856 0.0
C1123 C 0.61282 0.04218 0.63111 0.0
C1124 C 0.58499 0.03709 0.62778 0.0
C1125 C 0.62658 0.03715 0.65435 0.0
C1126 C 0.5709 0.02544 0.64722 0.0
C1127 C 0.58443 0.02013 0.67028 0.0
H1128 H 0.2804 0.36631 0.9707 0.0
H1129 H 0.36027 0.36304 0.99612 0.0
H1130 H 0.36466 0.34867 0.94927 0.0
H1131 H 0.34606 0.33815 0.90039 0.0
H1132 H 0.2657 0.34119 0.87613 0.0
H1133 H 0.26146 0.35446 0.92277 0.0
C1134 C 0.2987 0.36224 0.96605 0.0
C1135 C 0.31993 0.36575 0.987 0.0
C1136 C 0.30114 0.35406 0.93903 0.0
C1137 C 0.34352 0.36041 0.98048 0.0
C1138 C 0.3461 0.35229 0.95361 0.0
C1139 C 0.32766 0.34175 0.90532 0.0
C1140 C 0.30633 0.33866 0.88448 0.0
C1141 C 0.32512 0.34928 0.93259 0.0
C1142 C 0.28255 0.34327 0.89148 0.0
C1143 C 0.28002 0.35092 0.9183 0.0
H1144 H 0.97518 0.06214 0.38149 0.0
H1145 H 0.04178 0.04005 0.35302 0.0
H1146 H 0.06009 0.03838 0.39958 0.0
H1147 H 0.05683 0.04345 0.44906 0.0
H1148 H 0.98894 0.06529 0.4752 0.0
H1149 H 0.97155 0.06646 0.42909 0.0
C1150 C 0.9938 0.05707 0.38535 0.0
C1151 C 1.00713 0.0514 0.36371 0.0
C1152 C 1.00394 0.05589 0.41194 0.0
C1153 C 0.03115 0.04469 0.36927 0.0
C1154 C 0.04156 0.04362 0.39592 0.0
C1155 C 0.03814 0.04821 0.44457 0.0
C1156 C 0.02437 0.05437 0.46584 0.0
C1157 C 0.02806 0.04911 0.41753 0.0
C1158 C 1.00022 0.06068 0.45952 0.0
C1159 C 0.99014 0.06138 0.43303 0.0
H1160 H 0.35056 0.7629 0.63866 0.0
H1161 H 0.3275 0.68624 0.66456 0.0
H1162 H 0.32431 0.70788 0.7093 0.0
H1163 H 0.32226 0.74782 0.73853 0.0
H1164 H 0.3436 0.82429 0.71189 0.0
H1165 H 0.35333 0.80338 0.66972 0.0
C1166 C 0.34531 0.75096 0.65425 0.0
C1167 C 0.33884 0.72305 0.64831 0.0
C1168 C 0.34276 0.76343 0.67951 0.0
C1169 C 0.33239 0.70778 0.6687 0.0
C1170 C 0.33037 0.72012 0.69416 0.0
C1171 C 0.32912 0.75993 0.72352 0.0
C1172 C 0.3316 0.78741 0.72793 0.0
C1173 C 0.33447 0.7478 0.69936 0.0
C1174 C 0.34123 0.80302 0.70874 0.0
C1175 C 0.3468 0.7911 0.68467 0.0
H1176 H 0.60923 0.06969 0.80822 0.0
H1177 H 0.64298 0.01995 0.85504 0.0
H1178 H 0.61051 0.02038 0.88579 0.0
H1179 H 0.57709 0.03987 0.90258 0.0
H1180 H 0.54438 0.09125 0.85721 0.0
H1181 H 0.57174 0.08485 0.82225 0.0
C1182 C 0.60924 0.05868 0.82497 0.0
C1183 C 0.62869 0.04519 0.8297 0.0
C1184 C 0.59079 0.05934 0.84275 0.0
C1185 C 0.62835 0.03074 0.85123 0.0
C1186 C 0.6098 0.03095 0.86878 0.0
C1187 C 0.57517 0.04893 0.8846 0.0
C1188 C 0.55882 0.0661 0.88249 0.0
C1189 C 0.59148 0.04583 0.86516 0.0
C1190 C 0.55699 0.07809 0.85931 0.0
C1191 C 0.57271 0.07454 0.83944 0.0
H1192 H 0.31707 0.40181 0.1615 0.0
H1193 H 0.29154 0.3251 0.11016 0.0
H1194 H 0.28632 0.30301 0.1498 0.0
H1195 H 0.2901 0.30534 0.1991 0.0
H1196 H 0.31573 0.38209 0.25056 0.0
H1197 H 0.31966 0.40418 0.21089 0.0
C1198 C 0.31027 0.38025 0.15895 0.0
C1199 C 0.30477 0.36516 0.13277 0.0
C1200 C 0.30734 0.36765 0.18191 0.0
C1201 C 0.29594 0.33724 0.12996 0.0
C1202 C 0.29297 0.32458 0.15267 0.0
C1203 C 0.29642 0.32692 0.20175 0.0
C1204 C 0.30265 0.34193 0.22803 0.0
C1205 C 0.29876 0.33956 0.17877 0.0
C1206 C 0.31079 0.36991 0.23077 0.0
C1207 C 0.3131 0.3826 0.20801 0.0
H1208 H 0.26547 1.00855 0.0831 0.0
H1209 H 0.29097 0.04691 0.01629 0.0
H1210 H 0.27072 0.08235 0.02964 0.0
H1211 H 0.24097 0.09897 0.05662 0.0
H1212 H 0.21276 0.05868 0.12132 0.0
H1213 H 0.24004 0.02831 0.11342 0.0
C1214 C 0.26675 0.02479 0.07162 0.0
C1215 C 0.2791 0.0249 0.04845 0.0
C1216 C 0.25489 0.04493 0.07925 0.0
C1217 C 0.28115 0.04625 0.03399 0.0
C1218 C 0.26968 0.06655 0.04165 0.0
C1219 C 0.24124 0.08384 0.0693 0.0
C1220 C 0.22458 0.08074 0.08915 0.0
C1221 C 0.25583 0.06562 0.06374 0.0
C1222 C 0.22548 0.06152 0.10592 0.0
C1223 C 0.24075 0.04387 0.10114 0.0
H1224 H 0.72589 0.63745 0.02707 0.0
H1225 H 0.70161 0.70982 0.039 0.0
H1226 H 0.65688 0.68422 0.04298 0.0
H1227 H 0.62509 0.64177 0.04451 0.0
H1228 H 0.64815 0.56881 0.03178 0.0
H1229 H 0.69292 0.59415 0.02652 0.0
C1230 C 0.71075 0.64756 0.0304 0.0
C1231 C 0.71712 0.67552 0.03286 0.0
C1232 C 0.68492 0.63266 0.03262 0.0
C1233 C 0.69727 0.68834 0.03705 0.0
C1234 C 0.67167 0.67373 0.03939 0.0
C1235 C 0.63989 0.63133 0.04064 0.0
C1236 C 0.63338 0.60345 0.03885 0.0
C1237 C 0.66537 0.64595 0.03748 0.0
C1238 C 0.65267 0.59026 0.03332 0.0
C1239 C 0.67828 0.60476 0.03036 0.0
H1240 H 0.66413 0.48637 0.30276 0.0
H1241 H 0.72908 0.55841 0.31802 0.0
H1242 H 0.76095 0.53223 0.31506 0.0
H1243 H 0.77053 0.48896 0.30752 0.0
H1244 H 0.70578 0.41674 0.2912 0.0
H1245 H 0.67385 0.44281 0.29553 0.0
C1246 C 0.68526 0.49629 0.30556 0.0
C1247 C 0.69417 0.52431 0.31058 0.0
C1248 C 0.70358 0.48108 0.30367 0.0
C1249 C 0.72164 0.53688 0.3141 0.0
C1250 C 0.73992 0.52192 0.31239 0.0
C1251 C 0.74943 0.47891 0.30471 0.0
C1252 C 0.74065 0.4509 0.29902 0.0
C1253 C 0.73113 0.49403 0.307 0.0
C1254 C 0.71319 0.43824 0.29592 0.0
C1255 C 0.69487 0.45315 0.29823 0.0
H1256 H 0.88915 0.47276 0.50189 0.0
H1257 H 0.88982 0.48841 0.58785 0.0
H1258 H 0.93694 0.51346 0.59418 0.0
H1259 H 0.97762 0.53158 0.57475 0.0
H1260 H 0.97518 0.51633 0.48833 0.0
H1261 H 0.92896 0.49039 0.48276 0.0
C1262 C 0.89959 0.48155 0.52206 0.0
C1263 C 0.88615 0.47877 0.54437 0.0
C1264 C 0.92632 0.49603 0.52544 0.0
C1265 C 0.89986 0.49035 0.57036 0.0
C1266 C 0.92674 0.50464 0.57396 0.0
C1267 C 0.96696 0.52247 0.55475 0.0
C1268 C 0.97978 0.52595 0.53201 0.0
C1269 C 0.94014 0.50772 0.55159 0.0
C1270 C 0.96573 0.51414 0.50618 0.0
C1271 C 0.9393 0.49923 0.50293 0.0
H1272 H 0.37919 0.10783 0.26433 0.0
H1273 H 0.35322 0.09373 0.3405 0.0
H1274 H 0.31419 0.10901 0.32826 0.0
H1275 H 0.28952 0.12964 0.29767 0.0
H1276 H 0.31792 0.14795 0.22353 0.0
H1277 H 0.35298 0.12638 0.23252 0.0
C1278 C 0.36492 0.10803 0.27818 0.0
C1279 C 0.36922 0.10006 0.3034 0.0
C1280 C 0.34271 0.11717 0.27118 0.0
C1281 C 0.3505 0.10015 0.32109 0.0
C1282 C 0.32811 0.10873 0.31406 0.0
C1283 C 0.30328 0.12878 0.28338 0.0
C1284 C 0.30126 0.14074 0.26019 0.0
C1285 C 0.32432 0.11776 0.2894 0.0
C1286 C 0.31878 0.13874 0.24148 0.0
C1287 C 0.33916 0.12678 0.2468 0.0
H1288 H 0.37295 0.19889 0.57147 0.0
H1289 H 0.31455 0.13716 0.51516 0.0
H1290 H 0.34045 0.10574 0.52254 0.0
H1291 H 0.37869 0.09519 0.54605 0.0
H1292 H 0.43763 0.15661 0.60216 0.0
H1293 H 0.41226 0.18849 0.59424 0.0
C1294 C 0.36607 0.17864 0.56063 0.0
C1295 C 0.34187 0.17042 0.54274 0.0
C1296 C 0.38095 0.16047 0.56521 0.0
C1297 C 0.3331 0.14403 0.52902 0.0
C1298 C 0.34786 0.126 0.53328 0.0
C1299 C 0.3862 0.11562 0.55636 0.0
C1300 C 0.41008 0.12339 0.57471 0.0
C1301 C 0.37167 0.13392 0.5515 0.0
C1302 C 0.41914 0.14988 0.58823 0.0
C1303 C 0.40474 0.16823 0.58354 0.0
H1304 H 0.71925 0.63755 0.29721 0.0
H1305 H 0.65544 0.66809 0.32146 0.0
H1306 H 0.68222 0.71363 0.32147 0.0
H1307 H 0.72351 0.74457 0.31413 0.0
H1308 H 0.78713 0.71379 0.28945 0.0
H1309 H 0.76063 0.66848 0.29022 0.0
C1310 C 0.71119 0.65417 0.30249 0.0
C1311 C 0.6854 0.64948 0.30927 0.0
C1312 C 0.72666 0.68022 0.30244 0.0
C1313 C 0.67524 0.6712 0.31611 0.0
C1314 C 0.69054 0.69722 0.31615 0.0
C1315 C 0.73168 0.728 0.30904 0.0
C1316 C 0.75732 0.73264 0.30175 0.0
C1317 C 0.71627 0.70195 0.30932 0.0
C1318 C 0.76748 0.71085 0.29511 0.0
C1319 C 0.75232 0.6849 0.29552 0.0
H1320 H 0.91377 0.47638 0.82135 0.0
H1321 H 0.84022 0.49743 0.80565 0.0
H1322 H 0.81508 0.45048 0.79968 0.0
H1323 H 0.81417 0.40357 0.79862 0.0
H1324 H 0.88795 0.38241 0.81198 0.0
H1325 H 0.91294 0.4294 0.8191 0.0
C1326 C 0.89223 0.47065 0.81672 0.0
C1327 C 0.87878 0.49017 0.81406 0.0
C1328 C 0.87802 0.44369 0.81282 0.0
C1329 C 0.85094 0.48261 0.80775 0.0
C1330 C 0.83658 0.45584 0.80436 0.0
C1331 C 0.83572 0.40928 0.80316 0.0
C1332 C 0.84923 0.38966 0.80488 0.0
C1333 C 0.84994 0.43623 0.80681 0.0
C1334 C 0.87714 0.39722 0.81047 0.0
C1335 C 0.89143 0.42404 0.8146 0.0
H1336 H 0.10994 0.92481 0.11788 0.0
H1337 H 0.05503 0.87003 0.05304 0.0
H1338 H 0.04408 0.90738 0.03462 0.0
H1339 H 0.04892 0.95627 0.03707 0.0
H1340 H 0.105 1.01105 0.10118 0.0
H1341 H 0.11634 0.97376 0.1191 0.0
C1342 C 0.0957 0.92093 0.09959 0.0
C1343 C 0.08347 0.89402 0.08707 0.0
C1344 C 0.08948 0.9429 0.08876 0.0
C1345 C 0.06503 0.89007 0.06333 0.0
C1346 C 0.05863 0.91164 0.05272 0.0
C1347 C 0.06376 0.96021 0.05489 0.0
C1348 C 0.07592 0.98713 0.0675 0.0
C1349 C 0.07055 0.93826 0.06526 0.0
C1350 C 0.09513 0.99107 0.09065 0.0
C1351 C 0.10167 0.96951 0.1011 0.0
H1352 H 0.92807 0.30066 0.93678 0.0
H1353 H 0.96335 0.26381 0.87508 0.0
H1354 H 0.92778 0.26569 0.84065 0.0
H1355 H 0.88728 0.27925 0.82728 0.0
H1356 H 0.85195 0.31651 0.88871 0.0
H1357 H 0.88643 0.3129 0.92347 0.0
C1358 C 0.92784 0.2928 0.91585 0.0
C1359 C 0.94857 0.28205 0.90875 0.0
C1360 C 0.90722 0.29416 0.89582 0.0
C1361 C 0.94782 0.27217 0.88135 0.0
C1362 C 0.92742 0.27329 0.86151 0.0
C1363 C 0.88699 0.2865 0.84826 0.0
C1364 C 0.86687 0.29831 0.85505 0.0
C1365 C 0.90712 0.28448 0.86839 0.0
C1366 C 0.8671 0.3075 0.88255 0.0
C1367 C 0.88691 0.30542 0.90261 0.0
H1368 H 0.56101 0.23008 0.62794 0.0
H1369 H 0.60134 0.25151 0.56108 0.0
H1370 H 0.59769 0.20432 0.54568 0.0
H1371 H 0.58292 0.15604 0.55125 0.0
H1372 H 0.54247 0.1361 0.61867 0.0
H1373 H 0.54641 0.18288 0.63341 0.0
C1374 C 0.56898 0.22457 0.6099 0.0
C1375 C 0.58141 0.24482 0.59576 0.0
C1376 C 0.56687 0.19722 0.60115 0.0
C1377 C 0.59158 0.23675 0.57248 0.0
C1378 C 0.58953 0.20957 0.56365 0.0
C1379 C 0.57506 0.16187 0.56924 0.0
C1380 C 0.56243 0.14185 0.58371 0.0
C1381 C 0.57725 0.18946 0.57784 0.0
C1382 C 0.55232 0.15042 0.60689 0.0
C1383 C 0.55453 0.17746 0.61546 0.0
H1384 H 0.55212 0.79051 0.38619 0.0
H1385 H 0.60612 0.80537 0.46084 0.0
H1386 H 0.644 0.81269 0.43618 0.0
H1387 H 0.66207 0.81606 0.39344 0.0
H1388 H 0.60797 0.80075 0.31874 0.0
H1389 H 0.57016 0.79274 0.34333 0.0
C1390 C 0.57217 0.79524 0.39706 0.0
C1391 C 0.57618 0.79737 0.42538 0.0
C1392 C 0.59398 0.79956 0.38272 0.0
C1393 C 0.60236 0.80357 0.43908 0.0
C1394 C 0.6241 0.8078 0.42497 0.0
C1395 C 0.64202 0.81071 0.38247 0.0
C1396 C 0.63808 0.80925 0.35418 0.0
C1397 C 0.62019 0.80598 0.39678 0.0
C1398 C 0.61181 0.80255 0.34049 0.0
C1399 C 0.59007 0.79777 0.35455 0.0
H1400 H 0.07377 0.30859 0.45959 0.0
H1401 H 0.05638 0.25312 0.38512 0.0
H1402 H 0.04935 0.21575 0.41035 0.0
H1403 H 0.04813 0.19878 0.45377 0.0
H1404 H 0.06428 0.25474 0.52792 0.0
H1405 H 0.07208 0.29175 0.50266 0.0
C1406 C 0.06852 0.28833 0.44884 0.0
C1407 C 0.06567 0.28371 0.42046 0.0
C1408 C 0.06434 0.26693 0.46348 0.0
C1409 C 0.05874 0.25729 0.40693 0.0
C1410 C 0.0547 0.23588 0.42137 0.0
C1411 C 0.05314 0.21905 0.46443 0.0
C1412 C 0.05575 0.22377 0.49287 0.0
C1413 C 0.05736 0.24044 0.44968 0.0
C1414 C 0.06259 0.25032 0.50618 0.0
C1415 C 0.06689 0.27159 0.49171 0.0
H1416 H 0.62388 0.25118 0.25508 0.0
H1417 H 0.62947 0.33432 0.25523 0.0
H1418 H 0.67775 0.34571 0.26767 0.0
H1419 H 0.71934 0.33235 0.27781 0.0
H1420 H 0.714 0.24898 0.27604 0.0
H1421 H 0.66565 0.23777 0.26504 0.0
C1422 C 0.6356 0.27183 0.2581 0.0
C1423 C 0.62254 0.29181 0.25434 0.0
C1424 C 0.66387 0.27835 0.26483 0.0
C1425 C 0.63853 0.31839 0.258 0.0
C1426 C 0.66637 0.32498 0.2651 0.0
C1427 C 0.7077 0.31168 0.27499 0.0
C1428 C 0.72093 0.29165 0.27782 0.0
C1429 C 0.67943 0.30517 0.2684 0.0
C1430 C 0.70493 0.26503 0.27401 0.0
C1431 C 0.677 0.25851 0.26772 0.0
H1432 H 0.57274 0.90742 0.95578 0.0
H1433 H 0.5864 0.9501 0.88907 0.0
H1434 H 0.58476 0.99117 0.91714 0.0
H1435 H 0.57937 0.01519 0.96142 0.0
H1436 H 0.56541 0.9704 0.02696 0.0
H1437 H 0.56719 0.9305 0.99869 0.0
C1438 C 0.57547 0.92569 0.94728 0.0
C1439 C 0.5798 0.92551 0.92027 0.0
C1440 C 0.5744 0.94913 0.96348 0.0
C1441 C 0.58314 0.94952 0.90978 0.0
C1442 C 0.58216 0.97307 0.92587 0.0
C1443 C 0.5767 0.99671 0.9695 0.0
C1444 C 0.57233 0.99626 0.99662 0.0
C1445 C 0.57777 0.97319 0.95287 0.0
C1446 C 0.56889 0.97185 1.00643 0.0
C1447 C 0.56991 0.94876 0.9902 0.0
H1448 H 0.94377 0.74925 0.73699 0.0
H1449 H 0.99574 0.82561 0.77577 0.0
H1450 H 0.95801 0.83846 0.79153 0.0
H1451 H 0.90964 0.82902 0.79385 0.0
H1452 H 0.85741 0.75217 0.75699 0.0
H1453 H 0.89519 0.73888 0.74141 0.0
C1454 C 0.94695 0.76865 0.74906 0.0
C1455 C 0.97315 0.78633 0.755 0.0
C1456 C 0.92477 0.77604 0.75851 0.0
C1457 C 0.97627 0.81136 0.77075 0.0
C1458 C 0.95448 0.81884 0.77979 0.0
C1459 C 0.90637 0.80928 0.78248 0.0
C1460 C 0.88011 0.79181 0.77671 0.0
C1461 C 0.92853 0.80151 0.77372 0.0
C1462 C 0.87697 0.76627 0.76199 0.0
C1463 C 0.89877 0.7586 0.75294 0.0
H1464 H 0.08592 0.04571 0.87276 0.0
H1465 H 0.16318 0.09823 0.90726 0.0
H1466 H 0.15243 0.095 0.95266 0.0
H1467 H 0.12067 0.07796 0.98296 0.0
H1468 H 0.04396 0.02402 0.94821 0.0
H1469 H 0.05507 0.02684 0.90311 0.0
C1470 C 0.10034 0.05649 0.89023 0.0
C1471 C 0.12523 0.07233 0.88653 0.0
C1472 C 0.09422 0.05415 0.91648 0.0
C1473 C 0.14383 0.08589 0.90945 0.0
C1474 C 0.13772 0.08404 0.93551 0.0
C1475 C 0.10649 0.06656 0.96557 0.0
C1476 C 0.08145 0.0509 0.9693 0.0
C1477 C 0.11296 0.06824 0.93934 0.0
C1478 C 0.06339 0.03636 0.94628 0.0
C1479 C 0.06965 0.038 0.92028 0.0
H1480 H 0.77519 0.37277 0.58689 0.0
H1481 H 0.83823 0.36302 0.54242 0.0
H1482 H 0.84437 0.32742 0.56682 0.0
H1483 H 0.83584 0.30336 0.60476 0.0
H1484 H 0.77511 0.31585 0.65142 0.0
H1485 H 0.76328 0.34499 0.62149 0.0
C1486 C 0.79 0.36258 0.5823 0.0
C1487 C 0.80656 0.3708 0.56331 0.0
C1488 C 0.79376 0.34244 0.59672 0.0
C1489 C 0.82548 0.35727 0.55728 0.0
C1490 C 0.829 0.33689 0.57119 0.0
C1491 C 0.81977 0.31217 0.60814 0.0
C1492 C 0.80666 0.30763 0.63052 0.0
C1493 C 0.81387 0.32996 0.59158 0.0
C1494 C 0.78545 0.31872 0.63425 0.0
C1495 C 0.77889 0.33577 0.61734 0.0
H1496 H 0.44052 0.08544 0.42178 0.0
H1497 H 0.51209 0.11149 0.38711 0.0
H1498 H 0.53894 0.10736 0.42829 0.0
H1499 H 0.54117 0.09039 0.4717 0.0
H1500 H 0.46892 0.06418 0.50542 0.0
H1501 H 0.4432 0.07405 0.46698 0.0
C1502 C 0.46205 0.09086 0.42354 0.0
C1503 C 0.47434 0.09838 0.40151 0.0
C1504 C 0.47716 0.08774 0.44681 0.0
C1505 C 0.50223 0.10565 0.40396 0.0
C1506 C 0.51755 0.10294 0.42732 0.0
C1507 C 0.51981 0.0869 0.47052 0.0
C1508 C 0.50684 0.07614 0.491 0.0
C1509 C 0.50509 0.09289 0.4484 0.0
C1510 C 0.47928 0.07228 0.48973 0.0
C1511 C 0.46455 0.07797 0.46781 0.0
H1512 H 0.76552 0.76423 0.11201 0.0
H1513 H 0.84985 0.7728 0.1199 0.0
H1514 H 0.85466 0.78886 0.16826 0.0
H1515 H 0.83461 0.79805 0.20886 0.0
H1516 H 0.74999 0.78817 0.20127 0.0
H1517 H 0.74569 0.77512 0.15248 0.0
C1518 C 0.78502 0.76998 0.12423 0.0
C1519 C 0.80732 0.76737 0.11218 0.0
C1520 C 0.78757 0.77875 0.15224 0.0
C1521 C 0.83236 0.77466 0.1285 0.0
C1522 C 0.83511 0.78376 0.15624 0.0
C1523 C 0.8152 0.79324 0.19659 0.0
C1524 C 0.79264 0.79409 0.209 0.0
C1525 C 0.8128 0.78549 0.16843 0.0
C1526 C 0.76773 0.78768 0.19251 0.0
C1527 C 0.76523 0.78019 0.16451 0.0
H1528 H 0.0847 0.04273 0.72455 0.0
H1529 H 0.13536 0.12302 0.73357 0.0
H1530 H 0.11952 0.12566 0.68702 0.0
H1531 H 0.09331 0.10439 0.64261 0.0
H1532 H 0.04476 0.02308 0.63241 0.0
H1533 H 0.05757 0.02165 0.68004 0.0
C1534 C 0.09194 0.06089 0.71639 0.0
C1535 C 0.11113 0.08266 0.73261 0.0
C1536 C 0.08326 0.06205 0.68914 0.0
C1537 C 0.12061 0.10593 0.72156 0.0
C1538 C 0.11159 0.10747 0.69487 0.0
C1539 C 0.08529 0.08646 0.65087 0.0
C1540 C 0.06809 0.06391 0.6338 0.0
C1541 C 0.09322 0.08554 0.67829 0.0
C1542 C 0.05816 0.04074 0.64492 0.0
C1543 C 0.06546 0.03989 0.67226 0.0
H1544 H 0.76509 0.36382 0.46342 0.0
H1545 H 0.78234 0.43856 0.43326 0.0
H1546 H 0.78319 0.41549 0.38848 0.0
H1547 H 0.78715 0.37581 0.36088 0.0
H1548 H 0.77287 0.30115 0.39115 0.0
H1549 H 0.76267 0.32242 0.43314 0.0
C1550 C 0.76811 0.37486 0.44677 0.0
C1551 C 0.77389 0.40279 0.45147 0.0
C1552 C 0.76985 0.36161 0.42147 0.0
C1553 C 0.778 0.41703 0.42996 0.0
C1554 C 0.77873 0.4039 0.40449 0.0
C1555 C 0.78157 0.36411 0.37657 0.0
C1556 C 0.78146 0.33722 0.3734 0.0
C1557 C 0.7761 0.37647 0.4005 0.0
C1558 C 0.77344 0.32204 0.39344 0.0
C1559 C 0.76764 0.33418 0.41738 0.0
H1560 H 0.49949 0.03824 0.28746 0.0
H1561 H 0.49775 0.11614 0.27046 0.0
H1562 H 0.53205 0.1159 0.2416 0.0
H1563 H 0.55798 0.09107 0.21713 0.0
H1564 H 0.55579 1.01133 0.23099 0.0
H1565 H 0.52852 0.01529 0.26635 0.0
C1566 C 0.50677 0.0553 0.27763 0.0
C1567 C 0.49583 0.07696 0.28055 0.0
C1568 C 0.52594 0.05475 0.2608 0.0
C1569 C 0.5057 0.0991 0.26814 0.0
C1570 C 0.52529 0.09897 0.25173 0.0
C1571 C 0.55176 0.07468 0.22813 0.0
C1572 C 0.5584 0.05075 0.22112 0.0
C1573 C 0.5349 0.07653 0.24729 0.0
C1574 C 0.55097 0.02996 0.23603 0.0
C1575 C 0.53507 0.03208 0.25598 0.0
H1576 H 0.83231 0.77977 0.96857 0.0
H1577 H 0.7608 0.71578 0.93975 0.0
H1578 H 0.76097 0.72672 0.89428 0.0
H1579 H 0.78112 0.75456 0.86232 0.0
H1580 H 0.85347 0.81775 0.8905 0.0
H1581 H 0.85337 0.80688 0.93603 0.0
C1582 C 0.81672 0.76833 0.95235 0.0
C1583 C 0.79648 0.74707 0.95775 0.0
C1584 C 0.81715 0.77446 0.92589 0.0
C1585 C 0.77662 0.73227 0.93632 0.0
C1586 C 0.77669 0.73849 0.9102 0.0
C1587 C 0.79698 0.76589 0.87835 0.0
C1588 C 0.81725 0.78699 0.87273 0.0
C1589 C 0.79686 0.75951 0.90468 0.0
C1590 C 0.83762 0.80133 0.89396 0.0
C1591 C 0.83753 0.7952 0.92017 0.0
H1592 H 0.86276 0.13221 0.01987 0.0
H1593 H 0.84063 0.10421 0.09296 0.0
H1594 H 0.85356 0.0637 0.08021 0.0
H1595 H 0.87501 0.0384 0.05064 0.0
H1596 H 0.90088 0.06817 0.97961 0.0
H1597 H 0.88131 0.10498 0.9884 0.0
C1598 C 0.8607 0.11717 0.03291 0.0
C1599 C 0.85123 0.12135 0.05749 0.0
C1600 C 0.86843 0.09403 0.02562 0.0
C1601 C 0.84828 0.1016 0.07409 0.0
C1602 C 0.85551 0.07837 0.06677 0.0
C1603 C 0.87608 0.05278 0.03691 0.0
C1604 C 0.88969 0.05074 0.01477 0.0
C1605 C 0.86615 0.07467 0.04289 0.0
C1606 C 0.89035 0.06912 0.99674 0.0
C1607 C 0.87955 0.09046 1.00199 0.0
H1608 H 0.38324 0.48445 0.05237 0.0
H1609 H 0.41431 0.42848 0.09202 0.0
H1610 H 0.4597 0.45569 0.09257 0.0
H1611 H 0.49052 0.49436 0.08024 0.0
H1612 H 0.45954 0.55034 0.04035 0.0
H1613 H 0.41418 0.52419 0.04163 0.0
C1614 C 0.39995 0.47829 0.06126 0.0
C1615 C 0.39542 0.45443 0.07204 0.0
C1616 C 0.42601 0.49399 0.06143 0.0
C1617 C 0.41726 0.44674 0.08356 0.0
C1618 C 0.44323 0.46228 0.08385 0.0
C1619 C 0.47389 0.50098 0.07193 0.0
C1620 C 0.47852 0.52426 0.06009 0.0
C1621 C 0.44784 0.48579 0.0726 0.0
C1622 C 0.45664 0.5325 0.04955 0.0
C1623 C 0.43065 0.51753 0.05022 0.0
H1624 H 0.38645 0.58616 0.78506 0.0
H1625 H 0.46067 0.64822 0.80433 0.0
H1626 H 0.43641 0.68192 0.80995 0.0
H1627 H 0.39406 0.69349 0.81083 0.0
H1628 H 0.32003 0.63111 0.7918 0.0
H1629 H 0.34432 0.59773 0.78489 0.0
C1630 C 0.39734 0.60708 0.79035 0.0
C1631 C 0.42531 0.6147 0.79428 0.0
C1632 C 0.3833 0.62624 0.79377 0.0
C1633 C 0.43913 0.64186 0.80119 0.0
C1634 C 0.42527 0.66112 0.80444 0.0
C1635 C 0.38325 0.67262 0.80489 0.0
C1636 C 0.35527 0.66479 0.80192 0.0
C1637 C 0.39735 0.65351 0.80097 0.0
C1638 C 0.34156 0.63762 0.79457 0.0
C1639 C 0.35543 0.61854 0.79048 0.0
H1640 H 0.22645 0.66359 0.53014 0.0
H1641 H 0.24728 0.61852 0.5907 0.0
H1642 H 0.20051 0.59373 0.58731 0.0
H1643 H 0.15375 0.5858 0.56796 0.0
H1644 H 0.13292 0.63209 0.50852 0.0
H1645 H 0.1798 0.65549 0.51062 0.0
C1646 C 0.22076 0.64825 0.5425 0.0
C1647 C 0.2402 0.64283 0.56062 0.0
C1648 C 0.19391 0.63438 0.54068 0.0
C1649 C 0.2326 0.62304 0.57663 0.0
C1650 C 0.20591 0.60887 0.57469 0.0
C1651 C 0.15947 0.60089 0.55533 0.0
C1652 C 0.13991 0.60722 0.53813 0.0
C1653 C 0.18639 0.6145 0.5569 0.0
C1654 C 0.14761 0.62696 0.52205 0.0
C1655 C 0.1744 0.64032 0.5232 0.0
H1656 H 0.77688 0.04346 0.81513 0.0
H1657 H 0.71096 0.97214 0.79992 0.0
H1658 H 0.74012 0.94674 0.81691 0.0
H1659 H 0.78411 0.94455 0.83511 0.0
H1660 H 0.85104 1.01456 0.84826 0.0
H1661 H 0.82162 0.04104 0.83317 0.0
C1662 C 0.76897 0.02236 0.81555 0.0
C1663 C 0.74188 1.00963 0.80633 0.0
C1664 C 0.7859 1.00782 0.82512 0.0
C1665 C 0.7318 0.9823 0.80681 0.0
C1666 C 0.7484 0.9678 0.81661 0.0
C1667 C 0.79214 0.96574 0.83517 0.0
C1668 C 0.81943 0.97789 0.84327 0.0
C1669 C 0.7754 0.98037 0.82581 0.0
C1670 C 0.82993 1.00506 0.84241 0.0
C1671 C 0.81318 0.02006 0.83369 0.0
H1672 H 0.77988 0.98036 0.55394 0.0
H1673 H 0.7194 0.9078 0.55595 0.0
H1674 H 0.68506 0.93123 0.55122 0.0
H1675 H 0.6721 0.97207 0.54515 0.0
H1676 H 0.7328 0.04463 0.5435 0.0
H1677 H 0.76707 0.02137 0.54912 0.0
C1678 C 0.7592 0.96968 0.55347 0.0
C1679 C 0.75222 0.94236 0.55529 0.0
C1680 C 0.73955 0.98324 0.5506 0.0
C1681 C 0.72532 0.92884 0.55461 0.0
C1682 C 0.70566 0.94222 0.55186 0.0
C1683 C 0.69284 0.98288 0.54632 0.0
C1684 C 0.69978 1.01008 0.54377 0.0
C1685 C 0.71253 0.96939 0.54968 0.0
C1686 C 0.72679 0.02362 0.54497 0.0
C1687 C 0.74645 1.01037 0.54835 0.0
H1688 H 0.42391 0.45943 0.76563 0.0
H1689 H 0.38481 0.50337 0.8174 0.0
H1690 H 0.35109 0.46226 0.81959 0.0
H1691 H 0.33381 0.41333 0.8085 0.0
H1692 H 0.37377 0.36963 0.75741 0.0
H1693 H 0.40569 0.41099 0.75308 0.0
C1694 C 0.40796 0.46001 0.7773 0.0
C1695 C 0.40698 0.48438 0.79144 0.0
C1696 C 0.38867 0.43627 0.77858 0.0
C1697 C 0.38611 0.48482 0.80641 0.0
C1698 C 0.36677 0.46132 0.80766 0.0
C1699 C 0.34928 0.41293 0.79613 0.0
C1700 C 0.35139 0.3884 0.7834 0.0
C1701 C 0.36797 0.43686 0.79403 0.0
C1702 C 0.37171 0.38821 0.76759 0.0
C1703 C 0.39006 0.41187 0.7651 0.0
H1704 H 0.24641 0.6434 0.30997 0.0
H1705 H 0.23217 0.62965 0.2229 0.0
H1706 H 0.24972 0.67741 0.22265 0.0
H1707 H 0.26837 0.72275 0.24723 0.0
H1708 H 0.28098 0.7367 0.3344 0.0
H1709 H 0.26441 0.6889 0.33458 0.0
C1710 C 0.24737 0.65087 0.29095 0.0
C1711 C 0.23827 0.63321 0.26648 0.0
C1712 C 0.25689 0.67825 0.29101 0.0
C1713 C 0.23919 0.64302 0.24196 0.0
C1714 C 0.24913 0.67024 0.24182 0.0
C1715 C 0.26751 0.71536 0.26629 0.0
C1716 C 0.27592 0.73316 0.29076 0.0
C1717 C 0.25789 0.688 0.26623 0.0
C1718 C 0.27449 0.72335 0.31528 0.0
C1719 C 0.26515 0.69606 0.31541 0.0
H1720 H 0.54158 0.7283 0.53262 0.0
H1721 H 0.4829 0.69117 0.46249 0.0
H1722 H 0.48536 0.6472 0.47114 0.0
H1723 H 0.50498 0.61806 0.49784 0.0
H1724 H 0.56404 0.65513 0.56776 0.0
H1725 H 0.56053 0.699 0.55996 0.0
C1726 C 0.52913 0.71065 0.51928 0.0
C1727 C 0.51191 0.71378 0.49678 0.0
C1728 C 0.5308 0.68476 0.52427 0.0
C1729 C 0.49632 0.69008 0.47994 0.0
C1730 C 0.49775 0.66459 0.48487 0.0
C1731 C 0.51708 0.63564 0.51153 0.0
C1732 C 0.53487 0.63248 0.53355 0.0
C1733 C 0.51506 0.66148 0.50686 0.0
C1734 C 0.55015 0.65616 0.55068 0.0
C1735 C 0.54817 0.68162 0.54619 0.0
H1736 H 0.68713 0.32441 0.65533 0.0
H1737 H 0.64283 0.34059 0.71916 0.0
H1738 H 0.67852 0.33764 0.75269 0.0
H1739 H 0.72181 0.32922 0.76446 0.0
H1740 H 0.76741 0.31407 0.70158 0.0
H1741 H 0.73207 0.31793 0.66757 0.0
C1742 C 0.68538 0.3275 0.67658 0.0
C1743 C 0.66203 0.3327 0.68448 0.0
C1744 C 0.70631 0.32584 0.69614 0.0
C1745 C 0.66035 0.33659 0.71224 0.0
C1746 C 0.68083 0.33484 0.73157 0.0
C1747 C 0.72416 0.32679 0.74333 0.0
C1748 C 0.74742 0.3212 0.7358 0.0
C1749 C 0.70381 0.32925 0.72382 0.0
C1750 C 0.74991 0.3184 0.70819 0.0
C1751 C 0.7296 0.32056 0.68863 0.0
H1752 H 1.00214 0.36988 0.0212 0.0
H1753 H 0.06529 0.38254 0.97278 0.0
H1754 H 0.07371 0.43058 0.98445 0.0
H1755 H 0.0632 0.46999 1.00779 0.0
H1756 H 1.00051 0.45816 0.05674 0.0
H1757 H 0.99216 0.40987 0.04558 0.0
C1758 C 1.01785 0.38311 0.01332 0.0
C1759 C 0.03299 0.372 0.99599 0.0
C1760 C 0.02274 0.41136 0.02014 0.0
C1761 C 0.05317 0.38997 0.98608 0.0
C1762 C 0.05805 0.41772 0.99274 0.0
C1763 C 0.04765 0.45696 0.01606 0.0
C1764 C 0.03253 0.46832 0.03315 0.0
C1765 C 0.04293 0.4288 0.00963 0.0
C1766 C 1.01261 0.45053 0.04357 0.0
C1767 C 1.00777 0.42265 0.03716 0.0
H1768 H 0.04683 0.84122 0.20258 0.0
H1769 H 0.99703 0.79252 0.13085 0.0
H1770 H 0.95874 0.7845 0.15493 0.0
H1771 H 0.93942 0.79055 0.19667 0.0
H1772 H 0.98911 0.83951 0.26832 0.0
H1773 H 0.02717 0.84837 0.24397 0.0
C1774 C 0.02757 0.82893 0.19219 0.0
C1775 C 0.02488 0.81744 0.16494 0.0
C1776 C 1.00554 0.82444 0.20618 0.0
C1777 C 0.99972 0.80164 0.15179 0.0
C1778 C 0.97779 0.79699 0.16558 0.0
C1779 C 0.95861 0.80308 0.207 0.0
C1780 C 0.96133 0.81427 0.23437 0.0
C1781 C 0.98048 0.80812 0.19283 0.0
C1782 C 0.9863 0.83082 0.24724 0.0
C1783 C 1.00815 0.83579 0.23335 0.0
H1784 H 0.56196 0.36516 0.19945 0.0
H1785 H 0.52216 0.30171 0.1336 0.0
H1786 H 0.52569 0.33367 0.10223 0.0
H1787 H 0.54051 0.37958 0.09323 0.0
H1788 H 0.58041 0.44319 0.15888 0.0
H1789 H 0.57616 0.41137 0.19051 0.0
C1790 C 0.55399 0.35836 0.17825 0.0
C1791 C 0.54185 0.33105 0.16892 0.0
C1792 C 0.55608 0.37691 0.16023 0.0
C1793 C 0.5316 0.32259 0.14137 0.0
C1794 C 0.53364 0.34087 0.12337 0.0
C1795 C 0.54844 0.38648 0.11443 0.0
C1796 C 0.56084 0.41378 0.12358 0.0
C1797 C 0.54597 0.36805 0.13253 0.0
C1798 C 0.57056 0.42237 0.15125 0.0
C1799 C 0.56826 0.40414 0.16936 0.0
H1800 H 0.97659 0.31575 0.37131 0.0
H1801 H 1.00179 0.36519 0.31215 0.0
H1802 H 0.95531 0.36379 0.29711 0.0
H1803 H 0.90652 0.3484 0.30081 0.0
H1804 H 0.88282 0.29862 0.36039 0.0
H1805 H 0.92893 0.30048 0.37486 0.0
C1806 C 0.97206 0.32619 0.35501 0.0
C1807 C 0.99316 0.3405 0.34293 0.0
C1808 C 0.9451 0.32537 0.34647 0.0
C1809 C 0.98634 0.35388 0.3219 0.0
C1810 C 0.95957 0.35314 0.3133 0.0
C1811 C 0.9114 0.33809 0.31708 0.0
C1812 C 0.89051 0.32345 0.3294 0.0
C1813 C 0.93861 0.33901 0.32547 0.0
C1814 C 0.89784 0.31011 0.35031 0.0
C1815 C 0.92449 0.31111 0.35871 0.0
H1816 H 0.02399 0.71159 0.63319 0.0
H1817 H 0.05308 0.68297 0.70355 0.0
H1818 H 0.05919 0.64456 0.67473 0.0
H1819 H 0.05795 0.61978 0.62896 0.0
H1820 H 0.02738 0.64841 0.55913 0.0
H1821 H 1.02031 0.68577 0.58813 0.0
C1822 C 0.03148 0.69686 0.6423 0.0
C1823 C 0.0381 0.70037 0.67063 0.0
C1824 C 0.03491 0.67475 0.62555 0.0
C1825 C 0.04772 0.6809 0.6819 0.0
C1826 C 0.05135 0.65893 0.66536 0.0
C1827 C 0.04972 0.63418 0.62009 0.0
C1828 C 0.04341 0.63115 0.59168 0.0
C1829 C 0.04533 0.65576 0.63707 0.0
C1830 C 0.03245 0.64999 0.58076 0.0
C1831 C 0.02841 0.67151 0.5974 0.0
H1832 H 0.67587 0.86836 0.87133 0.0
H1833 H 0.62467 0.8202 0.80027 0.0
H1834 H 0.6633 0.81099 0.7824 0.0
H1835 H 0.71222 0.81542 0.78714 0.0
H1836 H 0.76332 0.86489 0.85775 0.0
H1837 H 0.72481 0.87457 0.87504 0.0
C1838 C 0.67306 0.85597 0.85182 0.0
C1839 C 0.64684 0.84507 0.83734 0.0
C1840 C 0.69572 0.85081 0.8414 0.0
C1841 C 0.6442 0.82906 0.81206 0.0
C1842 C 0.66649 0.82368 0.80178 0.0
C1843 C 0.71508 0.82846 0.80626 0.0
C1844 C 0.74129 0.83924 0.82093 0.0
C1845 C 0.69245 0.83426 0.81627 0.0
C1846 C 0.7439 0.85613 0.8457 0.0
C1847 C 0.72165 0.86171 0.85576 0.0
H1848 H 0.46012 0.55333 0.69269 0.0
H1849 H 0.53814 0.56239 0.7362 0.0
H1850 H 0.55699 0.56501 0.69426 0.0
H1851 H 0.55143 0.56439 0.64529 0.0
H1852 H 0.47342 0.55467 0.60128 0.0
H1853 H 0.45457 0.55279 0.64332 0.0
C1854 C 0.48126 0.55586 0.69301 0.0
C1855 C 0.49768 0.55763 0.71768 0.0
C1856 C 0.49201 0.55732 0.6687 0.0
C1857 C 0.52502 0.56092 0.71761 0.0
C1858 C 0.53583 0.56246 0.69359 0.0
C1859 C 0.53029 0.562 0.64478 0.0
C1860 C 0.51394 0.55977 0.61994 0.0
C1861 C 0.51953 0.56068 0.66902 0.0
C1862 C 0.48657 0.5565 0.61995 0.0
C1863 C 0.47574 0.55537 0.64404 0.0
H1864 H 0.78985 0.24987 0.03901 0.0
H1865 H 0.86171 0.23943 0.01152 0.0
H1866 H 0.85595 0.26581 0.97587 0.0
H1867 H 0.82811 0.28783 0.95012 0.0
H1868 H 0.7548 0.29557 0.97611 0.0
H1869 H 0.76388 0.27476 0.01538 0.0
C1870 C 0.80443 0.25359 0.0254 0.0
C1871 C 0.82599 0.24249 0.02759 0.0
C1872 C 0.8007 0.26824 1.00478 0.0
C1873 C 0.84486 0.24766 0.01005 0.0
C1874 C 0.84154 0.26267 0.98968 0.0
C1875 C 0.81419 0.28505 0.96448 0.0
C1876 C 0.79062 0.29281 0.96009 0.0
C1877 C 0.81915 0.2724 0.98646 0.0
C1878 C 0.77308 0.28979 0.97913 0.0
C1879 C 0.77816 0.2777 1.00142 0.0
H1880 H 0.11698 0.52785 0.21565 0.0
H1881 H 0.18114 0.51755 0.17316 0.0
H1882 H 0.15477 0.51845 0.13039 0.0
H1883 H 0.11633 0.52832 0.10651 0.0
H1884 H 0.05361 0.54191 0.1498 0.0
H1885 H 0.07678 0.53366 0.19104 0.0
C1886 C 0.12497 0.52517 0.19696 0.0
C1887 C 0.15103 0.52292 0.1975 0.0
C1888 C 0.11023 0.5269 0.17277 0.0
C1889 C 0.16113 0.51941 0.17319 0.0
C1890 C 0.14617 0.52017 0.14881 0.0
C1891 C 0.10759 0.52937 0.1249 0.0
C1892 C 0.08351 0.53625 0.12518 0.0
C1893 C 0.12117 0.52501 0.14858 0.0
C1894 C 0.07229 0.53701 0.14909 0.0
C1895 C 0.08549 0.53223 0.17267 0.0
H1896 H 0.83041 0.84578 0.47856 0.0
H1897 H 0.76492 0.88013 0.46517 0.0
H1898 H 0.76022 0.8657 0.41678 0.0
H1899 H 0.77547 0.84518 0.37797 0.0
H1900 H 0.84091 0.81058 0.38974 0.0
H1901 H 0.84473 0.8231 0.43878 0.0
C1902 C 0.81496 0.84984 0.46504 0.0
C1903 C 0.79808 0.86413 0.47566 0.0
C1904 C 0.81244 0.8416 0.43683 0.0
C1905 C 0.77825 0.86929 0.45773 0.0
C1906 C 0.77555 0.86106 0.42995 0.0
C1907 C 0.79065 0.84031 0.39114 0.0
C1908 C 0.80804 0.82712 0.37994 0.0
C1909 C 0.79272 0.84755 0.41924 0.0
C1910 C 0.82727 0.82076 0.39762 0.0
C1911 C 0.82948 0.82796 0.42574 0.0
H1912 H 0.50123 0.52299 0.86949 0.0
H1913 H 0.51974 0.60833 0.87412 0.0
H1914 H 0.53732 0.61437 0.92202 0.0
H1915 H 0.5454 0.59553 0.96322 0.0
H1916 H 0.52632 0.51014 0.95904 0.0
H1917 H 0.51118 0.50411 0.91056 0.0
C1918 C 0.50942 0.54291 0.8809 0.0
C1919 C 0.50915 0.56517 0.8681 0.0
C1920 C 0.51926 0.54627 0.90867 0.0
C1921 C 0.5197 0.59083 0.88333 0.0
C1922 C 0.52971 0.59432 0.91081 0.0
C1923 C 0.5381 0.57556 0.95175 0.0
C1924 C 0.53699 0.55333 0.96502 0.0
C1925 C 0.52926 0.57219 0.9238 0.0
C1926 C 0.52744 0.52766 0.94958 0.0
C1927 C 0.51872 0.52417 0.92176 0.0
H1928 H 0.85307 0.26483 0.14175 0.0
H1929 H 0.86437 0.19707 0.17637 0.0
H1930 H 0.85965 0.21819 0.22079 0.0
H1931 H 0.84419 0.25166 0.24717 0.0
H1932 H 0.82779 0.31701 0.21112 0.0
H1933 H 0.84241 0.30098 0.16966 0.0
C1934 C 0.8555 0.2552 0.15926 0.0
C1935 C 0.85903 0.22954 0.15604 0.0
C1936 C 0.85094 0.26661 0.18417 0.0
C1937 C 0.86173 0.21692 0.17862 0.0
C1938 C 0.85868 0.22883 0.20385 0.0
C1939 C 0.84403 0.26259 0.23037 0.0
C1940 C 0.83435 0.28515 0.232 0.0
C1941 C 0.85186 0.25296 0.20647 0.0
C1942 C 0.83468 0.29929 0.21019 0.0
C1943 C 0.84315 0.29022 0.18653 0.0
H1944 H 0.16385 0.60954 0.32603 0.0
H1945 H 0.13413 0.5251 0.32643 0.0
H1946 H 0.10262 0.5335 0.35617 0.0
H1947 H 0.08423 0.56495 0.3825 0.0
H1948 H 0.11502 0.64937 0.38331 0.0
H1949 H 0.1455 0.6409 0.35226 0.0
C1950 C 0.15047 0.59296 0.33262 0.0
C1951 C 0.15123 0.56674 0.32412 0.0
C1952 C 0.13259 0.59795 0.34968 0.0
C1953 C 0.13391 0.54546 0.33284 0.0
C1954 C 0.11587 0.55024 0.34972 0.0
C1955 C 0.09732 0.58142 0.37545 0.0
C1956 C 0.09726 0.60769 0.38469 0.0
C1957 C 0.11505 0.5764 0.3582 0.0
C1958 C 0.11473 0.629 0.37617 0.0
C1959 C 0.13213 0.62415 0.35857 0.0
H1960 H 0.81924 0.90559 0.6553 0.0
H1961 H 0.78802 0.82671 0.60877 0.0
H1962 H 0.78453 0.80766 0.65038 0.0
H1963 H 0.79113 0.81323 0.70003 0.0
H1964 H 0.82221 0.89219 0.74664 0.0
H1965 H 0.82474 0.91126 0.70505 0.0
C1966 C 0.81165 0.88421 0.65424 0.0
C1967 C 0.80401 0.86761 0.62882 0.0
C1968 C 0.8096 0.87337 0.67833 0.0
C1969 C 0.7941 0.83998 0.62794 0.0
C1970 C 0.79209 0.82906 0.65179 0.0
C1971 C 0.79833 0.83464 0.7012 0.0
C1972 C 0.80648 0.85117 0.72668 0.0
C1973 C 0.79987 0.84554 0.67711 0.0
C1974 C 0.81574 0.87889 0.7275 0.0
C1975 C 0.81728 0.88985 0.70365 0.0
H1976 H 0.75687 0.48354 0.58813 0.0
H1977 H 0.7817 0.51863 0.51925 0.0
H1978 H 0.75962 0.55314 0.52959 0.0
H1979 H 0.7299 0.57082 0.55546 0.0
H1980 H 0.70251 0.53456 0.62269 0.0
H1981 H 0.72974 0.5037 0.61641 0.0
C1982 C 0.75759 0.49888 0.57556 0.0
C1983 C 0.77051 0.49834 0.55277 0.0
C1984 C 0.74457 0.51857 0.58143 0.0
C1985 C 0.77156 0.51844 0.53674 0.0
C1986 C 0.75902 0.53824 0.54266 0.0
C1987 C 0.73015 0.55633 0.5689 0.0
C1988 C 0.71406 0.55472 0.58926 0.0
C1989 C 0.74498 0.53811 0.56455 0.0
C1990 C 0.71489 0.53627 0.60693 0.0
C1991 C 0.73019 0.51841 0.60315 0.0
H1992 H 0.22259 0.13882 0.54254 0.0
H1993 H 0.19367 0.20525 0.52463 0.0
H1994 H 0.14789 0.17869 0.52397 0.0
H1995 H 0.11631 0.13703 0.52972 0.0
H1996 H 0.14559 0.071 0.54862 0.0
H1997 H 0.19103 0.09701 0.54752 0.0
C1998 C 0.20627 0.14748 0.5384 0.0
C1999 C 0.21151 0.17398 0.53368 0.0
C2000 C 0.18008 0.13218 0.53823 0.0
C2001 C 0.19015 0.1849 0.52836 0.0
C2002 C 0.16399 0.16973 0.52798 0.0
C2003 C 0.13259 0.12822 0.53341 0.0
C2004 C 0.12749 0.10205 0.53924 0.0
C2005 C 0.15874 0.14339 0.53304 0.0
C2006 C 0.14889 0.09108 0.54413 0.0
C2007 C 0.17491 0.10595 0.54352 0.0
H2008 H 0.2267 0.04899 0.80302 0.0
H2009 H 0.15242 0.987 0.7851 0.0
H2010 H 0.17653 0.95336 0.77744 0.0
H2011 H 0.21888 0.94174 0.77598 0.0
H2012 H 0.29292 1.00418 0.79524 0.0
H2013 H 0.26866 0.0375 0.80188 0.0
C2014 C 0.21575 0.02812 0.79739 0.0
C2015 C 0.18783 0.02048 0.79461 0.0
C2016 C 0.2297 1.00899 0.79315 0.0
C2017 C 0.17394 0.99337 0.78736 0.0
C2018 C 0.18771 0.97415 0.78299 0.0
C2019 C 0.22971 0.96262 0.7818 0.0
C2020 C 0.25771 0.97041 0.78495 0.0
C2021 C 0.21562 0.98174 0.7859 0.0
C2022 C 0.27139 0.99761 0.79219 0.0
C2023 C 0.25754 0.0167 0.7962 0.0
H2024 H 0.39878 1.00507 0.06638 0.0
H2025 H 0.38945 0.98896 0.97944 0.0
H2026 H 0.43771 1.00432 0.98127 0.0
H2027 H 0.48216 0.02189 1.00761 0.0
H2028 H 0.49156 0.0367 0.09468 0.0
H2029 H 0.44334 0.02184 0.09277 0.0
C2030 C 0.40733 1.00512 0.04783 0.0
C2031 C 0.39076 0.99616 0.02281 0.0
C2032 C 0.43494 1.01344 0.04909 0.0
C2033 C 0.40195 0.99591 0.99892 0.0
C2034 C 0.42946 1.0046 0.99997 0.0
C2035 C 0.47369 0.02183 0.0262 0.0
C2036 C 0.49033 0.03042 0.05125 0.0
C2037 C 0.44609 1.01329 0.02495 0.0
C2038 C 0.47911 0.03008 0.07515 0.0
C2039 C 0.45158 0.02172 0.07408 0.0
H2040 H 0.86445 0.60683 0.76763 0.0
H2041 H 0.85486 0.60955 0.85154 0.0
H2042 H 0.81718 0.62797 0.84364 0.0
H2043 H 0.78934 0.64629 0.81381 0.0
H2044 H 0.8024 0.64828 0.73118 0.0
H2045 H 0.83511 0.62343 0.73723 0.0
C2046 C 0.85407 0.61144 0.78416 0.0
C2047 C 0.86259 0.60725 0.81018 0.0
C2048 C 0.83269 0.62233 0.77957 0.0
C2049 C 0.84887 0.61302 0.83139 0.0
C2050 C 0.82723 0.62335 0.82687 0.0
C2051 C 0.79924 0.64119 0.79707 0.0
C2052 C 0.79369 0.64957 0.77225 0.0
C2053 C 0.81929 0.6285 0.80115 0.0
C2054 C 0.80606 0.64198 0.75049 0.0
C2055 C 0.82516 0.62816 0.75405 0.0
H2056 H 0.82569 0.65023 0.06653 0.0
H2057 H 0.87428 0.69527 0.01584 0.0
H2058 H 0.90524 0.66799 0.02003 0.0
H2059 H 0.91851 0.63136 0.0381 0.0
H2060 H 0.87083 0.58762 0.09043 0.0
H2061 H 0.83933 0.61401 0.08512 0.0
C2062 C 0.84304 0.65405 0.05637 0.0
C2063 C 0.84766 0.67476 0.04088 0.0
C2064 C 0.86087 0.63841 0.05903 0.0
C2065 C 0.87027 0.67949 0.02791 0.0
C2066 C 0.88798 0.66388 0.03028 0.0
C2067 C 0.9014 0.62773 0.0486 0.0
C2068 C 0.89717 0.60739 0.06463 0.0
C2069 C 0.88353 0.64333 0.04586 0.0
C2070 C 0.8745 0.60277 0.07761 0.0
C2071 C 0.85653 0.61803 0.07477 0.0
H2072 H 0.23121 0.14983 0.83025 0.0
H2073 H 0.15942 0.17456 0.81724 0.0
H2074 H 0.18577 0.21972 0.81516 0.0
H2075 H 0.22883 0.251 0.81342 0.0
H2076 H 0.30074 0.22649 0.82664 0.0
H2077 H 0.27466 0.18233 0.83245 0.0
C2078 C 0.22135 0.16519 0.82727 0.0
C2079 C 0.19341 0.15885 0.82365 0.0
C2080 C 0.23661 0.19101 0.82592 0.0
C2081 C 0.1809 0.17896 0.82005 0.0
C2082 C 0.19595 0.20473 0.81872 0.0
C2083 C 0.23882 0.23602 0.81766 0.0
C2084 C 0.26663 0.24183 0.81919 0.0
C2085 C 0.22375 0.21078 0.821 0.0
C2086 C 0.27935 0.22244 0.82526 0.0
C2087 C 0.26445 0.19719 0.8285 0.0
H2088 H 0.36326 0.98976 0.29233 0.0
H2089 H 0.43757 0.9817 0.33069 0.0
H2090 H 0.41966 0.93319 0.32264 0.0
H2091 H 0.38225 0.89323 0.30616 0.0
H2092 H 0.30667 0.90169 0.27199 0.0
H2093 H 0.32568 0.94995 0.27659 0.0
C2094 C 0.37551 0.97731 0.29878 0.0
C2095 C 0.4016 0.98905 0.31199 0.0
C2096 C 0.36487 0.9496 0.29474 0.0
C2097 C 0.41731 0.97292 0.32058 0.0
C2098 C 0.40715 0.94526 0.31591 0.0
C2099 C 0.37016 0.90571 0.29943 0.0
C2100 C 0.34332 0.89424 0.28856 0.0
C2101 C 0.38091 0.93341 0.30317 0.0
C2102 C 0.32747 0.91037 0.28038 0.0
C2103 C 0.33828 0.93786 0.28305 0.0
H2104 H 0.54859 0.3865 0.57889 0.0
H2105 H 0.63056 0.42155 0.6145 0.0
H2106 H 0.62826 0.46471 0.60271 0.0
H2107 H 0.60257 0.49385 0.583 0.0
H2108 H 0.52014 0.45838 0.54871 0.0
H2109 H 0.5232 0.41527 0.55908 0.0
C2110 C 0.56609 0.40346 0.58392 0.0
C2111 C 0.58986 0.40011 0.59758 0.0
C2112 C 0.56454 0.42878 0.57733 0.0
C2113 C 0.61199 0.42293 0.60398 0.0
C2114 C 0.61066 0.4479 0.59723 0.0
C2115 C 0.58525 0.47673 0.57763 0.0
C2116 C 0.56105 0.48014 0.56485 0.0
C2117 C 0.587 0.45131 0.584 0.0
C2118 C 0.53907 0.45714 0.55848 0.0
C2119 C 0.54077 0.43212 0.56444 0.0
H2120 H 0.45498 0.78411 0.38302 0.0
H2121 H 0.42187 0.80313 0.45461 0.0
H2122 H 0.38378 0.81032 0.42691 0.0
H2123 H 0.35972 0.81188 0.38168 0.0
H2124 H 0.39294 0.79089 0.31057 0.0
H2125 H 0.4306 0.78405 0.33847 0.0
C2126 C 0.4394 0.78972 0.39263 0.0
C2127 C 0.44155 0.79305 0.42104 0.0
C2128 C 0.41737 0.79369 0.37649 0.0
C2129 C 0.42093 0.8003 0.43289 0.0
C2130 C 0.39909 0.80454 0.41698 0.0
C2131 C 0.37525 0.8059 0.3723 0.0
C2132 C 0.37324 0.80206 0.3438 0.0
C2133 C 0.39707 0.80146 0.38867 0.0
C2134 C 0.3936 0.79397 0.33227 0.0
C2135 C 0.41534 0.79004 0.34828 0.0
H2136 H 0.0494 0.72731 0.11009 0.0
H2137 H 0.11778 0.75098 0.07019 0.0
H2138 H 0.11605 0.70397 0.05681 0.0
H2139 H 0.09499 0.65508 0.0566 0.0
H2140 H 0.02583 0.63289 0.09602 0.0
H2141 H 0.02814 0.67952 0.1091 0.0
C2142 C 0.06393 0.72232 0.09834 0.0
C2143 C 0.0837 0.74316 0.09123 0.0
C2144 C 0.06274 0.69503 0.09056 0.0
C2145 C 0.10221 0.73575 0.07597 0.0
C2146 C 0.10128 0.70867 0.06835 0.0
C2147 C 0.08048 0.6604 0.06814 0.0
C2148 C 0.06018 0.63979 0.07513 0.0
C2149 C 0.08167 0.68794 0.07559 0.0
C2150 C 0.04159 0.6477 0.08997 0.0
C2151 C 0.04289 0.67465 0.09762 0.0
H2152 H 0.0586 0.28885 0.88095 0.0
H2153 H 0.11286 0.3034 0.95538 0.0
H2154 H 0.15066 0.31156 0.93056 0.0
H2155 H 0.16849 0.3159 0.88778 0.0
H2156 H 0.1141 0.30137 0.81339 0.0
H2157 H 0.07639 0.2922 0.8381 0.0
C2158 C 0.07869 0.29366 0.89174 0.0
C2159 C 0.08282 0.29546 0.92003 0.0
C2160 C 0.10041 0.29856 0.87733 0.0
C2161 C 0.10904 0.30184 0.93364 0.0
C2162 C 0.1307 0.30656 0.91944 0.0
C2163 C 0.14839 0.31046 0.87691 0.0
C2164 C 0.1443 0.30949 0.84867 0.0
C2165 C 0.12666 0.30514 0.89129 0.0
C2166 C 0.118 0.30272 0.8351 0.0
C2167 C 0.09635 0.2973 0.84922 0.0
H2168 H 0.55295 0.76146 0.89693 0.0
H2169 H 0.59333 0.82567 0.96183 0.0
H2170 H 0.58954 0.79431 0.99389 0.0
H2171 H 0.5737 0.74872 1.00386 0.0
H2172 H 0.53322 0.68451 0.93896 0.0
H2173 H 0.53794 0.7157 0.90676 0.0
C2174 C 0.56102 0.76857 0.91807 0.0
C2175 C 0.57341 0.79593 0.92691 0.0
C2176 C 0.55862 0.7504 0.93651 0.0
C2177 C 0.58369 0.80476 0.95442 0.0
C2178 C 0.58152 0.78682 0.97281 0.0
C2179 C 0.56615 0.74149 0.98263 0.0
C2180 C 0.553 0.71424 0.97397 0.0
C2181 C 0.56891 0.75959 0.96413 0.0
C2182 C 0.54307 0.70538 0.94635 0.0
C2183 C 0.54588 0.72321 0.92785 0.0
H2184 H 0.13923 0.80889 0.72525 0.0
H2185 H 0.11381 0.76237 0.78657 0.0
H2186 H 0.16031 0.76554 0.80341 0.0
H2187 H 0.20913 0.78154 0.8007 0.0
H2188 H 0.23332 0.82841 0.73903 0.0
H2189 H 0.18714 0.82496 0.72276 0.0
C2190 C 0.14374 0.79949 0.7424 0.0
C2191 C 0.12257 0.78544 0.75454 0.0
C2192 C 0.17074 0.80135 0.75202 0.0
C2193 C 0.12932 0.77342 0.77672 0.0
C2194 C 0.1561 0.77518 0.78637 0.0
C2195 C 0.20436 0.79092 0.78363 0.0
C2196 C 0.22536 0.8052 0.77125 0.0
C2197 C 0.17715 0.78904 0.77417 0.0
C2198 C 0.21818 0.81726 0.74922 0.0
C2199 C 0.1915 0.81533 0.73977 0.0
H2200 H 0.07722 0.44561 0.40236 0.0
H2201 H 0.08137 0.39926 0.4665 0.0
H2202 H 0.07868 0.43626 0.49915 0.0
H2203 H 0.07387 0.48143 0.50992 0.0
H2204 H 0.07048 0.5288 0.4466 0.0
H2205 H 0.07425 0.49217 0.4137 0.0
C2206 C 0.07772 0.44368 0.4235 0.0
C2207 C 0.07947 0.41942 0.43175 0.0
C2208 C 0.07621 0.46534 0.44253 0.0
C2209 C 0.08006 0.4175 0.45935 0.0
C2210 C 0.07846 0.43873 0.47817 0.0
C2211 C 0.07402 0.48388 0.48895 0.0
C2212 C 0.07176 0.50805 0.48097 0.0
C2213 C 0.07631 0.46268 0.47003 0.0
C2214 C 0.07218 0.5106 0.45357 0.0
C2215 C 0.0743 0.48954 0.43463 0.0
H2216 H 0.44137 0.24488 0.23552 0.0
H2217 H 0.49212 0.31754 0.28365 0.0
H2218 H 0.45341 0.32816 0.29969 0.0
H2219 H 0.40432 0.31785 0.29953 0.0
H2220 H 0.35371 0.24404 0.25335 0.0
H2221 H 0.39244 0.23319 0.23761 0.0
C2222 C 0.44409 0.26296 0.24971 0.0
C2223 C 0.47023 0.28029 0.25818 0.0
C2224 C 0.42136 0.26896 0.25932 0.0
C2225 C 0.47271 0.30358 0.27665 0.0
C2226 C 0.45035 0.3098 0.28585 0.0
C2227 C 0.40164 0.29929 0.28611 0.0
C2228 C 0.37548 0.28195 0.27778 0.0
C2229 C 0.42444 0.2928 0.27725 0.0
C2230 C 0.37312 0.25796 0.26041 0.0
C2231 C 0.39549 0.25169 0.25123 0.0
H2232 H 0.58427 0.53286 0.37714 0.0
H2233 H 0.64766 0.60509 0.40532 0.0
H2234 H 0.63739 0.60493 0.45109 0.0
H2235 H 0.61027 0.58473 0.4835 0.0
H2236 H 0.54725 0.51206 0.45601 0.0
H2237 H 0.55766 0.51186 0.41016 0.0
C2238 C 0.59572 0.5486 0.3933 0.0
C2239 C 0.61663 0.56902 0.38762 0.0
C2240 C 0.58992 0.54825 0.41994 0.0
C2241 C 0.63144 0.58911 0.40895 0.0
C2242 C 0.62561 0.58905 0.43525 0.0
C2243 C 0.59891 0.56871 0.46757 0.0
C2244 C 0.57799 0.54845 0.47344 0.0
C2245 C 0.60493 0.56873 0.44105 0.0
C2246 C 0.56353 0.52792 0.45231 0.0
C2247 C 0.5694 0.52783 0.42593 0.0
H2248 H 0.35916 0.92005 0.07848 0.0
H2249 H 0.27463 0.89853 0.08061 0.0
H2250 H 0.27964 0.86643 0.11053 0.0
H2251 H 0.30825 0.84514 0.1364 0.0
H2252 H 0.39278 0.86739 0.13467 0.0
H2253 H 0.38757 0.89873 0.10396 0.0
C2254 C 0.3418 0.90835 0.08549 0.0
C2255 C 0.31656 0.91158 0.07742 0.0
C2256 C 0.34484 0.89007 0.10254 0.0
C2257 C 0.29427 0.89638 0.08666 0.0
C2258 C 0.29711 0.87801 0.10366 0.0
C2259 C 0.32544 0.85656 0.1289 0.0
C2260 C 0.35082 0.85388 0.13742 0.0
C2261 C 0.32231 0.87469 0.11166 0.0
C2262 C 0.37308 0.86918 0.12823 0.0
C2263 C 0.3701 0.88706 0.11077 0.0
H2264 H 0.93643 0.57551 0.91909 0.0
H2265 H 1.00533 0.60929 0.88317 0.0
H2266 H 0.03457 0.60663 0.92342 0.0
H2267 H 0.04009 0.58895 0.96622 0.0
H2268 H 0.97007 0.5531 0.99988 0.0
H2269 H 0.9418 0.56216 0.96304 0.0
C2270 C 0.95786 0.58276 0.92026 0.0
C2271 C 0.96877 0.5922 0.89819 0.0
C2272 C 0.97435 0.58025 0.94283 0.0
C2273 C 0.99651 0.60185 0.90001 0.0
C2274 C 1.01321 0.60008 0.92287 0.0
C2275 C 1.01867 0.58331 0.9655 0.0
C2276 C 1.00718 0.56975 0.98532 0.0
C2277 C 1.00231 0.58832 0.94397 0.0
C2278 C 0.97941 0.5629 0.98445 0.0
C2279 C 0.96317 0.56824 0.9635 0.0
H2280 H 0.31115 0.23217 0.63517 0.0
H2281 H 0.27956 0.29233 0.60456 0.0
H2282 H 0.27856 0.31246 0.65084 0.0
H2283 H 0.28648 0.31262 0.70049 0.0
H2284 H 0.31849 0.25184 0.72963 0.0
H2285 H 0.31931 0.23246 0.68369 0.0
C2286 C 0.30412 0.24977 0.63854 0.0
C2287 C 0.29548 0.2607 0.61633 0.0
C2288 C 0.30353 0.26112 0.66511 0.0
C2289 C 0.28643 0.28351 0.62123 0.0
C2290 C 0.28577 0.29498 0.64773 0.0
C2291 C 0.29349 0.29506 0.69676 0.0
C2292 C 0.30234 0.2838 0.71876 0.0
C2293 C 0.29417 0.28389 0.66992 0.0
C2294 C 0.31157 0.26113 0.71336 0.0
C2295 C 0.31209 0.24992 0.68697 0.0
H2296 H 0.58959 0.59553 0.23437 0.0
H2297 H 0.60734 0.51978 0.2211 0.0
H2298 H 0.59457 0.51623 0.17263 0.0
H2299 H 0.58115 0.53559 0.13373 0.0
H2300 H 0.56226 0.61077 0.14571 0.0
H2301 H 0.57269 0.61358 0.19477 0.0
C2302 C 0.59027 0.57808 0.22089 0.0
C2303 C 0.59953 0.55798 0.23153 0.0
C2304 C 0.58303 0.5762 0.19271 0.0
C2305 C 0.60036 0.53557 0.21364 0.0
C2306 C 0.59317 0.53356 0.18582 0.0
C2307 C 0.57922 0.55263 0.14698 0.0
C2308 C 0.5712 0.57311 0.13587 0.0
C2309 C 0.58498 0.55396 0.17509 0.0
C2310 C 0.56847 0.59476 0.15357 0.0
C2311 C 0.57447 0.59637 0.18168 0.0
H2312 H 0.28388 0.88006 0.96438 0.0
H2313 H 0.27163 0.94639 0.92751 0.0
H2314 H 0.27071 0.92175 0.88286 0.0
H2315 H 0.28013 0.88437 0.85552 0.0
H2316 H 0.29585 0.81968 0.89332 0.0
H2317 H 0.28875 0.84081 0.93653 0.0
C2318 C 0.28041 0.88891 0.94653 0.0
C2319 C 0.27817 0.91509 0.94916 0.0
C2320 C 0.2811 0.87517 0.92121 0.0
C2321 C 0.27355 0.92629 0.92592 0.0
C2322 C 0.27325 0.9123 0.90045 0.0
C2323 C 0.28172 0.87471 0.87313 0.0
C2324 C 0.289 0.85074 0.87132 0.0
C2325 C 0.27815 0.88722 0.89802 0.0
C2326 C 0.29068 0.83836 0.89426 0.0
C2327 C 0.28656 0.85038 0.91897 0.0
H2328 H 0.97428 0.53016 0.76931 0.0
H2329 H 0.98055 0.61262 0.76362 0.0
H2330 H 1.01126 0.61186 0.73083 0.0
H2331 H 0.03407 0.58693 0.70207 0.0
H2332 H 0.0259 0.50389 0.70643 0.0
H2333 H 0.99879 0.50596 0.74231 0.0
C2334 C 0.98242 0.54801 0.76096 0.0
C2335 C 0.97499 0.57133 0.76856 0.0
C2336 C 0.99986 0.54736 0.74216 0.0
C2337 C 0.98588 0.59438 0.75786 0.0
C2338 C 1.00343 0.59396 0.73919 0.0
C2339 C 0.02639 0.56931 0.71095 0.0
C2340 C 0.03173 0.54522 0.70147 0.0
C2341 C 1.01022 0.57044 0.73093 0.0
C2342 C 0.02222 0.5227 0.71353 0.0
C2343 C 1.0065 0.5238 0.73382 0.0
H2344 H 0.27537 0.21722 0.44064 0.0
H2345 H 0.33476 0.28663 0.48508 0.0
H2346 H 0.34248 0.30371 0.44292 0.0
H2347 H 0.33154 0.29944 0.39335 0.0
H2348 H 0.2717 0.22997 0.34934 0.0
H2349 H 0.26522 0.21243 0.39124 0.0
C2350 C 0.29003 0.2361 0.44116 0.0
C2351 C 0.30438 0.25065 0.46612 0.0
C2352 C 0.29437 0.24579 0.4168 0.0
C2353 C 0.32336 0.27502 0.46625 0.0
C2354 C 0.32781 0.28479 0.4421 0.0
C2355 C 0.31726 0.28033 0.39284 0.0
C2356 C 0.30216 0.26611 0.368 0.0
C2357 C 0.31336 0.27039 0.41722 0.0
C2358 C 0.28362 0.24145 0.36798 0.0
C2359 C 0.27983 0.23139 0.39203 0.0
H2360 H 0.32852 0.61034 0.51249 0.0
H2361 H 0.40114 0.67009 0.54911 0.0
H2362 H 0.42732 0.64275 0.5293 0.0
H2363 H 0.42952 0.60073 0.50497 0.0
H2364 H 0.3575 0.53911 0.47103 0.0
H2365 H 0.33084 0.56851 0.48623 0.0
C2366 C 0.35007 0.6174 0.51591 0.0
C2367 C 0.36299 0.64203 0.53229 0.0
C2368 C 0.36496 0.60133 0.50496 0.0
C2369 C 0.39086 0.65104 0.53674 0.0
C2370 C 0.40579 0.63549 0.52538 0.0
C2371 C 0.40798 0.59399 0.50023 0.0
C2372 C 0.39537 0.56804 0.48661 0.0
C2373 C 0.39304 0.61049 0.50984 0.0
C2374 C 0.36749 0.55916 0.48133 0.0
C2375 C 0.35235 0.57587 0.49013 0.0
H2376 H 0.88036 0.98635 0.57056 0.0
H2377 H 0.90443 0.91442 0.55283 0.0
H2378 H 0.94952 0.9408 0.55121 0.0
H2379 H 0.98158 0.98383 0.55308 0.0
H2380 H 0.95875 0.05637 0.57109 0.0
H2381 H 0.9137 0.03019 0.57465 0.0
C2382 C 0.89553 0.9765 0.56648 0.0
C2383 C 0.88899 0.94843 0.56166 0.0
C2384 C 0.92157 0.99185 0.56559 0.0
C2385 C 0.90888 0.93595 0.55654 0.0
C2386 C 0.93468 0.95102 0.55558 0.0
C2387 C 0.96679 0.99402 0.55777 0.0
C2388 C 0.97343 0.02204 0.56148 0.0
C2389 C 0.94114 0.97892 0.55976 0.0
C2390 C 0.95414 0.03484 0.56807 0.0
C2391 C 0.92837 0.01987 0.57002 0.0
H2392 H 0.89251 0.07824 0.30471 0.0
H2393 H 0.95645 0.13589 0.28063 0.0
H2394 H 0.93195 0.1695 0.28614 0.0
H2395 H 0.8919 0.18208 0.29719 0.0
H2396 H 0.82936 0.12441 0.3235 0.0
H2397 H 0.85369 0.09117 0.31738 0.0
C2398 C 0.9011 0.09815 0.3006 0.0
C2399 C 0.92617 0.10454 0.29212 0.0
C2400 C 0.88709 0.11733 0.30411 0.0
C2401 C 0.93714 0.13048 0.28714 0.0
C2402 C 0.92314 0.14968 0.29029 0.0
C2403 C 0.88372 0.16236 0.30191 0.0
C2404 C 0.85862 0.1558 0.31055 0.0
C2405 C 0.89806 0.14331 0.29876 0.0
C2406 C 0.84829 0.12996 0.31625 0.0
C2407 C 0.86229 0.11092 0.31295 0.0
H2408 H 0.7451 0.11831 0.0534 0.0
H2409 H 0.73771 0.19257 0.09401 0.0
H2410 H 0.68936 0.17403 0.08866 0.0
H2411 H 0.64941 0.13636 0.07289 0.0
H2412 H 0.6576 0.06112 0.03575 0.0
H2413 H 0.70559 0.08041 0.03906 0.0
C2414 C 0.73285 0.13041 0.061 0.0
C2415 C 0.74469 0.15669 0.07393 0.0
C2416 C 0.70534 0.11948 0.05839 0.0
C2417 C 0.72883 0.17219 0.08405 0.0
C2418 C 0.70128 0.16166 0.08092 0.0
C2419 C 0.66177 0.12436 0.06534 0.0
C2420 C 0.65027 0.09756 0.05391 0.0
C2421 C 0.68934 0.13532 0.06813 0.0
C2422 C 0.66628 0.08187 0.04462 0.0
C2423 C 0.69361 0.09285 0.04651 0.0
H2424 H 0.24245 0.50713 0.33018 0.0
H2425 H 0.28464 0.53219 0.26537 0.0
H2426 H 0.32014 0.51336 0.28137 0.0
H2427 H 0.33673 0.48595 0.31085 0.0
H2428 H 0.29251 0.45759 0.37319 0.0
H2429 H 0.2611 0.48283 0.36208 0.0
C2430 C 0.25948 0.50854 0.31965 0.0
C2431 C 0.26077 0.52053 0.29639 0.0
C2432 C 0.27966 0.49749 0.3288 0.0
C2433 C 0.28308 0.52266 0.28312 0.0
C2434 C 0.30343 0.51204 0.29232 0.0
C2435 C 0.3204 0.4856 0.32223 0.0
C2436 C 0.31672 0.46961 0.34248 0.0
C2437 C 0.3016 0.49889 0.31475 0.0
C2438 C 0.29591 0.46985 0.35757 0.0
C2439 C 0.27766 0.48393 0.35094 0.0
H2440 H 0.23638 0.4236 0.02803 0.0
H2441 H 0.28817 0.48201 0.09245 0.0
H2442 H 0.25887 0.51092 0.08862 0.0
H2443 H 0.21897 0.52012 0.06648 0.0
H2444 H 0.16759 0.46248 1.00126 0.0
H2445 H 0.19636 0.43298 1.00565 0.0
C2446 C 0.24114 0.44259 0.04131 0.0
C2447 C 0.26438 0.45057 0.06057 0.0
C2448 C 0.22437 0.45937 0.03871 0.0
C2449 C 0.27042 0.47536 0.07746 0.0
C2450 C 0.25367 0.49194 0.07527 0.0
C2451 C 0.21396 0.50102 0.05335 0.0
C2452 C 0.19112 0.49354 0.03359 0.0
C2453 C 0.23066 0.48422 0.05591 0.0
C2454 C 0.18518 0.46887 0.01646 0.0
C2455 C 0.20155 0.45192 0.01906 0.0
H2456 H 0.88109 0.97849 0.27378 0.0
H2457 H 0.95109 0.95174 0.29161 0.0
H2458 H 0.92321 0.90751 0.29429 0.0
H2459 H 0.87944 0.8771 0.29317 0.0
H2460 H 0.80887 0.90291 0.27532 0.0
H2461 H 0.83659 0.94698 0.27089 0.0
C2462 C 0.89021 0.96292 0.27812 0.0
C2463 C 0.91813 0.9684 0.28262 0.0
C2464 C 0.87402 0.9375 0.27973 0.0
C2465 C 0.92968 0.94804 0.28813 0.0
C2466 C 0.91376 0.92277 0.28971 0.0
C2467 C 0.87 0.89233 0.28838 0.0
C2468 C 0.8421 0.88682 0.28491 0.0
C2469 C 0.88597 0.91741 0.28585 0.0
C2470 C 0.8303 0.90667 0.27819 0.0
C2471 C 0.84614 0.93186 0.2757 0.0
H2472 H 0.72602 0.13601 0.75408 0.0
H2473 H 0.72801 0.13998 0.8401 0.0
H2474 H 0.74856 0.18814 0.84681 0.0
H2475 H 0.76631 0.22892 0.82806 0.0
H2476 H 0.76422 0.22419 0.74183 0.0
H2477 H 0.7432 0.17645 0.73542 0.0
C2478 C 0.73094 0.1474 0.77431 0.0
C2479 C 0.72558 0.13454 0.79656 0.0
C2480 C 0.74267 0.17491 0.77797 0.0
C2481 C 0.73201 0.14951 0.82265 0.0
C2482 C 0.74372 0.17701 0.82649 0.0
C2483 C 0.76115 0.21745 0.80787 0.0
C2484 C 0.76685 0.2301 0.78549 0.0
C2485 C 0.74916 0.1899 0.80427 0.0
C2486 C 0.76011 0.21496 0.75945 0.0
C2487 C 0.74809 0.18764 0.75572 0.0
loop_
_geom_bond_atom_site_label_1
_geom_bond_atom_site_label_2
_geom_bond_distance
_geom_bond_site_symmetry_2
_ccdc_geom_bond_type
In0 O1 2.294 . S
In0 O2 2.326 . S
In0 O6 2.266 . S
In0 O7 2.278 1_455 S
In0 O8 2.266 . S
In0 O9 2.326 . S
In0 O11 2.294 . S
In0 O12 2.326 . S
O1 In0 2.294 . S
O1 C10 1.240 . S
O2 In0 2.326 . S
O2 C10 1.252 . S
C3 O6 1.252 1_655 S
C3 O7 1.265 . S
C4 O11 1.240 . S
C4 O12 1.252 . S
C5 O8 1.252 . S
C5 O9 1.260 . S
O6 In0 2.266 . S
O6 C3 1.252 1_455 S
O7 In0 2.278 1_655 S
O7 C3 1.265 . S
O8 In0 2.266 . S
O8 C5 1.252 . S
O9 In0 2.326 . S
O9 C5 1.260 . S
C10 O1 1.240 . S
C10 O2 1.252 . S
O11 In0 2.294 . S
O11 C4 1.240 . S
O12 In0 2.326 . S
O12 C4 1.252 . S
In13 O14 2.294 . S
In13 O15 2.326 . S
In13 O19 2.266 . S
In13 O20 2.326 . S
In13 O21 2.266 . S
In13 O22 2.326 1_455 S
In13 O24 2.294 . S
In13 O25 2.326 . S
O14 In13 2.294 . S
O14 C23 1.240 . S
O15 In13 2.326 . S
O15 C23 1.252 . S
C16 O19 1.252 . S
C16 O20 1.260 . S
C17 O24 1.240 . S
C17 O25 1.252 . S
C18 O21 1.252 1_655 S
C18 O22 1.260 . S
O19 In13 2.266 . S
O19 C16 1.252 . S
O20 In13 2.326 . S
O20 C16 1.260 . S
O21 In13 2.266 . S
O21 C18 1.252 1_455 S
O22 In13 2.326 1_655 S
O22 C18 1.260 . S
C23 O14 1.240 . S
C23 O15 1.252 . S
O24 In13 2.294 . S
O24 C17 1.240 . S
O25 In13 2.326 . S
O25 C17 1.252 . S
In26 O27 2.294 . S
In26 O28 2.326 . S
In26 O32 2.266 . S
In26 O33 2.326 . S
In26 O34 2.266 . S
In26 O35 2.326 . S
In26 O37 2.294 . S
In26 O38 2.326 . S
O27 In26 2.294 . S
O27 C36 1.240 . S
O28 In26 2.326 . S
O28 C36 1.252 . S
C29 O32 1.252 . S
C29 O33 1.260 . S
C30 O37 1.240 . S
C30 O38 1.252 . S
C31 O34 1.252 . S
C31 O35 1.260 . S
O32 In26 2.266 . S
O32 C29 1.252 . S
O33 In26 2.326 . S
O33 C29 1.260 . S
O34 In26 2.266 . S
O34 C31 1.252 . S
O35 In26 2.326 . S
O35 C31 1.260 . S
C36 O27 1.240 . S
C36 O28 1.252 . S
O37 In26 2.294 . S
O37 C30 1.240 . S
O38 In26 2.326 . S
O38 C30 1.252 . S
In39 O40 2.294 . S
In39 O41 2.326 . S
In39 O45 2.266 . S
In39 O46 2.326 . S
In39 O47 2.266 . S
In39 O48 2.326 . S
In39 O50 2.294 . S
In39 O51 2.326 . S
O40 In39 2.294 . S
O40 C49 1.240 . S
O41 In39 2.326 . S
O41 C49 1.252 . S
C42 O45 1.252 . S
C42 O46 1.260 . S
C43 O50 1.240 . S
C43 O51 1.252 . S
C44 O47 1.252 . S
C44 O48 1.260 . S
O45 In39 2.266 . S
O45 C42 1.252 . S
O46 In39 2.326 . S
O46 C42 1.260 . S
O47 In39 2.266 . S
O47 C44 1.252 . S
O48 In39 2.326 . S
O48 C44 1.260 . S
C49 O40 1.240 . S
C49 O41 1.252 . S
O50 In39 2.294 . S
O50 C43 1.240 . S
O51 In39 2.326 . S
O51 C43 1.252 . S
In52 O53 2.294 . S
In52 O54 2.326 . S
In52 O58 2.266 . S
In52 O59 2.326 . S
In52 O60 2.266 . S
In52 O61 2.326 . S
In52 O63 2.294 . S
In52 O64 2.326 . S
O53 In52 2.294 . S
O53 C62 1.240 . S
O54 In52 2.326 . S
O54 C62 1.252 . S
C55 O58 1.252 . S
C55 O59 1.260 . S
C56 O63 1.240 . S
C56 O64 1.252 . S
C57 O60 1.252 . S
C57 O61 1.260 . S
O58 In52 2.266 . S
O58 C55 1.252 . S
O59 In52 2.326 . S
O59 C55 1.260 . S
O60 In52 2.266 . S
O60 C57 1.252 . S
O61 In52 2.326 . S
O61 C57 1.260 . S
C62 O53 1.240 . S
C62 O54 1.252 . S
O63 In52 2.294 . S
O63 C56 1.240 . S
O64 In52 2.326 . S
O64 C56 1.252 . S
In65 O66 2.294 . S
In65 O67 2.326 . S
In65 O71 2.266 . S
In65 O72 2.326 . S
In65 O73 2.266 . S
In65 O74 2.326 . S
In65 O76 2.294 . S
In65 O77 2.326 . S
O66 In65 2.294 . S
O66 C75 1.240 . S
O67 In65 2.326 . S
O67 C75 1.252 . S
C68 O71 1.252 . S
C68 O72 1.260 . S
C69 O76 1.240 . S
C69 O77 1.252 . S
C70 O73 1.252 . S
C70 O74 1.260 . S
O71 In65 2.266 . S
O71 C68 1.252 . S
O72 In65 2.326 . S
O72 C68 1.260 . S
O73 In65 2.266 . S
O73 C70 1.252 . S
O74 In65 2.326 . S
O74 C70 1.260 . S
C75 O66 1.240 . S
C75 O67 1.252 . S
O76 In65 2.294 . S
O76 C69 1.240 . S
O77 In65 2.326 . S
O77 C69 1.252 . S
In78 O79 2.294 . S
In78 O80 2.326 . S
In78 O84 2.266 . S
In78 O85 2.326 . S
In78 O86 2.266 . S
In78 O87 2.326 . S
In78 O89 2.294 . S
In78 O90 2.326 . S
O79 In78 2.294 . S
O79 C88 1.240 . S
O80 In78 2.326 . S
O80 C88 1.252 . S
C81 O84 1.252 . S
C81 O85 1.260 . S
C82 O89 1.240 . S
C82 O90 1.252 . S
C83 O86 1.252 . S
C83 O87 1.260 . S
O84 In78 2.266 . S
O84 C81 1.252 . S
O85 In78 2.326 . S
O85 C81 1.260 . S
O86 In78 2.266 . S
O86 C83 1.252 . S
O87 In78 2.326 . S
O87 C83 1.260 . S
C88 O79 1.240 . S
C88 O80 1.252 . S
O89 In78 2.294 . S
O89 C82 1.240 . S
O90 In78 2.326 . S
O90 C82 1.252 . S
In91 O92 2.298 1_556 S
In91 O93 2.331 1_455 S
In91 O97 2.261 1_556 S
In91 O98 2.322 . S
In91 O99 2.254 1_455 S
In91 O100 2.306 1_455 S
In91 O102 2.307 . S
In91 O103 2.346 . S
O92 In91 2.298 1_554 S
O92 C101 1.234 1_554 S
O93 In91 2.331 1_655 S
O93 C101 1.251 1_655 S
C94 O97 1.252 1_556 S
C94 O98 1.260 . S
C95 O102 1.240 . S
C95 O103 1.252 . S
C96 O99 1.252 . S
C96 O100 1.260 . S
O97 In91 2.261 1_554 S
O97 C94 1.252 1_554 S
O98 In91 2.322 . S
O98 C94 1.260 . S
O99 In91 2.254 1_655 S
O99 C96 1.252 . S
O100 In91 2.306 1_655 S
O100 C96 1.260 . S
C101 O92 1.234 1_556 S
C101 O93 1.251 1_455 S
O102 In91 2.307 . S
O102 C95 1.240 . S
O103 In91 2.346 . S
O103 C95 1.252 . S
In104 O105 2.295 . S
In104 O106 2.330 1_545 S
In104 O110 2.264 . S
In104 O111 2.325 . S
In104 O112 2.261 1_545 S
In104 O113 2.317 1_545 S
In104 O115 2.300 . S
In104 O116 2.335 . S
O105 In104 2.295 . S
O105 C114 1.240 . S
O106 In104 2.330 1_565 S
O106 C114 1.253 1_565 S
C107 O110 1.252 . S
C107 O111 1.260 . S
C108 O115 1.240 . S
C108 O116 1.252 . S
C109 O112 1.252 . S
C109 O113 1.260 . S
O110 In104 2.264 . S
O110 C107 1.252 . S
O111 In104 2.325 . S
O111 C107 1.260 . S
O112 In104 2.261 1_565 S
O112 C109 1.252 . S
O113 In104 2.317 1_565 S
O113 C109 1.260 . S
C114 O105 1.240 . S
C114 O106 1.253 1_545 S
O115 In104 2.300 . S
O115 C108 1.240 . S
O116 In104 2.335 . S
O116 C108 1.252 . S
In117 O118 2.294 . S
In117 O119 2.326 . S
In117 O123 2.266 . S
In117 O124 2.326 . S
In117 O125 2.266 . S
In117 O126 2.326 . S
In117 O128 2.294 . S
In117 O129 2.326 . S
O118 In117 2.294 . S
O118 C127 1.240 . S
O119 In117 2.326 . S
O119 C127 1.252 . S
C120 O123 1.252 . S
C120 O124 1.260 . S
C121 O128 1.240 . S
C121 O129 1.252 . S
C122 O125 1.252 . S
C122 O126 1.260 . S
O123 In117 2.266 . S
O123 C120 1.252 . S
O124 In117 2.326 . S
O124 C120 1.260 . S
O125 In117 2.266 . S
O125 C122 1.252 . S
O126 In117 2.326 . S
O126 C122 1.260 . S
C127 O118 1.240 . S
C127 O119 1.252 . S
O128 In117 2.294 . S
O128 C121 1.240 . S
O129 In117 2.326 . S
O129 C121 1.252 . S
In130 O131 2.294 . S
In130 O132 2.326 . S
In130 O136 2.266 . S
In130 O137 2.326 . S
In130 O138 2.266 . S
In130 O139 2.326 . S
In130 O141 2.294 . S
In130 O142 2.326 . S
O131 In130 2.294 . S
O131 C140 1.240 . S
O132 In130 2.326 . S
O132 C140 1.252 . S
C133 O136 1.252 . S
C133 O137 1.260 . S
C134 O141 1.240 . S
C134 O142 1.252 . S
C135 O138 1.252 . S
C135 O139 1.260 . S
O136 In130 2.266 . S
O136 C133 1.252 . S
O137 In130 2.326 . S
O137 C133 1.260 . S
O138 In130 2.266 . S
O138 C135 1.252 . S
O139 In130 2.326 . S
O139 C135 1.260 . S
C140 O131 1.240 . S
C140 O132 1.252 . S
O141 In130 2.294 . S
O141 C134 1.240 . S
O142 In130 2.326 . S
O142 C134 1.252 . S
In143 O144 2.296 . S
In143 O145 2.329 . S
In143 O149 2.264 1_554 S
In143 O150 2.322 1_554 S
In143 O151 2.262 1_554 S
In143 O152 2.325 1_554 S
In143 O154 2.294 . S
In143 O155 2.323 . S
O144 In143 2.296 . S
O144 C153 1.240 . S
O145 In143 2.329 . S
O145 C153 1.252 . S
C146 O149 1.252 . S
C146 O150 1.260 . S
C147 O154 1.240 . S
C147 O155 1.253 . S
C148 O151 1.252 . S
C148 O152 1.260 . S
O149 In143 2.264 1_556 S
O149 C146 1.252 . S
O150 In143 2.322 1_556 S
O150 C146 1.260 . S
O151 In143 2.262 1_556 S
O151 C148 1.252 . S
O152 In143 2.325 1_556 S
O152 C148 1.260 . S
C153 O144 1.240 . S
C153 O145 1.252 . S
O154 In143 2.294 . S
O154 C147 1.240 . S
O155 In143 2.323 . S
O155 C147 1.253 . S
In156 O157 2.294 . S
In156 O158 2.326 . S
In156 O162 2.266 . S
In156 O163 2.306 1_554 S
In156 O164 2.266 . S
In156 O165 2.326 . S
In156 O167 2.294 . S
In156 O168 2.326 . S
O157 In156 2.294 . S
O157 C166 1.240 . S
O158 In156 2.326 . S
O158 C166 1.252 . S
C159 O162 1.252 1_556 S
C159 O163 1.262 . S
C160 O167 1.240 . S
C160 O168 1.252 . S
C161 O164 1.252 . S
C161 O165 1.260 . S
O162 In156 2.266 . S
O162 C159 1.252 1_554 S
O163 In156 2.306 1_556 S
O163 C159 1.262 . S
O164 In156 2.266 . S
O164 C161 1.252 . S
O165 In156 2.326 . S
O165 C161 1.260 . S
C166 O157 1.240 . S
C166 O158 1.252 . S
O167 In156 2.294 . S
O167 C160 1.240 . S
O168 In156 2.326 . S
O168 C160 1.252 . S
In169 O170 2.294 . S
In169 O171 2.326 . S
In169 O175 2.266 . S
In169 O176 2.326 . S
In169 O177 2.266 . S
In169 O178 2.326 . S
In169 O180 2.294 . S
In169 O181 2.326 . S
O170 In169 2.294 . S
O170 C179 1.240 . S
O171 In169 2.326 . S
O171 C179 1.252 . S
C172 O175 1.252 . S
C172 O176 1.260 . S
C173 O180 1.240 . S
C173 O181 1.252 . S
C174 O177 1.252 . S
C174 O178 1.260 . S
O175 In169 2.266 . S
O175 C172 1.252 . S
O176 In169 2.326 . S
O176 C172 1.260 . S
O177 In169 2.266 . S
O177 C174 1.252 . S
O178 In169 2.326 . S
O178 C174 1.260 . S
C179 O170 1.240 . S
C179 O171 1.252 . S
O180 In169 2.294 . S
O180 C173 1.240 . S
O181 In169 2.326 . S
O181 C173 1.252 . S
In182 O183 2.294 . S
In182 O184 2.326 . S
In182 O188 2.266 . S
In182 O189 2.326 . S
In182 O190 2.266 . S
In182 O191 2.326 . S
In182 O193 2.294 . S
In182 O194 2.326 . S
O183 In182 2.294 . S
O183 C192 1.240 . S
O184 In182 2.326 . S
O184 C192 1.252 . S
C185 O188 1.252 . S
C185 O189 1.260 . S
C186 O193 1.240 . S
C186 O194 1.252 . S
C187 O190 1.252 . S
C187 O191 1.260 . S
O188 In182 2.266 . S
O188 C185 1.252 . S
O189 In182 2.326 . S
O189 C185 1.260 . S
O190 In182 2.266 . S
O190 C187 1.252 . S
O191 In182 2.326 . S
O191 C187 1.260 . S
C192 O183 1.240 . S
C192 O184 1.252 . S
O193 In182 2.294 . S
O193 C186 1.240 . S
O194 In182 2.326 . S
O194 C186 1.252 . S
In195 O196 2.294 . S
In195 O197 2.326 . S
In195 O201 2.266 . S
In195 O202 2.326 . S
In195 O203 2.266 . S
In195 O204 2.326 . S
In195 O206 2.294 . S
In195 O207 2.326 . S
O196 In195 2.294 . S
O196 C205 1.240 . S
O197 In195 2.326 . S
O197 C205 1.252 . S
C198 O201 1.252 . S
C198 O202 1.260 . S
C199 O206 1.240 . S
C199 O207 1.252 . S
C200 O203 1.252 . S
C200 O204 1.260 . S
O201 In195 2.266 . S
O201 C198 1.252 . S
O202 In195 2.326 . S
O202 C198 1.260 . S
O203 In195 2.266 . S
O203 C200 1.252 . S
O204 In195 2.326 . S
O204 C200 1.260 . S
C205 O196 1.240 . S
C205 O197 1.252 . S
O206 In195 2.294 . S
O206 C199 1.240 . S
O207 In195 2.326 . S
O207 C199 1.252 . S
In208 O209 2.294 . S
In208 O210 2.326 . S
In208 O214 2.266 . S
In208 O215 2.326 . S
In208 O216 2.266 1_545 S
In208 O217 2.326 1_545 S
In208 O219 2.294 . S
In208 O220 2.326 . S
O209 In208 2.294 . S
O209 C218 1.240 . S
O210 In208 2.326 . S
O210 C218 1.252 . S
C211 O214 1.252 . S
C211 O215 1.260 . S
C212 O219 1.240 . S
C212 O220 1.252 . S
C213 O216 1.252 . S
C213 O217 1.260 . S
O214 In208 2.266 . S
O214 C211 1.252 . S
O215 In208 2.326 . S
O215 C211 1.260 . S
O216 In208 2.266 1_565 S
O216 C213 1.252 . S
O217 In208 2.326 1_565 S
O217 C213 1.260 . S
C218 O209 1.240 . S
C218 O210 1.252 . S
O219 In208 2.294 . S
O219 C212 1.240 . S
O220 In208 2.326 . S
O220 C212 1.252 . S
In221 O222 2.294 . S
In221 O223 2.326 . S
In221 O227 2.266 . S
In221 O228 2.326 . S
In221 O229 2.266 . S
In221 O230 2.326 . S
In221 O232 2.294 . S
In221 O233 2.326 . S
O222 In221 2.294 . S
O222 C231 1.240 . S
O223 In221 2.326 . S
O223 C231 1.252 . S
C224 O227 1.252 . S
C224 O228 1.260 . S
C225 O232 1.240 . S
C225 O233 1.252 . S
C226 O229 1.252 . S
C226 O230 1.260 . S
O227 In221 2.266 . S
O227 C224 1.252 . S
O228 In221 2.326 . S
O228 C224 1.260 . S
O229 In221 2.266 . S
O229 C226 1.252 . S
O230 In221 2.326 . S
O230 C226 1.260 . S
C231 O222 1.240 . S
C231 O223 1.252 . S
O232 In221 2.294 . S
O232 C225 1.240 . S
O233 In221 2.326 . S
O233 C225 1.252 . S
In234 O235 2.294 . S
In234 O236 2.326 . S
In234 O240 2.266 . S
In234 O241 2.326 . S
In234 O242 2.266 . S
In234 O243 2.326 . S
In234 O245 2.294 . S
In234 O246 2.326 . S
O235 In234 2.294 . S
O235 C244 1.240 . S
O236 In234 2.326 . S
O236 C244 1.252 . S
C237 O240 1.252 . S
C237 O241 1.260 . S
C238 O245 1.240 . S
C238 O246 1.252 . S
C239 O242 1.252 . S
C239 O243 1.260 . S
O240 In234 2.266 . S
O240 C237 1.252 . S
O241 In234 2.326 . S
O241 C237 1.260 . S
O242 In234 2.266 . S
O242 C239 1.252 . S
O243 In234 2.326 . S
O243 C239 1.260 . S
C244 O235 1.240 . S
C244 O236 1.252 . S
O245 In234 2.294 . S
O245 C238 1.240 . S
O246 In234 2.326 . S
O246 C238 1.252 . S
In247 O248 2.294 . S
In247 O249 2.326 . S
In247 O253 2.266 . S
In247 O254 2.326 . S
In247 O255 2.266 . S
In247 O256 2.326 . S
In247 O258 2.294 . S
In247 O259 2.326 . S
O248 In247 2.294 . S
O248 C257 1.240 . S
O249 In247 2.326 . S
O249 C257 1.252 . S
C250 O253 1.252 . S
C250 O254 1.260 . S
C251 O258 1.240 . S
C251 O259 1.252 . S
C252 O255 1.252 . S
C252 O256 1.260 . S
O253 In247 2.266 . S
O253 C250 1.252 . S
O254 In247 2.326 . S
O254 C250 1.260 . S
O255 In247 2.266 . S
O255 C252 1.252 . S
O256 In247 2.326 . S
O256 C252 1.260 . S
C257 O248 1.240 . S
C257 O249 1.252 . S
O258 In247 2.294 . S
O258 C251 1.240 . S
O259 In247 2.326 . S
O259 C251 1.252 . S
In260 O261 2.294 . S
In260 O262 2.326 . S
In260 O266 2.266 . S
In260 O267 2.326 . S
In260 O268 2.266 . S
In260 O269 2.326 1_554 S
In260 O271 2.294 . S
In260 O272 2.326 . S
O261 In260 2.294 . S
O261 C270 1.240 . S
O262 In260 2.326 . S
O262 C270 1.252 . S
C263 O266 1.252 . S
C263 O267 1.260 . S
C264 O271 1.240 . S
C264 O272 1.252 . S
C265 O268 1.252 1_556 S
C265 O269 1.260 . S
O266 In260 2.266 . S
O266 C263 1.252 . S
O267 In260 2.326 . S
O267 C263 1.260 . S
O268 In260 2.266 . S
O268 C265 1.252 1_554 S
O269 In260 2.326 1_556 S
O269 C265 1.260 . S
C270 O261 1.240 . S
C270 O262 1.252 . S
O271 In260 2.294 . S
O271 C264 1.240 . S
O272 In260 2.326 . S
O272 C264 1.252 . S
In273 O274 2.294 . S
In273 O275 2.326 . S
In273 O279 2.266 . S
In273 O280 2.326 . S
In273 O281 2.266 . S
In273 O282 2.326 . S
In273 O284 2.294 . S
In273 O285 2.326 . S
O274 In273 2.294 . S
O274 C283 1.240 . S
O275 In273 2.326 . S
O275 C283 1.252 . S
C276 O279 1.252 . S
C276 O280 1.260 . S
C277 O284 1.240 . S
C277 O285 1.252 . S
C278 O281 1.252 . S
C278 O282 1.260 . S
O279 In273 2.266 . S
O279 C276 1.252 . S
O280 In273 2.326 . S
O280 C276 1.260 . S
O281 In273 2.266 . S
O281 C278 1.252 . S
O282 In273 2.326 . S
O282 C278 1.260 . S
C283 O274 1.240 . S
C283 O275 1.252 . S
O284 In273 2.294 . S
O284 C277 1.240 . S
O285 In273 2.326 . S
O285 C277 1.252 . S
In286 O287 2.294 . S
In286 O288 2.326 . S
In286 O292 2.266 . S
In286 O293 2.326 . S
In286 O294 2.266 . S
In286 O295 2.326 . S
In286 O297 2.294 . S
In286 O298 2.326 . S
O287 In286 2.294 . S
O287 C296 1.240 . S
O288 In286 2.326 . S
O288 C296 1.252 . S
C289 O292 1.252 . S
C289 O293 1.260 . S
C290 O297 1.240 . S
C290 O298 1.252 . S
C291 O294 1.252 . S
C291 O295 1.260 . S
O292 In286 2.266 . S
O292 C289 1.252 . S
O293 In286 2.326 . S
O293 C289 1.260 . S
O294 In286 2.266 . S
O294 C291 1.252 . S
O295 In286 2.326 . S
O295 C291 1.260 . S
C296 O287 1.240 . S
C296 O288 1.252 . S
O297 In286 2.294 . S
O297 C290 1.240 . S
O298 In286 2.326 . S
O298 C290 1.252 . S
In299 O300 2.294 . S
In299 O301 2.326 . S
In299 O305 2.266 . S
In299 O306 2.326 . S
In299 O307 2.266 . S
In299 O308 2.326 . S
In299 O310 2.294 . S
In299 O311 2.326 . S
O300 In299 2.294 . S
O300 C309 1.240 . S
O301 In299 2.326 . S
O301 C309 1.252 . S
C302 O305 1.252 . S
C302 O306 1.260 . S
C303 O310 1.240 . S
C303 O311 1.252 . S
C304 O307 1.252 . S
C304 O308 1.260 . S
O305 In299 2.266 . S
O305 C302 1.252 . S
O306 In299 2.326 . S
O306 C302 1.260 . S
O307 In299 2.266 . S
O307 C304 1.252 . S
O308 In299 2.326 . S
O308 C304 1.260 . S
C309 O300 1.240 . S
C309 O301 1.252 . S
O310 In299 2.294 . S
O310 C303 1.240 . S
O311 In299 2.326 . S
O311 C303 1.252 . S
Dy312 O315 2.307 . S
Dy312 O317 2.395 . S
Dy312 O318 2.379 . S
Dy312 O320 2.339 . S
Dy312 O322 2.298 . S
Dy312 O326 2.275 . S
Dy312 C334 2.738 . S
Dy313 O316 2.298 . S
Dy313 O319 2.275 . S
Dy313 O321 2.307 . S
Dy313 O323 2.395 1_455 S
Dy313 O324 2.379 1_455 S
Dy313 O327 2.339 1_554 S
Dy313 C343 2.738 1_455 S
C314 O326 1.254 . S
C314 O327 1.257 1_554 S
O315 Dy312 2.307 . S
O315 C325 1.266 . S
O316 Dy313 2.298 . S
O316 C325 1.236 . S
O317 Dy312 2.395 . S
O317 C334 1.255 . S
O318 Dy312 2.379 . S
O318 C334 1.249 . S
O319 Dy313 2.275 . S
O319 C335 1.254 . S
O320 Dy312 2.339 . S
O320 C335 1.257 . S
O321 Dy313 2.307 . S
O321 C336 1.266 . S
O322 Dy312 2.298 . S
O322 C336 1.236 . S
O323 Dy313 2.395 1_655 S
O323 C343 1.255 . S
O324 Dy313 2.379 1_655 S
O324 C343 1.249 . S
C325 O315 1.266 . S
C325 O316 1.236 . S
O326 Dy312 2.275 . S
O326 C314 1.254 . S
O327 Dy313 2.339 1_556 S
O327 C314 1.257 1_556 S
C328 C331 1.344 . S
C328 C332 1.328 . S
C328 C334 1.516 . S
C329 C330 1.304 . S
C329 C333 1.323 . S
C330 C329 1.304 . S
C330 C331 1.371 . S
C330 H344 0.930 . S
C331 C328 1.344 . S
C331 C330 1.371 . S
C331 H345 0.931 . S
C332 C328 1.328 . S
C332 C333 1.433 . S
C332 H346 0.931 . S
C333 C329 1.323 . S
C333 C332 1.433 . S
C333 H347 0.933 . S
C334 Dy312 2.738 . S
C334 O317 1.255 . S
C334 O318 1.249 . S
C334 C328 1.516 . S
C335 O319 1.254 . S
C335 O320 1.257 . S
C336 O321 1.266 . S
C336 O322 1.236 . S
C337 C340 1.344 . S
C337 C341 1.328 . S
C337 C343 1.516 . S
C338 C339 1.304 . S
C338 C342 1.323 . S
C339 C338 1.304 . S
C339 C340 1.371 . S
C339 H348 0.930 . S
C340 C337 1.344 . S
C340 C339 1.371 . S
C340 H349 0.931 . S
C341 C337 1.328 . S
C341 C342 1.433 . S
C341 H350 0.931 1_554 S
C342 C338 1.323 . S
C342 C341 1.433 . S
C342 H351 0.933 1_554 S
C343 Dy313 2.738 1_655 S
C343 O323 1.255 . S
C343 O324 1.249 . S
C343 C337 1.516 . S
H344 C330 0.930 . S
H345 C331 0.931 . S
H346 C332 0.931 . S
H347 C333 0.933 . S
H348 C339 0.930 . S
H349 C340 0.931 . S
H350 C341 0.931 1_556 S
H351 C342 0.933 1_556 S
Dy352 O355 2.307 . S
Dy352 O357 2.395 . S
Dy352 O358 2.379 . S
Dy352 O360 2.339 . S
Dy352 O362 2.298 . S
Dy352 O366 2.275 . S
Dy352 C374 2.738 . S
Dy353 O356 2.298 . S
Dy353 O359 2.275 . S
Dy353 O361 2.307 . S
Dy353 O363 2.395 . S
Dy353 O364 2.379 . S
Dy353 O367 2.339 . S
Dy353 C383 2.738 . S
C354 O366 1.254 . S
C354 O367 1.257 . S
O355 Dy352 2.307 . S
O355 C365 1.266 . S
O356 Dy353 2.298 . S
O356 C365 1.236 . S
O357 Dy352 2.395 . S
O357 C374 1.255 . S
O358 Dy352 2.379 . S
O358 C374 1.249 . S
O359 Dy353 2.275 . S
O359 C375 1.254 . S
O360 Dy352 2.339 . S
O360 C375 1.257 . S
O361 Dy353 2.307 . S
O361 C376 1.266 . S
O362 Dy352 2.298 . S
O362 C376 1.236 . S
O363 Dy353 2.395 . S
O363 C383 1.255 . S
O364 Dy353 2.379 . S
O364 C383 1.249 . S
C365 O355 1.266 . S
C365 O356 1.236 . S
O366 Dy352 2.275 . S
O366 C354 1.254 . S
O367 Dy353 2.339 . S
O367 C354 1.257 . S
C368 C371 1.344 . S
C368 C372 1.328 . S
C368 C374 1.516 . S
C369 C370 1.304 . S
C369 C373 1.323 . S
C370 C369 1.304 . S
C370 C371 1.371 . S
C370 H384 0.930 . S
C371 C368 1.344 . S
C371 C370 1.371 . S
C371 H385 0.931 . S
C372 C368 1.328 . S
C372 C373 1.433 . S
C372 H386 0.931 . S
C373 C369 1.323 . S
C373 C372 1.433 . S
C373 H387 0.933 . S
C374 Dy352 2.738 . S
C374 O357 1.255 . S
C374 O358 1.249 . S
C374 C368 1.516 . S
C375 O359 1.254 . S
C375 O360 1.257 . S
C376 O361 1.266 . S
C376 O362 1.236 . S
C377 C380 1.344 . S
C377 C381 1.328 . S
C377 C383 1.516 . S
C378 C379 1.304 . S
C378 C382 1.323 . S
C379 C378 1.304 . S
C379 C380 1.371 . S
C379 H388 0.930 . S
C380 C377 1.344 . S
C380 C379 1.371 . S
C380 H389 0.931 . S
C381 C377 1.328 . S
C381 C382 1.433 . S
C381 H390 0.931 . S
C382 C378 1.323 . S
C382 C381 1.433 . S
C382 H391 0.933 . S
C383 Dy353 2.738 . S
C383 O363 1.255 . S
C383 O364 1.249 . S
C383 C377 1.516 . S
H384 C370 0.930 . S
H385 C371 0.931 . S
H386 C372 0.931 . S
H387 C373 0.933 . S
H388 C379 0.930 . S
H389 C380 0.931 . S
H390 C381 0.931 . S
H391 C382 0.933 . S
Dy392 O395 2.307 1_545 S
Dy392 O397 2.395 . S
Dy392 O398 2.379 . S
Dy392 O400 2.339 . S
Dy392 O402 2.298 . S
Dy392 O406 2.275 . S
Dy392 C414 2.738 . S
Dy393 O396 2.298 1_545 S
Dy393 O399 2.275 . S
Dy393 O401 2.307 . S
Dy393 O403 2.395 . S
Dy393 O404 2.379 . S
Dy393 O407 2.339 . S
Dy393 C423 2.738 . S
C394 O406 1.254 . S
C394 O407 1.257 . S
O395 Dy392 2.307 1_565 S
O395 C405 1.266 . S
O396 Dy393 2.298 1_565 S
O396 C405 1.236 . S
O397 Dy392 2.395 . S
O397 C414 1.255 . S
O398 Dy392 2.379 . S
O398 C414 1.249 . S
O399 Dy393 2.275 . S
O399 C415 1.254 . S
O400 Dy392 2.339 . S
O400 C415 1.257 . S
O401 Dy393 2.307 . S
O401 C416 1.266 . S
O402 Dy392 2.298 . S
O402 C416 1.236 . S
O403 Dy393 2.395 . S
O403 C423 1.255 . S
O404 Dy393 2.379 . S
O404 C423 1.249 . S
C405 O395 1.266 . S
C405 O396 1.236 . S
O406 Dy392 2.275 . S
O406 C394 1.254 . S
O407 Dy393 2.339 . S
O407 C394 1.257 . S
C408 C411 1.344 . S
C408 C412 1.328 . S
C408 C414 1.516 . S
C409 C410 1.304 . S
C409 C413 1.323 . S
C410 C409 1.304 . S
C410 C411 1.371 . S
C410 H424 0.930 . S
C411 C408 1.344 . S
C411 C410 1.371 . S
C411 H425 0.931 . S
C412 C408 1.328 . S
C412 C413 1.433 . S
C412 H426 0.931 . S
C413 C409 1.323 . S
C413 C412 1.433 . S
C413 H427 0.933 . S
C414 Dy392 2.738 . S
C414 O397 1.255 . S
C414 O398 1.249 . S
C414 C408 1.516 . S
C415 O399 1.254 . S
C415 O400 1.257 . S
C416 O401 1.266 . S
C416 O402 1.236 . S
C417 C420 1.344 . S
C417 C421 1.328 . S
C417 C423 1.516 1_565 S
C418 C419 1.304 . S
C418 C422 1.323 . S
C419 C418 1.304 . S
C419 C420 1.371 . S
C419 H428 0.930 . S
C420 C417 1.344 . S
C420 C419 1.371 . S
C420 H429 0.931 . S
C421 C417 1.328 . S
C421 C422 1.433 . S
C421 H430 0.931 . S
C422 C418 1.323 . S
C422 C421 1.433 . S
C422 H431 0.933 . S
C423 Dy393 2.738 . S
C423 O403 1.255 . S
C423 O404 1.249 . S
C423 C417 1.516 1_545 S
H424 C410 0.930 . S
H425 C411 0.931 . S
H426 C412 0.931 . S
H427 C413 0.933 . S
H428 C419 0.930 . S
H429 C420 0.931 . S
H430 C421 0.931 . S
H431 C422 0.933 . S
Dy432 O435 2.307 . S
Dy432 O437 2.395 . S
Dy432 O438 2.379 . S
Dy432 O440 2.339 . S
Dy432 O442 2.298 . S
Dy432 O446 2.275 . S
Dy432 C454 2.738 . S
Dy433 O436 2.298 . S
Dy433 O439 2.275 . S
Dy433 O441 2.307 . S
Dy433 O443 2.395 . S
Dy433 O444 2.379 . S
Dy433 O447 2.339 . S
Dy433 C463 2.738 . S
C434 O446 1.254 . S
C434 O447 1.257 . S
O435 Dy432 2.307 . S
O435 C445 1.266 . S
O436 Dy433 2.298 . S
O436 C445 1.236 . S
O437 Dy432 2.395 . S
O437 C454 1.255 . S
O438 Dy432 2.379 . S
O438 C454 1.249 . S
O439 Dy433 2.275 . S
O439 C455 1.254 . S
O440 Dy432 2.339 . S
O440 C455 1.257 . S
O441 Dy433 2.307 . S
O441 C456 1.266 . S
O442 Dy432 2.298 . S
O442 C456 1.236 . S
O443 Dy433 2.395 . S
O443 C463 1.255 . S
O444 Dy433 2.379 . S
O444 C463 1.249 . S
C445 O435 1.266 . S
C445 O436 1.236 . S
O446 Dy432 2.275 . S
O446 C434 1.254 . S
O447 Dy433 2.339 . S
O447 C434 1.257 . S
C448 C451 1.344 . S
C448 C452 1.328 . S
C448 C454 1.516 . S
C449 C450 1.304 . S
C449 C453 1.323 . S
C450 C449 1.304 . S
C450 C451 1.371 . S
C450 H464 0.930 . S
C451 C448 1.344 . S
C451 C450 1.371 . S
C451 H465 0.931 . S
C452 C448 1.328 . S
C452 C453 1.433 . S
C452 H466 0.931 . S
C453 C449 1.323 . S
C453 C452 1.433 . S
C453 H467 0.933 . S
C454 Dy432 2.738 . S
C454 O437 1.255 . S
C454 O438 1.249 . S
C454 C448 1.516 . S
C455 O439 1.254 . S
C455 O440 1.257 . S
C456 O441 1.266 . S
C456 O442 1.236 . S
C457 C460 1.344 . S
C457 C461 1.328 . S
C457 C463 1.516 . S
C458 C459 1.304 . S
C458 C462 1.323 . S
C459 C458 1.304 . S
C459 C460 1.371 . S
C459 H468 0.930 . S
C460 C457 1.344 . S
C460 C459 1.371 . S
C460 H469 0.931 . S
C461 C457 1.328 . S
C461 C462 1.433 . S
C461 H470 0.931 . S
C462 C458 1.323 . S
C462 C461 1.433 . S
C462 H471 0.933 . S
C463 Dy433 2.738 . S
C463 O443 1.255 . S
C463 O444 1.249 . S
C463 C457 1.516 . S
H464 C450 0.930 . S
H465 C451 0.931 . S
H466 C452 0.931 . S
H467 C453 0.933 . S
H468 C459 0.930 . S
H469 C460 0.931 . S
H470 C461 0.931 . S
H471 C462 0.933 . S
Dy472 O475 2.307 . S
Dy472 O477 2.395 1_545 S
Dy472 O478 2.379 1_545 S
Dy472 O480 2.339 . S
Dy472 O482 2.298 . S
Dy472 O486 2.275 . S
Dy472 C494 2.738 1_545 S
Dy473 O476 2.298 . S
Dy473 O479 2.275 . S
Dy473 O481 2.307 . S
Dy473 O483 2.395 . S
Dy473 O484 2.379 . S
Dy473 O487 2.339 1_455 S
Dy473 C503 2.738 . S
C474 O486 1.254 1_655 S
C474 O487 1.257 . S
O475 Dy472 2.307 . S
O475 C485 1.266 . S
O476 Dy473 2.298 . S
O476 C485 1.236 . S
O477 Dy472 2.395 1_565 S
O477 C494 1.255 . S
O478 Dy472 2.379 1_565 S
O478 C494 1.249 . S
O479 Dy473 2.275 . S
O479 C495 1.254 . S
O480 Dy472 2.339 . S
O480 C495 1.257 . S
O481 Dy473 2.307 . S
O481 C496 1.266 . S
O482 Dy472 2.298 . S
O482 C496 1.236 . S
O483 Dy473 2.395 . S
O483 C503 1.255 . S
O484 Dy473 2.379 . S
O484 C503 1.249 . S
C485 O475 1.266 . S
C485 O476 1.236 . S
O486 Dy472 2.275 . S
O486 C474 1.254 1_455 S
O487 Dy473 2.339 1_655 S
O487 C474 1.257 . S
C488 C491 1.344 . S
C488 C492 1.328 . S
C488 C494 1.516 . S
C489 C490 1.304 . S
C489 C493 1.323 . S
C490 C489 1.304 . S
C490 C491 1.371 . S
C490 H504 0.930 . S
C491 C488 1.344 . S
C491 C490 1.371 . S
C491 H505 0.931 . S
C492 C488 1.328 . S
C492 C493 1.433 . S
C492 H506 0.931 . S
C493 C489 1.323 . S
C493 C492 1.433 . S
C493 H507 0.933 . S
C494 Dy472 2.738 1_565 S
C494 O477 1.255 . S
C494 O478 1.249 . S
C494 C488 1.516 . S
C495 O479 1.254 . S
C495 O480 1.257 . S
C496 O481 1.266 . S
C496 O482 1.236 . S
C497 C500 1.344 . S
C497 C501 1.328 . S
C497 C503 1.516 . S
C498 C499 1.304 . S
C498 C502 1.333 . S
C499 C498 1.304 . S
C499 C500 1.371 . S
C499 H508 0.930 . S
C500 C497 1.344 . S
C500 C499 1.371 . S
C500 H509 0.931 . S
C501 C497 1.328 . S
C501 C502 1.436 . S
C501 H510 0.931 1_455 S
C502 C498 1.333 . S
C502 C501 1.436 . S
C502 H511 0.920 1_455 S
C503 Dy473 2.738 . S
C503 O483 1.255 . S
C503 O484 1.249 . S
C503 C497 1.516 . S
H504 C490 0.930 . S
H505 C491 0.931 . S
H506 C492 0.931 . S
H507 C493 0.933 . S
H508 C499 0.930 . S
H509 C500 0.931 . S
H510 C501 0.931 1_655 S
H511 C502 0.920 1_655 S
Dy512 O515 2.307 . S
Dy512 O517 2.395 . S
Dy512 O518 2.379 . S
Dy512 O520 2.339 . S
Dy512 O522 2.298 . S
Dy512 O526 2.275 . S
Dy512 C534 2.738 . S
Dy513 O516 2.298 . S
Dy513 O519 2.275 . S
Dy513 O521 2.307 . S
Dy513 O523 2.395 . S
Dy513 O524 2.379 . S
Dy513 O527 2.339 . S
Dy513 C543 2.738 . S
C514 O526 1.254 . S
C514 O527 1.257 . S
O515 Dy512 2.307 . S
O515 C525 1.266 . S
O516 Dy513 2.298 . S
O516 C525 1.236 . S
O517 Dy512 2.395 . S
O517 C534 1.255 . S
O518 Dy512 2.379 . S
O518 C534 1.249 . S
O519 Dy513 2.275 . S
O519 C535 1.254 . S
O520 Dy512 2.339 . S
O520 C535 1.257 . S
O521 Dy513 2.307 . S
O521 C536 1.266 . S
O522 Dy512 2.298 . S
O522 C536 1.236 . S
O523 Dy513 2.395 . S
O523 C543 1.255 . S
O524 Dy513 2.379 . S
O524 C543 1.249 . S
C525 O515 1.266 . S
C525 O516 1.236 . S
O526 Dy512 2.275 . S
O526 C514 1.254 . S
O527 Dy513 2.339 . S
O527 C514 1.257 . S
C528 C531 1.344 . S
C528 C532 1.328 . S
C528 C534 1.516 . S
C529 C530 1.304 . S
C529 C533 1.323 . S
C530 C529 1.304 . S
C530 C531 1.371 . S
C530 H544 0.930 . S
C531 C528 1.344 . S
C531 C530 1.371 . S
C531 H545 0.931 . S
C532 C528 1.328 . S
C532 C533 1.433 . S
C532 H546 0.931 . S
C533 C529 1.323 . S
C533 C532 1.433 . S
C533 H547 0.933 . S
C534 Dy512 2.738 . S
C534 O517 1.255 . S
C534 O518 1.249 . S
C534 C528 1.516 . S
C535 O519 1.254 . S
C535 O520 1.257 . S
C536 O521 1.266 . S
C536 O522 1.236 . S
C537 C540 1.344 . S
C537 C541 1.328 . S
C537 C543 1.516 . S
C538 C539 1.304 . S
C538 C542 1.323 . S
C539 C538 1.304 . S
C539 C540 1.371 . S
C539 H548 0.930 . S
C540 C537 1.344 . S
C540 C539 1.371 . S
C540 H549 0.931 . S
C541 C537 1.328 . S
C541 C542 1.433 . S
C541 H550 0.931 . S
C542 C538 1.323 . S
C542 C541 1.433 . S
C542 H551 0.933 . S
C543 Dy513 2.738 . S
C543 O523 1.255 . S
C543 O524 1.249 . S
C543 C537 1.516 . S
H544 C530 0.930 . S
H545 C531 0.931 . S
H546 C532 0.931 . S
H547 C533 0.933 . S
H548 C539 0.930 . S
H549 C540 0.931 . S
H550 C541 0.931 . S
H551 C542 0.933 . S
Dy552 O555 2.307 1_556 S
Dy552 O557 2.395 . S
Dy552 O558 2.379 . S
Dy552 O560 2.339 1_556 S
Dy552 O562 2.298 1_556 S
Dy552 O566 2.275 1_556 S
Dy552 C574 2.738 . S
Dy553 O556 2.298 . S
Dy553 O559 2.275 . S
Dy553 O561 2.307 . S
Dy553 O563 2.395 . S
Dy553 O564 2.379 . S
Dy553 O567 2.339 . S
Dy553 C583 2.738 . S
C554 O566 1.254 . S
C554 O567 1.257 . S
O555 Dy552 2.307 1_554 S
O555 C565 1.266 . S
O556 Dy553 2.298 . S
O556 C565 1.236 . S
O557 Dy552 2.395 . S
O557 C574 1.255 . S
O558 Dy552 2.379 . S
O558 C574 1.249 . S
O559 Dy553 2.275 . S
O559 C575 1.254 . S
O560 Dy552 2.339 1_554 S
O560 C575 1.257 . S
O561 Dy553 2.307 . S
O561 C576 1.266 . S
O562 Dy552 2.298 1_554 S
O562 C576 1.236 . S
O563 Dy553 2.395 . S
O563 C583 1.255 . S
O564 Dy553 2.379 . S
O564 C583 1.249 . S
C565 O555 1.266 . S
C565 O556 1.236 . S
O566 Dy552 2.275 1_554 S
O566 C554 1.254 . S
O567 Dy553 2.339 . S
O567 C554 1.257 . S
C568 C571 1.344 . S
C568 C572 1.328 . S
C568 C574 1.516 . S
C569 C570 1.304 . S
C569 C573 1.323 . S
C570 C569 1.304 . S
C570 C571 1.371 . S
C570 H584 0.930 . S
C571 C568 1.344 . S
C571 C570 1.371 . S
C571 H585 0.931 . S
C572 C568 1.328 . S
C572 C573 1.433 . S
C572 H586 0.931 . S
C573 C569 1.323 . S
C573 C572 1.433 . S
C573 H587 0.933 . S
C574 Dy552 2.738 . S
C574 O557 1.255 . S
C574 O558 1.249 . S
C574 C568 1.516 . S
C575 O559 1.254 . S
C575 O560 1.257 . S
C576 O561 1.266 . S
C576 O562 1.236 . S
C577 C580 1.344 . S
C577 C581 1.328 1_545 S
C577 C583 1.516 . S
C578 C579 1.304 . S
C578 C582 1.323 1_545 S
C579 C578 1.304 . S
C579 C580 1.371 . S
C579 H588 0.930 . S
C580 C577 1.344 . S
C580 C579 1.371 . S
C580 H589 0.931 . S
C581 C577 1.328 1_565 S
C581 C582 1.433 . S
C581 H590 0.931 . S
C582 C578 1.323 1_565 S
C582 C581 1.433 . S
C582 H591 0.933 . S
C583 Dy553 2.738 . S
C583 O563 1.255 . S
C583 O564 1.249 . S
C583 C577 1.516 . S
H584 C570 0.930 . S
H585 C571 0.931 . S
H586 C572 0.931 . S
H587 C573 0.933 . S
H588 C579 0.930 . S
H589 C580 0.931 . S
H590 C581 0.931 . S
H591 C582 0.933 . S
Dy592 O595 2.307 . S
Dy592 O597 2.395 . S
Dy592 O598 2.379 . S
Dy592 O600 2.339 . S
Dy592 O602 2.298 . S
Dy592 O606 2.275 . S
Dy592 C614 2.738 . S
Dy593 O596 2.298 . S
Dy593 O599 2.275 . S
Dy593 O601 2.307 . S
Dy593 O603 2.395 . S
Dy593 O604 2.379 . S
Dy593 O607 2.339 . S
Dy593 C623 2.738 . S
C594 O606 1.254 . S
C594 O607 1.257 . S
O595 Dy592 2.307 . S
O595 C605 1.266 . S
O596 Dy593 2.298 . S
O596 C605 1.236 . S
O597 Dy592 2.395 . S
O597 C614 1.255 . S
O598 Dy592 2.379 . S
O598 C614 1.249 . S
O599 Dy593 2.275 . S
O599 C615 1.254 . S
O600 Dy592 2.339 . S
O600 C615 1.257 . S
O601 Dy593 2.307 . S
O601 C616 1.266 . S
O602 Dy592 2.298 . S
O602 C616 1.236 . S
O603 Dy593 2.395 . S
O603 C623 1.255 . S
O604 Dy593 2.379 . S
O604 C623 1.249 . S
C605 O595 1.266 . S
C605 O596 1.236 . S
O606 Dy592 2.275 . S
O606 C594 1.254 . S
O607 Dy593 2.339 . S
O607 C594 1.257 . S
C608 C611 1.344 . S
C608 C612 1.328 . S
C608 C614 1.516 . S
C609 C610 1.304 . S
C609 C613 1.323 . S
C610 C609 1.304 . S
C610 C611 1.371 . S
C610 H624 0.930 . S
C611 C608 1.344 . S
C611 C610 1.371 . S
C611 H625 0.931 . S
C612 C608 1.328 . S
C612 C613 1.433 . S
C612 H626 0.931 . S
C613 C609 1.323 . S
C613 C612 1.433 . S
C613 H627 0.933 . S
C614 Dy592 2.738 . S
C614 O597 1.255 . S
C614 O598 1.249 . S
C614 C608 1.516 . S
C615 O599 1.254 . S
C615 O600 1.257 . S
C616 O601 1.266 . S
C616 O602 1.236 . S
C617 C620 1.344 . S
C617 C621 1.328 . S
C617 C623 1.516 . S
C618 C619 1.304 . S
C618 C622 1.323 . S
C619 C618 1.304 . S
C619 C620 1.371 . S
C619 H628 0.930 . S
C620 C617 1.344 . S
C620 C619 1.371 . S
C620 H629 0.931 . S
C621 C617 1.328 . S
C621 C622 1.433 . S
C621 H630 0.931 . S
C622 C618 1.323 . S
C622 C621 1.433 . S
C622 H631 0.933 . S
C623 Dy593 2.738 . S
C623 O603 1.255 . S
C623 O604 1.249 . S
C623 C617 1.516 . S
H624 C610 0.930 . S
H625 C611 0.931 . S
H626 C612 0.931 . S
H627 C613 0.933 . S
H628 C619 0.930 . S
H629 C620 0.931 . S
H630 C621 0.931 . S
H631 C622 0.933 . S
Dy632 O635 2.307 1_554 S
Dy632 O637 2.395 . S
Dy632 O638 2.379 . S
Dy632 O640 2.339 . S
Dy632 O642 2.298 . S
Dy632 O646 2.275 . S
Dy632 C654 2.738 . S
Dy633 O636 2.298 1_554 S
Dy633 O639 2.275 . S
Dy633 O641 2.307 . S
Dy633 O643 2.395 . S
Dy633 O644 2.379 . S
Dy633 O647 2.339 . S
Dy633 C663 2.738 . S
C634 O646 1.254 . S
C634 O647 1.257 . S
O635 Dy632 2.307 1_556 S
O635 C645 1.266 . S
O636 Dy633 2.298 1_556 S
O636 C645 1.236 . S
O637 Dy632 2.395 . S
O637 C654 1.255 . S
O638 Dy632 2.379 . S
O638 C654 1.249 . S
O639 Dy633 2.275 . S
O639 C655 1.254 . S
O640 Dy632 2.339 . S
O640 C655 1.257 . S
O641 Dy633 2.307 . S
O641 C656 1.266 . S
O642 Dy632 2.298 . S
O642 C656 1.236 . S
O643 Dy633 2.395 . S
O643 C663 1.255 . S
O644 Dy633 2.379 . S
O644 C663 1.249 . S
C645 O635 1.266 . S
C645 O636 1.236 . S
O646 Dy632 2.275 . S
O646 C634 1.254 . S
O647 Dy633 2.339 . S
O647 C634 1.257 . S
C648 C651 1.344 . S
C648 C652 1.328 . S
C648 C654 1.516 . S
C649 C650 1.304 . S
C649 C653 1.323 . S
C650 C649 1.304 . S
C650 C651 1.371 . S
C650 H664 0.930 . S
C651 C648 1.344 . S
C651 C650 1.371 . S
C651 H665 0.931 . S
C652 C648 1.328 . S
C652 C653 1.433 . S
C652 H666 0.931 . S
C653 C649 1.323 . S
C653 C652 1.433 . S
C653 H667 0.933 . S
C654 Dy632 2.738 . S
C654 O637 1.255 . S
C654 O638 1.249 . S
C654 C648 1.516 . S
C655 O639 1.254 . S
C655 O640 1.257 . S
C656 O641 1.266 . S
C656 O642 1.236 . S
C657 C660 1.344 . S
C657 C661 1.328 . S
C657 C663 1.516 1_556 S
C658 C659 1.304 . S
C658 C662 1.323 . S
C659 C658 1.304 . S
C659 C660 1.371 . S
C659 H668 0.930 . S
C660 C657 1.344 . S
C660 C659 1.371 . S
C660 H669 0.931 . S
C661 C657 1.328 . S
C661 C662 1.433 . S
C661 H670 0.954 . S
C662 C658 1.323 . S
C662 C661 1.433 . S
C662 H671 0.933 . S
C663 Dy633 2.738 . S
C663 O643 1.255 . S
C663 O644 1.249 . S
C663 C657 1.516 1_554 S
H664 C650 0.930 . S
H665 C651 0.931 . S
H666 C652 0.931 . S
H667 C653 0.933 . S
H668 C659 0.930 . S
H669 C660 0.931 . S
H670 C661 0.954 . S
H671 C662 0.933 . S
Dy672 O675 2.307 . S
Dy672 O677 2.395 . S
Dy672 O678 2.379 . S
Dy672 O680 2.339 . S
Dy672 O682 2.298 . S
Dy672 O686 2.275 . S
Dy672 C694 2.738 . S
Dy673 O676 2.298 . S
Dy673 O679 2.275 . S
Dy673 O681 2.307 . S
Dy673 O683 2.395 . S
Dy673 O684 2.379 . S
Dy673 O687 2.339 . S
Dy673 C703 2.738 . S
C674 O686 1.254 . S
C674 O687 1.257 . S
O675 Dy672 2.307 . S
O675 C685 1.266 . S
O676 Dy673 2.298 . S
O676 C685 1.236 . S
O677 Dy672 2.395 . S
O677 C694 1.255 . S
O678 Dy672 2.379 . S
O678 C694 1.249 . S
O679 Dy673 2.275 . S
O679 C695 1.254 . S
O680 Dy672 2.339 . S
O680 C695 1.257 . S
O681 Dy673 2.307 . S
O681 C696 1.266 . S
O682 Dy672 2.298 . S
O682 C696 1.236 . S
O683 Dy673 2.395 . S
O683 C703 1.255 . S
O684 Dy673 2.379 . S
O684 C703 1.249 . S
C685 O675 1.266 . S
C685 O676 1.236 . S
O686 Dy672 2.275 . S
O686 C674 1.254 . S
O687 Dy673 2.339 . S
O687 C674 1.257 . S
C688 C691 1.344 . S
C688 C692 1.328 . S
C688 C694 1.516 . S
C689 C690 1.304 . S
C689 C693 1.323 . S
C690 C689 1.304 . S
C690 C691 1.371 . S
C690 H704 0.930 . S
C691 C688 1.344 . S
C691 C690 1.371 . S
C691 H705 0.931 . S
C692 C688 1.328 . S
C692 C693 1.433 . S
C692 H706 0.931 . S
C693 C689 1.323 . S
C693 C692 1.433 . S
C693 H707 0.933 . S
C694 Dy672 2.738 . S
C694 O677 1.255 . S
C694 O678 1.249 . S
C694 C688 1.516 . S
C695 O679 1.254 . S
C695 O680 1.257 . S
C696 O681 1.266 . S
C696 O682 1.236 . S
C697 C700 1.344 . S
C697 C701 1.328 . S
C697 C703 1.516 . S
C698 C699 1.304 . S
C698 C702 1.323 . S
C699 C698 1.304 . S
C699 C700 1.371 . S
C699 H708 0.930 . S
C700 C697 1.344 . S
C700 C699 1.371 . S
C700 H709 0.931 . S
C701 C697 1.328 . S
C701 C702 1.433 . S
C701 H710 0.931 . S
C702 C698 1.323 . S
C702 C701 1.433 . S
C702 H711 0.933 . S
C703 Dy673 2.738 . S
C703 O683 1.255 . S
C703 O684 1.249 . S
C703 C697 1.516 . S
H704 C690 0.930 . S
H705 C691 0.931 . S
H706 C692 0.931 . S
H707 C693 0.933 . S
H708 C699 0.930 . S
H709 C700 0.931 . S
H710 C701 0.931 . S
H711 C702 0.933 . S
Dy712 O715 2.307 1_455 S
Dy712 O717 2.395 . S
Dy712 O718 2.379 . S
Dy712 O720 2.339 . S
Dy712 O722 2.298 . S
Dy712 O726 2.275 . S
Dy712 C734 2.738 . S
Dy713 O716 2.298 1_455 S
Dy713 O719 2.275 . S
Dy713 O721 2.307 . S
Dy713 O723 2.378 1_455 S
Dy713 O724 2.379 . S
Dy713 O727 2.339 . S
Dy713 C743 2.738 1_455 S
C714 O726 1.254 . S
C714 O727 1.257 . S
O715 Dy712 2.307 1_655 S
O715 C725 1.266 . S
O716 Dy713 2.298 1_655 S
O716 C725 1.236 . S
O717 Dy712 2.395 . S
O717 C734 1.255 . S
O718 Dy712 2.379 . S
O718 C734 1.249 . S
O719 Dy713 2.275 . S
O719 C735 1.254 . S
O720 Dy712 2.339 . S
O720 C735 1.257 . S
O721 Dy713 2.307 . S
O721 C736 1.266 . S
O722 Dy712 2.298 . S
O722 C736 1.236 . S
O723 Dy713 2.378 1_655 S
O723 C743 1.253 . S
O724 Dy713 2.379 . S
O724 C743 1.249 1_455 S
C725 O715 1.266 . S
C725 O716 1.236 . S
O726 Dy712 2.275 . S
O726 C714 1.254 . S
O727 Dy713 2.339 . S
O727 C714 1.257 . S
C728 C731 1.344 . S
C728 C732 1.328 . S
C728 C734 1.516 . S
C729 C730 1.304 . S
C729 C733 1.323 . S
C730 C729 1.304 . S
C730 C731 1.371 . S
C730 H744 0.930 . S
C731 C728 1.344 . S
C731 C730 1.371 . S
C731 H745 0.931 . S
C732 C728 1.328 . S
C732 C733 1.433 . S
C732 H746 0.931 . S
C733 C729 1.323 . S
C733 C732 1.433 . S
C733 H747 0.933 . S
C734 Dy712 2.738 . S
C734 O717 1.255 . S
C734 O718 1.249 . S
C734 C728 1.516 . S
C735 O719 1.254 . S
C735 O720 1.257 . S
C736 O721 1.266 . S
C736 O722 1.236 . S
C737 C740 1.344 . S
C737 C741 1.328 . S
C737 C743 1.516 . S
C738 C739 1.304 . S
C738 C742 1.323 . S
C739 C738 1.304 . S
C739 C740 1.371 . S
C739 H748 0.930 . S
C740 C737 1.344 . S
C740 C739 1.371 . S
C740 H749 0.931 . S
C741 C737 1.328 . S
C741 C742 1.433 . S
C741 H750 0.931 . S
C742 C738 1.323 . S
C742 C741 1.433 . S
C742 H751 0.933 . S
C743 Dy713 2.738 1_655 S
C743 O723 1.253 . S
C743 O724 1.249 1_655 S
C743 C737 1.516 . S
H744 C730 0.930 . S
H745 C731 0.931 . S
H746 C732 0.931 . S
H747 C733 0.933 . S
H748 C739 0.930 . S
H749 C740 0.931 . S
H750 C741 0.931 . S
H751 C742 0.933 . S
Dy752 O755 2.307 . S
Dy752 O757 2.395 . S
Dy752 O758 2.379 . S
Dy752 O760 2.339 . S
Dy752 O762 2.298 . S
Dy752 O766 2.275 . S
Dy752 C774 2.738 . S
Dy753 O756 2.298 . S
Dy753 O759 2.275 . S
Dy753 O761 2.307 . S
Dy753 O763 2.395 . S
Dy753 O764 2.379 . S
Dy753 O767 2.339 . S
Dy753 C783 2.738 . S
C754 O766 1.254 . S
C754 O767 1.257 . S
O755 Dy752 2.307 . S
O755 C765 1.266 . S
O756 Dy753 2.298 . S
O756 C765 1.236 . S
O757 Dy752 2.395 . S
O757 C774 1.255 . S
O758 Dy752 2.379 . S
O758 C774 1.249 . S
O759 Dy753 2.275 . S
O759 C775 1.254 . S
O760 Dy752 2.339 . S
O760 C775 1.257 . S
O761 Dy753 2.307 . S
O761 C776 1.266 . S
O762 Dy752 2.298 . S
O762 C776 1.236 . S
O763 Dy753 2.395 . S
O763 C783 1.255 . S
O764 Dy753 2.379 . S
O764 C783 1.249 . S
C765 O755 1.266 . S
C765 O756 1.236 . S
O766 Dy752 2.275 . S
O766 C754 1.254 . S
O767 Dy753 2.339 . S
O767 C754 1.257 . S
C768 C771 1.344 . S
C768 C772 1.328 . S
C768 C774 1.516 . S
C769 C770 1.304 . S
C769 C773 1.323 . S
C770 C769 1.304 . S
C770 C771 1.371 . S
C770 H784 0.930 . S
C771 C768 1.344 . S
C771 C770 1.371 . S
C771 H785 0.931 . S
C772 C768 1.328 . S
C772 C773 1.433 . S
C772 H786 0.931 . S
C773 C769 1.323 . S
C773 C772 1.433 . S
C773 H787 0.933 . S
C774 Dy752 2.738 . S
C774 O757 1.255 . S
C774 O758 1.249 . S
C774 C768 1.516 . S
C775 O759 1.254 . S
C775 O760 1.257 . S
C776 O761 1.266 . S
C776 O762 1.236 . S
C777 C780 1.344 . S
C777 C781 1.328 . S
C777 C783 1.516 . S
C778 C779 1.304 . S
C778 C782 1.323 . S
C779 C778 1.304 . S
C779 C780 1.371 . S
C779 H788 0.930 . S
C780 C777 1.344 . S
C780 C779 1.371 . S
C780 H789 0.931 . S
C781 C777 1.328 . S
C781 C782 1.433 . S
C781 H790 0.931 . S
C782 C778 1.323 . S
C782 C781 1.433 . S
C782 H791 0.933 . S
C783 Dy753 2.738 . S
C783 O763 1.255 . S
C783 O764 1.249 . S
C783 C777 1.516 . S
H784 C770 0.930 . S
H785 C771 0.931 . S
H786 C772 0.931 . S
H787 C773 0.933 . S
H788 C779 0.930 . S
H789 C780 0.931 . S
H790 C781 0.931 . S
H791 C782 0.933 . S
Dy792 O795 2.307 . S
Dy792 O797 2.395 . S
Dy792 O798 2.379 . S
Dy792 O800 2.339 . S
Dy792 O802 2.298 . S
Dy792 O806 2.275 . S
Dy792 C814 2.738 . S
Dy793 O796 2.298 . S
Dy793 O799 2.275 . S
Dy793 O801 2.307 . S
Dy793 O803 2.395 . S
Dy793 O804 2.379 . S
Dy793 O807 2.339 . S
Dy793 C823 2.738 . S
C794 O806 1.254 . S
C794 O807 1.257 . S
O795 Dy792 2.307 . S
O795 C805 1.266 . S
O796 Dy793 2.298 . S
O796 C805 1.236 . S
O797 Dy792 2.395 . S
O797 C814 1.255 . S
O798 Dy792 2.379 . S
O798 C814 1.249 . S
O799 Dy793 2.275 . S
O799 C815 1.254 . S
O800 Dy792 2.339 . S
O800 C815 1.257 . S
O801 Dy793 2.307 . S
O801 C816 1.266 . S
O802 Dy792 2.298 . S
O802 C816 1.236 . S
O803 Dy793 2.395 . S
O803 C823 1.255 . S
O804 Dy793 2.379 . S
O804 C823 1.249 . S
C805 O795 1.266 . S
C805 O796 1.236 . S
O806 Dy792 2.275 . S
O806 C794 1.254 . S
O807 Dy793 2.339 . S
O807 C794 1.257 . S
C808 C811 1.344 . S
C808 C812 1.328 . S
C808 C814 1.516 . S
C809 C810 1.304 . S
C809 C813 1.323 . S
C810 C809 1.304 . S
C810 C811 1.371 . S
C810 H824 0.930 . S
C811 C808 1.344 . S
C811 C810 1.371 . S
C811 H825 0.931 . S
C812 C808 1.328 . S
C812 C813 1.433 . S
C812 H826 0.931 . S
C813 C809 1.323 . S
C813 C812 1.433 . S
C813 H827 0.933 . S
C814 Dy792 2.738 . S
C814 O797 1.255 . S
C814 O798 1.249 . S
C814 C808 1.516 . S
C815 O799 1.254 . S
C815 O800 1.257 . S
C816 O801 1.266 . S
C816 O802 1.236 . S
C817 C820 1.344 . S
C817 C821 1.328 . S
C817 C823 1.516 . S
C818 C819 1.304 . S
C818 C822 1.323 . S
C819 C818 1.304 . S
C819 C820 1.371 . S
C819 H828 0.930 . S
C820 C817 1.344 . S
C820 C819 1.371 . S
C820 H829 0.931 . S
C821 C817 1.328 . S
C821 C822 1.433 . S
C821 H830 0.931 . S
C822 C818 1.323 . S
C822 C821 1.433 . S
C822 H831 0.933 . S
C823 Dy793 2.738 . S
C823 O803 1.255 . S
C823 O804 1.249 . S
C823 C817 1.516 . S
H824 C810 0.930 . S
H825 C811 0.931 . S
H826 C812 0.931 . S
H827 C813 0.933 . S
H828 C819 0.930 . S
H829 C820 0.931 . S
H830 C821 0.931 . S
H831 C822 0.933 . S
Dy832 O835 2.307 . S
Dy832 O837 2.395 . S
Dy832 O838 2.379 . S
Dy832 O840 2.339 . S
Dy832 O842 2.298 . S
Dy832 O846 2.275 . S
Dy832 C854 2.738 . S
Dy833 O836 2.298 . S
Dy833 O839 2.275 . S
Dy833 O841 2.307 . S
Dy833 O843 2.395 . S
Dy833 O844 2.379 . S
Dy833 O847 2.339 . S
Dy833 C863 2.738 . S
C834 O846 1.254 . S
C834 O847 1.257 . S
O835 Dy832 2.307 . S
O835 C845 1.266 . S
O836 Dy833 2.298 . S
O836 C845 1.236 . S
O837 Dy832 2.395 . S
O837 C854 1.255 . S
O838 Dy832 2.379 . S
O838 C854 1.249 . S
O839 Dy833 2.275 . S
O839 C855 1.254 . S
O840 Dy832 2.339 . S
O840 C855 1.257 . S
O841 Dy833 2.307 . S
O841 C856 1.266 . S
O842 Dy832 2.298 . S
O842 C856 1.236 . S
O843 Dy833 2.395 . S
O843 C863 1.255 . S
O844 Dy833 2.379 . S
O844 C863 1.249 . S
C845 O835 1.266 . S
C845 O836 1.236 . S
O846 Dy832 2.275 . S
O846 C834 1.254 . S
O847 Dy833 2.339 . S
O847 C834 1.257 . S
C848 C851 1.344 . S
C848 C852 1.328 . S
C848 C854 1.516 . S
C849 C850 1.304 . S
C849 C853 1.323 . S
C850 C849 1.304 . S
C850 C851 1.371 . S
C850 H864 0.930 . S
C851 C848 1.344 . S
C851 C850 1.371 . S
C851 H865 0.931 . S
C852 C848 1.328 . S
C852 C853 1.433 . S
C852 H866 0.931 . S
C853 C849 1.323 . S
C853 C852 1.433 . S
C853 H867 0.933 . S
C854 Dy832 2.738 . S
C854 O837 1.255 . S
C854 O838 1.249 . S
C854 C848 1.516 . S
C855 O839 1.254 . S
C855 O840 1.257 . S
C856 O841 1.266 . S
C856 O842 1.236 . S
C857 C860 1.344 . S
C857 C861 1.328 . S
C857 C863 1.516 . S
C858 C859 1.304 . S
C858 C862 1.323 . S
C859 C858 1.304 . S
C859 C860 1.371 . S
C859 H868 0.930 . S
C860 C857 1.344 . S
C860 C859 1.371 . S
C860 H869 0.931 . S
C861 C857 1.328 . S
C861 C862 1.433 . S
C861 H870 0.931 . S
C862 C858 1.323 . S
C862 C861 1.433 . S
C862 H871 0.933 . S
C863 Dy833 2.738 . S
C863 O843 1.255 . S
C863 O844 1.249 . S
C863 C857 1.516 . S
H864 C850 0.930 . S
H865 C851 0.931 . S
H866 C852 0.931 . S
H867 C853 0.933 . S
H868 C859 0.930 . S
H869 C860 0.931 . S
H870 C861 0.931 . S
H871 C862 0.933 . S
Dy872 O875 2.307 . S
Dy872 O877 2.395 . S
Dy872 O878 2.379 . S
Dy872 O880 2.339 . S
Dy872 O882 2.298 . S
Dy872 O886 2.275 . S
Dy872 C894 2.738 . S
Dy873 O876 2.298 . S
Dy873 O879 2.275 . S
Dy873 O881 2.307 . S
Dy873 O883 2.395 . S
Dy873 O884 2.379 . S
Dy873 O887 2.339 . S
Dy873 C903 2.738 . S
C874 O886 1.254 . S
C874 O887 1.257 . S
O875 Dy872 2.307 . S
O875 C885 1.266 . S
O876 Dy873 2.298 . S
O876 C885 1.236 . S
O877 Dy872 2.395 . S
O877 C894 1.255 . S
O878 Dy872 2.379 . S
O878 C894 1.249 . S
O879 Dy873 2.275 . S
O879 C895 1.254 . S
O880 Dy872 2.339 . S
O880 C895 1.257 . S
O881 Dy873 2.307 . S
O881 C896 1.266 . S
O882 Dy872 2.298 . S
O882 C896 1.236 . S
O883 Dy873 2.395 . S
O883 C903 1.255 . S
O884 Dy873 2.379 . S
O884 C903 1.249 . S
C885 O875 1.266 . S
C885 O876 1.236 . S
O886 Dy872 2.275 . S
O886 C874 1.254 . S
O887 Dy873 2.339 . S
O887 C874 1.257 . S
C888 C891 1.344 . S
C888 C892 1.328 . S
C888 C894 1.516 . S
C889 C890 1.304 . S
C889 C893 1.323 . S
C890 C889 1.304 . S
C890 C891 1.371 . S
C890 H904 0.930 . S
C891 C888 1.344 . S
C891 C890 1.371 . S
C891 H905 0.931 . S
C892 C888 1.328 . S
C892 C893 1.433 . S
C892 H906 0.931 . S
C893 C889 1.323 . S
C893 C892 1.433 . S
C893 H907 0.933 . S
C894 Dy872 2.738 . S
C894 O877 1.255 . S
C894 O878 1.249 . S
C894 C888 1.516 . S
C895 O879 1.254 . S
C895 O880 1.257 . S
C896 O881 1.266 . S
C896 O882 1.236 . S
C897 C900 1.344 . S
C897 C901 1.328 . S
C897 C903 1.516 . S
C898 C899 1.304 . S
C898 C902 1.323 . S
C899 C898 1.304 . S
C899 C900 1.371 . S
C899 H908 0.930 . S
C900 C897 1.344 . S
C900 C899 1.371 . S
C900 H909 0.931 . S
C901 C897 1.328 . S
C901 C902 1.433 . S
C901 H910 0.931 . S
C902 C898 1.323 . S
C902 C901 1.433 . S
C902 H911 0.933 . S
C903 Dy873 2.738 . S
C903 O883 1.255 . S
C903 O884 1.249 . S
C903 C897 1.516 . S
H904 C890 0.930 . S
H905 C891 0.931 . S
H906 C892 0.931 . S
H907 C893 0.933 . S
H908 C899 0.930 . S
H909 C900 0.931 . S
H910 C901 0.931 . S
H911 C902 0.933 . S
Dy912 O915 2.307 1_655 S
Dy912 O917 2.395 . S
Dy912 O918 2.379 . S
Dy912 O920 2.339 1_655 S
Dy912 O922 2.298 1_655 S
Dy912 O926 2.275 1_655 S
Dy912 C934 2.738 . S
Dy913 O916 2.298 . S
Dy913 O919 2.275 . S
Dy913 O921 2.307 . S
Dy913 O923 2.395 . S
Dy913 O924 2.379 . S
Dy913 O927 2.339 1_554 S
Dy913 C943 2.738 . S
C914 O926 1.254 . S
C914 O927 1.257 1_554 S
O915 Dy912 2.307 1_455 S
O915 C925 1.266 . S
O916 Dy913 2.298 . S
O916 C925 1.236 . S
O917 Dy912 2.395 . S
O917 C934 1.255 . S
O918 Dy912 2.379 . S
O918 C934 1.249 . S
O919 Dy913 2.275 . S
O919 C935 1.254 . S
O920 Dy912 2.339 1_455 S
O920 C935 1.257 . S
O921 Dy913 2.307 . S
O921 C936 1.266 . S
O922 Dy912 2.298 1_455 S
O922 C936 1.236 . S
O923 Dy913 2.395 . S
O923 C943 1.255 . S
O924 Dy913 2.379 . S
O924 C943 1.249 . S
C925 O915 1.266 . S
C925 O916 1.236 . S
O926 Dy912 2.275 1_455 S
O926 C914 1.254 . S
O927 Dy913 2.339 1_556 S
O927 C914 1.257 1_556 S
C928 C931 1.344 . S
C928 C932 1.328 . S
C928 C934 1.516 . S
C929 C930 1.304 . S
C929 C933 1.323 . S
C930 C929 1.304 . S
C930 C931 1.371 . S
C930 H944 0.930 . S
C931 C928 1.344 . S
C931 C930 1.371 . S
C931 H945 0.931 . S
C932 C928 1.328 . S
C932 C933 1.433 . S
C932 H946 0.931 . S
C933 C929 1.323 . S
C933 C932 1.433 . S
C933 H947 0.933 . S
C934 Dy912 2.738 . S
C934 O917 1.255 . S
C934 O918 1.249 . S
C934 C928 1.516 . S
C935 O919 1.254 . S
C935 O920 1.257 . S
C936 O921 1.266 . S
C936 O922 1.236 . S
C937 C940 1.344 . S
C937 C941 1.328 . S
C937 C943 1.516 . S
C938 C939 1.304 . S
C938 C942 1.310 1_554 S
C939 C938 1.304 . S
C939 C940 1.371 . S
C939 H948 0.930 . S
C940 C937 1.344 . S
C940 C939 1.371 . S
C940 H949 0.931 . S
C941 C937 1.328 . S
C941 C942 1.430 1_554 S
C941 H950 0.931 1_554 S
C942 C938 1.310 1_556 S
C942 C941 1.430 1_556 S
C942 H951 0.949 . S
C943 Dy913 2.738 . S
C943 O923 1.255 . S
C943 O924 1.249 . S
C943 C937 1.516 . S
H944 C930 0.930 . S
H945 C931 0.931 . S
H946 C932 0.931 . S
H947 C933 0.933 . S
H948 C939 0.930 . S
H949 C940 0.931 . S
H950 C941 0.931 1_556 S
H951 C942 0.949 . S
H952 C958 0.925 1_656 S
H953 C961 0.930 . S
H954 C962 0.930 . S
H955 C963 0.930 . S
H956 C966 0.930 . S
H957 C967 0.930 1_656 S
C958 H952 0.925 1_454 S
C958 C959 1.356 . S
C958 C960 1.418 . S
C959 C958 1.356 . S
C959 C961 1.419 . S
C960 C958 1.418 . S
C960 C965 1.425 . S
C960 C967 1.409 . S
C961 H953 0.930 . S
C961 C959 1.419 . S
C961 C962 1.362 . S
C962 H954 0.930 . S
C962 C961 1.362 . S
C962 C965 1.409 . S
C963 H955 0.930 . S
C963 C964 1.355 . S
C963 C965 1.415 . S
C964 C963 1.355 . S
C964 C966 1.419 . S
C965 C960 1.425 . S
C965 C962 1.409 . S
C965 C963 1.415 . S
C966 H956 0.930 . S
C966 C964 1.419 . S
C966 C967 1.362 . S
C967 H957 0.930 1_454 S
C967 C960 1.409 . S
C967 C966 1.362 . S
H968 C974 0.930 . S
H969 C977 0.930 . S
H970 C978 0.930 . S
H971 C979 0.930 . S
H972 C982 0.930 . S
H973 C983 0.930 . S
C974 H968 0.930 . S
C974 C975 1.355 . S
C974 C976 1.415 . S
C975 C974 1.355 . S
C975 C977 1.419 . S
C976 C974 1.415 . S
C976 C981 1.425 . S
C976 C983 1.409 . S
C977 H969 0.930 . S
C977 C975 1.419 . S
C977 C978 1.362 . S
C978 H970 0.930 . S
C978 C977 1.362 . S
C978 C981 1.409 . S
C979 H971 0.930 . S
C979 C980 1.355 . S
C979 C981 1.415 . S
C980 C979 1.355 . S
C980 C982 1.419 . S
C981 C976 1.425 . S
C981 C978 1.409 . S
C981 C979 1.415 . S
C982 H972 0.930 . S
C982 C980 1.419 . S
C982 C983 1.362 . S
C983 H973 0.930 . S
C983 C976 1.409 . S
C983 C982 1.362 . S
H984 C990 0.930 . S
H985 C993 0.930 . S
H986 C994 0.930 . S
H987 C995 0.930 . S
H988 C998 0.930 . S
H989 C999 0.930 . S
C990 H984 0.930 . S
C990 C991 1.355 . S
C990 C992 1.415 . S
C991 C990 1.355 . S
C991 C993 1.419 . S
C992 C990 1.415 . S
C992 C997 1.425 . S
C992 C999 1.409 . S
C993 H985 0.930 . S
C993 C991 1.419 . S
C993 C994 1.362 . S
C994 H986 0.930 . S
C994 C993 1.362 . S
C994 C997 1.409 . S
C995 H987 0.930 . S
C995 C996 1.355 . S
C995 C997 1.415 . S
C996 C995 1.355 . S
C996 C998 1.419 . S
C997 C992 1.425 . S
C997 C994 1.409 . S
C997 C995 1.415 . S
C998 H988 0.930 . S
C998 C996 1.419 . S
C998 C999 1.362 . S
C999 H989 0.930 . S
C999 C992 1.409 . S
C999 C998 1.362 . S
H1000 C1006 0.930 . S
H1001 C1009 0.930 . S
H1002 C1010 0.930 . S
H1003 C1011 0.930 . S
H1004 C1014 0.930 . S
H1005 C1015 0.930 . S
C1006 H1000 0.930 . S
C1006 C1007 1.355 . S
C1006 C1008 1.415 . S
C1007 C1006 1.355 . S
C1007 C1009 1.419 . S
C1008 C1006 1.415 . S
C1008 C1013 1.425 . S
C1008 C1015 1.409 . S
C1009 H1001 0.930 . S
C1009 C1007 1.419 . S
C1009 C1010 1.362 . S
C1010 H1002 0.930 . S
C1010 C1009 1.362 . S
C1010 C1013 1.409 . S
C1011 H1003 0.930 . S
C1011 C1012 1.355 . S
C1011 C1013 1.415 . S
C1012 C1011 1.355 . S
C1012 C1014 1.419 . S
C1013 C1008 1.425 . S
C1013 C1010 1.409 . S
C1013 C1011 1.415 . S
C1014 H1004 0.930 . S
C1014 C1012 1.419 . S
C1014 C1015 1.362 . S
C1015 H1005 0.930 . S
C1015 C1008 1.409 . S
C1015 C1014 1.362 . S
H1016 C1022 0.930 . S
H1017 C1025 0.930 . S
H1018 C1026 0.930 . S
H1019 C1027 0.930 . S
H1020 C1030 0.930 . S
H1021 C1031 0.930 . S
C1022 H1016 0.930 . S
C1022 C1023 1.355 . S
C1022 C1024 1.415 . S
C1023 C1022 1.355 . S
C1023 C1025 1.419 . S
C1024 C1022 1.415 . S
C1024 C1029 1.425 . S
C1024 C1031 1.409 . S
C1025 H1017 0.930 . S
C1025 C1023 1.419 . S
C1025 C1026 1.362 . S
C1026 H1018 0.930 . S
C1026 C1025 1.362 . S
C1026 C1029 1.409 . S
C1027 H1019 0.930 . S
C1027 C1028 1.355 . S
C1027 C1029 1.415 . S
C1028 C1027 1.355 . S
C1028 C1030 1.419 . S
C1029 C1024 1.425 . S
C1029 C1026 1.409 . S
C1029 C1027 1.415 . S
C1030 H1020 0.930 . S
C1030 C1028 1.419 . S
C1030 C1031 1.362 . S
C1031 H1021 0.930 . S
C1031 C1024 1.409 . S
C1031 C1030 1.362 . S
H1032 C1038 0.930 . S
H1033 C1041 0.930 . S
H1034 C1042 0.930 . S
H1035 C1043 0.930 . S
H1036 C1046 0.930 . S
H1037 C1047 0.930 . S
C1038 H1032 0.930 . S
C1038 C1039 1.355 . S
C1038 C1040 1.415 . S
C1039 C1038 1.355 . S
C1039 C1041 1.419 . S
C1040 C1038 1.415 . S
C1040 C1045 1.425 . S
C1040 C1047 1.409 . S
C1041 H1033 0.930 . S
C1041 C1039 1.419 . S
C1041 C1042 1.362 . S
C1042 H1034 0.930 . S
C1042 C1041 1.362 . S
C1042 C1045 1.409 . S
C1043 H1035 0.930 . S
C1043 C1044 1.355 . S
C1043 C1045 1.415 . S
C1044 C1043 1.355 . S
C1044 C1046 1.419 . S
C1045 C1040 1.425 . S
C1045 C1042 1.409 . S
C1045 C1043 1.415 . S
C1046 H1036 0.930 . S
C1046 C1044 1.419 . S
C1046 C1047 1.362 . S
C1047 H1037 0.930 . S
C1047 C1040 1.409 . S
C1047 C1046 1.362 . S
H1048 C1054 0.930 . S
H1049 C1057 0.930 . S
H1050 C1058 0.930 . S
H1051 C1059 0.930 . S
H1052 C1062 0.930 . S
H1053 C1063 0.930 . S
C1054 H1048 0.930 . S
C1054 C1055 1.355 . S
C1054 C1056 1.415 . S
C1055 C1054 1.355 . S
C1055 C1057 1.419 . S
C1056 C1054 1.415 . S
C1056 C1061 1.425 . S
C1056 C1063 1.409 . S
C1057 H1049 0.930 . S
C1057 C1055 1.419 . S
C1057 C1058 1.362 . S
C1058 H1050 0.930 . S
C1058 C1057 1.362 . S
C1058 C1061 1.409 . S
C1059 H1051 0.930 . S
C1059 C1060 1.355 . S
C1059 C1061 1.415 . S
C1060 C1059 1.355 . S
C1060 C1062 1.419 . S
C1061 C1056 1.425 . S
C1061 C1058 1.409 . S
C1061 C1059 1.415 . S
C1062 H1052 0.930 . S
C1062 C1060 1.419 . S
C1062 C1063 1.362 . S
C1063 H1053 0.930 . S
C1063 C1056 1.409 . S
C1063 C1062 1.362 . S
H1064 C1070 0.930 . S
H1065 C1073 0.930 . S
H1066 C1074 0.930 . S
H1067 C1075 0.930 . S
H1068 C1078 0.930 . S
H1069 C1079 0.930 . S
C1070 H1064 0.930 . S
C1070 C1071 1.355 . S
C1070 C1072 1.415 . S
C1071 C1070 1.355 . S
C1071 C1073 1.419 . S
C1072 C1070 1.415 . S
C1072 C1077 1.425 . S
C1072 C1079 1.409 . S
C1073 H1065 0.930 . S
C1073 C1071 1.419 . S
C1073 C1074 1.362 . S
C1074 H1066 0.930 . S
C1074 C1073 1.362 . S
C1074 C1077 1.409 . S
C1075 H1067 0.930 . S
C1075 C1076 1.355 . S
C1075 C1077 1.415 . S
C1076 C1075 1.355 . S
C1076 C1078 1.419 . S
C1077 C1072 1.425 . S
C1077 C1074 1.409 . S
C1077 C1075 1.415 . S
C1078 H1068 0.930 . S
C1078 C1076 1.419 . S
C1078 C1079 1.362 . S
C1079 H1069 0.930 . S
C1079 C1072 1.409 . S
C1079 C1078 1.362 . S
H1080 C1086 0.930 . S
H1081 C1089 0.930 . S
H1082 C1090 0.930 . S
H1083 C1091 0.930 1_655 S
H1084 C1094 0.930 . S
H1085 C1095 0.930 . S
C1086 H1080 0.930 . S
C1086 C1087 1.355 1_455 S
C1086 C1088 1.415 . S
C1087 C1086 1.355 1_655 S
C1087 C1089 1.419 . S
C1088 C1086 1.415 . S
C1088 C1093 1.425 1_455 S
C1088 C1095 1.409 . S
C1089 H1081 0.930 . S
C1089 C1087 1.419 . S
C1089 C1090 1.362 . S
C1090 H1082 0.930 . S
C1090 C1089 1.362 . S
C1090 C1093 1.409 . S
C1091 H1083 0.930 1_455 S
C1091 C1092 1.355 . S
C1091 C1093 1.415 1_455 S
C1092 C1091 1.355 . S
C1092 C1094 1.419 . S
C1093 C1088 1.425 1_655 S
C1093 C1090 1.409 . S
C1093 C1091 1.415 1_655 S
C1094 H1084 0.930 . S
C1094 C1092 1.419 . S
C1094 C1095 1.362 . S
C1095 H1085 0.930 . S
C1095 C1088 1.409 . S
C1095 C1094 1.362 . S
H1096 C1102 0.930 . S
H1097 C1105 0.930 . S
H1098 C1106 0.930 . S
H1099 C1107 0.930 . S
H1100 C1110 0.930 . S
H1101 C1111 0.930 . S
C1102 H1096 0.930 . S
C1102 C1103 1.355 . S
C1102 C1104 1.415 . S
C1103 C1102 1.355 . S
C1103 C1105 1.419 . S
C1104 C1102 1.415 . S
C1104 C1109 1.425 . S
C1104 C1111 1.409 . S
C1105 H1097 0.930 . S
C1105 C1103 1.419 . S
C1105 C1106 1.362 . S
C1106 H1098 0.930 . S
C1106 C1105 1.362 . S
C1106 C1109 1.409 . S
C1107 H1099 0.930 . S
C1107 C1108 1.355 . S
C1107 C1109 1.415 . S
C1108 C1107 1.355 . S
C1108 C1110 1.419 . S
C1109 C1104 1.425 . S
C1109 C1106 1.409 . S
C1109 C1107 1.415 . S
C1110 H1100 0.930 . S
C1110 C1108 1.419 . S
C1110 C1111 1.362 . S
C1111 H1101 0.930 . S
C1111 C1104 1.409 . S
C1111 C1110 1.362 . S
H1112 C1118 0.930 . S
H1113 C1121 0.930 . S
H1114 C1122 0.930 . S
H1115 C1123 0.930 . S
H1116 C1126 0.930 . S
H1117 C1127 0.930 . S
C1118 H1112 0.930 . S
C1118 C1119 1.355 . S
C1118 C1120 1.415 . S
C1119 C1118 1.355 . S
C1119 C1121 1.419 . S
C1120 C1118 1.415 . S
C1120 C1125 1.425 . S
C1120 C1127 1.409 . S
C1121 H1113 0.930 . S
C1121 C1119 1.419 . S
C1121 C1122 1.362 . S
C1122 H1114 0.930 . S
C1122 C1121 1.362 . S
C1122 C1125 1.409 . S
C1123 H1115 0.930 . S
C1123 C1124 1.355 . S
C1123 C1125 1.415 . S
C1124 C1123 1.355 . S
C1124 C1126 1.419 . S
C1125 C1120 1.425 . S
C1125 C1122 1.409 . S
C1125 C1123 1.415 . S
C1126 H1116 0.930 . S
C1126 C1124 1.419 . S
C1126 C1127 1.362 . S
C1127 H1117 0.930 . S
C1127 C1120 1.409 . S
C1127 C1126 1.362 . S
H1128 C1134 0.930 . S
H1129 C1137 0.930 . S
H1130 C1138 0.930 . S
H1131 C1139 0.930 . S
H1132 C1142 0.930 . S
H1133 C1143 0.930 . S
C1134 H1128 0.930 . S
C1134 C1135 1.355 . S
C1134 C1136 1.415 . S
C1135 C1134 1.355 . S
C1135 C1137 1.419 . S
C1136 C1134 1.415 . S
C1136 C1141 1.425 . S
C1136 C1143 1.409 . S
C1137 H1129 0.930 . S
C1137 C1135 1.419 . S
C1137 C1138 1.362 . S
C1138 H1130 0.930 . S
C1138 C1137 1.362 . S
C1138 C1141 1.409 . S
C1139 H1131 0.930 . S
C1139 C1140 1.355 . S
C1139 C1141 1.415 . S
C1140 C1139 1.355 . S
C1140 C1142 1.419 . S
C1141 C1136 1.425 . S
C1141 C1138 1.409 . S
C1141 C1139 1.415 . S
C1142 H1132 0.930 . S
C1142 C1140 1.419 . S
C1142 C1143 1.362 . S
C1143 H1133 0.930 . S
C1143 C1136 1.409 . S
C1143 C1142 1.362 . S
H1144 C1150 0.930 . S
H1145 C1153 0.910 1_565 S
H1146 C1154 0.930 1_565 S
H1147 C1155 0.930 . S
H1148 C1158 0.930 . S
H1149 C1159 0.930 1_655 S
C1150 H1144 0.930 . S
C1150 C1151 1.355 . S
C1150 C1152 1.415 . S
C1151 C1150 1.355 . S
C1151 C1153 1.419 . S
C1152 C1150 1.415 . S
C1152 C1157 1.425 1_655 S
C1152 C1159 1.409 1_655 S
C1153 H1145 0.910 1_545 S
C1153 C1151 1.419 . S
C1153 C1154 1.362 1_655 S
C1154 H1146 0.930 1_545 S
C1154 C1153 1.362 1_455 S
C1154 C1157 1.409 . S
C1155 H1147 0.930 . S
C1155 C1156 1.355 . S
C1155 C1157 1.415 . S
C1156 C1155 1.355 . S
C1156 C1158 1.419 . S
C1157 C1152 1.425 1_455 S
C1157 C1154 1.409 . S
C1157 C1155 1.415 . S
C1158 H1148 0.930 . S
C1158 C1156 1.419 . S
C1158 C1159 1.362 . S
C1159 H1149 0.930 1_455 S
C1159 C1152 1.409 1_455 S
C1159 C1158 1.362 . S
H1160 C1166 0.930 . S
H1161 C1169 0.930 . S
H1162 C1170 0.930 . S
H1163 C1171 0.930 . S
H1164 C1174 0.930 . S
H1165 C1175 0.930 . S
C1166 H1160 0.930 . S
C1166 C1167 1.355 . S
C1166 C1168 1.415 . S
C1167 C1166 1.355 . S
C1167 C1169 1.419 . S
C1168 C1166 1.415 . S
C1168 C1173 1.425 . S
C1168 C1175 1.409 . S
C1169 H1161 0.930 . S
C1169 C1167 1.419 . S
C1169 C1170 1.362 . S
C1170 H1162 0.930 . S
C1170 C1169 1.362 . S
C1170 C1173 1.409 . S
C1171 H1163 0.930 . S
C1171 C1172 1.355 . S
C1171 C1173 1.415 . S
C1172 C1171 1.355 . S
C1172 C1174 1.419 . S
C1173 C1168 1.425 . S
C1173 C1170 1.409 . S
C1173 C1171 1.415 . S
C1174 H1164 0.930 . S
C1174 C1172 1.419 . S
C1174 C1175 1.362 . S
C1175 H1165 0.930 . S
C1175 C1168 1.409 . S
C1175 C1174 1.362 . S
H1176 C1182 0.930 . S
H1177 C1185 0.930 . S
H1178 C1186 0.930 . S
H1179 C1187 0.930 . S
H1180 C1190 0.930 . S
H1181 C1191 0.930 . S
C1182 H1176 0.930 . S
C1182 C1183 1.355 . S
C1182 C1184 1.415 . S
C1183 C1182 1.355 . S
C1183 C1185 1.419 . S
C1184 C1182 1.415 . S
C1184 C1189 1.425 . S
C1184 C1191 1.409 . S
C1185 H1177 0.930 . S
C1185 C1183 1.419 . S
C1185 C1186 1.362 . S
C1186 H1178 0.930 . S
C1186 C1185 1.362 . S
C1186 C1189 1.409 . S
C1187 H1179 0.930 . S
C1187 C1188 1.355 . S
C1187 C1189 1.415 . S
C1188 C1187 1.355 . S
C1188 C1190 1.419 . S
C1189 C1184 1.425 . S
C1189 C1186 1.409 . S
C1189 C1187 1.415 . S
C1190 H1180 0.930 . S
C1190 C1188 1.419 . S
C1190 C1191 1.362 . S
C1191 H1181 0.930 . S
C1191 C1184 1.409 . S
C1191 C1190 1.362 . S
H1192 C1198 0.930 . S
H1193 C1201 0.930 . S
H1194 C1202 0.930 . S
H1195 C1203 0.930 . S
H1196 C1206 0.930 . S
H1197 C1207 0.930 . S
C1198 H1192 0.930 . S
C1198 C1199 1.355 . S
C1198 C1200 1.415 . S
C1199 C1198 1.355 . S
C1199 C1201 1.419 . S
C1200 C1198 1.415 . S
C1200 C1205 1.425 . S
C1200 C1207 1.409 . S
C1201 H1193 0.930 . S
C1201 C1199 1.419 . S
C1201 C1202 1.362 . S
C1202 H1194 0.930 . S
C1202 C1201 1.362 . S
C1202 C1205 1.409 . S
C1203 H1195 0.930 . S
C1203 C1204 1.355 . S
C1203 C1205 1.415 . S
C1204 C1203 1.355 . S
C1204 C1206 1.419 . S
C1205 C1200 1.425 . S
C1205 C1202 1.409 . S
C1205 C1203 1.415 . S
C1206 H1196 0.930 . S
C1206 C1204 1.419 . S
C1206 C1207 1.362 . S
C1207 H1197 0.930 . S
C1207 C1200 1.409 . S
C1207 C1206 1.362 . S
H1208 C1214 0.930 . S
H1209 C1217 0.930 . S
H1210 C1218 0.930 1_556 S
H1211 C1219 0.930 . S
H1212 C1222 0.930 . S
H1213 C1223 0.930 . S
C1214 H1208 0.930 . S
C1214 C1215 1.355 . S
C1214 C1216 1.415 . S
C1215 C1214 1.355 . S
C1215 C1217 1.419 1_554 S
C1216 C1214 1.415 . S
C1216 C1221 1.425 . S
C1216 C1223 1.409 . S
C1217 H1209 0.930 . S
C1217 C1215 1.419 1_556 S
C1217 C1218 1.362 1_556 S
C1218 H1210 0.930 1_554 S
C1218 C1217 1.362 1_554 S
C1218 C1221 1.409 . S
C1219 H1211 0.930 . S
C1219 C1220 1.355 . S
C1219 C1221 1.415 1_545 S
C1220 C1219 1.355 . S
C1220 C1222 1.419 . S
C1221 C1216 1.425 . S
C1221 C1218 1.409 . S
C1221 C1219 1.415 1_565 S
C1222 H1212 0.930 . S
C1222 C1220 1.419 . S
C1222 C1223 1.362 1_545 S
C1223 H1213 0.930 . S
C1223 C1216 1.409 . S
C1223 C1222 1.362 1_565 S
H1224 C1230 0.930 . S
H1225 C1233 0.930 . S
H1226 C1234 0.930 . S
H1227 C1235 0.930 1_556 S
H1228 C1238 0.930 . S
H1229 C1239 0.930 . S
C1230 H1224 0.930 . S
C1230 C1231 1.355 . S
C1230 C1232 1.415 . S
C1231 C1230 1.355 . S
C1231 C1233 1.419 1_554 S
C1232 C1230 1.415 . S
C1232 C1237 1.425 . S
C1232 C1239 1.409 . S
C1233 H1225 0.930 . S
C1233 C1231 1.419 1_556 S
C1233 C1234 1.362 . S
C1234 H1226 0.930 . S
C1234 C1233 1.362 . S
C1234 C1237 1.409 1_556 S
C1235 H1227 0.930 1_554 S
C1235 C1236 1.355 . S
C1235 C1237 1.415 . S
C1236 C1235 1.355 . S
C1236 C1238 1.419 . S
C1237 C1232 1.425 . S
C1237 C1234 1.409 1_554 S
C1237 C1235 1.415 . S
C1238 H1228 0.930 . S
C1238 C1236 1.419 . S
C1238 C1239 1.362 . S
C1239 H1229 0.930 . S
C1239 C1232 1.409 . S
C1239 C1238 1.362 . S
H1240 C1246 0.930 . S
H1241 C1249 0.930 . S
H1242 C1250 0.930 . S
H1243 C1251 0.930 . S
H1244 C1254 0.930 . S
H1245 C1255 0.930 . S
C1246 H1240 0.930 . S
C1246 C1247 1.355 . S
C1246 C1248 1.415 . S
C1247 C1246 1.355 . S
C1247 C1249 1.419 . S
C1248 C1246 1.415 . S
C1248 C1253 1.425 . S
C1248 C1255 1.409 . S
C1249 H1241 0.930 . S
C1249 C1247 1.419 . S
C1249 C1250 1.362 . S
C1250 H1242 0.930 . S
C1250 C1249 1.362 . S
C1250 C1253 1.409 . S
C1251 H1243 0.930 . S
C1251 C1252 1.355 . S
C1251 C1253 1.415 . S
C1252 C1251 1.355 . S
C1252 C1254 1.419 . S
C1253 C1248 1.425 . S
C1253 C1250 1.409 . S
C1253 C1251 1.415 . S
C1254 H1244 0.930 . S
C1254 C1252 1.419 . S
C1254 C1255 1.362 . S
C1255 H1245 0.930 . S
C1255 C1248 1.409 . S
C1255 C1254 1.362 . S
H1256 C1262 0.930 . S
H1257 C1265 0.930 . S
H1258 C1266 0.930 . S
H1259 C1267 0.930 . S
H1260 C1270 0.930 . S
H1261 C1271 0.930 . S
C1262 H1256 0.930 . S
C1262 C1263 1.355 . S
C1262 C1264 1.415 . S
C1263 C1262 1.355 . S
C1263 C1265 1.419 . S
C1264 C1262 1.415 . S
C1264 C1269 1.425 . S
C1264 C1271 1.409 . S
C1265 H1257 0.930 . S
C1265 C1263 1.419 . S
C1265 C1266 1.362 . S
C1266 H1258 0.930 . S
C1266 C1265 1.362 . S
C1266 C1269 1.409 . S
C1267 H1259 0.930 . S
C1267 C1268 1.355 . S
C1267 C1269 1.415 . S
C1268 C1267 1.355 . S
C1268 C1270 1.419 . S
C1269 C1264 1.425 . S
C1269 C1266 1.409 . S
C1269 C1267 1.415 . S
C1270 H1260 0.930 . S
C1270 C1268 1.419 . S
C1270 C1271 1.362 . S
C1271 H1261 0.930 . S
C1271 C1264 1.409 . S
C1271 C1270 1.362 . S
H1272 C1278 0.930 . S
H1273 C1281 0.930 . S
H1274 C1282 0.930 . S
H1275 C1283 0.930 . S
H1276 C1286 0.930 . S
H1277 C1287 0.930 . S
C1278 H1272 0.930 . S
C1278 C1279 1.355 . S
C1278 C1280 1.415 . S
C1279 C1278 1.355 . S
C1279 C1281 1.419 . S
C1280 C1278 1.415 . S
C1280 C1285 1.425 . S
C1280 C1287 1.409 . S
C1281 H1273 0.930 . S
C1281 C1279 1.419 . S
C1281 C1282 1.362 . S
C1282 H1274 0.930 . S
C1282 C1281 1.362 . S
C1282 C1285 1.409 . S
C1283 H1275 0.930 . S
C1283 C1284 1.355 . S
C1283 C1285 1.415 . S
C1284 C1283 1.355 . S
C1284 C1286 1.419 . S
C1285 C1280 1.425 . S
C1285 C1282 1.409 . S
C1285 C1283 1.415 . S
C1286 H1276 0.930 . S
C1286 C1284 1.419 . S
C1286 C1287 1.362 . S
C1287 H1277 0.930 . S
C1287 C1280 1.409 . S
C1287 C1286 1.362 . S
H1288 C1294 0.930 . S
H1289 C1297 0.930 . S
H1290 C1298 0.930 . S
H1291 C1299 0.930 . S
H1292 C1302 0.930 . S
H1293 C1303 0.930 . S
C1294 H1288 0.930 . S
C1294 C1295 1.355 . S
C1294 C1296 1.415 . S
C1295 C1294 1.355 . S
C1295 C1297 1.419 . S
C1296 C1294 1.415 . S
C1296 C1301 1.425 . S
C1296 C1303 1.409 . S
C1297 H1289 0.930 . S
C1297 C1295 1.419 . S
C1297 C1298 1.362 . S
C1298 H1290 0.930 . S
C1298 C1297 1.362 . S
C1298 C1301 1.409 . S
C1299 H1291 0.930 . S
C1299 C1300 1.355 . S
C1299 C1301 1.415 . S
C1300 C1299 1.355 . S
C1300 C1302 1.419 . S
C1301 C1296 1.425 . S
C1301 C1298 1.409 . S
C1301 C1299 1.415 . S
C1302 H1292 0.930 . S
C1302 C1300 1.419 . S
C1302 C1303 1.362 . S
C1303 H1293 0.930 . S
C1303 C1296 1.409 . S
C1303 C1302 1.362 . S
H1304 C1310 0.930 . S
H1305 C1313 0.930 . S
H1306 C1314 0.930 . S
H1307 C1315 0.930 . S
H1308 C1318 0.930 . S
H1309 C1319 0.930 . S
C1310 H1304 0.930 . S
C1310 C1311 1.355 . S
C1310 C1312 1.415 . S
C1311 C1310 1.355 . S
C1311 C1313 1.419 . S
C1312 C1310 1.415 . S
C1312 C1317 1.425 . S
C1312 C1319 1.409 . S
C1313 H1305 0.930 . S
C1313 C1311 1.419 . S
C1313 C1314 1.362 . S
C1314 H1306 0.930 . S
C1314 C1313 1.362 . S
C1314 C1317 1.409 . S
C1315 H1307 0.930 . S
C1315 C1316 1.355 . S
C1315 C1317 1.415 . S
C1316 C1315 1.355 . S
C1316 C1318 1.419 . S
C1317 C1312 1.425 . S
C1317 C1314 1.409 . S
C1317 C1315 1.415 . S
C1318 H1308 0.930 . S
C1318 C1316 1.419 . S
C1318 C1319 1.362 . S
C1319 H1309 0.930 . S
C1319 C1312 1.409 . S
C1319 C1318 1.362 . S
H1320 C1326 0.930 . S
H1321 C1329 0.930 . S
H1322 C1330 0.930 . S
H1323 C1331 0.930 . S
H1324 C1334 0.930 . S
H1325 C1335 0.930 . S
C1326 H1320 0.930 . S
C1326 C1327 1.355 . S
C1326 C1328 1.415 . S
C1327 C1326 1.355 . S
C1327 C1329 1.419 . S
C1328 C1326 1.415 . S
C1328 C1333 1.425 . S
C1328 C1335 1.409 . S
C1329 H1321 0.930 . S
C1329 C1327 1.419 . S
C1329 C1330 1.362 . S
C1330 H1322 0.930 . S
C1330 C1329 1.362 . S
C1330 C1333 1.409 . S
C1331 H1323 0.930 . S
C1331 C1332 1.355 . S
C1331 C1333 1.415 . S
C1332 C1331 1.355 . S
C1332 C1334 1.419 . S
C1333 C1328 1.425 . S
C1333 C1330 1.409 . S
C1333 C1331 1.415 . S
C1334 H1324 0.930 . S
C1334 C1332 1.419 . S
C1334 C1335 1.362 . S
C1335 H1325 0.930 . S
C1335 C1328 1.409 . S
C1335 C1334 1.362 . S
H1336 C1342 0.930 . S
H1337 C1345 0.930 . S
H1338 C1346 0.930 . S
H1339 C1347 0.930 . S
H1340 C1350 0.930 . S
H1341 C1351 0.930 . S
C1342 H1336 0.930 . S
C1342 C1343 1.355 . S
C1342 C1344 1.415 . S
C1343 C1342 1.355 . S
C1343 C1345 1.419 . S
C1344 C1342 1.415 . S
C1344 C1349 1.425 . S
C1344 C1351 1.409 . S
C1345 H1337 0.930 . S
C1345 C1343 1.419 . S
C1345 C1346 1.362 . S
C1346 H1338 0.930 . S
C1346 C1345 1.362 . S
C1346 C1349 1.409 . S
C1347 H1339 0.930 . S
C1347 C1348 1.355 . S
C1347 C1349 1.415 . S
C1348 C1347 1.355 . S
C1348 C1350 1.419 . S
C1349 C1344 1.425 . S
C1349 C1346 1.409 . S
C1349 C1347 1.415 . S
C1350 H1340 0.930 . S
C1350 C1348 1.419 . S
C1350 C1351 1.362 . S
C1351 H1341 0.930 . S
C1351 C1344 1.409 . S
C1351 C1350 1.362 . S
H1352 C1358 0.930 . S
H1353 C1361 0.930 . S
H1354 C1362 0.930 . S
H1355 C1363 0.930 . S
H1356 C1366 0.930 . S
H1357 C1367 0.930 . S
C1358 H1352 0.930 . S
C1358 C1359 1.355 . S
C1358 C1360 1.415 . S
C1359 C1358 1.355 . S
C1359 C1361 1.419 . S
C1360 C1358 1.415 . S
C1360 C1365 1.425 . S
C1360 C1367 1.409 . S
C1361 H1353 0.930 . S
C1361 C1359 1.419 . S
C1361 C1362 1.362 . S
C1362 H1354 0.930 . S
C1362 C1361 1.362 . S
C1362 C1365 1.409 . S
C1363 H1355 0.930 . S
C1363 C1364 1.355 . S
C1363 C1365 1.415 . S
C1364 C1363 1.355 . S
C1364 C1366 1.419 . S
C1365 C1360 1.425 . S
C1365 C1362 1.409 . S
C1365 C1363 1.415 . S
C1366 H1356 0.930 . S
C1366 C1364 1.419 . S
C1366 C1367 1.362 . S
C1367 H1357 0.930 . S
C1367 C1360 1.409 . S
C1367 C1366 1.362 . S
H1368 C1374 0.930 . S
H1369 C1377 0.930 . S
H1370 C1378 0.930 . S
H1371 C1379 0.930 . S
H1372 C1382 0.930 . S
H1373 C1383 0.930 . S
C1374 H1368 0.930 . S
C1374 C1375 1.355 . S
C1374 C1376 1.415 . S
C1375 C1374 1.355 . S
C1375 C1377 1.419 . S
C1376 C1374 1.415 . S
C1376 C1381 1.425 . S
C1376 C1383 1.409 . S
C1377 H1369 0.930 . S
C1377 C1375 1.419 . S
C1377 C1378 1.362 . S
C1378 H1370 0.930 . S
C1378 C1377 1.362 . S
C1378 C1381 1.409 . S
C1379 H1371 0.930 . S
C1379 C1380 1.355 . S
C1379 C1381 1.415 . S
C1380 C1379 1.355 . S
C1380 C1382 1.419 . S
C1381 C1376 1.425 . S
C1381 C1378 1.409 . S
C1381 C1379 1.415 . S
C1382 H1372 0.930 . S
C1382 C1380 1.419 . S
C1382 C1383 1.362 . S
C1383 H1373 0.930 . S
C1383 C1376 1.409 . S
C1383 C1382 1.362 . S
H1384 C1390 0.930 . S
H1385 C1393 0.930 . S
H1386 C1394 0.930 . S
H1387 C1395 0.930 . S
H1388 C1398 0.930 . S
H1389 C1399 0.930 . S
C1390 H1384 0.930 . S
C1390 C1391 1.355 . S
C1390 C1392 1.415 . S
C1391 C1390 1.355 . S
C1391 C1393 1.419 . S
C1392 C1390 1.415 . S
C1392 C1397 1.425 . S
C1392 C1399 1.409 . S
C1393 H1385 0.930 . S
C1393 C1391 1.419 . S
C1393 C1394 1.362 . S
C1394 H1386 0.930 . S
C1394 C1393 1.362 . S
C1394 C1397 1.409 . S
C1395 H1387 0.930 . S
C1395 C1396 1.355 . S
C1395 C1397 1.415 . S
C1396 C1395 1.355 . S
C1396 C1398 1.419 . S
C1397 C1392 1.425 . S
C1397 C1394 1.409 . S
C1397 C1395 1.415 . S
C1398 H1388 0.930 . S
C1398 C1396 1.419 . S
C1398 C1399 1.362 . S
C1399 H1389 0.930 . S
C1399 C1392 1.409 . S
C1399 C1398 1.362 . S
H1400 C1406 0.930 . S
H1401 C1409 0.930 1_655 S
H1402 C1410 0.965 . S
H1403 C1411 0.930 1_655 S
H1404 C1414 0.930 . S
H1405 C1415 0.930 . S
C1406 H1400 0.930 . S
C1406 C1407 1.355 . S
C1406 C1408 1.415 . S
C1407 C1406 1.355 . S
C1407 C1409 1.419 . S
C1408 C1406 1.415 . S
C1408 C1413 1.425 . S
C1408 C1415 1.409 . S
C1409 H1401 0.930 1_455 S
C1409 C1407 1.419 . S
C1409 C1410 1.353 1_455 S
C1410 H1402 0.965 . S
C1410 C1409 1.353 1_655 S
C1410 C1413 1.385 1_655 S
C1411 H1403 0.930 1_455 S
C1411 C1412 1.355 . S
C1411 C1413 1.415 . S
C1412 C1411 1.355 . S
C1412 C1414 1.419 . S
C1413 C1408 1.425 . S
C1413 C1410 1.385 1_455 S
C1413 C1411 1.415 . S
C1414 H1404 0.930 . S
C1414 C1412 1.419 . S
C1414 C1415 1.362 . S
C1415 H1405 0.930 . S
C1415 C1408 1.409 . S
C1415 C1414 1.362 . S
H1416 C1422 0.930 . S
H1417 C1425 0.930 . S
H1418 C1426 0.930 . S
H1419 C1427 0.930 . S
H1420 C1430 0.930 . S
H1421 C1431 0.930 . S
C1422 H1416 0.930 . S
C1422 C1423 1.355 . S
C1422 C1424 1.415 . S
C1423 C1422 1.355 . S
C1423 C1425 1.419 . S
C1424 C1422 1.415 . S
C1424 C1429 1.425 . S
C1424 C1431 1.409 . S
C1425 H1417 0.930 . S
C1425 C1423 1.419 . S
C1425 C1426 1.362 . S
C1426 H1418 0.930 . S
C1426 C1425 1.362 . S
C1426 C1429 1.409 . S
C1427 H1419 0.930 . S
C1427 C1428 1.355 . S
C1427 C1429 1.415 . S
C1428 C1427 1.355 . S
C1428 C1430 1.419 . S
C1429 C1424 1.425 . S
C1429 C1426 1.409 . S
C1429 C1427 1.415 . S
C1430 H1420 0.930 . S
C1430 C1428 1.419 . S
C1430 C1431 1.362 . S
C1431 H1421 0.930 . S
C1431 C1424 1.409 . S
C1431 C1430 1.362 . S
H1432 C1438 0.930 . S
H1433 C1441 0.930 . S
H1434 C1442 0.930 . S
H1435 C1443 0.930 . S
H1436 C1446 0.930 1_554 S
H1437 C1447 0.930 . S
C1438 H1432 0.930 . S
C1438 C1439 1.355 . S
C1438 C1440 1.415 . S
C1439 C1438 1.355 . S
C1439 C1441 1.419 . S
C1440 C1438 1.415 . S
C1440 C1445 1.425 . S
C1440 C1447 1.409 . S
C1441 H1433 0.930 . S
C1441 C1439 1.419 . S
C1441 C1442 1.362 . S
C1442 H1434 0.930 . S
C1442 C1441 1.362 . S
C1442 C1445 1.409 . S
C1443 H1435 0.930 . S
C1443 C1444 1.355 . S
C1443 C1445 1.415 . S
C1444 C1443 1.355 . S
C1444 C1446 1.419 . S
C1445 C1440 1.425 . S
C1445 C1442 1.409 . S
C1445 C1443 1.415 . S
C1446 H1436 0.930 1_556 S
C1446 C1444 1.419 . S
C1446 C1447 1.362 . S
C1447 H1437 0.930 . S
C1447 C1440 1.409 . S
C1447 C1446 1.362 . S
H1448 C1454 0.930 . S
H1449 C1457 0.930 . S
H1450 C1458 0.930 . S
H1451 C1459 0.930 . S
H1452 C1462 0.930 . S
H1453 C1463 0.930 . S
C1454 H1448 0.930 . S
C1454 C1455 1.355 . S
C1454 C1456 1.415 . S
C1455 C1454 1.355 . S
C1455 C1457 1.419 . S
C1456 C1454 1.415 . S
C1456 C1461 1.425 . S
C1456 C1463 1.409 . S
C1457 H1449 0.930 . S
C1457 C1455 1.419 . S
C1457 C1458 1.362 . S
C1458 H1450 0.930 . S
C1458 C1457 1.362 . S
C1458 C1461 1.409 . S
C1459 H1451 0.930 . S
C1459 C1460 1.355 . S
C1459 C1461 1.415 . S
C1460 C1459 1.355 . S
C1460 C1462 1.419 . S
C1461 C1456 1.425 . S
C1461 C1458 1.409 . S
C1461 C1459 1.415 . S
C1462 H1452 0.930 . S
C1462 C1460 1.419 . S
C1462 C1463 1.362 . S
C1463 H1453 0.930 . S
C1463 C1456 1.409 . S
C1463 C1462 1.362 . S
H1464 C1470 0.930 . S
H1465 C1473 0.930 . S
H1466 C1474 0.930 . S
H1467 C1475 0.930 . S
H1468 C1478 0.930 . S
H1469 C1479 0.930 . S
C1470 H1464 0.930 . S
C1470 C1471 1.355 . S
C1470 C1472 1.415 . S
C1471 C1470 1.355 . S
C1471 C1473 1.419 . S
C1472 C1470 1.415 . S
C1472 C1477 1.425 . S
C1472 C1479 1.409 . S
C1473 H1465 0.930 . S
C1473 C1471 1.419 . S
C1473 C1474 1.362 . S
C1474 H1466 0.930 . S
C1474 C1473 1.362 . S
C1474 C1477 1.409 . S
C1475 H1467 0.930 . S
C1475 C1476 1.355 . S
C1475 C1477 1.415 . S
C1476 C1475 1.355 . S
C1476 C1478 1.419 . S
C1477 C1472 1.425 . S
C1477 C1474 1.409 . S
C1477 C1475 1.415 . S
C1478 H1468 0.930 . S
C1478 C1476 1.419 . S
C1478 C1479 1.362 . S
C1479 H1469 0.930 . S
C1479 C1472 1.409 . S
C1479 C1478 1.362 . S
H1480 C1486 0.930 . S
H1481 C1489 0.930 . S
H1482 C1490 0.930 . S
H1483 C1491 0.930 . S
H1484 C1494 0.930 . S
H1485 C1495 0.930 . S
C1486 H1480 0.930 . S
C1486 C1487 1.355 . S
C1486 C1488 1.415 . S
C1487 C1486 1.355 . S
C1487 C1489 1.419 . S
C1488 C1486 1.415 . S
C1488 C1493 1.425 . S
C1488 C1495 1.409 . S
C1489 H1481 0.930 . S
C1489 C1487 1.419 . S
C1489 C1490 1.362 . S
C1490 H1482 0.930 . S
C1490 C1489 1.362 . S
C1490 C1493 1.409 . S
C1491 H1483 0.930 . S
C1491 C1492 1.355 . S
C1491 C1493 1.415 . S
C1492 C1491 1.355 . S
C1492 C1494 1.419 . S
C1493 C1488 1.425 . S
C1493 C1490 1.409 . S
C1493 C1491 1.415 . S
C1494 H1484 0.930 . S
C1494 C1492 1.419 . S
C1494 C1495 1.362 . S
C1495 H1485 0.930 . S
C1495 C1488 1.409 . S
C1495 C1494 1.362 . S
H1496 C1502 0.930 . S
H1497 C1505 0.934 . S
H1498 C1506 0.931 1_565 S
H1499 C1507 0.930 . S
H1500 C1510 0.930 . S
H1501 C1511 0.930 . S
C1502 H1496 0.930 . S
C1502 C1503 1.355 . S
C1502 C1504 1.415 . S
C1503 C1502 1.355 . S
C1503 C1505 1.414 1_545 S
C1504 C1502 1.415 . S
C1504 C1509 1.425 . S
C1504 C1511 1.409 . S
C1505 H1497 0.934 . S
C1505 C1503 1.414 1_565 S
C1505 C1506 1.364 1_565 S
C1506 H1498 0.931 1_545 S
C1506 C1505 1.364 1_545 S
C1506 C1509 1.409 . S
C1507 H1499 0.930 . S
C1507 C1508 1.355 . S
C1507 C1509 1.415 . S
C1508 C1507 1.355 . S
C1508 C1510 1.419 . S
C1509 C1504 1.425 . S
C1509 C1506 1.409 . S
C1509 C1507 1.415 . S
C1510 H1500 0.930 . S
C1510 C1508 1.419 . S
C1510 C1511 1.362 . S
C1511 H1501 0.930 . S
C1511 C1504 1.409 . S
C1511 C1510 1.362 . S
H1512 C1518 0.930 . S
H1513 C1521 0.930 . S
H1514 C1522 0.930 . S
H1515 C1523 0.930 . S
H1516 C1526 0.930 . S
H1517 C1527 0.930 . S
C1518 H1512 0.930 . S
C1518 C1519 1.355 . S
C1518 C1520 1.415 . S
C1519 C1518 1.355 . S
C1519 C1521 1.419 . S
C1520 C1518 1.415 . S
C1520 C1525 1.425 . S
C1520 C1527 1.409 . S
C1521 H1513 0.930 . S
C1521 C1519 1.419 . S
C1521 C1522 1.362 . S
C1522 H1514 0.930 . S
C1522 C1521 1.362 . S
C1522 C1525 1.409 . S
C1523 H1515 0.930 . S
C1523 C1524 1.355 . S
C1523 C1525 1.415 . S
C1524 C1523 1.355 . S
C1524 C1526 1.419 . S
C1525 C1520 1.425 . S
C1525 C1522 1.409 . S
C1525 C1523 1.415 . S
C1526 H1516 0.930 . S
C1526 C1524 1.419 . S
C1526 C1527 1.362 . S
C1527 H1517 0.930 . S
C1527 C1520 1.409 . S
C1527 C1526 1.362 . S
H1528 C1534 0.930 . S
H1529 C1537 0.930 . S
H1530 C1538 0.930 . S
H1531 C1539 0.930 . S
H1532 C1542 0.930 . S
H1533 C1543 0.930 . S
C1534 H1528 0.930 . S
C1534 C1535 1.355 . S
C1534 C1536 1.415 . S
C1535 C1534 1.355 . S
C1535 C1537 1.419 . S
C1536 C1534 1.415 . S
C1536 C1541 1.425 . S
C1536 C1543 1.409 . S
C1537 H1529 0.930 . S
C1537 C1535 1.419 . S
C1537 C1538 1.362 . S
C1538 H1530 0.930 . S
C1538 C1537 1.362 . S
C1538 C1541 1.409 . S
C1539 H1531 0.930 . S
C1539 C1540 1.355 . S
C1539 C1541 1.415 . S
C1540 C1539 1.355 . S
C1540 C1542 1.419 . S
C1541 C1536 1.425 . S
C1541 C1538 1.409 . S
C1541 C1539 1.415 . S
C1542 H1532 0.930 . S
C1542 C1540 1.419 . S
C1542 C1543 1.362 . S
C1543 H1533 0.930 . S
C1543 C1536 1.409 . S
C1543 C1542 1.362 . S
H1544 C1550 0.930 . S
H1545 C1553 0.930 . S
H1546 C1554 0.930 . S
H1547 C1555 0.930 . S
H1548 C1558 0.930 . S
H1549 C1559 0.930 . S
C1550 H1544 0.930 . S
C1550 C1551 1.355 . S
C1550 C1552 1.415 . S
C1551 C1550 1.355 . S
C1551 C1553 1.419 . S
C1552 C1550 1.415 . S
C1552 C1557 1.425 . S
C1552 C1559 1.409 . S
C1553 H1545 0.930 . S
C1553 C1551 1.419 . S
C1553 C1554 1.362 . S
C1554 H1546 0.930 . S
C1554 C1553 1.362 . S
C1554 C1557 1.409 . S
C1555 H1547 0.930 . S
C1555 C1556 1.355 . S
C1555 C1557 1.415 . S
C1556 C1555 1.355 . S
C1556 C1558 1.419 . S
C1557 C1552 1.425 . S
C1557 C1554 1.409 . S
C1557 C1555 1.415 . S
C1558 H1548 0.930 . S
C1558 C1556 1.419 . S
C1558 C1559 1.362 . S
C1559 H1549 0.930 . S
C1559 C1552 1.409 . S
C1559 C1558 1.362 . S
H1560 C1566 0.930 . S
H1561 C1569 0.930 . S
H1562 C1570 0.930 . S
H1563 C1571 0.930 . S
H1564 C1574 0.930 . S
H1565 C1575 0.930 . S
C1566 H1560 0.930 . S
C1566 C1567 1.355 1_565 S
C1566 C1568 1.415 . S
C1567 C1566 1.355 1_545 S
C1567 C1569 1.419 . S
C1568 C1566 1.415 . S
C1568 C1573 1.425 1_565 S
C1568 C1575 1.409 . S
C1569 H1561 0.930 . S
C1569 C1567 1.419 . S
C1569 C1570 1.362 . S
C1570 H1562 0.930 . S
C1570 C1569 1.362 . S
C1570 C1573 1.409 . S
C1571 H1563 0.930 . S
C1571 C1572 1.355 1_545 S
C1571 C1573 1.415 . S
C1572 C1571 1.355 1_565 S
C1572 C1574 1.419 . S
C1573 C1568 1.425 1_545 S
C1573 C1570 1.409 . S
C1573 C1571 1.415 . S
C1574 H1564 0.930 . S
C1574 C1572 1.419 . S
C1574 C1575 1.362 . S
C1575 H1565 0.930 . S
C1575 C1568 1.409 . S
C1575 C1574 1.362 . S
H1576 C1582 0.930 . S
H1577 C1585 0.930 . S
H1578 C1586 0.930 . S
H1579 C1587 0.930 . S
H1580 C1590 0.930 . S
H1581 C1591 0.930 . S
C1582 H1576 0.930 . S
C1582 C1583 1.355 . S
C1582 C1584 1.415 . S
C1583 C1582 1.355 . S
C1583 C1585 1.419 . S
C1584 C1582 1.415 . S
C1584 C1589 1.425 . S
C1584 C1591 1.409 . S
C1585 H1577 0.930 . S
C1585 C1583 1.419 . S
C1585 C1586 1.362 . S
C1586 H1578 0.930 . S
C1586 C1585 1.362 . S
C1586 C1589 1.409 . S
C1587 H1579 0.930 . S
C1587 C1588 1.355 . S
C1587 C1589 1.415 . S
C1588 C1587 1.355 . S
C1588 C1590 1.419 . S
C1589 C1584 1.425 . S
C1589 C1586 1.409 . S
C1589 C1587 1.415 . S
C1590 H1580 0.930 . S
C1590 C1588 1.419 . S
C1590 C1591 1.362 . S
C1591 H1581 0.930 . S
C1591 C1584 1.409 . S
C1591 C1590 1.362 . S
H1592 C1598 0.930 . S
H1593 C1601 0.930 . S
H1594 C1602 0.930 . S
H1595 C1603 0.930 . S
H1596 C1606 0.930 . S
H1597 C1607 0.930 . S
C1598 H1592 0.930 . S
C1598 C1599 1.355 . S
C1598 C1600 1.415 . S
C1599 C1598 1.355 . S
C1599 C1601 1.419 . S
C1600 C1598 1.415 . S
C1600 C1605 1.425 . S
C1600 C1607 1.409 . S
C1601 H1593 0.930 . S
C1601 C1599 1.419 . S
C1601 C1602 1.362 . S
C1602 H1594 0.930 . S
C1602 C1601 1.362 . S
C1602 C1605 1.409 . S
C1603 H1595 0.930 . S
C1603 C1604 1.355 . S
C1603 C1605 1.415 . S
C1604 C1603 1.355 . S
C1604 C1606 1.419 . S
C1605 C1600 1.425 . S
C1605 C1602 1.409 . S
C1605 C1603 1.415 . S
C1606 H1596 0.930 . S
C1606 C1604 1.419 . S
C1606 C1607 1.362 . S
C1607 H1597 0.930 . S
C1607 C1600 1.409 . S
C1607 C1606 1.362 . S
H1608 C1614 0.930 . S
H1609 C1617 0.930 . S
H1610 C1618 0.930 . S
H1611 C1619 0.930 . S
H1612 C1622 0.930 . S
H1613 C1623 0.930 . S
C1614 H1608 0.930 . S
C1614 C1615 1.355 . S
C1614 C1616 1.415 . S
C1615 C1614 1.355 . S
C1615 C1617 1.419 . S
C1616 C1614 1.415 . S
C1616 C1621 1.425 . S
C1616 C1623 1.409 . S
C1617 H1609 0.930 . S
C1617 C1615 1.419 . S
C1617 C1618 1.362 . S
C1618 H1610 0.930 . S
C1618 C1617 1.362 . S
C1618 C1621 1.409 . S
C1619 H1611 0.930 . S
C1619 C1620 1.355 . S
C1619 C1621 1.415 . S
C1620 C1619 1.355 . S
C1620 C1622 1.419 . S
C1621 C1616 1.425 . S
C1621 C1618 1.409 . S
C1621 C1619 1.415 . S
C1622 H1612 0.930 . S
C1622 C1620 1.419 . S
C1622 C1623 1.362 . S
C1623 H1613 0.930 . S
C1623 C1616 1.409 . S
C1623 C1622 1.362 . S
H1624 C1630 0.930 . S
H1625 C1633 0.930 . S
H1626 C1634 0.930 . S
H1627 C1635 0.930 . S
H1628 C1638 0.930 . S
H1629 C1639 0.930 . S
C1630 H1624 0.930 . S
C1630 C1631 1.355 . S
C1630 C1632 1.415 . S
C1631 C1630 1.355 . S
C1631 C1633 1.419 . S
C1632 C1630 1.415 . S
C1632 C1637 1.425 . S
C1632 C1639 1.409 . S
C1633 H1625 0.930 . S
C1633 C1631 1.419 . S
C1633 C1634 1.362 . S
C1634 H1626 0.930 . S
C1634 C1633 1.362 . S
C1634 C1637 1.409 . S
C1635 H1627 0.930 . S
C1635 C1636 1.355 . S
C1635 C1637 1.415 . S
C1636 C1635 1.355 . S
C1636 C1638 1.419 . S
C1637 C1632 1.425 . S
C1637 C1634 1.409 . S
C1637 C1635 1.415 . S
C1638 H1628 0.930 . S
C1638 C1636 1.419 . S
C1638 C1639 1.362 . S
C1639 H1629 0.930 . S
C1639 C1632 1.409 . S
C1639 C1638 1.362 . S
H1640 C1646 0.930 . S
H1641 C1649 0.930 . S
H1642 C1650 0.930 . S
H1643 C1651 0.930 . S
H1644 C1654 0.930 . S
H1645 C1655 0.930 . S
C1646 H1640 0.930 . S
C1646 C1647 1.355 . S
C1646 C1648 1.415 . S
C1647 C1646 1.355 . S
C1647 C1649 1.419 . S
C1648 C1646 1.415 . S
C1648 C1653 1.425 . S
C1648 C1655 1.409 . S
C1649 H1641 0.930 . S
C1649 C1647 1.419 . S
C1649 C1650 1.362 . S
C1650 H1642 0.930 . S
C1650 C1649 1.362 . S
C1650 C1653 1.409 . S
C1651 H1643 0.930 . S
C1651 C1652 1.355 . S
C1651 C1653 1.415 . S
C1652 C1651 1.355 . S
C1652 C1654 1.419 . S
C1653 C1648 1.425 . S
C1653 C1650 1.409 . S
C1653 C1651 1.415 . S
C1654 H1644 0.930 . S
C1654 C1652 1.419 . S
C1654 C1655 1.362 . S
C1655 H1645 0.930 . S
C1655 C1648 1.409 . S
C1655 C1654 1.362 . S
H1656 C1662 0.930 . S
H1657 C1665 0.930 . S
H1658 C1666 0.930 . S
H1659 C1667 0.930 . S
H1660 C1670 0.930 . S
H1661 C1671 0.930 . S
C1662 H1656 0.930 . S
C1662 C1663 1.355 . S
C1662 C1664 1.415 1_545 S
C1663 C1662 1.355 . S
C1663 C1665 1.419 . S
C1664 C1662 1.415 1_565 S
C1664 C1669 1.425 . S
C1664 C1671 1.409 . S
C1665 H1657 0.930 . S
C1665 C1663 1.419 . S
C1665 C1666 1.362 . S
C1666 H1658 0.930 . S
C1666 C1665 1.362 . S
C1666 C1669 1.409 1_545 S
C1667 H1659 0.930 . S
C1667 C1668 1.355 . S
C1667 C1669 1.415 . S
C1668 C1667 1.355 . S
C1668 C1670 1.419 . S
C1669 C1664 1.425 . S
C1669 C1666 1.409 1_565 S
C1669 C1667 1.415 . S
C1670 H1660 0.930 . S
C1670 C1668 1.419 . S
C1670 C1671 1.362 . S
C1671 H1661 0.930 . S
C1671 C1664 1.409 . S
C1671 C1670 1.362 . S
H1672 C1678 0.930 . S
H1673 C1681 0.930 . S
H1674 C1682 0.930 . S
H1675 C1683 0.930 . S
H1676 C1686 0.930 . S
H1677 C1687 0.930 . S
C1678 H1672 0.930 . S
C1678 C1679 1.355 . S
C1678 C1680 1.415 . S
C1679 C1678 1.355 . S
C1679 C1681 1.419 . S
C1680 C1678 1.415 . S
C1680 C1685 1.425 . S
C1680 C1687 1.409 . S
C1681 H1673 0.930 . S
C1681 C1679 1.419 . S
C1681 C1682 1.362 . S
C1682 H1674 0.930 . S
C1682 C1681 1.362 . S
C1682 C1685 1.409 . S
C1683 H1675 0.930 . S
C1683 C1684 1.355 . S
C1683 C1685 1.415 . S
C1684 C1683 1.355 . S
C1684 C1686 1.419 . S
C1685 C1680 1.425 . S
C1685 C1682 1.409 . S
C1685 C1683 1.415 . S
C1686 H1676 0.930 . S
C1686 C1684 1.419 . S
C1686 C1687 1.362 . S
C1687 H1677 0.930 . S
C1687 C1680 1.409 . S
C1687 C1686 1.362 . S
H1688 C1694 0.930 . S
H1689 C1697 0.930 . S
H1690 C1698 0.930 . S
H1691 C1699 0.930 . S
H1692 C1702 0.930 . S
H1693 C1703 0.930 . S
C1694 H1688 0.930 . S
C1694 C1695 1.355 . S
C1694 C1696 1.415 . S
C1695 C1694 1.355 . S
C1695 C1697 1.419 . S
C1696 C1694 1.415 . S
C1696 C1701 1.425 . S
C1696 C1703 1.409 . S
C1697 H1689 0.930 . S
C1697 C1695 1.419 . S
C1697 C1698 1.362 . S
C1698 H1690 0.930 . S
C1698 C1697 1.362 . S
C1698 C1701 1.409 . S
C1699 H1691 0.930 . S
C1699 C1700 1.355 . S
C1699 C1701 1.415 . S
C1700 C1699 1.355 . S
C1700 C1702 1.419 . S
C1701 C1696 1.425 . S
C1701 C1698 1.409 . S
C1701 C1699 1.415 . S
C1702 H1692 0.930 . S
C1702 C1700 1.419 . S
C1702 C1703 1.362 . S
C1703 H1693 0.930 . S
C1703 C1696 1.409 . S
C1703 C1702 1.362 . S
H1704 C1710 0.930 . S
H1705 C1713 0.930 . S
H1706 C1714 0.930 . S
H1707 C1715 0.930 . S
H1708 C1718 0.930 . S
H1709 C1719 0.930 . S
C1710 H1704 0.930 . S
C1710 C1711 1.355 . S
C1710 C1712 1.415 . S
C1711 C1710 1.355 . S
C1711 C1713 1.419 . S
C1712 C1710 1.415 . S
C1712 C1717 1.425 . S
C1712 C1719 1.409 . S
C1713 H1705 0.930 . S
C1713 C1711 1.419 . S
C1713 C1714 1.362 . S
C1714 H1706 0.930 . S
C1714 C1713 1.362 . S
C1714 C1717 1.409 . S
C1715 H1707 0.930 . S
C1715 C1716 1.355 . S
C1715 C1717 1.415 . S
C1716 C1715 1.355 . S
C1716 C1718 1.419 . S
C1717 C1712 1.425 . S
C1717 C1714 1.409 . S
C1717 C1715 1.415 . S
C1718 H1708 0.930 . S
C1718 C1716 1.419 . S
C1718 C1719 1.362 . S
C1719 H1709 0.930 . S
C1719 C1712 1.409 . S
C1719 C1718 1.362 . S
H1720 C1726 0.930 . S
H1721 C1729 0.930 . S
H1722 C1730 0.930 . S
H1723 C1731 0.930 . S
H1724 C1734 0.930 . S
H1725 C1735 0.930 . S
C1726 H1720 0.930 . S
C1726 C1727 1.355 . S
C1726 C1728 1.415 . S
C1727 C1726 1.355 . S
C1727 C1729 1.419 . S
C1728 C1726 1.415 . S
C1728 C1733 1.425 . S
C1728 C1735 1.409 . S
C1729 H1721 0.930 . S
C1729 C1727 1.419 . S
C1729 C1730 1.362 . S
C1730 H1722 0.930 . S
C1730 C1729 1.362 . S
C1730 C1733 1.409 . S
C1731 H1723 0.930 . S
C1731 C1732 1.355 . S
C1731 C1733 1.415 . S
C1732 C1731 1.355 . S
C1732 C1734 1.419 . S
C1733 C1728 1.425 . S
C1733 C1730 1.409 . S
C1733 C1731 1.415 . S
C1734 H1724 0.930 . S
C1734 C1732 1.419 . S
C1734 C1735 1.362 . S
C1735 H1725 0.930 . S
C1735 C1728 1.409 . S
C1735 C1734 1.362 . S
H1736 C1742 0.930 . S
H1737 C1745 0.930 . S
H1738 C1746 0.930 . S
H1739 C1747 0.930 . S
H1740 C1750 0.930 . S
H1741 C1751 0.930 . S
C1742 H1736 0.930 . S
C1742 C1743 1.355 . S
C1742 C1744 1.415 . S
C1743 C1742 1.355 . S
C1743 C1745 1.419 . S
C1744 C1742 1.415 . S
C1744 C1749 1.425 . S
C1744 C1751 1.409 . S
C1745 H1737 0.930 . S
C1745 C1743 1.419 . S
C1745 C1746 1.362 . S
C1746 H1738 0.930 . S
C1746 C1745 1.362 . S
C1746 C1749 1.409 . S
C1747 H1739 0.930 . S
C1747 C1748 1.355 . S
C1747 C1749 1.415 . S
C1748 C1747 1.355 . S
C1748 C1750 1.419 . S
C1749 C1744 1.425 . S
C1749 C1746 1.409 . S
C1749 C1747 1.415 . S
C1750 H1740 0.930 . S
C1750 C1748 1.419 . S
C1750 C1751 1.362 . S
C1751 H1741 0.930 . S
C1751 C1744 1.409 . S
C1751 C1750 1.362 . S
H1752 C1758 0.930 1_556 S
H1753 C1761 0.930 . S
H1754 C1762 0.930 . S
H1755 C1763 0.930 . S
H1756 C1766 0.930 . S
H1757 C1767 0.930 1_556 S
C1758 H1752 0.930 1_554 S
C1758 C1759 1.355 1_655 S
C1758 C1760 1.415 1_655 S
C1759 C1758 1.355 1_455 S
C1759 C1761 1.419 . S
C1760 C1758 1.415 1_455 S
C1760 C1765 1.425 . S
C1760 C1767 1.409 1_455 S
C1761 H1753 0.930 . S
C1761 C1759 1.419 . S
C1761 C1762 1.362 . S
C1762 H1754 0.930 . S
C1762 C1761 1.362 . S
C1762 C1765 1.409 . S
C1763 H1755 0.930 . S
C1763 C1764 1.355 . S
C1763 C1765 1.415 . S
C1764 C1763 1.355 . S
C1764 C1766 1.419 1_455 S
C1765 C1760 1.425 . S
C1765 C1762 1.409 . S
C1765 C1763 1.415 . S
C1766 H1756 0.930 . S
C1766 C1764 1.419 1_655 S
C1766 C1767 1.362 . S
C1767 H1757 0.930 1_554 S
C1767 C1760 1.409 1_655 S
C1767 C1766 1.362 . S
H1768 C1774 0.930 . S
H1769 C1777 0.930 . S
H1770 C1778 0.930 . S
H1771 C1779 0.930 . S
H1772 C1782 0.930 . S
H1773 C1783 0.930 . S
C1774 H1768 0.930 . S
C1774 C1775 1.355 1_455 S
C1774 C1776 1.415 1_455 S
C1775 C1774 1.355 1_655 S
C1775 C1777 1.419 . S
C1776 C1774 1.415 1_655 S
C1776 C1781 1.425 . S
C1776 C1783 1.409 . S
C1777 H1769 0.930 . S
C1777 C1775 1.419 . S
C1777 C1778 1.362 . S
C1778 H1770 0.930 . S
C1778 C1777 1.362 . S
C1778 C1781 1.409 . S
C1779 H1771 0.930 . S
C1779 C1780 1.355 . S
C1779 C1781 1.415 . S
C1780 C1779 1.355 . S
C1780 C1782 1.419 . S
C1781 C1776 1.425 . S
C1781 C1778 1.409 . S
C1781 C1779 1.415 . S
C1782 H1772 0.930 . S
C1782 C1780 1.419 . S
C1782 C1783 1.362 . S
C1783 H1773 0.930 . S
C1783 C1776 1.409 . S
C1783 C1782 1.362 . S
H1784 C1790 0.930 . S
H1785 C1793 0.930 . S
H1786 C1794 0.930 . S
H1787 C1795 0.930 . S
H1788 C1798 0.930 . S
H1789 C1799 0.930 . S
C1790 H1784 0.930 . S
C1790 C1791 1.355 . S
C1790 C1792 1.415 . S
C1791 C1790 1.355 . S
C1791 C1793 1.419 . S
C1792 C1790 1.415 . S
C1792 C1797 1.425 . S
C1792 C1799 1.409 . S
C1793 H1785 0.930 . S
C1793 C1791 1.419 . S
C1793 C1794 1.362 . S
C1794 H1786 0.930 . S
C1794 C1793 1.362 . S
C1794 C1797 1.409 . S
C1795 H1787 0.930 . S
C1795 C1796 1.355 . S
C1795 C1797 1.415 . S
C1796 C1795 1.355 . S
C1796 C1798 1.419 . S
C1797 C1792 1.425 . S
C1797 C1794 1.409 . S
C1797 C1795 1.415 . S
C1798 H1788 0.930 . S
C1798 C1796 1.419 . S
C1798 C1799 1.362 . S
C1799 H1789 0.930 . S
C1799 C1792 1.409 . S
C1799 C1798 1.362 . S
H1800 C1806 0.930 . S
H1801 C1809 0.930 . S
H1802 C1810 0.930 . S
H1803 C1811 0.930 . S
H1804 C1814 0.930 . S
H1805 C1815 0.930 . S
C1806 H1800 0.930 . S
C1806 C1807 1.355 . S
C1806 C1808 1.415 . S
C1807 C1806 1.355 . S
C1807 C1809 1.419 . S
C1808 C1806 1.415 . S
C1808 C1813 1.425 . S
C1808 C1815 1.409 . S
C1809 H1801 0.930 . S
C1809 C1807 1.419 . S
C1809 C1810 1.362 . S
C1810 H1802 0.930 . S
C1810 C1809 1.362 . S
C1810 C1813 1.409 . S
C1811 H1803 0.930 . S
C1811 C1812 1.355 . S
C1811 C1813 1.415 . S
C1812 C1811 1.355 . S
C1812 C1814 1.419 . S
C1813 C1808 1.425 . S
C1813 C1810 1.409 . S
C1813 C1811 1.415 . S
C1814 H1804 0.930 . S
C1814 C1812 1.419 . S
C1814 C1815 1.362 . S
C1815 H1805 0.930 . S
C1815 C1808 1.409 . S
C1815 C1814 1.362 . S
H1816 C1822 0.930 . S
H1817 C1825 0.930 . S
H1818 C1826 0.930 . S
H1819 C1827 0.930 . S
H1820 C1830 0.930 . S
H1821 C1831 0.930 . S
C1822 H1816 0.930 . S
C1822 C1823 1.355 . S
C1822 C1824 1.415 . S
C1823 C1822 1.355 . S
C1823 C1825 1.419 . S
C1824 C1822 1.415 . S
C1824 C1829 1.425 . S
C1824 C1831 1.409 . S
C1825 H1817 0.930 . S
C1825 C1823 1.419 . S
C1825 C1826 1.362 . S
C1826 H1818 0.930 . S
C1826 C1825 1.362 . S
C1826 C1829 1.409 . S
C1827 H1819 0.930 . S
C1827 C1828 1.355 . S
C1827 C1829 1.415 . S
C1828 C1827 1.355 . S
C1828 C1830 1.419 . S
C1829 C1824 1.425 . S
C1829 C1826 1.409 . S
C1829 C1827 1.415 . S
C1830 H1820 0.930 . S
C1830 C1828 1.419 . S
C1830 C1831 1.362 . S
C1831 H1821 0.930 . S
C1831 C1824 1.409 . S
C1831 C1830 1.362 . S
H1832 C1838 0.930 . S
H1833 C1841 0.930 . S
H1834 C1842 0.930 . S
H1835 C1843 0.930 . S
H1836 C1846 0.930 . S
H1837 C1847 0.930 . S
C1838 H1832 0.930 . S
C1838 C1839 1.355 . S
C1838 C1840 1.415 . S
C1839 C1838 1.355 . S
C1839 C1841 1.419 . S
C1840 C1838 1.415 . S
C1840 C1845 1.425 . S
C1840 C1847 1.409 . S
C1841 H1833 0.930 . S
C1841 C1839 1.419 . S
C1841 C1842 1.362 . S
C1842 H1834 0.930 . S
C1842 C1841 1.362 . S
C1842 C1845 1.409 . S
C1843 H1835 0.930 . S
C1843 C1844 1.355 . S
C1843 C1845 1.415 . S
C1844 C1843 1.355 . S
C1844 C1846 1.419 . S
C1845 C1840 1.425 . S
C1845 C1842 1.409 . S
C1845 C1843 1.415 . S
C1846 H1836 0.930 . S
C1846 C1844 1.419 . S
C1846 C1847 1.362 . S
C1847 H1837 0.930 . S
C1847 C1840 1.409 . S
C1847 C1846 1.362 . S
H1848 C1854 0.930 . S
H1849 C1857 0.930 . S
H1850 C1858 0.930 . S
H1851 C1859 0.930 . S
H1852 C1862 0.930 . S
H1853 C1863 0.930 . S
C1854 H1848 0.930 . S
C1854 C1855 1.355 . S
C1854 C1856 1.415 . S
C1855 C1854 1.355 . S
C1855 C1857 1.419 . S
C1856 C1854 1.415 . S
C1856 C1861 1.425 . S
C1856 C1863 1.409 . S
C1857 H1849 0.930 . S
C1857 C1855 1.419 . S
C1857 C1858 1.362 . S
C1858 H1850 0.930 . S
C1858 C1857 1.362 . S
C1858 C1861 1.409 . S
C1859 H1851 0.930 . S
C1859 C1860 1.355 . S
C1859 C1861 1.415 . S
C1860 C1859 1.355 . S
C1860 C1862 1.419 . S
C1861 C1856 1.425 . S
C1861 C1858 1.409 . S
C1861 C1859 1.415 . S
C1862 H1852 0.930 . S
C1862 C1860 1.419 . S
C1862 C1863 1.362 . S
C1863 H1853 0.930 . S
C1863 C1856 1.409 . S
C1863 C1862 1.362 . S
H1864 C1870 0.930 . S
H1865 C1873 0.930 . S
H1866 C1874 0.930 . S
H1867 C1875 0.930 . S
H1868 C1878 0.930 . S
H1869 C1879 0.930 . S
C1870 H1864 0.930 . S
C1870 C1871 1.355 . S
C1870 C1872 1.415 . S
C1871 C1870 1.355 . S
C1871 C1873 1.419 1_554 S
C1872 C1870 1.415 . S
C1872 C1877 1.425 1_554 S
C1872 C1879 1.409 . S
C1873 H1865 0.930 . S
C1873 C1871 1.419 1_556 S
C1873 C1874 1.362 . S
C1874 H1866 0.930 . S
C1874 C1873 1.362 . S
C1874 C1877 1.409 . S
C1875 H1867 0.930 . S
C1875 C1876 1.355 . S
C1875 C1877 1.415 . S
C1876 C1875 1.355 . S
C1876 C1878 1.419 . S
C1877 C1872 1.425 1_556 S
C1877 C1874 1.409 . S
C1877 C1875 1.415 . S
C1878 H1868 0.930 . S
C1878 C1876 1.419 . S
C1878 C1879 1.362 1_556 S
C1879 H1869 0.930 . S
C1879 C1872 1.409 . S
C1879 C1878 1.362 1_554 S
H1880 C1886 0.930 . S
H1881 C1889 0.930 . S
H1882 C1890 0.930 . S
H1883 C1891 0.930 . S
H1884 C1894 0.930 . S
H1885 C1895 0.930 . S
C1886 H1880 0.930 . S
C1886 C1887 1.355 . S
C1886 C1888 1.415 . S
C1887 C1886 1.355 . S
C1887 C1889 1.419 . S
C1888 C1886 1.415 . S
C1888 C1893 1.425 . S
C1888 C1895 1.409 . S
C1889 H1881 0.930 . S
C1889 C1887 1.419 . S
C1889 C1890 1.362 . S
C1890 H1882 0.930 . S
C1890 C1889 1.362 . S
C1890 C1893 1.409 . S
C1891 H1883 0.930 . S
C1891 C1892 1.355 . S
C1891 C1893 1.415 . S
C1892 C1891 1.355 . S
C1892 C1894 1.419 . S
C1893 C1888 1.425 . S
C1893 C1890 1.409 . S
C1893 C1891 1.415 . S
C1894 H1884 0.930 . S
C1894 C1892 1.419 . S
C1894 C1895 1.362 . S
C1895 H1885 0.930 . S
C1895 C1888 1.409 . S
C1895 C1894 1.362 . S
H1896 C1902 0.930 . S
H1897 C1905 0.930 . S
H1898 C1906 0.930 . S
H1899 C1907 0.930 . S
H1900 C1910 0.930 . S
H1901 C1911 0.930 . S
C1902 H1896 0.930 . S
C1902 C1903 1.355 . S
C1902 C1904 1.415 . S
C1903 C1902 1.355 . S
C1903 C1905 1.419 . S
C1904 C1902 1.415 . S
C1904 C1909 1.425 . S
C1904 C1911 1.409 . S
C1905 H1897 0.930 . S
C1905 C1903 1.419 . S
C1905 C1906 1.362 . S
C1906 H1898 0.930 . S
C1906 C1905 1.362 . S
C1906 C1909 1.409 . S
C1907 H1899 0.930 . S
C1907 C1908 1.355 . S
C1907 C1909 1.415 . S
C1908 C1907 1.355 . S
C1908 C1910 1.419 . S
C1909 C1904 1.425 . S
C1909 C1906 1.409 . S
C1909 C1907 1.415 . S
C1910 H1900 0.930 . S
C1910 C1908 1.419 . S
C1910 C1911 1.362 . S
C1911 H1901 0.930 . S
C1911 C1904 1.409 . S
C1911 C1910 1.362 . S
H1912 C1918 0.930 . S
H1913 C1921 0.930 . S
H1914 C1922 0.930 . S
H1915 C1923 0.930 . S
H1916 C1926 0.930 . S
H1917 C1927 0.930 . S
C1918 H1912 0.930 . S
C1918 C1919 1.355 . S
C1918 C1920 1.415 . S
C1919 C1918 1.355 . S
C1919 C1921 1.419 . S
C1920 C1918 1.415 . S
C1920 C1925 1.425 . S
C1920 C1927 1.409 . S
C1921 H1913 0.930 . S
C1921 C1919 1.419 . S
C1921 C1922 1.362 . S
C1922 H1914 0.930 . S
C1922 C1921 1.362 . S
C1922 C1925 1.409 . S
C1923 H1915 0.930 . S
C1923 C1924 1.355 . S
C1923 C1925 1.415 . S
C1924 C1923 1.355 . S
C1924 C1926 1.419 . S
C1925 C1920 1.425 . S
C1925 C1922 1.409 . S
C1925 C1923 1.415 . S
C1926 H1916 0.930 . S
C1926 C1924 1.419 . S
C1926 C1927 1.362 . S
C1927 H1917 0.930 . S
C1927 C1920 1.409 . S
C1927 C1926 1.362 . S
H1928 C1934 0.930 . S
H1929 C1937 0.930 . S
H1930 C1938 0.930 . S
H1931 C1939 0.930 . S
H1932 C1942 0.930 . S
H1933 C1943 0.930 . S
C1934 H1928 0.930 . S
C1934 C1935 1.355 . S
C1934 C1936 1.415 . S
C1935 C1934 1.355 . S
C1935 C1937 1.419 . S
C1936 C1934 1.415 . S
C1936 C1941 1.425 . S
C1936 C1943 1.409 . S
C1937 H1929 0.930 . S
C1937 C1935 1.419 . S
C1937 C1938 1.362 . S
C1938 H1930 0.930 . S
C1938 C1937 1.362 . S
C1938 C1941 1.409 . S
C1939 H1931 0.930 . S
C1939 C1940 1.355 . S
C1939 C1941 1.415 . S
C1940 C1939 1.355 . S
C1940 C1942 1.419 . S
C1941 C1936 1.425 . S
C1941 C1938 1.409 . S
C1941 C1939 1.415 . S
C1942 H1932 0.930 . S
C1942 C1940 1.419 . S
C1942 C1943 1.362 . S
C1943 H1933 0.930 . S
C1943 C1936 1.409 . S
C1943 C1942 1.362 . S
H1944 C1950 0.930 . S
H1945 C1953 0.930 . S
H1946 C1954 0.930 . S
H1947 C1955 0.930 . S
H1948 C1958 0.930 . S
H1949 C1959 0.930 . S
C1950 H1944 0.930 . S
C1950 C1951 1.355 . S
C1950 C1952 1.415 . S
C1951 C1950 1.355 . S
C1951 C1953 1.419 . S
C1952 C1950 1.415 . S
C1952 C1957 1.425 . S
C1952 C1959 1.409 . S
C1953 H1945 0.930 . S
C1953 C1951 1.419 . S
C1953 C1954 1.362 . S
C1954 H1946 0.930 . S
C1954 C1953 1.362 . S
C1954 C1957 1.409 . S
C1955 H1947 0.930 . S
C1955 C1956 1.355 . S
C1955 C1957 1.415 . S
C1956 C1955 1.355 . S
C1956 C1958 1.419 . S
C1957 C1952 1.425 . S
C1957 C1954 1.409 . S
C1957 C1955 1.415 . S
C1958 H1948 0.930 . S
C1958 C1956 1.419 . S
C1958 C1959 1.362 . S
C1959 H1949 0.930 . S
C1959 C1952 1.409 . S
C1959 C1958 1.362 . S
H1960 C1966 0.930 . S
H1961 C1969 0.930 . S
H1962 C1970 0.930 . S
H1963 C1971 0.930 . S
H1964 C1974 0.930 . S
H1965 C1975 0.930 . S
C1966 H1960 0.930 . S
C1966 C1967 1.355 . S
C1966 C1968 1.415 . S
C1967 C1966 1.355 . S
C1967 C1969 1.419 . S
C1968 C1966 1.415 . S
C1968 C1973 1.425 . S
C1968 C1975 1.409 . S
C1969 H1961 0.930 . S
C1969 C1967 1.419 . S
C1969 C1970 1.362 . S
C1970 H1962 0.930 . S
C1970 C1969 1.362 . S
C1970 C1973 1.409 . S
C1971 H1963 0.930 . S
C1971 C1972 1.355 . S
C1971 C1973 1.415 . S
C1972 C1971 1.355 . S
C1972 C1974 1.419 . S
C1973 C1968 1.425 . S
C1973 C1970 1.409 . S
C1973 C1971 1.415 . S
C1974 H1964 0.930 . S
C1974 C1972 1.419 . S
C1974 C1975 1.362 . S
C1975 H1965 0.930 . S
C1975 C1968 1.409 . S
C1975 C1974 1.362 . S
H1976 C1982 0.930 . S
H1977 C1985 0.930 . S
H1978 C1986 0.930 . S
H1979 C1987 0.930 . S
H1980 C1990 0.930 . S
H1981 C1991 0.930 . S
C1982 H1976 0.930 . S
C1982 C1983 1.355 . S
C1982 C1984 1.415 . S
C1983 C1982 1.355 . S
C1983 C1985 1.419 . S
C1984 C1982 1.415 . S
C1984 C1989 1.425 . S
C1984 C1991 1.409 . S
C1985 H1977 0.930 . S
C1985 C1983 1.419 . S
C1985 C1986 1.362 . S
C1986 H1978 0.930 . S
C1986 C1985 1.362 . S
C1986 C1989 1.409 . S
C1987 H1979 0.930 . S
C1987 C1988 1.355 . S
C1987 C1989 1.415 . S
C1988 C1987 1.355 . S
C1988 C1990 1.419 . S
C1989 C1984 1.425 . S
C1989 C1986 1.409 . S
C1989 C1987 1.415 . S
C1990 H1980 0.930 . S
C1990 C1988 1.419 . S
C1990 C1991 1.362 . S
C1991 H1981 0.930 . S
C1991 C1984 1.409 . S
C1991 C1990 1.362 . S
H1992 C1998 0.930 . S
H1993 C2001 0.930 . S
H1994 C2002 0.930 . S
H1995 C2003 0.930 . S
H1996 C2006 0.930 . S
H1997 C2007 0.930 . S
C1998 H1992 0.930 . S
C1998 C1999 1.355 . S
C1998 C2000 1.415 . S
C1999 C1998 1.355 . S
C1999 C2001 1.419 . S
C2000 C1998 1.415 . S
C2000 C2005 1.425 . S
C2000 C2007 1.409 . S
C2001 H1993 0.930 . S
C2001 C1999 1.419 . S
C2001 C2002 1.362 . S
C2002 H1994 0.930 . S
C2002 C2001 1.362 . S
C2002 C2005 1.409 . S
C2003 H1995 0.930 . S
C2003 C2004 1.355 . S
C2003 C2005 1.415 . S
C2004 C2003 1.355 . S
C2004 C2006 1.419 . S
C2005 C2000 1.425 . S
C2005 C2002 1.409 . S
C2005 C2003 1.415 . S
C2006 H1996 0.930 . S
C2006 C2004 1.419 . S
C2006 C2007 1.362 . S
C2007 H1997 0.930 . S
C2007 C2000 1.409 . S
C2007 C2006 1.362 . S
H2008 C2014 0.930 . S
H2009 C2017 0.930 . S
H2010 C2018 0.930 . S
H2011 C2019 0.930 . S
H2012 C2022 0.930 . S
H2013 C2023 0.930 1_545 S
C2014 H2008 0.930 . S
C2014 C2015 1.355 1_545 S
C2014 C2016 1.415 1_545 S
C2015 C2014 1.355 1_565 S
C2015 C2017 1.419 . S
C2016 C2014 1.415 1_565 S
C2016 C2021 1.425 . S
C2016 C2023 1.409 . S
C2017 H2009 0.930 . S
C2017 C2015 1.419 . S
C2017 C2018 1.362 . S
C2018 H2010 0.930 . S
C2018 C2017 1.362 . S
C2018 C2021 1.409 . S
C2019 H2011 0.930 . S
C2019 C2020 1.355 . S
C2019 C2021 1.415 . S
C2020 C2019 1.355 . S
C2020 C2022 1.419 . S
C2021 C2016 1.425 . S
C2021 C2018 1.409 . S
C2021 C2019 1.415 . S
C2022 H2012 0.930 . S
C2022 C2020 1.419 . S
C2022 C2023 1.362 . S
C2023 H2013 0.930 1_565 S
C2023 C2016 1.409 . S
C2023 C2022 1.362 . S
H2024 C2030 0.930 . S
H2025 C2033 0.930 . S
H2026 C2034 0.930 . S
H2027 C2035 0.930 . S
H2028 C2038 0.930 . S
H2029 C2039 0.930 . S
C2030 H2024 0.930 . S
C2030 C2031 1.362 . S
C2030 C2032 1.415 . S
C2031 C2030 1.362 . S
C2031 C2033 1.410 1_554 S
C2032 C2030 1.415 . S
C2032 C2037 1.425 1_565 S
C2032 C2039 1.409 . S
C2033 H2025 0.930 . S
C2033 C2031 1.410 1_556 S
C2033 C2034 1.362 1_565 S
C2034 H2026 0.930 . S
C2034 C2033 1.362 1_545 S
C2034 C2037 1.409 1_556 S
C2035 H2027 0.930 . S
C2035 C2036 1.355 . S
C2035 C2037 1.415 . S
C2036 C2035 1.355 . S
C2036 C2038 1.419 . S
C2037 C2032 1.425 1_545 S
C2037 C2034 1.409 1_554 S
C2037 C2035 1.415 . S
C2038 H2028 0.930 . S
C2038 C2036 1.419 . S
C2038 C2039 1.362 1_545 S
C2039 H2029 0.930 . S
C2039 C2032 1.409 . S
C2039 C2038 1.362 1_565 S
H2040 C2046 0.930 . S
H2041 C2049 0.930 . S
H2042 C2050 0.930 . S
H2043 C2051 0.930 . S
H2044 C2054 0.930 . S
H2045 C2055 0.930 . S
C2046 H2040 0.930 . S
C2046 C2047 1.355 . S
C2046 C2048 1.415 . S
C2047 C2046 1.355 . S
C2047 C2049 1.419 . S
C2048 C2046 1.415 . S
C2048 C2053 1.425 . S
C2048 C2055 1.409 . S
C2049 H2041 0.930 . S
C2049 C2047 1.419 . S
C2049 C2050 1.362 . S
C2050 H2042 0.930 . S
C2050 C2049 1.362 . S
C2050 C2053 1.409 . S
C2051 H2043 0.930 . S
C2051 C2052 1.355 . S
C2051 C2053 1.415 . S
C2052 C2051 1.355 . S
C2052 C2054 1.419 . S
C2053 C2048 1.425 . S
C2053 C2050 1.409 . S
C2053 C2051 1.415 . S
C2054 H2044 0.930 . S
C2054 C2052 1.419 . S
C2054 C2055 1.362 . S
C2055 H2045 0.930 . S
C2055 C2048 1.409 . S
C2055 C2054 1.362 . S
H2056 C2062 0.930 . S
H2057 C2065 0.930 . S
H2058 C2066 0.930 . S
H2059 C2067 0.930 . S
H2060 C2070 0.930 . S
H2061 C2071 0.930 . S
C2062 H2056 0.930 . S
C2062 C2063 1.355 . S
C2062 C2064 1.415 . S
C2063 C2062 1.355 . S
C2063 C2065 1.419 . S
C2064 C2062 1.415 . S
C2064 C2069 1.425 . S
C2064 C2071 1.409 . S
C2065 H2057 0.930 . S
C2065 C2063 1.419 . S
C2065 C2066 1.362 . S
C2066 H2058 0.930 . S
C2066 C2065 1.362 . S
C2066 C2069 1.409 . S
C2067 H2059 0.930 . S
C2067 C2068 1.355 . S
C2067 C2069 1.415 . S
C2068 C2067 1.355 . S
C2068 C2070 1.419 . S
C2069 C2064 1.425 . S
C2069 C2066 1.409 . S
C2069 C2067 1.415 . S
C2070 H2060 0.930 . S
C2070 C2068 1.419 . S
C2070 C2071 1.362 . S
C2071 H2061 0.930 . S
C2071 C2064 1.409 . S
C2071 C2070 1.362 . S
H2072 C2078 0.930 . S
H2073 C2081 0.930 . S
H2074 C2082 0.930 . S
H2075 C2083 0.930 . S
H2076 C2086 0.930 . S
H2077 C2087 0.930 . S
C2078 H2072 0.930 . S
C2078 C2079 1.355 . S
C2078 C2080 1.415 . S
C2079 C2078 1.355 . S
C2079 C2081 1.419 . S
C2080 C2078 1.415 . S
C2080 C2085 1.425 . S
C2080 C2087 1.409 . S
C2081 H2073 0.930 . S
C2081 C2079 1.419 . S
C2081 C2082 1.362 . S
C2082 H2074 0.930 . S
C2082 C2081 1.362 . S
C2082 C2085 1.409 . S
C2083 H2075 0.930 . S
C2083 C2084 1.355 . S
C2083 C2085 1.415 . S
C2084 C2083 1.355 . S
C2084 C2086 1.419 . S
C2085 C2080 1.425 . S
C2085 C2082 1.409 . S
C2085 C2083 1.415 . S
C2086 H2076 0.930 . S
C2086 C2084 1.419 . S
C2086 C2087 1.362 . S
C2087 H2077 0.930 . S
C2087 C2080 1.409 . S
C2087 C2086 1.362 . S
H2088 C2094 0.930 . S
H2089 C2097 0.930 . S
H2090 C2098 0.930 . S
H2091 C2099 0.930 . S
H2092 C2102 0.930 . S
H2093 C2103 0.930 . S
C2094 H2088 0.930 . S
C2094 C2095 1.355 . S
C2094 C2096 1.415 . S
C2095 C2094 1.355 . S
C2095 C2097 1.419 . S
C2096 C2094 1.415 . S
C2096 C2101 1.425 . S
C2096 C2103 1.409 . S
C2097 H2089 0.930 . S
C2097 C2095 1.419 . S
C2097 C2098 1.362 . S
C2098 H2090 0.930 . S
C2098 C2097 1.362 . S
C2098 C2101 1.409 . S
C2099 H2091 0.930 . S
C2099 C2100 1.355 . S
C2099 C2101 1.415 . S
C2100 C2099 1.355 . S
C2100 C2102 1.419 . S
C2101 C2096 1.425 . S
C2101 C2098 1.409 . S
C2101 C2099 1.415 . S
C2102 H2092 0.930 . S
C2102 C2100 1.419 . S
C2102 C2103 1.362 . S
C2103 H2093 0.930 . S
C2103 C2096 1.409 . S
C2103 C2102 1.362 . S
H2104 C2110 0.930 . S
H2105 C2113 0.930 . S
H2106 C2114 0.930 . S
H2107 C2115 0.930 . S
H2108 C2118 0.930 . S
H2109 C2119 0.930 . S
C2110 H2104 0.930 . S
C2110 C2111 1.355 . S
C2110 C2112 1.415 . S
C2111 C2110 1.355 . S
C2111 C2113 1.419 . S
C2112 C2110 1.415 . S
C2112 C2117 1.425 . S
C2112 C2119 1.409 . S
C2113 H2105 0.930 . S
C2113 C2111 1.419 . S
C2113 C2114 1.362 . S
C2114 H2106 0.930 . S
C2114 C2113 1.362 . S
C2114 C2117 1.409 . S
C2115 H2107 0.930 . S
C2115 C2116 1.355 . S
C2115 C2117 1.415 . S
C2116 C2115 1.355 . S
C2116 C2118 1.419 . S
C2117 C2112 1.425 . S
C2117 C2114 1.409 . S
C2117 C2115 1.415 . S
C2118 H2108 0.930 . S
C2118 C2116 1.419 . S
C2118 C2119 1.362 . S
C2119 H2109 0.930 . S
C2119 C2112 1.409 . S
C2119 C2118 1.362 . S
H2120 C2126 0.930 . S
H2121 C2129 0.930 . S
H2122 C2130 0.930 . S
H2123 C2131 0.930 . S
H2124 C2134 0.930 . S
H2125 C2135 0.930 . S
C2126 H2120 0.930 . S
C2126 C2127 1.355 . S
C2126 C2128 1.415 . S
C2127 C2126 1.355 . S
C2127 C2129 1.419 . S
C2128 C2126 1.415 . S
C2128 C2133 1.425 . S
C2128 C2135 1.409 . S
C2129 H2121 0.930 . S
C2129 C2127 1.419 . S
C2129 C2130 1.362 . S
C2130 H2122 0.930 . S
C2130 C2129 1.362 . S
C2130 C2133 1.409 . S
C2131 H2123 0.930 . S
C2131 C2132 1.355 . S
C2131 C2133 1.415 . S
C2132 C2131 1.355 . S
C2132 C2134 1.419 . S
C2133 C2128 1.425 . S
C2133 C2130 1.409 . S
C2133 C2131 1.415 . S
C2134 H2124 0.930 . S
C2134 C2132 1.419 . S
C2134 C2135 1.362 . S
C2135 H2125 0.930 . S
C2135 C2128 1.409 . S
C2135 C2134 1.362 . S
H2136 C2142 0.930 . S
H2137 C2145 0.930 . S
H2138 C2146 0.930 . S
H2139 C2147 0.930 . S
H2140 C2150 0.930 1_655 S
H2141 C2151 0.930 1_655 S
C2142 H2136 0.930 . S
C2142 C2143 1.355 . S
C2142 C2144 1.415 . S
C2143 C2142 1.355 . S
C2143 C2145 1.419 . S
C2144 C2142 1.415 . S
C2144 C2149 1.425 . S
C2144 C2151 1.409 . S
C2145 H2137 0.930 . S
C2145 C2143 1.419 . S
C2145 C2146 1.362 . S
C2146 H2138 0.930 . S
C2146 C2145 1.362 . S
C2146 C2149 1.409 . S
C2147 H2139 0.930 . S
C2147 C2148 1.355 . S
C2147 C2149 1.415 . S
C2148 C2147 1.355 . S
C2148 C2150 1.419 . S
C2149 C2144 1.425 . S
C2149 C2146 1.409 . S
C2149 C2147 1.415 . S
C2150 H2140 0.930 1_455 S
C2150 C2148 1.419 . S
C2150 C2151 1.362 . S
C2151 H2141 0.930 1_455 S
C2151 C2144 1.409 . S
C2151 C2150 1.362 . S
H2152 C2158 0.930 . S
H2153 C2161 0.930 . S
H2154 C2162 0.930 . S
H2155 C2163 0.930 . S
H2156 C2166 0.930 . S
H2157 C2167 0.930 . S
C2158 H2152 0.930 . S
C2158 C2159 1.355 . S
C2158 C2160 1.415 . S
C2159 C2158 1.355 . S
C2159 C2161 1.419 . S
C2160 C2158 1.415 . S
C2160 C2165 1.425 . S
C2160 C2167 1.409 . S
C2161 H2153 0.930 . S
C2161 C2159 1.419 . S
C2161 C2162 1.362 . S
C2162 H2154 0.930 . S
C2162 C2161 1.362 . S
C2162 C2165 1.409 . S
C2163 H2155 0.930 . S
C2163 C2164 1.355 . S
C2163 C2165 1.415 . S
C2164 C2163 1.355 . S
C2164 C2166 1.419 . S
C2165 C2160 1.425 . S
C2165 C2162 1.409 . S
C2165 C2163 1.415 . S
C2166 H2156 0.930 . S
C2166 C2164 1.419 . S
C2166 C2167 1.362 . S
C2167 H2157 0.930 . S
C2167 C2160 1.409 . S
C2167 C2166 1.362 . S
H2168 C2174 0.930 . S
H2169 C2177 0.930 . S
H2170 C2178 0.930 . S
H2171 C2179 0.930 . S
H2172 C2182 0.930 . S
H2173 C2183 0.930 . S
C2174 H2168 0.930 . S
C2174 C2175 1.355 . S
C2174 C2176 1.415 . S
C2175 C2174 1.355 . S
C2175 C2177 1.419 . S
C2176 C2174 1.415 . S
C2176 C2181 1.425 . S
C2176 C2183 1.409 . S
C2177 H2169 0.930 . S
C2177 C2175 1.419 . S
C2177 C2178 1.362 . S
C2178 H2170 0.930 . S
C2178 C2177 1.362 . S
C2178 C2181 1.409 . S
C2179 H2171 0.930 . S
C2179 C2180 1.355 . S
C2179 C2181 1.415 . S
C2180 C2179 1.355 . S
C2180 C2182 1.419 . S
C2181 C2176 1.425 . S
C2181 C2178 1.409 . S
C2181 C2179 1.415 . S
C2182 H2172 0.930 . S
C2182 C2180 1.419 . S
C2182 C2183 1.362 . S
C2183 H2173 0.930 . S
C2183 C2176 1.409 . S
C2183 C2182 1.362 . S
H2184 C2190 0.930 . S
H2185 C2193 0.930 . S
H2186 C2194 0.930 . S
H2187 C2195 0.930 . S
H2188 C2198 0.930 . S
H2189 C2199 0.930 . S
C2190 H2184 0.930 . S
C2190 C2191 1.355 . S
C2190 C2192 1.415 . S
C2191 C2190 1.355 . S
C2191 C2193 1.419 . S
C2192 C2190 1.415 . S
C2192 C2197 1.425 . S
C2192 C2199 1.409 . S
C2193 H2185 0.930 . S
C2193 C2191 1.419 . S
C2193 C2194 1.362 . S
C2194 H2186 0.930 . S
C2194 C2193 1.362 . S
C2194 C2197 1.409 . S
C2195 H2187 0.930 . S
C2195 C2196 1.355 . S
C2195 C2197 1.415 . S
C2196 C2195 1.355 . S
C2196 C2198 1.419 . S
C2197 C2192 1.425 . S
C2197 C2194 1.409 . S
C2197 C2195 1.415 . S
C2198 H2188 0.930 . S
C2198 C2196 1.419 . S
C2198 C2199 1.362 . S
C2199 H2189 0.930 . S
C2199 C2192 1.409 . S
C2199 C2198 1.362 . S
H2200 C2206 0.930 . S
H2201 C2209 0.930 . S
H2202 C2210 0.930 . S
H2203 C2211 0.930 . S
H2204 C2214 0.930 . S
H2205 C2215 0.930 . S
C2206 H2200 0.930 . S
C2206 C2207 1.355 . S
C2206 C2208 1.415 . S
C2207 C2206 1.355 . S
C2207 C2209 1.419 . S
C2208 C2206 1.415 . S
C2208 C2213 1.425 . S
C2208 C2215 1.409 . S
C2209 H2201 0.930 . S
C2209 C2207 1.419 . S
C2209 C2210 1.362 . S
C2210 H2202 0.930 . S
C2210 C2209 1.362 . S
C2210 C2213 1.409 . S
C2211 H2203 0.930 . S
C2211 C2212 1.355 . S
C2211 C2213 1.415 . S
C2212 C2211 1.355 . S
C2212 C2214 1.419 . S
C2213 C2208 1.425 . S
C2213 C2210 1.409 . S
C2213 C2211 1.415 . S
C2214 H2204 0.930 . S
C2214 C2212 1.419 . S
C2214 C2215 1.362 . S
C2215 H2205 0.930 . S
C2215 C2208 1.409 . S
C2215 C2214 1.362 . S
H2216 C2222 0.930 . S
H2217 C2225 0.930 . S
H2218 C2226 0.930 . S
H2219 C2227 0.930 . S
H2220 C2230 0.930 . S
H2221 C2231 0.930 . S
C2222 H2216 0.930 . S
C2222 C2223 1.355 . S
C2222 C2224 1.415 . S
C2223 C2222 1.355 . S
C2223 C2225 1.419 . S
C2224 C2222 1.415 . S
C2224 C2229 1.425 . S
C2224 C2231 1.409 . S
C2225 H2217 0.930 . S
C2225 C2223 1.419 . S
C2225 C2226 1.362 . S
C2226 H2218 0.930 . S
C2226 C2225 1.362 . S
C2226 C2229 1.409 . S
C2227 H2219 0.930 . S
C2227 C2228 1.355 . S
C2227 C2229 1.415 . S
C2228 C2227 1.355 . S
C2228 C2230 1.419 . S
C2229 C2224 1.425 . S
C2229 C2226 1.409 . S
C2229 C2227 1.415 . S
C2230 H2220 0.930 . S
C2230 C2228 1.419 . S
C2230 C2231 1.362 . S
C2231 H2221 0.930 . S
C2231 C2224 1.409 . S
C2231 C2230 1.362 . S
H2232 C2238 0.930 . S
H2233 C2241 0.930 . S
H2234 C2242 0.930 . S
H2235 C2243 0.930 . S
H2236 C2246 0.930 . S
H2237 C2247 0.930 . S
C2238 H2232 0.930 . S
C2238 C2239 1.355 . S
C2238 C2240 1.415 . S
C2239 C2238 1.355 . S
C2239 C2241 1.419 . S
C2240 C2238 1.415 . S
C2240 C2245 1.425 . S
C2240 C2247 1.409 . S
C2241 H2233 0.930 . S
C2241 C2239 1.419 . S
C2241 C2242 1.362 . S
C2242 H2234 0.930 . S
C2242 C2241 1.362 . S
C2242 C2245 1.409 . S
C2243 H2235 0.930 . S
C2243 C2244 1.355 . S
C2243 C2245 1.415 . S
C2244 C2243 1.355 . S
C2244 C2246 1.419 . S
C2245 C2240 1.425 . S
C2245 C2242 1.409 . S
C2245 C2243 1.415 . S
C2246 H2236 0.930 . S
C2246 C2244 1.419 . S
C2246 C2247 1.362 . S
C2247 H2237 0.930 . S
C2247 C2240 1.409 . S
C2247 C2246 1.362 . S
H2248 C2254 0.930 . S
H2249 C2257 0.930 . S
H2250 C2258 0.930 . S
H2251 C2259 0.930 . S
H2252 C2262 0.930 . S
H2253 C2263 0.930 . S
C2254 H2248 0.930 . S
C2254 C2255 1.355 . S
C2254 C2256 1.415 . S
C2255 C2254 1.355 . S
C2255 C2257 1.419 . S
C2256 C2254 1.415 . S
C2256 C2261 1.425 . S
C2256 C2263 1.409 . S
C2257 H2249 0.930 . S
C2257 C2255 1.419 . S
C2257 C2258 1.362 . S
C2258 H2250 0.930 . S
C2258 C2257 1.362 . S
C2258 C2261 1.409 . S
C2259 H2251 0.930 . S
C2259 C2260 1.355 . S
C2259 C2261 1.415 . S
C2260 C2259 1.355 . S
C2260 C2262 1.419 . S
C2261 C2256 1.425 . S
C2261 C2258 1.409 . S
C2261 C2259 1.415 . S
C2262 H2252 0.930 . S
C2262 C2260 1.419 . S
C2262 C2263 1.362 . S
C2263 H2253 0.930 . S
C2263 C2256 1.409 . S
C2263 C2262 1.362 . S
H2264 C2270 0.930 . S
H2265 C2273 0.930 . S
H2266 C2274 0.930 . S
H2267 C2275 0.930 1_455 S
H2268 C2278 0.930 1_554 S
H2269 C2279 0.930 . S
C2270 H2264 0.930 . S
C2270 C2271 1.355 . S
C2270 C2272 1.415 . S
C2271 C2270 1.355 . S
C2271 C2273 1.419 . S
C2272 C2270 1.415 . S
C2272 C2277 1.425 . S
C2272 C2279 1.409 . S
C2273 H2265 0.930 . S
C2273 C2271 1.419 . S
C2273 C2274 1.362 . S
C2274 H2266 0.930 . S
C2274 C2273 1.362 . S
C2274 C2277 1.409 . S
C2275 H2267 0.930 1_655 S
C2275 C2276 1.355 . S
C2275 C2277 1.415 . S
C2276 C2275 1.355 . S
C2276 C2278 1.419 . S
C2277 C2272 1.425 . S
C2277 C2274 1.409 . S
C2277 C2275 1.415 . S
C2278 H2268 0.930 1_556 S
C2278 C2276 1.419 . S
C2278 C2279 1.362 . S
C2279 H2269 0.930 . S
C2279 C2272 1.409 . S
C2279 C2278 1.362 . S
H2280 C2286 0.930 . S
H2281 C2289 0.930 . S
H2282 C2290 0.930 . S
H2283 C2291 0.930 . S
H2284 C2294 0.930 . S
H2285 C2295 0.930 . S
C2286 H2280 0.930 . S
C2286 C2287 1.355 . S
C2286 C2288 1.415 . S
C2287 C2286 1.355 . S
C2287 C2289 1.419 . S
C2288 C2286 1.415 . S
C2288 C2293 1.425 . S
C2288 C2295 1.409 . S
C2289 H2281 0.930 . S
C2289 C2287 1.419 . S
C2289 C2290 1.362 . S
C2290 H2282 0.930 . S
C2290 C2289 1.362 . S
C2290 C2293 1.409 . S
C2291 H2283 0.930 . S
C2291 C2292 1.355 . S
C2291 C2293 1.415 . S
C2292 C2291 1.355 . S
C2292 C2294 1.419 . S
C2293 C2288 1.425 . S
C2293 C2290 1.409 . S
C2293 C2291 1.415 . S
C2294 H2284 0.930 . S
C2294 C2292 1.419 . S
C2294 C2295 1.362 . S
C2295 H2285 0.930 . S
C2295 C2288 1.409 . S
C2295 C2294 1.362 . S
H2296 C2302 0.930 . S
H2297 C2305 0.930 . S
H2298 C2306 0.930 . S
H2299 C2307 0.930 . S
H2300 C2310 0.930 . S
H2301 C2311 0.930 . S
C2302 H2296 0.930 . S
C2302 C2303 1.355 . S
C2302 C2304 1.415 . S
C2303 C2302 1.355 . S
C2303 C2305 1.419 . S
C2304 C2302 1.415 . S
C2304 C2309 1.425 . S
C2304 C2311 1.409 . S
C2305 H2297 0.930 . S
C2305 C2303 1.419 . S
C2305 C2306 1.362 . S
C2306 H2298 0.930 . S
C2306 C2305 1.362 . S
C2306 C2309 1.409 . S
C2307 H2299 0.930 . S
C2307 C2308 1.355 . S
C2307 C2309 1.415 . S
C2308 C2307 1.355 . S
C2308 C2310 1.419 . S
C2309 C2304 1.425 . S
C2309 C2306 1.409 . S
C2309 C2307 1.415 . S
C2310 H2300 0.930 . S
C2310 C2308 1.419 . S
C2310 C2311 1.362 . S
C2311 H2301 0.930 . S
C2311 C2304 1.409 . S
C2311 C2310 1.362 . S
H2312 C2318 0.930 . S
H2313 C2321 0.930 . S
H2314 C2322 0.930 . S
H2315 C2323 0.930 . S
H2316 C2326 0.930 . S
H2317 C2327 0.930 . S
C2318 H2312 0.930 . S
C2318 C2319 1.355 . S
C2318 C2320 1.415 . S
C2319 C2318 1.355 . S
C2319 C2321 1.419 . S
C2320 C2318 1.415 . S
C2320 C2325 1.425 . S
C2320 C2327 1.409 . S
C2321 H2313 0.930 . S
C2321 C2319 1.419 . S
C2321 C2322 1.362 . S
C2322 H2314 0.930 . S
C2322 C2321 1.362 . S
C2322 C2325 1.409 . S
C2323 H2315 0.930 . S
C2323 C2324 1.355 . S
C2323 C2325 1.415 . S
C2324 C2323 1.355 . S
C2324 C2326 1.419 . S
C2325 C2320 1.425 . S
C2325 C2322 1.409 . S
C2325 C2323 1.415 . S
C2326 H2316 0.930 . S
C2326 C2324 1.419 . S
C2326 C2327 1.362 . S
C2327 H2317 0.930 . S
C2327 C2320 1.409 . S
C2327 C2326 1.362 . S
H2328 C2334 0.930 . S
H2329 C2337 0.930 . S
H2330 C2338 0.930 . S
H2331 C2339 0.930 . S
H2332 C2342 0.930 . S
H2333 C2343 0.930 . S
C2334 H2328 0.930 . S
C2334 C2335 1.355 . S
C2334 C2336 1.415 . S
C2335 C2334 1.355 . S
C2335 C2337 1.419 . S
C2336 C2334 1.415 . S
C2336 C2341 1.425 . S
C2336 C2343 1.409 . S
C2337 H2329 0.930 . S
C2337 C2335 1.419 . S
C2337 C2338 1.362 . S
C2338 H2330 0.930 . S
C2338 C2337 1.362 . S
C2338 C2341 1.409 . S
C2339 H2331 0.930 . S
C2339 C2340 1.355 . S
C2339 C2341 1.415 . S
C2340 C2339 1.355 . S
C2340 C2342 1.419 . S
C2341 C2336 1.425 . S
C2341 C2338 1.409 . S
C2341 C2339 1.415 . S
C2342 H2332 0.930 . S
C2342 C2340 1.419 . S
C2342 C2343 1.362 . S
C2343 H2333 0.930 . S
C2343 C2336 1.409 . S
C2343 C2342 1.362 . S
H2344 C2350 0.930 . S
H2345 C2353 0.930 . S
H2346 C2354 0.930 . S
H2347 C2355 0.930 . S
H2348 C2358 0.930 . S
H2349 C2359 0.930 . S
C2350 H2344 0.930 . S
C2350 C2351 1.355 . S
C2350 C2352 1.415 . S
C2351 C2350 1.355 . S
C2351 C2353 1.419 . S
C2352 C2350 1.415 . S
C2352 C2357 1.425 . S
C2352 C2359 1.409 . S
C2353 H2345 0.930 . S
C2353 C2351 1.419 . S
C2353 C2354 1.362 . S
C2354 H2346 0.930 . S
C2354 C2353 1.362 . S
C2354 C2357 1.409 . S
C2355 H2347 0.930 . S
C2355 C2356 1.355 . S
C2355 C2357 1.415 . S
C2356 C2355 1.355 . S
C2356 C2358 1.419 . S
C2357 C2352 1.425 . S
C2357 C2354 1.409 . S
C2357 C2355 1.415 . S
C2358 H2348 0.930 . S
C2358 C2356 1.419 . S
C2358 C2359 1.362 . S
C2359 H2349 0.930 . S
C2359 C2352 1.409 . S
C2359 C2358 1.362 . S
H2360 C2366 0.930 . S
H2361 C2369 0.930 . S
H2362 C2370 0.930 . S
H2363 C2371 0.930 . S
H2364 C2374 0.930 . S
H2365 C2375 0.930 . S
C2366 H2360 0.930 . S
C2366 C2367 1.355 . S
C2366 C2368 1.415 . S
C2367 C2366 1.355 . S
C2367 C2369 1.419 . S
C2368 C2366 1.415 . S
C2368 C2373 1.425 . S
C2368 C2375 1.409 . S
C2369 H2361 0.930 . S
C2369 C2367 1.419 . S
C2369 C2370 1.362 . S
C2370 H2362 0.930 . S
C2370 C2369 1.362 . S
C2370 C2373 1.409 . S
C2371 H2363 0.930 . S
C2371 C2372 1.355 . S
C2371 C2373 1.415 . S
C2372 C2371 1.355 . S
C2372 C2374 1.419 . S
C2373 C2368 1.425 . S
C2373 C2370 1.409 . S
C2373 C2371 1.415 . S
C2374 H2364 0.930 . S
C2374 C2372 1.419 . S
C2374 C2375 1.362 . S
C2375 H2365 0.930 . S
C2375 C2368 1.409 . S
C2375 C2374 1.362 . S
H2376 C2382 0.930 . S
H2377 C2385 0.930 . S
H2378 C2386 0.930 . S
H2379 C2387 0.930 . S
H2380 C2390 0.930 . S
H2381 C2391 0.930 . S
C2382 H2376 0.930 . S
C2382 C2383 1.355 . S
C2382 C2384 1.415 . S
C2383 C2382 1.355 . S
C2383 C2385 1.419 . S
C2384 C2382 1.415 . S
C2384 C2389 1.425 . S
C2384 C2391 1.409 . S
C2385 H2377 0.930 . S
C2385 C2383 1.419 . S
C2385 C2386 1.362 . S
C2386 H2378 0.930 . S
C2386 C2385 1.362 . S
C2386 C2389 1.409 . S
C2387 H2379 0.930 . S
C2387 C2388 1.355 . S
C2387 C2389 1.415 . S
C2388 C2387 1.355 . S
C2388 C2390 1.419 1_565 S
C2389 C2384 1.425 . S
C2389 C2386 1.409 . S
C2389 C2387 1.415 . S
C2390 H2380 0.930 . S
C2390 C2388 1.419 1_545 S
C2390 C2391 1.362 1_545 S
C2391 H2381 0.930 . S
C2391 C2384 1.409 . S
C2391 C2390 1.362 1_565 S
H2392 C2398 0.930 . S
H2393 C2401 0.930 . S
H2394 C2402 0.930 . S
H2395 C2403 0.930 . S
H2396 C2406 0.930 . S
H2397 C2407 0.930 . S
C2398 H2392 0.930 . S
C2398 C2399 1.355 . S
C2398 C2400 1.415 . S
C2399 C2398 1.355 . S
C2399 C2401 1.419 . S
C2400 C2398 1.415 . S
C2400 C2405 1.425 . S
C2400 C2407 1.409 . S
C2401 H2393 0.930 . S
C2401 C2399 1.419 . S
C2401 C2402 1.362 . S
C2402 H2394 0.930 . S
C2402 C2401 1.362 . S
C2402 C2405 1.409 . S
C2403 H2395 0.930 . S
C2403 C2404 1.355 . S
C2403 C2405 1.415 . S
C2404 C2403 1.355 . S
C2404 C2406 1.419 . S
C2405 C2400 1.425 . S
C2405 C2402 1.409 . S
C2405 C2403 1.415 . S
C2406 H2396 0.930 . S
C2406 C2404 1.419 . S
C2406 C2407 1.362 . S
C2407 H2397 0.930 . S
C2407 C2400 1.409 . S
C2407 C2406 1.362 . S
H2408 C2414 0.930 . S
H2409 C2417 0.930 . S
H2410 C2418 0.930 . S
H2411 C2419 0.930 . S
H2412 C2422 0.930 . S
H2413 C2423 0.930 . S
C2414 H2408 0.930 . S
C2414 C2415 1.355 . S
C2414 C2416 1.415 . S
C2415 C2414 1.355 . S
C2415 C2417 1.419 . S
C2416 C2414 1.415 . S
C2416 C2421 1.425 . S
C2416 C2423 1.409 . S
C2417 H2409 0.930 . S
C2417 C2415 1.419 . S
C2417 C2418 1.362 . S
C2418 H2410 0.930 . S
C2418 C2417 1.362 . S
C2418 C2421 1.409 . S
C2419 H2411 0.930 . S
C2419 C2420 1.355 . S
C2419 C2421 1.415 . S
C2420 C2419 1.355 . S
C2420 C2422 1.419 . S
C2421 C2416 1.425 . S
C2421 C2418 1.409 . S
C2421 C2419 1.415 . S
C2422 H2412 0.930 . S
C2422 C2420 1.419 . S
C2422 C2423 1.362 . S
C2423 H2413 0.930 . S
C2423 C2416 1.409 . S
C2423 C2422 1.362 . S
H2424 C2430 0.930 . S
H2425 C2433 0.930 . S
H2426 C2434 0.930 . S
H2427 C2435 0.930 . S
H2428 C2438 0.930 . S
H2429 C2439 0.930 . S
C2430 H2424 0.930 . S
C2430 C2431 1.355 . S
C2430 C2432 1.415 . S
C2431 C2430 1.355 . S
C2431 C2433 1.419 . S
C2432 C2430 1.415 . S
C2432 C2437 1.425 . S
C2432 C2439 1.409 . S
C2433 H2425 0.930 . S
C2433 C2431 1.419 . S
C2433 C2434 1.362 . S
C2434 H2426 0.930 . S
C2434 C2433 1.362 . S
C2434 C2437 1.409 . S
C2435 H2427 0.930 . S
C2435 C2436 1.355 . S
C2435 C2437 1.415 . S
C2436 C2435 1.355 . S
C2436 C2438 1.419 . S
C2437 C2432 1.425 . S
C2437 C2434 1.409 . S
C2437 C2435 1.415 . S
C2438 H2428 0.930 . S
C2438 C2436 1.419 . S
C2438 C2439 1.362 . S
C2439 H2429 0.930 . S
C2439 C2432 1.409 . S
C2439 C2438 1.362 . S
H2440 C2446 0.930 . S
H2441 C2449 0.930 . S
H2442 C2450 0.930 . S
H2443 C2451 0.930 . S
H2444 C2454 0.930 1_556 S
H2445 C2455 0.930 . S
C2446 H2440 0.930 . S
C2446 C2447 1.355 . S
C2446 C2448 1.415 . S
C2447 C2446 1.355 . S
C2447 C2449 1.419 . S
C2448 C2446 1.415 . S
C2448 C2453 1.425 . S
C2448 C2455 1.409 . S
C2449 H2441 0.930 . S
C2449 C2447 1.419 . S
C2449 C2450 1.362 . S
C2450 H2442 0.930 . S
C2450 C2449 1.362 . S
C2450 C2453 1.409 . S
C2451 H2443 0.930 . S
C2451 C2452 1.355 . S
C2451 C2453 1.415 . S
C2452 C2451 1.355 . S
C2452 C2454 1.419 . S
C2453 C2448 1.425 . S
C2453 C2450 1.409 . S
C2453 C2451 1.415 . S
C2454 H2444 0.930 1_554 S
C2454 C2452 1.419 . S
C2454 C2455 1.362 . S
C2455 H2445 0.930 . S
C2455 C2448 1.409 . S
C2455 C2454 1.362 . S
H2456 C2462 0.930 . S
H2457 C2465 0.930 . S
H2458 C2466 0.930 . S
H2459 C2467 0.930 . S
H2460 C2470 0.930 . S
H2461 C2471 0.930 . S
C2462 H2456 0.930 . S
C2462 C2463 1.355 . S
C2462 C2464 1.415 . S
C2463 C2462 1.355 . S
C2463 C2465 1.419 . S
C2464 C2462 1.415 . S
C2464 C2469 1.425 . S
C2464 C2471 1.409 . S
C2465 H2457 0.930 . S
C2465 C2463 1.419 . S
C2465 C2466 1.362 . S
C2466 H2458 0.930 . S
C2466 C2465 1.362 . S
C2466 C2469 1.409 . S
C2467 H2459 0.930 . S
C2467 C2468 1.355 . S
C2467 C2469 1.415 . S
C2468 C2467 1.355 . S
C2468 C2470 1.419 . S
C2469 C2464 1.425 . S
C2469 C2466 1.409 . S
C2469 C2467 1.415 . S
C2470 H2460 0.930 . S
C2470 C2468 1.419 . S
C2470 C2471 1.362 . S
C2471 H2461 0.930 . S
C2471 C2464 1.409 . S
C2471 C2470 1.362 . S
H2472 C2478 0.930 . S
H2473 C2481 0.930 . S
H2474 C2482 0.930 . S
H2475 C2483 0.930 . S
H2476 C2486 0.930 . S
H2477 C2487 0.930 . S
C2478 H2472 0.930 . S
C2478 C2479 1.355 . S
C2478 C2480 1.415 . S
C2479 C2478 1.355 . S
C2479 C2481 1.419 . S
C2480 C2478 1.415 . S
C2480 C2485 1.425 . S
C2480 C2487 1.409 . S
C2481 H2473 0.930 . S
C2481 C2479 1.419 . S
C2481 C2482 1.362 . S
C2482 H2474 0.930 . S
C2482 C2481 1.362 . S
C2482 C2485 1.409 . S
C2483 H2475 0.930 . S
C2483 C2484 1.355 . S
C2483 C2485 1.415 . S
C2484 C2483 1.355 . S
C2484 C2486 1.419 . S
C2485 C2480 1.425 . S
C2485 C2482 1.409 . S
C2485 C2483 1.415 . S
C2486 H2476 0.930 . S
C2486 C2484 1.419 . S
C2486 C2487 1.362 . S
C2487 H2477 0.930 . S
C2487 C2480 1.409 . S
C2487 C2486 1.362 . S
C959 C101 2.226 1_554 S
C964 C325 2.141 . S
C975 C57 1.983 . S
C980 C376 2.039 . S
C991 C70 1.525 . S
C996 C405 1.522 . S
C1012 C449 1.433 . S
C1007 C82 1.515 . S
C1023 C23 1.394 . S
C1028 C489 1.344 . S
C1044 C525 1.555 . S
C1039 C29 1.567 . S
C1060 C575 1.892 . S
C1055 C49 1.786 . S
C1071 C10 2.342 . S
C1076 C605 2.311 . S
C1092 C335 1.896 . S
C1087 C218 1.935 . S
C1103 C226 0.928 . S
C1108 C378 0.934 . S
C1124 C415 1.306 . S
C1119 C251 1.269 . S
C1140 C445 1.344 . S
C1135 C159 1.369 . S
C1151 C211 1.418 . S
C1156 C485 1.363 . S
C1172 C535 0.979 . S
C1167 C225 1.006 . S
C1188 C569 0.872 . S
C1183 C252 0.956 . S
C1204 C615 1.889 . S
C1199 C166 1.911 . S
C1220 C329 1.429 . S
C1215 C147 1.496 . S
C1231 C263 1.684 . S
C1236 C655 1.702 . S
C1252 C689 1.514 . S
C1247 C309 1.594 . S
C1268 C725 0.776 . S
C1263 C291 0.819 . S
C1279 C108 1.559 . S
C1284 C609 1.463 . S
C1295 C121 1.699 . S
C1300 C409 1.643 . S
C1311 C302 1.618 . S
C1316 C775 1.632 . S
C1332 C794 0.269 . S
C1327 C276 0.233 . S
C1348 C336 2.348 1_565 S
C1343 C55 2.353 . S
C1364 C805 2.300 . S
C1359 C96 2.299 . S
C1375 C88 1.858 . S
C1380 C416 1.864 . S
C1391 C75 1.623 . S
C1396 C778 1.596 . S
C1412 C498 1.428 . S
C1407 C4 1.486 . S
C1423 C44 1.879 . S
C1428 C696 1.887 . S
C1444 C554 2.108 1_566 S
C1439 C31 2.085 . S
C1460 C856 2.489 . S
C1455 C18 2.473 . S
C1476 C314 2.132 1_556 S
C1471 C133 2.166 . S
C1492 C809 0.830 . S
C1487 C296 0.824 . S
C1503 C107 1.457 . S
C1508 C394 1.485 . S
C1519 C264 1.688 . S
C1524 C776 1.666 . S
C1535 C140 1.717 . S
C1540 C496 1.734 . S
C1556 C674 1.113 . S
C1551 C289 1.147 . S
C1567 C114 1.033 . S
C1572 C578 1.014 1_565 S
C1583 C265 2.156 . S
C1588 C834 2.121 . S
C1599 C179 1.285 . S
C1604 C338 1.220 . S
C1615 C161 1.895 . S
C1620 C634 1.878 . S
C1631 C244 1.571 . S
C1636 C538 1.539 . S
C1647 C224 1.066 . S
C1652 C736 1.064 . S
C1668 C858 1.474 . S
C1663 C257 1.517 . S
C1679 C199 1.637 . S
C1684 C418 1.603 . S
C1700 C434 1.818 . S
C1695 C237 1.797 . S
C1716 C375 0.632 . S
C1711 C185 0.573 . S
C1727 C69 2.210 . S
C1732 C885 2.187 . S
C1748 C816 2.059 . S
C1743 C83 2.001 . S
C1759 C94 1.535 1_554 S
C1764 C925 1.482 . S
C1775 C56 1.531 1_655 S
C1780 C769 1.453 . S
C1791 C42 1.411 . S
C1796 C649 1.360 . S
C1812 C685 1.496 . S
C1807 C3 1.570 . S
C1828 C735 1.897 . S
C1823 C16 1.856 . S
C1844 C845 2.279 . S
C1839 C36 2.351 . S
C1860 C895 1.930 . S
C1855 C238 1.940 . S
C1871 C174 0.930 . S
C1876 C818 0.936 . S
C1892 C935 1.324 . S
C1887 C186 1.324 . S
C1908 C765 1.371 . S
C1903 C198 1.374 . S
C1924 C645 1.399 . S
C1919 C239 1.429 . S
C1935 C173 1.001 . S
C1940 C695 0.965 . S
C1956 C729 0.905 . S
C1951 C187 0.957 . S
C1967 C205 1.912 . S
C1972 C855 1.894 . S
C1988 C889 1.371 . S
C1983 C290 1.454 . S
C1999 C122 1.691 . S
C2004 C495 1.709 . S
C2020 C529 1.546 . S
C2015 C134 1.630 1_565 S
C2036 C565 0.775 . S
C2031 C148 0.827 1_554 S
C2052 C849 1.501 . S
C2047 C283 1.584 . S
C2063 C270 1.657 . S
C2068 C929 1.561 . S
C2084 C455 1.633 . S
C2079 C135 1.616 . S
C2100 C354 0.510 . S
C2095 C109 0.429 . S
C2111 C81 2.359 . S
C2116 C896 2.379 . S
C2132 C365 2.321 . S
C2127 C68 2.294 . S
C2143 C62 1.859 . S
C2148 C936 1.864 . S
C2159 C95 1.623 . S
C2164 C458 1.591 . S
C2175 C30 1.485 . S
C2180 C658 1.457 . S
C2196 C536 1.857 . S
C2191 C17 1.881 . S
C2207 C5 2.077 . S
C2212 C714 2.111 . S
C2223 C43 2.479 . S
C2228 C616 2.452 . S
C2244 C874 2.140 . S
C2239 C304 2.170 . S
C2255 C153 0.765 . S
C2260 C369 0.729 . S
C2276 C914 1.472 1_656 S
C2271 C278 1.455 . S
C2287 C127 1.667 . S
C2292 C456 1.669 . S
C2303 C303 1.714 . S
C2308 C656 1.731 . S
C2324 C514 1.113 . S
C2319 C146 1.130 . S
C2335 C277 1.044 . S
C2340 C738 1.052 . S
C2356 C594 2.110 . S
C2351 C120 2.146 . S
C2372 C898 1.238 . S
C2367 C231 1.291 . S
C2388 C474 1.878 1_565 S
C2383 C200 1.895 . S
C2399 C212 1.552 . S
C2404 C698 1.503 . S
C2420 C576 1.075 . S
C2415 C172 1.060 . S
C2431 C192 1.536 . S
C2436 C618 1.473 . S
C2447 C160 1.600 . S
C2452 C938 1.561 . S
C2468 C754 1.804 . S
C2463 C213 1.822 . S
C2484 C815 0.606 . S
C2479 C250 0.579 . S
