# Generated by pormake.
# Topology ocu, (6,8)-cn, num edge types: 1
# Building blocks:
#     Node 0, Type 0, BuildingBlock: FUNLAD_clean_sbu_0, # of connection points: 6
#     Node 1, Type 0, BuildingBlock: FUNLAD_clean_sbu_0, # of connection points: 6
#     Node 2, Type 0, BuildingBlock: FUNLAD_clean_sbu_0, # of connection points: 6
#     Node 3, Type 0, BuildingBlock: FUNLAD_clean_sbu_0, # of connection points: 6
#     Node 4, Type 0, BuildingBlock: FUNLAD_clean_sbu_0, # of connection points: 6
#     Node 5, Type 0, BuildingBlock: FUNLAD_clean_sbu_0, # of connection points: 6
#     Node 6, Type 0, BuildingBlock: FUNLAD_clean_sbu_0, # of connection points: 6
#     Node 7, Type 0, BuildingBlock: FUNLAD_clean_sbu_0, # of connection points: 6
#     Node 8, Type 1, BuildingBlock: TAGTUT_clean_sbu_1, # of connection points: 8
#     Node 9, Type 1, BuildingBlock: TAGTUT_clean_sbu_1, # of connection points: 8
#     Node 10, Type 1, BuildingBlock: TAGTUT_clean_sbu_1, # of connection points: 8
#     Node 11, Type 1, BuildingBlock: TAGTUT_clean_sbu_1, # of connection points: 8
#     Node 12, Type 1, BuildingBlock: TAGTUT_clean_sbu_1, # of connection points: 8
#     Node 13, Type 1, BuildingBlock: TAGTUT_clean_sbu_1, # of connection points: 8
#     Edge 14, Type (0, 1), BuildingBlock: UVAHIK_clean_linker_0, # of connection points: 2
#     Edge 15, Type (0, 1), BuildingBlock: UVAHIK_clean_linker_0, # of connection points: 2
#     Edge 16, Type (0, 1), BuildingBlock: UVAHIK_clean_linker_0, # of connection points: 2
#     Edge 17, Type (0, 1), BuildingBlock: UVAHIK_clean_linker_0, # of connection points: 2
#     Edge 18, Type (0, 1), BuildingBlock: UVAHIK_clean_linker_0, # of connection points: 2
#     Edge 19, Type (0, 1), BuildingBlock: UVAHIK_clean_linker_0, # of connection points: 2
#     Edge 20, Type (0, 1), BuildingBlock: UVAHIK_clean_linker_0, # of connection points: 2
#     Edge 21, Type (0, 1), BuildingBlock: UVAHIK_clean_linker_0, # of connection points: 2
#     Edge 22, Type (0, 1), BuildingBlock: UVAHIK_clean_linker_0, # of connection points: 2
#     Edge 23, Type (0, 1), BuildingBlock: UVAHIK_clean_linker_0, # of connection points: 2
#     Edge 24, Type (0, 1), BuildingBlock: UVAHIK_clean_linker_0, # of connection points: 2
#     Edge 25, Type (0, 1), BuildingBlock: UVAHIK_clean_linker_0, # of connection points: 2
#     Edge 26, Type (0, 1), BuildingBlock: UVAHIK_clean_linker_0, # of connection points: 2
#     Edge 27, Type (0, 1), BuildingBlock: UVAHIK_clean_linker_0, # of connection points: 2
#     Edge 28, Type (0, 1), BuildingBlock: UVAHIK_clean_linker_0, # of connection points: 2
#     Edge 29, Type (0, 1), BuildingBlock: UVAHIK_clean_linker_0, # of connection points: 2
#     Edge 30, Type (0, 1), BuildingBlock: UVAHIK_clean_linker_0, # of connection points: 2
#     Edge 31, Type (0, 1), BuildingBlock: UVAHIK_clean_linker_0, # of connection points: 2
#     Edge 32, Type (0, 1), BuildingBlock: UVAHIK_clean_linker_0, # of connection points: 2
#     Edge 33, Type (0, 1), BuildingBlock: UVAHIK_clean_linker_0, # of connection points: 2
#     Edge 34, Type (0, 1), BuildingBlock: UVAHIK_clean_linker_0, # of connection points: 2
#     Edge 35, Type (0, 1), BuildingBlock: UVAHIK_clean_linker_0, # of connection points: 2
#     Edge 36, Type (0, 1), BuildingBlock: UVAHIK_clean_linker_0, # of connection points: 2
#     Edge 37, Type (0, 1), BuildingBlock: UVAHIK_clean_linker_0, # of connection points: 2
#     Edge 38, Type (0, 1), BuildingBlock: UVAHIK_clean_linker_0, # of connection points: 2
#     Edge 39, Type (0, 1), BuildingBlock: UVAHIK_clean_linker_0, # of connection points: 2
#     Edge 40, Type (0, 1), BuildingBlock: UVAHIK_clean_linker_0, # of connection points: 2
#     Edge 41, Type (0, 1), BuildingBlock: UVAHIK_clean_linker_0, # of connection points: 2
#     Edge 42, Type (0, 1), BuildingBlock: UVAHIK_clean_linker_0, # of connection points: 2
#     Edge 43, Type (0, 1), BuildingBlock: UVAHIK_clean_linker_0, # of connection points: 2
#     Edge 44, Type (0, 1), BuildingBlock: UVAHIK_clean_linker_0, # of connection points: 2
#     Edge 45, Type (0, 1), BuildingBlock: UVAHIK_clean_linker_0, # of connection points: 2
#     Edge 46, Type (0, 1), BuildingBlock: UVAHIK_clean_linker_0, # of connection points: 2
#     Edge 47, Type (0, 1), BuildingBlock: UVAHIK_clean_linker_0, # of connection points: 2
#     Edge 48, Type (0, 1), BuildingBlock: UVAHIK_clean_linker_0, # of connection points: 2
#     Edge 49, Type (0, 1), BuildingBlock: UVAHIK_clean_linker_0, # of connection points: 2
#     Edge 50, Type (0, 1), BuildingBlock: UVAHIK_clean_linker_0, # of connection points: 2
#     Edge 51, Type (0, 1), BuildingBlock: UVAHIK_clean_linker_0, # of connection points: 2
#     Edge 52, Type (0, 1), BuildingBlock: UVAHIK_clean_linker_0, # of connection points: 2
#     Edge 53, Type (0, 1), BuildingBlock: UVAHIK_clean_linker_0, # of connection points: 2
#     Edge 54, Type (0, 1), BuildingBlock: UVAHIK_clean_linker_0, # of connection points: 2
#     Edge 55, Type (0, 1), BuildingBlock: UVAHIK_clean_linker_0, # of connection points: 2
#     Edge 56, Type (0, 1), BuildingBlock: UVAHIK_clean_linker_0, # of connection points: 2
#     Edge 57, Type (0, 1), BuildingBlock: UVAHIK_clean_linker_0, # of connection points: 2
#     Edge 58, Type (0, 1), BuildingBlock: UVAHIK_clean_linker_0, # of connection points: 2
#     Edge 59, Type (0, 1), BuildingBlock: UVAHIK_clean_linker_0, # of connection points: 2
#     Edge 60, Type (0, 1), BuildingBlock: UVAHIK_clean_linker_0, # of connection points: 2
#     Edge 61, Type (0, 1), BuildingBlock: UVAHIK_clean_linker_0, # of connection points: 2
# Relax obj value: 0.188
# Max RMSD: 0.254
# Mean RMSD: 0.200
data_MOF--net-ocu--node1-FUNLAD_clean_sbu_0--node2-TAGTUT_clean_sbu_1--edge1-UVAHIK_clean_linker_0
_symmetry_space_group_name_H-M    P1
_symmetry_Int_Tables_number       1
_symmetry_cell_setting            triclinic
loop_
_symmetry_equiv_pos_as_xyz
'x, y, z'
_cell_length_a     49.016043
_cell_length_b     46.143551
_cell_length_c     50.88441
_cell_angle_alpha  86.927936
_cell_angle_beta   88.704449
_cell_angle_gamma 92.667223
loop_
_atom_site_label
_atom_site_type_symbol
_atom_site_fract_x
_atom_site_fract_y
_atom_site_fract_z
_atom_type_partial_charge
C0 C 0.23339 0.26534 0.29958 0.0
N1 N 0.20698 0.1993 0.25165 0.0
C2 C 0.20247 0.18101 0.27329 0.0
C3 C 0.17976 0.16168 0.27487 0.0
C4 C 0.16131 0.16155 0.25417 0.0
C5 C 0.16678 0.18001 0.23174 0.0
C6 C 0.1901 0.19862 0.23075 0.0
Zn7 Zn 0.23768 0.23037 0.25196 0.0
C8 C 0.21896 0.28676 0.22713 0.0
N9 N 0.29971 0.29746 0.25177 0.0
C10 C 0.31562 0.29935 0.27331 0.0
C11 C 0.30662 0.31241 0.22868 0.0
C12 C 0.33136 0.3284 0.22601 0.0
C13 C 0.34897 0.32903 0.24731 0.0
C14 C 0.34064 0.31524 0.2715 0.0
Zn15 Zn 0.26866 0.26684 0.25161 0.0
O16 O 0.22324 0.24309 0.28898 0.0
C17 C 0.28762 0.21067 0.27632 0.0
O18 O 0.25336 0.27983 0.28815 0.0
H19 H 0.29374 0.31047 0.21184 0.0
H20 H 0.21595 0.18215 0.28977 0.0
H21 H 0.30972 0.2871 0.29143 0.0
O22 O 0.26399 0.20069 0.27071 0.0
O23 O 0.29406 0.23729 0.27089 0.0
H24 H 0.19419 0.21323 0.21365 0.0
O25 O 0.2837 0.25325 0.21491 0.0
O26 O 0.25217 0.21798 0.21508 0.0
O27 O 0.24294 0.29632 0.23199 0.0
O28 O 0.21197 0.26041 0.23342 0.0
C29 C 0.27275 0.23165 0.20397 0.0
H30 H 0.1759 0.14805 0.29269 0.0
H31 H 0.15289 0.18045 0.21548 0.0
H32 H 0.33736 0.33897 0.20709 0.0
H33 H 0.35394 0.31535 0.2882 0.0
C34 C 0.71034 0.28156 0.21874 0.0
N35 N 0.7478 0.20427 0.2025 0.0
C36 C 0.72229 0.19655 0.19458 0.0
C37 C 0.71875 0.1774 0.17463 0.0
C38 C 0.74163 0.16575 0.16297 0.0
C39 C 0.76772 0.17321 0.17187 0.0
C40 C 0.77039 0.19291 0.19177 0.0
Zn41 Zn 0.75045 0.23447 0.23024 0.0
C42 C 0.79047 0.28346 0.21473 0.0
N43 N 0.7525 0.29874 0.28713 0.0
C44 C 0.72998 0.30874 0.29923 0.0
C45 C 0.77813 0.30811 0.29342 0.0
C46 C 0.78193 0.32795 0.31277 0.0
C47 C 0.75919 0.33826 0.32575 0.0
C48 C 0.7329 0.32875 0.31885 0.0
Zn49 Zn 0.74973 0.26845 0.25949 0.0
O50 O 0.71994 0.25846 0.21053 0.0
C51 C 0.70994 0.21911 0.27506 0.0
O52 O 0.71924 0.29159 0.23984 0.0
H53 H 0.79575 0.29988 0.28365 0.0
H54 H 0.70459 0.20558 0.20351 0.0
H55 H 0.70981 0.30093 0.29391 0.0
O56 O 0.71957 0.21032 0.25363 0.0
O57 O 0.7188 0.2435 0.28286 0.0
H58 H 0.79047 0.1994 0.19838 0.0
O59 O 0.78064 0.24498 0.27887 0.0
O60 O 0.78053 0.21106 0.25027 0.0
O61 O 0.78033 0.29282 0.23571 0.0
O62 O 0.78182 0.25887 0.20728 0.0
C63 C 0.78987 0.22156 0.27101 0.0
H64 H 0.69833 0.17183 0.16823 0.0
H65 H 0.78573 0.16448 0.16315 0.0
H66 H 0.80248 0.33491 0.31785 0.0
H67 H 0.715 0.33633 0.32873 0.0
C68 C 0.79527 0.71858 0.27086 0.0
N69 N 0.79506 0.80832 0.24952 0.0
C70 C 0.81083 0.80818 0.27122 0.0
C71 C 0.82313 0.83377 0.27932 0.0
C72 C 0.81844 0.86006 0.26563 0.0
C73 C 0.80307 0.85989 0.24277 0.0
C74 C 0.79184 0.83342 0.23471 0.0
Zn75 Zn 0.77078 0.7714 0.24498 0.0
C76 C 0.78019 0.7405 0.19849 0.0
N77 N 0.71816 0.69573 0.24311 0.0
C78 C 0.71551 0.67281 0.26119 0.0
C79 C 0.70745 0.69416 0.21877 0.0
C80 C 0.69452 0.66867 0.21137 0.0
C81 C 0.69251 0.64438 0.22906 0.0
C82 C 0.70244 0.6466 0.25453 0.0
Zn83 Zn 0.74233 0.73221 0.24764 0.0
O84 O 0.80028 0.74504 0.26345 0.0
C85 C 0.73313 0.76324 0.29417 0.0
O86 O 0.77181 0.70696 0.26696 0.0
H87 H 0.71007 0.71228 0.20446 0.0
H88 H 0.81241 0.78869 0.28363 0.0
H89 H 0.72443 0.67447 0.28033 0.0
O90 O 0.75224 0.77836 0.28198 0.0
O91 O 0.72353 0.74029 0.28425 0.0
H92 H 0.77918 0.83334 0.21761 0.0
O93 O 0.71294 0.75768 0.22845 0.0
O94 O 0.74042 0.79653 0.2262 0.0
O95 O 0.76165 0.72495 0.21105 0.0
O96 O 0.78918 0.76392 0.208 0.0
C97 C 0.71735 0.78436 0.22162 0.0
H98 H 0.83438 0.83332 0.29743 0.0
H99 H 0.79885 0.88001 0.23201 0.0
H100 H 0.68682 0.66763 0.19161 0.0
H101 H 0.70102 0.6281 0.26861 0.0
C102 C 0.22452 0.80075 0.26437 0.0
N103 N 0.28702 0.75427 0.29778 0.0
C104 C 0.29892 0.7812 0.30023 0.0
C105 C 0.31019 0.78865 0.32387 0.0
C106 C 0.30895 0.76836 0.34529 0.0
C107 C 0.29783 0.74027 0.3422 0.0
C108 C 0.28695 0.73355 0.31791 0.0
Zn109 Zn 0.26346 0.74994 0.26554 0.0
C110 C 0.20994 0.71833 0.28023 0.0
N111 N 0.21019 0.74859 0.20088 0.0
C112 C 0.21211 0.76845 0.18001 0.0
C113 C 0.19674 0.72231 0.19901 0.0
C114 C 0.1858 0.71459 0.17528 0.0
C115 C 0.18922 0.73376 0.15314 0.0
C116 C 0.20194 0.76125 0.15559 0.0
Zn117 Zn 0.23373 0.75299 0.23325 0.0
O118 O 0.24383 0.78821 0.27595 0.0
C119 C 0.28757 0.78438 0.21867 0.0
O120 O 0.2151 0.79065 0.24351 0.0
H121 H 0.19615 0.70634 0.21533 0.0
H122 H 0.29812 0.7977 0.28443 0.0
H123 H 0.223 0.78914 0.18178 0.0
O124 O 0.29314 0.77505 0.24175 0.0
O125 O 0.26399 0.77848 0.20989 0.0
H126 H 0.27711 0.71239 0.31567 0.0
O127 O 0.25239 0.71474 0.22341 0.0
O128 O 0.28236 0.71192 0.25475 0.0
O129 O 0.20397 0.72813 0.25738 0.0
O130 O 0.23366 0.72407 0.28873 0.0
C131 C 0.27165 0.70167 0.23449 0.0
H132 H 0.31847 0.81059 0.32587 0.0
H133 H 0.2965 0.72426 0.35859 0.0
H134 H 0.17638 0.69303 0.17379 0.0
H135 H 0.20499 0.77639 0.13864 0.0
C136 C 0.20942 0.78108 0.7205 0.0
N137 N 0.24742 0.70403 0.70453 0.0
C138 C 0.2218 0.69523 0.6977 0.0
C139 C 0.21807 0.67528 0.67843 0.0
C140 C 0.24088 0.66408 0.66626 0.0
C141 C 0.26712 0.67282 0.67391 0.0
C142 C 0.26997 0.69314 0.69325 0.0
Zn143 Zn 0.25044 0.7349 0.73157 0.0
C144 C 0.28969 0.78381 0.71466 0.0
N145 N 0.25343 0.80029 0.7874 0.0
C146 C 0.23157 0.81126 0.7998 0.0
C147 C 0.27937 0.81011 0.79198 0.0
C148 C 0.28419 0.83198 0.80922 0.0
C149 C 0.26217 0.84401 0.82211 0.0
C150 C 0.23553 0.83321 0.81754 0.0
Zn151 Zn 0.24983 0.76909 0.76062 0.0
O152 O 0.21918 0.75808 0.71224 0.0
C153 C 0.21082 0.71982 0.77747 0.0
O154 O 0.21869 0.79152 0.7413 0.0
H155 H 0.29651 0.80097 0.78219 0.0
H156 H 0.20416 0.70401 0.70698 0.0
H157 H 0.21111 0.80308 0.79586 0.0
O158 O 0.2203 0.71099 0.75599 0.0
O159 O 0.2195 0.74439 0.78503 0.0
H160 H 0.29013 0.7005 0.69899 0.0
O161 O 0.28134 0.74625 0.77971 0.0
O162 O 0.28118 0.71221 0.75123 0.0
O163 O 0.27979 0.79321 0.73571 0.0
O164 O 0.28112 0.75907 0.70752 0.0
C165 C 0.29071 0.72293 0.77178 0.0
H166 H 0.19755 0.66882 0.67286 0.0
H167 H 0.28508 0.66451 0.6647 0.0
H168 H 0.3051 0.83915 0.81269 0.0
H169 H 0.21805 0.84188 0.82726 0.0
C170 C 0.2918 0.21518 0.77123 0.0
N171 N 0.29093 0.30461 0.75054 0.0
C172 C 0.30456 0.30484 0.77355 0.0
C173 C 0.3173 0.33027 0.78145 0.0
C174 C 0.31542 0.35601 0.76599 0.0
C175 C 0.30202 0.35545 0.74199 0.0
C176 C 0.29004 0.3291 0.73439 0.0
Zn177 Zn 0.26705 0.26784 0.74537 0.0
C178 C 0.27744 0.23758 0.69869 0.0
N179 N 0.21534 0.19172 0.74208 0.0
C180 C 0.21327 0.16831 0.75967 0.0
C181 C 0.20471 0.19047 0.71769 0.0
C182 C 0.19253 0.16484 0.70968 0.0
C183 C 0.19121 0.14009 0.72682 0.0
C184 C 0.20099 0.14194 0.75238 0.0
Zn185 Zn 0.23906 0.22839 0.74735 0.0
O186 O 0.29647 0.2418 0.76423 0.0
C187 C 0.22865 0.25874 0.794 0.0
O188 O 0.26864 0.20319 0.76672 0.0
H189 H 0.20694 0.20896 0.70374 0.0
H190 H 0.30421 0.28577 0.7868 0.0
H191 H 0.22214 0.16969 0.77886 0.0
O192 O 0.24761 0.27435 0.78209 0.0
O193 O 0.21975 0.23562 0.78388 0.0
H194 H 0.27884 0.32862 0.71635 0.0
O195 O 0.20964 0.25403 0.72813 0.0
O196 O 0.23706 0.29296 0.72628 0.0
O197 O 0.25877 0.22185 0.71086 0.0
O198 O 0.28626 0.26084 0.70861 0.0
C199 C 0.21405 0.28078 0.72149 0.0
H200 H 0.32706 0.33025 0.80036 0.0
H201 H 0.29998 0.3752 0.72986 0.0
H202 H 0.18497 0.16406 0.68985 0.0
H203 H 0.20013 0.12307 0.76604 0.0
C204 C 0.72698 0.30513 0.76712 0.0
N205 N 0.78762 0.25395 0.79742 0.0
C206 C 0.80278 0.27923 0.79916 0.0
C207 C 0.81521 0.2857 0.82254 0.0
C208 C 0.81143 0.26639 0.84456 0.0
C209 C 0.79684 0.23987 0.84222 0.0
C210 C 0.7853 0.23384 0.81808 0.0
Zn211 Zn 0.76253 0.25183 0.76588 0.0
C212 C 0.70803 0.22283 0.78199 0.0
N213 N 0.70666 0.25497 0.70294 0.0
C214 C 0.70996 0.27428 0.68173 0.0
C215 C 0.69102 0.22994 0.70152 0.0
C216 C 0.67929 0.22279 0.67798 0.0
C217 C 0.68435 0.24106 0.65544 0.0
C218 C 0.69926 0.26745 0.65742 0.0
Zn219 Zn 0.73164 0.25725 0.73474 0.0
O220 O 0.74617 0.29106 0.77727 0.0
C221 C 0.78626 0.28622 0.71885 0.0
O222 O 0.71522 0.2958 0.74699 0.0
H223 H 0.68932 0.21415 0.71796 0.0
H224 H 0.80369 0.29552 0.78308 0.0
H225 H 0.72246 0.29404 0.68306 0.0
O226 O 0.79255 0.27543 0.74123 0.0
O227 O 0.76197 0.28219 0.71113 0.0
H228 H 0.77308 0.21394 0.81645 0.0
O229 O 0.74861 0.21858 0.72285 0.0
O230 O 0.77857 0.21305 0.75394 0.0
O231 O 0.70185 0.23285 0.75929 0.0
O232 O 0.73214 0.22769 0.78988 0.0
C233 C 0.7676 0.20435 0.73319 0.0
H234 H 0.82603 0.30657 0.82396 0.0
H235 H 0.79348 0.22467 0.85907 0.0
H236 H 0.66824 0.202 0.6769 0.0
H237 H 0.70361 0.28188 0.64019 0.0
C238 C 0.73183 0.76254 0.79784 0.0
N239 N 0.70366 0.69792 0.74903 0.0
C240 C 0.69814 0.67985 0.77065 0.0
C241 C 0.67394 0.66278 0.77259 0.0
C242 C 0.65504 0.66481 0.75233 0.0
C243 C 0.66176 0.68252 0.72969 0.0
C244 C 0.68656 0.69873 0.72828 0.0
Zn245 Zn 0.73565 0.72751 0.74984 0.0
C246 C 0.71998 0.78503 0.72518 0.0
N247 N 0.80022 0.79167 0.75159 0.0
C248 C 0.81577 0.79346 0.77338 0.0
C249 C 0.80768 0.80643 0.72854 0.0
C250 C 0.83246 0.82235 0.72626 0.0
C251 C 0.84956 0.82319 0.74792 0.0
C252 C 0.84079 0.8094 0.77199 0.0
Zn253 Zn 0.76812 0.76238 0.75098 0.0
O254 O 0.72102 0.74096 0.78672 0.0
C255 C 0.78407 0.70518 0.77562 0.0
O256 O 0.75279 0.776 0.78718 0.0
H257 H 0.79505 0.80463 0.7115 0.0
H258 H 0.71181 0.67982 0.78703 0.0
H259 H 0.80943 0.78139 0.79146 0.0
O260 O 0.76034 0.6965 0.76903 0.0
O261 O 0.79182 0.73159 0.77077 0.0
H262 H 0.69146 0.7131 0.71117 0.0
O263 O 0.78316 0.74817 0.71448 0.0
O264 O 0.75022 0.71454 0.71323 0.0
O265 O 0.74408 0.79321 0.73106 0.0
O266 O 0.71166 0.75891 0.73077 0.0
C267 C 0.77163 0.72736 0.70288 0.0
H268 H 0.66917 0.64973 0.79059 0.0
H269 H 0.64753 0.68466 0.71379 0.0
H270 H 0.83872 0.83302 0.70745 0.0
H271 H 0.85366 0.80975 0.789 0.0
C272 C 0.92365 0.06887 0.54153 0.0
C273 C 0.94906 0.06978 0.45904 0.0
C274 C 0.95138 0.95523 0.47262 0.0
Mg275 Mg 0.97963 0.06909 0.51138 0.0
O276 O 0.9714 0.02901 0.51519 0.0
Mg277 Mg 0.9354 0.01289 0.5035 0.0
Mg278 Mg 0.9953 0.00058 0.49939 0.0
O279 O 0.01884 0.97181 0.48385 0.0
Mg280 Mg 0.00951 0.93191 0.4883 0.0
Mg281 Mg 0.0549 0.98712 0.49604 0.0
C282 C 0.03837 0.04591 0.52661 0.0
C283 C 0.0313 0.03154 0.45101 0.0
O284 O 0.91605 0.04565 0.53031 0.0
O285 O 0.94742 0.08139 0.53757 0.0
O286 O 0.93564 0.04675 0.46804 0.0
O287 O 0.96853 0.08148 0.47174 0.0
O288 O 0.02214 0.06708 0.52461 0.0
O289 O 0.03139 0.02047 0.51931 0.0
C290 C 0.96015 0.96854 0.54778 0.0
O291 O 0.98346 0.97204 0.53592 0.0
O292 O 0.93898 0.98076 0.53893 0.0
O293 O 0.07402 0.9532 0.46969 0.0
O294 O 0.04109 0.91922 0.46195 0.0
O295 O 0.05381 0.95379 0.53182 0.0
C296 C 0.06535 0.93052 0.45817 0.0
O297 O 0.02062 0.91937 0.52806 0.0
O298 O 0.96703 0.9336 0.47481 0.0
C299 C 0.04012 0.93092 0.54082 0.0
O300 O 0.95908 0.98052 0.47967 0.0
O301 O 0.00775 0.02924 0.46264 0.0
O302 O 0.05189 0.01858 0.46027 0.0
C303 C 0.43434 0.08278 0.02301 0.0
C304 C 0.46569 0.0675 0.94558 0.0
C305 C 0.45478 0.95431 0.97638 0.0
Mg306 Mg 0.49163 0.07052 4e-05 0.0
O307 O 0.47862 0.03214 0.00956 0.0
Mg308 Mg 0.44302 0.01907 0.99437 0.0
Mg309 Mg 0.50071 0.99906 -0.00069 0.0
O310 O 0.52295 0.96616 0.98887 0.0
Mg311 Mg 0.51021 0.92768 0.9981 0.0
Mg312 Mg 0.55883 0.97936 0.00349 0.0
C313 C 0.54701 0.04356 0.02146 0.0
C314 C 0.54666 0.025 0.95488 0.0
O315 O 0.4252 0.05869 0.01414 0.0
O316 O 0.45965 0.09131 0.02078 0.0
O317 O 0.45014 0.04696 0.95614 0.0
O318 O 0.48486 0.07956 0.95835 0.0
O319 O 0.53351 0.06589 0.01433 0.0
O320 O 0.5367 0.01746 0.02113 0.0
C321 C 0.45453 0.9746 0.04407 0.0
O322 O 0.47967 0.97335 0.03633 0.0
O323 O 0.43803 0.99074 0.03162 0.0
O324 O 0.57676 0.94009 0.98285 0.0
O325 O 0.54214 0.90738 0.977 0.0
O326 O 0.55235 0.95083 0.04138 0.0
C327 C 0.56738 0.91596 0.97418 0.0
O328 O 0.5176 0.9182 0.03964 0.0
O329 O 0.46845 0.93204 0.98333 0.0
C330 C 0.53705 0.93019 0.0521 0.0
O331 O 0.46486 0.98045 0.97745 0.0
O332 O 0.52145 0.02518 0.96259 0.0
O333 O 0.56351 0.00873 0.96668 0.0
C334 C 0.93316 0.57674 0.02176 0.0
C335 C 0.95638 0.55279 0.94369 0.0
C336 C 0.96087 0.44541 0.98707 0.0
Mg337 Mg 0.98799 0.56617 0.99306 0.0
O338 O 0.98025 0.52876 0.0086 0.0
Mg339 Mg 0.94403 0.51018 -0.00077 0.0
Mg340 Mg 0.00479 0.49776 0.99809 0.0
O341 O 0.02925 0.46677 0.9875 0.0
Mg342 Mg 0.02123 0.42943 0.00293 0.0
Mg343 Mg 0.06556 0.485 0.997 0.0
C344 C 0.04855 0.55002 0.00908 0.0
C345 C 0.04332 0.52323 0.9471 0.0
O346 O 0.92485 0.55055 0.01738 0.0
O347 O 0.95712 0.58706 0.01473 0.0
O348 O 0.94326 0.5332 0.95818 0.0
O349 O 0.97647 0.5676 0.95244 0.0
O350 O 0.03137 0.56879 0.00151 0.0
O351 O 0.04182 0.52288 0.0136 0.0
C352 C 0.96632 0.47242 0.0492 0.0
O353 O 0.99028 0.47306 0.03807 0.0
O354 O 0.9466 0.48593 0.03894 0.0
O355 O 0.08456 0.44455 0.97852 0.0
O356 O 0.05203 0.4083 0.98159 0.0
O357 O 0.06642 0.46146 0.0381 0.0
C358 C 0.07601 0.41836 0.97434 0.0
O359 O 0.03233 0.42802 0.0435 0.0
O360 O 0.97795 0.42651 0.99452 0.0
C361 C 0.05278 0.44206 0.05242 0.0
O362 O 0.9678 0.47251 0.9827 0.0
O363 O 0.01932 0.52254 0.95814 0.0
O364 O 0.06301 0.50963 0.95736 0.0
C365 C 0.41829 0.56344 0.04169 0.0
C366 C 0.44776 0.57026 0.96019 0.0
C367 C 0.45847 0.45794 0.96767 0.0
Mg368 Mg 0.47552 0.56918 0.0137 0.0
O369 O 0.46992 0.52857 0.01681 0.0
Mg370 Mg 0.436 0.51068 0.00212 0.0
Mg371 Mg 0.49671 0.50451 -0.00078 0.0
O372 O 0.52354 0.48088 0.98124 0.0
Mg373 Mg 0.51848 0.44026 0.98286 0.0
Mg374 Mg 0.55772 0.49934 0.99498 0.0
C375 C 0.53507 0.55127 0.03028 0.0
C376 C 0.52922 0.54534 0.95456 0.0
O377 O 0.41285 0.53985 0.03008 0.0
O378 O 0.44109 0.5781 0.03836 0.0
O379 O 0.43505 0.54639 0.96815 0.0
O380 O 0.46624 0.58227 0.97383 0.0
O381 O 0.51727 0.57093 0.02881 0.0
O382 O 0.53046 0.52612 0.0213 0.0
C383 C 0.46315 0.46538 0.04427 0.0
O384 O 0.4866 0.47162 0.03324 0.0
O385 O 0.44133 0.47664 0.03575 0.0
O386 O 0.58074 0.47114 0.96592 0.0
O387 O 0.55271 0.4328 0.95734 0.0
O388 O 0.55996 0.46269 0.02803 0.0
C389 C 0.57537 0.44774 0.95398 0.0
O390 O 0.52926 0.42631 0.0222 0.0
O391 O 0.47629 0.43826 0.96833 0.0
C392 C 0.54796 0.4383 0.03563 0.0
O393 O 0.46328 0.48277 0.97718 0.0
O394 O 0.50619 0.53748 0.9656 0.0
O395 O 0.55165 0.53474 0.96223 0.0
C396 C 0.93382 0.58203 0.52006 0.0
C397 C 0.96741 0.56698 0.44346 0.0
C398 C 0.95543 0.45369 0.47511 0.0
Mg399 Mg 0.9918 0.56993 0.49864 0.0
O400 O 0.97854 0.53156 0.5076 0.0
Mg401 Mg 0.9434 0.51838 0.49158 0.0
Mg402 Mg 0.00089 0.49826 0.49854 0.0
O403 O 0.02318 0.46494 0.48946 0.0
Mg404 Mg 0.00978 0.4267 0.49885 0.0
Mg405 Mg 0.05851 0.47817 0.50509 0.0
C406 C 0.04639 0.54285 0.52183 0.0
C407 C 0.04821 0.52246 0.45488 0.0
O408 O 0.92493 0.55804 0.51078 0.0
O409 O 0.95917 0.5905 0.51861 0.0
O410 O 0.95167 0.54629 0.4535 0.0
O411 O 0.98608 0.57907 0.45682 0.0
O412 O 0.03321 0.56523 0.51417 0.0
O413 O 0.03603 0.5168 0.52131 0.0
C414 C 0.95333 0.47435 0.54206 0.0
O415 O 0.97872 0.47325 0.53521 0.0
O416 O 0.93717 0.4902 0.52887 0.0
O417 O 0.07677 0.43841 0.48569 0.0
O418 O 0.04223 0.40585 0.47898 0.0
O419 O 0.05069 0.45024 0.54319 0.0
C420 C 0.06758 0.41424 0.47696 0.0
O421 O 0.01596 0.4177 0.54065 0.0
O422 O 0.96838 0.43126 0.48305 0.0
C423 C 0.03502 0.42971 0.5536 0.0
O424 O 0.96591 0.47968 0.47571 0.0
O425 O 0.02286 0.52336 0.46192 0.0
O426 O 0.06451 0.50653 0.4678 0.0
C427 C 0.43297 0.07656 0.5221 0.0
C428 C 0.45843 0.05402 0.44432 0.0
C429 C 0.46318 0.94594 0.48701 0.0
Mg430 Mg 0.48859 0.06678 0.49459 0.0
O431 O 0.48086 0.02921 0.5096 0.0
Mg432 Mg 0.44508 0.01045 0.49919 0.0
Mg433 Mg 0.50602 0.99875 0.4992 0.0
O434 O 0.53115 0.9683 0.48875 0.0
Mg435 Mg 0.52372 0.93044 0.50333 0.0
Mg436 Mg 0.56702 0.98716 0.49869 0.0
C437 C 0.54893 0.05157 0.51148 0.0
C438 C 0.54476 0.02511 0.44869 0.0
O439 O 0.425 0.05035 0.51738 0.0
O440 O 0.45698 0.08715 0.51559 0.0
O441 O 0.44485 0.03423 0.45824 0.0
O442 O 0.47838 0.0684 0.45376 0.0
O443 O 0.53162 0.07017 0.5039 0.0
O444 O 0.54249 0.02429 0.51547 0.0
C445 C 0.46678 0.97249 0.54944 0.0
O446 O 0.49102 0.97352 0.53886 0.0
O447 O 0.44713 0.98577 0.53877 0.0
O448 O 0.58699 0.94749 0.48001 0.0
O449 O 0.55515 0.91057 0.48156 0.0
O450 O 0.56756 0.96326 0.53951 0.0
C451 C 0.57908 0.92136 0.47499 0.0
O452 O 0.5347 0.92833 0.54404 0.0
O453 O 0.48047 0.92723 0.49447 0.0
C454 C 0.55445 0.94312 0.55341 0.0
O455 O 0.46975 0.97318 0.48294 0.0
O456 O 0.52066 0.02393 0.45952 0.0
O457 O 0.56461 0.01198 0.45915 0.0
C458 C 0.1352 0.1153 0.26703 0.0
C459 C 0.13523 0.14441 0.25769 0.0
C460 C 0.11124 0.10128 0.27736 0.0
C461 C 0.05525 0.12311 0.31669 0.0
H462 H 0.04415 0.03954 0.32693 0.0
C463 C 0.0554 0.03885 0.4075 0.0
C464 C 0.03403 0.04602 0.42443 0.0
C465 C 0.05676 0.04968 0.38145 0.0
C466 C 0.04649 0.06296 0.32399 0.0
H467 H 0.10999 0.18089 0.24911 0.0
H468 H 0.0679 0.15635 0.26742 0.0
H469 H 0.0653 0.06046 0.28589 0.0
H470 H 0.99769 0.07071 0.42741 0.0
H471 H 1.0007 0.09076 0.38172 0.0
H472 H 0.03833 0.12537 0.35565 0.0
C473 C 0.08638 0.1444 0.26681 0.0
C474 C 0.05858 0.07492 0.30056 0.0
C475 C 0.1104 0.15837 0.25624 0.0
C476 C 0.01432 0.06482 0.41482 0.0
C477 C 0.01594 0.07613 0.38871 0.0
C478 C 0.04298 0.11113 0.34007 0.0
C479 C 0.08693 0.11626 0.27876 0.0
C480 C 0.06493 0.10493 0.29754 0.0
C481 C 0.03699 0.06823 0.37175 0.0
C482 C 0.04034 0.08088 0.34456 0.0
H483 H 0.15412 0.1041 0.26814 0.0
H484 H 0.11252 0.07969 0.28656 0.0
H485 H 0.05986 0.14633 0.31504 0.0
H486 H 0.07082 0.02425 0.41413 0.0
H487 H 0.07361 0.04387 0.36894 0.0
C488 C 0.82735 0.22213 0.30344 0.0
C489 C 0.8109 0.20663 0.28627 0.0
C490 C 0.84638 0.20796 0.31888 0.0
C491 C 0.8812 0.13766 0.32866 0.0
H492 H 0.8899 0.16414 0.39916 0.0
C493 C 0.9222 0.06999 0.41765 0.0
C494 C 0.94013 0.0845 0.43432 0.0
C495 C 0.91066 0.08504 0.3964 0.0
C496 C 0.88799 0.15674 0.3794 0.0
H497 H 0.8017 0.16421 0.27148 0.0
H498 H 0.83397 0.13911 0.2993 0.0
H499 H 0.86091 0.19 0.36879 0.0
H500 H 0.96127 0.12579 0.44074 0.0
H501 H 0.94066 0.15213 0.40391 0.0
H502 H 0.90731 0.10334 0.34021 0.0
C503 C 0.83288 0.1624 0.30035 0.0
C504 C 0.87142 0.17163 0.36187 0.0
C505 C 0.81419 0.17673 0.28449 0.0
C506 C 0.94743 0.11399 0.42839 0.0
C507 C 0.93558 0.12912 0.40738 0.0
C508 C 0.89745 0.12244 0.34643 0.0
C509 C 0.84905 0.17777 0.318 0.0
C510 C 0.86768 0.16231 0.33624 0.0
C511 C 0.91655 0.11496 0.39162 0.0
C512 C 0.90093 0.13184 0.37199 0.0
H513 H 0.82552 0.2453 0.30497 0.0
H514 H 0.85891 0.22076 0.33163 0.0
H515 H 0.87926 0.13005 0.309 0.0
H516 H 0.91635 0.04721 0.42152 0.0
H517 H 0.896 0.07362 0.38459 0.0
C518 C 0.85352 0.89437 0.28237 0.0
C519 C 0.82591 0.88701 0.27842 0.0
C520 C 0.8609 0.91252 0.30238 0.0
C521 C 0.87004 0.95513 0.34603 0.0
H522 H 0.84142 0.91332 0.40977 0.0
C523 C 0.91434 0.97713 0.44638 0.0
C524 C 0.92608 0.95218 0.45743 0.0
C525 C 0.89517 0.97493 0.42666 0.0
C526 C 0.84922 0.92551 0.39219 0.0
H527 H 0.7843 0.89421 0.29058 0.0
H528 H 0.79722 0.92569 0.32595 0.0
H529 H 0.82148 0.90332 0.36738 0.0
H530 H 0.92478 0.90509 0.45826 0.0
H531 H 0.89079 0.90121 0.4241 0.0
H532 H 0.89861 0.97636 0.37072 0.0
C533 C 0.81308 0.91782 0.31339 0.0
C534 C 0.83772 0.92001 0.36799 0.0
C535 C 0.80571 0.90009 0.29305 0.0
C536 C 0.91625 0.92475 0.4501 0.0
C537 C 0.89673 0.92252 0.43059 0.0
C538 C 0.88122 0.96102 0.37029 0.0
C539 C 0.84074 0.92298 0.31901 0.0
C540 C 0.84868 0.93402 0.34461 0.0
C541 C 0.88698 0.94767 0.41792 0.0
C542 C 0.87153 0.94549 0.39343 0.0
H543 H 0.86935 0.88403 0.27158 0.0
H544 H 0.88237 0.91597 0.30646 0.0
H545 H 0.87889 0.96608 0.32826 0.0
H546 H 0.92141 0.99854 0.45146 0.0
H547 H 0.88779 0.99461 0.41731 0.0
C548 C 0.22348 0.83771 0.29835 0.0
C549 C 0.21073 0.8239 0.27759 0.0
C550 C 0.20846 0.85444 0.31499 0.0
C551 C 0.14096 0.85213 0.34295 0.0
H552 H 0.16011 0.92686 0.37059 0.0
C553 C 0.07117 0.90201 0.41837 0.0
C554 C 0.08299 0.91859 0.43787 0.0
C555 C 0.08713 0.8926 0.3978 0.0
C556 C 0.1547 0.90576 0.36336 0.0
H557 H 0.17292 0.81865 0.25665 0.0
H558 H 0.14659 0.84755 0.28606 0.0
H559 H 0.1876 0.90918 0.33456 0.0
H560 H 0.12099 0.93783 0.45139 0.0
H561 H 0.14922 0.92017 0.41606 0.0
H562 H 0.10912 0.84762 0.37228 0.0
C563 C 0.16818 0.84539 0.28936 0.0
C564 C 0.17028 0.89585 0.34257 0.0
C565 C 0.18328 0.82902 0.27248 0.0
C566 C 0.11129 0.9251 0.43662 0.0
C567 C 0.12741 0.91522 0.41621 0.0
C568 C 0.12574 0.86172 0.36395 0.0
C569 C 0.18043 0.85729 0.3113 0.0
C570 C 0.16338 0.86903 0.33213 0.0
C571 C 0.11547 0.89901 0.39642 0.0
C572 C 0.13227 0.88873 0.37437 0.0
H573 H 0.24467 0.83424 0.30266 0.0
H574 H 0.21831 0.86336 0.33182 0.0
H575 H 0.13566 0.83101 0.33564 0.0
H576 H 0.04935 0.89701 0.41848 0.0
H577 H 0.07704 0.88079 0.38266 0.0
C578 C 0.17148 0.77985 0.68851 0.0
C579 C 0.18763 0.79549 0.70583 0.0
C580 C 0.15139 0.7935 0.674 0.0
C581 C 0.11283 0.8618 0.66786 0.0
H582 H 0.10288 0.83769 0.59675 0.0
C583 C 0.06673 0.93055 0.58233 0.0
C584 C 0.04919 0.91595 0.56537 0.0
C585 C 0.07911 0.91529 0.60296 0.0
C586 C 0.10512 0.84439 0.6167 0.0
H587 H 0.19527 0.83763 0.72176 0.0
H588 H 0.16114 0.86187 0.69557 0.0
H589 H 0.1341 0.81237 0.62521 0.0
H590 H 0.02946 0.87424 0.55792 0.0
H591 H 0.05151 0.84755 0.59368 0.0
H592 H 0.08477 0.89499 0.65841 0.0
C593 C 0.16329 0.83882 0.6937 0.0
C594 C 0.123 0.8298 0.63314 0.0
C595 C 0.18305 0.825 0.70861 0.0
C596 C 0.04294 0.88612 0.57054 0.0
C597 C 0.05565 0.87079 0.59092 0.0
C598 C 0.09526 0.87674 0.65119 0.0
C599 C 0.14729 0.82332 0.676 0.0
C600 C 0.12725 0.83833 0.65895 0.0
C601 C 0.07446 0.88508 0.60683 0.0
C602 C 0.09132 0.86821 0.62542 0.0
H603 H 0.17429 0.75696 0.68621 0.0
H604 H 0.13909 0.78056 0.66117 0.0
H605 H 0.11511 0.86874 0.68772 0.0
H606 H 0.07177 0.95359 0.57904 0.0
H607 H 0.09356 0.92684 0.6149 0.0
C608 C 0.15342 0.10316 0.72225 0.0
C609 C 0.18054 0.11274 0.71658 0.0
C610 C 0.13973 0.08509 0.70514 0.0
C611 C 0.11289 0.0814 0.65309 0.0
H612 H 0.14284 0.02852 0.60446 0.0
C613 C 0.07116 0.07728 0.55058 0.0
C614 C 0.06288 0.04956 0.54277 0.0
C615 C 0.08848 0.08025 0.57173 0.0
C616 C 0.13418 0.04316 0.61798 0.0
H617 H 0.21572 0.10867 0.69086 0.0
H618 H 0.19199 0.0775 0.6609 0.0
H619 H 0.16541 0.03623 0.6462 0.0
H620 H 0.06876 0.00344 0.54923 0.0
H621 H 0.09894 0.00866 0.5862 0.0
H622 H 0.08194 0.08868 0.62501 0.0
C623 C 0.18113 0.0834 0.67845 0.0
C624 C 0.14704 0.04755 0.64184 0.0
C625 C 0.19478 0.10129 0.6956 0.0
C626 C 0.07464 0.02509 0.55476 0.0
C627 C 0.09191 0.02805 0.57604 0.0
C628 C 0.10016 0.07708 0.62935 0.0
C629 C 0.15297 0.07679 0.68203 0.0
C630 C 0.13685 0.06724 0.65941 0.0
C631 C 0.09782 0.05558 0.58555 0.0
C632 C 0.11106 0.05857 0.61122 0.0
H633 H 0.14208 0.11193 0.73827 0.0
H634 H 0.11816 0.07978 0.70873 0.0
H635 H 0.10465 0.09708 0.66582 0.0
H636 H 0.06281 0.09662 0.54154 0.0
H637 H 0.0934 0.10183 0.57819 0.0
C638 C 0.80452 0.16988 0.72479 0.0
C639 C 0.77893 0.18062 0.71865 0.0
C640 C 0.81785 0.15256 0.70726 0.0
C641 C 0.83614 0.10801 0.66722 0.0
H642 H 0.84113 0.14844 0.59821 0.0
C643 C 0.88479 0.06178 0.57419 0.0
C644 C 0.90499 0.08029 0.5612 0.0
C645 C 0.86836 0.0719 0.59417 0.0
C646 C 0.83985 0.13693 0.61737 0.0
H647 H 0.74602 0.17921 0.69076 0.0
H648 H 0.76941 0.14934 0.6603 0.0
H649 H 0.81314 0.16735 0.6331 0.0
H650 H 0.92348 0.124 0.55855 0.0
H651 H 0.89409 0.14192 0.593 0.0
H652 H 0.86293 0.07754 0.65125 0.0
C653 C 0.77927 0.15459 0.6784 0.0
C654 C 0.82372 0.14757 0.63722 0.0
C655 C 0.76591 0.17164 0.69591 0.0
C656 C 0.90808 0.10927 0.56821 0.0
C657 C 0.89129 0.11952 0.58784 0.0
C658 C 0.85195 0.09704 0.64714 0.0
C659 C 0.80577 0.14593 0.6834 0.0
C660 C 0.82185 0.13332 0.66235 0.0
C661 C 0.8715 0.10083 0.60114 0.0
C662 C 0.8541 0.11163 0.62216 0.0
H663 H 0.81502 0.17637 0.74219 0.0
H664 H 0.83832 0.14608 0.71149 0.0
H665 H 0.83501 0.09674 0.68648 0.0
H666 H 0.88209 0.03925 0.56938 0.0
H667 H 0.85308 0.05719 0.60406 0.0
C668 C 0.88368 0.86398 0.75362 0.0
C669 C 0.87717 0.83669 0.74403 0.0
C670 C 0.90608 0.88077 0.74277 0.0
C671 C 0.95935 0.88193 0.68793 0.0
H672 H 0.92258 0.95115 0.66524 0.0
C673 C 0.9822 0.94692 0.58774 0.0
C674 C 0.95836 0.9531 0.57398 0.0
C675 C 0.98053 0.93594 0.6139 0.0
C676 C 0.93328 0.93203 0.67148 0.0
H677 H 0.8903 0.80368 0.71862 0.0
H678 H 0.92869 0.83276 0.69929 0.0
H679 H 0.90862 0.9255 0.70634 0.0
H680 H 0.91408 0.95163 0.57661 0.0
H681 H 0.91114 0.93222 0.62196 0.0
H682 H 0.98216 0.8873 0.65142 0.0
C683 C 0.91723 0.84156 0.7152 0.0
C684 C 0.92563 0.91752 0.69538 0.0
C685 C 0.89503 0.82486 0.72609 0.0
C686 C 0.93283 0.94725 0.58664 0.0
C687 C 0.93117 0.93644 0.61273 0.0
C688 C 0.96685 0.8964 0.66381 0.0
C689 C 0.9218 0.87053 0.72197 0.0
C690 C 0.93724 0.89115 0.70302 0.0
C691 C 0.95499 0.93128 0.6268 0.0
C692 C 0.95258 0.92047 0.65469 0.0
H693 H 0.87012 0.87333 0.76762 0.0
H694 H 0.90947 0.90274 0.7489 0.0
H695 H 0.96922 0.86212 0.6936 0.0
H696 H 0.00221 0.95166 0.5787 0.0
H697 H 0.99919 0.93199 0.62424 0.0
C698 C 0.31082 0.23245 0.17023 0.0
C699 C 0.28525 0.22091 0.17984 0.0
C700 C 0.32428 0.2198 0.14955 0.0
C701 C 0.32739 0.14927 0.11953 0.0
H702 H 0.3739 0.19254 0.06708 0.0
C703 C 0.38751 0.09156 0.04093 0.0
C704 C 0.41511 0.10085 0.03703 0.0
C705 C 0.36972 0.10776 0.0554 0.0
C706 C 0.36108 0.18018 0.08169 0.0
H707 H 0.25299 0.1882 0.1742 0.0
H708 H 0.27622 0.1665 0.13783 0.0
H709 H 0.34564 0.21863 0.09719 0.0
H710 H 0.44539 0.13503 0.04471 0.0
H711 H 0.41438 0.16307 0.07013 0.0
H712 H 0.34308 0.11089 0.1044 0.0
C713 C 0.28619 0.18488 0.14669 0.0
C714 C 0.34489 0.19511 0.09892 0.0
C715 C 0.27279 0.19743 0.16743 0.0
C716 C 0.42429 0.12716 0.04735 0.0
C717 C 0.40647 0.14337 0.06178 0.0
C718 C 0.34348 0.13439 0.10229 0.0
C719 C 0.3124 0.19542 0.13796 0.0
C720 C 0.32807 0.17982 0.11823 0.0
C721 C 0.37907 0.13365 0.06627 0.0
C722 C 0.36073 0.14965 0.08336 0.0
H723 H 0.32099 0.25053 0.17936 0.0
H724 H 0.34453 0.22833 0.14348 0.0
H725 H 0.31511 0.13679 0.13448 0.0
H726 H 0.37965 0.07152 0.03315 0.0
H727 H 0.34863 0.0999 0.05821 0.0
C728 C 0.82769 0.28903 0.17948 0.0
C729 C 0.81219 0.30112 0.19938 0.0
C730 C 0.84838 0.30574 0.16539 0.0
C731 C 0.89066 0.3758 0.16696 0.0
H732 H 0.9029 0.36411 0.09284 0.0
C733 C 0.94164 0.46182 0.0922 0.0
C734 C 0.9592 0.4526 0.07243 0.0
C735 C 0.92843 0.44171 0.11035 0.0
C736 C 0.90006 0.36735 0.11363 0.0
H737 H 0.80618 0.34048 0.21977 0.0
H738 H 0.84124 0.36976 0.19474 0.0
H739 H 0.86962 0.33258 0.11831 0.0
H740 H 0.97721 0.41511 0.05656 0.0
H741 H 0.9539 0.37976 0.08824 0.0
H742 H 0.92025 0.41155 0.16175 0.0
C743 C 0.8382 0.34714 0.19043 0.0
C744 C 0.88092 0.34921 0.12833 0.0
C745 C 0.8178 0.33036 0.2047 0.0
C746 C 0.96434 0.42292 0.07199 0.0
C747 C 0.95065 0.40266 0.08986 0.0
C748 C 0.9095 0.39417 0.15216 0.0
C749 C 0.85395 0.33512 0.17059 0.0
C750 C 0.87562 0.35337 0.15519 0.0
C751 C 0.93196 0.41178 0.10879 0.0
C752 C 0.91422 0.39038 0.12525 0.0
H753 H 0.82407 0.26652 0.17498 0.0
H754 H 0.8602 0.29542 0.15062 0.0
H755 H 0.88783 0.37938 0.18768 0.0
H756 H 0.93695 0.48451 0.0927 0.0
H757 H 0.91404 0.44947 0.12452 0.0
C758 C 0.67228 0.786 0.19943 0.0
C759 C 0.69579 0.80075 0.20831 0.0
C760 C 0.65208 0.80117 0.1864 0.0
C761 C 0.64184 0.87098 0.1493 0.0
H762 H 0.56518 0.84615 0.15638 0.0
C763 C 0.56255 0.93441 0.09361 0.0
C764 C 0.54542 0.91764 0.07792 0.0
C765 C 0.57706 0.92127 0.1139 0.0
C766 C 0.58651 0.85329 0.15421 0.0
H767 H 0.71616 0.84315 0.21103 0.0
H768 H 0.68066 0.86975 0.18885 0.0
H769 H 0.59878 0.82135 0.18313 0.0
H770 H 0.52803 0.8743 0.07291 0.0
H771 H 0.55349 0.85123 0.10851 0.0
H772 H 0.6297 0.90275 0.12036 0.0
C773 C 0.67808 0.84633 0.1914 0.0
C774 C 0.60582 0.83903 0.16944 0.0
C775 C 0.69842 0.8311 0.20423 0.0
C776 C 0.54103 0.88781 0.08467 0.0
C777 C 0.55569 0.87459 0.10503 0.0
C778 C 0.62258 0.88532 0.1343 0.0
C779 C 0.65473 0.83155 0.18207 0.0
C780 C 0.63381 0.84755 0.16701 0.0
C781 C 0.57486 0.89102 0.11898 0.0
C782 C 0.59471 0.87658 0.13643 0.0
H783 H 0.66964 0.76258 0.20216 0.0
H784 H 0.6347 0.78894 0.17916 0.0
H785 H 0.66318 0.8778 0.14638 0.0
H786 H 0.5661 0.95753 0.08914 0.0
H787 H 0.59112 0.93463 0.12474 0.0
C788 C 0.20299 0.71093 0.11228 0.0
C789 C 0.1825 0.72297 0.12735 0.0
C790 C 0.19604 0.69383 0.09137 0.0
C791 C 0.1402 0.67255 0.04805 0.0
H792 H 0.16577 0.59447 0.05827 0.0
C793 C 0.08984 0.55506 0.03633 0.0
C794 C 0.0767 0.56111 0.01263 0.0
C795 C 0.11177 0.57321 0.04356 0.0
C796 C 0.15876 0.61624 0.05492 0.0
H797 H 0.13909 0.72798 0.13216 0.0
H798 H 0.12681 0.69878 0.09508 0.0
H799 H 0.18587 0.6337 0.08315 0.0
H800 H 0.07821 0.58772 0.9762 0.0
H801 H 0.11693 0.61879 0.98842 0.0
H802 H 0.11198 0.65506 0.02113 0.0
C803 C 0.14822 0.70258 0.09924 0.0
C804 C 0.17037 0.63873 0.06899 0.0
C805 C 0.15515 0.7193 0.12037 0.0
C806 C 0.08789 0.58296 0.99477 0.0
C807 C 0.10993 0.60081 0.00182 0.0
C808 C 0.12877 0.6502 0.03386 0.0
C809 C 0.16852 0.68885 0.08516 0.0
C810 C 0.16045 0.66683 0.06637 0.0
C811 C 0.12084 0.59737 0.02701 0.0
C812 C 0.13724 0.62159 0.03782 0.0
H813 H 0.22418 0.71316 0.11778 0.0
H814 H 0.21203 0.68352 0.08079 0.0
H815 H 0.1323 0.69405 0.04561 0.0
H816 H 0.08146 0.53833 0.05038 0.0
H817 H 0.11975 0.56996 0.06312 0.0
C818 C 0.28768 0.88914 0.83407 0.0
C819 C 0.26782 0.86695 0.84078 0.0
C820 C 0.29817 0.90669 0.85321 0.0
C821 C 0.31012 0.89966 0.92398 0.0
H822 H 0.35243 0.97133 0.90625 0.0
C823 C 0.41522 0.92101 0.96594 0.0
C824 C 0.4264 0.94943 0.96753 0.0
C825 C 0.38925 0.91608 0.95595 0.0
C826 C 0.3404 0.95167 0.91204 0.0
H827 H 0.24102 0.84783 0.8721 0.0
H828 H 0.25874 0.87924 0.90564 0.0
H829 H 0.31531 0.95673 0.87847 0.0
H830 H 0.41842 0.99502 0.96039 0.0
H831 H 0.37272 0.9865 0.94419 0.0
H832 H 0.33493 0.89479 0.95775 0.0
C833 C 0.26688 0.88246 0.88569 0.0
C834 C 0.31925 0.94306 0.8958 0.0
C835 C 0.2565 0.86467 0.86645 0.0
C836 C 0.4105 0.97284 0.95971 0.0
C837 C 0.38428 0.96792 0.95011 0.0
C838 C 0.33085 0.90859 0.94054 0.0
C839 C 0.28884 0.90269 0.87957 0.0
C840 C 0.30501 0.91605 0.90064 0.0
C841 C 0.37351 0.93944 0.94758 0.0
C842 C 0.34736 0.93379 0.93391 0.0
H843 H 0.2964 0.89173 0.81427 0.0
H844 H 0.31513 0.92176 0.84755 0.0
H845 H 0.29964 0.87878 0.92856 0.0
H846 H 0.42682 0.90239 0.97169 0.0
H847 H 0.3821 0.8938 0.9538 0.0
C848 C 0.22667 0.29476 0.8288 0.0
C849 C 0.21589 0.26928 0.81814 0.0
C850 C 0.21299 0.30731 0.84932 0.0
C851 C 0.14368 0.31137 0.8774 0.0
H852 H 0.18105 0.35398 0.93075 0.0
C853 C 0.08462 0.37043 0.95565 0.0
C854 C 0.0939 0.39906 0.96005 0.0
C855 C 0.10049 0.35246 0.94104 0.0
C856 C 0.17037 0.3423 0.91587 0.0
H857 H 0.18302 0.23612 0.8217 0.0
H858 H 0.15924 0.25785 0.85799 0.0
H859 H 0.20714 0.32472 0.90147 0.0
H860 H 0.12765 0.43086 0.95306 0.0
H861 H 0.15538 0.39935 0.92734 0.0
H862 H 0.10698 0.32914 0.89159 0.0
C863 C 0.17807 0.26839 0.85004 0.0
C864 C 0.18528 0.3255 0.89911 0.0
C865 C 0.19179 0.25581 0.8294 0.0
C866 C 0.11984 0.40897 0.95003 0.0
C867 C 0.1358 0.39088 0.93542 0.0
C868 C 0.12878 0.32802 0.89422 0.0
C869 C 0.1882 0.29468 0.85982 0.0
C870 C 0.17216 0.31013 0.87943 0.0
C871 C 0.12609 0.36256 0.93046 0.0
C872 C 0.14198 0.34393 0.91345 0.0
H873 H 0.24525 0.30571 0.82067 0.0
H874 H 0.22127 0.32768 0.85609 0.0
H875 H 0.13295 0.30032 0.86218 0.0
H876 H 0.06487 0.36187 0.96321 0.0
H877 H 0.09262 0.33061 0.93793 0.0
C878 C 0.66042 0.20104 0.79101 0.0
C879 C 0.68758 0.20534 0.79892 0.0
C880 C 0.64135 0.18418 0.80695 0.0
C881 C 0.63018 0.15315 0.87579 0.0
H882 H 0.57945 0.09855 0.84469 0.0
C883 C 0.58675 0.05105 0.9318 0.0
C884 C 0.55818 0.04623 0.93399 0.0
C885 C 0.59851 0.07259 0.91438 0.0
C886 C 0.59317 0.11408 0.85358 0.0
H887 H 0.71596 0.19504 0.82976 0.0
H888 H 0.68312 0.16533 0.85712 0.0
H889 H 0.60839 0.13239 0.81616 0.0
H890 H 0.51969 0.05981 0.91849 0.0
H891 H 0.54066 0.09757 0.88719 0.0
H892 H 0.616 0.13379 0.91309 0.0
C893 C 0.67622 0.17547 0.83893 0.0
C894 C 0.60978 0.13347 0.83729 0.0
C895 C 0.69519 0.19239 0.8231 0.0
C896 C 0.54169 0.06306 0.91744 0.0
C897 C 0.55366 0.08456 0.89952 0.0
C898 C 0.61386 0.13366 0.89195 0.0
C899 C 0.64899 0.17117 0.83116 0.0
C900 C 0.62906 0.15273 0.84821 0.0
C901 C 0.5822 0.08983 0.8983 0.0
C902 C 0.59568 0.11346 0.88103 0.0
H903 H 0.65385 0.21074 0.7725 0.0
H904 H 0.62056 0.18158 0.8004 0.0
H905 H 0.64416 0.16816 0.88498 0.0
H906 H 0.60027 0.03873 0.94415 0.0
H907 H 0.62055 0.07594 0.91361 0.0
C908 C 0.79555 0.65538 0.79316 0.0
C909 C 0.80304 0.68496 0.78819 0.0
C910 C 0.81388 0.63654 0.80485 0.0
C911 C 0.88738 0.63008 0.81966 0.0
H912 H 0.85965 0.57848 0.87774 0.0
C913 C 0.95292 0.58789 0.90472 0.0
C914 C 0.94538 0.56091 0.91761 0.0
C915 C 0.93797 0.59846 0.88349 0.0
C916 C 0.86773 0.59225 0.8612 0.0
H917 H 0.83573 0.71791 0.79143 0.0
H918 H 0.86731 0.6853 0.81211 0.0
H919 H 0.82794 0.60578 0.85136 0.0
H920 H 0.91825 0.52246 0.91647 0.0
H921 H 0.89254 0.54073 0.87924 0.0
H922 H 0.92732 0.61724 0.8302 0.0
C923 C 0.84753 0.67647 0.80659 0.0
C924 C 0.8495 0.60796 0.84608 0.0
C925 C 0.82926 0.69524 0.79496 0.0
C926 C 0.92429 0.54358 0.90727 0.0
C927 C 0.90945 0.55408 0.88601 0.0
C928 C 0.90565 0.61437 0.83482 0.0
C929 C 0.84007 0.64692 0.81174 0.0
C930 C 0.85915 0.62757 0.82555 0.0
C931 C 0.91532 0.58216 0.87466 0.0
C932 C 0.89606 0.59575 0.85613 0.0
H933 H 0.77555 0.64677 0.78803 0.0
H934 H 0.8076 0.61383 0.80843 0.0
H935 H 0.89541 0.64464 0.80364 0.0
H936 H 0.96914 0.60173 0.91212 0.0
H937 H 0.94301 0.62022 0.87523 0.0
C938 C 0.17174 0.29567 0.21228 0.0
C939 C 0.19906 0.30576 0.21438 0.0
C940 C 0.15289 0.31294 0.1996 0.0
C941 C 0.14075 0.38816 0.17456 0.0
H942 H 0.09344 0.34858 0.1265 0.0
C943 C 0.08837 0.4449 0.08683 0.0
C944 C 0.06332 0.43291 0.07848 0.0
C945 C 0.10141 0.43218 0.10836 0.0
C946 C 0.10603 0.35996 0.14023 0.0
H947 H 0.2279 0.34219 0.20535 0.0
H948 H 0.19503 0.37219 0.18258 0.0
H949 H 0.12371 0.32071 0.15391 0.0
H950 H 0.03096 0.40004 0.08796 0.0
H951 H 0.0536 0.37809 0.12572 0.0
H952 H 0.1235 0.42761 0.16007 0.0
C953 C 0.18811 0.35106 0.19114 0.0
C954 C 0.12349 0.34394 0.15594 0.0
C955 C 0.207 0.3338 0.20401 0.0
C956 C 0.05044 0.40956 0.09359 0.0
C957 C 0.06348 0.39687 0.11516 0.0
C958 C 0.12326 0.40425 0.15875 0.0
C959 C 0.16091 0.34065 0.18851 0.0
C960 C 0.1413 0.35784 0.17308 0.0
C961 C 0.08963 0.40728 0.12207 0.0
C962 C 0.10593 0.39033 0.14118 0.0
H963 H 0.16484 0.2743 0.22033 0.0
H964 H 0.13201 0.30446 0.19836 0.0
H965 H 0.15395 0.39948 0.18783 0.0
H966 H 0.09878 0.46304 0.0758 0.0
H967 H 0.12155 0.44072 0.1131 0.0
C968 C 0.18527 0.67194 0.78744 0.0
C969 C 0.19038 0.70107 0.7935 0.0
C970 C 0.16669 0.65374 0.80262 0.0
C971 C 0.10718 0.65212 0.84831 0.0
H972 H 0.13161 0.57621 0.87051 0.0
C973 C 0.04671 0.57306 0.92494 0.0
C974 C 0.05054 0.54315 0.92395 0.0
C975 C 0.0609 0.59308 0.90716 0.0
C976 C 0.12402 0.59701 0.86409 0.0
H977 H 0.1793 0.73398 0.82012 0.0
H978 H 0.14641 0.70212 0.84651 0.0
H979 H 0.16187 0.6096 0.84389 0.0
H980 H 0.07052 0.51058 0.90252 0.0
H981 H 0.09357 0.54493 0.87045 0.0
H982 H 0.06908 0.63932 0.86817 0.0
C983 C 0.15699 0.69346 0.82997 0.0
C984 C 0.1416 0.61631 0.84892 0.0
C985 C 0.17595 0.71165 0.81494 0.0
C986 C 0.06707 0.53351 0.90364 0.0
C987 C 0.08073 0.55336 0.88556 0.0
C988 C 0.08934 0.63258 0.86326 0.0
C989 C 0.15239 0.66417 0.82415 0.0
C990 C 0.13345 0.64409 0.84076 0.0
C991 C 0.07897 0.58355 0.88778 0.0
C992 C 0.09745 0.6046 0.87132 0.0
H993 H 0.19591 0.66297 0.77108 0.0
H994 H 0.16345 0.6314 0.79743 0.0
H995 H 0.10021 0.67331 0.84219 0.0
H996 H 0.03458 0.58114 0.94079 0.0
H997 H 0.05897 0.61602 0.90974 0.0
C998 C 0.33668 0.21304 0.79376 0.0
C999 C 0.31309 0.19859 0.78473 0.0
C1000 C 0.35644 0.19761 0.80724 0.0
C1001 C 0.36454 0.12807 0.84542 0.0
H1002 H 0.44175 0.15081 0.83957 0.0
C1003 C 0.44088 0.06328 0.90367 0.0
C1004 C 0.45804 0.07987 0.91947 0.0
C1005 C 0.42721 0.0765 0.88284 0.0
C1006 C 0.42025 0.14425 0.8414 0.0
H1007 H 0.29218 0.15646 0.78205 0.0
H1008 H 0.32688 0.12943 0.80495 0.0
H1009 H 0.40928 0.17616 0.81183 0.0
H1010 H 0.47646 0.12285 0.92413 0.0
H1011 H 0.4524 0.14607 0.88764 0.0
H1012 H 0.37535 0.09638 0.87501 0.0
C1013 C 0.32986 0.15281 0.80224 0.0
C1014 C 0.40161 0.15882 0.8256 0.0
C1015 C 0.30998 0.16828 0.78898 0.0
C1016 C 0.46336 0.10949 0.91233 0.0
C1017 C 0.44952 0.1228 0.89145 0.0
C1018 C 0.38313 0.11342 0.86098 0.0
C1019 C 0.35321 0.16729 0.81184 0.0
C1020 C 0.37345 0.15104 0.82756 0.0
C1021 C 0.43029 0.10665 0.87734 0.0
C1022 C 0.41119 0.12139 0.85929 0.0
H1023 H 0.33968 0.23641 0.79089 0.0
H1024 H 0.37388 0.20961 0.81465 0.0
H1025 H 0.34304 0.12185 0.848 0.0
H1026 H 0.43666 0.04031 0.90841 0.0
H1027 H 0.41308 0.06333 0.87189 0.0
C1028 C 0.84749 0.28001 0.87569 0.0
C1029 C 0.81971 0.27634 0.87024 0.0
C1030 C 0.85571 0.29617 0.89677 0.0
C1031 C 0.86652 0.32469 0.94837 0.0
H1032 H 0.84156 0.40324 0.94045 0.0
C1033 C 0.92153 0.41262 0.00166 0.0
C1034 C 0.93257 0.43459 0.98384 0.0
C1035 C 0.89912 0.39517 0.99486 0.0
C1036 C 0.84841 0.38133 0.94316 0.0
H1037 H 0.77861 0.28558 0.88252 0.0
H1038 H 0.79305 0.31437 0.91939 0.0
H1039 H 0.81978 0.36467 0.91586 0.0
H1040 H 0.92722 0.45801 0.94649 0.0
H1041 H 0.88819 0.42708 0.93421 0.0
H1042 H 0.89611 0.34136 0.97441 0.0
C1043 C 0.80837 0.30441 0.90765 0.0
C1044 C 0.83585 0.35923 0.92927 0.0
C1045 C 0.80014 0.28779 0.88682 0.0
C1046 C 0.91897 0.44117 0.9605 0.0
C1047 C 0.89663 0.42343 0.95353 0.0
C1048 C 0.87885 0.34663 0.96243 0.0
C1049 C 0.83627 0.3094 0.91232 0.0
C1050 C 0.8455 0.33098 0.93106 0.0
C1051 C 0.88763 0.39917 0.96998 0.0
C1052 C 0.87056 0.37539 0.9593 0.0
H1053 H 0.86283 0.27178 0.86275 0.0
H1054 H 0.87737 0.29999 0.89976 0.0
H1055 H 0.87425 0.30307 0.9501 0.0
H1056 H 0.93155 0.40749 0.01999 0.0
H1057 H 0.8922 0.37708 0.00818 0.0
C1058 C 0.7285 0.79943 0.83206 0.0
C1059 C 0.71849 0.77362 0.82144 0.0
C1060 C 0.71377 0.81208 0.85195 0.0
C1061 C 0.64313 0.81552 0.87645 0.0
H1062 H 0.67595 0.85559 0.9338 0.0
C1063 C 0.57713 0.86982 0.95265 0.0
C1064 C 0.58615 0.89757 0.95993 0.0
C1065 C 0.59426 0.85288 0.93824 0.0
C1066 C 0.66652 0.84468 0.91776 0.0
H1067 H 0.68599 0.73994 0.82451 0.0
H1068 H 0.6605 0.76185 0.85936 0.0
H1069 H 0.70456 0.82847 0.90479 0.0
H1070 H 0.62061 0.92896 0.95817 0.0
H1071 H 0.65036 0.89955 0.93261 0.0
H1072 H 0.60527 0.83209 0.88889 0.0
C1073 C 0.67947 0.7726 0.85196 0.0
C1074 C 0.68289 0.8291 0.90119 0.0
C1075 C 0.69418 0.75995 0.8321 0.0
C1076 C 0.61298 0.90769 0.95292 0.0
C1077 C 0.63011 0.89075 0.93838 0.0
C1078 C 0.62682 0.8311 0.89292 0.0
C1079 C 0.68872 0.79919 0.86163 0.0
C1080 C 0.67138 0.81444 0.88028 0.0
C1081 C 0.62083 0.86328 0.93061 0.0
C1082 C 0.63829 0.84598 0.91372 0.0
H1083 H 0.74717 0.81052 0.82432 0.0
H1084 H 0.72138 0.83266 0.85885 0.0
H1085 H 0.63369 0.805 0.86019 0.0
H1086 H 0.5567 0.86116 0.95792 0.0
H1087 H 0.58662 0.83161 0.933 0.0
C1088 C 0.77916 0.70589 0.16258 0.0
C1089 C 0.79234 0.72942 0.17435 0.0
C1090 C 0.79215 0.6919 0.14253 0.0
C1091 C 0.85004 0.6967 0.09443 0.0
H1092 H 0.84675 0.61281 0.10607 0.0
C1093 C 0.92454 0.62326 0.04313 0.0
C1094 C 0.91485 0.59566 0.03598 0.0
C1095 C 0.90789 0.6408 0.05743 0.0
C1096 C 0.84752 0.63614 0.10218 0.0
H1097 H 0.82884 0.75789 0.17318 0.0
H1098 H 0.85174 0.73323 0.13804 0.0
H1099 H 0.82069 0.64211 0.13491 0.0
H1100 H 0.87962 0.5653 0.03769 0.0
H1101 H 0.85039 0.59614 0.06233 0.0
H1102 H 0.87711 0.69065 0.06177 0.0
C1103 C 0.83125 0.72572 0.14435 0.0
C1104 C 0.8326 0.65298 0.11877 0.0
C1105 C 0.81817 0.73983 0.16448 0.0
C1106 C 0.88784 0.58632 0.04302 0.0
C1107 C 0.87111 0.60396 0.05725 0.0
C1108 C 0.86491 0.67981 0.07771 0.0
C1109 C 0.81868 0.70104 0.13377 0.0
C1110 C 0.83379 0.68344 0.1152 0.0
C1111 C 0.88105 0.6313 0.06487 0.0
C1112 C 0.864 0.64931 0.08152 0.0
H1113 H 0.75908 0.69755 0.16948 0.0
H1114 H 0.78168 0.67337 0.13438 0.0
H1115 H 0.85116 0.7201 0.09105 0.0
H1116 H 0.94525 0.63121 0.03812 0.0
H1117 H 0.91638 0.6615 0.06328 0.0
C1118 C 0.33613 0.80165 0.20794 0.0
C1119 C 0.30813 0.80248 0.20251 0.0
C1120 C 0.35545 0.81943 0.19314 0.0
C1121 C 0.36357 0.88913 0.15827 0.0
H1122 H 0.42139 0.85949 0.11546 0.0
C1123 C 0.41537 0.95934 0.0746 0.0
C1124 C 0.44279 0.95616 0.0669 0.0
C1125 C 0.40252 0.94087 0.09404 0.0
C1126 C 0.40579 0.86822 0.12775 0.0
H1127 H 0.27849 0.82254 0.17728 0.0
H1128 H 0.31216 0.85432 0.1521 0.0
H1129 H 0.39182 0.82577 0.14354 0.0
H1130 H 0.47844 0.93133 0.07472 0.0
H1131 H 0.45593 0.89898 0.10942 0.0
H1132 H 0.3774 0.93144 0.14322 0.0
C1133 C 0.31911 0.83957 0.16756 0.0
C1134 C 0.38876 0.84886 0.14366 0.0
C1135 C 0.29988 0.82134 0.18191 0.0
C1136 C 0.45731 0.93435 0.08001 0.0
C1137 C 0.44433 0.91571 0.0998 0.0
C1138 C 0.38083 0.90845 0.14287 0.0
C1139 C 0.34703 0.83885 0.17309 0.0
C1140 C 0.36701 0.85914 0.15842 0.0
C1141 C 0.41662 0.91865 0.1069 0.0
C1142 C 0.40157 0.89825 0.12662 0.0
H1143 H 0.34312 0.78724 0.22363 0.0
H1144 H 0.37686 0.81856 0.19779 0.0
H1145 H 0.34724 0.89761 0.16986 0.0
H1146 H 0.4033 0.97577 0.06511 0.0
H1147 H 0.38108 0.94356 0.09833 0.0
C1148 C 0.72694 0.15796 0.11761 0.0
C1149 C 0.73751 0.14656 0.14111 0.0
C1150 C 0.71657 0.13944 0.09912 0.0
C1151 C 0.68018 0.06964 0.10038 0.0
H1152 H 0.67393 0.0902 0.02595 0.0
C1153 C 0.5896 0.07521 0.02381 0.0
C1154 C 0.57576 0.04812 0.0291 0.0
C1155 C 0.61605 0.08027 0.0326 0.0
C1156 C 0.67561 0.084 0.04666 0.0
H1157 H 0.7474 0.10732 0.16329 0.0
H1158 H 0.7291 0.07454 0.13082 0.0
H1159 H 0.7115 0.11163 0.05028 0.0
H1160 H 0.57931 0.00467 0.04686 0.0
H1161 H 0.62557 0.01362 0.06233 0.0
H1162 H 0.64343 0.04344 0.09722 0.0
C1163 C 0.72886 0.0978 0.12666 0.0
C1164 C 0.69713 0.0962 0.06056 0.0
C1165 C 0.73947 0.11644 0.14511 0.0
C1166 C 0.58939 0.02581 0.04248 0.0
C1167 C 0.61585 0.03093 0.05141 0.0
C1168 C 0.65869 0.05742 0.08649 0.0
C1169 C 0.7163 0.10913 0.10398 0.0
C1170 C 0.69884 0.09027 0.08785 0.0
C1171 C 0.62927 0.0584 0.04698 0.0
C1172 C 0.65544 0.06559 0.05978 0.0
H1173 H 0.72511 0.18118 0.11434 0.0
H1174 H 0.70675 0.14895 0.08209 0.0
H1175 H 0.68071 0.06478 0.12142 0.0
H1176 H 0.57981 0.09279 0.01334 0.0
H1177 H 0.62563 0.10182 0.02918 0.0
C1178 C 0.62313 0.6233 0.76705 0.0
C1179 C 0.62711 0.65218 0.7572 0.0
C1180 C 0.59859 0.61402 0.77989 0.0
C1181 C 0.55651 0.64704 0.82543 0.0
H1182 H 0.52543 0.56849 0.8371 0.0
C1183 C 0.55282 0.58214 0.9231 0.0
C1184 C 0.52937 0.56497 0.93078 0.0
C1185 C 0.55383 0.59815 0.89903 0.0
C1186 C 0.53328 0.59076 0.83383 0.0
H1187 H 0.60782 0.69309 0.75019 0.0
H1188 H 0.56498 0.67697 0.77313 0.0
H1189 H 0.54524 0.58437 0.79385 0.0
H1190 H 0.48833 0.55155 0.91977 0.0
H1191 H 0.49048 0.57909 0.87729 0.0
H1192 H 0.54709 0.65242 0.86613 0.0
C1193 C 0.58069 0.6615 0.77077 0.0
C1194 C 0.54463 0.59979 0.80915 0.0
C1195 C 0.60514 0.67066 0.7576 0.0
C1196 C 0.50657 0.56491 0.91444 0.0
C1197 C 0.50777 0.58052 0.89014 0.0
C1198 C 0.54554 0.63787 0.85016 0.0
C1199 C 0.57789 0.63367 0.7834 0.0
C1200 C 0.55767 0.62748 0.8052 0.0
C1201 C 0.5316 0.59682 0.88208 0.0
C1202 C 0.53518 0.6092 0.85487 0.0
H1203 H 0.63982 0.60871 0.76686 0.0
H1204 H 0.59711 0.59249 0.78956 0.0
H1205 H 0.56662 0.66843 0.82306 0.0
H1206 H 0.5706 0.58259 0.93535 0.0
H1207 H 0.57258 0.61031 0.89301 0.0
C1208 C 0.32848 0.72388 0.80391 0.0
C1209 C 0.31203 0.70825 0.78682 0.0
C1210 C 0.34769 0.70985 0.81924 0.0
C1211 C 0.3828 0.63973 0.82901 0.0
H1212 H 0.39073 0.6658 0.89974 0.0
C1213 C 0.42176 0.57116 0.91827 0.0
C1214 C 0.43934 0.58536 0.93546 0.0
C1215 C 0.41087 0.58651 0.89683 0.0
C1216 C 0.38906 0.65852 0.87992 0.0
H1217 H 0.30306 0.66578 0.77204 0.0
H1218 H 0.33565 0.64095 0.79966 0.0
H1219 H 0.36215 0.69189 0.86916 0.0
H1220 H 0.46066 0.62639 0.94254 0.0
H1221 H 0.44116 0.65322 0.9054 0.0
H1222 H 0.4087 0.60527 0.84071 0.0
C1223 C 0.33442 0.66421 0.80072 0.0
C1224 C 0.37271 0.67355 0.86227 0.0
C1225 C 0.31555 0.67839 0.78498 0.0
C1226 C 0.44701 0.61483 0.92984 0.0
C1227 C 0.43581 0.63024 0.90863 0.0
C1228 C 0.39883 0.62438 0.84689 0.0
C1229 C 0.35054 0.67969 0.81833 0.0
C1230 C 0.36919 0.66432 0.83658 0.0
C1231 C 0.41709 0.6164 0.89235 0.0
C1232 C 0.40199 0.63359 0.87255 0.0
H1233 H 0.32648 0.74701 0.80547 0.0
H1234 H 0.36018 0.72273 0.83197 0.0
H1235 H 0.38104 0.63221 0.80931 0.0
H1236 H 0.41565 0.54842 0.92185 0.0
H1237 H 0.39643 0.57533 0.88462 0.0
C1238 C 0.30574 0.39705 0.79326 0.0
C1239 C 0.32445 0.38322 0.7775 0.0
C1240 C 0.31508 0.41506 0.81268 0.0
C1241 C 0.34346 0.41778 0.86529 0.0
H1242 H 0.40533 0.47338 0.86361 0.0
C1243 C 0.42485 0.42589 0.94495 0.0
C1244 C 0.43395 0.45377 0.95168 0.0
C1245 C 0.40545 0.42257 0.92546 0.0
C1246 C 0.38775 0.4582 0.86438 0.0
H1247 H 0.36718 0.37901 0.76776 0.0
H1248 H 0.38363 0.41137 0.80111 0.0
H1249 H 0.38314 0.46195 0.82252 0.0
H1250 H 0.42904 0.49987 0.94399 0.0
H1251 H 0.39548 0.49405 0.90992 0.0
H1252 H 0.34927 0.41251 0.90689 0.0
C1253 C 0.36182 0.40837 0.79854 0.0
C1254 C 0.37515 0.45167 0.84092 0.0
C1255 C 0.35248 0.39 0.7794 0.0
C1256 C 0.42215 0.47813 0.93962 0.0
C1257 C 0.40314 0.47485 0.91989 0.0
C1258 C 0.35636 0.42392 0.88867 0.0
C1259 C 0.34322 0.41963 0.81632 0.0
C1260 C 0.35327 0.43095 0.84113 0.0
C1261 C 0.39523 0.44709 0.91214 0.0
C1262 C 0.37898 0.44369 0.88831 0.0
H1263 H 0.28405 0.39158 0.79238 0.0
H1264 H 0.30039 0.42358 0.82613 0.0
H1265 H 0.32686 0.40139 0.86593 0.0
H1266 H 0.43363 0.40672 0.95383 0.0
H1267 H 0.39975 0.40091 0.91967 0.0
C1268 C 0.73242 0.34149 0.80121 0.0
C1269 C 0.71709 0.33022 0.78074 0.0
C1270 C 0.72114 0.36092 0.81792 0.0
C1271 C 0.68196 0.37394 0.86177 0.0
H1272 H 0.63619 0.43829 0.84459 0.0
C1273 C 0.59593 0.40842 0.92959 0.0
C1274 C 0.59559 0.43794 0.93491 0.0
C1275 C 0.61399 0.39909 0.91062 0.0
C1276 C 0.64919 0.42056 0.8496 0.0
H1277 H 0.67889 0.33249 0.76023 0.0
H1278 H 0.65906 0.36658 0.78967 0.0
H1279 H 0.66268 0.417 0.80949 0.0
H1280 H 0.61378 0.48091 0.92458 0.0
H1281 H 0.6451 0.46448 0.89072 0.0
H1282 H 0.66766 0.37657 0.90158 0.0
C1283 C 0.67982 0.3603 0.79269 0.0
C1284 C 0.66415 0.40833 0.82959 0.0
C1285 C 0.69113 0.34074 0.7759 0.0
C1286 C 0.61378 0.45799 0.92097 0.0
C1287 C 0.63151 0.44869 0.90155 0.0
C1288 C 0.66675 0.38583 0.88161 0.0
C1289 C 0.69434 0.36955 0.81449 0.0
C1290 C 0.68044 0.38471 0.8355 0.0
C1291 C 0.63171 0.41916 0.89628 0.0
C1292 C 0.64996 0.40893 0.87564 0.0
H1293 H 0.75267 0.33417 0.80522 0.0
H1294 H 0.73291 0.36812 0.83433 0.0
H1295 H 0.69406 0.35549 0.86686 0.0
H1296 H 0.58219 0.39249 0.94007 0.0
H1297 H 0.6137 0.37621 0.90674 0.0
C1298 C 0.6739 0.28186 0.18514 0.0
C1299 C 0.68943 0.29673 0.20347 0.0
C1300 C 0.6549 0.29633 0.16986 0.0
C1301 C 0.61806 0.36565 0.1629 0.0
H1302 H 0.6114 0.34328 0.09087 0.0
C1303 C 0.57497 0.43665 0.07699 0.0
C1304 C 0.55772 0.42248 0.05949 0.0
C1305 C 0.58719 0.42088 0.09743 0.0
C1306 C 0.61277 0.34953 0.11104 0.0
H1307 H 0.69704 0.33835 0.22038 0.0
H1308 H 0.66482 0.36398 0.19295 0.0
H1309 H 0.64081 0.31679 0.12041 0.0
H1310 H 0.53858 0.38085 0.05073 0.0
H1311 H 0.56033 0.35335 0.08614 0.0
H1312 H 0.59089 0.39947 0.1527 0.0
C1313 C 0.66661 0.34093 0.19083 0.0
C1314 C 0.62957 0.33426 0.1281 0.0
C1315 C 0.68527 0.32629 0.20648 0.0
C1316 C 0.55185 0.39245 0.06375 0.0
C1317 C 0.56438 0.37665 0.08394 0.0
C1318 C 0.60156 0.38126 0.14564 0.0
C1319 C 0.65131 0.32621 0.17211 0.0
C1320 C 0.63255 0.34209 0.15429 0.0
C1321 C 0.58267 0.3906 0.10057 0.0
C1322 C 0.5988 0.37334 0.11953 0.0
H1323 H 0.67639 0.25896 0.18261 0.0
H1324 H 0.64307 0.28399 0.15622 0.0
H1325 H 0.61939 0.37208 0.183 0.0
H1326 H 0.57975 0.45979 0.0744 0.0
H1327 H 0.60125 0.43217 0.10994 0.0
C1328 C 0.69401 0.60498 0.1983 0.0
C1329 C 0.68078 0.61713 0.21951 0.0
C1330 C 0.67931 0.58741 0.18165 0.0
C1331 C 0.60989 0.58666 0.15846 0.0
H1332 H 0.63832 0.53455 0.10834 0.0
C1333 C 0.56503 0.58329 0.05667 0.0
C1334 C 0.55859 0.55568 0.04756 0.0
C1335 C 0.58204 0.5863 0.07808 0.0
C1336 C 0.63 0.54893 0.12228 0.0
H1337 H 0.64304 0.61772 0.24222 0.0
H1338 H 0.61731 0.58595 0.21366 0.0
H1339 H 0.66197 0.5414 0.1495 0.0
H1340 H 0.5668 0.50994 0.05245 0.0
H1341 H 0.59626 0.51517 0.08981 0.0
H1342 H 0.57799 0.59423 0.13148 0.0
C1343 C 0.63886 0.59061 0.2094 0.0
C1344 C 0.64355 0.55289 0.14584 0.0
C1345 C 0.6536 0.60842 0.22598 0.0
C1346 C 0.57141 0.53153 0.05886 0.0
C1347 C 0.58827 0.5345 0.08041 0.0
C1348 C 0.59636 0.58262 0.13508 0.0
C1349 C 0.6511 0.58174 0.186 0.0
C1350 C 0.63404 0.57242 0.16389 0.0
C1351 C 0.59277 0.56176 0.09095 0.0
C1352 C 0.60668 0.56442 0.11636 0.0
H1353 H 0.71499 0.61165 0.19296 0.0
H1354 H 0.68949 0.58107 0.16389 0.0
H1355 H 0.60211 0.60221 0.17159 0.0
H1356 H 0.55574 0.60238 0.04823 0.0
H1357 H 0.58585 0.60776 0.08526 0.0
C1358 C 0.26648 0.66255 0.20317 0.0
C1359 C 0.28249 0.67653 0.22174 0.0
C1360 C 0.27809 0.64354 0.18631 0.0
C1361 C 0.31521 0.63407 0.13984 0.0
H1362 H 0.36583 0.57329 0.15374 0.0
C1363 C 0.39773 0.60266 0.0662 0.0
C1364 C 0.39845 0.5731 0.06113 0.0
C1365 C 0.38075 0.61167 0.08622 0.0
C1366 C 0.3515 0.59004 0.14969 0.0
H1367 H 0.32247 0.67945 0.23901 0.0
H1368 H 0.34294 0.64594 0.20925 0.0
H1369 H 0.3411 0.59352 0.19063 0.0
H1370 H 0.38203 0.52975 0.07287 0.0
H1371 H 0.35266 0.54564 0.10851 0.0
H1372 H 0.32639 0.63161 0.09915 0.0
C1373 C 0.32138 0.64983 0.20786 0.0
C1374 C 0.33755 0.60165 0.1707 0.0
C1375 C 0.30971 0.66899 0.22484 0.0
C1376 C 0.38163 0.55271 0.07623 0.0
C1377 C 0.36506 0.5617 0.09669 0.0
C1378 C 0.32944 0.62287 0.119 0.0
C1379 C 0.30593 0.63808 0.1877 0.0
C1380 C 0.31941 0.62388 0.1659 0.0
C1381 C 0.36463 0.59123 0.10185 0.0
C1382 C 0.34787 0.601 0.12377 0.0
H1383 H 0.24529 0.66757 0.20061 0.0
H1384 H 0.26568 0.63436 0.17119 0.0
H1385 H 0.3016 0.65149 0.13564 0.0
H1386 H 0.41051 0.61879 0.05485 0.0
H1387 H 0.38076 0.63457 0.08997 0.0
C1388 C 0.38451 0.36893 0.25107 0.0
C1389 C 0.37691 0.34135 0.24272 0.0
C1390 C 0.40759 0.38412 0.23972 0.0
C1391 C 0.46086 0.37992 0.18544 0.0
H1392 H 0.42678 0.44953 0.15937 0.0
C1393 C 0.48558 0.44284 0.08368 0.0
C1394 C 0.46169 0.44833 0.06971 0.0
C1395 C 0.48387 0.43172 0.10981 0.0
C1396 C 0.43679 0.43034 0.16661 0.0
H1397 H 0.38862 0.30628 0.21899 0.0
H1398 H 0.42816 0.33261 0.19871 0.0
H1399 H 0.41193 0.42676 0.20144 0.0
H1400 H 0.41738 0.44458 0.07165 0.0
H1401 H 0.41446 0.42514 0.11697 0.0
H1402 H 0.48391 0.38247 0.14894 0.0
C1403 C 0.41707 0.34282 0.21407 0.0
C1404 C 0.42862 0.41745 0.19102 0.0
C1405 C 0.39421 0.3277 0.22549 0.0
C1406 C 0.43616 0.4409 0.08187 0.0
C1407 C 0.43448 0.43004 0.10792 0.0
C1408 C 0.46896 0.39283 0.16082 0.0
C1409 C 0.42288 0.37199 0.21959 0.0
C1410 C 0.43916 0.39093 0.19991 0.0
C1411 C 0.45825 0.42626 0.12237 0.0
C1412 C 0.45562 0.41703 0.15058 0.0
H1413 H 0.37138 0.37966 0.26452 0.0
H1414 H 0.41191 0.4063 0.24488 0.0
H1415 H 0.4699 0.35992 0.19205 0.0
H1416 H 0.50556 0.44855 0.07495 0.0
H1417 H 0.50247 0.42867 0.12051 0.0
C1418 C 0.77156 0.69362 0.66593 0.0
C1419 C 0.7842 0.7167 0.67875 0.0
C1420 C 0.78485 0.68139 0.64494 0.0
C1421 C 0.84339 0.69254 0.59709 0.0
H1422 H 0.84145 0.60831 0.6007 0.0
C1423 C 0.92318 0.62604 0.54465 0.0
C1424 C 0.91425 0.59991 0.53387 0.0
C1425 C 0.90512 0.64191 0.55914 0.0
C1426 C 0.84187 0.63183 0.5991 0.0
H1427 H 0.82021 0.7459 0.67881 0.0
H1428 H 0.84354 0.72429 0.64249 0.0
H1429 H 0.8135 0.63343 0.63141 0.0
H1430 H 0.87896 0.57059 0.52913 0.0
H1431 H 0.8475 0.59838 0.55429 0.0
H1432 H 0.8724 0.69078 0.56514 0.0
C1433 C 0.82323 0.71582 0.64843 0.0
C1434 C 0.8258 0.64626 0.61671 0.0
C1435 C 0.8099 0.72811 0.66938 0.0
C1436 C 0.88663 0.5905 0.53728 0.0
C1437 C 0.86859 0.60636 0.5518 0.0
C1438 C 0.85954 0.67807 0.57948 0.0
C1439 C 0.81111 0.69191 0.63634 0.0
C1440 C 0.82659 0.67679 0.61613 0.0
C1441 C 0.87772 0.63202 0.56321 0.0
C1442 C 0.85918 0.64755 0.5805 0.0
H1443 H 0.75166 0.68447 0.67253 0.0
H1444 H 0.77474 0.66334 0.63573 0.0
H1445 H 0.84419 0.71607 0.59588 0.0
H1446 H 0.94429 0.63399 0.54239 0.0
H1447 H 0.91287 0.66143 0.5679 0.0
C1448 C 0.31675 0.83079 0.70422 0.0
C1449 C 0.31118 0.80151 0.69902 0.0
C1450 C 0.33712 0.84756 0.68989 0.0
C1451 C 0.3802 0.84944 0.62797 0.0
H1452 H 0.41936 0.91181 0.6615 0.0
C1453 C 0.46441 0.92295 0.57221 0.0
C1454 C 0.45933 0.95265 0.57259 0.0
C1455 C 0.45041 0.90271 0.58991 0.0
C1456 C 0.40865 0.89442 0.65187 0.0
H1457 H 0.32307 0.76685 0.67471 0.0
H1458 H 0.35915 0.79573 0.65023 0.0
H1459 H 0.38671 0.87977 0.68727 0.0
H1460 H 0.43688 0.98461 0.59257 0.0
H1461 H 0.4135 0.94965 0.62413 0.0
H1462 H 0.40249 0.86419 0.59259 0.0
C1463 C 0.34732 0.80609 0.66497 0.0
C1464 C 0.38968 0.87613 0.66659 0.0
C1465 C 0.32665 0.78939 0.67912 0.0
C1466 C 0.44153 0.96191 0.59213 0.0
C1467 C 0.42804 0.94184 0.61013 0.0
C1468 C 0.39948 0.86751 0.61335 0.0
C1469 C 0.35291 0.83549 0.6701 0.0
C1470 C 0.37469 0.85368 0.65477 0.0
C1471 C 0.43151 0.91189 0.60864 0.0
C1472 C 0.41359 0.89055 0.625 0.0
H1473 H 0.30516 0.84095 0.71929 0.0
H1474 H 0.34015 0.8702 0.69415 0.0
H1475 H 0.36896 0.83279 0.61791 0.0
H1476 H 0.47751 0.91512 0.55697 0.0
H1477 H 0.45363 0.8798 0.58835 0.0
C1478 C 0.16904 0.28279 0.69916 0.0
C1479 C 0.19252 0.29734 0.70833 0.0
C1480 C 0.14884 0.29823 0.68638 0.0
C1481 C 0.13863 0.36884 0.65058 0.0
H1482 H 0.06194 0.34404 0.65725 0.0
C1483 C 0.05975 0.43346 0.5956 0.0
C1484 C 0.04277 0.41697 0.57956 0.0
C1485 C 0.07402 0.41999 0.6159 0.0
C1486 C 0.08328 0.35119 0.65521 0.0
H1487 H 0.21282 0.33965 0.71183 0.0
H1488 H 0.17735 0.36668 0.69011 0.0
H1489 H 0.09552 0.31854 0.68349 0.0
H1490 H 0.02527 0.3738 0.57398 0.0
H1491 H 0.0503 0.35016 0.60955 0.0
H1492 H 0.12654 0.4013 0.62226 0.0
C1493 C 0.17479 0.34323 0.69221 0.0
C1494 C 0.10257 0.33652 0.67013 0.0
C1495 C 0.19512 0.32775 0.70479 0.0
C1496 C 0.03817 0.38711 0.58601 0.0
C1497 C 0.05259 0.37355 0.60636 0.0
C1498 C 0.11939 0.38358 0.63589 0.0
C1499 C 0.15148 0.32867 0.6826 0.0
C1500 C 0.13057 0.34502 0.66784 0.0
C1501 C 0.07171 0.38968 0.62061 0.0
C1502 C 0.09151 0.37487 0.63787 0.0
H1503 H 0.16643 0.25934 0.70149 0.0
H1504 H 0.13147 0.28617 0.67891 0.0
H1505 H 0.15998 0.37567 0.64776 0.0
H1506 H 0.06346 0.4566 0.59136 0.0
H1507 H 0.08804 0.43313 0.62699 0.0
C1508 C 0.65003 0.2243 0.6237 0.0
C1509 C 0.67743 0.22987 0.62979 0.0
C1510 C 0.64337 0.20701 0.60288 0.0
C1511 C 0.66739 0.14427 0.57276 0.0
H1512 H 0.6086 0.15781 0.52465 0.0
C1513 C 0.58809 0.08491 0.49773 0.0
C1514 C 0.57685 0.06306 0.51555 0.0
C1515 C 0.60941 0.10349 0.50519 0.0
C1516 C 0.62548 0.15375 0.5375 0.0
H1517 H 0.71943 0.22278 0.61886 0.0
H1518 H 0.70774 0.19197 0.58251 0.0
H1519 H 0.62748 0.19778 0.54893 0.0
H1520 H 0.58089 0.04104 0.55376 0.0
H1521 H 0.61805 0.07387 0.56715 0.0
H1522 H 0.66422 0.09975 0.56247 0.0
C1523 C 0.6915 0.20135 0.59354 0.0
C1524 C 0.6361 0.17665 0.55153 0.0
C1525 C 0.69816 0.21913 0.61407 0.0
C1526 C 0.58936 0.05772 0.53971 0.0
C1527 C 0.61061 0.07657 0.54733 0.0
C1528 C 0.65652 0.1212 0.55892 0.0
C1529 C 0.66403 0.19452 0.58826 0.0
C1530 C 0.65659 0.17193 0.56982 0.0
C1531 C 0.61957 0.10072 0.53073 0.0
C1532 C 0.63495 0.12557 0.54166 0.0
H1533 H 0.63381 0.23197 0.63597 0.0
H1534 H 0.62203 0.20179 0.59939 0.0
H1535 H 0.68306 0.14005 0.58695 0.0
H1536 H 0.57886 0.08917 0.47884 0.0
H1537 H 0.61634 0.1215 0.49179 0.0
C1538 C 0.77101 0.34601 0.37187 0.0
C1539 C 0.76377 0.3578 0.34723 0.0
C1540 C 0.78277 0.36383 0.39024 0.0
C1541 C 0.8271 0.42943 0.38857 0.0
H1542 H 0.8281 0.41107 0.46378 0.0
C1543 C 0.91267 0.42271 0.47062 0.0
C1544 C 0.92725 0.44947 0.46575 0.0
C1545 C 0.88684 0.41802 0.4602 0.0
C1546 C 0.82791 0.4166 0.44283 0.0
H1547 H 0.76118 0.39726 0.32273 0.0
H1548 H 0.78124 0.42885 0.35513 0.0
H1549 H 0.79041 0.39194 0.43817 0.0
H1550 H 0.92568 0.49266 0.4469 0.0
H1551 H 0.88061 0.48434 0.42854 0.0
H1552 H 0.8651 0.45306 0.39301 0.0
C1553 C 0.77815 0.40583 0.36025 0.0
C1554 C 0.80636 0.40567 0.42816 0.0
C1555 C 0.76644 0.3879 0.34183 0.0
C1556 C 0.915 0.4718 0.45104 0.0
C1557 C 0.88923 0.46703 0.44044 0.0
C1558 C 0.8485 0.44051 0.40325 0.0
C1559 C 0.78762 0.39378 0.38417 0.0
C1560 C 0.80633 0.41092 0.40067 0.0
C1561 C 0.87509 0.43992 0.44455 0.0
C1562 C 0.84969 0.43322 0.43033 0.0
H1563 H 0.76942 0.32272 0.37615 0.0
H1564 H 0.79009 0.35367 0.40824 0.0
H1565 H 0.82802 0.43367 0.36742 0.0
H1566 H 0.92143 0.40513 0.48204 0.0
H1567 H 0.87661 0.39677 0.46342 0.0
C1568 C 0.69547 0.76334 0.32859 0.0
C1569 C 0.721 0.77428 0.31837 0.0
C1570 C 0.68244 0.77705 0.349 0.0
C1571 C 0.6802 0.84935 0.37554 0.0
H1572 H 0.63745 0.80976 0.43281 0.0
C1573 C 0.62452 0.91325 0.45321 0.0
C1574 C 0.59777 0.90312 0.46044 0.0
C1575 C 0.6415 0.89631 0.43849 0.0
C1576 C 0.64915 0.82114 0.41682 0.0
H1577 H 0.75372 0.80692 0.32278 0.0
H1578 H 0.7312 0.83044 0.35834 0.0
H1579 H 0.6635 0.78149 0.40262 0.0
H1580 H 0.56815 0.86685 0.45818 0.0
H1581 H 0.59744 0.83781 0.43225 0.0
H1582 H 0.66545 0.88889 0.38913 0.0
C1583 C 0.72094 0.81173 0.35028 0.0
C1584 C 0.66408 0.80492 0.39956 0.0
C1585 C 0.73389 0.79811 0.32996 0.0
C1586 C 0.58863 0.87543 0.45303 0.0
C1587 C 0.60554 0.85859 0.43828 0.0
C1588 C 0.66522 0.86552 0.39268 0.0
C1589 C 0.69474 0.80192 0.35951 0.0
C1590 C 0.67967 0.81886 0.37866 0.0
C1591 C 0.6321 0.8689 0.43061 0.0
C1592 C 0.64935 0.85164 0.41343 0.0
H1593 H 0.68501 0.74505 0.32006 0.0
H1594 H 0.6622 0.76903 0.35565 0.0
H1595 H 0.6916 0.86074 0.35935 0.0
H1596 H 0.63231 0.93437 0.4587 0.0
H1597 H 0.662 0.90475 0.43324 0.0
C1598 C 0.19878 0.68143 0.31724 0.0
C1599 C 0.18991 0.69947 0.29633 0.0
C1600 C 0.18028 0.66234 0.33153 0.0
C1601 C 0.10967 0.64891 0.35316 0.0
H1602 H 0.12865 0.56827 0.35966 0.0
C1603 C 0.04473 0.56043 0.41714 0.0
C1604 C 0.06025 0.54136 0.43252 0.0
C1605 C 0.05745 0.57931 0.39741 0.0
C1606 C 0.12307 0.59072 0.35827 0.0
H1607 H 0.15447 0.71229 0.27457 0.0
H1608 H 0.12192 0.67935 0.30024 0.0
H1609 H 0.15725 0.60306 0.33245 0.0
H1610 H 0.10145 0.52721 0.43875 0.0
H1611 H 0.12315 0.5598 0.4054 0.0
H1612 H 0.07622 0.63684 0.3801 0.0
C1613 C 0.14331 0.67985 0.30522 0.0
C1614 C 0.13945 0.6106 0.34257 0.0
C1615 C 0.16194 0.69858 0.29052 0.0
C1616 C 0.08859 0.54133 0.42735 0.0
C1617 C 0.10116 0.56003 0.40791 0.0
C1618 C 0.09343 0.62902 0.3693 0.0
C1619 C 0.15241 0.66123 0.32559 0.0
C1620 C 0.13329 0.63999 0.3403 0.0
C1621 C 0.08591 0.57934 0.39262 0.0
C1622 C 0.10038 0.59979 0.37261 0.0
H1623 H 0.22016 0.68153 0.3222 0.0
H1624 H 0.18778 0.64836 0.34729 0.0
H1625 H 0.10448 0.67149 0.35166 0.0
H1626 H 0.0229 0.56096 0.42045 0.0
H1627 H 0.04502 0.59379 0.38591 0.0
C1628 C 0.30072 0.16317 0.29785 0.0
C1629 C 0.30791 0.19178 0.28854 0.0
C1630 C 0.32014 0.14591 0.30991 0.0
C1631 C 0.36879 0.10959 0.32434 0.0
H1632 H 0.41553 0.14798 0.37362 0.0
C1633 C 0.46035 0.08751 0.40381 0.0
C1634 C 0.44806 0.06334 0.41824 0.0
C1635 C 0.447 0.10049 0.38259 0.0
C1636 C 0.40313 0.13698 0.35951 0.0
H1637 H 0.34135 0.22434 0.28366 0.0
H1638 H 0.37506 0.19424 0.30419 0.0
H1639 H 0.38405 0.17611 0.34791 0.0
H1640 H 0.41353 0.03198 0.41987 0.0
H1641 H 0.39021 0.05481 0.38321 0.0
H1642 H 0.38746 0.0702 0.33678 0.0
C1643 C 0.35437 0.18527 0.30277 0.0
C1644 C 0.38495 0.15313 0.3448 0.0
C1645 C 0.33501 0.20251 0.29093 0.0
C1646 C 0.42347 0.05078 0.40939 0.0
C1647 C 0.41011 0.0638 0.38822 0.0
C1648 C 0.38701 0.09335 0.33916 0.0
C1649 C 0.34712 0.15692 0.31276 0.0
C1650 C 0.36735 0.13962 0.32724 0.0
C1651 C 0.42113 0.08956 0.37538 0.0
C1652 C 0.40416 0.10685 0.35714 0.0
H1653 H 0.28002 0.15428 0.29624 0.0
H1654 H 0.31382 0.12425 0.31764 0.0
H1655 H 0.35576 0.09861 0.31072 0.0
H1656 H 0.4795 0.09748 0.40982 0.0
H1657 H 0.45632 0.11995 0.37264 0.0
C1658 C 0.70973 0.83484 0.70687 0.0
C1659 C 0.70146 0.80553 0.71232 0.0
C1660 C 0.69205 0.85398 0.69462 0.0
C1661 C 0.61912 0.86244 0.67839 0.0
H1662 H 0.64946 0.91267 0.62047 0.0
C1663 C 0.55643 0.90752 0.59222 0.0
C1664 C 0.56505 0.93429 0.5795 0.0
C1665 C 0.57072 0.89618 0.61359 0.0
C1666 C 0.64066 0.89929 0.63694 0.0
H1667 H 0.668 0.77341 0.70947 0.0
H1668 H 0.63749 0.80657 0.68776 0.0
H1669 H 0.67971 0.88429 0.64758 0.0
H1670 H 0.59356 0.97157 0.58108 0.0
H1671 H 0.61814 0.95196 0.61854 0.0
H1672 H 0.5799 0.8768 0.66705 0.0
C1673 C 0.65742 0.81495 0.69332 0.0
C1674 C 0.65806 0.88295 0.65248 0.0
C1675 C 0.67504 0.79586 0.70555 0.0
C1676 C 0.58665 0.95065 0.59013 0.0
C1677 C 0.60085 0.93936 0.61152 0.0
C1678 C 0.60168 0.87878 0.66279 0.0
C1679 C 0.66573 0.84421 0.68758 0.0
C1680 C 0.64746 0.86388 0.67304 0.0
C1681 C 0.59381 0.91146 0.62274 0.0
C1682 C 0.61222 0.89697 0.64157 0.0
H1683 H 0.72989 0.84301 0.71199 0.0
H1684 H 0.69897 0.87646 0.69069 0.0
H1685 H 0.61036 0.84832 0.69439 0.0
H1686 H 0.53978 0.89442 0.58465 0.0
H1687 H 0.56477 0.87459 0.62174 0.0
C1688 C 0.68387 0.17146 0.28484 0.0
C1689 C 0.68927 0.20053 0.29094 0.0
C1690 C 0.66533 0.15337 0.30018 0.0
C1691 C 0.60659 0.15211 0.34685 0.0
H1692 H 0.63133 0.07639 0.36924 0.0
C1693 C 0.54795 0.07458 0.42584 0.0
C1694 C 0.55167 0.04463 0.42523 0.0
C1695 C 0.56172 0.09421 0.40743 0.0
C1696 C 0.62364 0.09712 0.36278 0.0
H1697 H 0.6787 0.23347 0.31773 0.0
H1698 H 0.6459 0.20184 0.34436 0.0
H1699 H 0.66102 0.10935 0.34161 0.0
H1700 H 0.57098 0.01152 0.40392 0.0
H1701 H 0.59327 0.04518 0.3708 0.0
H1702 H 0.56896 0.1397 0.3677 0.0
C1703 C 0.65621 0.19313 0.32768 0.0
C1704 C 0.64089 0.11618 0.34701 0.0
C1705 C 0.67511 0.2112 0.3125 0.0
C1706 C 0.56765 0.03451 0.40475 0.0
C1707 C 0.58087 0.05397 0.38605 0.0
C1708 C 0.58906 0.13281 0.36239 0.0
C1709 C 0.65137 0.16387 0.32189 0.0
C1710 C 0.63265 0.1439 0.33882 0.0
C1711 C 0.57923 0.08423 0.38781 0.0
C1712 C 0.5973 0.10493 0.37057 0.0
H1713 H 0.69432 0.16245 0.2684 0.0
H1714 H 0.6619 0.13104 0.29502 0.0
H1715 H 0.59956 0.17327 0.34073 0.0
H1716 H 0.53623 0.08301 0.4418 0.0
H1717 H 0.5599 0.11724 0.40968 0.0
C1718 C 0.84033 0.71577 0.29302 0.0
C1719 C 0.81651 0.70168 0.28408 0.0
C1720 C 0.86002 0.69998 0.30624 0.0
C1721 C 0.86761 0.62983 0.34372 0.0
H1722 H 0.94496 0.65187 0.33791 0.0
C1723 C 0.94336 0.56344 0.40105 0.0
C1724 C 0.96035 0.57969 0.41728 0.0
C1725 C 0.92997 0.57707 0.38024 0.0
C1726 C 0.92343 0.6455 0.3397 0.0
H1727 H 0.79515 0.65981 0.28123 0.0
H1728 H 0.82974 0.63217 0.30361 0.0
H1729 H 0.91265 0.67796 0.31056 0.0
H1730 H 0.97886 0.62248 0.42267 0.0
H1731 H 0.95533 0.64639 0.38621 0.0
H1732 H 0.87824 0.59755 0.37286 0.0
C1733 C 0.83294 0.65554 0.30108 0.0
C1734 C 0.90487 0.6605 0.32415 0.0
C1735 C 0.81312 0.67137 0.28812 0.0
C1736 C 0.96588 0.60937 0.41054 0.0
C1737 C 0.95235 0.62308 0.38967 0.0
C1738 C 0.88612 0.61474 0.35901 0.0
C1739 C 0.8565 0.66966 0.31064 0.0
C1740 C 0.87666 0.65299 0.32611 0.0
C1741 C 0.9332 0.60728 0.37519 0.0
C1742 C 0.91422 0.62245 0.35733 0.0
H1743 H 0.84355 0.73913 0.29028 0.0
H1744 H 0.87764 0.7117 0.31362 0.0
H1745 H 0.84607 0.6238 0.34632 0.0
H1746 H 0.93898 0.54044 0.40547 0.0
H1747 H 0.91588 0.56418 0.36899 0.0
C1748 C 0.29797 0.79318 0.3858 0.0
C1749 C 0.31679 0.77826 0.37109 0.0
C1750 C 0.30677 0.80956 0.40655 0.0
C1751 C 0.36546 0.82577 0.44881 0.0
H1752 H 0.34442 0.90565 0.43928 0.0
C1753 C 0.42147 0.94163 0.46019 0.0
C1754 C 0.43505 0.9348 0.48349 0.0
C1755 C 0.39904 0.92411 0.45311 0.0
C1756 C 0.35027 0.8834 0.44239 0.0
H1757 H 0.35899 0.76741 0.3668 0.0
H1758 H 0.37455 0.79574 0.40335 0.0
H1759 H 0.32126 0.86788 0.41501 0.0
H1760 H 0.434 0.9073 0.51939 0.0
H1761 H 0.39437 0.87737 0.50752 0.0
H1762 H 0.39561 0.84136 0.4748 0.0
C1763 C 0.35297 0.79458 0.39918 0.0
C1764 C 0.33686 0.86171 0.42869 0.0
C1765 C 0.34416 0.77834 0.37832 0.0
C1766 C 0.424 0.91263 0.5011 0.0
C1767 C 0.40145 0.89543 0.49423 0.0
C1768 C 0.37877 0.84738 0.46255 0.0
C1769 C 0.33453 0.81124 0.41284 0.0
C1770 C 0.34498 0.83286 0.4311 0.0
C1771 C 0.38985 0.8998 0.46944 0.0
C1772 C 0.37194 0.8766 0.45885 0.0
H1773 H 0.27681 0.79365 0.38013 0.0
H1774 H 0.29213 0.822 0.41686 0.0
H1775 H 0.37198 0.80369 0.45119 0.0
H1776 H 0.42974 0.95862 0.44633 0.0
H1777 H 0.39057 0.92807 0.43385 0.0
C1778 C 0.22955 0.30205 0.33389 0.0
C1779 C 0.22033 0.27578 0.32358 0.0
C1780 C 0.21491 0.31391 0.35429 0.0
C1781 C 0.14484 0.31401 0.3806 0.0
H1782 H 0.17749 0.35559 0.43715 0.0
C1783 C 0.07821 0.36763 0.45667 0.0
C1784 C 0.08674 0.39575 0.46337 0.0
C1785 C 0.09567 0.35072 0.4426 0.0
C1786 C 0.16809 0.34423 0.42135 0.0
H1787 H 0.18944 0.24046 0.32772 0.0
H1788 H 0.16409 0.26105 0.36339 0.0
H1789 H 0.20648 0.32952 0.40763 0.0
H1790 H 0.12066 0.42782 0.46103 0.0
H1791 H 0.15091 0.39852 0.43598 0.0
H1792 H 0.10663 0.32921 0.39368 0.0
C1793 C 0.18236 0.27272 0.3554 0.0
C1794 C 0.18469 0.32925 0.4045 0.0
C1795 C 0.19699 0.26086 0.33505 0.0
C1796 C 0.11342 0.40625 0.45623 0.0
C1797 C 0.13085 0.38937 0.44199 0.0
C1798 C 0.12831 0.32902 0.39733 0.0
C1799 C 0.19075 0.29974 0.36476 0.0
C1800 C 0.17324 0.31413 0.38385 0.0
C1801 C 0.12204 0.36155 0.4347 0.0
C1802 C 0.13972 0.34448 0.41781 0.0
H1803 H 0.24748 0.31407 0.32553 0.0
H1804 H 0.22182 0.33484 0.36096 0.0
H1805 H 0.13543 0.30308 0.36456 0.0
H1806 H 0.05792 0.3587 0.46211 0.0
H1807 H 0.08841 0.32918 0.43775 0.0
C1808 C 0.27673 0.20365 0.66226 0.0
C1809 C 0.28984 0.22691 0.67449 0.0
C1810 C 0.28989 0.18998 0.64213 0.0
C1811 C 0.34819 0.19532 0.59457 0.0
H1812 H 0.3449 0.11134 0.60536 0.0
C1813 C 0.42362 0.1228 0.54357 0.0
C1814 C 0.41424 0.09521 0.53612 0.0
C1815 C 0.40663 0.1401 0.55773 0.0
C1816 C 0.34567 0.1347 0.60169 0.0
H1817 H 0.32639 0.25524 0.67406 0.0
H1818 H 0.3496 0.23111 0.63875 0.0
H1819 H 0.3185 0.14025 0.63426 0.0
H1820 H 0.37922 0.06461 0.53714 0.0
H1821 H 0.34937 0.09506 0.56156 0.0
H1822 H 0.37559 0.1897 0.56206 0.0
C1823 C 0.32904 0.22358 0.64478 0.0
C1824 C 0.33056 0.15131 0.61833 0.0
C1825 C 0.31578 0.23739 0.665 0.0
C1826 C 0.38719 0.08564 0.5427 0.0
C1827 C 0.37011 0.10306 0.55681 0.0
C1828 C 0.36324 0.17866 0.57779 0.0
C1829 C 0.31652 0.19915 0.63374 0.0
C1830 C 0.33178 0.18181 0.61509 0.0
C1831 C 0.37974 0.13038 0.56474 0.0
C1832 C 0.36236 0.14814 0.58132 0.0
H1833 H 0.25656 0.19528 0.66886 0.0
H1834 H 0.27947 0.17163 0.63362 0.0
H1835 H 0.34933 0.21875 0.59144 0.0
H1836 H 0.44434 0.13094 0.53891 0.0
H1837 H 0.4149 0.16078 0.56383 0.0
C1838 C 0.79824 0.32329 0.68212 0.0
C1839 C 0.80672 0.30415 0.7024 0.0
C1840 C 0.81732 0.34146 0.66756 0.0
C1841 C 0.8878 0.35051 0.64405 0.0
H1842 H 0.87367 0.43256 0.63922 0.0
C1843 C 0.95587 0.4358 0.5795 0.0
C1844 C 0.94103 0.45604 0.5647 0.0
C1845 C 0.94272 0.41749 0.59941 0.0
C1846 C 0.87789 0.4097 0.64015 0.0
H1847 H 0.84201 0.28839 0.72272 0.0
H1848 H 0.87548 0.3197 0.69659 0.0
H1849 H 0.84386 0.39915 0.66663 0.0
H1850 H 0.90067 0.47303 0.55983 0.0
H1851 H 0.87823 0.44142 0.59345 0.0
H1852 H 0.92106 0.36086 0.61646 0.0
C1853 C 0.85399 0.32079 0.69231 0.0
C1854 C 0.86081 0.39061 0.65595 0.0
C1855 C 0.83483 0.30299 0.70728 0.0
C1856 C 0.91301 0.45789 0.5707 0.0
C1857 C 0.90002 0.43978 0.59033 0.0
C1858 C 0.90473 0.36963 0.62781 0.0
C1859 C 0.84535 0.34051 0.67259 0.0
C1860 C 0.8652 0.36076 0.65763 0.0
C1861 C 0.91453 0.41924 0.60498 0.0
C1862 C 0.8995 0.39939 0.6251 0.0
H1863 H 0.77678 0.32475 0.67787 0.0
H1864 H 0.81015 0.35632 0.6523 0.0
H1865 H 0.89164 0.32756 0.64508 0.0
H1866 H 0.97745 0.43384 0.57553 0.0
H1867 H 0.95459 0.40203 0.61042 0.0
C1868 C 0.2365 0.61417 0.65005 0.0
C1869 C 0.23653 0.64431 0.64492 0.0
C1870 C 0.22557 0.59543 0.63185 0.0
C1871 C 0.19591 0.59338 0.56479 0.0
H1872 H 0.13962 0.54357 0.6011 0.0
C1873 C 0.08767 0.52499 0.5447 0.0
C1874 C 0.07481 0.54725 0.53047 0.0
C1875 C 0.11379 0.52993 0.55448 0.0
C1876 C 0.15558 0.55674 0.59051 0.0
H1877 H 0.22713 0.67877 0.61661 0.0
H1878 H 0.20802 0.64638 0.58485 0.0
H1879 H 0.17668 0.56442 0.62588 0.0
H1880 H 0.07986 0.59166 0.51417 0.0
H1881 H 0.12519 0.60035 0.53144 0.0
H1882 H 0.17357 0.58714 0.52967 0.0
C1883 C 0.21668 0.63688 0.60251 0.0
C1884 C 0.17695 0.56867 0.60473 0.0
C1885 C 0.22749 0.6555 0.6207 0.0
C1886 C 0.08908 0.57412 0.52526 0.0
C1887 C 0.11523 0.57899 0.53488 0.0
C1888 C 0.17445 0.58153 0.55057 0.0
C1889 C 0.21448 0.6067 0.60837 0.0
C1890 C 0.19664 0.5882 0.59224 0.0
C1891 C 0.12764 0.55716 0.55004 0.0
C1892 C 0.15343 0.56415 0.56352 0.0
H1893 H 0.24322 0.60524 0.66881 0.0
H1894 H 0.22437 0.57228 0.6368 0.0
H1895 H 0.21107 0.60792 0.55453 0.0
H1896 H 0.07723 0.50403 0.54906 0.0
H1897 H 0.12291 0.51268 0.56603 0.0
loop_
_geom_bond_atom_site_label_1
_geom_bond_atom_site_label_2
_geom_bond_distance
_geom_bond_site_symmetry_2
_ccdc_geom_bond_type
C0 O16 1.251 . S
C0 O18 1.254 . S
N1 C2 1.333 . S
N1 C6 1.307 . S
N1 Zn7 2.020 . S
C2 N1 1.333 . S
C2 C3 1.379 . S
C2 H20 0.952 . S
C3 C2 1.379 . S
C3 C4 1.390 . S
C3 H30 0.949 . S
C4 C3 1.390 . S
C4 C5 1.357 . S
C5 C4 1.357 . S
C5 C6 1.370 . S
C5 H31 0.950 . S
C6 N1 1.307 . S
C6 C5 1.370 . S
C6 H24 0.948 . S
Zn7 N1 2.020 . S
Zn7 O16 2.039 . S
Zn7 O22 2.034 . S
Zn7 O26 2.025 . S
Zn7 O28 2.024 . S
C8 O27 1.246 . S
C8 O28 1.249 . S
N9 C10 1.307 . S
N9 C11 1.333 . S
N9 Zn15 2.020 . S
C10 N9 1.307 . S
C10 C14 1.370 . S
C10 H21 0.948 . S
C11 N9 1.333 . S
C11 C12 1.379 . S
C11 H19 0.952 . S
C12 C11 1.379 . S
C12 C13 1.390 . S
C12 H32 0.949 . S
C13 C12 1.390 . S
C13 C14 1.357 . S
C14 C10 1.370 . S
C14 C13 1.357 . S
C14 H33 0.950 . S
Zn15 N9 2.020 . S
Zn15 O18 2.025 . S
Zn15 O23 2.024 . S
Zn15 O25 2.039 . S
Zn15 O27 2.034 . S
O16 C0 1.251 . S
O16 Zn7 2.039 . S
C17 O22 1.246 . S
C17 O23 1.249 . S
O18 C0 1.254 . S
O18 Zn15 2.025 . S
H19 C11 0.952 . S
H20 C2 0.952 . S
H21 C10 0.948 . S
O22 Zn7 2.034 . S
O22 C17 1.246 . S
O23 Zn15 2.024 . S
O23 C17 1.249 . S
H24 C6 0.948 . S
O25 Zn15 2.039 . S
O25 C29 1.251 . S
O26 Zn7 2.025 . S
O26 C29 1.254 . S
O27 C8 1.246 . S
O27 Zn15 2.034 . S
O28 Zn7 2.024 . S
O28 C8 1.249 . S
C29 O25 1.251 . S
C29 O26 1.254 . S
H30 C3 0.949 . S
H31 C5 0.950 . S
H32 C12 0.949 . S
H33 C14 0.950 . S
C34 O50 1.251 . S
C34 O52 1.254 . S
N35 C36 1.333 . S
N35 C40 1.307 . S
N35 Zn41 2.020 . S
C36 N35 1.333 . S
C36 C37 1.379 . S
C36 H54 0.952 . S
C37 C36 1.379 . S
C37 C38 1.390 . S
C37 H64 0.949 . S
C38 C37 1.390 . S
C38 C39 1.357 . S
C39 C38 1.357 . S
C39 C40 1.370 . S
C39 H65 0.950 . S
C40 N35 1.307 . S
C40 C39 1.370 . S
C40 H58 0.948 . S
Zn41 N35 2.020 . S
Zn41 O50 2.039 . S
Zn41 O56 2.034 . S
Zn41 O60 2.025 . S
Zn41 O62 2.024 . S
C42 O61 1.246 . S
C42 O62 1.249 . S
N43 C44 1.307 . S
N43 C45 1.333 . S
N43 Zn49 2.020 . S
C44 N43 1.307 . S
C44 C48 1.370 . S
C44 H55 0.948 . S
C45 N43 1.333 . S
C45 C46 1.379 . S
C45 H53 0.952 . S
C46 C45 1.379 . S
C46 C47 1.390 . S
C46 H66 0.949 . S
C47 C46 1.390 . S
C47 C48 1.357 . S
C48 C44 1.370 . S
C48 C47 1.357 . S
C48 H67 0.950 . S
Zn49 N43 2.020 . S
Zn49 O52 2.025 . S
Zn49 O57 2.024 . S
Zn49 O59 2.039 . S
Zn49 O61 2.034 . S
O50 C34 1.251 . S
O50 Zn41 2.039 . S
C51 O56 1.246 . S
C51 O57 1.249 . S
O52 C34 1.254 . S
O52 Zn49 2.025 . S
H53 C45 0.952 . S
H54 C36 0.952 . S
H55 C44 0.948 . S
O56 Zn41 2.034 . S
O56 C51 1.246 . S
O57 Zn49 2.024 . S
O57 C51 1.249 . S
H58 C40 0.948 . S
O59 Zn49 2.039 . S
O59 C63 1.251 . S
O60 Zn41 2.025 . S
O60 C63 1.254 . S
O61 C42 1.246 . S
O61 Zn49 2.034 . S
O62 Zn41 2.024 . S
O62 C42 1.249 . S
C63 O59 1.251 . S
C63 O60 1.254 . S
H64 C37 0.949 . S
H65 C39 0.950 . S
H66 C46 0.949 . S
H67 C48 0.950 . S
C68 O84 1.251 . S
C68 O86 1.254 . S
N69 C70 1.333 . S
N69 C74 1.307 . S
N69 Zn75 2.020 . S
C70 N69 1.333 . S
C70 C71 1.379 . S
C70 H88 0.952 . S
C71 C70 1.379 . S
C71 C72 1.390 . S
C71 H98 0.949 . S
C72 C71 1.390 . S
C72 C73 1.357 . S
C73 C72 1.357 . S
C73 C74 1.370 . S
C73 H99 0.950 . S
C74 N69 1.307 . S
C74 C73 1.370 . S
C74 H92 0.948 . S
Zn75 N69 2.020 . S
Zn75 O84 2.039 . S
Zn75 O90 2.034 . S
Zn75 O94 2.025 . S
Zn75 O96 2.024 . S
C76 O95 1.246 . S
C76 O96 1.249 . S
N77 C78 1.307 . S
N77 C79 1.333 . S
N77 Zn83 2.020 . S
C78 N77 1.307 . S
C78 C82 1.370 . S
C78 H89 0.948 . S
C79 N77 1.333 . S
C79 C80 1.379 . S
C79 H87 0.952 . S
C80 C79 1.379 . S
C80 C81 1.390 . S
C80 H100 0.949 . S
C81 C80 1.390 . S
C81 C82 1.357 . S
C82 C78 1.370 . S
C82 C81 1.357 . S
C82 H101 0.950 . S
Zn83 N77 2.020 . S
Zn83 O86 2.025 . S
Zn83 O91 2.024 . S
Zn83 O93 2.039 . S
Zn83 O95 2.034 . S
O84 C68 1.251 . S
O84 Zn75 2.039 . S
C85 O90 1.246 . S
C85 O91 1.249 . S
O86 C68 1.254 . S
O86 Zn83 2.025 . S
H87 C79 0.952 . S
H88 C70 0.952 . S
H89 C78 0.948 . S
O90 Zn75 2.034 . S
O90 C85 1.246 . S
O91 Zn83 2.024 . S
O91 C85 1.249 . S
H92 C74 0.948 . S
O93 Zn83 2.039 . S
O93 C97 1.251 . S
O94 Zn75 2.025 . S
O94 C97 1.254 . S
O95 C76 1.246 . S
O95 Zn83 2.034 . S
O96 Zn75 2.024 . S
O96 C76 1.249 . S
C97 O93 1.251 . S
C97 O94 1.254 . S
H98 C71 0.949 . S
H99 C73 0.950 . S
H100 C80 0.949 . S
H101 C82 0.950 . S
C102 O118 1.251 . S
C102 O120 1.254 . S
N103 C104 1.333 . S
N103 C108 1.307 . S
N103 Zn109 2.020 . S
C104 N103 1.333 . S
C104 C105 1.379 . S
C104 H122 0.952 . S
C105 C104 1.379 . S
C105 C106 1.390 . S
C105 H132 0.949 . S
C106 C105 1.390 . S
C106 C107 1.357 . S
C107 C106 1.357 . S
C107 C108 1.370 . S
C107 H133 0.950 . S
C108 N103 1.307 . S
C108 C107 1.370 . S
C108 H126 0.948 . S
Zn109 N103 2.020 . S
Zn109 O118 2.039 . S
Zn109 O124 2.034 . S
Zn109 O128 2.025 . S
Zn109 O130 2.024 . S
C110 O129 1.246 . S
C110 O130 1.249 . S
N111 C112 1.307 . S
N111 C113 1.333 . S
N111 Zn117 2.020 . S
C112 N111 1.307 . S
C112 C116 1.370 . S
C112 H123 0.948 . S
C113 N111 1.333 . S
C113 C114 1.379 . S
C113 H121 0.952 . S
C114 C113 1.379 . S
C114 C115 1.390 . S
C114 H134 0.949 . S
C115 C114 1.390 . S
C115 C116 1.357 . S
C116 C112 1.370 . S
C116 C115 1.357 . S
C116 H135 0.950 . S
Zn117 N111 2.020 . S
Zn117 O120 2.025 . S
Zn117 O125 2.024 . S
Zn117 O127 2.039 . S
Zn117 O129 2.034 . S
O118 C102 1.251 . S
O118 Zn109 2.039 . S
C119 O124 1.246 . S
C119 O125 1.249 . S
O120 C102 1.254 . S
O120 Zn117 2.025 . S
H121 C113 0.952 . S
H122 C104 0.952 . S
H123 C112 0.948 . S
O124 Zn109 2.034 . S
O124 C119 1.246 . S
O125 Zn117 2.024 . S
O125 C119 1.249 . S
H126 C108 0.948 . S
O127 Zn117 2.039 . S
O127 C131 1.251 . S
O128 Zn109 2.025 . S
O128 C131 1.254 . S
O129 C110 1.246 . S
O129 Zn117 2.034 . S
O130 Zn109 2.024 . S
O130 C110 1.249 . S
C131 O127 1.251 . S
C131 O128 1.254 . S
H132 C105 0.949 . S
H133 C107 0.950 . S
H134 C114 0.949 . S
H135 C116 0.950 . S
C136 O152 1.251 . S
C136 O154 1.254 . S
N137 C138 1.333 . S
N137 C142 1.307 . S
N137 Zn143 2.020 . S
C138 N137 1.333 . S
C138 C139 1.379 . S
C138 H156 0.952 . S
C139 C138 1.379 . S
C139 C140 1.390 . S
C139 H166 0.949 . S
C140 C139 1.390 . S
C140 C141 1.357 . S
C141 C140 1.357 . S
C141 C142 1.370 . S
C141 H167 0.950 . S
C142 N137 1.307 . S
C142 C141 1.370 . S
C142 H160 0.948 . S
Zn143 N137 2.020 . S
Zn143 O152 2.039 . S
Zn143 O158 2.034 . S
Zn143 O162 2.025 . S
Zn143 O164 2.024 . S
C144 O163 1.246 . S
C144 O164 1.249 . S
N145 C146 1.307 . S
N145 C147 1.333 . S
N145 Zn151 2.020 . S
C146 N145 1.307 . S
C146 C150 1.370 . S
C146 H157 0.948 . S
C147 N145 1.333 . S
C147 C148 1.379 . S
C147 H155 0.952 . S
C148 C147 1.379 . S
C148 C149 1.390 . S
C148 H168 0.949 . S
C149 C148 1.390 . S
C149 C150 1.357 . S
C150 C146 1.370 . S
C150 C149 1.357 . S
C150 H169 0.950 . S
Zn151 N145 2.020 . S
Zn151 O154 2.025 . S
Zn151 O159 2.024 . S
Zn151 O161 2.039 . S
Zn151 O163 2.034 . S
O152 C136 1.251 . S
O152 Zn143 2.039 . S
C153 O158 1.246 . S
C153 O159 1.249 . S
O154 C136 1.254 . S
O154 Zn151 2.025 . S
H155 C147 0.952 . S
H156 C138 0.952 . S
H157 C146 0.948 . S
O158 Zn143 2.034 . S
O158 C153 1.246 . S
O159 Zn151 2.024 . S
O159 C153 1.249 . S
H160 C142 0.948 . S
O161 Zn151 2.039 . S
O161 C165 1.251 . S
O162 Zn143 2.025 . S
O162 C165 1.254 . S
O163 C144 1.246 . S
O163 Zn151 2.034 . S
O164 Zn143 2.024 . S
O164 C144 1.249 . S
C165 O161 1.251 . S
C165 O162 1.254 . S
H166 C139 0.949 . S
H167 C141 0.950 . S
H168 C148 0.949 . S
H169 C150 0.950 . S
C170 O186 1.251 . S
C170 O188 1.254 . S
N171 C172 1.333 . S
N171 C176 1.307 . S
N171 Zn177 2.020 . S
C172 N171 1.333 . S
C172 C173 1.379 . S
C172 H190 0.952 . S
C173 C172 1.379 . S
C173 C174 1.390 . S
C173 H200 0.949 . S
C174 C173 1.390 . S
C174 C175 1.357 . S
C175 C174 1.357 . S
C175 C176 1.370 . S
C175 H201 0.950 . S
C176 N171 1.307 . S
C176 C175 1.370 . S
C176 H194 0.948 . S
Zn177 N171 2.020 . S
Zn177 O186 2.039 . S
Zn177 O192 2.034 . S
Zn177 O196 2.025 . S
Zn177 O198 2.024 . S
C178 O197 1.246 . S
C178 O198 1.249 . S
N179 C180 1.307 . S
N179 C181 1.333 . S
N179 Zn185 2.020 . S
C180 N179 1.307 . S
C180 C184 1.370 . S
C180 H191 0.948 . S
C181 N179 1.333 . S
C181 C182 1.379 . S
C181 H189 0.952 . S
C182 C181 1.379 . S
C182 C183 1.390 . S
C182 H202 0.949 . S
C183 C182 1.390 . S
C183 C184 1.357 . S
C184 C180 1.370 . S
C184 C183 1.357 . S
C184 H203 0.950 . S
Zn185 N179 2.020 . S
Zn185 O188 2.025 . S
Zn185 O193 2.024 . S
Zn185 O195 2.039 . S
Zn185 O197 2.034 . S
O186 C170 1.251 . S
O186 Zn177 2.039 . S
C187 O192 1.246 . S
C187 O193 1.249 . S
O188 C170 1.254 . S
O188 Zn185 2.025 . S
H189 C181 0.952 . S
H190 C172 0.952 . S
H191 C180 0.948 . S
O192 Zn177 2.034 . S
O192 C187 1.246 . S
O193 Zn185 2.024 . S
O193 C187 1.249 . S
H194 C176 0.948 . S
O195 Zn185 2.039 . S
O195 C199 1.251 . S
O196 Zn177 2.025 . S
O196 C199 1.254 . S
O197 C178 1.246 . S
O197 Zn185 2.034 . S
O198 Zn177 2.024 . S
O198 C178 1.249 . S
C199 O195 1.251 . S
C199 O196 1.254 . S
H200 C173 0.949 . S
H201 C175 0.950 . S
H202 C182 0.949 . S
H203 C184 0.950 . S
C204 O220 1.251 . S
C204 O222 1.254 . S
N205 C206 1.333 . S
N205 C210 1.307 . S
N205 Zn211 2.020 . S
C206 N205 1.333 . S
C206 C207 1.379 . S
C206 H224 0.952 . S
C207 C206 1.379 . S
C207 C208 1.390 . S
C207 H234 0.949 . S
C208 C207 1.390 . S
C208 C209 1.357 . S
C209 C208 1.357 . S
C209 C210 1.370 . S
C209 H235 0.950 . S
C210 N205 1.307 . S
C210 C209 1.370 . S
C210 H228 0.948 . S
Zn211 N205 2.020 . S
Zn211 O220 2.039 . S
Zn211 O226 2.034 . S
Zn211 O230 2.025 . S
Zn211 O232 2.024 . S
C212 O231 1.246 . S
C212 O232 1.249 . S
N213 C214 1.307 . S
N213 C215 1.333 . S
N213 Zn219 2.020 . S
C214 N213 1.307 . S
C214 C218 1.370 . S
C214 H225 0.948 . S
C215 N213 1.333 . S
C215 C216 1.379 . S
C215 H223 0.952 . S
C216 C215 1.379 . S
C216 C217 1.390 . S
C216 H236 0.949 . S
C217 C216 1.390 . S
C217 C218 1.357 . S
C218 C214 1.370 . S
C218 C217 1.357 . S
C218 H237 0.950 . S
Zn219 N213 2.020 . S
Zn219 O222 2.025 . S
Zn219 O227 2.024 . S
Zn219 O229 2.039 . S
Zn219 O231 2.034 . S
O220 C204 1.251 . S
O220 Zn211 2.039 . S
C221 O226 1.246 . S
C221 O227 1.249 . S
O222 C204 1.254 . S
O222 Zn219 2.025 . S
H223 C215 0.952 . S
H224 C206 0.952 . S
H225 C214 0.948 . S
O226 Zn211 2.034 . S
O226 C221 1.246 . S
O227 Zn219 2.024 . S
O227 C221 1.249 . S
H228 C210 0.948 . S
O229 Zn219 2.039 . S
O229 C233 1.251 . S
O230 Zn211 2.025 . S
O230 C233 1.254 . S
O231 C212 1.246 . S
O231 Zn219 2.034 . S
O232 Zn211 2.024 . S
O232 C212 1.249 . S
C233 O229 1.251 . S
C233 O230 1.254 . S
H234 C207 0.949 . S
H235 C209 0.950 . S
H236 C216 0.949 . S
H237 C218 0.950 . S
C238 O254 1.251 . S
C238 O256 1.254 . S
N239 C240 1.333 . S
N239 C244 1.307 . S
N239 Zn245 2.020 . S
C240 N239 1.333 . S
C240 C241 1.379 . S
C240 H258 0.952 . S
C241 C240 1.379 . S
C241 C242 1.390 . S
C241 H268 0.949 . S
C242 C241 1.390 . S
C242 C243 1.357 . S
C243 C242 1.357 . S
C243 C244 1.370 . S
C243 H269 0.950 . S
C244 N239 1.307 . S
C244 C243 1.370 . S
C244 H262 0.948 . S
Zn245 N239 2.020 . S
Zn245 O254 2.039 . S
Zn245 O260 2.034 . S
Zn245 O264 2.025 . S
Zn245 O266 2.024 . S
C246 O265 1.246 . S
C246 O266 1.249 . S
N247 C248 1.307 . S
N247 C249 1.333 . S
N247 Zn253 2.020 . S
C248 N247 1.307 . S
C248 C252 1.370 . S
C248 H259 0.948 . S
C249 N247 1.333 . S
C249 C250 1.379 . S
C249 H257 0.952 . S
C250 C249 1.379 . S
C250 C251 1.390 . S
C250 H270 0.949 . S
C251 C250 1.390 . S
C251 C252 1.357 . S
C252 C248 1.370 . S
C252 C251 1.357 . S
C252 H271 0.950 . S
Zn253 N247 2.020 . S
Zn253 O256 2.025 . S
Zn253 O261 2.024 . S
Zn253 O263 2.039 . S
Zn253 O265 2.034 . S
O254 C238 1.251 . S
O254 Zn245 2.039 . S
C255 O260 1.246 . S
C255 O261 1.249 . S
O256 C238 1.254 . S
O256 Zn253 2.025 . S
H257 C249 0.952 . S
H258 C240 0.952 . S
H259 C248 0.948 . S
O260 Zn245 2.034 . S
O260 C255 1.246 . S
O261 Zn253 2.024 . S
O261 C255 1.249 . S
H262 C244 0.948 . S
O263 Zn253 2.039 . S
O263 C267 1.251 . S
O264 Zn245 2.025 . S
O264 C267 1.254 . S
O265 C246 1.246 . S
O265 Zn253 2.034 . S
O266 Zn245 2.024 . S
O266 C246 1.249 . S
C267 O263 1.251 . S
C267 O264 1.254 . S
H268 C241 0.949 . S
H269 C243 0.950 . S
H270 C250 0.949 . S
H271 C252 0.950 . S
C272 O284 1.241 . S
C272 O285 1.280 . S
C273 O286 1.277 . S
C273 O287 1.245 . S
C274 O298 1.247 . S
C274 O300 1.289 . S
Mg275 O276 1.926 . S
Mg275 O285 1.984 . S
Mg275 O287 1.988 . S
Mg275 O288 2.061 1_655 S
O276 Mg275 1.926 . S
O276 Mg277 1.986 . S
O276 Mg278 1.917 1_655 S
Mg277 O276 1.986 . S
Mg277 O284 2.042 . S
Mg277 O286 2.041 . S
Mg277 O292 2.038 1_545 S
Mg277 O300 2.238 1_545 S
Mg278 O276 1.917 1_455 S
Mg278 O279 1.917 1_545 S
Mg278 O289 2.106 . S
Mg278 O291 2.079 1_445 S
Mg278 O300 2.106 1_445 S
Mg278 O301 2.079 . S
O279 Mg278 1.917 1_565 S
O279 Mg280 1.926 . S
O279 Mg281 1.986 . S
Mg280 O279 1.926 . S
Mg280 O294 1.984 . S
Mg280 O297 1.988 . S
Mg280 O298 2.061 1_455 S
Mg281 O279 1.986 . S
Mg281 O289 2.238 1_565 S
Mg281 O293 2.042 . S
Mg281 O295 2.041 . S
Mg281 O302 2.038 1_565 S
C282 O288 1.247 . S
C282 O289 1.289 . S
C283 O301 1.245 . S
C283 O302 1.274 . S
O284 C272 1.241 . S
O284 Mg277 2.042 . S
O285 C272 1.280 . S
O285 Mg275 1.984 . S
O286 C273 1.277 . S
O286 Mg277 2.041 . S
O287 C273 1.245 . S
O287 Mg275 1.988 . S
O288 Mg275 2.061 1_455 S
O288 C282 1.247 . S
O289 Mg278 2.106 . S
O289 Mg281 2.238 1_545 S
O289 C282 1.289 . S
C290 O291 1.245 . S
C290 O292 1.274 . S
O291 Mg278 2.079 1_665 S
O291 C290 1.245 . S
O292 Mg277 2.038 1_565 S
O292 C290 1.274 . S
O293 Mg281 2.042 . S
O293 C296 1.241 . S
O294 Mg280 1.984 . S
O294 C296 1.280 . S
O295 Mg281 2.041 . S
O295 C299 1.277 . S
C296 O293 1.241 . S
C296 O294 1.280 . S
O297 Mg280 1.988 . S
O297 C299 1.245 . S
O298 C274 1.247 . S
O298 Mg280 2.061 1_655 S
C299 O295 1.277 . S
C299 O297 1.245 . S
O300 C274 1.289 . S
O300 Mg277 2.238 1_565 S
O300 Mg278 2.106 1_665 S
O301 Mg278 2.079 . S
O301 C283 1.245 . S
O302 Mg281 2.038 1_545 S
O302 C283 1.274 . S
C303 O315 1.241 . S
C303 O316 1.280 . S
C304 O317 1.277 . S
C304 O318 1.245 . S
C305 O329 1.247 . S
C305 O331 1.289 . S
Mg306 O307 1.926 . S
Mg306 O316 1.984 . S
Mg306 O318 1.988 1_554 S
Mg306 O319 2.061 . S
O307 Mg306 1.926 . S
O307 Mg308 1.986 . S
O307 Mg309 1.917 . S
Mg308 O307 1.986 . S
Mg308 O315 2.042 . S
Mg308 O317 2.041 1_554 S
Mg308 O323 2.038 1_545 S
Mg308 O331 2.238 1_544 S
Mg309 O307 1.917 . S
Mg309 O310 1.917 1_544 S
Mg309 O320 2.106 . S
Mg309 O322 2.079 1_545 S
Mg309 O331 2.106 1_544 S
Mg309 O332 2.079 1_554 S
O310 Mg309 1.917 1_566 S
O310 Mg311 1.926 . S
O310 Mg312 1.986 . S
Mg311 O310 1.926 . S
Mg311 O325 1.984 . S
Mg311 O328 1.988 1_556 S
Mg311 O329 2.061 . S
Mg312 O310 1.986 . S
Mg312 O320 2.238 1_566 S
Mg312 O324 2.042 . S
Mg312 O326 2.041 1_556 S
Mg312 O333 2.038 1_565 S
C313 O319 1.247 . S
C313 O320 1.289 . S
C314 O332 1.245 . S
C314 O333 1.274 . S
O315 C303 1.241 . S
O315 Mg308 2.042 . S
O316 C303 1.280 . S
O316 Mg306 1.984 . S
O317 C304 1.277 . S
O317 Mg308 2.041 1_556 S
O318 C304 1.245 . S
O318 Mg306 1.988 1_556 S
O319 Mg306 2.061 . S
O319 C313 1.247 . S
O320 Mg309 2.106 . S
O320 Mg312 2.238 1_544 S
O320 C313 1.289 . S
C321 O322 1.245 . S
C321 O323 1.274 . S
O322 Mg309 2.079 1_565 S
O322 C321 1.245 . S
O323 Mg308 2.038 1_565 S
O323 C321 1.274 . S
O324 Mg312 2.042 . S
O324 C327 1.241 . S
O325 Mg311 1.984 . S
O325 C327 1.280 . S
O326 Mg312 2.041 1_554 S
O326 C330 1.277 . S
C327 O324 1.241 . S
C327 O325 1.280 . S
O328 Mg311 1.988 1_554 S
O328 C330 1.245 . S
O329 C305 1.247 . S
O329 Mg311 2.061 . S
C330 O326 1.277 . S
C330 O328 1.245 . S
O331 C305 1.289 . S
O331 Mg308 2.238 1_566 S
O331 Mg309 2.106 1_566 S
O332 Mg309 2.079 1_556 S
O332 C314 1.245 . S
O333 Mg312 2.038 1_545 S
O333 C314 1.274 . S
C334 O346 1.241 . S
C334 O347 1.280 . S
C335 O348 1.277 . S
C335 O349 1.245 . S
C336 O360 1.247 . S
C336 O362 1.289 . S
Mg337 O338 1.926 . S
Mg337 O347 1.984 . S
Mg337 O349 1.988 1_554 S
Mg337 O350 2.061 1_655 S
O338 Mg337 1.926 . S
O338 Mg339 1.986 . S
O338 Mg340 1.917 1_655 S
Mg339 O338 1.986 . S
Mg339 O346 2.042 . S
Mg339 O348 2.041 1_554 S
Mg339 O354 2.038 . S
Mg339 O362 2.238 1_554 S
Mg340 O338 1.917 1_455 S
Mg340 O341 1.917 1_554 S
Mg340 O351 2.106 . S
Mg340 O353 2.079 1_455 S
Mg340 O362 2.106 1_454 S
Mg340 O363 2.079 1_554 S
O341 Mg340 1.917 1_556 S
O341 Mg342 1.926 . S
O341 Mg343 1.986 . S
Mg342 O341 1.926 . S
Mg342 O356 1.984 . S
Mg342 O359 1.988 1_556 S
Mg342 O360 2.061 1_455 S
Mg343 O341 1.986 . S
Mg343 O351 2.238 1_556 S
Mg343 O355 2.042 . S
Mg343 O357 2.041 1_556 S
Mg343 O364 2.038 . S
C344 O350 1.247 . S
C344 O351 1.289 . S
C345 O363 1.245 . S
C345 O364 1.274 . S
O346 C334 1.241 . S
O346 Mg339 2.042 . S
O347 C334 1.280 . S
O347 Mg337 1.984 . S
O348 C335 1.277 . S
O348 Mg339 2.041 1_556 S
O349 C335 1.245 . S
O349 Mg337 1.988 1_556 S
O350 Mg337 2.061 1_455 S
O350 C344 1.247 . S
O351 Mg340 2.106 . S
O351 Mg343 2.238 1_554 S
O351 C344 1.289 . S
C352 O353 1.245 . S
C352 O354 1.274 . S
O353 Mg340 2.079 1_655 S
O353 C352 1.245 . S
O354 Mg339 2.038 . S
O354 C352 1.274 . S
O355 Mg343 2.042 . S
O355 C358 1.241 . S
O356 Mg342 1.984 . S
O356 C358 1.280 . S
O357 Mg343 2.041 1_554 S
O357 C361 1.277 . S
C358 O355 1.241 . S
C358 O356 1.280 . S
O359 Mg342 1.988 1_554 S
O359 C361 1.245 . S
O360 C336 1.247 . S
O360 Mg342 2.061 1_655 S
C361 O357 1.277 . S
C361 O359 1.245 . S
O362 C336 1.289 . S
O362 Mg339 2.238 1_556 S
O362 Mg340 2.106 1_656 S
O363 Mg340 2.079 1_556 S
O363 C345 1.245 . S
O364 Mg343 2.038 . S
O364 C345 1.274 . S
C365 O377 1.241 . S
C365 O378 1.280 . S
C366 O379 1.277 . S
C366 O380 1.245 . S
C367 O391 1.247 . S
C367 O393 1.289 . S
Mg368 O369 1.926 . S
Mg368 O378 1.984 . S
Mg368 O380 1.988 1_554 S
Mg368 O381 2.061 . S
O369 Mg368 1.926 . S
O369 Mg370 1.986 . S
O369 Mg371 1.917 . S
Mg370 O369 1.986 . S
Mg370 O377 2.042 . S
Mg370 O379 2.041 1_554 S
Mg370 O385 2.038 . S
Mg370 O393 2.238 1_554 S
Mg371 O369 1.917 . S
Mg371 O372 1.917 1_554 S
Mg371 O382 2.106 . S
Mg371 O384 2.079 . S
Mg371 O393 2.106 1_554 S
Mg371 O394 2.079 1_554 S
O372 Mg371 1.917 1_556 S
O372 Mg373 1.926 . S
O372 Mg374 1.986 . S
Mg373 O372 1.926 . S
Mg373 O387 1.984 . S
Mg373 O390 1.988 1_556 S
Mg373 O391 2.061 . S
Mg374 O372 1.986 . S
Mg374 O382 2.238 1_556 S
Mg374 O386 2.042 . S
Mg374 O388 2.041 1_556 S
Mg374 O395 2.038 . S
C375 O381 1.247 . S
C375 O382 1.289 . S
C376 O394 1.245 . S
C376 O395 1.274 . S
O377 C365 1.241 . S
O377 Mg370 2.042 . S
O378 C365 1.280 . S
O378 Mg368 1.984 . S
O379 C366 1.277 . S
O379 Mg370 2.041 1_556 S
O380 C366 1.245 . S
O380 Mg368 1.988 1_556 S
O381 Mg368 2.061 . S
O381 C375 1.247 . S
O382 Mg371 2.106 . S
O382 Mg374 2.238 1_554 S
O382 C375 1.289 . S
C383 O384 1.245 . S
C383 O385 1.274 . S
O384 Mg371 2.079 . S
O384 C383 1.245 . S
O385 Mg370 2.038 . S
O385 C383 1.274 . S
O386 Mg374 2.042 . S
O386 C389 1.241 . S
O387 Mg373 1.984 . S
O387 C389 1.280 . S
O388 Mg374 2.041 1_554 S
O388 C392 1.277 . S
C389 O386 1.241 . S
C389 O387 1.280 . S
O390 Mg373 1.988 1_554 S
O390 C392 1.245 . S
O391 C367 1.247 . S
O391 Mg373 2.061 . S
C392 O388 1.277 . S
C392 O390 1.245 . S
O393 C367 1.289 . S
O393 Mg370 2.238 1_556 S
O393 Mg371 2.106 1_556 S
O394 Mg371 2.079 1_556 S
O394 C376 1.245 . S
O395 Mg374 2.038 . S
O395 C376 1.274 . S
C396 O408 1.241 . S
C396 O409 1.280 . S
C397 O410 1.277 . S
C397 O411 1.245 . S
C398 O422 1.247 . S
C398 O424 1.289 . S
Mg399 O400 1.926 . S
Mg399 O409 1.984 . S
Mg399 O411 1.988 . S
Mg399 O412 2.061 1_655 S
O400 Mg399 1.926 . S
O400 Mg401 1.986 . S
O400 Mg402 1.917 1_655 S
Mg401 O400 1.986 . S
Mg401 O408 2.042 . S
Mg401 O410 2.041 . S
Mg401 O416 2.038 . S
Mg401 O424 2.238 . S
Mg402 O400 1.917 1_455 S
Mg402 O403 1.917 . S
Mg402 O413 2.106 . S
Mg402 O415 2.079 1_455 S
Mg402 O424 2.106 1_455 S
Mg402 O425 2.079 . S
O403 Mg402 1.917 . S
O403 Mg404 1.926 . S
O403 Mg405 1.986 . S
Mg404 O403 1.926 . S
Mg404 O418 1.984 . S
Mg404 O421 1.988 . S
Mg404 O422 2.061 1_455 S
Mg405 O403 1.986 . S
Mg405 O413 2.238 . S
Mg405 O417 2.042 . S
Mg405 O419 2.041 . S
Mg405 O426 2.038 . S
C406 O412 1.247 . S
C406 O413 1.289 . S
C407 O425 1.245 . S
C407 O426 1.274 . S
O408 C396 1.241 . S
O408 Mg401 2.042 . S
O409 C396 1.280 . S
O409 Mg399 1.984 . S
O410 C397 1.277 . S
O410 Mg401 2.041 . S
O411 C397 1.245 . S
O411 Mg399 1.988 . S
O412 Mg399 2.061 1_455 S
O412 C406 1.247 . S
O413 Mg402 2.106 . S
O413 Mg405 2.238 . S
O413 C406 1.289 . S
C414 O415 1.245 . S
C414 O416 1.274 . S
O415 Mg402 2.079 1_655 S
O415 C414 1.245 . S
O416 Mg401 2.038 . S
O416 C414 1.274 . S
O417 Mg405 2.042 . S
O417 C420 1.241 . S
O418 Mg404 1.984 . S
O418 C420 1.280 . S
O419 Mg405 2.041 . S
O419 C423 1.277 . S
C420 O417 1.241 . S
C420 O418 1.280 . S
O421 Mg404 1.988 . S
O421 C423 1.245 . S
O422 C398 1.247 . S
O422 Mg404 2.061 1_655 S
C423 O419 1.277 . S
C423 O421 1.245 . S
O424 C398 1.289 . S
O424 Mg401 2.238 . S
O424 Mg402 2.106 1_655 S
O425 Mg402 2.079 . S
O425 C407 1.245 . S
O426 Mg405 2.038 . S
O426 C407 1.274 . S
C427 O439 1.241 . S
C427 O440 1.280 . S
C428 O441 1.277 . S
C428 O442 1.245 . S
C429 O453 1.247 . S
C429 O455 1.289 . S
Mg430 O431 1.926 . S
Mg430 O440 1.984 . S
Mg430 O442 1.988 . S
Mg430 O443 2.061 . S
O431 Mg430 1.926 . S
O431 Mg432 1.986 . S
O431 Mg433 1.917 . S
Mg432 O431 1.986 . S
Mg432 O439 2.042 . S
Mg432 O441 2.041 . S
Mg432 O447 2.038 1_545 S
Mg432 O455 2.238 1_545 S
Mg433 O431 1.917 . S
Mg433 O434 1.917 1_545 S
Mg433 O444 2.106 . S
Mg433 O446 2.079 1_545 S
Mg433 O455 2.106 1_545 S
Mg433 O456 2.079 . S
O434 Mg433 1.917 1_565 S
O434 Mg435 1.926 . S
O434 Mg436 1.986 . S
Mg435 O434 1.926 . S
Mg435 O449 1.984 . S
Mg435 O452 1.988 . S
Mg435 O453 2.061 . S
Mg436 O434 1.986 . S
Mg436 O444 2.238 1_565 S
Mg436 O448 2.042 . S
Mg436 O450 2.041 . S
Mg436 O457 2.038 1_565 S
C437 O443 1.247 . S
C437 O444 1.289 . S
C438 O456 1.245 . S
C438 O457 1.274 . S
O439 C427 1.241 . S
O439 Mg432 2.042 . S
O440 C427 1.280 . S
O440 Mg430 1.984 . S
O441 C428 1.277 . S
O441 Mg432 2.041 . S
O442 C428 1.245 . S
O442 Mg430 1.988 . S
O443 Mg430 2.061 . S
O443 C437 1.247 . S
O444 Mg433 2.106 . S
O444 Mg436 2.238 1_545 S
O444 C437 1.289 . S
C445 O446 1.245 . S
C445 O447 1.274 . S
O446 Mg433 2.079 1_565 S
O446 C445 1.245 . S
O447 Mg432 2.038 1_565 S
O447 C445 1.274 . S
O448 Mg436 2.042 . S
O448 C451 1.241 . S
O449 Mg435 1.984 . S
O449 C451 1.280 . S
O450 Mg436 2.041 . S
O450 C454 1.277 . S
C451 O448 1.241 . S
C451 O449 1.280 . S
O452 Mg435 1.988 . S
O452 C454 1.245 . S
O453 C429 1.247 . S
O453 Mg435 2.061 . S
C454 O450 1.277 . S
C454 O452 1.245 . S
O455 C429 1.289 . S
O455 Mg432 2.238 1_565 S
O455 Mg433 2.106 1_565 S
O456 Mg433 2.079 . S
O456 C438 1.245 . S
O457 Mg436 2.038 1_545 S
O457 C438 1.274 . S
C458 C459 1.349 . S
C458 C460 1.327 . S
C458 H483 0.950 . S
C459 C458 1.349 . S
C459 C475 1.349 . S
C460 C458 1.327 . S
C460 C479 1.429 . S
C460 H484 0.950 . S
C461 C478 1.574 . S
C461 C480 1.368 . S
C461 H485 0.949 . S
H462 C466 0.949 . S
C463 C464 1.349 . S
C463 C465 1.327 . S
C463 H486 0.950 . S
C464 C463 1.349 . S
C464 C476 1.349 . S
C465 C463 1.327 . S
C465 C481 1.429 . S
C465 H487 0.950 . S
C466 H462 0.949 . S
C466 C474 1.574 . S
C466 C482 1.368 . S
H467 C475 0.950 . S
H468 C473 0.950 . S
H469 C474 0.949 . S
H470 C476 0.950 1_565 S
H471 C477 0.950 . S
H472 C478 0.949 . S
C473 H468 0.950 . S
C473 C475 1.327 . S
C473 C479 1.429 . S
C474 C466 1.574 . S
C474 H469 0.949 . S
C474 C480 1.368 . S
C475 C459 1.349 . S
C475 H467 0.950 . S
C475 C473 1.327 . S
C476 C464 1.349 . S
C476 H470 0.950 1_545 S
C476 C477 1.327 . S
C477 H471 0.950 . S
C477 C476 1.327 . S
C477 C481 1.429 . S
C478 C461 1.574 . S
C478 H472 0.949 . S
C478 C482 1.368 . S
C479 C460 1.429 . S
C479 C473 1.429 . S
C479 C480 1.523 . S
C480 C461 1.368 . S
C480 C474 1.368 . S
C480 C479 1.523 . S
C481 C465 1.429 . S
C481 C477 1.429 . S
C481 C482 1.523 . S
C482 C466 1.368 . S
C482 C478 1.368 . S
C482 C481 1.523 . S
H483 C458 0.950 . S
H484 C460 0.950 . S
H485 C461 0.949 . S
H486 C463 0.950 . S
H487 C465 0.950 . S
C488 C489 1.349 . S
C488 C490 1.327 . S
C488 H513 0.950 . S
C489 C488 1.349 . S
C489 C505 1.349 . S
C490 C488 1.327 . S
C490 C509 1.429 . S
C490 H514 0.950 . S
C491 C508 1.574 . S
C491 C510 1.368 . S
C491 H515 0.949 . S
H492 C496 0.949 . S
C493 C494 1.349 . S
C493 C495 1.327 . S
C493 H516 0.950 . S
C494 C493 1.349 . S
C494 C506 1.349 . S
C495 C493 1.327 . S
C495 C511 1.429 . S
C495 H517 0.950 . S
C496 H492 0.949 . S
C496 C504 1.574 . S
C496 C512 1.368 . S
H497 C505 0.950 . S
H498 C503 0.950 . S
H499 C504 0.949 . S
H500 C506 0.950 . S
H501 C507 0.950 . S
H502 C508 0.949 . S
C503 H498 0.950 . S
C503 C505 1.327 . S
C503 C509 1.429 . S
C504 C496 1.574 . S
C504 H499 0.949 . S
C504 C510 1.368 . S
C505 C489 1.349 . S
C505 H497 0.950 . S
C505 C503 1.327 . S
C506 C494 1.349 . S
C506 H500 0.950 . S
C506 C507 1.327 . S
C507 H501 0.950 . S
C507 C506 1.327 . S
C507 C511 1.429 . S
C508 C491 1.574 . S
C508 H502 0.949 . S
C508 C512 1.368 . S
C509 C490 1.429 . S
C509 C503 1.429 . S
C509 C510 1.523 . S
C510 C491 1.368 . S
C510 C504 1.368 . S
C510 C509 1.523 . S
C511 C495 1.429 . S
C511 C507 1.429 . S
C511 C512 1.523 . S
C512 C496 1.368 . S
C512 C508 1.368 . S
C512 C511 1.523 . S
H513 C488 0.950 . S
H514 C490 0.950 . S
H515 C491 0.949 . S
H516 C493 0.950 . S
H517 C495 0.950 . S
C518 C519 1.349 . S
C518 C520 1.327 . S
C518 H543 0.950 . S
C519 C518 1.349 . S
C519 C535 1.349 . S
C520 C518 1.327 . S
C520 C539 1.429 . S
C520 H544 0.950 . S
C521 C538 1.574 . S
C521 C540 1.368 . S
C521 H545 0.949 . S
H522 C526 0.949 . S
C523 C524 1.349 . S
C523 C525 1.327 . S
C523 H546 0.950 . S
C524 C523 1.349 . S
C524 C536 1.349 . S
C525 C523 1.327 . S
C525 C541 1.429 . S
C525 H547 0.950 . S
C526 H522 0.949 . S
C526 C534 1.574 . S
C526 C542 1.368 . S
H527 C535 0.950 . S
H528 C533 0.950 . S
H529 C534 0.949 . S
H530 C536 0.950 . S
H531 C537 0.950 . S
H532 C538 0.949 . S
C533 H528 0.950 . S
C533 C535 1.327 . S
C533 C539 1.429 . S
C534 C526 1.574 . S
C534 H529 0.949 . S
C534 C540 1.368 . S
C535 C519 1.349 . S
C535 H527 0.950 . S
C535 C533 1.327 . S
C536 C524 1.349 . S
C536 H530 0.950 . S
C536 C537 1.327 . S
C537 H531 0.950 . S
C537 C536 1.327 . S
C537 C541 1.429 . S
C538 C521 1.574 . S
C538 H532 0.949 . S
C538 C542 1.368 . S
C539 C520 1.429 . S
C539 C533 1.429 . S
C539 C540 1.523 . S
C540 C521 1.368 . S
C540 C534 1.368 . S
C540 C539 1.523 . S
C541 C525 1.429 . S
C541 C537 1.429 . S
C541 C542 1.523 . S
C542 C526 1.368 . S
C542 C538 1.368 . S
C542 C541 1.523 . S
H543 C518 0.950 . S
H544 C520 0.950 . S
H545 C521 0.949 . S
H546 C523 0.950 . S
H547 C525 0.950 . S
C548 C549 1.349 . S
C548 C550 1.327 . S
C548 H573 0.950 . S
C549 C548 1.349 . S
C549 C565 1.349 . S
C550 C548 1.327 . S
C550 C569 1.429 . S
C550 H574 0.950 . S
C551 C568 1.574 . S
C551 C570 1.368 . S
C551 H575 0.949 . S
H552 C556 0.949 . S
C553 C554 1.349 . S
C553 C555 1.327 . S
C553 H576 0.950 . S
C554 C553 1.349 . S
C554 C566 1.349 . S
C555 C553 1.327 . S
C555 C571 1.429 . S
C555 H577 0.950 . S
C556 H552 0.949 . S
C556 C564 1.574 . S
C556 C572 1.368 . S
H557 C565 0.950 . S
H558 C563 0.950 . S
H559 C564 0.949 . S
H560 C566 0.950 . S
H561 C567 0.950 . S
H562 C568 0.949 . S
C563 H558 0.950 . S
C563 C565 1.327 . S
C563 C569 1.429 . S
C564 C556 1.574 . S
C564 H559 0.949 . S
C564 C570 1.368 . S
C565 C549 1.349 . S
C565 H557 0.950 . S
C565 C563 1.327 . S
C566 C554 1.349 . S
C566 H560 0.950 . S
C566 C567 1.327 . S
C567 H561 0.950 . S
C567 C566 1.327 . S
C567 C571 1.429 . S
C568 C551 1.574 . S
C568 H562 0.949 . S
C568 C572 1.368 . S
C569 C550 1.429 . S
C569 C563 1.429 . S
C569 C570 1.523 . S
C570 C551 1.368 . S
C570 C564 1.368 . S
C570 C569 1.523 . S
C571 C555 1.429 . S
C571 C567 1.429 . S
C571 C572 1.523 . S
C572 C556 1.368 . S
C572 C568 1.368 . S
C572 C571 1.523 . S
H573 C548 0.950 . S
H574 C550 0.950 . S
H575 C551 0.949 . S
H576 C553 0.950 . S
H577 C555 0.950 . S
C578 C579 1.349 . S
C578 C580 1.327 . S
C578 H603 0.950 . S
C579 C578 1.349 . S
C579 C595 1.349 . S
C580 C578 1.327 . S
C580 C599 1.429 . S
C580 H604 0.950 . S
C581 C598 1.574 . S
C581 C600 1.368 . S
C581 H605 0.949 . S
H582 C586 0.949 . S
C583 C584 1.349 . S
C583 C585 1.327 . S
C583 H606 0.950 . S
C584 C583 1.349 . S
C584 C596 1.349 . S
C585 C583 1.327 . S
C585 C601 1.429 . S
C585 H607 0.950 . S
C586 H582 0.949 . S
C586 C594 1.574 . S
C586 C602 1.368 . S
H587 C595 0.950 . S
H588 C593 0.950 . S
H589 C594 0.949 . S
H590 C596 0.950 . S
H591 C597 0.950 . S
H592 C598 0.949 . S
C593 H588 0.950 . S
C593 C595 1.327 . S
C593 C599 1.429 . S
C594 C586 1.574 . S
C594 H589 0.949 . S
C594 C600 1.368 . S
C595 C579 1.349 . S
C595 H587 0.950 . S
C595 C593 1.327 . S
C596 C584 1.349 . S
C596 H590 0.950 . S
C596 C597 1.327 . S
C597 H591 0.950 . S
C597 C596 1.327 . S
C597 C601 1.429 . S
C598 C581 1.574 . S
C598 H592 0.949 . S
C598 C602 1.368 . S
C599 C580 1.429 . S
C599 C593 1.429 . S
C599 C600 1.523 . S
C600 C581 1.368 . S
C600 C594 1.368 . S
C600 C599 1.523 . S
C601 C585 1.429 . S
C601 C597 1.429 . S
C601 C602 1.523 . S
C602 C586 1.368 . S
C602 C598 1.368 . S
C602 C601 1.523 . S
H603 C578 0.950 . S
H604 C580 0.950 . S
H605 C581 0.949 . S
H606 C583 0.950 . S
H607 C585 0.950 . S
C608 C609 1.349 . S
C608 C610 1.327 . S
C608 H633 0.950 . S
C609 C608 1.349 . S
C609 C625 1.349 . S
C610 C608 1.327 . S
C610 C629 1.429 . S
C610 H634 0.950 . S
C611 C628 1.574 . S
C611 C630 1.368 . S
C611 H635 0.949 . S
H612 C616 0.949 . S
C613 C614 1.349 . S
C613 C615 1.327 . S
C613 H636 0.950 . S
C614 C613 1.349 . S
C614 C626 1.349 . S
C615 C613 1.327 . S
C615 C631 1.429 . S
C615 H637 0.950 . S
C616 H612 0.949 . S
C616 C624 1.574 . S
C616 C632 1.368 . S
H617 C625 0.950 . S
H618 C623 0.950 . S
H619 C624 0.949 . S
H620 C626 0.950 . S
H621 C627 0.950 . S
H622 C628 0.949 . S
C623 H618 0.950 . S
C623 C625 1.327 . S
C623 C629 1.429 . S
C624 C616 1.574 . S
C624 H619 0.949 . S
C624 C630 1.368 . S
C625 C609 1.349 . S
C625 H617 0.950 . S
C625 C623 1.327 . S
C626 C614 1.349 . S
C626 H620 0.950 . S
C626 C627 1.327 . S
C627 H621 0.950 . S
C627 C626 1.327 . S
C627 C631 1.429 . S
C628 C611 1.574 . S
C628 H622 0.949 . S
C628 C632 1.368 . S
C629 C610 1.429 . S
C629 C623 1.429 . S
C629 C630 1.523 . S
C630 C611 1.368 . S
C630 C624 1.368 . S
C630 C629 1.523 . S
C631 C615 1.429 . S
C631 C627 1.429 . S
C631 C632 1.523 . S
C632 C616 1.368 . S
C632 C628 1.368 . S
C632 C631 1.523 . S
H633 C608 0.950 . S
H634 C610 0.950 . S
H635 C611 0.949 . S
H636 C613 0.950 . S
H637 C615 0.950 . S
C638 C639 1.349 . S
C638 C640 1.327 . S
C638 H663 0.950 . S
C639 C638 1.349 . S
C639 C655 1.349 . S
C640 C638 1.327 . S
C640 C659 1.429 . S
C640 H664 0.950 . S
C641 C658 1.574 . S
C641 C660 1.368 . S
C641 H665 0.949 . S
H642 C646 0.949 . S
C643 C644 1.349 . S
C643 C645 1.327 . S
C643 H666 0.950 . S
C644 C643 1.349 . S
C644 C656 1.349 . S
C645 C643 1.327 . S
C645 C661 1.429 . S
C645 H667 0.950 . S
C646 H642 0.949 . S
C646 C654 1.574 . S
C646 C662 1.368 . S
H647 C655 0.950 . S
H648 C653 0.950 . S
H649 C654 0.949 . S
H650 C656 0.950 . S
H651 C657 0.950 . S
H652 C658 0.949 . S
C653 H648 0.950 . S
C653 C655 1.327 . S
C653 C659 1.429 . S
C654 C646 1.574 . S
C654 H649 0.949 . S
C654 C660 1.368 . S
C655 C639 1.349 . S
C655 H647 0.950 . S
C655 C653 1.327 . S
C656 C644 1.349 . S
C656 H650 0.950 . S
C656 C657 1.327 . S
C657 H651 0.950 . S
C657 C656 1.327 . S
C657 C661 1.429 . S
C658 C641 1.574 . S
C658 H652 0.949 . S
C658 C662 1.368 . S
C659 C640 1.429 . S
C659 C653 1.429 . S
C659 C660 1.523 . S
C660 C641 1.368 . S
C660 C654 1.368 . S
C660 C659 1.523 . S
C661 C645 1.429 . S
C661 C657 1.429 . S
C661 C662 1.523 . S
C662 C646 1.368 . S
C662 C658 1.368 . S
C662 C661 1.523 . S
H663 C638 0.950 . S
H664 C640 0.950 . S
H665 C641 0.949 . S
H666 C643 0.950 . S
H667 C645 0.950 . S
C668 C669 1.349 . S
C668 C670 1.327 . S
C668 H693 0.950 . S
C669 C668 1.349 . S
C669 C685 1.349 . S
C670 C668 1.327 . S
C670 C689 1.429 . S
C670 H694 0.950 . S
C671 C688 1.574 . S
C671 C690 1.368 . S
C671 H695 0.949 . S
H672 C676 0.949 . S
C673 C674 1.349 . S
C673 C675 1.327 . S
C673 H696 0.950 . S
C674 C673 1.349 . S
C674 C686 1.349 . S
C675 C673 1.327 . S
C675 C691 1.429 . S
C675 H697 0.950 . S
C676 H672 0.949 . S
C676 C684 1.574 . S
C676 C692 1.368 . S
H677 C685 0.950 . S
H678 C683 0.950 . S
H679 C684 0.949 . S
H680 C686 0.950 . S
H681 C687 0.950 . S
H682 C688 0.949 . S
C683 H678 0.950 . S
C683 C685 1.327 . S
C683 C689 1.429 . S
C684 C676 1.574 . S
C684 H679 0.949 . S
C684 C690 1.368 . S
C685 C669 1.349 . S
C685 H677 0.950 . S
C685 C683 1.327 . S
C686 C674 1.349 . S
C686 H680 0.950 . S
C686 C687 1.327 . S
C687 H681 0.950 . S
C687 C686 1.327 . S
C687 C691 1.429 . S
C688 C671 1.574 . S
C688 H682 0.949 . S
C688 C692 1.368 . S
C689 C670 1.429 . S
C689 C683 1.429 . S
C689 C690 1.523 . S
C690 C671 1.368 . S
C690 C684 1.368 . S
C690 C689 1.523 . S
C691 C675 1.429 . S
C691 C687 1.429 . S
C691 C692 1.523 . S
C692 C676 1.368 . S
C692 C688 1.368 . S
C692 C691 1.523 . S
H693 C668 0.950 . S
H694 C670 0.950 . S
H695 C671 0.949 . S
H696 C673 0.950 . S
H697 C675 0.950 . S
C698 C699 1.349 . S
C698 C700 1.327 . S
C698 H723 0.950 . S
C699 C698 1.349 . S
C699 C715 1.349 . S
C700 C698 1.327 . S
C700 C719 1.429 . S
C700 H724 0.950 . S
C701 C718 1.574 . S
C701 C720 1.368 . S
C701 H725 0.949 . S
H702 C706 0.949 . S
C703 C704 1.349 . S
C703 C705 1.327 . S
C703 H726 0.950 . S
C704 C703 1.349 . S
C704 C716 1.349 . S
C705 C703 1.327 . S
C705 C721 1.429 . S
C705 H727 0.950 . S
C706 H702 0.949 . S
C706 C714 1.574 . S
C706 C722 1.368 . S
H707 C715 0.950 . S
H708 C713 0.950 . S
H709 C714 0.949 . S
H710 C716 0.950 . S
H711 C717 0.950 . S
H712 C718 0.949 . S
C713 H708 0.950 . S
C713 C715 1.327 . S
C713 C719 1.429 . S
C714 C706 1.574 . S
C714 H709 0.949 . S
C714 C720 1.368 . S
C715 C699 1.349 . S
C715 H707 0.950 . S
C715 C713 1.327 . S
C716 C704 1.349 . S
C716 H710 0.950 . S
C716 C717 1.327 . S
C717 H711 0.950 . S
C717 C716 1.327 . S
C717 C721 1.429 . S
C718 C701 1.574 . S
C718 H712 0.949 . S
C718 C722 1.368 . S
C719 C700 1.429 . S
C719 C713 1.429 . S
C719 C720 1.523 . S
C720 C701 1.368 . S
C720 C714 1.368 . S
C720 C719 1.523 . S
C721 C705 1.429 . S
C721 C717 1.429 . S
C721 C722 1.523 . S
C722 C706 1.368 . S
C722 C718 1.368 . S
C722 C721 1.523 . S
H723 C698 0.950 . S
H724 C700 0.950 . S
H725 C701 0.949 . S
H726 C703 0.950 . S
H727 C705 0.950 . S
C728 C729 1.349 . S
C728 C730 1.327 . S
C728 H753 0.950 . S
C729 C728 1.349 . S
C729 C745 1.349 . S
C730 C728 1.327 . S
C730 C749 1.429 . S
C730 H754 0.950 . S
C731 C748 1.574 . S
C731 C750 1.368 . S
C731 H755 0.949 . S
H732 C736 0.949 . S
C733 C734 1.349 . S
C733 C735 1.327 . S
C733 H756 0.950 . S
C734 C733 1.349 . S
C734 C746 1.349 . S
C735 C733 1.327 . S
C735 C751 1.429 . S
C735 H757 0.950 . S
C736 H732 0.949 . S
C736 C744 1.574 . S
C736 C752 1.368 . S
H737 C745 0.950 . S
H738 C743 0.950 . S
H739 C744 0.949 . S
H740 C746 0.950 . S
H741 C747 0.950 . S
H742 C748 0.949 . S
C743 H738 0.950 . S
C743 C745 1.327 . S
C743 C749 1.429 . S
C744 C736 1.574 . S
C744 H739 0.949 . S
C744 C750 1.368 . S
C745 C729 1.349 . S
C745 H737 0.950 . S
C745 C743 1.327 . S
C746 C734 1.349 . S
C746 H740 0.950 . S
C746 C747 1.327 . S
C747 H741 0.950 . S
C747 C746 1.327 . S
C747 C751 1.429 . S
C748 C731 1.574 . S
C748 H742 0.949 . S
C748 C752 1.368 . S
C749 C730 1.429 . S
C749 C743 1.429 . S
C749 C750 1.523 . S
C750 C731 1.368 . S
C750 C744 1.368 . S
C750 C749 1.523 . S
C751 C735 1.429 . S
C751 C747 1.429 . S
C751 C752 1.523 . S
C752 C736 1.368 . S
C752 C748 1.368 . S
C752 C751 1.523 . S
H753 C728 0.950 . S
H754 C730 0.950 . S
H755 C731 0.949 . S
H756 C733 0.950 . S
H757 C735 0.950 . S
C758 C759 1.349 . S
C758 C760 1.327 . S
C758 H783 0.950 . S
C759 C758 1.349 . S
C759 C775 1.349 . S
C760 C758 1.327 . S
C760 C779 1.429 . S
C760 H784 0.950 . S
C761 C778 1.574 . S
C761 C780 1.368 . S
C761 H785 0.949 . S
H762 C766 0.949 . S
C763 C764 1.349 . S
C763 C765 1.327 . S
C763 H786 0.950 . S
C764 C763 1.349 . S
C764 C776 1.349 . S
C765 C763 1.327 . S
C765 C781 1.429 . S
C765 H787 0.950 . S
C766 H762 0.949 . S
C766 C774 1.574 . S
C766 C782 1.368 . S
H767 C775 0.950 . S
H768 C773 0.950 . S
H769 C774 0.949 . S
H770 C776 0.950 . S
H771 C777 0.950 . S
H772 C778 0.949 . S
C773 H768 0.950 . S
C773 C775 1.327 . S
C773 C779 1.429 . S
C774 C766 1.574 . S
C774 H769 0.949 . S
C774 C780 1.368 . S
C775 C759 1.349 . S
C775 H767 0.950 . S
C775 C773 1.327 . S
C776 C764 1.349 . S
C776 H770 0.950 . S
C776 C777 1.327 . S
C777 H771 0.950 . S
C777 C776 1.327 . S
C777 C781 1.429 . S
C778 C761 1.574 . S
C778 H772 0.949 . S
C778 C782 1.368 . S
C779 C760 1.429 . S
C779 C773 1.429 . S
C779 C780 1.523 . S
C780 C761 1.368 . S
C780 C774 1.368 . S
C780 C779 1.523 . S
C781 C765 1.429 . S
C781 C777 1.429 . S
C781 C782 1.523 . S
C782 C766 1.368 . S
C782 C778 1.368 . S
C782 C781 1.523 . S
H783 C758 0.950 . S
H784 C760 0.950 . S
H785 C761 0.949 . S
H786 C763 0.950 . S
H787 C765 0.950 . S
C788 C789 1.349 . S
C788 C790 1.327 . S
C788 H813 0.950 . S
C789 C788 1.349 . S
C789 C805 1.349 . S
C790 C788 1.327 . S
C790 C809 1.429 . S
C790 H814 0.950 . S
C791 C808 1.574 . S
C791 C810 1.368 . S
C791 H815 0.949 . S
H792 C796 0.949 . S
C793 C794 1.349 . S
C793 C795 1.327 . S
C793 H816 0.950 . S
C794 C793 1.349 . S
C794 C806 1.349 . S
C795 C793 1.327 . S
C795 C811 1.429 . S
C795 H817 0.950 . S
C796 H792 0.949 . S
C796 C804 1.574 . S
C796 C812 1.368 . S
H797 C805 0.950 . S
H798 C803 0.950 . S
H799 C804 0.949 . S
H800 C806 0.950 . S
H801 C807 0.950 . S
H802 C808 0.949 . S
C803 H798 0.950 . S
C803 C805 1.327 . S
C803 C809 1.429 . S
C804 C796 1.574 . S
C804 H799 0.949 . S
C804 C810 1.368 . S
C805 C789 1.349 . S
C805 H797 0.950 . S
C805 C803 1.327 . S
C806 C794 1.349 . S
C806 H800 0.950 . S
C806 C807 1.327 . S
C807 H801 0.950 . S
C807 C806 1.327 . S
C807 C811 1.429 . S
C808 C791 1.574 . S
C808 H802 0.949 . S
C808 C812 1.368 . S
C809 C790 1.429 . S
C809 C803 1.429 . S
C809 C810 1.523 . S
C810 C791 1.368 . S
C810 C804 1.368 . S
C810 C809 1.523 . S
C811 C795 1.429 . S
C811 C807 1.429 . S
C811 C812 1.523 . S
C812 C796 1.368 . S
C812 C808 1.368 . S
C812 C811 1.523 . S
H813 C788 0.950 . S
H814 C790 0.950 . S
H815 C791 0.949 . S
H816 C793 0.950 . S
H817 C795 0.950 . S
C818 C819 1.349 . S
C818 C820 1.327 . S
C818 H843 0.950 . S
C819 C818 1.349 . S
C819 C835 1.349 . S
C820 C818 1.327 . S
C820 C839 1.429 . S
C820 H844 0.950 . S
C821 C838 1.574 . S
C821 C840 1.368 . S
C821 H845 0.949 . S
H822 C826 0.949 . S
C823 C824 1.349 . S
C823 C825 1.327 . S
C823 H846 0.950 . S
C824 C823 1.349 . S
C824 C836 1.349 . S
C825 C823 1.327 . S
C825 C841 1.429 . S
C825 H847 0.950 . S
C826 H822 0.949 . S
C826 C834 1.574 . S
C826 C842 1.368 . S
H827 C835 0.950 . S
H828 C833 0.950 . S
H829 C834 0.949 . S
H830 C836 0.950 . S
H831 C837 0.950 . S
H832 C838 0.949 . S
C833 H828 0.950 . S
C833 C835 1.327 . S
C833 C839 1.429 . S
C834 C826 1.574 . S
C834 H829 0.949 . S
C834 C840 1.368 . S
C835 C819 1.349 . S
C835 H827 0.950 . S
C835 C833 1.327 . S
C836 C824 1.349 . S
C836 H830 0.950 . S
C836 C837 1.327 . S
C837 H831 0.950 . S
C837 C836 1.327 . S
C837 C841 1.429 . S
C838 C821 1.574 . S
C838 H832 0.949 . S
C838 C842 1.368 . S
C839 C820 1.429 . S
C839 C833 1.429 . S
C839 C840 1.523 . S
C840 C821 1.368 . S
C840 C834 1.368 . S
C840 C839 1.523 . S
C841 C825 1.429 . S
C841 C837 1.429 . S
C841 C842 1.523 . S
C842 C826 1.368 . S
C842 C838 1.368 . S
C842 C841 1.523 . S
H843 C818 0.950 . S
H844 C820 0.950 . S
H845 C821 0.949 . S
H846 C823 0.950 . S
H847 C825 0.950 . S
C848 C849 1.349 . S
C848 C850 1.327 . S
C848 H873 0.950 . S
C849 C848 1.349 . S
C849 C865 1.349 . S
C850 C848 1.327 . S
C850 C869 1.429 . S
C850 H874 0.950 . S
C851 C868 1.574 . S
C851 C870 1.368 . S
C851 H875 0.949 . S
H852 C856 0.949 . S
C853 C854 1.349 . S
C853 C855 1.327 . S
C853 H876 0.950 . S
C854 C853 1.349 . S
C854 C866 1.349 . S
C855 C853 1.327 . S
C855 C871 1.429 . S
C855 H877 0.950 . S
C856 H852 0.949 . S
C856 C864 1.574 . S
C856 C872 1.368 . S
H857 C865 0.950 . S
H858 C863 0.950 . S
H859 C864 0.949 . S
H860 C866 0.950 . S
H861 C867 0.950 . S
H862 C868 0.949 . S
C863 H858 0.950 . S
C863 C865 1.327 . S
C863 C869 1.429 . S
C864 C856 1.574 . S
C864 H859 0.949 . S
C864 C870 1.368 . S
C865 C849 1.349 . S
C865 H857 0.950 . S
C865 C863 1.327 . S
C866 C854 1.349 . S
C866 H860 0.950 . S
C866 C867 1.327 . S
C867 H861 0.950 . S
C867 C866 1.327 . S
C867 C871 1.429 . S
C868 C851 1.574 . S
C868 H862 0.949 . S
C868 C872 1.368 . S
C869 C850 1.429 . S
C869 C863 1.429 . S
C869 C870 1.523 . S
C870 C851 1.368 . S
C870 C864 1.368 . S
C870 C869 1.523 . S
C871 C855 1.429 . S
C871 C867 1.429 . S
C871 C872 1.523 . S
C872 C856 1.368 . S
C872 C868 1.368 . S
C872 C871 1.523 . S
H873 C848 0.950 . S
H874 C850 0.950 . S
H875 C851 0.949 . S
H876 C853 0.950 . S
H877 C855 0.950 . S
C878 C879 1.349 . S
C878 C880 1.327 . S
C878 H903 0.950 . S
C879 C878 1.349 . S
C879 C895 1.349 . S
C880 C878 1.327 . S
C880 C899 1.429 . S
C880 H904 0.950 . S
C881 C898 1.574 . S
C881 C900 1.368 . S
C881 H905 0.949 . S
H882 C886 0.949 . S
C883 C884 1.349 . S
C883 C885 1.327 . S
C883 H906 0.950 . S
C884 C883 1.349 . S
C884 C896 1.349 . S
C885 C883 1.327 . S
C885 C901 1.429 . S
C885 H907 0.950 . S
C886 H882 0.949 . S
C886 C894 1.574 . S
C886 C902 1.368 . S
H887 C895 0.950 . S
H888 C893 0.950 . S
H889 C894 0.949 . S
H890 C896 0.950 . S
H891 C897 0.950 . S
H892 C898 0.949 . S
C893 H888 0.950 . S
C893 C895 1.327 . S
C893 C899 1.429 . S
C894 C886 1.574 . S
C894 H889 0.949 . S
C894 C900 1.368 . S
C895 C879 1.349 . S
C895 H887 0.950 . S
C895 C893 1.327 . S
C896 C884 1.349 . S
C896 H890 0.950 . S
C896 C897 1.327 . S
C897 H891 0.950 . S
C897 C896 1.327 . S
C897 C901 1.429 . S
C898 C881 1.574 . S
C898 H892 0.949 . S
C898 C902 1.368 . S
C899 C880 1.429 . S
C899 C893 1.429 . S
C899 C900 1.523 . S
C900 C881 1.368 . S
C900 C894 1.368 . S
C900 C899 1.523 . S
C901 C885 1.429 . S
C901 C897 1.429 . S
C901 C902 1.523 . S
C902 C886 1.368 . S
C902 C898 1.368 . S
C902 C901 1.523 . S
H903 C878 0.950 . S
H904 C880 0.950 . S
H905 C881 0.949 . S
H906 C883 0.950 . S
H907 C885 0.950 . S
C908 C909 1.349 . S
C908 C910 1.327 . S
C908 H933 0.950 . S
C909 C908 1.349 . S
C909 C925 1.349 . S
C910 C908 1.327 . S
C910 C929 1.429 . S
C910 H934 0.950 . S
C911 C928 1.574 . S
C911 C930 1.368 . S
C911 H935 0.949 . S
H912 C916 0.949 . S
C913 C914 1.349 . S
C913 C915 1.327 . S
C913 H936 0.950 . S
C914 C913 1.349 . S
C914 C926 1.349 . S
C915 C913 1.327 . S
C915 C931 1.429 . S
C915 H937 0.950 . S
C916 H912 0.949 . S
C916 C924 1.574 . S
C916 C932 1.368 . S
H917 C925 0.950 . S
H918 C923 0.950 . S
H919 C924 0.949 . S
H920 C926 0.950 . S
H921 C927 0.950 . S
H922 C928 0.949 . S
C923 H918 0.950 . S
C923 C925 1.327 . S
C923 C929 1.429 . S
C924 C916 1.574 . S
C924 H919 0.949 . S
C924 C930 1.368 . S
C925 C909 1.349 . S
C925 H917 0.950 . S
C925 C923 1.327 . S
C926 C914 1.349 . S
C926 H920 0.950 . S
C926 C927 1.327 . S
C927 H921 0.950 . S
C927 C926 1.327 . S
C927 C931 1.429 . S
C928 C911 1.574 . S
C928 H922 0.949 . S
C928 C932 1.368 . S
C929 C910 1.429 . S
C929 C923 1.429 . S
C929 C930 1.523 . S
C930 C911 1.368 . S
C930 C924 1.368 . S
C930 C929 1.523 . S
C931 C915 1.429 . S
C931 C927 1.429 . S
C931 C932 1.523 . S
C932 C916 1.368 . S
C932 C928 1.368 . S
C932 C931 1.523 . S
H933 C908 0.950 . S
H934 C910 0.950 . S
H935 C911 0.949 . S
H936 C913 0.950 . S
H937 C915 0.950 . S
C938 C939 1.349 . S
C938 C940 1.327 . S
C938 H963 0.950 . S
C939 C938 1.349 . S
C939 C955 1.349 . S
C940 C938 1.327 . S
C940 C959 1.429 . S
C940 H964 0.950 . S
C941 C958 1.574 . S
C941 C960 1.368 . S
C941 H965 0.949 . S
H942 C946 0.949 . S
C943 C944 1.349 . S
C943 C945 1.327 . S
C943 H966 0.950 . S
C944 C943 1.349 . S
C944 C956 1.349 . S
C945 C943 1.327 . S
C945 C961 1.429 . S
C945 H967 0.950 . S
C946 H942 0.949 . S
C946 C954 1.574 . S
C946 C962 1.368 . S
H947 C955 0.950 . S
H948 C953 0.950 . S
H949 C954 0.949 . S
H950 C956 0.950 . S
H951 C957 0.950 . S
H952 C958 0.949 . S
C953 H948 0.950 . S
C953 C955 1.327 . S
C953 C959 1.429 . S
C954 C946 1.574 . S
C954 H949 0.949 . S
C954 C960 1.368 . S
C955 C939 1.349 . S
C955 H947 0.950 . S
C955 C953 1.327 . S
C956 C944 1.349 . S
C956 H950 0.950 . S
C956 C957 1.327 . S
C957 H951 0.950 . S
C957 C956 1.327 . S
C957 C961 1.429 . S
C958 C941 1.574 . S
C958 H952 0.949 . S
C958 C962 1.368 . S
C959 C940 1.429 . S
C959 C953 1.429 . S
C959 C960 1.523 . S
C960 C941 1.368 . S
C960 C954 1.368 . S
C960 C959 1.523 . S
C961 C945 1.429 . S
C961 C957 1.429 . S
C961 C962 1.523 . S
C962 C946 1.368 . S
C962 C958 1.368 . S
C962 C961 1.523 . S
H963 C938 0.950 . S
H964 C940 0.950 . S
H965 C941 0.949 . S
H966 C943 0.950 . S
H967 C945 0.950 . S
C968 C969 1.349 . S
C968 C970 1.327 . S
C968 H993 0.950 . S
C969 C968 1.349 . S
C969 C985 1.349 . S
C970 C968 1.327 . S
C970 C989 1.429 . S
C970 H994 0.950 . S
C971 C988 1.574 . S
C971 C990 1.368 . S
C971 H995 0.949 . S
H972 C976 0.949 . S
C973 C974 1.349 . S
C973 C975 1.327 . S
C973 H996 0.950 . S
C974 C973 1.349 . S
C974 C986 1.349 . S
C975 C973 1.327 . S
C975 C991 1.429 . S
C975 H997 0.950 . S
C976 H972 0.949 . S
C976 C984 1.574 . S
C976 C992 1.368 . S
H977 C985 0.950 . S
H978 C983 0.950 . S
H979 C984 0.949 . S
H980 C986 0.950 . S
H981 C987 0.950 . S
H982 C988 0.949 . S
C983 H978 0.950 . S
C983 C985 1.327 . S
C983 C989 1.429 . S
C984 C976 1.574 . S
C984 H979 0.949 . S
C984 C990 1.368 . S
C985 C969 1.349 . S
C985 H977 0.950 . S
C985 C983 1.327 . S
C986 C974 1.349 . S
C986 H980 0.950 . S
C986 C987 1.327 . S
C987 H981 0.950 . S
C987 C986 1.327 . S
C987 C991 1.429 . S
C988 C971 1.574 . S
C988 H982 0.949 . S
C988 C992 1.368 . S
C989 C970 1.429 . S
C989 C983 1.429 . S
C989 C990 1.523 . S
C990 C971 1.368 . S
C990 C984 1.368 . S
C990 C989 1.523 . S
C991 C975 1.429 . S
C991 C987 1.429 . S
C991 C992 1.523 . S
C992 C976 1.368 . S
C992 C988 1.368 . S
C992 C991 1.523 . S
H993 C968 0.950 . S
H994 C970 0.950 . S
H995 C971 0.949 . S
H996 C973 0.950 . S
H997 C975 0.950 . S
C998 C999 1.349 . S
C998 C1000 1.327 . S
C998 H1023 0.950 . S
C999 C998 1.349 . S
C999 C1015 1.349 . S
C1000 C998 1.327 . S
C1000 C1019 1.429 . S
C1000 H1024 0.950 . S
C1001 C1018 1.574 . S
C1001 C1020 1.368 . S
C1001 H1025 0.949 . S
H1002 C1006 0.949 . S
C1003 C1004 1.349 . S
C1003 C1005 1.327 . S
C1003 H1026 0.950 . S
C1004 C1003 1.349 . S
C1004 C1016 1.349 . S
C1005 C1003 1.327 . S
C1005 C1021 1.429 . S
C1005 H1027 0.950 . S
C1006 H1002 0.949 . S
C1006 C1014 1.574 . S
C1006 C1022 1.368 . S
H1007 C1015 0.950 . S
H1008 C1013 0.950 . S
H1009 C1014 0.949 . S
H1010 C1016 0.950 . S
H1011 C1017 0.950 . S
H1012 C1018 0.949 . S
C1013 H1008 0.950 . S
C1013 C1015 1.327 . S
C1013 C1019 1.429 . S
C1014 C1006 1.574 . S
C1014 H1009 0.949 . S
C1014 C1020 1.368 . S
C1015 C999 1.349 . S
C1015 H1007 0.950 . S
C1015 C1013 1.327 . S
C1016 C1004 1.349 . S
C1016 H1010 0.950 . S
C1016 C1017 1.327 . S
C1017 H1011 0.950 . S
C1017 C1016 1.327 . S
C1017 C1021 1.429 . S
C1018 C1001 1.574 . S
C1018 H1012 0.949 . S
C1018 C1022 1.368 . S
C1019 C1000 1.429 . S
C1019 C1013 1.429 . S
C1019 C1020 1.523 . S
C1020 C1001 1.368 . S
C1020 C1014 1.368 . S
C1020 C1019 1.523 . S
C1021 C1005 1.429 . S
C1021 C1017 1.429 . S
C1021 C1022 1.523 . S
C1022 C1006 1.368 . S
C1022 C1018 1.368 . S
C1022 C1021 1.523 . S
H1023 C998 0.950 . S
H1024 C1000 0.950 . S
H1025 C1001 0.949 . S
H1026 C1003 0.950 . S
H1027 C1005 0.950 . S
C1028 C1029 1.349 . S
C1028 C1030 1.327 . S
C1028 H1053 0.950 . S
C1029 C1028 1.349 . S
C1029 C1045 1.349 . S
C1030 C1028 1.327 . S
C1030 C1049 1.429 . S
C1030 H1054 0.950 . S
C1031 C1048 1.574 . S
C1031 C1050 1.368 . S
C1031 H1055 0.949 . S
H1032 C1036 0.949 . S
C1033 C1034 1.349 . S
C1033 C1035 1.327 . S
C1033 H1056 0.950 . S
C1034 C1033 1.349 . S
C1034 C1046 1.349 . S
C1035 C1033 1.327 . S
C1035 C1051 1.429 . S
C1035 H1057 0.950 . S
C1036 H1032 0.949 . S
C1036 C1044 1.574 . S
C1036 C1052 1.368 . S
H1037 C1045 0.950 . S
H1038 C1043 0.950 . S
H1039 C1044 0.949 . S
H1040 C1046 0.950 . S
H1041 C1047 0.950 . S
H1042 C1048 0.949 . S
C1043 H1038 0.950 . S
C1043 C1045 1.327 . S
C1043 C1049 1.429 . S
C1044 C1036 1.574 . S
C1044 H1039 0.949 . S
C1044 C1050 1.368 . S
C1045 C1029 1.349 . S
C1045 H1037 0.950 . S
C1045 C1043 1.327 . S
C1046 C1034 1.349 . S
C1046 H1040 0.950 . S
C1046 C1047 1.327 . S
C1047 H1041 0.950 . S
C1047 C1046 1.327 . S
C1047 C1051 1.429 . S
C1048 C1031 1.574 . S
C1048 H1042 0.949 . S
C1048 C1052 1.368 . S
C1049 C1030 1.429 . S
C1049 C1043 1.429 . S
C1049 C1050 1.523 . S
C1050 C1031 1.368 . S
C1050 C1044 1.368 . S
C1050 C1049 1.523 . S
C1051 C1035 1.429 . S
C1051 C1047 1.429 . S
C1051 C1052 1.523 . S
C1052 C1036 1.368 . S
C1052 C1048 1.368 . S
C1052 C1051 1.523 . S
H1053 C1028 0.950 . S
H1054 C1030 0.950 . S
H1055 C1031 0.949 . S
H1056 C1033 0.950 . S
H1057 C1035 0.950 . S
C1058 C1059 1.349 . S
C1058 C1060 1.327 . S
C1058 H1083 0.950 . S
C1059 C1058 1.349 . S
C1059 C1075 1.349 . S
C1060 C1058 1.327 . S
C1060 C1079 1.429 . S
C1060 H1084 0.950 . S
C1061 C1078 1.574 . S
C1061 C1080 1.368 . S
C1061 H1085 0.949 . S
H1062 C1066 0.949 . S
C1063 C1064 1.349 . S
C1063 C1065 1.327 . S
C1063 H1086 0.950 . S
C1064 C1063 1.349 . S
C1064 C1076 1.349 . S
C1065 C1063 1.327 . S
C1065 C1081 1.429 . S
C1065 H1087 0.950 . S
C1066 H1062 0.949 . S
C1066 C1074 1.574 . S
C1066 C1082 1.368 . S
H1067 C1075 0.950 . S
H1068 C1073 0.950 . S
H1069 C1074 0.949 . S
H1070 C1076 0.950 . S
H1071 C1077 0.950 . S
H1072 C1078 0.949 . S
C1073 H1068 0.950 . S
C1073 C1075 1.327 . S
C1073 C1079 1.429 . S
C1074 C1066 1.574 . S
C1074 H1069 0.949 . S
C1074 C1080 1.368 . S
C1075 C1059 1.349 . S
C1075 H1067 0.950 . S
C1075 C1073 1.327 . S
C1076 C1064 1.349 . S
C1076 H1070 0.950 . S
C1076 C1077 1.327 . S
C1077 H1071 0.950 . S
C1077 C1076 1.327 . S
C1077 C1081 1.429 . S
C1078 C1061 1.574 . S
C1078 H1072 0.949 . S
C1078 C1082 1.368 . S
C1079 C1060 1.429 . S
C1079 C1073 1.429 . S
C1079 C1080 1.523 . S
C1080 C1061 1.368 . S
C1080 C1074 1.368 . S
C1080 C1079 1.523 . S
C1081 C1065 1.429 . S
C1081 C1077 1.429 . S
C1081 C1082 1.523 . S
C1082 C1066 1.368 . S
C1082 C1078 1.368 . S
C1082 C1081 1.523 . S
H1083 C1058 0.950 . S
H1084 C1060 0.950 . S
H1085 C1061 0.949 . S
H1086 C1063 0.950 . S
H1087 C1065 0.950 . S
C1088 C1089 1.349 . S
C1088 C1090 1.327 . S
C1088 H1113 0.950 . S
C1089 C1088 1.349 . S
C1089 C1105 1.349 . S
C1090 C1088 1.327 . S
C1090 C1109 1.429 . S
C1090 H1114 0.950 . S
C1091 C1108 1.574 . S
C1091 C1110 1.368 . S
C1091 H1115 0.949 . S
H1092 C1096 0.949 . S
C1093 C1094 1.349 . S
C1093 C1095 1.327 . S
C1093 H1116 0.950 . S
C1094 C1093 1.349 . S
C1094 C1106 1.349 . S
C1095 C1093 1.327 . S
C1095 C1111 1.429 . S
C1095 H1117 0.950 . S
C1096 H1092 0.949 . S
C1096 C1104 1.574 . S
C1096 C1112 1.368 . S
H1097 C1105 0.950 . S
H1098 C1103 0.950 . S
H1099 C1104 0.949 . S
H1100 C1106 0.950 . S
H1101 C1107 0.950 . S
H1102 C1108 0.949 . S
C1103 H1098 0.950 . S
C1103 C1105 1.327 . S
C1103 C1109 1.429 . S
C1104 C1096 1.574 . S
C1104 H1099 0.949 . S
C1104 C1110 1.368 . S
C1105 C1089 1.349 . S
C1105 H1097 0.950 . S
C1105 C1103 1.327 . S
C1106 C1094 1.349 . S
C1106 H1100 0.950 . S
C1106 C1107 1.327 . S
C1107 H1101 0.950 . S
C1107 C1106 1.327 . S
C1107 C1111 1.429 . S
C1108 C1091 1.574 . S
C1108 H1102 0.949 . S
C1108 C1112 1.368 . S
C1109 C1090 1.429 . S
C1109 C1103 1.429 . S
C1109 C1110 1.523 . S
C1110 C1091 1.368 . S
C1110 C1104 1.368 . S
C1110 C1109 1.523 . S
C1111 C1095 1.429 . S
C1111 C1107 1.429 . S
C1111 C1112 1.523 . S
C1112 C1096 1.368 . S
C1112 C1108 1.368 . S
C1112 C1111 1.523 . S
H1113 C1088 0.950 . S
H1114 C1090 0.950 . S
H1115 C1091 0.949 . S
H1116 C1093 0.950 . S
H1117 C1095 0.950 . S
C1118 C1119 1.349 . S
C1118 C1120 1.327 . S
C1118 H1143 0.950 . S
C1119 C1118 1.349 . S
C1119 C1135 1.349 . S
C1120 C1118 1.327 . S
C1120 C1139 1.429 . S
C1120 H1144 0.950 . S
C1121 C1138 1.574 . S
C1121 C1140 1.368 . S
C1121 H1145 0.949 . S
H1122 C1126 0.949 . S
C1123 C1124 1.349 . S
C1123 C1125 1.327 . S
C1123 H1146 0.950 . S
C1124 C1123 1.349 . S
C1124 C1136 1.349 . S
C1125 C1123 1.327 . S
C1125 C1141 1.429 . S
C1125 H1147 0.950 . S
C1126 H1122 0.949 . S
C1126 C1134 1.574 . S
C1126 C1142 1.368 . S
H1127 C1135 0.950 . S
H1128 C1133 0.950 . S
H1129 C1134 0.949 . S
H1130 C1136 0.950 . S
H1131 C1137 0.950 . S
H1132 C1138 0.949 . S
C1133 H1128 0.950 . S
C1133 C1135 1.327 . S
C1133 C1139 1.429 . S
C1134 C1126 1.574 . S
C1134 H1129 0.949 . S
C1134 C1140 1.368 . S
C1135 C1119 1.349 . S
C1135 H1127 0.950 . S
C1135 C1133 1.327 . S
C1136 C1124 1.349 . S
C1136 H1130 0.950 . S
C1136 C1137 1.327 . S
C1137 H1131 0.950 . S
C1137 C1136 1.327 . S
C1137 C1141 1.429 . S
C1138 C1121 1.574 . S
C1138 H1132 0.949 . S
C1138 C1142 1.368 . S
C1139 C1120 1.429 . S
C1139 C1133 1.429 . S
C1139 C1140 1.523 . S
C1140 C1121 1.368 . S
C1140 C1134 1.368 . S
C1140 C1139 1.523 . S
C1141 C1125 1.429 . S
C1141 C1137 1.429 . S
C1141 C1142 1.523 . S
C1142 C1126 1.368 . S
C1142 C1138 1.368 . S
C1142 C1141 1.523 . S
H1143 C1118 0.950 . S
H1144 C1120 0.950 . S
H1145 C1121 0.949 . S
H1146 C1123 0.950 . S
H1147 C1125 0.950 . S
C1148 C1149 1.349 . S
C1148 C1150 1.327 . S
C1148 H1173 0.950 . S
C1149 C1148 1.349 . S
C1149 C1165 1.349 . S
C1150 C1148 1.327 . S
C1150 C1169 1.429 . S
C1150 H1174 0.950 . S
C1151 C1168 1.574 . S
C1151 C1170 1.368 . S
C1151 H1175 0.949 . S
H1152 C1156 0.949 . S
C1153 C1154 1.349 . S
C1153 C1155 1.327 . S
C1153 H1176 0.950 . S
C1154 C1153 1.349 . S
C1154 C1166 1.349 . S
C1155 C1153 1.327 . S
C1155 C1171 1.429 . S
C1155 H1177 0.950 . S
C1156 H1152 0.949 . S
C1156 C1164 1.574 . S
C1156 C1172 1.368 . S
H1157 C1165 0.950 . S
H1158 C1163 0.950 . S
H1159 C1164 0.949 . S
H1160 C1166 0.950 . S
H1161 C1167 0.950 . S
H1162 C1168 0.949 . S
C1163 H1158 0.950 . S
C1163 C1165 1.327 . S
C1163 C1169 1.429 . S
C1164 C1156 1.574 . S
C1164 H1159 0.949 . S
C1164 C1170 1.368 . S
C1165 C1149 1.349 . S
C1165 H1157 0.950 . S
C1165 C1163 1.327 . S
C1166 C1154 1.349 . S
C1166 H1160 0.950 . S
C1166 C1167 1.327 . S
C1167 H1161 0.950 . S
C1167 C1166 1.327 . S
C1167 C1171 1.429 . S
C1168 C1151 1.574 . S
C1168 H1162 0.949 . S
C1168 C1172 1.368 . S
C1169 C1150 1.429 . S
C1169 C1163 1.429 . S
C1169 C1170 1.523 . S
C1170 C1151 1.368 . S
C1170 C1164 1.368 . S
C1170 C1169 1.523 . S
C1171 C1155 1.429 . S
C1171 C1167 1.429 . S
C1171 C1172 1.523 . S
C1172 C1156 1.368 . S
C1172 C1168 1.368 . S
C1172 C1171 1.523 . S
H1173 C1148 0.950 . S
H1174 C1150 0.950 . S
H1175 C1151 0.949 . S
H1176 C1153 0.950 . S
H1177 C1155 0.950 . S
C1178 C1179 1.349 . S
C1178 C1180 1.327 . S
C1178 H1203 0.950 . S
C1179 C1178 1.349 . S
C1179 C1195 1.349 . S
C1180 C1178 1.327 . S
C1180 C1199 1.429 . S
C1180 H1204 0.950 . S
C1181 C1198 1.574 . S
C1181 C1200 1.368 . S
C1181 H1205 0.949 . S
H1182 C1186 0.949 . S
C1183 C1184 1.349 . S
C1183 C1185 1.327 . S
C1183 H1206 0.950 . S
C1184 C1183 1.349 . S
C1184 C1196 1.349 . S
C1185 C1183 1.327 . S
C1185 C1201 1.429 . S
C1185 H1207 0.950 . S
C1186 H1182 0.949 . S
C1186 C1194 1.574 . S
C1186 C1202 1.368 . S
H1187 C1195 0.950 . S
H1188 C1193 0.950 . S
H1189 C1194 0.949 . S
H1190 C1196 0.950 . S
H1191 C1197 0.950 . S
H1192 C1198 0.949 . S
C1193 H1188 0.950 . S
C1193 C1195 1.327 . S
C1193 C1199 1.429 . S
C1194 C1186 1.574 . S
C1194 H1189 0.949 . S
C1194 C1200 1.368 . S
C1195 C1179 1.349 . S
C1195 H1187 0.950 . S
C1195 C1193 1.327 . S
C1196 C1184 1.349 . S
C1196 H1190 0.950 . S
C1196 C1197 1.327 . S
C1197 H1191 0.950 . S
C1197 C1196 1.327 . S
C1197 C1201 1.429 . S
C1198 C1181 1.574 . S
C1198 H1192 0.949 . S
C1198 C1202 1.368 . S
C1199 C1180 1.429 . S
C1199 C1193 1.429 . S
C1199 C1200 1.523 . S
C1200 C1181 1.368 . S
C1200 C1194 1.368 . S
C1200 C1199 1.523 . S
C1201 C1185 1.429 . S
C1201 C1197 1.429 . S
C1201 C1202 1.523 . S
C1202 C1186 1.368 . S
C1202 C1198 1.368 . S
C1202 C1201 1.523 . S
H1203 C1178 0.950 . S
H1204 C1180 0.950 . S
H1205 C1181 0.949 . S
H1206 C1183 0.950 . S
H1207 C1185 0.950 . S
C1208 C1209 1.349 . S
C1208 C1210 1.327 . S
C1208 H1233 0.950 . S
C1209 C1208 1.349 . S
C1209 C1225 1.349 . S
C1210 C1208 1.327 . S
C1210 C1229 1.429 . S
C1210 H1234 0.950 . S
C1211 C1228 1.574 . S
C1211 C1230 1.368 . S
C1211 H1235 0.949 . S
H1212 C1216 0.949 . S
C1213 C1214 1.349 . S
C1213 C1215 1.327 . S
C1213 H1236 0.950 . S
C1214 C1213 1.349 . S
C1214 C1226 1.349 . S
C1215 C1213 1.327 . S
C1215 C1231 1.429 . S
C1215 H1237 0.950 . S
C1216 H1212 0.949 . S
C1216 C1224 1.574 . S
C1216 C1232 1.368 . S
H1217 C1225 0.950 . S
H1218 C1223 0.950 . S
H1219 C1224 0.949 . S
H1220 C1226 0.950 . S
H1221 C1227 0.950 . S
H1222 C1228 0.949 . S
C1223 H1218 0.950 . S
C1223 C1225 1.327 . S
C1223 C1229 1.429 . S
C1224 C1216 1.574 . S
C1224 H1219 0.949 . S
C1224 C1230 1.368 . S
C1225 C1209 1.349 . S
C1225 H1217 0.950 . S
C1225 C1223 1.327 . S
C1226 C1214 1.349 . S
C1226 H1220 0.950 . S
C1226 C1227 1.327 . S
C1227 H1221 0.950 . S
C1227 C1226 1.327 . S
C1227 C1231 1.429 . S
C1228 C1211 1.574 . S
C1228 H1222 0.949 . S
C1228 C1232 1.368 . S
C1229 C1210 1.429 . S
C1229 C1223 1.429 . S
C1229 C1230 1.523 . S
C1230 C1211 1.368 . S
C1230 C1224 1.368 . S
C1230 C1229 1.523 . S
C1231 C1215 1.429 . S
C1231 C1227 1.429 . S
C1231 C1232 1.523 . S
C1232 C1216 1.368 . S
C1232 C1228 1.368 . S
C1232 C1231 1.523 . S
H1233 C1208 0.950 . S
H1234 C1210 0.950 . S
H1235 C1211 0.949 . S
H1236 C1213 0.950 . S
H1237 C1215 0.950 . S
C1238 C1239 1.349 . S
C1238 C1240 1.327 . S
C1238 H1263 0.950 . S
C1239 C1238 1.349 . S
C1239 C1255 1.349 . S
C1240 C1238 1.327 . S
C1240 C1259 1.429 . S
C1240 H1264 0.950 . S
C1241 C1258 1.574 . S
C1241 C1260 1.368 . S
C1241 H1265 0.949 . S
H1242 C1246 0.949 . S
C1243 C1244 1.349 . S
C1243 C1245 1.327 . S
C1243 H1266 0.950 . S
C1244 C1243 1.349 . S
C1244 C1256 1.349 . S
C1245 C1243 1.327 . S
C1245 C1261 1.429 . S
C1245 H1267 0.950 . S
C1246 H1242 0.949 . S
C1246 C1254 1.574 . S
C1246 C1262 1.368 . S
H1247 C1255 0.950 . S
H1248 C1253 0.950 . S
H1249 C1254 0.949 . S
H1250 C1256 0.950 . S
H1251 C1257 0.950 . S
H1252 C1258 0.949 . S
C1253 H1248 0.950 . S
C1253 C1255 1.327 . S
C1253 C1259 1.429 . S
C1254 C1246 1.574 . S
C1254 H1249 0.949 . S
C1254 C1260 1.368 . S
C1255 C1239 1.349 . S
C1255 H1247 0.950 . S
C1255 C1253 1.327 . S
C1256 C1244 1.349 . S
C1256 H1250 0.950 . S
C1256 C1257 1.327 . S
C1257 H1251 0.950 . S
C1257 C1256 1.327 . S
C1257 C1261 1.429 . S
C1258 C1241 1.574 . S
C1258 H1252 0.949 . S
C1258 C1262 1.368 . S
C1259 C1240 1.429 . S
C1259 C1253 1.429 . S
C1259 C1260 1.523 . S
C1260 C1241 1.368 . S
C1260 C1254 1.368 . S
C1260 C1259 1.523 . S
C1261 C1245 1.429 . S
C1261 C1257 1.429 . S
C1261 C1262 1.523 . S
C1262 C1246 1.368 . S
C1262 C1258 1.368 . S
C1262 C1261 1.523 . S
H1263 C1238 0.950 . S
H1264 C1240 0.950 . S
H1265 C1241 0.949 . S
H1266 C1243 0.950 . S
H1267 C1245 0.950 . S
C1268 C1269 1.349 . S
C1268 C1270 1.327 . S
C1268 H1293 0.950 . S
C1269 C1268 1.349 . S
C1269 C1285 1.349 . S
C1270 C1268 1.327 . S
C1270 C1289 1.429 . S
C1270 H1294 0.950 . S
C1271 C1288 1.574 . S
C1271 C1290 1.368 . S
C1271 H1295 0.949 . S
H1272 C1276 0.949 . S
C1273 C1274 1.349 . S
C1273 C1275 1.327 . S
C1273 H1296 0.950 . S
C1274 C1273 1.349 . S
C1274 C1286 1.349 . S
C1275 C1273 1.327 . S
C1275 C1291 1.429 . S
C1275 H1297 0.950 . S
C1276 H1272 0.949 . S
C1276 C1284 1.574 . S
C1276 C1292 1.368 . S
H1277 C1285 0.950 . S
H1278 C1283 0.950 . S
H1279 C1284 0.949 . S
H1280 C1286 0.950 . S
H1281 C1287 0.950 . S
H1282 C1288 0.949 . S
C1283 H1278 0.950 . S
C1283 C1285 1.327 . S
C1283 C1289 1.429 . S
C1284 C1276 1.574 . S
C1284 H1279 0.949 . S
C1284 C1290 1.368 . S
C1285 C1269 1.349 . S
C1285 H1277 0.950 . S
C1285 C1283 1.327 . S
C1286 C1274 1.349 . S
C1286 H1280 0.950 . S
C1286 C1287 1.327 . S
C1287 H1281 0.950 . S
C1287 C1286 1.327 . S
C1287 C1291 1.429 . S
C1288 C1271 1.574 . S
C1288 H1282 0.949 . S
C1288 C1292 1.368 . S
C1289 C1270 1.429 . S
C1289 C1283 1.429 . S
C1289 C1290 1.523 . S
C1290 C1271 1.368 . S
C1290 C1284 1.368 . S
C1290 C1289 1.523 . S
C1291 C1275 1.429 . S
C1291 C1287 1.429 . S
C1291 C1292 1.523 . S
C1292 C1276 1.368 . S
C1292 C1288 1.368 . S
C1292 C1291 1.523 . S
H1293 C1268 0.950 . S
H1294 C1270 0.950 . S
H1295 C1271 0.949 . S
H1296 C1273 0.950 . S
H1297 C1275 0.950 . S
C1298 C1299 1.349 . S
C1298 C1300 1.327 . S
C1298 H1323 0.950 . S
C1299 C1298 1.349 . S
C1299 C1315 1.349 . S
C1300 C1298 1.327 . S
C1300 C1319 1.429 . S
C1300 H1324 0.950 . S
C1301 C1318 1.574 . S
C1301 C1320 1.368 . S
C1301 H1325 0.949 . S
H1302 C1306 0.949 . S
C1303 C1304 1.349 . S
C1303 C1305 1.327 . S
C1303 H1326 0.950 . S
C1304 C1303 1.349 . S
C1304 C1316 1.349 . S
C1305 C1303 1.327 . S
C1305 C1321 1.429 . S
C1305 H1327 0.950 . S
C1306 H1302 0.949 . S
C1306 C1314 1.574 . S
C1306 C1322 1.368 . S
H1307 C1315 0.950 . S
H1308 C1313 0.950 . S
H1309 C1314 0.949 . S
H1310 C1316 0.950 . S
H1311 C1317 0.950 . S
H1312 C1318 0.949 . S
C1313 H1308 0.950 . S
C1313 C1315 1.327 . S
C1313 C1319 1.429 . S
C1314 C1306 1.574 . S
C1314 H1309 0.949 . S
C1314 C1320 1.368 . S
C1315 C1299 1.349 . S
C1315 H1307 0.950 . S
C1315 C1313 1.327 . S
C1316 C1304 1.349 . S
C1316 H1310 0.950 . S
C1316 C1317 1.327 . S
C1317 H1311 0.950 . S
C1317 C1316 1.327 . S
C1317 C1321 1.429 . S
C1318 C1301 1.574 . S
C1318 H1312 0.949 . S
C1318 C1322 1.368 . S
C1319 C1300 1.429 . S
C1319 C1313 1.429 . S
C1319 C1320 1.523 . S
C1320 C1301 1.368 . S
C1320 C1314 1.368 . S
C1320 C1319 1.523 . S
C1321 C1305 1.429 . S
C1321 C1317 1.429 . S
C1321 C1322 1.523 . S
C1322 C1306 1.368 . S
C1322 C1318 1.368 . S
C1322 C1321 1.523 . S
H1323 C1298 0.950 . S
H1324 C1300 0.950 . S
H1325 C1301 0.949 . S
H1326 C1303 0.950 . S
H1327 C1305 0.950 . S
C1328 C1329 1.349 . S
C1328 C1330 1.327 . S
C1328 H1353 0.950 . S
C1329 C1328 1.349 . S
C1329 C1345 1.349 . S
C1330 C1328 1.327 . S
C1330 C1349 1.429 . S
C1330 H1354 0.950 . S
C1331 C1348 1.574 . S
C1331 C1350 1.368 . S
C1331 H1355 0.949 . S
H1332 C1336 0.949 . S
C1333 C1334 1.349 . S
C1333 C1335 1.327 . S
C1333 H1356 0.950 . S
C1334 C1333 1.349 . S
C1334 C1346 1.349 . S
C1335 C1333 1.327 . S
C1335 C1351 1.429 . S
C1335 H1357 0.950 . S
C1336 H1332 0.949 . S
C1336 C1344 1.574 . S
C1336 C1352 1.368 . S
H1337 C1345 0.950 . S
H1338 C1343 0.950 . S
H1339 C1344 0.949 . S
H1340 C1346 0.950 . S
H1341 C1347 0.950 . S
H1342 C1348 0.949 . S
C1343 H1338 0.950 . S
C1343 C1345 1.327 . S
C1343 C1349 1.429 . S
C1344 C1336 1.574 . S
C1344 H1339 0.949 . S
C1344 C1350 1.368 . S
C1345 C1329 1.349 . S
C1345 H1337 0.950 . S
C1345 C1343 1.327 . S
C1346 C1334 1.349 . S
C1346 H1340 0.950 . S
C1346 C1347 1.327 . S
C1347 H1341 0.950 . S
C1347 C1346 1.327 . S
C1347 C1351 1.429 . S
C1348 C1331 1.574 . S
C1348 H1342 0.949 . S
C1348 C1352 1.368 . S
C1349 C1330 1.429 . S
C1349 C1343 1.429 . S
C1349 C1350 1.523 . S
C1350 C1331 1.368 . S
C1350 C1344 1.368 . S
C1350 C1349 1.523 . S
C1351 C1335 1.429 . S
C1351 C1347 1.429 . S
C1351 C1352 1.523 . S
C1352 C1336 1.368 . S
C1352 C1348 1.368 . S
C1352 C1351 1.523 . S
H1353 C1328 0.950 . S
H1354 C1330 0.950 . S
H1355 C1331 0.949 . S
H1356 C1333 0.950 . S
H1357 C1335 0.950 . S
C1358 C1359 1.349 . S
C1358 C1360 1.327 . S
C1358 H1383 0.950 . S
C1359 C1358 1.349 . S
C1359 C1375 1.349 . S
C1360 C1358 1.327 . S
C1360 C1379 1.429 . S
C1360 H1384 0.950 . S
C1361 C1378 1.574 . S
C1361 C1380 1.368 . S
C1361 H1385 0.949 . S
H1362 C1366 0.949 . S
C1363 C1364 1.349 . S
C1363 C1365 1.327 . S
C1363 H1386 0.950 . S
C1364 C1363 1.349 . S
C1364 C1376 1.349 . S
C1365 C1363 1.327 . S
C1365 C1381 1.429 . S
C1365 H1387 0.950 . S
C1366 H1362 0.949 . S
C1366 C1374 1.574 . S
C1366 C1382 1.368 . S
H1367 C1375 0.950 . S
H1368 C1373 0.950 . S
H1369 C1374 0.949 . S
H1370 C1376 0.950 . S
H1371 C1377 0.950 . S
H1372 C1378 0.949 . S
C1373 H1368 0.950 . S
C1373 C1375 1.327 . S
C1373 C1379 1.429 . S
C1374 C1366 1.574 . S
C1374 H1369 0.949 . S
C1374 C1380 1.368 . S
C1375 C1359 1.349 . S
C1375 H1367 0.950 . S
C1375 C1373 1.327 . S
C1376 C1364 1.349 . S
C1376 H1370 0.950 . S
C1376 C1377 1.327 . S
C1377 H1371 0.950 . S
C1377 C1376 1.327 . S
C1377 C1381 1.429 . S
C1378 C1361 1.574 . S
C1378 H1372 0.949 . S
C1378 C1382 1.368 . S
C1379 C1360 1.429 . S
C1379 C1373 1.429 . S
C1379 C1380 1.523 . S
C1380 C1361 1.368 . S
C1380 C1374 1.368 . S
C1380 C1379 1.523 . S
C1381 C1365 1.429 . S
C1381 C1377 1.429 . S
C1381 C1382 1.523 . S
C1382 C1366 1.368 . S
C1382 C1378 1.368 . S
C1382 C1381 1.523 . S
H1383 C1358 0.950 . S
H1384 C1360 0.950 . S
H1385 C1361 0.949 . S
H1386 C1363 0.950 . S
H1387 C1365 0.950 . S
C1388 C1389 1.349 . S
C1388 C1390 1.327 . S
C1388 H1413 0.950 . S
C1389 C1388 1.349 . S
C1389 C1405 1.349 . S
C1390 C1388 1.327 . S
C1390 C1409 1.429 . S
C1390 H1414 0.950 . S
C1391 C1408 1.574 . S
C1391 C1410 1.368 . S
C1391 H1415 0.949 . S
H1392 C1396 0.949 . S
C1393 C1394 1.349 . S
C1393 C1395 1.327 . S
C1393 H1416 0.950 . S
C1394 C1393 1.349 . S
C1394 C1406 1.349 . S
C1395 C1393 1.327 . S
C1395 C1411 1.429 . S
C1395 H1417 0.950 . S
C1396 H1392 0.949 . S
C1396 C1404 1.574 . S
C1396 C1412 1.368 . S
H1397 C1405 0.950 . S
H1398 C1403 0.950 . S
H1399 C1404 0.949 . S
H1400 C1406 0.950 . S
H1401 C1407 0.950 . S
H1402 C1408 0.949 . S
C1403 H1398 0.950 . S
C1403 C1405 1.327 . S
C1403 C1409 1.429 . S
C1404 C1396 1.574 . S
C1404 H1399 0.949 . S
C1404 C1410 1.368 . S
C1405 C1389 1.349 . S
C1405 H1397 0.950 . S
C1405 C1403 1.327 . S
C1406 C1394 1.349 . S
C1406 H1400 0.950 . S
C1406 C1407 1.327 . S
C1407 H1401 0.950 . S
C1407 C1406 1.327 . S
C1407 C1411 1.429 . S
C1408 C1391 1.574 . S
C1408 H1402 0.949 . S
C1408 C1412 1.368 . S
C1409 C1390 1.429 . S
C1409 C1403 1.429 . S
C1409 C1410 1.523 . S
C1410 C1391 1.368 . S
C1410 C1404 1.368 . S
C1410 C1409 1.523 . S
C1411 C1395 1.429 . S
C1411 C1407 1.429 . S
C1411 C1412 1.523 . S
C1412 C1396 1.368 . S
C1412 C1408 1.368 . S
C1412 C1411 1.523 . S
H1413 C1388 0.950 . S
H1414 C1390 0.950 . S
H1415 C1391 0.949 . S
H1416 C1393 0.950 . S
H1417 C1395 0.950 . S
C1418 C1419 1.349 . S
C1418 C1420 1.327 . S
C1418 H1443 0.950 . S
C1419 C1418 1.349 . S
C1419 C1435 1.349 . S
C1420 C1418 1.327 . S
C1420 C1439 1.429 . S
C1420 H1444 0.950 . S
C1421 C1438 1.574 . S
C1421 C1440 1.368 . S
C1421 H1445 0.949 . S
H1422 C1426 0.949 . S
C1423 C1424 1.349 . S
C1423 C1425 1.327 . S
C1423 H1446 0.950 . S
C1424 C1423 1.349 . S
C1424 C1436 1.349 . S
C1425 C1423 1.327 . S
C1425 C1441 1.429 . S
C1425 H1447 0.950 . S
C1426 H1422 0.949 . S
C1426 C1434 1.574 . S
C1426 C1442 1.368 . S
H1427 C1435 0.950 . S
H1428 C1433 0.950 . S
H1429 C1434 0.949 . S
H1430 C1436 0.950 . S
H1431 C1437 0.950 . S
H1432 C1438 0.949 . S
C1433 H1428 0.950 . S
C1433 C1435 1.327 . S
C1433 C1439 1.429 . S
C1434 C1426 1.574 . S
C1434 H1429 0.949 . S
C1434 C1440 1.368 . S
C1435 C1419 1.349 . S
C1435 H1427 0.950 . S
C1435 C1433 1.327 . S
C1436 C1424 1.349 . S
C1436 H1430 0.950 . S
C1436 C1437 1.327 . S
C1437 H1431 0.950 . S
C1437 C1436 1.327 . S
C1437 C1441 1.429 . S
C1438 C1421 1.574 . S
C1438 H1432 0.949 . S
C1438 C1442 1.368 . S
C1439 C1420 1.429 . S
C1439 C1433 1.429 . S
C1439 C1440 1.523 . S
C1440 C1421 1.368 . S
C1440 C1434 1.368 . S
C1440 C1439 1.523 . S
C1441 C1425 1.429 . S
C1441 C1437 1.429 . S
C1441 C1442 1.523 . S
C1442 C1426 1.368 . S
C1442 C1438 1.368 . S
C1442 C1441 1.523 . S
H1443 C1418 0.950 . S
H1444 C1420 0.950 . S
H1445 C1421 0.949 . S
H1446 C1423 0.950 . S
H1447 C1425 0.950 . S
C1448 C1449 1.349 . S
C1448 C1450 1.327 . S
C1448 H1473 0.950 . S
C1449 C1448 1.349 . S
C1449 C1465 1.349 . S
C1450 C1448 1.327 . S
C1450 C1469 1.429 . S
C1450 H1474 0.950 . S
C1451 C1468 1.574 . S
C1451 C1470 1.368 . S
C1451 H1475 0.949 . S
H1452 C1456 0.949 . S
C1453 C1454 1.349 . S
C1453 C1455 1.327 . S
C1453 H1476 0.950 . S
C1454 C1453 1.349 . S
C1454 C1466 1.349 . S
C1455 C1453 1.327 . S
C1455 C1471 1.429 . S
C1455 H1477 0.950 . S
C1456 H1452 0.949 . S
C1456 C1464 1.574 . S
C1456 C1472 1.368 . S
H1457 C1465 0.950 . S
H1458 C1463 0.950 . S
H1459 C1464 0.949 . S
H1460 C1466 0.950 . S
H1461 C1467 0.950 . S
H1462 C1468 0.949 . S
C1463 H1458 0.950 . S
C1463 C1465 1.327 . S
C1463 C1469 1.429 . S
C1464 C1456 1.574 . S
C1464 H1459 0.949 . S
C1464 C1470 1.368 . S
C1465 C1449 1.349 . S
C1465 H1457 0.950 . S
C1465 C1463 1.327 . S
C1466 C1454 1.349 . S
C1466 H1460 0.950 . S
C1466 C1467 1.327 . S
C1467 H1461 0.950 . S
C1467 C1466 1.327 . S
C1467 C1471 1.429 . S
C1468 C1451 1.574 . S
C1468 H1462 0.949 . S
C1468 C1472 1.368 . S
C1469 C1450 1.429 . S
C1469 C1463 1.429 . S
C1469 C1470 1.523 . S
C1470 C1451 1.368 . S
C1470 C1464 1.368 . S
C1470 C1469 1.523 . S
C1471 C1455 1.429 . S
C1471 C1467 1.429 . S
C1471 C1472 1.523 . S
C1472 C1456 1.368 . S
C1472 C1468 1.368 . S
C1472 C1471 1.523 . S
H1473 C1448 0.950 . S
H1474 C1450 0.950 . S
H1475 C1451 0.949 . S
H1476 C1453 0.950 . S
H1477 C1455 0.950 . S
C1478 C1479 1.349 . S
C1478 C1480 1.327 . S
C1478 H1503 0.950 . S
C1479 C1478 1.349 . S
C1479 C1495 1.349 . S
C1480 C1478 1.327 . S
C1480 C1499 1.429 . S
C1480 H1504 0.950 . S
C1481 C1498 1.574 . S
C1481 C1500 1.368 . S
C1481 H1505 0.949 . S
H1482 C1486 0.949 . S
C1483 C1484 1.349 . S
C1483 C1485 1.327 . S
C1483 H1506 0.950 . S
C1484 C1483 1.349 . S
C1484 C1496 1.349 . S
C1485 C1483 1.327 . S
C1485 C1501 1.429 . S
C1485 H1507 0.950 . S
C1486 H1482 0.949 . S
C1486 C1494 1.574 . S
C1486 C1502 1.368 . S
H1487 C1495 0.950 . S
H1488 C1493 0.950 . S
H1489 C1494 0.949 . S
H1490 C1496 0.950 . S
H1491 C1497 0.950 . S
H1492 C1498 0.949 . S
C1493 H1488 0.950 . S
C1493 C1495 1.327 . S
C1493 C1499 1.429 . S
C1494 C1486 1.574 . S
C1494 H1489 0.949 . S
C1494 C1500 1.368 . S
C1495 C1479 1.349 . S
C1495 H1487 0.950 . S
C1495 C1493 1.327 . S
C1496 C1484 1.349 . S
C1496 H1490 0.950 . S
C1496 C1497 1.327 . S
C1497 H1491 0.950 . S
C1497 C1496 1.327 . S
C1497 C1501 1.429 . S
C1498 C1481 1.574 . S
C1498 H1492 0.949 . S
C1498 C1502 1.368 . S
C1499 C1480 1.429 . S
C1499 C1493 1.429 . S
C1499 C1500 1.523 . S
C1500 C1481 1.368 . S
C1500 C1494 1.368 . S
C1500 C1499 1.523 . S
C1501 C1485 1.429 . S
C1501 C1497 1.429 . S
C1501 C1502 1.523 . S
C1502 C1486 1.368 . S
C1502 C1498 1.368 . S
C1502 C1501 1.523 . S
H1503 C1478 0.950 . S
H1504 C1480 0.950 . S
H1505 C1481 0.949 . S
H1506 C1483 0.950 . S
H1507 C1485 0.950 . S
C1508 C1509 1.349 . S
C1508 C1510 1.327 . S
C1508 H1533 0.950 . S
C1509 C1508 1.349 . S
C1509 C1525 1.349 . S
C1510 C1508 1.327 . S
C1510 C1529 1.429 . S
C1510 H1534 0.950 . S
C1511 C1528 1.574 . S
C1511 C1530 1.368 . S
C1511 H1535 0.949 . S
H1512 C1516 0.949 . S
C1513 C1514 1.349 . S
C1513 C1515 1.327 . S
C1513 H1536 0.950 . S
C1514 C1513 1.349 . S
C1514 C1526 1.349 . S
C1515 C1513 1.327 . S
C1515 C1531 1.429 . S
C1515 H1537 0.950 . S
C1516 H1512 0.949 . S
C1516 C1524 1.574 . S
C1516 C1532 1.368 . S
H1517 C1525 0.950 . S
H1518 C1523 0.950 . S
H1519 C1524 0.949 . S
H1520 C1526 0.950 . S
H1521 C1527 0.950 . S
H1522 C1528 0.949 . S
C1523 H1518 0.950 . S
C1523 C1525 1.327 . S
C1523 C1529 1.429 . S
C1524 C1516 1.574 . S
C1524 H1519 0.949 . S
C1524 C1530 1.368 . S
C1525 C1509 1.349 . S
C1525 H1517 0.950 . S
C1525 C1523 1.327 . S
C1526 C1514 1.349 . S
C1526 H1520 0.950 . S
C1526 C1527 1.327 . S
C1527 H1521 0.950 . S
C1527 C1526 1.327 . S
C1527 C1531 1.429 . S
C1528 C1511 1.574 . S
C1528 H1522 0.949 . S
C1528 C1532 1.368 . S
C1529 C1510 1.429 . S
C1529 C1523 1.429 . S
C1529 C1530 1.523 . S
C1530 C1511 1.368 . S
C1530 C1524 1.368 . S
C1530 C1529 1.523 . S
C1531 C1515 1.429 . S
C1531 C1527 1.429 . S
C1531 C1532 1.523 . S
C1532 C1516 1.368 . S
C1532 C1528 1.368 . S
C1532 C1531 1.523 . S
H1533 C1508 0.950 . S
H1534 C1510 0.950 . S
H1535 C1511 0.949 . S
H1536 C1513 0.950 . S
H1537 C1515 0.950 . S
C1538 C1539 1.349 . S
C1538 C1540 1.327 . S
C1538 H1563 0.950 . S
C1539 C1538 1.349 . S
C1539 C1555 1.349 . S
C1540 C1538 1.327 . S
C1540 C1559 1.429 . S
C1540 H1564 0.950 . S
C1541 C1558 1.574 . S
C1541 C1560 1.368 . S
C1541 H1565 0.949 . S
H1542 C1546 0.949 . S
C1543 C1544 1.349 . S
C1543 C1545 1.327 . S
C1543 H1566 0.950 . S
C1544 C1543 1.349 . S
C1544 C1556 1.349 . S
C1545 C1543 1.327 . S
C1545 C1561 1.429 . S
C1545 H1567 0.950 . S
C1546 H1542 0.949 . S
C1546 C1554 1.574 . S
C1546 C1562 1.368 . S
H1547 C1555 0.950 . S
H1548 C1553 0.950 . S
H1549 C1554 0.949 . S
H1550 C1556 0.950 . S
H1551 C1557 0.950 . S
H1552 C1558 0.949 . S
C1553 H1548 0.950 . S
C1553 C1555 1.327 . S
C1553 C1559 1.429 . S
C1554 C1546 1.574 . S
C1554 H1549 0.949 . S
C1554 C1560 1.368 . S
C1555 C1539 1.349 . S
C1555 H1547 0.950 . S
C1555 C1553 1.327 . S
C1556 C1544 1.349 . S
C1556 H1550 0.950 . S
C1556 C1557 1.327 . S
C1557 H1551 0.950 . S
C1557 C1556 1.327 . S
C1557 C1561 1.429 . S
C1558 C1541 1.574 . S
C1558 H1552 0.949 . S
C1558 C1562 1.368 . S
C1559 C1540 1.429 . S
C1559 C1553 1.429 . S
C1559 C1560 1.523 . S
C1560 C1541 1.368 . S
C1560 C1554 1.368 . S
C1560 C1559 1.523 . S
C1561 C1545 1.429 . S
C1561 C1557 1.429 . S
C1561 C1562 1.523 . S
C1562 C1546 1.368 . S
C1562 C1558 1.368 . S
C1562 C1561 1.523 . S
H1563 C1538 0.950 . S
H1564 C1540 0.950 . S
H1565 C1541 0.949 . S
H1566 C1543 0.950 . S
H1567 C1545 0.950 . S
C1568 C1569 1.349 . S
C1568 C1570 1.327 . S
C1568 H1593 0.950 . S
C1569 C1568 1.349 . S
C1569 C1585 1.349 . S
C1570 C1568 1.327 . S
C1570 C1589 1.429 . S
C1570 H1594 0.950 . S
C1571 C1588 1.574 . S
C1571 C1590 1.368 . S
C1571 H1595 0.949 . S
H1572 C1576 0.949 . S
C1573 C1574 1.349 . S
C1573 C1575 1.327 . S
C1573 H1596 0.950 . S
C1574 C1573 1.349 . S
C1574 C1586 1.349 . S
C1575 C1573 1.327 . S
C1575 C1591 1.429 . S
C1575 H1597 0.950 . S
C1576 H1572 0.949 . S
C1576 C1584 1.574 . S
C1576 C1592 1.368 . S
H1577 C1585 0.950 . S
H1578 C1583 0.950 . S
H1579 C1584 0.949 . S
H1580 C1586 0.950 . S
H1581 C1587 0.950 . S
H1582 C1588 0.949 . S
C1583 H1578 0.950 . S
C1583 C1585 1.327 . S
C1583 C1589 1.429 . S
C1584 C1576 1.574 . S
C1584 H1579 0.949 . S
C1584 C1590 1.368 . S
C1585 C1569 1.349 . S
C1585 H1577 0.950 . S
C1585 C1583 1.327 . S
C1586 C1574 1.349 . S
C1586 H1580 0.950 . S
C1586 C1587 1.327 . S
C1587 H1581 0.950 . S
C1587 C1586 1.327 . S
C1587 C1591 1.429 . S
C1588 C1571 1.574 . S
C1588 H1582 0.949 . S
C1588 C1592 1.368 . S
C1589 C1570 1.429 . S
C1589 C1583 1.429 . S
C1589 C1590 1.523 . S
C1590 C1571 1.368 . S
C1590 C1584 1.368 . S
C1590 C1589 1.523 . S
C1591 C1575 1.429 . S
C1591 C1587 1.429 . S
C1591 C1592 1.523 . S
C1592 C1576 1.368 . S
C1592 C1588 1.368 . S
C1592 C1591 1.523 . S
H1593 C1568 0.950 . S
H1594 C1570 0.950 . S
H1595 C1571 0.949 . S
H1596 C1573 0.950 . S
H1597 C1575 0.950 . S
C1598 C1599 1.349 . S
C1598 C1600 1.327 . S
C1598 H1623 0.950 . S
C1599 C1598 1.349 . S
C1599 C1615 1.349 . S
C1600 C1598 1.327 . S
C1600 C1619 1.429 . S
C1600 H1624 0.950 . S
C1601 C1618 1.574 . S
C1601 C1620 1.368 . S
C1601 H1625 0.949 . S
H1602 C1606 0.949 . S
C1603 C1604 1.349 . S
C1603 C1605 1.327 . S
C1603 H1626 0.950 . S
C1604 C1603 1.349 . S
C1604 C1616 1.349 . S
C1605 C1603 1.327 . S
C1605 C1621 1.429 . S
C1605 H1627 0.950 . S
C1606 H1602 0.949 . S
C1606 C1614 1.574 . S
C1606 C1622 1.368 . S
H1607 C1615 0.950 . S
H1608 C1613 0.950 . S
H1609 C1614 0.949 . S
H1610 C1616 0.950 . S
H1611 C1617 0.950 . S
H1612 C1618 0.949 . S
C1613 H1608 0.950 . S
C1613 C1615 1.327 . S
C1613 C1619 1.429 . S
C1614 C1606 1.574 . S
C1614 H1609 0.949 . S
C1614 C1620 1.368 . S
C1615 C1599 1.349 . S
C1615 H1607 0.950 . S
C1615 C1613 1.327 . S
C1616 C1604 1.349 . S
C1616 H1610 0.950 . S
C1616 C1617 1.327 . S
C1617 H1611 0.950 . S
C1617 C1616 1.327 . S
C1617 C1621 1.429 . S
C1618 C1601 1.574 . S
C1618 H1612 0.949 . S
C1618 C1622 1.368 . S
C1619 C1600 1.429 . S
C1619 C1613 1.429 . S
C1619 C1620 1.523 . S
C1620 C1601 1.368 . S
C1620 C1614 1.368 . S
C1620 C1619 1.523 . S
C1621 C1605 1.429 . S
C1621 C1617 1.429 . S
C1621 C1622 1.523 . S
C1622 C1606 1.368 . S
C1622 C1618 1.368 . S
C1622 C1621 1.523 . S
H1623 C1598 0.950 . S
H1624 C1600 0.950 . S
H1625 C1601 0.949 . S
H1626 C1603 0.950 . S
H1627 C1605 0.950 . S
C1628 C1629 1.349 . S
C1628 C1630 1.327 . S
C1628 H1653 0.950 . S
C1629 C1628 1.349 . S
C1629 C1645 1.349 . S
C1630 C1628 1.327 . S
C1630 C1649 1.429 . S
C1630 H1654 0.950 . S
C1631 C1648 1.574 . S
C1631 C1650 1.368 . S
C1631 H1655 0.949 . S
H1632 C1636 0.949 . S
C1633 C1634 1.349 . S
C1633 C1635 1.327 . S
C1633 H1656 0.950 . S
C1634 C1633 1.349 . S
C1634 C1646 1.349 . S
C1635 C1633 1.327 . S
C1635 C1651 1.429 . S
C1635 H1657 0.950 . S
C1636 H1632 0.949 . S
C1636 C1644 1.574 . S
C1636 C1652 1.368 . S
H1637 C1645 0.950 . S
H1638 C1643 0.950 . S
H1639 C1644 0.949 . S
H1640 C1646 0.950 . S
H1641 C1647 0.950 . S
H1642 C1648 0.949 . S
C1643 H1638 0.950 . S
C1643 C1645 1.327 . S
C1643 C1649 1.429 . S
C1644 C1636 1.574 . S
C1644 H1639 0.949 . S
C1644 C1650 1.368 . S
C1645 C1629 1.349 . S
C1645 H1637 0.950 . S
C1645 C1643 1.327 . S
C1646 C1634 1.349 . S
C1646 H1640 0.950 . S
C1646 C1647 1.327 . S
C1647 H1641 0.950 . S
C1647 C1646 1.327 . S
C1647 C1651 1.429 . S
C1648 C1631 1.574 . S
C1648 H1642 0.949 . S
C1648 C1652 1.368 . S
C1649 C1630 1.429 . S
C1649 C1643 1.429 . S
C1649 C1650 1.523 . S
C1650 C1631 1.368 . S
C1650 C1644 1.368 . S
C1650 C1649 1.523 . S
C1651 C1635 1.429 . S
C1651 C1647 1.429 . S
C1651 C1652 1.523 . S
C1652 C1636 1.368 . S
C1652 C1648 1.368 . S
C1652 C1651 1.523 . S
H1653 C1628 0.950 . S
H1654 C1630 0.950 . S
H1655 C1631 0.949 . S
H1656 C1633 0.950 . S
H1657 C1635 0.950 . S
C1658 C1659 1.349 . S
C1658 C1660 1.327 . S
C1658 H1683 0.950 . S
C1659 C1658 1.349 . S
C1659 C1675 1.349 . S
C1660 C1658 1.327 . S
C1660 C1679 1.429 . S
C1660 H1684 0.950 . S
C1661 C1678 1.574 . S
C1661 C1680 1.368 . S
C1661 H1685 0.949 . S
H1662 C1666 0.949 . S
C1663 C1664 1.349 . S
C1663 C1665 1.327 . S
C1663 H1686 0.950 . S
C1664 C1663 1.349 . S
C1664 C1676 1.349 . S
C1665 C1663 1.327 . S
C1665 C1681 1.429 . S
C1665 H1687 0.950 . S
C1666 H1662 0.949 . S
C1666 C1674 1.574 . S
C1666 C1682 1.368 . S
H1667 C1675 0.950 . S
H1668 C1673 0.950 . S
H1669 C1674 0.949 . S
H1670 C1676 0.950 . S
H1671 C1677 0.950 . S
H1672 C1678 0.949 . S
C1673 H1668 0.950 . S
C1673 C1675 1.327 . S
C1673 C1679 1.429 . S
C1674 C1666 1.574 . S
C1674 H1669 0.949 . S
C1674 C1680 1.368 . S
C1675 C1659 1.349 . S
C1675 H1667 0.950 . S
C1675 C1673 1.327 . S
C1676 C1664 1.349 . S
C1676 H1670 0.950 . S
C1676 C1677 1.327 . S
C1677 H1671 0.950 . S
C1677 C1676 1.327 . S
C1677 C1681 1.429 . S
C1678 C1661 1.574 . S
C1678 H1672 0.949 . S
C1678 C1682 1.368 . S
C1679 C1660 1.429 . S
C1679 C1673 1.429 . S
C1679 C1680 1.523 . S
C1680 C1661 1.368 . S
C1680 C1674 1.368 . S
C1680 C1679 1.523 . S
C1681 C1665 1.429 . S
C1681 C1677 1.429 . S
C1681 C1682 1.523 . S
C1682 C1666 1.368 . S
C1682 C1678 1.368 . S
C1682 C1681 1.523 . S
H1683 C1658 0.950 . S
H1684 C1660 0.950 . S
H1685 C1661 0.949 . S
H1686 C1663 0.950 . S
H1687 C1665 0.950 . S
C1688 C1689 1.349 . S
C1688 C1690 1.327 . S
C1688 H1713 0.950 . S
C1689 C1688 1.349 . S
C1689 C1705 1.349 . S
C1690 C1688 1.327 . S
C1690 C1709 1.429 . S
C1690 H1714 0.950 . S
C1691 C1708 1.574 . S
C1691 C1710 1.368 . S
C1691 H1715 0.949 . S
H1692 C1696 0.949 . S
C1693 C1694 1.349 . S
C1693 C1695 1.327 . S
C1693 H1716 0.950 . S
C1694 C1693 1.349 . S
C1694 C1706 1.349 . S
C1695 C1693 1.327 . S
C1695 C1711 1.429 . S
C1695 H1717 0.950 . S
C1696 H1692 0.949 . S
C1696 C1704 1.574 . S
C1696 C1712 1.368 . S
H1697 C1705 0.950 . S
H1698 C1703 0.950 . S
H1699 C1704 0.949 . S
H1700 C1706 0.950 . S
H1701 C1707 0.950 . S
H1702 C1708 0.949 . S
C1703 H1698 0.950 . S
C1703 C1705 1.327 . S
C1703 C1709 1.429 . S
C1704 C1696 1.574 . S
C1704 H1699 0.949 . S
C1704 C1710 1.368 . S
C1705 C1689 1.349 . S
C1705 H1697 0.950 . S
C1705 C1703 1.327 . S
C1706 C1694 1.349 . S
C1706 H1700 0.950 . S
C1706 C1707 1.327 . S
C1707 H1701 0.950 . S
C1707 C1706 1.327 . S
C1707 C1711 1.429 . S
C1708 C1691 1.574 . S
C1708 H1702 0.949 . S
C1708 C1712 1.368 . S
C1709 C1690 1.429 . S
C1709 C1703 1.429 . S
C1709 C1710 1.523 . S
C1710 C1691 1.368 . S
C1710 C1704 1.368 . S
C1710 C1709 1.523 . S
C1711 C1695 1.429 . S
C1711 C1707 1.429 . S
C1711 C1712 1.523 . S
C1712 C1696 1.368 . S
C1712 C1708 1.368 . S
C1712 C1711 1.523 . S
H1713 C1688 0.950 . S
H1714 C1690 0.950 . S
H1715 C1691 0.949 . S
H1716 C1693 0.950 . S
H1717 C1695 0.950 . S
C1718 C1719 1.349 . S
C1718 C1720 1.327 . S
C1718 H1743 0.950 . S
C1719 C1718 1.349 . S
C1719 C1735 1.349 . S
C1720 C1718 1.327 . S
C1720 C1739 1.429 . S
C1720 H1744 0.950 . S
C1721 C1738 1.574 . S
C1721 C1740 1.368 . S
C1721 H1745 0.949 . S
H1722 C1726 0.949 . S
C1723 C1724 1.349 . S
C1723 C1725 1.327 . S
C1723 H1746 0.950 . S
C1724 C1723 1.349 . S
C1724 C1736 1.349 . S
C1725 C1723 1.327 . S
C1725 C1741 1.429 . S
C1725 H1747 0.950 . S
C1726 H1722 0.949 . S
C1726 C1734 1.574 . S
C1726 C1742 1.368 . S
H1727 C1735 0.950 . S
H1728 C1733 0.950 . S
H1729 C1734 0.949 . S
H1730 C1736 0.950 . S
H1731 C1737 0.950 . S
H1732 C1738 0.949 . S
C1733 H1728 0.950 . S
C1733 C1735 1.327 . S
C1733 C1739 1.429 . S
C1734 C1726 1.574 . S
C1734 H1729 0.949 . S
C1734 C1740 1.368 . S
C1735 C1719 1.349 . S
C1735 H1727 0.950 . S
C1735 C1733 1.327 . S
C1736 C1724 1.349 . S
C1736 H1730 0.950 . S
C1736 C1737 1.327 . S
C1737 H1731 0.950 . S
C1737 C1736 1.327 . S
C1737 C1741 1.429 . S
C1738 C1721 1.574 . S
C1738 H1732 0.949 . S
C1738 C1742 1.368 . S
C1739 C1720 1.429 . S
C1739 C1733 1.429 . S
C1739 C1740 1.523 . S
C1740 C1721 1.368 . S
C1740 C1734 1.368 . S
C1740 C1739 1.523 . S
C1741 C1725 1.429 . S
C1741 C1737 1.429 . S
C1741 C1742 1.523 . S
C1742 C1726 1.368 . S
C1742 C1738 1.368 . S
C1742 C1741 1.523 . S
H1743 C1718 0.950 . S
H1744 C1720 0.950 . S
H1745 C1721 0.949 . S
H1746 C1723 0.950 . S
H1747 C1725 0.950 . S
C1748 C1749 1.349 . S
C1748 C1750 1.327 . S
C1748 H1773 0.950 . S
C1749 C1748 1.349 . S
C1749 C1765 1.349 . S
C1750 C1748 1.327 . S
C1750 C1769 1.429 . S
C1750 H1774 0.950 . S
C1751 C1768 1.574 . S
C1751 C1770 1.368 . S
C1751 H1775 0.949 . S
H1752 C1756 0.949 . S
C1753 C1754 1.349 . S
C1753 C1755 1.327 . S
C1753 H1776 0.950 . S
C1754 C1753 1.349 . S
C1754 C1766 1.349 . S
C1755 C1753 1.327 . S
C1755 C1771 1.429 . S
C1755 H1777 0.950 . S
C1756 H1752 0.949 . S
C1756 C1764 1.574 . S
C1756 C1772 1.368 . S
H1757 C1765 0.950 . S
H1758 C1763 0.950 . S
H1759 C1764 0.949 . S
H1760 C1766 0.950 . S
H1761 C1767 0.950 . S
H1762 C1768 0.949 . S
C1763 H1758 0.950 . S
C1763 C1765 1.327 . S
C1763 C1769 1.429 . S
C1764 C1756 1.574 . S
C1764 H1759 0.949 . S
C1764 C1770 1.368 . S
C1765 C1749 1.349 . S
C1765 H1757 0.950 . S
C1765 C1763 1.327 . S
C1766 C1754 1.349 . S
C1766 H1760 0.950 . S
C1766 C1767 1.327 . S
C1767 H1761 0.950 . S
C1767 C1766 1.327 . S
C1767 C1771 1.429 . S
C1768 C1751 1.574 . S
C1768 H1762 0.949 . S
C1768 C1772 1.368 . S
C1769 C1750 1.429 . S
C1769 C1763 1.429 . S
C1769 C1770 1.523 . S
C1770 C1751 1.368 . S
C1770 C1764 1.368 . S
C1770 C1769 1.523 . S
C1771 C1755 1.429 . S
C1771 C1767 1.429 . S
C1771 C1772 1.523 . S
C1772 C1756 1.368 . S
C1772 C1768 1.368 . S
C1772 C1771 1.523 . S
H1773 C1748 0.950 . S
H1774 C1750 0.950 . S
H1775 C1751 0.949 . S
H1776 C1753 0.950 . S
H1777 C1755 0.950 . S
C1778 C1779 1.349 . S
C1778 C1780 1.327 . S
C1778 H1803 0.950 . S
C1779 C1778 1.349 . S
C1779 C1795 1.349 . S
C1780 C1778 1.327 . S
C1780 C1799 1.429 . S
C1780 H1804 0.950 . S
C1781 C1798 1.574 . S
C1781 C1800 1.368 . S
C1781 H1805 0.949 . S
H1782 C1786 0.949 . S
C1783 C1784 1.349 . S
C1783 C1785 1.327 . S
C1783 H1806 0.950 . S
C1784 C1783 1.349 . S
C1784 C1796 1.349 . S
C1785 C1783 1.327 . S
C1785 C1801 1.429 . S
C1785 H1807 0.950 . S
C1786 H1782 0.949 . S
C1786 C1794 1.574 . S
C1786 C1802 1.368 . S
H1787 C1795 0.950 . S
H1788 C1793 0.950 . S
H1789 C1794 0.949 . S
H1790 C1796 0.950 . S
H1791 C1797 0.950 . S
H1792 C1798 0.949 . S
C1793 H1788 0.950 . S
C1793 C1795 1.327 . S
C1793 C1799 1.429 . S
C1794 C1786 1.574 . S
C1794 H1789 0.949 . S
C1794 C1800 1.368 . S
C1795 C1779 1.349 . S
C1795 H1787 0.950 . S
C1795 C1793 1.327 . S
C1796 C1784 1.349 . S
C1796 H1790 0.950 . S
C1796 C1797 1.327 . S
C1797 H1791 0.950 . S
C1797 C1796 1.327 . S
C1797 C1801 1.429 . S
C1798 C1781 1.574 . S
C1798 H1792 0.949 . S
C1798 C1802 1.368 . S
C1799 C1780 1.429 . S
C1799 C1793 1.429 . S
C1799 C1800 1.523 . S
C1800 C1781 1.368 . S
C1800 C1794 1.368 . S
C1800 C1799 1.523 . S
C1801 C1785 1.429 . S
C1801 C1797 1.429 . S
C1801 C1802 1.523 . S
C1802 C1786 1.368 . S
C1802 C1798 1.368 . S
C1802 C1801 1.523 . S
H1803 C1778 0.950 . S
H1804 C1780 0.950 . S
H1805 C1781 0.949 . S
H1806 C1783 0.950 . S
H1807 C1785 0.950 . S
C1808 C1809 1.349 . S
C1808 C1810 1.327 . S
C1808 H1833 0.950 . S
C1809 C1808 1.349 . S
C1809 C1825 1.349 . S
C1810 C1808 1.327 . S
C1810 C1829 1.429 . S
C1810 H1834 0.950 . S
C1811 C1828 1.574 . S
C1811 C1830 1.368 . S
C1811 H1835 0.949 . S
H1812 C1816 0.949 . S
C1813 C1814 1.349 . S
C1813 C1815 1.327 . S
C1813 H1836 0.950 . S
C1814 C1813 1.349 . S
C1814 C1826 1.349 . S
C1815 C1813 1.327 . S
C1815 C1831 1.429 . S
C1815 H1837 0.950 . S
C1816 H1812 0.949 . S
C1816 C1824 1.574 . S
C1816 C1832 1.368 . S
H1817 C1825 0.950 . S
H1818 C1823 0.950 . S
H1819 C1824 0.949 . S
H1820 C1826 0.950 . S
H1821 C1827 0.950 . S
H1822 C1828 0.949 . S
C1823 H1818 0.950 . S
C1823 C1825 1.327 . S
C1823 C1829 1.429 . S
C1824 C1816 1.574 . S
C1824 H1819 0.949 . S
C1824 C1830 1.368 . S
C1825 C1809 1.349 . S
C1825 H1817 0.950 . S
C1825 C1823 1.327 . S
C1826 C1814 1.349 . S
C1826 H1820 0.950 . S
C1826 C1827 1.327 . S
C1827 H1821 0.950 . S
C1827 C1826 1.327 . S
C1827 C1831 1.429 . S
C1828 C1811 1.574 . S
C1828 H1822 0.949 . S
C1828 C1832 1.368 . S
C1829 C1810 1.429 . S
C1829 C1823 1.429 . S
C1829 C1830 1.523 . S
C1830 C1811 1.368 . S
C1830 C1824 1.368 . S
C1830 C1829 1.523 . S
C1831 C1815 1.429 . S
C1831 C1827 1.429 . S
C1831 C1832 1.523 . S
C1832 C1816 1.368 . S
C1832 C1828 1.368 . S
C1832 C1831 1.523 . S
H1833 C1808 0.950 . S
H1834 C1810 0.950 . S
H1835 C1811 0.949 . S
H1836 C1813 0.950 . S
H1837 C1815 0.950 . S
C1838 C1839 1.349 . S
C1838 C1840 1.327 . S
C1838 H1863 0.950 . S
C1839 C1838 1.349 . S
C1839 C1855 1.349 . S
C1840 C1838 1.327 . S
C1840 C1859 1.429 . S
C1840 H1864 0.950 . S
C1841 C1858 1.574 . S
C1841 C1860 1.368 . S
C1841 H1865 0.949 . S
H1842 C1846 0.949 . S
C1843 C1844 1.349 . S
C1843 C1845 1.327 . S
C1843 H1866 0.950 . S
C1844 C1843 1.349 . S
C1844 C1856 1.349 . S
C1845 C1843 1.327 . S
C1845 C1861 1.429 . S
C1845 H1867 0.950 . S
C1846 H1842 0.949 . S
C1846 C1854 1.574 . S
C1846 C1862 1.368 . S
H1847 C1855 0.950 . S
H1848 C1853 0.950 . S
H1849 C1854 0.949 . S
H1850 C1856 0.950 . S
H1851 C1857 0.950 . S
H1852 C1858 0.949 . S
C1853 H1848 0.950 . S
C1853 C1855 1.327 . S
C1853 C1859 1.429 . S
C1854 C1846 1.574 . S
C1854 H1849 0.949 . S
C1854 C1860 1.368 . S
C1855 C1839 1.349 . S
C1855 H1847 0.950 . S
C1855 C1853 1.327 . S
C1856 C1844 1.349 . S
C1856 H1850 0.950 . S
C1856 C1857 1.327 . S
C1857 H1851 0.950 . S
C1857 C1856 1.327 . S
C1857 C1861 1.429 . S
C1858 C1841 1.574 . S
C1858 H1852 0.949 . S
C1858 C1862 1.368 . S
C1859 C1840 1.429 . S
C1859 C1853 1.429 . S
C1859 C1860 1.523 . S
C1860 C1841 1.368 . S
C1860 C1854 1.368 . S
C1860 C1859 1.523 . S
C1861 C1845 1.429 . S
C1861 C1857 1.429 . S
C1861 C1862 1.523 . S
C1862 C1846 1.368 . S
C1862 C1858 1.368 . S
C1862 C1861 1.523 . S
H1863 C1838 0.950 . S
H1864 C1840 0.950 . S
H1865 C1841 0.949 . S
H1866 C1843 0.950 . S
H1867 C1845 0.950 . S
C1868 C1869 1.349 . S
C1868 C1870 1.327 . S
C1868 H1893 0.950 . S
C1869 C1868 1.349 . S
C1869 C1885 1.349 . S
C1870 C1868 1.327 . S
C1870 C1889 1.429 . S
C1870 H1894 0.950 . S
C1871 C1888 1.574 . S
C1871 C1890 1.368 . S
C1871 H1895 0.949 . S
H1872 C1876 0.949 . S
C1873 C1874 1.349 . S
C1873 C1875 1.327 . S
C1873 H1896 0.950 . S
C1874 C1873 1.349 . S
C1874 C1886 1.349 . S
C1875 C1873 1.327 . S
C1875 C1891 1.429 . S
C1875 H1897 0.950 . S
C1876 H1872 0.949 . S
C1876 C1884 1.574 . S
C1876 C1892 1.368 . S
H1877 C1885 0.950 . S
H1878 C1883 0.950 . S
H1879 C1884 0.949 . S
H1880 C1886 0.950 . S
H1881 C1887 0.950 . S
H1882 C1888 0.949 . S
C1883 H1878 0.950 . S
C1883 C1885 1.327 . S
C1883 C1889 1.429 . S
C1884 C1876 1.574 . S
C1884 H1879 0.949 . S
C1884 C1890 1.368 . S
C1885 C1869 1.349 . S
C1885 H1877 0.950 . S
C1885 C1883 1.327 . S
C1886 C1874 1.349 . S
C1886 H1880 0.950 . S
C1886 C1887 1.327 . S
C1887 H1881 0.950 . S
C1887 C1886 1.327 . S
C1887 C1891 1.429 . S
C1888 C1871 1.574 . S
C1888 H1882 0.949 . S
C1888 C1892 1.368 . S
C1889 C1870 1.429 . S
C1889 C1883 1.429 . S
C1889 C1890 1.523 . S
C1890 C1871 1.368 . S
C1890 C1884 1.368 . S
C1890 C1889 1.523 . S
C1891 C1875 1.429 . S
C1891 C1887 1.429 . S
C1891 C1892 1.523 . S
C1892 C1876 1.368 . S
C1892 C1888 1.368 . S
C1892 C1891 1.523 . S
H1893 C1868 0.950 . S
H1894 C1870 0.950 . S
H1895 C1871 0.949 . S
H1896 C1873 0.950 . S
H1897 C1875 0.950 . S
C464 C283 0.378 . S
C459 C4 0.228 . S
C494 C273 1.696 . S
C489 C63 1.703 . S
C524 C274 0.649 . S
C519 C72 0.649 . S
C549 C102 1.624 . S
C554 C296 1.609 . S
C579 C136 1.703 . S
C584 C299 1.696 . S
C614 C282 0.649 . S
C609 C183 0.641 . S
C639 C233 1.624 . S
C644 C272 1.611 . S
C669 C251 0.232 . S
C674 C290 0.376 . S
C704 C303 1.556 . S
C699 C29 1.586 . S
C729 C42 1.881 . S
C734 C352 1.794 . S
C764 C330 1.678 . S
C759 C97 1.700 . S
C794 C344 0.636 . S
C789 C115 0.595 . S
C819 C149 0.621 . S
C824 C305 0.638 . S
C854 C358 1.590 . S
C849 C187 1.631 . S
C879 C212 1.893 . S
C884 C314 1.796 . S
C909 C255 1.683 . S
C914 C335 1.655 . S
C939 C8 1.684 . S
C944 C361 1.646 . S
C969 C153 1.881 . S
C974 C345 1.797 . S
C1004 C304 1.678 . S
C999 C170 1.702 . S
C1034 C336 0.636 . S
C1029 C208 0.605 . S
C1059 C238 1.590 . S
C1064 C327 1.560 . S
C1089 C76 1.631 . S
C1094 C334 1.589 . S
C1124 C321 1.795 . S
C1119 C119 1.892 . S
C1149 C38 0.621 . S
C1154 C313 0.632 . S
C1179 C242 0.232 . S
C1184 C376 0.381 . S
C1209 C165 1.703 . S
C1214 C366 1.699 . S
C1244 C367 0.649 . S
C1239 C174 0.647 . S
C1274 C389 1.610 . S
C1269 C204 1.626 . S
C1299 C34 1.703 . S
C1304 C392 1.693 . S
C1334 C375 0.649 . S
C1329 C81 0.644 . S
C1359 C131 1.624 . S
C1364 C365 1.607 . S
C1389 C13 0.232 . S
C1394 C383 0.376 . S
C1419 C267 1.590 . S
C1424 C396 1.558 . S
C1454 C445 1.795 . S
C1449 C144 1.883 . S
C1479 C199 1.701 . S
C1484 C423 1.676 . S
C1509 C217 0.600 . S
C1514 C437 0.636 . S
C1544 C398 0.635 . S
C1539 C47 0.622 . S
C1569 C85 1.631 . S
C1574 C451 1.591 . S
C1604 C407 1.795 . S
C1599 C110 1.891 . S
C1634 C428 1.650 . S
C1629 C17 1.682 . S
C1664 C454 1.650 . S
C1659 C246 1.685 . S
C1689 C51 1.881 . S
C1694 C438 1.794 . S
C1719 C68 1.701 . S
C1724 C397 1.680 . S
C1754 C429 0.636 . S
C1749 C106 0.601 . S
C1779 C0 1.590 . S
C1784 C420 1.555 . S
C1809 C178 1.631 . S
C1814 C427 1.589 . S
C1844 C414 1.795 . S
C1839 C221 1.895 . S
C1874 C406 0.635 . S
C1869 C140 0.620 . S
