# Generated by pormake.
# Topology ssa, (4,4)-cn, num edge types: 1
# Building blocks:
#     Node 0, Type 0, BuildingBlock: ESEHIV_clean_sbu_0, # of connection points: 4
#     Node 1, Type 0, BuildingBlock: ESEHIV_clean_sbu_0, # of connection points: 4
#     Node 2, Type 0, BuildingBlock: ESEHIV_clean_sbu_0, # of connection points: 4
#     Node 3, Type 0, BuildingBlock: ESEHIV_clean_sbu_0, # of connection points: 4
#     Node 4, Type 0, BuildingBlock: ESEHIV_clean_sbu_0, # of connection points: 4
#     Node 5, Type 0, BuildingBlock: ESEHIV_clean_sbu_0, # of connection points: 4
#     Node 6, Type 1, BuildingBlock: KOZSID_clean_sbu_0, # of connection points: 4
#     Node 7, Type 1, BuildingBlock: KOZSID_clean_sbu_0, # of connection points: 4
#     Node 8, Type 1, BuildingBlock: KOZSID_clean_sbu_0, # of connection points: 4
#     Node 9, Type 1, BuildingBlock: KOZSID_clean_sbu_0, # of connection points: 4
#     Node 10, Type 1, BuildingBlock: KOZSID_clean_sbu_0, # of connection points: 4
#     Node 11, Type 1, BuildingBlock: KOZSID_clean_sbu_0, # of connection points: 4
#     Edge 12, Type (0, 1), BuildingBlock: OJICUG_clean_linker_0, # of connection points: 2
#     Edge 13, Type (0, 1), BuildingBlock: OJICUG_clean_linker_0, # of connection points: 2
#     Edge 14, Type (0, 1), BuildingBlock: OJICUG_clean_linker_0, # of connection points: 2
#     Edge 15, Type (0, 1), BuildingBlock: OJICUG_clean_linker_0, # of connection points: 2
#     Edge 16, Type (0, 1), BuildingBlock: OJICUG_clean_linker_0, # of connection points: 2
#     Edge 17, Type (0, 1), BuildingBlock: OJICUG_clean_linker_0, # of connection points: 2
#     Edge 18, Type (0, 1), BuildingBlock: OJICUG_clean_linker_0, # of connection points: 2
#     Edge 19, Type (0, 1), BuildingBlock: OJICUG_clean_linker_0, # of connection points: 2
#     Edge 20, Type (0, 1), BuildingBlock: OJICUG_clean_linker_0, # of connection points: 2
#     Edge 21, Type (0, 1), BuildingBlock: OJICUG_clean_linker_0, # of connection points: 2
#     Edge 22, Type (0, 1), BuildingBlock: OJICUG_clean_linker_0, # of connection points: 2
#     Edge 23, Type (0, 1), BuildingBlock: OJICUG_clean_linker_0, # of connection points: 2
#     Edge 24, Type (0, 1), BuildingBlock: OJICUG_clean_linker_0, # of connection points: 2
#     Edge 25, Type (0, 1), BuildingBlock: OJICUG_clean_linker_0, # of connection points: 2
#     Edge 26, Type (0, 1), BuildingBlock: OJICUG_clean_linker_0, # of connection points: 2
#     Edge 27, Type (0, 1), BuildingBlock: OJICUG_clean_linker_0, # of connection points: 2
#     Edge 28, Type (0, 1), BuildingBlock: OJICUG_clean_linker_0, # of connection points: 2
#     Edge 29, Type (0, 1), BuildingBlock: OJICUG_clean_linker_0, # of connection points: 2
#     Edge 30, Type (0, 1), BuildingBlock: OJICUG_clean_linker_0, # of connection points: 2
#     Edge 31, Type (0, 1), BuildingBlock: OJICUG_clean_linker_0, # of connection points: 2
#     Edge 32, Type (0, 1), BuildingBlock: OJICUG_clean_linker_0, # of connection points: 2
#     Edge 33, Type (0, 1), BuildingBlock: OJICUG_clean_linker_0, # of connection points: 2
#     Edge 34, Type (0, 1), BuildingBlock: OJICUG_clean_linker_0, # of connection points: 2
#     Edge 35, Type (0, 1), BuildingBlock: OJICUG_clean_linker_0, # of connection points: 2
# Relax obj value: 0.024
# Max RMSD: 0.107
# Mean RMSD: 0.058
data_MOF--net-ssa--node1-ESEHIV_clean_sbu_0--node2-KOZSID_clean_sbu_0--edge1-OJICUG_clean_linker_0
_symmetry_space_group_name_H-M    P1
_symmetry_Int_Tables_number       1
_symmetry_cell_setting            triclinic
loop_
_symmetry_equiv_pos_as_xyz
'x, y, z'
_cell_length_a     40.62344
_cell_length_b     44.032226
_cell_length_c     29.71843
_cell_angle_alpha  91.668191
_cell_angle_beta   95.049036
_cell_angle_gamma 123.01923
loop_
_atom_site_label
_atom_site_type_symbol
_atom_site_fract_x
_atom_site_fract_y
_atom_site_fract_z
_atom_type_partial_charge
Cu0 Cu 1.0013 0.51757 0.01907 0.0
N1 N 0.95635 0.47435 0.0321 0.0
N2 N 0.90058 0.42007 0.01247 0.0
C3 C 0.93739 0.44436 1.00293 0.0
C4 C 0.89655 0.4345 0.05055 0.0
C5 C 0.93116 0.46821 0.06262 0.0
O6 O 0.9813 0.53151 0.9644 0.0
C7 C 0.05138 0.49984 0.0632 0.0
O8 O 0.02544 0.49266 0.09151 0.0
H9 H 0.94939 0.44139 0.97333 0.0
H10 H 0.93623 0.48776 0.08966 0.0
N11 N 0.01672 0.5547 0.06401 0.0
N12 N 0.05683 0.60344 0.11294 0.0
C13 C 0.05438 0.5794 0.08156 0.0
C14 C 0.99456 0.56381 0.08435 0.0
C15 C 0.01929 0.59373 0.11506 0.0
C16 C 0.96264 0.51274 0.92636 0.0
O17 O 0.96425 0.48463 0.91482 0.0
H18 H 0.0795 0.5795 0.07184 0.0
H19 H 0.96282 0.55001 0.077 0.0
O20 O 0.04658 0.51072 0.02483 0.0
H21 H 0.86954 0.42299 0.06611 0.0
H22 H 1.01047 0.60764 0.13665 0.0
Cu23 Cu 0.54393 0.01996 0.52672 0.0
N24 N 0.56467 0.01045 0.47721 0.0
N25 N 0.57588 0.97687 0.42966 0.0
C26 C 0.55986 0.97791 0.4674 0.0
C27 C 0.59136 0.01043 0.4152 0.0
C28 C 0.58437 0.03092 0.44438 0.0
O29 O 0.48987 0.9781 0.5194 0.0
C30 C 0.61208 0.04054 0.58341 0.0
O31 O 0.62605 0.04279 0.5446 0.0
H32 H 0.54404 0.95519 0.48743 0.0
H33 H 0.59293 0.05869 0.44167 0.0
N34 N 0.54406 0.06327 0.53053 0.0
N35 N 0.54153 0.10893 0.56316 0.0
C36 C 0.54277 0.07916 0.56961 0.0
C37 C 0.54396 0.08395 0.49814 0.0
C38 C 0.54228 0.11188 0.51802 0.0
C39 C 0.47115 0.97534 0.48117 0.0
O40 O 0.48775 1.00266 0.45583 0.0
H41 H 0.54187 0.06847 0.60214 0.0
H42 H 0.54466 0.07894 0.4625 0.0
O43 O 0.57491 0.02498 0.58325 0.0
H44 H 0.60691 0.01984 0.38576 0.0
H45 H 0.54189 0.13287 0.50041 0.0
Cu46 Cu 0.5313 0.52296 0.01412 0.0
N47 N 0.52129 0.47528 1.00776 0.0
N48 N 0.51778 0.42658 0.9742 0.0
C49 C 0.52383 0.45976 0.96916 0.0
C50 C 0.51101 0.4211 0.01793 0.0
C51 C 0.51318 0.45094 0.03838 0.0
O52 O 0.5745 0.54997 0.97866 0.0
C53 C 0.45015 0.49618 0.99932 0.0
O54 O 0.44468 0.46407 1.0021 0.0
H55 H 0.53113 0.47318 0.93822 0.0
H56 H 0.50939 0.45464 0.07322 0.0
N57 N 0.547 0.54828 0.07261 0.0
N58 N 0.55816 0.59271 0.1241 0.0
C59 C 0.55242 0.58131 0.07952 0.0
C60 C 0.54948 0.53818 0.11438 0.0
C61 C 0.55651 0.56547 0.14605 0.0
C62 C 0.60607 0.55279 0.99559 0.0
O63 O 0.60733 0.54262 0.03651 0.0
H64 H 0.55095 0.5961 0.05186 0.0
H65 H 0.54503 0.51235 0.12147 0.0
O66 O 0.48457 0.52335 0.99504 0.0
H67 H 0.50473 0.39714 0.0342 0.0
H68 H 0.55859 0.56441 0.18244 0.0
Cu69 Cu 1.00037 0.48719 0.51679 0.0
N70 N 1.00914 0.46263 0.47193 0.0
N71 N 0.04182 0.45373 0.42184 0.0
C72 C 0.04457 0.47048 0.46214 0.0
C73 C 1.00285 0.43407 0.40612 0.0
C74 C 0.98288 0.43974 0.43692 0.0
O75 O 0.04099 0.53994 0.51297 0.0
C76 C 0.96596 0.42712 0.56994 0.0
O77 O 0.95586 0.41038 0.52899 0.0
H78 H 0.07195 0.48923 0.48333 0.0
H79 H 0.95174 0.42967 0.43276 0.0
N80 N 0.9527 0.48229 0.49821 0.0
N81 N 0.89542 0.47639 0.50575 0.0
C82 C 0.92441 0.4731 0.52515 0.0
C83 C 0.94133 0.49168 0.4601 0.0
C84 C 0.90589 0.48821 0.46476 0.0
C85 C 0.07884 0.55741 0.51876 0.0
O86 O 0.0958 0.54257 0.53959 0.0
H87 H 0.92661 0.46689 0.55982 0.0
H88 H 0.95856 0.50208 0.43205 0.0
O89 O 0.98927 0.46205 0.57429 0.0
H90 H 0.98979 0.41847 0.37344 0.0
H91 H 0.89004 0.49533 0.44081 0.0
Cu92 Cu 0.51768 0.033 0.07478 0.0
N93 N 0.52005 0.07643 0.08223 0.0
N94 N 0.52502 0.12456 0.05192 0.0
C95 C 0.50877 0.08836 0.04674 0.0
C96 C 0.54689 0.13581 0.09308 0.0
C97 C 0.54394 0.10608 0.11162 0.0
O98 O 0.53554 0.03705 0.01342 0.0
C99 C 0.45799 0.96007 0.09762 0.0
O100 O 0.48214 0.95149 0.08437 0.0
H101 H 0.49306 0.07147 0.01529 0.0
H102 H 0.56132 0.10696 0.14191 0.0
N103 N 0.55515 0.03271 0.11512 0.0
N104 N 0.5838 1.00554 0.14523 0.0
C105 C 0.56834 0.01124 0.10688 0.0
C106 C 0.56344 0.04189 0.16014 0.0
C107 C 0.58149 0.02541 0.17878 0.0
C108 C 0.57079 0.06487 0.01163 0.0
O109 O 0.59174 0.08476 0.04956 0.0
H110 H 0.56256 0.99685 0.07403 0.0
H111 H 0.55295 0.0558 0.17874 0.0
O112 O 0.46547 0.99185 0.0911 0.0
H113 H 0.56591 0.16379 0.10741 0.0
H114 H 0.58789 0.02456 0.21469 0.0
Cu115 Cu 0.51198 0.48926 0.46556 0.0
N116 N 0.54561 0.51953 0.42538 0.0
N117 N 0.57101 0.5703 0.39019 0.0
C118 C 0.55793 0.55473 0.42854 0.0
C119 C 0.5675 0.54396 0.36176 0.0
C120 C 0.55196 0.51256 0.38372 0.0
O121 O 0.46319 0.48972 0.4479 0.0
C122 C 0.57588 0.50559 0.5264 0.0
O123 O 0.5827 0.49665 0.48735 0.0
H124 H 0.5525 0.56729 0.45629 0.0
H125 H 0.54226 0.48599 0.36851 0.0
N126 N 0.49934 0.44146 0.45987 0.0
N127 N 0.49967 0.39578 0.49037 0.0
C128 C 0.49709 0.42466 0.49762 0.0
C129 C 0.50206 0.4216 0.42679 0.0
C130 C 0.50202 0.39314 0.44559 0.0
C131 C 0.44794 0.47745 0.40638 0.0
O132 O 0.46257 0.46245 0.38351 0.0
H133 H 0.49713 0.43549 0.53081 0.0
H134 H 0.50697 0.42873 0.39247 0.0
O135 O 0.54527 0.50743 0.52636 0.0
H136 H 0.5726 0.54638 0.32651 0.0
H137 H 0.50687 0.37409 0.42856 0.0
C138 C 0.22301 0.52911 0.16288 0.0
C139 C 0.23023 0.56332 0.15707 0.0
C140 C 0.26492 0.58785 0.18341 0.0
C141 C 0.27695 0.56744 0.20396 0.0
N142 N 0.25226 0.53129 0.19217 0.0
Co143 Co 0.25829 0.4922 0.21708 0.0
N144 N 0.30705 0.52815 0.25977 0.0
C145 C 0.32446 0.56459 0.26391 0.0
C146 C 0.35771 0.58278 0.295 0.0
C147 C 0.36194 0.55644 0.3119 0.0
C148 C 0.3308 0.52341 0.29026 0.0
N149 N 0.26447 0.45311 0.24169 0.0
C150 C 0.29192 0.4551 0.27386 0.0
C151 C 0.2841 0.4208 0.28063 0.0
C152 C 0.2513 0.39647 0.25144 0.0
C153 C 0.24064 0.41702 0.22865 0.0
N154 N 0.20917 0.45617 0.17506 0.0
C155 C 0.19209 0.41976 0.17013 0.0
C156 C 0.15811 0.40162 0.14012 0.0
C157 C 0.15273 0.42788 0.12542 0.0
C158 C 0.18373 0.46076 0.14752 0.0
N159 N 0.29189 0.4973 0.16896 0.0
C160 C 0.34049 0.50301 0.10229 0.0
C161 C 0.30968 0.46922 0.11319 0.0
C162 C 0.28586 0.46706 0.14562 0.0
C163 C 0.34607 0.53408 0.12524 0.0
C164 C 0.32185 0.53063 0.15832 0.0
N165 N 0.22439 0.48677 0.26456 0.0
C166 C 0.16844 0.44754 0.30408 0.0
C167 C 0.16839 0.47711 0.32221 0.0
C168 C 0.19863 0.51199 0.31325 0.0
C169 C 0.22642 0.51617 0.28495 0.0
C170 C 0.19619 0.45289 0.27553 0.0
H171 H 0.24868 0.54334 0.27913 0.0
H172 H 0.19348 0.42897 0.262 0.0
H173 H 0.26307 0.4404 0.15149 0.0
H174 H 0.32812 0.55529 0.175 0.0
C175 C 0.30938 0.58101 0.23733 0.0
C176 C 0.187 0.49535 0.14158 0.0
C177 C 0.32597 0.48854 0.29892 0.0
C178 C 0.20772 0.40324 0.19572 0.0
H179 H 0.2119 0.56995 0.13687 0.0
H180 H 0.27898 0.61703 0.18823 0.0
H181 H 0.37691 0.61184 0.30395 0.0
H182 H 0.3856 0.56114 0.33698 0.0
H183 H 0.30036 0.41398 0.30438 0.0
H184 H 0.23676 0.36722 0.24754 0.0
H185 H 0.13906 0.37262 0.13072 0.0
H186 H 0.12841 0.42332 0.10156 0.0
H187 H 0.30424 0.44406 0.0978 0.0
H188 H 0.36905 0.56107 0.11801 0.0
H189 H 0.14671 0.42006 0.31125 0.0
H190 H 0.20022 0.53594 0.32669 0.0
C191 C 0.70647 0.18925 0.7097 0.0
C192 C 0.68001 0.18761 0.67518 0.0
C193 C 0.68288 0.22012 0.67958 0.0
C194 C 0.71083 0.23974 0.71635 0.0
N195 N 0.72575 0.2216 0.73501 0.0
Co196 Co 0.76697 0.23971 0.78771 0.0
N197 N 0.75645 0.27644 0.80845 0.0
C198 C 0.73714 0.28821 0.78303 0.0
C199 C 0.73449 0.314 0.80642 0.0
C200 C 0.75375 0.31905 0.84893 0.0
C201 C 0.76747 0.29622 0.84902 0.0
N202 N 0.80845 0.25769 0.84029 0.0
C203 C 0.81532 0.27904 0.87823 0.0
C204 C 0.84842 0.28565 0.90604 0.0
C205 C 0.86281 0.26825 0.88432 0.0
C206 C 0.83793 0.252 0.84464 0.0
N207 N 0.77727 0.20286 0.76668 0.0
C208 C 0.81 0.20291 0.77869 0.0
C209 C 0.80734 0.17246 0.76076 0.0
C210 C 0.77069 0.15209 0.7359 0.0
C211 C 0.75318 0.1716 0.73961 0.0
N212 N 0.80703 0.27573 0.75066 0.0
C213 C 0.86327 0.3275 0.69679 0.0
C214 C 0.83541 0.29098 0.67975 0.0
C215 C 0.80798 0.2658 0.70694 0.0
C216 C 0.86183 0.33714 0.74182 0.0
C217 C 0.83381 0.31113 0.7679 0.0
N218 N 0.72693 0.20394 0.82452 0.0
C219 C 0.70689 0.15806 0.8779 0.0
C220 C 0.66912 0.15232 0.87671 0.0
C221 C 0.66132 0.17326 0.84821 0.0
C222 C 0.69036 0.19874 0.8228 0.0
C223 C 0.73504 0.18366 0.85172 0.0
H224 H 0.68308 0.21424 0.80158 0.0
H225 H 0.76355 0.18713 0.85369 0.0
H226 H 0.78726 0.23819 0.69231 0.0
H227 H 0.83393 0.31986 0.80221 0.0
C228 C 0.71782 0.2712 0.73963 0.0
C229 C 0.7146 0.16087 0.71583 0.0
C230 C 0.79513 0.29777 0.88592 0.0
C231 C 0.83798 0.22719 0.81424 0.0
H232 H 0.66072 0.16535 0.64949 0.0
H233 H 0.66546 0.2278 0.6595 0.0
H234 H 0.71981 0.32717 0.79442 0.0
H235 H 0.75824 0.33817 0.87633 0.0
H236 H 0.8616 0.30216 0.93812 0.0
H237 H 0.88791 0.26699 0.8965 0.0
H238 H 0.82839 0.1648 0.76732 0.0
H239 H 0.75827 0.12572 0.71784 0.0
H240 H 0.83414 0.2817 0.64515 0.0
H241 H 0.88257 0.36457 0.75733 0.0
H242 H 0.71525 0.14345 0.89965 0.0
H243 H 0.63277 0.16995 0.84507 0.0
C244 C 0.53421 0.72113 0.20595 0.0
C245 C 0.49734 0.69333 0.18475 0.0
C246 C 0.47032 0.69953 0.19902 0.0
C247 C 0.49194 0.73055 0.22815 0.0
N248 N 0.53135 0.74509 0.23262 0.0
Co249 Co 0.57286 0.78824 0.27533 0.0
N250 N 0.53224 0.7933 0.30241 0.0
C251 C 0.49253 0.77078 0.29272 0.0
C252 C 0.47208 0.78203 0.31455 0.0
C253 C 0.50041 0.81406 0.33895 0.0
C254 C 0.5367 0.82059 0.33057 0.0
N255 N 0.61435 0.83218 0.3169 0.0
C256 C 0.61122 0.85654 0.34236 0.0
C257 C 0.64794 0.88528 0.3624 0.0
C258 C 0.67534 0.87951 0.34817 0.0
C259 C 0.6539 0.8477 0.32034 0.0
N260 N 0.61333 0.78239 0.24935 0.0
C261 C 0.65295 0.80345 0.26133 0.0
C262 C 0.67307 0.79097 0.24131 0.0
C263 C 0.64455 0.75944 0.21608 0.0
C264 C 0.60849 0.75438 0.22227 0.0
N265 N 0.57707 0.82161 0.22962 0.0
C266 C 0.58495 0.88022 0.18554 0.0
C267 C 0.61809 0.87938 0.19949 0.0
C268 C 0.61341 0.84957 0.22047 0.0
C269 C 0.54755 0.84956 0.18954 0.0
C270 C 0.54429 0.82057 0.21135 0.0
N271 N 0.56916 0.75488 0.3209 0.0
C272 C 0.60396 0.73177 0.36133 0.0
C273 C 0.56986 0.69669 0.35501 0.0
C274 C 0.53426 0.69227 0.33771 0.0
C275 C 0.53445 0.72195 0.32212 0.0
C276 C 0.60281 0.7605 0.34463 0.0
H277 H 0.50664 0.71708 0.30847 0.0
H278 H 0.63005 0.78641 0.34863 0.0
H279 H 0.63975 0.85061 0.23099 0.0
H280 H 0.51512 0.79855 0.2152 0.0
C281 C 0.47573 0.74289 0.25756 0.0
C282 C 0.57044 0.72169 0.20332 0.0
C283 C 0.57444 0.85441 0.34712 0.0
C284 C 0.66999 0.83312 0.29418 0.0
H285 H 0.49023 0.66983 0.16317 0.0
H286 H 0.43844 0.68203 0.19157 0.0
H287 H 0.44041 0.76964 0.31091 0.0
H288 H 0.49494 0.83146 0.35892 0.0
H289 H 0.65429 0.90854 0.38397 0.0
H290 H 0.70719 0.8972 0.3557 0.0
H291 H 0.70459 0.80259 0.24602 0.0
H292 H 0.6496 0.74155 0.1965 0.0
H293 H 0.64755 0.90213 0.19559 0.0
H294 H 0.52097 0.84884 0.1785 0.0
H295 H 0.63196 0.73667 0.3762 0.0
H296 H 0.50669 0.6658 0.33457 0.0
C297 C 0.72388 0.55291 0.69169 0.0
C298 C 0.73358 0.58486 0.67293 0.0
C299 C 0.77189 0.61058 0.68985 0.0
C300 C 0.78357 0.59298 0.71769 0.0
N301 N 0.75499 0.55759 0.7199 0.0
Co302 Co 0.76085 0.52211 0.7554 0.0
N303 N 0.81747 0.55991 0.78006 0.0
C304 C 0.83727 0.59566 0.77352 0.0
C305 C 0.87566 0.61529 0.79381 0.0
C306 C 0.88082 0.59069 0.81465 0.0
C307 C 0.84509 0.5572 0.80612 0.0
N308 N 0.76732 0.48618 0.78902 0.0
C309 C 0.79968 0.48981 0.81315 0.0
C310 C 0.79048 0.4572 0.82967 0.0
C311 C 0.75151 0.43208 0.8149 0.0
C312 C 0.73893 0.45058 0.79041 0.0
N313 N 0.70386 0.48461 0.73228 0.0
C314 C 0.6824 0.45012 0.74391 0.0
C315 C 0.6436 0.43098 0.72508 0.0
C316 C 0.63999 0.45456 0.69958 0.0
C317 C 0.67698 0.48692 0.7043 0.0
N318 N 0.77803 0.50947 0.70175 0.0
C319 C 0.80337 0.49188 0.626 0.0
C320 C 0.77224 0.46467 0.64693 0.0
C321 C 0.76 0.47402 0.68444 0.0
C322 C 0.82112 0.528 0.64322 0.0
C323 C 0.80817 0.5361 0.68083 0.0
N324 N 0.74306 0.53485 0.80896 0.0
C325 C 0.70319 0.5161 0.87086 0.0
C326 C 0.70781 0.54984 0.87596 0.0
C327 C 0.7321 0.57667 0.849 0.0
C328 C 0.74999 0.56888 0.81659 0.0
C329 C 0.72086 0.50918 0.83734 0.0
H330 H 0.76866 0.59075 0.79771 0.0
H331 H 0.71526 0.4826 0.83458 0.0
H332 H 0.73615 0.45217 0.69915 0.0
H333 H 0.82337 0.5641 0.69274 0.0
C334 C 0.82042 0.60915 0.74398 0.0
C335 C 0.68479 0.51889 0.68133 0.0
C336 C 0.83944 0.5235 0.8222 0.0
C337 C 0.70025 0.43581 0.77 0.0
H338 H 0.71485 0.58918 0.64954 0.0
H339 H 0.78911 0.63884 0.68293 0.0
H340 H 0.89775 0.64388 0.79226 0.0
H341 H 0.90818 0.59671 0.83311 0.0
H342 H 0.8098 0.45207 0.85061 0.0
H343 H 0.73429 0.40375 0.82158 0.0
H344 H 0.62076 0.40309 0.72913 0.0
H345 H 0.61321 0.44871 0.67975 0.0
H346 H 0.75753 0.43629 0.63464 0.0
H347 H 0.84591 0.54998 0.62875 0.0
H348 H 0.68476 0.49462 0.89151 0.0
H349 H 0.73714 0.60349 0.85277 0.0
C350 C 0.29811 0.83725 0.38905 0.0
C351 C 0.29044 0.86001 0.41249 0.0
C352 C 0.25261 0.84924 0.39663 0.0
C353 C 0.23946 0.82057 0.3647 0.0
N354 N 0.26656 0.81255 0.35953 0.0
Co355 Co 0.25979 0.77279 0.3182 0.0
N356 N 0.21309 0.76753 0.282 0.0
C357 C 0.19324 0.78251 0.29362 0.0
C358 C 0.16332 0.77552 0.26103 0.0
C359 C 0.16369 0.75414 0.22709 0.0
C360 C 0.19359 0.74884 0.24128 0.0
N361 N 0.25259 0.73243 0.27725 0.0
C362 C 0.22778 0.71489 0.23836 0.0
C363 C 0.23074 0.68658 0.22238 0.0
C364 C 0.25775 0.68602 0.25264 0.0
C365 C 0.26974 0.71383 0.28536 0.0
N366 N 0.30677 0.77865 0.35463 0.0
C367 C 0.31775 0.75483 0.35448 0.0
C368 C 0.35254 0.76728 0.38184 0.0
C369 C 0.36412 0.80103 0.40049 0.0
C370 C 0.33549 0.80712 0.38352 0.0
N371 N 0.2246 0.73642 0.35873 0.0
C372 C 0.17631 0.68188 0.41525 0.0
C373 C 0.21216 0.71404 0.4332 0.0
C374 C 0.23551 0.7409 0.40467 0.0
C375 C 0.16516 0.67825 0.36832 0.0
C376 C 0.18951 0.70543 0.34099 0.0
N377 N 0.2952 0.80889 0.27749 0.0
C378 C 0.34952 0.83092 0.23211 0.0
C379 C 0.34537 0.8589 0.21727 0.0
C380 C 0.31553 0.86134 0.23449 0.0
C381 C 0.29107 0.83637 0.26435 0.0
C382 C 0.3244 0.80646 0.26158 0.0
H383 H 0.2686 0.83925 0.27654 0.0
H384 H 0.32878 0.78546 0.27144 0.0
H385 H 0.2627 0.76516 0.41988 0.0
H386 H 0.17998 0.70082 0.30522 0.0
C387 C 0.20566 0.80556 0.33335 0.0
C388 C 0.33529 0.83935 0.3963 0.0
C389 C 0.19715 0.72065 0.21939 0.0
C390 C 0.29889 0.72476 0.32226 0.0
H391 H 0.31028 0.88226 0.43798 0.0
H392 H 0.23732 0.86197 0.40565 0.0
H393 H 0.14368 0.78493 0.26177 0.0
H394 H 0.14299 0.74223 0.19636 0.0
H395 H 0.21413 0.66744 0.19284 0.0
H396 H 0.26737 0.66746 0.25102 0.0
H397 H 0.36863 0.75423 0.38598 0.0
H398 H 0.3907 0.81906 0.42354 0.0
H399 H 0.22214 0.71862 0.46921 0.0
H400 H 0.13816 0.65398 0.3523 0.0
H401 H 0.37244 0.82785 0.2215 0.0
H402 H 0.31041 0.88199 0.22445 0.0
C403 C 0.48689 0.29764 0.81746 0.0
C404 C 0.44947 0.28979 0.82258 0.0
C405 C 0.42297 0.25726 0.79794 0.0
C406 C 0.44551 0.24704 0.77906 0.0
N407 N 0.4849 0.27112 0.79007 0.0
Co408 Co 0.52788 0.26637 0.76919 0.0
N409 N 0.48885 0.21705 0.73599 0.0
C410 C 0.44912 0.19783 0.73571 0.0
C411 C 0.42973 0.16471 0.71074 0.0
C412 C 0.45873 0.16263 0.69388 0.0
C413 C 0.49437 0.19486 0.70924 0.0
N414 N 0.57086 0.26241 0.74673 0.0
C415 C 0.56887 0.23672 0.7177 0.0
C416 C 0.6062 0.24666 0.70843 0.0
C417 C 0.63261 0.27949 0.73227 0.0
C418 C 0.61014 0.2879 0.75467 0.0
N419 N 0.56701 0.31507 0.80392 0.0
C420 C 0.60686 0.33303 0.80725 0.0
C421 C 0.62639 0.36512 0.83445 0.0
C422 C 0.59731 0.3677 0.85004 0.0
C423 C 0.56151 0.33689 0.8314 0.0
N424 N 0.52918 0.24238 0.82448 0.0
C425 C 0.52937 0.2068 0.90217 0.0
C426 C 0.56449 0.23051 0.88397 0.0
C427 C 0.56376 0.24802 0.84553 0.0
C428 C 0.4945 0.20201 0.88122 0.0
C429 C 0.49502 0.21955 0.84279 0.0
N430 N 0.52619 0.29005 0.71383 0.0
C431 C 0.5582 0.33751 0.66346 0.0
C432 C 0.52252 0.32321 0.63539 0.0
C433 C 0.48896 0.29179 0.64685 0.0
C434 C 0.49139 0.27592 0.68587 0.0
C435 C 0.55942 0.32054 0.70214 0.0
H436 H 0.46448 0.2524 0.69279 0.0
H437 H 0.58747 0.33265 0.72214 0.0
H438 H 0.59145 0.2658 0.83327 0.0
H439 H 0.46717 0.21402 0.82859 0.0
C440 C 0.43076 0.21334 0.75508 0.0
C441 C 0.52323 0.32982 0.84094 0.0
C442 C 0.53251 0.20316 0.69688 0.0
C443 C 0.62498 0.31946 0.78337 0.0
H444 H 0.44208 0.30555 0.84291 0.0
H445 H 0.39102 0.24224 0.79535 0.0
H446 H 0.39814 0.14487 0.70442 0.0
H447 H 0.45412 0.14016 0.67213 0.0
H448 H 0.61356 0.23203 0.68603 0.0
H449 H 0.66436 0.29569 0.73246 0.0
H450 H 0.65802 0.38435 0.8421 0.0
H451 H 0.6019 0.38975 0.87265 0.0
H452 H 0.59235 0.23506 0.89867 0.0
H453 H 0.46659 0.18475 0.89439 0.0
H454 H 0.58508 0.36171 0.65562 0.0
H455 H 0.46052 0.28 0.62653 0.0
C456 C 0.12094 0.51272 0.0587 0.0
C457 C 0.08586 0.49695 0.07934 0.0
H458 H 0.18033 0.52467 0.06186 0.0
C459 C 0.08445 0.4798 0.1193 0.0
H460 H 0.12347 0.52631 0.02819 0.0
C461 C 0.11683 0.47911 0.13858 0.0
C462 C 0.15214 0.49554 0.11884 0.0
H463 H 0.05822 0.46714 0.13649 0.0
H464 H 0.11446 0.46612 0.16962 0.0
C465 C 0.15364 0.51199 0.07822 0.0
C466 C 0.67994 0.08913 0.61848 0.0
C467 C 0.63944 0.06592 0.62272 0.0
H468 H 0.73502 0.13809 0.64372 0.0
C469 C 0.62496 0.07184 0.66108 0.0
H470 H 0.69213 0.08559 0.5893 0.0
C471 C 0.65004 0.1017 0.69293 0.0
C472 C 0.68986 0.12597 0.68689 0.0
H473 H 0.59387 0.0547 0.66517 0.0
H474 H 0.63798 0.10686 0.72108 0.0
C475 C 0.70469 0.11917 0.64977 0.0
C476 C 0.55326 0.64669 0.11692 0.0
C477 C 0.56234 0.62564 0.14378 0.0
H478 H 0.54911 0.69331 0.11432 0.0
C479 C 0.57517 0.6374 0.19041 0.0
H480 H 0.54298 0.63891 0.08115 0.0
C481 C 0.57826 0.66866 0.20941 0.0
C482 C 0.56853 0.68907 0.18252 0.0
H483 H 0.58299 0.6226 0.21247 0.0
H484 H 0.58798 0.67678 0.24534 0.0
C485 C 0.55651 0.67796 0.13597 0.0
C486 C 0.85519 0.50066 0.52277 0.0
C487 C 0.86518 0.47504 0.5291 0.0
H488 H 0.82715 0.52583 0.54843 0.0
C489 C 0.84948 0.45139 0.56328 0.0
H490 H 0.86693 0.51929 0.4968 0.0
C491 C 0.82702 0.45527 0.593 0.0
C492 C 0.81987 0.48295 0.58913 0.0
H493 H 0.85637 0.4311 0.56847 0.0
H494 H 0.81757 0.43817 0.62079 0.0
C495 C 0.83279 0.50464 0.55263 0.0
C496 C 0.40875 0.94533 0.15503 0.0
C497 C 0.42562 0.93396 0.12468 0.0
H498 H 0.37147 0.93166 0.20819 0.0
C499 C 0.41415 0.8974 0.12367 0.0
H500 H 0.41703 0.97328 0.15739 0.0
C501 C 0.38771 0.87333 0.15245 0.0
C502 C 0.37186 0.88477 0.18426 0.0
H503 H 0.42612 0.88727 0.10082 0.0
H504 H 0.37989 0.84554 0.14961 0.0
C505 C 0.38244 0.92121 0.18437 0.0
C506 C 0.49147 0.34015 0.51918 0.0
C507 C 0.5074 0.37758 0.52517 0.0
H508 H 0.48373 0.29337 0.54957 0.0
C509 C 0.53055 0.39725 0.56634 0.0
H510 H 0.47369 0.32448 0.48772 0.0
C511 C 0.53663 0.37975 0.60133 0.0
C512 C 0.51942 0.34207 0.5962 0.0
H513 H 0.54379 0.42625 0.57168 0.0
H514 H 0.55363 0.39555 0.63303 0.0
C515 C 0.49712 0.32245 0.55456 0.0
C516 C 0.56717 0.91617 0.43335 0.0
C517 C 0.57595 0.94634 0.40908 0.0
H518 H 0.55993 0.86392 0.43302 0.0
C519 C 0.58467 0.94581 0.36417 0.0
H520 H 0.56081 0.91532 0.46802 0.0
C521 C 0.58446 0.91625 0.34437 0.0
C522 C 0.57537 0.88626 0.3687 0.0
H523 H 0.59122 0.96799 0.34386 0.0
H524 H 0.59104 0.91663 0.30975 0.0
C525 C 0.56686 0.88662 0.41343 0.0
C526 C 0.66448 0.55053 0.98264 0.0
C527 C 0.63649 0.55842 0.96681 0.0
H528 H 0.70878 0.54133 0.96595 0.0
C529 C 0.63521 0.56733 0.92194 0.0
H530 H 0.66637 0.5436 0.01703 0.0
C531 C 0.66009 0.56651 0.8929 0.0
C532 C 0.68609 0.55623 0.90815 0.0
H533 H 0.61399 0.57352 0.90879 0.0
H534 H 0.65757 0.57203 0.85792 0.0
C535 C 0.68872 0.54907 0.95346 0.0
C536 C 0.08609 0.60247 0.46237 0.0
C537 C 0.10354 0.59168 0.49584 0.0
H538 H 0.09476 0.63884 0.41122 0.0
C539 C 0.14523 0.61217 0.50406 0.0
H540 H 0.05421 0.58744 0.45465 0.0
C541 C 0.16863 0.64187 0.4791 0.0
C542 C 0.15122 0.6519 0.44453 0.0
H543 H 0.15998 0.6048 0.52926 0.0
H544 H 0.20051 0.65618 0.48586 0.0
C545 C 0.10949 0.6319 0.43703 0.0
C546 C 0.49433 0.13101 0.98051 0.0
C547 C 0.52532 0.14644 0.01641 0.0
H548 H 0.47189 0.13707 0.91621 0.0
C549 C 0.55769 0.18239 0.01491 0.0
H550 H 0.46883 0.10354 0.98057 0.0
C551 C 0.55918 0.20211 0.97803 0.0
C552 C 0.52835 0.18633 0.94179 0.0
H553 H 0.58237 0.19505 0.04159 0.0
H554 H 0.58443 0.22974 0.97803 0.0
C555 C 0.49594 0.1505 0.94367 0.0
C556 C 0.40765 0.4721 0.33352 0.0
C557 C 0.41664 0.48139 0.38097 0.0
H558 H 0.37335 0.46757 0.27141 0.0
C559 C 0.39585 0.49417 0.40149 0.0
H560 H 0.42289 0.46247 0.31577 0.0
C561 C 0.36669 0.49687 0.37529 0.0
C562 C 0.35784 0.48718 0.32791 0.0
H563 H 0.4018 0.50176 0.43768 0.0
H564 H 0.35082 0.50627 0.39211 0.0
C565 C 0.37908 0.47506 0.30764 0.0
C566 C 0.8424 0.35671 0.99741 0.0
C567 C 0.86994 0.39015 0.98177 0.0
H568 H 0.79626 0.30045 0.97856 0.0
C569 C 0.86869 0.39381 0.93497 0.0
H570 H 0.84286 0.35345 0.03338 0.0
C571 C 0.84234 0.3641 0.90415 0.0
C572 C 0.81639 0.33012 0.91947 0.0
H573 H 0.88894 0.41955 0.92211 0.0
H574 H 0.84352 0.36723 0.86818 0.0
C575 C 0.81581 0.32667 0.96629 0.0
C576 C 0.91593 0.49956 0.855 0.0
C577 C 0.93431 0.5189 0.89804 0.0
H578 H 0.87259 0.48622 0.7976 0.0
C579 C 0.9222 0.5411 0.91507 0.0
H580 H 0.924 0.48198 0.84056 0.0
C581 C 0.89209 0.54305 0.89045 0.0
C582 C 0.87339 0.52322 0.84779 0.0
H583 H 0.93505 0.55607 0.94819 0.0
H584 H 0.88282 0.55957 0.90524 0.0
C585 C 0.8862 0.50184 0.83027 0.0
C586 C 0.4194 0.90877 0.48423 0.0
C587 C 0.43522 0.94045 0.46131 0.0
H588 H 0.37494 0.85148 0.4814 0.0
C589 C 0.41815 0.93817 0.417 0.0
H590 H 0.43192 0.90963 0.51832 0.0
C591 C 0.38643 0.90503 0.39583 0.0
C592 C 0.37104 0.87342 0.41839 0.0
H593 H 0.42952 0.96196 0.39825 0.0
H594 H 0.37372 0.90405 0.36175 0.0
C595 C 0.3873 0.87549 0.46297 0.0
C596 C 0.52701 0.37629 0.95415 0.0
C597 C 0.51915 0.40245 0.94065 0.0
H598 H 0.53467 0.33339 0.9336 0.0
C599 C 0.51257 0.4043 0.89363 0.0
H600 H 0.53277 0.37409 0.98974 0.0
C601 C 0.51356 0.3807 0.86144 0.0
C602 C 0.52143 0.35474 0.87521 0.0
H603 H 0.50612 0.42369 0.8816 0.0
H604 H 0.50827 0.3828 0.82565 0.0
C605 C 0.52829 0.35295 0.92195 0.0
C606 C 0.11286 0.48968 0.41 0.0
C607 C 0.07395 0.45919 0.398 0.0
H608 H 0.17312 0.51901 0.39629 0.0
C609 C 0.06674 0.43471 0.3612 0.0
H610 H 0.11978 0.50955 0.43764 0.0
C611 C 0.09726 0.44071 0.33675 0.0
C612 C 0.13614 0.47111 0.34874 0.0
H613 H 0.03743 0.4108 0.35102 0.0
H614 H 0.0901 0.42164 0.30792 0.0
C615 C 0.14355 0.49549 0.38577 0.0
C616 C 0.61246 0.07223 0.94971 0.0
C617 C 0.58708 0.08004 0.96868 0.0
H618 H 0.65702 0.08766 0.90534 0.0
C619 C 0.5869 0.11022 0.95477 0.0
H620 H 0.61437 0.04996 0.96081 0.0
C621 C 0.61218 0.13265 0.92393 0.0
C622 C 0.63892 0.12588 0.90605 0.0
H623 H 0.56889 0.11788 0.97003 0.0
H624 H 0.61217 0.15652 0.91625 0.0
C625 C 0.63768 0.09454 0.91858 0.0
C626 C 0.5558 0.60466 0.33804 0.0
C627 C 0.5751 0.60358 0.37892 0.0
H628 H 0.53832 0.63481 0.29902 0.0
C629 C 0.59377 0.63378 0.41142 0.0
H630 H 0.54059 0.58149 0.31281 0.0
C631 C 0.59249 0.66428 0.40363 0.0
C632 C 0.57186 0.66477 0.36351 0.0
H633 H 0.60855 0.63333 0.4433 0.0
H634 H 0.60666 0.68702 0.42948 0.0
C635 C 0.55393 0.63488 0.33056 0.0
C636 C 0.52209 0.15194 0.58436 0.0
C637 C 0.53901 0.13218 0.59688 0.0
H638 H 0.50653 0.18923 0.60579 0.0
C639 C 0.55343 0.1358 0.64301 0.0
H640 H 0.51024 0.14975 0.5495 0.0
C641 C 0.55119 0.15852 0.67532 0.0
C642 C 0.53431 0.17818 0.66258 0.0
H643 H 0.56707 0.12151 0.65413 0.0
H644 H 0.56286 0.16089 0.71037 0.0
C645 C 0.51967 0.17446 0.61671 0.0
C646 C 0.38069 0.47536 1.00941 0.0
C647 C 0.42123 0.50239 0.01725 0.0
H648 H 0.32309 0.45548 0.02761 0.0
C649 C 0.43441 0.53227 0.04898 0.0
H650 H 0.36973 0.45211 0.98505 0.0
C651 C 0.40801 0.53347 0.07511 0.0
C652 C 0.36759 0.50518 0.06945 0.0
H653 H 0.46563 0.55334 0.05622 0.0
H654 H 0.41995 0.55549 0.1016 0.0
C655 C 0.35409 0.47709 0.03453 0.0
C656 C 0.93289 0.36752 0.60465 0.0
C657 C 0.94559 0.40444 0.60776 0.0
H658 H 0.89898 0.31534 0.62993 0.0
C659 C 0.93304 0.41667 0.64266 0.0
H660 H 0.94181 0.3569 0.57835 0.0
C661 C 0.90722 0.39223 0.67214 0.0
C662 C 0.89325 0.3548 0.66776 0.0
H663 H 0.94145 0.44466 0.64571 0.0
H664 H 0.897 0.40252 0.69717 0.0
C665 C 0.9076 0.34334 0.63411 0.0
C666 C 0.56504 0.94306 0.12302 0.0
C667 C 0.58877 0.97586 0.15112 0.0
H668 H 0.54538 0.88707 0.11181 0.0
C669 C 0.61423 0.97776 0.18788 0.0
H670 H 0.54468 0.94036 0.09474 0.0
C671 C 0.6146 0.94707 0.19756 0.0
C672 C 0.58922 0.91385 0.17086 0.0
H673 H 0.63286 1.00267 0.20995 0.0
H674 H 0.63321 0.94883 0.22731 0.0
C675 C 0.56512 0.91234 0.13295 0.0
C676 C 0.62451 0.4934 0.56494 0.0
C677 C 0.6018 0.50867 0.5682 0.0
H678 H 0.66746 0.48443 0.59742 0.0
C679 C 0.60577 0.52676 0.61021 0.0
H680 H 0.62219 0.47877 0.53364 0.0
C681 C 0.63254 0.53021 0.64718 0.0
C682 C 0.65542 0.51522 0.64307 0.0
H683 H 0.58892 0.53883 0.61422 0.0
H684 H 0.63553 0.54471 0.67892 0.0
C685 C 0.65058 0.49646 0.60164 0.0
C686 C 0.12784 0.65264 0.12015 0.0
C687 C 0.09217 0.63278 0.13929 0.0
H688 H 0.18919 0.69668 0.13051 0.0
C689 C 0.09153 0.6416 0.18476 0.0
H690 H 0.12897 0.6464 0.08504 0.0
C691 C 0.12584 0.66964 0.2107 0.0
C692 C 0.16133 0.68997 0.19143 0.0
H693 H 0.06458 0.62638 0.20042 0.0
H694 H 0.12456 0.6757 0.24584 0.0
C695 C 0.16214 0.68128 0.14596 0.0
loop_
_geom_bond_atom_site_label_1
_geom_bond_atom_site_label_2
_geom_bond_distance
_geom_bond_site_symmetry_2
_ccdc_geom_bond_type
Cu0 N1 1.999 1_454 S
Cu0 O6 1.971 1_454 S
Cu0 N11 1.985 . S
Cu0 O20 1.962 . S
N1 Cu0 1.999 1_656 S
N1 C3 1.263 . S
N1 C5 1.378 1_556 S
N2 C3 1.358 . S
N2 C4 1.400 . S
C3 N1 1.263 . S
C3 N2 1.358 . S
C3 H9 0.930 . S
C4 N2 1.400 . S
C4 C5 1.337 1_556 S
C4 H21 0.930 . S
C5 N1 1.378 1_554 S
C5 C4 1.337 1_554 S
C5 H10 0.951 . S
O6 Cu0 1.971 1_656 S
O6 C16 1.282 . S
C7 O8 1.275 . S
C7 O20 1.251 . S
O8 C7 1.275 . S
H9 C3 0.930 . S
H10 C5 0.951 . S
N11 Cu0 1.985 . S
N11 C13 1.335 . S
N11 C14 1.390 . S
N12 C13 1.345 . S
N12 C15 1.336 . S
C13 N11 1.335 . S
C13 N12 1.345 . S
C13 H18 0.930 . S
C14 N11 1.390 . S
C14 C15 1.346 . S
C14 H19 0.930 . S
C15 N12 1.336 . S
C15 C14 1.346 . S
C15 H22 0.929 . S
C16 O6 1.282 . S
C16 O17 1.216 1_655 S
O17 C16 1.216 1_455 S
H18 C13 0.930 . S
H19 C14 0.930 . S
O20 Cu0 1.962 . S
O20 C7 1.251 . S
H21 C4 0.930 . S
H22 C15 0.929 . S
Cu23 N24 1.999 . S
Cu23 O29 1.974 . S
Cu23 N34 1.985 1_565 S
Cu23 O43 1.959 1_565 S
N24 Cu23 1.999 . S
N24 C26 1.263 . S
N24 C28 1.389 . S
N25 C26 1.358 . S
N25 C27 1.400 . S
C26 N24 1.263 . S
C26 N25 1.358 . S
C26 H32 0.930 . S
C27 N25 1.400 . S
C27 C28 1.351 . S
C27 H44 0.930 . S
C28 N24 1.389 . S
C28 C27 1.351 . S
C28 H33 0.930 . S
O29 Cu23 1.974 . S
O29 C39 1.282 . S
C30 O31 1.261 . S
C30 O43 1.251 . S
O31 C30 1.261 . S
H32 C26 0.930 . S
H33 C28 0.930 . S
N34 Cu23 1.985 1_545 S
N34 C36 1.335 . S
N34 C37 1.390 . S
N35 C36 1.345 . S
N35 C38 1.336 . S
C36 N34 1.335 . S
C36 N35 1.345 . S
C36 H41 0.930 . S
C37 N34 1.390 . S
C37 C38 1.346 . S
C37 H42 0.930 . S
C38 N35 1.336 . S
C38 C37 1.346 . S
C38 H45 0.929 . S
C39 O29 1.282 . S
C39 O40 1.216 . S
O40 C39 1.216 . S
H41 C36 0.930 . S
H42 C37 0.930 . S
O43 Cu23 1.959 1_545 S
O43 C30 1.251 . S
H44 C27 0.930 . S
H45 C38 0.929 . S
Cu46 N47 1.990 1_554 S
Cu46 O52 1.962 1_554 S
Cu46 N57 1.995 . S
Cu46 O66 1.971 . S
N47 Cu46 1.990 1_556 S
N47 C49 1.263 . S
N47 C51 1.389 . S
N48 C49 1.358 . S
N48 C50 1.400 . S
C49 N47 1.263 . S
C49 N48 1.358 . S
C49 H55 0.930 . S
C50 N48 1.400 . S
C50 C51 1.351 . S
C50 H67 0.930 . S
C51 N47 1.389 . S
C51 C50 1.351 . S
C51 H56 0.930 . S
O52 Cu46 1.962 1_556 S
O52 C62 1.282 . S
C53 O54 1.261 . S
C53 O66 1.251 . S
O54 C53 1.261 . S
H55 C49 0.930 . S
H56 C51 0.930 . S
N57 Cu46 1.995 . S
N57 C59 1.335 . S
N57 C60 1.390 . S
N58 C59 1.345 . S
N58 C61 1.336 . S
C59 N57 1.335 . S
C59 N58 1.345 . S
C59 H64 0.930 . S
C60 N57 1.390 . S
C60 C61 1.346 . S
C60 H65 0.930 . S
C61 N58 1.336 . S
C61 C60 1.346 . S
C61 H68 0.929 . S
C62 O52 1.282 . S
C62 O63 1.216 1_556 S
O63 C62 1.216 1_554 S
H64 C59 0.930 . S
H65 C60 0.930 . S
O66 Cu46 1.971 . S
O66 C53 1.251 . S
H67 C50 0.930 . S
H68 C61 0.929 . S
Cu69 N70 1.999 1_655 S
Cu69 O75 1.974 1_655 S
Cu69 N80 1.985 . S
Cu69 O89 1.959 . S
N70 Cu69 1.999 1_455 S
N70 C72 1.263 . S
N70 C74 1.389 1_455 S
N71 C72 1.358 . S
N71 C73 1.400 . S
C72 N70 1.263 . S
C72 N71 1.358 . S
C72 H78 0.930 . S
C73 N71 1.400 . S
C73 C74 1.351 1_455 S
C73 H90 0.930 . S
C74 N70 1.389 1_655 S
C74 C73 1.351 1_655 S
C74 H79 0.930 . S
O75 Cu69 1.974 1_455 S
O75 C85 1.282 . S
C76 O77 1.261 1_655 S
C76 O89 1.251 . S
O77 C76 1.261 1_455 S
H78 C72 0.930 . S
H79 C74 0.930 . S
N80 Cu69 1.985 . S
N80 C82 1.335 . S
N80 C83 1.390 . S
N81 C82 1.345 . S
N81 C84 1.336 . S
C82 N80 1.335 . S
C82 N81 1.345 . S
C82 H87 0.930 . S
C83 N80 1.390 . S
C83 C84 1.346 . S
C83 H88 0.930 1_655 S
C84 N81 1.336 . S
C84 C83 1.346 . S
C84 H91 0.929 . S
C85 O75 1.282 . S
C85 O86 1.216 . S
O86 C85 1.216 . S
H87 C82 0.930 . S
H88 C83 0.930 1_455 S
O89 Cu69 1.959 . S
O89 C76 1.251 . S
H90 C73 0.930 . S
H91 C84 0.929 . S
Cu92 N93 1.999 . S
Cu92 O98 1.974 1_554 S
Cu92 N103 1.985 1_545 S
Cu92 O112 1.959 1_545 S
N93 Cu92 1.999 . S
N93 C95 1.263 1_554 S
N93 C97 1.389 . S
N94 C95 1.358 . S
N94 C96 1.392 1_556 S
C95 N93 1.263 1_556 S
C95 N94 1.358 . S
C95 H101 0.930 . S
C96 N94 1.392 1_554 S
C96 C97 1.356 . S
C96 H113 0.933 . S
C97 N93 1.389 . S
C97 C96 1.356 . S
C97 H102 0.930 . S
O98 Cu92 1.974 1_556 S
O98 C108 1.282 . S
C99 O100 1.261 . S
C99 O112 1.251 . S
O100 C99 1.261 . S
H101 C95 0.930 . S
H102 C97 0.930 . S
N103 Cu92 1.985 1_565 S
N103 C105 1.335 . S
N103 C106 1.390 . S
N104 C105 1.345 . S
N104 C107 1.336 . S
C105 N103 1.335 . S
C105 N104 1.345 . S
C105 H110 0.930 . S
C106 N103 1.390 . S
C106 C107 1.346 . S
C106 H111 0.930 . S
C107 N104 1.336 . S
C107 C106 1.346 . S
C107 H114 0.929 . S
C108 O98 1.282 . S
C108 O109 1.216 . S
O109 C108 1.216 . S
H110 C105 0.930 . S
H111 C106 0.930 . S
O112 Cu92 1.959 1_565 S
O112 C99 1.251 . S
H113 C96 0.933 . S
H114 C107 0.929 . S
Cu115 N116 1.999 . S
Cu115 O121 1.974 . S
Cu115 N126 1.985 . S
Cu115 O135 1.959 . S
N116 Cu115 1.999 . S
N116 C118 1.263 . S
N116 C120 1.389 . S
N117 C118 1.358 . S
N117 C119 1.400 . S
C118 N116 1.263 . S
C118 N117 1.358 . S
C118 H124 0.930 . S
C119 N117 1.400 . S
C119 C120 1.351 . S
C119 H136 0.930 . S
C120 N116 1.389 . S
C120 C119 1.351 . S
C120 H125 0.930 . S
O121 Cu115 1.974 . S
O121 C131 1.282 . S
C122 O123 1.261 . S
C122 O135 1.251 . S
O123 C122 1.261 . S
H124 C118 0.930 . S
H125 C120 0.930 . S
N126 Cu115 1.985 . S
N126 C128 1.335 . S
N126 C129 1.390 . S
N127 C128 1.345 . S
N127 C130 1.336 . S
C128 N126 1.335 . S
C128 N127 1.345 . S
C128 H133 0.930 . S
C129 N126 1.390 . S
C129 C130 1.346 . S
C129 H134 0.930 . S
C130 N127 1.336 . S
C130 C129 1.346 . S
C130 H137 0.929 . S
C131 O121 1.282 . S
C131 O132 1.216 . S
O132 C131 1.216 . S
H133 C128 0.930 . S
H134 C129 0.930 . S
O135 Cu115 1.959 . S
O135 C122 1.251 . S
H136 C119 0.930 . S
H137 C130 0.929 . S
C138 C139 1.443 . S
C138 N142 1.376 . S
C138 C176 1.389 . S
C139 C138 1.443 . S
C139 C140 1.340 . S
C139 H179 0.951 . S
C140 C139 1.340 . S
C140 C141 1.439 . S
C140 H180 0.950 . S
C141 C140 1.439 . S
C141 N142 1.374 . S
C141 C175 1.395 . S
N142 C138 1.376 . S
N142 C141 1.374 . S
N142 Co143 2.008 . S
Co143 N142 2.008 . S
Co143 N144 1.995 . S
Co143 N149 2.008 . S
Co143 N154 1.995 . S
Co143 N159 2.282 . S
Co143 N165 2.282 . S
N144 Co143 1.995 . S
N144 C145 1.376 . S
N144 C148 1.383 . S
C145 N144 1.376 . S
C145 C146 1.446 . S
C145 C175 1.391 . S
C146 C145 1.446 . S
C146 C147 1.339 . S
C146 H181 0.949 . S
C147 C146 1.339 . S
C147 C148 1.439 . S
C147 H182 0.950 . S
C148 N144 1.383 . S
C148 C147 1.439 . S
C148 C177 1.392 . S
N149 Co143 2.008 . S
N149 C150 1.376 . S
N149 C153 1.374 . S
C150 N149 1.376 . S
C150 C151 1.443 . S
C150 C177 1.389 . S
C151 C150 1.443 . S
C151 C152 1.340 . S
C151 H183 0.951 . S
C152 C151 1.340 . S
C152 C153 1.439 . S
C152 H184 0.950 . S
C153 N149 1.374 . S
C153 C152 1.439 . S
C153 C178 1.395 . S
N154 Co143 1.995 . S
N154 C155 1.376 . S
N154 C158 1.383 . S
C155 N154 1.376 . S
C155 C156 1.446 . S
C155 C178 1.391 . S
C156 C155 1.446 . S
C156 C157 1.339 . S
C156 H185 0.949 . S
C157 C156 1.339 . S
C157 C158 1.439 . S
C157 H186 0.950 . S
C158 N154 1.383 . S
C158 C157 1.439 . S
C158 C176 1.392 . S
N159 Co143 2.282 . S
N159 C162 1.332 . S
N159 C164 1.332 . S
C160 C161 1.386 . S
C160 C163 1.388 . S
C161 C160 1.386 . S
C161 C162 1.382 . S
C161 H187 0.950 . S
C162 N159 1.332 . S
C162 C161 1.382 . S
C162 H173 0.952 . S
C163 C160 1.388 . S
C163 C164 1.382 . S
C163 H188 0.950 . S
C164 N159 1.332 . S
C164 C163 1.382 . S
C164 H174 0.948 . S
N165 Co143 2.282 . S
N165 C169 1.332 . S
N165 C170 1.332 . S
C166 C167 1.388 . S
C166 C170 1.382 . S
C166 H189 0.950 . S
C167 C166 1.388 . S
C167 C168 1.386 . S
C168 C167 1.386 . S
C168 C169 1.382 . S
C168 H190 0.950 . S
C169 N165 1.332 . S
C169 C168 1.382 . S
C169 H171 0.952 . S
C170 N165 1.332 . S
C170 C166 1.382 . S
C170 H172 0.948 . S
H171 C169 0.952 . S
H172 C170 0.948 . S
H173 C162 0.952 . S
H174 C164 0.948 . S
C175 C141 1.395 . S
C175 C145 1.391 . S
C176 C138 1.389 . S
C176 C158 1.392 . S
C177 C148 1.392 . S
C177 C150 1.389 . S
C178 C153 1.395 . S
C178 C155 1.391 . S
H179 C139 0.951 . S
H180 C140 0.950 . S
H181 C146 0.949 . S
H182 C147 0.950 . S
H183 C151 0.951 . S
H184 C152 0.950 . S
H185 C156 0.949 . S
H186 C157 0.950 . S
H187 C161 0.950 . S
H188 C163 0.950 . S
H189 C166 0.950 . S
H190 C168 0.950 . S
C191 C192 1.443 . S
C191 N195 1.376 . S
C191 C229 1.389 . S
C192 C191 1.443 . S
C192 C193 1.340 . S
C192 H232 0.951 . S
C193 C192 1.340 . S
C193 C194 1.439 . S
C193 H233 0.950 . S
C194 C193 1.439 . S
C194 N195 1.374 . S
C194 C228 1.395 . S
N195 C191 1.376 . S
N195 C194 1.374 . S
N195 Co196 2.008 . S
Co196 N195 2.008 . S
Co196 N197 1.995 . S
Co196 N202 2.008 . S
Co196 N207 1.995 . S
Co196 N212 2.282 . S
Co196 N218 2.282 . S
N197 Co196 1.995 . S
N197 C198 1.376 . S
N197 C201 1.383 . S
C198 N197 1.376 . S
C198 C199 1.446 . S
C198 C228 1.391 . S
C199 C198 1.446 . S
C199 C200 1.339 . S
C199 H234 0.949 . S
C200 C199 1.339 . S
C200 C201 1.439 . S
C200 H235 0.950 . S
C201 N197 1.383 . S
C201 C200 1.439 . S
C201 C230 1.392 . S
N202 Co196 2.008 . S
N202 C203 1.376 . S
N202 C206 1.374 . S
C203 N202 1.376 . S
C203 C204 1.443 . S
C203 C230 1.389 . S
C204 C203 1.443 . S
C204 C205 1.340 . S
C204 H236 0.951 . S
C205 C204 1.340 . S
C205 C206 1.439 . S
C205 H237 0.950 . S
C206 N202 1.374 . S
C206 C205 1.439 . S
C206 C231 1.395 . S
N207 Co196 1.995 . S
N207 C208 1.376 . S
N207 C211 1.383 . S
C208 N207 1.376 . S
C208 C209 1.446 . S
C208 C231 1.391 . S
C209 C208 1.446 . S
C209 C210 1.339 . S
C209 H238 0.949 . S
C210 C209 1.339 . S
C210 C211 1.439 . S
C210 H239 0.950 . S
C211 N207 1.383 . S
C211 C210 1.439 . S
C211 C229 1.392 . S
N212 Co196 2.282 . S
N212 C215 1.332 . S
N212 C217 1.332 . S
C213 C214 1.386 . S
C213 C216 1.388 . S
C214 C213 1.386 . S
C214 C215 1.382 . S
C214 H240 0.950 . S
C215 N212 1.332 . S
C215 C214 1.382 . S
C215 H226 0.952 . S
C216 C213 1.388 . S
C216 C217 1.382 . S
C216 H241 0.950 . S
C217 N212 1.332 . S
C217 C216 1.382 . S
C217 H227 0.948 . S
N218 Co196 2.282 . S
N218 C222 1.332 . S
N218 C223 1.332 . S
C219 C220 1.388 . S
C219 C223 1.382 . S
C219 H242 0.950 . S
C220 C219 1.388 . S
C220 C221 1.386 . S
C221 C220 1.386 . S
C221 C222 1.382 . S
C221 H243 0.950 . S
C222 N218 1.332 . S
C222 C221 1.382 . S
C222 H224 0.952 . S
C223 N218 1.332 . S
C223 C219 1.382 . S
C223 H225 0.948 . S
H224 C222 0.952 . S
H225 C223 0.948 . S
H226 C215 0.952 . S
H227 C217 0.948 . S
C228 C194 1.395 . S
C228 C198 1.391 . S
C229 C191 1.389 . S
C229 C211 1.392 . S
C230 C201 1.392 . S
C230 C203 1.389 . S
C231 C206 1.395 . S
C231 C208 1.391 . S
H232 C192 0.951 . S
H233 C193 0.950 . S
H234 C199 0.949 . S
H235 C200 0.950 . S
H236 C204 0.951 . S
H237 C205 0.950 . S
H238 C209 0.949 . S
H239 C210 0.950 . S
H240 C214 0.950 . S
H241 C216 0.950 . S
H242 C219 0.950 . S
H243 C221 0.950 . S
C244 C245 1.443 . S
C244 N248 1.376 . S
C244 C282 1.389 . S
C245 C244 1.443 . S
C245 C246 1.340 . S
C245 H285 0.951 . S
C246 C245 1.340 . S
C246 C247 1.439 . S
C246 H286 0.950 . S
C247 C246 1.439 . S
C247 N248 1.374 . S
C247 C281 1.395 . S
N248 C244 1.376 . S
N248 C247 1.374 . S
N248 Co249 2.008 . S
Co249 N248 2.008 . S
Co249 N250 1.995 . S
Co249 N255 2.008 . S
Co249 N260 1.995 . S
Co249 N265 2.282 . S
Co249 N271 2.282 . S
N250 Co249 1.995 . S
N250 C251 1.376 . S
N250 C254 1.383 . S
C251 N250 1.376 . S
C251 C252 1.446 . S
C251 C281 1.391 . S
C252 C251 1.446 . S
C252 C253 1.339 . S
C252 H287 0.949 . S
C253 C252 1.339 . S
C253 C254 1.439 . S
C253 H288 0.950 . S
C254 N250 1.383 . S
C254 C253 1.439 . S
C254 C283 1.392 . S
N255 Co249 2.008 . S
N255 C256 1.376 . S
N255 C259 1.374 . S
C256 N255 1.376 . S
C256 C257 1.443 . S
C256 C283 1.389 . S
C257 C256 1.443 . S
C257 C258 1.340 . S
C257 H289 0.951 . S
C258 C257 1.340 . S
C258 C259 1.439 . S
C258 H290 0.950 . S
C259 N255 1.374 . S
C259 C258 1.439 . S
C259 C284 1.395 . S
N260 Co249 1.995 . S
N260 C261 1.376 . S
N260 C264 1.383 . S
C261 N260 1.376 . S
C261 C262 1.446 . S
C261 C284 1.391 . S
C262 C261 1.446 . S
C262 C263 1.339 . S
C262 H291 0.949 . S
C263 C262 1.339 . S
C263 C264 1.439 . S
C263 H292 0.950 . S
C264 N260 1.383 . S
C264 C263 1.439 . S
C264 C282 1.392 . S
N265 Co249 2.282 . S
N265 C268 1.332 . S
N265 C270 1.332 . S
C266 C267 1.386 . S
C266 C269 1.388 . S
C267 C266 1.386 . S
C267 C268 1.382 . S
C267 H293 0.950 . S
C268 N265 1.332 . S
C268 C267 1.382 . S
C268 H279 0.952 . S
C269 C266 1.388 . S
C269 C270 1.382 . S
C269 H294 0.950 . S
C270 N265 1.332 . S
C270 C269 1.382 . S
C270 H280 0.948 . S
N271 Co249 2.282 . S
N271 C275 1.332 . S
N271 C276 1.332 . S
C272 C273 1.388 . S
C272 C276 1.382 . S
C272 H295 0.950 . S
C273 C272 1.388 . S
C273 C274 1.386 . S
C274 C273 1.386 . S
C274 C275 1.382 . S
C274 H296 0.950 . S
C275 N271 1.332 . S
C275 C274 1.382 . S
C275 H277 0.952 . S
C276 N271 1.332 . S
C276 C272 1.382 . S
C276 H278 0.948 . S
H277 C275 0.952 . S
H278 C276 0.948 . S
H279 C268 0.952 . S
H280 C270 0.948 . S
C281 C247 1.395 . S
C281 C251 1.391 . S
C282 C244 1.389 . S
C282 C264 1.392 . S
C283 C254 1.392 . S
C283 C256 1.389 . S
C284 C259 1.395 . S
C284 C261 1.391 . S
H285 C245 0.951 . S
H286 C246 0.950 . S
H287 C252 0.949 . S
H288 C253 0.950 . S
H289 C257 0.951 . S
H290 C258 0.950 . S
H291 C262 0.949 . S
H292 C263 0.950 . S
H293 C267 0.950 . S
H294 C269 0.950 . S
H295 C272 0.950 . S
H296 C274 0.950 . S
C297 C298 1.443 . S
C297 N301 1.376 . S
C297 C335 1.389 . S
C298 C297 1.443 . S
C298 C299 1.340 . S
C298 H338 0.951 . S
C299 C298 1.340 . S
C299 C300 1.439 . S
C299 H339 0.950 . S
C300 C299 1.439 . S
C300 N301 1.374 . S
C300 C334 1.395 . S
N301 C297 1.376 . S
N301 C300 1.374 . S
N301 Co302 2.008 . S
Co302 N301 2.008 . S
Co302 N303 1.995 . S
Co302 N308 2.008 . S
Co302 N313 1.995 . S
Co302 N318 2.282 . S
Co302 N324 2.282 . S
N303 Co302 1.995 . S
N303 C304 1.376 . S
N303 C307 1.383 . S
C304 N303 1.376 . S
C304 C305 1.446 . S
C304 C334 1.391 . S
C305 C304 1.446 . S
C305 C306 1.339 . S
C305 H340 0.949 . S
C306 C305 1.339 . S
C306 C307 1.439 . S
C306 H341 0.950 . S
C307 N303 1.383 . S
C307 C306 1.439 . S
C307 C336 1.392 . S
N308 Co302 2.008 . S
N308 C309 1.376 . S
N308 C312 1.374 . S
C309 N308 1.376 . S
C309 C310 1.443 . S
C309 C336 1.389 . S
C310 C309 1.443 . S
C310 C311 1.340 . S
C310 H342 0.951 . S
C311 C310 1.340 . S
C311 C312 1.439 . S
C311 H343 0.950 . S
C312 N308 1.374 . S
C312 C311 1.439 . S
C312 C337 1.395 . S
N313 Co302 1.995 . S
N313 C314 1.376 . S
N313 C317 1.383 . S
C314 N313 1.376 . S
C314 C315 1.446 . S
C314 C337 1.391 . S
C315 C314 1.446 . S
C315 C316 1.339 . S
C315 H344 0.949 . S
C316 C315 1.339 . S
C316 C317 1.439 . S
C316 H345 0.950 . S
C317 N313 1.383 . S
C317 C316 1.439 . S
C317 C335 1.392 . S
N318 Co302 2.282 . S
N318 C321 1.332 . S
N318 C323 1.332 . S
C319 C320 1.386 . S
C319 C322 1.388 . S
C320 C319 1.386 . S
C320 C321 1.382 . S
C320 H346 0.950 . S
C321 N318 1.332 . S
C321 C320 1.382 . S
C321 H332 0.952 . S
C322 C319 1.388 . S
C322 C323 1.382 . S
C322 H347 0.950 . S
C323 N318 1.332 . S
C323 C322 1.382 . S
C323 H333 0.948 . S
N324 Co302 2.282 . S
N324 C328 1.332 . S
N324 C329 1.332 . S
C325 C326 1.388 . S
C325 C329 1.382 . S
C325 H348 0.950 . S
C326 C325 1.388 . S
C326 C327 1.386 . S
C327 C326 1.386 . S
C327 C328 1.382 . S
C327 H349 0.950 . S
C328 N324 1.332 . S
C328 C327 1.382 . S
C328 H330 0.952 . S
C329 N324 1.332 . S
C329 C325 1.382 . S
C329 H331 0.948 . S
H330 C328 0.952 . S
H331 C329 0.948 . S
H332 C321 0.952 . S
H333 C323 0.948 . S
C334 C300 1.395 . S
C334 C304 1.391 . S
C335 C297 1.389 . S
C335 C317 1.392 . S
C336 C307 1.392 . S
C336 C309 1.389 . S
C337 C312 1.395 . S
C337 C314 1.391 . S
H338 C298 0.951 . S
H339 C299 0.950 . S
H340 C305 0.949 . S
H341 C306 0.950 . S
H342 C310 0.951 . S
H343 C311 0.950 . S
H344 C315 0.949 . S
H345 C316 0.950 . S
H346 C320 0.950 . S
H347 C322 0.950 . S
H348 C325 0.950 . S
H349 C327 0.950 . S
C350 C351 1.443 . S
C350 N354 1.376 . S
C350 C388 1.389 . S
C351 C350 1.443 . S
C351 C352 1.340 . S
C351 H391 0.951 . S
C352 C351 1.340 . S
C352 C353 1.439 . S
C352 H392 0.950 . S
C353 C352 1.439 . S
C353 N354 1.374 . S
C353 C387 1.395 . S
N354 C350 1.376 . S
N354 C353 1.374 . S
N354 Co355 2.008 . S
Co355 N354 2.008 . S
Co355 N356 1.995 . S
Co355 N361 2.008 . S
Co355 N366 1.995 . S
Co355 N371 2.282 . S
Co355 N377 2.282 . S
N356 Co355 1.995 . S
N356 C357 1.376 . S
N356 C360 1.383 . S
C357 N356 1.376 . S
C357 C358 1.446 . S
C357 C387 1.391 . S
C358 C357 1.446 . S
C358 C359 1.339 . S
C358 H393 0.949 . S
C359 C358 1.339 . S
C359 C360 1.439 . S
C359 H394 0.950 . S
C360 N356 1.383 . S
C360 C359 1.439 . S
C360 C389 1.392 . S
N361 Co355 2.008 . S
N361 C362 1.376 . S
N361 C365 1.374 . S
C362 N361 1.376 . S
C362 C363 1.443 . S
C362 C389 1.389 . S
C363 C362 1.443 . S
C363 C364 1.340 . S
C363 H395 0.951 . S
C364 C363 1.340 . S
C364 C365 1.439 . S
C364 H396 0.950 . S
C365 N361 1.374 . S
C365 C364 1.439 . S
C365 C390 1.395 . S
N366 Co355 1.995 . S
N366 C367 1.376 . S
N366 C370 1.383 . S
C367 N366 1.376 . S
C367 C368 1.446 . S
C367 C390 1.391 . S
C368 C367 1.446 . S
C368 C369 1.339 . S
C368 H397 0.949 . S
C369 C368 1.339 . S
C369 C370 1.439 . S
C369 H398 0.950 . S
C370 N366 1.383 . S
C370 C369 1.439 . S
C370 C388 1.392 . S
N371 Co355 2.282 . S
N371 C374 1.332 . S
N371 C376 1.332 . S
C372 C373 1.386 . S
C372 C375 1.388 . S
C373 C372 1.386 . S
C373 C374 1.382 . S
C373 H399 0.950 . S
C374 N371 1.332 . S
C374 C373 1.382 . S
C374 H385 0.952 . S
C375 C372 1.388 . S
C375 C376 1.382 . S
C375 H400 0.950 . S
C376 N371 1.332 . S
C376 C375 1.382 . S
C376 H386 0.948 . S
N377 Co355 2.282 . S
N377 C381 1.332 . S
N377 C382 1.332 . S
C378 C379 1.388 . S
C378 C382 1.382 . S
C378 H401 0.950 . S
C379 C378 1.388 . S
C379 C380 1.386 . S
C380 C379 1.386 . S
C380 C381 1.382 . S
C380 H402 0.950 . S
C381 N377 1.332 . S
C381 C380 1.382 . S
C381 H383 0.952 . S
C382 N377 1.332 . S
C382 C378 1.382 . S
C382 H384 0.948 . S
H383 C381 0.952 . S
H384 C382 0.948 . S
H385 C374 0.952 . S
H386 C376 0.948 . S
C387 C353 1.395 . S
C387 C357 1.391 . S
C388 C350 1.389 . S
C388 C370 1.392 . S
C389 C360 1.392 . S
C389 C362 1.389 . S
C390 C365 1.395 . S
C390 C367 1.391 . S
H391 C351 0.951 . S
H392 C352 0.950 . S
H393 C358 0.949 . S
H394 C359 0.950 . S
H395 C363 0.951 . S
H396 C364 0.950 . S
H397 C368 0.949 . S
H398 C369 0.950 . S
H399 C373 0.950 . S
H400 C375 0.950 . S
H401 C378 0.950 . S
H402 C380 0.950 . S
C403 C404 1.443 . S
C403 N407 1.376 . S
C403 C441 1.389 . S
C404 C403 1.443 . S
C404 C405 1.340 . S
C404 H444 0.951 . S
C405 C404 1.340 . S
C405 C406 1.439 . S
C405 H445 0.950 . S
C406 C405 1.439 . S
C406 N407 1.374 . S
C406 C440 1.395 . S
N407 C403 1.376 . S
N407 C406 1.374 . S
N407 Co408 2.008 . S
Co408 N407 2.008 . S
Co408 N409 1.995 . S
Co408 N414 2.008 . S
Co408 N419 1.995 . S
Co408 N424 2.282 . S
Co408 N430 2.282 . S
N409 Co408 1.995 . S
N409 C410 1.376 . S
N409 C413 1.383 . S
C410 N409 1.376 . S
C410 C411 1.446 . S
C410 C440 1.391 . S
C411 C410 1.446 . S
C411 C412 1.339 . S
C411 H446 0.949 . S
C412 C411 1.339 . S
C412 C413 1.439 . S
C412 H447 0.950 . S
C413 N409 1.383 . S
C413 C412 1.439 . S
C413 C442 1.392 . S
N414 Co408 2.008 . S
N414 C415 1.376 . S
N414 C418 1.374 . S
C415 N414 1.376 . S
C415 C416 1.443 . S
C415 C442 1.389 . S
C416 C415 1.443 . S
C416 C417 1.340 . S
C416 H448 0.951 . S
C417 C416 1.340 . S
C417 C418 1.439 . S
C417 H449 0.950 . S
C418 N414 1.374 . S
C418 C417 1.439 . S
C418 C443 1.395 . S
N419 Co408 1.995 . S
N419 C420 1.376 . S
N419 C423 1.383 . S
C420 N419 1.376 . S
C420 C421 1.446 . S
C420 C443 1.391 . S
C421 C420 1.446 . S
C421 C422 1.339 . S
C421 H450 0.949 . S
C422 C421 1.339 . S
C422 C423 1.439 . S
C422 H451 0.950 . S
C423 N419 1.383 . S
C423 C422 1.439 . S
C423 C441 1.392 . S
N424 Co408 2.282 . S
N424 C427 1.332 . S
N424 C429 1.332 . S
C425 C426 1.386 . S
C425 C428 1.388 . S
C426 C425 1.386 . S
C426 C427 1.382 . S
C426 H452 0.950 . S
C427 N424 1.332 . S
C427 C426 1.382 . S
C427 H438 0.952 . S
C428 C425 1.388 . S
C428 C429 1.382 . S
C428 H453 0.950 . S
C429 N424 1.332 . S
C429 C428 1.382 . S
C429 H439 0.948 . S
N430 Co408 2.282 . S
N430 C434 1.332 . S
N430 C435 1.332 . S
C431 C432 1.388 . S
C431 C435 1.382 . S
C431 H454 0.950 . S
C432 C431 1.388 . S
C432 C433 1.386 . S
C433 C432 1.386 . S
C433 C434 1.382 . S
C433 H455 0.950 . S
C434 N430 1.332 . S
C434 C433 1.382 . S
C434 H436 0.952 . S
C435 N430 1.332 . S
C435 C431 1.382 . S
C435 H437 0.948 . S
H436 C434 0.952 . S
H437 C435 0.948 . S
H438 C427 0.952 . S
H439 C429 0.948 . S
C440 C406 1.395 . S
C440 C410 1.391 . S
C441 C403 1.389 . S
C441 C423 1.392 . S
C442 C413 1.392 . S
C442 C415 1.389 . S
C443 C418 1.395 . S
C443 C420 1.391 . S
H444 C404 0.951 . S
H445 C405 0.950 . S
H446 C411 0.949 . S
H447 C412 0.950 . S
H448 C416 0.951 . S
H449 C417 0.950 . S
H450 C421 0.949 . S
H451 C422 0.950 . S
H452 C426 0.950 . S
H453 C428 0.950 . S
H454 C431 0.950 . S
H455 C433 0.950 . S
C456 C457 1.387 . S
C456 H460 0.950 . S
C456 C465 1.390 . S
C457 C456 1.387 . S
C457 C459 1.387 . S
H458 C465 0.950 . S
C459 C457 1.387 . S
C459 C461 1.390 . S
C459 H463 0.950 . S
H460 C456 0.950 . S
C461 C459 1.390 . S
C461 C462 1.387 . S
C461 H464 0.950 . S
C462 C461 1.387 . S
C462 C465 1.387 . S
H463 C459 0.950 . S
H464 C461 0.950 . S
C465 C456 1.390 . S
C465 H458 0.950 . S
C465 C462 1.387 . S
C466 C467 1.387 . S
C466 H470 0.950 . S
C466 C475 1.390 . S
C467 C466 1.387 . S
C467 C469 1.387 . S
H468 C475 0.950 . S
C469 C467 1.387 . S
C469 C471 1.390 . S
C469 H473 0.950 . S
H470 C466 0.950 . S
C471 C469 1.390 . S
C471 C472 1.387 . S
C471 H474 0.950 . S
C472 C471 1.387 . S
C472 C475 1.387 . S
H473 C469 0.950 . S
H474 C471 0.950 . S
C475 C466 1.390 . S
C475 H468 0.950 . S
C475 C472 1.387 . S
C476 C477 1.387 . S
C476 H480 0.950 . S
C476 C485 1.390 . S
C477 C476 1.387 . S
C477 C479 1.387 . S
H478 C485 0.950 . S
C479 C477 1.387 . S
C479 C481 1.390 . S
C479 H483 0.950 . S
H480 C476 0.950 . S
C481 C479 1.390 . S
C481 C482 1.387 . S
C481 H484 0.950 . S
C482 C481 1.387 . S
C482 C485 1.387 . S
H483 C479 0.950 . S
H484 C481 0.950 . S
C485 C476 1.390 . S
C485 H478 0.950 . S
C485 C482 1.387 . S
C486 C487 1.387 . S
C486 H490 0.950 . S
C486 C495 1.390 . S
C487 C486 1.387 . S
C487 C489 1.387 . S
H488 C495 0.950 . S
C489 C487 1.387 . S
C489 C491 1.390 . S
C489 H493 0.950 . S
H490 C486 0.950 . S
C491 C489 1.390 . S
C491 C492 1.387 . S
C491 H494 0.950 . S
C492 C491 1.387 . S
C492 C495 1.387 . S
H493 C489 0.950 . S
H494 C491 0.950 . S
C495 C486 1.390 . S
C495 H488 0.950 . S
C495 C492 1.387 . S
C496 C497 1.387 . S
C496 H500 0.950 . S
C496 C505 1.390 . S
C497 C496 1.387 . S
C497 C499 1.387 . S
H498 C505 0.950 . S
C499 C497 1.387 . S
C499 C501 1.390 . S
C499 H503 0.950 . S
H500 C496 0.950 . S
C501 C499 1.390 . S
C501 C502 1.387 . S
C501 H504 0.950 . S
C502 C501 1.387 . S
C502 C505 1.387 . S
H503 C499 0.950 . S
H504 C501 0.950 . S
C505 C496 1.390 . S
C505 H498 0.950 . S
C505 C502 1.387 . S
C506 C507 1.387 . S
C506 H510 0.950 . S
C506 C515 1.390 . S
C507 C506 1.387 . S
C507 C509 1.387 . S
H508 C515 0.950 . S
C509 C507 1.387 . S
C509 C511 1.390 . S
C509 H513 0.950 . S
H510 C506 0.950 . S
C511 C509 1.390 . S
C511 C512 1.387 . S
C511 H514 0.950 . S
C512 C511 1.387 . S
C512 C515 1.387 . S
H513 C509 0.950 . S
H514 C511 0.950 . S
C515 C506 1.390 . S
C515 H508 0.950 . S
C515 C512 1.387 . S
C516 C517 1.387 . S
C516 H520 0.950 . S
C516 C525 1.390 . S
C517 C516 1.387 . S
C517 C519 1.387 . S
H518 C525 0.950 . S
C519 C517 1.387 . S
C519 C521 1.390 . S
C519 H523 0.950 . S
H520 C516 0.950 . S
C521 C519 1.390 . S
C521 C522 1.387 . S
C521 H524 0.950 . S
C522 C521 1.387 . S
C522 C525 1.387 . S
H523 C519 0.950 . S
H524 C521 0.950 . S
C525 C516 1.390 . S
C525 H518 0.950 . S
C525 C522 1.387 . S
C526 C527 1.387 . S
C526 H530 0.950 . S
C526 C535 1.390 . S
C527 C526 1.387 . S
C527 C529 1.387 . S
H528 C535 0.950 . S
C529 C527 1.387 . S
C529 C531 1.390 . S
C529 H533 0.950 . S
H530 C526 0.950 . S
C531 C529 1.390 . S
C531 C532 1.387 . S
C531 H534 0.950 . S
C532 C531 1.387 . S
C532 C535 1.387 . S
H533 C529 0.950 . S
H534 C531 0.950 . S
C535 C526 1.390 . S
C535 H528 0.950 . S
C535 C532 1.387 . S
C536 C537 1.387 . S
C536 H540 0.950 . S
C536 C545 1.390 . S
C537 C536 1.387 . S
C537 C539 1.387 . S
H538 C545 0.950 . S
C539 C537 1.387 . S
C539 C541 1.390 . S
C539 H543 0.950 . S
H540 C536 0.950 . S
C541 C539 1.390 . S
C541 C542 1.387 . S
C541 H544 0.950 . S
C542 C541 1.387 . S
C542 C545 1.387 . S
H543 C539 0.950 . S
H544 C541 0.950 . S
C545 C536 1.390 . S
C545 H538 0.950 . S
C545 C542 1.387 . S
C546 C547 1.387 . S
C546 H550 0.950 . S
C546 C555 1.390 . S
C547 C546 1.387 . S
C547 C549 1.387 . S
H548 C555 0.950 . S
C549 C547 1.387 . S
C549 C551 1.390 . S
C549 H553 0.950 . S
H550 C546 0.950 . S
C551 C549 1.390 . S
C551 C552 1.387 . S
C551 H554 0.950 . S
C552 C551 1.387 . S
C552 C555 1.387 . S
H553 C549 0.950 . S
H554 C551 0.950 . S
C555 C546 1.390 . S
C555 H548 0.950 . S
C555 C552 1.387 . S
C556 C557 1.387 . S
C556 H560 0.950 . S
C556 C565 1.390 . S
C557 C556 1.387 . S
C557 C559 1.387 . S
H558 C565 0.950 . S
C559 C557 1.387 . S
C559 C561 1.390 . S
C559 H563 0.950 . S
H560 C556 0.950 . S
C561 C559 1.390 . S
C561 C562 1.387 . S
C561 H564 0.950 . S
C562 C561 1.387 . S
C562 C565 1.387 . S
H563 C559 0.950 . S
H564 C561 0.950 . S
C565 C556 1.390 . S
C565 H558 0.950 . S
C565 C562 1.387 . S
C566 C567 1.387 . S
C566 H570 0.950 . S
C566 C575 1.390 . S
C567 C566 1.387 . S
C567 C569 1.387 . S
H568 C575 0.950 . S
C569 C567 1.387 . S
C569 C571 1.390 . S
C569 H573 0.950 . S
H570 C566 0.950 . S
C571 C569 1.390 . S
C571 C572 1.387 . S
C571 H574 0.950 . S
C572 C571 1.387 . S
C572 C575 1.387 . S
H573 C569 0.950 . S
H574 C571 0.950 . S
C575 C566 1.390 . S
C575 H568 0.950 . S
C575 C572 1.387 . S
C576 C577 1.387 . S
C576 H580 0.950 . S
C576 C585 1.390 . S
C577 C576 1.387 . S
C577 C579 1.387 . S
H578 C585 0.950 . S
C579 C577 1.387 . S
C579 C581 1.390 . S
C579 H583 0.950 . S
H580 C576 0.950 . S
C581 C579 1.390 . S
C581 C582 1.387 . S
C581 H584 0.950 . S
C582 C581 1.387 . S
C582 C585 1.387 . S
H583 C579 0.950 . S
H584 C581 0.950 . S
C585 C576 1.390 . S
C585 H578 0.950 . S
C585 C582 1.387 . S
C586 C587 1.387 . S
C586 H590 0.950 . S
C586 C595 1.390 . S
C587 C586 1.387 . S
C587 C589 1.387 . S
H588 C595 0.950 . S
C589 C587 1.387 . S
C589 C591 1.390 . S
C589 H593 0.950 . S
H590 C586 0.950 . S
C591 C589 1.390 . S
C591 C592 1.387 . S
C591 H594 0.950 . S
C592 C591 1.387 . S
C592 C595 1.387 . S
H593 C589 0.950 . S
H594 C591 0.950 . S
C595 C586 1.390 . S
C595 H588 0.950 . S
C595 C592 1.387 . S
C596 C597 1.387 . S
C596 H600 0.950 . S
C596 C605 1.390 . S
C597 C596 1.387 . S
C597 C599 1.387 . S
H598 C605 0.950 . S
C599 C597 1.387 . S
C599 C601 1.390 . S
C599 H603 0.950 . S
H600 C596 0.950 . S
C601 C599 1.390 . S
C601 C602 1.387 . S
C601 H604 0.950 . S
C602 C601 1.387 . S
C602 C605 1.387 . S
H603 C599 0.950 . S
H604 C601 0.950 . S
C605 C596 1.390 . S
C605 H598 0.950 . S
C605 C602 1.387 . S
C606 C607 1.387 . S
C606 H610 0.950 . S
C606 C615 1.390 . S
C607 C606 1.387 . S
C607 C609 1.387 . S
H608 C615 0.950 . S
C609 C607 1.387 . S
C609 C611 1.390 . S
C609 H613 0.950 . S
H610 C606 0.950 . S
C611 C609 1.390 . S
C611 C612 1.387 . S
C611 H614 0.950 . S
C612 C611 1.387 . S
C612 C615 1.387 . S
H613 C609 0.950 . S
H614 C611 0.950 . S
C615 C606 1.390 . S
C615 H608 0.950 . S
C615 C612 1.387 . S
C616 C617 1.387 . S
C616 H620 0.950 . S
C616 C625 1.390 . S
C617 C616 1.387 . S
C617 C619 1.387 . S
H618 C625 0.950 . S
C619 C617 1.387 . S
C619 C621 1.390 . S
C619 H623 0.950 . S
H620 C616 0.950 . S
C621 C619 1.390 . S
C621 C622 1.387 . S
C621 H624 0.950 . S
C622 C621 1.387 . S
C622 C625 1.387 . S
H623 C619 0.950 . S
H624 C621 0.950 . S
C625 C616 1.390 . S
C625 H618 0.950 . S
C625 C622 1.387 . S
C626 C627 1.387 . S
C626 H630 0.950 . S
C626 C635 1.390 . S
C627 C626 1.387 . S
C627 C629 1.387 . S
H628 C635 0.950 . S
C629 C627 1.387 . S
C629 C631 1.390 . S
C629 H633 0.950 . S
H630 C626 0.950 . S
C631 C629 1.390 . S
C631 C632 1.387 . S
C631 H634 0.950 . S
C632 C631 1.387 . S
C632 C635 1.387 . S
H633 C629 0.950 . S
H634 C631 0.950 . S
C635 C626 1.390 . S
C635 H628 0.950 . S
C635 C632 1.387 . S
C636 C637 1.387 . S
C636 H640 0.950 . S
C636 C645 1.390 . S
C637 C636 1.387 . S
C637 C639 1.387 . S
H638 C645 0.950 . S
C639 C637 1.387 . S
C639 C641 1.390 . S
C639 H643 0.950 . S
H640 C636 0.950 . S
C641 C639 1.390 . S
C641 C642 1.387 . S
C641 H644 0.950 . S
C642 C641 1.387 . S
C642 C645 1.387 . S
H643 C639 0.950 . S
H644 C641 0.950 . S
C645 C636 1.390 . S
C645 H638 0.950 . S
C645 C642 1.387 . S
C646 C647 1.387 . S
C646 H650 0.950 . S
C646 C655 1.390 . S
C647 C646 1.387 . S
C647 C649 1.387 . S
H648 C655 0.950 . S
C649 C647 1.387 . S
C649 C651 1.390 . S
C649 H653 0.950 . S
H650 C646 0.950 . S
C651 C649 1.390 . S
C651 C652 1.387 . S
C651 H654 0.950 . S
C652 C651 1.387 . S
C652 C655 1.387 . S
H653 C649 0.950 . S
H654 C651 0.950 . S
C655 C646 1.390 . S
C655 H648 0.950 . S
C655 C652 1.387 . S
C656 C657 1.387 . S
C656 H660 0.950 . S
C656 C665 1.390 . S
C657 C656 1.387 . S
C657 C659 1.387 . S
H658 C665 0.950 . S
C659 C657 1.387 . S
C659 C661 1.390 . S
C659 H663 0.950 . S
H660 C656 0.950 . S
C661 C659 1.390 . S
C661 C662 1.387 . S
C661 H664 0.950 . S
C662 C661 1.387 . S
C662 C665 1.387 . S
H663 C659 0.950 . S
H664 C661 0.950 . S
C665 C656 1.390 . S
C665 H658 0.950 . S
C665 C662 1.387 . S
C666 C667 1.387 . S
C666 H670 0.950 . S
C666 C675 1.390 . S
C667 C666 1.387 . S
C667 C669 1.387 . S
H668 C675 0.950 . S
C669 C667 1.387 . S
C669 C671 1.390 . S
C669 H673 0.950 . S
H670 C666 0.950 . S
C671 C669 1.390 . S
C671 C672 1.387 . S
C671 H674 0.950 . S
C672 C671 1.387 . S
C672 C675 1.387 . S
H673 C669 0.950 . S
H674 C671 0.950 . S
C675 C666 1.390 . S
C675 H668 0.950 . S
C675 C672 1.387 . S
C676 C677 1.387 . S
C676 H680 0.950 . S
C676 C685 1.390 . S
C677 C676 1.387 . S
C677 C679 1.387 . S
H678 C685 0.950 . S
C679 C677 1.387 . S
C679 C681 1.390 . S
C679 H683 0.950 . S
H680 C676 0.950 . S
C681 C679 1.390 . S
C681 C682 1.387 . S
C681 H684 0.950 . S
C682 C681 1.387 . S
C682 C685 1.387 . S
H683 C679 0.950 . S
H684 C681 0.950 . S
C685 C676 1.390 . S
C685 H678 0.950 . S
C685 C682 1.387 . S
C686 C687 1.387 . S
C686 H690 0.950 . S
C686 C695 1.390 . S
C687 C686 1.387 . S
C687 C689 1.387 . S
H688 C695 0.950 . S
C689 C687 1.387 . S
C689 C691 1.390 . S
C689 H693 0.950 . S
H690 C686 0.950 . S
C691 C689 1.390 . S
C691 C692 1.387 . S
C691 H694 0.950 . S
C692 C691 1.387 . S
C692 C695 1.387 . S
H693 C689 0.950 . S
H694 C691 0.950 . S
C695 C686 1.390 . S
C695 H688 0.950 . S
C695 C692 1.387 . S
C457 C7 2.087 . S
C462 C176 2.059 . S
C467 C30 1.543 . S
C472 C229 1.511 . S
C482 C282 1.823 . S
C477 N58 1.796 . S
C492 C319 1.300 . S
C487 N81 1.262 . S
C502 C379 1.801 . S
C497 C99 1.836 . S
C512 C432 1.402 . S
C507 N127 1.374 . S
C517 N25 1.893 . S
C522 C283 1.915 . S
C527 C62 1.521 . S
C532 C326 1.483 . S
C542 C372 1.839 . S
C537 C85 1.857 . S
C552 C425 1.350 . S
C547 N94 1.358 . S
C557 C131 1.951 . S
C562 C177 1.912 . S
C572 C230 1.411 . S
C567 N2 1.391 . S
C582 C336 2.025 . S
C577 C16 2.038 . S
C587 C39 1.507 . S
C592 C388 1.500 . S
C602 C441 1.829 . S
C597 N48 1.798 . S
C607 N71 1.241 . S
C612 C167 1.269 . S
C617 C108 1.808 . S
C622 C220 1.799 . S
C627 N117 1.372 . S
C632 C273 1.404 . S
C637 N35 1.866 . S
C642 C442 1.908 . S
C652 C160 1.478 . S
C647 C53 1.502 . S
C657 C76 1.886 . S
C662 C213 1.860 . S
C667 N104 1.297 . S
C672 C266 1.312 . S
C677 C122 1.896 . S
C682 C335 1.878 . S
C687 N12 1.338 . S
C692 C389 1.384 . S
