# Generated by pormake.
# Topology anh, (6,3)-cn, num edge types: 1
# Building blocks:
#     Node 0, Type 0, BuildingBlock: MIFKUJ_clean_sbu_0, # of connection points: 6
#     Node 1, Type 0, BuildingBlock: MIFKUJ_clean_sbu_0, # of connection points: 6
#     Node 2, Type 0, BuildingBlock: MIFKUJ_clean_sbu_0, # of connection points: 6
#     Node 3, Type 1, BuildingBlock: OLANEW_clean_sbu_2, # of connection points: 3
#     Node 4, Type 1, BuildingBlock: OLANEW_clean_sbu_2, # of connection points: 3
#     Node 5, Type 1, BuildingBlock: OLANEW_clean_sbu_2, # of connection points: 3
#     Node 6, Type 1, BuildingBlock: OLANEW_clean_sbu_2, # of connection points: 3
#     Node 7, Type 1, BuildingBlock: OLANEW_clean_sbu_2, # of connection points: 3
#     Node 8, Type 1, BuildingBlock: OLANEW_clean_sbu_2, # of connection points: 3
#     Edge 9, Type (0, 1), BuildingBlock: KIFKEQ_clean_linker_1, # of connection points: 2
#     Edge 10, Type (0, 1), BuildingBlock: KIFKEQ_clean_linker_1, # of connection points: 2
#     Edge 11, Type (0, 1), BuildingBlock: KIFKEQ_clean_linker_1, # of connection points: 2
#     Edge 12, Type (0, 1), BuildingBlock: KIFKEQ_clean_linker_1, # of connection points: 2
#     Edge 13, Type (0, 1), BuildingBlock: KIFKEQ_clean_linker_1, # of connection points: 2
#     Edge 14, Type (0, 1), BuildingBlock: KIFKEQ_clean_linker_1, # of connection points: 2
#     Edge 15, Type (0, 1), BuildingBlock: KIFKEQ_clean_linker_1, # of connection points: 2
#     Edge 16, Type (0, 1), BuildingBlock: KIFKEQ_clean_linker_1, # of connection points: 2
#     Edge 17, Type (0, 1), BuildingBlock: KIFKEQ_clean_linker_1, # of connection points: 2
#     Edge 18, Type (0, 1), BuildingBlock: KIFKEQ_clean_linker_1, # of connection points: 2
#     Edge 19, Type (0, 1), BuildingBlock: KIFKEQ_clean_linker_1, # of connection points: 2
#     Edge 20, Type (0, 1), BuildingBlock: KIFKEQ_clean_linker_1, # of connection points: 2
#     Edge 21, Type (0, 1), BuildingBlock: KIFKEQ_clean_linker_1, # of connection points: 2
#     Edge 22, Type (0, 1), BuildingBlock: KIFKEQ_clean_linker_1, # of connection points: 2
#     Edge 23, Type (0, 1), BuildingBlock: KIFKEQ_clean_linker_1, # of connection points: 2
#     Edge 24, Type (0, 1), BuildingBlock: KIFKEQ_clean_linker_1, # of connection points: 2
#     Edge 25, Type (0, 1), BuildingBlock: KIFKEQ_clean_linker_1, # of connection points: 2
#     Edge 26, Type (0, 1), BuildingBlock: KIFKEQ_clean_linker_1, # of connection points: 2
# Relax obj value: 0.070
# Max RMSD: 0.127
# Mean RMSD: 0.108
data_MOF--net-anh--node1-MIFKUJ_clean_sbu_0--node2-OLANEW_clean_sbu_2--edge1-KIFKEQ_clean_linker_1
_symmetry_space_group_name_H-M    P1
_symmetry_Int_Tables_number       1
_symmetry_cell_setting            triclinic
loop_
_symmetry_equiv_pos_as_xyz
'x, y, z'
_cell_length_a     35.401394
_cell_length_b     35.497184
_cell_length_c     51.902537
_cell_angle_alpha  94.922627
_cell_angle_beta   90.760797
_cell_angle_gamma 120.33703
loop_
_atom_site_label
_atom_site_type_symbol
_atom_site_fract_x
_atom_site_fract_y
_atom_site_fract_z
_atom_type_partial_charge
Zn0 Zn 0.01844 0.54363 0.14534 0.0
Zn1 Zn 0.93068 0.4504 0.14225 0.0
C2 C 0.0875 0.52834 0.15952 0.0
O3 O 0.09392 0.55874 0.17825 0.0
C4 C 0.87388 0.47983 0.12437 0.0
O5 O 0.87471 0.45813 0.10278 0.0
O6 O 0.06455 0.60795 0.14712 0.0
O7 O -0.01639 0.5284 0.11126 0.0
O8 O 0.9604 0.45772 0.10864 0.0
C9 C 0.09354 0.61911 0.13057 0.0
O10 O 0.09004 0.58927 0.11231 0.0
O11 O 0.05434 0.51353 0.14351 0.0
C12 C 0.85588 0.38041 0.15989 0.0
O13 O 0.86525 0.41288 0.17783 0.0
O14 O 0.88137 0.38741 0.14155 0.0
O15 O 0.96772 0.46405 0.17542 0.0
O16 O -0.01188 0.53403 0.17889 0.0
O17 O 0.89777 0.48376 0.14414 0.0
C18 C 0.97307 0.49252 0.09771 0.0
C19 C 0.97954 0.49981 0.18942 0.0
Zn20 Zn 0.51311 0.04576 0.47381 0.0
Zn21 Zn 0.51191 0.95301 0.46765 0.0
C22 C 0.60058 0.11337 0.49008 0.0
O23 O 0.57931 0.12101 0.50841 0.0
C24 C 0.42075 0.89642 0.45024 0.0
O25 O 0.43776 0.89808 0.42773 0.0
O26 O 0.49835 0.09377 0.479 0.0
O27 O 0.48889 0.01449 0.43804 0.0
O28 O 0.52738 0.9812 0.43434 0.0
C29 C 0.50521 0.11874 0.46131 0.0
O30 O 0.51837 0.11048 0.43911 0.0
O31 O 0.57937 0.07981 0.47358 0.0
C32 C 0.50824 0.87657 0.48139 0.0
O33 O 0.48397 0.88222 0.49846 0.0
O34 O 0.52653 0.90473 0.46532 0.0
O35 O 0.54109 -0.01019 0.50154 0.0
O36 O 0.49358 0.0121 0.50509 0.0
O37 O 0.44582 0.91985 0.47003 0.0
C38 C 0.50744 -0.00186 0.42409 0.0
C39 C 0.51825 0.00059 0.51557 0.0
Zn40 Zn 0.53404 0.47645 0.81191 0.0
Zn41 Zn 0.46399 0.54361 0.81341 0.0
C42 C 0.52493 0.39704 0.82698 0.0
O43 O 0.55003 0.42442 0.84683 0.0
C44 C 0.50958 0.63331 0.79806 0.0
O45 O 0.51747 0.61575 0.77703 0.0
O46 O 0.59957 0.50416 0.81162 0.0
O47 O 0.51261 0.48834 0.77937 0.0
O48 O 0.47515 0.52299 0.77849 0.0
C49 C 0.61398 0.4876 0.79454 0.0
O50 O 0.58599 0.45615 0.77717 0.0
O51 O 0.51167 0.41145 0.80948 0.0
C52 C 0.38863 0.53804 0.83335 0.0
O53 O 0.41907 0.56413 0.85156 0.0
O54 O 0.39934 0.52174 0.81402 0.0
O55 O 0.48182 0.5282 0.84617 0.0
O56 O 0.51966 0.49379 0.8466 0.0
O57 O 0.49025 0.60946 0.81598 0.0
C58 C 0.49288 0.50341 0.76696 0.0
C59 C 0.50063 0.51186 0.85827 0.0
O60 O 0.48009 0.02111 0.21901 0.0
Cd61 Cd 0.48314 0.0283 0.1725 0.0
O62 O 0.5077 0.97779 0.21571 0.0
Cd63 Cd 0.48119 0.95687 0.17552 0.0
O64 O 0.41657 0.90841 0.15715 0.0
C65 C 0.38692 0.89323 0.17323 0.0
O66 O 0.39767 0.90861 0.19781 0.0
C67 C 0.4967 0.00141 0.22971 0.0
C68 C 0.56319 0.10224 0.16407 0.0
O69 O 0.52908 0.10503 0.1684 0.0
O70 O 0.5593 0.06423 0.16314 0.0
O71 O 0.54342 0.50325 0.56274 0.0
Cd72 Cd 0.55327 0.50076 0.51631 0.0
O73 O 0.48106 0.50241 0.559 0.0
Cd74 Cd 0.48982 0.5205 0.51944 0.0
O75 O 0.49207 0.57053 0.49672 0.0
C76 C 0.52734 0.60736 0.49691 0.0
O77 O 0.56316 0.61297 0.50873 0.0
C78 C 0.50987 0.50074 0.57291 0.0
C79 C 0.54111 0.41813 0.50008 0.0
O80 O 0.57847 0.44979 0.50959 0.0
O81 O 0.50963 0.42579 0.49749 0.0
O82 O 0.01511 0.52708 0.89432 0.0
Cd83 Cd 0.0245 0.53265 0.84802 0.0
O84 O 0.96161 0.45829 0.88855 0.0
Cd85 Cd 0.95047 0.46406 0.84806 0.0
O86 O 0.90862 0.48065 0.82643 0.0
C87 C 0.89551 0.50232 0.84054 0.0
O88 O 0.91001 0.51386 0.86503 0.0
C89 C -0.01117 0.49167 0.90367 0.0
C90 C 0.10104 0.53158 0.83773 0.0
O91 O 0.10178 0.56772 0.84389 0.0
O92 O 0.06376 0.49587 0.83562 0.0
O93 O 0.03323 0.52522 0.39658 0.0
Cd94 Cd 0.04888 0.54188 0.44352 0.0
O95 O 0.96154 0.47861 0.39391 0.0
Cd96 Cd 0.94972 0.46017 0.43345 0.0
O97 O 0.90236 0.40401 0.45304 0.0
C98 C 0.87633 0.37033 0.43765 0.0
O99 O 0.88081 0.37219 0.41261 0.0
C100 C -0.0031 0.50237 0.38322 0.0
C101 C 0.12642 0.6237 0.45284 0.0
O102 O 0.127 0.58787 0.45268 0.0
O103 O 0.08918 0.62095 0.4493 0.0
O104 O 0.49813 0.98189 0.72204 0.0
Cd105 Cd 0.50194 0.98415 0.76927 0.0
O106 O 0.56293 0.04163 0.72258 0.0
Cd107 Cd 0.56106 0.06324 0.76295 0.0
O108 O 0.55271 0.11198 0.78684 0.0
C109 C 0.51776 0.11287 0.78239 0.0
O110 O 0.48752 0.08262 0.76541 0.0
C111 C 0.53032 0.0086 0.70999 0.0
C112 C 0.50967 0.91357 0.78258 0.0
O113 O 0.47212 0.91059 0.78037 0.0
O114 O 0.54369 0.95024 0.779 0.0
O115 O 0.51466 0.50739 0.06625 0.0
Cd116 Cd 0.52898 0.51112 0.11298 0.0
O117 O 0.46061 0.52172 0.06365 0.0
Cd118 Cd 0.43825 0.51934 0.10295 0.0
O119 O 0.38058 0.51376 0.12185 0.0
C120 C 0.34978 0.50825 0.10619 0.0
O121 O 0.35507 0.50602 0.0812 0.0
C122 C 0.48887 0.51455 0.05297 0.0
C123 C 0.60812 0.51234 0.12184 0.0
O124 O 0.57107 0.47661 0.12138 0.0
O125 O 0.60785 0.54758 0.11859 0.0
H126 H 0.16689 0.56279 0.18636 0.0
H127 H 0.08731 0.46978 0.12134 0.0
H128 H 0.22813 0.55334 0.17474 0.0
H129 H 0.14829 0.45923 0.11016 0.0
H130 H 0.28187 0.50193 0.07703 0.0
H131 H 0.21675 0.50122 0.09165 0.0
H132 H 0.2593 0.50699 0.17105 0.0
H133 H 0.32557 0.50897 0.15634 0.0
C134 C 0.16213 0.53962 0.16987 0.0
C135 C 0.12224 0.51736 0.15464 0.0
C136 C 0.19731 0.53402 0.16327 0.0
C137 C 0.19346 0.50586 0.14133 0.0
C138 C 0.15278 0.48189 0.12687 0.0
C139 C 0.11764 0.48766 0.13341 0.0
C140 C 0.27737 0.50283 0.09762 0.0
C141 C 0.30915 0.50572 0.11551 0.0
C142 C 0.23967 0.50203 0.10602 0.0
C143 C 0.23249 0.50387 0.13256 0.0
C144 C 0.26394 0.50601 0.15048 0.0
C145 C 0.30187 0.50697 0.14205 0.0
H146 H 0.64908 0.19542 0.51601 0.0
H147 H 0.65532 0.10883 0.45465 0.0
H148 H 0.71896 0.25531 0.50498 0.0
H149 H 0.72626 0.16849 0.44417 0.0
H150 H 0.81248 0.29711 0.40879 0.0
H151 H 0.75041 0.23327 0.42366 0.0
H152 H 0.79632 0.28783 0.50315 0.0
H153 H 0.8581 0.35286 0.48809 0.0
C154 C 0.66585 0.18885 0.50052 0.0
C155 C 0.64631 0.14739 0.48602 0.0
C156 C 0.70618 0.22328 0.49426 0.0
C157 C 0.72821 0.21705 0.47345 0.0
C158 C 0.70981 0.17482 0.45993 0.0
C159 C 0.66926 0.14046 0.46607 0.0
C160 C 0.80961 0.29551 0.42947 0.0
C161 C 0.84019 0.33032 0.44723 0.0
C162 C 0.77408 0.25854 0.43804 0.0
C163 C 0.7682 0.25512 0.46466 0.0
C164 C 0.79943 0.28952 0.4825 0.0
C165 C 0.83498 0.32675 0.47388 0.0
H166 H 0.48189 0.6735 0.834 0.0
H167 H 0.55289 0.69484 0.76452 0.0
H168 H 0.4856 0.74383 0.83285 0.0
H169 H 0.55641 0.76517 0.7634 0.0
H170 H 0.58237 0.90524 0.78076 0.0
H171 H 0.58716 0.84034 0.78723 0.0
H172 H 0.45021 0.77044 0.8031 0.0
H173 H 0.44535 0.83516 0.7967 0.0
C174 C 0.49885 0.69344 0.81869 0.0
C175 C 0.51688 0.6784 0.79924 0.0
C176 C 0.5007 0.7336 0.81795 0.0
C177 C 0.52097 0.75984 0.79792 0.0
C178 C 0.54079 0.7458 0.77917 0.0
C179 C 0.53862 0.70542 0.77976 0.0
C180 C 0.55338 0.87614 0.78585 0.0
C181 C 0.51343 0.87531 0.78814 0.0
C182 C 0.55611 0.83894 0.78943 0.0
C183 C 0.51908 0.80031 0.79566 0.0
C184 C 0.47945 0.79988 0.7986 0.0
C185 C 0.4766 0.83689 0.79478 0.0
H186 H 0.8391 0.50245 0.08568 0.0
H187 H 0.83273 0.48632 0.16731 0.0
H188 H 0.77745 0.51534 0.08743 0.0
H189 H 0.77021 0.49815 0.16886 0.0
H190 H 0.62147 0.4511 0.14215 0.0
H191 H 0.68978 0.44961 0.14522 0.0
H192 H 0.75723 0.5718 0.11114 0.0
H193 H 0.68922 0.57396 0.10859 0.0
C194 C 0.82489 0.50228 0.10406 0.0
C195 C 0.84077 0.49351 0.12637 0.0
C196 C 0.7897 0.50972 0.10506 0.0
C197 C 0.76901 0.50755 0.12825 0.0
C198 C 0.78553 0.49986 0.15073 0.0
C199 C 0.82145 0.49343 0.14987 0.0
C200 C 0.65097 0.47787 0.13557 0.0
C201 C 0.64994 0.5126 0.12509 0.0
C202 C 0.69007 0.47713 0.13746 0.0
C203 C 0.72872 0.51061 0.12843 0.0
C204 C 0.72785 0.54557 0.11821 0.0
C205 C 0.68897 0.54682 0.11683 0.0
H206 H 0.38448 0.85781 0.49382 0.0
H207 H 0.35343 0.85685 0.41292 0.0
H208 H 0.3114 0.794 0.4968 0.0
H209 H 0.28014 0.79368 0.41612 0.0
H210 H 0.13924 0.70194 0.43948 0.0
H211 H 0.20862 0.77175 0.44088 0.0
H212 H 0.27611 0.71293 0.47423 0.0
H213 H 0.207 0.64285 0.4724 0.0
C214 C 0.36174 0.84461 0.47684 0.0
C215 C 0.37467 0.8623 0.45311 0.0
C216 C 0.32008 0.80794 0.47853 0.0
C217 C 0.29024 0.78889 0.45668 0.0
C218 C 0.30242 0.80789 0.43329 0.0
C219 C 0.34436 0.84395 0.43146 0.0
C220 C 0.1688 0.70401 0.44736 0.0
C221 C 0.16769 0.66685 0.45575 0.0
C222 C 0.20847 0.74391 0.44805 0.0
C223 C 0.24764 0.74769 0.45768 0.0
C224 C 0.24631 0.71099 0.46692 0.0
C225 C 0.20681 0.67086 0.46574 0.0
H226 H 0.54825 0.35615 0.86077 0.0
H227 H 0.4837 0.33532 0.78529 0.0
H228 H 0.54153 0.28419 0.85334 0.0
H229 H 0.47791 0.26391 0.77763 0.0
H230 H 0.44787 0.12484 0.77621 0.0
H231 H 0.44421 0.19025 0.78996 0.0
H232 H 0.57519 0.25199 0.82639 0.0
H233 H 0.57846 0.18626 0.81318 0.0
C234 C 0.53233 0.3361 0.84266 0.0
C235 C 0.51674 0.3516 0.82356 0.0
C236 C 0.5287 0.29494 0.83835 0.0
C237 C 0.50947 0.26835 0.81482 0.0
C238 C 0.49245 0.28324 0.79611 0.0
C239 C 0.49598 0.32435 0.80044 0.0
C240 C 0.47567 0.15214 0.78747 0.0
C241 C 0.51361 0.15043 0.79342 0.0
C242 C 0.47365 0.18975 0.79521 0.0
C243 C 0.50955 0.22658 0.80906 0.0
C244 C 0.54676 0.22412 0.81597 0.0
C245 C 0.54873 0.18646 0.80827 0.0
H246 H 0.56638 0.85999 0.45543 0.0
H247 H 0.45845 0.8032 0.50509 0.0
H248 H 0.57187 0.79366 0.45453 0.0
H249 H 0.46386 0.73751 0.50405 0.0
H250 H 0.45582 0.60996 0.47899 0.0
H251 H 0.452 0.67485 0.47158 0.0
H252 H 0.59203 0.75604 0.48782 0.0
H253 H 0.59609 0.69108 0.49525 0.0
C254 C 0.5438 0.83338 0.46605 0.0
C255 C 0.51209 0.83688 0.4804 0.0
C256 C 0.547 0.79554 0.46556 0.0
C257 C 0.51805 0.76033 0.47904 0.0
C258 C 0.48618 0.76381 0.49314 0.0
C259 C 0.48337 0.80167 0.49392 0.0
C260 C 0.48597 0.64148 0.48054 0.0
C261 C 0.5262 0.64539 0.48807 0.0
C262 C 0.4837 0.67867 0.47641 0.0
C263 C 0.52163 0.72052 0.47947 0.0
C264 C 0.56229 0.72417 0.48527 0.0
C265 C 0.56454 0.68696 0.48962 0.0
H266 H 0.64922 0.44218 0.7707 0.0
H267 H 0.68308 0.55746 0.82321 0.0
H268 H 0.72187 0.45316 0.7791 0.0
H269 H 0.75684 0.56987 0.83074 0.0
H270 H 0.85094 0.53373 0.86851 0.0
H271 H 0.78751 0.53715 0.85414 0.0
H272 H 0.79827 0.49295 0.77576 0.0
H273 H 0.861 0.48762 0.79056 0.0
C274 C 0.6726 0.47056 0.78356 0.0
C275 C 0.66022 0.49862 0.79658 0.0
C276 C 0.71452 0.47708 0.78826 0.0
C277 C 0.7453 0.51218 0.80585 0.0
C278 C 0.7337 0.54188 0.81756 0.0
C279 C 0.69151 0.53497 0.81314 0.0
C280 C 0.84016 0.5252 0.84814 0.0
C281 C 0.86069 0.50985 0.83074 0.0
C282 C 0.80385 0.52754 0.8398 0.0
C283 C 0.7874 0.5151 0.81376 0.0
C284 C 0.80945 0.50197 0.79606 0.0
C285 C 0.84558 0.49914 0.80449 0.0
H286 H 0.16855 0.64688 0.10511 0.0
H287 H 0.10932 0.69093 0.1634 0.0
H288 H 0.23743 0.71597 0.1138 0.0
H289 H 0.17792 0.76095 0.17145 0.0
H290 H 0.3203 0.84908 0.20424 0.0
H291 H 0.24797 0.78635 0.19191 0.0
H292 H 0.27796 0.79306 0.11137 0.0
H293 H 0.3514 0.8553 0.12394 0.0
C294 C 0.16996 0.67168 0.11944 0.0
C295 C 0.13353 0.66322 0.13373 0.0
C296 C 0.2095 0.71152 0.12433 0.0
C297 C 0.2135 0.74407 0.14349 0.0
C298 C 0.17636 0.73632 0.15694 0.0
C299 C 0.13691 0.69628 0.15221 0.0
C300 C 0.31147 0.83744 0.18386 0.0
C301 C 0.34179 0.85706 0.16509 0.0
C302 C 0.2697 0.80156 0.17674 0.0
C303 C 0.25692 0.78448 0.15061 0.0
C304 C 0.28686 0.8049 0.13172 0.0
C305 C 0.3289 0.84073 0.13889 0.0
H306 H 0.51022 0.16174 0.50856 0.0
H307 H 0.49923 0.16906 0.42635 0.0
H308 H 0.51708 0.23377 0.51745 0.0
H309 H 0.50536 0.24087 0.43539 0.0
H310 H 0.47434 0.34956 0.46921 0.0
H311 H 0.46201 0.27521 0.4595 0.0
H312 H 0.57911 0.31173 0.50669 0.0
H313 H 0.59199 0.38606 0.51603 0.0
C314 C 0.50851 0.17837 0.49241 0.0
C315 C 0.50425 0.15981 0.46674 0.0
C316 C 0.51274 0.21967 0.49752 0.0
C317 C 0.51196 0.24283 0.47708 0.0
C318 C 0.5059 0.22355 0.45146 0.0
C319 C 0.50251 0.18258 0.44632 0.0
C320 C 0.49752 0.34173 0.4774 0.0
C321 C 0.53417 0.37364 0.49335 0.0
C322 C 0.49049 0.29929 0.47181 0.0
C323 C 0.51946 0.28781 0.48251 0.0
C324 C 0.55606 0.31969 0.49842 0.0
C325 C 0.56356 0.36227 0.5036 0.0
H326 H 0.35856 0.57328 0.87053 0.0
H327 H 0.31839 0.49022 0.79777 0.0
H328 H 0.28827 0.56997 0.87022 0.0
H329 H 0.24773 0.48718 0.79747 0.0
H330 H 0.11069 0.46088 0.82352 0.0
H331 H 0.17912 0.45966 0.82203 0.0
H332 H 0.25274 0.59976 0.84353 0.0
H333 H 0.18471 0.60107 0.84518 0.0
C334 C 0.33464 0.55406 0.85453 0.0
C335 C 0.34423 0.53224 0.83408 0.0
C336 C 0.29445 0.55244 0.85428 0.0
C337 C 0.26275 0.52882 0.83365 0.0
C338 C 0.27156 0.5056 0.81364 0.0
C339 C 0.31201 0.50741 0.81381 0.0
C340 C 0.14152 0.49146 0.82772 0.0
C341 C 0.14226 0.53104 0.83461 0.0
C342 C 0.18065 0.49074 0.82679 0.0
C343 C 0.22121 0.52953 0.83294 0.0
C344 C 0.22192 0.56922 0.83913 0.0
C345 C 0.18293 0.56999 0.8399 0.0
H346 H 0.82476 0.30552 0.12594 0.0
H347 H 0.79291 0.3592 0.19451 0.0
H348 H 0.75397 0.23733 0.12556 0.0
H349 H 0.72285 0.29143 0.19416 0.0
H350 H 0.58245 0.18739 0.16866 0.0
H351 H 0.65368 0.2533 0.16671 0.0
H352 H 0.71272 0.17353 0.15153 0.0
H353 H 0.64116 0.10726 0.15328 0.0
C354 C 0.80287 0.30269 0.14101 0.0
C355 C 0.81446 0.33788 0.16019 0.0
C356 C 0.76241 0.26363 0.14082 0.0
C357 C 0.73265 0.25918 0.15969 0.0
C358 C 0.74469 0.2941 0.17909 0.0
C359 C 0.78507 0.33288 0.17938 0.0
C360 C 0.6105 0.18379 0.16474 0.0
C361 C 0.60611 0.14203 0.16125 0.0
C362 C 0.6514 0.22161 0.16378 0.0
C363 C 0.68891 0.21864 0.1592 0.0
C364 C 0.68439 0.17687 0.15497 0.0
C365 C 0.64343 0.13894 0.15608 0.0
H366 H -0.00582 0.5596 0.06806 0.0
H367 H 0.95762 0.423 0.06291 0.0
H368 H -0.00123 0.55816 0.0213 0.0
H369 H 0.9634 0.42193 0.01613 0.0
H370 H 0.93055 0.4252 0.93051 0.0
H371 H 0.92705 0.42486 -0.02267 0.0
H372 H 0.04338 0.55378 -0.01205 0.0
H373 H 0.04621 0.55465 0.94115 0.0
C374 C -0.01273 0.52928 0.05697 0.0
C375 C 0.97545 0.49138 0.06923 0.0
C376 C -0.00975 0.52856 0.03016 0.0
C377 C -0.01833 0.48999 0.01496 0.0
C378 C 0.96975 0.45205 0.02722 0.0
C379 C 0.96662 0.45272 0.05406 0.0
C380 C 0.95554 0.45337 0.94283 0.0
C381 C -0.01147 0.49005 0.93208 0.0
C382 C 0.95364 0.45309 0.96969 0.0
C383 C -0.01522 0.4894 -0.01359 0.0
C384 C 0.01839 0.52561 0.97563 0.0
C385 C 0.02019 0.52598 0.94879 0.0
H386 H 0.4917 0.05171 0.39677 0.0
H387 H 0.52002 0.94662 0.3872 0.0
H388 H 0.49228 0.05538 0.35026 0.0
H389 H 0.5178 0.94812 0.34045 0.0
H390 H 0.55045 -0.01453 0.25933 0.0
H391 H 0.5547 -0.01339 0.3063 0.0
H392 H 0.45326 0.02044 0.31115 0.0
H393 H 0.45118 0.02185 0.26447 0.0
C394 C 0.49761 0.02906 0.38467 0.0
C395 C 0.50607 -0.00093 0.39568 0.0
C396 C 0.49761 0.03088 0.3579 0.0
C397 C 0.50506 0.00203 0.34137 0.0
C398 C 0.51291 0.97158 0.35247 0.0
C399 C 0.51382 0.97041 0.37931 0.0
C400 C 0.52939 -0.00648 0.27054 0.0
C401 C 0.50061 0.00371 0.25826 0.0
C402 C 0.53148 -0.00621 0.29748 0.0
C403 C 0.50415 0.00337 0.31272 0.0
C404 C 0.47548 0.01373 0.30028 0.0
C405 C 0.47407 0.01433 0.27342 0.0
H406 H 0.46239 0.53925 0.73356 0.0
H407 H 0.52194 0.4589 0.73532 0.0
H408 H 0.46499 0.53614 0.68663 0.0
H409 H 0.52345 0.4549 0.68833 0.0
H410 H 0.56848 0.50377 0.60909 0.0
H411 H 0.56229 0.50221 0.65568 0.0
H412 H 0.43382 0.48757 0.64706 0.0
H413 H 0.44047 0.49029 0.6005 0.0
C414 C 0.4756 0.52052 0.72394 0.0
C415 C 0.49211 0.49949 0.73827 0.0
C416 C 0.47687 0.51854 0.69698 0.0
C417 C 0.49452 0.49535 0.6837 0.0
C418 C 0.51027 0.47363 0.69798 0.0
C419 C 0.50916 0.47573 0.72494 0.0
C420 C 0.53881 0.5 0.6171 0.0
C421 C 0.50505 0.49733 0.60106 0.0
C422 C 0.53515 0.49886 0.64382 0.0
C423 C 0.49758 0.49483 0.65514 0.0
C424 C 0.46348 0.49137 0.63903 0.0
C425 C 0.4672 0.49267 0.6123 0.0
H426 H 0.57674 -0.00869 0.54542 0.0
H427 H 0.463 0.00612 0.54989 0.0
H428 H 0.57949 -0.01036 0.59237 0.0
H429 H 0.46576 0.00423 0.59673 0.0
H430 H 0.45935 0.95497 0.67625 0.0
H431 H 0.45617 0.95025 0.62894 0.0
H432 H 0.59485 0.04471 0.63169 0.0
H433 H 0.59816 0.04968 0.67894 0.0
C434 C 0.55228 -0.00592 0.55638 0.0
C435 C 0.51975 -0.00098 0.54394 0.0
C436 C 0.55395 -0.00676 0.58324 0.0
C437 C 0.52278 -0.00329 0.59814 0.0
C438 C 0.48992 0.00102 0.58567 0.0
C439 C 0.48856 0.00242 0.55888 0.0
C440 C 0.48925 0.9744 0.66677 0.0
C441 C 0.52897 0.00285 0.68135 0.0
C442 C 0.48734 0.97187 0.63971 0.0
C443 C 0.52523 -0.00275 0.6267 0.0
C444 C 0.56521 0.02456 0.64122 0.0
C445 C 0.56703 0.02754 0.66827 0.0
H446 H 0.55828 0.50906 0.89239 0.0
H447 H 0.44087 0.51743 0.88855 0.0
H448 H 0.55709 0.51152 0.93936 0.0
H449 H 0.4379 0.51718 0.9353 0.0
H450 H 0.4641 0.55675 0.02134 0.0
H451 H 0.46886 0.55798 0.97475 0.0
H452 H 0.52258 0.47215 0.97358 0.0
H453 H 0.52023 0.47335 0.02051 0.0
C454 C 0.53197 0.51103 0.90162 0.0
C455 C 0.49979 0.51326 0.88681 0.0
C456 C 0.53103 0.51209 0.92858 0.0
C457 C 0.49734 0.51448 0.94137 0.0
C458 C 0.46495 0.51633 0.92638 0.0
C459 C 0.46644 0.5162 0.89948 0.0
C460 C 0.47703 0.53824 0.0111 0.0
C461 C 0.49178 0.51494 0.02458 0.0
C462 C 0.47948 0.53864 -0.01572 0.0
C463 C 0.49586 0.51494 0.97013 0.0
C464 C 0.51052 0.4915 -0.01627 0.0
C465 C 0.50892 0.49189 0.01066 0.0
H466 H -0.00337 0.4481 0.21754 0.0
H467 H 0.97136 0.55543 0.22548 0.0
H468 H 0.00279 0.45071 0.26484 0.0
H469 H 0.97623 0.55695 0.27278 0.0
H470 H 0.92774 0.48748 0.35147 0.0
H471 H 0.92515 0.48892 0.30441 0.0
H472 H 0.05959 0.51976 0.3037 0.0
H473 H 0.06287 0.51972 0.35094 0.0
C474 C -0.00775 0.47209 0.22939 0.0
C475 C -0.01652 0.50155 0.2179 0.0
C476 C -0.00402 0.47367 0.25635 0.0
C477 C -0.01004 0.50401 0.27222 0.0
C478 C 0.98094 0.53329 0.26081 0.0
C479 C 0.97828 0.53245 0.23385 0.0
C480 C 0.95679 0.4947 0.34129 0.0
C481 C -0.00448 0.50349 0.35484 0.0
C482 C 0.9553 0.49569 0.31446 0.0
C483 C -0.00784 0.50443 0.30065 0.0
C484 C 0.0308 0.5129 0.31406 0.0
C485 C 0.03266 0.513 0.34101 0.0
loop_
_geom_bond_atom_site_label_1
_geom_bond_atom_site_label_2
_geom_bond_distance
_geom_bond_site_symmetry_2
_ccdc_geom_bond_type
Zn0 O6 1.969 . S
Zn0 O7 1.965 . S
Zn0 O11 2.024 . S
Zn0 O16 1.969 . S
Zn1 O8 1.969 . S
Zn1 O14 1.969 . S
Zn1 O15 1.965 . S
Zn1 O17 2.024 . S
C2 O3 1.229 . S
C2 O11 1.058 . S
O3 C2 1.229 . S
C4 O5 1.229 . S
C4 O17 1.058 . S
O5 C4 1.229 . S
O6 Zn0 1.969 . S
O6 C9 1.267 . S
O7 Zn0 1.965 . S
O7 C18 1.260 1_455 S
O8 Zn1 1.969 . S
O8 C18 1.258 . S
C9 O6 1.267 . S
C9 O10 1.228 . S
O10 C9 1.228 . S
O11 Zn0 2.024 . S
O11 C2 1.058 . S
C12 O13 1.228 . S
C12 O14 1.267 . S
O13 C12 1.228 . S
O14 Zn1 1.969 . S
O14 C12 1.267 . S
O15 Zn1 1.965 . S
O15 C19 1.260 1_655 S
O16 Zn0 1.969 . S
O16 C19 1.258 . S
O17 Zn1 2.024 . S
O17 C4 1.058 . S
C18 O7 1.260 1_655 S
C18 O8 1.258 . S
C19 O15 1.260 1_455 S
C19 O16 1.258 . S
Zn20 O26 1.969 . S
Zn20 O27 1.965 . S
Zn20 O31 2.024 . S
Zn20 O36 1.969 . S
Zn21 O28 1.969 . S
Zn21 O34 1.969 . S
Zn21 O35 1.965 . S
Zn21 O37 2.024 . S
C22 O23 1.229 . S
C22 O31 1.058 . S
O23 C22 1.229 . S
C24 O25 1.229 . S
C24 O37 1.058 . S
O25 C24 1.229 . S
O26 Zn20 1.969 . S
O26 C29 1.267 . S
O27 Zn20 1.965 . S
O27 C38 1.260 . S
O28 Zn21 1.969 . S
O28 C38 1.258 1_565 S
C29 O26 1.267 . S
C29 O30 1.228 . S
O30 C29 1.228 . S
O31 Zn20 2.024 . S
O31 C22 1.058 . S
C32 O33 1.228 . S
C32 O34 1.267 . S
O33 C32 1.228 . S
O34 Zn21 1.969 . S
O34 C32 1.267 . S
O35 Zn21 1.965 . S
O35 C39 1.260 1_565 S
O36 Zn20 1.969 . S
O36 C39 1.258 . S
O37 Zn21 2.024 . S
O37 C24 1.058 . S
C38 O27 1.260 . S
C38 O28 1.258 1_545 S
C39 O35 1.260 1_545 S
C39 O36 1.258 . S
Zn40 O46 1.969 . S
Zn40 O47 1.965 . S
Zn40 O51 2.024 . S
Zn40 O56 1.969 . S
Zn41 O48 1.969 . S
Zn41 O54 1.969 . S
Zn41 O55 1.965 . S
Zn41 O57 2.024 . S
C42 O43 1.229 . S
C42 O51 1.058 . S
O43 C42 1.229 . S
C44 O45 1.229 . S
C44 O57 1.058 . S
O45 C44 1.229 . S
O46 Zn40 1.969 . S
O46 C49 1.267 . S
O47 Zn40 1.965 . S
O47 C58 1.260 . S
O48 Zn41 1.969 . S
O48 C58 1.258 . S
C49 O46 1.267 . S
C49 O50 1.228 . S
O50 C49 1.228 . S
O51 Zn40 2.024 . S
O51 C42 1.058 . S
C52 O53 1.228 . S
C52 O54 1.267 . S
O53 C52 1.228 . S
O54 Zn41 1.969 . S
O54 C52 1.267 . S
O55 Zn41 1.965 . S
O55 C59 1.260 . S
O56 Zn40 1.969 . S
O56 C59 1.258 . S
O57 Zn41 2.024 . S
O57 C44 1.058 . S
C58 O47 1.260 . S
C58 O48 1.258 . S
C59 O55 1.260 . S
C59 O56 1.258 . S
O60 Cd61 2.300 . S
O60 C67 1.275 . S
Cd61 O60 2.300 . S
Cd61 O69 2.381 . S
Cd61 O70 2.378 . S
O62 Cd63 2.385 . S
O62 C67 1.255 1_565 S
Cd63 O62 2.385 . S
Cd63 O64 2.317 . S
O64 Cd63 2.317 . S
O64 C65 1.232 . S
C65 O64 1.232 . S
C65 O66 1.218 . S
O66 C65 1.218 . S
C67 O60 1.275 . S
C67 O62 1.255 1_545 S
C68 O69 1.258 . S
C68 O70 1.256 . S
O69 Cd61 2.381 . S
O69 C68 1.258 . S
O70 Cd61 2.378 . S
O70 C68 1.256 . S
O71 Cd72 2.300 . S
O71 C78 1.275 . S
Cd72 O71 2.300 . S
Cd72 O80 2.381 . S
Cd72 O81 2.378 . S
O73 Cd74 2.385 . S
O73 C78 1.255 . S
Cd74 O73 2.385 . S
Cd74 O75 2.317 . S
O75 Cd74 2.317 . S
O75 C76 1.232 . S
C76 O75 1.232 . S
C76 O77 1.218 . S
O77 C76 1.218 . S
C78 O71 1.275 . S
C78 O73 1.255 . S
C79 O80 1.258 . S
C79 O81 1.256 . S
O80 Cd72 2.381 . S
O80 C79 1.258 . S
O81 Cd72 2.378 . S
O81 C79 1.256 . S
O82 Cd83 2.300 . S
O82 C89 1.275 . S
Cd83 O82 2.300 . S
Cd83 O91 2.381 . S
Cd83 O92 2.378 . S
O84 Cd85 2.385 . S
O84 C89 1.255 1_655 S
Cd85 O84 2.385 . S
Cd85 O86 2.317 . S
O86 Cd85 2.317 . S
O86 C87 1.232 . S
C87 O86 1.232 . S
C87 O88 1.218 . S
O88 C87 1.218 . S
C89 O82 1.275 . S
C89 O84 1.255 1_455 S
C90 O91 1.258 . S
C90 O92 1.256 . S
O91 Cd83 2.381 . S
O91 C90 1.258 . S
O92 Cd83 2.378 . S
O92 C90 1.256 . S
O93 Cd94 2.300 . S
O93 C100 1.275 . S
Cd94 O93 2.300 . S
Cd94 O102 2.381 . S
Cd94 O103 2.378 . S
O95 Cd96 2.385 . S
O95 C100 1.255 1_655 S
Cd96 O95 2.385 . S
Cd96 O97 2.317 . S
O97 Cd96 2.317 . S
O97 C98 1.232 . S
C98 O97 1.232 . S
C98 O99 1.218 . S
O99 C98 1.218 . S
C100 O93 1.275 . S
C100 O95 1.255 1_455 S
C101 O102 1.258 . S
C101 O103 1.256 . S
O102 Cd94 2.381 . S
O102 C101 1.258 . S
O103 Cd94 2.378 . S
O103 C101 1.256 . S
O104 Cd105 2.300 . S
O104 C111 1.275 1_565 S
Cd105 O104 2.300 . S
Cd105 O113 2.381 . S
Cd105 O114 2.378 . S
O106 Cd107 2.385 . S
O106 C111 1.255 . S
Cd107 O106 2.385 . S
Cd107 O108 2.317 . S
O108 Cd107 2.317 . S
O108 C109 1.232 . S
C109 O108 1.232 . S
C109 O110 1.218 . S
O110 C109 1.218 . S
C111 O104 1.275 1_545 S
C111 O106 1.255 . S
C112 O113 1.258 . S
C112 O114 1.256 . S
O113 Cd105 2.381 . S
O113 C112 1.258 . S
O114 Cd105 2.378 . S
O114 C112 1.256 . S
O115 Cd116 2.300 . S
O115 C122 1.275 . S
Cd116 O115 2.300 . S
Cd116 O124 2.381 . S
Cd116 O125 2.378 . S
O117 Cd118 2.385 . S
O117 C122 1.255 . S
Cd118 O117 2.385 . S
Cd118 O119 2.317 . S
O119 Cd118 2.317 . S
O119 C120 1.232 . S
C120 O119 1.232 . S
C120 O121 1.218 . S
O121 C120 1.218 . S
C122 O115 1.275 . S
C122 O117 1.255 . S
C123 O124 1.258 . S
C123 O125 1.256 . S
O124 Cd116 2.381 . S
O124 C123 1.258 . S
O125 Cd116 2.378 . S
O125 C123 1.256 . S
H126 C134 0.950 . S
H127 C139 0.950 . S
H128 C136 0.950 . S
H129 C138 0.950 . S
H130 C140 0.950 . S
H131 C142 0.950 . S
H132 C144 0.950 . S
H133 C145 0.950 . S
C134 H126 0.950 . S
C134 C135 1.386 . S
C134 C136 1.391 . S
C135 C134 1.386 . S
C135 C139 1.393 . S
C136 H128 0.950 . S
C136 C134 1.391 . S
C136 C137 1.400 . S
C137 C136 1.400 . S
C137 C138 1.398 . S
C137 C143 1.491 . S
C138 H129 0.950 . S
C138 C137 1.398 . S
C138 C139 1.391 . S
C139 H127 0.950 . S
C139 C135 1.393 . S
C139 C138 1.391 . S
C140 H130 0.950 . S
C140 C141 1.386 . S
C140 C142 1.391 . S
C141 C140 1.386 . S
C141 C145 1.393 . S
C142 H131 0.950 . S
C142 C140 1.391 . S
C142 C143 1.400 . S
C143 C137 1.491 . S
C143 C142 1.400 . S
C143 C144 1.398 . S
C144 H132 0.950 . S
C144 C143 1.398 . S
C144 C145 1.391 . S
C145 H133 0.950 . S
C145 C141 1.393 . S
C145 C144 1.391 . S
H146 C154 0.950 . S
H147 C159 0.950 . S
H148 C156 0.950 . S
H149 C158 0.950 . S
H150 C160 0.950 . S
H151 C162 0.950 . S
H152 C164 0.950 . S
H153 C165 0.950 . S
C154 H146 0.950 . S
C154 C155 1.386 . S
C154 C156 1.391 . S
C155 C154 1.386 . S
C155 C159 1.393 . S
C156 H148 0.950 . S
C156 C154 1.391 . S
C156 C157 1.400 . S
C157 C156 1.400 . S
C157 C158 1.398 . S
C157 C163 1.491 . S
C158 H149 0.950 . S
C158 C157 1.398 . S
C158 C159 1.391 . S
C159 H147 0.950 . S
C159 C155 1.393 . S
C159 C158 1.391 . S
C160 H150 0.950 . S
C160 C161 1.386 . S
C160 C162 1.391 . S
C161 C160 1.386 . S
C161 C165 1.393 . S
C162 H151 0.950 . S
C162 C160 1.391 . S
C162 C163 1.400 . S
C163 C157 1.491 . S
C163 C162 1.400 . S
C163 C164 1.398 . S
C164 H152 0.950 . S
C164 C163 1.398 . S
C164 C165 1.391 . S
C165 H153 0.950 . S
C165 C161 1.393 . S
C165 C164 1.391 . S
H166 C174 0.950 . S
H167 C179 0.950 . S
H168 C176 0.950 . S
H169 C178 0.950 . S
H170 C180 0.950 . S
H171 C182 0.950 . S
H172 C184 0.950 . S
H173 C185 0.950 . S
C174 H166 0.950 . S
C174 C175 1.386 . S
C174 C176 1.391 . S
C175 C174 1.386 . S
C175 C179 1.393 . S
C176 H168 0.950 . S
C176 C174 1.391 . S
C176 C177 1.400 . S
C177 C176 1.400 . S
C177 C178 1.398 . S
C177 C183 1.491 . S
C178 H169 0.950 . S
C178 C177 1.398 . S
C178 C179 1.391 . S
C179 H167 0.950 . S
C179 C175 1.393 . S
C179 C178 1.391 . S
C180 H170 0.950 . S
C180 C181 1.386 . S
C180 C182 1.391 . S
C181 C180 1.386 . S
C181 C185 1.393 . S
C182 H171 0.950 . S
C182 C180 1.391 . S
C182 C183 1.400 . S
C183 C177 1.491 . S
C183 C182 1.400 . S
C183 C184 1.398 . S
C184 H172 0.950 . S
C184 C183 1.398 . S
C184 C185 1.391 . S
C185 H173 0.950 . S
C185 C181 1.393 . S
C185 C184 1.391 . S
H186 C194 0.950 . S
H187 C199 0.950 . S
H188 C196 0.950 . S
H189 C198 0.950 . S
H190 C200 0.950 . S
H191 C202 0.950 . S
H192 C204 0.950 . S
H193 C205 0.950 . S
C194 H186 0.950 . S
C194 C195 1.386 . S
C194 C196 1.391 . S
C195 C194 1.386 . S
C195 C199 1.393 . S
C196 H188 0.950 . S
C196 C194 1.391 . S
C196 C197 1.400 . S
C197 C196 1.400 . S
C197 C198 1.398 . S
C197 C203 1.491 . S
C198 H189 0.950 . S
C198 C197 1.398 . S
C198 C199 1.391 . S
C199 H187 0.950 . S
C199 C195 1.393 . S
C199 C198 1.391 . S
C200 H190 0.950 . S
C200 C201 1.386 . S
C200 C202 1.391 . S
C201 C200 1.386 . S
C201 C205 1.393 . S
C202 H191 0.950 . S
C202 C200 1.391 . S
C202 C203 1.400 . S
C203 C197 1.491 . S
C203 C202 1.400 . S
C203 C204 1.398 . S
C204 H192 0.950 . S
C204 C203 1.398 . S
C204 C205 1.391 . S
C205 H193 0.950 . S
C205 C201 1.393 . S
C205 C204 1.391 . S
H206 C214 0.950 . S
H207 C219 0.950 . S
H208 C216 0.950 . S
H209 C218 0.950 . S
H210 C220 0.950 . S
H211 C222 0.950 . S
H212 C224 0.950 . S
H213 C225 0.950 . S
C214 H206 0.950 . S
C214 C215 1.386 . S
C214 C216 1.391 . S
C215 C214 1.386 . S
C215 C219 1.393 . S
C216 H208 0.950 . S
C216 C214 1.391 . S
C216 C217 1.400 . S
C217 C216 1.400 . S
C217 C218 1.398 . S
C217 C223 1.491 . S
C218 H209 0.950 . S
C218 C217 1.398 . S
C218 C219 1.391 . S
C219 H207 0.950 . S
C219 C215 1.393 . S
C219 C218 1.391 . S
C220 H210 0.950 . S
C220 C221 1.386 . S
C220 C222 1.391 . S
C221 C220 1.386 . S
C221 C225 1.393 . S
C222 H211 0.950 . S
C222 C220 1.391 . S
C222 C223 1.400 . S
C223 C217 1.491 . S
C223 C222 1.400 . S
C223 C224 1.398 . S
C224 H212 0.950 . S
C224 C223 1.398 . S
C224 C225 1.391 . S
C225 H213 0.950 . S
C225 C221 1.393 . S
C225 C224 1.391 . S
H226 C234 0.950 . S
H227 C239 0.950 . S
H228 C236 0.950 . S
H229 C238 0.950 . S
H230 C240 0.950 . S
H231 C242 0.950 . S
H232 C244 0.950 . S
H233 C245 0.950 . S
C234 H226 0.950 . S
C234 C235 1.386 . S
C234 C236 1.391 . S
C235 C234 1.386 . S
C235 C239 1.393 . S
C236 H228 0.950 . S
C236 C234 1.391 . S
C236 C237 1.400 . S
C237 C236 1.400 . S
C237 C238 1.398 . S
C237 C243 1.491 . S
C238 H229 0.950 . S
C238 C237 1.398 . S
C238 C239 1.391 . S
C239 H227 0.950 . S
C239 C235 1.393 . S
C239 C238 1.391 . S
C240 H230 0.950 . S
C240 C241 1.386 . S
C240 C242 1.391 . S
C241 C240 1.386 . S
C241 C245 1.393 . S
C242 H231 0.950 . S
C242 C240 1.391 . S
C242 C243 1.400 . S
C243 C237 1.491 . S
C243 C242 1.400 . S
C243 C244 1.398 . S
C244 H232 0.950 . S
C244 C243 1.398 . S
C244 C245 1.391 . S
C245 H233 0.950 . S
C245 C241 1.393 . S
C245 C244 1.391 . S
H246 C254 0.950 . S
H247 C259 0.950 . S
H248 C256 0.950 . S
H249 C258 0.950 . S
H250 C260 0.950 . S
H251 C262 0.950 . S
H252 C264 0.950 . S
H253 C265 0.950 . S
C254 H246 0.950 . S
C254 C255 1.386 . S
C254 C256 1.391 . S
C255 C254 1.386 . S
C255 C259 1.393 . S
C256 H248 0.950 . S
C256 C254 1.391 . S
C256 C257 1.400 . S
C257 C256 1.400 . S
C257 C258 1.398 . S
C257 C263 1.491 . S
C258 H249 0.950 . S
C258 C257 1.398 . S
C258 C259 1.391 . S
C259 H247 0.950 . S
C259 C255 1.393 . S
C259 C258 1.391 . S
C260 H250 0.950 . S
C260 C261 1.386 . S
C260 C262 1.391 . S
C261 C260 1.386 . S
C261 C265 1.393 . S
C262 H251 0.950 . S
C262 C260 1.391 . S
C262 C263 1.400 . S
C263 C257 1.491 . S
C263 C262 1.400 . S
C263 C264 1.398 . S
C264 H252 0.950 . S
C264 C263 1.398 . S
C264 C265 1.391 . S
C265 H253 0.950 . S
C265 C261 1.393 . S
C265 C264 1.391 . S
H266 C274 0.950 . S
H267 C279 0.950 . S
H268 C276 0.950 . S
H269 C278 0.950 . S
H270 C280 0.950 . S
H271 C282 0.950 . S
H272 C284 0.950 . S
H273 C285 0.950 . S
C274 H266 0.950 . S
C274 C275 1.386 . S
C274 C276 1.391 . S
C275 C274 1.386 . S
C275 C279 1.393 . S
C276 H268 0.950 . S
C276 C274 1.391 . S
C276 C277 1.400 . S
C277 C276 1.400 . S
C277 C278 1.398 . S
C277 C283 1.491 . S
C278 H269 0.950 . S
C278 C277 1.398 . S
C278 C279 1.391 . S
C279 H267 0.950 . S
C279 C275 1.393 . S
C279 C278 1.391 . S
C280 H270 0.950 . S
C280 C281 1.386 . S
C280 C282 1.391 . S
C281 C280 1.386 . S
C281 C285 1.393 . S
C282 H271 0.950 . S
C282 C280 1.391 . S
C282 C283 1.400 . S
C283 C277 1.491 . S
C283 C282 1.400 . S
C283 C284 1.398 . S
C284 H272 0.950 . S
C284 C283 1.398 . S
C284 C285 1.391 . S
C285 H273 0.950 . S
C285 C281 1.393 . S
C285 C284 1.391 . S
H286 C294 0.950 . S
H287 C299 0.950 . S
H288 C296 0.950 . S
H289 C298 0.950 . S
H290 C300 0.950 . S
H291 C302 0.950 . S
H292 C304 0.950 . S
H293 C305 0.950 . S
C294 H286 0.950 . S
C294 C295 1.386 . S
C294 C296 1.391 . S
C295 C294 1.386 . S
C295 C299 1.393 . S
C296 H288 0.950 . S
C296 C294 1.391 . S
C296 C297 1.400 . S
C297 C296 1.400 . S
C297 C298 1.398 . S
C297 C303 1.491 . S
C298 H289 0.950 . S
C298 C297 1.398 . S
C298 C299 1.391 . S
C299 H287 0.950 . S
C299 C295 1.393 . S
C299 C298 1.391 . S
C300 H290 0.950 . S
C300 C301 1.386 . S
C300 C302 1.391 . S
C301 C300 1.386 . S
C301 C305 1.393 . S
C302 H291 0.950 . S
C302 C300 1.391 . S
C302 C303 1.400 . S
C303 C297 1.491 . S
C303 C302 1.400 . S
C303 C304 1.398 . S
C304 H292 0.950 . S
C304 C303 1.398 . S
C304 C305 1.391 . S
C305 H293 0.950 . S
C305 C301 1.393 . S
C305 C304 1.391 . S
H306 C314 0.950 . S
H307 C319 0.950 . S
H308 C316 0.950 . S
H309 C318 0.950 . S
H310 C320 0.950 . S
H311 C322 0.950 . S
H312 C324 0.950 . S
H313 C325 0.950 . S
C314 H306 0.950 . S
C314 C315 1.386 . S
C314 C316 1.391 . S
C315 C314 1.386 . S
C315 C319 1.393 . S
C316 H308 0.950 . S
C316 C314 1.391 . S
C316 C317 1.400 . S
C317 C316 1.400 . S
C317 C318 1.398 . S
C317 C323 1.491 . S
C318 H309 0.950 . S
C318 C317 1.398 . S
C318 C319 1.391 . S
C319 H307 0.950 . S
C319 C315 1.393 . S
C319 C318 1.391 . S
C320 H310 0.950 . S
C320 C321 1.386 . S
C320 C322 1.391 . S
C321 C320 1.386 . S
C321 C325 1.393 . S
C322 H311 0.950 . S
C322 C320 1.391 . S
C322 C323 1.400 . S
C323 C317 1.491 . S
C323 C322 1.400 . S
C323 C324 1.398 . S
C324 H312 0.950 . S
C324 C323 1.398 . S
C324 C325 1.391 . S
C325 H313 0.950 . S
C325 C321 1.393 . S
C325 C324 1.391 . S
H326 C334 0.950 . S
H327 C339 0.950 . S
H328 C336 0.950 . S
H329 C338 0.950 . S
H330 C340 0.950 . S
H331 C342 0.950 . S
H332 C344 0.950 . S
H333 C345 0.950 . S
C334 H326 0.950 . S
C334 C335 1.386 . S
C334 C336 1.391 . S
C335 C334 1.386 . S
C335 C339 1.393 . S
C336 H328 0.950 . S
C336 C334 1.391 . S
C336 C337 1.400 . S
C337 C336 1.400 . S
C337 C338 1.398 . S
C337 C343 1.491 . S
C338 H329 0.950 . S
C338 C337 1.398 . S
C338 C339 1.391 . S
C339 H327 0.950 . S
C339 C335 1.393 . S
C339 C338 1.391 . S
C340 H330 0.950 . S
C340 C341 1.386 . S
C340 C342 1.391 . S
C341 C340 1.386 . S
C341 C345 1.393 . S
C342 H331 0.950 . S
C342 C340 1.391 . S
C342 C343 1.400 . S
C343 C337 1.491 . S
C343 C342 1.400 . S
C343 C344 1.398 . S
C344 H332 0.950 . S
C344 C343 1.398 . S
C344 C345 1.391 . S
C345 H333 0.950 . S
C345 C341 1.393 . S
C345 C344 1.391 . S
H346 C354 0.950 . S
H347 C359 0.950 . S
H348 C356 0.950 . S
H349 C358 0.950 . S
H350 C360 0.950 . S
H351 C362 0.950 . S
H352 C364 0.950 . S
H353 C365 0.950 . S
C354 H346 0.950 . S
C354 C355 1.386 . S
C354 C356 1.391 . S
C355 C354 1.386 . S
C355 C359 1.393 . S
C356 H348 0.950 . S
C356 C354 1.391 . S
C356 C357 1.400 . S
C357 C356 1.400 . S
C357 C358 1.398 . S
C357 C363 1.491 . S
C358 H349 0.950 . S
C358 C357 1.398 . S
C358 C359 1.391 . S
C359 H347 0.950 . S
C359 C355 1.393 . S
C359 C358 1.391 . S
C360 H350 0.950 . S
C360 C361 1.386 . S
C360 C362 1.391 . S
C361 C360 1.386 . S
C361 C365 1.393 . S
C362 H351 0.950 . S
C362 C360 1.391 . S
C362 C363 1.400 . S
C363 C357 1.491 . S
C363 C362 1.400 . S
C363 C364 1.398 . S
C364 H352 0.950 . S
C364 C363 1.398 . S
C364 C365 1.391 . S
C365 H353 0.950 . S
C365 C361 1.393 . S
C365 C364 1.391 . S
H366 C374 0.950 . S
H367 C379 0.950 . S
H368 C376 0.950 . S
H369 C378 0.950 . S
H370 C380 0.950 . S
H371 C382 0.950 . S
H372 C384 0.950 1_554 S
H373 C385 0.950 . S
C374 H366 0.950 . S
C374 C375 1.386 . S
C374 C376 1.391 . S
C375 C374 1.386 . S
C375 C379 1.393 1_455 S
C376 H368 0.950 . S
C376 C374 1.391 . S
C376 C377 1.400 . S
C377 C376 1.400 . S
C377 C378 1.398 1_455 S
C377 C383 1.491 . S
C378 H369 0.950 . S
C378 C377 1.398 1_655 S
C378 C379 1.391 . S
C379 H367 0.950 . S
C379 C375 1.393 1_655 S
C379 C378 1.391 . S
C380 H370 0.950 . S
C380 C381 1.386 1_655 S
C380 C382 1.391 . S
C381 C380 1.386 1_455 S
C381 C385 1.393 . S
C382 H371 0.950 . S
C382 C380 1.391 . S
C382 C383 1.400 1_656 S
C383 C377 1.491 . S
C383 C382 1.400 1_454 S
C383 C384 1.398 1_554 S
C384 H372 0.950 1_556 S
C384 C383 1.398 1_556 S
C384 C385 1.391 . S
C385 H373 0.950 . S
C385 C381 1.393 . S
C385 C384 1.391 . S
H386 C394 0.950 . S
H387 C399 0.950 . S
H388 C396 0.950 . S
H389 C398 0.950 . S
H390 C400 0.950 . S
H391 C402 0.950 . S
H392 C404 0.950 . S
H393 C405 0.950 . S
C394 H386 0.950 . S
C394 C395 1.386 . S
C394 C396 1.391 . S
C395 C394 1.386 . S
C395 C399 1.393 . S
C396 H388 0.950 . S
C396 C394 1.391 . S
C396 C397 1.400 . S
C397 C396 1.400 . S
C397 C398 1.398 . S
C397 C403 1.491 . S
C398 H389 0.950 . S
C398 C397 1.398 . S
C398 C399 1.391 . S
C399 H387 0.950 . S
C399 C395 1.393 . S
C399 C398 1.391 . S
C400 H390 0.950 . S
C400 C401 1.386 . S
C400 C402 1.391 . S
C401 C400 1.386 . S
C401 C405 1.393 . S
C402 H391 0.950 . S
C402 C400 1.391 . S
C402 C403 1.400 . S
C403 C397 1.491 . S
C403 C402 1.400 . S
C403 C404 1.398 . S
C404 H392 0.950 . S
C404 C403 1.398 . S
C404 C405 1.391 . S
C405 H393 0.950 . S
C405 C401 1.393 . S
C405 C404 1.391 . S
H406 C414 0.950 . S
H407 C419 0.950 . S
H408 C416 0.950 . S
H409 C418 0.950 . S
H410 C420 0.950 . S
H411 C422 0.950 . S
H412 C424 0.950 . S
H413 C425 0.950 . S
C414 H406 0.950 . S
C414 C415 1.386 . S
C414 C416 1.391 . S
C415 C414 1.386 . S
C415 C419 1.393 . S
C416 H408 0.950 . S
C416 C414 1.391 . S
C416 C417 1.400 . S
C417 C416 1.400 . S
C417 C418 1.398 . S
C417 C423 1.491 . S
C418 H409 0.950 . S
C418 C417 1.398 . S
C418 C419 1.391 . S
C419 H407 0.950 . S
C419 C415 1.393 . S
C419 C418 1.391 . S
C420 H410 0.950 . S
C420 C421 1.386 . S
C420 C422 1.391 . S
C421 C420 1.386 . S
C421 C425 1.393 . S
C422 H411 0.950 . S
C422 C420 1.391 . S
C422 C423 1.400 . S
C423 C417 1.491 . S
C423 C422 1.400 . S
C423 C424 1.398 . S
C424 H412 0.950 . S
C424 C423 1.398 . S
C424 C425 1.391 . S
C425 H413 0.950 . S
C425 C421 1.393 . S
C425 C424 1.391 . S
H426 C434 0.950 . S
H427 C439 0.950 . S
H428 C436 0.950 . S
H429 C438 0.950 . S
H430 C440 0.950 . S
H431 C442 0.950 . S
H432 C444 0.950 . S
H433 C445 0.950 . S
C434 H426 0.950 . S
C434 C435 1.386 . S
C434 C436 1.391 . S
C435 C434 1.386 . S
C435 C439 1.393 . S
C436 H428 0.950 . S
C436 C434 1.391 . S
C436 C437 1.400 . S
C437 C436 1.400 . S
C437 C438 1.398 . S
C437 C443 1.491 . S
C438 H429 0.950 . S
C438 C437 1.398 . S
C438 C439 1.391 . S
C439 H427 0.950 . S
C439 C435 1.393 . S
C439 C438 1.391 . S
C440 H430 0.950 . S
C440 C441 1.386 . S
C440 C442 1.391 . S
C441 C440 1.386 . S
C441 C445 1.393 . S
C442 H431 0.950 . S
C442 C440 1.391 . S
C442 C443 1.400 . S
C443 C437 1.491 . S
C443 C442 1.400 . S
C443 C444 1.398 . S
C444 H432 0.950 . S
C444 C443 1.398 . S
C444 C445 1.391 . S
C445 H433 0.950 . S
C445 C441 1.393 . S
C445 C444 1.391 . S
H446 C454 0.950 . S
H447 C459 0.950 . S
H448 C456 0.950 . S
H449 C458 0.950 . S
H450 C460 0.950 . S
H451 C462 0.950 1_556 S
H452 C464 0.954 . S
H453 C465 0.950 . S
C454 H446 0.950 . S
C454 C455 1.386 . S
C454 C456 1.391 . S
C455 C454 1.386 . S
C455 C459 1.393 . S
C456 H448 0.950 . S
C456 C454 1.391 . S
C456 C457 1.400 . S
C457 C456 1.400 . S
C457 C458 1.398 . S
C457 C463 1.491 . S
C458 H449 0.950 . S
C458 C457 1.398 . S
C458 C459 1.391 . S
C459 H447 0.950 . S
C459 C455 1.393 . S
C459 C458 1.391 . S
C460 H450 0.950 . S
C460 C461 1.386 . S
C460 C462 1.391 . S
C461 C460 1.386 . S
C461 C465 1.393 . S
C462 H451 0.950 1_554 S
C462 C460 1.391 . S
C462 C463 1.400 1_554 S
C463 C457 1.491 . S
C463 C462 1.400 1_556 S
C463 C464 1.398 1_556 S
C464 H452 0.954 . S
C464 C463 1.398 1_554 S
C464 C465 1.391 . S
C465 H453 0.950 . S
C465 C461 1.393 . S
C465 C464 1.391 . S
H466 C474 0.950 . S
H467 C479 0.950 . S
H468 C476 0.950 . S
H469 C478 0.950 . S
H470 C480 0.950 . S
H471 C482 0.950 . S
H472 C484 0.950 . S
H473 C485 0.950 . S
C474 H466 0.950 . S
C474 C475 1.386 1_455 S
C474 C476 1.391 . S
C475 C474 1.386 1_655 S
C475 C479 1.393 . S
C476 H468 0.950 . S
C476 C474 1.391 . S
C476 C477 1.400 1_455 S
C477 C476 1.400 1_655 S
C477 C478 1.398 . S
C477 C483 1.491 . S
C478 H469 0.950 . S
C478 C477 1.398 . S
C478 C479 1.391 . S
C479 H467 0.950 . S
C479 C475 1.393 . S
C479 C478 1.391 . S
C480 H470 0.950 . S
C480 C481 1.386 . S
C480 C482 1.391 . S
C481 C480 1.386 . S
C481 C485 1.393 1_655 S
C482 H471 0.950 . S
C482 C480 1.391 . S
C482 C483 1.400 . S
C483 C477 1.491 . S
C483 C482 1.400 . S
C483 C484 1.398 1_655 S
C484 H472 0.950 . S
C484 C483 1.398 1_455 S
C484 C485 1.391 . S
C485 H473 0.950 . S
C485 C481 1.393 1_455 S
C485 C484 1.391 . S
C135 C2 1.524 . S
C141 C120 1.382 . S
C155 C22 1.522 . S
C161 C98 1.387 . S
C175 C44 1.293 . S
C181 C112 1.325 . S
C195 C4 1.402 . S
C201 C123 1.467 . S
C221 C101 1.462 . S
C215 C24 1.435 . S
C241 C109 1.463 . S
C235 C42 1.628 . S
C255 C32 1.459 . S
C261 C76 1.246 . S
C275 C49 1.393 . S
C281 C87 1.171 . S
C295 C9 1.384 . S
C301 C65 1.182 . S
C321 C79 1.090 . S
C315 C29 1.074 . S
C341 C90 1.153 . S
C335 C52 1.145 . S
C355 C12 1.154 . S
C361 C68 1.178 . S
C381 C89 1.426 . S
C375 C18 1.470 1_455 S
C395 C38 1.468 . S
C401 C67 1.423 . S
C415 C58 1.475 . S
C421 C78 1.412 . S
C441 C111 1.455 . S
C435 C39 1.503 . S
C461 C122 1.470 . S
C455 C59 1.528 . S
C475 C19 1.518 1_655 S
C481 C100 1.481 1_655 S
