# Generated by pormake.
# Topology nia, (6,6)-cn, num edge types: 1
# Building blocks:
#     Node 0, Type 0, BuildingBlock: KUMBOL_clean_sbu_0, # of connection points: 6
#     Node 1, Type 0, BuildingBlock: KUMBOL_clean_sbu_0, # of connection points: 6
#     Node 2, Type 1, BuildingBlock: MIDCAF_clean_sbu_0, # of connection points: 6
#     Node 3, Type 1, BuildingBlock: MIDCAF_clean_sbu_0, # of connection points: 6
#     Edge 4, Type (0, 1), BuildingBlock: UVAHIK_clean_linker_0, # of connection points: 2
#     Edge 5, Type (0, 1), BuildingBlock: UVAHIK_clean_linker_0, # of connection points: 2
#     Edge 6, Type (0, 1), BuildingBlock: UVAHIK_clean_linker_0, # of connection points: 2
#     Edge 7, Type (0, 1), BuildingBlock: UVAHIK_clean_linker_0, # of connection points: 2
#     Edge 8, Type (0, 1), BuildingBlock: UVAHIK_clean_linker_0, # of connection points: 2
#     Edge 9, Type (0, 1), BuildingBlock: UVAHIK_clean_linker_0, # of connection points: 2
#     Edge 10, Type (0, 1), BuildingBlock: UVAHIK_clean_linker_0, # of connection points: 2
#     Edge 11, Type (0, 1), BuildingBlock: UVAHIK_clean_linker_0, # of connection points: 2
#     Edge 12, Type (0, 1), BuildingBlock: UVAHIK_clean_linker_0, # of connection points: 2
#     Edge 13, Type (0, 1), BuildingBlock: UVAHIK_clean_linker_0, # of connection points: 2
#     Edge 14, Type (0, 1), BuildingBlock: UVAHIK_clean_linker_0, # of connection points: 2
#     Edge 15, Type (0, 1), BuildingBlock: UVAHIK_clean_linker_0, # of connection points: 2
# Relax obj value: 0.166
# Max RMSD: 0.278
# Mean RMSD: 0.202
data_MOF--net-nia--node1-KUMBOL_clean_sbu_0--node2-MIDCAF_clean_sbu_0--edge1-UVAHIK_clean_linker_0
_symmetry_space_group_name_H-M    P1
_symmetry_Int_Tables_number       1
_symmetry_cell_setting            triclinic
loop_
_symmetry_equiv_pos_as_xyz
'x, y, z'
_cell_length_a     35.098287
_cell_length_b     34.813237
_cell_length_c     41.647933
_cell_angle_alpha  89.79032
_cell_angle_beta   89.943541
_cell_angle_gamma 137.46597
loop_
_atom_site_label
_atom_site_type_symbol
_atom_site_fract_x
_atom_site_fract_y
_atom_site_fract_z
_atom_type_partial_charge
Gd0 Gd 0.01349 0.04372 0.97202 0.0
Gd1 Gd 0.00092 0.96611 0.04066 0.0
C2 C 0.87722 0.89017 0.12383 0.0
C3 C 0.94003 0.94972 0.16841 0.0
C4 C 0.97817 0.96648 0.11499 0.0
C5 C 0.92422 0.92238 0.10306 0.0
C6 C 0.98676 0.98 0.14791 0.0
C7 C 0.88536 0.90483 0.1564 0.0
C8 C 0.82352 0.84341 0.11141 0.0
C9 C 0.8178 0.82914 0.07919 0.0
N10 N 0.91776 0.90951 0.07142 0.0
C11 C 0.86561 0.86255 0.05949 0.0
H12 H 0.86031 0.85086 0.03466 0.0
C13 C 0.07634 0.03358 0.10606 0.0
N14 N 0.0224 0.99455 0.09465 0.0
C15 C 0.08703 0.04891 0.13844 0.0
C16 C 0.04207 0.02249 0.1594 0.0
H17 H 0.11114 0.054 0.08985 0.0
H18 H 0.84971 0.88099 0.17261 0.0
H19 H 0.15439 0.15527 0.97673 0.0
H20 H 0.78638 0.81757 0.12659 0.0
H21 H 0.77652 0.79257 0.06945 0.0
H22 H 0.94575 0.95979 0.19372 0.0
H23 H 0.90108 0.95603 0.92427 0.0
H24 H 0.22433 0.18337 0.88409 0.0
H25 H 0.23703 0.21011 0.94113 0.0
H26 H 0.06149 0.04361 0.81847 0.0
H27 H 0.12988 0.08093 0.14721 0.0
H28 H 0.05042 0.03418 0.18452 0.0
H29 H 0.15854 0.12068 0.83856 0.0
H30 H 0.87976 0.92774 0.86711 0.0
N31 N 0.09517 0.09662 0.94055 0.0
C32 C 0.18779 0.159 0.89963 0.0
C33 C 0.19513 0.17424 0.93181 0.0
C34 C 0.13332 0.11328 0.88772 0.0
C35 C 0.08719 0.08283 0.90898 0.0
C36 C 0.14809 0.14284 0.95197 0.0
N37 N 0.98932 0.01341 0.91842 0.0
C38 C 0.03262 0.0398 0.89759 0.0
C39 C 0.9229 0.95909 0.87539 0.0
C40 C 0.96682 0.98396 0.8539 0.0
C41 C 0.93504 0.97516 0.90765 0.0
C42 C 0.02256 0.02554 0.86477 0.0
H43 H 0.95735 0.97173 0.82887 0.0
O44 O 0.97118 0.06432 0.9558 0.0
O45 O 0.97204 0.99873 0.01811 0.0
O46 O 0.94096 0.90676 0.99977 0.0
O47 O 0.97977 0.96291 0.95335 0.0
O48 O 0.92182 0.98834 0.98519 0.0
O49 O 0.0574 0.13094 0.97288 0.0
O50 O 0.04633 0.94897 0.05642 0.0
O51 O 0.04251 0.01096 0.99447 0.0
O52 O 0.07373 0.10304 0.01278 0.0
O53 O 0.0342 0.04681 0.05919 0.0
O54 O 0.09307 0.02357 0.02844 0.0
O55 O 0.96055 0.88038 0.03881 0.0
C56 C 0.92333 0.97554 0.01386 0.0
C57 C 0.06835 0.05419 0.84375 0.0
C58 C 0.12361 0.09806 0.85519 0.0
C59 C 0.01714 0.11896 0.95762 0.0
C60 C 0.03353 0.15232 0.92809 0.0
C61 C 0.08379 0.18065 0.91177 0.0
C62 C 0.99791 0.15434 0.91529 0.0
C63 C 0.01178 0.18335 0.88611 0.0
C64 C 0.09698 0.20794 0.8826 0.0
C65 C 0.06113 0.20888 0.86966 0.0
C66 C 0.94686 0.91321 0.96805 0.0
C67 C 0.0915 0.03504 0.99937 0.0
C68 C 0.00187 0.8941 0.0539 0.0
C69 C 0.98685 0.85995 0.08263 0.0
C70 C 0.93302 0.82268 0.09671 0.0
C71 C 0.02714 0.86541 0.09659 0.0
C72 C 0.0139 0.83376 0.12424 0.0
C73 C 0.91971 0.79152 0.12412 0.0
C74 C 0.9596 0.79673 0.13776 0.0
C75 C 0.06743 0.09658 0.04449 0.0
H76 H 0.11306 0.18172 0.9213 0.0
H77 H 0.95999 0.13397 0.92833 0.0
H78 H 0.13524 0.22851 0.86996 0.0
H79 H 0.07228 0.22975 0.84668 0.0
H80 H 0.901 0.81736 0.08661 0.0
H81 H 0.0689 0.89474 0.08602 0.0
H82 H 0.87807 0.76279 0.1347 0.0
H83 H 0.94739 0.77079 0.15855 0.0
Gd84 Gd 0.00525 0.9724 0.47186 0.0
Gd85 Gd 0.01369 0.04263 0.5432 0.0
C86 C 0.14862 0.12711 0.61996 0.0
C87 C 0.09277 0.06671 0.66648 0.0
C88 C 0.04721 0.04666 0.61557 0.0
C89 C 0.099 0.09241 0.60153 0.0
C90 C 0.0433 0.0342 0.64843 0.0
C91 C 0.14537 0.11307 0.65225 0.0
C92 C 0.19975 0.17586 0.60566 0.0
C93 C 0.20016 0.19002 0.57418 0.0
N94 N 0.10046 0.10521 0.57041 0.0
C95 C 0.14976 0.15447 0.55696 0.0
H96 H 0.15091 0.16601 0.53264 0.0
C97 C 0.94803 0.97683 0.61149 0.0
N98 N 0.00033 0.01675 0.59758 0.0
C99 C 0.94191 0.96271 0.64398 0.0
C100 C 0.98975 0.9909 0.66242 0.0
H101 H 0.91099 0.95479 0.59719 0.0
H102 H 0.18311 0.1388 0.66667 0.0
H103 H 0.86776 0.84975 0.48148 0.0
H104 H 0.23884 0.2035 0.61895 0.0
H105 H 0.23931 0.22823 0.56309 0.0
H106 H 0.0907 0.05742 0.69168 0.0
H107 H 0.10976 0.06542 0.41938 0.0
H108 H 0.78272 0.81237 0.39379 0.0
H109 H 0.78055 0.78702 0.44982 0.0
H110 H 0.93246 0.96134 0.32284 0.0
H111 H 0.90036 0.93007 0.65473 0.0
H112 H 0.98494 0.98007 0.68761 0.0
H113 H 0.83967 0.87801 0.34665 0.0
H114 H 0.12172 0.09246 0.36225 0.0
N115 N 0.91915 0.91134 0.44416 0.0
C116 C 0.82128 0.84022 0.4076 0.0
C117 C 0.81991 0.82573 0.43919 0.0
C118 C 0.87269 0.88961 0.39389 0.0
C119 C 0.92165 0.9245 0.41294 0.0
C120 C 0.86957 0.86162 0.45712 0.0
N121 N 0.02025 0.00115 0.41794 0.0
C122 C 0.97382 0.97089 0.39942 0.0
C123 C 0.07989 0.05837 0.37244 0.0
C124 C 0.03245 0.02938 0.3534 0.0
C125 C 0.07301 0.04296 0.4047 0.0
C126 C 0.97859 0.98436 0.36666 0.0
H127 H 0.03788 0.04111 0.32835 0.0
O128 O 0.05677 0.96387 0.45343 0.0
O129 O 0.04894 0.01837 0.51736 0.0
O130 O 0.06636 0.1041 0.50068 0.0
O131 O 0.02745 0.048 0.45462 0.0
O132 O 0.09948 0.03885 0.47968 0.0
O133 O 0.97194 0.88966 0.47082 0.0
O134 O 0.95933 0.04893 0.559 0.0
O135 O 0.97053 0.99633 0.49808 0.0
O136 O 0.95246 0.91064 0.51375 0.0
O137 O 0.98688 0.96391 0.5609 0.0
O138 O 0.91918 0.97605 0.53493 0.0
O139 O 0.0451 0.12458 0.54405 0.0
C140 C 0.09911 0.0485 0.50942 0.0
C141 C 0.92971 0.95144 0.348 0.0
C142 C 0.87688 0.90403 0.36156 0.0
C143 C 0.01532 0.9085 0.45498 0.0
C144 C 0.00327 0.87848 0.42504 0.0
C145 C 0.95409 0.84953 0.40749 0.0
C146 C 0.04219 0.88045 0.41315 0.0
C147 C 0.03267 0.8546 0.38367 0.0
C148 C 0.94495 0.82502 0.37807 0.0
C149 C 0.98403 0.82786 0.36606 0.0
C150 C 0.05778 0.09713 0.46912 0.0
C151 C 0.92032 0.96665 0.50525 0.0
C152 C 0.99902 0.10416 0.55685 0.0
C153 C 0.00589 0.13427 0.5851 0.0
C154 C 0.04239 0.15061 0.60992 0.0
C155 C 0.97521 0.14602 0.58769 0.0
C156 C 0.98123 0.17421 0.61493 0.0
C157 C 0.04793 0.17763 0.63706 0.0
C158 C 0.01759 0.18923 0.63965 0.0
C159 C 0.95812 0.91566 0.54547 0.0
H160 H 0.92259 0.84577 0.41632 0.0
H161 H 0.07934 0.90144 0.42715 0.0
H162 H 0.90737 0.80371 0.3645 0.0
H163 H 0.97603 0.80906 0.3429 0.0
H164 H 0.06667 0.14256 0.60838 0.0
H165 H 0.94745 0.13396 0.56836 0.0
H166 H 0.07584 0.18959 0.6562 0.0
H167 H 0.02227 0.20959 0.66127 0.0
Zn168 Zn 0.3855 0.7189 0.19487 0.0
Zn169 Zn 0.36186 0.69337 0.314 0.0
Zn170 Zn 0.3759 0.7006 0.2551 0.0
C171 C 0.46898 0.74281 0.30375 0.0
C172 C 0.28611 0.58323 0.2937 0.0
O173 O 0.342 0.73254 0.23922 0.0
O174 O 0.33933 0.73047 0.1861 0.0
C175 C 0.49408 0.79016 0.21654 0.0
O176 O 0.45945 0.74832 0.2752 0.0
O177 O 0.43071 0.71583 0.32485 0.0
O178 O 0.29092 0.61071 0.31623 0.0
O179 O 0.31748 0.60973 0.26844 0.0
O180 O 0.46851 0.78564 0.19292 0.0
O181 O 0.4663 0.75947 0.24192 0.0
O182 O 0.32685 0.61659 0.2344 0.0
O183 O 0.35355 0.64435 0.18393 0.0
C184 C 0.32786 0.60582 0.20508 0.0
O185 O 0.34381 0.73369 0.27244 0.0
O186 O 0.35891 0.7464 0.32475 0.0
C187 C 0.32882 0.73903 0.21236 0.0
C188 C 0.34358 0.75176 0.29941 0.0
Zn189 Zn 0.62892 0.28752 0.81838 0.0
Zn190 Zn 0.65358 0.33087 0.64811 0.0
Zn191 Zn 0.63855 0.3093 0.76055 0.0
C192 C 0.69237 0.4022 0.71401 0.0
C193 C 0.56081 0.26304 0.70609 0.0
O194 O 0.67756 0.28082 0.77008 0.0
O195 O 0.66414 0.26234 0.82216 0.0
C196 C 0.69209 0.40448 0.80983 0.0
O197 O 0.68783 0.39569 0.74464 0.0
O198 O 0.66896 0.35858 0.69719 0.0
O199 O 0.60978 0.29561 0.69335 0.0
O200 O 0.5578 0.25739 0.7367 0.0
O201 O 0.67155 0.36659 0.83068 0.0
O202 O 0.68604 0.39283 0.7798 0.0
O203 O 0.54659 0.24592 0.77004 0.0
O204 O 0.54582 0.22758 0.82101 0.0
C205 C 0.51954 0.21867 0.79627 0.0
O206 O 0.67897 0.29063 0.73781 0.0
O207 O 0.66346 0.30938 0.69281 0.0
C208 C 0.68272 0.26397 0.79566 0.0
C209 C 0.68367 0.29496 0.70721 0.0
C210 C 0.09147 0.84243 0.1187 0.0
C211 C 0.05559 0.83763 0.13849 0.0
C212 C 0.12714 0.84118 0.13193 0.0
C213 C 0.13404 0.78036 0.19929 0.0
H214 H 0.28777 0.87729 0.17063 0.0
C215 C 0.32827 0.80971 0.21949 0.0
C216 C 0.29963 0.75445 0.21188 0.0
C217 C 0.30142 0.82534 0.21594 0.0
C218 C 0.24515 0.85039 0.17919 0.0
H219 H 0.03187 0.83114 0.18804 0.0
H220 H 0.09286 0.8271 0.21089 0.0
H221 H 0.2376 0.89793 0.15335 0.0
H222 H 0.22112 0.67188 0.19538 0.0
H223 H 0.17362 0.69862 0.18979 0.0
H224 H 0.14068 0.73132 0.22391 0.0
C225 C 0.09299 0.83157 0.18512 0.0
C226 C 0.21637 0.86194 0.16912 0.0
C227 C 0.05783 0.83354 0.17196 0.0
C228 C 0.24364 0.71462 0.20153 0.0
C229 C 0.21653 0.72987 0.19852 0.0
C230 C 0.16246 0.76825 0.20888 0.0
C231 C 0.12737 0.83453 0.16519 0.0
C232 C 0.16021 0.82645 0.17863 0.0
C233 C 0.24542 0.78561 0.20514 0.0
C234 C 0.21795 0.80259 0.19849 0.0
H235 H 0.09047 0.84487 0.09284 0.0
H236 H 0.15276 0.84289 0.11596 0.0
H237 H 0.09069 0.75211 0.20686 0.0
H238 H 0.37166 0.84099 0.22742 0.0
H239 H 0.32445 0.86849 0.22135 0.0
C240 C 0.13161 0.0428 0.56104 0.0
C241 C 0.14422 0.0694 0.5313 0.0
C242 C 0.1749 0.06155 0.58085 0.0
C243 C 0.32109 0.13577 0.57803 0.0
H244 H 0.32473 0.16392 0.66855 0.0
C245 C 0.51795 0.25338 0.65447 0.0
C246 C 0.51106 0.23671 0.6866 0.0
C247 C 0.47167 0.23058 0.63625 0.0
C248 C 0.32397 0.15545 0.64344 0.0
H249 H 0.21125 0.13403 0.49809 0.0
H250 H 0.28702 0.16681 0.53258 0.0
H251 H 0.24653 0.12828 0.63545 0.0
H252 H 0.44983 0.18252 0.72475 0.0
H253 H 0.36863 0.14163 0.69273 0.0
H254 H 0.39777 0.16201 0.5858 0.0
C255 C 0.24383 0.13203 0.54083 0.0
C256 C 0.27921 0.13521 0.62447 0.0
C257 C 0.2006 0.11355 0.52118 0.0
C258 C 0.45659 0.19634 0.70007 0.0
C259 C 0.41008 0.17317 0.68174 0.0
C260 C 0.36547 0.15548 0.59699 0.0
C261 C 0.23149 0.10633 0.57091 0.0
C262 C 0.27767 0.12577 0.59148 0.0
C263 C 0.41703 0.19009 0.64957 0.0
C264 C 0.36796 0.16628 0.62988 0.0
H265 H 0.08835 0.00739 0.56893 0.0
H266 H 0.16405 0.04041 0.6037 0.0
H267 H 0.32054 0.12794 0.5528 0.0
H268 H 0.5593 0.28496 0.64344 0.0
H269 H 0.47902 0.24566 0.61183 0.0
C270 C 0.07866 0.13997 0.09646 0.0
C271 C 0.09579 0.14681 0.06444 0.0
C272 C 0.10209 0.18693 0.11464 0.0
C273 C 0.17693 0.33489 0.10414 0.0
H274 H 0.21102 0.3494 0.19478 0.0
C275 C 0.32182 0.54662 0.16743 0.0
C276 C 0.30083 0.54957 0.19492 0.0
C277 C 0.29431 0.49445 0.15482 0.0
C278 C 0.20096 0.34536 0.16959 0.0
H279 H 0.1525 0.2086 0.02684 0.0
H280 H 0.19437 0.29062 0.05873 0.0
H281 H 0.16961 0.26454 0.16561 0.0
H282 H 0.23506 0.49998 0.23114 0.0
H283 H 0.18723 0.40745 0.20937 0.0
H284 H 0.20988 0.41632 0.10786 0.0
C285 C 0.16173 0.24878 0.06957 0.0
C286 C 0.17734 0.29694 0.15286 0.0
C287 C 0.13802 0.2018 0.05132 0.0
C288 C 0.25276 0.49892 0.21037 0.0
C289 C 0.22525 0.44617 0.1978 0.0
C290 C 0.20089 0.38321 0.12073 0.0
C291 C 0.14333 0.24186 0.10126 0.0
C292 C 0.166 0.29168 0.11976 0.0
C293 C 0.24518 0.44377 0.16941 0.0
C294 C 0.21403 0.38938 0.15342 0.0
H295 H 0.04582 0.09814 0.10729 0.0
H296 H 0.08654 0.17993 0.13882 0.0
H297 H 0.16722 0.33157 0.07897 0.0
H298 H 0.35916 0.58487 0.15515 0.0
H299 H 0.31097 0.4937 0.13321 0.0
C300 C 0.97677 0.23994 0.63205 0.0
C301 C 0.95013 0.18821 0.61815 0.0
C302 C 0.94685 0.25145 0.63821 0.0
C303 C 0.82049 0.2138 0.61796 0.0
H304 H 0.84117 0.27104 0.70323 0.0
C305 C 0.68735 0.2421 0.66934 0.0
C306 C 0.71482 0.28765 0.69033 0.0
C307 C 0.7153 0.23015 0.65772 0.0
C308 C 0.83548 0.256 0.67912 0.0
H309 H 0.8713 0.10905 0.59849 0.0
H310 H 0.81907 0.12975 0.60884 0.0
H311 H 0.89091 0.24987 0.68781 0.0
H312 H 0.79337 0.35868 0.71399 0.0
H313 H 0.84277 0.33916 0.69332 0.0
H314 H 0.76546 0.22069 0.60918 0.0
C315 C 0.86328 0.16118 0.61508 0.0
C316 C 0.8639 0.2436 0.67034 0.0
C317 C 0.89325 0.1494 0.60909 0.0
C318 C 0.77125 0.32281 0.69818 0.0
C319 C 0.79928 0.31127 0.68649 0.0
C320 C 0.79228 0.22672 0.62667 0.0
C321 C 0.8895 0.21182 0.63039 0.0
C322 C 0.85724 0.22288 0.63958 0.0
C323 C 0.77127 0.26381 0.66684 0.0
C324 C 0.79991 0.2486 0.65729 0.0
H325 H 0.02086 0.27155 0.63856 0.0
H326 H 0.96862 0.2914 0.64937 0.0
H327 H 0.81464 0.19803 0.59405 0.0
H328 H 0.64356 0.21422 0.66319 0.0
H329 H 0.69226 0.19315 0.64278 0.0
C330 C 0.9073 0.99171 0.06833 0.0
C331 C 0.88526 0.96079 0.0396 0.0
C332 C 0.87153 0.97748 0.09293 0.0
C333 C 0.72637 0.85927 0.12359 0.0
H334 H 0.75708 0.97738 0.1682 0.0
C335 C 0.57306 0.80162 0.21964 0.0
C336 C 0.55387 0.82439 0.21186 0.0
C337 C 0.6226 0.82417 0.20555 0.0
C338 C 0.74825 0.94396 0.15619 0.0
H339 H 0.80881 0.89388 0.0129 0.0
H340 H 0.74563 0.86854 0.05607 0.0
H341 H 0.82285 0.00337 0.1272 0.0
H342 H 0.57382 0.89166 0.18615 0.0
H343 H 0.66059 0.93186 0.16239 0.0
H344 H 0.65078 0.79981 0.15177 0.0
C345 C 0.79072 0.90278 0.05992 0.0
C346 C 0.78597 0.95881 0.13277 0.0
C347 C 0.82671 0.9174 0.03517 0.0
C348 C 0.58787 0.87349 0.19261 0.0
C349 C 0.6376 0.89647 0.17898 0.0
C350 C 0.68887 0.84443 0.1472 0.0
C351 C 0.81279 0.93231 0.08923 0.0
C352 C 0.77478 0.9166 0.11568 0.0
C353 C 0.65402 0.87034 0.18396 0.0
C354 C 0.69872 0.88657 0.16325 0.0
H355 H 0.95219 0.02701 0.07192 0.0
H356 H 0.88991 0.00121 0.11511 0.0
H357 H 0.71704 0.82582 0.11119 0.0
H358 H 0.54732 0.76344 0.2342 0.0
H359 H 0.63463 0.80359 0.21013 0.0
C360 C 0.9005 0.81238 0.54885 0.0
C361 C 0.93128 0.86426 0.56442 0.0
C362 C 0.87663 0.76432 0.56632 0.0
C363 C 0.82113 0.69546 0.64447 0.0
H364 H 0.85328 0.61503 0.61778 0.0
C365 C 0.73529 0.50019 0.71566 0.0
C366 C 0.72157 0.45678 0.69836 0.0
C367 C 0.76302 0.55161 0.70065 0.0
C368 C 0.84288 0.63617 0.62535 0.0
H369 H 0.96174 0.90584 0.61077 0.0
H370 H 0.91764 0.82102 0.64136 0.0
H371 H 0.89581 0.70027 0.58887 0.0
H372 H 0.72484 0.43287 0.65131 0.0
H373 H 0.76992 0.52035 0.6248 0.0
H374 H 0.76629 0.63039 0.68003 0.0
C375 C 0.91227 0.81801 0.61556 0.0
C376 C 0.86772 0.68537 0.60884 0.0
C377 C 0.93721 0.86651 0.598 0.0
C378 C 0.73499 0.46542 0.66549 0.0
C379 C 0.76172 0.51625 0.65033 0.0
C380 C 0.79532 0.64554 0.66064 0.0
C381 C 0.88212 0.76657 0.59984 0.0
C382 C 0.85694 0.71537 0.61813 0.0
C383 C 0.77665 0.56045 0.66768 0.0
C384 C 0.80554 0.61488 0.65122 0.0
H385 H 0.89506 0.80877 0.52305 0.0
H386 H 0.85337 0.72509 0.55363 0.0
H387 H 0.81185 0.71765 0.65198 0.0
H388 H 0.72379 0.49414 0.7407 0.0
H389 H 0.77396 0.58443 0.71504 0.0
C390 C 0.05162 0.80669 0.35485 0.0
C391 C 0.07236 0.8543 0.37139 0.0
C392 C 0.08824 0.80584 0.34317 0.0
C393 C 0.22233 0.86035 0.35891 0.0
H394 H 0.20613 0.80668 0.27324 0.0
C395 C 0.35157 0.82508 0.31867 0.0
C396 C 0.32198 0.77518 0.30142 0.0
C397 C 0.32838 0.84433 0.3233 0.0
C398 C 0.21091 0.82134 0.29728 0.0
H399 H 0.14858 0.93869 0.38826 0.0
H400 H 0.21237 0.93597 0.36888 0.0
H401 H 0.1511 0.82198 0.28905 0.0
H402 H 0.24507 0.7056 0.27588 0.0
H403 H 0.20376 0.73822 0.28432 0.0
H404 H 0.27962 0.85687 0.36792 0.0
C405 C 0.16754 0.89967 0.36481 0.0
C406 C 0.17965 0.83039 0.30626 0.0
C407 C 0.1309 0.90096 0.37609 0.0
C408 C 0.26914 0.74498 0.28861 0.0
C409 C 0.24563 0.76382 0.29347 0.0
C410 C 0.25303 0.85058 0.35009 0.0
C411 C 0.14647 0.85212 0.34816 0.0
C412 C 0.18432 0.84897 0.33736 0.0
C413 C 0.27459 0.81332 0.31131 0.0
C414 C 0.24687 0.82986 0.31935 0.0
H415 H 0.00682 0.76934 0.35141 0.0
H416 H 0.07079 0.76818 0.33097 0.0
H417 H 0.22629 0.87418 0.38313 0.0
H418 H 0.39237 0.84882 0.32888 0.0
H419 H 0.35226 0.88303 0.33672 0.0
C420 C 0.18788 0.08903 0.98036 0.0
C421 C 0.12989 0.04847 0.97441 0.0
C422 C 0.22451 0.102 0.95681 0.0
C423 C 0.23763 0.09519 0.8697 0.0
H424 H 0.35468 0.11085 0.8952 0.0
C425 C 0.42633 0.13051 0.81739 0.0
C426 C 0.45894 0.18134 0.80005 0.0
C427 C 0.37689 0.10533 0.83279 0.0
C428 C 0.32181 0.10598 0.88755 0.0
H429 H 0.06418 0.98587 0.9404 0.0
H430 H 0.12796 0.00913 0.89912 0.0
H431 H 0.28944 0.08699 0.93535 0.0
H432 H 0.46297 0.24276 0.78234 0.0
H433 H 0.37611 0.19874 0.80949 0.0
H434 H 0.27094 0.11505 0.82177 0.0
C435 C 0.14539 0.03222 0.92153 0.0
C436 C 0.28492 0.09305 0.91068 0.0
C437 C 0.10884 0.01906 0.94516 0.0
C438 C 0.43806 0.20314 0.79528 0.0
C439 C 0.38857 0.17812 0.81102 0.0
C440 C 0.27513 0.10881 0.84648 0.0
C441 C 0.20367 0.07409 0.92701 0.0
C442 C 0.2425 0.08762 0.90209 0.0
C443 C 0.35953 0.13099 0.83151 0.0
C444 C 0.31748 0.11407 0.85518 0.0
H445 H 0.20497 0.1115 0.00297 0.0
H446 H 0.26927 0.13449 0.96173 0.0
H447 H 0.20546 0.09152 0.86242 0.0
H448 H 0.44173 0.11303 0.82143 0.0
H449 H 0.35462 0.06822 0.84776 0.0
C450 C 0.12171 0.20156 0.4606 0.0
C451 C 0.08151 0.14584 0.4487 0.0
C452 C 0.14292 0.24681 0.44099 0.0
C453 C 0.15723 0.28793 0.3557 0.0
H454 H 0.17373 0.4016 0.39251 0.0
C455 C 0.20209 0.49054 0.31885 0.0
C456 C 0.25072 0.52283 0.29979 0.0
C457 C 0.17706 0.43979 0.33301 0.0
C458 C 0.16878 0.36987 0.38171 0.0
H459 H 0.03116 0.09406 0.40699 0.0
H460 H 0.06814 0.17246 0.37312 0.0
H461 H 0.14162 0.32483 0.42621 0.0
H462 H 0.3092 0.52567 0.27877 0.0
H463 H 0.2654 0.4366 0.30359 0.0
H464 H 0.18382 0.3329 0.31103 0.0
C465 C 0.08424 0.18155 0.3973 0.0
C466 C 0.15121 0.32633 0.40121 0.0
C467 C 0.06299 0.13648 0.41684 0.0
C468 C 0.27128 0.50116 0.29304 0.0
C469 C 0.24632 0.4503 0.3074 0.0
C470 C 0.17501 0.33171 0.33617 0.0
C471 C 0.12432 0.23726 0.4091 0.0
C472 C 0.14503 0.28471 0.38846 0.0
C473 C 0.20051 0.4205 0.32874 0.0
C474 C 0.18063 0.37299 0.34891 0.0
H475 H 0.13688 0.21028 0.48499 0.0
H476 H 0.17414 0.28935 0.45075 0.0
H477 H 0.15338 0.25679 0.34519 0.0
H478 H 0.1854 0.50634 0.3244 0.0
H479 H 0.14089 0.41705 0.3486 0.0
C480 C 0.91694 0.14369 0.87594 0.0
C481 C 0.976 0.18825 0.87282 0.0
C482 C 0.88406 0.149 0.86318 0.0
C483 C 0.89596 0.25895 0.83403 0.0
H484 H 0.74593 0.12843 0.80127 0.0
C485 C 0.76284 0.2813 0.77904 0.0
C486 C 0.71103 0.24739 0.79491 0.0
C487 C 0.79381 0.27039 0.78287 0.0
C488 C 0.78793 0.16523 0.81019 0.0
H489 H 0.04647 0.27384 0.85408 0.0
H490 H 0.98954 0.28156 0.83039 0.0
H491 H 0.80334 0.11721 0.81996 0.0
H492 H 0.64934 0.17405 0.82584 0.0
H493 H 0.7029 0.15435 0.83216 0.0
H494 H 0.88054 0.30688 0.82398 0.0
C495 C 0.96835 0.24294 0.84334 0.0
C496 C 0.82066 0.1588 0.82121 0.0
C497 C 0.00113 0.23804 0.85652 0.0
C498 C 0.68922 0.20069 0.81329 0.0
C499 C 0.71967 0.18925 0.81675 0.0
C500 C 0.86365 0.26548 0.82253 0.0
C501 C 0.90937 0.19876 0.84668 0.0
C502 C 0.87492 0.20549 0.83367 0.0
C503 C 0.77301 0.22501 0.80239 0.0
C504 C 0.80909 0.21862 0.81089 0.0
H505 H 0.89591 0.10444 0.88799 0.0
H506 H 0.83885 0.1143 0.86668 0.0
H507 H 0.93688 0.29572 0.84406 0.0
H508 H 0.78102 0.3183 0.76548 0.0
H509 H 0.83487 0.29857 0.77154 0.0
C510 C 0.82042 0.90176 0.48905 0.0
C511 C 0.8779 0.94909 0.48233 0.0
C512 C 0.78012 0.88408 0.46691 0.0
C513 C 0.76432 0.89864 0.38071 0.0
H514 H 0.61854 0.8261 0.41042 0.0
C515 C 0.57492 0.82275 0.30531 0.0
C516 C 0.5235 0.76687 0.31334 0.0
C517 C 0.62423 0.8491 0.32179 0.0
C518 C 0.65918 0.84638 0.40182 0.0
H519 H 0.93827 0.01913 0.44919 0.0
H520 H 0.86843 0.98897 0.41077 0.0
H521 H 0.6918 0.86643 0.44933 0.0
H522 H 0.48393 0.69275 0.34194 0.0
H523 H 0.56934 0.73837 0.37031 0.0
H524 H 0.73082 0.87856 0.33296 0.0
C525 C 0.85422 0.96362 0.43225 0.0
C526 C 0.70103 0.86909 0.42409 0.0
C527 C 0.89439 0.98085 0.45425 0.0
C528 C 0.52298 0.73616 0.33564 0.0
C529 C 0.57171 0.7622 0.35192 0.0
C530 C 0.72238 0.87631 0.35831 0.0
C531 C 0.79658 0.91446 0.43802 0.0
C532 C 0.75374 0.89437 0.41394 0.0
C533 C 0.62206 0.81954 0.34626 0.0
C534 C 0.66914 0.84891 0.36883 0.0
H535 H 0.80678 0.87726 0.51087 0.0
H536 H 0.73617 0.84567 0.4721 0.0
H537 H 0.80435 0.91765 0.37201 0.0
H538 H 0.57617 0.84723 0.28826 0.0
H539 H 0.66289 0.89343 0.31703 0.0
C540 C 0.87432 0.80774 0.96069 0.0
C541 C 0.9178 0.86293 0.94793 0.0
C542 C 0.84886 0.76061 0.94188 0.0
C543 C 0.87545 0.71717 0.87363 0.0
H544 H 0.71319 0.58385 0.87438 0.0
C545 C 0.76253 0.51071 0.80408 0.0
C546 C 0.7187 0.46006 0.82111 0.0
C547 C 0.78662 0.56258 0.81579 0.0
C548 C 0.75862 0.6206 0.87405 0.0
H549 H 0.96876 0.91183 0.90535 0.0
H550 H 0.9244 0.82952 0.87277 0.0
H551 H 0.75525 0.66897 0.90272 0.0
H552 H 0.66655 0.42393 0.864 0.0
H553 H 0.70908 0.51349 0.88468 0.0
H554 H 0.87901 0.6681 0.84594 0.0
C555 C 0.91 0.82283 0.89726 0.0
C556 C 0.78261 0.66932 0.89026 0.0
C557 C 0.93504 0.86991 0.91591 0.0
C558 C 0.70007 0.46223 0.85019 0.0
C559 C 0.72403 0.51362 0.86188 0.0
C560 C 0.85145 0.66812 0.85762 0.0
C561 C 0.8668 0.76774 0.91008 0.0
C562 C 0.8413 0.71773 0.89072 0.0
C563 C 0.76733 0.56445 0.84481 0.0
C564 C 0.79278 0.61884 0.85826 0.0
H565 H 0.86013 0.8009 0.98525 0.0
H566 H 0.81597 0.71857 0.95248 0.0
H567 H 0.9209 0.75389 0.87372 0.0
H568 H 0.77888 0.51035 0.78218 0.0
H569 H 0.82011 0.60105 0.80213 0.0
loop_
_geom_bond_atom_site_label_1
_geom_bond_atom_site_label_2
_geom_bond_distance
_geom_bond_site_symmetry_2
_ccdc_geom_bond_type
Gd0 N31 2.661 1_655 S
Gd0 N37 2.601 . S
Gd0 O44 2.545 1_545 S
Gd0 O45 2.606 1_546 S
Gd0 O47 2.429 1_545 S
Gd0 O48 2.545 1_545 S
Gd0 O49 2.412 . S
Gd0 O51 2.362 1_655 S
Gd0 O52 2.324 1_656 S
Gd0 C59 2.828 . S
Gd1 N10 2.661 1_455 S
Gd1 N14 2.601 . S
Gd1 O45 2.362 1_455 S
Gd1 O46 2.324 1_454 S
Gd1 O50 2.545 1_565 S
Gd1 O51 2.606 1_564 S
Gd1 O53 2.429 1_565 S
Gd1 O54 2.545 1_565 S
Gd1 O55 2.412 . S
Gd1 C68 2.828 . S
C2 C5 1.417 . S
C2 C7 1.431 . S
C2 C8 1.412 . S
C3 C6 1.437 . S
C3 C7 1.317 . S
C3 H22 0.929 . S
C4 C5 1.426 . S
C4 C6 1.413 . S
C4 N14 1.359 1_655 S
C5 C2 1.417 . S
C5 C4 1.426 . S
C5 N10 1.350 . S
C6 C3 1.437 . S
C6 C4 1.413 . S
C6 C16 1.394 1_655 S
C7 C2 1.431 . S
C7 C3 1.317 . S
C7 H18 0.930 . S
C8 C2 1.412 . S
C8 C9 1.355 . S
C8 H20 0.930 . S
C9 C8 1.355 . S
C9 C11 1.402 . S
C9 H21 0.930 . S
N10 Gd1 2.661 1_655 S
N10 C5 1.350 . S
N10 C11 1.307 . S
C11 C9 1.402 . S
C11 N10 1.307 . S
C11 H12 0.930 . S
H12 C11 0.930 . S
C13 N14 1.334 1_545 S
C13 C15 1.394 . S
C13 H17 0.930 . S
N14 Gd1 2.601 . S
N14 C4 1.359 1_455 S
N14 C13 1.334 1_565 S
C15 C13 1.394 . S
C15 C16 1.357 1_545 S
C15 H27 0.930 . S
C16 C6 1.394 1_455 S
C16 C15 1.357 1_565 S
C16 H28 0.928 1_565 S
H17 C13 0.930 . S
H18 C7 0.930 . S
H19 C36 0.930 . S
H20 C8 0.930 . S
H21 C9 0.930 . S
H22 C3 0.929 . S
H23 C41 0.930 . S
H24 C32 0.930 . S
H25 C33 0.930 . S
H26 C57 0.929 . S
H27 C15 0.930 . S
H28 C16 0.928 1_545 S
H29 C58 0.930 . S
H30 C39 0.930 . S
N31 Gd0 2.661 1_455 S
N31 C35 1.350 . S
N31 C36 1.307 . S
C32 H24 0.930 . S
C32 C33 1.355 . S
C32 C34 1.412 . S
C33 H25 0.930 . S
C33 C32 1.355 . S
C33 C36 1.402 . S
C34 C32 1.412 . S
C34 C35 1.417 . S
C34 C58 1.431 . S
C35 N31 1.350 . S
C35 C34 1.417 . S
C35 C38 1.426 . S
C36 H19 0.930 . S
C36 N31 1.307 . S
C36 C33 1.402 . S
N37 Gd0 2.601 . S
N37 C38 1.359 1_655 S
N37 C41 1.334 1_545 S
C38 C35 1.426 . S
C38 N37 1.359 1_455 S
C38 C42 1.413 . S
C39 H30 0.930 . S
C39 C40 1.359 1_565 S
C39 C41 1.394 . S
C40 C39 1.359 1_545 S
C40 C42 1.391 1_655 S
C40 H43 0.929 . S
C41 H23 0.930 . S
C41 N37 1.334 1_565 S
C41 C39 1.394 . S
C42 C38 1.413 . S
C42 C40 1.391 1_455 S
C42 C57 1.437 . S
H43 C40 0.929 . S
O44 Gd0 2.545 1_565 S
O44 C59 1.258 1_565 S
O45 Gd0 2.606 1_564 S
O45 Gd1 2.362 1_655 S
O45 C56 1.284 . S
O46 Gd1 2.324 1_656 S
O46 C66 1.254 . S
O47 Gd0 2.429 1_565 S
O47 C66 1.268 . S
O48 Gd0 2.545 1_565 S
O48 C56 1.250 1_556 S
O49 Gd0 2.412 . S
O49 C59 1.252 . S
O50 Gd1 2.545 1_545 S
O50 C68 1.258 1_545 S
O51 Gd0 2.362 1_455 S
O51 Gd1 2.606 1_546 S
O51 C67 1.284 . S
O52 Gd0 2.324 1_454 S
O52 C75 1.254 . S
O53 Gd1 2.429 1_545 S
O53 C75 1.268 . S
O54 Gd1 2.545 1_545 S
O54 C67 1.250 1_554 S
O55 Gd1 2.412 . S
O55 C68 1.252 . S
C56 O45 1.284 . S
C56 O48 1.250 1_554 S
C57 H26 0.929 . S
C57 C42 1.437 . S
C57 C58 1.317 . S
C58 H29 0.930 . S
C58 C34 1.431 . S
C58 C57 1.317 . S
C59 Gd0 2.828 . S
C59 O44 1.258 1_545 S
C59 O49 1.252 . S
C59 C60 1.497 . S
C60 C59 1.497 . S
C60 C61 1.395 . S
C60 C62 1.380 . S
C61 C60 1.395 . S
C61 C64 1.398 . S
C61 H76 0.930 . S
C62 C60 1.380 . S
C62 C63 1.391 . S
C62 H77 0.930 . S
C63 C62 1.391 . S
C63 C65 1.387 . S
C64 C61 1.398 . S
C64 C65 1.380 . S
C64 H78 0.930 . S
C65 C63 1.387 . S
C65 C64 1.380 . S
C65 H79 0.930 . S
C66 O46 1.254 . S
C66 O47 1.268 . S
C67 O51 1.284 . S
C67 O54 1.250 1_556 S
C68 Gd1 2.828 . S
C68 O50 1.258 1_565 S
C68 O55 1.252 . S
C68 C69 1.497 . S
C69 C68 1.497 . S
C69 C70 1.395 . S
C69 C71 1.380 . S
C70 C69 1.395 . S
C70 C73 1.398 . S
C70 H80 0.930 . S
C71 C69 1.380 . S
C71 C72 1.391 . S
C71 H81 0.930 . S
C72 C71 1.391 . S
C72 C74 1.387 . S
C73 C70 1.398 . S
C73 C74 1.380 . S
C73 H82 0.930 . S
C74 C72 1.387 . S
C74 C73 1.380 . S
C74 H83 0.930 . S
C75 O52 1.254 . S
C75 O53 1.268 . S
H76 C61 0.930 . S
H77 C62 0.930 . S
H78 C64 0.930 . S
H79 C65 0.930 . S
H80 C70 0.930 . S
H81 C71 0.930 . S
H82 C73 0.930 . S
H83 C74 0.930 . S
Gd84 N115 2.661 1_455 S
Gd84 N121 2.601 1_565 S
Gd84 O128 2.545 1_565 S
Gd84 O129 2.606 1_565 S
Gd84 O131 2.429 1_565 S
Gd84 O132 2.545 1_565 S
Gd84 O133 2.412 . S
Gd84 O135 2.362 1_455 S
Gd84 O136 2.324 1_455 S
Gd84 C143 2.828 . S
Gd85 N94 2.661 1_655 S
Gd85 N98 2.601 1_655 S
Gd85 O129 2.362 1_655 S
Gd85 O130 2.324 1_655 S
Gd85 O134 2.545 . S
Gd85 O135 2.606 1_545 S
Gd85 O137 2.429 1_545 S
Gd85 O138 2.545 1_545 S
Gd85 O139 2.412 . S
Gd85 C152 2.828 . S
C86 C89 1.417 . S
C86 C91 1.431 . S
C86 C92 1.412 . S
C87 C90 1.437 . S
C87 C91 1.317 . S
C87 H106 0.929 . S
C88 C89 1.426 . S
C88 C90 1.413 . S
C88 N98 1.359 . S
C89 C86 1.417 . S
C89 C88 1.426 . S
C89 N94 1.350 . S
C90 C87 1.437 . S
C90 C88 1.413 . S
C90 C100 1.391 . S
C91 C86 1.431 . S
C91 C87 1.317 . S
C91 H102 0.930 . S
C92 C86 1.412 . S
C92 C93 1.355 . S
C92 H104 0.930 . S
C93 C92 1.355 . S
C93 C95 1.402 . S
C93 H105 0.930 . S
N94 Gd85 2.661 1_455 S
N94 C89 1.350 . S
N94 C95 1.307 . S
C95 C93 1.402 . S
C95 N94 1.307 . S
C95 H96 0.930 . S
H96 C95 0.930 . S
C97 N98 1.334 1_665 S
C97 C99 1.394 . S
C97 H101 0.930 . S
N98 Gd85 2.601 1_455 S
N98 C88 1.359 . S
N98 C97 1.334 1_445 S
C99 C97 1.394 . S
C99 C100 1.359 1_665 S
C99 H111 0.930 . S
C100 C90 1.391 . S
C100 C99 1.359 1_445 S
C100 H112 0.929 . S
H101 C97 0.930 . S
H102 C91 0.930 . S
H103 C120 0.930 . S
H104 C92 0.930 . S
H105 C93 0.930 . S
H106 C87 0.929 . S
H107 C125 0.930 . S
H108 C116 0.930 . S
H109 C117 0.930 . S
H110 C141 0.929 . S
H111 C99 0.930 . S
H112 C100 0.929 . S
H113 C142 0.930 . S
H114 C123 0.930 . S
N115 Gd84 2.661 1_655 S
N115 C119 1.350 . S
N115 C120 1.307 . S
C116 H108 0.930 . S
C116 C117 1.355 . S
C116 C118 1.412 . S
C117 H109 0.930 . S
C117 C116 1.355 . S
C117 C120 1.402 . S
C118 C116 1.412 . S
C118 C119 1.417 . S
C118 C142 1.431 . S
C119 N115 1.350 . S
C119 C118 1.417 . S
C119 C122 1.426 . S
C120 H103 0.930 . S
C120 N115 1.307 . S
C120 C117 1.402 . S
N121 Gd84 2.601 1_545 S
N121 C122 1.359 1_445 S
N121 C125 1.334 . S
C122 C119 1.426 . S
C122 N121 1.359 1_665 S
C122 C126 1.413 . S
C123 H114 0.930 . S
C123 C124 1.359 . S
C123 C125 1.394 . S
C124 C123 1.359 . S
C124 C126 1.391 1_445 S
C124 H127 0.929 . S
C125 H107 0.930 . S
C125 N121 1.334 . S
C125 C123 1.394 . S
C126 C122 1.413 . S
C126 C124 1.391 1_665 S
C126 C141 1.437 . S
H127 C124 0.929 . S
O128 Gd84 2.545 1_545 S
O128 C143 1.258 1_545 S
O129 Gd84 2.606 1_545 S
O129 Gd85 2.362 1_455 S
O129 C140 1.284 . S
O130 Gd85 2.324 1_455 S
O130 C150 1.254 . S
O131 Gd84 2.429 1_545 S
O131 C150 1.268 . S
O132 Gd84 2.545 1_545 S
O132 C140 1.250 . S
O133 Gd84 2.412 . S
O133 C143 1.252 . S
O134 Gd85 2.545 . S
O134 C152 1.258 . S
O135 Gd84 2.362 1_655 S
O135 Gd85 2.606 1_565 S
O135 C151 1.284 . S
O136 Gd84 2.324 1_655 S
O136 C159 1.254 . S
O137 Gd85 2.429 1_565 S
O137 C159 1.268 . S
O138 Gd85 2.545 1_565 S
O138 C151 1.250 . S
O139 Gd85 2.412 . S
O139 C152 1.252 . S
C140 O129 1.284 . S
C140 O132 1.250 . S
C141 H110 0.929 . S
C141 C126 1.437 . S
C141 C142 1.317 . S
C142 H113 0.930 . S
C142 C118 1.431 . S
C142 C141 1.317 . S
C143 Gd84 2.828 . S
C143 O128 1.258 1_565 S
C143 O133 1.252 . S
C143 C144 1.497 . S
C144 C143 1.497 . S
C144 C145 1.395 . S
C144 C146 1.380 . S
C145 C144 1.395 . S
C145 C148 1.398 . S
C145 H160 0.930 1_565 S
C146 C144 1.380 . S
C146 C147 1.391 . S
C146 H161 0.930 . S
C147 C146 1.391 . S
C147 C149 1.387 . S
C148 C145 1.398 . S
C148 C149 1.380 . S
C148 H162 0.930 . S
C149 C147 1.387 . S
C149 C148 1.380 . S
C149 H163 0.930 . S
C150 O130 1.254 . S
C150 O131 1.268 . S
C151 O135 1.284 . S
C151 O138 1.250 . S
C152 Gd85 2.828 . S
C152 O134 1.258 . S
C152 O139 1.252 . S
C152 C153 1.497 . S
C153 C152 1.497 . S
C153 C154 1.395 . S
C153 C155 1.380 . S
C154 C153 1.395 . S
C154 C157 1.398 . S
C154 H164 0.930 . S
C155 C153 1.380 . S
C155 C156 1.391 . S
C155 H165 0.930 . S
C156 C155 1.391 . S
C156 C158 1.387 . S
C157 C154 1.398 . S
C157 C158 1.380 . S
C157 H166 0.930 . S
C158 C156 1.387 . S
C158 C157 1.380 . S
C158 H167 0.930 . S
C159 O136 1.254 . S
C159 O137 1.268 . S
H160 C145 0.930 1_545 S
H161 C146 0.930 . S
H162 C148 0.930 . S
H163 C149 0.930 . S
H164 C154 0.930 . S
H165 C155 0.930 . S
H166 C157 0.930 . S
H167 C158 0.930 . S
Zn168 O174 1.920 . S
Zn168 O180 1.898 . S
Zn168 O183 1.905 . S
Zn169 O177 1.905 . S
Zn169 O178 1.898 . S
Zn169 O186 1.920 . S
Zn170 O173 2.080 . S
Zn170 O176 2.114 . S
Zn170 O179 2.120 . S
Zn170 O181 2.120 . S
Zn170 O182 2.114 . S
Zn170 O185 2.080 . S
C171 O176 1.166 . S
C171 O177 1.182 . S
C172 O178 1.167 . S
C172 O179 1.299 . S
O173 Zn170 2.080 . S
O173 C187 1.305 . S
O174 Zn168 1.920 . S
O174 C187 1.234 . S
C175 O180 1.167 . S
C175 O181 1.299 . S
O176 Zn170 2.114 . S
O176 C171 1.166 . S
O177 Zn169 1.905 . S
O177 C171 1.182 . S
O178 Zn169 1.898 . S
O178 C172 1.167 . S
O179 Zn170 2.120 . S
O179 C172 1.299 . S
O180 Zn168 1.898 . S
O180 C175 1.167 . S
O181 Zn170 2.120 . S
O181 C175 1.299 . S
O182 Zn170 2.114 . S
O182 C184 1.166 . S
O183 Zn168 1.905 . S
O183 C184 1.182 . S
C184 O182 1.166 . S
C184 O183 1.182 . S
O185 Zn170 2.080 . S
O185 C188 1.305 . S
O186 Zn169 1.920 . S
O186 C188 1.234 . S
C187 O173 1.305 . S
C187 O174 1.234 . S
C188 O185 1.305 . S
C188 O186 1.234 . S
Zn189 O195 1.920 . S
Zn189 O201 1.898 . S
Zn189 O204 1.905 . S
Zn190 O198 1.905 . S
Zn190 O199 1.898 . S
Zn190 O207 1.920 . S
Zn191 O194 2.080 . S
Zn191 O197 2.114 . S
Zn191 O200 2.120 . S
Zn191 O202 2.120 . S
Zn191 O203 2.114 . S
Zn191 O206 2.080 . S
C192 O197 1.166 . S
C192 O198 1.182 . S
C193 O199 1.167 . S
C193 O200 1.299 . S
O194 Zn191 2.080 . S
O194 C208 1.305 . S
O195 Zn189 1.920 . S
O195 C208 1.234 . S
C196 O201 1.167 . S
C196 O202 1.299 . S
O197 Zn191 2.114 . S
O197 C192 1.166 . S
O198 Zn190 1.905 . S
O198 C192 1.182 . S
O199 Zn190 1.898 . S
O199 C193 1.167 . S
O200 Zn191 2.120 . S
O200 C193 1.299 . S
O201 Zn189 1.898 . S
O201 C196 1.167 . S
O202 Zn191 2.120 . S
O202 C196 1.299 . S
O203 Zn191 2.114 . S
O203 C205 1.166 . S
O204 Zn189 1.905 . S
O204 C205 1.182 . S
C205 O203 1.166 . S
C205 O204 1.182 . S
O206 Zn191 2.080 . S
O206 C209 1.305 . S
O207 Zn190 1.920 . S
O207 C209 1.234 . S
C208 O194 1.305 . S
C208 O195 1.234 . S
C209 O206 1.305 . S
C209 O207 1.234 . S
C210 C211 1.349 . S
C210 C212 1.327 . S
C210 H235 0.950 . S
C211 C210 1.349 . S
C211 C227 1.349 . S
C212 C210 1.327 . S
C212 C231 1.429 . S
C212 H236 0.950 . S
C213 C230 1.574 . S
C213 C232 1.368 . S
C213 H237 0.949 . S
H214 C218 0.949 . S
C215 C216 1.349 . S
C215 C217 1.327 . S
C215 H238 0.950 . S
C216 C215 1.349 . S
C216 C228 1.349 . S
C217 C215 1.327 . S
C217 C233 1.429 . S
C217 H239 0.950 . S
C218 H214 0.949 . S
C218 C226 1.574 . S
C218 C234 1.368 . S
H219 C227 0.950 . S
H220 C225 0.950 . S
H221 C226 0.949 . S
H222 C228 0.950 . S
H223 C229 0.950 . S
H224 C230 0.949 . S
C225 H220 0.950 . S
C225 C227 1.327 . S
C225 C231 1.429 . S
C226 C218 1.574 . S
C226 H221 0.949 . S
C226 C232 1.368 . S
C227 C211 1.349 . S
C227 H219 0.950 . S
C227 C225 1.327 . S
C228 C216 1.349 . S
C228 H222 0.950 . S
C228 C229 1.327 . S
C229 H223 0.950 . S
C229 C228 1.327 . S
C229 C233 1.429 . S
C230 C213 1.574 . S
C230 H224 0.949 . S
C230 C234 1.368 . S
C231 C212 1.429 . S
C231 C225 1.429 . S
C231 C232 1.523 . S
C232 C213 1.368 . S
C232 C226 1.368 . S
C232 C231 1.523 . S
C233 C217 1.429 . S
C233 C229 1.429 . S
C233 C234 1.523 . S
C234 C218 1.368 . S
C234 C230 1.368 . S
C234 C233 1.523 . S
H235 C210 0.950 . S
H236 C212 0.950 . S
H237 C213 0.949 . S
H238 C215 0.950 . S
H239 C217 0.950 . S
C240 C241 1.349 . S
C240 C242 1.327 . S
C240 H265 0.950 . S
C241 C240 1.349 . S
C241 C257 1.349 . S
C242 C240 1.327 . S
C242 C261 1.429 . S
C242 H266 0.950 . S
C243 C260 1.574 . S
C243 C262 1.368 . S
C243 H267 0.949 . S
H244 C248 0.949 . S
C245 C246 1.349 . S
C245 C247 1.327 . S
C245 H268 0.950 . S
C246 C245 1.349 . S
C246 C258 1.349 . S
C247 C245 1.327 . S
C247 C263 1.429 . S
C247 H269 0.950 . S
C248 H244 0.949 . S
C248 C256 1.574 . S
C248 C264 1.368 . S
H249 C257 0.950 . S
H250 C255 0.950 . S
H251 C256 0.949 . S
H252 C258 0.950 . S
H253 C259 0.950 . S
H254 C260 0.949 . S
C255 H250 0.950 . S
C255 C257 1.327 . S
C255 C261 1.429 . S
C256 C248 1.574 . S
C256 H251 0.949 . S
C256 C262 1.368 . S
C257 C241 1.349 . S
C257 H249 0.950 . S
C257 C255 1.327 . S
C258 C246 1.349 . S
C258 H252 0.950 . S
C258 C259 1.327 . S
C259 H253 0.950 . S
C259 C258 1.327 . S
C259 C263 1.429 . S
C260 C243 1.574 . S
C260 H254 0.949 . S
C260 C264 1.368 . S
C261 C242 1.429 . S
C261 C255 1.429 . S
C261 C262 1.523 . S
C262 C243 1.368 . S
C262 C256 1.368 . S
C262 C261 1.523 . S
C263 C247 1.429 . S
C263 C259 1.429 . S
C263 C264 1.523 . S
C264 C248 1.368 . S
C264 C260 1.368 . S
C264 C263 1.523 . S
H265 C240 0.950 . S
H266 C242 0.950 . S
H267 C243 0.949 . S
H268 C245 0.950 . S
H269 C247 0.950 . S
C270 C271 1.349 . S
C270 C272 1.327 . S
C270 H295 0.950 . S
C271 C270 1.349 . S
C271 C287 1.349 . S
C272 C270 1.327 . S
C272 C291 1.429 . S
C272 H296 0.950 . S
C273 C290 1.574 . S
C273 C292 1.368 . S
C273 H297 0.949 . S
H274 C278 0.949 . S
C275 C276 1.349 . S
C275 C277 1.327 . S
C275 H298 0.950 . S
C276 C275 1.349 . S
C276 C288 1.349 . S
C277 C275 1.327 . S
C277 C293 1.429 . S
C277 H299 0.950 . S
C278 H274 0.949 . S
C278 C286 1.574 . S
C278 C294 1.368 . S
H279 C287 0.950 . S
H280 C285 0.950 . S
H281 C286 0.949 . S
H282 C288 0.950 . S
H283 C289 0.950 . S
H284 C290 0.949 . S
C285 H280 0.950 . S
C285 C287 1.327 . S
C285 C291 1.429 . S
C286 C278 1.574 . S
C286 H281 0.949 . S
C286 C292 1.368 . S
C287 C271 1.349 . S
C287 H279 0.950 . S
C287 C285 1.327 . S
C288 C276 1.349 . S
C288 H282 0.950 . S
C288 C289 1.327 . S
C289 H283 0.950 . S
C289 C288 1.327 . S
C289 C293 1.429 . S
C290 C273 1.574 . S
C290 H284 0.949 . S
C290 C294 1.368 . S
C291 C272 1.429 . S
C291 C285 1.429 . S
C291 C292 1.523 . S
C292 C273 1.368 . S
C292 C286 1.368 . S
C292 C291 1.523 . S
C293 C277 1.429 . S
C293 C289 1.429 . S
C293 C294 1.523 . S
C294 C278 1.368 . S
C294 C290 1.368 . S
C294 C293 1.523 . S
H295 C270 0.950 . S
H296 C272 0.950 . S
H297 C273 0.949 . S
H298 C275 0.950 . S
H299 C277 0.950 . S
C300 C301 1.349 . S
C300 C302 1.327 . S
C300 H325 0.950 . S
C301 C300 1.349 . S
C301 C317 1.349 . S
C302 C300 1.327 . S
C302 C321 1.429 . S
C302 H326 0.950 . S
C303 C320 1.574 . S
C303 C322 1.368 . S
C303 H327 0.949 . S
H304 C308 0.949 . S
C305 C306 1.349 . S
C305 C307 1.327 . S
C305 H328 0.950 . S
C306 C305 1.349 . S
C306 C318 1.349 . S
C307 C305 1.327 . S
C307 C323 1.429 . S
C307 H329 0.950 . S
C308 H304 0.949 . S
C308 C316 1.574 . S
C308 C324 1.368 . S
H309 C317 0.950 . S
H310 C315 0.950 . S
H311 C316 0.949 . S
H312 C318 0.950 . S
H313 C319 0.950 . S
H314 C320 0.949 . S
C315 H310 0.950 . S
C315 C317 1.327 . S
C315 C321 1.429 . S
C316 C308 1.574 . S
C316 H311 0.949 . S
C316 C322 1.368 . S
C317 C301 1.349 . S
C317 H309 0.950 . S
C317 C315 1.327 . S
C318 C306 1.349 . S
C318 H312 0.950 . S
C318 C319 1.327 . S
C319 H313 0.950 . S
C319 C318 1.327 . S
C319 C323 1.429 . S
C320 C303 1.574 . S
C320 H314 0.949 . S
C320 C324 1.368 . S
C321 C302 1.429 . S
C321 C315 1.429 . S
C321 C322 1.523 . S
C322 C303 1.368 . S
C322 C316 1.368 . S
C322 C321 1.523 . S
C323 C307 1.429 . S
C323 C319 1.429 . S
C323 C324 1.523 . S
C324 C308 1.368 . S
C324 C320 1.368 . S
C324 C323 1.523 . S
H325 C300 0.950 . S
H326 C302 0.950 . S
H327 C303 0.949 . S
H328 C305 0.950 . S
H329 C307 0.950 . S
C330 C331 1.349 . S
C330 C332 1.327 . S
C330 H355 0.950 1_565 S
C331 C330 1.349 . S
C331 C347 1.349 . S
C332 C330 1.327 . S
C332 C351 1.429 . S
C332 H356 0.950 . S
C333 C350 1.574 . S
C333 C352 1.368 . S
C333 H357 0.949 . S
H334 C338 0.949 . S
C335 C336 1.349 . S
C335 C337 1.327 . S
C335 H358 0.950 . S
C336 C335 1.349 . S
C336 C348 1.349 . S
C337 C335 1.327 . S
C337 C353 1.429 . S
C337 H359 0.950 . S
C338 H334 0.949 . S
C338 C346 1.574 . S
C338 C354 1.368 . S
H339 C347 0.950 . S
H340 C345 0.950 . S
H341 C346 0.949 . S
H342 C348 0.950 . S
H343 C349 0.950 . S
H344 C350 0.949 . S
C345 H340 0.950 . S
C345 C347 1.327 . S
C345 C351 1.429 . S
C346 C338 1.574 . S
C346 H341 0.949 . S
C346 C352 1.368 . S
C347 C331 1.349 . S
C347 H339 0.950 . S
C347 C345 1.327 . S
C348 C336 1.349 . S
C348 H342 0.950 . S
C348 C349 1.327 . S
C349 H343 0.950 . S
C349 C348 1.327 . S
C349 C353 1.429 . S
C350 C333 1.574 . S
C350 H344 0.949 . S
C350 C354 1.368 . S
C351 C332 1.429 . S
C351 C345 1.429 . S
C351 C352 1.523 . S
C352 C333 1.368 . S
C352 C346 1.368 . S
C352 C351 1.523 . S
C353 C337 1.429 . S
C353 C349 1.429 . S
C353 C354 1.523 . S
C354 C338 1.368 . S
C354 C350 1.368 . S
C354 C353 1.523 . S
H355 C330 0.950 1_545 S
H356 C332 0.950 . S
H357 C333 0.949 . S
H358 C335 0.950 . S
H359 C337 0.950 . S
C360 C361 1.349 . S
C360 C362 1.327 . S
C360 H385 0.950 . S
C361 C360 1.349 . S
C361 C377 1.349 . S
C362 C360 1.327 . S
C362 C381 1.429 . S
C362 H386 0.950 . S
C363 C380 1.574 . S
C363 C382 1.368 . S
C363 H387 0.949 . S
H364 C368 0.949 . S
C365 C366 1.349 . S
C365 C367 1.327 . S
C365 H388 0.950 . S
C366 C365 1.349 . S
C366 C378 1.349 . S
C367 C365 1.327 . S
C367 C383 1.429 . S
C367 H389 0.950 . S
C368 H364 0.949 . S
C368 C376 1.574 . S
C368 C384 1.368 . S
H369 C377 0.950 . S
H370 C375 0.950 . S
H371 C376 0.949 . S
H372 C378 0.950 . S
H373 C379 0.950 . S
H374 C380 0.949 . S
C375 H370 0.950 . S
C375 C377 1.327 . S
C375 C381 1.429 . S
C376 C368 1.574 . S
C376 H371 0.949 . S
C376 C382 1.368 . S
C377 C361 1.349 . S
C377 H369 0.950 . S
C377 C375 1.327 . S
C378 C366 1.349 . S
C378 H372 0.950 . S
C378 C379 1.327 . S
C379 H373 0.950 . S
C379 C378 1.327 . S
C379 C383 1.429 . S
C380 C363 1.574 . S
C380 H374 0.949 . S
C380 C384 1.368 . S
C381 C362 1.429 . S
C381 C375 1.429 . S
C381 C382 1.523 . S
C382 C363 1.368 . S
C382 C376 1.368 . S
C382 C381 1.523 . S
C383 C367 1.429 . S
C383 C379 1.429 . S
C383 C384 1.523 . S
C384 C368 1.368 . S
C384 C380 1.368 . S
C384 C383 1.523 . S
H385 C360 0.950 . S
H386 C362 0.950 . S
H387 C363 0.949 . S
H388 C365 0.950 . S
H389 C367 0.950 . S
C390 C391 1.349 . S
C390 C392 1.327 . S
C390 H415 0.950 . S
C391 C390 1.349 . S
C391 C407 1.349 . S
C392 C390 1.327 . S
C392 C411 1.429 . S
C392 H416 0.950 . S
C393 C410 1.574 . S
C393 C412 1.368 . S
C393 H417 0.949 . S
H394 C398 0.949 . S
C395 C396 1.349 . S
C395 C397 1.327 . S
C395 H418 0.950 . S
C396 C395 1.349 . S
C396 C408 1.349 . S
C397 C395 1.327 . S
C397 C413 1.429 . S
C397 H419 0.950 . S
C398 H394 0.949 . S
C398 C406 1.574 . S
C398 C414 1.368 . S
H399 C407 0.950 . S
H400 C405 0.950 . S
H401 C406 0.949 . S
H402 C408 0.950 . S
H403 C409 0.950 . S
H404 C410 0.949 . S
C405 H400 0.950 . S
C405 C407 1.327 . S
C405 C411 1.429 . S
C406 C398 1.574 . S
C406 H401 0.949 . S
C406 C412 1.368 . S
C407 C391 1.349 . S
C407 H399 0.950 . S
C407 C405 1.327 . S
C408 C396 1.349 . S
C408 H402 0.950 . S
C408 C409 1.327 . S
C409 H403 0.950 . S
C409 C408 1.327 . S
C409 C413 1.429 . S
C410 C393 1.574 . S
C410 H404 0.949 . S
C410 C414 1.368 . S
C411 C392 1.429 . S
C411 C405 1.429 . S
C411 C412 1.523 . S
C412 C393 1.368 . S
C412 C406 1.368 . S
C412 C411 1.523 . S
C413 C397 1.429 . S
C413 C409 1.429 . S
C413 C414 1.523 . S
C414 C398 1.368 . S
C414 C410 1.368 . S
C414 C413 1.523 . S
H415 C390 0.950 . S
H416 C392 0.950 . S
H417 C393 0.949 . S
H418 C395 0.950 . S
H419 C397 0.950 . S
C420 C421 1.349 . S
C420 C422 1.327 . S
C420 H445 0.950 . S
C421 C420 1.349 . S
C421 C437 1.349 . S
C422 C420 1.327 . S
C422 C441 1.429 . S
C422 H446 0.950 . S
C423 C440 1.574 . S
C423 C442 1.368 . S
C423 H447 0.949 . S
H424 C428 0.949 . S
C425 C426 1.349 . S
C425 C427 1.327 . S
C425 H448 0.950 . S
C426 C425 1.349 . S
C426 C438 1.349 . S
C427 C425 1.327 . S
C427 C443 1.429 . S
C427 H449 0.950 . S
C428 H424 0.949 . S
C428 C436 1.574 . S
C428 C444 1.368 . S
H429 C437 0.950 1_565 S
H430 C435 0.950 . S
H431 C436 0.949 . S
H432 C438 0.950 . S
H433 C439 0.950 . S
H434 C440 0.949 . S
C435 H430 0.950 . S
C435 C437 1.327 . S
C435 C441 1.429 . S
C436 C428 1.574 . S
C436 H431 0.949 . S
C436 C442 1.368 . S
C437 C421 1.349 . S
C437 H429 0.950 1_545 S
C437 C435 1.327 . S
C438 C426 1.349 . S
C438 H432 0.950 . S
C438 C439 1.327 . S
C439 H433 0.950 . S
C439 C438 1.327 . S
C439 C443 1.429 . S
C440 C423 1.574 . S
C440 H434 0.949 . S
C440 C444 1.368 . S
C441 C422 1.429 . S
C441 C435 1.429 . S
C441 C442 1.523 . S
C442 C423 1.368 . S
C442 C436 1.368 . S
C442 C441 1.523 . S
C443 C427 1.429 . S
C443 C439 1.429 . S
C443 C444 1.523 . S
C444 C428 1.368 . S
C444 C440 1.368 . S
C444 C443 1.523 . S
H445 C420 0.950 . S
H446 C422 0.950 . S
H447 C423 0.949 . S
H448 C425 0.950 . S
H449 C427 0.950 . S
C450 C451 1.349 . S
C450 C452 1.327 . S
C450 H475 0.950 . S
C451 C450 1.349 . S
C451 C467 1.349 . S
C452 C450 1.327 . S
C452 C471 1.429 . S
C452 H476 0.950 . S
C453 C470 1.574 . S
C453 C472 1.368 . S
C453 H477 0.949 . S
H454 C458 0.949 . S
C455 C456 1.349 . S
C455 C457 1.327 . S
C455 H478 0.950 . S
C456 C455 1.349 . S
C456 C468 1.349 . S
C457 C455 1.327 . S
C457 C473 1.429 . S
C457 H479 0.950 . S
C458 H454 0.949 . S
C458 C466 1.574 . S
C458 C474 1.368 . S
H459 C467 0.950 . S
H460 C465 0.950 . S
H461 C466 0.949 . S
H462 C468 0.950 . S
H463 C469 0.950 . S
H464 C470 0.949 . S
C465 H460 0.950 . S
C465 C467 1.327 . S
C465 C471 1.429 . S
C466 C458 1.574 . S
C466 H461 0.949 . S
C466 C472 1.368 . S
C467 C451 1.349 . S
C467 H459 0.950 . S
C467 C465 1.327 . S
C468 C456 1.349 . S
C468 H462 0.950 . S
C468 C469 1.327 . S
C469 H463 0.950 . S
C469 C468 1.327 . S
C469 C473 1.429 . S
C470 C453 1.574 . S
C470 H464 0.949 . S
C470 C474 1.368 . S
C471 C452 1.429 . S
C471 C465 1.429 . S
C471 C472 1.523 . S
C472 C453 1.368 . S
C472 C466 1.368 . S
C472 C471 1.523 . S
C473 C457 1.429 . S
C473 C469 1.429 . S
C473 C474 1.523 . S
C474 C458 1.368 . S
C474 C470 1.368 . S
C474 C473 1.523 . S
H475 C450 0.950 . S
H476 C452 0.950 . S
H477 C453 0.949 . S
H478 C455 0.950 . S
H479 C457 0.950 . S
C480 C481 1.349 . S
C480 C482 1.327 . S
C480 H505 0.950 . S
C481 C480 1.349 . S
C481 C497 1.349 . S
C482 C480 1.327 . S
C482 C501 1.429 . S
C482 H506 0.950 . S
C483 C500 1.574 . S
C483 C502 1.368 . S
C483 H507 0.949 . S
H484 C488 0.949 . S
C485 C486 1.349 . S
C485 C487 1.327 . S
C485 H508 0.950 . S
C486 C485 1.349 . S
C486 C498 1.349 . S
C487 C485 1.327 . S
C487 C503 1.429 . S
C487 H509 0.950 . S
C488 H484 0.949 . S
C488 C496 1.574 . S
C488 C504 1.368 . S
H489 C497 0.950 . S
H490 C495 0.950 . S
H491 C496 0.949 . S
H492 C498 0.950 . S
H493 C499 0.950 . S
H494 C500 0.949 . S
C495 H490 0.950 . S
C495 C497 1.327 . S
C495 C501 1.429 . S
C496 C488 1.574 . S
C496 H491 0.949 . S
C496 C502 1.368 . S
C497 C481 1.349 . S
C497 H489 0.950 . S
C497 C495 1.327 . S
C498 C486 1.349 . S
C498 H492 0.950 . S
C498 C499 1.327 . S
C499 H493 0.950 . S
C499 C498 1.327 . S
C499 C503 1.429 . S
C500 C483 1.574 . S
C500 H494 0.949 . S
C500 C504 1.368 . S
C501 C482 1.429 . S
C501 C495 1.429 . S
C501 C502 1.523 . S
C502 C483 1.368 . S
C502 C496 1.368 . S
C502 C501 1.523 . S
C503 C487 1.429 . S
C503 C499 1.429 . S
C503 C504 1.523 . S
C504 C488 1.368 . S
C504 C500 1.368 . S
C504 C503 1.523 . S
H505 C480 0.950 . S
H506 C482 0.950 . S
H507 C483 0.949 . S
H508 C485 0.950 . S
H509 C487 0.950 . S
C510 C511 1.349 . S
C510 C512 1.327 . S
C510 H535 0.950 . S
C511 C510 1.349 . S
C511 C527 1.349 . S
C512 C510 1.327 . S
C512 C531 1.429 . S
C512 H536 0.950 . S
C513 C530 1.574 . S
C513 C532 1.368 . S
C513 H537 0.949 . S
H514 C518 0.949 . S
C515 C516 1.349 . S
C515 C517 1.327 . S
C515 H538 0.950 . S
C516 C515 1.349 . S
C516 C528 1.349 . S
C517 C515 1.327 . S
C517 C533 1.429 . S
C517 H539 0.950 . S
C518 H514 0.949 . S
C518 C526 1.574 . S
C518 C534 1.368 . S
H519 C527 0.949 1_545 S
H520 C525 0.950 . S
H521 C526 0.949 . S
H522 C528 0.950 . S
H523 C529 0.950 . S
H524 C530 0.949 . S
C525 H520 0.950 . S
C525 C527 1.327 . S
C525 C531 1.429 . S
C526 C518 1.574 . S
C526 H521 0.949 . S
C526 C532 1.368 . S
C527 C511 1.349 . S
C527 H519 0.949 1_565 S
C527 C525 1.327 . S
C528 C516 1.349 . S
C528 H522 0.950 . S
C528 C529 1.327 . S
C529 H523 0.950 . S
C529 C528 1.327 . S
C529 C533 1.429 . S
C530 C513 1.574 . S
C530 H524 0.949 . S
C530 C534 1.368 . S
C531 C512 1.429 . S
C531 C525 1.429 . S
C531 C532 1.523 . S
C532 C513 1.368 . S
C532 C526 1.368 . S
C532 C531 1.523 . S
C533 C517 1.429 . S
C533 C529 1.429 . S
C533 C534 1.523 . S
C534 C518 1.368 . S
C534 C530 1.368 . S
C534 C533 1.523 . S
H535 C510 0.950 . S
H536 C512 0.950 . S
H537 C513 0.949 . S
H538 C515 0.950 . S
H539 C517 0.950 . S
C540 C541 1.349 . S
C540 C542 1.327 . S
C540 H565 0.950 . S
C541 C540 1.349 . S
C541 C557 1.349 . S
C542 C540 1.327 . S
C542 C561 1.429 . S
C542 H566 0.950 . S
C543 C560 1.574 . S
C543 C562 1.368 . S
C543 H567 0.949 . S
H544 C548 0.949 . S
C545 C546 1.349 . S
C545 C547 1.327 . S
C545 H568 0.950 . S
C546 C545 1.349 . S
C546 C558 1.349 . S
C547 C545 1.327 . S
C547 C563 1.429 . S
C547 H569 0.950 . S
C548 H544 0.949 . S
C548 C556 1.574 . S
C548 C564 1.368 . S
H549 C557 0.950 . S
H550 C555 0.950 . S
H551 C556 0.949 . S
H552 C558 0.950 . S
H553 C559 0.950 . S
H554 C560 0.949 . S
C555 H550 0.950 . S
C555 C557 1.327 . S
C555 C561 1.429 . S
C556 C548 1.574 . S
C556 H551 0.949 . S
C556 C562 1.368 . S
C557 C541 1.349 . S
C557 H549 0.950 . S
C557 C555 1.327 . S
C558 C546 1.349 . S
C558 H552 0.950 . S
C558 C559 1.327 . S
C559 H553 0.950 . S
C559 C558 1.327 . S
C559 C563 1.429 . S
C560 C543 1.574 . S
C560 H554 0.949 . S
C560 C564 1.368 . S
C561 C542 1.429 . S
C561 C555 1.429 . S
C561 C562 1.523 . S
C562 C543 1.368 . S
C562 C556 1.368 . S
C562 C561 1.523 . S
C563 C547 1.429 . S
C563 C559 1.429 . S
C563 C564 1.523 . S
C564 C548 1.368 . S
C564 C560 1.368 . S
C564 C563 1.523 . S
H565 C540 0.950 . S
H566 C542 0.950 . S
H567 C543 0.949 . S
H568 C545 0.950 . S
H569 C547 0.950 . S
C211 C72 1.138 . S
C216 C187 1.245 . S
C241 C140 1.548 . S
C246 C193 1.430 . S
C271 C75 1.530 . S
C276 C184 1.453 . S
C301 C156 1.138 . S
C306 C209 1.245 . S
C331 C56 1.548 . S
C336 C175 1.430 . S
C366 C192 1.453 . S
C361 C159 1.530 . S
C391 C147 1.135 . S
C396 C188 1.255 . S
C426 C205 1.471 . S
C421 C67 1.559 . S
C456 C172 1.398 . S
C451 C150 1.531 . S
C486 C208 1.255 . S
C481 C63 1.135 . S
C516 C171 1.471 . S
C511 C151 1.559 . S
C546 C196 1.398 . S
C541 C66 1.531 . S
