# Generated by pormake.
# Topology pyr, (3,6)-cn, num edge types: 1
# Building blocks:
#     Node 0, Type 0, BuildingBlock: WUSLED_clean_sbu_0, # of connection points: 3
#     Node 1, Type 0, BuildingBlock: WUSLED_clean_sbu_0, # of connection points: 3
#     Node 2, Type 0, BuildingBlock: WUSLED_clean_sbu_0, # of connection points: 3
#     Node 3, Type 0, BuildingBlock: WUSLED_clean_sbu_0, # of connection points: 3
#     Node 4, Type 0, BuildingBlock: WUSLED_clean_sbu_0, # of connection points: 3
#     Node 5, Type 0, BuildingBlock: WUSLED_clean_sbu_0, # of connection points: 3
#     Node 6, Type 0, BuildingBlock: WUSLED_clean_sbu_0, # of connection points: 3
#     Node 7, Type 0, BuildingBlock: WUSLED_clean_sbu_0, # of connection points: 3
#     Node 8, Type 1, BuildingBlock: LEVNOQ01_clean_sbu_1, # of connection points: 6
#     Node 9, Type 1, BuildingBlock: LEVNOQ01_clean_sbu_1, # of connection points: 6
#     Node 10, Type 1, BuildingBlock: LEVNOQ01_clean_sbu_1, # of connection points: 6
#     Node 11, Type 1, BuildingBlock: LEVNOQ01_clean_sbu_1, # of connection points: 6
#     Edge 12, Type (0, 1), BuildingBlock: CIFDUS_clean_linker_0, # of connection points: 2
#     Edge 13, Type (0, 1), BuildingBlock: CIFDUS_clean_linker_0, # of connection points: 2
#     Edge 14, Type (0, 1), BuildingBlock: CIFDUS_clean_linker_0, # of connection points: 2
#     Edge 15, Type (0, 1), BuildingBlock: CIFDUS_clean_linker_0, # of connection points: 2
#     Edge 16, Type (0, 1), BuildingBlock: CIFDUS_clean_linker_0, # of connection points: 2
#     Edge 17, Type (0, 1), BuildingBlock: CIFDUS_clean_linker_0, # of connection points: 2
#     Edge 18, Type (0, 1), BuildingBlock: CIFDUS_clean_linker_0, # of connection points: 2
#     Edge 19, Type (0, 1), BuildingBlock: CIFDUS_clean_linker_0, # of connection points: 2
#     Edge 20, Type (0, 1), BuildingBlock: CIFDUS_clean_linker_0, # of connection points: 2
#     Edge 21, Type (0, 1), BuildingBlock: CIFDUS_clean_linker_0, # of connection points: 2
#     Edge 22, Type (0, 1), BuildingBlock: CIFDUS_clean_linker_0, # of connection points: 2
#     Edge 23, Type (0, 1), BuildingBlock: CIFDUS_clean_linker_0, # of connection points: 2
#     Edge 24, Type (0, 1), BuildingBlock: CIFDUS_clean_linker_0, # of connection points: 2
#     Edge 25, Type (0, 1), BuildingBlock: CIFDUS_clean_linker_0, # of connection points: 2
#     Edge 26, Type (0, 1), BuildingBlock: CIFDUS_clean_linker_0, # of connection points: 2
#     Edge 27, Type (0, 1), BuildingBlock: CIFDUS_clean_linker_0, # of connection points: 2
#     Edge 28, Type (0, 1), BuildingBlock: CIFDUS_clean_linker_0, # of connection points: 2
#     Edge 29, Type (0, 1), BuildingBlock: CIFDUS_clean_linker_0, # of connection points: 2
#     Edge 30, Type (0, 1), BuildingBlock: CIFDUS_clean_linker_0, # of connection points: 2
#     Edge 31, Type (0, 1), BuildingBlock: CIFDUS_clean_linker_0, # of connection points: 2
#     Edge 32, Type (0, 1), BuildingBlock: CIFDUS_clean_linker_0, # of connection points: 2
#     Edge 33, Type (0, 1), BuildingBlock: CIFDUS_clean_linker_0, # of connection points: 2
#     Edge 34, Type (0, 1), BuildingBlock: CIFDUS_clean_linker_0, # of connection points: 2
#     Edge 35, Type (0, 1), BuildingBlock: CIFDUS_clean_linker_0, # of connection points: 2
# Relax obj value: 0.034
# Max RMSD: 0.109
# Mean RMSD: 0.044
data_MOF--net-pry--node1-WUSLED_clean_sbu_0--node2-LEVNOQ01_clean_sbu_1--edge1-CIFDUS_clean_linker_0
_symmetry_space_group_name_H-M    P1
_symmetry_Int_Tables_number       1
_symmetry_cell_setting            triclinic
loop_
_symmetry_equiv_pos_as_xyz
'x, y, z'
_cell_length_a     43.971089
_cell_length_b     42.381264
_cell_length_c     41.876838
_cell_angle_alpha  91.676154
_cell_angle_beta   91.737216
_cell_angle_gamma 93.90837
loop_
_atom_site_label
_atom_site_type_symbol
_atom_site_fract_x
_atom_site_fract_y
_atom_site_fract_z
_atom_type_partial_charge
C0 C 0.14879 0.2511 0.11341 0.0
C1 C 0.12295 0.24674 0.09263 0.0
C2 C 0.1193 0.30391 0.08975 0.0
C3 C 0.10833 0.27275 0.0811 0.0
C4 C 0.14485 0.30822 0.11094 0.0
C5 C 0.15943 0.28223 0.1225 0.0
U6 U 0.17153 0.18235 0.16789 0.0
O7 O 0.183 0.13426 0.15296 0.0
O8 O 0.21707 0.16627 0.17891 0.0
C9 C 0.2114 0.13881 0.1637 0.0
C10 C 0.16648 0.22366 0.12244 0.0
C11 C 0.23524 0.12854 0.14218 0.0
C12 C 0.27685 0.14018 0.10636 0.0
C13 C 0.25317 0.15033 0.12494 0.0
C14 C 0.26476 0.0862 0.12143 0.0
C15 C 0.2831 0.10795 0.10439 0.0
C16 C 0.24115 0.09641 0.14011 0.0
C17 C 0.1314 0.16614 0.24702 0.0
C18 C 0.10353 0.15808 0.29588 0.0
C19 C 0.13939 0.12044 0.27931 0.0
C20 C 0.14625 0.13846 0.25257 0.0
C21 C 0.1175 0.12968 0.30104 0.0
C22 C 0.11039 0.17606 0.26912 0.0
C23 C 0.13646 0.1842 0.21776 0.0
O24 O 0.18606 0.22781 0.14684 0.0
O25 O 0.15178 0.19555 0.12155 0.0
O26 O 0.12825 0.16906 0.1907 0.0
O27 O 0.16281 0.20063 0.21639 0.0
H28 H 0.11443 0.22318 0.08455 0.0
H29 H 0.08898 0.26841 0.06457 0.0
H30 H 0.15374 0.33179 0.11856 0.0
H31 H 0.17948 0.28664 0.13807 0.0
H32 H 0.2907 0.15779 0.09408 0.0
H33 H 0.24919 0.17528 0.1262 0.0
H34 H 0.26851 0.06121 0.12024 0.0
H35 H 0.22763 0.07917 0.15325 0.0
H36 H 0.08633 0.16578 0.31177 0.0
H37 H 0.15092 0.09894 0.2827 0.0
H38 H 0.16266 0.13047 0.23589 0.0
H39 H 0.09867 0.19737 0.26526 0.0
C40 C 0.27922 0.88151 0.59886 0.0
C41 C 0.2773 0.91072 0.61502 0.0
C42 C 0.22605 0.91492 0.59222 0.0
C43 C 0.25105 0.92733 0.6116 0.0
C44 C 0.2283 0.88575 0.5758 0.0
C45 C 0.25466 0.86923 0.57911 0.0
U46 U 0.34923 0.86055 0.64778 0.0
O47 O 0.36647 0.81416 0.65729 0.0
O48 O 0.3949 0.84954 0.63235 0.0
C49 C 0.39152 0.82011 0.64148 0.0
C50 C 0.30621 0.86316 0.60321 0.0
C51 C 0.40011 0.79523 0.6184 0.0
C52 C 0.39503 0.74074 0.59757 0.0
C53 C 0.38438 0.76515 0.6165 0.0
C54 C 0.43671 0.77615 0.58107 0.0
C55 C 0.42171 0.74571 0.58014 0.0
C56 C 0.42612 0.80054 0.60008 0.0
C57 C 0.3677 0.90308 0.72942 0.0
C58 C 0.38804 0.88443 0.77966 0.0
C59 C 0.39646 0.93962 0.76701 0.0
C60 C 0.38013 0.93368 0.73796 0.0
C61 C 0.40058 0.91508 0.78832 0.0
C62 C 0.37193 0.87848 0.75056 0.0
C63 C 0.34938 0.89766 0.69921 0.0
O64 O 0.33281 0.87928 0.60245 0.0
O65 O 0.30469 0.84295 0.62641 0.0
O66 O 0.33299 0.87057 0.69586 0.0
O67 O 0.36283 0.90612 0.67286 0.0
H68 H 0.296 0.92057 0.63047 0.0
H69 H 0.25035 0.94993 0.62422 0.0
H70 H 0.2094 0.87527 0.56104 0.0
H71 H 0.25569 0.8466 0.5666 0.0
H72 H 0.38312 0.71753 0.59788 0.0
H73 H 0.36441 0.76006 0.63047 0.0
H74 H 0.45712 0.78095 0.56769 0.0
H75 H 0.43886 0.82337 0.60116 0.0
H76 H 0.39023 0.86501 0.79561 0.0
H77 H 0.40609 0.96341 0.77258 0.0
H78 H 0.37709 0.95309 0.72215 0.0
H79 H 0.36254 0.85462 0.74484 0.0
C80 C 0.65037 0.34225 0.74573 0.0
C81 C 0.64841 0.33492 0.71277 0.0
C82 C 0.63748 0.38924 0.70146 0.0
C83 C 0.64209 0.35816 0.69083 0.0
C84 C 0.63938 0.39637 0.73457 0.0
C85 C 0.64595 0.37328 0.75638 0.0
U86 U 0.69468 0.31334 0.81782 0.0
O87 O 0.67954 0.28753 0.85975 0.0
O88 O 0.71107 0.26629 0.8271 0.0
C89 C 0.69417 0.26249 0.85226 0.0
C90 C 0.65683 0.31741 0.76863 0.0
C91 C 0.67596 0.23227 0.85417 0.0
C92 C 0.6324 0.19704 0.83661 0.0
C93 C 0.65286 0.22303 0.83132 0.0
C94 C 0.65896 0.18853 0.88683 0.0
C95 C 0.63452 0.18016 0.86504 0.0
C96 C 0.67944 0.21431 0.8814 0.0
C97 C 0.75643 0.36862 0.85983 0.0
C98 C 0.79305 0.35094 0.89892 0.0
C99 C 0.79075 0.4069 0.88963 0.0
C100 C 0.76698 0.40004 0.86702 0.0
C101 C 0.80448 0.38239 0.90539 0.0
C102 C 0.76915 0.34412 0.87641 0.0
C103 C 0.73286 0.36178 0.83441 0.0
O104 O 0.68351 0.30543 0.76635 0.0
O105 O 0.64936 0.32284 0.79838 0.0
O106 O 0.70465 0.35891 0.84395 0.0
O107 O 0.73885 0.34 0.81292 0.0
H108 H 0.65181 0.31115 0.70399 0.0
H109 H 0.64107 0.35183 0.66556 0.0
H110 H 0.6353 0.41977 0.74384 0.0
H111 H 0.64733 0.37974 0.78163 0.0
H112 H 0.61413 0.19103 0.81911 0.0
H113 H 0.64982 0.23672 0.81015 0.0
H114 H 0.66115 0.17657 0.9092 0.0
H115 H 0.69706 0.22127 0.89938 0.0
H116 H 0.80297 0.33158 0.91085 0.0
H117 H 0.79925 0.43132 0.89372 0.0
H118 H 0.75734 0.41925 0.85453 0.0
H119 H 0.76105 0.3197 0.87141 0.0
C120 C 0.78474 0.60623 0.37643 0.0
C121 C 0.76658 0.62492 0.39524 0.0
C122 C 0.72907 0.58028 0.3993 0.0
C123 C 0.73893 0.61204 0.40656 0.0
C124 C 0.7481 0.56137 0.38169 0.0
C125 C 0.7756 0.57428 0.3703 0.0
U126 U 0.85526 0.66493 0.37265 0.0
O127 O 0.87158 0.69079 0.33091 0.0
O128 O 0.90049 0.65739 0.35398 0.0
C129 C 0.8961 0.67482 0.32901 0.0
C130 C 0.81208 0.61985 0.36112 0.0
C131 C 0.89987 0.65851 0.29802 0.0
C132 C 0.92954 0.64949 0.25096 0.0
C133 C 0.92463 0.66705 0.27901 0.0
C134 C 0.88437 0.6154 0.26026 0.0
C135 C 0.90984 0.623 0.24172 0.0
C136 C 0.87944 0.63299 0.28812 0.0
C137 C 0.87523 0.72495 0.4419 0.0
C138 C 0.91442 0.76795 0.43961 0.0
C139 C 0.88563 0.76108 0.48764 0.0
C140 C 0.8694 0.73459 0.47328 0.0
C141 C 0.90801 0.77841 0.4708 0.0
C142 C 0.89817 0.74144 0.42529 0.0
C143 C 0.85641 0.69845 0.42652 0.0
O144 O 0.81059 0.64884 0.35114 0.0
O145 O 0.83846 0.61483 0.37496 0.0
O146 O 0.86962 0.67169 0.42336 0.0
O147 O 0.84052 0.70537 0.40086 0.0
H148 H 0.77331 0.64966 0.40035 0.0
H149 H 0.72476 0.62729 0.41989 0.0
H150 H 0.74147 0.53668 0.37621 0.0
H151 H 0.7894 0.55946 0.35597 0.0
H152 H 0.9495 0.65571 0.23734 0.0
H153 H 0.94064 0.68668 0.28633 0.0
H154 H 0.86865 0.59532 0.25362 0.0
H155 H 0.86012 0.62612 0.30246 0.0
H156 H 0.93113 0.78099 0.42572 0.0
H157 H 0.88033 0.7683 0.51175 0.0
H158 H 0.85183 0.722 0.48649 0.0
H159 H 0.90295 0.73428 0.401 0.0
C160 C 0.86955 0.7892 0.9212 0.0
C161 C 0.86888 0.76125 0.90212 0.0
C162 C 0.90237 0.73705 0.94078 0.0
C163 C 0.88509 0.73555 0.91178 0.0
C164 C 0.90348 0.76529 0.95945 0.0
C165 C 0.88721 0.79092 0.94984 0.0
U166 U 0.84311 0.85871 0.8701 0.0
O167 O 0.79674 0.87324 0.86021 0.0
O168 O 0.8298 0.90544 0.88735 0.0
C169 C 0.8015 0.90026 0.87644 0.0
C170 C 0.85015 0.81563 0.91341 0.0
C171 C 0.77718 0.90921 0.89805 0.0
C172 C 0.73453 0.8956 0.93203 0.0
C173 C 0.75872 0.88646 0.91355 0.0
C174 C 0.74708 0.95041 0.92029 0.0
C175 C 0.72823 0.92772 0.93558 0.0
C176 C 0.77122 0.94123 0.90176 0.0
C177 C 0.88368 0.88165 0.79205 0.0
C178 C 0.90545 0.92974 0.76855 0.0
C179 C 0.88292 0.88718 0.73402 0.0
C180 C 0.87603 0.8694 0.761 0.0
C181 C 0.89777 0.91765 0.73741 0.0
C182 C 0.89849 0.91208 0.7954 0.0
C183 C 0.87846 0.86169 0.82039 0.0
O184 O 0.8634 0.8444 0.91582 0.0
O185 O 0.83089 0.81155 0.88873 0.0
O186 O 0.85276 0.8439 0.82056 0.0
O187 O 0.8862 0.87481 0.84858 0.0
H188 H 0.85546 0.75897 0.87996 0.0
H189 H 0.88401 0.71442 0.89651 0.0
H190 H 0.91618 0.7673 0.98206 0.0
H191 H 0.88788 0.81193 0.96528 0.0
H192 H 0.72033 0.87732 0.94297 0.0
H193 H 0.76268 0.86158 0.91098 0.0
H194 H 0.74332 0.97534 0.92274 0.0
H195 H 0.78509 0.95922 0.88997 0.0
H196 H 0.91754 0.95274 0.77228 0.0
H197 H 0.87647 0.87709 0.71054 0.0
H198 H 0.865 0.84585 0.75755 0.0
H199 H 0.90527 0.92221 0.81879 0.0
C200 C 0.61484 0.16449 0.31167 0.0
C201 C 0.58988 0.14231 0.30561 0.0
C202 C 0.60099 0.1395 0.24893 0.0
C203 C 0.58313 0.12981 0.27463 0.0
C204 C 0.62647 0.16094 0.25517 0.0
C205 C 0.63331 0.1733 0.2861 0.0
U206 U 0.65847 0.17684 0.39283 0.0
O207 O 0.6727 0.22053 0.42045 0.0
O208 O 0.64124 0.18485 0.44108 0.0
C209 C 0.65513 0.21328 0.44437 0.0
C210 C 0.61999 0.17988 0.34395 0.0
C211 C 0.63652 0.23861 0.45585 0.0
C212 C 0.59874 0.27688 0.44659 0.0
C213 C 0.61488 0.25152 0.43569 0.0
C214 C 0.62528 0.27624 0.49808 0.0
C215 C 0.60396 0.28978 0.47785 0.0
C216 C 0.64138 0.25091 0.48715 0.0
C217 C 0.72726 0.12619 0.40937 0.0
C218 C 0.78157 0.12948 0.42389 0.0
C219 C 0.74916 0.08443 0.43937 0.0
C220 C 0.72392 0.09737 0.42509 0.0
C221 C 0.77842 0.09982 0.43806 0.0
C222 C 0.75628 0.14247 0.40955 0.0
C223 C 0.70139 0.13678 0.38976 0.0
O224 O 0.61439 0.16201 0.36853 0.0
O225 O 0.64467 0.19906 0.34838 0.0
O226 O 0.70432 0.16547 0.37859 0.0
O227 O 0.6738 0.12907 0.39953 0.0
H228 H 0.57503 0.13525 0.32469 0.0
H229 H 0.56315 0.11363 0.27058 0.0
H230 H 0.64085 0.16867 0.23594 0.0
H231 H 0.65269 0.19034 0.28973 0.0
H232 H 0.58284 0.28698 0.43019 0.0
H233 H 0.61092 0.24238 0.41137 0.0
H234 H 0.62964 0.28531 0.52236 0.0
H235 H 0.65799 0.24119 0.50306 0.0
H236 H 0.80386 0.14176 0.42221 0.0
H237 H 0.74595 0.06168 0.45038 0.0
H238 H 0.70199 0.08409 0.42522 0.0
H239 H 0.75977 0.16458 0.39742 0.0
C240 C 0.25124 0.65987 0.19333 0.0
C241 C 0.24564 0.67615 0.16525 0.0
C242 C 0.20545 0.63591 0.14854 0.0
C243 C 0.22283 0.66429 0.14303 0.0
C244 C 0.21104 0.62009 0.177 0.0
C245 C 0.2337 0.63193 0.19907 0.0
U246 U 0.31468 0.71984 0.22828 0.0
O247 O 0.32785 0.72987 0.27909 0.0
O248 O 0.36055 0.71081 0.2464 0.0
C249 C 0.35424 0.71739 0.27626 0.0
C250 C 0.27569 0.67076 0.21666 0.0
C251 C 0.3612 0.69308 0.29959 0.0
C252 C 0.37112 0.63886 0.31155 0.0
C253 C 0.36379 0.66151 0.28956 0.0
C254 C 0.3727 0.67857 0.35438 0.0
C255 C 0.37558 0.64694 0.34432 0.0
C256 C 0.36563 0.7014 0.3322 0.0
C257 C 0.3345 0.79813 0.18756 0.0
C258 C 0.37994 0.83181 0.2025 0.0
C259 C 0.35141 0.841 0.15366 0.0
C260 C 0.33041 0.81597 0.16033 0.0
C261 C 0.37701 0.84862 0.17413 0.0
C262 C 0.35894 0.80667 0.20908 0.0
C263 C 0.31527 0.76873 0.19105 0.0
O264 O 0.30342 0.67285 0.20575 0.0
O265 O 0.27008 0.69465 0.23583 0.0
O266 O 0.29903 0.76672 0.21688 0.0
O267 O 0.32876 0.74275 0.18428 0.0
H268 H 0.25906 0.69779 0.16042 0.0
H269 H 0.21917 0.677 0.12135 0.0
H270 H 0.19769 0.5986 0.18241 0.0
H271 H 0.23765 0.61911 0.22066 0.0
H272 H 0.37383 0.61502 0.3026 0.0
H273 H 0.36045 0.65427 0.26461 0.0
H274 H 0.37569 0.68569 0.37938 0.0
H275 H 0.36366 0.7256 0.34052 0.0
H276 H 0.39916 0.83726 0.21899 0.0
H277 H 0.34857 0.853 0.1314 0.0
H278 H 0.31176 0.80956 0.14335 0.0
H279 H 0.36248 0.79308 0.23023 0.0
C280 C 0.10204 0.32366 0.6399 0.0
C281 C 0.11825 0.31682 0.61247 0.0
C282 C 0.08502 0.26912 0.60141 0.0
C283 C 0.1098 0.28985 0.59337 0.0
C284 C 0.06807 0.27685 0.62821 0.0
C285 C 0.07658 0.30387 0.64732 0.0
U286 U 0.16338 0.38705 0.6634 0.0
O287 O 0.16197 0.4366 0.68045 0.0
O288 O 0.18442 0.40251 0.71005 0.0
C289 C 0.1754 0.43137 0.70809 0.0
C290 C 0.11301 0.35005 0.66182 0.0
C291 C 0.16154 0.44488 0.73664 0.0
C292 C 0.13479 0.43959 0.7865 0.0
C293 C 0.14754 0.42576 0.75965 0.0
C294 C 0.15007 0.49165 0.76779 0.0
C295 C 0.13561 0.47271 0.79064 0.0
C296 C 0.16296 0.47786 0.74116 0.0
C297 C 0.23247 0.39404 0.61014 0.0
C298 C 0.26943 0.43937 0.61124 0.0
C299 C 0.28021 0.39087 0.58298 0.0
C300 C 0.25208 0.37691 0.59168 0.0
C301 C 0.28919 0.42233 0.59254 0.0
C302 C 0.24136 0.4253 0.62006 0.0
C303 C 0.20278 0.37906 0.61852 0.0
O304 O 0.13724 0.34465 0.67944 0.0
O305 O 0.11486 0.37814 0.6492 0.0
O306 O 0.17947 0.39667 0.61529 0.0
O307 O 0.20261 0.36327 0.64506 0.0
H308 H 0.13802 0.33186 0.60637 0.0
H309 H 0.12316 0.28476 0.57277 0.0
H310 H 0.04916 0.26119 0.63536 0.0
H311 H 0.06389 0.30873 0.66848 0.0
H312 H 0.12345 0.4244 0.80348 0.0
H313 H 0.14616 0.40022 0.75675 0.0
H314 H 0.15124 0.51722 0.77041 0.0
H315 H 0.17389 0.49304 0.72388 0.0
H316 H 0.27544 0.46373 0.61871 0.0
H317 H 0.29505 0.37688 0.56907 0.0
H318 H 0.24561 0.35268 0.58397 0.0
H319 H 0.22651 0.43889 0.63441 0.0
O320 O 0.98828 0.02623 0.6038 0.0
Mg321 Mg 0.02643 0.04179 0.57922 0.0
O322 O 0.98061 0.99546 0.56091 0.0
Mg323 Mg 0.00766 0.02061 0.51781 0.0
O324 O 0.02071 0.0718 0.54197 0.0
O325 O 0.03832 0.08685 0.59167 0.0
O326 O 0.03415 0.04486 0.47421 0.0
O327 O 0.96065 0.04131 0.50323 0.0
Mg328 Mg 0.98623 0.9949 0.45365 0.0
O329 O 0.99557 0.97028 0.49356 0.0
O330 O 0.02271 0.01638 0.43013 0.0
O331 O 0.94574 0.01794 0.45689 0.0
O332 O 0.98096 0.94776 0.44573 0.0
C333 C 0.07155 0.99944 0.55645 0.0
C334 C 0.97449 1.00243 0.5899 0.0
C335 C 0.03031 0.09388 0.56305 0.0
C336 C 0.03806 0.03905 0.44444 0.0
C337 C 0.94099 0.03657 0.48013 0.0
C338 C 0.98831 0.94513 0.47553 0.0
O339 O 0.06487 0.01498 0.58115 0.0
O340 O 0.05429 0.99929 0.53137 0.0
O341 O 0.44966 0.08094 0.02245 0.0
Mg342 Mg 0.49705 0.08683 0.02255 0.0
O343 O 0.45563 0.03197 0.03625 0.0
Mg344 Mg 0.5053 0.01717 0.02074 0.0
O345 O 0.51907 0.06102 0.98979 0.0
O346 O 0.51343 0.11313 0.98666 0.0
O347 O 0.55525 1.00243 1.0051 0.0
O348 O 0.48175 0.99525 0.97318 0.0
Mg349 Mg 0.51326 0.94877 0.0166 0.0
O350 O 0.49097 0.97276 0.05114 0.0
O351 O 0.56065 0.95302 0.01751 0.0
O352 O 0.49001 0.94443 0.9715 0.0
O353 O 0.49686 0.92049 0.05085 0.0
C354 C 0.53193 0.06816 0.081 0.0
C355 C 0.4387 0.05525 0.03318 0.0
C356 C 0.52426 0.08767 0.97544 0.0
C357 C 0.57196 0.97887 1.00752 0.0
C358 C 0.47885 0.96808 0.9589 0.0
C359 C 0.48617 0.9452 0.0639 0.0
O360 O 0.52143 0.0913 0.06679 0.0
O361 O 0.5284 0.04009 0.0686 0.0
O362 O 0.5272 0.58967 0.57189 0.0
Mg363 Mg 0.51608 0.54335 0.58533 0.0
O364 O 0.50187 0.57287 0.52812 0.0
Mg365 Mg 0.50997 0.51826 0.51976 0.0
O366 O 0.5398 0.50823 0.56571 0.0
O367 O 0.54732 0.5272 0.61612 0.0
O368 O 0.51774 0.46375 0.51085 0.0
O369 O 0.55527 0.53303 0.49526 0.0
Mg370 Mg 0.5041 0.49393 0.45205 0.0
O371 O 0.48022 0.52766 0.47395 0.0
O372 O 0.49514 0.44711 0.46536 0.0
O373 O 0.5502 0.51121 0.44651 0.0
O374 O 0.47149 0.51083 0.42309 0.0
C375 C 0.45398 0.51023 0.57144 0.0
C376 C 0.51251 0.59563 0.54675 0.0
C377 C 0.55366 0.50749 0.59363 0.0
C378 C 0.50866 0.44114 0.49126 0.0
C379 C 0.56608 0.52733 0.46787 0.0
C380 C 0.46554 0.52949 0.44664 0.0
O381 O 0.46972 0.52747 0.59203 0.0
O382 O 0.46484 0.50346 0.54434 0.0
O383 O 0.99473 0.44999 0.05716 0.0
Mg384 Mg 0.00992 0.49768 0.06835 0.0
O385 O 0.02989 0.46865 0.02651 0.0
Mg386 Mg 0.00768 0.51936 0.01749 0.0
O387 O 0.98206 0.53377 0.06619 0.0
O388 O 0.99197 0.50746 0.1107 0.0
O389 O 0.98839 0.56809 1.00273 0.0
O390 O 0.95881 0.49001 1.0063 0.0
Mg391 Mg 0.99 0.50775 0.96422 0.0
O392 O 0.03627 0.51294 0.96865 0.0
O393 O 0.9598 0.54494 0.96422 0.0
O394 O 0.97145 0.46099 0.96598 0.0
O395 O 0.00951 0.51183 0.92196 0.0
C396 C 0.0688 0.53495 0.05805 0.0
C397 C 0.01711 0.44495 0.0402 0.0
C398 C 0.97836 0.52937 0.09658 0.0
C399 C 0.96696 0.56929 0.98166 0.0
C400 C 0.95282 0.46606 0.98738 0.0
C401 C 0.03527 0.51255 0.93743 0.0
O402 O 0.05783 0.51135 0.07293 0.0
O403 O 0.05274 0.54659 0.03605 0.0
H404 H 0.1038 0.14569 0.36313 0.0
H405 H 0.10755 0.06553 0.29759 0.0
H406 H 0.0868 0.03046 0.33763 0.0
H407 H 0.06351 0.02274 0.38909 0.0
H408 H 0.05787 0.10183 0.45528 0.0
H409 H 0.08372 0.13696 0.4174 0.0
C410 C 0.10019 0.12053 0.35767 0.0
C411 C 0.1073 0.10842 0.32716 0.0
C412 C 0.08784 0.10026 0.38092 0.0
C413 C 0.10279 0.07563 0.32081 0.0
C414 C 0.09066 0.05548 0.34368 0.0
C415 C 0.06822 0.04762 0.3955 0.0
C416 C 0.05847 0.05966 0.4249 0.0
C417 C 0.0826 0.06758 0.37352 0.0
C418 C 0.06517 0.09188 0.43289 0.0
C419 C 0.07972 0.11202 0.41107 0.0
H420 H 0.40075 0.96707 0.82911 0.0
H421 H 0.43989 0.87683 0.81758 0.0
H422 H 0.46677 0.88517 0.86911 0.0
H423 H 0.47915 0.9176 0.91754 0.0
H424 H 0.44233 0.00895 0.92879 0.0
H425 H 0.41506 1.00084 0.87702 0.0
C426 C 0.41545 0.94937 0.83763 0.0
C427 C 0.41792 0.92117 0.8194 0.0
C428 C 0.43133 0.95451 0.86726 0.0
C429 C 0.43689 0.89843 0.83122 0.0
C430 C 0.45251 0.90327 0.86066 0.0
C431 C 0.46514 0.9358 0.90877 0.0
C432 C 0.46268 0.96378 0.92722 0.0
C433 C 0.44977 0.93109 0.87895 0.0
C434 C 0.44466 0.98717 0.91517 0.0
C435 C 0.42901 0.98252 0.88556 0.0
H436 H 0.60153 0.38319 0.64633 0.0
H437 H 0.65725 0.45183 0.70462 0.0
H438 H 0.63926 0.49437 0.67292 0.0
H439 H 0.60292 0.51269 0.63343 0.0
H440 H 0.54761 0.4451 0.57416 0.0
H441 H 0.57131 0.40148 0.60036 0.0
C442 C 0.61034 0.40734 0.65167 0.0
C443 C 0.63007 0.41423 0.67859 0.0
C444 C 0.60008 0.43192 0.63303 0.0
C445 C 0.64122 0.44579 0.68489 0.0
C446 C 0.63115 0.47021 0.66657 0.0
C447 C 0.59667 0.48839 0.62568 0.0
C448 C 0.5735 0.48203 0.60208 0.0
C449 C 0.60983 0.46364 0.64134 0.0
C450 C 0.56564 0.45054 0.59206 0.0
C451 C 0.57888 0.42562 0.6074 0.0
H452 H 0.92781 0.63819 0.18147 0.0
H453 H 0.90939 0.55909 0.24229 0.0
H454 H 0.92562 0.52289 0.20101 0.0
H455 H 0.94911 0.51401 0.14993 0.0
H456 H 0.96821 0.59191 0.08804 0.0
H457 H 0.94716 0.62821 0.12709 0.0
C458 C 0.92719 0.613 0.1855 0.0
C459 C 0.91746 0.60138 0.21498 0.0
C460 C 0.93664 0.59213 0.1615 0.0
C461 C 0.91647 0.56864 0.21976 0.0
C462 C 0.9259 0.5479 0.19622 0.0
C463 C 0.94828 0.53888 0.14474 0.0
C464 C 0.96045 0.55035 0.11634 0.0
C465 C 0.93653 0.55943 0.16731 0.0
C466 C 0.95887 0.58251 0.10973 0.0
C467 C 0.94711 0.60329 0.13219 0.0
H468 H 0.32295 0.0622 0.11771 0.0
H469 H 0.30112 0.1296 0.04653 0.0
H470 H 0.34544 0.1165 0.01666 0.0
H471 H 0.39255 0.08929 1.01272 0.0
H472 H 0.41525 0.02197 0.08327 0.0
H473 H 0.36783 0.03061 0.11057 0.0
C474 C 0.3275 0.07365 0.09538 0.0
C475 C 0.3088 0.0974 0.08485 0.0
C476 C 0.35313 0.06581 0.078 0.0
C477 C 0.31541 0.11195 0.05584 0.0
C478 C 0.34068 0.10427 0.03852 0.0
C479 C 0.38687 0.07603 0.03376 0.0
C480 C 0.40743 0.05488 0.04584 0.0
C481 C 0.36002 0.08176 0.0497 0.0
C482 C 0.39964 0.03789 0.07308 0.0
C483 C 0.3727 0.04323 0.08897 0.0
H484 H 0.18852 0.92177 0.53964 0.0
H485 H 0.19881 0.94575 0.64054 0.0
H486 H 0.15249 0.97398 0.63799 0.0
H487 H 0.10911 0.99176 0.60766 0.0
H488 H 0.09697 0.96708 0.50713 0.0
H489 H 0.14371 0.93876 0.50919 0.0
C490 C 0.1805 0.93294 0.56113 0.0
C491 C 0.19744 0.93181 0.59019 0.0
C492 C 0.15346 0.94892 0.55963 0.0
C493 C 0.18674 0.94674 0.6177 0.0
C494 C 0.16006 0.96271 0.61635 0.0
C495 C 0.11658 0.98023 0.5861 0.0
C496 C 0.09952 0.98169 0.55724 0.0
C497 C 0.14332 0.96401 0.58747 0.0
C498 C 0.10962 0.96639 0.52967 0.0
C499 C 0.13638 0.95021 0.53083 0.0
H500 H 0.81574 0.42979 0.95095 0.0
H501 H 0.85655 0.3512 0.90521 0.0
H502 H 0.90545 0.3673 0.93171 0.0
H503 H 0.93818 0.40791 0.96115 0.0
H504 H 0.89852 0.48766 1.00578 0.0
H505 H 0.84763 0.46663 0.98707 0.0
C506 C 0.83528 0.416 0.94713 0.0
C507 C 0.83253 0.38953 0.92581 0.0
C508 C 0.86359 0.42568 0.96216 0.0
C509 C 0.85791 0.37156 0.92156 0.0
C510 C 0.88599 0.38088 0.93655 0.0
C511 C 0.9183 0.42029 0.96745 0.0
C512 C 0.92212 0.44948 0.98443 0.0
C513 C 0.88931 0.40847 0.95598 0.0
C514 C 0.89618 0.46511 0.99277 0.0
C515 C 0.86711 0.45327 0.98174 0.0
H516 H 0.7002 0.58938 0.45557 0.0
H517 H 0.68846 0.54243 0.36266 0.0
H518 H 0.63764 0.52159 0.37602 0.0
H519 H 0.59618 0.51738 0.41329 0.0
H520 H 0.60666 0.5647 0.50608 0.0
H521 H 0.65816 0.58496 0.49336 0.0
C522 C 0.68645 0.57471 0.43821 0.0
C523 C 0.6983 0.56734 0.40823 0.0
C524 C 0.65697 0.56296 0.44593 0.0
C525 C 0.68023 0.54803 0.38614 0.0
C526 C 0.65102 0.53628 0.39364 0.0
C527 C 0.60965 0.53212 0.43083 0.0
C528 C 0.59745 0.53953 0.46059 0.0
C529 C 0.63915 0.54365 0.42339 0.0
C530 C 0.61541 0.55861 0.48297 0.0
C531 C 0.64488 0.57022 0.47571 0.0
H532 H 0.05837 0.31157 0.07951 0.0
H533 H 0.14727 0.35926 0.06941 0.0
H534 H 0.12373 0.40578 0.04973 0.0
H535 H 0.07769 0.43446 0.03845 0.0
H536 H 0.98896 0.38718 0.0502 0.0
H537 H 0.01254 0.33891 0.06507 0.0
C538 C 0.07266 0.33193 0.07259 0.0
C539 C 0.10464 0.33181 0.07635 0.0
C540 C 0.05894 0.35878 0.06128 0.0
C541 C 0.12262 0.35874 0.0675 0.0
C542 C 0.10917 0.38536 0.05595 0.0
C543 C 0.06353 0.41334 0.0435 0.0
C544 C 0.03157 0.4144 0.04299 0.0
C545 C 0.07732 0.38586 0.0531 0.0
C546 C 0.01359 0.38698 0.05028 0.0
C547 C 0.02708 0.35941 0.05901 0.0
H548 H 0.63818 0.12493 0.89738 0.0
H549 H 0.57343 0.18474 0.85466 0.0
H550 H 0.53194 0.15552 0.88015 0.0
H551 H 0.51545 0.1207 0.92276 0.0
H552 H 0.57988 0.06412 0.96965 0.0
H553 H 0.6199 0.08375 0.93423 0.0
C554 C 0.61494 0.13127 0.89327 0.0
C555 C 0.60918 0.15745 0.87447 0.0
C556 C 0.59108 0.115 0.90902 0.0
C557 C 0.57877 0.16473 0.86878 0.0
C558 C 0.55492 0.1482 0.88368 0.0
C559 C 0.53803 0.11188 0.92439 0.0
C560 C 0.54484 0.09086 0.94847 0.0
C561 C 0.56101 0.12438 0.90498 0.0
C562 C 0.57407 0.07964 0.95068 0.0
C563 C 0.59703 0.0914 0.93083 0.0
H564 H 0.96757 0.80074 0.46762 0.0
H565 H 0.88108 0.82478 0.50413 0.0
H566 H 0.90217 0.87833 0.51758 0.0
H567 H 0.94162 0.92084 0.50866 0.0
H568 H 0.02601 0.89811 0.46708 0.0
H569 H 0.00986 0.8417 0.46665 0.0
C570 C 0.95347 0.81759 0.47891 0.0
C571 C 0.92264 0.80884 0.4843 0.0
C572 C 0.96548 0.84872 0.48573 0.0
C573 C 0.90488 0.83076 0.49967 0.0
C574 C 0.91688 0.86154 0.50722 0.0
C575 C 0.95698 0.90331 0.50104 0.0
C576 C 0.98505 0.91332 0.48833 0.0
C577 C 0.94671 0.87115 0.49908 0.0
C578 C 1.00454 0.8907 0.47754 0.0
C579 C 0.99506 0.85853 0.47678 0.0
H580 H 0.48162 0.73366 0.57888 0.0
H581 H 0.39237 0.69618 0.54501 0.0
H582 H 0.41399 0.64768 0.52593 0.0
H583 H 0.4571 0.61317 0.52596 0.0
H584 H 0.54542 0.65047 0.56255 0.0
H585 H 0.52559 0.70218 0.57225 0.0
C586 C 0.46694 0.71533 0.56652 0.0
C587 C 0.43532 0.71852 0.56377 0.0
C588 C 0.47944 0.68736 0.55605 0.0
C589 C 0.4167 0.69416 0.54804 0.0
C590 C 0.42907 0.66644 0.537 0.0
C591 C 0.47219 0.63295 0.53501 0.0
C592 C 0.50266 0.62806 0.5436 0.0
C593 C 0.46026 0.66233 0.54185 0.0
C594 C 0.52188 0.65372 0.5558 0.0
C595 C 0.51049 0.6832 0.5616 0.0
H596 H 0.91805 0.89769 0.67881 0.0
H597 H 0.89495 0.9814 0.73156 0.0
H598 H 0.91374 0.01443 0.68892 0.0
H599 H 0.94111 0.0203 0.63934 0.0
H600 H 0.9635 0.93767 0.5849 0.0
H601 H 0.93966 0.9035 0.62487 0.0
C602 C 0.91656 0.92309 0.68075 0.0
C603 C 0.90574 0.93694 0.709 0.0
C604 C 0.92725 0.94221 0.65576 0.0
C605 C 0.90403 0.96999 0.71079 0.0
C606 C 0.91457 0.98899 0.68623 0.0
C607 C 0.94029 0.99477 0.63588 0.0
C608 C 0.95433 0.98156 0.60934 0.0
C609 C 0.92694 0.97545 0.65905 0.0
C610 C 0.95279 0.94846 0.60504 0.0
C611 C 0.93941 0.92894 0.6281 0.0
H612 H 0.58181 0.08013 0.22486 0.0
H613 H 0.59859 0.17708 0.19766 0.0
H614 H 0.58069 0.16294 0.14322 0.0
H615 H 0.55783 0.12412 0.10402 0.0
H616 H 0.54071 0.02681 0.12952 0.0
H617 H 0.5614 0.0399 0.18379 0.0
C618 C 0.58159 0.09808 0.20694 0.0
C619 C 0.59159 0.12966 0.21541 0.0
C620 C 0.57119 0.08975 0.1754 0.0
C621 C 0.59144 0.15258 0.19181 0.0
C622 C 0.58101 0.14455 0.16066 0.0
C623 C 0.55873 0.10565 0.12135 0.0
C624 C 0.54744 0.07457 0.11278 0.0
C625 C 0.57053 0.11335 0.1523 0.0
C626 C 0.54926 0.05091 0.13545 0.0
C627 C 0.56093 0.05845 0.16654 0.0
H628 H 0.41496 0.65346 0.39697 0.0
H629 H 0.35454 0.58471 0.344 0.0
H630 H 0.37429 0.54242 0.37476 0.0
H631 H 0.41347 0.52415 0.41117 0.0
H632 H 0.47288 0.59188 0.4659 0.0
H633 H 0.44781 0.63546 0.4411 0.0
C634 C 0.40551 0.62937 0.39265 0.0
C635 C 0.38396 0.62234 0.36728 0.0
C636 C 0.41673 0.60493 0.41084 0.0
C637 C 0.37198 0.59085 0.36237 0.0
C638 C 0.38306 0.56657 0.38018 0.0
C639 C 0.4203 0.54849 0.41834 0.0
C640 C 0.44506 0.55489 0.44006 0.0
C641 C 0.40619 0.57321 0.4036 0.0
C642 C 0.45369 0.58642 0.44937 0.0
C643 C 0.43963 0.61131 0.43483 0.0
H644 H 0.13692 0.45863 0.85421 0.0
H645 H 0.09743 0.52011 0.78635 0.0
H646 H 0.06663 0.54188 0.82786 0.0
H647 H 0.04648 0.53908 0.88137 0.0
H648 H 0.08423 0.47749 0.94994 0.0
H649 H 0.12073 0.46072 0.91063 0.0
C650 C 0.12173 0.47697 0.84868 0.0
C651 C 0.11931 0.48756 0.81715 0.0
C652 C 0.1039 0.48944 0.87281 0.0
C653 C 0.09987 0.51165 0.81039 0.0
C654 C 0.08214 0.52406 0.8341 0.0
C655 C 0.06326 0.52258 0.88796 0.0
C656 C 0.06265 0.5094 0.91835 0.0
C657 C 0.08345 0.51261 0.86512 0.0
C658 C 0.08449 0.48817 0.92675 0.0
C659 C 0.10503 0.47827 0.90412 0.0
H660 H 0.68864 0.97408 0.92366 0.0
H661 H 0.70878 0.90317 0.99175 0.0
H662 H 0.66415 0.9153 0.02161 0.0
H663 H 0.61744 0.94313 0.02654 0.0
H664 H 0.59612 0.0134 0.95859 0.0
H665 H 0.64373 1.00548 0.93146 0.0
C666 C 0.68362 0.96161 0.94532 0.0
C667 C 0.70204 0.93728 0.955 0.0
C668 C 0.65778 0.96885 0.96267 0.0
C669 C 0.69479 0.92137 0.9831 0.0
C670 C 0.66933 0.92849 1.00042 0.0
C671 C 0.62345 0.95718 1.00612 0.0
C672 C 0.60329 0.97915 0.99487 0.0
C673 C 0.65037 0.95174 0.99013 0.0
C674 C 0.61148 0.99702 0.96833 0.0
C675 C 0.63852 0.99204 0.95247 0.0
H676 H 0.82945 0.1232 0.47305 0.0
H677 H 0.78906 0.03893 0.42379 0.0
H678 H 0.83493 0.01163 0.43467 0.0
H679 H 0.88747 0.01247 0.45461 0.0
H680 H 0.92924 0.09541 0.50463 0.0
H681 H 0.88186 0.12243 0.49729 0.0
C682 C 0.83071 0.09881 0.46493 0.0
C683 C 0.80578 0.08314 0.44766 0.0
C684 C 0.8574 0.08308 0.47126 0.0
C685 C 0.80766 0.05144 0.43749 0.0
C686 C 0.83399 0.03584 0.44349 0.0
C687 C 0.88618 0.03643 0.46411 0.0
C688 C 0.91187 0.05211 0.47975 0.0
C689 C 0.8591 0.05156 0.45986 0.0
C690 C 0.90972 0.08289 0.49247 0.0
C691 C 0.88271 0.09835 0.4881 0.0
H692 H 0.19345 0.57439 0.12955 0.0
H693 H 0.16306 0.66767 0.11495 0.0
H694 H 0.12004 0.6449 0.0814 0.0
H695 H 0.0878 0.59774 0.06128 0.0
H696 H 0.11709 0.50475 0.07978 0.0
H697 H 0.16369 0.52804 0.10656 0.0
C698 C 0.17744 0.58979 0.11904 0.0
C699 C 0.18127 0.62266 0.12521 0.0
C700 C 0.15243 0.5765 0.10047 0.0
C701 C 0.16073 0.64229 0.11061 0.0
C702 C 0.13599 0.62925 0.09156 0.0
C703 C 0.10478 0.58269 0.07054 0.0
C704 C 0.09905 0.54959 0.06863 0.0
C705 C 0.13117 0.5963 0.08696 0.0
C706 C 0.12098 0.53029 0.0811 0.0
C707 C 0.14757 0.54358 0.09651 0.0
H708 H 0.32899 0.46139 0.62891 0.0
H709 H 0.31678 0.41667 0.53504 0.0
H710 H 0.36645 0.43997 0.52013 0.0
H711 H 0.41357 0.47275 0.53387 0.0
H712 H 0.42494 0.51834 0.6275 0.0
H713 H 0.37512 0.4955 0.64201 0.0
C714 C 0.33696 0.45705 0.60503 0.0
C715 C 0.31913 0.4372 0.58321 0.0
C716 C 0.36541 0.47076 0.59649 0.0
C717 C 0.33018 0.43144 0.55254 0.0
C718 C 0.35852 0.44493 0.54389 0.0
C719 C 0.40514 0.4778 0.55741 0.0
C720 C 0.42311 0.4972 0.57954 0.0
C721 C 0.37639 0.46454 0.56572 0.0
C722 C 0.4117 0.50349 0.60994 0.0
C723 C 0.38318 0.49039 0.61833 0.0
H724 H 0.88181 0.67478 0.93679 0.0
H725 H 0.95913 0.73618 0.97035 0.0
H726 H 0.98517 0.69041 0.9885 0.0
H727 H 0.98693 0.63204 0.99286 0.0
H728 H 0.90963 0.57161 0.95723 0.0
H729 H 0.88294 0.61758 0.94206 0.0
C730 C 0.90448 0.67823 0.9478 0.0
C731 C 0.91843 0.70905 0.95191 0.0
C732 C 0.91944 0.65178 0.958 0.0
C733 C 0.94761 0.71286 0.96698 0.0
C734 C 0.96263 0.68661 0.9773 0.0
C735 C 0.96411 0.62904 0.98216 0.0
C736 C 0.95041 0.59829 0.97616 0.0
C737 C 0.94885 0.65584 0.97281 0.0
C738 C 0.92088 0.59489 0.96199 0.0
C739 C 0.90553 0.62122 0.95321 0.0
H740 H 0.37346 0.90484 0.14344 0.0
H741 H 0.43798 0.84141 0.18023 0.0
H742 H 0.47911 0.87066 0.15412 0.0
H743 H 0.49514 0.9078 0.11335 0.0
H744 H 0.43116 0.96947 0.0734 0.0
H745 H 0.39164 0.94794 0.10848 0.0
C746 C 0.3966 0.89771 0.14611 0.0
C747 C 0.4024 0.87062 0.16353 0.0
C748 C 0.42027 0.91427 0.13027 0.0
C749 C 0.43268 0.86217 0.16725 0.0
C750 C 0.45629 0.87875 0.15203 0.0
C751 C 0.47279 0.9172 0.11312 0.0
C752 C 0.46595 0.94018 0.091 0.0
C753 C 0.45013 0.90394 0.13247 0.0
C754 C 0.43701 0.95222 0.09072 0.0
C755 C 0.41432 0.93948 0.11039 0.0
H756 H 0.02993 0.23886 0.58273 0.0
H757 H 0.12697 0.22883 0.58217 0.0
H758 H 0.11804 0.17435 0.56238 0.0
H759 H 0.08295 0.12716 0.55463 0.0
H760 H 0.98612 0.13541 0.55782 0.0
H761 H 0.99445 0.19292 0.56648 0.0
C762 C 0.04909 0.22485 0.57783 0.0
C763 C 0.07907 0.2379 0.58431 0.0
C764 C 0.04378 0.19315 0.5669 0.0
C765 C 0.10367 0.21958 0.57729 0.0
C766 C 0.0986 0.18827 0.56614 0.0
C767 C 0.0637 0.14184 0.55579 0.0
C768 C 0.03401 0.12741 0.5552 0.0
C769 C 0.0688 0.17451 0.562 0.0
C770 C 0.00914 0.14628 0.55752 0.0
C771 C 0.01397 0.17904 0.56303 0.0
H772 H 0.54452 0.30225 0.467 0.0
H773 H 0.62837 0.34138 0.5131 0.0
H774 H 0.60435 0.39009 0.52652 0.0
H775 H 0.56158 0.42412 0.51901 0.0
H776 H 0.47895 0.38594 0.46995 0.0
H777 H 0.50028 0.33445 0.46404 0.0
C778 C 0.55753 0.3214 0.48004 0.0
C779 C 0.58833 0.31818 0.48867 0.0
C780 C 0.54377 0.34964 0.48713 0.0
C781 C 0.6046 0.34303 0.50624 0.0
C782 C 0.59093 0.37104 0.51378 0.0
C783 C 0.54791 0.40424 0.50798 0.0
C784 C 0.51871 0.4088 0.49499 0.0
C785 C 0.56075 0.37493 0.50364 0.0
C786 C 0.50149 0.38298 0.48013 0.0
C787 C 0.51375 0.3536 0.47654 0.0
loop_
_geom_bond_atom_site_label_1
_geom_bond_atom_site_label_2
_geom_bond_distance
_geom_bond_site_symmetry_2
_ccdc_geom_bond_type
C0 C1 1.264 . S
C0 C5 1.479 . S
C0 C10 1.465 . S
C1 C0 1.264 . S
C1 C3 1.339 . S
C1 H28 0.931 . S
C2 C3 1.395 . S
C2 C4 1.320 . S
C3 C1 1.339 . S
C3 C2 1.395 . S
C3 H29 0.929 . S
C4 C2 1.320 . S
C4 C5 1.405 . S
C4 H30 0.930 . S
C5 C0 1.479 . S
C5 C4 1.405 . S
C5 H31 0.931 . S
U6 O7 2.454 . S
U6 O8 2.458 . S
U6 C9 2.984 . S
U6 C10 2.847 . S
U6 C23 2.882 . S
U6 O24 2.441 . S
U6 O25 2.420 . S
U6 O26 2.455 . S
U6 O27 2.449 . S
O7 U6 2.454 . S
O7 C9 1.353 . S
O8 U6 2.458 . S
O8 C9 1.286 . S
C9 U6 2.984 . S
C9 O7 1.353 . S
C9 O8 1.286 . S
C9 C11 1.363 . S
C10 C0 1.465 . S
C10 U6 2.847 . S
C10 O24 1.249 . S
C10 O25 1.202 . S
C11 C9 1.363 . S
C11 C13 1.408 . S
C11 C16 1.342 . S
C12 C13 1.310 . S
C12 C15 1.461 . S
C12 H32 0.932 . S
C13 C11 1.408 . S
C13 C12 1.310 . S
C13 H33 0.930 . S
C14 C15 1.474 . S
C14 C16 1.285 . S
C14 H34 0.929 . S
C15 C12 1.461 . S
C15 C14 1.474 . S
C16 C11 1.342 . S
C16 C14 1.285 . S
C16 H35 0.930 . S
C17 C20 1.424 . S
C17 C22 1.245 . S
C17 C23 1.428 . S
C18 C21 1.260 . S
C18 C22 1.477 . S
C18 H36 0.932 . S
C19 C20 1.384 . S
C19 C21 1.479 . S
C19 H37 0.929 . S
C20 C17 1.424 . S
C20 C19 1.384 . S
C20 H38 0.928 . S
C21 C18 1.260 . S
C21 C19 1.479 . S
C22 C17 1.245 . S
C22 C18 1.477 . S
C22 H39 0.932 . S
C23 U6 2.882 . S
C23 C17 1.428 . S
C23 O26 1.301 . S
C23 O27 1.282 . S
O24 U6 2.441 . S
O24 C10 1.249 . S
O25 U6 2.420 . S
O25 C10 1.202 . S
O26 U6 2.455 . S
O26 C23 1.301 . S
O27 U6 2.449 . S
O27 C23 1.282 . S
H28 C1 0.931 . S
H29 C3 0.929 . S
H30 C4 0.930 . S
H31 C5 0.931 . S
H32 C12 0.932 . S
H33 C13 0.930 . S
H34 C14 0.929 . S
H35 C16 0.930 . S
H36 C18 0.932 . S
H37 C19 0.929 . S
H38 C20 0.928 . S
H39 C22 0.932 . S
C40 C41 1.264 . S
C40 C45 1.479 . S
C40 C50 1.465 . S
C41 C40 1.264 . S
C41 C43 1.339 . S
C41 H68 0.931 . S
C42 C43 1.395 . S
C42 C44 1.320 . S
C43 C41 1.339 . S
C43 C42 1.395 . S
C43 H69 0.929 . S
C44 C42 1.320 . S
C44 C45 1.405 . S
C44 H70 0.930 . S
C45 C40 1.479 . S
C45 C44 1.405 . S
C45 H71 0.931 . S
U46 O47 2.454 . S
U46 O48 2.458 . S
U46 C49 2.984 . S
U46 C50 2.847 . S
U46 C63 2.882 . S
U46 O64 2.441 . S
U46 O65 2.420 . S
U46 O66 2.455 . S
U46 O67 2.449 . S
O47 U46 2.454 . S
O47 C49 1.353 . S
O48 U46 2.458 . S
O48 C49 1.286 . S
C49 U46 2.984 . S
C49 O47 1.353 . S
C49 O48 1.286 . S
C49 C51 1.363 . S
C50 C40 1.465 . S
C50 U46 2.847 . S
C50 O64 1.249 . S
C50 O65 1.202 . S
C51 C49 1.363 . S
C51 C53 1.408 . S
C51 C56 1.342 . S
C52 C53 1.310 . S
C52 C55 1.461 . S
C52 H72 0.932 . S
C53 C51 1.408 . S
C53 C52 1.310 . S
C53 H73 0.930 . S
C54 C55 1.474 . S
C54 C56 1.285 . S
C54 H74 0.929 . S
C55 C52 1.461 . S
C55 C54 1.474 . S
C56 C51 1.342 . S
C56 C54 1.285 . S
C56 H75 0.930 . S
C57 C60 1.424 . S
C57 C62 1.245 . S
C57 C63 1.428 . S
C58 C61 1.260 . S
C58 C62 1.477 . S
C58 H76 0.932 . S
C59 C60 1.384 . S
C59 C61 1.479 . S
C59 H77 0.929 . S
C60 C57 1.424 . S
C60 C59 1.384 . S
C60 H78 0.928 . S
C61 C58 1.260 . S
C61 C59 1.479 . S
C62 C57 1.245 . S
C62 C58 1.477 . S
C62 H79 0.932 . S
C63 U46 2.882 . S
C63 C57 1.428 . S
C63 O66 1.301 . S
C63 O67 1.282 . S
O64 U46 2.441 . S
O64 C50 1.249 . S
O65 U46 2.420 . S
O65 C50 1.202 . S
O66 U46 2.455 . S
O66 C63 1.301 . S
O67 U46 2.449 . S
O67 C63 1.282 . S
H68 C41 0.931 . S
H69 C43 0.929 . S
H70 C44 0.930 . S
H71 C45 0.931 . S
H72 C52 0.932 . S
H73 C53 0.930 . S
H74 C54 0.929 . S
H75 C56 0.930 . S
H76 C58 0.932 . S
H77 C59 0.929 . S
H78 C60 0.928 . S
H79 C62 0.932 . S
C80 C81 1.264 . S
C80 C85 1.479 . S
C80 C90 1.465 . S
C81 C80 1.264 . S
C81 C83 1.339 . S
C81 H108 0.931 . S
C82 C83 1.395 . S
C82 C84 1.320 . S
C83 C81 1.339 . S
C83 C82 1.395 . S
C83 H109 0.929 . S
C84 C82 1.320 . S
C84 C85 1.405 . S
C84 H110 0.930 . S
C85 C80 1.479 . S
C85 C84 1.405 . S
C85 H111 0.931 . S
U86 O87 2.454 . S
U86 O88 2.458 . S
U86 C89 2.984 . S
U86 C90 2.847 . S
U86 C103 2.882 . S
U86 O104 2.441 . S
U86 O105 2.420 . S
U86 O106 2.455 . S
U86 O107 2.449 . S
O87 U86 2.454 . S
O87 C89 1.353 . S
O88 U86 2.458 . S
O88 C89 1.286 . S
C89 U86 2.984 . S
C89 O87 1.353 . S
C89 O88 1.286 . S
C89 C91 1.363 . S
C90 C80 1.465 . S
C90 U86 2.847 . S
C90 O104 1.249 . S
C90 O105 1.202 . S
C91 C89 1.363 . S
C91 C93 1.408 . S
C91 C96 1.342 . S
C92 C93 1.310 . S
C92 C95 1.461 . S
C92 H112 0.932 . S
C93 C91 1.408 . S
C93 C92 1.310 . S
C93 H113 0.930 . S
C94 C95 1.474 . S
C94 C96 1.285 . S
C94 H114 0.929 . S
C95 C92 1.461 . S
C95 C94 1.474 . S
C96 C91 1.342 . S
C96 C94 1.285 . S
C96 H115 0.930 . S
C97 C100 1.424 . S
C97 C102 1.245 . S
C97 C103 1.428 . S
C98 C101 1.260 . S
C98 C102 1.477 . S
C98 H116 0.932 . S
C99 C100 1.384 . S
C99 C101 1.479 . S
C99 H117 0.929 . S
C100 C97 1.424 . S
C100 C99 1.384 . S
C100 H118 0.928 . S
C101 C98 1.260 . S
C101 C99 1.479 . S
C102 C97 1.245 . S
C102 C98 1.477 . S
C102 H119 0.932 . S
C103 U86 2.882 . S
C103 C97 1.428 . S
C103 O106 1.301 . S
C103 O107 1.282 . S
O104 U86 2.441 . S
O104 C90 1.249 . S
O105 U86 2.420 . S
O105 C90 1.202 . S
O106 U86 2.455 . S
O106 C103 1.301 . S
O107 U86 2.449 . S
O107 C103 1.282 . S
H108 C81 0.931 . S
H109 C83 0.929 . S
H110 C84 0.930 . S
H111 C85 0.931 . S
H112 C92 0.932 . S
H113 C93 0.930 . S
H114 C94 0.929 . S
H115 C96 0.930 . S
H116 C98 0.932 . S
H117 C99 0.929 . S
H118 C100 0.928 . S
H119 C102 0.932 . S
C120 C121 1.264 . S
C120 C125 1.479 . S
C120 C130 1.465 . S
C121 C120 1.264 . S
C121 C123 1.339 . S
C121 H148 0.931 . S
C122 C123 1.395 . S
C122 C124 1.320 . S
C123 C121 1.339 . S
C123 C122 1.395 . S
C123 H149 0.929 . S
C124 C122 1.320 . S
C124 C125 1.405 . S
C124 H150 0.930 . S
C125 C120 1.479 . S
C125 C124 1.405 . S
C125 H151 0.931 . S
U126 O127 2.454 . S
U126 O128 2.458 . S
U126 C129 2.984 . S
U126 C130 2.847 . S
U126 C143 2.882 . S
U126 O144 2.441 . S
U126 O145 2.420 . S
U126 O146 2.455 . S
U126 O147 2.449 . S
O127 U126 2.454 . S
O127 C129 1.353 . S
O128 U126 2.458 . S
O128 C129 1.286 . S
C129 U126 2.984 . S
C129 O127 1.353 . S
C129 O128 1.286 . S
C129 C131 1.363 . S
C130 C120 1.465 . S
C130 U126 2.847 . S
C130 O144 1.249 . S
C130 O145 1.202 . S
C131 C129 1.363 . S
C131 C133 1.408 . S
C131 C136 1.342 . S
C132 C133 1.310 . S
C132 C135 1.461 . S
C132 H152 0.932 . S
C133 C131 1.408 . S
C133 C132 1.310 . S
C133 H153 0.930 . S
C134 C135 1.474 . S
C134 C136 1.285 . S
C134 H154 0.929 . S
C135 C132 1.461 . S
C135 C134 1.474 . S
C136 C131 1.342 . S
C136 C134 1.285 . S
C136 H155 0.930 . S
C137 C140 1.424 . S
C137 C142 1.245 . S
C137 C143 1.428 . S
C138 C141 1.260 . S
C138 C142 1.477 . S
C138 H156 0.932 . S
C139 C140 1.384 . S
C139 C141 1.479 . S
C139 H157 0.929 . S
C140 C137 1.424 . S
C140 C139 1.384 . S
C140 H158 0.928 . S
C141 C138 1.260 . S
C141 C139 1.479 . S
C142 C137 1.245 . S
C142 C138 1.477 . S
C142 H159 0.932 . S
C143 U126 2.882 . S
C143 C137 1.428 . S
C143 O146 1.301 . S
C143 O147 1.282 . S
O144 U126 2.441 . S
O144 C130 1.249 . S
O145 U126 2.420 . S
O145 C130 1.202 . S
O146 U126 2.455 . S
O146 C143 1.301 . S
O147 U126 2.449 . S
O147 C143 1.282 . S
H148 C121 0.931 . S
H149 C123 0.929 . S
H150 C124 0.930 . S
H151 C125 0.931 . S
H152 C132 0.932 . S
H153 C133 0.930 . S
H154 C134 0.929 . S
H155 C136 0.930 . S
H156 C138 0.932 . S
H157 C139 0.929 . S
H158 C140 0.928 . S
H159 C142 0.932 . S
C160 C161 1.264 . S
C160 C165 1.479 . S
C160 C170 1.465 . S
C161 C160 1.264 . S
C161 C163 1.339 . S
C161 H188 0.931 . S
C162 C163 1.395 . S
C162 C164 1.320 . S
C163 C161 1.339 . S
C163 C162 1.395 . S
C163 H189 0.929 . S
C164 C162 1.320 . S
C164 C165 1.405 . S
C164 H190 0.930 . S
C165 C160 1.479 . S
C165 C164 1.405 . S
C165 H191 0.931 . S
U166 O167 2.454 . S
U166 O168 2.458 . S
U166 C169 2.984 . S
U166 C170 2.847 . S
U166 C183 2.882 . S
U166 O184 2.441 . S
U166 O185 2.420 . S
U166 O186 2.455 . S
U166 O187 2.449 . S
O167 U166 2.454 . S
O167 C169 1.353 . S
O168 U166 2.458 . S
O168 C169 1.286 . S
C169 U166 2.984 . S
C169 O167 1.353 . S
C169 O168 1.286 . S
C169 C171 1.363 . S
C170 C160 1.465 . S
C170 U166 2.847 . S
C170 O184 1.249 . S
C170 O185 1.202 . S
C171 C169 1.363 . S
C171 C173 1.408 . S
C171 C176 1.342 . S
C172 C173 1.310 . S
C172 C175 1.461 . S
C172 H192 0.932 . S
C173 C171 1.408 . S
C173 C172 1.310 . S
C173 H193 0.930 . S
C174 C175 1.474 . S
C174 C176 1.285 . S
C174 H194 0.929 . S
C175 C172 1.461 . S
C175 C174 1.474 . S
C176 C171 1.342 . S
C176 C174 1.285 . S
C176 H195 0.930 . S
C177 C180 1.424 . S
C177 C182 1.245 . S
C177 C183 1.428 . S
C178 C181 1.260 . S
C178 C182 1.477 . S
C178 H196 0.932 . S
C179 C180 1.384 . S
C179 C181 1.479 . S
C179 H197 0.929 . S
C180 C177 1.424 . S
C180 C179 1.384 . S
C180 H198 0.928 . S
C181 C178 1.260 . S
C181 C179 1.479 . S
C182 C177 1.245 . S
C182 C178 1.477 . S
C182 H199 0.932 . S
C183 U166 2.882 . S
C183 C177 1.428 . S
C183 O186 1.301 . S
C183 O187 1.282 . S
O184 U166 2.441 . S
O184 C170 1.249 . S
O185 U166 2.420 . S
O185 C170 1.202 . S
O186 U166 2.455 . S
O186 C183 1.301 . S
O187 U166 2.449 . S
O187 C183 1.282 . S
H188 C161 0.931 . S
H189 C163 0.929 . S
H190 C164 0.930 . S
H191 C165 0.931 . S
H192 C172 0.932 . S
H193 C173 0.930 . S
H194 C174 0.929 . S
H195 C176 0.930 . S
H196 C178 0.932 . S
H197 C179 0.929 . S
H198 C180 0.928 . S
H199 C182 0.932 . S
C200 C201 1.264 . S
C200 C205 1.479 . S
C200 C210 1.465 . S
C201 C200 1.264 . S
C201 C203 1.339 . S
C201 H228 0.931 . S
C202 C203 1.395 . S
C202 C204 1.320 . S
C203 C201 1.339 . S
C203 C202 1.395 . S
C203 H229 0.929 . S
C204 C202 1.320 . S
C204 C205 1.405 . S
C204 H230 0.930 . S
C205 C200 1.479 . S
C205 C204 1.405 . S
C205 H231 0.931 . S
U206 O207 2.454 . S
U206 O208 2.458 . S
U206 C209 2.984 . S
U206 C210 2.847 . S
U206 C223 2.882 . S
U206 O224 2.441 . S
U206 O225 2.420 . S
U206 O226 2.455 . S
U206 O227 2.449 . S
O207 U206 2.454 . S
O207 C209 1.353 . S
O208 U206 2.458 . S
O208 C209 1.286 . S
C209 U206 2.984 . S
C209 O207 1.353 . S
C209 O208 1.286 . S
C209 C211 1.363 . S
C210 C200 1.465 . S
C210 U206 2.847 . S
C210 O224 1.249 . S
C210 O225 1.202 . S
C211 C209 1.363 . S
C211 C213 1.408 . S
C211 C216 1.342 . S
C212 C213 1.310 . S
C212 C215 1.461 . S
C212 H232 0.932 . S
C213 C211 1.408 . S
C213 C212 1.310 . S
C213 H233 0.930 . S
C214 C215 1.474 . S
C214 C216 1.285 . S
C214 H234 0.929 . S
C215 C212 1.461 . S
C215 C214 1.474 . S
C216 C211 1.342 . S
C216 C214 1.285 . S
C216 H235 0.930 . S
C217 C220 1.424 . S
C217 C222 1.245 . S
C217 C223 1.428 . S
C218 C221 1.260 . S
C218 C222 1.477 . S
C218 H236 0.932 . S
C219 C220 1.384 . S
C219 C221 1.479 . S
C219 H237 0.929 . S
C220 C217 1.424 . S
C220 C219 1.384 . S
C220 H238 0.928 . S
C221 C218 1.260 . S
C221 C219 1.479 . S
C222 C217 1.245 . S
C222 C218 1.477 . S
C222 H239 0.932 . S
C223 U206 2.882 . S
C223 C217 1.428 . S
C223 O226 1.301 . S
C223 O227 1.282 . S
O224 U206 2.441 . S
O224 C210 1.249 . S
O225 U206 2.420 . S
O225 C210 1.202 . S
O226 U206 2.455 . S
O226 C223 1.301 . S
O227 U206 2.449 . S
O227 C223 1.282 . S
H228 C201 0.931 . S
H229 C203 0.929 . S
H230 C204 0.930 . S
H231 C205 0.931 . S
H232 C212 0.932 . S
H233 C213 0.930 . S
H234 C214 0.929 . S
H235 C216 0.930 . S
H236 C218 0.932 . S
H237 C219 0.929 . S
H238 C220 0.928 . S
H239 C222 0.932 . S
C240 C241 1.264 . S
C240 C245 1.479 . S
C240 C250 1.465 . S
C241 C240 1.264 . S
C241 C243 1.339 . S
C241 H268 0.931 . S
C242 C243 1.395 . S
C242 C244 1.320 . S
C243 C241 1.339 . S
C243 C242 1.395 . S
C243 H269 0.929 . S
C244 C242 1.320 . S
C244 C245 1.405 . S
C244 H270 0.930 . S
C245 C240 1.479 . S
C245 C244 1.405 . S
C245 H271 0.931 . S
U246 O247 2.454 . S
U246 O248 2.458 . S
U246 C249 2.984 . S
U246 C250 2.847 . S
U246 C263 2.882 . S
U246 O264 2.441 . S
U246 O265 2.420 . S
U246 O266 2.455 . S
U246 O267 2.449 . S
O247 U246 2.454 . S
O247 C249 1.353 . S
O248 U246 2.458 . S
O248 C249 1.286 . S
C249 U246 2.984 . S
C249 O247 1.353 . S
C249 O248 1.286 . S
C249 C251 1.363 . S
C250 C240 1.465 . S
C250 U246 2.847 . S
C250 O264 1.249 . S
C250 O265 1.202 . S
C251 C249 1.363 . S
C251 C253 1.408 . S
C251 C256 1.342 . S
C252 C253 1.310 . S
C252 C255 1.461 . S
C252 H272 0.932 . S
C253 C251 1.408 . S
C253 C252 1.310 . S
C253 H273 0.930 . S
C254 C255 1.474 . S
C254 C256 1.285 . S
C254 H274 0.929 . S
C255 C252 1.461 . S
C255 C254 1.474 . S
C256 C251 1.342 . S
C256 C254 1.285 . S
C256 H275 0.930 . S
C257 C260 1.424 . S
C257 C262 1.245 . S
C257 C263 1.428 . S
C258 C261 1.260 . S
C258 C262 1.477 . S
C258 H276 0.932 . S
C259 C260 1.384 . S
C259 C261 1.479 . S
C259 H277 0.929 . S
C260 C257 1.424 . S
C260 C259 1.384 . S
C260 H278 0.928 . S
C261 C258 1.260 . S
C261 C259 1.479 . S
C262 C257 1.245 . S
C262 C258 1.477 . S
C262 H279 0.932 . S
C263 U246 2.882 . S
C263 C257 1.428 . S
C263 O266 1.301 . S
C263 O267 1.282 . S
O264 U246 2.441 . S
O264 C250 1.249 . S
O265 U246 2.420 . S
O265 C250 1.202 . S
O266 U246 2.455 . S
O266 C263 1.301 . S
O267 U246 2.449 . S
O267 C263 1.282 . S
H268 C241 0.931 . S
H269 C243 0.929 . S
H270 C244 0.930 . S
H271 C245 0.931 . S
H272 C252 0.932 . S
H273 C253 0.930 . S
H274 C254 0.929 . S
H275 C256 0.930 . S
H276 C258 0.932 . S
H277 C259 0.929 . S
H278 C260 0.928 . S
H279 C262 0.932 . S
C280 C281 1.264 . S
C280 C285 1.479 . S
C280 C290 1.465 . S
C281 C280 1.264 . S
C281 C283 1.339 . S
C281 H308 0.931 . S
C282 C283 1.395 . S
C282 C284 1.320 . S
C283 C281 1.339 . S
C283 C282 1.395 . S
C283 H309 0.929 . S
C284 C282 1.320 . S
C284 C285 1.405 . S
C284 H310 0.930 . S
C285 C280 1.479 . S
C285 C284 1.405 . S
C285 H311 0.931 . S
U286 O287 2.454 . S
U286 O288 2.458 . S
U286 C289 2.984 . S
U286 C290 2.847 . S
U286 C303 2.882 . S
U286 O304 2.441 . S
U286 O305 2.420 . S
U286 O306 2.455 . S
U286 O307 2.449 . S
O287 U286 2.454 . S
O287 C289 1.353 . S
O288 U286 2.458 . S
O288 C289 1.286 . S
C289 U286 2.984 . S
C289 O287 1.353 . S
C289 O288 1.286 . S
C289 C291 1.363 . S
C290 C280 1.465 . S
C290 U286 2.847 . S
C290 O304 1.249 . S
C290 O305 1.202 . S
C291 C289 1.363 . S
C291 C293 1.408 . S
C291 C296 1.342 . S
C292 C293 1.310 . S
C292 C295 1.461 . S
C292 H312 0.932 . S
C293 C291 1.408 . S
C293 C292 1.310 . S
C293 H313 0.930 . S
C294 C295 1.474 . S
C294 C296 1.285 . S
C294 H314 0.929 . S
C295 C292 1.461 . S
C295 C294 1.474 . S
C296 C291 1.342 . S
C296 C294 1.285 . S
C296 H315 0.930 . S
C297 C300 1.424 . S
C297 C302 1.245 . S
C297 C303 1.428 . S
C298 C301 1.260 . S
C298 C302 1.477 . S
C298 H316 0.932 . S
C299 C300 1.384 . S
C299 C301 1.479 . S
C299 H317 0.929 . S
C300 C297 1.424 . S
C300 C299 1.384 . S
C300 H318 0.928 . S
C301 C298 1.260 . S
C301 C299 1.479 . S
C302 C297 1.245 . S
C302 C298 1.477 . S
C302 H319 0.932 . S
C303 U286 2.882 . S
C303 C297 1.428 . S
C303 O306 1.301 . S
C303 O307 1.282 . S
O304 U286 2.441 . S
O304 C290 1.249 . S
O305 U286 2.420 . S
O305 C290 1.202 . S
O306 U286 2.455 . S
O306 C303 1.301 . S
O307 U286 2.449 . S
O307 C303 1.282 . S
H308 C281 0.931 . S
H309 C283 0.929 . S
H310 C284 0.930 . S
H311 C285 0.931 . S
H312 C292 0.932 . S
H313 C293 0.930 . S
H314 C294 0.929 . S
H315 C296 0.930 . S
H316 C298 0.932 . S
H317 C299 0.929 . S
H318 C300 0.928 . S
H319 C302 0.932 . S
O320 Mg321 1.990 . S
O320 C334 1.253 1_445 S
Mg321 O320 1.990 . S
Mg321 O324 2.180 . S
Mg321 O325 2.117 . S
Mg321 O339 2.030 1_545 S
O322 Mg323 2.072 1_665 S
O322 C334 1.260 . S
Mg323 O322 2.072 1_445 S
Mg323 O324 2.099 . S
Mg323 O326 2.079 . S
Mg323 O327 2.072 1_455 S
Mg323 O329 2.099 1_445 S
Mg323 O340 2.079 1_545 S
O324 Mg321 2.180 . S
O324 Mg323 2.099 . S
O324 C335 1.279 . S
O325 Mg321 2.117 . S
O325 C335 1.250 . S
O326 Mg323 2.079 . S
O326 C336 1.264 . S
O327 Mg323 2.072 1_655 S
O327 C337 1.260 . S
Mg328 O329 2.180 . S
Mg328 O330 2.030 1_565 S
Mg328 O331 1.990 1_565 S
Mg328 O332 2.117 . S
O329 Mg323 2.099 1_665 S
O329 Mg328 2.180 . S
O329 C338 1.279 . S
O330 Mg328 2.030 1_545 S
O330 C336 1.248 1_655 S
O331 Mg328 1.990 1_545 S
O331 C337 1.253 . S
O332 Mg328 2.117 . S
O332 C338 1.250 . S
C333 O339 1.248 . S
C333 O340 1.264 . S
C334 O320 1.253 1_665 S
C334 O322 1.260 . S
C335 O324 1.279 . S
C335 O325 1.250 . S
C336 O326 1.264 . S
C336 O330 1.248 1_455 S
C337 O327 1.260 . S
C337 O331 1.253 . S
C338 O329 1.279 . S
C338 O332 1.250 . S
O339 Mg321 2.030 1_565 S
O339 C333 1.248 . S
O340 Mg323 2.079 1_565 S
O340 C333 1.264 . S
O341 Mg342 1.990 . S
O341 C355 1.253 . S
Mg342 O341 1.990 . S
Mg342 O345 2.206 . S
Mg342 O346 2.117 1_554 S
Mg342 O360 2.030 . S
O343 Mg344 2.072 . S
O343 C355 1.260 . S
Mg344 O343 2.072 . S
Mg344 O345 2.106 . S
Mg344 O347 2.079 1_554 S
Mg344 O348 2.072 1_554 S
Mg344 O350 2.099 1_545 S
Mg344 O361 2.079 . S
O345 Mg342 2.206 . S
O345 Mg344 2.106 . S
O345 C356 1.254 1_554 S
O346 Mg342 2.117 1_556 S
O346 C356 1.250 . S
O347 Mg344 2.079 1_556 S
O347 C357 1.264 1_545 S
O348 Mg344 2.072 1_556 S
O348 C358 1.260 1_545 S
Mg349 O350 2.180 1_556 S
Mg349 O351 2.030 . S
Mg349 O352 1.990 . S
Mg349 O353 2.117 1_556 S
O350 Mg344 2.099 1_565 S
O350 Mg349 2.180 1_554 S
O350 C359 1.279 . S
O351 Mg349 2.030 . S
O351 C357 1.248 . S
O352 Mg349 1.990 . S
O352 C358 1.253 . S
O353 Mg349 2.117 1_554 S
O353 C359 1.250 . S
C354 O360 1.248 . S
C354 O361 1.264 . S
C355 O341 1.253 . S
C355 O343 1.260 . S
C356 O345 1.254 1_556 S
C356 O346 1.250 . S
C357 O347 1.264 1_565 S
C357 O351 1.248 . S
C358 O348 1.260 1_565 S
C358 O352 1.253 . S
C359 O350 1.279 . S
C359 O353 1.250 . S
O360 Mg342 2.030 . S
O360 C354 1.248 . S
O361 Mg344 2.079 . S
O361 C354 1.264 . S
O362 Mg363 1.990 . S
O362 C376 1.253 . S
Mg363 O362 1.990 . S
Mg363 O366 2.180 . S
Mg363 O367 2.117 . S
Mg363 O381 2.030 . S
O364 Mg365 2.072 . S
O364 C376 1.260 . S
Mg365 O364 2.072 . S
Mg365 O366 2.099 . S
Mg365 O368 2.079 . S
Mg365 O369 2.072 . S
Mg365 O371 2.099 . S
Mg365 O382 2.079 . S
O366 Mg363 2.180 . S
O366 Mg365 2.099 . S
O366 C377 1.279 . S
O367 Mg363 2.117 . S
O367 C377 1.250 . S
O368 Mg365 2.079 . S
O368 C378 1.264 . S
O369 Mg365 2.072 . S
O369 C379 1.260 . S
Mg370 O371 2.180 . S
Mg370 O372 2.030 . S
Mg370 O373 1.990 . S
Mg370 O374 2.117 . S
O371 Mg365 2.099 . S
O371 Mg370 2.180 . S
O371 C380 1.279 . S
O372 Mg370 2.030 . S
O372 C378 1.248 . S
O373 Mg370 1.990 . S
O373 C379 1.253 . S
O374 Mg370 2.117 . S
O374 C380 1.250 . S
C375 O381 1.248 . S
C375 O382 1.264 . S
C376 O362 1.253 . S
C376 O364 1.260 . S
C377 O366 1.279 . S
C377 O367 1.250 . S
C378 O368 1.264 . S
C378 O372 1.248 . S
C379 O369 1.260 . S
C379 O373 1.253 . S
C380 O371 1.279 . S
C380 O374 1.250 . S
O381 Mg363 2.030 . S
O381 C375 1.248 . S
O382 Mg365 2.079 . S
O382 C375 1.264 . S
O383 Mg384 1.990 . S
O383 C397 1.253 . S
Mg384 O383 1.990 . S
Mg384 O387 2.180 1_455 S
Mg384 O388 2.117 1_455 S
Mg384 O402 2.030 . S
O385 Mg386 2.072 . S
O385 C397 1.260 . S
Mg386 O385 2.072 . S
Mg386 O387 2.099 1_455 S
Mg386 O389 2.079 1_454 S
Mg386 O390 2.072 1_455 S
Mg386 O392 2.099 1_554 S
Mg386 O403 2.079 . S
O387 Mg384 2.180 1_655 S
O387 Mg386 2.099 1_655 S
O387 C398 1.279 . S
O388 Mg384 2.117 1_655 S
O388 C398 1.250 . S
O389 Mg386 2.079 1_656 S
O389 C399 1.264 . S
O390 Mg386 2.072 1_655 S
O390 C400 1.260 1_554 S
Mg391 O392 2.180 1_655 S
Mg391 O393 2.030 . S
Mg391 O394 1.990 . S
Mg391 O395 2.117 . S
O392 Mg386 2.099 1_556 S
O392 Mg391 2.180 1_455 S
O392 C401 1.279 . S
O393 Mg391 2.030 . S
O393 C399 1.248 . S
O394 Mg391 1.990 . S
O394 C400 1.253 . S
O395 Mg391 2.117 . S
O395 C401 1.250 1_655 S
C396 O402 1.248 . S
C396 O403 1.264 . S
C397 O383 1.253 . S
C397 O385 1.260 . S
C398 O387 1.279 . S
C398 O388 1.250 . S
C399 O389 1.264 . S
C399 O393 1.248 . S
C400 O390 1.260 1_556 S
C400 O394 1.253 . S
C401 O392 1.279 . S
C401 O395 1.250 1_455 S
O402 Mg384 2.030 . S
O402 C396 1.248 . S
O403 Mg386 2.079 . S
O403 C396 1.264 . S
H404 C410 0.930 . S
H405 C413 0.930 . S
H406 C414 0.930 . S
H407 C415 0.930 . S
H408 C418 0.930 . S
H409 C419 0.930 . S
C410 H404 0.930 . S
C410 C411 1.355 . S
C410 C412 1.415 . S
C411 C410 1.355 . S
C411 C413 1.419 . S
C412 C410 1.415 . S
C412 C417 1.425 . S
C412 C419 1.409 . S
C413 H405 0.930 . S
C413 C411 1.419 . S
C413 C414 1.362 . S
C414 H406 0.930 . S
C414 C413 1.362 . S
C414 C417 1.409 . S
C415 H407 0.930 . S
C415 C416 1.355 . S
C415 C417 1.415 . S
C416 C415 1.355 . S
C416 C418 1.419 . S
C417 C412 1.425 . S
C417 C414 1.409 . S
C417 C415 1.415 . S
C418 H408 0.930 . S
C418 C416 1.419 . S
C418 C419 1.362 . S
C419 H409 0.930 . S
C419 C412 1.409 . S
C419 C418 1.362 . S
H420 C426 0.930 . S
H421 C429 0.930 . S
H422 C430 0.930 . S
H423 C431 0.930 . S
H424 C434 0.930 . S
H425 C435 0.930 . S
C426 H420 0.930 . S
C426 C427 1.355 . S
C426 C428 1.415 . S
C427 C426 1.355 . S
C427 C429 1.419 . S
C428 C426 1.415 . S
C428 C433 1.425 . S
C428 C435 1.409 1_565 S
C429 H421 0.930 . S
C429 C427 1.419 . S
C429 C430 1.362 . S
C430 H422 0.930 . S
C430 C429 1.362 . S
C430 C433 1.409 . S
C431 H423 0.930 . S
C431 C432 1.355 . S
C431 C433 1.415 . S
C432 C431 1.355 . S
C432 C434 1.419 1_565 S
C433 C428 1.425 . S
C433 C430 1.409 . S
C433 C431 1.415 . S
C434 H424 0.930 . S
C434 C432 1.419 1_545 S
C434 C435 1.362 . S
C435 H425 0.930 . S
C435 C428 1.409 1_545 S
C435 C434 1.362 . S
H436 C442 0.930 . S
H437 C445 0.930 . S
H438 C446 0.930 . S
H439 C447 0.930 . S
H440 C450 0.930 . S
H441 C451 0.930 . S
C442 H436 0.930 . S
C442 C443 1.355 . S
C442 C444 1.415 . S
C443 C442 1.355 . S
C443 C445 1.419 . S
C444 C442 1.415 . S
C444 C449 1.425 . S
C444 C451 1.409 . S
C445 H437 0.930 . S
C445 C443 1.419 . S
C445 C446 1.362 . S
C446 H438 0.930 . S
C446 C445 1.362 . S
C446 C449 1.409 . S
C447 H439 0.930 . S
C447 C448 1.355 . S
C447 C449 1.415 . S
C448 C447 1.355 . S
C448 C450 1.419 . S
C449 C444 1.425 . S
C449 C446 1.409 . S
C449 C447 1.415 . S
C450 H440 0.930 . S
C450 C448 1.419 . S
C450 C451 1.362 . S
C451 H441 0.930 . S
C451 C444 1.409 . S
C451 C450 1.362 . S
H452 C458 0.930 . S
H453 C461 0.930 . S
H454 C462 0.930 . S
H455 C463 0.930 . S
H456 C466 0.930 . S
H457 C467 0.930 . S
C458 H452 0.930 . S
C458 C459 1.355 . S
C458 C460 1.415 . S
C459 C458 1.355 . S
C459 C461 1.419 . S
C460 C458 1.415 . S
C460 C465 1.425 . S
C460 C467 1.409 . S
C461 H453 0.930 . S
C461 C459 1.419 . S
C461 C462 1.362 . S
C462 H454 0.930 . S
C462 C461 1.362 . S
C462 C465 1.409 . S
C463 H455 0.930 . S
C463 C464 1.355 . S
C463 C465 1.415 . S
C464 C463 1.355 . S
C464 C466 1.419 . S
C465 C460 1.425 . S
C465 C462 1.409 . S
C465 C463 1.415 . S
C466 H456 0.930 . S
C466 C464 1.419 . S
C466 C467 1.362 . S
C467 H457 0.930 . S
C467 C460 1.409 . S
C467 C466 1.362 . S
H468 C474 0.930 . S
H469 C477 0.930 . S
H470 C478 0.930 1_556 S
H471 C479 0.930 . S
H472 C482 0.930 . S
H473 C483 0.930 . S
C474 H468 0.930 . S
C474 C475 1.355 . S
C474 C476 1.415 . S
C475 C474 1.355 . S
C475 C477 1.419 . S
C476 C474 1.415 . S
C476 C481 1.425 . S
C476 C483 1.409 . S
C477 H469 0.930 . S
C477 C475 1.419 . S
C477 C478 1.362 . S
C478 H470 0.930 1_554 S
C478 C477 1.362 . S
C478 C481 1.409 . S
C479 H471 0.930 . S
C479 C480 1.355 . S
C479 C481 1.415 . S
C480 C479 1.355 . S
C480 C482 1.419 . S
C481 C476 1.425 . S
C481 C478 1.409 . S
C481 C479 1.415 . S
C482 H472 0.930 . S
C482 C480 1.419 . S
C482 C483 1.362 . S
C483 H473 0.930 . S
C483 C476 1.409 . S
C483 C482 1.362 . S
H484 C490 0.930 . S
H485 C493 0.930 . S
H486 C494 0.930 . S
H487 C495 0.930 . S
H488 C498 0.930 . S
H489 C499 0.930 . S
C490 H484 0.930 . S
C490 C491 1.355 . S
C490 C492 1.415 . S
C491 C490 1.355 . S
C491 C493 1.419 . S
C492 C490 1.415 . S
C492 C497 1.425 . S
C492 C499 1.409 . S
C493 H485 0.930 . S
C493 C491 1.419 . S
C493 C494 1.362 . S
C494 H486 0.930 . S
C494 C493 1.362 . S
C494 C497 1.409 . S
C495 H487 0.930 . S
C495 C496 1.355 . S
C495 C497 1.415 . S
C496 C495 1.355 . S
C496 C498 1.419 . S
C497 C492 1.425 . S
C497 C494 1.409 . S
C497 C495 1.415 . S
C498 H488 0.930 . S
C498 C496 1.419 . S
C498 C499 1.362 . S
C499 H489 0.930 . S
C499 C492 1.409 . S
C499 C498 1.362 . S
H500 C506 0.930 . S
H501 C509 0.930 . S
H502 C510 0.930 . S
H503 C511 0.912 1_554 S
H504 C514 0.930 . S
H505 C515 0.930 . S
C506 H500 0.930 . S
C506 C507 1.355 . S
C506 C508 1.415 . S
C507 C506 1.355 . S
C507 C509 1.419 . S
C508 C506 1.415 . S
C508 C513 1.425 . S
C508 C515 1.409 . S
C509 H501 0.930 . S
C509 C507 1.419 . S
C509 C510 1.362 . S
C510 H502 0.930 . S
C510 C509 1.362 . S
C510 C513 1.409 . S
C511 H503 0.912 1_556 S
C511 C512 1.355 . S
C511 C513 1.415 . S
C512 C511 1.355 . S
C512 C514 1.419 . S
C513 C508 1.425 . S
C513 C510 1.409 . S
C513 C511 1.415 . S
C514 H504 0.930 . S
C514 C512 1.419 . S
C514 C515 1.362 . S
C515 H505 0.930 . S
C515 C508 1.409 . S
C515 C514 1.362 . S
H516 C522 0.930 . S
H517 C525 0.930 . S
H518 C526 0.930 . S
H519 C527 0.930 . S
H520 C530 0.930 . S
H521 C531 0.930 . S
C522 H516 0.930 . S
C522 C523 1.355 . S
C522 C524 1.415 . S
C523 C522 1.355 . S
C523 C525 1.419 . S
C524 C522 1.415 . S
C524 C529 1.425 . S
C524 C531 1.409 . S
C525 H517 0.930 . S
C525 C523 1.419 . S
C525 C526 1.362 . S
C526 H518 0.930 . S
C526 C525 1.362 . S
C526 C529 1.409 . S
C527 H519 0.930 . S
C527 C528 1.355 . S
C527 C529 1.415 . S
C528 C527 1.355 . S
C528 C530 1.419 . S
C529 C524 1.425 . S
C529 C526 1.409 . S
C529 C527 1.415 . S
C530 H520 0.930 . S
C530 C528 1.419 . S
C530 C531 1.362 . S
C531 H521 0.930 . S
C531 C524 1.409 . S
C531 C530 1.362 . S
H532 C538 0.930 . S
H533 C541 0.930 . S
H534 C542 0.930 1_556 S
H535 C543 0.930 . S
H536 C546 0.930 . S
H537 C547 0.930 . S
C538 H532 0.930 . S
C538 C539 1.355 . S
C538 C540 1.415 . S
C539 C538 1.355 . S
C539 C541 1.419 . S
C540 C538 1.415 . S
C540 C545 1.425 . S
C540 C547 1.409 . S
C541 H533 0.930 . S
C541 C539 1.419 . S
C541 C542 1.362 . S
C542 H534 0.930 1_554 S
C542 C541 1.362 . S
C542 C545 1.409 . S
C543 H535 0.930 . S
C543 C544 1.355 . S
C543 C545 1.415 . S
C544 C543 1.355 . S
C544 C546 1.419 . S
C545 C540 1.425 . S
C545 C542 1.409 . S
C545 C543 1.415 . S
C546 H536 0.930 . S
C546 C544 1.419 . S
C546 C547 1.362 . S
C547 H537 0.930 . S
C547 C540 1.409 . S
C547 C546 1.362 . S
H548 C554 0.930 . S
H549 C557 0.930 . S
H550 C558 0.930 . S
H551 C559 0.930 . S
H552 C562 0.930 . S
H553 C563 0.930 . S
C554 H548 0.930 . S
C554 C555 1.355 . S
C554 C556 1.415 . S
C555 C554 1.355 . S
C555 C557 1.419 . S
C556 C554 1.415 . S
C556 C561 1.425 . S
C556 C563 1.409 . S
C557 H549 0.930 . S
C557 C555 1.419 . S
C557 C558 1.362 . S
C558 H550 0.930 . S
C558 C557 1.362 . S
C558 C561 1.409 . S
C559 H551 0.930 . S
C559 C560 1.355 . S
C559 C561 1.415 . S
C560 C559 1.355 . S
C560 C562 1.419 . S
C561 C556 1.425 . S
C561 C558 1.409 . S
C561 C559 1.415 . S
C562 H552 0.930 . S
C562 C560 1.419 . S
C562 C563 1.362 . S
C563 H553 0.930 . S
C563 C556 1.409 . S
C563 C562 1.362 . S
H564 C570 0.930 . S
H565 C573 0.930 . S
H566 C574 0.930 . S
H567 C575 0.930 . S
H568 C578 0.947 . S
H569 C579 0.938 . S
C570 H564 0.930 . S
C570 C571 1.355 . S
C570 C572 1.415 . S
C571 C570 1.355 . S
C571 C573 1.419 . S
C572 C570 1.415 . S
C572 C577 1.425 . S
C572 C579 1.402 1_655 S
C573 H565 0.930 . S
C573 C571 1.419 . S
C573 C574 1.362 . S
C574 H566 0.930 . S
C574 C573 1.362 . S
C574 C577 1.409 . S
C575 H567 0.930 . S
C575 C576 1.355 . S
C575 C577 1.415 . S
C576 C575 1.355 . S
C576 C578 1.400 1_655 S
C577 C572 1.425 . S
C577 C574 1.409 . S
C577 C575 1.415 . S
C578 H568 0.947 . S
C578 C576 1.400 1_455 S
C578 C579 1.363 . S
C579 H569 0.938 . S
C579 C572 1.402 1_455 S
C579 C578 1.363 . S
H580 C586 0.930 . S
H581 C589 0.930 . S
H582 C590 0.930 . S
H583 C591 0.930 . S
H584 C594 0.930 . S
H585 C595 0.930 . S
C586 H580 0.930 . S
C586 C587 1.355 . S
C586 C588 1.415 . S
C587 C586 1.355 . S
C587 C589 1.419 . S
C588 C586 1.415 . S
C588 C593 1.425 . S
C588 C595 1.409 . S
C589 H581 0.930 . S
C589 C587 1.419 . S
C589 C590 1.362 . S
C590 H582 0.930 . S
C590 C589 1.362 . S
C590 C593 1.409 . S
C591 H583 0.930 . S
C591 C592 1.355 . S
C591 C593 1.415 . S
C592 C591 1.355 . S
C592 C594 1.419 . S
C593 C588 1.425 . S
C593 C590 1.409 . S
C593 C591 1.415 . S
C594 H584 0.930 . S
C594 C592 1.419 . S
C594 C595 1.362 . S
C595 H585 0.930 . S
C595 C588 1.409 . S
C595 C594 1.362 . S
H596 C602 0.930 . S
H597 C605 0.930 . S
H598 C606 0.930 . S
H599 C607 0.930 . S
H600 C610 0.930 . S
H601 C611 0.930 . S
C602 H596 0.930 . S
C602 C603 1.355 . S
C602 C604 1.415 . S
C603 C602 1.355 . S
C603 C605 1.419 . S
C604 C602 1.415 . S
C604 C609 1.425 . S
C604 C611 1.409 1_655 S
C605 H597 0.930 . S
C605 C603 1.419 . S
C605 C606 1.362 . S
C606 H598 0.930 . S
C606 C605 1.362 . S
C606 C609 1.409 . S
C607 H599 0.930 . S
C607 C608 1.355 . S
C607 C609 1.415 . S
C608 C607 1.355 . S
C608 C610 1.419 1_655 S
C609 C604 1.425 . S
C609 C606 1.409 . S
C609 C607 1.415 . S
C610 H600 0.930 . S
C610 C608 1.419 1_455 S
C610 C611 1.362 . S
C611 H601 0.930 . S
C611 C604 1.409 1_455 S
C611 C610 1.362 . S
H612 C618 0.930 . S
H613 C621 0.930 . S
H614 C622 0.930 . S
H615 C623 0.930 . S
H616 C626 0.930 . S
H617 C627 0.930 . S
C618 H612 0.930 . S
C618 C619 1.355 . S
C618 C620 1.415 . S
C619 C618 1.355 . S
C619 C621 1.419 . S
C620 C618 1.415 . S
C620 C625 1.425 . S
C620 C627 1.409 . S
C621 H613 0.930 . S
C621 C619 1.419 . S
C621 C622 1.362 . S
C622 H614 0.930 . S
C622 C621 1.362 . S
C622 C625 1.409 . S
C623 H615 0.930 . S
C623 C624 1.355 . S
C623 C625 1.415 . S
C624 C623 1.355 . S
C624 C626 1.419 . S
C625 C620 1.425 . S
C625 C622 1.409 . S
C625 C623 1.415 . S
C626 H616 0.930 . S
C626 C624 1.419 . S
C626 C627 1.362 . S
C627 H617 0.930 . S
C627 C620 1.409 . S
C627 C626 1.362 . S
H628 C634 0.930 . S
H629 C637 0.930 . S
H630 C638 0.930 . S
H631 C639 0.930 . S
H632 C642 0.930 . S
H633 C643 0.930 . S
C634 H628 0.930 . S
C634 C635 1.355 . S
C634 C636 1.415 . S
C635 C634 1.355 . S
C635 C637 1.419 . S
C636 C634 1.415 . S
C636 C641 1.425 . S
C636 C643 1.409 . S
C637 H629 0.930 . S
C637 C635 1.419 . S
C637 C638 1.362 . S
C638 H630 0.930 . S
C638 C637 1.362 . S
C638 C641 1.409 . S
C639 H631 0.930 . S
C639 C640 1.355 . S
C639 C641 1.415 . S
C640 C639 1.355 . S
C640 C642 1.419 . S
C641 C636 1.425 . S
C641 C638 1.409 . S
C641 C639 1.415 . S
C642 H632 0.930 . S
C642 C640 1.419 . S
C642 C643 1.362 . S
C643 H633 0.930 . S
C643 C636 1.409 . S
C643 C642 1.362 . S
H644 C650 0.930 . S
H645 C653 0.930 . S
H646 C654 0.930 . S
H647 C655 0.930 . S
H648 C658 0.930 . S
H649 C659 0.930 . S
C650 H644 0.930 . S
C650 C651 1.355 . S
C650 C652 1.415 . S
C651 C650 1.355 . S
C651 C653 1.419 . S
C652 C650 1.415 . S
C652 C657 1.425 . S
C652 C659 1.409 . S
C653 H645 0.930 . S
C653 C651 1.419 . S
C653 C654 1.362 . S
C654 H646 0.930 . S
C654 C653 1.362 . S
C654 C657 1.409 . S
C655 H647 0.930 . S
C655 C656 1.355 . S
C655 C657 1.415 . S
C656 C655 1.355 . S
C656 C658 1.419 . S
C657 C652 1.425 . S
C657 C654 1.409 . S
C657 C655 1.415 . S
C658 H648 0.930 . S
C658 C656 1.419 . S
C658 C659 1.362 . S
C659 H649 0.930 . S
C659 C652 1.409 . S
C659 C658 1.362 . S
H660 C666 0.930 . S
H661 C669 0.930 . S
H662 C670 0.930 1_545 S
H663 C671 0.930 1_545 S
H664 C674 0.930 . S
H665 C675 0.930 . S
C666 H660 0.930 . S
C666 C667 1.355 . S
C666 C668 1.415 . S
C667 C666 1.355 . S
C667 C669 1.419 . S
C668 C666 1.415 . S
C668 C673 1.425 . S
C668 C675 1.409 . S
C669 H661 0.930 . S
C669 C667 1.419 . S
C669 C670 1.362 . S
C670 H662 0.930 1_565 S
C670 C669 1.362 . S
C670 C673 1.409 . S
C671 H663 0.930 1_565 S
C671 C672 1.355 . S
C671 C673 1.415 . S
C672 C671 1.355 . S
C672 C674 1.419 . S
C673 C668 1.425 . S
C673 C670 1.409 . S
C673 C671 1.415 . S
C674 H664 0.930 . S
C674 C672 1.419 . S
C674 C675 1.362 . S
C675 H665 0.930 . S
C675 C668 1.409 . S
C675 C674 1.362 . S
H676 C682 0.930 . S
H677 C685 0.930 . S
H678 C686 0.930 . S
H679 C687 0.930 . S
H680 C690 0.930 . S
H681 C691 0.930 . S
C682 H676 0.930 . S
C682 C683 1.355 . S
C682 C684 1.415 . S
C683 C682 1.355 . S
C683 C685 1.419 . S
C684 C682 1.415 . S
C684 C689 1.425 . S
C684 C691 1.409 . S
C685 H677 0.930 . S
C685 C683 1.419 . S
C685 C686 1.362 . S
C686 H678 0.930 . S
C686 C685 1.362 . S
C686 C689 1.409 . S
C687 H679 0.930 . S
C687 C688 1.355 . S
C687 C689 1.415 . S
C688 C687 1.355 . S
C688 C690 1.419 . S
C689 C684 1.425 . S
C689 C686 1.409 . S
C689 C687 1.415 . S
C690 H680 0.930 . S
C690 C688 1.419 . S
C690 C691 1.362 . S
C691 H681 0.930 . S
C691 C684 1.409 . S
C691 C690 1.362 . S
H692 C698 0.930 . S
H693 C701 0.930 . S
H694 C702 0.930 . S
H695 C703 0.930 . S
H696 C706 0.930 1_556 S
H697 C707 0.930 1_556 S
C698 H692 0.930 . S
C698 C699 1.355 . S
C698 C700 1.415 . S
C699 C698 1.355 . S
C699 C701 1.419 . S
C700 C698 1.415 . S
C700 C705 1.425 . S
C700 C707 1.409 . S
C701 H693 0.930 . S
C701 C699 1.419 . S
C701 C702 1.362 . S
C702 H694 0.930 . S
C702 C701 1.362 . S
C702 C705 1.409 . S
C703 H695 0.930 . S
C703 C704 1.355 . S
C703 C705 1.415 . S
C704 C703 1.355 . S
C704 C706 1.419 . S
C705 C700 1.425 . S
C705 C702 1.409 . S
C705 C703 1.415 . S
C706 H696 0.930 1_554 S
C706 C704 1.419 . S
C706 C707 1.362 . S
C707 H697 0.930 1_554 S
C707 C700 1.409 . S
C707 C706 1.362 . S
H708 C714 0.930 . S
H709 C717 0.930 . S
H710 C718 0.930 . S
H711 C719 0.930 . S
H712 C722 0.930 . S
H713 C723 0.930 . S
C714 H708 0.930 . S
C714 C715 1.355 . S
C714 C716 1.415 . S
C715 C714 1.355 . S
C715 C717 1.419 . S
C716 C714 1.415 . S
C716 C721 1.425 . S
C716 C723 1.409 . S
C717 H709 0.930 . S
C717 C715 1.419 . S
C717 C718 1.362 . S
C718 H710 0.930 . S
C718 C717 1.362 . S
C718 C721 1.409 . S
C719 H711 0.930 . S
C719 C720 1.355 . S
C719 C721 1.415 . S
C720 C719 1.355 . S
C720 C722 1.419 . S
C721 C716 1.425 . S
C721 C718 1.409 . S
C721 C719 1.415 . S
C722 H712 0.930 . S
C722 C720 1.419 . S
C722 C723 1.362 . S
C723 H713 0.930 . S
C723 C716 1.409 . S
C723 C722 1.362 . S
H724 C730 0.930 . S
H725 C733 0.930 . S
H726 C734 0.930 1_554 S
H727 C735 0.930 1_554 S
H728 C738 0.930 . S
H729 C739 0.930 . S
C730 H724 0.930 . S
C730 C731 1.355 . S
C730 C732 1.415 . S
C731 C730 1.355 . S
C731 C733 1.419 . S
C732 C730 1.415 . S
C732 C737 1.425 . S
C732 C739 1.409 . S
C733 H725 0.930 . S
C733 C731 1.419 . S
C733 C734 1.362 . S
C734 H726 0.930 1_556 S
C734 C733 1.362 . S
C734 C737 1.409 . S
C735 H727 0.930 1_556 S
C735 C736 1.355 . S
C735 C737 1.415 . S
C736 C735 1.355 . S
C736 C738 1.419 . S
C737 C732 1.425 . S
C737 C734 1.409 . S
C737 C735 1.415 . S
C738 H728 0.930 . S
C738 C736 1.419 . S
C738 C739 1.362 . S
C739 H729 0.930 . S
C739 C732 1.409 . S
C739 C738 1.362 . S
H740 C746 0.930 . S
H741 C749 0.930 . S
H742 C750 0.930 . S
H743 C751 0.930 . S
H744 C754 0.930 . S
H745 C755 0.930 . S
C746 H740 0.930 . S
C746 C747 1.355 . S
C746 C748 1.415 . S
C747 C746 1.355 . S
C747 C749 1.419 . S
C748 C746 1.415 . S
C748 C753 1.425 . S
C748 C755 1.409 . S
C749 H741 0.930 . S
C749 C747 1.419 . S
C749 C750 1.362 . S
C750 H742 0.930 . S
C750 C749 1.362 . S
C750 C753 1.409 . S
C751 H743 0.930 . S
C751 C752 1.355 . S
C751 C753 1.415 . S
C752 C751 1.355 . S
C752 C754 1.419 . S
C753 C748 1.425 . S
C753 C750 1.409 . S
C753 C751 1.415 . S
C754 H744 0.930 . S
C754 C752 1.419 . S
C754 C755 1.362 . S
C755 H745 0.930 . S
C755 C748 1.409 . S
C755 C754 1.362 . S
H756 C762 0.930 . S
H757 C765 0.930 . S
H758 C766 0.930 . S
H759 C767 0.930 . S
H760 C770 0.932 . S
H761 C771 0.930 1_655 S
C762 H756 0.930 . S
C762 C763 1.355 . S
C762 C764 1.415 . S
C763 C762 1.355 . S
C763 C765 1.419 . S
C764 C762 1.415 . S
C764 C769 1.425 . S
C764 C771 1.409 . S
C765 H757 0.930 . S
C765 C763 1.419 . S
C765 C766 1.362 . S
C766 H758 0.930 . S
C766 C765 1.362 . S
C766 C769 1.409 . S
C767 H759 0.930 . S
C767 C768 1.355 . S
C767 C769 1.415 . S
C768 C767 1.355 . S
C768 C770 1.417 1_455 S
C769 C764 1.425 . S
C769 C766 1.409 . S
C769 C767 1.415 . S
C770 H760 0.932 . S
C770 C768 1.417 1_655 S
C770 C771 1.362 1_655 S
C771 H761 0.930 1_455 S
C771 C764 1.409 . S
C771 C770 1.362 1_455 S
H772 C778 0.930 . S
H773 C781 0.930 . S
H774 C782 0.930 . S
H775 C783 0.930 . S
H776 C786 0.930 . S
H777 C787 0.930 . S
C778 H772 0.930 . S
C778 C779 1.355 . S
C778 C780 1.415 . S
C779 C778 1.355 . S
C779 C781 1.419 . S
C780 C778 1.415 . S
C780 C785 1.425 . S
C780 C787 1.409 . S
C781 H773 0.930 . S
C781 C779 1.419 . S
C781 C782 1.362 . S
C782 H774 0.930 . S
C782 C781 1.362 . S
C782 C785 1.409 . S
C783 H775 0.930 . S
C783 C784 1.355 . S
C783 C785 1.415 . S
C784 C783 1.355 . S
C784 C786 1.419 . S
C785 C780 1.425 . S
C785 C782 1.409 . S
C785 C783 1.415 . S
C786 H776 0.930 . S
C786 C784 1.419 . S
C786 C787 1.362 . S
C787 H777 0.930 . S
C787 C780 1.409 . S
C787 C786 1.362 . S
C411 C21 1.651 . S
C416 C336 1.599 . S
C427 C61 1.508 . S
C432 C358 1.515 . S
C448 C377 1.245 . S
C443 C82 1.446 . S
C459 C135 1.873 . S
C464 C398 1.484 . S
C480 C355 1.789 . S
C475 C15 1.842 . S
C496 C333 1.745 . S
C491 C42 1.711 . S
C512 C400 1.310 . S
C507 C101 1.389 . S
C528 C379 1.526 . S
C523 C122 1.531 . S
C539 C2 1.790 . S
C544 C397 1.718 . S
C560 C356 1.230 . S
C555 C95 1.588 . S
C571 C141 1.772 . S
C576 C338 1.614 . S
C587 C55 1.569 . S
C592 C376 1.534 . S
C608 C334 1.583 . S
C603 C181 1.621 . S
C619 C202 1.334 . S
C624 C354 1.335 . S
C635 C255 1.481 . S
C640 C380 1.165 . S
C651 C295 1.810 . S
C656 C401 1.461 . S
C667 C175 1.760 . S
C672 C357 1.710 . S
C688 C337 1.777 . S
C683 C221 1.767 . S
C704 C396 1.210 . S
C699 C242 1.160 . S
C720 C375 1.583 . S
C715 C301 1.670 . S
C731 C162 1.540 . S
C736 C399 1.517 . S
C752 C359 1.308 . S
C747 C261 1.513 . S
C768 C335 1.432 . S
C763 C282 1.569 . S
C779 C215 1.520 . S
C784 C378 1.529 . S
