# Generated by pormake.
# Topology gar, (4,6)-cn, num edge types: 1
# Building blocks:
#     Node 0, Type 0, BuildingBlock: QUQFOY_clean_sbu_3, # of connection points: 4
#     Node 1, Type 0, BuildingBlock: QUQFOY_clean_sbu_3, # of connection points: 4
#     Node 2, Type 0, BuildingBlock: QUQFOY_clean_sbu_3, # of connection points: 4
#     Node 3, Type 0, BuildingBlock: QUQFOY_clean_sbu_3, # of connection points: 4
#     Node 4, Type 0, BuildingBlock: QUQFOY_clean_sbu_3, # of connection points: 4
#     Node 5, Type 0, BuildingBlock: QUQFOY_clean_sbu_3, # of connection points: 4
#     Node 6, Type 0, BuildingBlock: QUQFOY_clean_sbu_3, # of connection points: 4
#     Node 7, Type 0, BuildingBlock: QUQFOY_clean_sbu_3, # of connection points: 4
#     Node 8, Type 0, BuildingBlock: QUQFOY_clean_sbu_3, # of connection points: 4
#     Node 9, Type 0, BuildingBlock: QUQFOY_clean_sbu_3, # of connection points: 4
#     Node 10, Type 0, BuildingBlock: QUQFOY_clean_sbu_3, # of connection points: 4
#     Node 11, Type 0, BuildingBlock: QUQFOY_clean_sbu_3, # of connection points: 4
#     Node 12, Type 0, BuildingBlock: QUQFOY_clean_sbu_3, # of connection points: 4
#     Node 13, Type 0, BuildingBlock: QUQFOY_clean_sbu_3, # of connection points: 4
#     Node 14, Type 0, BuildingBlock: QUQFOY_clean_sbu_3, # of connection points: 4
#     Node 15, Type 0, BuildingBlock: QUQFOY_clean_sbu_3, # of connection points: 4
#     Node 16, Type 0, BuildingBlock: QUQFOY_clean_sbu_3, # of connection points: 4
#     Node 17, Type 0, BuildingBlock: QUQFOY_clean_sbu_3, # of connection points: 4
#     Node 18, Type 0, BuildingBlock: QUQFOY_clean_sbu_3, # of connection points: 4
#     Node 19, Type 0, BuildingBlock: QUQFOY_clean_sbu_3, # of connection points: 4
#     Node 20, Type 0, BuildingBlock: QUQFOY_clean_sbu_3, # of connection points: 4
#     Node 21, Type 0, BuildingBlock: QUQFOY_clean_sbu_3, # of connection points: 4
#     Node 22, Type 0, BuildingBlock: QUQFOY_clean_sbu_3, # of connection points: 4
#     Node 23, Type 0, BuildingBlock: QUQFOY_clean_sbu_3, # of connection points: 4
#     Node 24, Type 1, BuildingBlock: MIFKUJ_clean_sbu_0, # of connection points: 6
#     Node 25, Type 1, BuildingBlock: MIFKUJ_clean_sbu_0, # of connection points: 6
#     Node 26, Type 1, BuildingBlock: MIFKUJ_clean_sbu_0, # of connection points: 6
#     Node 27, Type 1, BuildingBlock: MIFKUJ_clean_sbu_0, # of connection points: 6
#     Node 28, Type 1, BuildingBlock: MIFKUJ_clean_sbu_0, # of connection points: 6
#     Node 29, Type 1, BuildingBlock: MIFKUJ_clean_sbu_0, # of connection points: 6
#     Node 30, Type 1, BuildingBlock: MIFKUJ_clean_sbu_0, # of connection points: 6
#     Node 31, Type 1, BuildingBlock: MIFKUJ_clean_sbu_0, # of connection points: 6
#     Node 32, Type 1, BuildingBlock: MIFKUJ_clean_sbu_0, # of connection points: 6
#     Node 33, Type 1, BuildingBlock: MIFKUJ_clean_sbu_0, # of connection points: 6
#     Node 34, Type 1, BuildingBlock: MIFKUJ_clean_sbu_0, # of connection points: 6
#     Node 35, Type 1, BuildingBlock: MIFKUJ_clean_sbu_0, # of connection points: 6
#     Node 36, Type 1, BuildingBlock: MIFKUJ_clean_sbu_0, # of connection points: 6
#     Node 37, Type 1, BuildingBlock: MIFKUJ_clean_sbu_0, # of connection points: 6
#     Node 38, Type 1, BuildingBlock: MIFKUJ_clean_sbu_0, # of connection points: 6
#     Node 39, Type 1, BuildingBlock: MIFKUJ_clean_sbu_0, # of connection points: 6
#     Edge 40, Type (0, 1), BuildingBlock: KIFKEQ_clean_linker_1, # of connection points: 2
#     Edge 41, Type (0, 1), BuildingBlock: KIFKEQ_clean_linker_1, # of connection points: 2
#     Edge 42, Type (0, 1), BuildingBlock: KIFKEQ_clean_linker_1, # of connection points: 2
#     Edge 43, Type (0, 1), BuildingBlock: KIFKEQ_clean_linker_1, # of connection points: 2
#     Edge 44, Type (0, 1), BuildingBlock: KIFKEQ_clean_linker_1, # of connection points: 2
#     Edge 45, Type (0, 1), BuildingBlock: KIFKEQ_clean_linker_1, # of connection points: 2
#     Edge 46, Type (0, 1), BuildingBlock: KIFKEQ_clean_linker_1, # of connection points: 2
#     Edge 47, Type (0, 1), BuildingBlock: KIFKEQ_clean_linker_1, # of connection points: 2
#     Edge 48, Type (0, 1), BuildingBlock: KIFKEQ_clean_linker_1, # of connection points: 2
#     Edge 49, Type (0, 1), BuildingBlock: KIFKEQ_clean_linker_1, # of connection points: 2
#     Edge 50, Type (0, 1), BuildingBlock: KIFKEQ_clean_linker_1, # of connection points: 2
#     Edge 51, Type (0, 1), BuildingBlock: KIFKEQ_clean_linker_1, # of connection points: 2
#     Edge 52, Type (0, 1), BuildingBlock: KIFKEQ_clean_linker_1, # of connection points: 2
#     Edge 53, Type (0, 1), BuildingBlock: KIFKEQ_clean_linker_1, # of connection points: 2
#     Edge 54, Type (0, 1), BuildingBlock: KIFKEQ_clean_linker_1, # of connection points: 2
#     Edge 55, Type (0, 1), BuildingBlock: KIFKEQ_clean_linker_1, # of connection points: 2
#     Edge 56, Type (0, 1), BuildingBlock: KIFKEQ_clean_linker_1, # of connection points: 2
#     Edge 57, Type (0, 1), BuildingBlock: KIFKEQ_clean_linker_1, # of connection points: 2
#     Edge 58, Type (0, 1), BuildingBlock: KIFKEQ_clean_linker_1, # of connection points: 2
#     Edge 59, Type (0, 1), BuildingBlock: KIFKEQ_clean_linker_1, # of connection points: 2
#     Edge 60, Type (0, 1), BuildingBlock: KIFKEQ_clean_linker_1, # of connection points: 2
#     Edge 61, Type (0, 1), BuildingBlock: KIFKEQ_clean_linker_1, # of connection points: 2
#     Edge 62, Type (0, 1), BuildingBlock: KIFKEQ_clean_linker_1, # of connection points: 2
#     Edge 63, Type (0, 1), BuildingBlock: KIFKEQ_clean_linker_1, # of connection points: 2
#     Edge 64, Type (0, 1), BuildingBlock: KIFKEQ_clean_linker_1, # of connection points: 2
#     Edge 65, Type (0, 1), BuildingBlock: KIFKEQ_clean_linker_1, # of connection points: 2
#     Edge 66, Type (0, 1), BuildingBlock: KIFKEQ_clean_linker_1, # of connection points: 2
#     Edge 67, Type (0, 1), BuildingBlock: KIFKEQ_clean_linker_1, # of connection points: 2
#     Edge 68, Type (0, 1), BuildingBlock: KIFKEQ_clean_linker_1, # of connection points: 2
#     Edge 69, Type (0, 1), BuildingBlock: KIFKEQ_clean_linker_1, # of connection points: 2
#     Edge 70, Type (0, 1), BuildingBlock: KIFKEQ_clean_linker_1, # of connection points: 2
#     Edge 71, Type (0, 1), BuildingBlock: KIFKEQ_clean_linker_1, # of connection points: 2
#     Edge 72, Type (0, 1), BuildingBlock: KIFKEQ_clean_linker_1, # of connection points: 2
#     Edge 73, Type (0, 1), BuildingBlock: KIFKEQ_clean_linker_1, # of connection points: 2
#     Edge 74, Type (0, 1), BuildingBlock: KIFKEQ_clean_linker_1, # of connection points: 2
#     Edge 75, Type (0, 1), BuildingBlock: KIFKEQ_clean_linker_1, # of connection points: 2
#     Edge 76, Type (0, 1), BuildingBlock: KIFKEQ_clean_linker_1, # of connection points: 2
#     Edge 77, Type (0, 1), BuildingBlock: KIFKEQ_clean_linker_1, # of connection points: 2
#     Edge 78, Type (0, 1), BuildingBlock: KIFKEQ_clean_linker_1, # of connection points: 2
#     Edge 79, Type (0, 1), BuildingBlock: KIFKEQ_clean_linker_1, # of connection points: 2
#     Edge 80, Type (0, 1), BuildingBlock: KIFKEQ_clean_linker_1, # of connection points: 2
#     Edge 81, Type (0, 1), BuildingBlock: KIFKEQ_clean_linker_1, # of connection points: 2
#     Edge 82, Type (0, 1), BuildingBlock: KIFKEQ_clean_linker_1, # of connection points: 2
#     Edge 83, Type (0, 1), BuildingBlock: KIFKEQ_clean_linker_1, # of connection points: 2
#     Edge 84, Type (0, 1), BuildingBlock: KIFKEQ_clean_linker_1, # of connection points: 2
#     Edge 85, Type (0, 1), BuildingBlock: KIFKEQ_clean_linker_1, # of connection points: 2
#     Edge 86, Type (0, 1), BuildingBlock: KIFKEQ_clean_linker_1, # of connection points: 2
#     Edge 87, Type (0, 1), BuildingBlock: KIFKEQ_clean_linker_1, # of connection points: 2
#     Edge 88, Type (0, 1), BuildingBlock: KIFKEQ_clean_linker_1, # of connection points: 2
#     Edge 89, Type (0, 1), BuildingBlock: KIFKEQ_clean_linker_1, # of connection points: 2
#     Edge 90, Type (0, 1), BuildingBlock: KIFKEQ_clean_linker_1, # of connection points: 2
#     Edge 91, Type (0, 1), BuildingBlock: KIFKEQ_clean_linker_1, # of connection points: 2
#     Edge 92, Type (0, 1), BuildingBlock: KIFKEQ_clean_linker_1, # of connection points: 2
#     Edge 93, Type (0, 1), BuildingBlock: KIFKEQ_clean_linker_1, # of connection points: 2
#     Edge 94, Type (0, 1), BuildingBlock: KIFKEQ_clean_linker_1, # of connection points: 2
#     Edge 95, Type (0, 1), BuildingBlock: KIFKEQ_clean_linker_1, # of connection points: 2
#     Edge 96, Type (0, 1), BuildingBlock: KIFKEQ_clean_linker_1, # of connection points: 2
#     Edge 97, Type (0, 1), BuildingBlock: KIFKEQ_clean_linker_1, # of connection points: 2
#     Edge 98, Type (0, 1), BuildingBlock: KIFKEQ_clean_linker_1, # of connection points: 2
#     Edge 99, Type (0, 1), BuildingBlock: KIFKEQ_clean_linker_1, # of connection points: 2
#     Edge 100, Type (0, 1), BuildingBlock: KIFKEQ_clean_linker_1, # of connection points: 2
#     Edge 101, Type (0, 1), BuildingBlock: KIFKEQ_clean_linker_1, # of connection points: 2
#     Edge 102, Type (0, 1), BuildingBlock: KIFKEQ_clean_linker_1, # of connection points: 2
#     Edge 103, Type (0, 1), BuildingBlock: KIFKEQ_clean_linker_1, # of connection points: 2
#     Edge 104, Type (0, 1), BuildingBlock: KIFKEQ_clean_linker_1, # of connection points: 2
#     Edge 105, Type (0, 1), BuildingBlock: KIFKEQ_clean_linker_1, # of connection points: 2
#     Edge 106, Type (0, 1), BuildingBlock: KIFKEQ_clean_linker_1, # of connection points: 2
#     Edge 107, Type (0, 1), BuildingBlock: KIFKEQ_clean_linker_1, # of connection points: 2
#     Edge 108, Type (0, 1), BuildingBlock: KIFKEQ_clean_linker_1, # of connection points: 2
#     Edge 109, Type (0, 1), BuildingBlock: KIFKEQ_clean_linker_1, # of connection points: 2
#     Edge 110, Type (0, 1), BuildingBlock: KIFKEQ_clean_linker_1, # of connection points: 2
#     Edge 111, Type (0, 1), BuildingBlock: KIFKEQ_clean_linker_1, # of connection points: 2
#     Edge 112, Type (0, 1), BuildingBlock: KIFKEQ_clean_linker_1, # of connection points: 2
#     Edge 113, Type (0, 1), BuildingBlock: KIFKEQ_clean_linker_1, # of connection points: 2
#     Edge 114, Type (0, 1), BuildingBlock: KIFKEQ_clean_linker_1, # of connection points: 2
#     Edge 115, Type (0, 1), BuildingBlock: KIFKEQ_clean_linker_1, # of connection points: 2
#     Edge 116, Type (0, 1), BuildingBlock: KIFKEQ_clean_linker_1, # of connection points: 2
#     Edge 117, Type (0, 1), BuildingBlock: KIFKEQ_clean_linker_1, # of connection points: 2
#     Edge 118, Type (0, 1), BuildingBlock: KIFKEQ_clean_linker_1, # of connection points: 2
#     Edge 119, Type (0, 1), BuildingBlock: KIFKEQ_clean_linker_1, # of connection points: 2
#     Edge 120, Type (0, 1), BuildingBlock: KIFKEQ_clean_linker_1, # of connection points: 2
#     Edge 121, Type (0, 1), BuildingBlock: KIFKEQ_clean_linker_1, # of connection points: 2
#     Edge 122, Type (0, 1), BuildingBlock: KIFKEQ_clean_linker_1, # of connection points: 2
#     Edge 123, Type (0, 1), BuildingBlock: KIFKEQ_clean_linker_1, # of connection points: 2
#     Edge 124, Type (0, 1), BuildingBlock: KIFKEQ_clean_linker_1, # of connection points: 2
#     Edge 125, Type (0, 1), BuildingBlock: KIFKEQ_clean_linker_1, # of connection points: 2
#     Edge 126, Type (0, 1), BuildingBlock: KIFKEQ_clean_linker_1, # of connection points: 2
#     Edge 127, Type (0, 1), BuildingBlock: KIFKEQ_clean_linker_1, # of connection points: 2
#     Edge 128, Type (0, 1), BuildingBlock: KIFKEQ_clean_linker_1, # of connection points: 2
#     Edge 129, Type (0, 1), BuildingBlock: KIFKEQ_clean_linker_1, # of connection points: 2
#     Edge 130, Type (0, 1), BuildingBlock: KIFKEQ_clean_linker_1, # of connection points: 2
#     Edge 131, Type (0, 1), BuildingBlock: KIFKEQ_clean_linker_1, # of connection points: 2
#     Edge 132, Type (0, 1), BuildingBlock: KIFKEQ_clean_linker_1, # of connection points: 2
#     Edge 133, Type (0, 1), BuildingBlock: KIFKEQ_clean_linker_1, # of connection points: 2
#     Edge 134, Type (0, 1), BuildingBlock: KIFKEQ_clean_linker_1, # of connection points: 2
#     Edge 135, Type (0, 1), BuildingBlock: KIFKEQ_clean_linker_1, # of connection points: 2
# Relax obj value: 0.096
# Max RMSD: 0.283
# Mean RMSD: 0.126
data_MOF--net-gar--node1-QUQFOY_clean_sbu_3--node2-MIFKUJ_clean_sbu_0--edge1-KIFKEQ_clean_linker_1
_symmetry_space_group_name_H-M    P1
_symmetry_Int_Tables_number       1
_symmetry_cell_setting            triclinic
loop_
_symmetry_equiv_pos_as_xyz
'x, y, z'
_cell_length_a     57.565014
_cell_length_b     58.618978
_cell_length_c     55.951752
_cell_angle_alpha  95.432179
_cell_angle_beta   94.49186
_cell_angle_gamma 99.311633
loop_
_atom_site_label
_atom_site_type_symbol
_atom_site_fract_x
_atom_site_fract_y
_atom_site_fract_z
_atom_type_partial_charge
C0 C 0.97712 0.27501 0.35386 0.0
O1 O 0.99209 0.28631 0.34197 0.0
Cd2 Cd 0.03374 0.29189 0.35377 0.0
O3 O 0.98392 0.26554 0.37213 0.0
Cd4 Cd 0.02031 0.26005 0.39559 0.0
C5 C 0.03358 0.31779 0.41174 0.0
O6 O 0.04335 0.2547 0.36131 0.0
O7 O 0.06256 0.25942 0.39661 0.0
O8 O 0.00015 0.22074 0.39746 0.0
C9 C 0.06267 0.25508 0.374 0.0
O10 O 0.03867 0.31937 0.39014 0.0
C11 C 0.00463 0.22071 0.42003 0.0
O12 O 0.02546 0.29821 0.41857 0.0
O13 O 0.01635 0.23927 0.43152 0.0
C14 C 0.96507 0.74036 0.67768 0.0
O15 O 0.97669 0.7277 0.68937 0.0
Cd16 Cd 0.01129 0.71508 0.6764 0.0
O17 O 0.97233 0.74805 0.65851 0.0
Cd18 Cd 0.00704 0.74795 0.63427 0.0
C19 C 0.9913 0.69044 0.61818 0.0
O20 O 0.03636 0.74952 0.66836 0.0
O21 O 0.04838 0.74269 0.63325 0.0
O22 O 0.00736 0.78915 0.63315 0.0
C23 C 0.05329 0.74658 0.6559 0.0
O24 O -0.00247 0.68835 0.6401 0.0
C25 C 0.00759 0.78906 0.61049 0.0
O26 O 0.99235 0.71038 0.61069 0.0
O27 O 0.00733 0.76952 0.59842 0.0
C28 C 0.47932 0.77011 0.85598 0.0
O29 O 0.49374 0.78063 0.84297 0.0
Cd30 Cd 0.5359 0.78567 0.85219 0.0
O31 O 0.48684 0.76107 0.87425 0.0
Cd32 Cd 0.52428 0.75618 0.89603 0.0
C33 C 0.53855 0.81448 0.90895 0.0
O34 O 0.54611 0.74909 0.86106 0.0
O35 O 0.56648 0.75611 0.8958 0.0
O36 O 0.50575 0.71685 0.90055 0.0
C37 C 0.56585 0.75032 0.87332 0.0
O38 O 0.54356 0.8149 0.8872 0.0
C39 C 0.51096 0.71812 0.92316 0.0
O40 O 0.52984 0.79549 0.91667 0.0
O41 O 0.52209 0.73748 0.93349 0.0
C42 C 0.46632 0.23999 0.18029 0.0
O43 O 0.47854 0.22759 0.19166 0.0
Cd44 Cd 0.51296 0.21549 0.1774 0.0
O45 O 0.47254 0.2472 0.16054 0.0
Cd46 Cd 0.50564 0.24632 0.1342 0.0
C47 C 0.49142 0.18819 0.12063 0.0
O48 O 0.53634 0.25026 0.1675 0.0
O49 O 0.5474 0.24314 0.13202 0.0
O50 O 0.5027 0.28668 0.13084 0.0
C51 C 0.55301 0.24789 0.1545 0.0
O52 O 0.49886 0.18706 0.14246 0.0
C53 C 0.50336 0.28572 0.10817 0.0
O54 O 0.49114 0.20773 0.11254 0.0
O55 O 0.50477 0.26609 0.09717 0.0
C56 C -0.00255 0.7691 0.19871 0.0
O57 O 0.01347 0.76346 0.21282 0.0
Cd58 Cd 0.05425 0.76715 0.20556 0.0
O59 O 0.00245 0.77811 0.17944 0.0
Cd60 Cd 0.0361 0.79123 0.15609 0.0
C61 C 0.04617 0.73525 0.14899 0.0
O62 O 0.06124 0.80462 0.19236 0.0
O63 O 0.07883 0.80816 0.16025 0.0
O64 O 0.01412 0.822 0.14716 0.0
C65 C 0.0803 0.81053 0.1831 0.0
O66 O 0.05348 0.73767 0.17135 0.0
C67 C 0.01876 0.82216 0.12535 0.0
O68 O 0.03815 0.75155 0.13922 0.0
O69 O 0.03113 0.80747 0.11753 0.0
C70 C 0.46092 0.7474 0.3491 0.0
O71 O 0.47415 0.75839 0.33542 0.0
Cd72 Cd 0.5132 0.77689 0.34829 0.0
O73 O 0.46877 0.74407 0.37024 0.0
Cd74 Cd 0.50801 0.75018 0.39486 0.0
C75 C 0.50519 0.80683 0.40314 0.0
O76 O 0.53043 0.74556 0.3608 0.0
O77 O 0.55139 0.76209 0.39312 0.0
O78 O 0.49744 0.70948 0.40006 0.0
C79 C 0.5507 0.75313 0.37149 0.0
O80 O 0.51008 0.8065 0.38129 0.0
C81 C 0.50589 0.7109 0.42186 0.0
O82 O 0.50211 0.78815 0.41329 0.0
O83 O 0.51458 0.73115 0.432 0.0
C84 C 0.49413 0.26534 0.69122 0.0
O85 O 0.51 0.25716 0.7031 0.0
Cd86 Cd 0.54884 0.25619 0.69138 0.0
O87 O 0.4982 0.27396 0.67154 0.0
Cd88 Cd 0.53086 0.28137 0.6452 0.0
C89 C 0.53309 0.22359 0.6363 0.0
O90 O 0.55997 0.29393 0.67923 0.0
O91 O 0.57447 0.28957 0.64533 0.0
O92 O 0.51367 0.31533 0.63522 0.0
C93 C 0.57815 0.29536 0.66788 0.0
O94 O 0.54353 0.22548 0.65752 0.0
C95 C 0.51772 0.31339 0.61319 0.0
O96 O 0.52527 0.24073 0.62812 0.0
O97 O 0.52749 0.2964 0.606 0.0
C98 C 0.95952 0.24342 0.84656 0.0
O99 O 0.97219 0.25535 0.83312 0.0
Cd100 Cd 0.00997 0.27625 0.84737 0.0
O101 O 0.96762 0.24029 0.86767 0.0
Cd102 Cd 0.00679 0.24814 0.89255 0.0
C103 C -0.00193 0.30314 0.90218 0.0
O104 O 0.02974 0.24586 0.8586 0.0
O105 O 0.05002 0.26216 0.89142 0.0
O106 O -0.00177 0.20713 0.89683 0.0
C107 C 0.04979 0.25381 0.86963 0.0
O108 O 0.0028 0.30411 0.88039 0.0
C109 C 0.0059 0.20854 0.91888 0.0
O110 O -0.0023 0.2843 0.91186 0.0
O111 O 0.0135 0.22885 0.92946 0.0
C112 C 0.44035 0.02821 0.31247 0.0
O113 O 0.45215 0.01793 0.29796 0.0
Cd114 Cd 0.437 7e-05 0.25901 0.0
O115 O 0.41921 0.03078 0.30605 0.0
Cd116 Cd 0.39062 0.0225 0.26888 0.0
C117 C 0.38656 0.96563 0.27472 0.0
O118 O 0.41986 0.02899 0.24086 0.0
O119 O 0.38668 0.00912 0.22518 0.0
O120 O 0.38214 0.06149 0.2772 0.0
C121 C 0.4073 0.01909 0.2221 0.0
O122 O 0.40683 0.9677 0.26667 0.0
C123 C 0.35995 0.05619 0.27193 0.0
O124 O 0.37658 0.9833 0.27884 0.0
O125 O 0.35163 0.03482 0.26583 0.0
C126 C 0.27845 0.09017 0.50949 0.0
O127 O 0.26118 0.07946 0.51903 0.0
Cd128 Cd 0.2235 0.09116 0.52061 0.0
O129 O 0.27643 0.1085 0.49938 0.0
Cd130 Cd 0.24508 0.13256 0.49112 0.0
C131 C 0.24142 0.14567 0.55092 0.0
O132 O 0.21322 0.09964 0.48071 0.0
O133 O 0.20182 0.1325 0.48731 0.0
O134 O 0.26006 0.13979 0.45218 0.0
C135 C 0.19626 0.11086 0.48085 0.0
O136 O 0.22939 0.12537 0.55063 0.0
C137 C 0.26021 0.16159 0.45469 0.0
O138 O 0.25075 0.15211 0.53222 0.0
O139 O 0.25368 0.16999 0.47432 0.0
C140 C 0.10205 0.01566 0.82423 0.0
O141 O 0.09281 0.028 0.80992 0.0
Cd142 Cd 0.10159 0.03221 0.76927 0.0
O143 O 0.11878 0.0051 0.81813 0.0
Cd144 Cd 0.14241 0.00201 0.78238 0.0
C145 C 0.15952 0.05963 0.77902 0.0
O146 O 0.10739 0.99499 0.75306 0.0
O147 O 0.14073 -0.00237 0.73796 0.0
O148 O 0.14759 0.96409 0.79494 0.0
C149 C 0.11841 0.99449 0.73438 0.0
O150 O 0.13833 0.0592 0.77032 0.0
C151 C 0.1689 0.96543 0.79001 0.0
O152 O 0.16575 0.04196 0.7877 0.0
O153 O 0.17821 0.98409 0.78222 0.0
C154 C 0.28265 0.90947 0.98369 0.0
O155 O 0.26869 0.91905 0.9708 0.0
Cd156 Cd 0.22686 0.91288 0.97392 0.0
O157 O 0.27476 0.89621 -0.00091 0.0
Cd158 Cd 0.23693 0.88068 0.01459 0.0
C159 C 0.21534 0.85422 0.95862 0.0
O160 O 0.2244 0.91822 0.0169 0.0
O161 O 0.19842 0.89008 0.02536 0.0
O162 O 0.26026 0.88028 0.05293 0.0
C163 C 0.20456 0.91175 0.02457 0.0
O164 O 0.21263 0.87403 0.95241 0.0
C165 C 0.25115 0.85968 0.05607 0.0
O166 O 0.22442 0.85242 0.97965 0.0
O167 O 0.23534 0.84898 0.03999 0.0
C168 C 0.29806 0.42744 0.03656 0.0
O169 O 0.28405 0.4382 0.02521 0.0
Cd170 Cd 0.24403 0.42294 0.01131 0.0
O171 O 0.29085 0.40714 0.04246 0.0
Cd172 Cd 0.25304 0.3785 0.03981 0.0
C173 C 0.25296 0.3718 0.97924 0.0
O174 O 0.22828 0.40785 0.04544 0.0
O175 O 0.20931 0.37354 0.03361 0.0
O176 O 0.26591 0.37144 0.0806 0.0
C177 C 0.20855 0.3947 0.04004 0.0
O178 O 0.24673 0.39174 0.97996 0.0
C179 C 0.25874 0.34962 0.07765 0.0
O180 O 0.25785 0.36297 -0.00141 0.0
O181 O 0.24935 0.34093 0.05679 0.0
C182 C 0.80344 0.08895 0.03328 0.0
O183 O 0.79609 0.08182 0.05251 0.0
Cd184 Cd 0.76642 0.0975 0.07321 0.0
O185 O 0.79506 0.10526 0.02396 0.0
Cd186 Cd 0.76419 0.12942 0.0319 0.0
C187 C 0.78849 0.15546 0.08678 0.0
O188 O 0.73451 0.09822 0.04313 0.0
O189 O 0.7262 0.13295 0.04677 0.0
O190 O 0.75286 0.12615 0.98866 0.0
C191 C 0.71955 0.11137 0.0475 0.0
O192 O 0.78279 0.13573 0.09439 0.0
C193 C 0.75609 0.14785 0.98702 0.0
O194 O 0.78492 0.15784 0.06449 0.0
O195 O 0.7635 0.16114 0.00628 0.0
C196 C 0.08763 0.50213 0.28344 0.0
O197 O 0.07291 0.50537 0.26649 0.0
Cd198 Cd 0.08123 0.50608 0.22542 0.0
O199 O 0.10771 0.49699 0.27905 0.0
Cd200 Cd 0.1311 0.48854 0.24463 0.0
C201 C 0.13417 0.54529 0.23517 0.0
O202 O 0.09754 0.47195 0.21625 0.0
O203 O 0.13043 0.47939 0.20066 0.0
O204 O 0.14176 0.45567 0.26423 0.0
C205 C 0.10835 0.47198 0.19743 0.0
O206 O 0.11223 0.54043 0.22779 0.0
C207 C 0.16378 0.46062 0.26219 0.0
O208 O 0.14528 0.52991 0.24291 0.0
O209 O 0.17071 0.47875 0.25215 0.0
C210 C 0.79174 0.92612 0.53569 0.0
O211 O 0.77891 0.93853 0.52511 0.0
Cd212 Cd 0.73902 0.92538 0.50934 0.0
O213 O 0.78321 0.90578 0.54058 0.0
Cd214 Cd 0.74354 0.88012 0.53849 0.0
C215 C 0.74503 0.87259 0.478 0.0
O216 O 0.72178 0.91176 0.54326 0.0
O217 O 0.69991 0.87862 0.53205 0.0
O218 O 0.75228 0.87473 0.58057 0.0
C219 C 0.70121 0.90021 0.53823 0.0
O220 O 0.74096 0.89337 0.47844 0.0
C221 C 0.74681 0.85271 0.57809 0.0
O222 O 0.74777 0.86327 0.49749 0.0
O223 O 0.74024 0.84302 0.55681 0.0
C224 C 0.91778 -0.00094 0.29147 0.0
O225 O 0.92951 0.98882 0.27681 0.0
Cd226 Cd 0.92141 0.98463 0.23393 0.0
O227 O 0.90066 0.00863 0.28372 0.0
Cd228 Cd 0.88028 0.01427 0.24403 0.0
C229 C 0.86426 0.95552 0.23139 0.0
O230 O 0.91619 0.02211 0.2235 0.0
O231 O 0.88367 0.01716 0.20052 0.0
O232 O 0.87654 0.05347 0.26064 0.0
C233 C 0.90605 0.0223 0.20265 0.0
O234 O 0.88559 0.95547 0.22682 0.0
C235 C 0.85459 0.05167 0.25428 0.0
O236 O 0.85761 0.97434 0.23916 0.0
O237 O 0.84424 0.03213 0.24367 0.0
C238 C 0.30649 0.59519 0.53389 0.0
O239 O 0.29783 0.58582 0.55146 0.0
Cd240 Cd 0.26886 0.6009 0.5733 0.0
O241 O 0.29933 0.61311 0.52676 0.0
Cd242 Cd 0.26852 0.63706 0.53655 0.0
C243 C 0.29389 0.65784 0.59195 0.0
O244 O 0.23781 0.60526 0.5439 0.0
O245 O 0.23107 0.63994 0.5536 0.0
O246 O 0.25707 0.63601 0.49381 0.0
C247 C 0.22341 0.61825 0.55055 0.0
O248 O 0.28741 0.63721 0.59708 0.0
C249 C 0.26022 0.65786 0.49326 0.0
O250 O 0.29012 0.66297 0.57058 0.0
O251 O 0.2678 0.67036 0.51297 0.0
C252 C 0.4249 0.49561 0.79667 0.0
O253 O 0.43517 0.48356 0.78213 0.0
Cd254 Cd 0.4257 0.47912 0.73924 0.0
O255 O 0.4087 0.50625 0.78882 0.0
Cd256 Cd 0.38792 0.51136 0.74951 0.0
C257 C 0.36814 0.45314 0.73834 0.0
O258 O 0.42351 0.51741 0.72831 0.0
O259 O 0.39064 0.51235 0.70574 0.0
O260 O 0.38534 0.55082 0.76625 0.0
C261 C 0.41302 0.5175 0.70758 0.0
O262 O 0.38862 0.45124 0.73215 0.0
C263 C 0.36335 0.54936 0.76033 0.0
O264 O 0.36367 0.47272 0.74682 0.0
O265 O 0.35263 0.5301 0.74942 0.0
C266 C 0.58901 0.00058 0.78509 0.0
O267 O 0.57508 0.005 0.76803 0.0
Cd268 Cd 0.57886 -0.00068 0.726 0.0
O269 O 0.60739 0.99178 0.78082 0.0
Cd270 Cd 0.62816 0.97906 0.74547 0.0
C271 C 0.63368 0.03448 0.72876 0.0
O272 O 0.59179 0.963 0.72202 0.0
O273 O 0.62203 0.96279 0.70218 0.0
O274 O 0.63983 0.94674 0.7656 0.0
C275 C 0.59972 0.9583 0.70208 0.0
O276 O 0.61151 0.0306 0.72246 0.0
C277 C 0.66173 0.95195 0.76301 0.0
O278 O 0.64385 0.01918 0.73807 0.0
O279 O 0.66805 0.96998 0.75259 0.0
C280 C 0.78447 0.5941 0.0071 0.0
O281 O 0.76788 0.58031 0.01454 0.0
Cd282 Cd 0.72801 0.58665 0.01598 0.0
O283 O 0.78056 0.61273 -0.00141 0.0
Cd284 Cd 0.74712 0.63382 0.98917 0.0
C285 C 0.73945 0.64124 0.04904 0.0
O286 O 0.71906 0.59855 0.9776 0.0
O287 O 0.7037 0.62953 0.97928 0.0
O288 O 0.76551 0.64247 0.95251 0.0
C289 C 0.70061 0.60754 0.97533 0.0
O290 O 0.73095 0.61959 0.04704 0.0
C291 C 0.76333 0.66377 0.9541 0.0
O292 O 0.74774 0.65077 0.03121 0.0
O293 O 0.75393 0.67141 0.97236 0.0
C294 C 0.92733 0.52953 0.81198 0.0
O295 O 0.93867 0.52055 0.79607 0.0
Cd296 Cd 0.92132 0.50086 0.75853 0.0
O297 O 0.90538 0.5304 0.80759 0.0
Cd298 Cd 0.87522 0.52089 0.77137 0.0
C299 C 0.87389 0.46447 0.7776 0.0
O300 O 0.90138 0.52774 0.74007 0.0
O301 O 0.86836 0.50506 0.7284 0.0
O302 O 0.86619 0.56004 0.77533 0.0
C303 C 0.88733 0.51666 0.72281 0.0
O304 O 0.89366 0.46757 0.76855 0.0
C305 C 0.84387 0.55421 0.77355 0.0
O306 O 0.863 0.48145 0.78211 0.0
O307 O 0.83581 0.53256 0.77218 0.0
C308 C 0.78515 0.40742 0.4793 0.0
O309 O 0.77014 0.41688 0.46766 0.0
Cd310 Cd 0.7287 0.40827 0.47217 0.0
O311 O 0.77857 0.39306 0.49421 0.0
Cd312 Cd 0.74212 0.37494 0.5107 0.0
C313 C 0.71985 0.34984 0.45457 0.0
O314 O 0.72774 0.4114 0.51531 0.0
O315 O 0.703 0.38172 0.5225 0.0
O316 O 0.76706 0.37488 0.54814 0.0
C317 C 0.70822 0.40363 0.52292 0.0
O318 O 0.71582 0.36968 0.44964 0.0
C319 C 0.75876 0.3541 0.5514 0.0
O320 O 0.72996 0.34749 0.47499 0.0
O321 O 0.74279 0.34304 0.53567 0.0
C322 C 0.59865 0.51098 0.32518 0.0
O323 O 0.58831 0.52241 0.31072 0.0
Cd324 Cd 0.60012 0.53318 0.27298 0.0
O325 O 0.61765 0.50368 0.32013 0.0
Cd326 Cd 0.64337 0.50471 0.28547 0.0
C327 C 0.65637 0.56406 0.28975 0.0
O328 O 0.61054 0.49885 0.25416 0.0
O329 O 0.64503 0.50545 0.24146 0.0
O330 O 0.64937 0.46446 0.287 0.0
C331 C 0.62281 0.501 0.23648 0.0
O332 O 0.6348 0.56335 0.28214 0.0
C333 C 0.67177 0.46906 0.29047 0.0
O334 O 0.66428 0.54546 0.29345 0.0
O335 O 0.68109 0.49041 0.2926 0.0
Zn336 Zn 0.03518 0.00968 0.03471 0.0
Zn337 Zn 0.99123 0.0163 0.00293 0.0
C338 C 0.01858 0.97193 0.05828 0.0
O339 O 0.02665 0.98865 0.0757 0.0
C340 C 0.00948 0.05463 0.98046 0.0
O341 O 0.00122 0.03859 0.96245 0.0
O342 O 0.06761 0.00921 0.05075 0.0
O343 O 0.0405 0.01538 0.00036 0.0
O344 O 0.00756 0.99503 0.98182 0.0
C345 C 0.08631 0.01752 0.04172 0.0
O346 O 0.08477 0.03105 0.02444 0.0
O347 O 0.0193 0.97653 0.03654 0.0
C348 C 0.95147 0.03603 -0.00151 0.0
O349 O 0.96584 0.04986 0.01509 0.0
O350 O 0.95811 0.0179 0.98883 0.0
O351 O 0.98556 0.00904 0.03654 0.0
O352 O 0.01774 0.0307 0.05496 0.0
O353 O 0.00871 0.04922 0.00191 0.0
C354 C 0.02929 0.00357 0.98155 0.0
C355 C -0.00397 0.02198 0.05499 0.0
Zn356 Zn 0.2486 0.74752 0.29544 0.0
Zn357 Zn 0.27115 0.76582 0.25028 0.0
C358 C 0.21348 0.71166 0.26816 0.0
O359 O 0.19896 0.72572 0.27465 0.0
C360 C 0.30584 0.80206 0.27425 0.0
O361 O 0.31922 0.78801 0.26503 0.0
O362 O 0.24096 0.73989 0.32862 0.0
O363 O 0.28402 0.75166 0.2982 0.0
O364 O 0.28924 0.74128 0.26037 0.0
C365 C 0.24834 0.72128 0.33315 0.0
O366 O 0.2585 0.71027 0.31644 0.0
O367 O 0.23556 0.71785 0.27385 0.0
C368 C 0.27086 0.79312 0.21293 0.0
O369 O 0.26097 0.80414 0.22985 0.0
O370 O 0.27776 0.77416 0.217 0.0
O371 O 0.23602 0.75891 0.24823 0.0
O372 O 0.23261 0.77373 0.28493 0.0
O373 O 0.28354 0.79566 0.27183 0.0
C374 C 0.29569 0.74239 0.28275 0.0
C375 C 0.22605 0.77149 0.26249 0.0
Zn376 Zn 0.47565 0.01705 0.53017 0.0
Zn377 Zn 0.524 0.00493 0.51646 0.0
C378 C 0.48365 0.05953 0.56018 0.0
O379 O 0.4658 0.0479 0.56962 0.0
C380 C 0.50525 0.96633 0.48347 0.0
O381 O 0.51685 0.98055 0.47001 0.0
O382 O 0.44086 0.01886 0.53066 0.0
O383 O 0.47932 0.01103 0.49466 0.0
O384 O 0.51639 0.02693 0.4928 0.0
C385 C 0.43498 0.03348 0.51686 0.0
O386 O 0.45117 0.04453 0.50485 0.0
O387 O 0.49226 0.04965 0.54255 0.0
C388 C 0.55901 0.9803 0.52811 0.0
O389 O 0.54067 0.97112 0.53863 0.0
O390 O 0.55715 -0.00248 0.51619 0.0
O391 O 0.521 0.01627 0.55063 0.0
O392 O 0.48667 0.99492 0.55288 0.0
O393 O 0.50401 0.97326 0.5055 0.0
C394 C 0.49499 0.0227 0.48377 0.0
C395 C 0.50786 0.00228 0.56176 0.0
Zn396 Zn 0.28873 0.25354 0.76272 0.0
Zn397 Zn 0.24086 0.26495 0.76994 0.0
C398 C 0.28437 0.22799 0.71705 0.0
O399 O 0.2997 0.21811 0.72924 0.0
C400 C 0.25338 0.29517 0.81173 0.0
O401 O 0.24399 0.30771 0.79658 0.0
O402 O 0.32359 0.25279 0.76268 0.0
O403 O 0.28767 0.2876 0.77233 0.0
O404 O 0.25562 0.28801 0.7486 0.0
C405 C 0.33368 0.26761 0.74995 0.0
O406 O 0.3211 0.28148 0.73973 0.0
O407 O 0.27595 0.24453 0.72768 0.0
C408 C 0.19813 0.25376 0.78757 0.0
O409 O 0.21103 0.23944 0.7964 0.0
O410 O 0.20697 0.26788 0.77346 0.0
O411 O 0.24017 0.23122 0.75951 0.0
O412 O 0.27272 0.228 0.78113 0.0
O413 O 0.25524 0.27437 0.80446 0.0
C414 C 0.27577 0.29815 0.75827 0.0
C415 C 0.25201 0.2191 0.77171 0.0
Zn416 Zn 0.0102 0.98396 0.52681 0.0
Zn417 Zn 0.99096 0.02954 0.51194 0.0
C418 C 0.04443 -0.00017 0.56631 0.0
O419 O 0.05808 0.99502 0.54943 0.0
C420 C 0.96066 0.00995 0.47074 0.0
O421 O 0.94597 0.01875 0.48434 0.0
O422 O 0.01463 0.95049 0.52795 0.0
O423 O 0.97447 0.98127 0.52228 0.0
O424 O 0.96938 0.01664 0.53535 0.0
C425 C 0.00323 0.94213 0.54466 0.0
O426 O 0.99169 0.95569 0.55749 0.0
O427 O 0.02234 -0.00186 0.56067 0.0
C428 C 0.99375 0.06779 0.48648 0.0
O429 O 0.00504 0.05362 0.47413 0.0
O430 O 0.98515 0.06155 0.50558 0.0
O431 O 0.02569 0.03391 0.52093 0.0
O432 O 0.03124 0.00019 0.5037 0.0
O433 O 0.98184 0.01056 0.4795 0.0
C434 C 0.96198 0.99488 0.53204 0.0
C435 C 0.03798 0.02202 0.50859 0.0
Zn436 Zn 0.25496 0.77748 0.77356 0.0
Zn437 Zn 0.26297 0.72896 0.78425 0.0
C438 C 0.21814 0.7676 0.73712 0.0
O439 O 0.23456 0.78122 0.72762 0.0
C440 C 0.30351 0.74729 0.81695 0.0
O441 O 0.29102 0.73474 0.83123 0.0
O442 O 0.25295 0.81186 0.77392 0.0
O443 O 0.25822 0.77255 0.80895 0.0
O444 O 0.23887 0.73661 0.80647 0.0
C445 C 0.23476 0.81598 0.78406 0.0
O446 O 0.22176 0.79887 0.79299 0.0
O447 O 0.2227 0.76207 0.7582 0.0
C448 C 0.28846 0.69341 0.77504 0.0
O449 O 0.2999 0.71116 0.76568 0.0
O450 O 0.26976 0.696 0.78502 0.0
O451 O 0.25547 0.73255 0.74971 0.0
O452 O 0.27824 0.76659 0.7511 0.0
O453 O 0.29445 0.74886 0.79586 0.0
C454 C 0.24461 0.75683 0.81772 0.0
C455 C 0.27081 0.74622 0.74044 0.0
Zn456 Zn 0.51293 0.0129 0.99052 0.0
Zn457 Zn 0.49555 0.98758 0.03052 0.0
C458 C 0.55005 0.04366 0.01949 0.0
O459 O 0.53756 0.05893 0.012 0.0
C460 C 0.45735 0.95702 0.00419 0.0
O461 O 0.46962 0.94208 0.01285 0.0
O462 O 0.52205 0.02364 0.95895 0.0
O463 O 0.50659 0.9781 0.98258 0.0
O464 O 0.5209 0.97131 0.01812 0.0
C465 C 0.54193 0.01883 0.95362 0.0
O466 O 0.55436 0.00893 0.96904 0.0
O467 O 0.54264 0.02213 0.01329 0.0
C468 C 0.49727 0.98436 0.08101 0.0
O469 O 0.51765 -0.00176 0.08113 0.0
O470 O 0.48607 0.9756 0.06097 0.0
O471 O 0.50184 0.02195 0.0391 0.0
O472 O 0.48817 0.0303 0.0039 0.0
O473 O 0.46566 0.9786 0.00829 0.0
C474 C 0.51747 0.96576 -0.00449 0.0
C475 C 0.49167 0.03516 0.02667 0.0
Zn476 Zn 0.2666 0.2353 0.2569 0.0
Zn477 Zn 0.258 0.28407 0.28278 0.0
C478 C 0.30624 0.24619 0.2337 0.0
O479 O 0.28995 0.23495 0.21707 0.0
C480 C 0.21905 0.27046 0.30675 0.0
O481 O 0.23541 0.28034 0.32396 0.0
O482 O 0.26743 0.20082 0.2497 0.0
O483 O 0.25604 0.23717 0.29035 0.0
O484 O 0.27795 0.2697 0.30706 0.0
C485 C 0.28127 0.19525 0.26625 0.0
O486 O 0.29227 0.2116 0.28284 0.0
O487 O 0.30069 0.24989 0.25514 0.0
C488 C 0.24458 0.326 0.27674 0.0
O489 O 0.23403 0.31178 0.2581 0.0
O490 O 0.25748 0.31822 0.29252 0.0
O491 O 0.26641 0.2832 0.24824 0.0
O492 O 0.24794 0.24885 0.23135 0.0
O493 O 0.22408 0.26939 0.28498 0.0
C494 C 0.269 0.24859 0.30835 0.0
C495 C 0.25593 0.27016 0.22977 0.0
Zn496 Zn 0.51504 0.4808 0.02569 0.0
Zn497 Zn 0.50127 0.52875 0.01834 0.0
C498 C 0.54893 0.4934 0.06599 0.0
O499 O 0.56238 0.48763 0.04928 0.0
C500 C 0.47092 0.51378 0.97584 0.0
O501 O 0.45685 0.52333 0.98964 0.0
O502 O 0.51695 0.44653 0.02492 0.0
O503 O 0.47993 0.48106 0.02009 0.0
O504 O 0.47832 0.51473 0.04027 0.0
C505 C 0.50322 0.43744 0.03951 0.0
O506 O 0.49104 0.45076 0.0518 0.0
O507 O 0.52703 0.49289 0.06021 0.0
C508 C 0.50943 0.56924 -0.00283 0.0
O509 O 0.52187 0.55536 0.98602 0.0
O510 O 0.49807 0.56205 0.01439 0.0
O511 O 0.53568 0.52941 0.02716 0.0
O512 O 0.53723 0.49752 0.0039 0.0
O513 O 0.49168 0.51261 0.98463 0.0
C514 C 0.46892 0.49382 0.03313 0.0
C515 C 0.54632 0.5183 0.01215 0.0
Zn516 Zn 0.75981 0.28635 0.26438 0.0
Zn517 Zn 0.76213 0.23601 0.26823 0.0
C518 C 0.72088 0.27915 0.22979 0.0
O519 O 0.73641 0.29338 0.21987 0.0
C520 C 0.80293 0.24792 0.30183 0.0
O521 O 0.78904 0.23498 0.31467 0.0
O522 O 0.75915 0.32094 0.26497 0.0
O523 O 0.76319 0.27903 0.29878 0.0
O524 O 0.73945 0.24516 0.29187 0.0
C525 C 0.76119 0.33481 0.28424 0.0
O526 O 0.76753 0.32757 0.30488 0.0
O527 O 0.72684 0.27262 0.25007 0.0
C528 C 0.78223 0.19719 0.25572 0.0
O529 O 0.79396 0.21378 0.24495 0.0
O530 O 0.76508 0.2018 0.26734 0.0
O531 O 0.75677 0.24279 0.23391 0.0
O532 O 0.78206 0.27568 0.24084 0.0
O533 O 0.79495 0.25186 0.28109 0.0
C534 C 0.74788 0.26356 0.30577 0.0
C535 C 0.77257 0.25769 0.22678 0.0
Zn536 Zn 0.01775 0.51481 0.49362 0.0
Zn537 Zn 0.99185 0.49135 0.53454 0.0
C538 C 0.05365 0.55121 0.51514 0.0
O539 O 0.04077 0.56299 0.5022 0.0
C540 C 0.95715 0.46226 0.5029 0.0
O541 O 0.9675 0.44724 0.51391 0.0
O542 O 0.02496 0.52158 0.46017 0.0
O543 O 0.01615 0.47992 0.49174 0.0
O544 O 0.01508 0.47012 0.52891 0.0
C545 C 0.04387 0.51471 0.45455 0.0
O546 O 0.05636 0.50585 0.47084 0.0
O547 O 0.04701 0.52945 0.51495 0.0
C548 C 0.95883 0.49732 0.56614 0.0
O549 O 0.95424 0.51015 0.54892 0.0
O550 O 0.97534 0.48539 0.56425 0.0
O551 O 0.0048 0.52524 0.54035 0.0
O552 O 0.99172 0.53184 0.5044 0.0
O553 O 0.96553 0.48379 0.50759 0.0
C554 C 0.01969 0.46603 0.50727 0.0
C555 C -0.00474 0.53805 0.52693 0.0
Zn556 Zn 0.78711 0.75186 0.25962 0.0
Zn557 Zn 0.74039 0.76652 0.26989 0.0
C558 C 0.7746 0.7208 0.21805 0.0
O559 O 0.78513 0.70881 0.23296 0.0
C560 C 0.75454 0.79703 0.31143 0.0
O561 O 0.74706 0.81029 0.29586 0.0
O562 O 0.82106 0.74843 0.25767 0.0
O563 O 0.78906 0.7865 0.26776 0.0
O564 O 0.75519 0.78973 0.24867 0.0
C565 C 0.83026 0.76089 0.24231 0.0
O566 O 0.81713 0.77335 0.23059 0.0
O567 O 0.77237 0.74148 0.22538 0.0
C568 C 0.69733 0.75494 0.28671 0.0
O569 O 0.70981 0.73994 0.2948 0.0
O570 O 0.70664 0.76979 0.27357 0.0
O571 O 0.73894 0.73243 0.2594 0.0
O572 O 0.77132 0.72906 0.28102 0.0
O573 O 0.75492 0.77582 0.30436 0.0
C574 C 0.77669 0.79814 0.25547 0.0
C575 C 0.7504 0.72042 0.27215 0.0
Zn576 Zn 0.74578 0.23569 0.78769 0.0
Zn577 Zn 0.77252 0.26131 0.74569 0.0
C578 C 0.71467 0.1997 0.7554 0.0
O579 O 0.69928 0.21379 0.75804 0.0
C580 C 0.80416 0.29756 0.77478 0.0
O581 O 0.81932 0.28461 0.7673 0.0
O582 O 0.73696 0.22661 0.82016 0.0
O583 O 0.7813 0.24246 0.79286 0.0
O584 O 0.79001 0.23632 0.75542 0.0
C585 C 0.74531 0.2086 0.82512 0.0
O586 O 0.75704 0.1986 0.80911 0.0
O587 O 0.73571 0.20601 0.76515 0.0
C588 C 0.77834 0.29148 0.70988 0.0
O589 O 0.76948 0.30385 0.72657 0.0
O590 O 0.78221 0.27132 0.71379 0.0
O591 O 0.73754 0.25356 0.73997 0.0
O592 O 0.72811 0.26077 0.77694 0.0
O593 O 0.78218 0.29016 0.76949 0.0
C594 C 0.79478 0.23555 0.77783 0.0
C595 C 0.72473 0.26236 0.75447 0.0
Zn596 Zn 0.76392 0.73354 0.75251 0.0
Zn597 Zn 0.75911 0.78138 0.78091 0.0
C598 C 0.80253 0.74449 0.72629 0.0
O599 O 0.78554 0.7353 0.70941 0.0
C600 C 0.72091 0.76412 0.80457 0.0
O601 O 0.73713 0.77351 0.82212 0.0
O602 O 0.76195 0.69958 0.74047 0.0
O603 O 0.76022 0.73309 0.78796 0.0
O604 O 0.78046 0.76709 0.8035 0.0
C605 C 0.75185 0.6834 0.75167 0.0
O606 O 0.73801 0.68855 0.76823 0.0
O607 O 0.79768 0.74657 0.7481 0.0
C608 C 0.76453 0.83172 0.7822 0.0
O609 O 0.77803 0.8286 0.76473 0.0
O610 O 0.75675 0.8145 0.79327 0.0
O611 O 0.76681 0.78242 0.74655 0.0
O612 O 0.74366 0.75009 0.73083 0.0
O613 O 0.72583 0.76476 0.78285 0.0
C614 C 0.77322 0.74568 0.80528 0.0
C615 C 0.75394 0.77061 0.72869 0.0
Zn616 Zn 0.53603 0.50317 0.5361 0.0
Zn617 Zn 0.49347 0.5204 0.50603 0.0
C618 C 0.52027 0.45376 0.52605 0.0
O619 O 0.53674 0.45552 0.51103 0.0
C620 C 0.51419 0.55672 0.48176 0.0
O621 O 0.50558 0.54039 0.46412 0.0
O622 O 0.56731 0.49709 0.55011 0.0
O623 O 0.54154 0.51001 0.50212 0.0
O624 O 0.50588 0.49618 0.48476 0.0
C625 C 0.58661 0.50589 0.54249 0.0
O626 O 0.58647 0.52209 0.52781 0.0
O627 O 0.51532 0.47219 0.53684 0.0
C628 C 0.45578 0.54357 0.50121 0.0
O629 O 0.47121 0.55741 0.51687 0.0
O630 O 0.46095 0.52435 0.49251 0.0
O631 O 0.48806 0.51568 0.5404 0.0
O632 O 0.52385 0.52583 0.55923 0.0
O633 O 0.51332 0.55183 0.50338 0.0
C634 C 0.5281 0.50043 0.4836 0.0
C635 C 0.50154 0.52332 0.55949 0.0
Zn636 Zn 0.98941 0.53634 0.02899 0.0
Zn637 Zn 0.02803 0.49324 0.0036 0.0
C638 C 0.00654 0.57304 0.06576 0.0
O639 O -0.00471 0.55774 0.07839 0.0
C640 C 0.98754 0.45761 0.98431 0.0
O641 O 0.98344 0.47243 0.96896 0.0
O642 O 0.955 0.53907 0.02807 0.0
O643 O -0.0027 0.53083 0.99415 0.0
O644 O 0.02064 0.51 0.97533 0.0
C645 C 0.94968 0.5562 0.01776 0.0
O646 O 0.96647 0.57008 0.00907 0.0
O647 O 0.00716 0.56766 0.04331 0.0
C648 C 0.06003 0.463 0.01334 0.0
O649 O 0.0415 0.45392 0.02362 0.0
O650 O 0.05916 0.48125 0.00282 0.0
O651 O 0.02948 0.51488 0.03346 0.0
O652 O -0.00256 0.51316 0.05169 0.0
O653 O 0.00307 0.46428 0.00209 0.0
C654 C 0.00602 0.52414 0.97496 0.0
C655 C 0.01765 0.50753 0.05012 0.0
H656 H 0.02588 0.20476 0.96441 0.0
H657 H 0.98879 0.16406 0.90022 0.0
H658 H 0.03069 0.16876 0.98196 0.0
H659 H 0.99335 0.12856 0.91768 0.0
H660 H 0.02555 0.06986 0.93971 0.0
H661 H 0.02686 0.10862 0.92709 0.0
H662 H 0.00685 0.13318 -0.00351 0.0
H663 H 0.00598 0.09421 0.00935 0.0
C664 C 0.01858 0.18819 0.95417 0.0
C665 C 0.00712 0.18725 0.93085 0.0
C666 C 0.02135 0.16763 0.9642 0.0
C667 C 0.01283 0.14586 0.95099 0.0
C668 C 0.00069 0.14505 0.92806 0.0
C669 C -0.00211 0.16545 0.91813 0.0
C670 C 0.02193 0.08365 0.95247 0.0
C671 C 0.01539 0.07901 0.97537 0.0
C672 C 0.02252 0.1058 0.9452 0.0
C673 C 0.01636 0.12378 0.96059 0.0
C674 C 0.01162 0.11965 0.98424 0.0
C675 C 0.01118 0.09738 0.9916 0.0
H676 H 0.12427 0.82326 0.16853 0.0
H677 H 0.08831 0.80356 0.2303 0.0
H678 H 0.16196 0.82014 0.19001 0.0
H679 H 0.12571 0.79946 0.25134 0.0
H680 H 0.21006 0.77021 0.21544 0.0
H681 H 0.17702 0.78601 0.19854 0.0
H682 H 0.16513 0.81447 0.26983 0.0
H683 H 0.19823 0.79783 0.28704 0.0
C684 C 0.12447 0.8186 0.18681 0.0
C685 C 0.10333 0.81318 0.19754 0.0
C686 C 0.14602 0.81669 0.19909 0.0
C687 C 0.14677 0.80901 0.22218 0.0
C688 C 0.12582 0.80548 0.23363 0.0
C689 C 0.10432 0.80767 0.22147 0.0
C690 C 0.20053 0.7799 0.22761 0.0
C691 C 0.20658 0.78249 0.25265 0.0
C692 C 0.18171 0.78929 0.21783 0.0
C693 C 0.16846 0.80166 0.23279 0.0
C694 C 0.17489 0.80487 0.25784 0.0
C695 C 0.19383 0.79538 0.26769 0.0
H696 H 0.48703 0.81465 0.44673 0.0
H697 H 0.51784 0.85002 0.38944 0.0
H698 H 0.48195 0.8521 0.46722 0.0
H699 H 0.5135 0.88704 0.41002 0.0
H700 H 0.48812 0.94957 0.43775 0.0
H701 H 0.48427 0.90968 0.41927 0.0
H702 H 0.50401 0.88792 0.48863 0.0
H703 H 0.50671 0.92787 0.50726 0.0
C704 C 0.49282 0.83038 0.43858 0.0
C705 C 0.5027 0.82931 0.41637 0.0
C706 C 0.48993 0.85183 0.45033 0.0
C707 C 0.49695 0.8726 0.44011 0.0
C708 C 0.5072 0.87141 0.41812 0.0
C709 C 0.50991 0.85011 0.40638 0.0
C710 C 0.49099 0.93611 0.44912 0.0
C711 C 0.49783 0.94174 0.47384 0.0
C712 C 0.48905 0.91329 0.43853 0.0
C713 C 0.4945 0.89567 0.45233 0.0
C714 C 0.49967 0.90102 0.47745 0.0
C715 C 0.50119 0.92389 0.48815 0.0
H716 H 0.48038 0.25159 0.7341 0.0
H717 H 0.45508 0.27881 0.66962 0.0
H718 H 0.44234 0.2526 0.7501 0.0
H719 H 0.41695 0.27926 0.68539 0.0
H720 H 0.36125 0.30132 0.72997 0.0
H721 H 0.40044 0.30074 0.71693 0.0
H722 H 0.40092 0.23394 0.74354 0.0
H723 H 0.3617 0.23479 0.75718 0.0
C724 C 0.46667 0.25765 0.72327 0.0
C725 C 0.47081 0.26523 0.70062 0.0
C726 C 0.44484 0.25812 0.73241 0.0
C727 C 0.4267 0.26614 0.7191 0.0
C728 C 0.43073 0.2734 0.69631 0.0
C729 C 0.45255 0.273 0.68719 0.0
C730 C 0.36977 0.28658 0.73323 0.0
C731 C 0.35836 0.26801 0.74445 0.0
C732 C 0.39217 0.28618 0.7256 0.0
C733 C 0.40362 0.26714 0.72886 0.0
C734 C 0.39258 0.24892 0.74087 0.0
C735 C 0.37013 0.24938 0.74866 0.0
H736 H 0.00679 0.83212 0.63263 0.0
H737 H 0.00941 0.79525 0.56249 0.0
H738 H 0.00614 0.86796 0.61432 0.0
H739 H 0.00856 0.83151 0.54402 0.0
H740 H 0.03167 0.91093 0.52956 0.0
H741 H 0.03322 0.87269 0.54374 0.0
H742 H 0.97586 0.88127 0.58725 0.0
H743 H 0.97438 0.91899 0.57347 0.0
C744 C 0.00723 0.83165 0.61327 0.0
C745 C 0.00793 0.81079 0.59899 0.0
C746 C 0.00679 0.8522 0.60277 0.0
C747 C 0.00703 0.85245 0.57771 0.0
C748 C 0.0084 0.83178 0.56339 0.0
C749 C 0.00875 0.81106 0.57394 0.0
C750 C 0.01928 0.90446 0.54194 0.0
C751 C 0.00318 0.91812 0.5507 0.0
C752 C 0.02013 0.88261 0.55 0.0
C753 C 0.00493 0.87425 0.56691 0.0
C754 C 0.98815 0.88749 0.57465 0.0
C755 C 0.9873 0.90912 0.56668 0.0
H756 H 0.44382 0.74261 0.87443 0.0
H757 H 0.45662 0.79471 0.82509 0.0
H758 H 0.4015 0.74041 0.86573 0.0
H759 H 0.41409 0.79315 0.81701 0.0
H760 H 0.3373 0.7607 0.78715 0.0
H761 H 0.37993 0.7682 0.79707 0.0
H762 H 0.36986 0.76102 0.87194 0.0
H763 H 0.32719 0.75258 0.86178 0.0
C764 C 0.43758 0.75375 0.86185 0.0
C765 C 0.45358 0.76878 0.85039 0.0
C766 C 0.41327 0.75266 0.85704 0.0
C767 C 0.40433 0.76676 0.84082 0.0
C768 C 0.42035 0.78188 0.8294 0.0
C769 C 0.44473 0.7828 0.83406 0.0
C770 C 0.34419 0.76111 0.8058 0.0
C771 C 0.32893 0.7558 0.82367 0.0
C772 C 0.36866 0.76548 0.81151 0.0
C773 C 0.37837 0.76489 0.83526 0.0
C774 C 0.363 0.76101 0.85336 0.0
C775 C 0.33854 0.75637 0.84759 0.0
H776 H 0.47143 0.14614 0.13248 0.0
H777 H 0.49621 0.181 0.07238 0.0
H778 H 0.46586 0.10886 0.10781 0.0
H779 H 0.49188 0.14346 0.04788 0.0
H780 H 0.49831 0.04941 0.07456 0.0
H781 H 0.49359 0.08618 0.09506 0.0
H782 H 0.46852 0.10796 0.02741 0.0
H783 H 0.47416 0.07086 0.00644 0.0
C784 C 0.47551 0.14579 0.11388 0.0
C785 C 0.48457 0.16636 0.10442 0.0
C786 C 0.47247 0.12443 0.09976 0.0
C787 C 0.47901 0.12306 0.07602 0.0
C788 C 0.4866 0.14384 0.06604 0.0
C789 C 0.48918 0.16535 0.08009 0.0
C790 C 0.49163 0.06189 0.06394 0.0
C791 C 0.48672 0.05719 0.03879 0.0
C792 C 0.48866 0.083 0.0758 0.0
C793 C 0.48043 0.10005 0.06298 0.0
C794 C 0.47502 0.09526 0.03782 0.0
C795 C 0.47813 0.07399 0.02583 0.0
H796 H 0.06796 0.24157 0.32683 0.0
H797 H 0.10741 0.26475 0.39612 0.0
H798 H 0.10494 0.24023 0.30848 0.0
H799 H 0.14414 0.26447 0.37782 0.0
H800 H 0.17678 0.27275 0.28208 0.0
H801 H 0.13786 0.26561 0.29726 0.0
H802 H 0.169 0.241 0.36075 0.0
H803 H 0.20783 0.24944 0.34611 0.0
C804 C 0.08454 0.24637 0.33812 0.0
C805 C 0.08482 0.25327 0.3629 0.0
C806 C 0.10572 0.24572 0.3276 0.0
C807 C 0.12758 0.25216 0.34163 0.0
C808 C 0.1277 0.25883 0.36649 0.0
C809 C 0.1066 0.25921 0.37701 0.0
C810 C 0.17508 0.26541 0.29904 0.0
C811 C 0.19517 0.26193 0.31314 0.0
C812 C 0.15282 0.26125 0.30776 0.0
C813 C 0.15032 0.25317 0.33051 0.0
C814 C 0.17033 0.24794 0.34356 0.0
C815 C 0.19255 0.25257 0.33511 0.0
H816 H 0.95364 0.02446 0.20083 0.0
H817 H 0.88936 0.02718 0.15669 0.0
H818 H 0.97571 0.02656 0.16543 0.0
H819 H 0.91151 0.03015 0.12142 0.0
H820 H 0.01233 0.04677 0.09912 0.0
H821 H 0.9908 0.04971 0.13503 0.0
H822 H 0.92974 0.00514 0.09608 0.0
H823 H 0.95073 0.00289 0.06037 0.0
C824 C 0.94428 0.02583 0.1836 0.0
C825 C 0.9197 0.0254 0.1815 0.0
C826 C 0.95697 0.02721 0.16331 0.0
C827 C 0.94541 0.02835 0.14047 0.0
C828 C 0.92095 0.02879 0.13861 0.0
C829 C 0.90823 0.02721 0.15885 0.0
C830 C 0.99425 0.03778 0.09825 0.0
C831 C 0.9833 0.0246 0.07686 0.0
C832 C 0.98194 0.03934 0.11885 0.0
C833 C 0.95846 0.02773 0.11848 0.0
C834 C 0.94758 0.01472 0.09699 0.0
C835 C 0.95977 0.01326 0.07648 0.0
H836 H 0.27013 0.70357 0.4848 0.0
H837 H 0.23907 0.63505 0.4506 0.0
H838 H 0.26431 0.71949 0.44631 0.0
H839 H 0.23276 0.65098 0.41252 0.0
H840 H 0.25911 0.68031 0.34519 0.0
H841 H 0.2596 0.66595 0.38432 0.0
H842 H 0.2347 0.72719 0.41439 0.0
H843 H 0.23462 0.742 0.3748 0.0
C844 C 0.26183 0.69198 0.46915 0.0
C845 C 0.25539 0.66802 0.47061 0.0
C846 C 0.25834 0.70112 0.44718 0.0
C847 C 0.24829 0.68644 0.42635 0.0
C848 C 0.24096 0.66266 0.42815 0.0
C849 C 0.24455 0.65354 0.44998 0.0
C850 C 0.25358 0.69075 0.36003 0.0
C851 C 0.24686 0.71234 0.35689 0.0
C852 C 0.2537 0.68239 0.38248 0.0
C853 C 0.24706 0.69536 0.40243 0.0
C854 C 0.24004 0.71688 0.39934 0.0
C855 C 0.23985 0.72528 0.37669 0.0
H856 H 0.61229 0.9567 0.65587 0.0
H857 H 0.55173 0.95488 0.69711 0.0
H858 H 0.58779 0.96237 0.62004 0.0
H859 H 0.52743 0.96102 0.66141 0.0
H860 H 0.48895 0.96596 0.58633 0.0
H861 H 0.50973 0.94858 0.61821 0.0
H862 H 0.5726 -0.00098 0.61454 0.0
H863 H 0.55226 0.01623 0.58338 0.0
C864 C 0.59366 0.95695 0.65717 0.0
C865 C 0.58408 0.95591 0.67942 0.0
C866 C 0.57965 0.96029 0.63669 0.0
C867 C 0.55585 0.96268 0.63813 0.0
C868 C 0.5457 0.95929 0.65978 0.0
C869 C 0.5597 0.9559 0.68026 0.0
C870 C 0.50715 0.97334 0.59252 0.0
C871 C 0.51893 0.99244 0.58229 0.0
C872 C 0.51905 0.96333 0.6106 0.0
C873 C 0.54293 0.97214 0.61844 0.0
C874 C 0.55443 0.99141 0.60841 0.0
C875 C 0.5426 0.00146 0.59071 0.0
H876 H 0.27186 0.33206 0.96929 0.0
H877 H 0.2383 0.38306 0.93516 0.0
H878 H 0.27611 0.31269 0.92949 0.0
H879 H 0.24195 0.36357 0.8959 0.0
H880 H 0.26893 0.34021 0.82838 0.0
H881 H 0.27194 0.35794 0.86985 0.0
H882 H 0.25297 0.29 0.89384 0.0
H883 H 0.25086 0.27218 0.85211 0.0
C884 C 0.2653 0.33906 0.95336 0.0
C885 C 0.2549 0.35922 0.95542 0.0
C886 C 0.26769 0.32795 0.93058 0.0
C887 C 0.25972 0.33679 0.9095 0.0
C888 C 0.24892 0.35665 0.91171 0.0
C889 C 0.24664 0.36775 0.93431 0.0
C890 C 0.26585 0.32905 0.84259 0.0
C891 C 0.25941 0.3049 0.83711 0.0
C892 C 0.2674 0.33919 0.86632 0.0
C893 C 0.26207 0.32544 0.88509 0.0
C894 C 0.25718 0.30108 0.87981 0.0
C895 C 0.25597 0.29086 0.85595 0.0
H896 H 0.94928 0.97592 0.31398 0.0
H897 H 0.89982 0.0225 0.32854 0.0
H898 H 0.95876 0.97556 0.35706 0.0
H899 H 0.90984 0.02269 0.37169 0.0
H900 H 0.91634 0.00308 0.44737 0.0
H901 H 0.90552 -0.00128 0.40402 0.0
H902 H 0.97887 9e-05 0.39159 0.0
H903 H 0.98957 0.00377 0.43495 0.0
C904 C 0.94052 0.98622 0.32636 0.0
C905 C 0.92379 -0.00072 0.31776 0.0
C906 C 0.94604 0.98607 0.35111 0.0
C907 C 0.93506 -0.00095 0.3679 0.0
C908 C 0.91835 0.01214 0.35929 0.0
C909 C 0.91273 0.0122 0.33452 0.0
C910 C 0.9301 0.00209 0.43537 0.0
C911 C 0.95382 0.00385 0.4446 0.0
C912 C 0.92393 -0.00019 0.4105 0.0
C913 C 0.94135 -0.0006 0.39427 0.0
C914 C 0.96495 0.00017 0.40352 0.0
C915 C 0.97111 0.00229 0.42841 0.0
H916 H 0.318 0.65379 0.63463 0.0
H917 H 0.28834 0.70342 0.59456 0.0
H918 H 0.32076 0.68012 0.67153 0.0
H919 H 0.29046 0.72951 0.63174 0.0
H920 H 0.29725 0.77022 0.7086 0.0
H921 H 0.31216 0.75324 0.67197 0.0
H922 H 0.28196 0.68459 0.6878 0.0
H923 H 0.26703 0.70108 0.72327 0.0
C924 C 0.31279 0.67065 0.63359 0.0
C925 C 0.30242 0.67635 0.6119 0.0
C926 C 0.31439 0.68573 0.65469 0.0
C927 C 0.30525 0.70655 0.65454 0.0
C928 C 0.29762 0.71356 0.63235 0.0
C929 C 0.29632 0.69857 0.61109 0.0
C930 C 0.29405 0.75152 0.70421 0.0
C931 C 0.28092 0.73702 0.71879 0.0
C932 C 0.30259 0.74185 0.68337 0.0
C933 C 0.29859 0.71759 0.67733 0.0
C934 C 0.28587 0.70329 0.69225 0.0
C935 C 0.27704 0.71284 0.71253 0.0
H936 H 0.55932 0.02918 0.80111 0.0
H937 H 0.60653 0.98415 0.82572 0.0
H938 H 0.54941 0.0374 0.84212 0.0
H939 H 0.59589 0.99159 0.86667 0.0
H940 H 0.51508 0.02146 0.9118 0.0
H941 H 0.52756 0.01898 0.87114 0.0
H942 H 0.59949 0.01977 0.90054 0.0
H943 H 0.58673 0.02124 0.94102 0.0
C944 C 0.56751 0.02094 0.81529 0.0
C945 C 0.58363 0.00592 0.81018 0.0
C946 C 0.56174 0.02558 0.83881 0.0
C947 C 0.57175 0.01511 0.85773 0.0
C948 C 0.58813 0.00029 0.85263 0.0
C949 C 0.59413 0.99587 0.82913 0.0
C950 C 0.5336 0.02148 0.90954 0.0
C951 C 0.5499 0.02132 0.92949 0.0
C952 C 0.54081 0.0201 0.88624 0.0
C953 C 0.56451 0.01886 0.88252 0.0
C954 C 0.581 0.02007 0.90268 0.0
C955 C 0.57374 0.02113 0.9259 0.0
H956 H 0.28811 0.36006 0.11903 0.0
H957 H 0.23246 0.30722 0.08232 0.0
H958 H 0.28813 0.33889 0.15432 0.0
H959 H 0.23152 0.28645 0.11822 0.0
H960 H 0.24808 0.24698 0.18375 0.0
H961 H 0.25026 0.26433 0.14561 0.0
H962 H 0.26362 0.33288 0.18521 0.0
H963 H 0.26271 0.31575 0.22272 0.0
C964 C 0.27586 0.34387 0.11854 0.0
C965 C 0.26015 0.33541 0.09802 0.0
C966 C 0.2757 0.33178 0.13885 0.0
C967 C 0.25943 0.31117 0.13942 0.0
C968 C 0.24435 0.30218 0.11846 0.0
C969 C 0.24481 0.31413 0.09791 0.0
C970 C 0.25141 0.26574 0.18418 0.0
C971 C 0.25528 0.27995 0.20629 0.0
C972 C 0.25262 0.2757 0.16234 0.0
C973 C 0.25751 0.30005 0.16226 0.0
C974 C 0.26057 0.31409 0.18445 0.0
C975 C 0.25973 0.30421 0.20608 0.0
H976 H 0.15887 0.90301 0.03614 0.0
H977 H 0.2156 0.95899 0.02822 0.0
H978 H 0.13302 0.93125 0.04483 0.0
H979 H 0.19005 0.98724 0.0376 0.0
H980 H 0.12636 0.02392 0.0183 0.0
H981 H 0.1567 -0.00044 0.01762 0.0
H982 H 0.12507 0.9621 0.07317 0.0
H983 H 0.09426 0.98613 0.0734 0.0
C984 C 0.16589 0.92135 0.03655 0.0
C985 C 0.18916 0.92875 0.03124 0.0
C986 C 0.15116 0.93758 0.04175 0.0
C987 C 0.15945 0.96155 0.04189 0.0
C988 C 0.18299 0.96892 0.0373 0.0
C989 C 0.19765 0.95271 0.03197 0.0
C990 C 0.12615 0.01086 0.03079 0.0
C991 C 0.10767 0.00677 0.04564 0.0
C992 C 0.14362 0.99688 0.03043 0.0
C993 C 0.14309 0.97859 0.04505 0.0
C994 C 0.12566 0.97568 0.06127 0.0
C995 C 0.10813 0.98963 0.06157 0.0
H996 H 0.68976 0.56057 0.97645 0.0
H997 H 0.65786 0.62218 0.97312 0.0
H998 H 0.65154 0.53805 0.98224 0.0
H999 H 0.61951 0.59951 0.97829 0.0
H1000 H 0.56838 0.56261 0.02631 0.0
H1001 H 0.60429 0.58305 0.01317 0.0
H1002 H 0.6106 0.52208 0.96594 0.0
H1003 H 0.57441 0.50121 0.97953 0.0
C1004 C 0.67448 0.5692 0.97643 0.0
C1005 C 0.67688 0.59324 0.97472 0.0
C1006 C 0.65255 0.55625 0.97963 0.0
C1007 C 0.63256 0.56706 0.9811 0.0
C1008 C 0.6347 0.59078 0.97777 0.0
C1009 C 0.65663 0.60375 0.97467 0.0
C1010 C 0.57734 0.55344 0.01312 0.0
C1011 C 0.56853 0.5302 0.00403 0.0
C1012 C 0.59785 0.56531 0.00537 0.0
C1013 C 0.61018 0.55431 0.98829 0.0
C1014 C 0.6015 0.53101 0.97918 0.0
C1015 C 0.58081 0.51907 0.98694 0.0
H1016 H 0.65719 0.42285 0.27635 0.0
H1017 H 0.71916 0.47292 0.30438 0.0
H1018 H 0.68118 0.39216 0.27406 0.0
H1019 H 0.74317 0.44195 0.30232 0.0
H1020 H 0.76596 0.37036 0.32073 0.0
H1021 H 0.74573 0.40405 0.32232 0.0
H1022 H 0.71474 0.38277 0.24926 0.0
H1023 H 0.73502 0.34927 0.24748 0.0
C1024 C 0.67591 0.42729 0.28219 0.0
C1025 C 0.68627 0.45033 0.29055 0.0
C1026 C 0.68967 0.40973 0.28068 0.0
C1027 C 0.71407 0.41471 0.28781 0.0
C1028 C 0.7244 0.43764 0.29672 0.0
C1029 C 0.71066 0.45533 0.29787 0.0
C1030 C 0.75517 0.37309 0.30485 0.0
C1031 C 0.75204 0.35705 0.28402 0.0
C1032 C 0.74362 0.3924 0.30578 0.0
C1033 C 0.72846 0.39585 0.28602 0.0
C1034 C 0.72609 0.38036 0.26487 0.0
C1035 C 0.73787 0.36127 0.26381 0.0
H1036 H 0.82148 0.38855 0.49896 0.0
H1037 H 0.80651 0.44085 0.45319 0.0
H1038 H 0.86353 0.40126 0.49751 0.0
H1039 H 0.8489 0.45339 0.45145 0.0
H1040 H 0.92315 0.48845 0.49265 0.0
H1041 H 0.88133 0.47383 0.48086 0.0
H1042 H 0.8959 0.40364 0.47196 0.0
H1043 H 0.9376 0.41822 0.4843 0.0
C1044 C 0.82714 0.40256 0.48829 0.0
C1045 C 0.81062 0.41382 0.47639 0.0
C1046 C 0.8513 0.40971 0.48726 0.0
C1047 C 0.85956 0.42831 0.4743 0.0
C1048 C 0.84305 0.43911 0.46171 0.0
C1049 C 0.8188 0.43188 0.46267 0.0
C1050 C 0.91752 0.46998 0.4875 0.0
C1051 C 0.93352 0.45441 0.48986 0.0
C1052 C 0.89355 0.46159 0.48069 0.0
C1053 C 0.88526 0.43753 0.47599 0.0
C1054 C 0.90169 0.42223 0.47606 0.0
C1055 C 0.92558 0.43059 0.48301 0.0
H1056 H 0.37158 0.10071 0.29276 0.0
H1057 H 0.31454 0.05284 0.2511 0.0
H1058 H 0.34821 0.13164 0.29131 0.0
H1059 H 0.29098 0.08418 0.24958 0.0
H1060 H 0.27853 0.16032 0.22895 0.0
H1061 H 0.29432 0.12388 0.2309 0.0
H1062 H 0.3108 0.1405 0.30782 0.0
H1063 H 0.29538 0.17655 0.30591 0.0
C1064 C 0.35396 0.09675 0.28343 0.0
C1065 C 0.34487 0.07434 0.27212 0.0
C1066 C 0.34052 0.11445 0.28268 0.0
C1067 C 0.31773 0.11026 0.27043 0.0
C1068 C 0.30852 0.08785 0.25909 0.0
C1069 C 0.32192 0.06995 0.26011 0.0
C1070 C 0.28503 0.15582 0.24628 0.0
C1071 C 0.28619 0.17141 0.26719 0.0
C1072 C 0.29403 0.13503 0.24741 0.0
C1073 C 0.30418 0.12966 0.26946 0.0
C1074 C 0.30355 0.14445 0.29053 0.0
C1075 C 0.2947 0.16508 0.2894 0.0
H1076 H 0.32122 0.11122 0.4972 0.0
H1077 H 0.28688 0.04866 0.52364 0.0
H1078 H 0.35843 0.09647 0.49914 0.0
H1079 H 0.32388 0.03359 0.52482 0.0
H1080 H 0.40062 0.02554 0.5479 0.0
H1081 H 0.3625 0.03897 0.54618 0.0
H1082 H 0.37709 0.0676 0.47943 0.0
H1083 H 0.41524 0.0549 0.48161 0.0
C1084 C 0.32155 0.09425 0.50325 0.0
C1085 C 0.30106 0.08114 0.51025 0.0
C1086 C 0.34287 0.08571 0.50424 0.0
C1087 C 0.34416 0.06377 0.51205 0.0
C1088 C 0.32363 0.05067 0.51903 0.0
C1089 C 0.30236 0.05928 0.5182 0.0
C1090 C 0.39552 0.03453 0.5328 0.0
C1091 C 0.41095 0.03933 0.51501 0.0
C1092 C 0.37368 0.0422 0.53176 0.0
C1093 C 0.36682 0.05463 0.51279 0.0
C1094 C 0.38201 0.05863 0.49461 0.0
C1095 C 0.40383 0.05118 0.49577 0.0
H1096 H 0.64395 0.60675 0.29649 0.0
H1097 H 0.70481 0.57298 0.28945 0.0
H1098 H 0.66853 0.64429 0.29505 0.0
H1099 H 0.72954 0.61089 0.28745 0.0
H1100 H 0.76739 0.68941 0.30048 0.0
H1101 H 0.74628 0.65132 0.30839 0.0
H1102 H 0.68644 0.66044 0.26087 0.0
H1103 H 0.707 0.69797 0.25328 0.0
C1104 C 0.66266 0.60736 0.29484 0.0
C1105 C 0.67235 0.58685 0.29269 0.0
C1106 C 0.67675 0.6289 0.29392 0.0
C1107 C 0.70087 0.63051 0.29057 0.0
C1108 C 0.71099 0.61019 0.29001 0.0
C1109 C 0.69684 0.5885 0.29112 0.0
C1110 C 0.74975 0.68317 0.29173 0.0
C1111 C 0.73883 0.69685 0.27642 0.0
C1112 C 0.73771 0.66138 0.29622 0.0
C1113 C 0.71453 0.65306 0.28559 0.0
C1114 C 0.70402 0.66656 0.26985 0.0
C1115 C 0.71595 0.68809 0.26535 0.0
H1116 H 0.83249 0.45018 0.79766 0.0
H1117 H 0.89185 0.4247 0.76822 0.0
H1118 H 0.81517 0.41041 0.80363 0.0
H1119 H 0.87439 0.38535 0.77347 0.0
H1120 H 0.84819 0.31712 0.79525 0.0
H1121 H 0.86485 0.35839 0.80169 0.0
H1122 H 0.79654 0.3751 0.77941 0.0
H1123 H 0.77972 0.33386 0.77399 0.0
C1124 C 0.84188 0.43616 0.79254 0.0
C1125 C 0.86353 0.44066 0.78238 0.0
C1126 C 0.83192 0.41337 0.7959 0.0
C1127 C 0.84341 0.39463 0.78916 0.0
C1128 C 0.86524 0.3993 0.77941 0.0
C1129 C 0.87518 0.42196 0.77614 0.0
C1130 C 0.83662 0.32965 0.79233 0.0
C1131 C 0.81275 0.32225 0.7838 0.0
C1132 C 0.84619 0.35331 0.79582 0.0
C1133 C 0.83219 0.37009 0.79047 0.0
C1134 C 0.80786 0.36272 0.78377 0.0
C1135 C 0.7982 0.33903 0.78061 0.0
H1136 H 0.03632 0.83519 0.08378 0.0
H1137 H 0.98578 0.8497 0.13381 0.0
H1138 H 0.03035 0.86943 0.06409 0.0
H1139 H 0.97906 0.88339 0.11357 0.0
H1140 H 0.00876 0.95905 0.10209 0.0
H1141 H 0.00335 0.92029 0.11451 0.0
H1142 H 0.00626 0.89141 0.041 0.0
H1143 H 0.01238 0.93077 0.02859 0.0
C1144 C 0.02344 0.84534 0.09014 0.0
C1145 C 0.01186 0.84005 0.11062 0.0
C1146 C 0.01989 0.86491 0.07875 0.0
C1147 C 0.00451 0.87943 0.08749 0.0
C1148 C 0.99148 0.87293 0.10674 0.0
C1149 C -0.00475 0.85357 0.1183 0.0
C1150 C 0.00792 0.94446 0.08845 0.0
C1151 C 0.01131 0.948 0.06442 0.0
C1152 C 0.00457 0.92212 0.09555 0.0
C1153 C 0.00444 0.90264 0.07879 0.0
C1154 C 0.00655 0.90606 0.05442 0.0
C1155 C 0.00988 0.92857 0.04727 0.0
H1156 H 0.9427 0.22256 0.80199 0.0
H1157 H 0.92088 0.24456 0.87123 0.0
H1158 H 0.90158 0.21361 0.78506 0.0
H1159 H 0.87983 0.23746 0.85412 0.0
H1160 H 0.806 0.21969 0.8207 0.0
H1161 H 0.84487 0.2144 0.83743 0.0
H1162 H 0.87432 0.2356 0.77251 0.0
H1163 H 0.8353 0.23923 0.75538 0.0
C1164 C 0.92895 0.22526 0.81359 0.0
C1165 C 0.93476 0.23437 0.83778 0.0
C1166 C 0.90541 0.22039 0.80389 0.0
C1167 C 0.88728 0.22534 0.81799 0.0
C1168 C 0.89315 0.23318 0.84267 0.0
C1169 C 0.91669 0.23738 0.85253 0.0
C1170 C 0.82079 0.22278 0.80991 0.0
C1171 C 0.81772 0.23004 0.78683 0.0
C1172 C 0.84311 0.21991 0.81955 0.0
C1173 C 0.86294 0.2248 0.80652 0.0
C1174 C 0.85955 0.23122 0.78302 0.0
C1175 C 0.83714 0.23352 0.77319 0.0
H1176 H 0.55647 0.18698 0.64107 0.0
H1177 H 0.49926 0.20831 0.59877 0.0
H1178 H 0.54608 0.14774 0.61976 0.0
H1179 H 0.48871 0.16897 0.5779 0.0
H1180 H 0.4592 0.08952 0.58284 0.0
H1181 H 0.47305 0.1302 0.59815 0.0
H1182 H 0.54161 0.12592 0.57365 0.0
H1183 H 0.52755 0.08504 0.55764 0.0
C1184 C 0.54187 0.18336 0.62706 0.0
C1185 C 0.52856 0.20067 0.6217 0.0
C1186 C 0.53605 0.16098 0.61481 0.0
C1187 C 0.51659 0.15544 0.59733 0.0
C1188 C 0.50377 0.17289 0.59139 0.0
C1189 C 0.50985 0.19537 0.60329 0.0
C1190 C 0.47722 0.09724 0.58063 0.0
C1191 C 0.49235 0.08415 0.56914 0.0
C1192 C 0.48505 0.12054 0.58923 0.0
C1193 C 0.50832 0.1311 0.58694 0.0
C1194 C 0.52357 0.11806 0.57555 0.0
C1195 C 0.51554 0.0948 0.56641 0.0
H1196 H 0.59435 0.78008 0.38369 0.0
H1197 H 0.55432 0.72888 0.3287 0.0
H1198 H 0.62875 0.78199 0.36021 0.0
H1199 H 0.58862 0.73066 0.30559 0.0
H1200 H 0.66631 0.71822 0.29659 0.0
H1201 H 0.6299 0.71894 0.31598 0.0
H1202 H 0.63968 0.79359 0.31646 0.0
H1203 H 0.67616 0.79284 0.29651 0.0
C1204 C 0.59294 0.76926 0.36667 0.0
C1205 C 0.57176 0.75427 0.35804 0.0
C1206 C 0.61247 0.77052 0.35317 0.0
C1207 C 0.61115 0.75654 0.33112 0.0
C1208 C 0.59 0.74159 0.32256 0.0
C1209 C 0.57044 0.74058 0.3358 0.0
C1210 C 0.66045 0.73473 0.30044 0.0
C1211 C 0.67387 0.75546 0.29504 0.0
C1212 C 0.63967 0.73513 0.3115 0.0
C1213 C 0.63219 0.75633 0.31776 0.0
C1214 C 0.64527 0.77707 0.31187 0.0
C1215 C 0.6659 0.77662 0.30029 0.0
H1216 H 0.97757 0.17998 0.39998 0.0
H1217 H 0.01633 0.21342 0.46678 0.0
H1218 H 0.9707 0.14331 0.41751 0.0
H1219 H 0.00967 0.17646 0.48423 0.0
H1220 H 0.98104 0.10601 0.51122 0.0
H1221 H 0.97945 0.14398 0.49656 0.0
H1222 H -0.00022 0.11808 0.42777 0.0
H1223 H 0.00127 0.08059 0.44216 0.0
C1224 C 0.98439 0.17957 0.41851 0.0
C1225 C -0.00218 0.19948 0.43188 0.0
C1226 C 0.98047 0.15856 0.42852 0.0
C1227 C 0.98993 0.15698 0.4521 0.0
C1228 C 0.00209 0.17721 0.46604 0.0
C1229 C 0.00601 0.19831 0.456 0.0
C1230 C 0.98493 0.10846 0.49291 0.0
C1231 C 0.99137 0.09039 0.47786 0.0
C1232 C 0.98411 0.13016 0.48459 0.0
C1233 C 0.98935 0.13391 0.46099 0.0
C1234 C -0.00472 0.11563 0.44591 0.0
C1235 C -0.00366 0.09417 0.45425 0.0
H1236 H 0.59218 0.24312 0.13116 0.0
H1237 H 0.56942 0.25752 0.20201 0.0
H1238 H 0.63302 0.2479 0.14887 0.0
H1239 H 0.61023 0.26275 0.21961 0.0
H1240 H 0.68359 0.25194 0.24636 0.0
H1241 H 0.64303 0.24186 0.22752 0.0
H1242 H 0.66293 0.28011 0.16785 0.0
H1243 H 0.70343 0.28978 0.18634 0.0
C1244 C 0.5959 0.24727 0.1505 0.0
C1245 C 0.57763 0.25005 0.16518 0.0
C1246 C 0.61928 0.25009 0.16063 0.0
C1247 C 0.62484 0.25574 0.18563 0.0
C1248 C 0.60648 0.25809 0.20033 0.0
C1249 C 0.58313 0.25528 0.19022 0.0
C1250 C 0.67933 0.25801 0.22912 0.0
C1251 C 0.69666 0.27177 0.21791 0.0
C1252 C 0.65609 0.25234 0.21841 0.0
C1253 C 0.64977 0.26027 0.19626 0.0
C1254 C 0.66728 0.27351 0.18478 0.0
C1255 C 0.69047 0.27919 0.19548 0.0
H1256 H 0.52281 0.82178 0.95355 0.0
H1257 H 0.55937 0.85756 0.89962 0.0
H1258 H 0.52126 0.8591 0.97612 0.0
H1259 H 0.5582 0.89474 0.92244 0.0
H1260 H 0.51635 0.95172 0.94766 0.0
H1261 H 0.52542 0.91553 0.92892 0.0
H1262 H 0.54363 0.89503 -0.00078 0.0
H1263 H 0.53412 0.93131 0.01814 0.0
C1264 C 0.53094 0.83756 0.94675 0.0
C1265 C 0.54087 0.8367 0.92458 0.0
C1266 C 0.53015 0.85894 0.95976 0.0
C1267 C 0.53932 0.87985 0.95087 0.0
C1268 C 0.55056 0.87892 0.92948 0.0
C1269 C 0.5513 0.85759 0.91646 0.0
C1270 C 0.52238 0.93957 0.95917 0.0
C1271 C 0.52436 0.9443 0.98439 0.0
C1272 C 0.5278 0.91891 0.94841 0.0
C1273 C 0.53532 0.90245 0.9626 0.0
C1274 C 0.53772 0.90732 0.98784 0.0
C1275 C 0.53237 0.92812 -0.00135 0.0
H1276 H 0.94521 0.72739 0.71809 0.0
H1277 H 0.93414 0.76536 0.65676 0.0
H1278 H 0.90704 0.7333 0.73071 0.0
H1279 H 0.89595 0.77168 0.66977 0.0
H1280 H 0.81759 0.74337 0.68137 0.0
H1281 H 0.85803 0.7467 0.67079 0.0
H1282 H 0.88375 0.76155 0.74623 0.0
H1283 H 0.84305 0.75768 0.75692 0.0
C1284 C 0.93477 0.73727 0.70744 0.0
C1285 C 0.94264 0.74568 0.68624 0.0
C1286 C 0.91294 0.74085 0.71483 0.0
C1287 C 0.89844 0.75295 0.70124 0.0
C1288 C 0.90663 0.76207 0.68049 0.0
C1289 C 0.92853 0.75849 0.67307 0.0
C1290 C 0.83185 0.74763 0.69572 0.0
C1291 C 0.82712 0.74991 0.72001 0.0
C1292 C 0.85508 0.74974 0.68962 0.0
C1293 C 0.87411 0.7542 0.70767 0.0
C1294 C 0.86942 0.75774 0.73193 0.0
C1295 C 0.84614 0.75565 0.73805 0.0
H1296 H 0.10169 0.97916 0.85156 0.0
H1297 H 0.08059 0.0465 0.85004 0.0
H1298 H 0.08368 0.97464 0.88964 0.0
H1299 H 0.06328 0.04216 0.88819 0.0
H1300 H 0.06591 0.03508 0.97084 0.0
H1301 H 0.0839 0.03697 0.93294 0.0
H1302 H 0.03665 0.97449 0.90236 0.0
H1303 H 0.01796 0.97279 0.94041 0.0
C1304 C 0.09344 0.99305 0.85946 0.0
C1305 C 0.09259 0.01321 0.84787 0.0
C1306 C 0.083 0.99036 0.88107 0.0
C1307 C 0.07208 0.00803 0.89167 0.0
C1308 C 0.0716 0.02831 0.88031 0.0
C1309 C 0.08151 0.03077 0.85852 0.0
C1310 C 0.05938 0.0216 0.95615 0.0
C1311 C 0.0405 0.00374 0.95862 0.0
C1312 C 0.06967 0.02277 0.93445 0.0
C1313 C 0.06167 0.00585 0.91487 0.0
C1314 C 0.04317 0.98764 0.91735 0.0
C1315 C 0.03245 0.98674 0.939 0.0
H1316 H 0.74336 0.31043 0.56329 0.0
H1317 H 0.7916 0.37413 0.58848 0.0
H1318 H 0.75298 0.29468 0.60091 0.0
H1319 H 0.80151 0.35819 0.62597 0.0
H1320 H 0.77923 0.33586 0.69958 0.0
H1321 H 0.77875 0.35005 0.66021 0.0
H1322 H 0.7838 0.28158 0.62717 0.0
H1323 H 0.784 0.26719 0.66689 0.0
C1324 C 0.75629 0.32093 0.57671 0.0
C1325 C 0.76649 0.34364 0.57306 0.0
C1326 C 0.76195 0.31182 0.59819 0.0
C1327 C 0.7779 0.32524 0.61647 0.0
C1328 C 0.78892 0.34755 0.61233 0.0
C1329 C 0.78328 0.35665 0.59085 0.0
C1330 C 0.78055 0.32386 0.68398 0.0
C1331 C 0.78142 0.30035 0.68629 0.0
C1332 C 0.78047 0.33206 0.66141 0.0
C1333 C 0.78116 0.31693 0.64055 0.0
C1334 C 0.78303 0.29359 0.64293 0.0
C1335 C 0.78329 0.28539 0.66564 0.0
H1336 H 0.41963 0.04721 0.35032 0.0
H1337 H 0.48451 0.02479 0.33169 0.0
H1338 H 0.43453 0.05223 0.39286 0.0
H1339 H 0.49897 0.02911 0.37401 0.0
H1340 H 0.52357 0.04462 0.4527 0.0
H1341 H 0.51184 0.05299 0.41189 0.0
H1342 H 0.43944 0.02323 0.41972 0.0
H1343 H 0.4509 0.01539 0.46022 0.0
C1344 C 0.43718 0.0437 0.35523 0.0
C1345 C 0.45066 0.03516 0.33766 0.0
C1346 C 0.44568 0.04648 0.3796 0.0
C1347 C 0.46777 0.04069 0.38683 0.0
C1348 C 0.48195 0.03385 0.36909 0.0
C1349 C 0.47352 0.03117 0.34478 0.0
C1350 C 0.50513 0.04012 0.44574 0.0
C1351 C 0.48823 0.02912 0.4596 0.0
C1352 C 0.49842 0.0449 0.42239 0.0
C1353 C 0.4747 0.03881 0.41257 0.0
C1354 C 0.45777 0.02855 0.42682 0.0
C1355 C 0.46444 0.02379 0.45002 0.0
H1356 H 0.76211 0.68609 0.06304 0.0
H1357 H 0.71986 0.62745 0.08927 0.0
H1358 H 0.76784 0.70661 0.10376 0.0
H1359 H 0.7253 0.64805 0.12961 0.0
H1360 H 0.77101 0.67553 0.20037 0.0
H1361 H 0.7599 0.65801 0.15918 0.0
H1362 H 0.74833 0.72447 0.13773 0.0
H1363 H 0.7598 0.74227 0.17935 0.0
C1364 C 0.75375 0.67772 0.07736 0.0
C1365 C 0.74082 0.65497 0.07293 0.0
C1366 C 0.75694 0.68953 0.10066 0.0
C1367 C 0.74727 0.67882 0.11995 0.0
C1368 C 0.73336 0.65659 0.11523 0.0
C1369 C 0.7302 0.64481 0.09204 0.0
C1370 C 0.76598 0.68646 0.18697 0.0
C1371 C 0.76634 0.71031 0.19313 0.0
C1372 C 0.75944 0.67635 0.16334 0.0
C1373 C 0.75313 0.68982 0.1452 0.0
C1374 C 0.75323 0.71368 0.15132 0.0
C1375 C 0.75965 0.72382 0.17514 0.0
H1376 H 0.07448 0.00463 0.72301 0.0
H1377 H 0.13555 0.98576 0.6911 0.0
H1378 H 0.05625 0.00866 0.68317 0.0
H1379 H 0.11695 0.98856 0.65116 0.0
H1380 H 0.09001 0.0156 0.58442 0.0
H1381 H 0.10724 0.01547 0.62554 0.0
H1382 H 0.03814 0.9887 0.64649 0.0
H1383 H 0.02087 0.99006 0.6056 0.0
C1384 C 0.08383 0.00096 0.7074 0.0
C1385 C 0.10645 0.99492 0.71013 0.0
C1386 C 0.07336 0.00323 0.68452 0.0
C1387 C 0.08515 -0.00084 0.66383 0.0
C1388 C 0.10755 0.99247 0.66665 0.0
C1389 C 0.11815 0.99059 0.68954 0.0
C1390 C 0.07849 0.01009 0.59796 0.0
C1391 C 0.05414 0.00284 0.59183 0.0
C1392 C 0.08838 0.00973 0.62149 0.0
C1393 C 0.0742 0.00165 0.63936 0.0
C1394 C 0.04964 0.99523 0.63336 0.0
C1395 C 0.03969 0.996 0.60988 0.0
H1396 H 0.73561 0.30838 0.45556 0.0
H1397 H 0.69617 0.3469 0.40962 0.0
H1398 H 0.73799 0.28049 0.42103 0.0
H1399 H 0.6984 0.3187 0.37519 0.0
H1400 H 0.77544 0.27898 0.3471 0.0
H1401 H 0.76285 0.29335 0.3855 0.0
H1402 H 0.68979 0.27391 0.35652 0.0
H1403 H 0.70254 0.25876 0.31803 0.0
C1404 C 0.72681 0.31054 0.43829 0.0
C1405 C 0.71611 0.33016 0.43524 0.0
C1406 C 0.72819 0.29453 0.41856 0.0
C1407 C 0.71856 0.29761 0.3955 0.0
C1408 C 0.70585 0.31589 0.39284 0.0
C1409 C 0.70473 0.33211 0.41253 0.0
C1410 C 0.75669 0.27713 0.34922 0.0
C1411 C 0.73991 0.26778 0.32982 0.0
C1412 C 0.74948 0.28524 0.37117 0.0
C1413 C 0.72535 0.28467 0.37391 0.0
C1414 C 0.70847 0.27441 0.3548 0.0
C1415 C 0.71573 0.26569 0.33294 0.0
H1416 H 0.44614 0.04381 0.20683 0.0
H1417 H 0.39452 0.98116 0.18864 0.0
H1418 H 0.46801 0.03254 0.17345 0.0
H1419 H 0.41701 0.96913 0.15593 0.0
H1420 H 0.45033 0.96927 0.08382 0.0
H1421 H 0.4279 0.97689 0.11767 0.0
H1422 H 0.49284 0.00606 0.16193 0.0
H1423 H 0.51526 -0.00047 0.12748 0.0
C1424 C 0.43948 0.02763 0.19558 0.0
C1425 C 0.41864 0.01341 0.20018 0.0
C1426 C 0.45218 0.02097 0.17668 0.0
C1427 C 0.44455 -0.00031 0.16223 0.0
C1428 C 0.42334 0.9857 0.16656 0.0
C1429 C 0.4104 0.9926 0.18525 0.0
C1430 C 0.45991 0.97694 0.10089 0.0
C1431 C 0.48457 0.98411 0.1029 0.0
C1432 C 0.44699 0.98128 0.12037 0.0
C1433 C 0.45848 0.99253 0.14244 0.0
C1434 C 0.48334 -0.00196 0.14496 0.0
C1435 C 0.49625 0.99403 0.12533 0.0
H1436 H 0.75353 0.7072 0.94808 0.0
H1437 H 0.78835 0.65343 0.91632 0.0
H1438 H 0.7602 0.72884 0.9133 0.0
H1439 H 0.79561 0.6753 0.88199 0.0
H1440 H 0.76833 0.69996 0.81143 0.0
H1441 H 0.76978 0.68234 0.84878 0.0
H1442 H 0.78818 0.75044 0.88898 0.0
H1443 H 0.78617 0.76832 0.85108 0.0
C1444 C 0.76302 0.70023 0.93391 0.0
C1445 C 0.7701 0.67844 0.93477 0.0
C1446 C 0.76697 0.7127 0.91403 0.0
C1447 C 0.77818 0.70367 0.89469 0.0
C1448 C 0.78648 0.68253 0.89632 0.0
C1449 C 0.7824 0.67002 0.91606 0.0
C1450 C 0.77285 0.71126 0.82817 0.0
C1451 C 0.77695 0.73557 0.82827 0.0
C1452 C 0.77392 0.70111 0.84966 0.0
C1453 C 0.77915 0.71494 0.87194 0.0
C1454 C 0.78393 0.7393 0.8721 0.0
C1455 C 0.78296 0.74954 0.85043 0.0
H1456 H 0.82164 0.05087 0.04531 0.0
H1457 H 0.82718 0.1028 -0.00487 0.0
H1458 H 0.85452 0.03539 0.0289 0.0
H1459 H 0.86006 0.08708 0.97859 0.0
H1460 H 0.90953 0.00556 0.99083 0.0
H1461 H 0.87002 0.01596 0.99292 0.0
H1462 H 0.90076 0.08874 -0.00231 0.0
H1463 H 0.93982 0.07835 -0.0043 0.0
C1464 C 0.82967 0.05881 0.03057 0.0
C1465 C 0.82204 0.07833 0.02181 0.0
C1466 C 0.84833 0.04972 0.02095 0.0
C1467 C 0.85986 0.06002 0.00245 0.0
C1468 C 0.85156 0.07887 0.99293 0.0
C1469 C 0.83278 0.08789 0.00246 0.0
C1470 C 0.9076 0.02368 0.99146 0.0
C1471 C 0.92758 0.04121 0.99328 0.0
C1472 C 0.8851 0.02965 0.99286 0.0
C1473 C 0.88235 0.05317 -0.00431 0.0
C1474 C 0.90222 0.07048 -0.00467 0.0
C1475 C 0.92461 0.06455 0.99431 0.0
H1476 H 0.31818 0.47147 0.02968 0.0
H1477 H 0.33503 0.40802 0.05483 0.0
H1478 H 0.35997 0.48794 0.03322 0.0
H1479 H 0.37703 0.42481 0.05878 0.0
H1480 H 0.44579 0.44919 0.02337 0.0
H1481 H 0.40506 0.43396 0.02897 0.0
H1482 H 0.39602 0.50179 0.06042 0.0
H1483 H 0.43698 0.51728 0.05446 0.0
C1484 C 0.33078 0.46113 0.03633 0.0
C1485 C 0.32326 0.43828 0.04166 0.0
C1486 C 0.35476 0.47069 0.03855 0.0
C1487 C 0.37182 0.45763 0.04614 0.0
C1488 C 0.36429 0.43518 0.05258 0.0
C1489 C 0.34023 0.42561 0.05041 0.0
C1490 C 0.43523 0.46089 0.03165 0.0
C1491 C 0.44458 0.48453 0.03825 0.0
C1492 C 0.41191 0.45206 0.03508 0.0
C1493 C 0.39731 0.46665 0.04515 0.0
C1494 C 0.40681 0.49017 0.05242 0.0
C1495 C 0.43026 0.49902 0.04907 0.0
H1496 H 0.38266 0.59283 0.78143 0.0
H1497 H 0.31635 0.55138 0.75021 0.0
H1498 H 0.36338 0.62675 0.78692 0.0
H1499 H 0.29707 0.58557 0.75559 0.0
H1500 H 0.26864 0.65107 0.78874 0.0
H1501 H 0.28579 0.61524 0.78716 0.0
H1502 H 0.34705 0.65065 0.75773 0.0
H1503 H 0.33025 0.686 0.75931 0.0
C1504 C 0.36393 0.59091 0.77587 0.0
C1505 C 0.3511 0.56945 0.76517 0.0
C1506 C 0.3529 0.61037 0.77896 0.0
C1507 C 0.32876 0.60887 0.77149 0.0
C1508 C 0.31566 0.58722 0.76164 0.0
C1509 C 0.32675 0.5677 0.75843 0.0
C1510 C 0.28576 0.65112 0.78198 0.0
C1511 C 0.29808 0.67141 0.77423 0.0
C1512 C 0.29553 0.63063 0.781 0.0
C1513 C 0.31787 0.63022 0.77254 0.0
C1514 C 0.33001 0.6505 0.76474 0.0
C1515 C 0.32025 0.67076 0.76552 0.0
H1516 H 0.20203 0.57298 0.54169 0.0
H1517 H 0.18822 0.64189 0.5633 0.0
H1518 H 0.16 0.55776 0.53899 0.0
H1519 H 0.146 0.62649 0.56126 0.0
H1520 H 0.0757 0.59578 0.51357 0.0
H1521 H 0.11633 0.6125 0.52805 0.0
H1522 H 0.12478 0.54925 0.55916 0.0
H1523 H 0.08422 0.53221 0.54398 0.0
C1524 C 0.19004 0.58481 0.54635 0.0
C1525 C 0.19837 0.60868 0.55236 0.0
C1526 C 0.16592 0.57604 0.545 0.0
C1527 C 0.14961 0.59094 0.54976 0.0
C1528 C 0.1581 0.61463 0.55712 0.0
C1529 C 0.18227 0.62343 0.55838 0.0
C1530 C 0.08609 0.58555 0.52381 0.0
C1531 C 0.07691 0.56253 0.52725 0.0
C1532 C 0.10936 0.59522 0.5323 0.0
C1533 C 0.12389 0.58212 0.54455 0.0
C1534 C 0.11417 0.55963 0.54938 0.0
C1535 C 0.09092 0.5499 0.54076 0.0
H1536 H 0.70988 0.96053 0.76296 0.0
H1537 H 0.6523 0.90968 0.78021 0.0
H1538 H 0.73768 0.93466 0.77249 0.0
H1539 H 0.67986 0.88351 0.78893 0.0
H1540 H 0.77056 0.86844 0.75536 0.0
H1541 H 0.74751 0.8996 0.75445 0.0
H1542 H 0.7117 0.87525 0.81466 0.0
H1543 H 0.73429 0.84347 0.81502 0.0
C1544 C 0.70317 0.94386 0.7689 0.0
C1545 C 0.67886 0.93709 0.77066 0.0
C1546 C 0.7191 0.92897 0.77426 0.0
C1547 C 0.71107 0.90687 0.78135 0.0
C1548 C 0.68681 0.90048 0.78388 0.0
C1549 C 0.67093 0.91544 0.77869 0.0
C1550 C 0.75811 0.86995 0.76873 0.0
C1551 C 0.75409 0.85325 0.78507 0.0
C1552 C 0.7449 0.88795 0.76828 0.0
C1553 C 0.72745 0.88983 0.78427 0.0
C1554 C 0.72459 0.87404 0.80171 0.0
C1555 C 0.73771 0.85593 0.80206 0.0
H1556 H 0.65457 0.88036 0.52885 0.0
H1557 H 0.70103 0.94685 0.54286 0.0
H1558 H 0.62048 0.9003 0.52544 0.0
H1559 H 0.66701 0.96668 0.53959 0.0
H1560 H 0.60043 0.99265 0.50739 0.0
H1561 H 0.63507 0.97317 0.50897 0.0
H1562 H 0.60057 0.92439 0.55361 0.0
H1563 H 0.56625 0.94354 0.55204 0.0
C1564 C 0.65749 0.89919 0.53121 0.0
C1565 C 0.68044 0.91201 0.53623 0.0
C1566 C 0.63801 0.91061 0.52932 0.0
C1567 C 0.64112 0.93506 0.53225 0.0
C1568 C 0.66409 0.94785 0.53699 0.0
C1569 C 0.68354 0.93646 0.53905 0.0
C1570 C 0.60034 0.97782 0.51757 0.0
C1571 C 0.58057 0.9696 0.52948 0.0
C1572 C 0.62014 0.96671 0.51851 0.0
C1573 C 0.62039 0.94712 0.53122 0.0
C1574 C 0.60072 0.93915 0.5433 0.0
C1575 C 0.5811 0.95028 0.5425 0.0
H1576 H 0.3311 0.44641 0.7659 0.0
H1577 H 0.36499 0.41184 0.71017 0.0
H1578 H 0.3051 0.40973 0.76944 0.0
H1579 H 0.33848 0.37533 0.71337 0.0
H1580 H 0.27067 0.31903 0.71702 0.0
H1581 H 0.28988 0.35807 0.70976 0.0
H1582 H 0.32067 0.37046 0.78362 0.0
H1583 H 0.3022 0.33139 0.79067 0.0
C1584 C 0.33261 0.43114 0.75401 0.0
C1585 C 0.35018 0.43195 0.73786 0.0
C1586 C 0.31778 0.4102 0.7561 0.0
C1587 C 0.31987 0.38985 0.74167 0.0
C1588 C 0.33647 0.39089 0.72455 0.0
C1589 C 0.35167 0.41171 0.72282 0.0
C1590 C 0.28132 0.33026 0.73171 0.0
C1591 C 0.28509 0.32228 0.75435 0.0
C1592 C 0.29232 0.35246 0.72755 0.0
C1593 C 0.30661 0.36715 0.74618 0.0
C1594 C 0.30956 0.35947 0.76905 0.0
C1595 C 0.29913 0.33714 0.77303 0.0
H1596 H 0.18131 0.56059 0.2328 0.0
H1597 H 0.11481 0.5846 0.23927 0.0
H1598 H 0.20164 0.60074 0.23553 0.0
H1599 H 0.13504 0.62457 0.2437 0.0
H1600 H 0.17231 0.69596 0.23978 0.0
H1601 H 0.1543 0.65565 0.22707 0.0
H1602 H 0.21446 0.63283 0.26303 0.0
H1603 H 0.23297 0.67308 0.27402 0.0
C1604 C 0.17109 0.5745 0.23492 0.0
C1605 C 0.14652 0.5695 0.23587 0.0
C1606 C 0.18272 0.59756 0.23664 0.0
C1607 C 0.17011 0.61614 0.23998 0.0
C1608 C 0.14542 0.61094 0.24059 0.0
C1609 C 0.13377 0.58793 0.23828 0.0
C1610 C 0.18179 0.68223 0.24449 0.0
C1611 C 0.20394 0.68757 0.25792 0.0
C1612 C 0.1714 0.65909 0.23745 0.0
C1613 C 0.18263 0.64075 0.24434 0.0
C1614 C 0.20529 0.64629 0.25701 0.0
C1615 C 0.21593 0.66943 0.26347 0.0
H1616 H 0.48605 0.66665 0.40458 0.0
H1617 H 0.52892 0.70684 0.46589 0.0
H1618 H 0.49157 0.63096 0.42124 0.0
H1619 H 0.53468 0.67068 0.4826 0.0
H1620 H 0.52572 0.57177 0.43921 0.0
H1621 H 0.52532 0.61043 0.42691 0.0
H1622 H 0.51264 0.63541 0.49903 0.0
H1623 H 0.51343 0.59658 0.51153 0.0
C1624 C 0.49657 0.66788 0.42172 0.0
C1625 C 0.50719 0.6896 0.43382 0.0
C1626 C 0.49992 0.64738 0.43117 0.0
C1627 C 0.514 0.64799 0.45297 0.0
C1628 C 0.52382 0.66969 0.46571 0.0
C1629 C 0.52049 0.69035 0.45617 0.0
C1630 C 0.52335 0.58561 0.4526 0.0
C1631 C 0.51934 0.58109 0.47625 0.0
C1632 C 0.52294 0.60772 0.44551 0.0
C1633 C 0.51834 0.62581 0.46185 0.0
C1634 C 0.51615 0.6218 0.48602 0.0
C1635 C 0.51667 0.59958 0.49319 0.0
H1636 H 0.61781 0.28384 0.64976 0.0
H1637 H 0.59148 0.30952 0.7155 0.0
H1638 H 0.65431 0.27975 0.67238 0.0
H1639 H 0.6286 0.30648 0.73819 0.0
H1640 H 0.6819 0.26414 0.77218 0.0
H1641 H 0.6477 0.2766 0.75185 0.0
H1642 H 0.6897 0.29755 0.69433 0.0
H1643 H 0.7231 0.28379 0.71388 0.0
C1644 C 0.6201 0.28921 0.66899 0.0
C1645 C 0.60173 0.2968 0.68089 0.0
C1646 C 0.64112 0.28698 0.68202 0.0
C1647 C 0.64442 0.29265 0.70723 0.0
C1648 C 0.62649 0.3015 0.71891 0.0
C1649 C 0.60531 0.30345 0.70588 0.0
C1650 C 0.68378 0.27168 0.75534 0.0
C1651 C 0.70498 0.27274 0.74443 0.0
C1652 C 0.66426 0.27896 0.74372 0.0
C1653 C 0.66581 0.28781 0.72122 0.0
C1654 C 0.68761 0.29023 0.71124 0.0
C1655 C 0.70684 0.28251 0.72255 0.0
H1656 H 0.98742 0.30851 0.94926 0.0
H1657 H -0.00446 0.34522 0.88615 0.0
H1658 H 0.97825 0.34344 0.9715 0.0
H1659 H 0.98685 0.37989 0.90832 0.0
H1660 H 0.95818 0.43648 0.94491 0.0
H1661 H 0.95585 0.39671 0.92657 0.0
H1662 H -0.00052 0.38197 0.98768 0.0
H1663 H 0.00121 0.42144 0.00636 0.0
C1664 C 0.98722 0.32397 0.94012 0.0
C1665 C 0.99234 0.32407 0.91594 0.0
C1666 C 0.98196 0.34396 0.95286 0.0
C1667 C 0.98159 0.3644 0.94163 0.0
C1668 C 0.98644 0.36433 0.91739 0.0
C1669 C 0.99172 0.34446 0.90473 0.0
C1670 C 0.96669 0.42458 0.95478 0.0
C1671 C 0.98039 0.43235 0.97681 0.0
C1672 C 0.96552 0.40182 0.94417 0.0
C1673 C 0.97808 0.38639 0.95533 0.0
C1674 C 0.98968 0.39342 0.97853 0.0
C1675 C 0.99074 0.41615 0.98922 0.0
H1676 H 0.95797 0.77313 0.17025 0.0
H1677 H 0.9811 0.75754 0.24137 0.0
H1678 H 0.91757 0.76956 0.18109 0.0
H1679 H 0.94067 0.75466 0.25245 0.0
H1680 H 0.85591 0.79132 0.21692 0.0
H1681 H 0.89616 0.79198 0.20673 0.0
H1682 H 0.90092 0.73197 0.24502 0.0
H1683 H 0.8605 0.73169 0.25585 0.0
C1684 C 0.95445 0.76898 0.18822 0.0
C1685 C 0.97278 0.76581 0.20501 0.0
C1686 C 0.9313 0.76705 0.19448 0.0
C1687 C 0.92597 0.7621 0.21773 0.0
C1688 C 0.94418 0.75831 0.23434 0.0
C1689 C 0.96736 0.76009 0.22802 0.0
C1690 C 0.8655 0.77824 0.2232 0.0
C1691 C 0.85501 0.76136 0.23707 0.0
C1692 C 0.88855 0.77853 0.21721 0.0
C1693 C 0.90164 0.76184 0.22478 0.0
C1694 C 0.89131 0.74514 0.23902 0.0
C1695 C 0.86818 0.74493 0.24517 0.0
H1696 H 0.49487 0.32764 0.12695 0.0
H1697 H 0.51064 0.29125 0.06093 0.0
H1698 H 0.49416 0.36253 0.10692 0.0
H1699 H 0.50985 0.32657 0.04071 0.0
H1700 H 0.53411 0.4072 0.02946 0.0
H1701 H 0.53342 0.36865 0.04357 0.0
H1702 H 0.46779 0.37417 0.07429 0.0
H1703 H 0.4685 0.41229 0.06055 0.0
C1704 C 0.49812 0.32706 0.10811 0.0
C1705 C 0.50269 0.30665 0.09549 0.0
C1706 C 0.4976 0.34704 0.0966 0.0
C1707 C 0.50175 0.34719 0.0722 0.0
C1708 C 0.50664 0.32691 0.05954 0.0
C1709 C 0.50695 0.30672 0.07107 0.0
C1710 C 0.51937 0.39992 0.03886 0.0
C1711 C 0.5016 0.41291 0.0443 0.0
C1712 C 0.51896 0.3779 0.04688 0.0
C1713 C 0.50077 0.36866 0.06041 0.0
C1714 C 0.48229 0.38108 0.06438 0.0
C1715 C 0.48271 0.40292 0.05646 0.0
H1716 H 0.94118 0.24522 0.3689 0.0
H1717 H 0.95526 0.29981 0.32255 0.0
H1718 H 0.89914 0.24107 0.35688 0.0
H1719 H 0.91295 0.29629 0.31118 0.0
H1720 H 0.83899 0.26252 0.27509 0.0
H1721 H 0.88111 0.27062 0.28816 0.0
H1722 H 0.86576 0.25949 0.36101 0.0
H1723 H 0.82368 0.25044 0.34765 0.0
C1724 C 0.93526 0.25651 0.35631 0.0
C1725 C 0.95155 0.2728 0.34662 0.0
C1726 C 0.9111 0.25427 0.34956 0.0
C1727 C 0.9026 0.26846 0.33317 0.0
C1728 C 0.91891 0.28489 0.32362 0.0
C1729 C 0.94315 0.28696 0.33018 0.0
C1730 C 0.84463 0.26207 0.29395 0.0
C1731 C 0.8281 0.25564 0.31033 0.0
C1732 C 0.86878 0.26681 0.30148 0.0
C1733 C 0.87688 0.26548 0.3256 0.0
C1734 C 0.86019 0.26012 0.34218 0.0
C1735 C 0.83606 0.2551 0.33458 0.0
H1736 H 0.96673 0.64924 0.62726 0.0
H1737 H 0.00056 0.68367 0.57112 0.0
H1738 H 0.96149 0.61216 0.60223 0.0
H1739 H -0.00342 0.64628 0.54642 0.0
H1740 H 0.98114 0.57406 0.5043 0.0
H1741 H 0.97396 0.6113 0.5237 0.0
H1742 H 0.98998 0.58875 0.59359 0.0
H1743 H -0.00373 0.55193 0.57454 0.0
C1744 C 0.9728 0.64885 0.6094 0.0
C1745 C 0.98436 0.66917 0.60122 0.0
C1746 C 0.96995 0.62761 0.5951 0.0
C1747 C 0.97921 0.62612 0.57258 0.0
C1748 C 0.98919 0.64678 0.56363 0.0
C1749 C 0.99157 0.66819 0.5778 0.0
C1750 C 0.98278 0.57707 0.5238 0.0
C1751 C 0.98943 0.56013 0.53786 0.0
C1752 C 0.97878 0.5984 0.5349 0.0
C1753 C 0.98124 0.60301 0.56023 0.0
C1754 C 0.98737 0.58573 0.5741 0.0
C1755 C 0.99131 0.56462 0.5631 0.0
H1756 H 0.57004 0.7363 0.82594 0.0
H1757 H 0.6109 0.7589 0.89461 0.0
H1758 H 0.60652 0.734 0.80687 0.0
H1759 H 0.6471 0.75752 0.87563 0.0
H1760 H 0.7097 0.74156 0.84304 0.0
H1761 H 0.67092 0.73303 0.85782 0.0
H1762 H 0.63975 0.75932 0.79543 0.0
H1763 H 0.6786 0.76665 0.7801 0.0
C1764 C 0.5868 0.74072 0.83695 0.0
C1765 C 0.58763 0.74782 0.86176 0.0
C1766 C 0.60769 0.7395 0.82602 0.0
C1767 C 0.62979 0.74547 0.83969 0.0
C1768 C 0.63045 0.75225 0.86458 0.0
C1769 C 0.60964 0.75327 0.87548 0.0
C1770 C 0.69442 0.74499 0.83225 0.0
C1771 C 0.69704 0.75498 0.81062 0.0
C1772 C 0.67224 0.7403 0.84079 0.0
C1773 C 0.65228 0.74607 0.82816 0.0
C1774 C 0.6547 0.75458 0.80561 0.0
C1775 C 0.67693 0.75884 0.79681 0.0
H1776 H 0.45988 0.53503 0.70716 0.0
H1777 H 0.3965 0.50761 0.66003 0.0
H1778 H 0.48228 0.53984 0.67223 0.0
H1779 H 0.41896 0.5113 0.62515 0.0
H1780 H 0.45881 0.53587 0.56488 0.0
H1781 H 0.4382 0.53735 0.60114 0.0
H1782 H 0.49828 0.51877 0.64152 0.0
H1783 H 0.51932 0.5185 0.60527 0.0
C1784 C 0.45076 0.52995 0.6893 0.0
C1785 C 0.42642 0.52095 0.68633 0.0
C1786 C 0.46363 0.53256 0.66925 0.0
C1787 C 0.45253 0.52597 0.64575 0.0
C1788 C 0.42811 0.51705 0.64288 0.0
C1789 C 0.41519 0.51475 0.66291 0.0
C1790 C 0.46773 0.53244 0.58162 0.0
C1791 C 0.49062 0.52696 0.58226 0.0
C1792 C 0.45582 0.53306 0.60239 0.0
C1793 C 0.46632 0.52776 0.62429 0.0
C1794 C 0.48965 0.52316 0.6251 0.0
C1795 C 0.50175 0.52295 0.60432 0.0
H1796 H 0.76408 0.19325 0.97733 0.0
H1797 H 0.73762 0.12333 0.94408 0.0
H1798 H 0.75846 0.208 0.93825 0.0
H1799 H 0.73154 0.13809 0.90527 0.0
H1800 H 0.75759 0.16838 0.83786 0.0
H1801 H 0.75781 0.15418 0.87712 0.0
H1802 H 0.72896 0.21362 0.90558 0.0
H1803 H 0.72912 0.22822 0.86592 0.0
C1804 C 0.75686 0.18107 0.96174 0.0
C1805 C 0.75157 0.15709 0.96372 0.0
C1806 C 0.75346 0.18954 0.93939 0.0
C1807 C 0.7447 0.1742 0.91863 0.0
C1808 C 0.73869 0.15032 0.92084 0.0
C1809 C 0.74213 0.14186 0.94311 0.0
C1810 C 0.75112 0.17842 0.85238 0.0
C1811 C 0.7434 0.19949 0.84877 0.0
C1812 C 0.75109 0.17016 0.8749 0.0
C1813 C 0.74334 0.18272 0.89448 0.0
C1814 C 0.73521 0.20364 0.89086 0.0
C1815 C 0.73515 0.21192 0.86815 0.0
H1816 H 0.12467 0.48985 0.15762 0.0
H1817 H 0.06237 0.45236 0.18343 0.0
H1818 H 0.10174 0.49462 0.12095 0.0
H1819 H 0.03939 0.45567 0.14574 0.0
H1820 H 0.00061 0.4959 0.09266 0.0
H1821 H 0.02225 0.48305 0.12661 0.0
H1822 H 0.08194 0.48024 0.0846 0.0
H1823 H 0.0614 0.49564 0.05217 0.0
C1824 C 0.10616 0.48197 0.15509 0.0
C1825 C 0.09528 0.47088 0.17346 0.0
C1826 C 0.09291 0.48456 0.13388 0.0
C1827 C 0.0685 0.47563 0.13019 0.0
C1828 C 0.05796 0.46327 0.14807 0.0
C1829 C 0.07117 0.46113 0.16958 0.0
C1830 C 0.0183 0.49236 0.09069 0.0
C1831 C 0.02918 0.4966 0.06957 0.0
C1832 C 0.03069 0.48475 0.11011 0.0
C1833 C 0.05407 0.48074 0.10862 0.0
C1834 C 0.06428 0.48369 0.08686 0.0
C1835 C 0.05224 0.49206 0.0679 0.0
H1836 H 0.7336 0.88466 0.43337 0.0
H1837 H 0.7618 0.83145 0.46913 0.0
H1838 H 0.73894 0.86519 0.39456 0.0
H1839 H 0.76778 0.81209 0.42987 0.0
H1840 H 0.74773 0.77338 0.35103 0.0
H1841 H 0.74688 0.79062 0.39254 0.0
H1842 H 0.77051 0.85878 0.37097 0.0
H1843 H 0.77048 0.84168 0.32965 0.0
C1844 C 0.74107 0.86883 0.43298 0.0
C1845 C 0.7474 0.85973 0.45442 0.0
C1846 C 0.74433 0.85773 0.41065 0.0
C1847 C 0.75424 0.83729 0.40906 0.0
C1848 C 0.7601 0.8278 0.43046 0.0
C1849 C 0.7567 0.83891 0.45294 0.0
C1850 C 0.75324 0.79198 0.35538 0.0
C1851 C 0.75892 0.80626 0.33714 0.0
C1852 C 0.75273 0.80187 0.37913 0.0
C1853 C 0.75808 0.82616 0.38497 0.0
C1854 C 0.76556 0.8401 0.36697 0.0
C1855 C 0.76576 0.8303 0.34332 0.0
H1856 H 0.45486 0.47144 0.82017 0.0
H1857 H 0.40995 0.52291 0.83273 0.0
H1858 H 0.46524 0.47332 0.86347 0.0
H1859 H 0.42085 0.52526 0.87589 0.0
H1860 H 0.42668 0.5095 0.95289 0.0
H1861 H 0.41523 0.50341 0.90966 0.0
H1862 H 0.48743 0.49882 0.89659 0.0
H1863 H 0.49874 0.50424 0.93995 0.0
C1864 C 0.4473 0.48326 0.83214 0.0
C1865 C 0.43155 0.49702 0.82296 0.0
C1866 C 0.45333 0.48439 0.85697 0.0
C1867 C 0.44383 0.49937 0.87319 0.0
C1868 C 0.42816 0.51319 0.86397 0.0
C1869 C 0.42204 0.51198 0.83917 0.0
C1870 C 0.44006 0.50692 0.9408 0.0
C1871 C 0.46363 0.50746 0.94982 0.0
C1872 C 0.43353 0.50361 0.916 0.0
C1873 C 0.45046 0.50094 0.89961 0.0
C1874 C 0.47389 0.50064 0.90869 0.0
C1875 C 0.4804 0.50379 0.93355 0.0
H1876 H 0.80803 0.15731 0.13313 0.0
H1877 H 0.78481 0.20045 0.08069 0.0
H1878 H 0.81083 0.18948 0.16484 0.0
H1879 H 0.78724 0.23247 0.11261 0.0
H1880 H 0.81743 0.2533 0.21771 0.0
H1881 H 0.82892 0.23354 0.18083 0.0
H1882 H 0.75812 0.22916 0.14687 0.0
H1883 H 0.74658 0.24806 0.18382 0.0
C1884 C 0.8042 0.17386 0.12826 0.0
C1885 C 0.79588 0.17625 0.1045 0.0
C1886 C 0.80597 0.19232 0.14639 0.0
C1887 C 0.7991 0.21336 0.14113 0.0
C1888 C 0.79262 0.21639 0.11707 0.0
C1889 C 0.79126 0.19806 0.09884 0.0
C1890 C 0.80468 0.24885 0.20198 0.0
C1891 C 0.7812 0.25217 0.20334 0.0
C1892 C 0.81119 0.23749 0.18102 0.0
C1893 C 0.79441 0.22992 0.16106 0.0
C1894 C 0.77147 0.2351 0.16187 0.0
C1895 C 0.76484 0.24584 0.18297 0.0
H1896 H 0.04406 0.50371 0.29902 0.0
H1897 H 0.11743 0.50697 0.32472 0.0
H1898 H 0.03395 0.50804 0.34044 0.0
H1899 H 0.10751 0.51226 0.36613 0.0
H1900 H 0.07765 0.49308 0.43571 0.0
H1901 H 0.0882 0.49079 0.39459 0.0
H1902 H 0.03729 0.53455 0.37609 0.0
H1903 H 0.02602 0.53606 0.41735 0.0
C1904 C 0.05806 0.50553 0.31352 0.0
C1905 C 0.08152 0.50482 0.30859 0.0
C1906 C 0.05229 0.50822 0.33729 0.0
C1907 C 0.0699 0.51051 0.35667 0.0
C1908 C 0.09342 0.51013 0.35167 0.0
C1909 C 0.09914 0.50716 0.32792 0.0
C1910 C 0.06877 0.50235 0.42294 0.0
C1911 C 0.05097 0.51474 0.42977 0.0
C1912 C 0.07494 0.50114 0.39933 0.0
C1913 C 0.06366 0.51252 0.38197 0.0
C1914 C 0.0461 0.52528 0.38891 0.0
C1915 C 0.03973 0.52629 0.41256 0.0
H1916 H 0.73857 0.80522 0.57892 0.0
H1917 H 0.75648 0.87001 0.62526 0.0
H1918 H 0.74021 0.78373 0.61437 0.0
H1919 H 0.75745 0.84879 0.66038 0.0
H1920 H 0.78379 0.80724 0.71605 0.0
H1921 H 0.78216 0.8253 0.67898 0.0
H1922 H 0.72047 0.77491 0.65078 0.0
H1923 H 0.72253 0.75619 0.68816 0.0
C1924 C 0.74279 0.81486 0.59663 0.0
C1925 C 0.74762 0.83932 0.59925 0.0
C1926 C 0.74357 0.80256 0.61694 0.0
C1927 C 0.74918 0.81451 0.64023 0.0
C1928 C 0.7536 0.83897 0.64272 0.0
C1929 C 0.75293 0.85118 0.62254 0.0
C1930 C 0.76982 0.79991 0.70202 0.0
C1931 C 0.75305 0.78044 0.70524 0.0
C1932 C 0.76884 0.81037 0.68072 0.0
C1933 C 0.75093 0.80186 0.66202 0.0
C1934 C 0.73454 0.78189 0.66482 0.0
C1935 C 0.73564 0.77122 0.68624 0.0
H1936 H 0.66182 0.39224 0.53153 0.0
H1937 H 0.71788 0.45082 0.53087 0.0
H1938 H 0.63439 0.41887 0.54052 0.0
H1939 H 0.69077 0.47738 0.54064 0.0
H1940 H 0.6277 0.5141 0.5211 0.0
H1941 H 0.65832 0.4901 0.51983 0.0
H1942 H 0.62346 0.44721 0.56963 0.0
H1943 H 0.59234 0.47089 0.57034 0.0
C1944 C 0.66834 0.41079 0.53365 0.0
C1945 C 0.69189 0.41945 0.5302 0.0
C1946 C 0.65269 0.42607 0.53899 0.0
C1947 C 0.66035 0.45031 0.54119 0.0
C1948 C 0.68417 0.45886 0.53864 0.0
C1949 C 0.69973 0.44361 0.53311 0.0
C1950 C 0.62678 0.49985 0.53216 0.0
C1951 C 0.60745 0.49428 0.54562 0.0
C1952 C 0.64441 0.48608 0.53149 0.0
C1953 C 0.64322 0.46653 0.54442 0.0
C1954 C 0.62464 0.46185 0.55907 0.0
C1955 C 0.60693 0.47556 0.55965 0.0
H1956 H 0.17787 0.067 0.46023 0.0
H1957 H 0.15957 0.12662 0.50117 0.0
H1958 H 0.1386 0.04507 0.46325 0.0
H1959 H 0.12106 0.10453 0.50563 0.0
H1960 H 0.04763 0.06695 0.4996 0.0
H1961 H 0.08414 0.08805 0.48838 0.0
H1962 H 0.11575 0.026 0.4902 0.0
H1963 H 0.07819 0.0044 0.49958 0.0
C1964 C 0.16536 0.07542 0.46979 0.0
C1965 C 0.17172 0.09852 0.4804 0.0
C1966 C 0.14292 0.06279 0.47177 0.0
C1967 C 0.1265 0.07284 0.48483 0.0
C1968 C 0.13286 0.0962 0.49498 0.0
C1969 C 0.15507 0.10894 0.49254 0.0
C1970 C 0.06226 0.05771 0.49722 0.0
C1971 C 0.06008 0.03402 0.50049 0.0
C1972 C 0.08338 0.06991 0.49105 0.0
C1973 C 0.10323 0.05898 0.48875 0.0
C1974 C 0.10085 0.03504 0.49149 0.0
C1975 C 0.07938 0.02263 0.49703 0.0
H1976 H 0.15972 0.92979 0.81757 0.0
H1977 H 0.20667 0.95621 0.76633 0.0
H1978 H 0.17806 0.89524 0.81782 0.0
H1979 H 0.22423 0.92094 0.76537 0.0
H1980 H 0.26112 0.85904 0.7804 0.0
H1981 H 0.24756 0.89669 0.78419 0.0
H1982 H 0.17703 0.8615 0.79237 0.0
H1983 H 0.19077 0.82463 0.78983 0.0
C1984 C 0.17399 0.92817 0.80634 0.0
C1985 C 0.18163 0.94559 0.7918 0.0
C1986 C 0.18441 0.90824 0.80628 0.0
C1987 C 0.20235 0.90493 0.79119 0.0
C1988 C 0.21061 0.92286 0.77734 0.0
C1989 C 0.20047 0.94305 0.77779 0.0
C1990 C 0.24276 0.85952 0.78307 0.0
C1991 C 0.22708 0.83893 0.78506 0.0
C1992 C 0.23494 0.88105 0.78517 0.0
C1993 C 0.21121 0.88231 0.78898 0.0
C1994 C 0.19556 0.86149 0.79029 0.0
C1995 C 0.20343 0.84021 0.78859 0.0
H1996 H 0.3065 0.93921 0.95537 0.0
H1997 H 0.31712 0.89084 0.00731 0.0
H1998 H 0.34925 0.94919 0.95437 0.0
H1999 H 0.3596 0.90109 0.00659 0.0
H2000 H 0.43471 0.9123 0.99239 0.0
H2001 H 0.39245 0.89908 0.98212 0.0
H2002 H 0.38185 0.97043 0.98278 0.0
H2003 H 0.42416 0.98366 0.99252 0.0
C2004 C 0.31791 0.93057 0.96642 0.0
C2005 C 0.30839 0.91436 0.98157 0.0
C2006 C 0.34238 0.93635 0.96589 0.0
C2007 C 0.35781 0.92595 0.98039 0.0
C2008 C 0.34822 0.90918 0.99491 0.0
C2009 C 0.32382 0.90345 -0.00452 0.0
C2010 C 0.42343 0.92516 0.98988 0.0
C2011 C 0.4327 0.94904 0.99366 0.0
C2012 C 0.39921 0.91757 0.98411 0.0
C2013 C 0.38377 0.93371 0.98206 0.0
C2014 C 0.39328 0.95754 0.98412 0.0
C2015 C 0.41753 0.96514 0.98982 0.0
H2016 H 0.79524 0.54771 0.7697 0.0
H2017 H 0.85728 0.60055 0.77126 0.0
H2018 H 0.77005 0.5767 0.76186 0.0
H2019 H 0.83227 0.62919 0.76345 0.0
H2020 H 0.78505 0.66927 0.72393 0.0
H2021 H 0.80536 0.63637 0.72861 0.0
H2022 H 0.75956 0.61391 0.78245 0.0
H2023 H 0.73906 0.64683 0.77777 0.0
C2024 C 0.80348 0.5655 0.76858 0.0
C2025 C 0.82827 0.57181 0.77108 0.0
C2026 C 0.78907 0.58205 0.76407 0.0
C2027 C 0.7992 0.60511 0.76165 0.0
C2028 C 0.82394 0.61145 0.7647 0.0
C2029 C 0.83827 0.59505 0.76942 0.0
C2030 C 0.77893 0.65709 0.73641 0.0
C2031 C 0.76059 0.66089 0.75068 0.0
C2032 C 0.79071 0.63833 0.73922 0.0
C2033 C 0.78435 0.62283 0.75624 0.0
C2034 C 0.76488 0.62558 0.76922 0.0
C2035 C 0.75314 0.64446 0.76652 0.0
H2036 H 0.79743 0.55226 0.01415 0.0
H2037 H 0.82606 0.62284 0.00295 0.0
H2038 H 0.83698 0.54256 0.01607 0.0
H2039 H 0.86578 0.61343 0.00588 0.0
H2040 H 0.93108 0.58408 0.98801 0.0
H2041 H 0.89111 0.59266 0.9849 0.0
H2042 H 0.87323 0.5483 0.0406 0.0
H2043 H 0.91307 0.53897 0.04293 0.0
C2044 C 0.81221 0.56577 0.01229 0.0
C2045 C 0.8086 0.58832 0.00835 0.0
C2046 C 0.83494 0.56024 0.01354 0.0
C2047 C 0.85466 0.57719 0.01117 0.0
C2048 C 0.85101 0.59979 0.00736 0.0
C2049 C 0.82823 0.60526 0.00581 0.0
C2050 C 0.91859 0.57612 -0.00044 0.0
C2051 C 0.92521 0.56089 0.01575 0.0
C2052 C 0.89568 0.58116 -0.00211 0.0
C2053 C 0.87891 0.57133 0.01261 0.0
C2054 C 0.88555 0.55596 0.02874 0.0
C2055 C 0.90842 0.55068 0.03018 0.0
H2056 H 0.19806 0.07916 0.81114 0.0
H2057 H 0.16017 0.08797 0.74388 0.0
H2058 H 0.22304 0.11738 0.81051 0.0
H2059 H 0.18536 0.1251 0.74267 0.0
H2060 H 0.2056 0.2008 0.76294 0.0
H2061 H 0.18626 0.16169 0.76586 0.0
H2062 H 0.25313 0.14284 0.78968 0.0
H2063 H 0.27281 0.18309 0.78761 0.0
C2064 C 0.19539 0.08906 0.79606 0.0
C2065 C 0.17687 0.08092 0.77784 0.0
C2066 C 0.2097 0.11084 0.79564 0.0
C2067 C 0.20579 0.12453 0.77684 0.0
C2068 C 0.18835 0.1154 0.75784 0.0
C2069 C 0.17394 0.09406 0.75848 0.0
C2070 C 0.21636 0.18849 0.76891 0.0
C2071 C 0.24086 0.19508 0.7748 0.0
C2072 C 0.20521 0.1659 0.77042 0.0
C2073 C 0.2182 0.14893 0.77742 0.0
C2074 C 0.24265 0.15553 0.78414 0.0
C2075 C 0.25391 0.17849 0.78288 0.0
H2076 H 0.34529 0.95409 0.29581 0.0
H2077 H 0.40074 0.92416 0.26333 0.0
H2078 H 0.32554 0.91519 0.30188 0.0
H2079 H 0.38081 0.88561 0.26865 0.0
H2080 H 0.35127 0.81885 0.29203 0.0
H2081 H 0.37075 0.85934 0.29735 0.0
H2082 H 0.30391 0.88079 0.27836 0.0
H2083 H 0.28433 0.84031 0.2741 0.0
C2084 C 0.35327 0.93925 0.28998 0.0
C2085 C 0.37459 0.94226 0.27905 0.0
C2086 C 0.34192 0.91696 0.29341 0.0
C2087 C 0.35163 0.89723 0.28591 0.0
C2088 C 0.37306 0.90037 0.2752 0.0
C2089 C 0.38441 0.92255 0.27192 0.0
C2090 C 0.34068 0.83229 0.2896 0.0
C2091 C 0.31637 0.82646 0.28241 0.0
C2092 C 0.35185 0.85548 0.29243 0.0
C2093 C 0.33901 0.8733 0.28769 0.0
C2094 C 0.31435 0.86756 0.28224 0.0
C2095 C 0.3031 0.84433 0.27976 0.0
H2096 H 0.48551 0.34266 0.61737 0.0
H2097 H 0.53876 0.32376 0.57281 0.0
H2098 H 0.47966 0.37373 0.59269 0.0
H2099 H 0.53434 0.35569 0.54917 0.0
H2100 H 0.52046 0.41024 0.50368 0.0
H2101 H 0.51417 0.37366 0.52157 0.0
H2102 H 0.49797 0.41026 0.58742 0.0
H2103 H 0.50263 0.44616 0.56891 0.0
C2104 C 0.49596 0.3452 0.60226 0.0
C2105 C 0.51269 0.33093 0.59709 0.0
C2106 C 0.49277 0.36313 0.58817 0.0
C2107 C 0.50672 0.36763 0.56897 0.0
C2108 C 0.5229 0.35271 0.56342 0.0
C2109 C 0.52564 0.33444 0.57714 0.0
C2110 C 0.51494 0.41025 0.52175 0.0
C2111 C 0.51222 0.43109 0.53492 0.0
C2112 C 0.5116 0.38932 0.53217 0.0
C2113 C 0.50604 0.38886 0.55624 0.0
C2114 C 0.50196 0.4096 0.56881 0.0
C2115 C 0.50476 0.43037 0.55819 0.0
H2116 H 0.44333 0.72697 0.30456 0.0
H2117 H 0.4226 0.75023 0.37392 0.0
H2118 H 0.40209 0.71877 0.288 0.0
H2119 H 0.38149 0.74392 0.35718 0.0
H2120 H 0.3075 0.72696 0.32552 0.0
H2121 H 0.34638 0.72117 0.34149 0.0
H2122 H 0.37446 0.74003 0.27514 0.0
H2123 H 0.33519 0.74391 0.25871 0.0
C2124 C 0.4298 0.73018 0.31625 0.0
C2125 C 0.43596 0.73934 0.3404 0.0
C2126 C 0.40619 0.72572 0.30675 0.0
C2127 C 0.38832 0.73111 0.32101 0.0
C2128 C 0.39456 0.73921 0.3456 0.0
C2129 C 0.41815 0.743 0.35526 0.0
C2130 C 0.32197 0.72935 0.31424 0.0
C2131 C 0.31846 0.73608 0.29099 0.0
C2132 C 0.34433 0.72626 0.32345 0.0
C2133 C 0.36383 0.7305 0.30987 0.0
C2134 C 0.35995 0.73622 0.28613 0.0
C2135 C 0.33743 0.73866 0.27668 0.0
H2136 H 0.06379 0.69761 0.16328 0.0
H2137 H 0.02638 0.721 0.1027 0.0
H2138 H 0.0581 0.65862 0.1421 0.0
H2139 H 0.02036 0.6818 0.08171 0.0
H2140 H 0.02547 0.61082 0.04398 0.0
H2141 H 0.0391 0.65058 0.06286 0.0
H2142 H 0.02332 0.62845 0.13217 0.0
H2143 H 0.01011 0.58886 0.11348 0.0
C2144 C 0.05453 0.69452 0.14536 0.0
C2145 C 0.04528 0.7124 0.13482 0.0
C2146 C 0.0512 0.67212 0.13327 0.0
C2147 C 0.03853 0.66706 0.11037 0.0
C2148 C 0.03034 0.68518 0.09928 0.0
C2149 C 0.03369 0.70763 0.11137 0.0
C2150 C 0.02519 0.61442 0.06329 0.0
C2151 C 0.0166 0.59671 0.07722 0.0
C2152 C 0.03287 0.6372 0.07407 0.0
C2153 C 0.03226 0.64267 0.09899 0.0
C2154 C 0.02433 0.62478 0.11298 0.0
C2155 C 0.01658 0.60209 0.10222 0.0
H2156 H 0.09323 0.28109 0.88246 0.0
H2157 H 0.05449 0.22909 0.82747 0.0
H2158 H 0.12839 0.2825 0.86004 0.0
H2159 H 0.08953 0.2303 0.80552 0.0
H2160 H 0.16778 0.21758 0.79973 0.0
H2161 H 0.13119 0.21885 0.81872 0.0
H2162 H 0.13982 0.29293 0.81507 0.0
H2163 H 0.17643 0.29161 0.79545 0.0
C2164 C 0.09226 0.27 0.86566 0.0
C2165 C 0.07122 0.25493 0.85672 0.0
C2166 C 0.11222 0.27096 0.85279 0.0
C2167 C 0.11147 0.25656 0.8311 0.0
C2168 C 0.09046 0.24156 0.82221 0.0
C2169 C 0.07047 0.24088 0.83479 0.0
C2170 C 0.16166 0.23407 0.80264 0.0
C2171 C 0.17474 0.25447 0.79607 0.0
C2172 C 0.14079 0.23478 0.81348 0.0
C2173 C 0.1329 0.256 0.8184 0.0
C2174 C 0.14573 0.27642 0.81151 0.0
C2175 C 0.16643 0.27561 0.80012 0.0
H2176 H 0.48868 0.6748 0.90476 0.0
H2177 H 0.52201 0.71449 0.97113 0.0
H2178 H 0.48546 0.63931 0.92451 0.0
H2179 H 0.51871 0.67869 0.99091 0.0
H2180 H 0.49146 0.60602 0.01879 0.0
H2181 H 0.48842 0.64313 0.00255 0.0
H2182 H 0.52002 0.62 0.93914 0.0
H2183 H 0.52325 0.58351 0.95512 0.0
C2184 C 0.49499 0.67602 0.92367 0.0
C2185 C 0.50592 0.6974 0.93629 0.0
C2186 C 0.49316 0.65569 0.93495 0.0
C2187 C 0.5021 0.65628 0.95912 0.0
C2188 C 0.51163 0.67781 0.97226 0.0
C2189 C 0.51361 0.69824 0.9609 0.0
C2190 C 0.49774 0.60896 0.0014 0.0
C2191 C 0.50759 0.59186 0.98824 0.0
C2192 C 0.49604 0.63014 0.99218 0.0
C2193 C 0.50375 0.63424 0.9695 0.0
C2194 C 0.5136 0.61714 0.95649 0.0
C2195 C 0.5156 0.59629 0.96578 0.0
H2196 H 0.06842 0.75535 0.70377 0.0
H2197 H 0.09231 0.73808 0.63405 0.0
H2198 H 0.10832 0.75733 0.72272 0.0
H2199 H 0.13219 0.73948 0.65311 0.0
H2200 H 0.20359 0.77716 0.69228 0.0
H2201 H 0.16368 0.76947 0.67236 0.0
H2202 H 0.13875 0.73444 0.73242 0.0
H2203 H 0.1788 0.74267 0.75275 0.0
C2204 C 0.08216 0.75175 0.69252 0.0
C2205 C 0.07728 0.74674 0.6674 0.0
C2206 C 0.10499 0.75268 0.70341 0.0
C2207 C 0.12343 0.74856 0.68942 0.0
C2208 C 0.11842 0.74303 0.66434 0.0
C2209 C 0.09558 0.74216 0.65343 0.0
C2210 C 0.18966 0.76763 0.70119 0.0
C2211 C 0.19431 0.76068 0.72419 0.0
C2212 C 0.16678 0.76307 0.68966 0.0
C2213 C 0.14802 0.75142 0.70083 0.0
C2214 C 0.1528 0.74375 0.7235 0.0
C2215 C 0.17574 0.74833 0.73507 0.0
H2216 H 0.03272 0.32185 0.46095 0.0
H2217 H 0.03908 0.36225 0.40035 0.0
H2218 H 0.03421 0.35749 0.48792 0.0
H2219 H 0.03939 0.39738 0.42676 0.0
H2220 H 0.05257 0.46056 0.47639 0.0
H2221 H 0.0607 0.42435 0.45672 0.0
H2222 H 0.01066 0.3858 0.4982 0.0
H2223 H 0.00395 0.42234 0.51912 0.0
C2224 C 0.03448 0.33833 0.45341 0.0
C2225 C 0.03581 0.33924 0.42852 0.0
C2226 C 0.03521 0.35874 0.46883 0.0
C2227 C 0.03701 0.38041 0.45962 0.0
C2228 C 0.03863 0.38118 0.43473 0.0
C2229 C 0.03824 0.36093 0.41945 0.0
C2230 C 0.04374 0.44431 0.48165 0.0
C2231 C 0.02739 0.44416 0.49894 0.0
C2232 C 0.0482 0.42353 0.47023 0.0
C2233 C 0.03581 0.40208 0.47529 0.0
C2234 C 0.02058 0.40194 0.49383 0.0
C2235 C 0.01661 0.42285 0.50577 0.0
H2236 H 0.44727 0.22617 0.22086 0.0
H2237 H 0.4361 0.26704 0.16192 0.0
H2238 H 0.41008 0.23314 0.23535 0.0
H2239 H 0.39903 0.27448 0.17683 0.0
H2240 H 0.32082 0.24749 0.18891 0.0
H2241 H 0.36093 0.25051 0.17767 0.0
H2242 H 0.38766 0.26131 0.25296 0.0
H2243 H 0.34708 0.25772 0.2643 0.0
C2244 C 0.43704 0.23691 0.21115 0.0
C2245 C 0.44453 0.24578 0.19001 0.0
C2246 C 0.4158 0.24111 0.21964 0.0
C2247 C 0.40154 0.25433 0.20723 0.0
C2248 C 0.40948 0.26398 0.18663 0.0
C2249 C 0.43073 0.25973 0.17809 0.0
C2250 C 0.33524 0.25083 0.20312 0.0
C2251 C 0.3308 0.25204 0.2275 0.0
C2252 C 0.3583 0.25278 0.19664 0.0
C2253 C 0.37751 0.25597 0.2144 0.0
C2254 C 0.37317 0.25852 0.23886 0.0
C2255 C 0.34999 0.25664 0.24536 0.0
H2256 H 0.55713 0.52181 0.33925 0.0
H2257 H 0.61613 0.48958 0.36283 0.0
H2258 H 0.54006 0.5158 0.37685 0.0
H2259 H 0.59862 0.48317 0.40066 0.0
H2260 H 0.57473 0.50723 0.47547 0.0
H2261 H 0.59148 0.50679 0.43689 0.0
H2262 H 0.52139 0.48614 0.39991 0.0
H2263 H 0.5045 0.48707 0.43861 0.0
C2264 C 0.56643 0.51326 0.35238 0.0
C2265 C 0.58813 0.5063 0.348 0.0
C2266 C 0.55646 0.50961 0.37392 0.0
C2267 C 0.56788 0.4989 0.39176 0.0
C2268 C 0.58945 0.49163 0.38734 0.0
C2269 C 0.59945 0.49524 0.36565 0.0
C2270 C 0.56285 0.5024 0.45914 0.0
C2271 C 0.53821 0.49748 0.46014 0.0
C2272 C 0.57252 0.50196 0.43699 0.0
C2273 C 0.55779 0.49661 0.41529 0.0
C2274 C 0.53321 0.4907 0.41631 0.0
C2275 C 0.52353 0.4911 0.43849 0.0
H2276 H 0.28234 0.87942 0.09458 0.0
H2277 H 0.23571 0.8155 0.06654 0.0
H2278 H 0.29146 0.86257 0.13172 0.0
H2279 H 0.24469 0.79878 0.1038 0.0
H2280 H 0.27763 0.7705 0.16937 0.0
H2281 H 0.27663 0.78598 0.13012 0.0
H2282 H 0.26692 0.85236 0.16478 0.0
H2283 H 0.26802 0.8371 0.20361 0.0
C2284 C 0.27419 0.86172 0.09626 0.0
C2285 C 0.2581 0.84888 0.07776 0.0
C2286 C 0.2794 0.85209 0.11753 0.0
C2287 C 0.26869 0.82941 0.1207 0.0
C2288 C 0.25338 0.81622 0.10178 0.0
C2289 C 0.24809 0.82588 0.08054 0.0
C2290 C 0.27564 0.78847 0.16855 0.0
C2291 C 0.27274 0.80255 0.18949 0.0
C2292 C 0.27494 0.79728 0.14613 0.0
C2293 C 0.27169 0.82037 0.14441 0.0
C2294 C 0.26973 0.8346 0.16553 0.0
C2295 C 0.27016 0.82577 0.18777 0.0
H2296 H 0.90783 0.53254 0.85502 0.0
H2297 H 0.97461 0.54247 0.82396 0.0
H2298 H 0.92883 0.53635 0.8952 0.0
H2299 H -0.0044 0.54702 0.86404 0.0
H2300 H 0.01932 0.51217 0.93028 0.0
H2301 H 0.00126 0.51913 0.89158 0.0
H2302 H 0.95501 0.55922 0.92777 0.0
H2303 H 0.97266 0.55165 0.96657 0.0
C2304 C 0.92698 0.53624 0.85684 0.0
C2305 C 0.93957 0.53682 0.83636 0.0
C2306 C 0.93905 0.53848 0.87988 0.0
C2307 C 0.96393 0.54156 0.8828 0.0
C2308 C 0.97645 0.54405 0.86238 0.0
C2309 C 0.96441 0.54158 0.83942 0.0
C2310 C 0.00556 0.52277 0.93005 0.0
C2311 C -0.00261 0.53124 0.9516 0.0
C2312 C -0.00473 0.52691 0.9078 0.0
C2313 C 0.97661 0.53971 0.90654 0.0
C2314 C 0.96913 0.54905 0.9281 0.0
C2315 C 0.97941 0.54485 0.95037 0.0
H2316 H 0.21583 0.1437 0.59004 0.0
H2317 H 0.27665 0.1831 0.56332 0.0
H2318 H 0.22514 0.16737 0.62907 0.0
H2319 H 0.28607 0.20644 0.60251 0.0
H2320 H 0.31075 0.20831 0.6857 0.0
H2321 H 0.29895 0.19187 0.644 0.0
H2322 H 0.23032 0.21174 0.64878 0.0
H2323 H 0.24238 0.22881 0.69067 0.0
C2324 C 0.23103 0.15756 0.59241 0.0
C2325 C 0.24562 0.16142 0.57367 0.0
C2326 C 0.23622 0.17119 0.61467 0.0
C2327 C 0.25632 0.18865 0.61872 0.0
C2328 C 0.27049 0.19303 0.59979 0.0
C2329 C 0.26506 0.17969 0.57739 0.0
C2330 C 0.29323 0.2094 0.67779 0.0
C2331 C 0.27743 0.21973 0.69137 0.0
C2332 C 0.28655 0.20014 0.6539 0.0
C2333 C 0.26377 0.2006 0.64325 0.0
C2334 C 0.248 0.21121 0.65667 0.0
C2335 C 0.2549 0.221 0.68051 0.0
H2336 H 0.57856 0.50896 0.2231 0.0
H2337 H 0.64219 0.49316 0.19423 0.0
H2338 H 0.56059 0.51003 0.18246 0.0
H2339 H 0.62385 0.4927 0.15345 0.0
H2340 H 0.59432 0.51123 0.0831 0.0
H2341 H 0.61193 0.51509 0.12457 0.0
H2342 H 0.54381 0.48747 0.14734 0.0
H2343 H 0.52611 0.48512 0.10601 0.0
C2344 C 0.58858 0.50542 0.20797 0.0
C2345 C 0.61176 0.50097 0.21177 0.0
C2346 C 0.57825 0.50591 0.18462 0.0
C2347 C 0.59067 0.50146 0.16446 0.0
C2348 C 0.61384 0.49677 0.16841 0.0
C2349 C 0.62434 0.49679 0.1918 0.0
C2350 C 0.58311 0.50633 0.0971 0.0
C2351 C 0.55889 0.49789 0.09141 0.0
C2352 C 0.59322 0.50828 0.12087 0.0
C2353 C 0.57945 0.50126 0.13945 0.0
C2354 C 0.55501 0.49336 0.13371 0.0
C2355 C 0.54481 0.49193 0.10998 0.0
H2356 H 0.22758 0.81165 0.96333 0.0
H2357 H 0.19463 0.8504 0.91224 0.0
H2358 H 0.22986 0.78152 0.93089 0.0
H2359 H 0.19674 0.81996 0.87989 0.0
H2360 H 0.19897 0.75628 0.82713 0.0
H2361 H 0.18551 0.77486 0.86363 0.0
H2362 H 0.25754 0.78993 0.89637 0.0
H2363 H 0.27088 0.77212 0.85982 0.0
C2364 C 0.22017 0.81345 0.94534 0.0
C2365 C 0.21134 0.83369 0.94029 0.0
C2366 C 0.2215 0.79616 0.92681 0.0
C2367 C 0.21367 0.79857 0.90295 0.0
C2368 C 0.20278 0.81766 0.8982 0.0
C2369 C 0.20172 0.83514 0.9167 0.0
C2370 C 0.21168 0.76293 0.84251 0.0
C2371 C 0.23586 0.7627 0.841 0.0
C2372 C 0.20405 0.77363 0.86322 0.0
C2373 C 0.22049 0.78368 0.88277 0.0
C2374 C 0.24447 0.78201 0.8817 0.0
C2375 C 0.25212 0.77188 0.86084 0.0
H2376 H 0.87338 0.47985 0.68803 0.0
H2377 H 0.9195 0.54644 0.70317 0.0
H2378 H 0.88954 0.47379 0.64902 0.0
H2379 H 0.93513 0.54057 0.66412 0.0
H2380 H 0.93488 0.53126 0.58135 0.0
H2381 H 0.9156 0.53519 0.6184 0.0
H2382 H 0.93472 0.4706 0.63749 0.0
H2383 H 0.95456 0.46671 0.60036 0.0
C2384 C 0.88669 0.49329 0.68286 0.0
C2385 C 0.89521 0.51363 0.6985 0.0
C2386 C 0.89601 0.48973 0.66072 0.0
C2387 C 0.91353 0.50672 0.65377 0.0
C2388 C 0.92155 0.52729 0.66913 0.0
C2389 C 0.91264 0.53062 0.69141 0.0
C2390 C 0.93484 0.51775 0.5933 0.0
C2391 C 0.94626 0.49867 0.58803 0.0
C2392 C 0.92386 0.52007 0.61449 0.0
C2393 C 0.92372 0.50319 0.63062 0.0
C2394 C 0.93452 0.48373 0.62514 0.0
C2395 C 0.94594 0.4816 0.60406 0.0
H2396 H 0.25664 0.20745 0.45261 0.0
H2397 H 0.27765 0.14878 0.41242 0.0
H2398 H 0.26229 0.22993 0.41825 0.0
H2399 H 0.28384 0.17136 0.37841 0.0
H2400 H 0.25459 0.20319 0.31373 0.0
H2401 H 0.25619 0.18397 0.34994 0.0
H2402 H 0.28998 0.24859 0.39091 0.0
H2403 H 0.28817 0.26828 0.35406 0.0
C2404 C 0.26285 0.19948 0.43661 0.0
C2405 C 0.26636 0.1762 0.43511 0.0
C2406 C 0.26624 0.21243 0.41697 0.0
C2407 C 0.27323 0.20236 0.39547 0.0
C2408 C 0.27798 0.1795 0.39453 0.0
C2409 C 0.27451 0.16656 0.41407 0.0
C2410 C 0.26254 0.21345 0.33035 0.0
C2411 C 0.27127 0.23736 0.33092 0.0
C2412 C 0.26362 0.20229 0.35117 0.0
C2413 C 0.27341 0.21464 0.37334 0.0
C2414 C 0.28227 0.23859 0.37408 0.0
C2415 C 0.28134 0.24984 0.353 0.0
H2416 H 0.32221 0.55471 0.54124 0.0
H2417 H 0.3334 0.61341 0.49967 0.0
H2418 H 0.3559 0.54056 0.52527 0.0
H2419 H 0.36712 0.59897 0.48343 0.0
H2420 H 0.44514 0.58683 0.50314 0.0
H2421 H 0.40621 0.5976 0.5041 0.0
H2422 H 0.37406 0.52518 0.48959 0.0
H2423 H 0.41343 0.51435 0.48878 0.0
C2424 C 0.33164 0.56443 0.52841 0.0
C2425 C 0.32538 0.58543 0.52207 0.0
C2426 C 0.3508 0.55613 0.51901 0.0
C2427 C 0.36419 0.56867 0.50313 0.0
C2428 C 0.3572 0.58903 0.49579 0.0
C2429 C 0.33793 0.5973 0.50511 0.0
C2430 C 0.42974 0.57324 0.49958 0.0
C2431 C 0.43223 0.54975 0.49625 0.0
C2432 C 0.4074 0.57942 0.49993 0.0
C2433 C 0.38708 0.56222 0.49716 0.0
C2434 C 0.38948 0.53878 0.49202 0.0
C2435 C 0.41194 0.53259 0.49141 0.0
H2436 H 0.81207 0.96978 0.55428 0.0
H2437 H 0.82831 0.90309 0.52834 0.0
H2438 H 0.85393 0.98648 0.55839 0.0
H2439 H 0.86999 0.91994 0.53033 0.0
H2440 H 0.94591 0.95172 0.54434 0.0
H2441 H 0.90572 0.93514 0.55073 0.0
H2442 H 0.88285 -0.00055 0.53508 0.0
H2443 H 0.92346 0.01647 0.53087 0.0
C2444 C 0.82475 0.95872 0.54953 0.0
C2445 C 0.81713 0.93522 0.541 0.0
C2446 C 0.84873 0.96831 0.55157 0.0
C2447 C 0.86557 0.95479 0.54427 0.0
C2448 C 0.85782 0.93096 0.53651 0.0
C2449 C 0.83387 0.92123 0.53523 0.0
C2450 C 0.9323 0.96239 0.5427 0.0
C2451 C 0.93779 0.98539 0.53717 0.0
C2452 C 0.90913 0.95281 0.5461 0.0
C2453 C 0.89071 0.96575 0.54323 0.0
C2454 C 0.89643 0.98896 0.53801 0.0
C2455 C 0.91974 -0.00125 0.53536 0.0
H2456 H 0.80737 0.05299 0.24415 0.0
H2457 H 0.87389 0.09623 0.2718 0.0
H2458 H 0.78817 0.08746 0.24585 0.0
H2459 H 0.85476 0.13042 0.27337 0.0
H2460 H 0.82171 0.18591 0.2375 0.0
H2461 H 0.83761 0.15017 0.23929 0.0
H2462 H 0.77828 0.12107 0.27584 0.0
H2463 H 0.76216 0.15735 0.27427 0.0
C2464 C 0.81782 0.06976 0.25085 0.0
C2465 C 0.84221 0.07189 0.25764 0.0
C2466 C 0.8068 0.08945 0.25191 0.0
C2467 C 0.82003 0.11163 0.25951 0.0
C2468 C 0.84418 0.11358 0.26714 0.0
C2469 C 0.85512 0.09396 0.26632 0.0
C2470 C 0.81189 0.17196 0.24589 0.0
C2471 C 0.79067 0.17458 0.25585 0.0
C2472 C 0.82114 0.1515 0.24703 0.0
C2473 C 0.80935 0.13294 0.25795 0.0
C2474 C 0.78774 0.13515 0.26734 0.0
C2475 C 0.77855 0.15588 0.26646 0.0
H2476 H 0.68134 0.13295 0.04273 0.0
H2477 H 0.70205 0.06815 0.05915 0.0
H2478 H 0.64008 0.11568 0.04211 0.0
H2479 H 0.66061 0.05104 0.05996 0.0
H2480 H 0.58758 0.02087 0.01867 0.0
H2481 H 0.62866 0.03718 0.03135 0.0
H2482 H 0.60755 0.10069 0.06124 0.0
H2483 H 0.5665 0.08468 0.04709 0.0
C2484 C 0.67703 0.11514 0.04682 0.0
C2485 C 0.69484 0.10177 0.05063 0.0
C2486 C 0.65331 0.10523 0.0467 0.0
C2487 C 0.64686 0.08183 0.05082 0.0
C2488 C 0.66485 0.06893 0.05615 0.0
C2489 C 0.6886 0.07874 0.05583 0.0
C2490 C 0.59171 0.03814 0.02837 0.0
C2491 C 0.57399 0.05169 0.03157 0.0
C2492 C 0.61531 0.04751 0.0358 0.0
C2493 C 0.62159 0.07047 0.04702 0.0
C2494 C 0.60349 0.08323 0.05202 0.0
C2495 C 0.57995 0.07403 0.0441 0.0
H2496 H 0.15537 0.42482 0.28996 0.0
H2497 H 0.20938 0.46132 0.25143 0.0
H2498 H 0.18061 0.39617 0.29798 0.0
H2499 H 0.23455 0.43252 0.25936 0.0
H2500 H 0.24208 0.35331 0.24092 0.0
H2501 H 0.22711 0.3899 0.24189 0.0
H2502 H 0.22059 0.38917 0.31819 0.0
H2503 H 0.23616 0.35242 0.31723 0.0
C2504 C 0.17278 0.42694 0.28355 0.0
C2505 C 0.18027 0.44515 0.2698 0.0
C2506 C 0.18732 0.41066 0.28835 0.0
C2507 C 0.20951 0.4121 0.27924 0.0
C2508 C 0.21748 0.43096 0.26651 0.0
C2509 C 0.20307 0.44743 0.26198 0.0
C2510 C 0.23808 0.36131 0.25804 0.0
C2511 C 0.24022 0.35014 0.279 0.0
C2512 C 0.2296 0.38231 0.25862 0.0
C2513 C 0.22262 0.39235 0.2801 0.0
C2514 C 0.22583 0.38175 0.3014 0.0
C2515 C 0.23485 0.36088 0.3009 0.0
H2516 H 0.20337 0.4402 0.04712 0.0
H2517 H 0.16417 0.37123 0.02438 0.0
H2518 H 0.16754 0.45659 0.0394 0.0
H2519 H 0.1284 0.38769 0.0163 0.0
H2520 H 0.06538 0.42331 0.03293 0.0
H2521 H 0.10117 0.40688 0.03908 0.0
H2522 H 0.13989 0.4626 0.00538 0.0
H2523 H 0.10388 0.47945 -0.0005 0.0
C2524 C 0.18709 0.42853 0.04051 0.0
C2525 C 0.18656 0.40441 0.03643 0.0
C2526 C 0.16663 0.43796 0.03586 0.0
C2527 C 0.14519 0.42345 0.02713 0.0
C2528 C 0.14463 0.3993 0.02322 0.0
C2529 C 0.1651 0.38987 0.02782 0.0
C2530 C 0.08147 0.43209 0.02671 0.0
C2531 C 0.0818 0.45274 0.01575 0.0
C2532 C 0.10197 0.42254 0.03013 0.0
C2533 C 0.12334 0.43341 0.02271 0.0
C2534 C 0.12369 0.45397 0.01151 0.0
C2535 C 0.10308 0.46352 0.008 0.0
H2536 H 0.82001 0.94656 0.24741 0.0
H2537 H 0.87187 0.91311 0.21234 0.0
H2538 H 0.79672 0.90835 0.25081 0.0
H2539 H 0.84861 0.87526 0.21564 0.0
H2540 H 0.82328 0.81723 0.26151 0.0
H2541 H 0.8418 0.85521 0.25244 0.0
H2542 H 0.77357 0.87038 0.22773 0.0
H2543 H 0.75473 0.83192 0.23686 0.0
C2544 C 0.82621 0.93114 0.24 0.0
C2545 C 0.84802 0.93292 0.22995 0.0
C2546 C 0.81283 0.90927 0.24191 0.0
C2547 C 0.82107 0.88884 0.23385 0.0
C2548 C 0.84206 0.89071 0.22244 0.0
C2549 C 0.85535 0.91244 0.22049 0.0
C2550 C 0.81212 0.82856 0.25411 0.0
C2551 C 0.7875 0.82148 0.24985 0.0
C2552 C 0.82279 0.8503 0.24875 0.0
C2553 C 0.80917 0.86569 0.23915 0.0
C2554 C 0.78449 0.85885 0.23513 0.0
C2555 C 0.77375 0.83684 0.24027 0.0
H2556 H 0.61611 0.07435 0.7242 0.0
H2557 H 0.68181 0.04775 0.73001 0.0
H2558 H 0.6377 0.11352 0.72628 0.0
H2559 H 0.70374 0.08714 0.73062 0.0
H2560 H 0.7325 0.1615 0.7671 0.0
H2561 H 0.71443 0.12105 0.75652 0.0
H2562 H 0.66056 0.14228 0.70929 0.0
H2563 H 0.67789 0.18287 0.72137 0.0
C2564 C 0.63524 0.07683 0.72532 0.0
C2565 C 0.64723 0.05792 0.72713 0.0
C2566 C 0.64773 0.09941 0.72631 0.0
C2567 C 0.67262 0.10375 0.72865 0.0
C2568 C 0.68462 0.08464 0.72932 0.0
C2569 C 0.67206 0.06201 0.72881 0.0
C2570 C 0.71702 0.15746 0.75413 0.0
C2571 C 0.70641 0.1753 0.74526 0.0
C2572 C 0.70666 0.13418 0.74793 0.0
C2573 C 0.6857 0.12819 0.73229 0.0
C2574 C 0.67622 0.14613 0.72199 0.0
C2575 C 0.68626 0.16943 0.72869 0.0
loop_
_geom_bond_atom_site_label_1
_geom_bond_atom_site_label_2
_geom_bond_distance
_geom_bond_site_symmetry_2
_ccdc_geom_bond_type
C0 O1 1.306 . S
C0 O3 1.160 . S
O1 C0 1.306 . S
O1 Cd2 2.228 1_655 S
Cd2 O1 2.228 1_455 S
Cd2 O6 2.273 . S
Cd2 O10 2.277 . S
O3 C0 1.160 . S
O3 Cd4 2.203 1_655 S
Cd4 O3 2.203 1_455 S
Cd4 O6 2.411 . S
Cd4 O7 2.333 . S
Cd4 O8 2.352 . S
Cd4 O12 2.277 . S
Cd4 O13 2.356 . S
C5 O10 1.209 . S
C5 O12 1.226 . S
O6 Cd2 2.273 . S
O6 Cd4 2.411 . S
O6 C9 1.320 . S
O7 Cd4 2.333 . S
O7 C9 1.214 . S
O8 Cd4 2.352 . S
O8 C11 1.258 . S
C9 O6 1.320 . S
C9 O7 1.214 . S
O10 Cd2 2.277 . S
O10 C5 1.209 . S
C11 O8 1.258 . S
C11 O13 1.282 . S
O12 Cd4 2.277 . S
O12 C5 1.226 . S
O13 Cd4 2.356 . S
O13 C11 1.282 . S
C14 O15 1.306 . S
C14 O17 1.160 . S
O15 C14 1.306 . S
O15 Cd16 2.228 1_655 S
Cd16 O15 2.228 1_455 S
Cd16 O20 2.273 . S
Cd16 O24 2.277 . S
O17 C14 1.160 . S
O17 Cd18 2.203 1_655 S
Cd18 O17 2.203 1_455 S
Cd18 O20 2.411 . S
Cd18 O21 2.333 . S
Cd18 O22 2.352 . S
Cd18 O26 2.277 . S
Cd18 O27 2.356 . S
C19 O24 1.209 . S
C19 O26 1.226 . S
O20 Cd16 2.273 . S
O20 Cd18 2.411 . S
O20 C23 1.320 . S
O21 Cd18 2.333 . S
O21 C23 1.214 . S
O22 Cd18 2.352 . S
O22 C25 1.258 . S
C23 O20 1.320 . S
C23 O21 1.214 . S
O24 Cd16 2.277 . S
O24 C19 1.209 . S
C25 O22 1.258 . S
C25 O27 1.282 . S
O26 Cd18 2.277 . S
O26 C19 1.226 . S
O27 Cd18 2.356 . S
O27 C25 1.282 . S
C28 O29 1.306 . S
C28 O31 1.160 . S
O29 C28 1.306 . S
O29 Cd30 2.228 . S
Cd30 O29 2.228 . S
Cd30 O34 2.273 . S
Cd30 O38 2.277 . S
O31 C28 1.160 . S
O31 Cd32 2.203 . S
Cd32 O31 2.203 . S
Cd32 O34 2.411 . S
Cd32 O35 2.333 . S
Cd32 O36 2.352 . S
Cd32 O40 2.277 . S
Cd32 O41 2.356 . S
C33 O38 1.209 . S
C33 O40 1.226 . S
O34 Cd30 2.273 . S
O34 Cd32 2.411 . S
O34 C37 1.320 . S
O35 Cd32 2.333 . S
O35 C37 1.214 . S
O36 Cd32 2.352 . S
O36 C39 1.258 . S
C37 O34 1.320 . S
C37 O35 1.214 . S
O38 Cd30 2.277 . S
O38 C33 1.209 . S
C39 O36 1.258 . S
C39 O41 1.282 . S
O40 Cd32 2.277 . S
O40 C33 1.226 . S
O41 Cd32 2.356 . S
O41 C39 1.282 . S
C42 O43 1.306 . S
C42 O45 1.160 . S
O43 C42 1.306 . S
O43 Cd44 2.228 . S
Cd44 O43 2.228 . S
Cd44 O48 2.273 . S
Cd44 O52 2.277 . S
O45 C42 1.160 . S
O45 Cd46 2.203 . S
Cd46 O45 2.203 . S
Cd46 O48 2.411 . S
Cd46 O49 2.333 . S
Cd46 O50 2.352 . S
Cd46 O54 2.277 . S
Cd46 O55 2.356 . S
C47 O52 1.209 . S
C47 O54 1.226 . S
O48 Cd44 2.273 . S
O48 Cd46 2.411 . S
O48 C51 1.320 . S
O49 Cd46 2.333 . S
O49 C51 1.214 . S
O50 Cd46 2.352 . S
O50 C53 1.258 . S
C51 O48 1.320 . S
C51 O49 1.214 . S
O52 Cd44 2.277 . S
O52 C47 1.209 . S
C53 O50 1.258 . S
C53 O55 1.282 . S
O54 Cd46 2.277 . S
O54 C47 1.226 . S
O55 Cd46 2.356 . S
O55 C53 1.282 . S
C56 O57 1.306 1_655 S
C56 O59 1.160 . S
O57 C56 1.306 1_455 S
O57 Cd58 2.228 . S
Cd58 O57 2.228 . S
Cd58 O62 2.273 . S
Cd58 O66 2.277 . S
O59 C56 1.160 . S
O59 Cd60 2.203 1_655 S
Cd60 O59 2.203 1_455 S
Cd60 O62 2.411 . S
Cd60 O63 2.333 . S
Cd60 O64 2.352 . S
Cd60 O68 2.277 . S
Cd60 O69 2.356 . S
C61 O66 1.209 . S
C61 O68 1.226 . S
O62 Cd58 2.273 . S
O62 Cd60 2.411 . S
O62 C65 1.320 . S
O63 Cd60 2.333 . S
O63 C65 1.214 . S
O64 Cd60 2.352 . S
O64 C67 1.258 . S
C65 O62 1.320 . S
C65 O63 1.214 . S
O66 Cd58 2.277 . S
O66 C61 1.209 . S
C67 O64 1.258 . S
C67 O69 1.282 . S
O68 Cd60 2.277 . S
O68 C61 1.226 . S
O69 Cd60 2.356 . S
O69 C67 1.282 . S
C70 O71 1.306 . S
C70 O73 1.160 . S
O71 C70 1.306 . S
O71 Cd72 2.228 . S
Cd72 O71 2.228 . S
Cd72 O76 2.273 . S
Cd72 O80 2.277 . S
O73 C70 1.160 . S
O73 Cd74 2.203 . S
Cd74 O73 2.203 . S
Cd74 O76 2.411 . S
Cd74 O77 2.333 . S
Cd74 O78 2.352 . S
Cd74 O82 2.277 . S
Cd74 O83 2.356 . S
C75 O80 1.209 . S
C75 O82 1.226 . S
O76 Cd72 2.273 . S
O76 Cd74 2.411 . S
O76 C79 1.320 . S
O77 Cd74 2.333 . S
O77 C79 1.214 . S
O78 Cd74 2.352 . S
O78 C81 1.258 . S
C79 O76 1.320 . S
C79 O77 1.214 . S
O80 Cd72 2.277 . S
O80 C75 1.209 . S
C81 O78 1.258 . S
C81 O83 1.282 . S
O82 Cd74 2.277 . S
O82 C75 1.226 . S
O83 Cd74 2.356 . S
O83 C81 1.282 . S
C84 O85 1.306 . S
C84 O87 1.160 . S
O85 C84 1.306 . S
O85 Cd86 2.228 . S
Cd86 O85 2.228 . S
Cd86 O90 2.273 . S
Cd86 O94 2.277 . S
O87 C84 1.160 . S
O87 Cd88 2.203 . S
Cd88 O87 2.203 . S
Cd88 O90 2.411 . S
Cd88 O91 2.333 . S
Cd88 O92 2.352 . S
Cd88 O96 2.277 . S
Cd88 O97 2.356 . S
C89 O94 1.209 . S
C89 O96 1.226 . S
O90 Cd86 2.273 . S
O90 Cd88 2.411 . S
O90 C93 1.320 . S
O91 Cd88 2.333 . S
O91 C93 1.214 . S
O92 Cd88 2.352 . S
O92 C95 1.258 . S
C93 O90 1.320 . S
C93 O91 1.214 . S
O94 Cd86 2.277 . S
O94 C89 1.209 . S
C95 O92 1.258 . S
C95 O97 1.282 . S
O96 Cd88 2.277 . S
O96 C89 1.226 . S
O97 Cd88 2.356 . S
O97 C95 1.282 . S
C98 O99 1.306 . S
C98 O101 1.160 . S
O99 C98 1.306 . S
O99 Cd100 2.228 1_655 S
Cd100 O99 2.228 1_455 S
Cd100 O104 2.273 . S
Cd100 O108 2.277 . S
O101 C98 1.160 . S
O101 Cd102 2.203 1_655 S
Cd102 O101 2.203 1_455 S
Cd102 O104 2.411 . S
Cd102 O105 2.333 . S
Cd102 O106 2.352 1_455 S
Cd102 O110 2.277 . S
Cd102 O111 2.356 . S
C103 O108 1.209 . S
C103 O110 1.226 . S
O104 Cd100 2.273 . S
O104 Cd102 2.411 . S
O104 C107 1.320 . S
O105 Cd102 2.333 . S
O105 C107 1.214 . S
O106 Cd102 2.352 1_655 S
O106 C109 1.261 . S
C107 O104 1.320 . S
C107 O105 1.214 . S
O108 Cd100 2.277 . S
O108 C103 1.209 . S
C109 O106 1.261 . S
C109 O111 1.281 1_655 S
O110 Cd102 2.277 . S
O110 C103 1.226 . S
O111 Cd102 2.356 . S
O111 C109 1.281 1_455 S
C112 O113 1.306 . S
C112 O115 1.160 . S
O113 C112 1.306 . S
O113 Cd114 2.228 1_545 S
Cd114 O113 2.228 1_565 S
Cd114 O118 2.273 1_565 S
Cd114 O122 2.277 . S
O115 C112 1.160 . S
O115 Cd116 2.203 . S
Cd116 O115 2.203 . S
Cd116 O118 2.411 . S
Cd116 O119 2.333 . S
Cd116 O120 2.352 . S
Cd116 O124 2.277 1_545 S
Cd116 O125 2.356 . S
C117 O122 1.209 . S
C117 O124 1.226 . S
O118 Cd114 2.273 1_545 S
O118 Cd116 2.411 . S
O118 C121 1.320 . S
O119 Cd116 2.333 . S
O119 C121 1.214 . S
O120 Cd116 2.352 . S
O120 C123 1.258 . S
C121 O118 1.320 . S
C121 O119 1.214 . S
O122 Cd114 2.277 . S
O122 C117 1.209 . S
C123 O120 1.258 . S
C123 O125 1.282 . S
O124 Cd116 2.277 1_565 S
O124 C117 1.226 . S
O125 Cd116 2.356 . S
O125 C123 1.282 . S
C126 O127 1.306 . S
C126 O129 1.160 . S
O127 C126 1.306 . S
O127 Cd128 2.228 . S
Cd128 O127 2.228 . S
Cd128 O132 2.273 . S
Cd128 O136 2.277 . S
O129 C126 1.160 . S
O129 Cd130 2.203 . S
Cd130 O129 2.203 . S
Cd130 O132 2.411 . S
Cd130 O133 2.333 . S
Cd130 O134 2.352 . S
Cd130 O138 2.277 . S
Cd130 O139 2.356 . S
C131 O136 1.209 . S
C131 O138 1.226 . S
O132 Cd128 2.273 . S
O132 Cd130 2.411 . S
O132 C135 1.320 . S
O133 Cd130 2.333 . S
O133 C135 1.214 . S
O134 Cd130 2.352 . S
O134 C137 1.258 . S
C135 O132 1.320 . S
C135 O133 1.214 . S
O136 Cd128 2.277 . S
O136 C131 1.209 . S
C137 O134 1.258 . S
C137 O139 1.282 . S
O138 Cd130 2.277 . S
O138 C131 1.226 . S
O139 Cd130 2.356 . S
O139 C137 1.282 . S
C140 O141 1.306 . S
C140 O143 1.160 . S
O141 C140 1.306 . S
O141 Cd142 2.228 . S
Cd142 O141 2.228 . S
Cd142 O146 2.273 . S
Cd142 O150 2.277 . S
O143 C140 1.160 . S
O143 Cd144 2.203 . S
Cd144 O143 2.203 . S
Cd144 O146 2.411 . S
Cd144 O147 2.333 . S
Cd144 O148 2.352 1_545 S
Cd144 O152 2.277 . S
Cd144 O153 2.356 1_545 S
C145 O150 1.209 . S
C145 O152 1.226 . S
O146 Cd142 2.273 . S
O146 Cd144 2.411 . S
O146 C149 1.320 . S
O147 Cd144 2.333 . S
O147 C149 1.214 . S
O148 Cd144 2.352 1_565 S
O148 C151 1.258 . S
C149 O146 1.320 . S
C149 O147 1.214 . S
O150 Cd142 2.277 . S
O150 C145 1.209 . S
C151 O148 1.258 . S
C151 O153 1.282 . S
O152 Cd144 2.277 . S
O152 C145 1.226 . S
O153 Cd144 2.356 1_565 S
O153 C151 1.282 . S
C154 O155 1.306 . S
C154 O157 1.160 . S
O155 C154 1.306 . S
O155 Cd156 2.228 1_554 S
Cd156 O155 2.228 1_556 S
Cd156 O160 2.273 1_556 S
Cd156 O164 2.277 . S
O157 C154 1.160 . S
O157 Cd158 2.203 . S
Cd158 O157 2.203 . S
Cd158 O160 2.411 . S
Cd158 O161 2.333 . S
Cd158 O162 2.352 . S
Cd158 O166 2.277 1_554 S
Cd158 O167 2.356 . S
C159 O164 1.209 . S
C159 O166 1.226 . S
O160 Cd156 2.273 1_554 S
O160 Cd158 2.411 . S
O160 C163 1.320 . S
O161 Cd158 2.333 . S
O161 C163 1.214 . S
O162 Cd158 2.352 . S
O162 C165 1.258 . S
C163 O160 1.320 . S
C163 O161 1.214 . S
O164 Cd156 2.277 . S
O164 C159 1.209 . S
C165 O162 1.258 . S
C165 O167 1.282 . S
O166 Cd158 2.277 1_556 S
O166 C159 1.226 . S
O167 Cd158 2.356 . S
O167 C165 1.282 . S
C168 O169 1.306 . S
C168 O171 1.160 . S
O169 C168 1.306 . S
O169 Cd170 2.228 . S
Cd170 O169 2.228 . S
Cd170 O174 2.273 . S
Cd170 O178 2.282 . S
O171 C168 1.160 . S
O171 Cd172 2.203 . S
Cd172 O171 2.203 . S
Cd172 O174 2.411 . S
Cd172 O175 2.333 . S
Cd172 O176 2.352 . S
Cd172 O180 2.277 . S
Cd172 O181 2.356 . S
C173 O178 1.208 1_556 S
C173 O180 1.226 1_556 S
O174 Cd170 2.273 . S
O174 Cd172 2.411 . S
O174 C177 1.320 . S
O175 Cd172 2.333 . S
O175 C177 1.214 . S
O176 Cd172 2.352 . S
O176 C179 1.258 . S
C177 O174 1.320 . S
C177 O175 1.214 . S
O178 Cd170 2.282 . S
O178 C173 1.208 1_554 S
C179 O176 1.258 . S
C179 O181 1.282 . S
O180 Cd172 2.277 . S
O180 C173 1.226 1_554 S
O181 Cd172 2.356 . S
O181 C179 1.282 . S
C182 O183 1.306 . S
C182 O185 1.160 . S
O183 C182 1.306 . S
O183 Cd184 2.228 . S
Cd184 O183 2.228 . S
Cd184 O188 2.273 . S
Cd184 O192 2.277 . S
O185 C182 1.160 . S
O185 Cd186 2.203 . S
Cd186 O185 2.203 . S
Cd186 O188 2.411 . S
Cd186 O189 2.333 . S
Cd186 O190 2.352 1_554 S
Cd186 O194 2.277 . S
Cd186 O195 2.356 1_554 S
C187 O192 1.209 . S
C187 O194 1.226 . S
O188 Cd184 2.273 . S
O188 Cd186 2.411 . S
O188 C191 1.320 . S
O189 Cd186 2.333 . S
O189 C191 1.214 . S
O190 Cd186 2.352 1_556 S
O190 C193 1.258 . S
C191 O188 1.320 . S
C191 O189 1.214 . S
O192 Cd184 2.277 . S
O192 C187 1.209 . S
C193 O190 1.258 . S
C193 O195 1.282 . S
O194 Cd186 2.277 . S
O194 C187 1.226 . S
O195 Cd186 2.356 1_556 S
O195 C193 1.282 . S
C196 O197 1.306 . S
C196 O199 1.160 . S
O197 C196 1.306 . S
O197 Cd198 2.228 . S
Cd198 O197 2.228 . S
Cd198 O202 2.273 . S
Cd198 O206 2.277 . S
O199 C196 1.160 . S
O199 Cd200 2.203 . S
Cd200 O199 2.203 . S
Cd200 O202 2.411 . S
Cd200 O203 2.333 . S
Cd200 O204 2.352 . S
Cd200 O208 2.277 . S
Cd200 O209 2.356 . S
C201 O206 1.209 . S
C201 O208 1.226 . S
O202 Cd198 2.273 . S
O202 Cd200 2.411 . S
O202 C205 1.320 . S
O203 Cd200 2.333 . S
O203 C205 1.214 . S
O204 Cd200 2.352 . S
O204 C207 1.258 . S
C205 O202 1.320 . S
C205 O203 1.214 . S
O206 Cd198 2.277 . S
O206 C201 1.209 . S
C207 O204 1.258 . S
C207 O209 1.282 . S
O208 Cd200 2.277 . S
O208 C201 1.226 . S
O209 Cd200 2.356 . S
O209 C207 1.282 . S
C210 O211 1.306 . S
C210 O213 1.160 . S
O211 C210 1.306 . S
O211 Cd212 2.228 . S
Cd212 O211 2.228 . S
Cd212 O216 2.273 . S
Cd212 O220 2.277 . S
O213 C210 1.160 . S
O213 Cd214 2.203 . S
Cd214 O213 2.203 . S
Cd214 O216 2.411 . S
Cd214 O217 2.333 . S
Cd214 O218 2.352 . S
Cd214 O222 2.277 . S
Cd214 O223 2.356 . S
C215 O220 1.209 . S
C215 O222 1.226 . S
O216 Cd212 2.273 . S
O216 Cd214 2.411 . S
O216 C219 1.320 . S
O217 Cd214 2.333 . S
O217 C219 1.214 . S
O218 Cd214 2.352 . S
O218 C221 1.258 . S
C219 O216 1.320 . S
C219 O217 1.214 . S
O220 Cd212 2.277 . S
O220 C215 1.209 . S
C221 O218 1.258 . S
C221 O223 1.282 . S
O222 Cd214 2.277 . S
O222 C215 1.226 . S
O223 Cd214 2.356 . S
O223 C221 1.282 . S
C224 O225 1.306 . S
C224 O227 1.160 . S
O225 C224 1.306 . S
O225 Cd226 2.228 1_545 S
Cd226 O225 2.228 1_565 S
Cd226 O230 2.273 1_565 S
Cd226 O234 2.277 . S
O227 C224 1.160 . S
O227 Cd228 2.203 . S
Cd228 O227 2.203 . S
Cd228 O230 2.411 . S
Cd228 O231 2.333 . S
Cd228 O232 2.352 . S
Cd228 O236 2.277 1_545 S
Cd228 O237 2.356 . S
C229 O234 1.209 . S
C229 O236 1.226 . S
O230 Cd226 2.273 1_545 S
O230 Cd228 2.411 . S
O230 C233 1.320 . S
O231 Cd228 2.333 . S
O231 C233 1.214 . S
O232 Cd228 2.352 . S
O232 C235 1.258 . S
C233 O230 1.320 . S
C233 O231 1.214 . S
O234 Cd226 2.277 . S
O234 C229 1.209 . S
C235 O232 1.258 . S
C235 O237 1.282 . S
O236 Cd228 2.277 1_565 S
O236 C229 1.226 . S
O237 Cd228 2.356 . S
O237 C235 1.282 . S
C238 O239 1.306 . S
C238 O241 1.160 . S
O239 C238 1.306 . S
O239 Cd240 2.228 . S
Cd240 O239 2.228 . S
Cd240 O244 2.273 . S
Cd240 O248 2.277 . S
O241 C238 1.160 . S
O241 Cd242 2.203 . S
Cd242 O241 2.203 . S
Cd242 O244 2.411 . S
Cd242 O245 2.333 . S
Cd242 O246 2.352 . S
Cd242 O250 2.277 . S
Cd242 O251 2.356 . S
C243 O248 1.209 . S
C243 O250 1.226 . S
O244 Cd240 2.273 . S
O244 Cd242 2.411 . S
O244 C247 1.320 . S
O245 Cd242 2.333 . S
O245 C247 1.214 . S
O246 Cd242 2.352 . S
O246 C249 1.258 . S
C247 O244 1.320 . S
C247 O245 1.214 . S
O248 Cd240 2.277 . S
O248 C243 1.209 . S
C249 O246 1.258 . S
C249 O251 1.282 . S
O250 Cd242 2.277 . S
O250 C243 1.226 . S
O251 Cd242 2.356 . S
O251 C249 1.282 . S
C252 O253 1.306 . S
C252 O255 1.160 . S
O253 C252 1.306 . S
O253 Cd254 2.228 . S
Cd254 O253 2.228 . S
Cd254 O258 2.273 . S
Cd254 O262 2.277 . S
O255 C252 1.160 . S
O255 Cd256 2.203 . S
Cd256 O255 2.203 . S
Cd256 O258 2.411 . S
Cd256 O259 2.333 . S
Cd256 O260 2.352 . S
Cd256 O264 2.277 . S
Cd256 O265 2.356 . S
C257 O262 1.209 . S
C257 O264 1.226 . S
O258 Cd254 2.273 . S
O258 Cd256 2.411 . S
O258 C261 1.320 . S
O259 Cd256 2.333 . S
O259 C261 1.214 . S
O260 Cd256 2.352 . S
O260 C263 1.258 . S
C261 O258 1.320 . S
C261 O259 1.214 . S
O262 Cd254 2.277 . S
O262 C257 1.209 . S
C263 O260 1.258 . S
C263 O265 1.282 . S
O264 Cd256 2.277 . S
O264 C257 1.226 . S
O265 Cd256 2.356 . S
O265 C263 1.282 . S
C266 O267 1.306 . S
C266 O269 1.149 1_545 S
O267 C266 1.306 . S
O267 Cd268 2.228 . S
Cd268 O267 2.228 . S
Cd268 O272 2.273 1_545 S
Cd268 O276 2.277 . S
O269 C266 1.149 1_565 S
O269 Cd270 2.204 . S
Cd270 O269 2.204 . S
Cd270 O272 2.411 . S
Cd270 O273 2.333 . S
Cd270 O274 2.352 . S
Cd270 O278 2.277 1_565 S
Cd270 O279 2.356 . S
C271 O276 1.209 . S
C271 O278 1.226 . S
O272 Cd268 2.273 1_565 S
O272 Cd270 2.411 . S
O272 C275 1.320 . S
O273 Cd270 2.333 . S
O273 C275 1.214 . S
O274 Cd270 2.352 . S
O274 C277 1.258 . S
C275 O272 1.320 . S
C275 O273 1.214 . S
O276 Cd268 2.277 . S
O276 C271 1.209 . S
C277 O274 1.258 . S
C277 O279 1.282 . S
O278 Cd270 2.277 1_545 S
O278 C271 1.226 . S
O279 Cd270 2.356 . S
O279 C277 1.282 . S
C280 O281 1.306 . S
C280 O283 1.146 1_554 S
O281 C280 1.306 . S
O281 Cd282 2.228 . S
Cd282 O281 2.228 . S
Cd282 O286 2.273 1_554 S
Cd282 O290 2.277 . S
O283 C280 1.146 1_556 S
O283 Cd284 2.204 . S
Cd284 O283 2.204 . S
Cd284 O286 2.411 . S
Cd284 O287 2.333 . S
Cd284 O288 2.352 . S
Cd284 O292 2.277 1_556 S
Cd284 O293 2.356 . S
C285 O290 1.209 . S
C285 O292 1.226 . S
O286 Cd282 2.273 1_556 S
O286 Cd284 2.411 . S
O286 C289 1.320 . S
O287 Cd284 2.333 . S
O287 C289 1.214 . S
O288 Cd284 2.352 . S
O288 C291 1.258 . S
C289 O286 1.320 . S
C289 O287 1.214 . S
O290 Cd282 2.277 . S
O290 C285 1.209 . S
C291 O288 1.258 . S
C291 O293 1.282 . S
O292 Cd284 2.277 1_554 S
O292 C285 1.226 . S
O293 Cd284 2.356 . S
O293 C291 1.282 . S
C294 O295 1.306 . S
C294 O297 1.160 . S
O295 C294 1.306 . S
O295 Cd296 2.228 . S
Cd296 O295 2.228 . S
Cd296 O300 2.273 . S
Cd296 O304 2.277 . S
O297 C294 1.160 . S
O297 Cd298 2.203 . S
Cd298 O297 2.203 . S
Cd298 O300 2.411 . S
Cd298 O301 2.333 . S
Cd298 O302 2.352 . S
Cd298 O306 2.277 . S
Cd298 O307 2.356 . S
C299 O304 1.209 . S
C299 O306 1.226 . S
O300 Cd296 2.273 . S
O300 Cd298 2.411 . S
O300 C303 1.320 . S
O301 Cd298 2.333 . S
O301 C303 1.214 . S
O302 Cd298 2.352 . S
O302 C305 1.258 . S
C303 O300 1.320 . S
C303 O301 1.214 . S
O304 Cd296 2.277 . S
O304 C299 1.209 . S
C305 O302 1.258 . S
C305 O307 1.282 . S
O306 Cd298 2.277 . S
O306 C299 1.226 . S
O307 Cd298 2.356 . S
O307 C305 1.282 . S
C308 O309 1.306 . S
C308 O311 1.160 . S
O309 C308 1.306 . S
O309 Cd310 2.228 . S
Cd310 O309 2.228 . S
Cd310 O314 2.273 . S
Cd310 O318 2.277 . S
O311 C308 1.160 . S
O311 Cd312 2.203 . S
Cd312 O311 2.203 . S
Cd312 O314 2.411 . S
Cd312 O315 2.333 . S
Cd312 O316 2.352 . S
Cd312 O320 2.277 . S
Cd312 O321 2.356 . S
C313 O318 1.209 . S
C313 O320 1.226 . S
O314 Cd310 2.273 . S
O314 Cd312 2.411 . S
O314 C317 1.320 . S
O315 Cd312 2.333 . S
O315 C317 1.214 . S
O316 Cd312 2.352 . S
O316 C319 1.258 . S
C317 O314 1.320 . S
C317 O315 1.214 . S
O318 Cd310 2.277 . S
O318 C313 1.209 . S
C319 O316 1.258 . S
C319 O321 1.282 . S
O320 Cd312 2.277 . S
O320 C313 1.226 . S
O321 Cd312 2.356 . S
O321 C319 1.282 . S
C322 O323 1.306 . S
C322 O325 1.160 . S
O323 C322 1.306 . S
O323 Cd324 2.228 . S
Cd324 O323 2.228 . S
Cd324 O328 2.273 . S
Cd324 O332 2.277 . S
O325 C322 1.160 . S
O325 Cd326 2.203 . S
Cd326 O325 2.203 . S
Cd326 O328 2.411 . S
Cd326 O329 2.333 . S
Cd326 O330 2.352 . S
Cd326 O334 2.277 . S
Cd326 O335 2.356 . S
C327 O332 1.209 . S
C327 O334 1.226 . S
O328 Cd324 2.273 . S
O328 Cd326 2.411 . S
O328 C331 1.320 . S
O329 Cd326 2.333 . S
O329 C331 1.214 . S
O330 Cd326 2.352 . S
O330 C333 1.258 . S
C331 O328 1.320 . S
C331 O329 1.214 . S
O332 Cd324 2.277 . S
O332 C327 1.209 . S
C333 O330 1.258 . S
C333 O335 1.282 . S
O334 Cd326 2.277 . S
O334 C327 1.226 . S
O335 Cd326 2.356 . S
O335 C333 1.282 . S
Zn336 O342 1.969 . S
Zn336 O343 1.965 1_565 S
Zn336 O347 2.024 . S
Zn336 O352 1.969 1_565 S
Zn337 O344 1.969 1_654 S
Zn337 O350 1.969 1_554 S
Zn337 O351 1.965 . S
Zn337 O353 2.024 1_655 S
C338 O339 1.229 . S
C338 O347 1.058 . S
O339 C338 1.229 . S
C340 O341 1.204 1_454 S
C340 O353 1.058 . S
O341 C340 1.204 1_656 S
O342 Zn336 1.969 . S
O342 C345 1.267 . S
O343 Zn336 1.965 1_545 S
O343 C354 1.260 1_554 S
O344 Zn337 1.969 1_456 S
O344 C354 1.258 . S
C345 O342 1.267 . S
C345 O346 1.228 . S
O346 C345 1.228 . S
O347 Zn336 2.024 . S
O347 C338 1.058 . S
C348 O349 1.228 . S
C348 O350 1.267 1_554 S
O349 C348 1.228 . S
O350 Zn337 1.969 1_556 S
O350 C348 1.267 1_556 S
O351 Zn337 1.965 . S
O351 C355 1.260 1_655 S
O352 Zn336 1.969 1_545 S
O352 C355 1.258 . S
O353 Zn337 2.024 1_455 S
O353 C340 1.058 . S
C354 O343 1.260 1_556 S
C354 O344 1.258 . S
C355 O351 1.260 1_455 S
C355 O352 1.258 . S
Zn356 O362 1.969 . S
Zn356 O363 1.965 . S
Zn356 O367 2.024 . S
Zn356 O372 1.969 . S
Zn357 O364 1.969 . S
Zn357 O370 1.969 . S
Zn357 O371 1.965 . S
Zn357 O373 2.024 . S
C358 O359 1.229 . S
C358 O367 1.058 . S
O359 C358 1.229 . S
C360 O361 1.229 . S
C360 O373 1.058 . S
O361 C360 1.229 . S
O362 Zn356 1.969 . S
O362 C365 1.267 . S
O363 Zn356 1.965 . S
O363 C374 1.260 . S
O364 Zn357 1.969 . S
O364 C374 1.258 . S
C365 O362 1.267 . S
C365 O366 1.228 . S
O366 C365 1.228 . S
O367 Zn356 2.024 . S
O367 C358 1.058 . S
C368 O369 1.228 . S
C368 O370 1.267 . S
O369 C368 1.228 . S
O370 Zn357 1.969 . S
O370 C368 1.267 . S
O371 Zn357 1.965 . S
O371 C375 1.260 . S
O372 Zn356 1.969 . S
O372 C375 1.258 . S
O373 Zn357 2.024 . S
O373 C360 1.058 . S
C374 O363 1.260 . S
C374 O364 1.258 . S
C375 O371 1.260 . S
C375 O372 1.258 . S
Zn376 O382 1.969 . S
Zn376 O383 1.965 . S
Zn376 O387 2.024 . S
Zn376 O392 1.969 . S
Zn377 O384 1.969 . S
Zn377 O390 1.969 . S
Zn377 O391 1.965 1_565 S
Zn377 O393 2.024 . S
C378 O379 1.229 . S
C378 O387 1.058 . S
O379 C378 1.229 . S
C380 O381 1.229 . S
C380 O393 1.058 . S
O381 C380 1.229 . S
O382 Zn376 1.969 . S
O382 C385 1.267 . S
O383 Zn376 1.965 . S
O383 C394 1.260 . S
O384 Zn377 1.969 . S
O384 C394 1.258 1_565 S
C385 O382 1.267 . S
C385 O386 1.228 . S
O386 C385 1.228 . S
O387 Zn376 2.024 . S
O387 C378 1.058 . S
C388 O389 1.228 . S
C388 O390 1.267 . S
O389 C388 1.228 . S
O390 Zn377 1.969 . S
O390 C388 1.267 . S
O391 Zn377 1.965 1_545 S
O391 C395 1.260 . S
O392 Zn376 1.969 . S
O392 C395 1.258 . S
O393 Zn377 2.024 . S
O393 C380 1.058 . S
C394 O383 1.260 . S
C394 O384 1.258 1_545 S
C395 O391 1.260 . S
C395 O392 1.258 . S
Zn396 O402 1.969 . S
Zn396 O403 1.965 . S
Zn396 O407 2.024 . S
Zn396 O412 1.969 . S
Zn397 O404 1.969 . S
Zn397 O410 1.969 . S
Zn397 O411 1.965 . S
Zn397 O413 2.024 . S
C398 O399 1.229 . S
C398 O407 1.058 . S
O399 C398 1.229 . S
C400 O401 1.229 . S
C400 O413 1.058 . S
O401 C400 1.229 . S
O402 Zn396 1.969 . S
O402 C405 1.267 . S
O403 Zn396 1.965 . S
O403 C414 1.260 . S
O404 Zn397 1.969 . S
O404 C414 1.258 . S
C405 O402 1.267 . S
C405 O406 1.228 . S
O406 C405 1.228 . S
O407 Zn396 2.024 . S
O407 C398 1.058 . S
C408 O409 1.228 . S
C408 O410 1.267 . S
O409 C408 1.228 . S
O410 Zn397 1.969 . S
O410 C408 1.267 . S
O411 Zn397 1.965 . S
O411 C415 1.260 . S
O412 Zn396 1.969 . S
O412 C415 1.258 . S
O413 Zn397 2.024 . S
O413 C400 1.058 . S
C414 O403 1.260 . S
C414 O404 1.258 . S
C415 O411 1.260 . S
C415 O412 1.258 . S
Zn416 O422 1.969 . S
Zn416 O423 1.949 1_455 S
Zn416 O427 2.024 1_565 S
Zn416 O432 1.969 1_565 S
Zn417 O424 1.969 1_455 S
Zn417 O430 1.969 1_455 S
Zn417 O431 1.965 . S
Zn417 O433 2.024 . S
C418 O419 1.229 1_545 S
C418 O427 1.058 . S
O419 C418 1.229 1_565 S
C420 O421 1.229 . S
C420 O433 1.058 1_655 S
O421 C420 1.229 . S
O422 Zn416 1.969 . S
O422 C425 1.267 . S
O423 Zn416 1.949 1_655 S
O423 C434 1.277 . S
O424 Zn417 1.969 1_655 S
O424 C434 1.258 1_545 S
C425 O422 1.267 . S
C425 O426 1.228 . S
O426 C425 1.228 . S
O427 Zn416 2.024 1_545 S
O427 C418 1.058 . S
C428 O429 1.228 . S
C428 O430 1.267 1_455 S
O429 C428 1.228 . S
O430 Zn417 1.969 1_655 S
O430 C428 1.267 1_655 S
O431 Zn417 1.965 . S
O431 C435 1.260 . S
O432 Zn416 1.969 1_545 S
O432 C435 1.258 . S
O433 Zn417 2.024 . S
O433 C420 1.058 1_455 S
C434 O423 1.277 . S
C434 O424 1.258 1_565 S
C435 O431 1.260 . S
C435 O432 1.258 . S
Zn436 O442 1.969 . S
Zn436 O443 1.965 . S
Zn436 O447 2.024 . S
Zn436 O452 1.969 . S
Zn437 O444 1.969 . S
Zn437 O450 1.969 . S
Zn437 O451 1.965 . S
Zn437 O453 2.024 . S
C438 O439 1.229 . S
C438 O447 1.058 . S
O439 C438 1.229 . S
C440 O441 1.229 . S
C440 O453 1.058 . S
O441 C440 1.229 . S
O442 Zn436 1.969 . S
O442 C445 1.267 . S
O443 Zn436 1.965 . S
O443 C454 1.260 . S
O444 Zn437 1.969 . S
O444 C454 1.258 . S
C445 O442 1.267 . S
C445 O446 1.228 . S
O446 C445 1.228 . S
O447 Zn436 2.024 . S
O447 C438 1.058 . S
C448 O449 1.228 . S
C448 O450 1.267 . S
O449 C448 1.228 . S
O450 Zn437 1.969 . S
O450 C448 1.267 . S
O451 Zn437 1.965 . S
O451 C455 1.260 . S
O452 Zn436 1.969 . S
O452 C455 1.258 . S
O453 Zn437 2.024 . S
O453 C440 1.058 . S
C454 O443 1.260 . S
C454 O444 1.258 . S
C455 O451 1.260 . S
C455 O452 1.258 . S
Zn456 O462 2.007 . S
Zn456 O463 1.963 1_545 S
Zn456 O467 2.004 1_556 S
Zn456 O472 1.952 1_556 S
Zn457 O464 1.998 . S
Zn457 O470 1.983 . S
Zn457 O471 1.936 1_565 S
Zn457 O473 2.014 1_565 S
C458 O459 1.229 . S
C458 O467 1.058 . S
O459 C458 1.229 . S
C460 O461 1.229 . S
C460 O473 1.058 1_565 S
O461 C460 1.229 . S
O462 Zn456 2.007 . S
O462 C465 1.267 . S
O463 Zn456 1.963 1_565 S
O463 C474 1.242 1_556 S
O464 Zn457 1.998 . S
O464 C474 1.258 . S
C465 O462 1.267 . S
C465 O466 1.228 . S
O466 C465 1.228 . S
O467 Zn456 2.004 1_554 S
O467 C458 1.058 . S
C468 O469 1.228 . S
C468 O470 1.267 1_545 S
O469 C468 1.228 . S
O470 Zn457 1.983 . S
O470 C468 1.267 1_565 S
O471 Zn457 1.936 1_545 S
O471 C475 1.260 . S
O472 Zn456 1.952 1_554 S
O472 C475 1.258 . S
O473 Zn457 2.014 1_545 S
O473 C460 1.058 1_545 S
C474 O463 1.242 1_554 S
C474 O464 1.258 . S
C475 O471 1.260 . S
C475 O472 1.258 . S
Zn476 O482 1.969 . S
Zn476 O483 1.965 . S
Zn476 O487 2.024 . S
Zn476 O492 1.969 . S
Zn477 O484 1.969 . S
Zn477 O490 1.969 . S
Zn477 O491 1.965 . S
Zn477 O493 2.024 . S
C478 O479 1.229 . S
C478 O487 1.058 . S
O479 C478 1.229 . S
C480 O481 1.229 . S
C480 O493 1.058 . S
O481 C480 1.229 . S
O482 Zn476 1.969 . S
O482 C485 1.267 . S
O483 Zn476 1.965 . S
O483 C494 1.260 . S
O484 Zn477 1.969 . S
O484 C494 1.258 . S
C485 O482 1.267 . S
C485 O486 1.228 . S
O486 C485 1.228 . S
O487 Zn476 2.024 . S
O487 C478 1.058 . S
C488 O489 1.228 . S
C488 O490 1.267 . S
O489 C488 1.228 . S
O490 Zn477 1.969 . S
O490 C488 1.267 . S
O491 Zn477 1.965 . S
O491 C495 1.260 . S
O492 Zn476 1.969 . S
O492 C495 1.258 . S
O493 Zn477 2.024 . S
O493 C480 1.058 . S
C494 O483 1.260 . S
C494 O484 1.258 . S
C495 O491 1.260 . S
C495 O492 1.258 . S
Zn496 O502 1.969 . S
Zn496 O503 1.965 . S
Zn496 O507 2.024 . S
Zn496 O512 1.969 . S
Zn497 O504 1.969 1_556 S
Zn497 O510 1.969 1_556 S
Zn497 O511 1.965 1_556 S
Zn497 O513 2.024 . S
C498 O499 1.229 . S
C498 O507 1.058 . S
O499 C498 1.229 . S
C500 O501 1.229 . S
C500 O513 1.058 . S
O501 C500 1.229 . S
O502 Zn496 1.969 . S
O502 C505 1.267 . S
O503 Zn496 1.965 . S
O503 C514 1.260 . S
O504 Zn497 1.969 1_554 S
O504 C514 1.258 . S
C505 O502 1.267 . S
C505 O506 1.228 . S
O506 C505 1.228 . S
O507 Zn496 2.024 . S
O507 C498 1.058 . S
C508 O509 1.228 . S
C508 O510 1.267 1_556 S
O509 C508 1.228 . S
O510 Zn497 1.969 1_554 S
O510 C508 1.267 1_554 S
O511 Zn497 1.965 1_554 S
O511 C515 1.260 . S
O512 Zn496 1.969 . S
O512 C515 1.258 . S
O513 Zn497 2.024 . S
O513 C500 1.058 . S
C514 O503 1.260 . S
C514 O504 1.258 . S
C515 O511 1.260 . S
C515 O512 1.258 . S
Zn516 O522 1.969 . S
Zn516 O523 1.965 . S
Zn516 O527 2.024 . S
Zn516 O532 1.969 . S
Zn517 O524 1.969 . S
Zn517 O530 1.969 . S
Zn517 O531 1.965 . S
Zn517 O533 2.024 . S
C518 O519 1.229 . S
C518 O527 1.058 . S
O519 C518 1.229 . S
C520 O521 1.229 . S
C520 O533 1.058 . S
O521 C520 1.229 . S
O522 Zn516 1.969 . S
O522 C525 1.267 . S
O523 Zn516 1.965 . S
O523 C534 1.260 . S
O524 Zn517 1.969 . S
O524 C534 1.258 . S
C525 O522 1.267 . S
C525 O526 1.228 . S
O526 C525 1.228 . S
O527 Zn516 2.024 . S
O527 C518 1.058 . S
C528 O529 1.228 . S
C528 O530 1.267 . S
O529 C528 1.228 . S
O530 Zn517 1.969 . S
O530 C528 1.267 . S
O531 Zn517 1.965 . S
O531 C535 1.260 . S
O532 Zn516 1.969 . S
O532 C535 1.258 . S
O533 Zn517 2.024 . S
O533 C520 1.058 . S
C534 O523 1.260 . S
C534 O524 1.258 . S
C535 O531 1.260 . S
C535 O532 1.258 . S
Zn536 O542 1.969 . S
Zn536 O543 1.965 . S
Zn536 O547 2.024 . S
Zn536 O552 1.969 . S
Zn537 O544 1.969 1_655 S
Zn537 O550 1.969 . S
Zn537 O551 1.965 1_655 S
Zn537 O553 2.024 . S
C538 O539 1.229 . S
C538 O547 1.058 . S
O539 C538 1.229 . S
C540 O541 1.229 . S
C540 O553 1.058 . S
O541 C540 1.229 . S
O542 Zn536 1.969 . S
O542 C545 1.267 . S
O543 Zn536 1.965 . S
O543 C554 1.260 . S
O544 Zn537 1.969 1_455 S
O544 C554 1.258 . S
C545 O542 1.267 . S
C545 O546 1.228 . S
O546 C545 1.228 . S
O547 Zn536 2.024 . S
O547 C538 1.058 . S
C548 O549 1.228 . S
C548 O550 1.267 . S
O549 C548 1.228 . S
O550 Zn537 1.969 . S
O550 C548 1.267 . S
O551 Zn537 1.965 1_455 S
O551 C555 1.260 . S
O552 Zn536 1.969 . S
O552 C555 1.258 . S
O553 Zn537 2.024 . S
O553 C540 1.058 . S
C554 O543 1.260 . S
C554 O544 1.258 . S
C555 O551 1.260 . S
C555 O552 1.258 . S
Zn556 O562 1.969 . S
Zn556 O563 1.965 . S
Zn556 O567 2.024 . S
Zn556 O572 1.969 . S
Zn557 O564 1.969 . S
Zn557 O570 1.969 . S
Zn557 O571 1.965 . S
Zn557 O573 2.024 . S
C558 O559 1.229 . S
C558 O567 1.058 . S
O559 C558 1.229 . S
C560 O561 1.229 . S
C560 O573 1.058 . S
O561 C560 1.229 . S
O562 Zn556 1.969 . S
O562 C565 1.267 . S
O563 Zn556 1.965 . S
O563 C574 1.260 . S
O564 Zn557 1.969 . S
O564 C574 1.258 . S
C565 O562 1.267 . S
C565 O566 1.228 . S
O566 C565 1.228 . S
O567 Zn556 2.024 . S
O567 C558 1.058 . S
C568 O569 1.228 . S
C568 O570 1.267 . S
O569 C568 1.228 . S
O570 Zn557 1.969 . S
O570 C568 1.267 . S
O571 Zn557 1.965 . S
O571 C575 1.260 . S
O572 Zn556 1.969 . S
O572 C575 1.258 . S
O573 Zn557 2.024 . S
O573 C560 1.058 . S
C574 O563 1.260 . S
C574 O564 1.258 . S
C575 O571 1.260 . S
C575 O572 1.258 . S
Zn576 O582 1.969 . S
Zn576 O583 1.965 . S
Zn576 O587 2.024 . S
Zn576 O592 1.969 . S
Zn577 O584 1.969 . S
Zn577 O590 1.969 . S
Zn577 O591 1.965 . S
Zn577 O593 2.024 . S
C578 O579 1.229 . S
C578 O587 1.058 . S
O579 C578 1.229 . S
C580 O581 1.229 . S
C580 O593 1.058 . S
O581 C580 1.229 . S
O582 Zn576 1.969 . S
O582 C585 1.267 . S
O583 Zn576 1.965 . S
O583 C594 1.260 . S
O584 Zn577 1.969 . S
O584 C594 1.258 . S
C585 O582 1.267 . S
C585 O586 1.228 . S
O586 C585 1.228 . S
O587 Zn576 2.024 . S
O587 C578 1.058 . S
C588 O589 1.228 . S
C588 O590 1.267 . S
O589 C588 1.228 . S
O590 Zn577 1.969 . S
O590 C588 1.267 . S
O591 Zn577 1.965 . S
O591 C595 1.260 . S
O592 Zn576 1.969 . S
O592 C595 1.258 . S
O593 Zn577 2.024 . S
O593 C580 1.058 . S
C594 O583 1.260 . S
C594 O584 1.258 . S
C595 O591 1.260 . S
C595 O592 1.258 . S
Zn596 O602 1.969 . S
Zn596 O603 1.965 . S
Zn596 O607 2.024 . S
Zn596 O612 1.969 . S
Zn597 O604 1.969 . S
Zn597 O610 1.969 . S
Zn597 O611 1.965 . S
Zn597 O613 2.024 . S
C598 O599 1.229 . S
C598 O607 1.058 . S
O599 C598 1.229 . S
C600 O601 1.229 . S
C600 O613 1.058 . S
O601 C600 1.229 . S
O602 Zn596 1.969 . S
O602 C605 1.267 . S
O603 Zn596 1.965 . S
O603 C614 1.260 . S
O604 Zn597 1.969 . S
O604 C614 1.258 . S
C605 O602 1.267 . S
C605 O606 1.228 . S
O606 C605 1.228 . S
O607 Zn596 2.024 . S
O607 C598 1.058 . S
C608 O609 1.228 . S
C608 O610 1.267 . S
O609 C608 1.228 . S
O610 Zn597 1.969 . S
O610 C608 1.267 . S
O611 Zn597 1.965 . S
O611 C615 1.260 . S
O612 Zn596 1.969 . S
O612 C615 1.258 . S
O613 Zn597 2.024 . S
O613 C600 1.058 . S
C614 O603 1.260 . S
C614 O604 1.258 . S
C615 O611 1.260 . S
C615 O612 1.258 . S
Zn616 O622 1.969 . S
Zn616 O623 1.965 . S
Zn616 O627 2.024 . S
Zn616 O632 1.969 . S
Zn617 O624 1.969 . S
Zn617 O630 1.969 . S
Zn617 O631 1.965 . S
Zn617 O633 2.024 . S
C618 O619 1.229 . S
C618 O627 1.058 . S
O619 C618 1.229 . S
C620 O621 1.229 . S
C620 O633 1.058 . S
O621 C620 1.229 . S
O622 Zn616 1.969 . S
O622 C625 1.267 . S
O623 Zn616 1.965 . S
O623 C634 1.260 . S
O624 Zn617 1.969 . S
O624 C634 1.258 . S
C625 O622 1.267 . S
C625 O626 1.228 . S
O626 C625 1.228 . S
O627 Zn616 2.024 . S
O627 C618 1.058 . S
C628 O629 1.228 . S
C628 O630 1.267 . S
O629 C628 1.228 . S
O630 Zn617 1.969 . S
O630 C628 1.267 . S
O631 Zn617 1.965 . S
O631 C635 1.260 . S
O632 Zn616 1.969 . S
O632 C635 1.258 . S
O633 Zn617 2.024 . S
O633 C620 1.058 . S
C634 O623 1.260 . S
C634 O624 1.258 . S
C635 O631 1.260 . S
C635 O632 1.258 . S
Zn636 O642 1.969 . S
Zn636 O643 1.965 . S
Zn636 O647 2.024 1_655 S
Zn636 O652 1.969 1_655 S
Zn637 O644 1.969 1_554 S
Zn637 O650 1.969 . S
Zn637 O651 1.965 . S
Zn637 O653 2.024 . S
C638 O639 1.261 . S
C638 O647 1.058 . S
O639 C638 1.261 . S
C640 O641 1.198 1_554 S
C640 O653 1.089 . S
O641 C640 1.198 1_556 S
O642 Zn636 1.969 . S
O642 C645 1.267 . S
O643 Zn636 1.965 . S
O643 C654 1.260 1_654 S
O644 Zn637 1.969 1_556 S
O644 C654 1.258 . S
C645 O642 1.267 . S
C645 O646 1.228 . S
O646 C645 1.228 . S
O647 Zn636 2.024 1_455 S
O647 C638 1.058 . S
C648 O649 1.228 . S
C648 O650 1.267 . S
O649 C648 1.228 . S
O650 Zn637 1.969 . S
O650 C648 1.267 . S
O651 Zn637 1.965 . S
O651 C655 1.260 . S
O652 Zn636 1.969 1_455 S
O652 C655 1.258 . S
O653 Zn637 2.024 . S
O653 C640 1.089 . S
C654 O643 1.260 1_456 S
C654 O644 1.258 . S
C655 O651 1.260 . S
C655 O652 1.258 . S
H656 C664 0.950 . S
H657 C669 0.950 . S
H658 C666 0.950 . S
H659 C668 0.950 . S
H660 C670 0.950 . S
H661 C672 0.950 . S
H662 C674 0.950 . S
H663 C675 0.950 . S
C664 H656 0.950 . S
C664 C665 1.398 . S
C664 C666 1.391 . S
C665 C664 1.398 . S
C665 C669 1.372 1_655 S
C666 H658 0.950 . S
C666 C664 1.391 . S
C666 C667 1.400 1_655 S
C667 C666 1.400 1_455 S
C667 C668 1.398 . S
C667 C673 1.491 . S
C668 H659 0.950 . S
C668 C667 1.398 . S
C668 C669 1.391 . S
C669 H657 0.950 . S
C669 C665 1.372 1_455 S
C669 C668 1.391 . S
C670 H660 0.950 . S
C670 C671 1.386 1_556 S
C670 C672 1.391 . S
C671 C670 1.386 1_554 S
C671 C675 1.393 . S
C672 H661 0.950 . S
C672 C670 1.391 . S
C672 C673 1.400 . S
C673 C667 1.491 . S
C673 C672 1.400 . S
C673 C674 1.398 1_556 S
C674 H662 0.950 . S
C674 C673 1.398 1_554 S
C674 C675 1.391 . S
C675 H663 0.950 . S
C675 C671 1.393 . S
C675 C674 1.391 . S
H676 C684 0.950 . S
H677 C689 0.950 . S
H678 C686 0.950 . S
H679 C688 0.950 . S
H680 C690 0.950 . S
H681 C692 0.950 . S
H682 C694 0.950 . S
H683 C695 0.950 . S
C684 H676 0.950 . S
C684 C685 1.386 . S
C684 C686 1.391 . S
C685 C684 1.386 . S
C685 C689 1.393 . S
C686 H678 0.950 . S
C686 C684 1.391 . S
C686 C687 1.400 . S
C687 C686 1.400 . S
C687 C688 1.398 . S
C687 C693 1.491 . S
C688 H679 0.950 . S
C688 C687 1.398 . S
C688 C689 1.391 . S
C689 H677 0.950 . S
C689 C685 1.393 . S
C689 C688 1.391 . S
C690 H680 0.950 . S
C690 C691 1.386 . S
C690 C692 1.391 . S
C691 C690 1.386 . S
C691 C695 1.393 . S
C692 H681 0.950 . S
C692 C690 1.391 . S
C692 C693 1.400 . S
C693 C687 1.491 . S
C693 C692 1.400 . S
C693 C694 1.398 . S
C694 H682 0.950 . S
C694 C693 1.398 . S
C694 C695 1.391 . S
C695 H683 0.950 . S
C695 C691 1.393 . S
C695 C694 1.391 . S
H696 C704 0.950 . S
H697 C709 0.950 . S
H698 C706 0.950 . S
H699 C708 0.950 . S
H700 C710 0.950 . S
H701 C712 0.950 . S
H702 C714 0.950 . S
H703 C715 0.950 . S
C704 H696 0.950 . S
C704 C705 1.386 . S
C704 C706 1.391 . S
C705 C704 1.386 . S
C705 C709 1.393 . S
C706 H698 0.950 . S
C706 C704 1.391 . S
C706 C707 1.400 . S
C707 C706 1.400 . S
C707 C708 1.398 . S
C707 C713 1.491 . S
C708 H699 0.950 . S
C708 C707 1.398 . S
C708 C709 1.391 . S
C709 H697 0.950 . S
C709 C705 1.393 . S
C709 C708 1.391 . S
C710 H700 0.950 . S
C710 C711 1.386 . S
C710 C712 1.391 . S
C711 C710 1.386 . S
C711 C715 1.393 . S
C712 H701 0.950 . S
C712 C710 1.391 . S
C712 C713 1.400 . S
C713 C707 1.491 . S
C713 C712 1.400 . S
C713 C714 1.398 . S
C714 H702 0.950 . S
C714 C713 1.398 . S
C714 C715 1.391 . S
C715 H703 0.950 . S
C715 C711 1.393 . S
C715 C714 1.391 . S
H716 C724 0.950 . S
H717 C729 0.950 . S
H718 C726 0.950 . S
H719 C728 0.950 . S
H720 C730 0.950 . S
H721 C732 0.950 . S
H722 C734 0.950 . S
H723 C735 0.950 . S
C724 H716 0.950 . S
C724 C725 1.386 . S
C724 C726 1.391 . S
C725 C724 1.386 . S
C725 C729 1.393 . S
C726 H718 0.950 . S
C726 C724 1.391 . S
C726 C727 1.400 . S
C727 C726 1.400 . S
C727 C728 1.398 . S
C727 C733 1.491 . S
C728 H719 0.950 . S
C728 C727 1.398 . S
C728 C729 1.391 . S
C729 H717 0.950 . S
C729 C725 1.393 . S
C729 C728 1.391 . S
C730 H720 0.950 . S
C730 C731 1.386 . S
C730 C732 1.391 . S
C731 C730 1.386 . S
C731 C735 1.393 . S
C732 H721 0.950 . S
C732 C730 1.391 . S
C732 C733 1.400 . S
C733 C727 1.491 . S
C733 C732 1.400 . S
C733 C734 1.398 . S
C734 H722 0.950 . S
C734 C733 1.398 . S
C734 C735 1.391 . S
C735 H723 0.950 . S
C735 C731 1.393 . S
C735 C734 1.391 . S
H736 C744 0.950 . S
H737 C749 0.950 . S
H738 C746 0.950 . S
H739 C748 0.950 . S
H740 C750 0.950 . S
H741 C752 0.950 . S
H742 C754 0.950 1_655 S
H743 C755 0.950 1_655 S
C744 H736 0.950 . S
C744 C745 1.386 1_655 S
C744 C746 1.391 . S
C745 C744 1.386 1_455 S
C745 C749 1.393 . S
C746 H738 0.950 . S
C746 C744 1.391 . S
C746 C747 1.400 1_655 S
C747 C746 1.400 1_455 S
C747 C748 1.398 . S
C747 C753 1.491 . S
C748 H739 0.950 . S
C748 C747 1.398 . S
C748 C749 1.391 . S
C749 H737 0.950 . S
C749 C745 1.393 . S
C749 C748 1.391 . S
C750 H740 0.950 . S
C750 C751 1.386 . S
C750 C752 1.391 . S
C751 C750 1.386 . S
C751 C755 1.393 . S
C752 H741 0.950 . S
C752 C750 1.391 . S
C752 C753 1.400 . S
C753 C747 1.491 . S
C753 C752 1.400 . S
C753 C754 1.398 . S
C754 H742 0.950 1_455 S
C754 C753 1.398 . S
C754 C755 1.391 . S
C755 H743 0.950 1_455 S
C755 C751 1.393 . S
C755 C754 1.391 . S
H756 C764 0.950 . S
H757 C769 0.950 . S
H758 C766 0.950 . S
H759 C768 0.950 . S
H760 C770 0.950 . S
H761 C772 0.950 . S
H762 C774 0.950 . S
H763 C775 0.950 . S
C764 H756 0.950 . S
C764 C765 1.386 . S
C764 C766 1.391 . S
C765 C764 1.386 . S
C765 C769 1.393 . S
C766 H758 0.950 . S
C766 C764 1.391 . S
C766 C767 1.400 . S
C767 C766 1.400 . S
C767 C768 1.398 . S
C767 C773 1.491 . S
C768 H759 0.950 . S
C768 C767 1.398 . S
C768 C769 1.391 . S
C769 H757 0.950 . S
C769 C765 1.393 . S
C769 C768 1.391 . S
C770 H760 0.950 . S
C770 C771 1.386 . S
C770 C772 1.391 . S
C771 C770 1.386 . S
C771 C775 1.393 . S
C772 H761 0.950 . S
C772 C770 1.391 . S
C772 C773 1.400 . S
C773 C767 1.491 . S
C773 C772 1.400 . S
C773 C774 1.398 . S
C774 H762 0.950 . S
C774 C773 1.398 . S
C774 C775 1.391 . S
C775 H763 0.950 . S
C775 C771 1.393 . S
C775 C774 1.391 . S
H776 C784 0.950 . S
H777 C789 0.950 . S
H778 C786 0.950 . S
H779 C788 0.950 . S
H780 C790 0.950 . S
H781 C792 0.950 . S
H782 C794 0.950 . S
H783 C795 0.950 . S
C784 H776 0.950 . S
C784 C785 1.386 . S
C784 C786 1.391 . S
C785 C784 1.386 . S
C785 C789 1.393 . S
C786 H778 0.950 . S
C786 C784 1.391 . S
C786 C787 1.400 . S
C787 C786 1.400 . S
C787 C788 1.398 . S
C787 C793 1.491 . S
C788 H779 0.950 . S
C788 C787 1.398 . S
C788 C789 1.391 . S
C789 H777 0.950 . S
C789 C785 1.393 . S
C789 C788 1.391 . S
C790 H780 0.950 . S
C790 C791 1.386 . S
C790 C792 1.391 . S
C791 C790 1.386 . S
C791 C795 1.393 . S
C792 H781 0.950 . S
C792 C790 1.391 . S
C792 C793 1.400 . S
C793 C787 1.491 . S
C793 C792 1.400 . S
C793 C794 1.398 . S
C794 H782 0.950 . S
C794 C793 1.398 . S
C794 C795 1.391 . S
C795 H783 0.950 . S
C795 C791 1.393 . S
C795 C794 1.391 . S
H796 C804 0.950 . S
H797 C809 0.950 . S
H798 C806 0.950 . S
H799 C808 0.950 . S
H800 C810 0.950 . S
H801 C812 0.950 . S
H802 C814 0.950 . S
H803 C815 0.950 . S
C804 H796 0.950 . S
C804 C805 1.386 . S
C804 C806 1.391 . S
C805 C804 1.386 . S
C805 C809 1.393 . S
C806 H798 0.950 . S
C806 C804 1.391 . S
C806 C807 1.400 . S
C807 C806 1.400 . S
C807 C808 1.398 . S
C807 C813 1.491 . S
C808 H799 0.950 . S
C808 C807 1.398 . S
C808 C809 1.391 . S
C809 H797 0.950 . S
C809 C805 1.393 . S
C809 C808 1.391 . S
C810 H800 0.950 . S
C810 C811 1.386 . S
C810 C812 1.391 . S
C811 C810 1.386 . S
C811 C815 1.393 . S
C812 H801 0.950 . S
C812 C810 1.391 . S
C812 C813 1.400 . S
C813 C807 1.491 . S
C813 C812 1.400 . S
C813 C814 1.398 . S
C814 H802 0.950 . S
C814 C813 1.398 . S
C814 C815 1.391 . S
C815 H803 0.950 . S
C815 C811 1.393 . S
C815 C814 1.391 . S
H816 C824 0.950 . S
H817 C829 0.950 . S
H818 C826 0.950 . S
H819 C828 0.950 . S
H820 C830 0.950 . S
H821 C832 0.950 . S
H822 C834 0.958 . S
H823 C835 0.950 1_465 S
C824 H816 0.950 . S
C824 C825 1.386 1_565 S
C824 C826 1.391 . S
C825 C824 1.386 1_545 S
C825 C829 1.393 . S
C826 H818 0.950 . S
C826 C824 1.391 . S
C826 C827 1.400 1_565 S
C827 C826 1.400 1_545 S
C827 C828 1.398 . S
C827 C833 1.491 . S
C828 H819 0.950 . S
C828 C827 1.398 . S
C828 C829 1.391 . S
C829 H817 0.950 . S
C829 C825 1.393 . S
C829 C828 1.391 . S
C830 H820 0.950 . S
C830 C831 1.386 . S
C830 C832 1.391 . S
C831 C830 1.386 . S
C831 C835 1.393 . S
C832 H821 0.950 . S
C832 C830 1.391 . S
C832 C833 1.400 . S
C833 C827 1.491 . S
C833 C832 1.400 . S
C833 C834 1.391 1_545 S
C834 H822 0.958 . S
C834 C833 1.391 1_565 S
C834 C835 1.390 1_565 S
C835 H823 0.950 1_645 S
C835 C831 1.393 . S
C835 C834 1.390 1_545 S
H836 C844 0.950 . S
H837 C849 0.950 . S
H838 C846 0.950 . S
H839 C848 0.950 . S
H840 C850 0.950 . S
H841 C852 0.950 . S
H842 C854 0.950 . S
H843 C855 0.950 . S
C844 H836 0.950 . S
C844 C845 1.386 . S
C844 C846 1.391 . S
C845 C844 1.386 . S
C845 C849 1.393 . S
C846 H838 0.950 . S
C846 C844 1.391 . S
C846 C847 1.400 . S
C847 C846 1.400 . S
C847 C848 1.398 . S
C847 C853 1.491 . S
C848 H839 0.950 . S
C848 C847 1.398 . S
C848 C849 1.391 . S
C849 H837 0.950 . S
C849 C845 1.393 . S
C849 C848 1.391 . S
C850 H840 0.950 . S
C850 C851 1.386 . S
C850 C852 1.391 . S
C851 C850 1.386 . S
C851 C855 1.393 . S
C852 H841 0.950 . S
C852 C850 1.391 . S
C852 C853 1.400 . S
C853 C847 1.491 . S
C853 C852 1.400 . S
C853 C854 1.398 . S
C854 H842 0.950 . S
C854 C853 1.398 . S
C854 C855 1.391 . S
C855 H843 0.950 . S
C855 C851 1.393 . S
C855 C854 1.391 . S
H856 C864 0.950 . S
H857 C869 0.950 . S
H858 C866 0.950 . S
H859 C868 0.950 . S
H860 C870 0.950 . S
H861 C872 0.950 . S
H862 C874 0.950 . S
H863 C875 0.950 . S
C864 H856 0.950 . S
C864 C865 1.386 1_545 S
C864 C866 1.391 . S
C865 C864 1.386 1_565 S
C865 C869 1.393 . S
C866 H858 0.950 . S
C866 C864 1.391 . S
C866 C867 1.400 1_545 S
C867 C866 1.400 1_565 S
C867 C868 1.398 . S
C867 C873 1.493 . S
C868 H859 0.950 . S
C868 C867 1.398 . S
C868 C869 1.391 . S
C869 H857 0.950 . S
C869 C865 1.393 . S
C869 C868 1.391 . S
C870 H860 0.950 . S
C870 C871 1.386 1_565 S
C870 C872 1.391 . S
C871 C870 1.386 1_545 S
C871 C875 1.393 . S
C872 H861 0.950 . S
C872 C870 1.391 . S
C872 C873 1.406 . S
C873 C867 1.493 . S
C873 C872 1.406 . S
C873 C874 1.391 1_565 S
C874 H862 0.950 . S
C874 C873 1.391 1_545 S
C874 C875 1.391 . S
C875 H863 0.950 . S
C875 C871 1.393 . S
C875 C874 1.391 . S
H876 C884 0.950 . S
H877 C889 0.950 . S
H878 C886 0.950 . S
H879 C888 0.950 . S
H880 C890 0.950 . S
H881 C892 0.950 . S
H882 C894 0.950 . S
H883 C895 0.950 . S
C884 H876 0.950 . S
C884 C885 1.386 . S
C884 C886 1.391 . S
C885 C884 1.386 . S
C885 C889 1.393 . S
C886 H878 0.950 . S
C886 C884 1.391 . S
C886 C887 1.400 . S
C887 C886 1.400 . S
C887 C888 1.398 . S
C887 C893 1.491 . S
C888 H879 0.950 . S
C888 C887 1.398 . S
C888 C889 1.391 . S
C889 H877 0.950 . S
C889 C885 1.393 . S
C889 C888 1.391 . S
C890 H880 0.950 . S
C890 C891 1.386 . S
C890 C892 1.391 . S
C891 C890 1.386 . S
C891 C895 1.393 . S
C892 H881 0.950 . S
C892 C890 1.391 . S
C892 C893 1.400 . S
C893 C887 1.491 . S
C893 C892 1.400 . S
C893 C894 1.398 . S
C894 H882 0.950 . S
C894 C893 1.398 . S
C894 C895 1.391 . S
C895 H883 0.950 . S
C895 C891 1.393 . S
C895 C894 1.391 . S
H896 C904 0.950 . S
H897 C909 0.950 . S
H898 C906 0.950 . S
H899 C908 0.950 . S
H900 C910 0.950 . S
H901 C912 0.950 . S
H902 C914 0.950 . S
H903 C915 0.955 . S
C904 H896 0.950 . S
C904 C905 1.386 . S
C904 C906 1.391 . S
C905 C904 1.386 . S
C905 C909 1.393 . S
C906 H898 0.950 . S
C906 C904 1.391 . S
C906 C907 1.400 . S
C907 C906 1.400 . S
C907 C908 1.398 . S
C907 C913 1.491 . S
C908 H899 0.950 . S
C908 C907 1.398 . S
C908 C909 1.391 . S
C909 H897 0.950 . S
C909 C905 1.393 . S
C909 C908 1.391 . S
C910 H900 0.950 . S
C910 C911 1.386 . S
C910 C912 1.391 . S
C911 C910 1.386 . S
C911 C915 1.390 1_655 S
C912 H901 0.950 . S
C912 C910 1.391 . S
C912 C913 1.400 . S
C913 C907 1.491 . S
C913 C912 1.400 . S
C913 C914 1.398 . S
C914 H902 0.950 . S
C914 C913 1.398 . S
C914 C915 1.388 1_655 S
C915 H903 0.955 . S
C915 C911 1.390 1_455 S
C915 C914 1.388 1_455 S
H916 C924 0.950 . S
H917 C929 0.950 . S
H918 C926 0.950 . S
H919 C928 0.950 . S
H920 C930 0.950 . S
H921 C932 0.950 . S
H922 C934 0.950 . S
H923 C935 0.950 . S
C924 H916 0.950 . S
C924 C925 1.386 . S
C924 C926 1.391 . S
C925 C924 1.386 . S
C925 C929 1.393 . S
C926 H918 0.950 . S
C926 C924 1.391 . S
C926 C927 1.400 . S
C927 C926 1.400 . S
C927 C928 1.398 . S
C927 C933 1.491 . S
C928 H919 0.950 . S
C928 C927 1.398 . S
C928 C929 1.391 . S
C929 H917 0.950 . S
C929 C925 1.393 . S
C929 C928 1.391 . S
C930 H920 0.950 . S
C930 C931 1.386 . S
C930 C932 1.391 . S
C931 C930 1.386 . S
C931 C935 1.393 . S
C932 H921 0.950 . S
C932 C930 1.391 . S
C932 C933 1.400 . S
C933 C927 1.491 . S
C933 C932 1.400 . S
C933 C934 1.398 . S
C934 H922 0.950 . S
C934 C933 1.398 . S
C934 C935 1.391 . S
C935 H923 0.950 . S
C935 C931 1.393 . S
C935 C934 1.391 . S
H936 C944 0.950 . S
H937 C949 0.950 . S
H938 C946 0.950 . S
H939 C948 0.950 . S
H940 C950 0.950 1_565 S
H941 C952 0.950 . S
H942 C954 0.950 . S
H943 C955 0.950 . S
C944 H936 0.950 . S
C944 C945 1.386 . S
C944 C946 1.391 . S
C945 C944 1.386 . S
C945 C949 1.393 1_545 S
C946 H938 0.950 . S
C946 C944 1.391 . S
C946 C947 1.400 . S
C947 C946 1.400 . S
C947 C948 1.398 1_545 S
C947 C953 1.491 . S
C948 H939 0.950 . S
C948 C947 1.398 1_565 S
C948 C949 1.391 . S
C949 H937 0.950 . S
C949 C945 1.393 1_565 S
C949 C948 1.391 . S
C950 H940 0.950 1_545 S
C950 C951 1.386 . S
C950 C952 1.391 1_545 S
C951 C950 1.386 . S
C951 C955 1.393 . S
C952 H941 0.950 . S
C952 C950 1.391 1_565 S
C952 C953 1.400 1_565 S
C953 C947 1.491 . S
C953 C952 1.400 1_545 S
C953 C954 1.398 . S
C954 H942 0.950 . S
C954 C953 1.398 . S
C954 C955 1.391 . S
C955 H943 0.950 . S
C955 C951 1.393 . S
C955 C954 1.391 . S
H956 C964 0.950 . S
H957 C969 0.950 . S
H958 C966 0.950 . S
H959 C968 0.950 . S
H960 C970 0.950 . S
H961 C972 0.950 . S
H962 C974 0.950 . S
H963 C975 0.950 . S
C964 H956 0.950 . S
C964 C965 1.386 . S
C964 C966 1.391 . S
C965 C964 1.386 . S
C965 C969 1.393 . S
C966 H958 0.950 . S
C966 C964 1.391 . S
C966 C967 1.400 . S
C967 C966 1.400 . S
C967 C968 1.398 . S
C967 C973 1.491 . S
C968 H959 0.950 . S
C968 C967 1.398 . S
C968 C969 1.391 . S
C969 H957 0.950 . S
C969 C965 1.393 . S
C969 C968 1.391 . S
C970 H960 0.950 . S
C970 C971 1.386 . S
C970 C972 1.391 . S
C971 C970 1.386 . S
C971 C975 1.393 . S
C972 H961 0.950 . S
C972 C970 1.391 . S
C972 C973 1.400 . S
C973 C967 1.491 . S
C973 C972 1.400 . S
C973 C974 1.398 . S
C974 H962 0.950 . S
C974 C973 1.398 . S
C974 C975 1.391 . S
C975 H963 0.950 . S
C975 C971 1.393 . S
C975 C974 1.391 . S
H976 C984 0.950 . S
H977 C989 0.950 . S
H978 C986 0.950 . S
H979 C988 0.950 . S
H980 C990 0.950 1_545 S
H981 C992 0.950 . S
H982 C994 0.950 . S
H983 C995 0.950 . S
C984 H976 0.950 . S
C984 C985 1.386 . S
C984 C986 1.391 . S
C985 C984 1.386 . S
C985 C989 1.393 . S
C986 H978 0.950 . S
C986 C984 1.391 . S
C986 C987 1.400 . S
C987 C986 1.400 . S
C987 C988 1.398 . S
C987 C993 1.491 . S
C988 H979 0.950 . S
C988 C987 1.398 . S
C988 C989 1.391 . S
C989 H977 0.950 . S
C989 C985 1.393 . S
C989 C988 1.391 . S
C990 H980 0.950 1_565 S
C990 C991 1.386 . S
C990 C992 1.391 . S
C991 C990 1.386 . S
C991 C995 1.393 . S
C992 H981 0.950 . S
C992 C990 1.391 . S
C992 C993 1.400 . S
C993 C987 1.491 . S
C993 C992 1.400 . S
C993 C994 1.398 . S
C994 H982 0.950 . S
C994 C993 1.398 . S
C994 C995 1.391 . S
C995 H983 0.950 . S
C995 C991 1.393 . S
C995 C994 1.391 . S
H996 C1004 0.950 . S
H997 C1009 0.950 . S
H998 C1006 0.950 . S
H999 C1008 0.950 . S
H1000 C1010 0.950 . S
H1001 C1012 0.950 . S
H1002 C1014 0.950 . S
H1003 C1015 0.950 . S
C1004 H996 0.950 . S
C1004 C1005 1.406 . S
C1004 C1006 1.391 . S
C1005 C1004 1.406 . S
C1005 C1009 1.366 1_556 S
C1006 H998 0.950 . S
C1006 C1004 1.391 . S
C1006 C1007 1.400 1_556 S
C1007 C1006 1.400 1_554 S
C1007 C1008 1.398 . S
C1007 C1013 1.491 . S
C1008 H999 0.950 . S
C1008 C1007 1.398 . S
C1008 C1009 1.391 . S
C1009 H997 0.950 . S
C1009 C1005 1.366 1_554 S
C1009 C1008 1.391 . S
C1010 H1000 0.950 . S
C1010 C1011 1.386 . S
C1010 C1012 1.391 . S
C1011 C1010 1.386 . S
C1011 C1015 1.393 1_554 S
C1012 H1001 0.950 . S
C1012 C1010 1.391 . S
C1012 C1013 1.400 . S
C1013 C1007 1.491 . S
C1013 C1012 1.400 . S
C1013 C1014 1.398 1_554 S
C1014 H1002 0.950 . S
C1014 C1013 1.398 1_556 S
C1014 C1015 1.391 . S
C1015 H1003 0.950 . S
C1015 C1011 1.393 1_556 S
C1015 C1014 1.391 . S
H1016 C1024 0.950 . S
H1017 C1029 0.950 . S
H1018 C1026 0.950 . S
H1019 C1028 0.950 . S
H1020 C1030 0.950 . S
H1021 C1032 0.950 . S
H1022 C1034 0.950 . S
H1023 C1035 0.950 . S
C1024 H1016 0.950 . S
C1024 C1025 1.386 . S
C1024 C1026 1.391 . S
C1025 C1024 1.386 . S
C1025 C1029 1.393 . S
C1026 H1018 0.950 . S
C1026 C1024 1.391 . S
C1026 C1027 1.400 . S
C1027 C1026 1.400 . S
C1027 C1028 1.398 . S
C1027 C1033 1.491 . S
C1028 H1019 0.950 . S
C1028 C1027 1.398 . S
C1028 C1029 1.391 . S
C1029 H1017 0.950 . S
C1029 C1025 1.393 . S
C1029 C1028 1.391 . S
C1030 H1020 0.950 . S
C1030 C1031 1.386 . S
C1030 C1032 1.391 . S
C1031 C1030 1.386 . S
C1031 C1035 1.393 . S
C1032 H1021 0.950 . S
C1032 C1030 1.391 . S
C1032 C1033 1.400 . S
C1033 C1027 1.491 . S
C1033 C1032 1.400 . S
C1033 C1034 1.398 . S
C1034 H1022 0.950 . S
C1034 C1033 1.398 . S
C1034 C1035 1.391 . S
C1035 H1023 0.950 . S
C1035 C1031 1.393 . S
C1035 C1034 1.391 . S
H1036 C1044 0.950 . S
H1037 C1049 0.950 . S
H1038 C1046 0.950 . S
H1039 C1048 0.950 . S
H1040 C1050 0.950 . S
H1041 C1052 0.950 . S
H1042 C1054 0.950 . S
H1043 C1055 0.950 . S
C1044 H1036 0.950 . S
C1044 C1045 1.386 . S
C1044 C1046 1.391 . S
C1045 C1044 1.386 . S
C1045 C1049 1.393 . S
C1046 H1038 0.950 . S
C1046 C1044 1.391 . S
C1046 C1047 1.400 . S
C1047 C1046 1.400 . S
C1047 C1048 1.398 . S
C1047 C1053 1.491 . S
C1048 H1039 0.950 . S
C1048 C1047 1.398 . S
C1048 C1049 1.391 . S
C1049 H1037 0.950 . S
C1049 C1045 1.393 . S
C1049 C1048 1.391 . S
C1050 H1040 0.950 . S
C1050 C1051 1.386 . S
C1050 C1052 1.391 . S
C1051 C1050 1.386 . S
C1051 C1055 1.393 . S
C1052 H1041 0.950 . S
C1052 C1050 1.391 . S
C1052 C1053 1.400 . S
C1053 C1047 1.491 . S
C1053 C1052 1.400 . S
C1053 C1054 1.398 . S
C1054 H1042 0.950 . S
C1054 C1053 1.398 . S
C1054 C1055 1.391 . S
C1055 H1043 0.950 . S
C1055 C1051 1.393 . S
C1055 C1054 1.391 . S
H1056 C1064 0.950 . S
H1057 C1069 0.950 . S
H1058 C1066 0.950 . S
H1059 C1068 0.950 . S
H1060 C1070 0.950 . S
H1061 C1072 0.950 . S
H1062 C1074 0.950 . S
H1063 C1075 0.950 . S
C1064 H1056 0.950 . S
C1064 C1065 1.386 . S
C1064 C1066 1.391 . S
C1065 C1064 1.386 . S
C1065 C1069 1.393 . S
C1066 H1058 0.950 . S
C1066 C1064 1.391 . S
C1066 C1067 1.400 . S
C1067 C1066 1.400 . S
C1067 C1068 1.398 . S
C1067 C1073 1.491 . S
C1068 H1059 0.950 . S
C1068 C1067 1.398 . S
C1068 C1069 1.391 . S
C1069 H1057 0.950 . S
C1069 C1065 1.393 . S
C1069 C1068 1.391 . S
C1070 H1060 0.950 . S
C1070 C1071 1.386 . S
C1070 C1072 1.391 . S
C1071 C1070 1.386 . S
C1071 C1075 1.393 . S
C1072 H1061 0.950 . S
C1072 C1070 1.391 . S
C1072 C1073 1.400 . S
C1073 C1067 1.491 . S
C1073 C1072 1.400 . S
C1073 C1074 1.398 . S
C1074 H1062 0.950 . S
C1074 C1073 1.398 . S
C1074 C1075 1.391 . S
C1075 H1063 0.950 . S
C1075 C1071 1.393 . S
C1075 C1074 1.391 . S
H1076 C1084 0.950 . S
H1077 C1089 0.950 . S
H1078 C1086 0.950 . S
H1079 C1088 0.950 . S
H1080 C1090 0.950 . S
H1081 C1092 0.950 . S
H1082 C1094 0.950 . S
H1083 C1095 0.950 . S
C1084 H1076 0.950 . S
C1084 C1085 1.386 . S
C1084 C1086 1.391 . S
C1085 C1084 1.386 . S
C1085 C1089 1.393 . S
C1086 H1078 0.950 . S
C1086 C1084 1.391 . S
C1086 C1087 1.400 . S
C1087 C1086 1.400 . S
C1087 C1088 1.398 . S
C1087 C1093 1.491 . S
C1088 H1079 0.950 . S
C1088 C1087 1.398 . S
C1088 C1089 1.391 . S
C1089 H1077 0.950 . S
C1089 C1085 1.393 . S
C1089 C1088 1.391 . S
C1090 H1080 0.950 . S
C1090 C1091 1.386 . S
C1090 C1092 1.391 . S
C1091 C1090 1.386 . S
C1091 C1095 1.393 . S
C1092 H1081 0.950 . S
C1092 C1090 1.391 . S
C1092 C1093 1.400 . S
C1093 C1087 1.491 . S
C1093 C1092 1.400 . S
C1093 C1094 1.398 . S
C1094 H1082 0.950 . S
C1094 C1093 1.398 . S
C1094 C1095 1.391 . S
C1095 H1083 0.950 . S
C1095 C1091 1.393 . S
C1095 C1094 1.391 . S
H1096 C1104 0.950 . S
H1097 C1109 0.950 . S
H1098 C1106 0.950 . S
H1099 C1108 0.950 . S
H1100 C1110 0.950 . S
H1101 C1112 0.950 . S
H1102 C1114 0.950 . S
H1103 C1115 0.950 . S
C1104 H1096 0.950 . S
C1104 C1105 1.386 . S
C1104 C1106 1.391 . S
C1105 C1104 1.386 . S
C1105 C1109 1.393 . S
C1106 H1098 0.950 . S
C1106 C1104 1.391 . S
C1106 C1107 1.400 . S
C1107 C1106 1.400 . S
C1107 C1108 1.398 . S
C1107 C1113 1.491 . S
C1108 H1099 0.950 . S
C1108 C1107 1.398 . S
C1108 C1109 1.391 . S
C1109 H1097 0.950 . S
C1109 C1105 1.393 . S
C1109 C1108 1.391 . S
C1110 H1100 0.950 . S
C1110 C1111 1.386 . S
C1110 C1112 1.391 . S
C1111 C1110 1.386 . S
C1111 C1115 1.393 . S
C1112 H1101 0.950 . S
C1112 C1110 1.391 . S
C1112 C1113 1.400 . S
C1113 C1107 1.491 . S
C1113 C1112 1.400 . S
C1113 C1114 1.398 . S
C1114 H1102 0.950 . S
C1114 C1113 1.398 . S
C1114 C1115 1.391 . S
C1115 H1103 0.950 . S
C1115 C1111 1.393 . S
C1115 C1114 1.391 . S
H1116 C1124 0.950 . S
H1117 C1129 0.950 . S
H1118 C1126 0.950 . S
H1119 C1128 0.950 . S
H1120 C1130 0.950 . S
H1121 C1132 0.950 . S
H1122 C1134 0.950 . S
H1123 C1135 0.950 . S
C1124 H1116 0.950 . S
C1124 C1125 1.386 . S
C1124 C1126 1.391 . S
C1125 C1124 1.386 . S
C1125 C1129 1.393 . S
C1126 H1118 0.950 . S
C1126 C1124 1.391 . S
C1126 C1127 1.400 . S
C1127 C1126 1.400 . S
C1127 C1128 1.398 . S
C1127 C1133 1.491 . S
C1128 H1119 0.950 . S
C1128 C1127 1.398 . S
C1128 C1129 1.391 . S
C1129 H1117 0.950 . S
C1129 C1125 1.393 . S
C1129 C1128 1.391 . S
C1130 H1120 0.950 . S
C1130 C1131 1.386 . S
C1130 C1132 1.391 . S
C1131 C1130 1.386 . S
C1131 C1135 1.393 . S
C1132 H1121 0.950 . S
C1132 C1130 1.391 . S
C1132 C1133 1.400 . S
C1133 C1127 1.491 . S
C1133 C1132 1.400 . S
C1133 C1134 1.398 . S
C1134 H1122 0.950 . S
C1134 C1133 1.398 . S
C1134 C1135 1.391 . S
C1135 H1123 0.950 . S
C1135 C1131 1.393 . S
C1135 C1134 1.391 . S
H1136 C1144 0.950 . S
H1137 C1149 0.950 1_655 S
H1138 C1146 0.950 . S
H1139 C1148 0.950 1_655 S
H1140 C1150 0.950 . S
H1141 C1152 0.950 . S
H1142 C1154 0.950 . S
H1143 C1155 0.950 . S
C1144 H1136 0.950 . S
C1144 C1145 1.386 . S
C1144 C1146 1.391 . S
C1145 C1144 1.386 . S
C1145 C1149 1.393 . S
C1146 H1138 0.950 . S
C1146 C1144 1.391 . S
C1146 C1147 1.400 . S
C1147 C1146 1.400 . S
C1147 C1148 1.398 . S
C1147 C1153 1.491 . S
C1148 H1139 0.950 1_455 S
C1148 C1147 1.398 . S
C1148 C1149 1.391 . S
C1149 H1137 0.950 1_455 S
C1149 C1145 1.393 . S
C1149 C1148 1.391 . S
C1150 H1140 0.950 . S
C1150 C1151 1.386 1_655 S
C1150 C1152 1.391 . S
C1151 C1150 1.386 1_455 S
C1151 C1155 1.393 . S
C1152 H1141 0.950 . S
C1152 C1150 1.391 . S
C1152 C1153 1.400 1_655 S
C1153 C1147 1.491 . S
C1153 C1152 1.400 1_455 S
C1153 C1154 1.398 . S
C1154 H1142 0.950 . S
C1154 C1153 1.398 . S
C1154 C1155 1.391 . S
C1155 H1143 0.950 . S
C1155 C1151 1.393 . S
C1155 C1154 1.391 . S
H1156 C1164 0.950 . S
H1157 C1169 0.950 . S
H1158 C1166 0.950 . S
H1159 C1168 0.950 . S
H1160 C1170 0.950 . S
H1161 C1172 0.950 . S
H1162 C1174 0.950 . S
H1163 C1175 0.950 . S
C1164 H1156 0.950 . S
C1164 C1165 1.386 . S
C1164 C1166 1.391 . S
C1165 C1164 1.386 . S
C1165 C1169 1.393 . S
C1166 H1158 0.950 . S
C1166 C1164 1.391 . S
C1166 C1167 1.400 . S
C1167 C1166 1.400 . S
C1167 C1168 1.398 . S
C1167 C1173 1.491 . S
C1168 H1159 0.950 . S
C1168 C1167 1.398 . S
C1168 C1169 1.391 . S
C1169 H1157 0.950 . S
C1169 C1165 1.393 . S
C1169 C1168 1.391 . S
C1170 H1160 0.950 . S
C1170 C1171 1.386 . S
C1170 C1172 1.391 . S
C1171 C1170 1.386 . S
C1171 C1175 1.393 . S
C1172 H1161 0.950 . S
C1172 C1170 1.391 . S
C1172 C1173 1.400 . S
C1173 C1167 1.491 . S
C1173 C1172 1.400 . S
C1173 C1174 1.398 . S
C1174 H1162 0.950 . S
C1174 C1173 1.398 . S
C1174 C1175 1.391 . S
C1175 H1163 0.950 . S
C1175 C1171 1.393 . S
C1175 C1174 1.391 . S
H1176 C1184 0.950 . S
H1177 C1189 0.950 . S
H1178 C1186 0.950 . S
H1179 C1188 0.950 . S
H1180 C1190 0.950 . S
H1181 C1192 0.950 . S
H1182 C1194 0.950 . S
H1183 C1195 0.950 . S
C1184 H1176 0.950 . S
C1184 C1185 1.386 . S
C1184 C1186 1.391 . S
C1185 C1184 1.386 . S
C1185 C1189 1.393 . S
C1186 H1178 0.950 . S
C1186 C1184 1.391 . S
C1186 C1187 1.400 . S
C1187 C1186 1.400 . S
C1187 C1188 1.398 . S
C1187 C1193 1.491 . S
C1188 H1179 0.950 . S
C1188 C1187 1.398 . S
C1188 C1189 1.391 . S
C1189 H1177 0.950 . S
C1189 C1185 1.393 . S
C1189 C1188 1.391 . S
C1190 H1180 0.950 . S
C1190 C1191 1.386 . S
C1190 C1192 1.391 . S
C1191 C1190 1.386 . S
C1191 C1195 1.393 . S
C1192 H1181 0.950 . S
C1192 C1190 1.391 . S
C1192 C1193 1.400 . S
C1193 C1187 1.491 . S
C1193 C1192 1.400 . S
C1193 C1194 1.398 . S
C1194 H1182 0.950 . S
C1194 C1193 1.398 . S
C1194 C1195 1.391 . S
C1195 H1183 0.950 . S
C1195 C1191 1.393 . S
C1195 C1194 1.391 . S
H1196 C1204 0.950 . S
H1197 C1209 0.950 . S
H1198 C1206 0.950 . S
H1199 C1208 0.950 . S
H1200 C1210 0.950 . S
H1201 C1212 0.950 . S
H1202 C1214 0.950 . S
H1203 C1215 0.950 . S
C1204 H1196 0.950 . S
C1204 C1205 1.386 . S
C1204 C1206 1.391 . S
C1205 C1204 1.386 . S
C1205 C1209 1.393 . S
C1206 H1198 0.950 . S
C1206 C1204 1.391 . S
C1206 C1207 1.400 . S
C1207 C1206 1.400 . S
C1207 C1208 1.398 . S
C1207 C1213 1.491 . S
C1208 H1199 0.950 . S
C1208 C1207 1.398 . S
C1208 C1209 1.391 . S
C1209 H1197 0.950 . S
C1209 C1205 1.393 . S
C1209 C1208 1.391 . S
C1210 H1200 0.950 . S
C1210 C1211 1.386 . S
C1210 C1212 1.391 . S
C1211 C1210 1.386 . S
C1211 C1215 1.393 . S
C1212 H1201 0.950 . S
C1212 C1210 1.391 . S
C1212 C1213 1.400 . S
C1213 C1207 1.491 . S
C1213 C1212 1.400 . S
C1213 C1214 1.398 . S
C1214 H1202 0.950 . S
C1214 C1213 1.398 . S
C1214 C1215 1.391 . S
C1215 H1203 0.950 . S
C1215 C1211 1.393 . S
C1215 C1214 1.391 . S
H1216 C1224 0.950 . S
H1217 C1229 0.950 . S
H1218 C1226 0.950 . S
H1219 C1228 0.950 . S
H1220 C1230 0.950 . S
H1221 C1232 0.950 . S
H1222 C1234 0.950 . S
H1223 C1235 0.950 . S
C1224 H1216 0.950 . S
C1224 C1225 1.386 1_655 S
C1224 C1226 1.391 . S
C1225 C1224 1.386 1_455 S
C1225 C1229 1.393 . S
C1226 H1218 0.950 . S
C1226 C1224 1.391 . S
C1226 C1227 1.400 1_655 S
C1227 C1226 1.400 1_455 S
C1227 C1228 1.398 . S
C1227 C1233 1.491 . S
C1228 H1219 0.950 . S
C1228 C1227 1.398 . S
C1228 C1229 1.391 . S
C1229 H1217 0.950 . S
C1229 C1225 1.393 . S
C1229 C1228 1.391 . S
C1230 H1220 0.950 . S
C1230 C1231 1.386 . S
C1230 C1232 1.391 . S
C1231 C1230 1.386 . S
C1231 C1235 1.393 1_455 S
C1232 H1221 0.950 . S
C1232 C1230 1.391 . S
C1232 C1233 1.400 . S
C1233 C1227 1.491 . S
C1233 C1232 1.400 . S
C1233 C1234 1.398 1_455 S
C1234 H1222 0.950 . S
C1234 C1233 1.398 1_655 S
C1234 C1235 1.391 . S
C1235 H1223 0.950 . S
C1235 C1231 1.393 1_655 S
C1235 C1234 1.391 . S
H1236 C1244 0.950 . S
H1237 C1249 0.950 . S
H1238 C1246 0.950 . S
H1239 C1248 0.950 . S
H1240 C1250 0.950 . S
H1241 C1252 0.950 . S
H1242 C1254 0.950 . S
H1243 C1255 0.950 . S
C1244 H1236 0.950 . S
C1244 C1245 1.386 . S
C1244 C1246 1.391 . S
C1245 C1244 1.386 . S
C1245 C1249 1.393 . S
C1246 H1238 0.950 . S
C1246 C1244 1.391 . S
C1246 C1247 1.400 . S
C1247 C1246 1.400 . S
C1247 C1248 1.398 . S
C1247 C1253 1.491 . S
C1248 H1239 0.950 . S
C1248 C1247 1.398 . S
C1248 C1249 1.391 . S
C1249 H1237 0.950 . S
C1249 C1245 1.393 . S
C1249 C1248 1.391 . S
C1250 H1240 0.950 . S
C1250 C1251 1.386 . S
C1250 C1252 1.391 . S
C1251 C1250 1.386 . S
C1251 C1255 1.393 . S
C1252 H1241 0.950 . S
C1252 C1250 1.391 . S
C1252 C1253 1.400 . S
C1253 C1247 1.491 . S
C1253 C1252 1.400 . S
C1253 C1254 1.398 . S
C1254 H1242 0.950 . S
C1254 C1253 1.398 . S
C1254 C1255 1.391 . S
C1255 H1243 0.950 . S
C1255 C1251 1.393 . S
C1255 C1254 1.391 . S
H1256 C1264 0.950 . S
H1257 C1269 0.950 . S
H1258 C1266 0.950 . S
H1259 C1268 0.950 . S
H1260 C1270 0.950 . S
H1261 C1272 0.950 . S
H1262 C1274 0.950 1_554 S
H1263 C1275 0.950 . S
C1264 H1256 0.950 . S
C1264 C1265 1.386 . S
C1264 C1266 1.391 . S
C1265 C1264 1.386 . S
C1265 C1269 1.393 . S
C1266 H1258 0.950 . S
C1266 C1264 1.391 . S
C1266 C1267 1.400 . S
C1267 C1266 1.400 . S
C1267 C1268 1.398 . S
C1267 C1273 1.491 . S
C1268 H1259 0.950 . S
C1268 C1267 1.398 . S
C1268 C1269 1.391 . S
C1269 H1257 0.950 . S
C1269 C1265 1.393 . S
C1269 C1268 1.391 . S
C1270 H1260 0.950 . S
C1270 C1271 1.393 . S
C1270 C1272 1.391 . S
C1271 C1270 1.393 . S
C1271 C1275 1.389 1_556 S
C1272 H1261 0.950 . S
C1272 C1270 1.391 . S
C1272 C1273 1.400 . S
C1273 C1267 1.491 . S
C1273 C1272 1.400 . S
C1273 C1274 1.398 . S
C1274 H1262 0.950 1_556 S
C1274 C1273 1.398 . S
C1274 C1275 1.391 1_556 S
C1275 H1263 0.950 . S
C1275 C1271 1.389 1_554 S
C1275 C1274 1.391 1_554 S
H1276 C1284 0.950 . S
H1277 C1289 0.950 . S
H1278 C1286 0.950 . S
H1279 C1288 0.950 . S
H1280 C1290 0.950 . S
H1281 C1292 0.950 . S
H1282 C1294 0.950 . S
H1283 C1295 0.950 . S
C1284 H1276 0.950 . S
C1284 C1285 1.386 . S
C1284 C1286 1.391 . S
C1285 C1284 1.386 . S
C1285 C1289 1.393 . S
C1286 H1278 0.950 . S
C1286 C1284 1.391 . S
C1286 C1287 1.400 . S
C1287 C1286 1.400 . S
C1287 C1288 1.398 . S
C1287 C1293 1.491 . S
C1288 H1279 0.950 . S
C1288 C1287 1.398 . S
C1288 C1289 1.391 . S
C1289 H1277 0.950 . S
C1289 C1285 1.393 . S
C1289 C1288 1.391 . S
C1290 H1280 0.950 . S
C1290 C1291 1.386 . S
C1290 C1292 1.391 . S
C1291 C1290 1.386 . S
C1291 C1295 1.393 . S
C1292 H1281 0.950 . S
C1292 C1290 1.391 . S
C1292 C1293 1.400 . S
C1293 C1287 1.491 . S
C1293 C1292 1.400 . S
C1293 C1294 1.398 . S
C1294 H1282 0.950 . S
C1294 C1293 1.398 . S
C1294 C1295 1.391 . S
C1295 H1283 0.950 . S
C1295 C1291 1.393 . S
C1295 C1294 1.391 . S
H1296 C1304 0.950 . S
H1297 C1309 0.950 . S
H1298 C1306 0.950 . S
H1299 C1308 0.950 . S
H1300 C1310 0.950 . S
H1301 C1312 0.950 . S
H1302 C1314 0.950 . S
H1303 C1315 0.950 . S
C1304 H1296 0.950 . S
C1304 C1305 1.386 1_565 S
C1304 C1306 1.391 . S
C1305 C1304 1.386 1_545 S
C1305 C1309 1.393 . S
C1306 H1298 0.950 . S
C1306 C1304 1.391 . S
C1306 C1307 1.400 1_565 S
C1307 C1306 1.400 1_545 S
C1307 C1308 1.398 . S
C1307 C1313 1.491 . S
C1308 H1299 0.950 . S
C1308 C1307 1.398 . S
C1308 C1309 1.391 . S
C1309 H1297 0.950 . S
C1309 C1305 1.393 . S
C1309 C1308 1.391 . S
C1310 H1300 0.950 . S
C1310 C1311 1.386 . S
C1310 C1312 1.391 . S
C1311 C1310 1.386 . S
C1311 C1315 1.393 1_545 S
C1312 H1301 0.950 . S
C1312 C1310 1.391 . S
C1312 C1313 1.400 . S
C1313 C1307 1.491 . S
C1313 C1312 1.400 . S
C1313 C1314 1.398 1_545 S
C1314 H1302 0.950 . S
C1314 C1313 1.398 1_565 S
C1314 C1315 1.391 . S
C1315 H1303 0.950 . S
C1315 C1311 1.393 1_565 S
C1315 C1314 1.391 . S
H1316 C1324 0.950 . S
H1317 C1329 0.950 . S
H1318 C1326 0.950 . S
H1319 C1328 0.950 . S
H1320 C1330 0.950 . S
H1321 C1332 0.950 . S
H1322 C1334 0.950 . S
H1323 C1335 0.950 . S
C1324 H1316 0.950 . S
C1324 C1325 1.386 . S
C1324 C1326 1.391 . S
C1325 C1324 1.386 . S
C1325 C1329 1.393 . S
C1326 H1318 0.950 . S
C1326 C1324 1.391 . S
C1326 C1327 1.400 . S
C1327 C1326 1.400 . S
C1327 C1328 1.398 . S
C1327 C1333 1.491 . S
C1328 H1319 0.950 . S
C1328 C1327 1.398 . S
C1328 C1329 1.391 . S
C1329 H1317 0.950 . S
C1329 C1325 1.393 . S
C1329 C1328 1.391 . S
C1330 H1320 0.950 . S
C1330 C1331 1.386 . S
C1330 C1332 1.391 . S
C1331 C1330 1.386 . S
C1331 C1335 1.393 . S
C1332 H1321 0.950 . S
C1332 C1330 1.391 . S
C1332 C1333 1.400 . S
C1333 C1327 1.491 . S
C1333 C1332 1.400 . S
C1333 C1334 1.398 . S
C1334 H1322 0.950 . S
C1334 C1333 1.398 . S
C1334 C1335 1.391 . S
C1335 H1323 0.950 . S
C1335 C1331 1.393 . S
C1335 C1334 1.391 . S
H1336 C1344 0.950 . S
H1337 C1349 0.950 . S
H1338 C1346 0.950 . S
H1339 C1348 0.950 . S
H1340 C1350 0.950 . S
H1341 C1352 0.950 . S
H1342 C1354 0.950 . S
H1343 C1355 0.950 . S
C1344 H1336 0.950 . S
C1344 C1345 1.386 . S
C1344 C1346 1.391 . S
C1345 C1344 1.386 . S
C1345 C1349 1.393 . S
C1346 H1338 0.950 . S
C1346 C1344 1.391 . S
C1346 C1347 1.400 . S
C1347 C1346 1.400 . S
C1347 C1348 1.398 . S
C1347 C1353 1.491 . S
C1348 H1339 0.950 . S
C1348 C1347 1.398 . S
C1348 C1349 1.391 . S
C1349 H1337 0.950 . S
C1349 C1345 1.393 . S
C1349 C1348 1.391 . S
C1350 H1340 0.950 . S
C1350 C1351 1.386 . S
C1350 C1352 1.391 . S
C1351 C1350 1.386 . S
C1351 C1355 1.393 . S
C1352 H1341 0.950 . S
C1352 C1350 1.391 . S
C1352 C1353 1.400 . S
C1353 C1347 1.491 . S
C1353 C1352 1.400 . S
C1353 C1354 1.398 . S
C1354 H1342 0.950 . S
C1354 C1353 1.398 . S
C1354 C1355 1.391 . S
C1355 H1343 0.950 . S
C1355 C1351 1.393 . S
C1355 C1354 1.391 . S
H1356 C1364 0.950 . S
H1357 C1369 0.950 . S
H1358 C1366 0.950 . S
H1359 C1368 0.950 . S
H1360 C1370 0.950 . S
H1361 C1372 0.950 . S
H1362 C1374 0.950 . S
H1363 C1375 0.950 . S
C1364 H1356 0.950 . S
C1364 C1365 1.386 . S
C1364 C1366 1.391 . S
C1365 C1364 1.386 . S
C1365 C1369 1.393 . S
C1366 H1358 0.950 . S
C1366 C1364 1.391 . S
C1366 C1367 1.400 . S
C1367 C1366 1.400 . S
C1367 C1368 1.398 . S
C1367 C1373 1.491 . S
C1368 H1359 0.950 . S
C1368 C1367 1.398 . S
C1368 C1369 1.391 . S
C1369 H1357 0.950 . S
C1369 C1365 1.393 . S
C1369 C1368 1.391 . S
C1370 H1360 0.950 . S
C1370 C1371 1.386 . S
C1370 C1372 1.391 . S
C1371 C1370 1.386 . S
C1371 C1375 1.393 . S
C1372 H1361 0.950 . S
C1372 C1370 1.391 . S
C1372 C1373 1.400 . S
C1373 C1367 1.491 . S
C1373 C1372 1.400 . S
C1373 C1374 1.398 . S
C1374 H1362 0.950 . S
C1374 C1373 1.398 . S
C1374 C1375 1.391 . S
C1375 H1363 0.950 . S
C1375 C1371 1.393 . S
C1375 C1374 1.391 . S
H1376 C1384 0.950 . S
H1377 C1389 0.933 1_565 S
H1378 C1386 0.950 . S
H1379 C1388 0.950 1_565 S
H1380 C1390 0.950 1_565 S
H1381 C1392 0.950 1_565 S
H1382 C1394 0.950 . S
H1383 C1395 0.950 . S
C1384 H1376 0.950 . S
C1384 C1385 1.386 . S
C1384 C1386 1.391 . S
C1385 C1384 1.386 . S
C1385 C1389 1.403 . S
C1386 H1378 0.950 . S
C1386 C1384 1.391 . S
C1386 C1387 1.400 . S
C1387 C1386 1.400 . S
C1387 C1388 1.398 . S
C1387 C1393 1.491 . S
C1388 H1379 0.950 1_545 S
C1388 C1387 1.398 . S
C1388 C1389 1.399 . S
C1389 H1377 0.933 1_545 S
C1389 C1385 1.403 . S
C1389 C1388 1.399 . S
C1390 H1380 0.950 1_545 S
C1390 C1391 1.386 . S
C1390 C1392 1.391 . S
C1391 C1390 1.386 . S
C1391 C1395 1.393 . S
C1392 H1381 0.950 1_545 S
C1392 C1390 1.391 . S
C1392 C1393 1.400 . S
C1393 C1387 1.491 . S
C1393 C1392 1.400 . S
C1393 C1394 1.398 . S
C1394 H1382 0.950 . S
C1394 C1393 1.398 . S
C1394 C1395 1.391 . S
C1395 H1383 0.950 . S
C1395 C1391 1.393 . S
C1395 C1394 1.391 . S
H1396 C1404 0.950 . S
H1397 C1409 0.950 . S
H1398 C1406 0.950 . S
H1399 C1408 0.950 . S
H1400 C1410 0.950 . S
H1401 C1412 0.950 . S
H1402 C1414 0.950 . S
H1403 C1415 0.950 . S
C1404 H1396 0.950 . S
C1404 C1405 1.386 . S
C1404 C1406 1.391 . S
C1405 C1404 1.386 . S
C1405 C1409 1.393 . S
C1406 H1398 0.950 . S
C1406 C1404 1.391 . S
C1406 C1407 1.400 . S
C1407 C1406 1.400 . S
C1407 C1408 1.398 . S
C1407 C1413 1.491 . S
C1408 H1399 0.950 . S
C1408 C1407 1.398 . S
C1408 C1409 1.391 . S
C1409 H1397 0.950 . S
C1409 C1405 1.393 . S
C1409 C1408 1.391 . S
C1410 H1400 0.950 . S
C1410 C1411 1.386 . S
C1410 C1412 1.391 . S
C1411 C1410 1.386 . S
C1411 C1415 1.393 . S
C1412 H1401 0.950 . S
C1412 C1410 1.391 . S
C1412 C1413 1.400 . S
C1413 C1407 1.491 . S
C1413 C1412 1.400 . S
C1413 C1414 1.398 . S
C1414 H1402 0.950 . S
C1414 C1413 1.398 . S
C1414 C1415 1.391 . S
C1415 H1403 0.950 . S
C1415 C1411 1.393 . S
C1415 C1414 1.391 . S
H1416 C1424 0.950 . S
H1417 C1429 0.950 . S
H1418 C1426 0.950 . S
H1419 C1428 0.950 . S
H1420 C1430 0.950 . S
H1421 C1432 0.950 . S
H1422 C1434 0.950 . S
H1423 C1435 0.950 . S
C1424 H1416 0.950 . S
C1424 C1425 1.386 . S
C1424 C1426 1.391 . S
C1425 C1424 1.386 . S
C1425 C1429 1.393 1_545 S
C1426 H1418 0.950 . S
C1426 C1424 1.391 . S
C1426 C1427 1.400 . S
C1427 C1426 1.400 . S
C1427 C1428 1.398 1_545 S
C1427 C1433 1.491 . S
C1428 H1419 0.950 . S
C1428 C1427 1.398 1_565 S
C1428 C1429 1.391 . S
C1429 H1417 0.950 . S
C1429 C1425 1.393 1_565 S
C1429 C1428 1.391 . S
C1430 H1420 0.950 . S
C1430 C1431 1.386 1_565 S
C1430 C1432 1.391 . S
C1431 C1430 1.386 1_545 S
C1431 C1435 1.393 . S
C1432 H1421 0.950 . S
C1432 C1430 1.391 . S
C1432 C1433 1.400 1_565 S
C1433 C1427 1.491 . S
C1433 C1432 1.400 1_545 S
C1433 C1434 1.398 . S
C1434 H1422 0.950 . S
C1434 C1433 1.398 . S
C1434 C1435 1.391 . S
C1435 H1423 0.950 . S
C1435 C1431 1.393 . S
C1435 C1434 1.391 . S
H1436 C1444 0.950 . S
H1437 C1449 0.950 . S
H1438 C1446 0.950 . S
H1439 C1448 0.950 . S
H1440 C1450 0.950 . S
H1441 C1452 0.950 . S
H1442 C1454 0.950 . S
H1443 C1455 0.950 . S
C1444 H1436 0.950 . S
C1444 C1445 1.386 . S
C1444 C1446 1.391 . S
C1445 C1444 1.386 . S
C1445 C1449 1.393 . S
C1446 H1438 0.950 . S
C1446 C1444 1.391 . S
C1446 C1447 1.400 . S
C1447 C1446 1.400 . S
C1447 C1448 1.398 . S
C1447 C1453 1.491 . S
C1448 H1439 0.950 . S
C1448 C1447 1.398 . S
C1448 C1449 1.391 . S
C1449 H1437 0.950 . S
C1449 C1445 1.393 . S
C1449 C1448 1.391 . S
C1450 H1440 0.950 . S
C1450 C1451 1.386 . S
C1450 C1452 1.391 . S
C1451 C1450 1.386 . S
C1451 C1455 1.393 . S
C1452 H1441 0.950 . S
C1452 C1450 1.391 . S
C1452 C1453 1.400 . S
C1453 C1447 1.491 . S
C1453 C1452 1.400 . S
C1453 C1454 1.398 . S
C1454 H1442 0.950 . S
C1454 C1453 1.398 . S
C1454 C1455 1.391 . S
C1455 H1443 0.950 . S
C1455 C1451 1.393 . S
C1455 C1454 1.391 . S
H1456 C1464 0.950 . S
H1457 C1469 0.950 . S
H1458 C1466 0.950 . S
H1459 C1468 0.946 1_556 S
H1460 C1470 0.950 . S
H1461 C1472 0.961 . S
H1462 C1474 0.950 . S
H1463 C1475 0.950 . S
C1464 H1456 0.950 . S
C1464 C1465 1.386 . S
C1464 C1466 1.391 . S
C1465 C1464 1.386 . S
C1465 C1469 1.393 . S
C1466 H1458 0.950 . S
C1466 C1464 1.391 . S
C1466 C1467 1.400 . S
C1467 C1466 1.400 . S
C1467 C1468 1.398 . S
C1467 C1473 1.491 . S
C1468 H1459 0.946 1_554 S
C1468 C1467 1.398 . S
C1468 C1469 1.391 . S
C1469 H1457 0.950 . S
C1469 C1465 1.393 . S
C1469 C1468 1.391 . S
C1470 H1460 0.950 . S
C1470 C1471 1.386 1_556 S
C1470 C1472 1.397 . S
C1471 C1470 1.386 1_554 S
C1471 C1475 1.393 . S
C1472 H1461 0.961 . S
C1472 C1470 1.397 . S
C1472 C1473 1.385 1_556 S
C1473 C1467 1.491 . S
C1473 C1472 1.385 1_554 S
C1473 C1474 1.398 . S
C1474 H1462 0.950 . S
C1474 C1473 1.398 . S
C1474 C1475 1.391 . S
C1475 H1463 0.950 . S
C1475 C1471 1.393 . S
C1475 C1474 1.391 . S
H1476 C1484 0.950 . S
H1477 C1489 0.950 . S
H1478 C1486 0.950 . S
H1479 C1488 0.950 . S
H1480 C1490 0.950 1_556 S
H1481 C1492 0.967 . S
H1482 C1494 0.950 . S
H1483 C1495 0.950 . S
C1484 H1476 0.950 . S
C1484 C1485 1.386 . S
C1484 C1486 1.391 . S
C1485 C1484 1.386 . S
C1485 C1489 1.393 . S
C1486 H1478 0.950 . S
C1486 C1484 1.391 . S
C1486 C1487 1.400 . S
C1487 C1486 1.400 . S
C1487 C1488 1.398 . S
C1487 C1493 1.491 . S
C1488 H1479 0.950 . S
C1488 C1487 1.398 . S
C1488 C1489 1.391 . S
C1489 H1477 0.950 . S
C1489 C1485 1.393 . S
C1489 C1488 1.391 . S
C1490 H1480 0.950 1_554 S
C1490 C1491 1.386 . S
C1490 C1492 1.391 . S
C1491 C1490 1.386 . S
C1491 C1495 1.393 . S
C1492 H1481 0.967 . S
C1492 C1490 1.391 . S
C1492 C1493 1.400 . S
C1493 C1487 1.491 . S
C1493 C1492 1.400 . S
C1493 C1494 1.398 . S
C1494 H1482 0.950 . S
C1494 C1493 1.398 . S
C1494 C1495 1.391 . S
C1495 H1483 0.950 . S
C1495 C1491 1.393 . S
C1495 C1494 1.391 . S
H1496 C1504 0.950 . S
H1497 C1509 0.950 . S
H1498 C1506 0.950 . S
H1499 C1508 0.950 . S
H1500 C1510 0.950 . S
H1501 C1512 0.950 . S
H1502 C1514 0.950 . S
H1503 C1515 0.950 . S
C1504 H1496 0.950 . S
C1504 C1505 1.386 . S
C1504 C1506 1.391 . S
C1505 C1504 1.386 . S
C1505 C1509 1.393 . S
C1506 H1498 0.950 . S
C1506 C1504 1.391 . S
C1506 C1507 1.400 . S
C1507 C1506 1.400 . S
C1507 C1508 1.398 . S
C1507 C1513 1.491 . S
C1508 H1499 0.950 . S
C1508 C1507 1.398 . S
C1508 C1509 1.391 . S
C1509 H1497 0.950 . S
C1509 C1505 1.393 . S
C1509 C1508 1.391 . S
C1510 H1500 0.950 . S
C1510 C1511 1.386 . S
C1510 C1512 1.391 . S
C1511 C1510 1.386 . S
C1511 C1515 1.393 . S
C1512 H1501 0.950 . S
C1512 C1510 1.391 . S
C1512 C1513 1.400 . S
C1513 C1507 1.491 . S
C1513 C1512 1.400 . S
C1513 C1514 1.398 . S
C1514 H1502 0.950 . S
C1514 C1513 1.398 . S
C1514 C1515 1.391 . S
C1515 H1503 0.950 . S
C1515 C1511 1.393 . S
C1515 C1514 1.391 . S
H1516 C1524 0.950 . S
H1517 C1529 0.950 . S
H1518 C1526 0.950 . S
H1519 C1528 0.950 . S
H1520 C1530 0.950 . S
H1521 C1532 0.950 . S
H1522 C1534 0.950 . S
H1523 C1535 0.950 . S
C1524 H1516 0.950 . S
C1524 C1525 1.386 . S
C1524 C1526 1.391 . S
C1525 C1524 1.386 . S
C1525 C1529 1.393 . S
C1526 H1518 0.950 . S
C1526 C1524 1.391 . S
C1526 C1527 1.400 . S
C1527 C1526 1.400 . S
C1527 C1528 1.398 . S
C1527 C1533 1.491 . S
C1528 H1519 0.950 . S
C1528 C1527 1.398 . S
C1528 C1529 1.391 . S
C1529 H1517 0.950 . S
C1529 C1525 1.393 . S
C1529 C1528 1.391 . S
C1530 H1520 0.950 . S
C1530 C1531 1.386 . S
C1530 C1532 1.391 . S
C1531 C1530 1.386 . S
C1531 C1535 1.393 . S
C1532 H1521 0.950 . S
C1532 C1530 1.391 . S
C1532 C1533 1.400 . S
C1533 C1527 1.491 . S
C1533 C1532 1.400 . S
C1533 C1534 1.398 . S
C1534 H1522 0.950 . S
C1534 C1533 1.398 . S
C1534 C1535 1.391 . S
C1535 H1523 0.950 . S
C1535 C1531 1.393 . S
C1535 C1534 1.391 . S
H1536 C1544 0.950 . S
H1537 C1549 0.950 . S
H1538 C1546 0.950 . S
H1539 C1548 0.950 . S
H1540 C1550 0.950 . S
H1541 C1552 0.950 . S
H1542 C1554 0.950 . S
H1543 C1555 0.950 . S
C1544 H1536 0.950 . S
C1544 C1545 1.386 . S
C1544 C1546 1.391 . S
C1545 C1544 1.386 . S
C1545 C1549 1.393 . S
C1546 H1538 0.950 . S
C1546 C1544 1.391 . S
C1546 C1547 1.400 . S
C1547 C1546 1.400 . S
C1547 C1548 1.398 . S
C1547 C1553 1.491 . S
C1548 H1539 0.950 . S
C1548 C1547 1.398 . S
C1548 C1549 1.391 . S
C1549 H1537 0.950 . S
C1549 C1545 1.393 . S
C1549 C1548 1.391 . S
C1550 H1540 0.950 . S
C1550 C1551 1.386 . S
C1550 C1552 1.391 . S
C1551 C1550 1.386 . S
C1551 C1555 1.393 . S
C1552 H1541 0.950 . S
C1552 C1550 1.391 . S
C1552 C1553 1.400 . S
C1553 C1547 1.491 . S
C1553 C1552 1.400 . S
C1553 C1554 1.398 . S
C1554 H1542 0.950 . S
C1554 C1553 1.398 . S
C1554 C1555 1.391 . S
C1555 H1543 0.950 . S
C1555 C1551 1.393 . S
C1555 C1554 1.391 . S
H1556 C1564 0.950 . S
H1557 C1569 0.950 . S
H1558 C1566 0.950 . S
H1559 C1568 0.950 . S
H1560 C1570 0.950 . S
H1561 C1572 0.950 . S
H1562 C1574 0.950 . S
H1563 C1575 0.950 . S
C1564 H1556 0.950 . S
C1564 C1565 1.386 . S
C1564 C1566 1.391 . S
C1565 C1564 1.386 . S
C1565 C1569 1.393 . S
C1566 H1558 0.950 . S
C1566 C1564 1.391 . S
C1566 C1567 1.400 . S
C1567 C1566 1.400 . S
C1567 C1568 1.398 . S
C1567 C1573 1.491 . S
C1568 H1559 0.950 . S
C1568 C1567 1.398 . S
C1568 C1569 1.391 . S
C1569 H1557 0.950 . S
C1569 C1565 1.393 . S
C1569 C1568 1.391 . S
C1570 H1560 0.950 . S
C1570 C1571 1.386 . S
C1570 C1572 1.391 . S
C1571 C1570 1.386 . S
C1571 C1575 1.393 . S
C1572 H1561 0.950 . S
C1572 C1570 1.391 . S
C1572 C1573 1.400 . S
C1573 C1567 1.491 . S
C1573 C1572 1.400 . S
C1573 C1574 1.398 . S
C1574 H1562 0.950 . S
C1574 C1573 1.398 . S
C1574 C1575 1.391 . S
C1575 H1563 0.950 . S
C1575 C1571 1.393 . S
C1575 C1574 1.391 . S
H1576 C1584 0.950 . S
H1577 C1589 0.950 . S
H1578 C1586 0.950 . S
H1579 C1588 0.950 . S
H1580 C1590 0.950 . S
H1581 C1592 0.950 . S
H1582 C1594 0.950 . S
H1583 C1595 0.950 . S
C1584 H1576 0.950 . S
C1584 C1585 1.386 . S
C1584 C1586 1.391 . S
C1585 C1584 1.386 . S
C1585 C1589 1.393 . S
C1586 H1578 0.950 . S
C1586 C1584 1.391 . S
C1586 C1587 1.400 . S
C1587 C1586 1.400 . S
C1587 C1588 1.398 . S
C1587 C1593 1.491 . S
C1588 H1579 0.950 . S
C1588 C1587 1.398 . S
C1588 C1589 1.391 . S
C1589 H1577 0.950 . S
C1589 C1585 1.393 . S
C1589 C1588 1.391 . S
C1590 H1580 0.950 . S
C1590 C1591 1.386 . S
C1590 C1592 1.391 . S
C1591 C1590 1.386 . S
C1591 C1595 1.393 . S
C1592 H1581 0.950 . S
C1592 C1590 1.391 . S
C1592 C1593 1.400 . S
C1593 C1587 1.491 . S
C1593 C1592 1.400 . S
C1593 C1594 1.398 . S
C1594 H1582 0.950 . S
C1594 C1593 1.398 . S
C1594 C1595 1.391 . S
C1595 H1583 0.950 . S
C1595 C1591 1.393 . S
C1595 C1594 1.391 . S
H1596 C1604 0.950 . S
H1597 C1609 0.950 . S
H1598 C1606 0.950 . S
H1599 C1608 0.950 . S
H1600 C1610 0.950 . S
H1601 C1612 0.950 . S
H1602 C1614 0.950 . S
H1603 C1615 0.950 . S
C1604 H1596 0.950 . S
C1604 C1605 1.386 . S
C1604 C1606 1.391 . S
C1605 C1604 1.386 . S
C1605 C1609 1.393 . S
C1606 H1598 0.950 . S
C1606 C1604 1.391 . S
C1606 C1607 1.400 . S
C1607 C1606 1.400 . S
C1607 C1608 1.398 . S
C1607 C1613 1.491 . S
C1608 H1599 0.950 . S
C1608 C1607 1.398 . S
C1608 C1609 1.391 . S
C1609 H1597 0.950 . S
C1609 C1605 1.393 . S
C1609 C1608 1.391 . S
C1610 H1600 0.950 . S
C1610 C1611 1.386 . S
C1610 C1612 1.391 . S
C1611 C1610 1.386 . S
C1611 C1615 1.393 . S
C1612 H1601 0.950 . S
C1612 C1610 1.391 . S
C1612 C1613 1.400 . S
C1613 C1607 1.491 . S
C1613 C1612 1.400 . S
C1613 C1614 1.398 . S
C1614 H1602 0.950 . S
C1614 C1613 1.398 . S
C1614 C1615 1.391 . S
C1615 H1603 0.950 . S
C1615 C1611 1.393 . S
C1615 C1614 1.391 . S
H1616 C1624 0.950 . S
H1617 C1629 0.950 . S
H1618 C1626 0.950 . S
H1619 C1628 0.950 . S
H1620 C1630 0.950 . S
H1621 C1632 0.950 . S
H1622 C1634 0.950 . S
H1623 C1635 0.950 . S
C1624 H1616 0.950 . S
C1624 C1625 1.386 . S
C1624 C1626 1.391 . S
C1625 C1624 1.386 . S
C1625 C1629 1.393 . S
C1626 H1618 0.950 . S
C1626 C1624 1.391 . S
C1626 C1627 1.400 . S
C1627 C1626 1.400 . S
C1627 C1628 1.398 . S
C1627 C1633 1.491 . S
C1628 H1619 0.950 . S
C1628 C1627 1.398 . S
C1628 C1629 1.391 . S
C1629 H1617 0.950 . S
C1629 C1625 1.393 . S
C1629 C1628 1.391 . S
C1630 H1620 0.950 . S
C1630 C1631 1.386 . S
C1630 C1632 1.391 . S
C1631 C1630 1.386 . S
C1631 C1635 1.393 . S
C1632 H1621 0.950 . S
C1632 C1630 1.391 . S
C1632 C1633 1.400 . S
C1633 C1627 1.491 . S
C1633 C1632 1.400 . S
C1633 C1634 1.398 . S
C1634 H1622 0.950 . S
C1634 C1633 1.398 . S
C1634 C1635 1.391 . S
C1635 H1623 0.950 . S
C1635 C1631 1.393 . S
C1635 C1634 1.391 . S
H1636 C1644 0.950 . S
H1637 C1649 0.950 . S
H1638 C1646 0.950 . S
H1639 C1648 0.950 . S
H1640 C1650 0.950 . S
H1641 C1652 0.950 . S
H1642 C1654 0.950 . S
H1643 C1655 0.950 . S
C1644 H1636 0.950 . S
C1644 C1645 1.386 . S
C1644 C1646 1.391 . S
C1645 C1644 1.386 . S
C1645 C1649 1.393 . S
C1646 H1638 0.950 . S
C1646 C1644 1.391 . S
C1646 C1647 1.400 . S
C1647 C1646 1.400 . S
C1647 C1648 1.398 . S
C1647 C1653 1.491 . S
C1648 H1639 0.950 . S
C1648 C1647 1.398 . S
C1648 C1649 1.391 . S
C1649 H1637 0.950 . S
C1649 C1645 1.393 . S
C1649 C1648 1.391 . S
C1650 H1640 0.950 . S
C1650 C1651 1.386 . S
C1650 C1652 1.391 . S
C1651 C1650 1.386 . S
C1651 C1655 1.393 . S
C1652 H1641 0.950 . S
C1652 C1650 1.391 . S
C1652 C1653 1.400 . S
C1653 C1647 1.491 . S
C1653 C1652 1.400 . S
C1653 C1654 1.398 . S
C1654 H1642 0.950 . S
C1654 C1653 1.398 . S
C1654 C1655 1.391 . S
C1655 H1643 0.950 . S
C1655 C1651 1.393 . S
C1655 C1654 1.391 . S
H1656 C1664 0.950 . S
H1657 C1669 0.950 . S
H1658 C1666 0.950 . S
H1659 C1668 0.950 . S
H1660 C1670 0.950 . S
H1661 C1672 0.950 . S
H1662 C1674 0.950 1_554 S
H1663 C1675 0.950 . S
C1664 H1656 0.950 . S
C1664 C1665 1.386 . S
C1664 C1666 1.391 . S
C1665 C1664 1.386 . S
C1665 C1669 1.393 1_455 S
C1666 H1658 0.950 . S
C1666 C1664 1.391 . S
C1666 C1667 1.400 . S
C1667 C1666 1.400 . S
C1667 C1668 1.398 1_455 S
C1667 C1673 1.491 . S
C1668 H1659 0.950 . S
C1668 C1667 1.398 1_655 S
C1668 C1669 1.391 . S
C1669 H1657 0.950 . S
C1669 C1665 1.393 1_655 S
C1669 C1668 1.391 . S
C1670 H1660 0.950 . S
C1670 C1671 1.386 1_655 S
C1670 C1672 1.391 . S
C1671 C1670 1.386 1_455 S
C1671 C1675 1.393 1_556 S
C1672 H1661 0.950 . S
C1672 C1670 1.391 . S
C1672 C1673 1.400 1_655 S
C1673 C1667 1.491 . S
C1673 C1672 1.400 1_455 S
C1673 C1674 1.398 . S
C1674 H1662 0.950 1_556 S
C1674 C1673 1.398 . S
C1674 C1675 1.391 1_556 S
C1675 H1663 0.950 . S
C1675 C1671 1.393 1_554 S
C1675 C1674 1.391 1_554 S
H1676 C1684 0.950 . S
H1677 C1689 0.950 . S
H1678 C1686 0.950 . S
H1679 C1688 0.950 . S
H1680 C1690 0.950 . S
H1681 C1692 0.950 . S
H1682 C1694 0.950 . S
H1683 C1695 0.950 . S
C1684 H1676 0.950 . S
C1684 C1685 1.386 . S
C1684 C1686 1.391 . S
C1685 C1684 1.386 . S
C1685 C1689 1.393 . S
C1686 H1678 0.950 . S
C1686 C1684 1.391 . S
C1686 C1687 1.400 . S
C1687 C1686 1.400 . S
C1687 C1688 1.398 . S
C1687 C1693 1.491 . S
C1688 H1679 0.950 . S
C1688 C1687 1.398 . S
C1688 C1689 1.391 . S
C1689 H1677 0.950 . S
C1689 C1685 1.393 . S
C1689 C1688 1.391 . S
C1690 H1680 0.950 . S
C1690 C1691 1.386 . S
C1690 C1692 1.391 . S
C1691 C1690 1.386 . S
C1691 C1695 1.393 . S
C1692 H1681 0.950 . S
C1692 C1690 1.391 . S
C1692 C1693 1.400 . S
C1693 C1687 1.491 . S
C1693 C1692 1.400 . S
C1693 C1694 1.398 . S
C1694 H1682 0.950 . S
C1694 C1693 1.398 . S
C1694 C1695 1.391 . S
C1695 H1683 0.950 . S
C1695 C1691 1.393 . S
C1695 C1694 1.391 . S
H1696 C1704 0.950 . S
H1697 C1709 0.950 . S
H1698 C1706 0.950 . S
H1699 C1708 0.950 . S
H1700 C1710 0.950 . S
H1701 C1712 0.950 . S
H1702 C1714 0.950 . S
H1703 C1715 0.950 . S
C1704 H1696 0.950 . S
C1704 C1705 1.386 . S
C1704 C1706 1.391 . S
C1705 C1704 1.386 . S
C1705 C1709 1.393 . S
C1706 H1698 0.950 . S
C1706 C1704 1.391 . S
C1706 C1707 1.400 . S
C1707 C1706 1.400 . S
C1707 C1708 1.398 . S
C1707 C1713 1.491 . S
C1708 H1699 0.950 . S
C1708 C1707 1.398 . S
C1708 C1709 1.391 . S
C1709 H1697 0.950 . S
C1709 C1705 1.393 . S
C1709 C1708 1.391 . S
C1710 H1700 0.950 . S
C1710 C1711 1.386 . S
C1710 C1712 1.391 . S
C1711 C1710 1.386 . S
C1711 C1715 1.393 . S
C1712 H1701 0.950 . S
C1712 C1710 1.391 . S
C1712 C1713 1.400 . S
C1713 C1707 1.491 . S
C1713 C1712 1.400 . S
C1713 C1714 1.398 . S
C1714 H1702 0.950 . S
C1714 C1713 1.398 . S
C1714 C1715 1.391 . S
C1715 H1703 0.950 . S
C1715 C1711 1.393 . S
C1715 C1714 1.391 . S
H1716 C1724 0.950 . S
H1717 C1729 0.950 . S
H1718 C1726 0.950 . S
H1719 C1728 0.950 . S
H1720 C1730 0.950 . S
H1721 C1732 0.950 . S
H1722 C1734 0.950 . S
H1723 C1735 0.950 . S
C1724 H1716 0.950 . S
C1724 C1725 1.386 . S
C1724 C1726 1.391 . S
C1725 C1724 1.386 . S
C1725 C1729 1.393 . S
C1726 H1718 0.950 . S
C1726 C1724 1.391 . S
C1726 C1727 1.400 . S
C1727 C1726 1.400 . S
C1727 C1728 1.398 . S
C1727 C1733 1.491 . S
C1728 H1719 0.950 . S
C1728 C1727 1.398 . S
C1728 C1729 1.391 . S
C1729 H1717 0.950 . S
C1729 C1725 1.393 . S
C1729 C1728 1.391 . S
C1730 H1720 0.950 . S
C1730 C1731 1.386 . S
C1730 C1732 1.391 . S
C1731 C1730 1.386 . S
C1731 C1735 1.393 . S
C1732 H1721 0.950 . S
C1732 C1730 1.391 . S
C1732 C1733 1.400 . S
C1733 C1727 1.491 . S
C1733 C1732 1.400 . S
C1733 C1734 1.398 . S
C1734 H1722 0.950 . S
C1734 C1733 1.398 . S
C1734 C1735 1.391 . S
C1735 H1723 0.950 . S
C1735 C1731 1.393 . S
C1735 C1734 1.391 . S
H1736 C1744 0.950 . S
H1737 C1749 0.950 . S
H1738 C1746 0.950 . S
H1739 C1748 0.950 . S
H1740 C1750 0.950 . S
H1741 C1752 0.950 . S
H1742 C1754 0.950 . S
H1743 C1755 0.950 . S
C1744 H1736 0.950 . S
C1744 C1745 1.386 . S
C1744 C1746 1.391 . S
C1745 C1744 1.386 . S
C1745 C1749 1.393 1_455 S
C1746 H1738 0.950 . S
C1746 C1744 1.391 . S
C1746 C1747 1.400 . S
C1747 C1746 1.400 . S
C1747 C1748 1.398 1_455 S
C1747 C1753 1.491 . S
C1748 H1739 0.950 . S
C1748 C1747 1.398 1_655 S
C1748 C1749 1.391 . S
C1749 H1737 0.950 . S
C1749 C1745 1.393 1_655 S
C1749 C1748 1.391 . S
C1750 H1740 0.950 . S
C1750 C1751 1.386 1_655 S
C1750 C1752 1.391 . S
C1751 C1750 1.386 1_455 S
C1751 C1755 1.393 . S
C1752 H1741 0.950 . S
C1752 C1750 1.391 . S
C1752 C1753 1.400 1_655 S
C1753 C1747 1.491 . S
C1753 C1752 1.400 1_455 S
C1753 C1754 1.398 . S
C1754 H1742 0.950 . S
C1754 C1753 1.398 . S
C1754 C1755 1.391 . S
C1755 H1743 0.950 . S
C1755 C1751 1.393 . S
C1755 C1754 1.391 . S
H1756 C1764 0.950 . S
H1757 C1769 0.950 . S
H1758 C1766 0.950 . S
H1759 C1768 0.950 . S
H1760 C1770 0.950 . S
H1761 C1772 0.950 . S
H1762 C1774 0.950 . S
H1763 C1775 0.950 . S
C1764 H1756 0.950 . S
C1764 C1765 1.386 . S
C1764 C1766 1.391 . S
C1765 C1764 1.386 . S
C1765 C1769 1.393 . S
C1766 H1758 0.950 . S
C1766 C1764 1.391 . S
C1766 C1767 1.400 . S
C1767 C1766 1.400 . S
C1767 C1768 1.398 . S
C1767 C1773 1.491 . S
C1768 H1759 0.950 . S
C1768 C1767 1.398 . S
C1768 C1769 1.391 . S
C1769 H1757 0.950 . S
C1769 C1765 1.393 . S
C1769 C1768 1.391 . S
C1770 H1760 0.950 . S
C1770 C1771 1.386 . S
C1770 C1772 1.391 . S
C1771 C1770 1.386 . S
C1771 C1775 1.393 . S
C1772 H1761 0.950 . S
C1772 C1770 1.391 . S
C1772 C1773 1.400 . S
C1773 C1767 1.491 . S
C1773 C1772 1.400 . S
C1773 C1774 1.398 . S
C1774 H1762 0.950 . S
C1774 C1773 1.398 . S
C1774 C1775 1.391 . S
C1775 H1763 0.950 . S
C1775 C1771 1.393 . S
C1775 C1774 1.391 . S
H1776 C1784 0.950 . S
H1777 C1789 0.950 . S
H1778 C1786 0.950 . S
H1779 C1788 0.950 . S
H1780 C1790 0.950 . S
H1781 C1792 0.950 . S
H1782 C1794 0.950 . S
H1783 C1795 0.950 . S
C1784 H1776 0.950 . S
C1784 C1785 1.386 . S
C1784 C1786 1.391 . S
C1785 C1784 1.386 . S
C1785 C1789 1.393 . S
C1786 H1778 0.950 . S
C1786 C1784 1.391 . S
C1786 C1787 1.400 . S
C1787 C1786 1.400 . S
C1787 C1788 1.398 . S
C1787 C1793 1.491 . S
C1788 H1779 0.950 . S
C1788 C1787 1.398 . S
C1788 C1789 1.391 . S
C1789 H1777 0.950 . S
C1789 C1785 1.393 . S
C1789 C1788 1.391 . S
C1790 H1780 0.950 . S
C1790 C1791 1.386 . S
C1790 C1792 1.391 . S
C1791 C1790 1.386 . S
C1791 C1795 1.393 . S
C1792 H1781 0.950 . S
C1792 C1790 1.391 . S
C1792 C1793 1.400 . S
C1793 C1787 1.491 . S
C1793 C1792 1.400 . S
C1793 C1794 1.398 . S
C1794 H1782 0.950 . S
C1794 C1793 1.398 . S
C1794 C1795 1.391 . S
C1795 H1783 0.950 . S
C1795 C1791 1.393 . S
C1795 C1794 1.391 . S
H1796 C1804 0.950 . S
H1797 C1809 0.950 . S
H1798 C1806 0.950 . S
H1799 C1808 0.950 . S
H1800 C1810 0.950 . S
H1801 C1812 0.950 . S
H1802 C1814 0.950 . S
H1803 C1815 0.950 . S
C1804 H1796 0.950 . S
C1804 C1805 1.386 . S
C1804 C1806 1.391 . S
C1805 C1804 1.386 . S
C1805 C1809 1.393 . S
C1806 H1798 0.950 . S
C1806 C1804 1.391 . S
C1806 C1807 1.400 . S
C1807 C1806 1.400 . S
C1807 C1808 1.398 . S
C1807 C1813 1.491 . S
C1808 H1799 0.950 . S
C1808 C1807 1.398 . S
C1808 C1809 1.391 . S
C1809 H1797 0.950 . S
C1809 C1805 1.393 . S
C1809 C1808 1.391 . S
C1810 H1800 0.950 . S
C1810 C1811 1.386 . S
C1810 C1812 1.391 . S
C1811 C1810 1.386 . S
C1811 C1815 1.393 . S
C1812 H1801 0.950 . S
C1812 C1810 1.391 . S
C1812 C1813 1.400 . S
C1813 C1807 1.491 . S
C1813 C1812 1.400 . S
C1813 C1814 1.398 . S
C1814 H1802 0.950 . S
C1814 C1813 1.398 . S
C1814 C1815 1.391 . S
C1815 H1803 0.950 . S
C1815 C1811 1.393 . S
C1815 C1814 1.391 . S
H1816 C1824 0.950 . S
H1817 C1829 0.950 . S
H1818 C1826 0.950 . S
H1819 C1828 0.950 . S
H1820 C1830 0.950 . S
H1821 C1832 0.950 . S
H1822 C1834 0.950 . S
H1823 C1835 0.950 . S
C1824 H1816 0.950 . S
C1824 C1825 1.386 . S
C1824 C1826 1.391 . S
C1825 C1824 1.386 . S
C1825 C1829 1.393 . S
C1826 H1818 0.950 . S
C1826 C1824 1.391 . S
C1826 C1827 1.400 . S
C1827 C1826 1.400 . S
C1827 C1828 1.398 . S
C1827 C1833 1.491 . S
C1828 H1819 0.950 . S
C1828 C1827 1.398 . S
C1828 C1829 1.391 . S
C1829 H1817 0.950 . S
C1829 C1825 1.393 . S
C1829 C1828 1.391 . S
C1830 H1820 0.950 . S
C1830 C1831 1.386 . S
C1830 C1832 1.391 . S
C1831 C1830 1.386 . S
C1831 C1835 1.393 . S
C1832 H1821 0.950 . S
C1832 C1830 1.391 . S
C1832 C1833 1.400 . S
C1833 C1827 1.491 . S
C1833 C1832 1.400 . S
C1833 C1834 1.398 . S
C1834 H1822 0.950 . S
C1834 C1833 1.398 . S
C1834 C1835 1.391 . S
C1835 H1823 0.950 . S
C1835 C1831 1.393 . S
C1835 C1834 1.391 . S
H1836 C1844 0.950 . S
H1837 C1849 0.950 . S
H1838 C1846 0.950 . S
H1839 C1848 0.950 . S
H1840 C1850 0.950 . S
H1841 C1852 0.950 . S
H1842 C1854 0.950 . S
H1843 C1855 0.950 . S
C1844 H1836 0.950 . S
C1844 C1845 1.386 . S
C1844 C1846 1.391 . S
C1845 C1844 1.386 . S
C1845 C1849 1.393 . S
C1846 H1838 0.950 . S
C1846 C1844 1.391 . S
C1846 C1847 1.400 . S
C1847 C1846 1.400 . S
C1847 C1848 1.398 . S
C1847 C1853 1.491 . S
C1848 H1839 0.950 . S
C1848 C1847 1.398 . S
C1848 C1849 1.391 . S
C1849 H1837 0.950 . S
C1849 C1845 1.393 . S
C1849 C1848 1.391 . S
C1850 H1840 0.950 . S
C1850 C1851 1.386 . S
C1850 C1852 1.391 . S
C1851 C1850 1.386 . S
C1851 C1855 1.393 . S
C1852 H1841 0.950 . S
C1852 C1850 1.391 . S
C1852 C1853 1.400 . S
C1853 C1847 1.491 . S
C1853 C1852 1.400 . S
C1853 C1854 1.398 . S
C1854 H1842 0.950 . S
C1854 C1853 1.398 . S
C1854 C1855 1.391 . S
C1855 H1843 0.950 . S
C1855 C1851 1.393 . S
C1855 C1854 1.391 . S
H1856 C1864 0.950 . S
H1857 C1869 0.950 . S
H1858 C1866 0.950 . S
H1859 C1868 0.950 . S
H1860 C1870 0.950 . S
H1861 C1872 0.950 . S
H1862 C1874 0.950 . S
H1863 C1875 0.950 . S
C1864 H1856 0.950 . S
C1864 C1865 1.386 . S
C1864 C1866 1.391 . S
C1865 C1864 1.386 . S
C1865 C1869 1.393 . S
C1866 H1858 0.950 . S
C1866 C1864 1.391 . S
C1866 C1867 1.400 . S
C1867 C1866 1.400 . S
C1867 C1868 1.398 . S
C1867 C1873 1.491 . S
C1868 H1859 0.950 . S
C1868 C1867 1.398 . S
C1868 C1869 1.391 . S
C1869 H1857 0.950 . S
C1869 C1865 1.393 . S
C1869 C1868 1.391 . S
C1870 H1860 0.950 . S
C1870 C1871 1.386 . S
C1870 C1872 1.391 . S
C1871 C1870 1.386 . S
C1871 C1875 1.393 . S
C1872 H1861 0.950 . S
C1872 C1870 1.391 . S
C1872 C1873 1.400 . S
C1873 C1867 1.491 . S
C1873 C1872 1.400 . S
C1873 C1874 1.398 . S
C1874 H1862 0.950 . S
C1874 C1873 1.398 . S
C1874 C1875 1.391 . S
C1875 H1863 0.950 . S
C1875 C1871 1.393 . S
C1875 C1874 1.391 . S
H1876 C1884 0.950 . S
H1877 C1889 0.950 . S
H1878 C1886 0.950 . S
H1879 C1888 0.950 . S
H1880 C1890 0.950 . S
H1881 C1892 0.950 . S
H1882 C1894 0.950 . S
H1883 C1895 0.950 . S
C1884 H1876 0.950 . S
C1884 C1885 1.386 . S
C1884 C1886 1.391 . S
C1885 C1884 1.386 . S
C1885 C1889 1.393 . S
C1886 H1878 0.950 . S
C1886 C1884 1.391 . S
C1886 C1887 1.400 . S
C1887 C1886 1.400 . S
C1887 C1888 1.398 . S
C1887 C1893 1.491 . S
C1888 H1879 0.950 . S
C1888 C1887 1.398 . S
C1888 C1889 1.391 . S
C1889 H1877 0.950 . S
C1889 C1885 1.393 . S
C1889 C1888 1.391 . S
C1890 H1880 0.950 . S
C1890 C1891 1.386 . S
C1890 C1892 1.391 . S
C1891 C1890 1.386 . S
C1891 C1895 1.393 . S
C1892 H1881 0.950 . S
C1892 C1890 1.391 . S
C1892 C1893 1.400 . S
C1893 C1887 1.491 . S
C1893 C1892 1.400 . S
C1893 C1894 1.398 . S
C1894 H1882 0.950 . S
C1894 C1893 1.398 . S
C1894 C1895 1.391 . S
C1895 H1883 0.950 . S
C1895 C1891 1.393 . S
C1895 C1894 1.391 . S
H1896 C1904 0.950 . S
H1897 C1909 0.950 . S
H1898 C1906 0.950 . S
H1899 C1908 0.950 . S
H1900 C1910 0.950 . S
H1901 C1912 0.950 . S
H1902 C1914 0.950 . S
H1903 C1915 0.950 . S
C1904 H1896 0.950 . S
C1904 C1905 1.386 . S
C1904 C1906 1.391 . S
C1905 C1904 1.386 . S
C1905 C1909 1.393 . S
C1906 H1898 0.950 . S
C1906 C1904 1.391 . S
C1906 C1907 1.400 . S
C1907 C1906 1.400 . S
C1907 C1908 1.398 . S
C1907 C1913 1.491 . S
C1908 H1899 0.950 . S
C1908 C1907 1.398 . S
C1908 C1909 1.391 . S
C1909 H1897 0.950 . S
C1909 C1905 1.393 . S
C1909 C1908 1.391 . S
C1910 H1900 0.950 . S
C1910 C1911 1.386 . S
C1910 C1912 1.391 . S
C1911 C1910 1.386 . S
C1911 C1915 1.393 . S
C1912 H1901 0.950 . S
C1912 C1910 1.391 . S
C1912 C1913 1.400 . S
C1913 C1907 1.491 . S
C1913 C1912 1.400 . S
C1913 C1914 1.398 . S
C1914 H1902 0.950 . S
C1914 C1913 1.398 . S
C1914 C1915 1.391 . S
C1915 H1903 0.950 . S
C1915 C1911 1.393 . S
C1915 C1914 1.391 . S
H1916 C1924 0.950 . S
H1917 C1929 0.950 . S
H1918 C1926 0.950 . S
H1919 C1928 0.950 . S
H1920 C1930 0.950 . S
H1921 C1932 0.950 . S
H1922 C1934 0.950 . S
H1923 C1935 0.950 . S
C1924 H1916 0.950 . S
C1924 C1925 1.386 . S
C1924 C1926 1.391 . S
C1925 C1924 1.386 . S
C1925 C1929 1.393 . S
C1926 H1918 0.950 . S
C1926 C1924 1.391 . S
C1926 C1927 1.400 . S
C1927 C1926 1.400 . S
C1927 C1928 1.398 . S
C1927 C1933 1.491 . S
C1928 H1919 0.950 . S
C1928 C1927 1.398 . S
C1928 C1929 1.391 . S
C1929 H1917 0.950 . S
C1929 C1925 1.393 . S
C1929 C1928 1.391 . S
C1930 H1920 0.950 . S
C1930 C1931 1.386 . S
C1930 C1932 1.391 . S
C1931 C1930 1.386 . S
C1931 C1935 1.393 . S
C1932 H1921 0.950 . S
C1932 C1930 1.391 . S
C1932 C1933 1.400 . S
C1933 C1927 1.491 . S
C1933 C1932 1.400 . S
C1933 C1934 1.398 . S
C1934 H1922 0.950 . S
C1934 C1933 1.398 . S
C1934 C1935 1.391 . S
C1935 H1923 0.950 . S
C1935 C1931 1.393 . S
C1935 C1934 1.391 . S
H1936 C1944 0.950 . S
H1937 C1949 0.950 . S
H1938 C1946 0.950 . S
H1939 C1948 0.950 . S
H1940 C1950 0.950 . S
H1941 C1952 0.950 . S
H1942 C1954 0.950 . S
H1943 C1955 0.950 . S
C1944 H1936 0.950 . S
C1944 C1945 1.386 . S
C1944 C1946 1.391 . S
C1945 C1944 1.386 . S
C1945 C1949 1.393 . S
C1946 H1938 0.950 . S
C1946 C1944 1.391 . S
C1946 C1947 1.400 . S
C1947 C1946 1.400 . S
C1947 C1948 1.398 . S
C1947 C1953 1.491 . S
C1948 H1939 0.950 . S
C1948 C1947 1.398 . S
C1948 C1949 1.391 . S
C1949 H1937 0.950 . S
C1949 C1945 1.393 . S
C1949 C1948 1.391 . S
C1950 H1940 0.950 . S
C1950 C1951 1.386 . S
C1950 C1952 1.391 . S
C1951 C1950 1.386 . S
C1951 C1955 1.393 . S
C1952 H1941 0.950 . S
C1952 C1950 1.391 . S
C1952 C1953 1.400 . S
C1953 C1947 1.491 . S
C1953 C1952 1.400 . S
C1953 C1954 1.398 . S
C1954 H1942 0.950 . S
C1954 C1953 1.398 . S
C1954 C1955 1.391 . S
C1955 H1943 0.950 . S
C1955 C1951 1.393 . S
C1955 C1954 1.391 . S
H1956 C1964 0.950 . S
H1957 C1969 0.950 . S
H1958 C1966 0.950 . S
H1959 C1968 0.950 . S
H1960 C1970 0.950 . S
H1961 C1972 0.950 . S
H1962 C1974 0.950 . S
H1963 C1975 0.950 . S
C1964 H1956 0.950 . S
C1964 C1965 1.386 . S
C1964 C1966 1.391 . S
C1965 C1964 1.386 . S
C1965 C1969 1.393 . S
C1966 H1958 0.950 . S
C1966 C1964 1.391 . S
C1966 C1967 1.400 . S
C1967 C1966 1.400 . S
C1967 C1968 1.398 . S
C1967 C1973 1.491 . S
C1968 H1959 0.950 . S
C1968 C1967 1.398 . S
C1968 C1969 1.391 . S
C1969 H1957 0.950 . S
C1969 C1965 1.393 . S
C1969 C1968 1.391 . S
C1970 H1960 0.950 . S
C1970 C1971 1.386 . S
C1970 C1972 1.391 . S
C1971 C1970 1.386 . S
C1971 C1975 1.393 . S
C1972 H1961 0.950 . S
C1972 C1970 1.391 . S
C1972 C1973 1.400 . S
C1973 C1967 1.491 . S
C1973 C1972 1.400 . S
C1973 C1974 1.398 . S
C1974 H1962 0.950 . S
C1974 C1973 1.398 . S
C1974 C1975 1.391 . S
C1975 H1963 0.950 . S
C1975 C1971 1.393 . S
C1975 C1974 1.391 . S
H1976 C1984 0.950 . S
H1977 C1989 0.950 . S
H1978 C1986 0.950 . S
H1979 C1988 0.950 . S
H1980 C1990 0.950 . S
H1981 C1992 0.950 . S
H1982 C1994 0.950 . S
H1983 C1995 0.950 . S
C1984 H1976 0.950 . S
C1984 C1985 1.386 . S
C1984 C1986 1.391 . S
C1985 C1984 1.386 . S
C1985 C1989 1.393 . S
C1986 H1978 0.950 . S
C1986 C1984 1.391 . S
C1986 C1987 1.400 . S
C1987 C1986 1.400 . S
C1987 C1988 1.398 . S
C1987 C1993 1.491 . S
C1988 H1979 0.950 . S
C1988 C1987 1.398 . S
C1988 C1989 1.391 . S
C1989 H1977 0.950 . S
C1989 C1985 1.393 . S
C1989 C1988 1.391 . S
C1990 H1980 0.950 . S
C1990 C1991 1.386 . S
C1990 C1992 1.391 . S
C1991 C1990 1.386 . S
C1991 C1995 1.393 . S
C1992 H1981 0.950 . S
C1992 C1990 1.391 . S
C1992 C1993 1.400 . S
C1993 C1987 1.491 . S
C1993 C1992 1.400 . S
C1993 C1994 1.398 . S
C1994 H1982 0.950 . S
C1994 C1993 1.398 . S
C1994 C1995 1.391 . S
C1995 H1983 0.950 . S
C1995 C1991 1.393 . S
C1995 C1994 1.391 . S
H1996 C2004 0.950 1_556 S
H1997 C2009 0.950 . S
H1998 C2006 0.950 1_556 S
H1999 C2008 0.950 . S
H2000 C2010 0.950 . S
H2001 C2012 0.950 . S
H2002 C2014 0.950 1_556 S
H2003 C2015 0.950 1_556 S
C2004 H1996 0.950 1_554 S
C2004 C2005 1.386 . S
C2004 C2006 1.391 . S
C2005 C2004 1.386 . S
C2005 C2009 1.393 . S
C2006 H1998 0.950 1_554 S
C2006 C2004 1.391 . S
C2006 C2007 1.400 . S
C2007 C2006 1.400 . S
C2007 C2008 1.398 . S
C2007 C2013 1.491 . S
C2008 H1999 0.950 . S
C2008 C2007 1.398 . S
C2008 C2009 1.391 . S
C2009 H1997 0.950 . S
C2009 C2005 1.393 . S
C2009 C2008 1.391 . S
C2010 H2000 0.950 . S
C2010 C2011 1.386 . S
C2010 C2012 1.391 . S
C2011 C2010 1.386 . S
C2011 C2015 1.393 . S
C2012 H2001 0.950 . S
C2012 C2010 1.391 . S
C2012 C2013 1.400 . S
C2013 C2007 1.491 . S
C2013 C2012 1.400 . S
C2013 C2014 1.398 . S
C2014 H2002 0.950 1_554 S
C2014 C2013 1.398 . S
C2014 C2015 1.391 . S
C2015 H2003 0.950 1_554 S
C2015 C2011 1.393 . S
C2015 C2014 1.391 . S
H2016 C2024 0.950 . S
H2017 C2029 0.950 . S
H2018 C2026 0.950 . S
H2019 C2028 0.950 . S
H2020 C2030 0.950 . S
H2021 C2032 0.950 . S
H2022 C2034 0.950 . S
H2023 C2035 0.950 . S
C2024 H2016 0.950 . S
C2024 C2025 1.386 . S
C2024 C2026 1.391 . S
C2025 C2024 1.386 . S
C2025 C2029 1.393 . S
C2026 H2018 0.950 . S
C2026 C2024 1.391 . S
C2026 C2027 1.400 . S
C2027 C2026 1.400 . S
C2027 C2028 1.398 . S
C2027 C2033 1.491 . S
C2028 H2019 0.950 . S
C2028 C2027 1.398 . S
C2028 C2029 1.391 . S
C2029 H2017 0.950 . S
C2029 C2025 1.393 . S
C2029 C2028 1.391 . S
C2030 H2020 0.950 . S
C2030 C2031 1.386 . S
C2030 C2032 1.391 . S
C2031 C2030 1.386 . S
C2031 C2035 1.393 . S
C2032 H2021 0.950 . S
C2032 C2030 1.391 . S
C2032 C2033 1.400 . S
C2033 C2027 1.491 . S
C2033 C2032 1.400 . S
C2033 C2034 1.398 . S
C2034 H2022 0.950 . S
C2034 C2033 1.398 . S
C2034 C2035 1.391 . S
C2035 H2023 0.950 . S
C2035 C2031 1.393 . S
C2035 C2034 1.391 . S
H2036 C2044 0.950 . S
H2037 C2049 0.950 . S
H2038 C2046 0.950 . S
H2039 C2048 0.950 . S
H2040 C2050 0.950 . S
H2041 C2052 0.950 . S
H2042 C2054 0.950 . S
H2043 C2055 0.950 . S
C2044 H2036 0.950 . S
C2044 C2045 1.386 . S
C2044 C2046 1.391 . S
C2045 C2044 1.386 . S
C2045 C2049 1.393 . S
C2046 H2038 0.950 . S
C2046 C2044 1.391 . S
C2046 C2047 1.400 . S
C2047 C2046 1.400 . S
C2047 C2048 1.398 . S
C2047 C2053 1.491 . S
C2048 H2039 0.950 . S
C2048 C2047 1.398 . S
C2048 C2049 1.391 . S
C2049 H2037 0.950 . S
C2049 C2045 1.393 . S
C2049 C2048 1.391 . S
C2050 H2040 0.950 . S
C2050 C2051 1.386 . S
C2050 C2052 1.391 . S
C2051 C2050 1.386 . S
C2051 C2055 1.393 . S
C2052 H2041 0.950 . S
C2052 C2050 1.391 . S
C2052 C2053 1.400 . S
C2053 C2047 1.491 . S
C2053 C2052 1.400 . S
C2053 C2054 1.398 . S
C2054 H2042 0.950 . S
C2054 C2053 1.398 . S
C2054 C2055 1.391 . S
C2055 H2043 0.950 . S
C2055 C2051 1.393 . S
C2055 C2054 1.391 . S
H2056 C2064 0.950 . S
H2057 C2069 0.950 . S
H2058 C2066 0.950 . S
H2059 C2068 0.950 . S
H2060 C2070 0.950 . S
H2061 C2072 0.950 . S
H2062 C2074 0.950 . S
H2063 C2075 0.950 . S
C2064 H2056 0.950 . S
C2064 C2065 1.386 . S
C2064 C2066 1.391 . S
C2065 C2064 1.386 . S
C2065 C2069 1.393 . S
C2066 H2058 0.950 . S
C2066 C2064 1.391 . S
C2066 C2067 1.400 . S
C2067 C2066 1.400 . S
C2067 C2068 1.398 . S
C2067 C2073 1.491 . S
C2068 H2059 0.950 . S
C2068 C2067 1.398 . S
C2068 C2069 1.391 . S
C2069 H2057 0.950 . S
C2069 C2065 1.393 . S
C2069 C2068 1.391 . S
C2070 H2060 0.950 . S
C2070 C2071 1.386 . S
C2070 C2072 1.391 . S
C2071 C2070 1.386 . S
C2071 C2075 1.393 . S
C2072 H2061 0.950 . S
C2072 C2070 1.391 . S
C2072 C2073 1.400 . S
C2073 C2067 1.491 . S
C2073 C2072 1.400 . S
C2073 C2074 1.398 . S
C2074 H2062 0.950 . S
C2074 C2073 1.398 . S
C2074 C2075 1.391 . S
C2075 H2063 0.950 . S
C2075 C2071 1.393 . S
C2075 C2074 1.391 . S
H2076 C2084 0.950 . S
H2077 C2089 0.950 . S
H2078 C2086 0.950 . S
H2079 C2088 0.950 . S
H2080 C2090 0.950 . S
H2081 C2092 0.950 . S
H2082 C2094 0.950 . S
H2083 C2095 0.950 . S
C2084 H2076 0.950 . S
C2084 C2085 1.386 . S
C2084 C2086 1.391 . S
C2085 C2084 1.386 . S
C2085 C2089 1.393 . S
C2086 H2078 0.950 . S
C2086 C2084 1.391 . S
C2086 C2087 1.400 . S
C2087 C2086 1.400 . S
C2087 C2088 1.398 . S
C2087 C2093 1.491 . S
C2088 H2079 0.950 . S
C2088 C2087 1.398 . S
C2088 C2089 1.391 . S
C2089 H2077 0.950 . S
C2089 C2085 1.393 . S
C2089 C2088 1.391 . S
C2090 H2080 0.950 . S
C2090 C2091 1.386 . S
C2090 C2092 1.391 . S
C2091 C2090 1.386 . S
C2091 C2095 1.393 . S
C2092 H2081 0.950 . S
C2092 C2090 1.391 . S
C2092 C2093 1.400 . S
C2093 C2087 1.491 . S
C2093 C2092 1.400 . S
C2093 C2094 1.398 . S
C2094 H2082 0.950 . S
C2094 C2093 1.398 . S
C2094 C2095 1.391 . S
C2095 H2083 0.950 . S
C2095 C2091 1.393 . S
C2095 C2094 1.391 . S
H2096 C2104 0.950 . S
H2097 C2109 0.950 . S
H2098 C2106 0.950 . S
H2099 C2108 0.950 . S
H2100 C2110 0.950 . S
H2101 C2112 0.950 . S
H2102 C2114 0.950 . S
H2103 C2115 0.950 . S
C2104 H2096 0.950 . S
C2104 C2105 1.386 . S
C2104 C2106 1.391 . S
C2105 C2104 1.386 . S
C2105 C2109 1.393 . S
C2106 H2098 0.950 . S
C2106 C2104 1.391 . S
C2106 C2107 1.400 . S
C2107 C2106 1.400 . S
C2107 C2108 1.398 . S
C2107 C2113 1.491 . S
C2108 H2099 0.950 . S
C2108 C2107 1.398 . S
C2108 C2109 1.391 . S
C2109 H2097 0.950 . S
C2109 C2105 1.393 . S
C2109 C2108 1.391 . S
C2110 H2100 0.950 . S
C2110 C2111 1.386 . S
C2110 C2112 1.391 . S
C2111 C2110 1.386 . S
C2111 C2115 1.393 . S
C2112 H2101 0.950 . S
C2112 C2110 1.391 . S
C2112 C2113 1.400 . S
C2113 C2107 1.491 . S
C2113 C2112 1.400 . S
C2113 C2114 1.398 . S
C2114 H2102 0.950 . S
C2114 C2113 1.398 . S
C2114 C2115 1.391 . S
C2115 H2103 0.950 . S
C2115 C2111 1.393 . S
C2115 C2114 1.391 . S
H2116 C2124 0.950 . S
H2117 C2129 0.950 . S
H2118 C2126 0.950 . S
H2119 C2128 0.950 . S
H2120 C2130 0.950 . S
H2121 C2132 0.950 . S
H2122 C2134 0.950 . S
H2123 C2135 0.950 . S
C2124 H2116 0.950 . S
C2124 C2125 1.386 . S
C2124 C2126 1.391 . S
C2125 C2124 1.386 . S
C2125 C2129 1.393 . S
C2126 H2118 0.950 . S
C2126 C2124 1.391 . S
C2126 C2127 1.400 . S
C2127 C2126 1.400 . S
C2127 C2128 1.398 . S
C2127 C2133 1.491 . S
C2128 H2119 0.950 . S
C2128 C2127 1.398 . S
C2128 C2129 1.391 . S
C2129 H2117 0.950 . S
C2129 C2125 1.393 . S
C2129 C2128 1.391 . S
C2130 H2120 0.950 . S
C2130 C2131 1.386 . S
C2130 C2132 1.391 . S
C2131 C2130 1.386 . S
C2131 C2135 1.393 . S
C2132 H2121 0.950 . S
C2132 C2130 1.391 . S
C2132 C2133 1.400 . S
C2133 C2127 1.491 . S
C2133 C2132 1.400 . S
C2133 C2134 1.398 . S
C2134 H2122 0.950 . S
C2134 C2133 1.398 . S
C2134 C2135 1.391 . S
C2135 H2123 0.950 . S
C2135 C2131 1.393 . S
C2135 C2134 1.391 . S
H2136 C2144 0.950 1_655 S
H2137 C2149 0.950 . S
H2138 C2146 0.950 1_655 S
H2139 C2148 0.950 . S
H2140 C2150 0.950 . S
H2141 C2152 0.950 . S
H2142 C2154 0.950 1_655 S
H2143 C2155 0.950 1_655 S
C2144 H2136 0.950 1_455 S
C2144 C2145 1.386 . S
C2144 C2146 1.391 . S
C2145 C2144 1.386 . S
C2145 C2149 1.393 . S
C2146 H2138 0.950 1_455 S
C2146 C2144 1.391 . S
C2146 C2147 1.400 . S
C2147 C2146 1.400 . S
C2147 C2148 1.398 . S
C2147 C2153 1.491 . S
C2148 H2139 0.950 . S
C2148 C2147 1.398 . S
C2148 C2149 1.391 . S
C2149 H2137 0.950 . S
C2149 C2145 1.393 . S
C2149 C2148 1.391 . S
C2150 H2140 0.950 . S
C2150 C2151 1.386 . S
C2150 C2152 1.391 . S
C2151 C2150 1.386 . S
C2151 C2155 1.393 . S
C2152 H2141 0.950 . S
C2152 C2150 1.391 . S
C2152 C2153 1.400 . S
C2153 C2147 1.491 . S
C2153 C2152 1.400 . S
C2153 C2154 1.398 . S
C2154 H2142 0.950 1_455 S
C2154 C2153 1.398 . S
C2154 C2155 1.391 . S
C2155 H2143 0.950 1_455 S
C2155 C2151 1.393 . S
C2155 C2154 1.391 . S
H2156 C2164 0.950 . S
H2157 C2169 0.950 . S
H2158 C2166 0.950 . S
H2159 C2168 0.950 . S
H2160 C2170 0.950 . S
H2161 C2172 0.950 . S
H2162 C2174 0.950 . S
H2163 C2175 0.950 . S
C2164 H2156 0.950 . S
C2164 C2165 1.386 . S
C2164 C2166 1.391 . S
C2165 C2164 1.386 . S
C2165 C2169 1.393 . S
C2166 H2158 0.950 . S
C2166 C2164 1.391 . S
C2166 C2167 1.400 . S
C2167 C2166 1.400 . S
C2167 C2168 1.398 . S
C2167 C2173 1.491 . S
C2168 H2159 0.950 . S
C2168 C2167 1.398 . S
C2168 C2169 1.391 . S
C2169 H2157 0.950 . S
C2169 C2165 1.393 . S
C2169 C2168 1.391 . S
C2170 H2160 0.950 . S
C2170 C2171 1.386 . S
C2170 C2172 1.391 . S
C2171 C2170 1.386 . S
C2171 C2175 1.393 . S
C2172 H2161 0.950 . S
C2172 C2170 1.391 . S
C2172 C2173 1.400 . S
C2173 C2167 1.491 . S
C2173 C2172 1.400 . S
C2173 C2174 1.398 . S
C2174 H2162 0.950 . S
C2174 C2173 1.398 . S
C2174 C2175 1.391 . S
C2175 H2163 0.950 . S
C2175 C2171 1.393 . S
C2175 C2174 1.391 . S
H2176 C2184 0.950 . S
H2177 C2189 0.950 . S
H2178 C2186 0.950 . S
H2179 C2188 0.950 . S
H2180 C2190 0.950 1_554 S
H2181 C2192 0.950 . S
H2182 C2194 0.950 . S
H2183 C2195 0.950 . S
C2184 H2176 0.950 . S
C2184 C2185 1.386 . S
C2184 C2186 1.391 . S
C2185 C2184 1.386 . S
C2185 C2189 1.393 . S
C2186 H2178 0.950 . S
C2186 C2184 1.391 . S
C2186 C2187 1.400 . S
C2187 C2186 1.400 . S
C2187 C2188 1.398 . S
C2187 C2193 1.491 . S
C2188 H2179 0.950 . S
C2188 C2187 1.398 . S
C2188 C2189 1.391 . S
C2189 H2177 0.950 . S
C2189 C2185 1.393 . S
C2189 C2188 1.391 . S
C2190 H2180 0.950 1_556 S
C2190 C2191 1.386 . S
C2190 C2192 1.391 . S
C2191 C2190 1.386 . S
C2191 C2195 1.393 . S
C2192 H2181 0.950 . S
C2192 C2190 1.391 . S
C2192 C2193 1.400 . S
C2193 C2187 1.491 . S
C2193 C2192 1.400 . S
C2193 C2194 1.398 . S
C2194 H2182 0.950 . S
C2194 C2193 1.398 . S
C2194 C2195 1.391 . S
C2195 H2183 0.950 . S
C2195 C2191 1.393 . S
C2195 C2194 1.391 . S
H2196 C2204 0.950 . S
H2197 C2209 0.950 . S
H2198 C2206 0.950 . S
H2199 C2208 0.950 . S
H2200 C2210 0.950 . S
H2201 C2212 0.950 . S
H2202 C2214 0.950 . S
H2203 C2215 0.950 . S
C2204 H2196 0.950 . S
C2204 C2205 1.386 . S
C2204 C2206 1.391 . S
C2205 C2204 1.386 . S
C2205 C2209 1.393 . S
C2206 H2198 0.950 . S
C2206 C2204 1.391 . S
C2206 C2207 1.400 . S
C2207 C2206 1.400 . S
C2207 C2208 1.398 . S
C2207 C2213 1.491 . S
C2208 H2199 0.950 . S
C2208 C2207 1.398 . S
C2208 C2209 1.391 . S
C2209 H2197 0.950 . S
C2209 C2205 1.393 . S
C2209 C2208 1.391 . S
C2210 H2200 0.950 . S
C2210 C2211 1.386 . S
C2210 C2212 1.391 . S
C2211 C2210 1.386 . S
C2211 C2215 1.393 . S
C2212 H2201 0.950 . S
C2212 C2210 1.391 . S
C2212 C2213 1.400 . S
C2213 C2207 1.491 . S
C2213 C2212 1.400 . S
C2213 C2214 1.398 . S
C2214 H2202 0.950 . S
C2214 C2213 1.398 . S
C2214 C2215 1.391 . S
C2215 H2203 0.950 . S
C2215 C2211 1.393 . S
C2215 C2214 1.391 . S
H2216 C2224 0.950 . S
H2217 C2229 0.950 . S
H2218 C2226 0.950 . S
H2219 C2228 0.950 . S
H2220 C2230 0.950 . S
H2221 C2232 0.950 . S
H2222 C2234 0.950 . S
H2223 C2235 0.950 . S
C2224 H2216 0.950 . S
C2224 C2225 1.386 . S
C2224 C2226 1.391 . S
C2225 C2224 1.386 . S
C2225 C2229 1.393 . S
C2226 H2218 0.950 . S
C2226 C2224 1.391 . S
C2226 C2227 1.400 . S
C2227 C2226 1.400 . S
C2227 C2228 1.398 . S
C2227 C2233 1.491 . S
C2228 H2219 0.950 . S
C2228 C2227 1.398 . S
C2228 C2229 1.391 . S
C2229 H2217 0.950 . S
C2229 C2225 1.393 . S
C2229 C2228 1.391 . S
C2230 H2220 0.950 . S
C2230 C2231 1.386 . S
C2230 C2232 1.391 . S
C2231 C2230 1.386 . S
C2231 C2235 1.393 . S
C2232 H2221 0.950 . S
C2232 C2230 1.391 . S
C2232 C2233 1.400 . S
C2233 C2227 1.491 . S
C2233 C2232 1.400 . S
C2233 C2234 1.398 . S
C2234 H2222 0.950 . S
C2234 C2233 1.398 . S
C2234 C2235 1.391 . S
C2235 H2223 0.950 . S
C2235 C2231 1.393 . S
C2235 C2234 1.391 . S
H2236 C2244 0.950 . S
H2237 C2249 0.950 . S
H2238 C2246 0.950 . S
H2239 C2248 0.950 . S
H2240 C2250 0.950 . S
H2241 C2252 0.950 . S
H2242 C2254 0.950 . S
H2243 C2255 0.950 . S
C2244 H2236 0.950 . S
C2244 C2245 1.386 . S
C2244 C2246 1.391 . S
C2245 C2244 1.386 . S
C2245 C2249 1.393 . S
C2246 H2238 0.950 . S
C2246 C2244 1.391 . S
C2246 C2247 1.400 . S
C2247 C2246 1.400 . S
C2247 C2248 1.398 . S
C2247 C2253 1.491 . S
C2248 H2239 0.950 . S
C2248 C2247 1.398 . S
C2248 C2249 1.391 . S
C2249 H2237 0.950 . S
C2249 C2245 1.393 . S
C2249 C2248 1.391 . S
C2250 H2240 0.950 . S
C2250 C2251 1.386 . S
C2250 C2252 1.391 . S
C2251 C2250 1.386 . S
C2251 C2255 1.393 . S
C2252 H2241 0.950 . S
C2252 C2250 1.391 . S
C2252 C2253 1.400 . S
C2253 C2247 1.491 . S
C2253 C2252 1.400 . S
C2253 C2254 1.398 . S
C2254 H2242 0.950 . S
C2254 C2253 1.398 . S
C2254 C2255 1.391 . S
C2255 H2243 0.950 . S
C2255 C2251 1.393 . S
C2255 C2254 1.391 . S
H2256 C2264 0.950 . S
H2257 C2269 0.950 . S
H2258 C2266 0.950 . S
H2259 C2268 0.950 . S
H2260 C2270 0.950 . S
H2261 C2272 0.950 . S
H2262 C2274 0.950 . S
H2263 C2275 0.950 . S
C2264 H2256 0.950 . S
C2264 C2265 1.386 . S
C2264 C2266 1.391 . S
C2265 C2264 1.386 . S
C2265 C2269 1.393 . S
C2266 H2258 0.950 . S
C2266 C2264 1.391 . S
C2266 C2267 1.400 . S
C2267 C2266 1.400 . S
C2267 C2268 1.398 . S
C2267 C2273 1.491 . S
C2268 H2259 0.950 . S
C2268 C2267 1.398 . S
C2268 C2269 1.391 . S
C2269 H2257 0.950 . S
C2269 C2265 1.393 . S
C2269 C2268 1.391 . S
C2270 H2260 0.950 . S
C2270 C2271 1.386 . S
C2270 C2272 1.391 . S
C2271 C2270 1.386 . S
C2271 C2275 1.393 . S
C2272 H2261 0.950 . S
C2272 C2270 1.391 . S
C2272 C2273 1.400 . S
C2273 C2267 1.491 . S
C2273 C2272 1.400 . S
C2273 C2274 1.398 . S
C2274 H2262 0.950 . S
C2274 C2273 1.398 . S
C2274 C2275 1.391 . S
C2275 H2263 0.950 . S
C2275 C2271 1.393 . S
C2275 C2274 1.391 . S
H2276 C2284 0.950 . S
H2277 C2289 0.950 . S
H2278 C2286 0.950 . S
H2279 C2288 0.950 . S
H2280 C2290 0.950 . S
H2281 C2292 0.950 . S
H2282 C2294 0.950 . S
H2283 C2295 0.950 . S
C2284 H2276 0.950 . S
C2284 C2285 1.386 . S
C2284 C2286 1.391 . S
C2285 C2284 1.386 . S
C2285 C2289 1.393 . S
C2286 H2278 0.950 . S
C2286 C2284 1.391 . S
C2286 C2287 1.400 . S
C2287 C2286 1.400 . S
C2287 C2288 1.398 . S
C2287 C2293 1.491 . S
C2288 H2279 0.950 . S
C2288 C2287 1.398 . S
C2288 C2289 1.391 . S
C2289 H2277 0.950 . S
C2289 C2285 1.393 . S
C2289 C2288 1.391 . S
C2290 H2280 0.950 . S
C2290 C2291 1.386 . S
C2290 C2292 1.391 . S
C2291 C2290 1.386 . S
C2291 C2295 1.393 . S
C2292 H2281 0.950 . S
C2292 C2290 1.391 . S
C2292 C2293 1.400 . S
C2293 C2287 1.491 . S
C2293 C2292 1.400 . S
C2293 C2294 1.398 . S
C2294 H2282 0.950 . S
C2294 C2293 1.398 . S
C2294 C2295 1.391 . S
C2295 H2283 0.950 . S
C2295 C2291 1.393 . S
C2295 C2294 1.391 . S
H2296 C2304 0.950 . S
H2297 C2309 0.950 . S
H2298 C2306 0.950 . S
H2299 C2308 0.950 . S
H2300 C2310 0.950 . S
H2301 C2312 0.950 1_455 S
H2302 C2314 0.950 . S
H2303 C2315 0.950 . S
C2304 H2296 0.950 . S
C2304 C2305 1.386 . S
C2304 C2306 1.391 . S
C2305 C2304 1.386 . S
C2305 C2309 1.393 . S
C2306 H2298 0.950 . S
C2306 C2304 1.391 . S
C2306 C2307 1.400 . S
C2307 C2306 1.400 . S
C2307 C2308 1.398 . S
C2307 C2313 1.491 . S
C2308 H2299 0.950 . S
C2308 C2307 1.398 . S
C2308 C2309 1.391 . S
C2309 H2297 0.950 . S
C2309 C2305 1.393 . S
C2309 C2308 1.391 . S
C2310 H2300 0.950 . S
C2310 C2311 1.386 1_455 S
C2310 C2312 1.391 1_455 S
C2311 C2310 1.386 1_655 S
C2311 C2315 1.393 . S
C2312 H2301 0.950 1_655 S
C2312 C2310 1.391 1_655 S
C2312 C2313 1.400 . S
C2313 C2307 1.491 . S
C2313 C2312 1.400 . S
C2313 C2314 1.398 . S
C2314 H2302 0.950 . S
C2314 C2313 1.398 . S
C2314 C2315 1.391 . S
C2315 H2303 0.950 . S
C2315 C2311 1.393 . S
C2315 C2314 1.391 . S
H2316 C2324 0.950 . S
H2317 C2329 0.950 . S
H2318 C2326 0.950 . S
H2319 C2328 0.950 . S
H2320 C2330 0.950 . S
H2321 C2332 0.950 . S
H2322 C2334 0.950 . S
H2323 C2335 0.950 . S
C2324 H2316 0.950 . S
C2324 C2325 1.386 . S
C2324 C2326 1.391 . S
C2325 C2324 1.386 . S
C2325 C2329 1.393 . S
C2326 H2318 0.950 . S
C2326 C2324 1.391 . S
C2326 C2327 1.400 . S
C2327 C2326 1.400 . S
C2327 C2328 1.398 . S
C2327 C2333 1.491 . S
C2328 H2319 0.950 . S
C2328 C2327 1.398 . S
C2328 C2329 1.391 . S
C2329 H2317 0.950 . S
C2329 C2325 1.393 . S
C2329 C2328 1.391 . S
C2330 H2320 0.950 . S
C2330 C2331 1.386 . S
C2330 C2332 1.391 . S
C2331 C2330 1.386 . S
C2331 C2335 1.393 . S
C2332 H2321 0.950 . S
C2332 C2330 1.391 . S
C2332 C2333 1.400 . S
C2333 C2327 1.491 . S
C2333 C2332 1.400 . S
C2333 C2334 1.398 . S
C2334 H2322 0.950 . S
C2334 C2333 1.398 . S
C2334 C2335 1.391 . S
C2335 H2323 0.950 . S
C2335 C2331 1.393 . S
C2335 C2334 1.391 . S
H2336 C2344 0.950 . S
H2337 C2349 0.950 . S
H2338 C2346 0.950 . S
H2339 C2348 0.950 . S
H2340 C2350 0.950 . S
H2341 C2352 0.950 . S
H2342 C2354 0.950 . S
H2343 C2355 0.950 . S
C2344 H2336 0.950 . S
C2344 C2345 1.386 . S
C2344 C2346 1.391 . S
C2345 C2344 1.386 . S
C2345 C2349 1.393 . S
C2346 H2338 0.950 . S
C2346 C2344 1.391 . S
C2346 C2347 1.400 . S
C2347 C2346 1.400 . S
C2347 C2348 1.398 . S
C2347 C2353 1.491 . S
C2348 H2339 0.950 . S
C2348 C2347 1.398 . S
C2348 C2349 1.391 . S
C2349 H2337 0.950 . S
C2349 C2345 1.393 . S
C2349 C2348 1.391 . S
C2350 H2340 0.950 . S
C2350 C2351 1.386 . S
C2350 C2352 1.391 . S
C2351 C2350 1.386 . S
C2351 C2355 1.393 . S
C2352 H2341 0.950 . S
C2352 C2350 1.391 . S
C2352 C2353 1.400 . S
C2353 C2347 1.491 . S
C2353 C2352 1.400 . S
C2353 C2354 1.398 . S
C2354 H2342 0.950 . S
C2354 C2353 1.398 . S
C2354 C2355 1.391 . S
C2355 H2343 0.950 . S
C2355 C2351 1.393 . S
C2355 C2354 1.391 . S
H2356 C2364 0.950 . S
H2357 C2369 0.950 . S
H2358 C2366 0.950 . S
H2359 C2368 0.950 . S
H2360 C2370 0.950 . S
H2361 C2372 0.950 . S
H2362 C2374 0.950 . S
H2363 C2375 0.950 . S
C2364 H2356 0.950 . S
C2364 C2365 1.386 . S
C2364 C2366 1.391 . S
C2365 C2364 1.386 . S
C2365 C2369 1.393 . S
C2366 H2358 0.950 . S
C2366 C2364 1.391 . S
C2366 C2367 1.400 . S
C2367 C2366 1.400 . S
C2367 C2368 1.398 . S
C2367 C2373 1.491 . S
C2368 H2359 0.950 . S
C2368 C2367 1.398 . S
C2368 C2369 1.391 . S
C2369 H2357 0.950 . S
C2369 C2365 1.393 . S
C2369 C2368 1.391 . S
C2370 H2360 0.950 . S
C2370 C2371 1.386 . S
C2370 C2372 1.391 . S
C2371 C2370 1.386 . S
C2371 C2375 1.393 . S
C2372 H2361 0.950 . S
C2372 C2370 1.391 . S
C2372 C2373 1.400 . S
C2373 C2367 1.491 . S
C2373 C2372 1.400 . S
C2373 C2374 1.398 . S
C2374 H2362 0.950 . S
C2374 C2373 1.398 . S
C2374 C2375 1.391 . S
C2375 H2363 0.950 . S
C2375 C2371 1.393 . S
C2375 C2374 1.391 . S
H2376 C2384 0.950 . S
H2377 C2389 0.950 . S
H2378 C2386 0.950 . S
H2379 C2388 0.950 . S
H2380 C2390 0.950 1_455 S
H2381 C2392 0.950 . S
H2382 C2394 0.950 . S
H2383 C2395 0.950 . S
C2384 H2376 0.950 . S
C2384 C2385 1.386 . S
C2384 C2386 1.391 . S
C2385 C2384 1.386 . S
C2385 C2389 1.393 . S
C2386 H2378 0.950 . S
C2386 C2384 1.391 . S
C2386 C2387 1.400 . S
C2387 C2386 1.400 . S
C2387 C2388 1.398 . S
C2387 C2393 1.491 . S
C2388 H2379 0.950 . S
C2388 C2387 1.398 . S
C2388 C2389 1.391 . S
C2389 H2377 0.950 . S
C2389 C2385 1.393 . S
C2389 C2388 1.391 . S
C2390 H2380 0.950 1_655 S
C2390 C2391 1.386 . S
C2390 C2392 1.391 . S
C2391 C2390 1.386 . S
C2391 C2395 1.393 . S
C2392 H2381 0.950 . S
C2392 C2390 1.391 . S
C2392 C2393 1.400 . S
C2393 C2387 1.491 . S
C2393 C2392 1.400 . S
C2393 C2394 1.398 . S
C2394 H2382 0.950 . S
C2394 C2393 1.398 . S
C2394 C2395 1.391 . S
C2395 H2383 0.950 . S
C2395 C2391 1.393 . S
C2395 C2394 1.391 . S
H2396 C2404 0.950 . S
H2397 C2409 0.950 . S
H2398 C2406 0.950 . S
H2399 C2408 0.950 . S
H2400 C2410 0.950 . S
H2401 C2412 0.950 . S
H2402 C2414 0.950 . S
H2403 C2415 0.950 . S
C2404 H2396 0.950 . S
C2404 C2405 1.386 . S
C2404 C2406 1.391 . S
C2405 C2404 1.386 . S
C2405 C2409 1.393 . S
C2406 H2398 0.950 . S
C2406 C2404 1.391 . S
C2406 C2407 1.400 . S
C2407 C2406 1.400 . S
C2407 C2408 1.398 . S
C2407 C2413 1.491 . S
C2408 H2399 0.950 . S
C2408 C2407 1.398 . S
C2408 C2409 1.391 . S
C2409 H2397 0.950 . S
C2409 C2405 1.393 . S
C2409 C2408 1.391 . S
C2410 H2400 0.950 . S
C2410 C2411 1.386 . S
C2410 C2412 1.391 . S
C2411 C2410 1.386 . S
C2411 C2415 1.393 . S
C2412 H2401 0.950 . S
C2412 C2410 1.391 . S
C2412 C2413 1.400 . S
C2413 C2407 1.491 . S
C2413 C2412 1.400 . S
C2413 C2414 1.398 . S
C2414 H2402 0.950 . S
C2414 C2413 1.398 . S
C2414 C2415 1.391 . S
C2415 H2403 0.950 . S
C2415 C2411 1.393 . S
C2415 C2414 1.391 . S
H2416 C2424 0.950 . S
H2417 C2429 0.950 . S
H2418 C2426 0.950 . S
H2419 C2428 0.950 . S
H2420 C2430 0.950 . S
H2421 C2432 0.950 . S
H2422 C2434 0.950 . S
H2423 C2435 0.950 . S
C2424 H2416 0.950 . S
C2424 C2425 1.386 . S
C2424 C2426 1.391 . S
C2425 C2424 1.386 . S
C2425 C2429 1.393 . S
C2426 H2418 0.950 . S
C2426 C2424 1.391 . S
C2426 C2427 1.400 . S
C2427 C2426 1.400 . S
C2427 C2428 1.398 . S
C2427 C2433 1.491 . S
C2428 H2419 0.950 . S
C2428 C2427 1.398 . S
C2428 C2429 1.391 . S
C2429 H2417 0.950 . S
C2429 C2425 1.393 . S
C2429 C2428 1.391 . S
C2430 H2420 0.950 . S
C2430 C2431 1.386 . S
C2430 C2432 1.391 . S
C2431 C2430 1.386 . S
C2431 C2435 1.393 . S
C2432 H2421 0.950 . S
C2432 C2430 1.391 . S
C2432 C2433 1.400 . S
C2433 C2427 1.491 . S
C2433 C2432 1.400 . S
C2433 C2434 1.398 . S
C2434 H2422 0.950 . S
C2434 C2433 1.398 . S
C2434 C2435 1.391 . S
C2435 H2423 0.950 . S
C2435 C2431 1.393 . S
C2435 C2434 1.391 . S
H2436 C2444 0.950 . S
H2437 C2449 0.950 . S
H2438 C2446 0.950 . S
H2439 C2448 0.950 . S
H2440 C2450 0.950 . S
H2441 C2452 0.950 . S
H2442 C2454 0.950 . S
H2443 C2455 0.950 1_545 S
C2444 H2436 0.950 . S
C2444 C2445 1.386 . S
C2444 C2446 1.391 . S
C2445 C2444 1.386 . S
C2445 C2449 1.393 . S
C2446 H2438 0.950 . S
C2446 C2444 1.391 . S
C2446 C2447 1.400 . S
C2447 C2446 1.400 . S
C2447 C2448 1.398 . S
C2447 C2453 1.491 . S
C2448 H2439 0.950 . S
C2448 C2447 1.398 . S
C2448 C2449 1.391 . S
C2449 H2437 0.950 . S
C2449 C2445 1.393 . S
C2449 C2448 1.391 . S
C2450 H2440 0.950 . S
C2450 C2451 1.386 . S
C2450 C2452 1.391 . S
C2451 C2450 1.386 . S
C2451 C2455 1.393 . S
C2452 H2441 0.950 . S
C2452 C2450 1.391 . S
C2452 C2453 1.400 . S
C2453 C2447 1.491 . S
C2453 C2452 1.400 . S
C2453 C2454 1.398 . S
C2454 H2442 0.950 . S
C2454 C2453 1.398 . S
C2454 C2455 1.391 . S
C2455 H2443 0.950 1_565 S
C2455 C2451 1.393 . S
C2455 C2454 1.391 . S
H2456 C2464 0.950 . S
H2457 C2469 0.950 . S
H2458 C2466 0.950 . S
H2459 C2468 0.950 . S
H2460 C2470 0.950 . S
H2461 C2472 0.950 . S
H2462 C2474 0.950 . S
H2463 C2475 0.950 . S
C2464 H2456 0.950 . S
C2464 C2465 1.386 . S
C2464 C2466 1.391 . S
C2465 C2464 1.386 . S
C2465 C2469 1.393 . S
C2466 H2458 0.950 . S
C2466 C2464 1.391 . S
C2466 C2467 1.400 . S
C2467 C2466 1.400 . S
C2467 C2468 1.398 . S
C2467 C2473 1.491 . S
C2468 H2459 0.950 . S
C2468 C2467 1.398 . S
C2468 C2469 1.391 . S
C2469 H2457 0.950 . S
C2469 C2465 1.393 . S
C2469 C2468 1.391 . S
C2470 H2460 0.950 . S
C2470 C2471 1.386 . S
C2470 C2472 1.391 . S
C2471 C2470 1.386 . S
C2471 C2475 1.393 . S
C2472 H2461 0.950 . S
C2472 C2470 1.391 . S
C2472 C2473 1.400 . S
C2473 C2467 1.491 . S
C2473 C2472 1.400 . S
C2473 C2474 1.398 . S
C2474 H2462 0.950 . S
C2474 C2473 1.398 . S
C2474 C2475 1.391 . S
C2475 H2463 0.950 . S
C2475 C2471 1.393 . S
C2475 C2474 1.391 . S
H2476 C2484 0.950 . S
H2477 C2489 0.950 . S
H2478 C2486 0.950 . S
H2479 C2488 0.950 . S
H2480 C2490 0.950 . S
H2481 C2492 0.950 . S
H2482 C2494 0.950 . S
H2483 C2495 0.950 . S
C2484 H2476 0.950 . S
C2484 C2485 1.386 . S
C2484 C2486 1.391 . S
C2485 C2484 1.386 . S
C2485 C2489 1.393 . S
C2486 H2478 0.950 . S
C2486 C2484 1.391 . S
C2486 C2487 1.400 . S
C2487 C2486 1.400 . S
C2487 C2488 1.398 . S
C2487 C2493 1.491 . S
C2488 H2479 0.950 . S
C2488 C2487 1.398 . S
C2488 C2489 1.391 . S
C2489 H2477 0.950 . S
C2489 C2485 1.393 . S
C2489 C2488 1.391 . S
C2490 H2480 0.950 . S
C2490 C2491 1.386 . S
C2490 C2492 1.391 . S
C2491 C2490 1.386 . S
C2491 C2495 1.393 . S
C2492 H2481 0.950 . S
C2492 C2490 1.391 . S
C2492 C2493 1.400 . S
C2493 C2487 1.491 . S
C2493 C2492 1.400 . S
C2493 C2494 1.398 . S
C2494 H2482 0.950 . S
C2494 C2493 1.398 . S
C2494 C2495 1.391 . S
C2495 H2483 0.950 . S
C2495 C2491 1.393 . S
C2495 C2494 1.391 . S
H2496 C2504 0.950 . S
H2497 C2509 0.950 . S
H2498 C2506 0.950 . S
H2499 C2508 0.950 . S
H2500 C2510 0.950 . S
H2501 C2512 0.950 . S
H2502 C2514 0.950 . S
H2503 C2515 0.950 . S
C2504 H2496 0.950 . S
C2504 C2505 1.386 . S
C2504 C2506 1.391 . S
C2505 C2504 1.386 . S
C2505 C2509 1.393 . S
C2506 H2498 0.950 . S
C2506 C2504 1.391 . S
C2506 C2507 1.400 . S
C2507 C2506 1.400 . S
C2507 C2508 1.398 . S
C2507 C2513 1.491 . S
C2508 H2499 0.950 . S
C2508 C2507 1.398 . S
C2508 C2509 1.391 . S
C2509 H2497 0.950 . S
C2509 C2505 1.393 . S
C2509 C2508 1.391 . S
C2510 H2500 0.950 . S
C2510 C2511 1.386 . S
C2510 C2512 1.391 . S
C2511 C2510 1.386 . S
C2511 C2515 1.393 . S
C2512 H2501 0.950 . S
C2512 C2510 1.391 . S
C2512 C2513 1.400 . S
C2513 C2507 1.491 . S
C2513 C2512 1.400 . S
C2513 C2514 1.398 . S
C2514 H2502 0.950 . S
C2514 C2513 1.398 . S
C2514 C2515 1.391 . S
C2515 H2503 0.950 . S
C2515 C2511 1.393 . S
C2515 C2514 1.391 . S
H2516 C2524 0.950 . S
H2517 C2529 0.950 . S
H2518 C2526 0.950 1_556 S
H2519 C2528 0.950 . S
H2520 C2530 0.950 . S
H2521 C2532 0.950 . S
H2522 C2534 0.950 1_556 S
H2523 C2535 0.950 . S
C2524 H2516 0.950 . S
C2524 C2525 1.386 . S
C2524 C2526 1.391 . S
C2525 C2524 1.386 . S
C2525 C2529 1.393 . S
C2526 H2518 0.950 1_554 S
C2526 C2524 1.391 . S
C2526 C2527 1.400 . S
C2527 C2526 1.400 . S
C2527 C2528 1.398 . S
C2527 C2533 1.491 . S
C2528 H2519 0.950 . S
C2528 C2527 1.398 . S
C2528 C2529 1.391 . S
C2529 H2517 0.950 . S
C2529 C2525 1.393 . S
C2529 C2528 1.391 . S
C2530 H2520 0.950 . S
C2530 C2531 1.386 . S
C2530 C2532 1.391 . S
C2531 C2530 1.386 . S
C2531 C2535 1.393 1_554 S
C2532 H2521 0.950 . S
C2532 C2530 1.391 . S
C2532 C2533 1.400 . S
C2533 C2527 1.491 . S
C2533 C2532 1.400 . S
C2533 C2534 1.398 . S
C2534 H2522 0.950 1_554 S
C2534 C2533 1.398 . S
C2534 C2535 1.391 1_554 S
C2535 H2523 0.950 . S
C2535 C2531 1.393 1_556 S
C2535 C2534 1.391 1_556 S
H2536 C2544 0.950 . S
H2537 C2549 0.950 . S
H2538 C2546 0.950 . S
H2539 C2548 0.950 . S
H2540 C2550 0.950 . S
H2541 C2552 0.950 . S
H2542 C2554 0.950 . S
H2543 C2555 0.950 . S
C2544 H2536 0.950 . S
C2544 C2545 1.386 . S
C2544 C2546 1.391 . S
C2545 C2544 1.386 . S
C2545 C2549 1.393 . S
C2546 H2538 0.950 . S
C2546 C2544 1.391 . S
C2546 C2547 1.400 . S
C2547 C2546 1.400 . S
C2547 C2548 1.398 . S
C2547 C2553 1.491 . S
C2548 H2539 0.950 . S
C2548 C2547 1.398 . S
C2548 C2549 1.391 . S
C2549 H2537 0.950 . S
C2549 C2545 1.393 . S
C2549 C2548 1.391 . S
C2550 H2540 0.950 . S
C2550 C2551 1.386 . S
C2550 C2552 1.391 . S
C2551 C2550 1.386 . S
C2551 C2555 1.393 . S
C2552 H2541 0.950 . S
C2552 C2550 1.391 . S
C2552 C2553 1.400 . S
C2553 C2547 1.491 . S
C2553 C2552 1.400 . S
C2553 C2554 1.398 . S
C2554 H2542 0.950 . S
C2554 C2553 1.398 . S
C2554 C2555 1.391 . S
C2555 H2543 0.950 . S
C2555 C2551 1.393 . S
C2555 C2554 1.391 . S
H2556 C2564 0.950 . S
H2557 C2569 0.950 . S
H2558 C2566 0.950 . S
H2559 C2568 0.950 . S
H2560 C2570 0.950 . S
H2561 C2572 0.950 . S
H2562 C2574 0.950 . S
H2563 C2575 0.950 . S
C2564 H2556 0.950 . S
C2564 C2565 1.386 . S
C2564 C2566 1.391 . S
C2565 C2564 1.386 . S
C2565 C2569 1.393 . S
C2566 H2558 0.950 . S
C2566 C2564 1.391 . S
C2566 C2567 1.400 . S
C2567 C2566 1.400 . S
C2567 C2568 1.398 . S
C2567 C2573 1.491 . S
C2568 H2559 0.950 . S
C2568 C2567 1.398 . S
C2568 C2569 1.391 . S
C2569 H2557 0.950 . S
C2569 C2565 1.393 . S
C2569 C2568 1.391 . S
C2570 H2560 0.950 . S
C2570 C2571 1.386 . S
C2570 C2572 1.391 . S
C2571 C2570 1.386 . S
C2571 C2575 1.393 . S
C2572 H2561 0.950 . S
C2572 C2570 1.391 . S
C2572 C2573 1.400 . S
C2573 C2567 1.491 . S
C2573 C2572 1.400 . S
C2573 C2574 1.398 . S
C2574 H2562 0.950 . S
C2574 C2573 1.398 . S
C2574 C2575 1.391 . S
C2575 H2563 0.950 . S
C2575 C2571 1.393 . S
C2575 C2574 1.391 . S
C665 C109 1.398 . S
C671 C340 1.244 . S
C685 C65 1.497 . S
C691 C375 1.442 . S
C705 C75 1.111 . S
C711 C380 1.043 . S
C731 C405 1.402 . S
C725 C84 1.474 . S
C745 C25 1.450 . S
C751 C425 1.378 . S
C771 C440 0.959 . S
C765 C28 1.056 . S
C791 C475 1.485 . S
C785 C47 1.528 . S
C805 C9 1.422 . S
C811 C480 1.229 . S
C831 C355 1.592 1_655 S
C825 C233 1.664 . S
C845 C249 0.980 . S
C851 C365 0.918 . S
C871 C395 1.454 . S
C865 C275 1.494 . S
C891 C400 1.140 . S
C885 C173 1.223 . S
C905 C224 1.251 . S
C911 C420 1.169 . S
C931 C455 1.414 . S
C925 C243 1.467 . S
C951 C465 0.942 . S
C945 C266 0.998 . S
C971 C495 1.448 . S
C965 C179 1.522 . S
C991 C345 1.310 . S
C985 C163 1.462 . S
C1005 C289 1.754 . S
C1011 C515 1.709 . S
C1031 C525 1.376 . S
C1025 C333 1.481 . S
C1051 C540 0.933 . S
C1045 C308 1.014 . S
C1065 C123 1.440 . S
C1071 C485 1.326 . S
C1085 C126 1.556 . S
C1091 C385 1.468 . S
C1105 C327 1.784 . S
C1111 C575 1.742 . S
C1131 C580 1.063 . S
C1125 C299 1.138 . S
C1151 C338 1.207 . S
C1145 C67 1.386 . S
C1171 C594 1.472 . S
C1165 C98 1.509 . S
C1185 C89 1.130 . S
C1191 C378 1.058 . S
C1205 C79 1.516 . S
C1211 C568 1.441 . S
C1231 C428 1.409 . S
C1225 C11 1.478 . S
C1245 C51 1.098 . S
C1251 C518 0.999 . S
C1271 C474 1.521 1_556 S
C1265 C33 1.571 . S
C1291 C598 1.213 . S
C1285 C14 1.402 . S
C1311 C354 1.560 . S
C1305 C140 1.641 . S
C1331 C588 0.935 . S
C1325 C319 1.000 . S
C1345 C112 1.490 . S
C1351 C394 1.481 . S
C1365 C285 1.235 . S
C1371 C558 1.126 . S
C1385 C149 1.280 . S
C1391 C418 1.167 . S
C1411 C534 1.467 . S
C1405 C313 1.505 . S
C1425 C121 1.076 . S
C1431 C468 0.997 . S
C1445 C291 1.545 . S
C1451 C614 1.477 . S
C1465 C182 1.451 . S
C1471 C348 1.324 . S
C1485 C168 1.749 . S
C1491 C514 1.734 . S
C1505 C263 1.537 . S
C1511 C448 1.448 . S
C1525 C247 1.072 . S
C1531 C538 0.971 . S
C1551 C608 1.328 . S
C1545 C277 1.445 . S
C1565 C219 1.615 . S
C1571 C388 1.485 . S
C1591 C414 1.781 . S
C1585 C257 1.822 . S
C1611 C358 1.020 . S
C1605 C201 1.130 . S
C1625 C81 1.396 . S
C1631 C620 1.238 . S
C1651 C595 1.443 . S
C1645 C93 1.496 . S
C1665 C103 1.111 . S
C1671 C640 1.041 1_556 S
C1685 C56 1.465 . S
C1691 C565 1.378 . S
C1705 C53 1.450 . S
C1711 C505 1.377 . S
C1731 C520 0.959 . S
C1725 C0 1.056 . S
C1751 C555 1.491 . S
C1745 C19 1.532 . S
C1771 C600 1.263 . S
C1765 C37 1.426 . S
C1791 C635 1.595 . S
C1785 C261 1.665 . S
C1805 C193 1.001 . S
C1811 C585 0.971 . S
C1831 C655 1.445 . S
C1825 C205 1.496 . S
C1851 C560 1.093 . S
C1845 C215 1.214 . S
C1871 C500 1.171 . S
C1865 C252 1.251 . S
C1885 C187 1.469 . S
C1891 C535 1.425 . S
C1911 C545 0.990 . S
C1905 C196 1.019 . S
C1925 C221 1.519 . S
C1931 C615 1.465 . S
C1951 C625 1.323 . S
C1945 C317 1.462 . S
C1965 C135 1.745 . S
C1971 C435 1.718 . S
C1991 C445 1.376 . S
C1985 C151 1.481 . S
C2011 C460 0.969 . S
C2005 C154 1.023 . S
C2031 C605 1.326 . S
C2025 C305 1.440 . S
C2045 C280 1.569 . S
C2051 C645 1.483 . S
C2071 C415 1.755 . S
C2065 C145 1.776 . S
C2091 C360 1.062 . S
C2085 C117 1.138 . S
C2105 C95 1.388 . S
C2111 C618 1.219 . S
C2131 C374 1.471 . S
C2125 C70 1.509 . S
C2145 C61 1.125 . S
C2151 C638 1.023 . S
C2165 C107 1.516 . S
C2171 C408 1.447 . S
C2185 C39 1.471 . S
C2191 C508 1.384 . S
C2211 C438 1.010 . S
C2205 C23 1.095 . S
C2225 C5 1.571 . S
C2231 C554 1.523 . S
C2245 C42 1.400 . S
C2251 C478 1.216 . S
C2271 C634 1.571 . S
C2265 C322 1.642 . S
C2285 C165 1.017 . S
C2291 C368 0.984 . S
C2311 C654 1.478 1_655 S
C2305 C294 1.487 . S
C2325 C131 1.241 . S
C2331 C398 1.156 . S
C2345 C331 1.282 . S
C2351 C498 1.154 . S
C2371 C454 1.458 . S
C2365 C159 1.501 . S
C2385 C303 1.078 . S
C2391 C548 1.024 . S
C2411 C494 1.483 . S
C2405 C137 1.552 . S
C2431 C628 1.307 . S
C2425 C238 1.448 . S
C2451 C434 1.727 . S
C2445 C210 1.753 . S
C2465 C235 1.536 . S
C2471 C528 1.444 . S
C2491 C458 1.016 . S
C2485 C191 1.070 . S
C2505 C207 1.439 . S
C2511 C488 1.327 . S
C2525 C177 1.614 . S
C2531 C648 1.512 . S
C2551 C574 1.782 . S
C2545 C229 1.824 . S
C2571 C578 1.051 . S
C2565 C271 1.130 . S
