# Generated by pormake.
# Topology gar, (4,6)-cn, num edge types: 1
# Building blocks:
#     Node 0, Type 0, BuildingBlock: AZAVOO_clean_sbu_0, # of connection points: 4
#     Node 1, Type 0, BuildingBlock: AZAVOO_clean_sbu_0, # of connection points: 4
#     Node 2, Type 0, BuildingBlock: AZAVOO_clean_sbu_0, # of connection points: 4
#     Node 3, Type 0, BuildingBlock: AZAVOO_clean_sbu_0, # of connection points: 4
#     Node 4, Type 0, BuildingBlock: AZAVOO_clean_sbu_0, # of connection points: 4
#     Node 5, Type 0, BuildingBlock: AZAVOO_clean_sbu_0, # of connection points: 4
#     Node 6, Type 0, BuildingBlock: AZAVOO_clean_sbu_0, # of connection points: 4
#     Node 7, Type 0, BuildingBlock: AZAVOO_clean_sbu_0, # of connection points: 4
#     Node 8, Type 0, BuildingBlock: AZAVOO_clean_sbu_0, # of connection points: 4
#     Node 9, Type 0, BuildingBlock: AZAVOO_clean_sbu_0, # of connection points: 4
#     Node 10, Type 0, BuildingBlock: AZAVOO_clean_sbu_0, # of connection points: 4
#     Node 11, Type 0, BuildingBlock: AZAVOO_clean_sbu_0, # of connection points: 4
#     Node 12, Type 0, BuildingBlock: AZAVOO_clean_sbu_0, # of connection points: 4
#     Node 13, Type 0, BuildingBlock: AZAVOO_clean_sbu_0, # of connection points: 4
#     Node 14, Type 0, BuildingBlock: AZAVOO_clean_sbu_0, # of connection points: 4
#     Node 15, Type 0, BuildingBlock: AZAVOO_clean_sbu_0, # of connection points: 4
#     Node 16, Type 0, BuildingBlock: AZAVOO_clean_sbu_0, # of connection points: 4
#     Node 17, Type 0, BuildingBlock: AZAVOO_clean_sbu_0, # of connection points: 4
#     Node 18, Type 0, BuildingBlock: AZAVOO_clean_sbu_0, # of connection points: 4
#     Node 19, Type 0, BuildingBlock: AZAVOO_clean_sbu_0, # of connection points: 4
#     Node 20, Type 0, BuildingBlock: AZAVOO_clean_sbu_0, # of connection points: 4
#     Node 21, Type 0, BuildingBlock: AZAVOO_clean_sbu_0, # of connection points: 4
#     Node 22, Type 0, BuildingBlock: AZAVOO_clean_sbu_0, # of connection points: 4
#     Node 23, Type 0, BuildingBlock: AZAVOO_clean_sbu_0, # of connection points: 4
#     Node 24, Type 1, BuildingBlock: BETDIP_clean_sbu_0, # of connection points: 6
#     Node 25, Type 1, BuildingBlock: BETDIP_clean_sbu_0, # of connection points: 6
#     Node 26, Type 1, BuildingBlock: BETDIP_clean_sbu_0, # of connection points: 6
#     Node 27, Type 1, BuildingBlock: BETDIP_clean_sbu_0, # of connection points: 6
#     Node 28, Type 1, BuildingBlock: BETDIP_clean_sbu_0, # of connection points: 6
#     Node 29, Type 1, BuildingBlock: BETDIP_clean_sbu_0, # of connection points: 6
#     Node 30, Type 1, BuildingBlock: BETDIP_clean_sbu_0, # of connection points: 6
#     Node 31, Type 1, BuildingBlock: BETDIP_clean_sbu_0, # of connection points: 6
#     Node 32, Type 1, BuildingBlock: BETDIP_clean_sbu_0, # of connection points: 6
#     Node 33, Type 1, BuildingBlock: BETDIP_clean_sbu_0, # of connection points: 6
#     Node 34, Type 1, BuildingBlock: BETDIP_clean_sbu_0, # of connection points: 6
#     Node 35, Type 1, BuildingBlock: BETDIP_clean_sbu_0, # of connection points: 6
#     Node 36, Type 1, BuildingBlock: BETDIP_clean_sbu_0, # of connection points: 6
#     Node 37, Type 1, BuildingBlock: BETDIP_clean_sbu_0, # of connection points: 6
#     Node 38, Type 1, BuildingBlock: BETDIP_clean_sbu_0, # of connection points: 6
#     Node 39, Type 1, BuildingBlock: BETDIP_clean_sbu_0, # of connection points: 6
#     Edge 40, Type (0, 1), BuildingBlock: TEMPAE_clean_linker_10, # of connection points: 2
#     Edge 41, Type (0, 1), BuildingBlock: TEMPAE_clean_linker_10, # of connection points: 2
#     Edge 42, Type (0, 1), BuildingBlock: TEMPAE_clean_linker_10, # of connection points: 2
#     Edge 43, Type (0, 1), BuildingBlock: TEMPAE_clean_linker_10, # of connection points: 2
#     Edge 44, Type (0, 1), BuildingBlock: TEMPAE_clean_linker_10, # of connection points: 2
#     Edge 45, Type (0, 1), BuildingBlock: TEMPAE_clean_linker_10, # of connection points: 2
#     Edge 46, Type (0, 1), BuildingBlock: TEMPAE_clean_linker_10, # of connection points: 2
#     Edge 47, Type (0, 1), BuildingBlock: TEMPAE_clean_linker_10, # of connection points: 2
#     Edge 48, Type (0, 1), BuildingBlock: TEMPAE_clean_linker_10, # of connection points: 2
#     Edge 49, Type (0, 1), BuildingBlock: TEMPAE_clean_linker_10, # of connection points: 2
#     Edge 50, Type (0, 1), BuildingBlock: TEMPAE_clean_linker_10, # of connection points: 2
#     Edge 51, Type (0, 1), BuildingBlock: TEMPAE_clean_linker_10, # of connection points: 2
#     Edge 52, Type (0, 1), BuildingBlock: TEMPAE_clean_linker_10, # of connection points: 2
#     Edge 53, Type (0, 1), BuildingBlock: TEMPAE_clean_linker_10, # of connection points: 2
#     Edge 54, Type (0, 1), BuildingBlock: TEMPAE_clean_linker_10, # of connection points: 2
#     Edge 55, Type (0, 1), BuildingBlock: TEMPAE_clean_linker_10, # of connection points: 2
#     Edge 56, Type (0, 1), BuildingBlock: TEMPAE_clean_linker_10, # of connection points: 2
#     Edge 57, Type (0, 1), BuildingBlock: TEMPAE_clean_linker_10, # of connection points: 2
#     Edge 58, Type (0, 1), BuildingBlock: TEMPAE_clean_linker_10, # of connection points: 2
#     Edge 59, Type (0, 1), BuildingBlock: TEMPAE_clean_linker_10, # of connection points: 2
#     Edge 60, Type (0, 1), BuildingBlock: TEMPAE_clean_linker_10, # of connection points: 2
#     Edge 61, Type (0, 1), BuildingBlock: TEMPAE_clean_linker_10, # of connection points: 2
#     Edge 62, Type (0, 1), BuildingBlock: TEMPAE_clean_linker_10, # of connection points: 2
#     Edge 63, Type (0, 1), BuildingBlock: TEMPAE_clean_linker_10, # of connection points: 2
#     Edge 64, Type (0, 1), BuildingBlock: TEMPAE_clean_linker_10, # of connection points: 2
#     Edge 65, Type (0, 1), BuildingBlock: TEMPAE_clean_linker_10, # of connection points: 2
#     Edge 66, Type (0, 1), BuildingBlock: TEMPAE_clean_linker_10, # of connection points: 2
#     Edge 67, Type (0, 1), BuildingBlock: TEMPAE_clean_linker_10, # of connection points: 2
#     Edge 68, Type (0, 1), BuildingBlock: TEMPAE_clean_linker_10, # of connection points: 2
#     Edge 69, Type (0, 1), BuildingBlock: TEMPAE_clean_linker_10, # of connection points: 2
#     Edge 70, Type (0, 1), BuildingBlock: TEMPAE_clean_linker_10, # of connection points: 2
#     Edge 71, Type (0, 1), BuildingBlock: TEMPAE_clean_linker_10, # of connection points: 2
#     Edge 72, Type (0, 1), BuildingBlock: TEMPAE_clean_linker_10, # of connection points: 2
#     Edge 73, Type (0, 1), BuildingBlock: TEMPAE_clean_linker_10, # of connection points: 2
#     Edge 74, Type (0, 1), BuildingBlock: TEMPAE_clean_linker_10, # of connection points: 2
#     Edge 75, Type (0, 1), BuildingBlock: TEMPAE_clean_linker_10, # of connection points: 2
#     Edge 76, Type (0, 1), BuildingBlock: TEMPAE_clean_linker_10, # of connection points: 2
#     Edge 77, Type (0, 1), BuildingBlock: TEMPAE_clean_linker_10, # of connection points: 2
#     Edge 78, Type (0, 1), BuildingBlock: TEMPAE_clean_linker_10, # of connection points: 2
#     Edge 79, Type (0, 1), BuildingBlock: TEMPAE_clean_linker_10, # of connection points: 2
#     Edge 80, Type (0, 1), BuildingBlock: TEMPAE_clean_linker_10, # of connection points: 2
#     Edge 81, Type (0, 1), BuildingBlock: TEMPAE_clean_linker_10, # of connection points: 2
#     Edge 82, Type (0, 1), BuildingBlock: TEMPAE_clean_linker_10, # of connection points: 2
#     Edge 83, Type (0, 1), BuildingBlock: TEMPAE_clean_linker_10, # of connection points: 2
#     Edge 84, Type (0, 1), BuildingBlock: TEMPAE_clean_linker_10, # of connection points: 2
#     Edge 85, Type (0, 1), BuildingBlock: TEMPAE_clean_linker_10, # of connection points: 2
#     Edge 86, Type (0, 1), BuildingBlock: TEMPAE_clean_linker_10, # of connection points: 2
#     Edge 87, Type (0, 1), BuildingBlock: TEMPAE_clean_linker_10, # of connection points: 2
#     Edge 88, Type (0, 1), BuildingBlock: TEMPAE_clean_linker_10, # of connection points: 2
#     Edge 89, Type (0, 1), BuildingBlock: TEMPAE_clean_linker_10, # of connection points: 2
#     Edge 90, Type (0, 1), BuildingBlock: TEMPAE_clean_linker_10, # of connection points: 2
#     Edge 91, Type (0, 1), BuildingBlock: TEMPAE_clean_linker_10, # of connection points: 2
#     Edge 92, Type (0, 1), BuildingBlock: TEMPAE_clean_linker_10, # of connection points: 2
#     Edge 93, Type (0, 1), BuildingBlock: TEMPAE_clean_linker_10, # of connection points: 2
#     Edge 94, Type (0, 1), BuildingBlock: TEMPAE_clean_linker_10, # of connection points: 2
#     Edge 95, Type (0, 1), BuildingBlock: TEMPAE_clean_linker_10, # of connection points: 2
#     Edge 96, Type (0, 1), BuildingBlock: TEMPAE_clean_linker_10, # of connection points: 2
#     Edge 97, Type (0, 1), BuildingBlock: TEMPAE_clean_linker_10, # of connection points: 2
#     Edge 98, Type (0, 1), BuildingBlock: TEMPAE_clean_linker_10, # of connection points: 2
#     Edge 99, Type (0, 1), BuildingBlock: TEMPAE_clean_linker_10, # of connection points: 2
#     Edge 100, Type (0, 1), BuildingBlock: TEMPAE_clean_linker_10, # of connection points: 2
#     Edge 101, Type (0, 1), BuildingBlock: TEMPAE_clean_linker_10, # of connection points: 2
#     Edge 102, Type (0, 1), BuildingBlock: TEMPAE_clean_linker_10, # of connection points: 2
#     Edge 103, Type (0, 1), BuildingBlock: TEMPAE_clean_linker_10, # of connection points: 2
#     Edge 104, Type (0, 1), BuildingBlock: TEMPAE_clean_linker_10, # of connection points: 2
#     Edge 105, Type (0, 1), BuildingBlock: TEMPAE_clean_linker_10, # of connection points: 2
#     Edge 106, Type (0, 1), BuildingBlock: TEMPAE_clean_linker_10, # of connection points: 2
#     Edge 107, Type (0, 1), BuildingBlock: TEMPAE_clean_linker_10, # of connection points: 2
#     Edge 108, Type (0, 1), BuildingBlock: TEMPAE_clean_linker_10, # of connection points: 2
#     Edge 109, Type (0, 1), BuildingBlock: TEMPAE_clean_linker_10, # of connection points: 2
#     Edge 110, Type (0, 1), BuildingBlock: TEMPAE_clean_linker_10, # of connection points: 2
#     Edge 111, Type (0, 1), BuildingBlock: TEMPAE_clean_linker_10, # of connection points: 2
#     Edge 112, Type (0, 1), BuildingBlock: TEMPAE_clean_linker_10, # of connection points: 2
#     Edge 113, Type (0, 1), BuildingBlock: TEMPAE_clean_linker_10, # of connection points: 2
#     Edge 114, Type (0, 1), BuildingBlock: TEMPAE_clean_linker_10, # of connection points: 2
#     Edge 115, Type (0, 1), BuildingBlock: TEMPAE_clean_linker_10, # of connection points: 2
#     Edge 116, Type (0, 1), BuildingBlock: TEMPAE_clean_linker_10, # of connection points: 2
#     Edge 117, Type (0, 1), BuildingBlock: TEMPAE_clean_linker_10, # of connection points: 2
#     Edge 118, Type (0, 1), BuildingBlock: TEMPAE_clean_linker_10, # of connection points: 2
#     Edge 119, Type (0, 1), BuildingBlock: TEMPAE_clean_linker_10, # of connection points: 2
#     Edge 120, Type (0, 1), BuildingBlock: TEMPAE_clean_linker_10, # of connection points: 2
#     Edge 121, Type (0, 1), BuildingBlock: TEMPAE_clean_linker_10, # of connection points: 2
#     Edge 122, Type (0, 1), BuildingBlock: TEMPAE_clean_linker_10, # of connection points: 2
#     Edge 123, Type (0, 1), BuildingBlock: TEMPAE_clean_linker_10, # of connection points: 2
#     Edge 124, Type (0, 1), BuildingBlock: TEMPAE_clean_linker_10, # of connection points: 2
#     Edge 125, Type (0, 1), BuildingBlock: TEMPAE_clean_linker_10, # of connection points: 2
#     Edge 126, Type (0, 1), BuildingBlock: TEMPAE_clean_linker_10, # of connection points: 2
#     Edge 127, Type (0, 1), BuildingBlock: TEMPAE_clean_linker_10, # of connection points: 2
#     Edge 128, Type (0, 1), BuildingBlock: TEMPAE_clean_linker_10, # of connection points: 2
#     Edge 129, Type (0, 1), BuildingBlock: TEMPAE_clean_linker_10, # of connection points: 2
#     Edge 130, Type (0, 1), BuildingBlock: TEMPAE_clean_linker_10, # of connection points: 2
#     Edge 131, Type (0, 1), BuildingBlock: TEMPAE_clean_linker_10, # of connection points: 2
#     Edge 132, Type (0, 1), BuildingBlock: TEMPAE_clean_linker_10, # of connection points: 2
#     Edge 133, Type (0, 1), BuildingBlock: TEMPAE_clean_linker_10, # of connection points: 2
#     Edge 134, Type (0, 1), BuildingBlock: TEMPAE_clean_linker_10, # of connection points: 2
#     Edge 135, Type (0, 1), BuildingBlock: TEMPAE_clean_linker_10, # of connection points: 2
# Relax obj value: 0.212
# Max RMSD: 0.313
# Mean RMSD: 0.185
data_MOF--net-gar--node1-AZAVOO_clean_sbu_0--node2-BETDIP_clean_sbu_0--edge1-TEMPAE_clean_linker_10
_symmetry_space_group_name_H-M    P1
_symmetry_Int_Tables_number       1
_symmetry_cell_setting            triclinic
loop_
_symmetry_equiv_pos_as_xyz
'x, y, z'
_cell_length_a     65.352422
_cell_length_b     57.047781
_cell_length_c     55.872441
_cell_angle_alpha  100.37639
_cell_angle_beta   98.986178
_cell_angle_gamma 102.12607
loop_
_atom_site_label
_atom_site_type_symbol
_atom_site_fract_x
_atom_site_fract_y
_atom_site_fract_z
_atom_type_partial_charge
Mg0 Mg 0.00777 0.29472 0.36527 0.0
O1 O 0.01092 0.32237 0.40185 0.0
O2 O 0.97903 0.31431 0.41273 0.0
Mg3 Mg 0.95588 0.28274 0.38377 0.0
C4 C 0.99842 0.32667 0.41669 0.0
C5 C 0.0488 0.30235 0.34741 0.0
O6 O 0.03406 0.30075 0.32786 0.0
O7 O 0.00878 0.2651 0.38656 0.0
O8 O 0.9762 0.25724 0.39553 0.0
O9 O 0.99671 0.32037 0.34327 0.0
O10 O 0.97594 0.2924 0.35764 0.0
C11 C 0.99463 0.25294 0.39592 0.0
C12 C 0.97801 0.31052 0.34682 0.0
O13 O 0.04333 0.30225 0.36819 0.0
Mg14 Mg 0.04452 0.75416 0.72574 0.0
O15 O 0.03826 0.72036 0.69472 0.0
O16 O 1.00594 0.71407 0.67088 0.0
Mg17 Mg 0.99153 0.74488 0.6871 0.0
C18 C 0.02367 0.7083 0.67609 0.0
C19 C 0.08691 0.74935 0.75491 0.0
O20 O 0.07496 0.74668 0.77155 0.0
O21 O 0.05076 0.77726 0.69798 0.0
O22 O 0.0177 0.7716 0.67595 0.0
O23 O 0.02857 0.73342 0.75064 0.0
O24 O 0.01251 0.75092 0.7235 0.0
C25 C 0.03777 0.78139 0.68065 0.0
C26 C 0.01132 0.73864 0.74058 0.0
O27 O 0.07889 0.75294 0.73411 0.0
Mg28 Mg 0.51273 0.7944 0.86899 0.0
O29 O 0.51696 0.82225 0.9058 0.0
O30 O 0.48506 0.81582 0.91677 0.0
Mg31 Mg 0.46089 0.78548 0.88754 0.0
C32 C 0.50474 0.82718 0.92081 0.0
C33 C 0.5607 0.81712 0.86762 0.0
O34 O 0.55403 0.83647 0.86344 0.0
O35 O 0.51192 0.7644 0.88975 0.0
O36 O 0.47949 0.75845 0.89923 0.0
O37 O 0.50344 0.82085 0.84704 0.0
O38 O 0.48151 0.79407 0.86156 0.0
C39 C 0.49747 0.75304 0.89927 0.0
C40 C 0.48448 0.81205 0.85058 0.0
O41 O 0.54786 0.79917 0.87196 0.0
Mg42 Mg 0.53818 0.25332 0.21399 0.0
O43 O 0.53081 0.22154 0.18092 0.0
O44 O 0.49957 0.21918 0.15651 0.0
Mg45 Mg 0.4868 0.25052 0.17524 0.0
C46 C 0.51646 0.21165 0.16146 0.0
C47 C 0.57873 0.24145 0.24028 0.0
O48 O 0.5663 0.23586 0.2558 0.0
O49 O 0.54687 0.27851 0.18895 0.0
O50 O 0.51475 0.27756 0.1673 0.0
O51 O 0.52046 0.23117 0.23645 0.0
O52 O 0.50651 0.25223 0.21145 0.0
C53 C 0.53507 0.28561 0.1728 0.0
C54 C 0.50405 0.23832 0.227 0.0
O55 O 0.57162 0.24925 0.22163 0.0
Mg56 Mg 0.07054 0.80901 0.1704 0.0
O57 O 0.06459 0.77189 0.14241 0.0
O58 O 0.03359 0.76522 0.11609 0.0
Mg59 Mg 0.01818 0.79704 0.12854 0.0
C60 C 0.05044 0.75858 0.12383 0.0
C61 C 0.1189 0.81997 0.20158 0.0
O62 O 0.11241 0.83691 0.21553 0.0
O63 O 0.07653 0.834 0.14194 0.0
O64 O 0.04343 0.827 0.11938 0.0
O65 O 0.05246 0.78991 0.1958 0.0
O66 O 0.03717 0.80576 0.16696 0.0
C67 C 0.06312 0.83854 0.12503 0.0
C68 C 0.03527 0.79437 0.18463 0.0
O69 O 0.10611 0.80683 0.18181 0.0
Mg70 Mg 0.50185 0.74484 0.42278 0.0
O71 O 0.5096 0.78243 0.45088 0.0
O72 O 0.48393 0.78074 0.47307 0.0
Mg73 Mg 0.45987 0.74307 0.45915 0.0
C74 C 0.50091 0.79241 0.46769 0.0
C75 C 0.5388 0.75154 0.39273 0.0
O76 O 0.52162 0.7459 0.37506 0.0
O77 O 0.51102 0.7227 0.45211 0.0
O78 O 0.48398 0.72106 0.47225 0.0
O79 O 0.48231 0.76086 0.39615 0.0
O80 O 0.4685 0.74039 0.42204 0.0
C81 C 0.50119 0.7151 0.46844 0.0
C82 C 0.46581 0.7529 0.40525 0.0
O83 O 0.5364 0.75309 0.41513 0.0
Mg84 Mg 0.569 0.30775 0.6709 0.0
O85 O 0.5648 0.26992 0.64439 0.0
O86 O 0.53374 0.26144 0.61763 0.0
Mg87 Mg 0.51655 0.29198 0.62805 0.0
C88 C 0.55097 0.25579 0.62592 0.0
C89 C 0.60956 0.2968 0.701 0.0
O90 O 0.59352 0.28411 0.70849 0.0
O91 O 0.57418 0.33145 0.64108 0.0
O92 O 0.54103 0.32196 0.61801 0.0
O93 O 0.55121 0.28949 0.6971 0.0
O94 O 0.53532 0.30263 0.6665 0.0
C95 C 0.56043 0.33453 0.62351 0.0
C96 C 0.53372 0.29242 0.68502 0.0
O97 O 0.6053 0.30906 0.68463 0.0
Mg98 Mg 0.99871 0.24668 0.92283 0.0
O99 O 1.00686 0.28415 0.95102 0.0
O100 O 0.98128 0.2829 0.9733 0.0
Mg101 Mg 0.95688 0.24543 0.9593 0.0
C102 C 0.99833 0.29433 0.96786 0.0
C103 C 0.03627 0.24337 0.89463 0.0
O104 O 0.01991 0.22746 0.87928 0.0
O105 O 0.00775 0.22432 0.95201 0.0
O106 O 0.98061 0.22279 0.97195 0.0
O107 O 0.97957 0.26321 0.89644 0.0
O108 O 0.96539 0.24277 0.92215 0.0
C109 C 0.99775 0.21661 0.96816 0.0
C110 C 0.96299 0.25555 0.90554 0.0
O111 O 0.03315 0.25483 0.915 0.0
Mg112 Mg 0.42279 0.055 0.28713 0.0
O113 O 0.39719 0.01503 0.28203 0.0
O114 O 0.38114 0.01976 0.31457 0.0
Mg115 Mg 0.39616 0.05793 0.3416 0.0
C116 C 0.38363 1.00626 0.29481 0.0
C117 C 0.44767 0.03807 0.23819 0.0
O118 O 0.45702 0.02798 0.25476 0.0
O119 O 0.39696 0.08244 0.28144 0.0
O120 O 0.38467 0.08358 0.31653 0.0
O121 O 0.44843 0.04108 0.31156 0.0
O122 O 0.42671 0.0592 0.32839 0.0
C123 C 0.38561 0.09131 0.29647 0.0
C124 C 0.44216 0.04855 0.33171 0.0
O125 O 0.43288 0.04875 0.24437 0.0
Mg126 Mg 0.26777 0.1531 0.51488 0.0
O127 O 0.27198 0.17911 0.55318 0.0
O128 O 0.30404 0.20532 0.56151 0.0
Mg129 Mg 0.32128 0.19513 0.52965 0.0
C130 C 0.28625 0.19713 0.56746 0.0
C131 C 0.22613 0.12554 0.52866 0.0
O132 O 0.24146 0.11976 0.54283 0.0
O133 O 0.26414 0.18272 0.49162 0.0
O134 O 0.29788 0.20541 0.50042 0.0
O135 O 0.28324 0.12746 0.53363 0.0
O136 O 0.30124 0.15706 0.51928 0.0
C137 C 0.27861 0.20023 0.48833 0.0
C138 C 0.30141 0.13915 0.53028 0.0
O139 O 0.23133 0.14 0.51444 0.0
Mg140 Mg 0.13499 0.05646 0.8334 0.0
O141 O 0.1586 0.09432 0.84006 0.0
O142 O 0.18245 0.09755 0.87453 0.0
Mg143 Mg 0.1716 0.06595 0.89339 0.0
C144 C 0.17589 0.10566 0.85563 0.0
C145 C 0.1257 0.04228 0.77462 0.0
O146 O 0.13636 0.02589 0.779 0.0
O147 O 0.16151 0.03843 0.82442 0.0
O148 O 0.17996 0.04004 0.86241 0.0
O149 O 0.11171 0.06978 0.85518 0.0
O150 O 0.1393 0.05723 0.87105 0.0
C151 C 0.17596 0.03279 0.8388 0.0
C152 C 0.12256 0.06471 0.87421 0.0
O153 O 0.12289 0.05744 0.79278 0.0
Mg154 Mg 0.23985 0.90062 0.01206 0.0
O155 O 0.26207 0.87884 0.99678 0.0
O156 O 0.29554 0.88964 0.01938 0.0
Mg157 Mg 0.29368 0.91418 0.05566 0.0
C158 C 0.28137 0.87701 1.00046 0.0
C159 C 0.19602 0.88439 0.97357 0.0
O160 O 0.18245 0.8721 0.95304 0.0
O161 O 0.23046 0.87108 0.0338 0.0
O162 O 0.26364 0.88737 0.05221 0.0
O163 O 0.25623 0.93227 0.99804 0.0
O164 O 0.26786 0.92695 0.03536 0.0
C165 C 0.24637 0.87188 0.0503 0.0
C166 C 0.27093 0.93834 0.01797 0.0
O167 O 0.21353 0.87848 0.97922 0.0
Mg168 Mg 0.32267 0.4087 0.08317 0.0
O169 O 0.31484 0.38036 0.04521 0.0
O170 O 0.33953 0.35862 0.04677 0.0
Mg171 Mg 0.36342 0.37316 0.08405 0.0
C172 C 0.32308 0.36356 0.03518 0.0
C173 C 0.28699 0.43843 0.08046 0.0
O174 O 0.30461 0.45591 0.08926 0.0
O175 O 0.31231 0.37992 0.10651 0.0
O176 O 0.3386 0.36031 0.10743 0.0
O177 O 0.3439 0.43548 0.06682 0.0
O178 O 0.35582 0.40951 0.08656 0.0
C179 C 0.32147 0.36403 0.11402 0.0
C180 C 0.35975 0.42647 0.07429 0.0
O181 O 0.28857 0.41622 0.07564 0.0
Mg182 Mg 0.8281 0.1897 0.04241 0.0
O183 O 0.81711 0.18902 0.07933 0.0
O184 O 0.84469 0.18549 0.10736 0.0
Mg185 Mg 0.87482 0.1765 0.09462 0.0
C186 C 0.82579 0.1886 0.10147 0.0
C187 C 0.77724 0.19048 0.0222 0.0
O188 O 0.76469 0.19777 0.00586 0.0
O189 O 0.86046 0.19508 0.06485 0.0
O190 O 0.88831 0.21665 0.09205 0.0
O191 O 0.82348 0.14787 0.03103 0.0
O192 O 0.8525 0.16982 0.0564 0.0
C193 C 0.87334 0.21586 0.07448 0.0
C194 C 0.84153 0.14865 0.04409 0.0
O195 O 0.79686 0.19377 0.02105 0.0
Mg196 Mg 0.15848 0.50384 0.31199 0.0
O197 O 0.18253 0.54342 0.3154 0.0
O198 O 0.2071 0.55021 0.34972 0.0
Mg199 Mg 0.19681 0.51827 0.37054 0.0
C200 C 0.1995 0.55718 0.3304 0.0
C201 C 0.13032 0.51482 0.26105 0.0
O202 O 0.12401 0.52801 0.27897 0.0
O203 O 0.18334 0.47566 0.30595 0.0
O204 O 0.20343 0.48472 0.34401 0.0
O205 O 0.13655 0.52206 0.33574 0.0
O206 O 0.16138 0.50761 0.35353 0.0
C207 C 0.19787 0.47104 0.32203 0.0
C208 C 0.14571 0.51775 0.35612 0.0
O209 O 0.14432 0.50295 0.2676 0.0
Mg210 Mg 0.82283 0.90863 0.57949 0.0
O211 O 0.81638 0.88065 0.54177 0.0
O212 O 0.84242 0.8608 0.54364 0.0
Mg213 Mg 0.86621 0.87678 0.58098 0.0
C214 C 0.82546 0.86465 0.53192 0.0
C215 C 0.78493 0.93435 0.58182 0.0
O216 O 0.8008 0.95014 0.59802 0.0
O217 O 0.81316 0.87884 0.60227 0.0
O218 O 0.84205 0.86366 0.6046 0.0
O219 O 0.84336 0.93664 0.56352 0.0
O220 O 0.85627 0.91155 0.58362 0.0
C221 C 0.82427 0.86502 0.61087 0.0
C222 C 0.85967 0.9286 0.57145 0.0
O223 O 0.78836 0.9144 0.57073 0.0
Mg224 Mg 0.94085 0.01354 0.27747 0.0
O225 O 0.91626 0.97648 0.27588 0.0
O226 O 0.90429 0.98436 0.31124 0.0
Mg227 Mg 0.9186 0.02305 0.33405 0.0
C228 C 0.90457 0.9698 0.29112 0.0
C229 C 0.96366 1.00791 0.23433 0.0
O230 O 0.97876 0.01358 0.25441 0.0
O231 O 0.91364 0.03137 0.26702 0.0
O232 O 0.90227 0.03736 0.30284 0.0
O233 O 0.9675 1.00198 0.29953 0.0
O234 O 0.94557 0.02144 0.31599 0.0
C235 C 0.90128 0.03925 0.28032 0.0
C236 C 0.96107 0.01102 0.31913 0.0
O237 O 0.94428 1.00428 0.23681 0.0
Mg238 Mg 0.3188 0.68609 0.53775 0.0
O239 O 0.31312 0.69347 0.57721 0.0
O240 O 0.34579 0.70534 0.60165 0.0
Mg241 Mg 0.3713 0.6996 0.57936 0.0
C242 C 0.32551 0.70192 0.59847 0.0
C243 C 0.26716 0.6889 0.5224 0.0
O244 O 0.25504 0.69915 0.50862 0.0
O245 O 0.33324 0.72619 0.54428 0.0
O246 O 0.36679 0.73434 0.5661 0.0
O247 O 0.31581 0.64592 0.53559 0.0
O248 O 0.34558 0.67509 0.54969 0.0
C249 C 0.35121 0.74089 0.55469 0.0
C250 C 0.33603 0.65224 0.54525 0.0
O251 O 0.2869 0.69319 0.52161 0.0
Mg252 Mg 0.44052 0.51031 0.77495 0.0
O253 O 0.41466 0.47391 0.77236 0.0
O254 O 0.40029 0.4832 0.80568 0.0
Mg255 Mg 0.41593 0.52108 0.82954 0.0
C256 C 0.40111 0.46833 0.78604 0.0
C257 C 0.46504 0.50508 0.73329 0.0
O258 O 0.4796 0.51121 0.7539 0.0
O259 O 0.41441 0.52912 0.76287 0.0
O260 O 0.40204 0.53651 0.79788 0.0
O261 O 0.46584 0.4982 0.79862 0.0
O262 O 0.4438 0.51862 0.81329 0.0
C263 C 0.40203 0.53808 0.77541 0.0
C264 C 0.45907 0.50808 0.81762 0.0
O265 O 0.44543 0.50084 0.73487 0.0
Mg266 Mg 0.65824 1.00542 0.80842 0.0
O267 O 0.68248 0.04496 0.81293 0.0
O268 O 0.70699 0.05141 0.8472 0.0
Mg269 Mg 0.69623 0.01904 0.86737 0.0
C270 C 0.69943 0.05859 0.82802 0.0
C271 C 0.62595 0.99675 0.751 0.0
O272 O 0.61301 0.98131 0.76002 0.0
O273 O 0.68327 0.97722 0.80223 0.0
O274 O 0.70283 0.98576 0.84057 0.0
O275 O 0.63631 0.02334 0.83229 0.0
O276 O 0.6609 0.00843 0.84988 0.0
C277 C 0.69755 0.97234 0.81848 0.0
C278 C 0.64531 0.01868 0.85255 0.0
O279 O 0.64463 1.00758 0.76466 0.0
Mg280 Mg 0.76738 0.65273 0.01161 0.0
O281 O 0.77231 0.678 0.05053 0.0
O282 O 0.805 0.70299 0.05918 0.0
Mg283 Mg 0.82245 0.69207 0.02778 0.0
C284 C 0.787 0.69548 0.06498 0.0
C285 C 0.72523 0.62684 0.02581 0.0
O286 O 0.74047 0.6215 0.04056 0.0
O287 O 0.76548 0.68399 0.98949 0.0
O288 O 0.80017 0.70315 0.99848 0.0
O289 O 0.78172 0.62498 0.02867 0.0
O290 O 0.80073 0.65518 0.01625 0.0
C291 C 0.78124 0.70004 0.98621 0.0
C292 C 0.80022 0.63641 0.02596 0.0
O293 O 0.73063 0.64059 0.011 0.0
Mg294 Mg 0.9234 0.5567 0.79076 0.0
O295 O 0.89748 0.51748 0.78697 0.0
O296 O 0.88174 0.52335 0.8196 0.0
Mg297 Mg 0.89698 0.56213 0.84527 0.0
C298 C 0.88404 0.5093 0.8001 0.0
C299 C 0.94925 0.55895 0.74108 0.0
O300 O 0.96036 0.57949 0.75649 0.0
O301 O 0.89788 0.58422 0.7837 0.0
O302 O 0.88542 0.58644 0.81876 0.0
O303 O 0.94809 0.54224 0.81579 0.0
O304 O 0.92758 0.56278 0.83223 0.0
C305 C 0.88641 0.59346 0.79835 0.0
C306 C 0.94223 0.55104 0.83582 0.0
O307 O 0.93308 0.54638 0.74814 0.0
Mg308 Mg 0.75544 0.34657 0.53822 0.0
O309 O 0.74496 0.36723 0.5063 0.0
O310 O 0.77444 0.35745 0.50403 0.0
Mg311 Mg 0.79893 0.33855 0.49326 0.0
C312 C 0.75925 0.36483 0.49365 0.0
C313 C 0.73399 0.38695 0.54861 0.0
O314 O 0.7418 0.38208 0.56979 0.0
O315 O 0.74465 0.31451 0.50386 0.0
O316 O 0.76972 0.30523 0.48532 0.0
O317 O 0.78307 0.37969 0.56229 0.0
O318 O 0.7881 0.35761 0.52918 0.0
C319 C 0.75994 0.30385 0.50323 0.0
C320 C 0.79591 0.3756 0.54793 0.0
O321 O 0.73685 0.37466 0.52846 0.0
Mg322 Mg 0.6332 0.56006 0.33249 0.0
O323 O 0.656 0.59854 0.33872 0.0
O324 O 0.68065 0.60154 0.37256 0.0
Mg325 Mg 0.66996 0.57093 0.39256 0.0
C326 C 0.67362 0.60956 0.35383 0.0
C327 C 0.62348 0.54368 0.27427 0.0
O328 O 0.63333 0.52697 0.27982 0.0
O329 O 0.66036 0.54295 0.32418 0.0
O330 O 0.67957 0.54592 0.36201 0.0
O331 O 0.60935 0.57245 0.35372 0.0
O332 O 0.63757 0.56121 0.37007 0.0
C333 C 0.67552 0.53826 0.33843 0.0
C334 C 0.62037 0.56779 0.3729 0.0
O335 O 0.62108 0.56002 0.29164 0.0
Tb336 Tb 0.01872 0.01624 0.03522 0.0
Tb337 Tb 0.0605 0.04698 0.06676 0.0
C338 C 0.97981 0.99738 0.0181 0.0
C339 C 0.96081 1.00636 0.02072 0.0
C340 C 0.96077 0.02327 0.04232 0.0
C341 C 0.9428 0.0322 0.04459 0.0
C342 C 0.92477 0.02457 0.02519 0.0
C343 C 0.92483 1.00763 1.00362 0.0
C344 C 0.94279 0.9985 1.00144 0.0
C345 C 0.05101 0.02077 0.01191 0.0
C346 C 0.02989 0.07507 0.0428 0.0
C347 C 0.09982 0.06195 0.08242 0.0
C348 C 0.11518 0.04802 0.07537 0.0
C349 C 0.10963 0.03129 0.05228 0.0
C350 C 0.122 0.01503 0.04631 0.0
C351 C 0.14018 0.01514 0.06332 0.0
C352 C 0.14635 0.03239 0.08608 0.0
C353 C 0.13372 0.04871 0.09221 0.0
C354 C 0.02822 0.04321 0.08989 0.0
C355 C 0.0493 0.98809 0.05866 0.0
O356 O 0.99019 0.99382 0.03857 0.0
O357 O 0.99249 0.00878 0.00564 0.0
O358 O 0.04732 0.03662 0.0282 0.0
O359 O 0.03523 1.00137 0.00689 0.0
O360 O 0.0148 0.05421 0.03818 0.0
O361 O 0.04991 0.07639 0.05285 0.0
O362 O 0.08959 0.06917 0.06414 0.0
O363 O 0.08695 0.05183 0.09549 0.0
O364 O 0.0318 0.02687 0.07392 0.0
O365 O 0.04431 0.06234 0.09502 0.0
O366 O 0.06434 0.00885 0.06295 0.0
O367 O 0.02929 0.987 0.04919 0.0
H368 H 0.9747 0.02978 0.0573 0.0
H369 H 0.94328 0.04571 0.06115 0.0
H370 H 0.91108 1.00166 0.98841 0.0
H371 H 0.94273 0.98558 0.98463 0.0
H372 H 0.09524 0.03012 0.03912 0.0
H373 H 0.11713 1.00198 0.02855 0.0
H374 H 0.16041 0.0326 0.09936 0.0
H375 H 0.138 0.06123 0.11024 0.0
Tb376 Tb 0.29347 0.76925 0.27918 0.0
Tb377 Tb 0.28586 0.78999 0.3247 0.0
C378 C 0.28897 0.74606 0.23541 0.0
C379 C 0.28711 0.75326 0.21159 0.0
C380 C 0.2998 0.77551 0.20918 0.0
C381 C 0.29611 0.78344 0.18716 0.0
C382 C 0.27954 0.76937 0.16755 0.0
C383 C 0.26723 0.74688 0.16976 0.0
C384 C 0.27104 0.73883 0.1917 0.0
C385 C 0.32688 0.77548 0.31531 0.0
C386 C 0.30967 0.82626 0.2939 0.0
C387 C 0.2884 0.81685 0.36649 0.0
C388 C 0.28908 0.81593 0.39232 0.0
C389 C 0.28956 0.79414 0.40023 0.0
C390 C 0.29277 0.79446 0.42549 0.0
C391 C 0.29546 0.81657 0.443 0.0
C392 C 0.29408 0.8381 0.43478 0.0
C393 C 0.29091 0.83775 0.4095 0.0
C394 C 0.25291 0.78376 0.28803 0.0
C395 C 0.27115 0.73268 0.31117 0.0
O396 O 0.27297 0.74778 0.24646 0.0
O397 O 0.30748 0.75474 0.25062 0.0
O398 O 0.30751 0.76782 0.31654 0.0
O399 O 0.32772 0.77861 0.29312 0.0
O400 O 0.3029 0.8075 0.27447 0.0
O401 O 0.30629 0.82249 0.31579 0.0
O402 O 0.30492 0.81245 0.35771 0.0
O403 O 0.27038 0.80586 0.35111 0.0
O404 O 0.27233 0.79201 0.28751 0.0
O405 O 0.25172 0.77892 0.30951 0.0
O406 O 0.27635 0.75204 0.3301 0.0
O407 O 0.27542 0.73587 0.28934 0.0
H408 H 0.31203 0.78716 0.22453 0.0
H409 H 0.30548 0.80111 0.18591 0.0
H410 H 0.25429 0.73593 0.15477 0.0
H411 H 0.26097 0.7218 0.19347 0.0
H412 H 0.2883 0.77723 0.387 0.0
H413 H 0.29424 0.77768 0.43132 0.0
H414 H 0.29607 0.85528 0.4479 0.0
H415 H 0.2906 0.85468 0.4034 0.0
Tb416 Tb 0.56008 0.03048 0.53557 0.0
Tb417 Tb 0.5149 0.02372 0.54675 0.0
C418 C 0.59796 0.02876 0.53321 0.0
C419 C 0.61377 0.01388 0.53756 0.0
C420 C 0.62205 0.01133 0.56151 0.0
C421 C 0.63892 0.99986 0.56542 0.0
C422 C 0.64806 0.9909 0.54552 0.0
C423 C 0.63934 0.99292 0.52152 0.0
C424 C 0.62245 1.00426 0.51762 0.0
C425 C 0.53027 0.03707 0.49985 0.0
C426 C 0.53013 0.97662 0.52846 0.0
C427 C 0.47597 0.02372 0.53907 0.0
C428 C 0.46015 0.03726 0.54627 0.0
C429 C 0.46487 0.0631 0.55189 0.0
C430 C 0.44846 0.07531 0.55369 0.0
C431 C 0.42705 0.06189 0.5498 0.0
C432 C 0.42266 0.03609 0.54547 0.0
C433 C 0.43902 0.02395 0.54368 0.0
C434 C 0.54313 0.02326 0.58788 0.0
C435 C 0.54644 0.07718 0.5607 0.0
O436 O 0.59251 0.04059 0.55265 0.0
O437 O 0.58177 0.01952 0.51443 0.0
O438 O 0.52793 0.0213 0.51334 0.0
O439 O 0.55026 0.04886 0.50576 0.0
O440 O 0.54982 0.99075 0.53293 0.0
O441 O 0.51332 0.9858 0.5301 0.0
O442 O 0.48989 0.03463 0.52757 0.0
O443 O 0.48425 0.01172 0.55448 0.0
O444 O 0.54627 0.02581 0.56656 0.0
O445 O 0.52275 0.02136 0.58647 0.0
O446 O 0.52673 0.06349 0.55697 0.0
O447 O 0.56263 0.06799 0.55544 0.0
H448 H 0.61601 0.01888 0.57738 0.0
H449 H 0.64533 0.99889 0.5842 0.0
H450 H 0.64573 0.98596 0.50569 0.0
H451 H 0.61656 1.00615 0.49901 0.0
H452 H 0.48106 0.07381 0.55379 0.0
H453 H 0.45241 0.09518 0.55695 0.0
H454 H 0.40644 0.0252 0.54284 0.0
H455 H 0.43499 1.00403 0.53915 0.0
Tb456 Tb 0.26725 0.27869 0.7949 0.0
Tb457 Tb 0.31308 0.2717 0.80385 0.0
C458 C 0.22831 0.27592 0.79523 0.0
C459 C 0.21217 0.27372 0.81128 0.0
C460 C 0.2005 0.25049 0.81277 0.0
C461 C 0.18318 0.2483 0.82486 0.0
C462 C 0.17694 0.26928 0.83558 0.0
C463 C 0.18895 0.29253 0.83462 0.0
C464 C 0.2063 0.29472 0.82259 0.0
C465 C 0.2968 0.3131 0.78598 0.0
C466 C 0.29659 0.29378 0.85005 0.0
C467 C 0.35175 0.27323 0.80288 0.0
C468 C 0.36704 0.27353 0.78578 0.0
C469 C 0.37461 0.2946 0.77685 0.0
C470 C 0.39115 0.29558 0.76352 0.0
C471 C 0.40056 0.27558 0.75886 0.0
C472 C 0.3925 0.25431 0.76722 0.0
C473 C 0.376 0.25333 0.78052 0.0
C474 C 0.28347 0.2378 0.81331 0.0
C475 C 0.28444 0.25797 0.74852 0.0
O476 O 0.23607 0.25681 0.78887 0.0
O477 O 0.24281 0.29677 0.79963 0.0
O478 O 0.29877 0.30172 0.80314 0.0
O479 O 0.27701 0.30696 0.77428 0.0
O480 O 0.27714 0.28729 0.83578 0.0
O481 O 0.31385 0.29189 0.84096 0.0
O482 O 0.34433 0.29275 0.80816 0.0
O483 O 0.33717 0.25277 0.80026 0.0
O484 O 0.2815 0.24884 0.79591 0.0
O485 O 0.30328 0.24365 0.82482 0.0
O486 O 0.30359 0.26332 0.76319 0.0
O487 O 0.26707 0.26054 0.75711 0.0
H488 H 0.2043 0.23387 0.80391 0.0
H489 H 0.17417 0.23008 0.82494 0.0
H490 H 0.18475 0.3091 0.84287 0.0
H491 H 0.2147 0.31288 0.82149 0.0
H492 H 0.36818 0.31059 0.78065 0.0
H493 H 0.3967 0.31214 0.75708 0.0
H494 H 0.39949 0.23867 0.76435 0.0
H495 H 0.37073 0.23699 0.78745 0.0
Tb496 Tb 0.04035 0.05088 0.55286 0.0
Tb497 Tb 0.04486 1.00118 0.54063 0.0
C498 C 0.04082 0.09512 0.55512 0.0
C499 C 0.03681 0.10973 0.53688 0.0
C500 C 0.04457 0.1066 0.51475 0.0
C501 C 0.04048 0.12092 0.49773 0.0
C502 C 0.02839 0.13824 0.50255 0.0
C503 C 0.02019 0.14073 0.52441 0.0
C504 C 0.02449 0.12665 0.54151 0.0
C505 C 0.00828 0.01783 0.56018 0.0
C506 C 0.02618 0.02064 0.49686 0.0
C507 C 0.04467 0.95675 0.53736 0.0
C508 C 0.05036 0.94156 0.5543 0.0
C509 C 0.05655 0.95125 0.57996 0.0
C510 C 0.06127 0.9362 0.59593 0.0
C511 C 0.05987 0.91132 0.58632 0.0
C512 C 0.05417 0.90186 0.56053 0.0
C513 C 0.04946 0.91696 0.54461 0.0
C514 C 0.07656 0.03436 0.53288 0.0
C515 C 0.05959 0.03186 0.59658 0.0
O516 O 0.0579 0.08659 0.55526 0.0
O517 O 0.02413 0.07883 0.55688 0.0
O518 O 0.0175 0.01571 0.54194 0.0
O519 O 0.01683 0.03917 0.57478 0.0
O520 O 0.03335 0.04255 0.51203 0.0
O521 O 0.02625 1.0005 0.50511 0.0
O522 O 0.02814 0.9656 0.54047 0.0
O523 O 0.06064 0.97309 0.53413 0.0
O524 O 0.06757 0.03626 0.55126 0.0
O525 O 0.06822 0.01292 0.51844 0.0
O526 O 0.0524 0.00995 0.58147 0.0
O527 O 0.05901 0.05196 0.58848 0.0
H528 H 0.05389 0.09329 0.5107 0.0
H529 H 0.04707 0.11873 0.48107 0.0
H530 H 0.01038 0.15352 0.52828 0.0
H531 H 0.01814 0.12891 0.55835 0.0
H532 H 0.05755 0.97026 0.58772 0.0
H533 H 0.06575 0.9439 0.61575 0.0
H534 H 0.05264 0.88261 0.55273 0.0
H535 H 0.04476 0.90936 0.52478 0.0
Tb536 Tb 0.28923 0.75612 0.79506 0.0
Tb537 Tb 0.2893 0.80851 0.79378 0.0
C538 C 0.28352 0.71043 0.78392 0.0
C539 C 0.29585 0.69411 0.77353 0.0
C540 C 0.31721 0.70332 0.77222 0.0
C541 C 0.32934 0.68724 0.76414 0.0
C542 C 0.32026 0.66178 0.75743 0.0
C543 C 0.2986 0.65281 0.75791 0.0
C544 C 0.28648 0.66893 0.76586 0.0
C545 C 0.29596 0.78527 0.83863 0.0
C546 C 0.33283 0.79235 0.80035 0.0
C547 C 0.29557 0.85431 0.80207 0.0
C548 C 0.28249 0.87233 0.80301 0.0
C549 C 0.27497 0.87995 0.8246 0.0
C550 C 0.26346 0.8979 0.82568 0.0
C551 C 0.25939 0.9086 0.80525 0.0
C552 C 0.26669 0.90083 0.78359 0.0
C553 C 0.27822 0.88289 0.78251 0.0
C554 C 0.2833 0.77827 0.75062 0.0
C555 C 0.24538 0.77364 0.78946 0.0
O556 O 0.27564 0.72296 0.76896 0.0
O557 O 0.29222 0.72379 0.80623 0.0
O558 O 0.28322 0.7859 0.81954 0.0
O559 O 0.30391 0.76636 0.83428 0.0
O560 O 0.32216 0.76913 0.79189 0.0
O561 O 0.32297 0.81001 0.80533 0.0
O562 O 0.29584 0.84187 0.81961 0.0
O563 O 0.2943 0.8406 0.78018 0.0
O564 O 0.29588 0.77881 0.77012 0.0
O565 O 0.27438 0.79651 0.75417 0.0
O566 O 0.25607 0.7969 0.79474 0.0
O567 O 0.25505 0.75534 0.78751 0.0
H568 H 0.32462 0.72282 0.77793 0.0
H569 H 0.34592 0.69466 0.76368 0.0
H570 H 0.29126 0.63327 0.75326 0.0
H571 H 0.26999 0.66166 0.7668 0.0
H572 H 0.27814 0.87226 0.84076 0.0
H573 H 0.25774 0.90342 0.84249 0.0
H574 H 0.2639 0.90902 0.7677 0.0
H575 H 0.28404 0.87752 0.76573 0.0
Tb576 Tb 0.5253 0.02321 0.02598 0.0
Tb577 Tb 0.56674 0.03435 0.06348 0.0
C578 C 0.4893 1.0009 1.00022 0.0
C579 C 0.46718 0.99771 1.00323 0.0
C580 C 0.45133 0.97935 0.98621 0.0
C581 C 0.43023 0.97515 0.98927 0.0
C582 C 0.42473 0.98925 0.00949 0.0
C583 C 0.44068 1.00784 0.02648 0.0
C584 C 0.46184 0.01202 0.02339 0.0
C585 C 0.54145 0.06991 0.04701 0.0
C586 C 0.52377 0.02705 0.08549 0.0
C587 C 0.60278 0.05638 0.08963 0.0
C588 C 0.6242 0.06569 0.08503 0.0
C589 C 0.62681 0.07601 0.0644 0.0
C590 C 0.64719 0.08645 0.06122 0.0
C591 C 0.66543 0.08655 0.07843 0.0
C592 C 0.66276 0.07563 0.09874 0.0
C593 C 0.64228 0.0653 0.102 0.0
C594 C 0.54959 0.98794 0.04293 0.0
C595 C 0.56807 0.0312 0.00419 0.0
O596 O 0.50101 0.99087 0.01462 0.0
O597 O 0.4992 0.02304 0.99895 0.0
O598 O 0.5417 0.05168 0.05647 0.0
O599 O 0.53019 0.0621 0.02452 0.0
O600 O 0.51329 0.0209 0.06169 0.0
O601 O 0.54512 0.03391 0.09066 0.0
O602 O 0.58825 0.06755 0.08185 0.0
O603 O 0.59558 0.03244 0.08484 0.0
O604 O 0.55022 1.00595 0.03301 0.0
O605 O 0.56059 0.99536 0.06558 0.0
O606 O 0.57841 0.03911 0.02801 0.0
O607 O 0.54696 0.02206 0.99907 0.0
H608 H 0.45532 0.96813 0.97063 0.0
H609 H 0.41819 0.96093 0.97574 0.0
H610 H 0.43685 0.0188 0.04234 0.0
H611 H 0.47402 0.02619 0.03681 0.0
H612 H 0.6131 0.07662 0.05107 0.0
H613 H 0.64856 0.09511 0.0456 0.0
H614 H 0.67647 0.07515 0.11214 0.0
H615 H 0.64054 0.05735 0.118 0.0
Tb616 Tb 0.26876 0.26295 0.28967 0.0
Tb617 Tb 0.30984 0.29543 0.30647 0.0
C618 C 0.23425 0.23266 0.28664 0.0
C619 C 0.21555 0.23762 0.29604 0.0
C620 C 0.2184 0.25562 0.31786 0.0
C621 C 0.20094 0.26268 0.32548 0.0
C622 C 0.18031 0.25223 0.31116 0.0
C623 C 0.1774 0.2339 0.28951 0.0
C624 C 0.19496 0.22665 0.28201 0.0
C625 C 0.28217 0.28324 0.25427 0.0
C626 C 0.26892 0.31947 0.30414 0.0
C627 C 0.34527 0.32542 0.31445 0.0
C628 C 0.36617 0.31971 0.31801 0.0
C629 C 0.38156 0.3301 0.30561 0.0
C630 C 0.39865 0.31961 0.30243 0.0
C631 C 0.40039 0.29853 0.31151 0.0
C632 C 0.38593 0.28936 0.32562 0.0
C633 C 0.3689 0.29986 0.32883 0.0
C634 C 0.29559 0.27435 0.34094 0.0
C635 C 0.31013 0.23875 0.29162 0.0
O636 O 0.25127 0.23523 0.30365 0.0
O637 O 0.23863 0.24317 0.26851 0.0
O638 O 0.29359 0.27546 0.2701 0.0
O639 O 0.2626 0.27797 0.25702 0.0
O640 O 0.2576 0.29668 0.30222 0.0
O641 O 0.28974 0.32286 0.30415 0.0
O642 O 0.33369 0.31569 0.29219 0.0
O643 O 0.33435 0.32233 0.33186 0.0
O644 O 0.28482 0.28337 0.32578 0.0
O645 O 0.3149 0.27755 0.33735 0.0
O646 O 0.32196 0.26178 0.29774 0.0
O647 O 0.28886 0.23505 0.28739 0.0
H648 H 0.23421 0.26475 0.32869 0.0
H649 H 0.20366 0.2766 0.3424 0.0
H650 H 0.16169 0.22581 0.27792 0.0
H651 H 0.19254 0.21311 0.26487 0.0
H652 H 0.37945 0.34507 0.29675 0.0
H653 H 0.40952 0.3268 0.29122 0.0
H654 H 0.38711 0.27322 0.3329 0.0
H655 H 0.35708 0.29128 0.33821 0.0
Tb656 Tb 0.5389 0.54755 0.05189 0.0
Tb657 Tb 0.54553 0.49969 0.03816 0.0
C658 C 0.53721 0.59126 0.05477 0.0
C659 C 0.53424 0.6059 0.03613 0.0
C660 C 0.55193 0.62282 0.03278 0.0
C661 C 0.54947 0.63656 0.01487 0.0
C662 C 0.52924 0.63376 1.00028 0.0
C663 C 0.51156 0.61671 1.00347 0.0
C664 C 0.51405 0.6028 0.02122 0.0
C665 C 0.50852 0.51292 0.06008 0.0
C666 C 0.5241 0.51834 0.9958 0.0
C667 C 0.54884 0.45639 0.03425 0.0
C668 C 0.5568 0.44283 0.05185 0.0
C669 C 0.55061 0.44407 0.07487 0.0
C670 C 0.55781 0.43027 0.09095 0.0
C671 C 0.57163 0.41543 0.08442 0.0
C672 C 0.57869 0.41535 0.06194 0.0
C673 C 0.5712 0.42887 0.04569 0.0
C674 C 0.5756 0.53472 0.02992 0.0
C675 C 0.56037 0.52875 0.09447 0.0
O676 O 0.5551 0.58432 0.05711 0.0
O677 O 0.52082 0.57369 0.05492 0.0
O678 O 0.51701 0.51166 0.04121 0.0
O679 O 0.51697 0.53419 0.07487 0.0
O680 O 0.53163 0.54015 0.01105 0.0
O681 O 0.52489 0.49822 1.00376 0.0
O682 O 0.53122 0.46303 0.03702 0.0
O683 O 0.56335 0.47388 0.03018 0.0
O684 O 0.56727 0.53555 0.04885 0.0
O685 O 0.56722 0.51355 0.015 0.0
O686 O 0.55398 0.50702 0.07894 0.0
O687 O 0.55836 0.54881 0.08701 0.0
H688 H 0.56767 0.62541 0.04399 0.0
H689 H 0.56336 0.64946 0.01253 0.0
H690 H 0.49573 0.61455 0.99268 0.0
H691 H 0.50012 0.58983 0.02334 0.0
H692 H 0.53979 0.45516 0.0802 0.0
H693 H 0.55175 0.43042 0.10794 0.0
H694 H 0.58955 0.40433 0.05662 0.0
H695 H 0.57642 0.42819 0.02815 0.0
Tb696 Tb 0.78161 0.25755 0.29391 0.0
Tb697 Tb 0.78082 0.30697 0.28396 0.0
C698 C 0.77854 0.21254 0.29038 0.0
C699 C 0.79222 0.19587 0.28413 0.0
C700 C 0.79572 0.18948 0.25983 0.0
C701 C 0.80852 0.1733 0.25443 0.0
C702 C 0.81813 0.16348 0.27326 0.0
C703 C 0.8147 0.17 0.2975 0.0
C704 C 0.80183 0.18599 0.30286 0.0
C705 C 0.78195 0.29124 0.33301 0.0
C706 C 0.82518 0.29386 0.29921 0.0
C707 C 0.78528 0.35209 0.28719 0.0
C708 C 0.77183 0.3696 0.28934 0.0
C709 C 0.76528 0.37703 0.31168 0.0
C710 C 0.75337 0.39456 0.31363 0.0
C711 C 0.74789 0.40495 0.29332 0.0
C712 C 0.7542 0.39729 0.27093 0.0
C713 C 0.76614 0.3798 0.269 0.0
C714 C 0.77803 0.27268 0.24482 0.0
C715 C 0.73709 0.27071 0.27794 0.0
O716 O 0.77025 0.22174 0.27246 0.0
O717 O 0.78565 0.22885 0.31137 0.0
O718 O 0.77162 0.28834 0.31146 0.0
O719 O 0.7913 0.27347 0.33383 0.0
O720 O 0.81514 0.27036 0.29378 0.0
O721 O 0.81465 0.31115 0.29873 0.0
O722 O 0.78958 0.3424 0.30637 0.0
O723 O 0.78089 0.33607 0.26601 0.0
O724 O 0.7898 0.27571 0.26571 0.0
O725 O 0.76944 0.2911 0.24442 0.0
O726 O 0.74711 0.29425 0.28292 0.0
O727 O 0.74759 0.25337 0.27935 0.0
H728 H 0.78857 0.19687 0.245 0.0
H729 H 0.81102 0.16857 0.23561 0.0
H730 H 0.82165 0.16234 0.31227 0.0
H731 H 0.79928 0.19054 0.32167 0.0
H732 H 0.76969 0.36972 0.32778 0.0
H733 H 0.74897 0.40049 0.33124 0.0
H734 H 0.75 0.40492 0.25497 0.0
H735 H 0.77114 0.37443 0.25165 0.0
Tb736 Tb 0.0255 0.52566 0.52968 0.0
Tb737 Tb 0.06612 0.53016 0.56652 0.0
C738 C 0.98854 0.50661 0.50491 0.0
C739 C 0.96777 0.49905 0.51166 0.0
C740 C 0.95528 0.47529 0.50068 0.0
C741 C 0.93738 0.46564 0.50964 0.0
C742 C 0.93161 0.47971 0.52961 0.0
C743 C 0.94347 0.50394 0.53991 0.0
C744 C 0.96165 0.51352 0.53115 0.0
C745 C 0.04551 0.57054 0.55354 0.0
C746 C 0.02339 0.52619 0.58869 0.0
C747 C 0.10288 0.54753 0.59277 0.0
C748 C 0.1244 0.55462 0.58773 0.0
C749 C 0.12731 0.56229 0.56577 0.0
C750 C 0.14776 0.57071 0.56177 0.0
C751 C 0.16575 0.57185 0.57979 0.0
C752 C 0.16285 0.5637 0.60158 0.0
C753 C 0.14224 0.55501 0.60546 0.0
C754 C 0.04547 0.4855 0.54332 0.0
C755 C 0.06785 0.53076 0.50745 0.0
O756 O 1.00204 0.49392 0.51178 0.0
O757 O 0.99739 0.53026 0.50916 0.0
O758 O 0.04366 0.55118 0.56149 0.0
O759 O 0.03451 0.56515 0.53083 0.0
O760 O 0.01314 0.52247 0.56501 0.0
O761 O 0.04467 0.53039 0.59387 0.0
O762 O 0.08997 0.56102 0.58611 0.0
O763 O 0.09362 0.52397 0.58679 0.0
O764 O 0.04793 0.50453 0.53483 0.0
O765 O 0.05637 0.49075 0.56599 0.0
O766 O 0.07819 0.53484 0.53117 0.0
O767 O 0.04655 0.52556 0.50217 0.0
H768 H 0.95993 0.46378 0.48586 0.0
H769 H 0.92824 0.44699 0.50125 0.0
H770 H 0.93916 0.51503 0.55528 0.0
H771 H 0.9713 0.53179 0.54018 0.0
H772 H 0.11381 0.56274 0.55214 0.0
H773 H 0.14946 0.57747 0.54507 0.0
H774 H 0.17647 0.56447 0.61576 0.0
H775 H 0.14024 0.54923 0.62256 0.0
Tb776 Tb 0.7685 0.77914 0.2919 0.0
Tb777 Tb 0.81379 0.7712 0.30102 0.0
C778 C 0.72966 0.77745 0.29189 0.0
C779 C 0.71353 0.77685 0.3078 0.0
C780 C 0.71139 0.76104 0.32438 0.0
C781 C 0.69448 0.75948 0.33722 0.0
C782 C 0.67931 0.77345 0.3336 0.0
C783 C 0.68193 0.78963 0.31743 0.0
C784 C 0.69883 0.79132 0.30478 0.0
C785 C 0.79802 0.81276 0.28156 0.0
C786 C 0.79765 0.79463 0.34681 0.0
C787 C 0.85209 0.76964 0.30125 0.0
C788 C 0.86902 0.77353 0.28658 0.0
C789 C 0.86509 0.76487 0.26068 0.0
C790 C 0.88204 0.76713 0.24791 0.0
C791 C 0.90325 0.77811 0.26077 0.0
C792 C 0.9069 0.78716 0.28662 0.0
C793 C 0.89 0.78495 0.29929 0.0
C794 C 0.78346 0.73801 0.3107 0.0
C795 C 0.78579 0.75845 0.24576 0.0
O796 O 0.73716 0.75793 0.28686 0.0
O797 O 0.74437 0.79799 0.29558 0.0
O798 O 0.80038 0.80179 0.29906 0.0
O799 O 0.77794 0.80733 0.27116 0.0
O800 O 0.77813 0.78764 0.33274 0.0
O801 O 0.81482 0.79279 0.33755 0.0
O802 O 0.84644 0.78913 0.31156 0.0
O803 O 0.83577 0.75058 0.29245 0.0
O804 O 0.78206 0.74868 0.29301 0.0
O805 O 0.80296 0.74458 0.32314 0.0
O806 O 0.80503 0.76485 0.26041 0.0
O807 O 0.76827 0.7601 0.25441 0.0
H808 H 0.72253 0.74966 0.32713 0.0
H809 H 0.69319 0.74735 0.35 0.0
H810 H 0.67049 0.80047 0.31389 0.0
H811 H 0.70007 0.80351 0.29198 0.0
H812 H 0.84901 0.75607 0.25038 0.0
H813 H 0.87853 0.76025 0.22797 0.0
H814 H 0.92294 0.79536 0.29731 0.0
H815 H 0.89344 0.79167 0.31927 0.0
Tb816 Tb 0.78899 0.27206 0.77794 0.0
Tb817 Tb 0.78623 0.29364 0.83094 0.0
C818 C 0.78025 0.26121 0.73165 0.0
C819 C 0.7901 0.26957 0.71175 0.0
C820 C 0.78652 0.2908 0.70419 0.0
C821 C 0.79392 0.29735 0.68374 0.0
C822 C 0.80513 0.28287 0.67044 0.0
C823 C 0.80966 0.26234 0.67875 0.0
C824 C 0.8021 0.25566 0.69918 0.0
C825 C 0.82493 0.27312 0.8089 0.0
C826 C 0.80977 0.32994 0.80102 0.0
C827 C 0.78973 0.30655 0.87687 0.0
C828 C 0.79735 0.29808 0.89881 0.0
C829 C 0.80968 0.28072 0.89745 0.0
C830 C 0.81913 0.27516 0.91914 0.0
C831 C 0.81607 0.28667 0.94233 0.0
C832 C 0.80315 0.30348 0.9434 0.0
C833 C 0.79393 0.30922 0.92173 0.0
C834 C 0.75567 0.29757 0.79573 0.0
C835 C 0.77008 0.23458 0.80954 0.0
O836 O 0.77256 0.27726 0.74512 0.0
O837 O 0.79032 0.24876 0.74493 0.0
O838 O 0.80881 0.28028 0.81367 0.0
O839 O 0.82121 0.26513 0.78501 0.0
O840 O 0.80243 0.31195 0.7807 0.0
O841 O 0.80709 0.32596 0.82314 0.0
O842 O 0.80459 0.31424 0.86491 0.0
O843 O 0.77209 0.29277 0.86209 0.0
O844 O 0.76396 0.27955 0.79624 0.0
O845 O 0.76362 0.31352 0.81645 0.0
O846 O 0.77661 0.25329 0.82945 0.0
O847 O 0.77187 0.23819 0.78701 0.0
H848 H 0.77729 0.30192 0.71344 0.0
H849 H 0.78972 0.31296 0.67754 0.0
H850 H 0.81837 0.25094 0.66892 0.0
H851 H 0.8051 0.23922 0.70465 0.0
H852 H 0.81247 0.27204 0.87975 0.0
H853 H 0.82921 0.26233 0.91779 0.0
H854 H 0.80025 0.31226 0.96099 0.0
H855 H 0.78449 0.32274 0.92291 0.0
Tb856 Tb 0.77132 0.76436 0.78446 0.0
Tb857 Tb 0.81075 0.79908 0.80867 0.0
C858 C 0.73338 0.74104 0.77851 0.0
C859 C 0.71658 0.75003 0.78889 0.0
C860 C 0.72219 0.7681 0.81107 0.0
C861 C 0.70687 0.77867 0.82008 0.0
C862 C 0.68545 0.77083 0.80756 0.0
C863 C 0.67976 0.75227 0.78561 0.0
C864 C 0.69532 0.74215 0.77618 0.0
C865 C 0.79205 0.78248 0.75252 0.0
C866 C 0.77135 0.82281 0.8022 0.0
C867 C 0.84888 0.82301 0.81806 0.0
C868 C 0.86889 0.81543 0.82242 0.0
C869 C 0.88571 0.82587 0.81198 0.0
C870 C 0.90298 0.81529 0.81086 0.0
C871 C 0.90361 0.79413 0.82024 0.0
C872 C 0.88744 0.78473 0.83224 0.0
C873 C 0.87007 0.79521 0.83319 0.0
C874 C 0.78888 0.78072 0.83987 0.0
C875 C 0.81104 0.74047 0.79078 0.0
O876 O 0.7488 0.73852 0.79506 0.0
O877 O 0.74056 0.75227 0.76195 0.0
O878 O 0.79046 0.79412 0.7734 0.0
O879 O 0.78116 0.75982 0.74877 0.0
O880 O 0.76039 0.79924 0.79656 0.0
O881 O 0.79251 0.82754 0.80582 0.0
O882 O 0.83761 0.81412 0.79549 0.0
O883 O 0.83725 0.82142 0.83504 0.0
O884 O 0.79156 0.76946 0.81951 0.0
O885 O 0.7994 0.80349 0.8438 0.0
O886 O 0.82191 0.76375 0.80103 0.0
O887 O 0.79008 0.73596 0.78233 0.0
H888 H 0.73853 0.7744 0.82134 0.0
H889 H 0.71195 0.79324 0.83671 0.0
H890 H 0.66331 0.74544 0.77578 0.0
H891 H 0.69079 0.72829 0.759 0.0
H892 H 0.88484 0.84125 0.80329 0.0
H893 H 0.9151 0.82271 0.80119 0.0
H894 H 0.88779 0.76867 0.8399 0.0
H895 H 0.85711 0.78673 0.84116 0.0
Tb896 Tb 0.51836 0.51446 0.53496 0.0
Tb897 Tb 0.56229 0.54298 0.56389 0.0
C898 C 0.47867 0.49957 0.5219 0.0
C899 C 0.4618 0.51216 0.52577 0.0
C900 C 0.46523 0.53162 0.54647 0.0
C901 C 0.44925 0.54376 0.55013 0.0
C902 C 0.42971 0.53672 0.53306 0.0
C903 C 0.42637 0.51735 0.51229 0.0
C904 C 0.44236 0.5051 0.50869 0.0
C905 C 0.54859 0.5186 0.50881 0.0
C906 C 0.53224 0.57362 0.54354 0.0
C907 C 0.60207 0.55624 0.57633 0.0
C908 C 0.61822 0.54178 0.57422 0.0
C909 C 0.62695 0.53908 0.55271 0.0
C910 C 0.64017 0.5231 0.54907 0.0
C911 C 0.64517 0.50972 0.56698 0.0
C912 C 0.63708 0.51305 0.5889 0.0
C913 C 0.62369 0.5289 0.59247 0.0
C914 C 0.53191 0.54013 0.58975 0.0
C915 C 0.5483 0.48393 0.55561 0.0
O916 O 0.48958 0.49628 0.5422 0.0
O917 O 0.49087 0.50756 0.50714 0.0
O918 O 0.54628 0.53415 0.5264 0.0
O919 O 0.53239 0.49958 0.50402 0.0
O920 O 0.51655 0.55334 0.53935 0.0
O921 O 0.55232 0.57374 0.55215 0.0
O922 O 0.59139 0.55803 0.55516 0.0
O923 O 0.58968 0.55191 0.59219 0.0
O924 O 0.53414 0.5238 0.57273 0.0
O925 O 0.54834 0.55887 0.59429 0.0
O926 O 0.56407 0.5041 0.56004 0.0
O927 O 0.52834 0.48386 0.54681 0.0
H928 H 0.48028 0.53751 0.55975 0.0
H929 H 0.45234 0.55897 0.56602 0.0
H930 H 0.41138 0.51166 0.49892 0.0
H931 H 0.4396 0.4902 0.49258 0.0
H932 H 0.62304 0.54872 0.53827 0.0
H933 H 0.64595 0.5207 0.53186 0.0
H934 H 0.64097 0.50329 0.60323 0.0
H935 H 0.61729 0.53062 0.60927 0.0
Tb936 Tb 0.06068 0.53244 0.04005 0.0
Tb937 Tb 0.01641 0.52442 0.05328 0.0
C938 C 0.09984 0.53478 0.04093 0.0
C939 C 0.11709 0.52212 0.04607 0.0
C940 C 0.11588 0.50397 0.06017 0.0
C941 C 0.13272 0.49226 0.0639 0.0
C942 C 0.15097 0.49843 0.05351 0.0
C943 C 0.15197 0.5168 0.03965 0.0
C944 C 0.13526 0.52837 0.03595 0.0
C945 C 0.03133 0.53577 1.00097 0.0
C946 C 0.03048 0.4788 0.02935 0.0
C947 C 0.97865 0.52498 0.0573 0.0
C948 C 0.96298 0.54022 0.05488 0.0
C949 C 0.957 0.54794 0.03283 0.0
C950 C 0.94046 0.56007 0.0304 0.0
C951 C 0.92953 0.56472 0.04992 0.0
C952 C 0.93597 0.55745 0.0721 0.0
C953 C 0.95247 0.54539 0.07452 0.0
C954 C 0.04693 0.51593 0.08693 0.0
C955 C 0.04525 0.57921 0.06023 0.0
O956 O 0.09258 0.54504 0.05967 0.0
O957 O 0.08463 0.52398 0.02153 0.0
O958 O 0.02883 0.53112 0.02182 0.0
O959 O 0.05177 0.53958 1.0023 0.0
O960 O 0.05031 0.49259 0.03619 0.0
O961 O 0.01387 0.48831 0.0309 0.0
O962 O 0.98384 0.5147 0.03693 0.0
O963 O 0.99503 0.53318 0.07594 0.0
O964 O 0.04901 0.53249 0.07434 0.0
O965 O 0.02687 0.50437 0.08125 0.0
O966 O 0.02645 0.56443 0.05948 0.0
O967 O 0.06164 0.5709 0.05418 0.0
H968 H 0.10195 0.49877 0.0681 0.0
H969 H 0.13128 0.47814 0.07457 0.0
H970 H 0.16584 0.52254 0.0318 0.0
H971 H 0.13656 0.54234 0.02507 0.0
H972 H 0.96481 0.54423 0.01732 0.0
H973 H 0.93618 0.56571 0.01318 0.0
H974 H 0.92779 0.56034 0.0874 0.0
H975 H 0.95664 0.53944 0.0916 0.0
C976 C 0.99735 0.19376 1.00276 0.0
C977 C 1.00466 0.19794 0.98117 0.0
C978 C 1.00175 0.17459 0.01391 0.0
C979 C 0.0134 0.15871 1.00301 0.0
C980 C 0.02108 0.16299 0.9814 0.0
C981 C 0.01682 0.18264 0.97091 0.0
C982 C 0.99363 0.17113 0.0372 0.0
C983 C 0.03328 0.14633 0.96892 0.0
C984 C 0.03974 0.11982 0.04139 0.0
C985 C 0.02482 0.09689 0.03418 0.0
C986 C 0.03611 0.14009 0.03173 0.0
C987 C 0.01724 0.13743 0.01401 0.0
C988 C 1.00204 0.11437 0.00679 0.0
C989 C 1.00593 0.09449 0.01706 0.0
C990 C 0.05259 0.16433 0.04037 0.0
C991 C 0.98181 0.11049 0.98779 0.0
H992 H 0.98795 0.20539 0.01091 0.0
H993 H 0.02232 0.18541 0.95407 0.0
H994 H 0.98187 0.15313 0.03349 0.0
H995 H 1.00701 0.17095 0.05203 0.0
H996 H 0.98588 0.18583 0.04418 0.0
H997 H 0.03839 0.1522 0.95242 0.0
H998 H 0.04765 0.14596 0.98221 0.0
H999 H 0.02315 0.12725 0.96296 0.0
H1000 H 0.05444 0.12194 0.05453 0.0
H1001 H 0.99441 0.07684 0.01107 0.0
H1002 H 0.04503 0.17903 0.04778 0.0
H1003 H 0.05926 0.16952 0.02445 0.0
H1004 H 0.06596 0.16371 0.05501 0.0
H1005 H 0.97242 0.1236 0.99423 0.0
H1006 H 0.9716 0.09151 0.98416 0.0
H1007 H 0.98587 0.11419 0.97005 0.0
C1008 C 0.15489 0.83148 0.23033 0.0
C1009 C 0.14017 0.81505 0.21017 0.0
C1010 C 0.17417 0.82629 0.24034 0.0
C1011 C 0.17899 0.80397 0.23017 0.0
C1012 C 0.16457 0.78764 0.20927 0.0
C1013 C 0.14542 0.7934 0.19948 0.0
C1014 C 0.18901 0.84432 0.26252 0.0
C1015 C 0.16893 0.76359 0.1979 0.0
C1016 C 0.23632 0.7987 0.25142 0.0
C1017 C 0.23414 0.78712 0.27133 0.0
C1018 C 0.21844 0.80358 0.23721 0.0
C1019 C 0.19793 0.79678 0.24309 0.0
C1020 C 0.19567 0.78438 0.26268 0.0
C1021 C 0.2137 0.77969 0.27643 0.0
C1022 C 0.2216 0.81669 0.21643 0.0
C1023 C 0.17426 0.77676 0.26974 0.0
H1024 H 0.15116 0.84833 0.23871 0.0
H1025 H 0.13422 0.7805 0.18396 0.0
H1026 H 0.18949 0.83596 0.27901 0.0
H1027 H 0.20551 0.84867 0.2591 0.0
H1028 H 0.18393 0.86173 0.26698 0.0
H1029 H 0.15734 0.75405 0.18034 0.0
H1030 H 0.18533 0.76667 0.19407 0.0
H1031 H 0.16797 0.7513 0.2112 0.0
H1032 H 0.25205 0.80445 0.24732 0.0
H1033 H 0.21182 0.77061 0.29169 0.0
H1034 H 0.21874 0.83529 0.22139 0.0
H1035 H 0.20989 0.80664 0.19917 0.0
H1036 H 0.23799 0.81864 0.21262 0.0
H1037 H 0.16866 0.79333 0.27654 0.0
H1038 H 0.17494 0.76605 0.28448 0.0
H1039 H 0.16221 0.76548 0.25325 0.0
C1040 C 0.50414 0.8292 0.50172 0.0
C1041 C 0.50884 0.81922 0.47894 0.0
C1042 C 0.50889 0.85479 0.51097 0.0
C1043 C 0.51805 0.87092 0.49685 0.0
C1044 C 0.52328 0.86098 0.47411 0.0
C1045 C 0.51886 0.8353 0.4656 0.0
C1046 C 0.50352 0.86457 0.53557 0.0
C1047 C 0.53259 0.87748 0.45818 0.0
C1048 C 0.50719 0.93477 0.50694 0.0
C1049 C 0.52689 0.94958 0.52085 0.0
C1050 C 0.50421 0.90924 0.4988 0.0
C1051 C 0.52115 0.89811 0.50523 0.0
C1052 C 0.54093 0.91297 0.51967 0.0
C1053 C 0.54364 0.93852 0.52702 0.0
C1054 C 0.483 0.89422 0.48302 0.0
C1055 C 0.55923 0.90189 0.52751 0.0
H1056 H 0.49639 0.81697 0.51217 0.0
H1057 H 0.52226 0.82783 0.44781 0.0
H1058 H 0.51758 0.8783 0.54776 0.0
H1059 H 0.49048 0.87407 0.53254 0.0
H1060 H 0.49835 0.84975 0.54537 0.0
H1061 H 0.53656 0.86699 0.4415 0.0
H1062 H 0.52098 0.88793 0.45201 0.0
H1063 H 0.54728 0.8911 0.46909 0.0
H1064 H 0.49422 0.9432 0.50191 0.0
H1065 H 0.55886 0.94984 0.5379 0.0
H1066 H 0.47557 0.8802 0.49255 0.0
H1067 H 0.48546 0.88426 0.46513 0.0
H1068 H 0.47167 0.90572 0.47903 0.0
H1069 H 0.55407 0.88769 0.538 0.0
H1070 H 0.57336 0.91588 0.53932 0.0
H1071 H 0.56412 0.89265 0.51089 0.0
C1072 C 0.51217 0.27797 0.7154 0.0
C1073 C 0.51307 0.28646 0.69344 0.0
C1074 C 0.49347 0.27512 0.72525 0.0
C1075 C 0.47513 0.28082 0.71286 0.0
C1076 C 0.47571 0.28866 0.69027 0.0
C1077 C 0.49464 0.29143 0.68087 0.0
C1078 C 0.49358 0.2667 0.74936 0.0
C1079 C 0.45652 0.2949 0.67644 0.0
C1080 C 0.42129 0.25669 0.72947 0.0
C1081 C 0.41925 0.27717 0.74628 0.0
C1082 C 0.43926 0.25763 0.71836 0.0
C1083 C 0.45567 0.2796 0.72409 0.0
C1084 C 0.4536 0.30043 0.74079 0.0
C1085 C 0.43549 0.29896 0.75168 0.0
C1086 C 0.44074 0.23505 0.70058 0.0
C1087 C 0.47067 0.32423 0.74741 0.0
H1088 H 0.52631 0.2742 0.72534 0.0
H1089 H 0.49513 0.29816 0.66398 0.0
H1090 H 0.49134 0.28149 0.76385 0.0
H1091 H 0.48008 0.25046 0.74704 0.0
H1092 H 0.50872 0.26184 0.75607 0.0
H1093 H 0.45907 0.29932 0.6584 0.0
H1094 H 0.44224 0.27931 0.67291 0.0
H1095 H 0.45294 0.31094 0.68796 0.0
H1096 H 0.40875 0.23987 0.72487 0.0
H1097 H 0.43432 0.31479 0.76491 0.0
H1098 H 0.45523 0.22915 0.70765 0.0
H1099 H 0.44231 0.23934 0.68226 0.0
H1100 H 0.42655 0.21947 0.69788 0.0
H1101 H 0.48603 0.32119 0.75623 0.0
H1102 H 0.4665 0.33889 0.76032 0.0
H1103 H 0.47324 0.3308 0.73034 0.0
C1104 C 0.03351 0.79908 0.64345 0.0
C1105 C 0.04581 0.7992 0.66635 0.0
C1106 C 0.03931 0.81769 0.63094 0.0
C1107 C 0.05778 0.83687 0.64179 0.0
C1108 C 0.07093 0.83644 0.66423 0.0
C1109 C 0.0648 0.81744 0.6763 0.0
C1110 C 0.02502 0.8175 0.60683 0.0
C1111 C 0.09071 0.85674 0.67617 0.0
C1112 C 0.07378 0.87668 0.59782 0.0
C1113 C 0.06253 0.89469 0.60312 0.0
C1114 C 0.07364 0.85846 0.61149 0.0
C1115 C 0.06191 0.85842 0.63069 0.0
C1116 C 0.05169 0.87749 0.63715 0.0
C1117 C 0.0521 0.89546 0.62319 0.0
C1118 C 0.08484 0.83844 0.60437 0.0
C1119 C 0.03903 0.87794 0.65758 0.0
H1120 H 0.01899 0.78476 0.63559 0.0
H1121 H 0.07431 0.81754 0.69407 0.0
H1122 H 0.01738 0.83316 0.6095 0.0
H1123 H 0.03454 0.81978 0.59225 0.0
H1124 H 0.01223 0.80022 0.60003 0.0
H1125 H 0.10077 0.85186 0.69155 0.0
H1126 H 0.10046 0.86108 0.66225 0.0
H1127 H 0.08597 0.87369 0.6838 0.0
H1128 H 0.08208 0.87639 0.58245 0.0
H1129 H 0.04321 0.90927 0.6271 0.0
H1130 H 0.07278 0.82115 0.59485 0.0
H1131 H 0.0941 0.83484 0.62114 0.0
H1132 H 0.09582 0.84318 0.59171 0.0
H1133 H 0.02447 0.86254 0.65181 0.0
H1134 H 0.03403 0.89542 0.66196 0.0
H1135 H 0.04854 0.87538 0.67474 0.0
C1136 C 0.4527 0.82568 0.85864 0.0
C1137 C 0.46626 0.82145 0.84222 0.0
C1138 C 0.43152 0.82552 0.84968 0.0
C1139 C 0.42403 0.82098 0.82373 0.0
C1140 C 0.43842 0.81972 0.80734 0.0
C1141 C 0.4596 0.81992 0.81688 0.0
C1142 C 0.4167 0.82729 0.86779 0.0
C1143 C 0.43097 0.81547 0.77962 0.0
C1144 C 0.36779 0.78146 0.80479 0.0
C1145 C 0.35613 0.79924 0.80348 0.0
C1146 C 0.3901 0.78824 0.81015 0.0
C1147 C 0.40081 0.81334 0.81393 0.0
C1148 C 0.38912 0.83115 0.81109 0.0
C1149 C 0.36681 0.82391 0.80609 0.0
C1150 C 0.40215 0.76873 0.81313 0.0
C1151 C 0.40011 0.85795 0.81453 0.0
H1152 H 0.45817 0.8271 0.87831 0.0
H1153 H 0.47023 0.81645 0.8043 0.0
H1154 H 0.40637 0.83976 0.86359 0.0
H1155 H 0.4061 0.80885 0.86605 0.0
H1156 H 0.42559 0.83404 0.88733 0.0
H1157 H 0.44456 0.82026 0.77022 0.0
H1158 H 0.42284 0.79578 0.77203 0.0
H1159 H 0.41931 0.82641 0.77506 0.0
H1160 H 0.35951 0.76239 0.80266 0.0
H1161 H 0.35778 0.83769 0.80466 0.0
H1162 H 0.4106 0.77214 0.83273 0.0
H1163 H 0.41439 0.76949 0.80141 0.0
H1164 H 0.39143 0.74992 0.80799 0.0
H1165 H 0.40644 0.86611 0.83459 0.0
H1166 H 0.38903 0.86857 0.80732 0.0
H1167 H 0.41387 0.86005 0.80504 0.0
C1168 C 0.50409 0.17274 0.12901 0.0
C1169 C 0.52069 0.19234 0.14313 0.0
C1170 C 0.50839 0.15399 0.11207 0.0
C1171 C 0.52965 0.15554 0.10876 0.0
C1172 C 0.54629 0.17585 0.12226 0.0
C1173 C 0.54165 0.19386 0.13961 0.0
C1174 C 0.4904 0.13209 0.09851 0.0
C1175 C 0.56906 0.17831 0.11878 0.0
C1176 C 0.54487 0.09609 0.0885 0.0
C1177 C 0.54187 0.09366 0.06267 0.0
C1178 C 0.54092 0.11618 0.10369 0.0
C1179 C 0.5348 0.13485 0.09288 0.0
C1180 C 0.53317 0.13337 0.06705 0.0
C1181 C 0.53642 0.11249 0.0521 0.0
C1182 C 0.54228 0.1168 0.13109 0.0
C1183 C 0.52735 0.15344 0.05516 0.0
H1184 H 0.4879 0.17169 0.13181 0.0
H1185 H 0.55443 0.20932 0.15028 0.0
H1186 H 0.48948 0.12932 0.07818 0.0
H1187 H 0.49353 0.11523 0.10404 0.0
H1188 H 0.47467 0.13416 0.10253 0.0
H1189 H 0.57965 0.19647 0.12881 0.0
H1190 H 0.57552 0.16376 0.12572 0.0
H1191 H 0.56961 0.17581 0.09874 0.0
H1192 H 0.54921 0.08164 0.09683 0.0
H1193 H 0.53413 0.11058 0.03214 0.0
H1194 H 0.52652 0.11723 0.13597 0.0
H1195 H 0.55393 0.13371 0.14234 0.0
H1196 H 0.54713 0.10063 0.13646 0.0
H1197 H 0.51065 0.15404 0.0562 0.0
H1198 H 0.52879 0.1506 0.03536 0.0
H1199 H 0.5378 0.17159 0.06535 0.0
C1200 C 0.08454 0.29599 0.36384 0.0
C1201 C 0.07029 0.29994 0.3443 0.0
C1202 C 0.10366 0.29002 0.35991 0.0
C1203 C 0.10853 0.28805 0.33596 0.0
C1204 C 0.09477 0.29326 0.31654 0.0
C1205 C 0.07578 0.29916 0.32096 0.0
C1206 C 0.11813 0.28468 0.38103 0.0
C1207 C 0.09957 0.29142 0.29078 0.0
C1208 C 0.16432 0.28654 0.32681 0.0
C1209 C 0.16206 0.26127 0.31826 0.0
C1210 C 0.14713 0.29554 0.33316 0.0
C1211 C 0.1272 0.27886 0.33066 0.0
C1212 C 0.12483 0.25332 0.32222 0.0
C1213 C 0.14234 0.24481 0.31616 0.0
C1214 C 0.15018 0.3229 0.34205 0.0
C1215 C 0.10373 0.23503 0.31933 0.0
H1216 H 0.08039 0.29658 0.38194 0.0
H1217 H 0.06489 0.30233 0.30584 0.0
H1218 H 0.11817 0.26492 0.37694 0.0
H1219 H 0.13482 0.29535 0.383 0.0
H1220 H 0.11301 0.2891 0.39901 0.0
H1221 H 0.08807 0.2979 0.2783 0.0
H1222 H 0.11595 0.30238 0.29168 0.0
H1223 H 0.09891 0.27201 0.28245 0.0
H1224 H 0.17946 0.29935 0.32811 0.0
H1225 H 0.14064 0.22526 0.30986 0.0
H1226 H 0.14499 0.32687 0.36001 0.0
H1227 H 0.1401 0.32987 0.32847 0.0
H1228 H 0.16708 0.33319 0.34447 0.0
H1229 H 0.09829 0.23679 0.33727 0.0
H1230 H 0.10471 0.21576 0.31303 0.0
H1231 H 0.09138 0.23895 0.30564 0.0
C1232 C 0.99054 0.00839 0.20729 0.0
C1233 C 0.9697 0.00911 0.21001 0.0
C1234 C 0.99783 0.01272 0.18581 0.0
C1235 C 0.984 0.01817 0.16658 0.0
C1236 C 0.96267 0.01808 0.16875 0.0
C1237 C 0.95572 0.01343 0.19044 0.0
C1238 C 0.0206 0.0123 0.18411 0.0
C1239 C 0.94753 0.02393 0.14865 0.0
C1240 C 0.01399 0.05576 0.12776 0.0
C1241 C 0.01424 0.03751 0.10746 0.0
C1242 C 1.00316 0.0499 0.14651 0.0
C1243 C 0.99244 0.02517 0.14494 0.0
C1244 C 0.9918 1.00688 0.12383 0.0
C1245 C 1.00268 0.01329 0.1053 0.0
C1246 C 1.00411 0.06998 0.16861 0.0
C1247 C 0.98069 0.98032 0.12151 0.0
H1248 H 1.00141 1.00495 0.22226 0.0
H1249 H 0.93964 0.01421 0.1925 0.0
H1250 H 0.02094 0.99974 0.16662 0.0
H1251 H 0.02972 0.03093 0.18374 0.0
H1252 H 0.02887 1.0063 0.2 0.0
H1253 H 0.93102 0.02114 0.15218 0.0
H1254 H 0.95327 0.04335 0.14749 0.0
H1255 H 0.94713 0.01229 0.13031 0.0
H1256 H 0.02289 0.07449 0.12942 0.0
H1257 H 1.0029 0.99909 0.08965 0.0
H1258 H 0.01391 0.06699 0.18536 0.0
H1259 H 0.98786 0.06949 0.17233 0.0
H1260 H 0.0112 0.08853 0.16583 0.0
H1261 H 0.98965 0.97269 0.13551 0.0
H1262 H 0.97957 0.96891 0.10278 0.0
H1263 H 0.96435 0.97876 0.12529 0.0
C1264 C 0.34398 0.78158 0.56434 0.0
C1265 C 0.35396 0.76575 0.55097 0.0
C1266 C 0.33696 0.79978 0.55398 0.0
C1267 C 0.33922 0.80096 0.52947 0.0
C1268 C 0.35208 0.78735 0.51759 0.0
C1269 C 0.3595 0.76991 0.52874 0.0
C1270 C 0.32479 0.81533 0.56797 0.0
C1271 C 0.35517 0.78826 0.49148 0.0
C1272 C 0.29345 0.79756 0.47929 0.0
C1273 C 0.30225 0.81738 0.46957 0.0
C1274 C 0.30419 0.79347 0.50115 0.0
C1275 C 0.32384 0.81015 0.51372 0.0
C1276 C 0.33068 0.83241 0.50635 0.0
C1277 C 0.31997 0.83564 0.48392 0.0
C1278 C 0.29589 0.76971 0.50877 0.0
C1279 C 0.35058 0.85147 0.52049 0.0
H1280 H 0.3397 0.77811 0.5816 0.0
H1281 H 0.36708 0.75732 0.51852 0.0
H1282 H 0.32466 0.83247 0.56125 0.0
H1283 H 0.30803 0.80472 0.56562 0.0
H1284 H 0.3319 0.82019 0.58815 0.0
H1285 H 0.3397 0.78008 0.47819 0.0
H1286 H 0.3607 0.80752 0.48985 0.0
H1287 H 0.36697 0.778 0.48587 0.0
H1288 H 0.27925 0.78401 0.46856 0.0
H1289 H 0.32665 0.85132 0.4767 0.0
H1290 H 0.29501 0.77338 0.52868 0.0
H1291 H 0.30697 0.75756 0.50611 0.0
H1292 H 0.27976 0.75963 0.49779 0.0
H1293 H 0.35376 0.85098 0.54048 0.0
H1294 H 0.34918 0.87018 0.51872 0.0
H1295 H 0.36452 0.84796 0.51266 0.0
C1296 C 0.62474 0.02361 0.71808 0.0
C1297 C 0.61761 1.00139 0.72544 0.0
C1298 C 0.6147 0.02838 0.69536 0.0
C1299 C 0.59716 0.0105 0.6789 0.0
C1300 C 0.59055 0.98776 0.68587 0.0
C1301 C 0.60052 0.98368 0.70875 0.0
C1302 C 0.62248 0.05299 0.68931 0.0
C1303 C 0.57252 0.96763 0.6692 0.0
C1304 C 0.5532 0.02715 0.63437 0.0
C1305 C 0.55855 0.02191 0.61085 0.0
C1306 C 0.56597 0.02458 0.65635 0.0
C1307 C 0.5847 0.01577 0.65539 0.0
C1308 C 0.59029 0.01045 0.63161 0.0
C1309 C 0.57747 0.01392 0.60989 0.0
C1310 C 0.55904 0.03093 0.68072 0.0
C1311 C 0.60969 1.00063 0.62895 0.0
H1312 H 0.63766 0.03771 0.73052 0.0
H1313 H 0.59465 0.96635 0.71371 0.0
H1314 H 0.62702 0.05039 0.67088 0.0
H1315 H 0.60939 0.06264 0.6882 0.0
H1316 H 0.63643 0.06484 0.70341 0.0
H1317 H 0.57026 0.9503 0.67598 0.0
H1318 H 0.55739 0.97365 0.66803 0.0
H1319 H 0.57565 0.96381 0.65009 0.0
H1320 H 0.53871 0.03329 0.63566 0.0
H1321 H 0.58182 0.00945 0.592 0.0
H1322 H 0.57252 0.0437 0.69477 0.0
H1323 H 0.55436 0.01403 0.6878 0.0
H1324 H 0.5453 0.03956 0.67896 0.0
H1325 H 0.6243 0.01567 0.6368 0.0
H1326 H 0.60983 0.9931 0.60923 0.0
H1327 H 0.61041 0.98594 0.63943 0.0
C1328 C 0.30574 0.3635 0.99159 0.0
C1329 C 0.3152 0.35135 0.00835 0.0
C1330 C 0.30145 0.35392 0.96573 0.0
C1331 C 0.30629 0.33136 0.95634 0.0
C1332 C 0.31485 0.31844 0.97324 0.0
C1333 C 0.31941 0.32869 0.99893 0.0
C1334 C 0.29272 0.36854 0.94839 0.0
C1335 C 0.31983 0.29411 0.96414 0.0
C1336 C 0.2818 0.2978 0.88899 0.0
C1337 C 0.29903 0.30349 0.87715 0.0
C1338 C 0.28391 0.30659 0.91469 0.0
C1339 C 0.3036 0.32195 0.92889 0.0
C1340 C 0.32098 0.328 0.91692 0.0
C1341 C 0.31856 0.31848 0.8913 0.0
C1342 C 0.26513 0.29914 0.92668 0.0
C1343 C 0.34214 0.34464 0.93117 0.0
H1344 H 0.30267 0.38115 0.99859 0.0
H1345 H 0.32669 0.31912 0.01168 0.0
H1346 H 0.30471 0.37452 0.93727 0.0
H1347 H 0.27816 0.35694 0.93514 0.0
H1348 H 0.28874 0.38506 0.95852 0.0
H1349 H 0.32451 0.28527 0.97961 0.0
H1350 H 0.30575 0.28137 0.95096 0.0
H1351 H 0.3331 0.29689 0.95396 0.0
H1352 H 0.2667 0.28606 0.87823 0.0
H1353 H 0.33192 0.3231 0.88227 0.0
H1354 H 0.2605 0.31569 0.93559 0.0
H1355 H 0.26967 0.2895 0.94149 0.0
H1356 H 0.25102 0.28685 0.91311 0.0
H1357 H 0.33972 0.36239 0.94067 0.0
H1358 H 0.35377 0.34843 0.91898 0.0
H1359 H 0.34918 0.33613 0.94574 0.0
C1360 C 0.9591 0.00938 0.36297 0.0
C1361 C 0.97105 0.00965 0.34424 0.0
C1362 C 0.9687 0.01064 0.38752 0.0
C1363 C 0.99083 0.01215 0.39348 0.0
C1364 C 1.00292 0.01162 0.37453 0.0
C1365 C 0.99283 0.01026 0.35002 0.0
C1366 C 0.95518 0.0107 0.40713 0.0
C1367 C 0.02656 0.01311 0.38029 0.0
C1368 C 0.01748 0.03967 0.46091 0.0
C1369 C 0.01789 0.01854 0.47024 0.0
C1370 C 0.00924 0.03789 0.43577 0.0
C1371 C 1.0012 0.0144 0.41963 0.0
C1372 C 1.00193 0.99301 0.42883 0.0
C1373 C 0.01027 0.99533 0.45405 0.0
C1374 C 0.00872 0.06113 0.42662 0.0
C1375 C 0.99347 0.96767 0.41215 0.0
H1376 H 0.94219 0.00809 0.35853 0.0
H1377 H 1.00211 0.0105 0.33556 0.0
H1378 H 0.95633 0.99533 0.41652 0.0
H1379 H 0.9612 0.02803 0.42153 0.0
H1380 H 0.93808 0.00892 0.39928 0.0
H1381 H 0.03352 0.01165 0.36334 0.0
H1382 H 0.03503 0.03082 0.39331 0.0
H1383 H 0.02955 0.99822 0.38964 0.0
H1384 H 0.02341 0.05766 0.47328 0.0
H1385 H 0.01061 0.97888 0.46109 0.0
H1386 H 0.9919 0.06166 0.42027 0.0
H1387 H 0.01664 0.06144 0.41047 0.0
H1388 H 0.01673 0.07794 0.44126 0.0
H1389 H 0.97605 0.96442 0.40504 0.0
H1390 H 0.9962 0.95294 0.42192 0.0
H1391 H 1.0012 0.96622 0.3958 0.0
C1392 C 0.32891 0.7308 0.6384 0.0
C1393 C 0.31641 0.71097 0.61966 0.0
C1394 C 0.32039 0.74099 0.658 0.0
C1395 C 0.29903 0.73064 0.65919 0.0
C1396 C 0.2862 0.71081 0.64019 0.0
C1397 C 0.29505 0.70126 0.62045 0.0
C1398 C 0.33433 0.7628 0.67747 0.0
C1399 C 0.26345 0.69895 0.64085 0.0
C1400 C 0.29378 0.74412 0.72568 0.0
C1401 C 0.28394 0.76373 0.72648 0.0
C1402 C 0.29668 0.73141 0.70322 0.0
C1403 C 0.291 0.73973 0.6814 0.0
C1404 C 0.28045 0.75904 0.68189 0.0
C1405 C 0.27665 0.77059 0.70453 0.0
C1406 C 0.30706 0.71012 0.70318 0.0
C1407 C 0.27444 0.76841 0.65885 0.0
H1408 H 0.34528 0.73876 0.63747 0.0
H1409 H 0.28532 0.68601 0.60584 0.0
H1410 H 0.32585 0.7777 0.6804 0.0
H1411 H 0.33786 0.75733 0.69545 0.0
H1412 H 0.34973 0.77025 0.67229 0.0
H1413 H 0.25359 0.69292 0.62174 0.0
H1414 H 0.26329 0.68246 0.64882 0.0
H1415 H 0.25591 0.7113 0.65227 0.0
H1416 H 0.29997 0.73921 0.74269 0.0
H1417 H 0.26916 0.78589 0.70525 0.0
H1418 H 0.32428 0.71646 0.70302 0.0
H1419 H 0.29968 0.69524 0.68641 0.0
H1420 H 0.30566 0.70237 0.71987 0.0
H1421 H 0.28916 0.77671 0.6528 0.0
H1422 H 0.26508 0.78243 0.662 0.0
H1423 H 0.26493 0.75297 0.64347 0.0
C1424 C 0.6223 0.03801 0.88021 0.0
C1425 C 0.63613 0.02227 0.87649 0.0
C1426 C 0.61228 0.04035 0.90127 0.0
C1427 C 0.61525 0.02609 0.91947 0.0
C1428 C 0.62917 0.01011 0.91582 0.0
C1429 C 0.6395 0.00865 0.89492 0.0
C1430 C 0.5983 0.05818 0.90394 0.0
C1431 C 0.6327 0.99382 0.93373 0.0
C1432 C 0.60148 0.04427 0.98541 0.0
C1433 C 0.58037 0.03023 0.98273 0.0
C1434 C 0.61277 0.04331 0.96536 0.0
C1435 C 0.60334 0.02737 0.94158 0.0
C1436 C 0.58216 0.01283 0.93901 0.0
C1437 C 0.57106 0.01464 0.95913 0.0
C1438 C 0.63488 0.05981 0.96962 0.0
C1439 C 0.57113 0.99494 0.91485 0.0
H1440 H 0.6192 0.04869 0.86646 0.0
H1441 H 0.64974 0.99608 0.89259 0.0
H1442 H 0.58151 0.048 0.90218 0.0
H1443 H 0.60335 0.07061 0.92267 0.0
H1444 H 0.59887 0.0695 0.88972 0.0
H1445 H 0.64376 0.98227 0.92864 0.0
H1446 H 0.63933 1.00515 0.95278 0.0
H1447 H 0.61718 0.9816 0.93419 0.0
H1448 H 0.60918 0.05643 1.00323 0.0
H1449 H 0.55497 1.00332 0.95639 0.0
H1450 H 0.63533 0.07186 0.95608 0.0
H1451 H 0.64657 0.04861 0.9665 0.0
H1452 H 0.64001 0.07153 0.98872 0.0
H1453 H 0.56876 1.00504 0.89985 0.0
H1454 H 0.55532 0.9838 0.91599 0.0
H1455 H 0.58127 0.98234 0.90947 0.0
C1456 C 0.3117 0.36547 0.15585 0.0
C1457 C 0.31388 0.35156 0.13339 0.0
C1458 C 0.30761 0.35445 0.17586 0.0
C1459 C 0.30484 0.32869 0.17314 0.0
C1460 C 0.30642 0.3145 0.15018 0.0
C1461 C 0.31142 0.32616 0.13086 0.0
C1462 C 0.30673 0.37046 0.20015 0.0
C1463 C 0.30277 0.28694 0.14598 0.0
C1464 C 0.31001 0.30078 0.23091 0.0
C1465 C 0.28866 0.29417 0.23343 0.0
C1466 C 0.31559 0.31218 0.21154 0.0
C1467 C 0.29941 0.31652 0.1939 0.0
C1468 C 0.27784 0.30936 0.19619 0.0
C1469 C 0.27281 0.29859 0.21594 0.0
C1470 C 0.33883 0.31988 0.21015 0.0
C1471 C 0.25995 0.31307 0.17773 0.0
H1472 H 0.31412 0.38521 0.15815 0.0
H1473 H 0.31333 0.31538 0.11365 0.0
H1474 H 0.29068 0.36505 0.20459 0.0
H1475 H 0.31846 0.36779 0.21544 0.0
H1476 H 0.3102 0.39027 0.19972 0.0
H1477 H 0.30379 0.27843 0.12682 0.0
H1478 H 0.31478 0.28213 0.15934 0.0
H1479 H 0.28678 0.27879 0.14934 0.0
H1480 H 0.32234 0.29729 0.24416 0.0
H1481 H 0.25624 0.29354 0.21762 0.0
H1482 H 0.34337 0.33987 0.2107 0.0
H1483 H 0.34149 0.31016 0.19228 0.0
H1484 H 0.34953 0.31592 0.22561 0.0
H1485 H 0.26182 0.33295 0.17835 0.0
H1486 H 0.24395 0.30546 0.18143 0.0
H1487 H 0.26062 0.30411 0.15861 0.0
C1488 C 0.17997 0.92025 0.97862 0.0
C1489 C 0.19114 0.90514 0.98942 0.0
C1490 C 0.1742 0.93932 0.99345 0.0
C1491 C 0.17948 0.94297 0.01963 0.0
C1492 C 0.19108 0.92804 0.03065 0.0
C1493 C 0.19675 0.90922 0.01534 0.0
C1494 C 0.16188 0.95505 0.9811 0.0
C1495 C 0.19656 0.93117 0.05851 0.0
C1496 C 0.17316 1.0033 0.0546 0.0
C1497 C 0.1519 0.99643 0.05701 0.0
C1498 C 0.18294 0.98572 0.04358 0.0
C1499 C 0.17107 0.96095 0.03519 0.0
C1500 C 0.1501 0.95377 0.03936 0.0
C1501 C 0.14069 0.97171 0.05007 0.0
C1502 C 0.20532 0.99391 0.0393 0.0
C1503 C 0.13709 0.92744 0.03104 0.0
H1504 H 0.17564 0.91705 0.95856 0.0
H1505 H 0.20472 0.89703 0.02368 0.0
H1506 H 0.14554 0.95184 0.9851 0.0
H1507 H 0.16976 0.97481 0.98868 0.0
H1508 H 0.16052 0.95103 0.96063 0.0
H1509 H 0.20779 0.92006 0.06414 0.0
H1510 H 0.20379 0.95075 0.06767 0.0
H1511 H 0.18173 0.9254 0.06551 0.0
H1512 H 0.18162 0.02255 0.05984 0.0
H1513 H 0.12416 0.96663 0.05192 0.0
H1514 H 0.20471 0.99295 0.01917 0.0
H1515 H 0.21524 0.98153 0.045 0.0
H1516 H 0.21323 0.01305 0.0496 0.0
H1517 H 0.13361 0.92194 0.01045 0.0
H1518 H 0.12167 0.92471 0.03743 0.0
H1519 H 0.14626 0.91498 0.03817 0.0
C1520 C 0.6977 0.5977 0.03993 0.0
C1521 C 0.70239 0.6158 0.02618 0.0
C1522 C 0.67655 0.58624 0.0404 0.0
C1523 C 0.65935 0.59311 0.02702 0.0
C1524 C 0.66387 0.61171 0.01346 0.0
C1525 C 0.68531 0.62271 0.01303 0.0
C1526 C 0.67263 0.56633 0.05485 0.0
C1527 C 0.64602 0.61985 0.99928 0.0
C1528 C 0.60648 0.54433 0.00903 0.0
C1529 C 0.59608 0.55112 0.02835 0.0
C1530 C 0.62668 0.55823 0.00796 0.0
C1531 C 0.63676 0.57983 0.02646 0.0
C1532 C 0.62591 0.58738 0.04548 0.0
C1533 C 0.60579 0.57283 0.04634 0.0
C1534 C 0.63761 0.54916 0.98753 0.0
C1535 C 0.63584 0.61046 0.06533 0.0
H1536 H 0.71064 0.59207 0.05016 0.0
H1537 H 0.68866 0.63671 1.00243 0.0
H1538 H 0.66305 0.57117 0.06888 0.0
H1539 H 0.6633 0.54879 0.04211 0.0
H1540 H 0.68773 0.5633 0.06454 0.0
H1541 H 0.65208 0.63548 0.99087 0.0
H1542 H 0.63609 0.60431 0.98426 0.0
H1543 H 0.63542 0.62537 0.0118 0.0
H1544 H 0.59908 0.52761 0.99502 0.0
H1545 H 0.59783 0.57826 0.06129 0.0
H1546 H 0.6523 0.54425 0.99571 0.0
H1547 H 0.64253 0.56388 0.97757 0.0
H1548 H 0.62718 0.53278 0.97384 0.0
H1549 H 0.65004 0.60795 0.07737 0.0
H1550 H 0.62451 0.61528 0.07717 0.0
H1551 H 0.64139 0.62612 0.05675 0.0
C1552 C 0.67956 0.50584 0.30429 0.0
C1553 C 0.68774 0.52158 0.32776 0.0
C1554 C 0.68938 0.48732 0.29574 0.0
C1555 C 0.70776 0.48471 0.31104 0.0
C1556 C 0.7168 0.50141 0.33407 0.0
C1557 C 0.70664 0.51969 0.34217 0.0
C1558 C 0.67943 0.46974 0.27103 0.0
C1559 C 0.73652 0.49919 0.35077 0.0
C1560 C 0.7192 0.42243 0.30814 0.0
C1561 C 0.73638 0.42449 0.29588 0.0
C1562 C 0.7092 0.44169 0.31243 0.0
C1563 C 0.71659 0.46335 0.30412 0.0
C1564 C 0.73338 0.46517 0.2909 0.0
C1565 C 0.74318 0.44568 0.28701 0.0
C1566 C 0.69125 0.4392 0.32658 0.0
C1567 C 0.74153 0.48805 0.28178 0.0
H1568 H 0.66493 0.50716 0.29311 0.0
H1569 H 0.71315 0.53199 0.36021 0.0
H1570 H 0.69177 0.46742 0.25984 0.0
H1571 H 0.67226 0.45139 0.27416 0.0
H1572 H 0.66676 0.47606 0.26013 0.0
H1573 H 0.74245 0.51488 0.36711 0.0
H1574 H 0.73286 0.48196 0.35755 0.0
H1575 H 0.74951 0.49819 0.3403 0.0
H1576 H 0.71377 0.40586 0.31466 0.0
H1577 H 0.75665 0.44736 0.27776 0.0
H1578 H 0.67698 0.44303 0.31594 0.0
H1579 H 0.69619 0.45291 0.34453 0.0
H1580 H 0.68666 0.42058 0.33047 0.0
H1581 H 0.72807 0.49341 0.27123 0.0
H1582 H 0.75325 0.48554 0.26972 0.0
H1583 H 0.74936 0.50351 0.2979 0.0
C1584 C 0.82428 0.39441 0.52774 0.0
C1585 C 0.81652 0.39289 0.54954 0.0
C1586 C 0.84343 0.41095 0.52813 0.0
C1587 C 0.85534 0.42616 0.55101 0.0
C1588 C 0.84761 0.4249 0.57316 0.0
C1589 C 0.82806 0.40835 0.57214 0.0
C1590 C 0.85093 0.41199 0.50398 0.0
C1591 C 0.86015 0.44073 0.59785 0.0
C1592 C 0.91291 0.44582 0.5464 0.0
C1593 C 0.91353 0.46847 0.53986 0.0
C1594 C 0.8945 0.43273 0.55235 0.0
C1595 C 0.87628 0.44249 0.55139 0.0
C1596 C 0.87739 0.46623 0.54661 0.0
C1597 C 0.89616 0.47907 0.54097 0.0
C1598 C 0.89403 0.40763 0.55768 0.0
C1599 C 0.85823 0.47714 0.54533 0.0
H1600 H 0.81518 0.38297 0.51013 0.0
H1601 H 0.82197 0.40724 0.58897 0.0
H1602 H 0.85382 0.43106 0.5011 0.0
H1603 H 0.86628 0.40648 0.50472 0.0
H1604 H 0.83919 0.39973 0.48767 0.0
H1605 H 0.85157 0.43822 0.61322 0.0
H1606 H 0.8758 0.43615 0.60223 0.0
H1607 H 0.86351 0.4604 0.59694 0.0
H1608 H 0.92658 0.43789 0.54587 0.0
H1609 H 0.89677 0.49666 0.53593 0.0
H1610 H 0.88432 0.39332 0.5414 0.0
H1611 H 0.88647 0.40532 0.57383 0.0
H1612 H 0.9103 0.40442 0.5615 0.0
H1613 H 0.84645 0.46753 0.52797 0.0
H1614 H 0.86264 0.49706 0.54542 0.0
H1615 H 0.85026 0.47458 0.56112 0.0
C1616 C 0.37432 0.12469 0.27309 0.0
C1617 C 0.37391 0.11219 0.29283 0.0
C1618 C 0.36411 0.14472 0.27157 0.0
C1619 C 0.35282 0.15328 0.2901 0.0
C1620 C 0.3523 0.14062 0.30986 0.0
C1621 C 0.36253 0.12082 0.31092 0.0
C1622 C 0.36515 0.15641 0.24956 0.0
C1623 C 0.34087 0.14813 0.33034 0.0
C1624 C 0.34286 0.22015 0.30118 0.0
C1625 C 0.32106 0.21683 0.29032 0.0
C1626 C 0.35312 0.20016 0.30115 0.0
C1627 C 0.34194 0.17538 0.2894 0.0
C1628 C 0.31997 0.17195 0.27814 0.0
C1629 C 0.30995 0.19222 0.27896 0.0
C1630 C 0.37606 0.20559 0.31442 0.0
C1631 C 0.30683 0.14655 0.26517 0.0
H1632 H 0.38276 0.11895 0.25874 0.0
H1633 H 0.36167 0.11209 0.32653 0.0
H1634 H 0.34999 0.14849 0.23571 0.0
H1635 H 0.3669 0.1765 0.25497 0.0
H1636 H 0.37855 0.15296 0.24055 0.0
H1637 H 0.34154 0.13668 0.34442 0.0
H1638 H 0.34808 0.16764 0.33981 0.0
H1639 H 0.32387 0.14661 0.32239 0.0
H1640 H 0.35201 0.23859 0.31039 0.0
H1641 H 0.29321 0.18868 0.27045 0.0
H1642 H 0.38569 0.19781 0.30185 0.0
H1643 H 0.37703 0.19657 0.33043 0.0
H1644 H 0.38324 0.22558 0.32148 0.0
H1645 H 0.31466 0.13851 0.25057 0.0
H1646 H 0.29034 0.14656 0.25647 0.0
H1647 H 0.3059 0.13444 0.27863 0.0
C1648 C 0.33899 0.13857 0.52627 0.0
C1649 C 0.3213 0.131 0.53691 0.0
C1650 C 0.35687 0.12856 0.52968 0.0
C1651 C 0.35731 0.11089 0.54448 0.0
C1652 C 0.33994 0.10403 0.55618 0.0
C1653 C 0.32207 0.11398 0.55207 0.0
C1654 C 0.37487 0.13605 0.5165 0.0
C1655 C 0.3399 0.08556 0.57241 0.0
C1656 C 0.39053 0.06462 0.53046 0.0
C1657 C 0.4092 0.07449 0.54885 0.0
C1658 C 0.37359 0.07625 0.52893 0.0
C1659 C 0.37522 0.09832 0.54625 0.0
C1660 C 0.39399 0.10839 0.56489 0.0
C1661 C 0.41078 0.09642 0.5659 0.0
C1662 C 0.35402 0.06501 0.50854 0.0
C1663 C 0.39632 0.13175 0.58383 0.0
H1664 H 0.33849 0.15158 0.51437 0.0
H1665 H 0.30851 0.10807 0.56039 0.0
H1666 H 0.39036 0.14233 0.52993 0.0
H1667 H 0.37586 0.11994 0.50266 0.0
H1668 H 0.37268 0.15096 0.50676 0.0
H1669 H 0.32617 0.0839 0.582 0.0
H1670 H 0.3391 0.06725 0.56092 0.0
H1671 H 0.35495 0.09085 0.58659 0.0
H1672 H 0.38929 0.04796 0.51688 0.0
H1673 H 0.42506 0.10407 0.58027 0.0
H1674 H 0.35159 0.0783 0.49675 0.0
H1675 H 0.33961 0.06084 0.51671 0.0
H1676 H 0.35525 0.0478 0.49652 0.0
H1677 H 0.39524 0.14707 0.57434 0.0
H1678 H 0.41175 0.13695 0.5974 0.0
H1679 H 0.38306 0.12952 0.5941 0.0
C1680 C 0.68215 0.65148 0.34446 0.0
C1681 C 0.68814 0.62986 0.34736 0.0
C1682 C 0.69655 0.67089 0.33892 0.0
C1683 C 0.717 0.66811 0.33536 0.0
C1684 C 0.72277 0.64593 0.33762 0.0
C1685 C 0.70842 0.62728 0.34405 0.0
C1686 C 0.69022 0.69464 0.33782 0.0
C1687 C 0.74406 0.64179 0.33307 0.0
C1688 C 0.74864 0.70672 0.29842 0.0
C1689 C 0.76548 0.72174 0.31711 0.0
C1690 C 0.73234 0.6896 0.30415 0.0
C1691 C 0.73255 0.68821 0.32925 0.0
C1692 C 0.74889 0.70452 0.34829 0.0
C1693 C 0.76541 0.72078 0.34193 0.0
C1694 C 0.71554 0.67216 0.28326 0.0
C1695 C 0.74932 0.70434 0.37533 0.0
H1696 H 0.66648 0.65344 0.34719 0.0
H1697 H 0.7129 0.61036 0.34605 0.0
H1698 H 0.70079 0.70934 0.3532 0.0
H1699 H 0.6925 0.70013 0.32017 0.0
H1700 H 0.67336 0.69346 0.33961 0.0
H1701 H 0.74557 0.62296 0.33418 0.0
H1702 H 0.74621 0.64477 0.31443 0.0
H1703 H 0.75723 0.65523 0.34695 0.0
H1704 H 0.74874 0.70761 0.27921 0.0
H1705 H 0.77829 0.73279 0.35639 0.0
H1706 H 0.69933 0.67292 0.28637 0.0
H1707 H 0.71695 0.65304 0.28283 0.0
H1708 H 0.71708 0.67634 0.26486 0.0
H1709 H 0.73332 0.70427 0.37968 0.0
H1710 H 0.76118 0.72046 0.38783 0.0
H1711 H 0.7535 0.68739 0.37934 0.0
C1712 C 0.85197 0.47554 0.80144 0.0
C1713 C 0.87214 0.48222 0.79508 0.0
C1714 C 0.84173 0.45074 0.80075 0.0
C1715 C 0.85194 0.43146 0.79435 0.0
C1716 C 0.87223 0.438 0.78765 0.0
C1717 C 0.88187 0.46297 0.7878 0.0
C1718 C 0.82 0.44524 0.80744 0.0
C1719 C 0.88428 0.41867 0.78135 0.0
C1720 C 0.83428 0.37287 0.81993 0.0
C1721 C 0.82111 0.3556 0.79903 0.0
C1722 C 0.84472 0.397 0.81848 0.0
C1723 C 0.84174 0.40492 0.7957 0.0
C1724 C 0.82835 0.38757 0.77457 0.0
C1725 C 0.81855 0.36333 0.7764 0.0
C1726 C 0.85905 0.41412 0.84153 0.0
C1727 C 0.8239 0.39477 0.74998 0.0
H1728 H 0.84418 0.48994 0.80738 0.0
H1729 H 0.89761 0.46757 0.78343 0.0
H1730 H 0.80877 0.43022 0.7929 0.0
H1731 H 0.82118 0.43886 0.82511 0.0
H1732 H 0.81318 0.46159 0.80967 0.0
H1733 H 0.89943 0.42619 0.77567 0.0
H1734 H 0.88805 0.41072 0.79775 0.0
H1735 H 0.87424 0.40343 0.76612 0.0
H1736 H 0.83664 0.36747 0.83758 0.0
H1737 H 0.80838 0.35053 0.76006 0.0
H1738 H 0.85227 0.43005 0.84715 0.0
H1739 H 0.87503 0.42143 0.83765 0.0
H1740 H 0.86106 0.40491 0.85735 0.0
H1741 H 0.8162 0.4104 0.75204 0.0
H1742 H 0.81332 0.37937 0.73524 0.0
H1743 H 0.8391 0.40104 0.7439 0.0
C1744 C 0.07111 0.88409 0.13137 0.0
C1745 C 0.06867 0.86122 0.11544 0.0
C1746 C 0.07024 0.90529 0.12199 0.0
C1747 C 0.06746 0.90382 0.09602 0.0
C1748 C 0.06649 0.88108 0.08004 0.0
C1749 C 0.06653 0.85995 0.08985 0.0
C1750 C 0.07075 0.92884 0.13973 0.0
C1751 C 0.06438 0.87882 0.0524 0.0
C1752 C 0.03773 0.94691 0.06876 0.0
C1753 C 0.05439 0.96605 0.06676 0.0
C1754 C 0.04182 0.92673 0.07817 0.0
C1755 C 0.06318 0.92519 0.08548 0.0
C1756 C 0.08013 0.9443 0.08323 0.0
C1757 C 0.07556 0.96453 0.07402 0.0
C1758 C 0.02318 0.90736 0.08089 0.0
C1759 C 0.10312 0.94331 0.09031 0.0
H1760 H 0.07208 0.88501 0.15109 0.0
H1761 H 0.06415 0.84224 0.07742 0.0
H1762 H 0.08285 0.94434 0.13687 0.0
H1763 H 0.05499 0.93333 0.136 0.0
H1764 H 0.07439 0.92749 0.15946 0.0
H1765 H 0.06676 0.86099 0.043 0.0
H1766 H 0.04825 0.88032 0.04421 0.0
H1767 H 0.07621 0.894 0.04854 0.0
H1768 H 0.0213 0.94794 0.06358 0.0
H1769 H 0.08857 0.97918 0.07257 0.0
H1770 H 0.0248 0.90574 0.10056 0.0
H1771 H 0.02308 0.88921 0.06963 0.0
H1772 H 0.00757 0.91156 0.07495 0.0
H1773 H 0.10621 0.938 0.10843 0.0
H1774 H 0.11438 0.9612 0.0915 0.0
H1775 H 0.1065 0.92908 0.07618 0.0
C1776 C 0.9227 0.24565 0.89842 0.0
C1777 C 0.94203 0.26078 0.89644 0.0
C1778 C 0.90282 0.24857 0.88691 0.0
C1779 C 0.90219 0.26739 0.87351 0.0
C1780 C 0.92166 0.2836 0.8728 0.0
C1781 C 0.94126 0.27993 0.88396 0.0
C1782 C 0.88257 0.2306 0.88785 0.0
C1783 C 0.92188 0.30425 0.85928 0.0
C1784 C 0.85751 0.25755 0.81724 0.0
C1785 C 0.84404 0.27159 0.82638 0.0
C1786 C 0.87601 0.25562 0.83253 0.0
C1787 C 0.88161 0.26835 0.85776 0.0
C1788 C 0.86795 0.28243 0.86728 0.0
C1789 C 0.84926 0.28382 0.85148 0.0
C1790 C 0.8897 0.24003 0.82149 0.0
C1791 C 0.8733 0.29639 0.89398 0.0
H1792 H 0.92309 0.23074 0.90795 0.0
H1793 H 0.95608 0.29186 0.88252 0.0
H1794 H 0.87054 0.24049 0.89334 0.0
H1795 H 0.87558 0.21875 0.86906 0.0
H1796 H 0.88545 0.21864 0.90102 0.0
H1797 H 0.93797 0.31699 0.86297 0.0
H1798 H 0.91686 0.29653 0.83898 0.0
H1799 H 0.91034 0.3149 0.86485 0.0
H1800 H 0.85354 0.24791 0.7979 0.0
H1801 H 0.83901 0.29483 0.85863 0.0
H1802 H 0.8921 0.22622 0.83264 0.0
H1803 H 0.90568 0.25176 0.82198 0.0
H1804 H 0.88253 0.23024 0.80195 0.0
H1805 H 0.8751 0.28367 0.90658 0.0
H1806 H 0.86087 0.30601 0.89874 0.0
H1807 H 0.88883 0.31015 0.89754 0.0
C1808 C 0.54197 0.21771 0.59172 0.0
C1809 C 0.55386 0.23106 0.61517 0.0
C1810 C 0.54278 0.19335 0.58242 0.0
C1811 C 0.55541 0.18173 0.5971 0.0
C1812 C 0.56788 0.19529 0.6205 0.0
C1813 C 0.56712 0.21982 0.62913 0.0
C1814 C 0.52954 0.17979 0.55718 0.0
C1815 C 0.58124 0.18353 0.63698 0.0
C1816 C 0.53572 0.11214 0.58507 0.0
C1817 C 0.54997 0.10392 0.57116 0.0
C1818 C 0.53772 0.13728 0.59412 0.0
C1819 C 0.55415 0.15489 0.5888 0.0
C1820 C 0.56875 0.14674 0.57493 0.0
C1821 C 0.56664 0.12133 0.56651 0.0
C1822 C 0.52199 0.14497 0.60915 0.0
C1823 C 0.58616 0.16488 0.56833 0.0
H1824 H 0.53173 0.22619 0.58071 0.0
H1825 H 0.57623 0.22983 0.64734 0.0
H1826 H 0.53952 0.17113 0.54572 0.0
H1827 H 0.5165 0.16483 0.55929 0.0
H1828 H 0.5223 0.19207 0.54705 0.0
H1829 H 0.59112 0.19695 0.65386 0.0
H1830 H 0.57062 0.16868 0.64286 0.0
H1831 H 0.59194 0.17497 0.62664 0.0
H1832 H 0.52287 0.09883 0.58893 0.0
H1833 H 0.5776 0.11514 0.55559 0.0
H1834 H 0.51233 0.15532 0.59907 0.0
H1835 H 0.53066 0.1574 0.62715 0.0
H1836 H 0.51095 0.12901 0.61292 0.0
H1837 H 0.5789 0.17598 0.55663 0.0
H1838 H 0.59662 0.15569 0.55811 0.0
H1839 H 0.59617 0.17783 0.58539 0.0
C1840 C 0.5791 0.75927 0.40414 0.0
C1841 C 0.56039 0.75541 0.38617 0.0
C1842 C 0.59934 0.76235 0.39754 0.0
C1843 C 0.60096 0.76164 0.37241 0.0
C1844 C 0.58215 0.75789 0.35429 0.0
C1845 C 0.56221 0.7548 0.36135 0.0
C1846 C 0.619 0.76623 0.4174 0.0
C1847 C 0.58306 0.7571 0.32732 0.0
C1848 C 0.6528 0.79114 0.35465 0.0
C1849 C 0.66035 0.77061 0.34572 0.0
C1850 C 0.63394 0.78857 0.36415 0.0
C1851 C 0.62222 0.76488 0.36485 0.0
C1852 C 0.63014 0.74416 0.35666 0.0
C1853 C 0.64905 0.74726 0.34721 0.0
C1854 C 0.62621 0.81119 0.37276 0.0
C1855 C 0.61821 0.71858 0.35705 0.0
H1856 H 0.57793 0.75973 0.42335 0.0
H1857 H 0.54795 0.75188 0.34726 0.0
H1858 H 0.62734 0.75145 0.41285 0.0
H1859 H 0.63033 0.78391 0.41808 0.0
H1860 H 0.61514 0.76638 0.43609 0.0
H1861 H 0.56699 0.75408 0.31551 0.0
H1862 H 0.59325 0.77461 0.32549 0.0
H1863 H 0.5904 0.74213 0.3201 0.0
H1864 H 0.66156 0.80931 0.35399 0.0
H1865 H 0.65455 0.73123 0.34013 0.0
H1866 H 0.62328 0.81206 0.39189 0.0
H1867 H 0.61081 0.81023 0.36054 0.0
H1868 H 0.63782 0.8284 0.37252 0.0
H1869 H 0.61476 0.71796 0.37578 0.0
H1870 H 0.62728 0.70464 0.35194 0.0
H1871 H 0.60264 0.71349 0.3438 0.0
C1872 C 0.98381 0.21826 0.41615 0.0
C1873 C 0.99987 0.23377 0.40839 0.0
C1874 C 0.9887 0.20117 0.42968 0.0
C1875 C 0.01014 0.1997 0.43554 0.0
C1876 C 0.02633 0.21457 0.42697 0.0
C1877 C 0.02098 0.23151 0.41341 0.0
C1878 C 0.97107 0.18547 0.4386 0.0
C1879 C 0.04936 0.21329 0.43299 0.0
C1880 C 0.02564 0.17888 0.49435 0.0
C1881 C 0.02456 0.15405 0.48512 0.0
C1882 C 0.02112 0.194 0.4783 0.0
C1883 C 0.01585 0.18409 0.45243 0.0
C1884 C 0.01531 0.15924 0.44289 0.0
C1885 C 0.01955 0.14438 0.45944 0.0
C1886 C 0.02164 0.22045 0.48906 0.0
C1887 C 0.00989 0.14831 0.41531 0.0
H1888 H 0.96742 0.21975 0.4121 0.0
H1889 H 0.03345 0.24343 0.40739 0.0
H1890 H 0.97116 0.16579 0.43337 0.0
H1891 H 0.97379 0.1906 0.45917 0.0
H1892 H 0.95502 0.18762 0.43083 0.0
H1893 H 0.05966 0.22456 0.4231 0.0
H1894 H 0.05567 0.21995 0.45326 0.0
H1895 H 0.05059 0.19398 0.42799 0.0
H1896 H 0.02998 0.1865 0.5142 0.0
H1897 H 0.01851 0.12511 0.45231 0.0
H1898 H 1.00565 0.22388 0.48363 0.0
H1899 H 0.03308 0.23296 0.48149 0.0
H1900 H 0.02633 0.22526 0.50966 0.0
H1901 H 0.99333 0.14881 0.40757 0.0
H1902 H 0.01124 0.12898 0.41094 0.0
H1903 H 0.02066 0.15936 0.40574 0.0
C1904 C 0.61333 0.2434 0.22675 0.0
C1905 C 0.60128 0.24061 0.24518 0.0
C1906 C 0.63532 0.24548 0.23181 0.0
C1907 C 0.6454 0.24486 0.25588 0.0
C1908 C 0.6332 0.24071 0.27418 0.0
C1909 C 0.61116 0.23856 0.26857 0.0
C1910 C 0.6479 0.24965 0.21179 0.0
C1911 C 0.64359 0.23992 0.30003 0.0
C1912 C 0.70248 0.23907 0.26445 0.0
C1913 C 0.71367 0.26381 0.27276 0.0
C1914 C 0.68011 0.23248 0.25923 0.0
C1915 C 0.66891 0.25109 0.26255 0.0
C1916 C 0.68014 0.27602 0.27131 0.0
C1917 C 0.70243 0.28209 0.27625 0.0
C1918 C 0.66848 0.20574 0.24979 0.0
C1919 C 0.66864 0.29634 0.27513 0.0
H1920 H 0.60569 0.24466 0.20851 0.0
H1921 H 0.60185 0.2363 0.28281 0.0
H1922 H 0.65825 0.26863 0.21692 0.0
H1923 H 0.65849 0.23685 0.21005 0.0
H1924 H 0.63737 0.24716 0.19341 0.0
H1925 H 0.63164 0.2339 0.3112 0.0
H1926 H 0.65439 0.2273 0.29919 0.0
H1927 H 0.6535 0.25849 0.30977 0.0
H1928 H 0.71115 0.22488 0.26172 0.0
H1929 H 0.71102 0.30121 0.28288 0.0
H1930 H 0.65901 0.20296 0.23076 0.0
H1931 H 0.65706 0.20023 0.2617 0.0
H1932 H 0.67957 0.19343 0.24931 0.0
H1933 H 0.65895 0.29685 0.25714 0.0
H1934 H 0.67983 0.31469 0.28293 0.0
H1935 H 0.65752 0.29278 0.28789 0.0
C1936 C 0.53425 0.86186 0.9476 0.0
C1937 C 0.51312 0.84772 0.94289 0.0
C1938 C 0.54139 0.88303 0.96683 0.0
C1939 C 0.52703 0.89019 0.98151 0.0
C1940 C 0.50611 0.87525 0.97779 0.0
C1941 C 0.49943 0.85416 0.95859 0.0
C1942 C 0.56386 0.89858 0.97038 0.0
C1943 C 0.49025 0.88244 0.9929 0.0
C1944 C 0.54707 0.94295 0.03836 0.0
C1945 C 0.54301 0.96257 0.02819 0.0
C1946 C 0.54204 0.9191 0.0234 0.0
C1947 C 0.53265 0.91504 0.99791 0.0
C1948 C 0.5283 0.93485 0.98773 0.0
C1949 C 0.53365 0.95836 1.00296 0.0
C1950 C 0.54699 0.89835 0.03472 0.0
C1951 C 0.51817 0.9313 0.96066 0.0
H1952 H 0.54502 0.85695 0.93573 0.0
H1953 H 0.48313 0.84329 0.95531 0.0
H1954 H 0.56335 0.91564 0.96366 0.0
H1955 H 0.57157 0.90413 0.99036 0.0
H1956 H 0.57393 0.88879 0.96006 0.0
H1957 H 0.47567 0.86732 0.98996 0.0
H1958 H 0.4976 0.88784 0.01299 0.0
H1959 H 0.48541 0.89859 0.98753 0.0
H1960 H 0.55449 0.94631 0.05782 0.0
H1961 H 0.53071 0.97355 0.99492 0.0
H1962 H 0.55839 0.89023 0.02524 0.0
H1963 H 0.53222 0.88359 0.03199 0.0
H1964 H 0.554 0.90452 0.05491 0.0
H1965 H 0.52846 0.92401 0.94869 0.0
H1966 H 0.5156 0.94867 0.95582 0.0
H1967 H 0.50252 0.91763 0.95616 0.0
C1968 C 0.9929 0.73016 0.77501 0.0
C1969 C 0.99207 0.73534 0.75134 0.0
C1970 C 0.97723 0.73449 0.78857 0.0
C1971 C 0.96081 0.7445 0.77822 0.0
C1972 C 0.95864 0.74715 0.75335 0.0
C1973 C 0.97425 0.74231 0.74013 0.0
C1974 C 0.9791 0.73014 0.81456 0.0
C1975 C 0.94089 0.75712 0.74142 0.0
C1976 C 0.91278 0.75502 0.80382 0.0
C1977 C 0.91951 0.78027 0.81443 0.0
C1978 C 0.92667 0.7424 0.79361 0.0
C1979 C 0.94765 0.75549 0.794 0.0
C1980 C 0.95494 0.78064 0.80615 0.0
C1981 C 0.94075 0.79272 0.81635 0.0
C1982 C 0.91849 0.71543 0.78144 0.0
C1983 C 0.97715 0.79535 0.80655 0.0
H1984 H 1.00653 0.72449 0.78366 0.0
H1985 H 0.97327 0.74593 0.72168 0.0
H1986 H 0.98457 0.74802 0.82819 0.0
H1987 H 0.96327 0.7208 0.81745 0.0
H1988 H 0.99063 0.71883 0.81841 0.0
H1989 H 0.9408 0.75666 0.72144 0.0
H1990 H 0.92515 0.74633 0.74309 0.0
H1991 H 0.94275 0.77644 0.75118 0.0
H1992 H 0.89624 0.74549 0.80194 0.0
H1993 H 0.94595 0.81221 0.82474 0.0
H1994 H 0.92395 0.70448 0.79455 0.0
H1995 H 0.9246 0.71048 0.76426 0.0
H1996 H 0.90079 0.71004 0.77664 0.0
H1997 H 0.98929 0.78584 0.81336 0.0
H1998 H 0.98083 0.81412 0.8185 0.0
H1999 H 0.97867 0.79704 0.78738 0.0
C2000 C 0.09383 0.06619 0.89888 0.0
C2001 C 0.11441 0.06339 0.89736 0.0
C2002 C 0.0844 0.06033 0.91868 0.0
C2003 C 0.09584 0.05147 0.93734 0.0
C2004 C 0.11699 0.04972 0.93653 0.0
C2005 C 0.12601 0.05568 0.91657 0.0
C2006 C 0.06185 0.06263 0.91906 0.0
C2007 C 0.12975 0.04049 0.95617 0.0
C2008 C 0.07621 0.05199 0.99778 0.0
C2009 C 0.06412 0.02771 0.99389 0.0
C2010 C 0.08689 0.0599 0.9797 0.0
C2011 C 0.0854 0.04312 0.95717 0.0
C2012 C 0.07368 0.0184 0.95342 0.0
C2013 C 0.06316 0.01097 0.97188 0.0
C2014 C 0.09928 0.08637 0.98444 0.0
C2015 C 0.07185 0.99993 0.92969 0.0
H2016 H 0.0847 0.07193 0.88405 0.0
H2017 H 0.14187 0.05327 0.91554 0.0
H2018 H 0.05116 0.04415 0.91687 0.0
H2019 H 0.06116 0.07384 0.9372 0.0
H2020 H 0.05561 0.07117 0.90402 0.0
H2021 H 0.1465 0.04186 0.95381 0.0
H2022 H 0.12997 0.05107 0.97496 0.0
H2023 H 0.1221 0.02098 0.9553 0.0
H2024 H 0.07686 0.06507 0.01471 0.0
H2025 H 0.05376 0.99223 0.96881 0.0
H2026 H 0.09196 0.09557 0.97068 0.0
H2027 H 0.11595 0.0873 0.98208 0.0
H2028 H 0.09964 0.09678 1.0034 0.0
H2029 H 0.06385 1.00595 0.91369 0.0
H2030 H 0.06263 0.98128 0.92997 0.0
H2031 H 0.08799 0.9988 0.92655 0.0
C2032 C 0.76128 0.30101 0.54709 0.0
C2033 C 0.77218 0.30317 0.52761 0.0
C2034 C 0.77174 0.29941 0.57026 0.0
C2035 C 0.79371 0.29963 0.57401 0.0
C2036 C 0.805 0.30204 0.55462 0.0
C2037 C 0.79401 0.30348 0.53144 0.0
C2038 C 0.75907 0.2968 0.5905 0.0
C2039 C 0.82841 0.30227 0.55805 0.0
C2040 C 0.81438 0.31132 0.64249 0.0
C2041 C 0.80904 0.28726 0.6461 0.0
C2042 C 0.81185 0.31578 0.61852 0.0
C2043 C 0.80401 0.29566 0.59792 0.0
C2044 C 0.80145 0.27136 0.6014 0.0
C2045 C 0.80383 0.26741 0.62554 0.0
C2046 C 0.8152 0.34197 0.61544 0.0
C2047 C 0.79358 0.24944 0.57978 0.0
H2048 H 0.74433 0.30025 0.54412 0.0
H2049 H 0.80251 0.30468 0.51637 0.0
H2050 H 0.75878 0.27884 0.59562 0.0
H2051 H 0.76673 0.31142 0.60739 0.0
H2052 H 0.74231 0.29793 0.58474 0.0
H2053 H 0.83586 0.30994 0.54367 0.0
H2054 H 0.8373 0.31311 0.57667 0.0
H2055 H 0.83018 0.28317 0.55661 0.0
H2056 H 0.819 0.32671 0.6584 0.0
H2057 H 0.79968 0.24874 0.62811 0.0
H2058 H 0.79948 0.34656 0.61185 0.0
H2059 H 0.8228 0.34437 0.59933 0.0
H2060 H 0.82527 0.35517 0.63236 0.0
H2061 H 0.7762 0.24684 0.57293 0.0
H2062 H 0.79619 0.2323 0.58514 0.0
H2063 H 0.80173 0.25242 0.56421 0.0
C2064 C 0.46867 0.0319 0.35874 0.0
C2065 C 0.4528 0.04527 0.35703 0.0
C2066 C 0.47989 0.02969 0.38193 0.0
C2067 C 0.47566 0.04126 0.4048 0.0
C2068 C 0.45944 0.05454 0.40325 0.0
C2069 C 0.4483 0.05631 0.37971 0.0
C2070 C 0.49666 0.01513 0.3819 0.0
C2071 C 0.45413 0.0674 0.42664 0.0
C2072 C 0.49564 0.02063 0.46579 0.0
C2073 C 0.51519 0.0381 0.47635 0.0
C2074 C 0.48261 0.02153 0.44298 0.0
C2075 C 0.48889 0.04041 0.43001 0.0
C2076 C 0.50843 0.05823 0.44097 0.0
C2077 C 0.52112 0.05681 0.46355 0.0
C2078 C 0.46218 1.00192 0.43247 0.0
C2079 C 0.5162 0.07891 0.42865 0.0
H2080 H 0.47257 0.0232 0.34173 0.0
H2081 H 0.4363 0.06683 0.37913 0.0
H2082 H 0.51256 0.02743 0.391 0.0
H2083 H 0.49328 1.0008 0.39278 0.0
H2084 H 0.49745 1.00612 0.36283 0.0
H2085 H 0.44068 0.07615 0.4227 0.0
H2086 H 0.44987 0.05415 0.43843 0.0
H2087 H 0.46836 0.08177 0.43757 0.0
H2088 H 0.49064 1.00596 0.47512 0.0
H2089 H 0.53604 0.07055 0.47121 0.0
H2090 H 0.46304 0.99145 0.41404 0.0
H2091 H 0.4485 0.0105 0.42959 0.0
H2092 H 0.45897 0.98888 0.44477 0.0
H2093 H 0.51912 0.0713 0.41013 0.0
H2094 H 0.53119 0.09189 0.43979 0.0
H2095 H 0.50379 0.08928 0.42571 0.0
C2096 C 0.79567 0.72958 0.10313 0.0
C2097 C 0.78398 0.7059 0.09023 0.0
C2098 C 0.79449 0.73877 0.12787 0.0
C2099 C 0.78183 0.72369 0.14035 0.0
C2100 C 0.76973 0.69992 0.12729 0.0
C2101 C 0.77072 0.69146 0.10232 0.0
C2102 C 0.80717 0.76446 0.14085 0.0
C2103 C 0.75648 0.68297 0.14002 0.0
C2104 C 0.79948 0.73743 0.21073 0.0
C2105 C 0.78417 0.74915 0.2188 0.0
C2106 C 0.79863 0.72868 0.18536 0.0
C2107 C 0.78234 0.73222 0.16744 0.0
C2108 C 0.76685 0.74417 0.17547 0.0
C2109 C 0.76777 0.75219 0.20108 0.0
C2110 C 0.8152 0.71559 0.17778 0.0
C2111 C 0.74963 0.74897 0.15699 0.0
H2112 H 0.8059 0.7409 0.09392 0.0
H2113 H 0.76183 0.67304 0.09261 0.0
H2114 H 0.79675 0.77494 0.14964 0.0
H2115 H 0.82009 0.76362 0.15587 0.0
H2116 H 0.81451 0.77469 0.12793 0.0
H2117 H 0.74732 0.66545 0.12705 0.0
H2118 H 0.76708 0.67868 0.15531 0.0
H2119 H 0.74509 0.69208 0.14845 0.0
H2120 H 0.81204 0.73476 0.22435 0.0
H2121 H 0.75598 0.7614 0.20721 0.0
H2122 H 0.82481 0.726 0.16667 0.0
H2123 H 0.80723 0.69713 0.16588 0.0
H2124 H 0.82623 0.71339 0.19404 0.0
H2125 H 0.75704 0.7603 0.14495 0.0
H2126 H 0.73888 0.75862 0.16618 0.0
H2127 H 0.73987 0.73139 0.1447 0.0
C2128 C 0.12442 0.0311 0.72908 0.0
C2129 C 0.11628 0.04218 0.74875 0.0
C2130 C 0.11525 0.0299 0.70433 0.0
C2131 C 0.09718 0.03952 0.69913 0.0
C2132 C 0.08889 0.05079 0.7189 0.0
C2133 C 0.0987 0.05224 0.74353 0.0
C2134 C 0.12487 0.01832 0.68375 0.0
C2135 C 0.06944 0.0609 0.71399 0.0
C2136 C 0.08421 0.05523 0.63626 0.0
C2137 C 0.06886 0.03397 0.62286 0.0
C2138 C 0.09359 0.05727 0.66113 0.0
C2139 C 0.08706 0.03782 0.67295 0.0
C2140 C 0.07126 0.01651 0.65958 0.0
C2141 C 0.06251 0.01474 0.63458 0.0
C2142 C 0.11078 0.07999 0.6746 0.0
C2143 C 0.0636 0.99557 0.67165 0.0
H2144 H 0.1381 0.02345 0.73303 0.0
H2145 H 0.09225 0.06067 0.75868 0.0
H2146 H 0.11298 1.00204 0.67165 0.0
H2147 H 0.12921 0.03154 0.67195 0.0
H2148 H 0.13936 0.01246 0.69097 0.0
H2149 H 0.06482 0.06883 0.73141 0.0
H2150 H 0.07252 0.07538 0.70324 0.0
H2151 H 0.05575 0.04609 0.70257 0.0
H2152 H 0.08925 0.07007 0.62714 0.0
H2153 H 0.05044 0.99843 0.62428 0.0
H2154 H 0.1258 0.07477 0.68101 0.0
H2155 H 0.106 0.08915 0.69135 0.0
H2156 H 0.11409 0.09342 0.6627 0.0
H2157 H 0.07708 0.98762 0.67781 0.0
H2158 H 0.05066 0.98071 0.65889 0.0
H2159 H 0.0576 1.00246 0.6884 0.0
C2160 C 0.77323 0.37545 0.45786 0.0
C2161 C 0.7562 0.36338 0.46697 0.0
C2162 C 0.77539 0.36735 0.43345 0.0
C2163 C 0.7605 0.34623 0.41829 0.0
C2164 C 0.74211 0.3355 0.42666 0.0
C2165 C 0.74008 0.34441 0.45104 0.0
C2166 C 0.79489 0.37969 0.42494 0.0
C2167 C 0.72596 0.31285 0.41102 0.0
C2168 C 0.76483 0.3231 0.35173 0.0
C2169 C 0.77745 0.30636 0.35478 0.0
C2170 C 0.75923 0.33647 0.37225 0.0
C2171 C 0.76628 0.33273 0.39617 0.0
C2172 C 0.77907 0.31583 0.39927 0.0
C2173 C 0.78467 0.30301 0.3785 0.0
C2174 C 0.746 0.35471 0.36831 0.0
C2175 C 0.78657 0.31097 0.42449 0.0
H2176 H 0.78584 0.38987 0.47048 0.0
H2177 H 0.72721 0.33475 0.45842 0.0
H2178 H 0.80676 0.36837 0.4258 0.0
H2179 H 0.79065 0.38136 0.40541 0.0
H2180 H 0.80254 0.39826 0.43684 0.0
H2181 H 0.71109 0.30913 0.41845 0.0
H2182 H 0.72181 0.31473 0.39155 0.0
H2183 H 0.73298 0.29671 0.41072 0.0
H2184 H 0.75916 0.32556 0.33328 0.0
H2185 H 0.7943 0.28993 0.38078 0.0
H2186 H 0.75644 0.37361 0.37474 0.0
H2187 H 0.73323 0.35327 0.3793 0.0
H2188 H 0.73853 0.35212 0.34844 0.0
H2189 H 0.79671 0.32815 0.43715 0.0
H2190 H 0.79591 0.29677 0.42353 0.0
H2191 H 0.77262 0.30477 0.43284 0.0
C2192 C 0.45605 0.05453 0.19884 0.0
C2193 C 0.45552 0.03648 0.21325 0.0
C2194 C 0.46624 0.05376 0.1777 0.0
C2195 C 0.47613 0.03432 0.16991 0.0
C2196 C 0.47502 0.01581 0.18399 0.0
C2197 C 0.46516 0.01723 0.20511 0.0
C2198 C 0.46697 0.07429 0.16403 0.0
C2199 C 0.48468 0.99438 0.17696 0.0
C2200 C 0.48903 0.01946 0.10307 0.0
C2201 C 0.51138 0.02889 0.10691 0.0
C2202 C 0.47751 0.02134 0.12289 0.0
C2203 C 0.4881 0.03341 0.1478 0.0
C2204 C 0.51061 0.0434 0.15162 0.0
C2205 C 0.52177 0.04093 0.13156 0.0
C2206 C 0.45381 0.00995 0.11712 0.0
C2207 C 0.52311 0.05681 0.17719 0.0
H2208 H 0.44921 0.06983 0.20459 0.0
H2209 H 0.46519 1.003 0.21559 0.0
H2210 H 0.48384 0.08407 0.16542 0.0
H2211 H 0.45994 0.0667 0.14401 0.0
H2212 H 0.45823 0.08776 0.1715 0.0
H2213 H 0.4816 0.98067 0.1886 0.0
H2214 H 0.47811 0.98508 0.15718 0.0
H2215 H 0.50221 1.00109 0.17901 0.0
H2216 H 0.48043 0.01025 0.08441 0.0
H2217 H 0.53885 0.04876 0.13528 0.0
H2218 H 0.44513 0.02393 0.12333 0.0
H2219 H 0.45026 0.99521 0.12748 0.0
H2220 H 0.44758 1.00197 0.09697 0.0
H2221 H 0.51583 0.07171 0.18476 0.0
H2222 H 0.54011 0.06494 0.17716 0.0
H2223 H 0.52251 0.04396 0.18992 0.0
C2224 C 0.75927 0.7109 0.9497 0.0
C2225 C 0.77894 0.71347 0.96555 0.0
C2226 C 0.75813 0.72191 0.92889 0.0
C2227 C 0.7771 0.7353 0.92342 0.0
C2228 C 0.79687 0.73814 0.93951 0.0
C2229 C 0.79749 0.72755 0.96032 0.0
C2230 C 0.73667 0.71898 0.91256 0.0
C2231 C 0.81761 0.75182 0.93439 0.0
C2232 C 0.78203 0.74328 0.85797 0.0
C2233 C 0.78314 0.76843 0.86008 0.0
C2234 C 0.77914 0.73199 0.87805 0.0
C2235 C 0.77677 0.746 0.90071 0.0
C2236 C 0.7767 0.77109 0.90239 0.0
C2237 C 0.78015 0.78206 0.88221 0.0
C2238 C 0.77984 0.70539 0.87546 0.0
C2239 C 0.77381 0.78664 0.92589 0.0
H2240 H 0.74484 0.70005 0.95334 0.0
H2241 H 0.81289 0.72976 0.97214 0.0
H2242 H 0.73443 0.7372 0.91006 0.0
H2243 H 0.73593 0.70779 0.89389 0.0
H2244 H 0.72328 0.70992 0.92038 0.0
H2245 H 0.83169 0.75218 0.94859 0.0
H2246 H 0.8199 0.74304 0.91592 0.0
H2247 H 0.81712 0.77104 0.93391 0.0
H2248 H 0.78439 0.73261 0.84095 0.0
H2249 H 0.78087 0.80146 0.88391 0.0
H2250 H 0.76577 0.69486 0.88105 0.0
H2251 H 0.79431 0.70414 0.88805 0.0
H2252 H 0.78022 0.69656 0.85617 0.0
H2253 H 0.76004 0.77688 0.93261 0.0
H2254 H 0.77119 0.80468 0.92316 0.0
H2255 H 0.78824 0.79002 0.94066 0.0
C2256 C 0.87218 0.13036 0.05196 0.0
C2257 C 0.85014 0.12697 0.04416 0.0
C2258 C 0.8815 0.11048 0.04932 0.0
C2259 C 0.86835 0.08663 0.03881 0.0
C2260 C 0.84594 0.08288 0.03203 0.0
C2261 C 0.83704 0.10327 0.03458 0.0
C2262 C 0.90556 0.11524 0.05652 0.0
C2263 C 0.83155 0.05754 0.02122 0.0
C2264 C 0.89949 0.04667 0.00739 0.0
C2265 C 0.90683 0.03613 0.02675 0.0
C2266 C 0.88542 0.0618 0.01037 0.0
C2267 C 0.87855 0.06619 0.03319 0.0
C2268 C 0.88455 0.05399 0.05203 0.0
C2269 C 0.89881 0.03913 0.04863 0.0
C2270 C 0.87955 0.07484 0.99002 0.0
C2271 C 0.87728 0.05813 0.07646 0.0
H2272 H 0.8824 0.14874 0.05896 0.0
H2273 H 0.81997 0.10073 0.02859 0.0
H2274 H 0.90997 0.10377 0.06958 0.0
H2275 H 0.91218 0.11009 0.03975 0.0
H2276 H 0.91329 0.13482 0.0654 0.0
H2277 H 0.8144 0.05742 0.02004 0.0
H2278 H 0.83404 0.05077 1.00226 0.0
H2279 H 0.83555 0.04445 0.0326 0.0
H2280 H 0.9059 0.0445 0.99058 0.0
H2281 H 0.90441 0.03069 0.06347 0.0
H2282 H 0.88793 0.09462 0.99603 0.0
H2283 H 0.86215 0.07363 0.98631 0.0
H2284 H 0.88405 0.06714 0.97243 0.0
H2285 H 0.88623 0.07648 0.0879 0.0
H2286 H 0.88009 0.04405 0.08712 0.0
H2287 H 0.86004 0.05789 0.07341 0.0
C2288 C 0.39899 0.42688 0.07849 0.0
C2289 C 0.38159 0.43602 0.06961 0.0
C2290 C 0.41991 0.4373 0.07586 0.0
C2291 C 0.42369 0.45749 0.06421 0.0
C2292 C 0.4061 0.46632 0.05464 0.0
C2293 C 0.38538 0.45551 0.05739 0.0
C2294 C 0.4381 0.42714 0.08617 0.0
C2295 C 0.40924 0.48781 0.04216 0.0
C2296 C 0.47832 0.50334 0.08201 0.0
C2297 C 0.48753 0.49731 0.0614 0.0
C2298 C 0.45784 0.49031 0.08328 0.0
C2299 C 0.4461 0.47049 0.0635 0.0
C2300 C 0.45554 0.46387 0.04285 0.0
C2301 C 0.47611 0.47737 0.04201 0.0
C2302 C 0.4486 0.49819 0.10566 0.0
C2303 C 0.44372 0.4428 0.02144 0.0
H2304 H 0.39636 0.41188 0.08799 0.0
H2305 H 0.37215 0.46279 0.05045 0.0
H2306 H 0.44748 0.42284 0.07175 0.0
H2307 H 0.44909 0.44117 0.10181 0.0
H2308 H 0.43243 0.41025 0.09295 0.0
H2309 H 0.39386 0.49167 0.03453 0.0
H2310 H 0.41923 0.50449 0.05573 0.0
H2311 H 0.41786 0.4842 0.02682 0.0
H2312 H 0.48702 0.51866 0.09712 0.0
H2313 H 0.4831 0.47257 0.026 0.0
H2314 H 0.44402 0.48246 0.11448 0.0
H2315 H 0.43389 0.50422 0.09978 0.0
H2316 H 0.45999 0.5135 0.11978 0.0
H2317 H 0.43863 0.42588 0.02836 0.0
H2318 H 0.45361 0.43906 0.00741 0.0
H2319 H 0.42904 0.447 0.01222 0.0
C2320 C 0.37036 0.55535 0.77507 0.0
C2321 C 0.38806 0.55227 0.76471 0.0
C2322 C 0.35905 0.57234 0.76893 0.0
C2323 C 0.36562 0.58654 0.75195 0.0
C2324 C 0.38246 0.58225 0.73998 0.0
C2325 C 0.39356 0.56504 0.74652 0.0
C2326 C 0.34105 0.57628 0.78198 0.0
C2327 C 0.38967 0.59697 0.72162 0.0
C2328 C 0.32582 0.62266 0.73418 0.0
C2329 C 0.33374 0.6444 0.75255 0.0
C2330 C 0.33697 0.60418 0.73233 0.0
C2331 C 0.35637 0.60765 0.7493 0.0
C2332 C 0.36521 0.63029 0.76665 0.0
C2333 C 0.35372 0.64839 0.76811 0.0
C2334 C 0.32722 0.58035 0.71344 0.0
C2335 C 0.38588 0.63464 0.78513 0.0
H2336 H 0.36587 0.5452 0.78888 0.0
H2337 H 0.40726 0.56268 0.7385 0.0
H2338 H 0.34578 0.59475 0.79462 0.0
H2339 H 0.32657 0.57559 0.7683 0.0
H2340 H 0.33687 0.56232 0.79311 0.0
H2341 H 0.40005 0.58841 0.71066 0.0
H2342 H 0.37574 0.59893 0.70866 0.0
H2343 H 0.39885 0.61572 0.73176 0.0
H2344 H 0.31052 0.61972 0.72186 0.0
H2345 H 0.35981 0.66504 0.78254 0.0
H2346 H 0.32019 0.56604 0.72291 0.0
H2347 H 0.33958 0.57381 0.70444 0.0
H2348 H 0.3144 0.58225 0.69886 0.0
H2349 H 0.38338 0.62308 0.79891 0.0
H2350 H 0.39179 0.65417 0.79527 0.0
H2351 H 0.39843 0.62929 0.77563 0.0
C2352 C 0.23623 0.67194 0.54014 0.0
C2353 C 0.25725 0.6725 0.53735 0.0
C2354 C 0.2251 0.6544 0.55101 0.0
C2355 C 0.23525 0.63691 0.55934 0.0
C2356 C 0.25695 0.63841 0.55826 0.0
C2357 C 0.26769 0.65624 0.54718 0.0
C2358 C 0.20206 0.65381 0.55232 0.0
C2359 C 0.26845 0.62046 0.56755 0.0
C2360 C 0.20072 0.60262 0.59585 0.0
C2361 C 0.18714 0.58401 0.57662 0.0
C2362 C 0.21834 0.61858 0.59119 0.0
C2363 C 0.22217 0.61594 0.56674 0.0
C2364 C 0.20992 0.5955 0.548 0.0
C2365 C 0.19254 0.5797 0.55321 0.0
C2366 C 0.23124 0.63981 0.61181 0.0
C2367 C 0.21363 0.59181 0.52173 0.0
H2368 H 0.22811 0.68477 0.53304 0.0
H2369 H 0.2839 0.65681 0.54534 0.0
H2370 H 0.19148 0.63657 0.54021 0.0
H2371 H 0.19965 0.65404 0.57157 0.0
H2372 H 0.19697 0.6696 0.54634 0.0
H2373 H 0.28606 0.62708 0.57008 0.0
H2374 H 0.26448 0.61713 0.58544 0.0
H2375 H 0.26325 0.60259 0.55388 0.0
H2376 H 0.19662 0.60603 0.61402 0.0
H2377 H 0.18229 0.56495 0.53847 0.0
H2378 H 0.22405 0.65574 0.61137 0.0
H2379 H 0.24804 0.64536 0.60964 0.0
H2380 H 0.23109 0.6352 0.63028 0.0
H2381 H 0.20784 0.60564 0.51264 0.0
H2382 H 0.20504 0.57321 0.51051 0.0
H2383 H 0.23092 0.59451 0.52165 0.0
C2384 C 0.70637 0.93458 0.79017 0.0
C2385 C 0.70769 0.94976 0.81371 0.0
C2386 C 0.7161 0.91394 0.78716 0.0
C2387 C 0.72736 0.9072 0.80802 0.0
C2388 C 0.72837 0.92222 0.83169 0.0
C2389 C 0.71896 0.94284 0.83413 0.0
C2390 C 0.71448 0.89936 0.76135 0.0
C2391 C 0.73941 0.91641 0.8549 0.0
C2392 C 0.73785 0.84078 0.80409 0.0
C2393 C 0.75984 0.84419 0.80345 0.0
C2394 C 0.72725 0.86057 0.8054 0.0
C2395 C 0.73833 0.88508 0.80546 0.0
C2396 C 0.76045 0.88845 0.80437 0.0
C2397 C 0.77074 0.86848 0.80366 0.0
C2398 C 0.70401 0.85515 0.80711 0.0
C2399 C 0.77349 0.91345 0.80391 0.0
H2400 H 0.69789 0.93891 0.77393 0.0
H2401 H 0.72031 0.95356 0.85264 0.0
H2402 H 0.73072 0.89917 0.75787 0.0
H2403 H 0.70582 0.88001 0.7596 0.0
H2404 H 0.70604 0.90694 0.74685 0.0
H2405 H 0.73822 0.92887 0.87208 0.0
H2406 H 0.7323 0.89718 0.85572 0.0
H2407 H 0.75655 0.91796 0.85452 0.0
H2408 H 0.7288 0.82251 0.8039 0.0
H2409 H 0.78757 0.87199 0.80298 0.0
H2410 H 0.69446 0.8596 0.79108 0.0
H2411 H 0.70193 0.86694 0.82421 0.0
H2412 H 0.69752 0.83559 0.8074 0.0
H2413 H 0.76552 0.92054 0.78869 0.0
H2414 H 0.78993 0.91312 0.80128 0.0
H2415 H 0.77458 0.92656 0.82159 0.0
C2416 C 0.74701 0.9255 0.55734 0.0
C2417 C 0.76379 0.94053 0.57631 0.0
C2418 C 0.72744 0.93211 0.55174 0.0
C2419 C 0.72451 0.95424 0.56542 0.0
C2420 C 0.74128 0.96923 0.58477 0.0
C2421 C 0.7606 0.96223 0.58994 0.0
C2422 C 0.70997 0.91563 0.53095 0.0
C2423 C 0.73897 0.99295 0.59987 0.0
C2424 C 0.68406 0.98638 0.53747 0.0
C2425 C 0.66718 0.98049 0.54985 0.0
C2426 C 0.7025 0.97748 0.54191 0.0
C2427 C 0.70426 0.96225 0.55917 0.0
C2428 C 0.68714 0.95589 0.57142 0.0
C2429 C 0.66888 0.96512 0.56669 0.0
C2430 C 0.72037 0.98491 0.52856 0.0
C2431 C 0.68823 0.93961 0.58983 0.0
H2432 H 0.74925 0.90872 0.54665 0.0
H2433 H 0.77334 0.97401 0.60467 0.0
H2434 H 0.69504 0.91038 0.53791 0.0
H2435 H 0.70646 0.92567 0.51615 0.0
H2436 H 0.71436 0.89864 0.52263 0.0
H2437 H 0.7533 1.00226 0.61467 0.0
H2438 H 0.73625 1.0057 0.58754 0.0
H2439 H 0.72487 0.98934 0.60865 0.0
H2440 H 0.68313 0.99853 0.52472 0.0
H2441 H 0.65586 0.96019 0.57613 0.0
H2442 H 0.72448 0.96836 0.51874 0.0
H2443 H 0.7349 0.99597 0.54224 0.0
H2444 H 0.71616 0.99589 0.51484 0.0
H2445 H 0.69155 0.9221 0.58111 0.0
H2446 H 0.67319 0.93536 0.59687 0.0
H2447 H 0.70157 0.94875 0.60586 0.0
C2448 C 0.3666 0.44191 0.78896 0.0
C2449 C 0.38566 0.44394 0.77998 0.0
C2450 C 0.35277 0.41905 0.78704 0.0
C2451 C 0.35798 0.39743 0.77574 0.0
C2452 C 0.37668 0.39925 0.76558 0.0
C2453 C 0.39034 0.42259 0.76774 0.0
C2454 C 0.333 0.41803 0.79811 0.0
C2455 C 0.38265 0.37653 0.75335 0.0
C2456 C 0.33253 0.34279 0.79988 0.0
C2457 C 0.3137 0.33269 0.78192 0.0
C2458 C 0.3479 0.36287 0.7972 0.0
C2459 C 0.34425 0.37314 0.77611 0.0
C2460 C 0.32571 0.36216 0.75735 0.0
C2461 C 0.31061 0.34209 0.76053 0.0
C2462 C 0.36738 0.37404 0.8177 0.0
C2463 C 0.32122 0.37243 0.73456 0.0
H2464 H 0.3627 0.45834 0.79817 0.0
H2465 H 0.40507 0.42401 0.76086 0.0
H2466 H 0.31859 0.40749 0.78399 0.0
H2467 H 0.33409 0.40837 0.81364 0.0
H2468 H 0.3308 0.43661 0.8053 0.0
H2469 H 0.39648 0.38105 0.74427 0.0
H2470 H 0.3868 0.36598 0.76748 0.0
H2471 H 0.36888 0.36436 0.73926 0.0
H2472 H 0.33484 0.33572 0.81659 0.0
H2473 H 0.29611 0.33413 0.74654 0.0
H2474 H 0.36614 0.39217 0.82774 0.0
H2475 H 0.38205 0.3772 0.80987 0.0
H2476 H 0.36915 0.36223 0.8313 0.0
H2477 H 0.31689 0.39017 0.73984 0.0
H2478 H 0.30788 0.35977 0.72018 0.0
H2479 H 0.33567 0.37609 0.72639 0.0
C2480 C 0.23138 0.5948 0.33845 0.0
C2481 C 0.21017 0.58249 0.32636 0.0
C2482 C 0.24134 0.61873 0.33582 0.0
C2483 C 0.22993 0.63171 0.32124 0.0
C2484 C 0.20847 0.61948 0.30911 0.0
C2485 C 0.19907 0.59524 0.31153 0.0
C2486 C 0.2643 0.63012 0.34866 0.0
C2487 C 0.19517 0.63221 0.2938 0.0
C2488 C 0.25072 0.70316 0.33408 0.0
C2489 C 0.26081 0.70693 0.31408 0.0
C2490 C 0.24047 0.67921 0.33639 0.0
C2491 C 0.24046 0.65781 0.31866 0.0
C2492 C 0.25091 0.66155 0.29863 0.0
C2493 C 0.26056 0.68572 0.29643 0.0
C2494 C 0.22937 0.67686 0.35785 0.0
C2495 C 0.25215 0.63986 0.2795 0.0
H2496 H 0.24041 0.5856 0.35 0.0
H2497 H 0.18269 0.58649 0.3022 0.0
H2498 H 0.27396 0.63534 0.33491 0.0
H2499 H 0.26539 0.64718 0.36243 0.0
H2500 H 0.27146 0.6175 0.35836 0.0
H2501 H 0.17862 0.62083 0.28612 0.0
H2502 H 0.19442 0.64988 0.30535 0.0
H2503 H 0.20271 0.63658 0.27816 0.0
H2504 H 0.2505 0.71908 0.34785 0.0
H2505 H 0.26823 0.68794 0.28085 0.0
H2506 H 0.23703 0.66625 0.36978 0.0
H2507 H 0.21245 0.66657 0.35079 0.0
H2508 H 0.22983 0.69503 0.36945 0.0
H2509 H 0.25986 0.62737 0.28878 0.0
H2510 H 0.26133 0.64549 0.26546 0.0
H2511 H 0.23584 0.62921 0.26976 0.0
C2512 C 0.50327 0.69461 0.50473 0.0
C2513 C 0.50834 0.69668 0.48156 0.0
C2514 C 0.50774 0.67566 0.5162 0.0
C2515 C 0.51693 0.65775 0.50393 0.0
C2516 C 0.52228 0.65986 0.48063 0.0
C2517 C 0.51819 0.67943 0.4699 0.0
C2518 C 0.50229 0.67459 0.54131 0.0
C2519 C 0.53166 0.64094 0.4666 0.0
C2520 C 0.54381 0.6177 0.54018 0.0
C2521 C 0.52766 0.59587 0.5354 0.0
C2522 C 0.54044 0.63803 0.53047 0.0
C2523 C 0.52051 0.63655 0.51522 0.0
C2524 C 0.50405 0.61468 0.5106 0.0
C2525 C 0.50778 0.59473 0.52081 0.0
C2526 C 0.55833 0.66104 0.53631 0.0
C2527 C 0.48262 0.61207 0.4943 0.0
H2528 H 0.49563 0.70778 0.51389 0.0
H2529 H 0.52186 0.68058 0.45182 0.0
H2530 H 0.48963 0.65773 0.53975 0.0
H2531 H 0.51649 0.67362 0.55451 0.0
H2532 H 0.4966 0.69079 0.54918 0.0
H2533 H 0.53513 0.64524 0.44882 0.0
H2534 H 0.54666 0.6397 0.47814 0.0
H2535 H 0.52036 0.62256 0.46252 0.0
H2536 H 0.55929 0.61884 0.55129 0.0
H2537 H 0.49523 0.57794 0.51673 0.0
H2538 H 0.55268 0.67716 0.54439 0.0
H2539 H 0.56344 0.66445 0.51897 0.0
H2540 H 0.57243 0.65978 0.54953 0.0
H2541 H 0.47519 0.62681 0.50187 0.0
H2542 H 0.47144 0.594 0.4927 0.0
H2543 H 0.48478 0.61414 0.47542 0.0
C2544 C 0.64977 0.30734 0.70325 0.0
C2545 C 0.63195 0.29693 0.71241 0.0
C2546 C 0.67073 0.30724 0.71448 0.0
C2547 C 0.67406 0.2968 0.73558 0.0
C2548 C 0.65611 0.28621 0.74473 0.0
C2549 C 0.63544 0.28628 0.73304 0.0
C2550 C 0.68937 0.31841 0.70389 0.0
C2551 C 0.65873 0.27513 0.76728 0.0
C2552 C 0.72537 0.27795 0.75865 0.0
C2553 C 0.73582 0.29777 0.77859 0.0
C2554 C 0.70578 0.27788 0.74368 0.0
C2555 C 0.6962 0.29788 0.74901 0.0
C2556 C 0.70705 0.31813 0.76877 0.0
C2557 C 0.72667 0.31788 0.78311 0.0
C2558 C 0.695 0.25606 0.72262 0.0
C2559 C 0.69751 0.33974 0.77549 0.0
H2560 H 0.64736 0.3155 0.68728 0.0
H2561 H 0.62194 0.27819 0.74043 0.0
H2562 H 0.70001 0.33442 0.71781 0.0
H2563 H 0.69898 0.30486 0.69969 0.0
H2564 H 0.68417 0.32457 0.68668 0.0
H2565 H 0.64316 0.26729 0.77191 0.0
H2566 H 0.6673 0.26036 0.76411 0.0
H2567 H 0.66854 0.28937 0.78357 0.0
H2568 H 0.73227 0.26229 0.75502 0.0
H2569 H 0.73463 0.33331 0.79843 0.0
H2570 H 0.69028 0.26229 0.70533 0.0
H2571 H 0.68017 0.2458 0.72704 0.0
H2572 H 0.70545 0.2433 0.71912 0.0
H2573 H 0.69352 0.34738 0.75895 0.0
H2574 H 0.70847 0.35463 0.79044 0.0
H2575 H 0.68242 0.33357 0.78185 0.0
C2576 C 1.00166 0.33146 1.00156 0.0
C2577 C 1.00654 0.32114 0.97902 0.0
C2578 C 1.00677 0.35709 0.01067 0.0
C2579 C 0.01653 0.37292 0.99664 0.0
C2580 C 0.02192 0.36263 0.97414 0.0
C2581 C 0.0171 0.33691 0.96576 0.0
C2582 C 1.00119 0.36724 0.03501 0.0
C2583 C 0.03188 0.37882 0.95832 0.0
C2584 C 0.00722 0.4375 0.00644 0.0
C2585 C 0.02691 0.45179 0.02084 0.0
C2586 C 1.00376 0.41192 0.99816 0.0
C2587 C 0.0202 0.4002 0.00493 0.0
C2588 C 0.04003 0.41455 0.01973 0.0
C2589 C 0.04321 0.44015 0.02725 0.0
C2590 C 0.98253 0.39744 0.98201 0.0
C2591 C 0.05781 0.40283 0.0279 0.0
H2592 H 0.99349 0.31946 0.01194 0.0
H2593 H 0.02066 0.3292 0.94815 0.0
H2594 H 0.01534 0.38063 0.04743 0.0
H2595 H 0.98855 0.37723 0.03165 0.0
H2596 H 0.9954 0.35258 0.04474 0.0
H2597 H 0.03585 0.36805 0.9418 0.0
H2598 H 0.02068 0.38962 0.95188 0.0
H2599 H 0.04667 0.39214 0.9694 0.0
H2600 H 0.99457 0.44637 1.0013 0.0
H2601 H 0.05841 0.45103 0.03857 0.0
H2602 H 0.9745 0.38371 0.99146 0.0
H2603 H 0.98507 0.38717 0.96432 0.0
H2604 H 0.97168 0.40938 0.97765 0.0
H2605 H 0.05216 0.38897 0.03855 0.0
H2606 H 0.07214 0.41652 0.03968 0.0
H2607 H 0.06255 0.39306 0.01144 0.0
C2608 C 0.99693 0.79627 0.18235 0.0
C2609 C 0.0146 0.78858 0.19308 0.0
C2610 C 0.97811 0.79357 0.19199 0.0
C2611 C 0.9768 0.78286 0.21285 0.0
C2612 C 0.99431 0.77434 0.22325 0.0
C2613 C 0.01296 0.77733 0.21329 0.0
C2614 C 0.95988 0.80296 0.18036 0.0
C2615 C 0.9936 0.76274 0.24544 0.0
C2616 C 0.93916 0.80029 0.25489 0.0
C2617 C 0.92165 0.77967 0.24764 0.0
C2618 C 0.95709 0.80153 0.24373 0.0
C2619 C 0.95762 0.78177 0.22461 0.0
C2620 C 0.93988 0.76109 0.21686 0.0
C2621 C 0.92217 0.76026 0.22848 0.0
C2622 C 0.97556 0.82401 0.2525 0.0
C2623 C 0.93971 0.73966 0.19652 0.0
H2624 H 0.99799 0.80513 0.16683 0.0
H2625 H 0.0265 0.7714 0.22178 0.0
H2626 H 0.94483 0.7883 0.1755 0.0
H2627 H 0.95744 0.81839 0.19392 0.0
H2628 H 0.96284 0.8095 0.16336 0.0
H2629 H 0.00793 0.75568 0.25037 0.0
H2630 H 0.99255 0.77649 0.2617 0.0
H2631 H 0.97914 0.74735 0.24167 0.0
H2632 H 0.93885 0.81562 0.26932 0.0
H2633 H 0.90893 0.74408 0.2229 0.0
H2634 H 0.97849 0.83274 0.23674 0.0
H2635 H 0.99033 0.81863 0.25955 0.0
H2636 H 0.97266 0.83785 0.26749 0.0
H2637 H 0.94215 0.74608 0.17934 0.0
H2638 H 0.92451 0.72521 0.1922 0.0
H2639 H 0.95311 0.73135 0.20213 0.0
C2640 C 0.56735 0.31143 0.16326 0.0
C2641 C 0.54506 0.30448 0.16065 0.0
C2642 C 0.57684 0.32986 0.15213 0.0
C2643 C 0.56367 0.34161 0.13852 0.0
C2644 C 0.54119 0.33466 0.13584 0.0
C2645 C 0.53217 0.31607 0.14685 0.0
C2646 C 0.60084 0.3368 0.15495 0.0
C2647 C 0.5266 0.34691 0.12142 0.0
C2648 C 0.57869 0.40411 0.12538 0.0
C2649 C 0.57621 0.39778 0.0995 0.0
C2650 C 0.57687 0.38592 0.13915 0.0
C2651 C 0.57294 0.36109 0.12661 0.0
C2652 C 0.57333 0.35498 0.10108 0.0
C2653 C 0.57471 0.37345 0.08768 0.0
C2654 C 0.57657 0.39305 0.16643 0.0
C2655 C 0.56967 0.32866 0.08727 0.0
H2656 H 0.57738 0.30246 0.17392 0.0
H2657 H 0.51496 0.31088 0.1449 0.0
H2658 H 0.60523 0.33622 0.13649 0.0
H2659 H 0.60734 0.35592 0.16594 0.0
H2660 H 0.60864 0.32446 0.16438 0.0
H2661 H 0.5095 0.33959 0.12167 0.0
H2662 H 0.53096 0.367 0.12931 0.0
H2663 H 0.52849 0.34413 0.10179 0.0
H2664 H 0.58047 0.42306 0.13462 0.0
H2665 H 0.57272 0.36836 0.06766 0.0
H2666 H 0.58522 0.38235 0.17723 0.0
H2667 H 0.55977 0.38891 0.16895 0.0
H2668 H 0.58379 0.41296 0.17418 0.0
H2669 H 0.57825 0.31822 0.09854 0.0
H2670 H 0.57496 0.32754 0.06923 0.0
H2671 H 0.55236 0.31961 0.08348 0.0
C2672 C 0.95113 0.31734 0.31441 0.0
C2673 C 0.95934 0.31968 0.33957 0.0
C2674 C 0.92987 0.31801 0.30655 0.0
C2675 C 0.91696 0.32117 0.32443 0.0
C2676 C 0.92607 0.32634 0.35005 0.0
C2677 C 0.94722 0.32531 0.35732 0.0
C2678 C 0.92066 0.31259 0.27908 0.0
C2679 C 0.91291 0.33014 0.36971 0.0
C2680 C 0.85976 0.32539 0.30694 0.0
C2681 C 0.84866 0.30094 0.30474 0.0
C2682 C 0.88214 0.33227 0.31271 0.0
C2683 C 0.89347 0.31431 0.31652 0.0
C2684 C 0.88234 0.28958 0.31401 0.0
C2685 C 0.86005 0.28319 0.30808 0.0
C2686 C 0.89365 0.35873 0.31513 0.0
C2687 C 0.89394 0.26989 0.31812 0.0
H2688 H 0.96062 0.31272 0.3008 0.0
H2689 H 0.95383 0.3272 0.37681 0.0
H2690 H 0.9113 0.29318 0.27296 0.0
H2691 H 0.90965 0.32438 0.27494 0.0
H2692 H 0.93338 0.31537 0.26807 0.0
H2693 H 0.92312 0.33821 0.38847 0.0
H2694 H 0.90232 0.34233 0.36542 0.0
H2695 H 0.90258 0.31217 0.37017 0.0
H2696 H 0.85101 0.33919 0.30424 0.0
H2697 H 0.85155 0.26431 0.30644 0.0
H2698 H 0.90545 0.35981 0.30284 0.0
H2699 H 0.90268 0.36662 0.33446 0.0
H2700 H 0.8825 0.37021 0.31036 0.0
H2701 H 0.90551 0.26897 0.30562 0.0
H2702 H 0.88285 0.25143 0.31472 0.0
H2703 H 0.90313 0.2745 0.33751 0.0
C2704 C 0.0494 0.6911 0.65451 0.0
C2705 C 0.02849 0.68876 0.65852 0.0
C2706 C 0.05419 0.67369 0.63661 0.0
C2707 C 0.03777 0.65318 0.62299 0.0
C2708 C 0.01668 0.6505 0.62725 0.0
C2709 C 0.01221 0.66862 0.64474 0.0
C2710 C 0.07676 0.67727 0.63222 0.0
C2711 C 0.99897 0.62831 0.61365 0.0
C2712 C 0.04217 0.61385 0.56262 0.0
C2713 C 0.04784 0.59398 0.57096 0.0
C2714 C 0.03987 0.63402 0.57957 0.0
C2715 C 0.04284 0.6338 0.60519 0.0
C2716 C 0.04957 0.6143 0.61376 0.0
C2717 C 0.05241 0.59486 0.59656 0.0
C2718 C 0.03324 0.65495 0.56998 0.0
C2719 C 0.05235 0.61311 0.64087 0.0
H2720 H 0.06193 0.70693 0.66492 0.0
H2721 H 0.99606 0.66688 0.64791 0.0
H2722 H 0.08354 0.662 0.63687 0.0
H2723 H 0.07676 0.67689 0.61229 0.0
H2724 H 0.0874 0.69491 0.64351 0.0
H2725 H 0.98345 0.62909 0.61911 0.0
H2726 H 0.99696 0.62682 0.59331 0.0
H2727 H 1.00318 0.61132 0.61757 0.0
H2728 H 0.03863 0.61317 0.54286 0.0
H2729 H 0.05692 0.57958 0.60316 0.0
H2730 H 0.04364 0.67282 0.58099 0.0
H2731 H 0.01662 0.6548 0.57208 0.0
H2732 H 0.03402 0.65368 0.55008 0.0
H2733 H 0.06341 0.6302 0.65264 0.0
H2734 H 0.05863 0.59719 0.64459 0.0
H2735 H 0.03673 0.61156 0.6467 0.0
C2736 C 0.5847 0.78988 0.85832 0.0
C2737 C 0.58141 0.81369 0.8625 0.0
C2738 C 0.60289 0.78526 0.85029 0.0
C2739 C 0.61846 0.80504 0.84698 0.0
C2740 C 0.61584 0.8293 0.85229 0.0
C2741 C 0.59711 0.83334 0.85973 0.0
C2742 C 0.60503 0.75905 0.84442 0.0
C2743 C 0.63258 0.85078 0.84954 0.0
C2744 C 0.67064 0.78816 0.84349 0.0
C2745 C 0.66915 0.78173 0.8177 0.0
C2746 C 0.65497 0.79763 0.85338 0.0
C2747 C 0.63702 0.79983 0.83707 0.0
C2748 C 0.63563 0.79405 0.81107 0.0
C2749 C 0.65191 0.78539 0.8017 0.0
C2750 C 0.65711 0.80407 0.88123 0.0
C2751 C 0.61644 0.79579 0.79315 0.0
H2752 H 0.57259 0.77454 0.86031 0.0
H2753 H 0.59464 0.85176 0.86305 0.0
H2754 H 0.60588 0.75364 0.82456 0.0
H2755 H 0.62005 0.75745 0.85563 0.0
H2756 H 0.59145 0.7458 0.84813 0.0
H2757 H 0.62904 0.86868 0.85658 0.0
H2758 H 0.64854 0.85064 0.85972 0.0
H2759 H 0.6335 0.8492 0.82968 0.0
H2760 H 0.68371 0.78507 0.85606 0.0
H2761 H 0.65093 0.7811 0.78179 0.0
H2762 H 0.64558 0.78997 0.88697 0.0
H2763 H 0.65329 0.82202 0.88714 0.0
H2764 H 0.67344 0.80497 0.89122 0.0
H2765 H 0.60207 0.78219 0.79464 0.0
H2766 H 0.61853 0.7922 0.77357 0.0
H2767 H 0.61331 0.81426 0.79788 0.0
C2768 C 0.49291 0.50606 0.70752 0.0
C2769 C 0.47185 0.50654 0.70939 0.0
C2770 C 0.50083 0.51055 0.68644 0.0
C2771 C 0.48745 0.51597 0.66677 0.0
C2772 C 0.46595 0.51576 0.66814 0.0
C2773 C 0.45833 0.51089 0.68942 0.0
C2774 C 0.52376 0.51019 0.68556 0.0
C2775 C 0.45129 0.52162 0.64759 0.0
C2776 C 0.5182 0.55305 0.62801 0.0
C2777 C 0.51836 0.53466 0.60781 0.0
C2778 C 0.50725 0.5474 0.64676 0.0
C2779 C 0.49643 0.52273 0.64534 0.0
C2780 C 0.49593 0.50426 0.62446 0.0
C2781 C 0.50684 0.51047 0.6059 0.0
C2782 C 0.50803 0.56766 0.66861 0.0
C2783 C 0.48483 0.47772 0.62234 0.0
H2784 H 0.50341 0.50262 0.72283 0.0
H2785 H 0.4421 0.51152 0.69084 0.0
H2786 H 0.5245 0.49757 0.66828 0.0
H2787 H 0.53297 0.52881 0.68528 0.0
H2788 H 0.53167 0.50429 0.70173 0.0
H2789 H 0.43467 0.51921 0.65073 0.0
H2790 H 0.45737 0.54092 0.64624 0.0
H2791 H 0.45103 0.50971 0.62946 0.0
H2792 H 0.52709 0.57175 0.62948 0.0
H2793 H 0.50706 0.49613 0.59038 0.0
H2794 H 0.51749 0.56471 0.68562 0.0
H2795 H 0.49168 0.56736 0.67192 0.0
H2796 H 0.51537 0.58612 0.66581 0.0
H2797 H 0.49332 0.47045 0.63704 0.0
H2798 H 0.48436 0.46598 0.60399 0.0
H2799 H 0.46823 0.47617 0.62523 0.0
C2800 C 0.88384 0.24827 0.05205 0.0
C2801 C 0.86973 0.23738 0.06553 0.0
C2802 C 0.87697 0.26168 0.03505 0.0
C2803 C 0.85561 0.26397 0.0318 0.0
C2804 C 0.84225 0.25551 0.04765 0.0
C2805 C 0.84952 0.24216 0.06438 0.0
C2806 C 0.89167 0.27062 0.01852 0.0
C2807 C 0.81948 0.25796 0.0449 0.0
C2808 C 0.83574 0.30001 0.98649 0.0
C2809 C 0.82635 0.28114 0.96534 0.0
C2810 C 0.84546 0.29481 0.00842 0.0
C2811 C 0.84594 0.27028 0.00892 0.0
C2812 C 0.83656 0.2512 0.98758 0.0
C2813 C 0.82677 0.25687 0.96608 0.0
C2814 C 0.85527 0.31546 0.03094 0.0
C2815 C 0.83674 0.22472 0.98745 0.0
H2816 H 0.89937 0.24417 0.05285 0.0
H2817 H 0.83873 0.23363 0.07497 0.0
H2818 H 0.88712 0.25766 1.00011 0.0
H2819 H 0.89022 0.28894 0.0155 0.0
H2820 H 0.90862 0.27176 0.02645 0.0
H2821 H 0.81215 0.25313 0.06058 0.0
H2822 H 0.81876 0.27699 0.04375 0.0
H2823 H 0.80972 0.24556 0.02738 0.0
H2824 H 0.83566 0.31886 0.98582 0.0
H2825 H 0.81919 0.24223 0.94989 0.0
H2826 H 0.87275 0.31736 0.03568 0.0
H2827 H 0.84865 0.31126 0.04722 0.0
H2828 H 0.85245 0.33333 0.02789 0.0
H2829 H 0.85344 0.22303 0.99179 0.0
H2830 H 0.82868 0.21218 0.96926 0.0
H2831 H 0.8286 0.21853 1.002 0.0
C2832 C 0.10528 0.52844 0.22956 0.0
C2833 C 0.12035 0.51439 0.23408 0.0
C2834 C 0.09495 0.52864 0.20529 0.0
C2835 C 0.09941 0.51448 0.18399 0.0
C2836 C 0.11479 0.50041 0.18819 0.0
C2837 C 0.12497 0.50048 0.2129 0.0
C2838 C 0.07887 0.54398 0.20252 0.0
C2839 C 0.12038 0.48503 0.16643 0.0
C2840 C 0.05501 0.49738 0.1243 0.0
C2841 C 0.0617 0.51509 0.11067 0.0
C2842 C 0.06726 0.49654 0.14736 0.0
C2843 C 0.0872 0.51379 0.15778 0.0
C2844 C 0.09439 0.5314 0.14379 0.0
C2845 C 0.08168 0.53189 0.12065 0.0
C2846 C 0.05843 0.47739 0.16094 0.0
C2847 C 0.11542 0.55017 0.15359 0.0
H2848 H 0.10128 0.53943 0.24526 0.0
H2849 H 0.13644 0.4895 0.21558 0.0
H2850 H 0.08349 0.55709 0.19071 0.0
H2851 H 0.06294 0.53194 0.19308 0.0
H2852 H 0.07743 0.55453 0.22067 0.0
H2853 H 0.1332 0.47598 0.17231 0.0
H2854 H 0.106 0.47067 0.1559 0.0
H2855 H 0.12566 0.49665 0.15353 0.0
H2856 H 0.03974 0.48418 0.11708 0.0
H2857 H 0.08727 0.54573 0.11062 0.0
H2858 H 0.05517 0.48652 0.17873 0.0
H2859 H 0.07035 0.46677 0.1655 0.0
H2860 H 0.0434 0.46439 0.14993 0.0
H2861 H 0.11451 0.56269 0.17086 0.0
H2862 H 0.11978 0.56134 0.13996 0.0
H2863 H 0.12833 0.54093 0.15846 0.0
C2864 C 0.82328 0.83034 0.49567 0.0
C2865 C 0.81779 0.85219 0.50515 0.0
C2866 C 0.81854 0.81995 0.47 0.0
C2867 C 0.8085 0.83194 0.45321 0.0
C2868 C 0.80243 0.85367 0.46268 0.0
C2869 C 0.80692 0.86337 0.48851 0.0
C2870 C 0.82487 0.79649 0.4608 0.0
C2871 C 0.79211 0.86733 0.44544 0.0
C2872 C 0.81952 0.82047 0.38756 0.0
C2873 C 0.80029 0.80437 0.3739 0.0
C2874 C 0.82221 0.82988 0.41322 0.0
C2875 C 0.8055 0.82253 0.42574 0.0
C2876 C 0.78614 0.80602 0.41204 0.0
C2877 C 0.78368 0.7974 0.38626 0.0
C2878 C 0.84295 0.84781 0.42693 0.0
C2879 C 0.76812 0.79716 0.42464 0.0
H2880 H 0.83164 0.82152 0.50833 0.0
H2881 H 0.80283 0.8804 0.49556 0.0
H2882 H 0.81108 0.78288 0.44798 0.0
H2883 H 0.83773 0.80026 0.45019 0.0
H2884 H 0.83067 0.78818 0.47625 0.0
H2885 H 0.78744 0.8833 0.45567 0.0
H2886 H 0.80339 0.87404 0.43382 0.0
H2887 H 0.7777 0.85484 0.43265 0.0
H2888 H 0.8324 0.82603 0.37809 0.0
H2889 H 0.76887 0.78474 0.37586 0.0
H2890 H 0.85107 0.83994 0.44137 0.0
H2891 H 0.8397 0.86502 0.43657 0.0
H2892 H 0.85403 0.85246 0.41435 0.0
H2893 H 0.77384 0.78803 0.4394 0.0
H2894 H 0.75426 0.784 0.41143 0.0
H2895 H 0.76264 0.813 0.43372 0.0
C2896 C 0.48795 0.50097 0.84857 0.0
C2897 C 0.46858 0.5077 0.84334 0.0
C2898 C 0.49786 0.50245 0.87318 0.0
C2899 C 0.48793 0.51043 0.89286 0.0
C2900 C 0.46817 0.51669 0.88765 0.0
C2901 C 0.4589 0.51552 0.86302 0.0
C2902 C 0.51909 0.49591 0.87819 0.0
C2903 C 0.45686 0.52481 0.90811 0.0
C2904 C 0.50221 0.49386 0.95492 0.0
C2905 C 0.51509 0.51631 0.96945 0.0
C2906 C 0.49345 0.49162 0.92984 0.0
C2907 C 0.49804 0.5122 0.919 0.0
C2908 C 0.51133 0.5348 0.9335 0.0
C2909 C 0.51955 0.53664 0.95866 0.0
C2910 C 0.47889 0.46743 0.9151 0.0
C2911 C 0.51672 0.55709 0.92251 0.0
H2912 H 0.49565 0.49514 0.8335 0.0
H2913 H 0.44411 0.52097 0.85939 0.0
H2914 H 0.53129 0.51199 0.89023 0.0
H2915 H 0.51785 0.48083 0.88834 0.0
H2916 H 0.52474 0.49009 0.86083 0.0
H2917 H 0.44115 0.52812 0.9008 0.0
H2918 H 0.45425 0.51064 0.91931 0.0
H2919 H 0.46692 0.542 0.92082 0.0
H2920 H 0.49864 0.4781 0.96325 0.0
H2921 H 0.52964 0.55396 0.96982 0.0
H2922 H 0.48506 0.46072 0.89842 0.0
H2923 H 0.46278 0.47002 0.90847 0.0
H2924 H 0.47727 0.45305 0.92618 0.0
H2925 H 0.52363 0.55246 0.90587 0.0
H2926 H 0.52826 0.57283 0.93597 0.0
H2927 H 0.50198 0.56294 0.91642 0.0
C2928 C 0.8245 0.19671 0.14642 0.0
C2929 C 0.81438 0.19427 0.12171 0.0
C2930 C 0.81581 0.20642 0.16612 0.0
C2931 C 0.79652 0.2137 0.16091 0.0
C2932 C 0.78524 0.2093 0.13615 0.0
C2933 C 0.79436 0.19964 0.11675 0.0
C2934 C 0.82812 0.21061 0.19241 0.0
C2935 C 0.76438 0.21642 0.13004 0.0
C2936 C 0.7724 0.23234 0.21634 0.0
C2937 C 0.78124 0.25768 0.22248 0.0
C2938 C 0.7766 0.21765 0.19567 0.0
C2939 C 0.78988 0.22886 0.18112 0.0
C2940 C 0.79827 0.25467 0.18696 0.0
C2941 C 0.79378 0.26883 0.20769 0.0
C2942 C 0.76742 0.1902 0.18985 0.0
C2943 C 0.81257 0.26722 0.17186 0.0
H2944 H 0.83982 0.19227 0.15048 0.0
H2945 H 0.78626 0.19746 0.09772 0.0
H2946 H 0.83484 0.23061 0.19999 0.0
H2947 H 0.81742 0.20382 0.20457 0.0
H2948 H 0.84149 0.20135 0.19341 0.0
H2949 H 0.75604 0.20818 0.11048 0.0
H2950 H 0.7536 0.21061 0.14252 0.0
H2951 H 0.76752 0.23672 0.13294 0.0
H2952 H 0.76223 0.22405 0.22764 0.0
H2953 H 0.8005 0.28854 0.21273 0.0
H2954 H 0.78049 0.18082 0.19327 0.0
H2955 H 0.75957 0.18349 0.16996 0.0
H2956 H 0.75563 0.18475 0.2014 0.0
H2957 H 0.82753 0.26081 0.17322 0.0
H2958 H 0.81685 0.28755 0.17824 0.0
H2959 H 0.80458 0.26233 0.15198 0.0
C2960 C 0.12441 0.53882 0.38499 0.0
C2961 C 0.13647 0.52127 0.38003 0.0
C2962 C 0.11436 0.54123 0.40603 0.0
C2963 C 0.11522 0.5251 0.42275 0.0
C2964 C 0.12724 0.50719 0.41773 0.0
C2965 C 0.13785 0.5058 0.39706 0.0
C2966 C 0.10266 0.56124 0.41033 0.0
C2967 C 0.12833 0.48879 0.43385 0.0
C2968 C 0.10208 0.54126 0.48934 0.0
C2969 C 0.08016 0.52971 0.48595 0.0
C2970 C 0.11344 0.5402 0.46933 0.0
C2971 C 0.10318 0.52656 0.44478 0.0
C2972 C 0.08113 0.51448 0.44144 0.0
C2973 C 0.07004 0.51646 0.46159 0.0
C2974 C 0.13654 0.55413 0.47453 0.0
C2975 C 0.06912 0.499 0.4164 0.0
H2976 H 0.12286 0.55095 0.37231 0.0
H2977 H 0.14662 0.4918 0.39368 0.0
H2978 H 0.08529 0.55296 0.40764 0.0
H2979 H 0.10812 0.57208 0.42976 0.0
H2980 H 0.1051 0.5739 0.39751 0.0
H2981 H 0.13768 0.47556 0.42748 0.0
H2982 H 0.13574 0.49843 0.45333 0.0
H2983 H 0.11194 0.47838 0.43381 0.0
H2984 H 0.11043 0.55161 0.50769 0.0
H2985 H 0.05329 0.50705 0.45825 0.0
H2986 H 0.13881 0.56695 0.46186 0.0
H2987 H 0.14675 0.54117 0.47089 0.0
H2988 H 0.14212 0.5648 0.49403 0.0
H2989 H 0.06816 0.51076 0.40269 0.0
H2990 H 0.05263 0.48929 0.41694 0.0
H2991 H 0.07779 0.48517 0.40969 0.0
C2992 C 0.79856 0.85176 0.63852 0.0
C2993 C 0.81795 0.85189 0.63057 0.0
C2994 C 0.79359 0.84059 0.65824 0.0
C2995 C 0.80844 0.82959 0.67061 0.0
C2996 C 0.82795 0.82964 0.66262 0.0
C2997 C 0.83236 0.84055 0.64276 0.0
C2998 C 0.77248 0.84065 0.66592 0.0
C2999 C 0.84439 0.81838 0.67528 0.0
C3000 C 0.80615 0.81984 0.73632 0.0
C3001 C 0.79676 0.79455 0.73179 0.0
C3002 C 0.80981 0.83154 0.71664 0.0
C3003 C 0.80369 0.81774 0.69174 0.0
C3004 C 0.79402 0.79224 0.68712 0.0
C3005 C 0.79082 0.78097 0.70714 0.0
C3006 C 0.82045 0.85864 0.72253 0.0
C3007 C 0.78711 0.77678 0.66098 0.0
H3008 H 0.78731 0.8605 0.62945 0.0
H3009 H 0.84749 0.84058 0.63712 0.0
H3010 H 0.7635 0.82152 0.66471 0.0
H3011 H 0.77525 0.85062 0.68556 0.0
H3012 H 0.76243 0.84943 0.65418 0.0
H3013 H 0.85892 0.82019 0.66708 0.0
H3014 H 0.84921 0.82736 0.69533 0.0
H3015 H 0.83741 0.79859 0.6739 0.0
H3016 H 0.81067 0.8305 0.75529 0.0
H3017 H 0.7834 0.76147 0.70342 0.0
H3018 H 0.8101 0.86854 0.71277 0.0
H3019 H 0.83568 0.86161 0.71577 0.0
H3020 H 0.82392 0.86687 0.74277 0.0
H3021 H 0.7761 0.78478 0.64957 0.0
H3022 H 0.77895 0.75747 0.66041 0.0
H3023 H 0.80122 0.77671 0.65224 0.0
C3024 C 0.70626 0.40516 0.52822 0.0
C3025 C 0.72208 0.40609 0.54865 0.0
C3026 C 0.69347 0.42209 0.52945 0.0
C3027 C 0.69705 0.44048 0.55141 0.0
C3028 C 0.71362 0.44206 0.57163 0.0
C3029 C 0.72582 0.42469 0.57006 0.0
C3030 C 0.67572 0.41983 0.5077 0.0
C3031 C 0.71809 0.46168 0.5952 0.0
C3032 C 0.67607 0.49736 0.55149 0.0
C3033 C 0.65827 0.49181 0.56245 0.0
C3034 C 0.68852 0.48046 0.54707 0.0
C3035 C 0.68302 0.4576 0.55384 0.0
C3036 C 0.66493 0.45175 0.5646 0.0
C3037 C 0.65278 0.46897 0.56881 0.0
C3038 C 0.70787 0.48732 0.53579 0.0
C3039 C 0.65861 0.42747 0.57203 0.0
H3040 H 0.70334 0.39068 0.51169 0.0
H3041 H 0.73824 0.42554 0.58576 0.0
H3042 H 0.66006 0.41554 0.51337 0.0
H3043 H 0.67726 0.43754 0.50174 0.0
H3044 H 0.67567 0.40521 0.49158 0.0
H3045 H 0.73236 0.46115 0.60861 0.0
H3046 H 0.72064 0.48016 0.59083 0.0
H3047 H 0.70411 0.45925 0.60432 0.0
H3048 H 0.68054 0.51512 0.54683 0.0
H3049 H 0.63892 0.46453 0.57702 0.0
H3050 H 0.7072 0.47293 0.51923 0.0
H3051 H 0.72257 0.48847 0.54938 0.0
H3052 H 0.70921 0.50523 0.53021 0.0
H3053 H 0.65619 0.41208 0.55577 0.0
H3054 H 0.64374 0.42554 0.57956 0.0
H3055 H 0.67162 0.42563 0.58637 0.0
C3056 C 0.19871 0.09557 0.54194 0.0
C3057 C 0.20338 0.11436 0.529 0.0
C3058 C 0.17758 0.08412 0.54239 0.0
C3059 C 0.16043 0.09168 0.52982 0.0
C3060 C 0.16493 0.1109 0.51701 0.0
C3061 C 0.18633 0.12191 0.5166 0.0
C3062 C 0.17362 0.06354 0.55603 0.0
C3063 C 0.1471 0.11969 0.50364 0.0
C3064 C 0.10714 0.04383 0.51163 0.0
C3065 C 0.09709 0.05049 0.53131 0.0
C3066 C 0.12738 0.05753 0.5105 0.0
C3067 C 0.13787 0.07866 0.52941 0.0
C3068 C 0.12742 0.08603 0.54888 0.0
C3069 C 0.1072 0.07179 0.54968 0.0
C3070 C 0.13787 0.04875 0.48953 0.0
C3071 C 0.13791 0.10855 0.56926 0.0
H3072 H 0.21165 0.08946 0.55155 0.0
H3073 H 0.1897 0.13644 0.50662 0.0
H3074 H 0.16427 0.06801 0.57042 0.0
H3075 H 0.16404 0.04637 0.54286 0.0
H3076 H 0.1887 0.06001 0.56514 0.0
H3077 H 0.15318 0.13553 0.49552 0.0
H3078 H 0.13681 0.10451 0.48851 0.0
H3079 H 0.13686 0.12517 0.51664 0.0
H3080 H 0.09938 0.02744 0.49733 0.0
H3081 H 0.0995 0.07706 0.56494 0.0
H3082 H 0.15243 0.04324 0.49709 0.0
H3083 H 0.14294 0.06383 0.48005 0.0
H3084 H 0.1271 0.03283 0.47555 0.0
H3085 H 0.15223 0.10546 0.58056 0.0
H3086 H 0.12697 0.11314 0.58173 0.0
H3087 H 0.14339 0.12458 0.56115 0.0
C3088 C 0.18145 0.99123 0.83389 0.0
C3089 C 0.18649 0.01446 0.82845 0.0
C3090 C 0.19291 0.97395 0.827 0.0
C3091 C 0.21 0.98044 0.81485 0.0
C3092 C 0.21462 1.00364 0.80848 0.0
C3093 C 0.2026 0.02049 0.81529 0.0
C3094 C 0.1874 0.94925 0.83383 0.0
C3095 C 0.2329 0.01106 0.79573 0.0
C3096 C 0.25295 0.94705 0.82801 0.0
C3097 C 0.24776 0.92806 0.80673 0.0
C3098 C 0.2413 0.96493 0.8304 0.0
C3099 C 0.2241 0.96367 0.81099 0.0
C3100 C 0.21928 0.94507 0.78906 0.0
C3101 C 0.23122 0.92739 0.78718 0.0
C3102 C 0.2469 0.9846 0.85406 0.0
C3103 C 0.20096 0.9432 0.76811 0.0
H3104 H 0.16886 0.98686 0.84411 0.0
H3105 H 0.20639 0.03867 0.81136 0.0
H3106 H 0.18551 0.93421 0.8174 0.0
H3107 H 0.20061 0.94781 0.84817 0.0
H3108 H 0.17245 0.94639 0.84121 0.0
H3109 H 0.23297 0.02865 0.78981 0.0
H3110 H 0.24826 0.01324 0.80862 0.0
H3111 H 0.23208 0.99654 0.77923 0.0
H3112 H 0.26602 0.94776 0.84291 0.0
H3113 H 0.22718 0.91258 0.77077 0.0
H3114 H 0.23363 0.98218 0.86431 0.0
H3115 H 0.249 1.00306 0.8497 0.0
H3116 H 0.26174 0.98403 0.86648 0.0
H3117 H 0.18561 0.93813 0.7743 0.0
H3118 H 0.20073 0.92921 0.75137 0.0
H3119 H 0.2019 0.96122 0.76292 0.0
C3120 C 0.30813 0.95936 0.04049 0.0
C3121 C 0.29273 0.95228 0.01829 0.0
C3122 C 0.32988 0.96717 0.04031 0.0
C3123 C 0.33621 0.96892 0.01752 0.0
C3124 C 0.32062 0.96372 0.99538 0.0
C3125 C 0.29903 0.95524 0.99599 0.0
C3126 C 0.34613 0.97203 0.06419 0.0
C3127 C 0.32681 0.96578 0.97079 0.0
C3128 C 0.39256 1.00365 0.01829 0.0
C3129 C 0.40237 0.98428 0.01278 0.0
C3130 C 0.37101 0.99896 0.02014 0.0
C3131 C 0.35917 0.97438 0.01651 0.0
C3132 C 0.36916 0.9548 0.01156 0.0
C3133 C 0.39066 0.96 0.0097 0.0
C3134 C 0.36078 0.02021 0.02543 0.0
C3135 C 0.35704 0.92835 0.00774 0.0
H3136 H 0.30328 0.95772 0.05791 0.0
H3137 H 0.28722 0.94978 0.9788 0.0
H3138 H 0.35559 0.95797 0.06289 0.0
H3139 H 0.35751 0.9902 0.06721 0.0
H3140 H 0.33855 0.97149 0.08061 0.0
H3141 H 0.31271 0.96399 0.95599 0.0
H3142 H 0.33823 0.9837 0.97259 0.0
H3143 H 0.33489 0.9511 0.96489 0.0
H3144 H 0.4016 0.02243 0.02049 0.0
H3145 H 0.39833 0.94503 0.0058 0.0
H3146 H 0.35385 0.01974 0.04229 0.0
H3147 H 0.34746 0.01858 0.00976 0.0
H3148 H 0.37232 0.03827 0.02822 0.0
H3149 H 0.34917 0.92574 0.02361 0.0
H3150 H 0.36749 0.91539 0.00558 0.0
H3151 H 0.34432 0.92359 0.99079 0.0
C3152 C 0.87735 0.62822 0.77575 0.0
C3153 C 0.87455 0.61398 0.79385 0.0
C3154 C 0.86734 0.64834 0.77394 0.0
C3155 C 0.85377 0.65518 0.79049 0.0
C3156 C 0.85053 0.64044 0.80827 0.0
C3157 C 0.86078 0.62072 0.80978 0.0
C3158 C 0.87118 0.66175 0.75356 0.0
C3159 C 0.8359 0.64539 0.82594 0.0
C3160 C 0.84273 0.72143 0.80478 0.0
C3161 C 0.82235 0.71888 0.79001 0.0
C3162 C 0.85289 0.70136 0.80502 0.0
C3163 C 0.84312 0.67743 0.78972 0.0
C3164 C 0.82265 0.67483 0.77459 0.0
C3165 C 0.81264 0.69507 0.77509 0.0
C3166 C 0.87416 0.7057 0.82222 0.0
C3167 C 0.81107 0.65034 0.7578 0.0
H3168 H 0.88766 0.62394 0.76304 0.0
H3169 H 0.85791 0.61044 0.82395 0.0
H3170 H 0.86063 0.65066 0.73587 0.0
H3171 H 0.86773 0.68014 0.75704 0.0
H3172 H 0.88795 0.66381 0.75106 0.0
H3173 H 0.83398 0.63186 0.83794 0.0
H3174 H 0.84227 0.66405 0.83803 0.0
H3175 H 0.8199 0.64487 0.81534 0.0
H3176 H 0.8507 0.73918 0.81679 0.0
H3177 H 0.79701 0.69213 0.7635 0.0
H3178 H 0.88595 0.70002 0.8116 0.0
H3179 H 0.87258 0.69424 0.83619 0.0
H3180 H 0.88044 0.72517 0.83224 0.0
H3181 H 0.82108 0.64465 0.74458 0.0
H3182 H 0.79541 0.65083 0.74706 0.0
H3183 H 0.80838 0.63615 0.76896 0.0
C3184 C 0.83939 0.63968 0.02764 0.0
C3185 C 0.81984 0.62757 0.03232 0.0
C3186 C 0.85761 0.63028 0.03126 0.0
C3187 C 0.85633 0.60815 0.03968 0.0
C3188 C 0.83679 0.59612 0.04493 0.0
C3189 C 0.81882 0.60597 0.04121 0.0
C3190 C 0.87811 0.64369 0.02544 0.0
C3191 C 0.83473 0.5725 0.05394 0.0
C3192 C 0.89616 0.57028 0.02453 0.0
C3193 C 0.9111 0.57642 0.04705 0.0
C3194 C 0.87835 0.5805 0.02189 0.0
C3195 C 0.87525 0.59723 0.04225 0.0
C3196 C 0.89032 0.60362 0.06497 0.0
C3197 C 0.90804 0.59322 0.06707 0.0
C3198 C 0.86273 0.57324 0.9973 0.0
C3199 C 0.88773 0.62145 0.0871 0.0
H3200 H 0.84038 0.65626 0.02056 0.0
H3201 H 0.8038 0.59639 0.04475 0.0
H3202 H 0.89137 0.64772 0.04177 0.0
H3203 H 0.88247 0.63187 0.00997 0.0
H3204 H 0.87679 0.66124 0.0201 0.0
H3205 H 0.81871 0.56591 0.05811 0.0
H3206 H 0.83755 0.558 0.0396 0.0
H3207 H 0.84703 0.57512 0.07094 0.0
H3208 H 0.89813 0.55707 0.00905 0.0
H3209 H 0.91961 0.59841 0.08443 0.0
H3210 H 0.86146 0.58982 0.98997 0.0
H3211 H 0.8466 0.56459 0.9999 0.0
H3212 H 0.86749 0.56019 0.98321 0.0
H3213 H 0.8875 0.63944 0.08229 0.0
H3214 H 0.90077 0.62439 0.1035 0.0
H3215 H 0.87223 0.61454 0.0923 0.0
C3216 C 0.20987 0.13892 0.8662 0.0
C3217 C 0.18987 0.12763 0.85052 0.0
C3218 C 0.22431 0.15792 0.86032 0.0
C3219 C 0.21868 0.16595 0.83823 0.0
C3220 C 0.19826 0.15534 0.82277 0.0
C3221 C 0.18412 0.13628 0.82906 0.0
C3222 C 0.24592 0.16884 0.87734 0.0
C3223 C 0.19161 0.16362 0.7992 0.0
C3224 C 0.25167 0.22724 0.83224 0.0
C3225 C 0.26628 0.21964 0.81866 0.0
C3226 C 0.23593 0.20996 0.83864 0.0
C3227 C 0.23462 0.18457 0.83076 0.0
C3228 C 0.24916 0.17691 0.81656 0.0
C3229 C 0.26498 0.19462 0.81086 0.0
C3230 C 0.22115 0.21885 0.85441 0.0
C3231 C 0.24827 0.15004 0.80777 0.0
H3232 H 0.21456 0.13247 0.88284 0.0
H3233 H 0.16875 0.12777 0.81681 0.0
H3234 H 0.25864 0.16452 0.86754 0.0
H3235 H 0.24895 0.18915 0.88251 0.0
H3236 H 0.24732 0.16172 0.89461 0.0
H3237 H 0.17485 0.1543 0.78978 0.0
H3238 H 0.19326 0.18377 0.80337 0.0
H3239 H 0.20228 0.15971 0.78617 0.0
H3240 H 0.2528 0.24666 0.83835 0.0
H3241 H 0.27639 0.18892 0.80036 0.0
H3242 H 0.2236 0.21306 0.87234 0.0
H3243 H 0.20427 0.21037 0.84501 0.0
H3244 H 0.22381 0.23918 0.85837 0.0
H3245 H 0.25136 0.14167 0.824 0.0
H3246 H 0.26016 0.14715 0.79604 0.0
H3247 H 0.23209 0.14015 0.79691 0.0
C3248 C 0.35138 0.97209 0.2949 0.0
C3249 C 0.37174 0.97909 0.28907 0.0
C3250 C 0.34112 0.94716 0.29369 0.0
C3251 C 0.35147 0.92802 0.2873 0.0
C3252 C 0.37194 0.93485 0.2811 0.0
C3253 C 0.38161 0.95997 0.28175 0.0
C3254 C 0.31922 0.94139 0.29992 0.0
C3255 C 0.38417 0.9157 0.27487 0.0
C3256 C 0.33372 0.86931 0.31266 0.0
C3257 C 0.32081 0.85191 0.29168 0.0
C3258 C 0.34413 0.89346 0.31129 0.0
C3259 C 0.34135 0.90136 0.28849 0.0
C3260 C 0.3282 0.88388 0.26725 0.0
C3261 C 0.31846 0.85955 0.269 0.0
C3262 C 0.35821 0.91064 0.33447 0.0
C3263 C 0.32394 0.89105 0.24262 0.0
H3264 H 0.34346 0.98636 0.30087 0.0
H3265 H 0.39749 0.96477 0.27779 0.0
H3266 H 0.30822 0.92632 0.28521 0.0
H3267 H 0.3202 0.93497 0.31756 0.0
H3268 H 0.31225 0.95763 0.30198 0.0
H3269 H 0.39934 0.92339 0.26932 0.0
H3270 H 0.38793 0.90774 0.29127 0.0
H3271 H 0.37427 0.90043 0.25957 0.0
H3272 H 0.33593 0.86395 0.33035 0.0
H3273 H 0.30851 0.84663 0.25261 0.0
H3274 H 0.35126 0.92645 0.33998 0.0
H3275 H 0.37423 0.91813 0.33081 0.0
H3276 H 0.36015 0.90142 0.35029 0.0
H3277 H 0.31613 0.9066 0.24452 0.0
H3278 H 0.31351 0.87559 0.22781 0.0
H3279 H 0.33922 0.89741 0.23675 0.0
C3280 C 0.55638 0.3536 0.58661 0.0
C3281 C 0.5653 0.35597 0.61173 0.0
C3282 C 0.55608 0.37437 0.57634 0.0
C3283 C 0.56412 0.39826 0.59171 0.0
C3284 C 0.57399 0.40079 0.61685 0.0
C3285 C 0.57469 0.37963 0.62647 0.0
C3286 C 0.54628 0.37069 0.54921 0.0
C3287 C 0.58253 0.42583 0.63403 0.0
C3288 C 0.57217 0.45552 0.56378 0.0
C3289 C 0.5525 0.46168 0.56381 0.0
C3290 C 0.57604 0.43463 0.57216 0.0
C3291 C 0.56034 0.4203 0.58209 0.0
C3292 C 0.54064 0.4269 0.58263 0.0
C3293 C 0.53684 0.44713 0.5731 0.0
C3294 C 0.59703 0.42812 0.57046 0.0
C3295 C 0.52361 0.41282 0.59366 0.0
H3296 H 0.54889 0.33541 0.57516 0.0
H3297 H 0.58115 0.38167 0.64603 0.0
H3298 H 0.53082 0.37598 0.54736 0.0
H3299 H 0.55689 0.38264 0.54021 0.0
H3300 H 0.54338 0.35128 0.53908 0.0
H3301 H 0.59041 0.42482 0.6528 0.0
H3302 H 0.5942 0.43763 0.6261 0.0
H3303 H 0.56923 0.4349 0.63594 0.0
H3304 H 0.58441 0.4668 0.55683 0.0
H3305 H 0.52175 0.45205 0.57369 0.0
H3306 H 0.59503 0.40792 0.5658 0.0
H3307 H 0.60816 0.43556 0.58868 0.0
H3308 H 0.60444 0.43611 0.55622 0.0
H3309 H 0.51779 0.39361 0.58273 0.0
H3310 H 0.50974 0.42118 0.59405 0.0
H3311 H 0.53042 0.4121 0.61293 0.0
C3312 C 0.42553 0.74172 0.39781 0.0
C3313 C 0.44462 0.75748 0.39603 0.0
C3314 C 0.40544 0.74429 0.38657 0.0
C3315 C 0.40431 0.76346 0.37376 0.0
C3316 C 0.42354 0.78009 0.37299 0.0
C3317 C 0.44337 0.77671 0.3838 0.0
C3318 C 0.38547 0.72577 0.38736 0.0
C3319 C 0.42321 0.80115 0.36013 0.0
C3320 C 0.35812 0.75695 0.32001 0.0
C3321 C 0.34527 0.77061 0.33115 0.0
C3322 C 0.37679 0.75367 0.33388 0.0
C3323 C 0.38331 0.76504 0.3595 0.0
C3324 C 0.37017 0.77862 0.37095 0.0
C3325 C 0.35111 0.78094 0.3567 0.0
C3326 C 0.38976 0.73839 0.32092 0.0
C3327 C 0.3767 0.79153 0.398 0.0
H3328 H 0.4263 0.7267 0.40708 0.0
H3329 H 0.458 0.78907 0.38245 0.0
H3330 H 0.3737 0.73524 0.39437 0.0
H3331 H 0.3779 0.71498 0.36827 0.0
H3332 H 0.38883 0.71286 0.39929 0.0
H3333 H 0.43926 0.81391 0.3634 0.0
H3334 H 0.41755 0.79389 0.33983 0.0
H3335 H 0.41192 0.81167 0.36671 0.0
H3336 H 0.35358 0.74884 0.30026 0.0
H3337 H 0.3413 0.7917 0.3653 0.0
H3338 H 0.39293 0.72421 0.33124 0.0
H3339 H 0.40544 0.75026 0.32052 0.0
H3340 H 0.38159 0.72909 0.30152 0.0
H3341 H 0.37983 0.77838 0.40967 0.0
H3342 H 0.36433 0.80036 0.40447 0.0
H3343 H 0.3918 0.80587 0.40094 0.0
C3344 C 0.06568 0.72185 0.12602 0.0
C3345 C 0.05252 0.73359 0.11257 0.0
C3346 C 0.06589 0.69722 0.11704 0.0
C3347 C 0.05298 0.68402 0.09376 0.0
C3348 C 0.0404 0.69609 0.07958 0.0
C3349 C 0.04012 0.72058 0.08925 0.0
C3350 C 0.07919 0.68499 0.13305 0.0
C3351 C 0.02673 0.6829 0.05446 0.0
C3352 C 0.06398 0.62344 0.06336 0.0
C3353 C 0.04769 0.60608 0.06876 0.0
C3354 C 0.06582 0.64886 0.07113 0.0
C3355 C 0.05135 0.65714 0.08513 0.0
C3356 C 0.03511 0.63964 0.0909 0.0
C3357 C 0.03338 0.61445 0.08249 0.0
C3358 C 0.08304 0.66688 0.0641 0.0
C3359 C 0.01955 0.64749 0.1061 0.0
H3360 H 0.07518 0.73158 0.14414 0.0
H3361 H 0.02995 0.72943 0.07865 0.0
H3362 H 0.06853 0.67005 0.13876 0.0
H3363 H 0.08972 0.67646 0.12238 0.0
H3364 H 0.08926 0.6981 0.15002 0.0
H3365 H 0.01959 0.69547 0.04468 0.0
H3366 H 0.03637 0.67406 0.04261 0.0
H3367 H 0.01362 0.66809 0.05668 0.0
H3368 H 0.07504 0.61716 0.05267 0.0
H3369 H 0.02085 0.60124 0.087 0.0
H3370 H 0.09374 0.67924 0.08106 0.0
H3371 H 0.07569 0.67859 0.05328 0.0
H3372 H 0.09283 0.65755 0.05287 0.0
H3373 H 0.02838 0.65956 0.12421 0.0
H3374 H 0.00827 0.63159 0.10964 0.0
H3375 H 0.01014 0.65828 0.09633 0.0
C3376 C 0.0603 0.23473 0.86504 0.0
C3377 C 0.05773 0.24779 0.88776 0.0
C3378 C 0.08012 0.23862 0.85769 0.0
C3379 C 0.09804 0.25602 0.8734 0.0
C3380 C 0.09569 0.26919 0.89647 0.0
C3381 C 0.07558 0.26495 0.90338 0.0
C3382 C 0.08181 0.22417 0.83292 0.0
C3383 C 0.11441 0.28789 0.91376 0.0
C3384 C 0.15265 0.24946 0.86107 0.0
C3385 C 0.15737 0.26683 0.84659 0.0
C3386 C 0.13374 0.24624 0.87052 0.0
C3387 C 0.11906 0.26062 0.86529 0.0
C3388 C 0.12392 0.27848 0.85105 0.0
C3389 C 0.14296 0.28138 0.84192 0.0
C3390 C 0.1293 0.22712 0.88574 0.0
C3391 C 0.10868 0.29408 0.84485 0.0
H3392 H 0.04671 0.22142 0.85277 0.0
H3393 H 0.07383 0.27516 0.92097 0.0
H3394 H 0.08692 0.23693 0.82095 0.0
H3395 H 0.09413 0.21363 0.83562 0.0
H3396 H 0.06644 0.21113 0.82297 0.0
H3397 H 0.11015 0.29623 0.93126 0.0
H3398 H 0.12771 0.27914 0.91843 0.0
H3399 H 0.12043 0.30275 0.9044 0.0
H3400 H 0.16377 0.23833 0.86504 0.0
H3401 H 0.14625 0.2946 0.83045 0.0
H3402 H 0.1148 0.21259 0.8759 0.0
H3403 H 0.12608 0.23556 0.90382 0.0
H3404 H 0.14282 0.21838 0.88931 0.0
H3405 H 0.09344 0.28216 0.83322 0.0
H3406 H 0.11526 0.30799 0.83467 0.0
H3407 H 0.10491 0.30369 0.86209 0.0
C3408 C 0.48925 0.7253 0.92772 0.0
C3409 C 0.50188 0.73338 0.91134 0.0
C3410 C 0.49396 0.70762 0.94049 0.0
C3411 C 0.51155 0.69775 0.93648 0.0
C3412 C 0.52394 0.70516 0.91936 0.0
C3413 C 0.51902 0.72311 0.90704 0.0
C3414 C 0.48059 0.70015 0.95889 0.0
C3415 C 0.54266 0.69462 0.91461 0.0
C3416 C 0.53593 0.67483 0.99022 0.0
C3417 C 0.52628 0.64964 0.9828 0.0
C3418 C 0.53191 0.69064 0.97475 0.0
C3419 C 0.51777 0.68089 0.95153 0.0
C3420 C 0.5085 0.65539 0.94356 0.0
C3421 C 0.51293 0.63995 0.95937 0.0
C3422 C 0.54204 0.71786 0.98374 0.0
C3423 C 0.49338 0.64456 0.9188 0.0
H3424 H 0.47603 0.73327 0.93113 0.0
H3425 H 0.52869 0.7292 0.89418 0.0
H3426 H 0.47432 0.6799 0.95454 0.0
H3427 H 0.49064 0.7055 0.97787 0.0
H3428 H 0.46689 0.70884 0.95895 0.0
H3429 H 0.54959 0.70097 0.89928 0.0
H3430 H 0.55532 0.70013 0.93169 0.0
H3431 H 0.53766 0.67424 0.90991 0.0
H3432 H 0.546 0.68234 0.00852 0.0
H3433 H 0.50572 0.62037 0.95359 0.0
H3434 H 0.52945 0.7279 0.98634 0.0
H3435 H 0.55036 0.72495 0.9697 0.0
H3436 H 0.55371 0.72212 1.00161 0.0
H3437 H 0.47853 0.65107 0.91881 0.0
H3438 H 0.48901 0.62414 0.91457 0.0
H3439 H 0.50066 0.65082 0.90368 0.0
C3440 C 0.11969 0.74953 0.78466 0.0
C3441 C 0.10966 0.7493 0.76051 0.0
C3442 C 0.14168 0.75133 0.79047 0.0
C3443 C 0.15373 0.75285 0.77164 0.0
C3444 C 0.14355 0.75159 0.74702 0.0
C3445 C 0.12161 0.74988 0.74176 0.0
C3446 C 0.15215 0.75259 0.8169 0.0
C3447 C 0.15598 0.75305 0.72646 0.0
C3448 C 0.21171 0.78727 0.78876 0.0
C3449 C 0.22198 0.76801 0.78627 0.0
C3450 C 0.18947 0.7825 0.78466 0.0
C3451 C 0.17724 0.75788 0.77796 0.0
C3452 C 0.18746 0.7383 0.77606 0.0
C3453 C 0.20981 0.7436 0.78022 0.0
C3454 C 0.17906 0.80386 0.78685 0.0
C3455 C 0.17477 0.71183 0.76905 0.0
H3456 H 0.11049 0.74898 0.79919 0.0
H3457 H 0.11389 0.74945 0.72298 0.0
H3458 H 0.16218 0.73915 0.81738 0.0
H3459 H 0.16287 0.77113 0.82496 0.0
H3460 H 0.14027 0.74889 0.82881 0.0
H3461 H 0.1454 0.74998 0.708 0.0
H3462 H 0.16722 0.77143 0.73032 0.0
H3463 H 0.16565 0.73922 0.72563 0.0
H3464 H 0.221 0.80618 0.79355 0.0
H3465 H 0.21768 0.72862 0.77836 0.0
H3466 H 0.16805 0.80233 0.80003 0.0
H3467 H 0.1694 0.80348 0.76853 0.0
H3468 H 0.19094 0.82189 0.79331 0.0
H3469 H 0.16332 0.70859 0.78152 0.0
H3470 H 0.18517 0.69878 0.77002 0.0
H3471 H 0.16528 0.70775 0.74986 0.0
C3472 C 0.02773 0.36016 0.44541 0.0
C3473 C 1.00608 0.34757 0.43846 0.0
C3474 C 0.03466 0.38121 0.46478 0.0
C3475 C 0.01954 0.38995 0.47722 0.0
C3476 C 0.99785 0.37684 0.47091 0.0
C3477 C 0.9914 0.35575 0.4517 0.0
C3478 C 0.05797 0.39476 0.47118 0.0
C3479 C 0.98121 0.38584 0.48348 0.0
C3480 C 0.03853 0.43981 0.53649 0.0
C3481 C 0.03799 0.46082 0.52707 0.0
C3482 C 0.0326 0.41644 0.52048 0.0
C3483 C 0.02589 0.41428 0.49464 0.0
C3484 C 0.02513 0.4355 0.48515 0.0
C3485 C 0.03135 0.4585 0.50147 0.0
C3486 C 0.03375 0.39415 0.5311 0.0
C3487 C 0.01794 0.43396 0.45773 0.0
H3488 H 0.03921 0.35388 0.43542 0.0
H3489 H 0.97464 0.3462 0.44648 0.0
H3490 H 0.05984 0.4126 0.46543 0.0
H3491 H 0.06401 0.39888 0.49155 0.0
H3492 H 0.06803 0.38413 0.46184 0.0
H3493 H 0.96544 0.3723 0.47809 0.0
H3494 H 0.98644 0.38981 0.50396 0.0
H3495 H 0.9792 0.40325 0.47835 0.0
H3496 H 0.04386 0.44167 0.55626 0.0
H3497 H 0.0313 0.47476 0.49401 0.0
H3498 H 0.04498 0.38463 0.5228 0.0
H3499 H 0.01785 0.38096 0.52628 0.0
H3500 H 0.03914 0.39897 0.55162 0.0
H3501 H 0.02864 0.42567 0.44711 0.0
H3502 H 0.01792 0.45225 0.45349 0.0
H3503 H 1.00158 0.42188 0.45098 0.0
C3504 C 0.485 0.23011 0.26088 0.0
C3505 C 0.4846 0.23544 0.23732 0.0
C3506 C 0.46963 0.23538 0.27449 0.0
C3507 C 0.45388 0.24633 0.26422 0.0
C3508 C 0.45197 0.24903 0.23939 0.0
C3509 C 0.46733 0.24334 0.22614 0.0
C3510 C 0.47136 0.23129 0.30058 0.0
C3511 C 0.43497 0.26014 0.22762 0.0
C3512 C 0.40748 0.25917 0.29214 0.0
C3513 C 0.41524 0.28425 0.3032 0.0
C3514 C 0.42035 0.24598 0.28054 0.0
C3515 C 0.44138 0.25829 0.28016 0.0
C3516 C 0.44962 0.28334 0.29237 0.0
C3517 C 0.43637 0.29607 0.30376 0.0
C3518 C 0.41112 0.21925 0.26792 0.0
C3519 C 0.47194 0.29717 0.29197 0.0
H3520 H 0.49824 0.22379 0.26952 0.0
H3521 H 0.4667 0.24705 0.20776 0.0
H3522 H 0.47767 0.24921 0.31406 0.0
H3523 H 0.45536 0.22299 0.30381 0.0
H3524 H 0.48219 0.21917 0.30434 0.0
H3525 H 0.43458 0.25896 0.20748 0.0
H3526 H 0.41898 0.25074 0.22997 0.0
H3527 H 0.43808 0.2798 0.23699 0.0
H3528 H 0.39095 0.25021 0.29129 0.0
H3529 H 0.44226 0.31547 0.31236 0.0
H3530 H 0.41764 0.20766 0.2796 0.0
H3531 H 0.41553 0.2148 0.24955 0.0
H3532 H 0.39345 0.21422 0.26519 0.0
H3533 H 0.48377 0.28713 0.29844 0.0
H3534 H 0.47633 0.31604 0.30383 0.0
H3535 H 0.4731 0.29855 0.27264 0.0
C3536 C 0.59098 0.56762 0.39675 0.0
C3537 C 0.61179 0.56545 0.3956 0.0
C3538 C 0.58119 0.56073 0.41593 0.0
C3539 C 0.59247 0.5514 0.43431 0.0
C3540 C 0.61379 0.55019 0.43387 0.0
C3541 C 0.6232 0.55725 0.41455 0.0
C3542 C 0.5585 0.5626 0.41604 0.0
C3543 C 0.62638 0.54049 0.45324 0.0
C3544 C 0.57287 0.55048 0.49452 0.0
C3545 C 0.56106 0.52603 0.4904 0.0
C3546 C 0.5833 0.55892 0.47652 0.0
C3547 C 0.58187 0.54252 0.45378 0.0
C3548 C 0.57024 0.51769 0.44963 0.0
C3549 C 0.55991 0.50973 0.46804 0.0
C3550 C 0.59545 0.58553 0.48164 0.0
C3551 C 0.56846 0.49965 0.42562 0.0
H3552 H 0.58201 0.57374 0.38211 0.0
H3553 H 0.63924 0.55532 0.41378 0.0
H3554 H 0.54793 0.54397 0.41335 0.0
H3555 H 0.55749 0.57337 0.43426 0.0
H3556 H 0.55234 0.57142 0.4012 0.0
H3557 H 0.64314 0.54185 0.45096 0.0
H3558 H 0.62656 0.55078 0.47215 0.0
H3559 H 0.6186 0.52093 0.45201 0.0
H3560 H 0.5735 0.56334 0.51159 0.0
H3561 H 0.55065 0.4909 0.46476 0.0
H3562 H 0.58827 0.59476 0.46782 0.0
H3563 H 0.61226 0.58676 0.47971 0.0
H3564 H 0.59542 0.59574 0.50055 0.0
H3565 H 0.56053 0.50602 0.40982 0.0
H3566 H 0.55921 0.4809 0.42551 0.0
H3567 H 0.58463 0.49864 0.42248 0.0
C3568 C 0.25595 0.86297 0.09078 0.0
C3569 C 0.24664 0.85411 0.06562 0.0
C3570 C 0.26158 0.84712 0.10536 0.0
C3571 C 0.2581 0.82197 0.09417 0.0
C3572 C 0.24883 0.81292 0.06866 0.0
C3573 C 0.24292 0.82923 0.05458 0.0
C3574 C 0.27138 0.85735 0.13262 0.0
C3575 C 0.24571 0.78628 0.05624 0.0
C3576 C 0.28915 0.78947 0.13366 0.0
C3577 C 0.27358 0.77959 0.14608 0.0
C3578 C 0.28401 0.80208 0.11526 0.0
C3579 C 0.26297 0.80507 0.1098 0.0
C3580 C 0.24703 0.79432 0.12166 0.0
C3581 C 0.25254 0.7815 0.13965 0.0
C3582 C 0.30129 0.81325 0.10269 0.0
C3583 C 0.22461 0.79791 0.11667 0.0
H3584 H 0.25941 0.88252 0.09881 0.0
H3585 H 0.2366 0.82289 0.03477 0.0
H3586 H 0.26136 0.84804 0.14411 0.0
H3587 H 0.28744 0.85379 0.13698 0.0
H3588 H 0.27302 0.87747 0.13817 0.0
H3589 H 0.23993 0.7827 0.03583 0.0
H3590 H 0.26097 0.78069 0.05992 0.0
H3591 H 0.23396 0.7745 0.06412 0.0
H3592 H 0.30541 0.78784 0.13882 0.0
H3593 H 0.24067 0.77416 0.1497 0.0
H3594 H 0.30612 0.83347 0.10977 0.0
H3595 H 0.29529 0.80969 0.08234 0.0
H3596 H 0.31569 0.80595 0.10617 0.0
H3597 H 0.22503 0.8176 0.12319 0.0
H3598 H 0.21377 0.78687 0.12621 0.0
H3599 H 0.2178 0.7928 0.09644 0.0
C3600 C 0.96351 0.52936 0.86332 0.0
C3601 C 0.95234 0.5478 0.86133 0.0
C3602 C 0.97434 0.52683 0.88657 0.0
C3603 C 0.97492 0.54352 0.90908 0.0
C3604 C 0.96351 0.56209 0.90725 0.0
C3605 C 0.95226 0.56379 0.88375 0.0
C3606 C 0.98553 0.50628 0.88693 0.0
C3607 C 0.96381 0.58084 0.93015 0.0
C3608 C 0.99359 0.52772 0.97328 0.0
C3609 C 0.01568 0.53891 0.97909 0.0
C3610 C 0.98015 0.52917 0.95097 0.0
C3611 C 0.98863 0.54254 0.93391 0.0
C3612 C 0.01077 0.55447 0.94034 0.0
C3613 C 0.0238 0.55226 0.96228 0.0
C3614 C 0.95692 0.51567 0.94521 0.0
C3615 C 0.02097 0.56953 0.92379 0.0
H3616 H 0.96386 0.51673 0.84648 0.0
H3617 H 0.944 0.57831 0.88287 0.0
H3618 H 1.00305 0.51404 0.89247 0.0
H3619 H 0.98064 0.4958 0.90087 0.0
H3620 H 0.98201 0.49338 0.86852 0.0
H3621 H 0.95365 0.59358 0.92617 0.0
H3622 H 0.95822 0.57153 0.94457 0.0
H3623 H 0.98045 0.59177 0.93805 0.0
H3624 H 0.9869 0.51709 0.98569 0.0
H3625 H 0.04072 0.56109 0.96625 0.0
H3626 H 0.95362 0.5011 0.92803 0.0
H3627 H 0.94667 0.5284 0.94164 0.0
H3628 H 0.95231 0.50708 0.96054 0.0
H3629 H 0.02044 0.55743 0.90567 0.0
H3630 H 0.03789 0.57922 0.93212 0.0
H3631 H 0.01193 0.58335 0.92005 0.0
C3632 C 0.26963 0.19265 0.60452 0.0
C3633 C 0.28305 0.20729 0.59273 0.0
C3634 C 0.26846 0.2008 0.62949 0.0
C3635 C 0.28059 0.22443 0.6429 0.0
C3636 C 0.29341 0.23973 0.63074 0.0
C3637 C 0.29472 0.23086 0.60597 0.0
C3638 C 0.255 0.18365 0.64184 0.0
C3639 C 0.30617 0.26527 0.64411 0.0
C3640 C 0.2665 0.25226 0.70387 0.0
C3641 C 0.28275 0.24881 0.7215 0.0
C3642 C 0.26561 0.24457 0.67822 0.0
C3643 C 0.281 0.23255 0.67002 0.0
C3644 C 0.29714 0.22857 0.68783 0.0
C3645 C 0.29796 0.237 0.71325 0.0
C3646 C 0.24854 0.24979 0.65988 0.0
C3647 C 0.31361 0.21541 0.68005 0.0
H3648 H 0.26073 0.17432 0.59458 0.0
H3649 H 0.30507 0.24234 0.59701 0.0
H3650 H 0.26546 0.17898 0.65698 0.0
H3651 H 0.24367 0.19276 0.65041 0.0
H3652 H 0.24576 0.16634 0.6286 0.0
H3653 H 0.31364 0.27572 0.63143 0.0
H3654 H 0.29576 0.27569 0.65301 0.0
H3655 H 0.31899 0.26413 0.65909 0.0
H3656 H 0.2548 0.26157 0.71011 0.0
H3657 H 0.31048 0.23409 0.72676 0.0
H3658 H 0.23877 0.2324 0.64727 0.0
H3659 H 0.25609 0.26141 0.64816 0.0
H3660 H 0.23778 0.25932 0.66919 0.0
H3661 H 0.30556 0.19718 0.66774 0.0
H3662 H 0.32443 0.21271 0.6962 0.0
H3663 H 0.32343 0.22607 0.66931 0.0
C3664 C 0.62426 0.53245 0.22935 0.0
C3665 C 0.61465 0.54265 0.24804 0.0
C3666 C 0.6157 0.53034 0.20422 0.0
C3667 C 0.59673 0.53793 0.19766 0.0
C3668 C 0.5869 0.54819 0.21647 0.0
C3669 C 0.59619 0.55077 0.24152 0.0
C3670 C 0.62702 0.5201 0.18471 0.0
C3671 C 0.5664 0.55601 0.21009 0.0
C3672 C 0.58387 0.5529 0.13449 0.0
C3673 C 0.56987 0.53082 0.12065 0.0
C3674 C 0.59292 0.55535 0.15952 0.0
C3675 C 0.58736 0.53547 0.17109 0.0
C3676 C 0.57307 0.51319 0.15721 0.0
C3677 C 0.5647 0.51103 0.13201 0.0
C3678 C 0.6086 0.57911 0.17352 0.0
C3679 C 0.56644 0.49175 0.16902 0.0
H3680 H 0.63863 0.52631 0.2344 0.0
H3681 H 0.58864 0.55845 0.25597 0.0
H3682 H 0.61639 0.50306 0.17233 0.0
H3683 H 0.63091 0.53349 0.17294 0.0
H3684 H 0.64203 0.51584 0.19297 0.0
H3685 H 0.56046 0.56299 0.22689 0.0
H3686 H 0.56888 0.57065 0.19944 0.0
H3687 H 0.55388 0.54025 0.19807 0.0
H3688 H 0.58801 0.56819 0.12564 0.0
H3689 H 0.55374 0.49404 0.12132 0.0
H3690 H 0.62399 0.57536 0.18125 0.0
H3691 H 0.60242 0.58765 0.18944 0.0
H3692 H 0.61171 0.59253 0.16158 0.0
H3693 H 0.58065 0.48547 0.17627 0.0
H3694 H 0.5548 0.47596 0.15574 0.0
H3695 H 0.55912 0.49757 0.18502 0.0
C3696 C 0.27322 0.83892 0.96786 0.0
C3697 C 0.28753 0.86112 0.98072 0.0
C3698 C 0.277 0.82564 0.94612 0.0
C3699 C 0.29512 0.83535 0.93681 0.0
C3700 C 0.31019 0.85709 0.95049 0.0
C3701 C 0.30631 0.86959 0.9726 0.0
C3702 C 0.26097 0.80204 0.93238 0.0
C3703 C 0.32948 0.86819 0.94087 0.0
C3704 C 0.3086 0.79376 0.88416 0.0
C3705 C 0.29713 0.79946 0.86357 0.0
C3706 C 0.30849 0.80568 0.90828 0.0
C3707 C 0.29702 0.82402 0.91165 0.0
C3708 C 0.28605 0.83047 0.89085 0.0
C3709 C 0.28599 0.81781 0.86697 0.0
C3710 C 0.31982 0.79794 0.9301 0.0
C3711 C 0.27389 0.85025 0.89386 0.0
H3712 H 0.25875 0.83238 0.97441 0.0
H3713 H 0.31716 0.88687 0.98259 0.0
H3714 H 0.25195 0.80498 0.91509 0.0
H3715 H 0.26924 0.78741 0.92691 0.0
H3716 H 0.24936 0.79545 0.94371 0.0
H3717 H 0.34103 0.88311 0.95527 0.0
H3718 H 0.33779 0.85399 0.93423 0.0
H3719 H 0.32421 0.87598 0.92482 0.0
H3720 H 0.31714 0.77944 0.88146 0.0
H3721 H 0.27685 0.82193 0.85103 0.0
H3722 H 0.30789 0.78938 0.94009 0.0
H3723 H 0.33072 0.81416 0.94347 0.0
H3724 H 0.32921 0.78455 0.92431 0.0
H3725 H 0.26042 0.84459 0.90312 0.0
H3726 H 0.26733 0.85404 0.87579 0.0
H3727 H 0.28449 0.86753 0.90587 0.0
C3728 C 0.96902 0.57039 0.70704 0.0
C3729 C 0.9568 0.55178 0.71638 0.0
C3730 C 0.97861 0.56537 0.68601 0.0
C3731 C 0.97675 0.54082 0.6733 0.0
C3732 C 0.96422 0.52179 0.68229 0.0
C3733 C 0.95439 0.52739 0.7033 0.0
C3734 C 0.99103 0.58668 0.67749 0.0
C3735 C 0.96166 0.49529 0.67004 0.0
C3736 C 0.98936 0.52956 0.60615 0.0
C3737 C 0.01102 0.52846 0.6101 0.0
C3738 C 0.97814 0.53318 0.62607 0.0
C3739 C 0.98828 0.53544 0.65123 0.0
C3740 C 0.01006 0.53398 0.65524 0.0
C3741 C 0.02101 0.53081 0.63505 0.0
C3742 C 0.9553 0.53496 0.62009 0.0
C3743 C 0.02203 0.53598 0.68116 0.0
H3744 H 0.97131 0.58937 0.71645 0.0
H3745 H 0.94545 0.51253 0.70998 0.0
H3746 H 0.00806 0.58607 0.67953 0.0
H3747 H 0.98482 0.58532 0.6575 0.0
H3748 H 0.99018 0.60473 0.6882 0.0
H3749 H 0.95153 0.48245 0.67871 0.0
H3750 H 0.95441 0.49192 0.65003 0.0
H3751 H 0.9776 0.49114 0.67126 0.0
H3752 H 0.98115 0.5281 0.58735 0.0
H3753 H 0.03764 0.53022 0.63894 0.0
H3754 H 0.95331 0.55202 0.6316 0.0
H3755 H 0.94464 0.51922 0.62462 0.0
H3756 H 0.95004 0.53493 0.6002 0.0
H3757 H 0.02377 0.55459 0.69258 0.0
H3758 H 0.0382 0.53265 0.68134 0.0
H3759 H 0.01289 0.52256 0.6901 0.0
C3760 C 0.2871 0.23645 0.46898 0.0
C3761 C 0.27447 0.21287 0.46753 0.0
C3762 C 0.28728 0.24684 0.448 0.0
C3763 C 0.27477 0.23323 0.42465 0.0
C3764 C 0.26104 0.20996 0.42329 0.0
C3765 C 0.26095 0.20011 0.44476 0.0
C3766 C 0.30194 0.27182 0.45059 0.0
C3767 C 0.24758 0.1947 0.39881 0.0
C3768 C 0.27123 0.26728 0.37136 0.0
C3769 C 0.28834 0.26237 0.36068 0.0
C3770 C 0.26607 0.25732 0.39171 0.0
C3771 C 0.27826 0.24205 0.40148 0.0
C3772 C 0.29504 0.23642 0.39002 0.0
C3773 C 0.29991 0.24673 0.36999 0.0
C3774 C 0.24818 0.26399 0.40339 0.0
C3775 C 0.30833 0.22001 0.39937 0.0
H3776 H 0.29763 0.24644 0.48645 0.0
H3777 H 0.25138 0.18173 0.44329 0.0
H3778 H 0.31546 0.26978 0.44125 0.0
H3779 H 0.29332 0.28365 0.44141 0.0
H3780 H 0.30856 0.28126 0.47034 0.0
H3781 H 0.23572 0.17869 0.40126 0.0
H3782 H 0.239 0.20601 0.38876 0.0
H3783 H 0.2581 0.18779 0.38691 0.0
H3784 H 0.26247 0.27968 0.36452 0.0
H3785 H 0.31309 0.24274 0.36171 0.0
H3786 H 0.255 0.27649 0.42187 0.0
H3787 H 0.2375 0.24735 0.40636 0.0
H3788 H 0.23851 0.27329 0.39183 0.0
H3789 H 0.31757 0.22896 0.4184 0.0
H3790 H 0.31972 0.21598 0.3873 0.0
H3791 H 0.29783 0.20236 0.40041 0.0
C3792 C 0.37063 0.64129 0.55508 0.0
C3793 C 0.34826 0.63394 0.54909 0.0
C3794 C 0.38283 0.62394 0.55462 0.0
C3795 C 0.37232 0.59869 0.54818 0.0
C3796 C 0.34978 0.59115 0.5437 0.0
C3797 C 0.33793 0.60895 0.54411 0.0
C3798 C 0.40692 0.63263 0.55939 0.0
C3799 C 0.33817 0.56431 0.53713 0.0
C3800 C 0.40363 0.55869 0.51651 0.0
C3801 C 0.4133 0.55042 0.53645 0.0
C3802 C 0.38952 0.57371 0.51992 0.0
C3803 C 0.385 0.58041 0.5438 0.0
C3804 C 0.39406 0.57135 0.56379 0.0
C3805 C 0.40824 0.55646 0.55988 0.0
C3806 C 0.38031 0.58336 0.49826 0.0
C3807 C 0.38941 0.57812 0.58942 0.0
H3808 H 0.37873 0.66057 0.55882 0.0
H3809 H 0.32063 0.60326 0.53958 0.0
H3810 H 0.41442 0.62378 0.57334 0.0
H3811 H 0.4126 0.62727 0.54197 0.0
H3812 H 0.41257 0.65289 0.5661 0.0
H3813 H 0.32088 0.56162 0.53741 0.0
H3814 H 0.33982 0.55587 0.51824 0.0
H3815 H 0.34531 0.55434 0.55022 0.0
H3816 H 0.4078 0.55424 0.49848 0.0
H3817 H 0.41561 0.54981 0.57522 0.0
H3818 H 0.38646 0.60362 0.50207 0.0
H3819 H 0.36266 0.57945 0.49574 0.0
H3820 H 0.38445 0.57518 0.48061 0.0
H3821 H 0.39653 0.59798 0.5974 0.0
H3822 H 0.39598 0.5675 0.60225 0.0
H3823 H 0.37192 0.57488 0.58843 0.0
C3824 C 0.88459 0.95679 0.55292 0.0
C3825 C 0.88144 0.93893 0.56718 0.0
C3826 C 0.90523 0.9682 0.55038 0.0
C3827 C 0.92331 0.96174 0.56245 0.0
C3828 C 0.9202 0.94322 0.57629 0.0
C3829 C 0.89937 0.93205 0.57847 0.0
C3830 C 0.9077 0.98774 0.53537 0.0
C3831 C 0.93897 0.93574 0.58946 0.0
C3832 C 0.97686 0.98117 0.54269 0.0
C3833 C 0.98704 1.00255 0.56096 0.0
C3834 C 0.95624 0.96751 0.54304 0.0
C3835 C 0.94548 0.9755 0.56198 0.0
C3836 C 0.95587 0.99696 0.58054 0.0
C3837 C 0.97647 0.01007 0.57986 0.0
C3838 C 0.94588 0.94465 0.52305 0.0
C3839 C 0.94512 1.00632 0.60104 0.0
H3840 H 0.87091 0.96225 0.54408 0.0
H3841 H 0.89722 0.91835 0.58961 0.0
H3842 H 0.91646 1.00572 0.54773 0.0
H3843 H 0.91729 0.98342 0.52119 0.0
H3844 H 0.89206 0.98959 0.52586 0.0
H3845 H 0.93389 0.91996 0.59809 0.0
H3846 H 0.94919 0.93072 0.57625 0.0
H3847 H 0.94897 0.95148 0.60421 0.0
H3848 H 0.98492 0.97524 0.52801 0.0
H3849 H 0.9842 0.02656 0.59405 0.0
H3850 H 0.93092 0.94691 0.51229 0.0
H3851 H 0.94143 0.92867 0.53158 0.0
H3852 H 0.95651 0.94046 0.51003 0.0
H3853 H 0.93004 0.01048 0.59293 0.0
H3854 H 0.95541 0.02318 0.61415 0.0
H3855 H 0.9409 0.99195 0.61165 0.0
C3856 C 0.89202 0.06834 0.25445 0.0
C3857 C 0.88652 0.05315 0.27072 0.0
C3858 C 0.88049 0.08577 0.24988 0.0
C3859 C 0.86312 0.08771 0.26175 0.0
C3860 C 0.85647 0.07098 0.27649 0.0
C3861 C 0.86832 0.05393 0.28086 0.0
C3862 C 0.8879 0.10331 0.23397 0.0
C3863 C 0.83787 0.07231 0.28927 0.0
C3864 C 0.85059 0.14836 0.28401 0.0
C3865 C 0.83125 0.14589 0.26782 0.0
C3866 C 0.86189 0.13015 0.28121 0.0
C3867 C 0.85358 0.109 0.26171 0.0
C3868 C 0.83475 0.10712 0.24436 0.0
C3869 C 0.82374 0.12567 0.24764 0.0
C3870 C 0.88201 0.13288 0.30004 0.0
C3871 C 0.8255 0.08484 0.22335 0.0
H3872 H 0.90617 0.06781 0.2467 0.0
H3873 H 0.86394 0.04197 0.29324 0.0
H3874 H 0.87409 0.10602 0.22141 0.0
H3875 H 0.89642 0.12149 0.24609 0.0
H3876 H 0.89893 0.09669 0.22264 0.0
H3877 H 0.83339 0.05633 0.29782 0.0
H3878 H 0.84213 0.08934 0.30409 0.0
H3879 H 0.82371 0.0731 0.2759 0.0
H3880 H 0.85654 0.16425 0.29936 0.0
H3881 H 0.8087 0.12373 0.23518 0.0
H3882 H 0.89512 0.12942 0.29055 0.0
H3883 H 0.8791 0.11908 0.3116 0.0
H3884 H 0.88737 0.15146 0.31254 0.0
H3885 H 0.8382 0.07963 0.21404 0.0
H3886 H 0.81295 0.08802 0.20929 0.0
H3887 H 0.81827 0.06905 0.23087 0.0
C3888 C 0.77397 0.15777 0.0468 0.0
C3889 C 0.76787 0.17831 0.04045 0.0
C3890 C 0.76127 0.14245 0.05872 0.0
C3891 C 0.74198 0.14773 0.06382 0.0
C3892 C 0.73708 0.16991 0.05989 0.0
C3893 C 0.75012 0.18493 0.04822 0.0
C3894 C 0.76752 0.11958 0.06384 0.0
C3895 C 0.71694 0.17659 0.06567 0.0
C3896 C 0.69146 0.0976 0.05162 0.0
C3897 C 0.68696 0.09895 0.07546 0.0
C3898 C 0.71008 0.11236 0.0478 0.0
C3899 C 0.72494 0.12841 0.06843 0.0
C3900 C 0.72152 0.12821 0.09278 0.0
C3901 C 0.70238 0.11368 0.09602 0.0
C3902 C 0.713 0.11206 0.02145 0.0
C3903 C 0.73725 0.14452 0.11532 0.0
H3904 H 0.78767 0.15263 0.04082 0.0
H3905 H 0.7456 0.20109 0.04368 0.0
H3906 H 0.76385 0.11608 0.08181 0.0
H3907 H 0.75821 0.10351 0.04901 0.0
H3908 H 0.78479 0.12097 0.06424 0.0
H3909 H 0.71659 0.19556 0.06378 0.0
H3910 H 0.70282 0.16358 0.05279 0.0
H3911 H 0.71542 0.17507 0.08485 0.0
H3912 H 0.67995 0.08566 0.03574 0.0
H3913 H 0.6991 0.11486 0.11456 0.0
H3914 H 0.72892 0.10908 0.01935 0.0
H3915 H 0.71223 0.1301 0.01704 0.0
H3916 H 0.70057 0.0975 0.00764 0.0
H3917 H 0.7539 0.14775 0.11227 0.0
H3918 H 0.73642 0.13642 0.1319 0.0
H3919 H 0.73327 0.16259 0.11947 0.0
C3920 C 0.20493 0.43212 0.29381 0.0
C3921 C 0.20802 0.44852 0.31709 0.0
C3922 C 0.21437 0.41129 0.2906 0.0
C3923 C 0.22722 0.40566 0.31104 0.0
C3924 C 0.23015 0.42201 0.33448 0.0
C3925 C 0.22089 0.44274 0.33709 0.0
C3926 C 0.2106 0.39518 0.26503 0.0
C3927 C 0.24304 0.41747 0.35728 0.0
C3928 C 0.23686 0.33921 0.30923 0.0
C3929 C 0.25815 0.34144 0.30578 0.0
C3930 C 0.22674 0.35937 0.31063 0.0
C3931 C 0.23763 0.38312 0.30827 0.0
C3932 C 0.25903 0.38534 0.30446 0.0
C3933 C 0.26886 0.36497 0.30346 0.0
C3934 C 0.20429 0.35525 0.31522 0.0
C3935 C 0.27174 0.40949 0.30134 0.0
H3936 H 0.19514 0.43555 0.27792 0.0
H3937 H 0.22366 0.45446 0.35542 0.0
H3938 H 0.22614 0.39433 0.25972 0.0
H3939 H 0.20218 0.37616 0.26507 0.0
H3940 H 0.20098 0.40193 0.25078 0.0
H3941 H 0.24365 0.43124 0.37436 0.0
H3942 H 0.23607 0.39888 0.36 0.0
H3943 H 0.25962 0.41799 0.35478 0.0
H3944 H 0.228 0.32155 0.31113 0.0
H3945 H 0.28514 0.36755 0.30061 0.0
H3946 H 0.19401 0.36181 0.30147 0.0
H3947 H 0.20443 0.36602 0.33391 0.0
H3948 H 0.19705 0.33558 0.31422 0.0
H3949 H 0.2627 0.41569 0.28617 0.0
H3950 H 0.28756 0.40826 0.29702 0.0
H3951 H 0.27429 0.42373 0.31861 0.0
C3952 C 0.26528 0.4699 0.08129 0.0
C3953 C 0.26589 0.44504 0.07642 0.0
C3954 C 0.24589 0.47703 0.07768 0.0
C3955 C 0.22635 0.45893 0.06898 0.0
C3956 C 0.22673 0.43375 0.06414 0.0
C3957 C 0.24646 0.42709 0.06786 0.0
C3958 C 0.2464 0.50408 0.08297 0.0
C3959 C 0.20626 0.41388 0.05493 0.0
C3960 C 0.17629 0.48067 0.0799 0.0
C3961 C 0.16909 0.48617 0.05701 0.0
C3962 C 0.19438 0.47094 0.08379 0.0
C3963 C 0.20571 0.46664 0.06439 0.0
C3964 C 0.1981 0.47139 0.04103 0.0
C3965 C 0.17993 0.48094 0.03761 0.0
C3966 C 0.2018 0.46604 0.10894 0.0
C3967 C 0.20954 0.46709 0.01978 0.0
H3968 H 0.28008 0.48401 0.08789 0.0
H3969 H 0.24665 0.40784 0.06406 0.0
H3970 H 0.23936 0.5091 0.06579 0.0
H3971 H 0.23659 0.50819 0.09696 0.0
H3972 H 0.26288 0.51587 0.08997 0.0
H3973 H 0.20911 0.39515 0.05262 0.0
H3974 H 0.19535 0.41574 0.06813 0.0
H3975 H 0.19793 0.41591 0.03682 0.0
H3976 H 0.16822 0.48474 0.09511 0.0
H3977 H 0.17432 0.48453 0.01965 0.0
H3978 H 0.21749 0.47886 0.11793 0.0
H3979 H 0.20406 0.44709 0.10692 0.0
H3980 H 0.19033 0.46834 0.12139 0.0
H3981 H 0.22582 0.47952 0.02477 0.0
H3982 H 0.20096 0.4704 1.00238 0.0
H3983 H 0.21139 0.44796 0.01617 0.0
C3984 C 0.88409 0.92908 0.26255 0.0
C3985 C 0.89098 0.94438 0.28642 0.0
C3986 C 0.86969 0.90588 0.25863 0.0
C3987 C 0.86217 0.89793 0.27902 0.0
C3988 C 0.8698 0.91292 0.30318 0.0
C3989 C 0.88404 0.9358 0.30654 0.0
C3990 C 0.86204 0.89016 0.23266 0.0
C3991 C 0.8624 0.90516 0.32552 0.0
C3992 C 0.80822 0.85441 0.27305 0.0
C3993 C 0.81419 0.83337 0.27802 0.0
C3994 C 0.82363 0.87519 0.27194 0.0
C3995 C 0.84547 0.87468 0.27543 0.0
C3996 C 0.85136 0.8528 0.27882 0.0
C3997 C 0.83561 0.83243 0.28022 0.0
C3998 C 0.81663 0.89816 0.26851 0.0
C3999 C 0.87437 0.85124 0.28205 0.0
H4000 H 0.88941 0.93551 0.24692 0.0
H4001 H 0.88955 0.94721 0.32515 0.0
H4002 H 0.86374 0.87117 0.23242 0.0
H4003 H 0.84482 0.88893 0.22634 0.0
H4004 H 0.87096 0.89769 0.21924 0.0
H4005 H 0.87038 0.91868 0.34316 0.0
H4006 H 0.84489 0.90298 0.32331 0.0
H4007 H 0.86564 0.88711 0.32704 0.0
H4008 H 0.79159 0.85503 0.27116 0.0
H4009 H 0.84002 0.81576 0.28293 0.0
H4010 H 0.82348 0.90547 0.25362 0.0
H4011 H 0.82267 0.91252 0.28593 0.0
H4012 H 0.79896 0.89483 0.26375 0.0
H4013 H 0.88207 0.85901 0.26791 0.0
H4014 H 0.87587 0.83201 0.28061 0.0
H4015 H 0.88331 0.86227 0.30058 0.0
C4016 C 0.69868 0.09703 0.81 0.0
C4017 C 0.71003 0.08398 0.82418 0.0
C4018 C 0.708 0.12132 0.80771 0.0
C4019 C 0.72964 0.13329 0.81924 0.0
C4020 C 0.74131 0.12 0.83313 0.0
C4021 C 0.73142 0.09604 0.83573 0.0
C4022 C 0.6944 0.13441 0.79324 0.0
C4023 C 0.76449 0.13109 0.84524 0.0
C4024 C 0.75913 0.18768 0.79406 0.0
C4025 C 0.76001 0.20871 0.8123 0.0
C4026 C 0.74971 0.16343 0.79623 0.0
C4027 C 0.74005 0.15945 0.81678 0.0
C4028 C 0.74066 0.18067 0.83508 0.0
C4029 C 0.75076 0.20468 0.83283 0.0
C4030 C 0.75038 0.14191 0.77651 0.0
C4031 C 0.73032 0.17807 0.85708 0.0
H4032 H 0.68216 0.08847 0.80112 0.0
H4033 H 0.74063 0.08658 0.84676 0.0
H4034 H 0.69408 0.15204 0.80524 0.0
H4035 H 0.70141 0.13889 0.7773 0.0
H4036 H 0.67773 0.12323 0.78609 0.0
H4037 H 0.77185 0.11818 0.85424 0.0
H4038 H 0.77368 0.13658 0.83119 0.0
H4039 H 0.76599 0.14796 0.85949 0.0
H4040 H 0.76617 0.19012 0.77808 0.0
H4041 H 0.751 0.22046 0.84705 0.0
H4042 H 0.7339 0.13151 0.76715 0.0
H4043 H 0.75818 0.12914 0.78519 0.0
H4044 H 0.75918 0.14771 0.76224 0.0
H4045 H 0.71333 0.16784 0.85057 0.0
H4046 H 0.73109 0.19615 0.86906 0.0
H4047 H 0.73833 0.16729 0.86847 0.0
loop_
_geom_bond_atom_site_label_1
_geom_bond_atom_site_label_2
_geom_bond_distance
_geom_bond_site_symmetry_2
_ccdc_geom_bond_type
Mg0 O1 2.028 1_655 S
Mg0 O7 1.983 1_655 S
Mg0 O9 2.122 . S
Mg0 O10 2.267 . S
Mg0 O13 1.996 1_655 S
O1 Mg0 2.028 1_455 S
O1 C4 1.250 . S
O2 Mg3 2.028 . S
O2 C4 1.248 1_655 S
Mg3 O2 2.028 . S
Mg3 O8 2.032 . S
Mg3 O10 2.079 . S
C4 O1 1.250 . S
C4 O2 1.248 1_455 S
C5 O6 1.264 . S
C5 O13 1.249 . S
O6 C5 1.264 . S
O7 Mg0 1.983 1_455 S
O7 C11 1.246 1_455 S
O8 Mg3 2.032 . S
O8 C11 1.259 . S
O9 Mg0 2.122 . S
O9 C12 1.252 . S
O10 Mg0 2.267 . S
O10 Mg3 2.079 . S
O10 C12 1.273 . S
C11 O7 1.246 1_655 S
C11 O8 1.259 . S
C12 O9 1.252 . S
C12 O10 1.273 . S
O13 Mg0 1.996 1_455 S
O13 C5 1.249 . S
Mg14 O15 2.028 . S
Mg14 O21 1.986 . S
Mg14 O23 2.114 . S
Mg14 O24 2.251 . S
Mg14 O27 2.010 . S
O15 Mg14 2.028 . S
O15 C18 1.250 . S
O16 Mg17 2.028 . S
O16 C18 1.248 . S
Mg17 O16 2.028 . S
Mg17 O22 2.032 . S
Mg17 O24 2.079 . S
C18 O15 1.250 . S
C18 O16 1.248 . S
C19 O20 1.264 . S
C19 O27 1.249 . S
O20 C19 1.264 . S
O21 Mg14 1.986 . S
O21 C25 1.246 . S
O22 Mg17 2.032 . S
O22 C25 1.259 . S
O23 Mg14 2.114 . S
O23 C26 1.252 . S
O24 Mg14 2.251 . S
O24 Mg17 2.079 . S
O24 C26 1.273 . S
C25 O21 1.246 . S
C25 O22 1.259 . S
C26 O23 1.252 . S
C26 O24 1.273 . S
O27 Mg14 2.010 . S
O27 C19 1.249 . S
Mg28 O29 2.028 . S
Mg28 O35 1.986 . S
Mg28 O37 2.114 . S
Mg28 O38 2.251 . S
Mg28 O41 2.010 . S
O29 Mg28 2.028 . S
O29 C32 1.250 . S
O30 Mg31 2.028 . S
O30 C32 1.248 . S
Mg31 O30 2.028 . S
Mg31 O36 2.032 . S
Mg31 O38 2.079 . S
C32 O29 1.250 . S
C32 O30 1.248 . S
C33 O34 1.264 . S
C33 O41 1.249 . S
O34 C33 1.264 . S
O35 Mg28 1.986 . S
O35 C39 1.246 . S
O36 Mg31 2.032 . S
O36 C39 1.259 . S
O37 Mg28 2.114 . S
O37 C40 1.252 . S
O38 Mg28 2.251 . S
O38 Mg31 2.079 . S
O38 C40 1.273 . S
C39 O35 1.246 . S
C39 O36 1.259 . S
C40 O37 1.252 . S
C40 O38 1.273 . S
O41 Mg28 2.010 . S
O41 C33 1.249 . S
Mg42 O43 2.028 . S
Mg42 O49 1.986 . S
Mg42 O51 2.114 . S
Mg42 O52 2.251 . S
Mg42 O55 2.010 . S
O43 Mg42 2.028 . S
O43 C46 1.250 . S
O44 Mg45 2.028 . S
O44 C46 1.248 . S
Mg45 O44 2.028 . S
Mg45 O50 2.032 . S
Mg45 O52 2.079 . S
C46 O43 1.250 . S
C46 O44 1.248 . S
C47 O48 1.264 . S
C47 O55 1.249 . S
O48 C47 1.264 . S
O49 Mg42 1.986 . S
O49 C53 1.246 . S
O50 Mg45 2.032 . S
O50 C53 1.259 . S
O51 Mg42 2.114 . S
O51 C54 1.252 . S
O52 Mg42 2.251 . S
O52 Mg45 2.079 . S
O52 C54 1.273 . S
C53 O49 1.246 . S
C53 O50 1.259 . S
C54 O51 1.252 . S
C54 O52 1.273 . S
O55 Mg42 2.010 . S
O55 C47 1.249 . S
Mg56 O57 2.028 . S
Mg56 O63 1.986 . S
Mg56 O65 2.114 . S
Mg56 O66 2.251 . S
Mg56 O69 2.010 . S
O57 Mg56 2.028 . S
O57 C60 1.250 . S
O58 Mg59 2.028 . S
O58 C60 1.248 . S
Mg59 O58 2.028 . S
Mg59 O64 2.032 . S
Mg59 O66 2.079 . S
C60 O57 1.250 . S
C60 O58 1.248 . S
C61 O62 1.264 . S
C61 O69 1.249 . S
O62 C61 1.264 . S
O63 Mg56 1.986 . S
O63 C67 1.246 . S
O64 Mg59 2.032 . S
O64 C67 1.259 . S
O65 Mg56 2.114 . S
O65 C68 1.252 . S
O66 Mg56 2.251 . S
O66 Mg59 2.079 . S
O66 C68 1.273 . S
C67 O63 1.246 . S
C67 O64 1.259 . S
C68 O65 1.252 . S
C68 O66 1.273 . S
O69 Mg56 2.010 . S
O69 C61 1.249 . S
Mg70 O71 2.028 . S
Mg70 O77 1.986 . S
Mg70 O79 2.114 . S
Mg70 O80 2.251 . S
Mg70 O83 2.010 . S
O71 Mg70 2.028 . S
O71 C74 1.250 . S
O72 Mg73 2.028 . S
O72 C74 1.248 . S
Mg73 O72 2.028 . S
Mg73 O78 2.032 . S
Mg73 O80 2.079 . S
C74 O71 1.250 . S
C74 O72 1.248 . S
C75 O76 1.264 . S
C75 O83 1.249 . S
O76 C75 1.264 . S
O77 Mg70 1.986 . S
O77 C81 1.246 . S
O78 Mg73 2.032 . S
O78 C81 1.259 . S
O79 Mg70 2.114 . S
O79 C82 1.252 . S
O80 Mg70 2.251 . S
O80 Mg73 2.079 . S
O80 C82 1.273 . S
C81 O77 1.246 . S
C81 O78 1.259 . S
C82 O79 1.252 . S
C82 O80 1.273 . S
O83 Mg70 2.010 . S
O83 C75 1.249 . S
Mg84 O85 2.028 . S
Mg84 O91 1.986 . S
Mg84 O93 2.114 . S
Mg84 O94 2.251 . S
Mg84 O97 2.010 . S
O85 Mg84 2.028 . S
O85 C88 1.250 . S
O86 Mg87 2.028 . S
O86 C88 1.248 . S
Mg87 O86 2.028 . S
Mg87 O92 2.032 . S
Mg87 O94 2.079 . S
C88 O85 1.250 . S
C88 O86 1.248 . S
C89 O90 1.264 . S
C89 O97 1.249 . S
O90 C89 1.264 . S
O91 Mg84 1.986 . S
O91 C95 1.246 . S
O92 Mg87 2.032 . S
O92 C95 1.259 . S
O93 Mg84 2.114 . S
O93 C96 1.252 . S
O94 Mg84 2.251 . S
O94 Mg87 2.079 . S
O94 C96 1.273 . S
C95 O91 1.246 . S
C95 O92 1.259 . S
C96 O93 1.252 . S
C96 O94 1.273 . S
O97 Mg84 2.010 . S
O97 C89 1.249 . S
Mg98 O99 2.028 . S
Mg98 O105 1.986 . S
Mg98 O107 2.114 1_455 S
Mg98 O108 2.251 1_455 S
Mg98 O111 2.010 . S
O99 Mg98 2.028 . S
O99 C102 1.250 . S
O100 Mg101 2.028 . S
O100 C102 1.248 1_655 S
Mg101 O100 2.028 . S
Mg101 O106 2.032 . S
Mg101 O108 2.079 . S
C102 O99 1.250 . S
C102 O100 1.248 1_455 S
C103 O104 1.264 . S
C103 O111 1.249 . S
O104 C103 1.264 . S
O105 Mg98 1.986 . S
O105 C109 1.246 . S
O106 Mg101 2.032 . S
O106 C109 1.259 1_655 S
O107 Mg98 2.114 1_655 S
O107 C110 1.252 . S
O108 Mg98 2.251 1_655 S
O108 Mg101 2.079 . S
O108 C110 1.273 . S
C109 O105 1.246 . S
C109 O106 1.259 1_455 S
C110 O107 1.252 . S
C110 O108 1.273 . S
O111 Mg98 2.010 . S
O111 C103 1.249 . S
Mg112 O113 2.024 1_545 S
Mg112 O119 1.986 . S
Mg112 O121 2.114 . S
Mg112 O122 2.251 . S
Mg112 O125 2.010 . S
O113 Mg112 2.024 1_565 S
O113 C116 1.253 . S
O114 Mg115 2.028 1_565 S
O114 C116 1.248 . S
Mg115 O114 2.028 1_545 S
Mg115 O120 2.032 . S
Mg115 O122 2.079 . S
C116 O113 1.253 . S
C116 O114 1.248 . S
C117 O118 1.264 . S
C117 O125 1.249 . S
O118 C117 1.264 . S
O119 Mg112 1.986 . S
O119 C123 1.246 . S
O120 Mg115 2.032 . S
O120 C123 1.259 . S
O121 Mg112 2.114 . S
O121 C124 1.252 . S
O122 Mg112 2.251 . S
O122 Mg115 2.079 . S
O122 C124 1.273 . S
C123 O119 1.246 . S
C123 O120 1.259 . S
C124 O121 1.252 . S
C124 O122 1.273 . S
O125 Mg112 2.010 . S
O125 C117 1.249 . S
Mg126 O127 2.028 . S
Mg126 O133 1.986 . S
Mg126 O135 2.114 . S
Mg126 O136 2.251 . S
Mg126 O139 2.010 . S
O127 Mg126 2.028 . S
O127 C130 1.250 . S
O128 Mg129 2.028 . S
O128 C130 1.248 . S
Mg129 O128 2.028 . S
Mg129 O134 2.032 . S
Mg129 O136 2.079 . S
C130 O127 1.250 . S
C130 O128 1.248 . S
C131 O132 1.264 . S
C131 O139 1.249 . S
O132 C131 1.264 . S
O133 Mg126 1.986 . S
O133 C137 1.246 . S
O134 Mg129 2.032 . S
O134 C137 1.259 . S
O135 Mg126 2.114 . S
O135 C138 1.252 . S
O136 Mg126 2.251 . S
O136 Mg129 2.079 . S
O136 C138 1.273 . S
C137 O133 1.246 . S
C137 O134 1.259 . S
C138 O135 1.252 . S
C138 O136 1.273 . S
O139 Mg126 2.010 . S
O139 C131 1.249 . S
Mg140 O141 2.028 . S
Mg140 O147 1.986 . S
Mg140 O149 2.114 . S
Mg140 O150 2.251 . S
Mg140 O153 2.010 . S
O141 Mg140 2.028 . S
O141 C144 1.250 . S
O142 Mg143 2.028 . S
O142 C144 1.248 . S
Mg143 O142 2.028 . S
Mg143 O148 2.032 . S
Mg143 O150 2.079 . S
C144 O141 1.250 . S
C144 O142 1.248 . S
C145 O146 1.264 . S
C145 O153 1.249 . S
O146 C145 1.264 . S
O147 Mg140 1.986 . S
O147 C151 1.246 . S
O148 Mg143 2.032 . S
O148 C151 1.259 . S
O149 Mg140 2.114 . S
O149 C152 1.252 . S
O150 Mg140 2.251 . S
O150 Mg143 2.079 . S
O150 C152 1.273 . S
C151 O147 1.246 . S
C151 O148 1.259 . S
C152 O149 1.252 . S
C152 O150 1.273 . S
O153 Mg140 2.010 . S
O153 C145 1.249 . S
Mg154 O155 2.028 1_554 S
Mg154 O161 1.986 . S
Mg154 O163 2.089 1_554 S
Mg154 O164 2.251 . S
Mg154 O167 2.010 . S
O155 Mg154 2.028 1_556 S
O155 C158 1.250 . S
O156 Mg157 2.028 1_556 S
O156 C158 1.248 . S
Mg157 O156 2.028 1_554 S
Mg157 O162 2.032 . S
Mg157 O164 2.079 . S
C158 O155 1.250 . S
C158 O156 1.248 . S
C159 O160 1.264 . S
C159 O167 1.249 . S
O160 C159 1.264 . S
O161 Mg154 1.986 . S
O161 C165 1.246 . S
O162 Mg157 2.032 . S
O162 C165 1.259 . S
O163 Mg154 2.089 1_556 S
O163 C166 1.242 1_556 S
O164 Mg154 2.251 . S
O164 Mg157 2.079 . S
O164 C166 1.273 . S
C165 O161 1.246 . S
C165 O162 1.259 . S
C166 O163 1.242 1_554 S
C166 O164 1.273 . S
O167 Mg154 2.010 . S
O167 C159 1.249 . S
Mg168 O169 2.028 . S
Mg168 O175 1.986 . S
Mg168 O177 2.114 . S
Mg168 O178 2.251 . S
Mg168 O181 2.010 . S
O169 Mg168 2.028 . S
O169 C172 1.250 . S
O170 Mg171 2.028 . S
O170 C172 1.248 . S
Mg171 O170 2.028 . S
Mg171 O176 2.032 . S
Mg171 O178 2.079 . S
C172 O169 1.250 . S
C172 O170 1.248 . S
C173 O174 1.264 . S
C173 O181 1.249 . S
O174 C173 1.264 . S
O175 Mg168 1.986 . S
O175 C179 1.246 . S
O176 Mg171 2.032 . S
O176 C179 1.259 . S
O177 Mg168 2.114 . S
O177 C180 1.252 . S
O178 Mg168 2.251 . S
O178 Mg171 2.079 . S
O178 C180 1.273 . S
C179 O175 1.246 . S
C179 O176 1.259 . S
C180 O177 1.252 . S
C180 O178 1.273 . S
O181 Mg168 2.010 . S
O181 C173 1.249 . S
Mg182 O183 2.028 . S
Mg182 O189 1.986 . S
Mg182 O191 2.114 . S
Mg182 O192 2.251 . S
Mg182 O195 2.010 . S
O183 Mg182 2.028 . S
O183 C186 1.250 . S
O184 Mg185 2.028 . S
O184 C186 1.248 . S
Mg185 O184 2.028 . S
Mg185 O190 2.032 . S
Mg185 O192 2.079 . S
C186 O183 1.250 . S
C186 O184 1.248 . S
C187 O188 1.264 . S
C187 O195 1.249 . S
O188 C187 1.264 . S
O189 Mg182 1.986 . S
O189 C193 1.246 . S
O190 Mg185 2.032 . S
O190 C193 1.259 . S
O191 Mg182 2.114 . S
O191 C194 1.252 . S
O192 Mg182 2.251 . S
O192 Mg185 2.079 . S
O192 C194 1.273 . S
C193 O189 1.246 . S
C193 O190 1.259 . S
C194 O191 1.252 . S
C194 O192 1.273 . S
O195 Mg182 2.010 . S
O195 C187 1.249 . S
Mg196 O197 2.028 . S
Mg196 O203 1.986 . S
Mg196 O205 2.114 . S
Mg196 O206 2.251 . S
Mg196 O209 2.010 . S
O197 Mg196 2.028 . S
O197 C200 1.250 . S
O198 Mg199 2.028 . S
O198 C200 1.248 . S
Mg199 O198 2.028 . S
Mg199 O204 2.032 . S
Mg199 O206 2.079 . S
C200 O197 1.250 . S
C200 O198 1.248 . S
C201 O202 1.264 . S
C201 O209 1.249 . S
O202 C201 1.264 . S
O203 Mg196 1.986 . S
O203 C207 1.246 . S
O204 Mg199 2.032 . S
O204 C207 1.259 . S
O205 Mg196 2.114 . S
O205 C208 1.252 . S
O206 Mg196 2.251 . S
O206 Mg199 2.079 . S
O206 C208 1.273 . S
C207 O203 1.246 . S
C207 O204 1.259 . S
C208 O205 1.252 . S
C208 O206 1.273 . S
O209 Mg196 2.010 . S
O209 C201 1.249 . S
Mg210 O211 2.028 . S
Mg210 O217 1.986 . S
Mg210 O219 2.114 . S
Mg210 O220 2.251 . S
Mg210 O223 2.010 . S
O211 Mg210 2.028 . S
O211 C214 1.250 . S
O212 Mg213 2.028 . S
O212 C214 1.248 . S
Mg213 O212 2.028 . S
Mg213 O218 2.032 . S
Mg213 O220 2.079 . S
C214 O211 1.250 . S
C214 O212 1.248 . S
C215 O216 1.264 . S
C215 O223 1.249 . S
O216 C215 1.264 . S
O217 Mg210 1.986 . S
O217 C221 1.246 . S
O218 Mg213 2.032 . S
O218 C221 1.259 . S
O219 Mg210 2.114 . S
O219 C222 1.252 . S
O220 Mg210 2.251 . S
O220 Mg213 2.079 . S
O220 C222 1.273 . S
C221 O217 1.246 . S
C221 O218 1.259 . S
C222 O219 1.252 . S
C222 O220 1.273 . S
O223 Mg210 2.010 . S
O223 C215 1.249 . S
Mg224 O225 2.028 1_545 S
Mg224 O231 1.986 . S
Mg224 O233 2.108 1_545 S
Mg224 O234 2.251 . S
Mg224 O237 2.010 . S
O225 Mg224 2.028 1_565 S
O225 C228 1.250 . S
O226 Mg227 2.028 1_565 S
O226 C228 1.248 . S
Mg227 O226 2.028 1_545 S
Mg227 O232 2.032 . S
Mg227 O234 2.079 . S
C228 O225 1.250 . S
C228 O226 1.248 . S
C229 O230 1.264 . S
C229 O237 1.249 . S
O230 C229 1.264 . S
O231 Mg224 1.986 . S
O231 C235 1.246 . S
O232 Mg227 2.032 . S
O232 C235 1.259 . S
O233 Mg224 2.108 1_565 S
O233 C236 1.250 1_565 S
O234 Mg224 2.251 . S
O234 Mg227 2.079 . S
O234 C236 1.273 . S
C235 O231 1.246 . S
C235 O232 1.259 . S
C236 O233 1.250 1_545 S
C236 O234 1.273 . S
O237 Mg224 2.010 . S
O237 C229 1.249 . S
Mg238 O239 2.028 . S
Mg238 O245 1.986 . S
Mg238 O247 2.114 . S
Mg238 O248 2.251 . S
Mg238 O251 2.010 . S
O239 Mg238 2.028 . S
O239 C242 1.250 . S
O240 Mg241 2.028 . S
O240 C242 1.248 . S
Mg241 O240 2.028 . S
Mg241 O246 2.032 . S
Mg241 O248 2.079 . S
C242 O239 1.250 . S
C242 O240 1.248 . S
C243 O244 1.264 . S
C243 O251 1.249 . S
O244 C243 1.264 . S
O245 Mg238 1.986 . S
O245 C249 1.246 . S
O246 Mg241 2.032 . S
O246 C249 1.259 . S
O247 Mg238 2.114 . S
O247 C250 1.252 . S
O248 Mg238 2.251 . S
O248 Mg241 2.079 . S
O248 C250 1.273 . S
C249 O245 1.246 . S
C249 O246 1.259 . S
C250 O247 1.252 . S
C250 O248 1.273 . S
O251 Mg238 2.010 . S
O251 C243 1.249 . S
Mg252 O253 2.028 . S
Mg252 O259 1.986 . S
Mg252 O261 2.114 . S
Mg252 O262 2.251 . S
Mg252 O265 2.010 . S
O253 Mg252 2.028 . S
O253 C256 1.250 . S
O254 Mg255 2.028 . S
O254 C256 1.248 . S
Mg255 O254 2.028 . S
Mg255 O260 2.032 . S
Mg255 O262 2.079 . S
C256 O253 1.250 . S
C256 O254 1.248 . S
C257 O258 1.264 . S
C257 O265 1.249 . S
O258 C257 1.264 . S
O259 Mg252 1.986 . S
O259 C263 1.246 . S
O260 Mg255 2.032 . S
O260 C263 1.259 . S
O261 Mg252 2.114 . S
O261 C264 1.252 . S
O262 Mg252 2.251 . S
O262 Mg255 2.079 . S
O262 C264 1.273 . S
C263 O259 1.246 . S
C263 O260 1.259 . S
C264 O261 1.252 . S
C264 O262 1.273 . S
O265 Mg252 2.010 . S
O265 C257 1.249 . S
Mg266 O267 2.028 . S
Mg266 O273 1.986 1_545 S
Mg266 O275 2.114 . S
Mg266 O276 2.251 . S
Mg266 O279 2.010 . S
O267 Mg266 2.028 . S
O267 C270 1.250 . S
O268 Mg269 2.028 . S
O268 C270 1.248 . S
Mg269 O268 2.028 . S
Mg269 O274 2.067 . S
Mg269 O276 2.079 . S
C270 O267 1.250 . S
C270 O268 1.248 . S
C271 O272 1.264 1_545 S
C271 O279 1.249 . S
O272 C271 1.264 1_565 S
O273 Mg266 1.986 1_565 S
O273 C277 1.246 . S
O274 Mg269 2.067 . S
O274 C277 1.244 1_545 S
O275 Mg266 2.114 . S
O275 C278 1.252 . S
O276 Mg266 2.251 . S
O276 Mg269 2.079 . S
O276 C278 1.273 . S
C277 O273 1.246 . S
C277 O274 1.244 1_565 S
C278 O275 1.252 . S
C278 O276 1.273 . S
O279 Mg266 2.010 . S
O279 C271 1.249 . S
Mg280 O281 2.028 . S
Mg280 O287 1.986 . S
Mg280 O289 2.114 . S
Mg280 O290 2.251 . S
Mg280 O293 2.010 . S
O281 Mg280 2.028 . S
O281 C284 1.250 . S
O282 Mg283 2.028 . S
O282 C284 1.248 . S
Mg283 O282 2.028 . S
Mg283 O288 2.032 . S
Mg283 O290 2.079 . S
C284 O281 1.250 . S
C284 O282 1.248 . S
C285 O286 1.264 . S
C285 O293 1.249 . S
O286 C285 1.264 . S
O287 Mg280 1.986 . S
O287 C291 1.246 . S
O288 Mg283 2.032 . S
O288 C291 1.259 . S
O289 Mg280 2.114 . S
O289 C292 1.252 . S
O290 Mg280 2.251 . S
O290 Mg283 2.079 . S
O290 C292 1.273 . S
C291 O287 1.246 . S
C291 O288 1.259 . S
C292 O289 1.252 . S
C292 O290 1.273 . S
O293 Mg280 2.010 . S
O293 C285 1.249 . S
Mg294 O295 2.028 . S
Mg294 O301 1.986 . S
Mg294 O303 2.114 . S
Mg294 O304 2.251 . S
Mg294 O307 2.010 . S
O295 Mg294 2.028 . S
O295 C298 1.250 . S
O296 Mg297 2.028 . S
O296 C298 1.248 . S
Mg297 O296 2.028 . S
Mg297 O302 2.032 . S
Mg297 O304 2.079 . S
C298 O295 1.250 . S
C298 O296 1.248 . S
C299 O300 1.264 . S
C299 O307 1.249 . S
O300 C299 1.264 . S
O301 Mg294 1.986 . S
O301 C305 1.246 . S
O302 Mg297 2.032 . S
O302 C305 1.259 . S
O303 Mg294 2.114 . S
O303 C306 1.252 . S
O304 Mg294 2.251 . S
O304 Mg297 2.079 . S
O304 C306 1.273 . S
C305 O301 1.246 . S
C305 O302 1.259 . S
C306 O303 1.252 . S
C306 O304 1.273 . S
O307 Mg294 2.010 . S
O307 C299 1.249 . S
Mg308 O309 2.028 . S
Mg308 O315 1.986 . S
Mg308 O317 2.114 . S
Mg308 O318 2.251 . S
Mg308 O321 2.010 . S
O309 Mg308 2.028 . S
O309 C312 1.250 . S
O310 Mg311 2.028 . S
O310 C312 1.248 . S
Mg311 O310 2.028 . S
Mg311 O316 2.032 . S
Mg311 O318 2.079 . S
C312 O309 1.250 . S
C312 O310 1.248 . S
C313 O314 1.264 . S
C313 O321 1.249 . S
O314 C313 1.264 . S
O315 Mg308 1.986 . S
O315 C319 1.246 . S
O316 Mg311 2.032 . S
O316 C319 1.259 . S
O317 Mg308 2.114 . S
O317 C320 1.252 . S
O318 Mg308 2.251 . S
O318 Mg311 2.079 . S
O318 C320 1.273 . S
C319 O315 1.246 . S
C319 O316 1.259 . S
C320 O317 1.252 . S
C320 O318 1.273 . S
O321 Mg308 2.010 . S
O321 C313 1.249 . S
Mg322 O323 2.028 . S
Mg322 O329 1.986 . S
Mg322 O331 2.114 . S
Mg322 O332 2.251 . S
Mg322 O335 2.010 . S
O323 Mg322 2.028 . S
O323 C326 1.250 . S
O324 Mg325 2.028 . S
O324 C326 1.248 . S
Mg325 O324 2.028 . S
Mg325 O330 2.032 . S
Mg325 O332 2.079 . S
C326 O323 1.250 . S
C326 O324 1.248 . S
C327 O328 1.264 . S
C327 O335 1.249 . S
O328 C327 1.264 . S
O329 Mg322 1.986 . S
O329 C333 1.246 . S
O330 Mg325 2.032 . S
O330 C333 1.259 . S
O331 Mg322 2.114 . S
O331 C334 1.252 . S
O332 Mg322 2.251 . S
O332 Mg325 2.079 . S
O332 C334 1.273 . S
C333 O329 1.246 . S
C333 O330 1.259 . S
C334 O331 1.252 . S
C334 O332 1.273 . S
O335 Mg322 2.010 . S
O335 C327 1.249 . S
Tb336 C338 2.809 . S
Tb336 O356 2.484 . S
Tb336 O357 2.440 1_554 S
Tb336 O358 2.658 1_655 S
Tb336 O359 2.409 1_654 S
Tb336 O360 2.378 1_655 S
Tb336 O364 2.325 1_655 S
Tb336 O367 2.341 1_645 S
Tb337 C347 2.811 . S
Tb337 O358 2.325 . S
Tb337 O361 2.341 . S
Tb337 O362 2.484 1_545 S
Tb337 O363 2.440 . S
Tb337 O364 2.658 . S
Tb337 O365 2.409 . S
Tb337 O366 2.378 1_545 S
C338 Tb336 2.809 . S
C338 C339 1.514 . S
C338 O356 1.248 . S
C338 O357 1.266 1_554 S
C339 C338 1.514 . S
C339 C340 1.359 . S
C339 C344 1.348 1_554 S
C340 C339 1.359 . S
C340 C341 1.380 . S
C340 H368 0.929 . S
C341 C340 1.380 . S
C341 C342 1.347 . S
C341 H369 0.931 . S
C342 C341 1.347 . S
C342 C343 1.369 1_554 S
C343 C342 1.369 1_556 S
C343 C344 1.408 . S
C343 H370 0.930 . S
C344 C339 1.348 1_556 S
C344 C343 1.408 . S
C344 H371 0.930 . S
C345 O358 1.281 1_556 S
C345 O359 1.254 . S
C346 O360 1.236 . S
C346 O361 1.266 . S
C347 Tb337 2.811 . S
C347 C348 1.511 1_545 S
C347 O362 1.249 1_545 S
C347 O363 1.267 . S
C348 C347 1.511 1_565 S
C348 C349 1.359 . S
C348 C353 1.348 . S
C349 C348 1.359 . S
C349 C350 1.380 . S
C349 H372 0.929 . S
C350 C349 1.380 . S
C350 C351 1.347 . S
C350 H373 0.931 . S
C351 C350 1.347 . S
C351 C352 1.369 . S
C352 C351 1.369 . S
C352 C353 1.408 . S
C352 H374 0.930 . S
C353 C348 1.348 . S
C353 C352 1.408 . S
C353 H375 0.930 . S
C354 O364 1.281 . S
C354 O365 1.254 . S
C355 O366 1.236 . S
C355 O367 1.266 . S
O356 Tb336 2.484 . S
O356 C338 1.248 . S
O357 Tb336 2.440 1_556 S
O357 C338 1.266 1_556 S
O358 Tb336 2.658 1_455 S
O358 Tb337 2.325 . S
O358 C345 1.281 1_554 S
O359 Tb336 2.409 1_456 S
O359 C345 1.254 . S
O360 Tb336 2.378 1_455 S
O360 C346 1.236 . S
O361 Tb337 2.341 . S
O361 C346 1.266 . S
O362 Tb337 2.484 1_565 S
O362 C347 1.249 1_565 S
O363 Tb337 2.440 . S
O363 C347 1.267 . S
O364 Tb336 2.325 1_455 S
O364 Tb337 2.658 . S
O364 C354 1.281 . S
O365 Tb337 2.409 . S
O365 C354 1.254 . S
O366 Tb337 2.378 1_565 S
O366 C355 1.236 . S
O367 Tb336 2.341 1_465 S
O367 C355 1.266 . S
H368 C340 0.929 . S
H369 C341 0.931 . S
H370 C343 0.930 . S
H371 C344 0.930 . S
H372 C349 0.929 . S
H373 C350 0.931 . S
H374 C352 0.930 . S
H375 C353 0.930 . S
Tb376 C378 2.809 . S
Tb376 O396 2.484 . S
Tb376 O397 2.440 . S
Tb376 O398 2.658 . S
Tb376 O399 2.409 . S
Tb376 O400 2.378 . S
Tb376 O404 2.325 . S
Tb376 O407 2.341 . S
Tb377 C387 2.809 . S
Tb377 O398 2.325 . S
Tb377 O401 2.341 . S
Tb377 O402 2.484 . S
Tb377 O403 2.440 . S
Tb377 O404 2.658 . S
Tb377 O405 2.409 . S
Tb377 O406 2.378 . S
C378 Tb376 2.809 . S
C378 C379 1.514 . S
C378 O396 1.248 . S
C378 O397 1.266 . S
C379 C378 1.514 . S
C379 C380 1.359 . S
C379 C384 1.348 . S
C380 C379 1.359 . S
C380 C381 1.380 . S
C380 H408 0.929 . S
C381 C380 1.380 . S
C381 C382 1.347 . S
C381 H409 0.931 . S
C382 C381 1.347 . S
C382 C383 1.369 . S
C383 C382 1.369 . S
C383 C384 1.408 . S
C383 H410 0.930 . S
C384 C379 1.348 . S
C384 C383 1.408 . S
C384 H411 0.930 . S
C385 O398 1.281 . S
C385 O399 1.254 . S
C386 O400 1.236 . S
C386 O401 1.266 . S
C387 Tb377 2.809 . S
C387 C388 1.514 . S
C387 O402 1.248 . S
C387 O403 1.266 . S
C388 C387 1.514 . S
C388 C389 1.359 . S
C388 C393 1.348 . S
C389 C388 1.359 . S
C389 C390 1.380 . S
C389 H412 0.929 . S
C390 C389 1.380 . S
C390 C391 1.347 . S
C390 H413 0.931 . S
C391 C390 1.347 . S
C391 C392 1.369 . S
C392 C391 1.369 . S
C392 C393 1.408 . S
C392 H414 0.930 . S
C393 C388 1.348 . S
C393 C392 1.408 . S
C393 H415 0.930 . S
C394 O404 1.281 . S
C394 O405 1.254 . S
C395 O406 1.236 . S
C395 O407 1.266 . S
O396 Tb376 2.484 . S
O396 C378 1.248 . S
O397 Tb376 2.440 . S
O397 C378 1.266 . S
O398 Tb376 2.658 . S
O398 Tb377 2.325 . S
O398 C385 1.281 . S
O399 Tb376 2.409 . S
O399 C385 1.254 . S
O400 Tb376 2.378 . S
O400 C386 1.236 . S
O401 Tb377 2.341 . S
O401 C386 1.266 . S
O402 Tb377 2.484 . S
O402 C387 1.248 . S
O403 Tb377 2.440 . S
O403 C387 1.266 . S
O404 Tb376 2.325 . S
O404 Tb377 2.658 . S
O404 C394 1.281 . S
O405 Tb377 2.409 . S
O405 C394 1.254 . S
O406 Tb377 2.378 . S
O406 C395 1.236 . S
O407 Tb376 2.341 . S
O407 C395 1.266 . S
H408 C380 0.929 . S
H409 C381 0.931 . S
H410 C383 0.930 . S
H411 C384 0.930 . S
H412 C389 0.929 . S
H413 C390 0.931 . S
H414 C392 0.930 . S
H415 C393 0.930 . S
Tb416 C418 2.823 . S
Tb416 O436 2.484 . S
Tb416 O437 2.440 . S
Tb416 O438 2.658 . S
Tb416 O439 2.409 . S
Tb416 O440 2.378 1_545 S
Tb416 O444 2.325 . S
Tb416 O447 2.341 . S
Tb417 C427 2.809 . S
Tb417 O438 2.325 . S
Tb417 O441 2.341 1_545 S
Tb417 O442 2.484 . S
Tb417 O443 2.440 . S
Tb417 O444 2.658 . S
Tb417 O445 2.409 . S
Tb417 O446 2.378 . S
C418 Tb416 2.823 . S
C418 C419 1.499 1_545 S
C418 O436 1.248 . S
C418 O437 1.280 . S
C419 C418 1.499 1_565 S
C419 C420 1.359 . S
C419 C424 1.348 . S
C420 C419 1.359 . S
C420 C421 1.380 . S
C420 H448 0.929 . S
C421 C420 1.380 . S
C421 C422 1.347 . S
C421 H449 0.931 . S
C422 C421 1.347 . S
C422 C423 1.369 . S
C423 C422 1.369 . S
C423 C424 1.408 . S
C423 H450 0.930 . S
C424 C419 1.348 . S
C424 C423 1.408 . S
C424 H451 0.930 . S
C425 O438 1.281 . S
C425 O439 1.254 . S
C426 O440 1.236 . S
C426 O441 1.266 . S
C427 Tb417 2.809 . S
C427 C428 1.514 . S
C427 O442 1.248 . S
C427 O443 1.266 . S
C428 C427 1.514 . S
C428 C429 1.359 . S
C428 C433 1.348 . S
C429 C428 1.359 . S
C429 C430 1.380 . S
C429 H452 0.929 . S
C430 C429 1.380 . S
C430 C431 1.347 . S
C430 H453 0.931 . S
C431 C430 1.347 . S
C431 C432 1.369 . S
C432 C431 1.369 . S
C432 C433 1.408 . S
C432 H454 0.930 . S
C433 C428 1.348 . S
C433 C432 1.408 . S
C433 H455 0.930 . S
C434 O444 1.281 . S
C434 O445 1.254 . S
C435 O446 1.236 . S
C435 O447 1.266 . S
O436 Tb416 2.484 . S
O436 C418 1.248 . S
O437 Tb416 2.440 . S
O437 C418 1.280 . S
O438 Tb416 2.658 . S
O438 Tb417 2.325 . S
O438 C425 1.281 . S
O439 Tb416 2.409 . S
O439 C425 1.254 . S
O440 Tb416 2.378 1_565 S
O440 C426 1.236 . S
O441 Tb417 2.341 1_565 S
O441 C426 1.266 . S
O442 Tb417 2.484 . S
O442 C427 1.248 . S
O443 Tb417 2.440 . S
O443 C427 1.266 . S
O444 Tb416 2.325 . S
O444 Tb417 2.658 . S
O444 C434 1.281 . S
O445 Tb417 2.409 . S
O445 C434 1.254 . S
O446 Tb417 2.378 . S
O446 C435 1.236 . S
O447 Tb416 2.341 . S
O447 C435 1.266 . S
H448 C420 0.929 . S
H449 C421 0.931 . S
H450 C423 0.930 . S
H451 C424 0.930 . S
H452 C429 0.929 . S
H453 C430 0.931 . S
H454 C432 0.930 . S
H455 C433 0.930 . S
Tb456 C458 2.809 . S
Tb456 O476 2.484 . S
Tb456 O477 2.440 . S
Tb456 O478 2.658 . S
Tb456 O479 2.409 . S
Tb456 O480 2.378 . S
Tb456 O484 2.325 . S
Tb456 O487 2.341 . S
Tb457 C467 2.809 . S
Tb457 O478 2.325 . S
Tb457 O481 2.341 . S
Tb457 O482 2.484 . S
Tb457 O483 2.440 . S
Tb457 O484 2.658 . S
Tb457 O485 2.409 . S
Tb457 O486 2.378 . S
C458 Tb456 2.809 . S
C458 C459 1.514 . S
C458 O476 1.248 . S
C458 O477 1.266 . S
C459 C458 1.514 . S
C459 C460 1.359 . S
C459 C464 1.348 . S
C460 C459 1.359 . S
C460 C461 1.380 . S
C460 H488 0.929 . S
C461 C460 1.380 . S
C461 C462 1.347 . S
C461 H489 0.931 . S
C462 C461 1.347 . S
C462 C463 1.369 . S
C463 C462 1.369 . S
C463 C464 1.408 . S
C463 H490 0.930 . S
C464 C459 1.348 . S
C464 C463 1.408 . S
C464 H491 0.930 . S
C465 O478 1.281 . S
C465 O479 1.254 . S
C466 O480 1.236 . S
C466 O481 1.266 . S
C467 Tb457 2.809 . S
C467 C468 1.514 . S
C467 O482 1.248 . S
C467 O483 1.266 . S
C468 C467 1.514 . S
C468 C469 1.359 . S
C468 C473 1.348 . S
C469 C468 1.359 . S
C469 C470 1.380 . S
C469 H492 0.929 . S
C470 C469 1.380 . S
C470 C471 1.347 . S
C470 H493 0.931 . S
C471 C470 1.347 . S
C471 C472 1.369 . S
C472 C471 1.369 . S
C472 C473 1.408 . S
C472 H494 0.930 . S
C473 C468 1.348 . S
C473 C472 1.408 . S
C473 H495 0.930 . S
C474 O484 1.281 . S
C474 O485 1.254 . S
C475 O486 1.236 . S
C475 O487 1.266 . S
O476 Tb456 2.484 . S
O476 C458 1.248 . S
O477 Tb456 2.440 . S
O477 C458 1.266 . S
O478 Tb456 2.658 . S
O478 Tb457 2.325 . S
O478 C465 1.281 . S
O479 Tb456 2.409 . S
O479 C465 1.254 . S
O480 Tb456 2.378 . S
O480 C466 1.236 . S
O481 Tb457 2.341 . S
O481 C466 1.266 . S
O482 Tb457 2.484 . S
O482 C467 1.248 . S
O483 Tb457 2.440 . S
O483 C467 1.266 . S
O484 Tb456 2.325 . S
O484 Tb457 2.658 . S
O484 C474 1.281 . S
O485 Tb457 2.409 . S
O485 C474 1.254 . S
O486 Tb457 2.378 . S
O486 C475 1.236 . S
O487 Tb456 2.341 . S
O487 C475 1.266 . S
H488 C460 0.929 . S
H489 C461 0.931 . S
H490 C463 0.930 . S
H491 C464 0.930 . S
H492 C469 0.929 . S
H493 C470 0.931 . S
H494 C472 0.930 . S
H495 C473 0.930 . S
Tb496 C498 2.809 . S
Tb496 O516 2.484 . S
Tb496 O517 2.440 1_455 S
Tb496 O518 2.658 . S
Tb496 O519 2.409 1_455 S
Tb496 O520 2.378 . S
Tb496 O524 2.325 . S
Tb496 O527 2.341 . S
Tb497 C507 2.809 . S
Tb497 O518 2.325 1_565 S
Tb497 O521 2.354 . S
Tb497 O522 2.484 . S
Tb497 O523 2.440 . S
Tb497 O524 2.658 1_565 S
Tb497 O525 2.409 1_565 S
Tb497 O526 2.378 1_565 S
C498 Tb496 2.809 . S
C498 C499 1.514 . S
C498 O516 1.248 . S
C498 O517 1.266 1_455 S
C499 C498 1.514 . S
C499 C500 1.359 . S
C499 C504 1.348 1_455 S
C500 C499 1.359 . S
C500 C501 1.380 . S
C500 H528 0.929 . S
C501 C500 1.380 . S
C501 C502 1.347 1_455 S
C501 H529 0.931 . S
C502 C501 1.347 1_655 S
C502 C503 1.369 . S
C503 C502 1.369 . S
C503 C504 1.408 . S
C503 H530 0.930 . S
C504 C499 1.348 1_655 S
C504 C503 1.408 . S
C504 H531 0.930 . S
C505 O518 1.281 1_655 S
C505 O519 1.254 . S
C506 O520 1.236 . S
C506 O521 1.244 1_545 S
C507 Tb497 2.809 . S
C507 C508 1.514 . S
C507 O522 1.248 . S
C507 O523 1.266 . S
C508 C507 1.514 . S
C508 C509 1.359 . S
C508 C513 1.348 . S
C509 C508 1.359 . S
C509 C510 1.380 . S
C509 H532 0.929 . S
C510 C509 1.380 . S
C510 C511 1.347 . S
C510 H533 0.931 . S
C511 C510 1.347 . S
C511 C512 1.369 . S
C512 C511 1.369 . S
C512 C513 1.408 . S
C512 H534 0.930 . S
C513 C508 1.348 . S
C513 C512 1.408 . S
C513 H535 0.930 . S
C514 O524 1.281 . S
C514 O525 1.254 . S
C515 O526 1.236 . S
C515 O527 1.266 . S
O516 Tb496 2.484 . S
O516 C498 1.248 . S
O517 Tb496 2.440 1_655 S
O517 C498 1.266 1_655 S
O518 Tb496 2.658 . S
O518 Tb497 2.325 1_545 S
O518 C505 1.281 1_455 S
O519 Tb496 2.409 1_655 S
O519 C505 1.254 . S
O520 Tb496 2.378 . S
O520 C506 1.236 . S
O521 Tb497 2.354 . S
O521 C506 1.244 1_565 S
O522 Tb497 2.484 . S
O522 C507 1.248 . S
O523 Tb497 2.440 . S
O523 C507 1.266 . S
O524 Tb496 2.325 . S
O524 Tb497 2.658 1_545 S
O524 C514 1.281 . S
O525 Tb497 2.409 1_545 S
O525 C514 1.254 . S
O526 Tb497 2.378 1_545 S
O526 C515 1.236 . S
O527 Tb496 2.341 . S
O527 C515 1.266 . S
H528 C500 0.929 . S
H529 C501 0.931 . S
H530 C503 0.930 . S
H531 C504 0.930 . S
H532 C509 0.929 . S
H533 C510 0.931 . S
H534 C512 0.930 . S
H535 C513 0.930 . S
Tb536 C538 2.809 . S
Tb536 O556 2.484 . S
Tb536 O557 2.440 . S
Tb536 O558 2.658 . S
Tb536 O559 2.409 . S
Tb536 O560 2.378 . S
Tb536 O564 2.325 . S
Tb536 O567 2.341 . S
Tb537 C547 2.809 . S
Tb537 O558 2.325 . S
Tb537 O561 2.341 . S
Tb537 O562 2.484 . S
Tb537 O563 2.440 . S
Tb537 O564 2.658 . S
Tb537 O565 2.409 . S
Tb537 O566 2.378 . S
C538 Tb536 2.809 . S
C538 C539 1.514 . S
C538 O556 1.248 . S
C538 O557 1.266 . S
C539 C538 1.514 . S
C539 C540 1.359 . S
C539 C544 1.348 . S
C540 C539 1.359 . S
C540 C541 1.380 . S
C540 H568 0.929 . S
C541 C540 1.380 . S
C541 C542 1.347 . S
C541 H569 0.931 . S
C542 C541 1.347 . S
C542 C543 1.369 . S
C543 C542 1.369 . S
C543 C544 1.408 . S
C543 H570 0.930 . S
C544 C539 1.348 . S
C544 C543 1.408 . S
C544 H571 0.930 . S
C545 O558 1.281 . S
C545 O559 1.254 . S
C546 O560 1.236 . S
C546 O561 1.266 . S
C547 Tb537 2.809 . S
C547 C548 1.514 . S
C547 O562 1.248 . S
C547 O563 1.266 . S
C548 C547 1.514 . S
C548 C549 1.359 . S
C548 C553 1.348 . S
C549 C548 1.359 . S
C549 C550 1.380 . S
C549 H572 0.929 . S
C550 C549 1.380 . S
C550 C551 1.347 . S
C550 H573 0.931 . S
C551 C550 1.347 . S
C551 C552 1.369 . S
C552 C551 1.369 . S
C552 C553 1.408 . S
C552 H574 0.930 . S
C553 C548 1.348 . S
C553 C552 1.408 . S
C553 H575 0.930 . S
C554 O564 1.281 . S
C554 O565 1.254 . S
C555 O566 1.236 . S
C555 O567 1.266 . S
O556 Tb536 2.484 . S
O556 C538 1.248 . S
O557 Tb536 2.440 . S
O557 C538 1.266 . S
O558 Tb536 2.658 . S
O558 Tb537 2.325 . S
O558 C545 1.281 . S
O559 Tb536 2.409 . S
O559 C545 1.254 . S
O560 Tb536 2.378 . S
O560 C546 1.236 . S
O561 Tb537 2.341 . S
O561 C546 1.266 . S
O562 Tb537 2.484 . S
O562 C547 1.248 . S
O563 Tb537 2.440 . S
O563 C547 1.266 . S
O564 Tb536 2.325 . S
O564 Tb537 2.658 . S
O564 C554 1.281 . S
O565 Tb537 2.409 . S
O565 C554 1.254 . S
O566 Tb537 2.378 . S
O566 C555 1.236 . S
O567 Tb536 2.341 . S
O567 C555 1.266 . S
H568 C540 0.929 . S
H569 C541 0.931 . S
H570 C543 0.930 . S
H571 C544 0.930 . S
H572 C549 0.929 . S
H573 C550 0.931 . S
H574 C552 0.930 . S
H575 C553 0.930 . S
Tb576 C578 2.809 1_545 S
Tb576 O596 2.484 1_545 S
Tb576 O597 2.440 . S
Tb576 O598 2.658 . S
Tb576 O599 2.409 . S
Tb576 O600 2.378 . S
Tb576 O604 2.325 1_545 S
Tb576 O607 2.341 . S
Tb577 C587 2.809 . S
Tb577 O598 2.325 . S
Tb577 O601 2.341 . S
Tb577 O602 2.484 . S
Tb577 O603 2.440 . S
Tb577 O604 2.658 1_545 S
Tb577 O605 2.409 1_545 S
Tb577 O606 2.378 . S
C578 Tb576 2.809 1_565 S
C578 C579 1.514 . S
C578 O596 1.248 . S
C578 O597 1.266 1_565 S
C579 C578 1.514 . S
C579 C580 1.359 . S
C579 C584 1.348 1_565 S
C580 C579 1.359 . S
C580 C581 1.380 . S
C580 H608 0.929 . S
C581 C580 1.380 . S
C581 C582 1.347 . S
C581 H609 0.931 . S
C582 C581 1.347 . S
C582 C583 1.369 . S
C583 C582 1.369 . S
C583 C584 1.408 1_565 S
C583 H610 0.930 1_565 S
C584 C579 1.348 1_545 S
C584 C583 1.408 1_545 S
C584 H611 0.930 . S
C585 O598 1.281 . S
C585 O599 1.254 . S
C586 O600 1.236 . S
C586 O601 1.266 . S
C587 Tb577 2.809 . S
C587 C588 1.514 . S
C587 O602 1.248 . S
C587 O603 1.266 . S
C588 C587 1.514 . S
C588 C589 1.359 . S
C588 C593 1.348 . S
C589 C588 1.359 . S
C589 C590 1.380 . S
C589 H612 0.929 . S
C590 C589 1.380 . S
C590 C591 1.347 . S
C590 H613 0.931 . S
C591 C590 1.347 . S
C591 C592 1.369 . S
C592 C591 1.369 . S
C592 C593 1.408 . S
C592 H614 0.930 . S
C593 C588 1.348 . S
C593 C592 1.408 . S
C593 H615 0.930 . S
C594 O604 1.281 . S
C594 O605 1.254 . S
C595 O606 1.236 . S
C595 O607 1.266 . S
O596 Tb576 2.484 1_565 S
O596 C578 1.248 . S
O597 Tb576 2.440 . S
O597 C578 1.266 1_545 S
O598 Tb576 2.658 . S
O598 Tb577 2.325 . S
O598 C585 1.281 . S
O599 Tb576 2.409 . S
O599 C585 1.254 . S
O600 Tb576 2.378 . S
O600 C586 1.236 . S
O601 Tb577 2.341 . S
O601 C586 1.266 . S
O602 Tb577 2.484 . S
O602 C587 1.248 . S
O603 Tb577 2.440 . S
O603 C587 1.266 . S
O604 Tb576 2.325 1_565 S
O604 Tb577 2.658 1_565 S
O604 C594 1.281 . S
O605 Tb577 2.409 1_565 S
O605 C594 1.254 . S
O606 Tb577 2.378 . S
O606 C595 1.236 . S
O607 Tb576 2.341 . S
O607 C595 1.266 . S
H608 C580 0.929 . S
H609 C581 0.931 . S
H610 C583 0.930 1_545 S
H611 C584 0.930 . S
H612 C589 0.929 . S
H613 C590 0.931 . S
H614 C592 0.930 . S
H615 C593 0.930 . S
Tb616 C618 2.809 . S
Tb616 O636 2.484 . S
Tb616 O637 2.440 . S
Tb616 O638 2.658 . S
Tb616 O639 2.409 . S
Tb616 O640 2.378 . S
Tb616 O644 2.325 . S
Tb616 O647 2.341 . S
Tb617 C627 2.809 . S
Tb617 O638 2.325 . S
Tb617 O641 2.341 . S
Tb617 O642 2.484 . S
Tb617 O643 2.440 . S
Tb617 O644 2.658 . S
Tb617 O645 2.409 . S
Tb617 O646 2.378 . S
C618 Tb616 2.809 . S
C618 C619 1.514 . S
C618 O636 1.248 . S
C618 O637 1.266 . S
C619 C618 1.514 . S
C619 C620 1.359 . S
C619 C624 1.348 . S
C620 C619 1.359 . S
C620 C621 1.380 . S
C620 H648 0.929 . S
C621 C620 1.380 . S
C621 C622 1.347 . S
C621 H649 0.931 . S
C622 C621 1.347 . S
C622 C623 1.369 . S
C623 C622 1.369 . S
C623 C624 1.408 . S
C623 H650 0.930 . S
C624 C619 1.348 . S
C624 C623 1.408 . S
C624 H651 0.930 . S
C625 O638 1.281 . S
C625 O639 1.254 . S
C626 O640 1.236 . S
C626 O641 1.266 . S
C627 Tb617 2.809 . S
C627 C628 1.514 . S
C627 O642 1.248 . S
C627 O643 1.266 . S
C628 C627 1.514 . S
C628 C629 1.359 . S
C628 C633 1.348 . S
C629 C628 1.359 . S
C629 C630 1.380 . S
C629 H652 0.929 . S
C630 C629 1.380 . S
C630 C631 1.347 . S
C630 H653 0.931 . S
C631 C630 1.347 . S
C631 C632 1.369 . S
C632 C631 1.369 . S
C632 C633 1.408 . S
C632 H654 0.930 . S
C633 C628 1.348 . S
C633 C632 1.408 . S
C633 H655 0.930 . S
C634 O644 1.281 . S
C634 O645 1.254 . S
C635 O646 1.236 . S
C635 O647 1.266 . S
O636 Tb616 2.484 . S
O636 C618 1.248 . S
O637 Tb616 2.440 . S
O637 C618 1.266 . S
O638 Tb616 2.658 . S
O638 Tb617 2.325 . S
O638 C625 1.281 . S
O639 Tb616 2.409 . S
O639 C625 1.254 . S
O640 Tb616 2.378 . S
O640 C626 1.236 . S
O641 Tb617 2.341 . S
O641 C626 1.266 . S
O642 Tb617 2.484 . S
O642 C627 1.248 . S
O643 Tb617 2.440 . S
O643 C627 1.266 . S
O644 Tb616 2.325 . S
O644 Tb617 2.658 . S
O644 C634 1.281 . S
O645 Tb617 2.409 . S
O645 C634 1.254 . S
O646 Tb617 2.378 . S
O646 C635 1.236 . S
O647 Tb616 2.341 . S
O647 C635 1.266 . S
H648 C620 0.929 . S
H649 C621 0.931 . S
H650 C623 0.930 . S
H651 C624 0.930 . S
H652 C629 0.929 . S
H653 C630 0.931 . S
H654 C632 0.930 . S
H655 C633 0.930 . S
Tb656 C658 2.809 . S
Tb656 O676 2.484 . S
Tb656 O677 2.440 . S
Tb656 O678 2.658 . S
Tb656 O679 2.409 . S
Tb656 O680 2.378 . S
Tb656 O684 2.325 . S
Tb656 O687 2.341 . S
Tb657 C667 2.809 . S
Tb657 O678 2.325 . S
Tb657 O681 2.307 1_554 S
Tb657 O682 2.484 . S
Tb657 O683 2.440 . S
Tb657 O684 2.658 . S
Tb657 O685 2.409 . S
Tb657 O686 2.378 . S
C658 Tb656 2.809 . S
C658 C659 1.514 . S
C658 O676 1.248 . S
C658 O677 1.266 . S
C659 C658 1.514 . S
C659 C660 1.359 1_554 S
C659 C664 1.348 . S
C660 C659 1.359 1_556 S
C660 C661 1.380 . S
C660 H688 0.929 . S
C661 C660 1.380 . S
C661 C662 1.347 . S
C661 H689 0.931 . S
C662 C661 1.347 . S
C662 C663 1.369 . S
C663 C662 1.369 . S
C663 C664 1.408 1_556 S
C663 H690 0.930 . S
C664 C659 1.348 . S
C664 C663 1.408 1_554 S
C664 H691 0.930 . S
C665 O678 1.281 . S
C665 O679 1.254 . S
C666 O680 1.236 1_556 S
C666 O681 1.278 . S
C667 Tb657 2.809 . S
C667 C668 1.514 . S
C667 O682 1.248 . S
C667 O683 1.266 . S
C668 C667 1.514 . S
C668 C669 1.359 . S
C668 C673 1.348 . S
C669 C668 1.359 . S
C669 C670 1.380 . S
C669 H692 0.929 . S
C670 C669 1.380 . S
C670 C671 1.347 . S
C670 H693 0.931 . S
C671 C670 1.347 . S
C671 C672 1.369 . S
C672 C671 1.369 . S
C672 C673 1.408 . S
C672 H694 0.930 . S
C673 C668 1.348 . S
C673 C672 1.408 . S
C673 H695 0.930 . S
C674 O684 1.281 . S
C674 O685 1.254 . S
C675 O686 1.236 . S
C675 O687 1.266 . S
O676 Tb656 2.484 . S
O676 C658 1.248 . S
O677 Tb656 2.440 . S
O677 C658 1.266 . S
O678 Tb656 2.658 . S
O678 Tb657 2.325 . S
O678 C665 1.281 . S
O679 Tb656 2.409 . S
O679 C665 1.254 . S
O680 Tb656 2.378 . S
O680 C666 1.236 1_554 S
O681 Tb657 2.307 1_556 S
O681 C666 1.278 . S
O682 Tb657 2.484 . S
O682 C667 1.248 . S
O683 Tb657 2.440 . S
O683 C667 1.266 . S
O684 Tb656 2.325 . S
O684 Tb657 2.658 . S
O684 C674 1.281 . S
O685 Tb657 2.409 . S
O685 C674 1.254 . S
O686 Tb657 2.378 . S
O686 C675 1.236 . S
O687 Tb656 2.341 . S
O687 C675 1.266 . S
H688 C660 0.929 . S
H689 C661 0.931 . S
H690 C663 0.930 . S
H691 C664 0.930 . S
H692 C669 0.929 . S
H693 C670 0.931 . S
H694 C672 0.930 . S
H695 C673 0.930 . S
Tb696 C698 2.809 . S
Tb696 O716 2.484 . S
Tb696 O717 2.440 . S
Tb696 O718 2.658 . S
Tb696 O719 2.409 . S
Tb696 O720 2.378 . S
Tb696 O724 2.325 . S
Tb696 O727 2.341 . S
Tb697 C707 2.809 . S
Tb697 O718 2.325 . S
Tb697 O721 2.341 . S
Tb697 O722 2.484 . S
Tb697 O723 2.440 . S
Tb697 O724 2.658 . S
Tb697 O725 2.409 . S
Tb697 O726 2.378 . S
C698 Tb696 2.809 . S
C698 C699 1.514 . S
C698 O716 1.248 . S
C698 O717 1.266 . S
C699 C698 1.514 . S
C699 C700 1.359 . S
C699 C704 1.348 . S
C700 C699 1.359 . S
C700 C701 1.380 . S
C700 H728 0.929 . S
C701 C700 1.380 . S
C701 C702 1.347 . S
C701 H729 0.931 . S
C702 C701 1.347 . S
C702 C703 1.369 . S
C703 C702 1.369 . S
C703 C704 1.408 . S
C703 H730 0.930 . S
C704 C699 1.348 . S
C704 C703 1.408 . S
C704 H731 0.930 . S
C705 O718 1.281 . S
C705 O719 1.254 . S
C706 O720 1.236 . S
C706 O721 1.266 . S
C707 Tb697 2.809 . S
C707 C708 1.514 . S
C707 O722 1.248 . S
C707 O723 1.266 . S
C708 C707 1.514 . S
C708 C709 1.359 . S
C708 C713 1.348 . S
C709 C708 1.359 . S
C709 C710 1.380 . S
C709 H732 0.929 . S
C710 C709 1.380 . S
C710 C711 1.347 . S
C710 H733 0.931 . S
C711 C710 1.347 . S
C711 C712 1.369 . S
C712 C711 1.369 . S
C712 C713 1.408 . S
C712 H734 0.930 . S
C713 C708 1.348 . S
C713 C712 1.408 . S
C713 H735 0.930 . S
C714 O724 1.281 . S
C714 O725 1.254 . S
C715 O726 1.236 . S
C715 O727 1.266 . S
O716 Tb696 2.484 . S
O716 C698 1.248 . S
O717 Tb696 2.440 . S
O717 C698 1.266 . S
O718 Tb696 2.658 . S
O718 Tb697 2.325 . S
O718 C705 1.281 . S
O719 Tb696 2.409 . S
O719 C705 1.254 . S
O720 Tb696 2.378 . S
O720 C706 1.236 . S
O721 Tb697 2.341 . S
O721 C706 1.266 . S
O722 Tb697 2.484 . S
O722 C707 1.248 . S
O723 Tb697 2.440 . S
O723 C707 1.266 . S
O724 Tb696 2.325 . S
O724 Tb697 2.658 . S
O724 C714 1.281 . S
O725 Tb697 2.409 . S
O725 C714 1.254 . S
O726 Tb697 2.378 . S
O726 C715 1.236 . S
O727 Tb696 2.341 . S
O727 C715 1.266 . S
H728 C700 0.929 . S
H729 C701 0.931 . S
H730 C703 0.930 . S
H731 C704 0.930 . S
H732 C709 0.929 . S
H733 C710 0.931 . S
H734 C712 0.930 . S
H735 C713 0.930 . S
Tb736 C738 2.809 1_455 S
Tb736 O756 2.484 1_455 S
Tb736 O757 2.440 1_455 S
Tb736 O758 2.658 . S
Tb736 O759 2.409 . S
Tb736 O760 2.378 . S
Tb736 O764 2.325 . S
Tb736 O767 2.341 . S
Tb737 C747 2.809 . S
Tb737 O758 2.325 . S
Tb737 O761 2.341 . S
Tb737 O762 2.484 . S
Tb737 O763 2.440 . S
Tb737 O764 2.658 . S
Tb737 O765 2.409 . S
Tb737 O766 2.378 . S
C738 Tb736 2.809 1_655 S
C738 C739 1.514 . S
C738 O756 1.248 . S
C738 O757 1.266 . S
C739 C738 1.514 . S
C739 C740 1.359 . S
C739 C744 1.348 . S
C740 C739 1.359 . S
C740 C741 1.380 . S
C740 H768 0.929 . S
C741 C740 1.380 . S
C741 C742 1.347 . S
C741 H769 0.931 . S
C742 C741 1.347 . S
C742 C743 1.369 . S
C743 C742 1.369 . S
C743 C744 1.408 . S
C743 H770 0.930 . S
C744 C739 1.348 . S
C744 C743 1.408 . S
C744 H771 0.930 . S
C745 O758 1.281 . S
C745 O759 1.254 . S
C746 O760 1.236 . S
C746 O761 1.266 . S
C747 Tb737 2.809 . S
C747 C748 1.514 . S
C747 O762 1.248 . S
C747 O763 1.266 . S
C748 C747 1.514 . S
C748 C749 1.359 . S
C748 C753 1.348 . S
C749 C748 1.359 . S
C749 C750 1.380 . S
C749 H772 0.929 . S
C750 C749 1.380 . S
C750 C751 1.347 . S
C750 H773 0.931 . S
C751 C750 1.347 . S
C751 C752 1.369 . S
C752 C751 1.369 . S
C752 C753 1.408 . S
C752 H774 0.930 . S
C753 C748 1.348 . S
C753 C752 1.408 . S
C753 H775 0.930 . S
C754 O764 1.281 . S
C754 O765 1.254 . S
C755 O766 1.236 . S
C755 O767 1.266 . S
O756 Tb736 2.484 1_655 S
O756 C738 1.248 . S
O757 Tb736 2.440 1_655 S
O757 C738 1.266 . S
O758 Tb736 2.658 . S
O758 Tb737 2.325 . S
O758 C745 1.281 . S
O759 Tb736 2.409 . S
O759 C745 1.254 . S
O760 Tb736 2.378 . S
O760 C746 1.236 . S
O761 Tb737 2.341 . S
O761 C746 1.266 . S
O762 Tb737 2.484 . S
O762 C747 1.248 . S
O763 Tb737 2.440 . S
O763 C747 1.266 . S
O764 Tb736 2.325 . S
O764 Tb737 2.658 . S
O764 C754 1.281 . S
O765 Tb737 2.409 . S
O765 C754 1.254 . S
O766 Tb737 2.378 . S
O766 C755 1.236 . S
O767 Tb736 2.341 . S
O767 C755 1.266 . S
H768 C740 0.929 . S
H769 C741 0.931 . S
H770 C743 0.930 . S
H771 C744 0.930 . S
H772 C749 0.929 . S
H773 C750 0.931 . S
H774 C752 0.930 . S
H775 C753 0.930 . S
Tb776 C778 2.809 . S
Tb776 O796 2.484 . S
Tb776 O797 2.440 . S
Tb776 O798 2.658 . S
Tb776 O799 2.409 . S
Tb776 O800 2.378 . S
Tb776 O804 2.325 . S
Tb776 O807 2.341 . S
Tb777 C787 2.809 . S
Tb777 O798 2.325 . S
Tb777 O801 2.341 . S
Tb777 O802 2.484 . S
Tb777 O803 2.440 . S
Tb777 O804 2.658 . S
Tb777 O805 2.409 . S
Tb777 O806 2.378 . S
C778 Tb776 2.809 . S
C778 C779 1.514 . S
C778 O796 1.248 . S
C778 O797 1.266 . S
C779 C778 1.514 . S
C779 C780 1.359 . S
C779 C784 1.348 . S
C780 C779 1.359 . S
C780 C781 1.380 . S
C780 H808 0.929 . S
C781 C780 1.380 . S
C781 C782 1.347 . S
C781 H809 0.931 . S
C782 C781 1.347 . S
C782 C783 1.369 . S
C783 C782 1.369 . S
C783 C784 1.408 . S
C783 H810 0.930 . S
C784 C779 1.348 . S
C784 C783 1.408 . S
C784 H811 0.930 . S
C785 O798 1.281 . S
C785 O799 1.254 . S
C786 O800 1.236 . S
C786 O801 1.266 . S
C787 Tb777 2.809 . S
C787 C788 1.514 . S
C787 O802 1.248 . S
C787 O803 1.266 . S
C788 C787 1.514 . S
C788 C789 1.359 . S
C788 C793 1.348 . S
C789 C788 1.359 . S
C789 C790 1.380 . S
C789 H812 0.929 . S
C790 C789 1.380 . S
C790 C791 1.347 . S
C790 H813 0.931 . S
C791 C790 1.347 . S
C791 C792 1.369 . S
C792 C791 1.369 . S
C792 C793 1.408 . S
C792 H814 0.930 . S
C793 C788 1.348 . S
C793 C792 1.408 . S
C793 H815 0.930 . S
C794 O804 1.281 . S
C794 O805 1.254 . S
C795 O806 1.236 . S
C795 O807 1.266 . S
O796 Tb776 2.484 . S
O796 C778 1.248 . S
O797 Tb776 2.440 . S
O797 C778 1.266 . S
O798 Tb776 2.658 . S
O798 Tb777 2.325 . S
O798 C785 1.281 . S
O799 Tb776 2.409 . S
O799 C785 1.254 . S
O800 Tb776 2.378 . S
O800 C786 1.236 . S
O801 Tb777 2.341 . S
O801 C786 1.266 . S
O802 Tb777 2.484 . S
O802 C787 1.248 . S
O803 Tb777 2.440 . S
O803 C787 1.266 . S
O804 Tb776 2.325 . S
O804 Tb777 2.658 . S
O804 C794 1.281 . S
O805 Tb777 2.409 . S
O805 C794 1.254 . S
O806 Tb777 2.378 . S
O806 C795 1.236 . S
O807 Tb776 2.341 . S
O807 C795 1.266 . S
H808 C780 0.929 . S
H809 C781 0.931 . S
H810 C783 0.930 . S
H811 C784 0.930 . S
H812 C789 0.929 . S
H813 C790 0.931 . S
H814 C792 0.930 . S
H815 C793 0.930 . S
Tb816 C818 2.809 . S
Tb816 O836 2.484 . S
Tb816 O837 2.440 . S
Tb816 O838 2.658 . S
Tb816 O839 2.409 . S
Tb816 O840 2.378 . S
Tb816 O844 2.325 . S
Tb816 O847 2.341 . S
Tb817 C827 2.809 . S
Tb817 O838 2.325 . S
Tb817 O841 2.341 . S
Tb817 O842 2.484 . S
Tb817 O843 2.440 . S
Tb817 O844 2.658 . S
Tb817 O845 2.409 . S
Tb817 O846 2.378 . S
C818 Tb816 2.809 . S
C818 C819 1.514 . S
C818 O836 1.248 . S
C818 O837 1.266 . S
C819 C818 1.514 . S
C819 C820 1.359 . S
C819 C824 1.348 . S
C820 C819 1.359 . S
C820 C821 1.380 . S
C820 H848 0.929 . S
C821 C820 1.380 . S
C821 C822 1.347 . S
C821 H849 0.931 . S
C822 C821 1.347 . S
C822 C823 1.369 . S
C823 C822 1.369 . S
C823 C824 1.408 . S
C823 H850 0.930 . S
C824 C819 1.348 . S
C824 C823 1.408 . S
C824 H851 0.930 . S
C825 O838 1.281 . S
C825 O839 1.254 . S
C826 O840 1.236 . S
C826 O841 1.266 . S
C827 Tb817 2.809 . S
C827 C828 1.514 . S
C827 O842 1.248 . S
C827 O843 1.266 . S
C828 C827 1.514 . S
C828 C829 1.359 . S
C828 C833 1.348 . S
C829 C828 1.359 . S
C829 C830 1.380 . S
C829 H852 0.929 . S
C830 C829 1.380 . S
C830 C831 1.347 . S
C830 H853 0.931 . S
C831 C830 1.347 . S
C831 C832 1.369 . S
C832 C831 1.369 . S
C832 C833 1.408 . S
C832 H854 0.930 . S
C833 C828 1.348 . S
C833 C832 1.408 . S
C833 H855 0.930 . S
C834 O844 1.281 . S
C834 O845 1.254 . S
C835 O846 1.236 . S
C835 O847 1.266 . S
O836 Tb816 2.484 . S
O836 C818 1.248 . S
O837 Tb816 2.440 . S
O837 C818 1.266 . S
O838 Tb816 2.658 . S
O838 Tb817 2.325 . S
O838 C825 1.281 . S
O839 Tb816 2.409 . S
O839 C825 1.254 . S
O840 Tb816 2.378 . S
O840 C826 1.236 . S
O841 Tb817 2.341 . S
O841 C826 1.266 . S
O842 Tb817 2.484 . S
O842 C827 1.248 . S
O843 Tb817 2.440 . S
O843 C827 1.266 . S
O844 Tb816 2.325 . S
O844 Tb817 2.658 . S
O844 C834 1.281 . S
O845 Tb817 2.409 . S
O845 C834 1.254 . S
O846 Tb817 2.378 . S
O846 C835 1.236 . S
O847 Tb816 2.341 . S
O847 C835 1.266 . S
H848 C820 0.929 . S
H849 C821 0.931 . S
H850 C823 0.930 . S
H851 C824 0.930 . S
H852 C829 0.929 . S
H853 C830 0.931 . S
H854 C832 0.930 . S
H855 C833 0.930 . S
Tb856 C858 2.809 . S
Tb856 O876 2.484 . S
Tb856 O877 2.440 . S
Tb856 O878 2.658 . S
Tb856 O879 2.409 . S
Tb856 O880 2.378 . S
Tb856 O884 2.325 . S
Tb856 O887 2.341 . S
Tb857 C867 2.809 . S
Tb857 O878 2.325 . S
Tb857 O881 2.341 . S
Tb857 O882 2.484 . S
Tb857 O883 2.440 . S
Tb857 O884 2.658 . S
Tb857 O885 2.409 . S
Tb857 O886 2.378 . S
C858 Tb856 2.809 . S
C858 C859 1.514 . S
C858 O876 1.248 . S
C858 O877 1.266 . S
C859 C858 1.514 . S
C859 C860 1.359 . S
C859 C864 1.348 . S
C860 C859 1.359 . S
C860 C861 1.380 . S
C860 H888 0.929 . S
C861 C860 1.380 . S
C861 C862 1.347 . S
C861 H889 0.931 . S
C862 C861 1.347 . S
C862 C863 1.369 . S
C863 C862 1.369 . S
C863 C864 1.408 . S
C863 H890 0.930 . S
C864 C859 1.348 . S
C864 C863 1.408 . S
C864 H891 0.930 . S
C865 O878 1.281 . S
C865 O879 1.254 . S
C866 O880 1.236 . S
C866 O881 1.266 . S
C867 Tb857 2.809 . S
C867 C868 1.514 . S
C867 O882 1.248 . S
C867 O883 1.266 . S
C868 C867 1.514 . S
C868 C869 1.359 . S
C868 C873 1.348 . S
C869 C868 1.359 . S
C869 C870 1.380 . S
C869 H892 0.929 . S
C870 C869 1.380 . S
C870 C871 1.347 . S
C870 H893 0.931 . S
C871 C870 1.347 . S
C871 C872 1.369 . S
C872 C871 1.369 . S
C872 C873 1.408 . S
C872 H894 0.930 . S
C873 C868 1.348 . S
C873 C872 1.408 . S
C873 H895 0.930 . S
C874 O884 1.281 . S
C874 O885 1.254 . S
C875 O886 1.236 . S
C875 O887 1.266 . S
O876 Tb856 2.484 . S
O876 C858 1.248 . S
O877 Tb856 2.440 . S
O877 C858 1.266 . S
O878 Tb856 2.658 . S
O878 Tb857 2.325 . S
O878 C865 1.281 . S
O879 Tb856 2.409 . S
O879 C865 1.254 . S
O880 Tb856 2.378 . S
O880 C866 1.236 . S
O881 Tb857 2.341 . S
O881 C866 1.266 . S
O882 Tb857 2.484 . S
O882 C867 1.248 . S
O883 Tb857 2.440 . S
O883 C867 1.266 . S
O884 Tb856 2.325 . S
O884 Tb857 2.658 . S
O884 C874 1.281 . S
O885 Tb857 2.409 . S
O885 C874 1.254 . S
O886 Tb857 2.378 . S
O886 C875 1.236 . S
O887 Tb856 2.341 . S
O887 C875 1.266 . S
H888 C860 0.929 . S
H889 C861 0.931 . S
H890 C863 0.930 . S
H891 C864 0.930 . S
H892 C869 0.929 . S
H893 C870 0.931 . S
H894 C872 0.930 . S
H895 C873 0.930 . S
Tb896 C898 2.809 . S
Tb896 O916 2.484 . S
Tb896 O917 2.440 . S
Tb896 O918 2.658 . S
Tb896 O919 2.409 . S
Tb896 O920 2.378 . S
Tb896 O924 2.325 . S
Tb896 O927 2.341 . S
Tb897 C907 2.809 . S
Tb897 O918 2.325 . S
Tb897 O921 2.341 . S
Tb897 O922 2.484 . S
Tb897 O923 2.440 . S
Tb897 O924 2.658 . S
Tb897 O925 2.409 . S
Tb897 O926 2.378 . S
C898 Tb896 2.809 . S
C898 C899 1.514 . S
C898 O916 1.248 . S
C898 O917 1.266 . S
C899 C898 1.514 . S
C899 C900 1.359 . S
C899 C904 1.348 . S
C900 C899 1.359 . S
C900 C901 1.380 . S
C900 H928 0.929 . S
C901 C900 1.380 . S
C901 C902 1.347 . S
C901 H929 0.931 . S
C902 C901 1.347 . S
C902 C903 1.369 . S
C903 C902 1.369 . S
C903 C904 1.408 . S
C903 H930 0.930 . S
C904 C899 1.348 . S
C904 C903 1.408 . S
C904 H931 0.930 . S
C905 O918 1.281 . S
C905 O919 1.254 . S
C906 O920 1.236 . S
C906 O921 1.266 . S
C907 Tb897 2.809 . S
C907 C908 1.514 . S
C907 O922 1.248 . S
C907 O923 1.266 . S
C908 C907 1.514 . S
C908 C909 1.359 . S
C908 C913 1.348 . S
C909 C908 1.359 . S
C909 C910 1.380 . S
C909 H932 0.929 . S
C910 C909 1.380 . S
C910 C911 1.347 . S
C910 H933 0.931 . S
C911 C910 1.347 . S
C911 C912 1.369 . S
C912 C911 1.369 . S
C912 C913 1.408 . S
C912 H934 0.930 . S
C913 C908 1.348 . S
C913 C912 1.408 . S
C913 H935 0.930 . S
C914 O924 1.281 . S
C914 O925 1.254 . S
C915 O926 1.236 . S
C915 O927 1.266 . S
O916 Tb896 2.484 . S
O916 C898 1.248 . S
O917 Tb896 2.440 . S
O917 C898 1.266 . S
O918 Tb896 2.658 . S
O918 Tb897 2.325 . S
O918 C905 1.281 . S
O919 Tb896 2.409 . S
O919 C905 1.254 . S
O920 Tb896 2.378 . S
O920 C906 1.236 . S
O921 Tb897 2.341 . S
O921 C906 1.266 . S
O922 Tb897 2.484 . S
O922 C907 1.248 . S
O923 Tb897 2.440 . S
O923 C907 1.266 . S
O924 Tb896 2.325 . S
O924 Tb897 2.658 . S
O924 C914 1.281 . S
O925 Tb897 2.409 . S
O925 C914 1.254 . S
O926 Tb897 2.378 . S
O926 C915 1.236 . S
O927 Tb896 2.341 . S
O927 C915 1.266 . S
H928 C900 0.929 . S
H929 C901 0.931 . S
H930 C903 0.930 . S
H931 C904 0.930 . S
H932 C909 0.929 . S
H933 C910 0.931 . S
H934 C912 0.930 . S
H935 C913 0.930 . S
Tb936 C938 2.809 . S
Tb936 O956 2.484 . S
Tb936 O957 2.440 . S
Tb936 O958 2.658 . S
Tb936 O959 2.409 1_554 S
Tb936 O960 2.378 . S
Tb936 O964 2.325 . S
Tb936 O967 2.341 . S
Tb937 C947 2.777 1_455 S
Tb937 O958 2.345 . S
Tb937 O961 2.361 . S
Tb937 O962 2.458 1_455 S
Tb937 O963 2.410 1_455 S
Tb937 O964 2.695 . S
Tb937 O965 2.423 . S
Tb937 O966 2.388 . S
C938 Tb936 2.809 . S
C938 C939 1.514 . S
C938 O956 1.248 . S
C938 O957 1.266 . S
C939 C938 1.514 . S
C939 C940 1.359 . S
C939 C944 1.348 1_554 S
C940 C939 1.359 . S
C940 C941 1.380 . S
C940 H968 0.929 . S
C941 C940 1.380 . S
C941 C942 1.347 . S
C941 H969 0.931 . S
C942 C941 1.347 . S
C942 C943 1.369 1_554 S
C943 C942 1.369 1_556 S
C943 C944 1.408 . S
C943 H970 0.930 . S
C944 C939 1.348 1_556 S
C944 C943 1.408 . S
C944 H971 0.930 . S
C945 O958 1.281 1_556 S
C945 O959 1.254 . S
C946 O960 1.236 . S
C946 O961 1.266 . S
C947 Tb937 2.777 1_655 S
C947 C948 1.514 . S
C947 O962 1.248 . S
C947 O963 1.266 . S
C948 C947 1.514 . S
C948 C949 1.359 . S
C948 C953 1.348 . S
C949 C948 1.359 . S
C949 C950 1.380 . S
C949 H972 0.929 . S
C950 C949 1.380 . S
C950 C951 1.347 . S
C950 H973 0.931 . S
C951 C950 1.347 . S
C951 C952 1.369 . S
C952 C951 1.369 . S
C952 C953 1.408 . S
C952 H974 0.930 . S
C953 C948 1.348 . S
C953 C952 1.408 . S
C953 H975 0.930 . S
C954 O964 1.281 . S
C954 O965 1.254 . S
C955 O966 1.236 . S
C955 O967 1.266 . S
O956 Tb936 2.484 . S
O956 C938 1.248 . S
O957 Tb936 2.440 . S
O957 C938 1.266 . S
O958 Tb936 2.658 . S
O958 Tb937 2.345 . S
O958 C945 1.281 1_554 S
O959 Tb936 2.409 1_556 S
O959 C945 1.254 . S
O960 Tb936 2.378 . S
O960 C946 1.236 . S
O961 Tb937 2.361 . S
O961 C946 1.266 . S
O962 Tb937 2.458 1_655 S
O962 C947 1.248 . S
O963 Tb937 2.410 1_655 S
O963 C947 1.266 . S
O964 Tb936 2.325 . S
O964 Tb937 2.695 . S
O964 C954 1.281 . S
O965 Tb937 2.423 . S
O965 C954 1.254 . S
O966 Tb937 2.388 . S
O966 C955 1.236 . S
O967 Tb936 2.341 . S
O967 C955 1.266 . S
H968 C940 0.929 . S
H969 C941 0.931 . S
H970 C943 0.930 . S
H971 C944 0.930 . S
H972 C949 0.929 . S
H973 C950 0.931 . S
H974 C952 0.930 . S
H975 C953 0.930 . S
C976 C977 1.391 1_554 S
C976 C978 1.394 . S
C976 H992 0.931 . S
C977 C976 1.391 1_556 S
C977 C981 1.376 1_455 S
C978 C976 1.394 . S
C978 C979 1.369 . S
C978 C982 1.531 . S
C979 C978 1.369 . S
C979 C980 1.410 1_454 S
C979 C987 1.503 . S
C980 C979 1.410 1_656 S
C980 C981 1.392 . S
C980 C983 1.511 . S
C981 C977 1.376 1_655 S
C981 C980 1.392 . S
C981 H993 0.929 . S
C982 C978 1.531 . S
C982 H994 0.960 . S
C982 H995 0.962 . S
C982 H996 0.960 . S
C983 C980 1.511 . S
C983 H997 0.961 . S
C983 H998 0.961 . S
C983 H999 0.961 . S
C984 C985 1.370 . S
C984 C986 1.363 . S
C984 H1000 0.931 . S
C985 C984 1.370 . S
C985 C989 1.408 . S
C986 C984 1.363 . S
C986 C987 1.370 . S
C986 C990 1.524 1_554 S
C987 C979 1.503 . S
C987 C986 1.370 . S
C987 C988 1.403 . S
C988 C987 1.403 . S
C988 C989 1.404 . S
C988 C991 1.539 1_455 S
C989 C985 1.408 . S
C989 C988 1.404 . S
C989 H1001 0.930 . S
C990 C986 1.524 1_556 S
C990 H1002 0.956 . S
C990 H1003 0.961 . S
C990 H1004 0.961 . S
C991 C988 1.539 1_655 S
C991 H1005 0.958 1_655 S
C991 H1006 0.961 . S
C991 H1007 0.960 . S
H992 C976 0.931 . S
H993 C981 0.929 . S
H994 C982 0.960 . S
H995 C982 0.962 . S
H996 C982 0.960 . S
H997 C983 0.961 . S
H998 C983 0.961 . S
H999 C983 0.961 . S
H1000 C984 0.931 . S
H1001 C989 0.930 . S
H1002 C990 0.956 . S
H1003 C990 0.961 . S
H1004 C990 0.961 . S
H1005 C991 0.958 1_455 S
H1006 C991 0.961 . S
H1007 C991 0.960 . S
C1008 C1009 1.391 . S
C1008 C1010 1.394 . S
C1008 H1024 0.931 . S
C1009 C1008 1.391 . S
C1009 C1013 1.376 . S
C1010 C1008 1.394 . S
C1010 C1011 1.369 . S
C1010 C1014 1.531 . S
C1011 C1010 1.369 . S
C1011 C1012 1.410 . S
C1011 C1019 1.503 . S
C1012 C1011 1.410 . S
C1012 C1013 1.392 . S
C1012 C1015 1.511 . S
C1013 C1009 1.376 . S
C1013 C1012 1.392 . S
C1013 H1025 0.929 . S
C1014 C1010 1.531 . S
C1014 H1026 0.960 . S
C1014 H1027 0.962 . S
C1014 H1028 0.960 . S
C1015 C1012 1.511 . S
C1015 H1029 0.961 . S
C1015 H1030 0.961 . S
C1015 H1031 0.961 . S
C1016 C1017 1.370 . S
C1016 C1018 1.363 . S
C1016 H1032 0.931 . S
C1017 C1016 1.370 . S
C1017 C1021 1.408 . S
C1018 C1016 1.363 . S
C1018 C1019 1.370 . S
C1018 C1022 1.524 . S
C1019 C1011 1.503 . S
C1019 C1018 1.370 . S
C1019 C1020 1.403 . S
C1020 C1019 1.403 . S
C1020 C1021 1.404 . S
C1020 C1023 1.539 . S
C1021 C1017 1.408 . S
C1021 C1020 1.404 . S
C1021 H1033 0.930 . S
C1022 C1018 1.524 . S
C1022 H1034 0.956 . S
C1022 H1035 0.961 . S
C1022 H1036 0.961 . S
C1023 C1020 1.539 . S
C1023 H1037 0.958 . S
C1023 H1038 0.961 . S
C1023 H1039 0.960 . S
H1024 C1008 0.931 . S
H1025 C1013 0.929 . S
H1026 C1014 0.960 . S
H1027 C1014 0.962 . S
H1028 C1014 0.960 . S
H1029 C1015 0.961 . S
H1030 C1015 0.961 . S
H1031 C1015 0.961 . S
H1032 C1016 0.931 . S
H1033 C1021 0.930 . S
H1034 C1022 0.956 . S
H1035 C1022 0.961 . S
H1036 C1022 0.961 . S
H1037 C1023 0.958 . S
H1038 C1023 0.961 . S
H1039 C1023 0.960 . S
C1040 C1041 1.391 . S
C1040 C1042 1.394 . S
C1040 H1056 0.931 . S
C1041 C1040 1.391 . S
C1041 C1045 1.376 . S
C1042 C1040 1.394 . S
C1042 C1043 1.369 . S
C1042 C1046 1.531 . S
C1043 C1042 1.369 . S
C1043 C1044 1.410 . S
C1043 C1051 1.503 . S
C1044 C1043 1.410 . S
C1044 C1045 1.392 . S
C1044 C1047 1.511 . S
C1045 C1041 1.376 . S
C1045 C1044 1.392 . S
C1045 H1057 0.929 . S
C1046 C1042 1.531 . S
C1046 H1058 0.960 . S
C1046 H1059 0.962 . S
C1046 H1060 0.960 . S
C1047 C1044 1.511 . S
C1047 H1061 0.961 . S
C1047 H1062 0.961 . S
C1047 H1063 0.961 . S
C1048 C1049 1.370 . S
C1048 C1050 1.363 . S
C1048 H1064 0.931 . S
C1049 C1048 1.370 . S
C1049 C1053 1.408 . S
C1050 C1048 1.363 . S
C1050 C1051 1.370 . S
C1050 C1054 1.524 . S
C1051 C1043 1.503 . S
C1051 C1050 1.370 . S
C1051 C1052 1.403 . S
C1052 C1051 1.403 . S
C1052 C1053 1.404 . S
C1052 C1055 1.539 . S
C1053 C1049 1.408 . S
C1053 C1052 1.404 . S
C1053 H1065 0.930 . S
C1054 C1050 1.524 . S
C1054 H1066 0.956 . S
C1054 H1067 0.961 . S
C1054 H1068 0.961 . S
C1055 C1052 1.539 . S
C1055 H1069 0.958 . S
C1055 H1070 0.961 . S
C1055 H1071 0.960 . S
H1056 C1040 0.931 . S
H1057 C1045 0.929 . S
H1058 C1046 0.960 . S
H1059 C1046 0.962 . S
H1060 C1046 0.960 . S
H1061 C1047 0.961 . S
H1062 C1047 0.961 . S
H1063 C1047 0.961 . S
H1064 C1048 0.931 . S
H1065 C1053 0.930 . S
H1066 C1054 0.956 . S
H1067 C1054 0.961 . S
H1068 C1054 0.961 . S
H1069 C1055 0.958 . S
H1070 C1055 0.961 . S
H1071 C1055 0.960 . S
C1072 C1073 1.391 . S
C1072 C1074 1.394 . S
C1072 H1088 0.931 . S
C1073 C1072 1.391 . S
C1073 C1077 1.376 . S
C1074 C1072 1.394 . S
C1074 C1075 1.369 . S
C1074 C1078 1.531 . S
C1075 C1074 1.369 . S
C1075 C1076 1.410 . S
C1075 C1083 1.503 . S
C1076 C1075 1.410 . S
C1076 C1077 1.392 . S
C1076 C1079 1.511 . S
C1077 C1073 1.376 . S
C1077 C1076 1.392 . S
C1077 H1089 0.929 . S
C1078 C1074 1.531 . S
C1078 H1090 0.960 . S
C1078 H1091 0.962 . S
C1078 H1092 0.960 . S
C1079 C1076 1.511 . S
C1079 H1093 0.961 . S
C1079 H1094 0.961 . S
C1079 H1095 0.961 . S
C1080 C1081 1.370 . S
C1080 C1082 1.363 . S
C1080 H1096 0.931 . S
C1081 C1080 1.370 . S
C1081 C1085 1.408 . S
C1082 C1080 1.363 . S
C1082 C1083 1.370 . S
C1082 C1086 1.524 . S
C1083 C1075 1.503 . S
C1083 C1082 1.370 . S
C1083 C1084 1.403 . S
C1084 C1083 1.403 . S
C1084 C1085 1.404 . S
C1084 C1087 1.539 . S
C1085 C1081 1.408 . S
C1085 C1084 1.404 . S
C1085 H1097 0.930 . S
C1086 C1082 1.524 . S
C1086 H1098 0.956 . S
C1086 H1099 0.961 . S
C1086 H1100 0.961 . S
C1087 C1084 1.539 . S
C1087 H1101 0.958 . S
C1087 H1102 0.961 . S
C1087 H1103 0.960 . S
H1088 C1072 0.931 . S
H1089 C1077 0.929 . S
H1090 C1078 0.960 . S
H1091 C1078 0.962 . S
H1092 C1078 0.960 . S
H1093 C1079 0.961 . S
H1094 C1079 0.961 . S
H1095 C1079 0.961 . S
H1096 C1080 0.931 . S
H1097 C1085 0.930 . S
H1098 C1086 0.956 . S
H1099 C1086 0.961 . S
H1100 C1086 0.961 . S
H1101 C1087 0.958 . S
H1102 C1087 0.961 . S
H1103 C1087 0.960 . S
C1104 C1105 1.391 . S
C1104 C1106 1.394 . S
C1104 H1120 0.931 . S
C1105 C1104 1.391 . S
C1105 C1109 1.376 . S
C1106 C1104 1.394 . S
C1106 C1107 1.369 . S
C1106 C1110 1.531 . S
C1107 C1106 1.369 . S
C1107 C1108 1.410 . S
C1107 C1115 1.503 . S
C1108 C1107 1.410 . S
C1108 C1109 1.392 . S
C1108 C1111 1.511 . S
C1109 C1105 1.376 . S
C1109 C1108 1.392 . S
C1109 H1121 0.929 . S
C1110 C1106 1.531 . S
C1110 H1122 0.960 . S
C1110 H1123 0.962 . S
C1110 H1124 0.960 . S
C1111 C1108 1.511 . S
C1111 H1125 0.961 . S
C1111 H1126 0.961 . S
C1111 H1127 0.961 . S
C1112 C1113 1.370 . S
C1112 C1114 1.363 . S
C1112 H1128 0.931 . S
C1113 C1112 1.370 . S
C1113 C1117 1.408 . S
C1114 C1112 1.363 . S
C1114 C1115 1.370 . S
C1114 C1118 1.524 . S
C1115 C1107 1.503 . S
C1115 C1114 1.370 . S
C1115 C1116 1.403 . S
C1116 C1115 1.403 . S
C1116 C1117 1.404 . S
C1116 C1119 1.539 . S
C1117 C1113 1.408 . S
C1117 C1116 1.404 . S
C1117 H1129 0.930 . S
C1118 C1114 1.524 . S
C1118 H1130 0.956 . S
C1118 H1131 0.961 . S
C1118 H1132 0.961 . S
C1119 C1116 1.539 . S
C1119 H1133 0.958 . S
C1119 H1134 0.961 . S
C1119 H1135 0.960 . S
H1120 C1104 0.931 . S
H1121 C1109 0.929 . S
H1122 C1110 0.960 . S
H1123 C1110 0.962 . S
H1124 C1110 0.960 . S
H1125 C1111 0.961 . S
H1126 C1111 0.961 . S
H1127 C1111 0.961 . S
H1128 C1112 0.931 . S
H1129 C1117 0.930 . S
H1130 C1118 0.956 . S
H1131 C1118 0.961 . S
H1132 C1118 0.961 . S
H1133 C1119 0.958 . S
H1134 C1119 0.961 . S
H1135 C1119 0.960 . S
C1136 C1137 1.391 . S
C1136 C1138 1.394 . S
C1136 H1152 0.931 . S
C1137 C1136 1.391 . S
C1137 C1141 1.376 . S
C1138 C1136 1.394 . S
C1138 C1139 1.369 . S
C1138 C1142 1.531 . S
C1139 C1138 1.369 . S
C1139 C1140 1.410 . S
C1139 C1147 1.503 . S
C1140 C1139 1.410 . S
C1140 C1141 1.392 . S
C1140 C1143 1.511 . S
C1141 C1137 1.376 . S
C1141 C1140 1.392 . S
C1141 H1153 0.929 . S
C1142 C1138 1.531 . S
C1142 H1154 0.960 . S
C1142 H1155 0.962 . S
C1142 H1156 0.960 . S
C1143 C1140 1.511 . S
C1143 H1157 0.961 . S
C1143 H1158 0.961 . S
C1143 H1159 0.961 . S
C1144 C1145 1.370 . S
C1144 C1146 1.363 . S
C1144 H1160 0.931 . S
C1145 C1144 1.370 . S
C1145 C1149 1.408 . S
C1146 C1144 1.363 . S
C1146 C1147 1.370 . S
C1146 C1150 1.524 . S
C1147 C1139 1.503 . S
C1147 C1146 1.370 . S
C1147 C1148 1.403 . S
C1148 C1147 1.403 . S
C1148 C1149 1.404 . S
C1148 C1151 1.539 . S
C1149 C1145 1.408 . S
C1149 C1148 1.404 . S
C1149 H1161 0.930 . S
C1150 C1146 1.524 . S
C1150 H1162 0.956 . S
C1150 H1163 0.961 . S
C1150 H1164 0.961 . S
C1151 C1148 1.539 . S
C1151 H1165 0.958 . S
C1151 H1166 0.961 . S
C1151 H1167 0.960 . S
H1152 C1136 0.931 . S
H1153 C1141 0.929 . S
H1154 C1142 0.960 . S
H1155 C1142 0.962 . S
H1156 C1142 0.960 . S
H1157 C1143 0.961 . S
H1158 C1143 0.961 . S
H1159 C1143 0.961 . S
H1160 C1144 0.931 . S
H1161 C1149 0.930 . S
H1162 C1150 0.956 . S
H1163 C1150 0.961 . S
H1164 C1150 0.961 . S
H1165 C1151 0.958 . S
H1166 C1151 0.961 . S
H1167 C1151 0.960 . S
C1168 C1169 1.391 . S
C1168 C1170 1.394 . S
C1168 H1184 0.931 . S
C1169 C1168 1.391 . S
C1169 C1173 1.376 . S
C1170 C1168 1.394 . S
C1170 C1171 1.369 . S
C1170 C1174 1.531 . S
C1171 C1170 1.369 . S
C1171 C1172 1.410 . S
C1171 C1179 1.503 . S
C1172 C1171 1.410 . S
C1172 C1173 1.392 . S
C1172 C1175 1.511 . S
C1173 C1169 1.376 . S
C1173 C1172 1.392 . S
C1173 H1185 0.929 . S
C1174 C1170 1.531 . S
C1174 H1186 0.960 . S
C1174 H1187 0.962 . S
C1174 H1188 0.960 . S
C1175 C1172 1.511 . S
C1175 H1189 0.961 . S
C1175 H1190 0.961 . S
C1175 H1191 0.961 . S
C1176 C1177 1.370 . S
C1176 C1178 1.363 . S
C1176 H1192 0.931 . S
C1177 C1176 1.370 . S
C1177 C1181 1.408 . S
C1178 C1176 1.363 . S
C1178 C1179 1.370 . S
C1178 C1182 1.524 . S
C1179 C1171 1.503 . S
C1179 C1178 1.370 . S
C1179 C1180 1.403 . S
C1180 C1179 1.403 . S
C1180 C1181 1.404 . S
C1180 C1183 1.539 . S
C1181 C1177 1.408 . S
C1181 C1180 1.404 . S
C1181 H1193 0.930 . S
C1182 C1178 1.524 . S
C1182 H1194 0.956 . S
C1182 H1195 0.961 . S
C1182 H1196 0.961 . S
C1183 C1180 1.539 . S
C1183 H1197 0.958 . S
C1183 H1198 0.961 . S
C1183 H1199 0.960 . S
H1184 C1168 0.931 . S
H1185 C1173 0.929 . S
H1186 C1174 0.960 . S
H1187 C1174 0.962 . S
H1188 C1174 0.960 . S
H1189 C1175 0.961 . S
H1190 C1175 0.961 . S
H1191 C1175 0.961 . S
H1192 C1176 0.931 . S
H1193 C1181 0.930 . S
H1194 C1182 0.956 . S
H1195 C1182 0.961 . S
H1196 C1182 0.961 . S
H1197 C1183 0.958 . S
H1198 C1183 0.961 . S
H1199 C1183 0.960 . S
C1200 C1201 1.391 . S
C1200 C1202 1.394 . S
C1200 H1216 0.931 . S
C1201 C1200 1.391 . S
C1201 C1205 1.376 . S
C1202 C1200 1.394 . S
C1202 C1203 1.369 . S
C1202 C1206 1.531 . S
C1203 C1202 1.369 . S
C1203 C1204 1.410 . S
C1203 C1211 1.503 . S
C1204 C1203 1.410 . S
C1204 C1205 1.392 . S
C1204 C1207 1.511 . S
C1205 C1201 1.376 . S
C1205 C1204 1.392 . S
C1205 H1217 0.929 . S
C1206 C1202 1.531 . S
C1206 H1218 0.960 . S
C1206 H1219 0.962 . S
C1206 H1220 0.960 . S
C1207 C1204 1.511 . S
C1207 H1221 0.961 . S
C1207 H1222 0.961 . S
C1207 H1223 0.961 . S
C1208 C1209 1.370 . S
C1208 C1210 1.363 . S
C1208 H1224 0.931 . S
C1209 C1208 1.370 . S
C1209 C1213 1.408 . S
C1210 C1208 1.363 . S
C1210 C1211 1.370 . S
C1210 C1214 1.524 . S
C1211 C1203 1.503 . S
C1211 C1210 1.370 . S
C1211 C1212 1.403 . S
C1212 C1211 1.403 . S
C1212 C1213 1.404 . S
C1212 C1215 1.539 . S
C1213 C1209 1.408 . S
C1213 C1212 1.404 . S
C1213 H1225 0.930 . S
C1214 C1210 1.524 . S
C1214 H1226 0.956 . S
C1214 H1227 0.961 . S
C1214 H1228 0.961 . S
C1215 C1212 1.539 . S
C1215 H1229 0.958 . S
C1215 H1230 0.961 . S
C1215 H1231 0.960 . S
H1216 C1200 0.931 . S
H1217 C1205 0.929 . S
H1218 C1206 0.960 . S
H1219 C1206 0.962 . S
H1220 C1206 0.960 . S
H1221 C1207 0.961 . S
H1222 C1207 0.961 . S
H1223 C1207 0.961 . S
H1224 C1208 0.931 . S
H1225 C1213 0.930 . S
H1226 C1214 0.956 . S
H1227 C1214 0.961 . S
H1228 C1214 0.961 . S
H1229 C1215 0.958 . S
H1230 C1215 0.961 . S
H1231 C1215 0.960 . S
C1232 C1233 1.391 . S
C1232 C1234 1.394 . S
C1232 H1248 0.931 . S
C1233 C1232 1.391 . S
C1233 C1237 1.376 1_565 S
C1234 C1232 1.394 . S
C1234 C1235 1.369 1_565 S
C1234 C1238 1.531 1_655 S
C1235 C1234 1.369 1_545 S
C1235 C1236 1.410 . S
C1235 C1243 1.503 . S
C1236 C1235 1.410 . S
C1236 C1237 1.392 . S
C1236 C1239 1.511 . S
C1237 C1233 1.376 1_545 S
C1237 C1236 1.392 . S
C1237 H1249 0.929 . S
C1238 C1234 1.531 1_455 S
C1238 H1250 0.960 . S
C1238 H1251 0.962 . S
C1238 H1252 0.960 . S
C1239 C1236 1.511 . S
C1239 H1253 0.961 . S
C1239 H1254 0.961 . S
C1239 H1255 0.961 . S
C1240 C1241 1.370 . S
C1240 C1242 1.363 . S
C1240 H1256 0.931 . S
C1241 C1240 1.370 . S
C1241 C1245 1.408 1_445 S
C1242 C1240 1.363 . S
C1242 C1243 1.370 1_455 S
C1242 C1246 1.524 . S
C1243 C1235 1.503 . S
C1243 C1242 1.370 1_655 S
C1243 C1244 1.403 1_545 S
C1244 C1243 1.403 1_565 S
C1244 C1245 1.404 . S
C1244 C1247 1.539 . S
C1245 C1241 1.408 1_665 S
C1245 C1244 1.404 . S
C1245 H1257 0.930 . S
C1246 C1242 1.524 . S
C1246 H1258 0.956 . S
C1246 H1259 0.961 . S
C1246 H1260 0.961 . S
C1247 C1244 1.539 . S
C1247 H1261 0.958 . S
C1247 H1262 0.961 . S
C1247 H1263 0.960 . S
H1248 C1232 0.931 . S
H1249 C1237 0.929 . S
H1250 C1238 0.960 . S
H1251 C1238 0.962 . S
H1252 C1238 0.960 . S
H1253 C1239 0.961 . S
H1254 C1239 0.961 . S
H1255 C1239 0.961 . S
H1256 C1240 0.931 . S
H1257 C1245 0.930 . S
H1258 C1246 0.956 . S
H1259 C1246 0.961 . S
H1260 C1246 0.961 . S
H1261 C1247 0.958 . S
H1262 C1247 0.961 . S
H1263 C1247 0.960 . S
C1264 C1265 1.391 . S
C1264 C1266 1.394 . S
C1264 H1280 0.931 . S
C1265 C1264 1.391 . S
C1265 C1269 1.376 . S
C1266 C1264 1.394 . S
C1266 C1267 1.369 . S
C1266 C1270 1.531 . S
C1267 C1266 1.369 . S
C1267 C1268 1.410 . S
C1267 C1275 1.503 . S
C1268 C1267 1.410 . S
C1268 C1269 1.392 . S
C1268 C1271 1.511 . S
C1269 C1265 1.376 . S
C1269 C1268 1.392 . S
C1269 H1281 0.929 . S
C1270 C1266 1.531 . S
C1270 H1282 0.960 . S
C1270 H1283 0.962 . S
C1270 H1284 0.960 . S
C1271 C1268 1.511 . S
C1271 H1285 0.961 . S
C1271 H1286 0.961 . S
C1271 H1287 0.961 . S
C1272 C1273 1.370 . S
C1272 C1274 1.363 . S
C1272 H1288 0.931 . S
C1273 C1272 1.370 . S
C1273 C1277 1.408 . S
C1274 C1272 1.363 . S
C1274 C1275 1.370 . S
C1274 C1278 1.524 . S
C1275 C1267 1.503 . S
C1275 C1274 1.370 . S
C1275 C1276 1.403 . S
C1276 C1275 1.403 . S
C1276 C1277 1.404 . S
C1276 C1279 1.539 . S
C1277 C1273 1.408 . S
C1277 C1276 1.404 . S
C1277 H1289 0.930 . S
C1278 C1274 1.524 . S
C1278 H1290 0.956 . S
C1278 H1291 0.961 . S
C1278 H1292 0.961 . S
C1279 C1276 1.539 . S
C1279 H1293 0.958 . S
C1279 H1294 0.961 . S
C1279 H1295 0.960 . S
H1280 C1264 0.931 . S
H1281 C1269 0.929 . S
H1282 C1270 0.960 . S
H1283 C1270 0.962 . S
H1284 C1270 0.960 . S
H1285 C1271 0.961 . S
H1286 C1271 0.961 . S
H1287 C1271 0.961 . S
H1288 C1272 0.931 . S
H1289 C1277 0.930 . S
H1290 C1278 0.956 . S
H1291 C1278 0.961 . S
H1292 C1278 0.961 . S
H1293 C1279 0.958 . S
H1294 C1279 0.961 . S
H1295 C1279 0.960 . S
C1296 C1297 1.391 . S
C1296 C1298 1.394 . S
C1296 H1312 0.931 . S
C1297 C1296 1.391 . S
C1297 C1301 1.376 1_545 S
C1298 C1296 1.394 . S
C1298 C1299 1.369 . S
C1298 C1302 1.531 . S
C1299 C1298 1.369 . S
C1299 C1300 1.410 1_545 S
C1299 C1307 1.503 . S
C1300 C1299 1.410 1_565 S
C1300 C1301 1.392 . S
C1300 C1303 1.511 . S
C1301 C1297 1.376 1_565 S
C1301 C1300 1.392 . S
C1301 H1313 0.929 . S
C1302 C1298 1.531 . S
C1302 H1314 0.960 . S
C1302 H1315 0.962 . S
C1302 H1316 0.960 . S
C1303 C1300 1.511 . S
C1303 H1317 0.961 . S
C1303 H1318 0.961 . S
C1303 H1319 0.961 . S
C1304 C1305 1.370 . S
C1304 C1306 1.363 . S
C1304 H1320 0.931 . S
C1305 C1304 1.370 . S
C1305 C1309 1.408 . S
C1306 C1304 1.363 . S
C1306 C1307 1.370 . S
C1306 C1310 1.524 . S
C1307 C1299 1.503 . S
C1307 C1306 1.370 . S
C1307 C1308 1.403 . S
C1308 C1307 1.403 . S
C1308 C1309 1.404 . S
C1308 C1311 1.539 1_545 S
C1309 C1305 1.408 . S
C1309 C1308 1.404 . S
C1309 H1321 0.930 1_545 S
C1310 C1306 1.524 . S
C1310 H1322 0.956 . S
C1310 H1323 0.961 . S
C1310 H1324 0.961 . S
C1311 C1308 1.539 1_565 S
C1311 H1325 0.958 . S
C1311 H1326 0.961 . S
C1311 H1327 0.960 . S
H1312 C1296 0.931 . S
H1313 C1301 0.929 . S
H1314 C1302 0.960 . S
H1315 C1302 0.962 . S
H1316 C1302 0.960 . S
H1317 C1303 0.961 . S
H1318 C1303 0.961 . S
H1319 C1303 0.961 . S
H1320 C1304 0.931 . S
H1321 C1309 0.930 1_565 S
H1322 C1310 0.956 . S
H1323 C1310 0.961 . S
H1324 C1310 0.961 . S
H1325 C1311 0.958 . S
H1326 C1311 0.961 . S
H1327 C1311 0.960 . S
C1328 C1329 1.391 . S
C1328 C1330 1.394 . S
C1328 H1344 0.931 . S
C1329 C1328 1.391 . S
C1329 C1333 1.376 . S
C1330 C1328 1.394 . S
C1330 C1331 1.369 . S
C1330 C1334 1.531 . S
C1331 C1330 1.369 . S
C1331 C1332 1.410 . S
C1331 C1339 1.503 . S
C1332 C1331 1.410 . S
C1332 C1333 1.392 . S
C1332 C1335 1.511 . S
C1333 C1329 1.376 . S
C1333 C1332 1.392 . S
C1333 H1345 0.929 . S
C1334 C1330 1.531 . S
C1334 H1346 0.960 . S
C1334 H1347 0.962 . S
C1334 H1348 0.960 . S
C1335 C1332 1.511 . S
C1335 H1349 0.961 . S
C1335 H1350 0.961 . S
C1335 H1351 0.961 . S
C1336 C1337 1.370 . S
C1336 C1338 1.363 . S
C1336 H1352 0.931 . S
C1337 C1336 1.370 . S
C1337 C1341 1.408 . S
C1338 C1336 1.363 . S
C1338 C1339 1.370 . S
C1338 C1342 1.524 . S
C1339 C1331 1.503 . S
C1339 C1338 1.370 . S
C1339 C1340 1.403 . S
C1340 C1339 1.403 . S
C1340 C1341 1.404 . S
C1340 C1343 1.539 . S
C1341 C1337 1.408 . S
C1341 C1340 1.404 . S
C1341 H1353 0.930 . S
C1342 C1338 1.524 . S
C1342 H1354 0.956 . S
C1342 H1355 0.961 . S
C1342 H1356 0.961 . S
C1343 C1340 1.539 . S
C1343 H1357 0.958 . S
C1343 H1358 0.961 . S
C1343 H1359 0.960 . S
H1344 C1328 0.931 . S
H1345 C1333 0.929 . S
H1346 C1334 0.960 . S
H1347 C1334 0.962 . S
H1348 C1334 0.960 . S
H1349 C1335 0.961 . S
H1350 C1335 0.961 . S
H1351 C1335 0.961 . S
H1352 C1336 0.931 . S
H1353 C1341 0.930 . S
H1354 C1342 0.956 . S
H1355 C1342 0.961 . S
H1356 C1342 0.961 . S
H1357 C1343 0.958 . S
H1358 C1343 0.961 . S
H1359 C1343 0.960 . S
C1360 C1361 1.391 1_565 S
C1360 C1362 1.394 . S
C1360 H1376 0.931 . S
C1361 C1360 1.391 1_545 S
C1361 C1365 1.376 . S
C1362 C1360 1.394 . S
C1362 C1363 1.369 1_565 S
C1362 C1366 1.531 . S
C1363 C1362 1.369 1_545 S
C1363 C1364 1.410 . S
C1363 C1371 1.503 . S
C1364 C1363 1.410 . S
C1364 C1365 1.392 . S
C1364 C1367 1.511 1_655 S
C1365 C1361 1.376 . S
C1365 C1364 1.392 . S
C1365 H1377 0.929 . S
C1366 C1362 1.531 . S
C1366 H1378 0.960 . S
C1366 H1379 0.962 . S
C1366 H1380 0.960 . S
C1367 C1364 1.511 1_455 S
C1367 H1381 0.961 . S
C1367 H1382 0.961 . S
C1367 H1383 0.961 . S
C1368 C1369 1.370 1_655 S
C1368 C1370 1.363 . S
C1368 H1384 0.931 . S
C1369 C1368 1.370 1_455 S
C1369 C1373 1.408 1_545 S
C1370 C1368 1.363 . S
C1370 C1371 1.370 . S
C1370 C1374 1.524 . S
C1371 C1363 1.503 . S
C1371 C1370 1.370 . S
C1371 C1372 1.403 1_645 S
C1372 C1371 1.403 1_465 S
C1372 C1373 1.404 . S
C1372 C1375 1.539 . S
C1373 C1369 1.408 1_565 S
C1373 C1372 1.404 . S
C1373 H1385 0.930 . S
C1374 C1370 1.524 . S
C1374 H1386 0.956 . S
C1374 H1387 0.961 . S
C1374 H1388 0.961 . S
C1375 C1372 1.539 . S
C1375 H1389 0.958 . S
C1375 H1390 0.961 . S
C1375 H1391 0.960 . S
H1376 C1360 0.931 . S
H1377 C1365 0.929 . S
H1378 C1366 0.960 . S
H1379 C1366 0.962 . S
H1380 C1366 0.960 . S
H1381 C1367 0.961 . S
H1382 C1367 0.961 . S
H1383 C1367 0.961 . S
H1384 C1368 0.931 . S
H1385 C1373 0.930 . S
H1386 C1374 0.956 . S
H1387 C1374 0.961 . S
H1388 C1374 0.961 . S
H1389 C1375 0.958 . S
H1390 C1375 0.961 . S
H1391 C1375 0.960 . S
C1392 C1393 1.391 . S
C1392 C1394 1.394 . S
C1392 H1408 0.931 . S
C1393 C1392 1.391 . S
C1393 C1397 1.376 . S
C1394 C1392 1.394 . S
C1394 C1395 1.369 . S
C1394 C1398 1.531 . S
C1395 C1394 1.369 . S
C1395 C1396 1.410 . S
C1395 C1403 1.503 . S
C1396 C1395 1.410 . S
C1396 C1397 1.392 . S
C1396 C1399 1.511 . S
C1397 C1393 1.376 . S
C1397 C1396 1.392 . S
C1397 H1409 0.929 . S
C1398 C1394 1.531 . S
C1398 H1410 0.960 . S
C1398 H1411 0.962 . S
C1398 H1412 0.960 . S
C1399 C1396 1.511 . S
C1399 H1413 0.961 . S
C1399 H1414 0.961 . S
C1399 H1415 0.961 . S
C1400 C1401 1.370 . S
C1400 C1402 1.363 . S
C1400 H1416 0.931 . S
C1401 C1400 1.370 . S
C1401 C1405 1.408 . S
C1402 C1400 1.363 . S
C1402 C1403 1.370 . S
C1402 C1406 1.524 . S
C1403 C1395 1.503 . S
C1403 C1402 1.370 . S
C1403 C1404 1.403 . S
C1404 C1403 1.403 . S
C1404 C1405 1.404 . S
C1404 C1407 1.539 . S
C1405 C1401 1.408 . S
C1405 C1404 1.404 . S
C1405 H1417 0.930 . S
C1406 C1402 1.524 . S
C1406 H1418 0.956 . S
C1406 H1419 0.961 . S
C1406 H1420 0.961 . S
C1407 C1404 1.539 . S
C1407 H1421 0.958 . S
C1407 H1422 0.961 . S
C1407 H1423 0.960 . S
H1408 C1392 0.931 . S
H1409 C1397 0.929 . S
H1410 C1398 0.960 . S
H1411 C1398 0.962 . S
H1412 C1398 0.960 . S
H1413 C1399 0.961 . S
H1414 C1399 0.961 . S
H1415 C1399 0.961 . S
H1416 C1400 0.931 . S
H1417 C1405 0.930 . S
H1418 C1406 0.956 . S
H1419 C1406 0.961 . S
H1420 C1406 0.961 . S
H1421 C1407 0.958 . S
H1422 C1407 0.961 . S
H1423 C1407 0.960 . S
C1424 C1425 1.391 . S
C1424 C1426 1.394 . S
C1424 H1440 0.931 . S
C1425 C1424 1.391 . S
C1425 C1429 1.376 . S
C1426 C1424 1.394 . S
C1426 C1427 1.369 . S
C1426 C1430 1.531 . S
C1427 C1426 1.369 . S
C1427 C1428 1.410 . S
C1427 C1435 1.503 . S
C1428 C1427 1.410 . S
C1428 C1429 1.392 . S
C1428 C1431 1.511 1_545 S
C1429 C1425 1.376 . S
C1429 C1428 1.392 . S
C1429 H1441 0.929 . S
C1430 C1426 1.531 . S
C1430 H1442 0.960 . S
C1430 H1443 0.962 . S
C1430 H1444 0.960 . S
C1431 C1428 1.511 1_565 S
C1431 H1445 0.961 . S
C1431 H1446 0.961 1_565 S
C1431 H1447 0.961 . S
C1432 C1433 1.370 . S
C1432 C1434 1.363 . S
C1432 H1448 0.931 . S
C1433 C1432 1.370 . S
C1433 C1437 1.408 . S
C1434 C1432 1.363 . S
C1434 C1435 1.370 . S
C1434 C1438 1.524 . S
C1435 C1427 1.503 . S
C1435 C1434 1.370 . S
C1435 C1436 1.403 . S
C1436 C1435 1.403 . S
C1436 C1437 1.404 . S
C1436 C1439 1.539 1_545 S
C1437 C1433 1.408 . S
C1437 C1436 1.404 . S
C1437 H1449 0.930 . S
C1438 C1434 1.524 . S
C1438 H1450 0.956 . S
C1438 H1451 0.961 . S
C1438 H1452 0.961 . S
C1439 C1436 1.539 1_565 S
C1439 H1453 0.958 . S
C1439 H1454 0.961 . S
C1439 H1455 0.960 . S
H1440 C1424 0.931 . S
H1441 C1429 0.929 . S
H1442 C1430 0.960 . S
H1443 C1430 0.962 . S
H1444 C1430 0.960 . S
H1445 C1431 0.961 . S
H1446 C1431 0.961 1_545 S
H1447 C1431 0.961 . S
H1448 C1432 0.931 . S
H1449 C1437 0.930 . S
H1450 C1438 0.956 . S
H1451 C1438 0.961 . S
H1452 C1438 0.961 . S
H1453 C1439 0.958 . S
H1454 C1439 0.961 . S
H1455 C1439 0.960 . S
C1456 C1457 1.391 . S
C1456 C1458 1.394 . S
C1456 H1472 0.931 . S
C1457 C1456 1.391 . S
C1457 C1461 1.376 . S
C1458 C1456 1.394 . S
C1458 C1459 1.369 . S
C1458 C1462 1.531 . S
C1459 C1458 1.369 . S
C1459 C1460 1.410 . S
C1459 C1467 1.503 . S
C1460 C1459 1.410 . S
C1460 C1461 1.392 . S
C1460 C1463 1.511 . S
C1461 C1457 1.376 . S
C1461 C1460 1.392 . S
C1461 H1473 0.929 . S
C1462 C1458 1.531 . S
C1462 H1474 0.960 . S
C1462 H1475 0.962 . S
C1462 H1476 0.960 . S
C1463 C1460 1.511 . S
C1463 H1477 0.961 . S
C1463 H1478 0.961 . S
C1463 H1479 0.961 . S
C1464 C1465 1.370 . S
C1464 C1466 1.363 . S
C1464 H1480 0.931 . S
C1465 C1464 1.370 . S
C1465 C1469 1.408 . S
C1466 C1464 1.363 . S
C1466 C1467 1.370 . S
C1466 C1470 1.524 . S
C1467 C1459 1.503 . S
C1467 C1466 1.370 . S
C1467 C1468 1.403 . S
C1468 C1467 1.403 . S
C1468 C1469 1.404 . S
C1468 C1471 1.539 . S
C1469 C1465 1.408 . S
C1469 C1468 1.404 . S
C1469 H1481 0.930 . S
C1470 C1466 1.524 . S
C1470 H1482 0.956 . S
C1470 H1483 0.961 . S
C1470 H1484 0.961 . S
C1471 C1468 1.539 . S
C1471 H1485 0.958 . S
C1471 H1486 0.961 . S
C1471 H1487 0.960 . S
H1472 C1456 0.931 . S
H1473 C1461 0.929 . S
H1474 C1462 0.960 . S
H1475 C1462 0.962 . S
H1476 C1462 0.960 . S
H1477 C1463 0.961 . S
H1478 C1463 0.961 . S
H1479 C1463 0.961 . S
H1480 C1464 0.931 . S
H1481 C1469 0.930 . S
H1482 C1470 0.956 . S
H1483 C1470 0.961 . S
H1484 C1470 0.961 . S
H1485 C1471 0.958 . S
H1486 C1471 0.961 . S
H1487 C1471 0.960 . S
C1488 C1489 1.391 . S
C1488 C1490 1.408 . S
C1488 H1504 0.931 . S
C1489 C1488 1.391 . S
C1489 C1493 1.377 1_556 S
C1490 C1488 1.408 . S
C1490 C1491 1.341 1_556 S
C1490 C1494 1.545 . S
C1491 C1490 1.341 1_554 S
C1491 C1492 1.410 . S
C1491 C1499 1.503 . S
C1492 C1491 1.410 . S
C1492 C1493 1.392 . S
C1492 C1495 1.511 . S
C1493 C1489 1.377 1_554 S
C1493 C1492 1.392 . S
C1493 H1505 0.929 . S
C1494 C1490 1.545 . S
C1494 H1506 0.960 . S
C1494 H1507 0.962 . S
C1494 H1508 0.960 . S
C1495 C1492 1.511 . S
C1495 H1509 0.961 . S
C1495 H1510 0.961 . S
C1495 H1511 0.961 . S
C1496 C1497 1.370 . S
C1496 C1498 1.363 . S
C1496 H1512 0.931 . S
C1497 C1496 1.370 . S
C1497 C1501 1.408 . S
C1498 C1496 1.363 . S
C1498 C1499 1.370 . S
C1498 C1502 1.524 . S
C1499 C1491 1.503 . S
C1499 C1498 1.370 . S
C1499 C1500 1.403 . S
C1500 C1499 1.403 . S
C1500 C1501 1.404 . S
C1500 C1503 1.539 . S
C1501 C1497 1.408 . S
C1501 C1500 1.404 . S
C1501 H1513 0.930 . S
C1502 C1498 1.524 . S
C1502 H1514 0.956 . S
C1502 H1515 0.961 . S
C1502 H1516 0.961 . S
C1503 C1500 1.539 . S
C1503 H1517 0.958 . S
C1503 H1518 0.961 . S
C1503 H1519 0.960 . S
H1504 C1488 0.931 . S
H1505 C1493 0.929 . S
H1506 C1494 0.960 . S
H1507 C1494 0.962 . S
H1508 C1494 0.960 . S
H1509 C1495 0.961 . S
H1510 C1495 0.961 . S
H1511 C1495 0.961 . S
H1512 C1496 0.931 . S
H1513 C1501 0.930 . S
H1514 C1502 0.956 . S
H1515 C1502 0.961 . S
H1516 C1502 0.961 . S
H1517 C1503 0.958 . S
H1518 C1503 0.961 . S
H1519 C1503 0.960 . S
C1520 C1521 1.391 . S
C1520 C1522 1.394 . S
C1520 H1536 0.931 . S
C1521 C1520 1.391 . S
C1521 C1525 1.376 . S
C1522 C1520 1.394 . S
C1522 C1523 1.369 . S
C1522 C1526 1.531 . S
C1523 C1522 1.369 . S
C1523 C1524 1.410 . S
C1523 C1531 1.503 . S
C1524 C1523 1.410 . S
C1524 C1525 1.392 . S
C1524 C1527 1.511 . S
C1525 C1521 1.376 . S
C1525 C1524 1.392 . S
C1525 H1537 0.929 . S
C1526 C1522 1.531 . S
C1526 H1538 0.960 . S
C1526 H1539 0.962 . S
C1526 H1540 0.960 . S
C1527 C1524 1.511 . S
C1527 H1541 0.961 1_554 S
C1527 H1542 0.961 . S
C1527 H1543 0.961 . S
C1528 C1529 1.370 . S
C1528 C1530 1.363 . S
C1528 H1544 0.931 . S
C1529 C1528 1.370 . S
C1529 C1533 1.408 . S
C1530 C1528 1.363 . S
C1530 C1531 1.370 . S
C1530 C1534 1.524 . S
C1531 C1523 1.503 . S
C1531 C1530 1.370 . S
C1531 C1532 1.403 . S
C1532 C1531 1.403 . S
C1532 C1533 1.404 . S
C1532 C1535 1.539 . S
C1533 C1529 1.408 . S
C1533 C1532 1.404 . S
C1533 H1545 0.930 . S
C1534 C1530 1.524 . S
C1534 H1546 0.956 . S
C1534 H1547 0.961 1_554 S
C1534 H1548 0.961 1_554 S
C1535 C1532 1.539 . S
C1535 H1549 0.958 . S
C1535 H1550 0.961 . S
C1535 H1551 0.960 . S
H1536 C1520 0.931 . S
H1537 C1525 0.929 . S
H1538 C1526 0.960 . S
H1539 C1526 0.962 . S
H1540 C1526 0.960 . S
H1541 C1527 0.961 1_556 S
H1542 C1527 0.961 . S
H1543 C1527 0.961 . S
H1544 C1528 0.931 . S
H1545 C1533 0.930 . S
H1546 C1534 0.956 . S
H1547 C1534 0.961 1_556 S
H1548 C1534 0.961 1_556 S
H1549 C1535 0.958 . S
H1550 C1535 0.961 . S
H1551 C1535 0.960 . S
C1552 C1553 1.391 . S
C1552 C1554 1.394 . S
C1552 H1568 0.931 . S
C1553 C1552 1.391 . S
C1553 C1557 1.376 . S
C1554 C1552 1.394 . S
C1554 C1555 1.369 . S
C1554 C1558 1.531 . S
C1555 C1554 1.369 . S
C1555 C1556 1.410 . S
C1555 C1563 1.503 . S
C1556 C1555 1.410 . S
C1556 C1557 1.392 . S
C1556 C1559 1.511 . S
C1557 C1553 1.376 . S
C1557 C1556 1.392 . S
C1557 H1569 0.929 . S
C1558 C1554 1.531 . S
C1558 H1570 0.960 . S
C1558 H1571 0.962 . S
C1558 H1572 0.960 . S
C1559 C1556 1.511 . S
C1559 H1573 0.961 . S
C1559 H1574 0.961 . S
C1559 H1575 0.961 . S
C1560 C1561 1.370 . S
C1560 C1562 1.363 . S
C1560 H1576 0.931 . S
C1561 C1560 1.370 . S
C1561 C1565 1.408 . S
C1562 C1560 1.363 . S
C1562 C1563 1.370 . S
C1562 C1566 1.524 . S
C1563 C1555 1.503 . S
C1563 C1562 1.370 . S
C1563 C1564 1.403 . S
C1564 C1563 1.403 . S
C1564 C1565 1.404 . S
C1564 C1567 1.539 . S
C1565 C1561 1.408 . S
C1565 C1564 1.404 . S
C1565 H1577 0.930 . S
C1566 C1562 1.524 . S
C1566 H1578 0.956 . S
C1566 H1579 0.961 . S
C1566 H1580 0.961 . S
C1567 C1564 1.539 . S
C1567 H1581 0.958 . S
C1567 H1582 0.961 . S
C1567 H1583 0.960 . S
H1568 C1552 0.931 . S
H1569 C1557 0.929 . S
H1570 C1558 0.960 . S
H1571 C1558 0.962 . S
H1572 C1558 0.960 . S
H1573 C1559 0.961 . S
H1574 C1559 0.961 . S
H1575 C1559 0.961 . S
H1576 C1560 0.931 . S
H1577 C1565 0.930 . S
H1578 C1566 0.956 . S
H1579 C1566 0.961 . S
H1580 C1566 0.961 . S
H1581 C1567 0.958 . S
H1582 C1567 0.961 . S
H1583 C1567 0.960 . S
C1584 C1585 1.391 . S
C1584 C1586 1.394 . S
C1584 H1600 0.931 . S
C1585 C1584 1.391 . S
C1585 C1589 1.376 . S
C1586 C1584 1.394 . S
C1586 C1587 1.369 . S
C1586 C1590 1.531 . S
C1587 C1586 1.369 . S
C1587 C1588 1.410 . S
C1587 C1595 1.503 . S
C1588 C1587 1.410 . S
C1588 C1589 1.392 . S
C1588 C1591 1.511 . S
C1589 C1585 1.376 . S
C1589 C1588 1.392 . S
C1589 H1601 0.929 . S
C1590 C1586 1.531 . S
C1590 H1602 0.960 . S
C1590 H1603 0.962 . S
C1590 H1604 0.960 . S
C1591 C1588 1.511 . S
C1591 H1605 0.961 . S
C1591 H1606 0.961 . S
C1591 H1607 0.961 . S
C1592 C1593 1.370 . S
C1592 C1594 1.363 . S
C1592 H1608 0.931 . S
C1593 C1592 1.370 . S
C1593 C1597 1.408 . S
C1594 C1592 1.363 . S
C1594 C1595 1.370 . S
C1594 C1598 1.524 . S
C1595 C1587 1.503 . S
C1595 C1594 1.370 . S
C1595 C1596 1.403 . S
C1596 C1595 1.403 . S
C1596 C1597 1.404 . S
C1596 C1599 1.539 . S
C1597 C1593 1.408 . S
C1597 C1596 1.404 . S
C1597 H1609 0.930 . S
C1598 C1594 1.524 . S
C1598 H1610 0.956 . S
C1598 H1611 0.961 . S
C1598 H1612 0.961 . S
C1599 C1596 1.539 . S
C1599 H1613 0.958 . S
C1599 H1614 0.961 . S
C1599 H1615 0.960 . S
H1600 C1584 0.931 . S
H1601 C1589 0.929 . S
H1602 C1590 0.960 . S
H1603 C1590 0.962 . S
H1604 C1590 0.960 . S
H1605 C1591 0.961 . S
H1606 C1591 0.961 . S
H1607 C1591 0.961 . S
H1608 C1592 0.931 . S
H1609 C1597 0.930 . S
H1610 C1598 0.956 . S
H1611 C1598 0.961 . S
H1612 C1598 0.961 . S
H1613 C1599 0.958 . S
H1614 C1599 0.961 . S
H1615 C1599 0.960 . S
C1616 C1617 1.391 . S
C1616 C1618 1.394 . S
C1616 H1632 0.931 . S
C1617 C1616 1.391 . S
C1617 C1621 1.376 . S
C1618 C1616 1.394 . S
C1618 C1619 1.369 . S
C1618 C1622 1.531 . S
C1619 C1618 1.369 . S
C1619 C1620 1.410 . S
C1619 C1627 1.503 . S
C1620 C1619 1.410 . S
C1620 C1621 1.392 . S
C1620 C1623 1.511 . S
C1621 C1617 1.376 . S
C1621 C1620 1.392 . S
C1621 H1633 0.929 . S
C1622 C1618 1.531 . S
C1622 H1634 0.960 . S
C1622 H1635 0.962 . S
C1622 H1636 0.960 . S
C1623 C1620 1.511 . S
C1623 H1637 0.961 . S
C1623 H1638 0.961 . S
C1623 H1639 0.961 . S
C1624 C1625 1.370 . S
C1624 C1626 1.363 . S
C1624 H1640 0.931 . S
C1625 C1624 1.370 . S
C1625 C1629 1.408 . S
C1626 C1624 1.363 . S
C1626 C1627 1.370 . S
C1626 C1630 1.524 . S
C1627 C1619 1.503 . S
C1627 C1626 1.370 . S
C1627 C1628 1.403 . S
C1628 C1627 1.403 . S
C1628 C1629 1.404 . S
C1628 C1631 1.539 . S
C1629 C1625 1.408 . S
C1629 C1628 1.404 . S
C1629 H1641 0.930 . S
C1630 C1626 1.524 . S
C1630 H1642 0.956 . S
C1630 H1643 0.961 . S
C1630 H1644 0.961 . S
C1631 C1628 1.539 . S
C1631 H1645 0.958 . S
C1631 H1646 0.961 . S
C1631 H1647 0.960 . S
H1632 C1616 0.931 . S
H1633 C1621 0.929 . S
H1634 C1622 0.960 . S
H1635 C1622 0.962 . S
H1636 C1622 0.960 . S
H1637 C1623 0.961 . S
H1638 C1623 0.961 . S
H1639 C1623 0.961 . S
H1640 C1624 0.931 . S
H1641 C1629 0.930 . S
H1642 C1630 0.956 . S
H1643 C1630 0.961 . S
H1644 C1630 0.961 . S
H1645 C1631 0.958 . S
H1646 C1631 0.961 . S
H1647 C1631 0.960 . S
C1648 C1649 1.391 . S
C1648 C1650 1.394 . S
C1648 H1664 0.931 . S
C1649 C1648 1.391 . S
C1649 C1653 1.376 . S
C1650 C1648 1.394 . S
C1650 C1651 1.369 . S
C1650 C1654 1.531 . S
C1651 C1650 1.369 . S
C1651 C1652 1.410 . S
C1651 C1659 1.503 . S
C1652 C1651 1.410 . S
C1652 C1653 1.392 . S
C1652 C1655 1.511 . S
C1653 C1649 1.376 . S
C1653 C1652 1.392 . S
C1653 H1665 0.929 . S
C1654 C1650 1.531 . S
C1654 H1666 0.960 . S
C1654 H1667 0.962 . S
C1654 H1668 0.960 . S
C1655 C1652 1.511 . S
C1655 H1669 0.961 . S
C1655 H1670 0.961 . S
C1655 H1671 0.961 . S
C1656 C1657 1.370 . S
C1656 C1658 1.363 . S
C1656 H1672 0.931 . S
C1657 C1656 1.370 . S
C1657 C1661 1.408 . S
C1658 C1656 1.363 . S
C1658 C1659 1.370 . S
C1658 C1662 1.524 . S
C1659 C1651 1.503 . S
C1659 C1658 1.370 . S
C1659 C1660 1.403 . S
C1660 C1659 1.403 . S
C1660 C1661 1.404 . S
C1660 C1663 1.539 . S
C1661 C1657 1.408 . S
C1661 C1660 1.404 . S
C1661 H1673 0.930 . S
C1662 C1658 1.524 . S
C1662 H1674 0.956 . S
C1662 H1675 0.961 . S
C1662 H1676 0.961 . S
C1663 C1660 1.539 . S
C1663 H1677 0.958 . S
C1663 H1678 0.961 . S
C1663 H1679 0.960 . S
H1664 C1648 0.931 . S
H1665 C1653 0.929 . S
H1666 C1654 0.960 . S
H1667 C1654 0.962 . S
H1668 C1654 0.960 . S
H1669 C1655 0.961 . S
H1670 C1655 0.961 . S
H1671 C1655 0.961 . S
H1672 C1656 0.931 . S
H1673 C1661 0.930 . S
H1674 C1662 0.956 . S
H1675 C1662 0.961 . S
H1676 C1662 0.961 . S
H1677 C1663 0.958 . S
H1678 C1663 0.961 . S
H1679 C1663 0.960 . S
C1680 C1681 1.391 . S
C1680 C1682 1.394 . S
C1680 H1696 0.931 . S
C1681 C1680 1.391 . S
C1681 C1685 1.376 . S
C1682 C1680 1.394 . S
C1682 C1683 1.369 . S
C1682 C1686 1.531 . S
C1683 C1682 1.369 . S
C1683 C1684 1.410 . S
C1683 C1691 1.503 . S
C1684 C1683 1.410 . S
C1684 C1685 1.392 . S
C1684 C1687 1.511 . S
C1685 C1681 1.376 . S
C1685 C1684 1.392 . S
C1685 H1697 0.929 . S
C1686 C1682 1.531 . S
C1686 H1698 0.960 . S
C1686 H1699 0.962 . S
C1686 H1700 0.960 . S
C1687 C1684 1.511 . S
C1687 H1701 0.961 . S
C1687 H1702 0.961 . S
C1687 H1703 0.961 . S
C1688 C1689 1.370 . S
C1688 C1690 1.363 . S
C1688 H1704 0.931 . S
C1689 C1688 1.370 . S
C1689 C1693 1.408 . S
C1690 C1688 1.363 . S
C1690 C1691 1.370 . S
C1690 C1694 1.524 . S
C1691 C1683 1.503 . S
C1691 C1690 1.370 . S
C1691 C1692 1.403 . S
C1692 C1691 1.403 . S
C1692 C1693 1.404 . S
C1692 C1695 1.539 . S
C1693 C1689 1.408 . S
C1693 C1692 1.404 . S
C1693 H1705 0.930 . S
C1694 C1690 1.524 . S
C1694 H1706 0.956 . S
C1694 H1707 0.961 . S
C1694 H1708 0.961 . S
C1695 C1692 1.539 . S
C1695 H1709 0.958 . S
C1695 H1710 0.961 . S
C1695 H1711 0.960 . S
H1696 C1680 0.931 . S
H1697 C1685 0.929 . S
H1698 C1686 0.960 . S
H1699 C1686 0.962 . S
H1700 C1686 0.960 . S
H1701 C1687 0.961 . S
H1702 C1687 0.961 . S
H1703 C1687 0.961 . S
H1704 C1688 0.931 . S
H1705 C1693 0.930 . S
H1706 C1694 0.956 . S
H1707 C1694 0.961 . S
H1708 C1694 0.961 . S
H1709 C1695 0.958 . S
H1710 C1695 0.961 . S
H1711 C1695 0.960 . S
C1712 C1713 1.391 . S
C1712 C1714 1.394 . S
C1712 H1728 0.931 . S
C1713 C1712 1.391 . S
C1713 C1717 1.376 . S
C1714 C1712 1.394 . S
C1714 C1715 1.369 . S
C1714 C1718 1.531 . S
C1715 C1714 1.369 . S
C1715 C1716 1.410 . S
C1715 C1723 1.503 . S
C1716 C1715 1.410 . S
C1716 C1717 1.392 . S
C1716 C1719 1.511 . S
C1717 C1713 1.376 . S
C1717 C1716 1.392 . S
C1717 H1729 0.929 . S
C1718 C1714 1.531 . S
C1718 H1730 0.960 . S
C1718 H1731 0.962 . S
C1718 H1732 0.960 . S
C1719 C1716 1.511 . S
C1719 H1733 0.961 . S
C1719 H1734 0.961 . S
C1719 H1735 0.961 . S
C1720 C1721 1.370 . S
C1720 C1722 1.363 . S
C1720 H1736 0.931 . S
C1721 C1720 1.370 . S
C1721 C1725 1.408 . S
C1722 C1720 1.363 . S
C1722 C1723 1.370 . S
C1722 C1726 1.524 . S
C1723 C1715 1.503 . S
C1723 C1722 1.370 . S
C1723 C1724 1.403 . S
C1724 C1723 1.403 . S
C1724 C1725 1.404 . S
C1724 C1727 1.539 . S
C1725 C1721 1.408 . S
C1725 C1724 1.404 . S
C1725 H1737 0.930 . S
C1726 C1722 1.524 . S
C1726 H1738 0.956 . S
C1726 H1739 0.961 . S
C1726 H1740 0.961 . S
C1727 C1724 1.539 . S
C1727 H1741 0.958 . S
C1727 H1742 0.961 . S
C1727 H1743 0.960 . S
H1728 C1712 0.931 . S
H1729 C1717 0.929 . S
H1730 C1718 0.960 . S
H1731 C1718 0.962 . S
H1732 C1718 0.960 . S
H1733 C1719 0.961 . S
H1734 C1719 0.961 . S
H1735 C1719 0.961 . S
H1736 C1720 0.931 . S
H1737 C1725 0.930 . S
H1738 C1726 0.956 . S
H1739 C1726 0.961 . S
H1740 C1726 0.961 . S
H1741 C1727 0.958 . S
H1742 C1727 0.961 . S
H1743 C1727 0.960 . S
C1744 C1745 1.391 . S
C1744 C1746 1.394 . S
C1744 H1760 0.931 . S
C1745 C1744 1.391 . S
C1745 C1749 1.376 . S
C1746 C1744 1.394 . S
C1746 C1747 1.369 . S
C1746 C1750 1.531 . S
C1747 C1746 1.369 . S
C1747 C1748 1.410 . S
C1747 C1755 1.503 . S
C1748 C1747 1.410 . S
C1748 C1749 1.392 . S
C1748 C1751 1.511 . S
C1749 C1745 1.376 . S
C1749 C1748 1.392 . S
C1749 H1761 0.929 . S
C1750 C1746 1.531 . S
C1750 H1762 0.960 . S
C1750 H1763 0.962 . S
C1750 H1764 0.960 . S
C1751 C1748 1.511 . S
C1751 H1765 0.961 . S
C1751 H1766 0.961 . S
C1751 H1767 0.961 . S
C1752 C1753 1.370 . S
C1752 C1754 1.363 . S
C1752 H1768 0.931 . S
C1753 C1752 1.370 . S
C1753 C1757 1.408 . S
C1754 C1752 1.363 . S
C1754 C1755 1.370 . S
C1754 C1758 1.524 . S
C1755 C1747 1.503 . S
C1755 C1754 1.370 . S
C1755 C1756 1.403 . S
C1756 C1755 1.403 . S
C1756 C1757 1.404 . S
C1756 C1759 1.539 . S
C1757 C1753 1.408 . S
C1757 C1756 1.404 . S
C1757 H1769 0.930 . S
C1758 C1754 1.524 . S
C1758 H1770 0.956 . S
C1758 H1771 0.961 . S
C1758 H1772 0.961 . S
C1759 C1756 1.539 . S
C1759 H1773 0.958 . S
C1759 H1774 0.961 . S
C1759 H1775 0.960 . S
H1760 C1744 0.931 . S
H1761 C1749 0.929 . S
H1762 C1750 0.960 . S
H1763 C1750 0.962 . S
H1764 C1750 0.960 . S
H1765 C1751 0.961 . S
H1766 C1751 0.961 . S
H1767 C1751 0.961 . S
H1768 C1752 0.931 . S
H1769 C1757 0.930 . S
H1770 C1758 0.956 . S
H1771 C1758 0.961 . S
H1772 C1758 0.961 . S
H1773 C1759 0.958 . S
H1774 C1759 0.961 . S
H1775 C1759 0.960 . S
C1776 C1777 1.391 . S
C1776 C1778 1.394 . S
C1776 H1792 0.931 . S
C1777 C1776 1.391 . S
C1777 C1781 1.376 . S
C1778 C1776 1.394 . S
C1778 C1779 1.369 . S
C1778 C1782 1.531 . S
C1779 C1778 1.369 . S
C1779 C1780 1.410 . S
C1779 C1787 1.503 . S
C1780 C1779 1.410 . S
C1780 C1781 1.392 . S
C1780 C1783 1.511 . S
C1781 C1777 1.376 . S
C1781 C1780 1.392 . S
C1781 H1793 0.929 . S
C1782 C1778 1.531 . S
C1782 H1794 0.960 . S
C1782 H1795 0.962 . S
C1782 H1796 0.960 . S
C1783 C1780 1.511 . S
C1783 H1797 0.961 . S
C1783 H1798 0.961 . S
C1783 H1799 0.961 . S
C1784 C1785 1.370 . S
C1784 C1786 1.363 . S
C1784 H1800 0.931 . S
C1785 C1784 1.370 . S
C1785 C1789 1.408 . S
C1786 C1784 1.363 . S
C1786 C1787 1.370 . S
C1786 C1790 1.524 . S
C1787 C1779 1.503 . S
C1787 C1786 1.370 . S
C1787 C1788 1.403 . S
C1788 C1787 1.403 . S
C1788 C1789 1.404 . S
C1788 C1791 1.539 . S
C1789 C1785 1.408 . S
C1789 C1788 1.404 . S
C1789 H1801 0.930 . S
C1790 C1786 1.524 . S
C1790 H1802 0.956 . S
C1790 H1803 0.961 . S
C1790 H1804 0.961 . S
C1791 C1788 1.539 . S
C1791 H1805 0.958 . S
C1791 H1806 0.961 . S
C1791 H1807 0.960 . S
H1792 C1776 0.931 . S
H1793 C1781 0.929 . S
H1794 C1782 0.960 . S
H1795 C1782 0.962 . S
H1796 C1782 0.960 . S
H1797 C1783 0.961 . S
H1798 C1783 0.961 . S
H1799 C1783 0.961 . S
H1800 C1784 0.931 . S
H1801 C1789 0.930 . S
H1802 C1790 0.956 . S
H1803 C1790 0.961 . S
H1804 C1790 0.961 . S
H1805 C1791 0.958 . S
H1806 C1791 0.961 . S
H1807 C1791 0.960 . S
C1808 C1809 1.391 . S
C1808 C1810 1.394 . S
C1808 H1824 0.931 . S
C1809 C1808 1.391 . S
C1809 C1813 1.376 . S
C1810 C1808 1.394 . S
C1810 C1811 1.369 . S
C1810 C1814 1.531 . S
C1811 C1810 1.369 . S
C1811 C1812 1.410 . S
C1811 C1819 1.503 . S
C1812 C1811 1.410 . S
C1812 C1813 1.392 . S
C1812 C1815 1.511 . S
C1813 C1809 1.376 . S
C1813 C1812 1.392 . S
C1813 H1825 0.929 . S
C1814 C1810 1.531 . S
C1814 H1826 0.960 . S
C1814 H1827 0.962 . S
C1814 H1828 0.960 . S
C1815 C1812 1.511 . S
C1815 H1829 0.961 . S
C1815 H1830 0.961 . S
C1815 H1831 0.961 . S
C1816 C1817 1.370 . S
C1816 C1818 1.363 . S
C1816 H1832 0.931 . S
C1817 C1816 1.370 . S
C1817 C1821 1.408 . S
C1818 C1816 1.363 . S
C1818 C1819 1.370 . S
C1818 C1822 1.524 . S
C1819 C1811 1.503 . S
C1819 C1818 1.370 . S
C1819 C1820 1.403 . S
C1820 C1819 1.403 . S
C1820 C1821 1.404 . S
C1820 C1823 1.539 . S
C1821 C1817 1.408 . S
C1821 C1820 1.404 . S
C1821 H1833 0.930 . S
C1822 C1818 1.524 . S
C1822 H1834 0.956 . S
C1822 H1835 0.961 . S
C1822 H1836 0.961 . S
C1823 C1820 1.539 . S
C1823 H1837 0.958 . S
C1823 H1838 0.961 . S
C1823 H1839 0.960 . S
H1824 C1808 0.931 . S
H1825 C1813 0.929 . S
H1826 C1814 0.960 . S
H1827 C1814 0.962 . S
H1828 C1814 0.960 . S
H1829 C1815 0.961 . S
H1830 C1815 0.961 . S
H1831 C1815 0.961 . S
H1832 C1816 0.931 . S
H1833 C1821 0.930 . S
H1834 C1822 0.956 . S
H1835 C1822 0.961 . S
H1836 C1822 0.961 . S
H1837 C1823 0.958 . S
H1838 C1823 0.961 . S
H1839 C1823 0.960 . S
C1840 C1841 1.391 . S
C1840 C1842 1.394 . S
C1840 H1856 0.931 . S
C1841 C1840 1.391 . S
C1841 C1845 1.376 . S
C1842 C1840 1.394 . S
C1842 C1843 1.369 . S
C1842 C1846 1.531 . S
C1843 C1842 1.369 . S
C1843 C1844 1.410 . S
C1843 C1851 1.503 . S
C1844 C1843 1.410 . S
C1844 C1845 1.392 . S
C1844 C1847 1.511 . S
C1845 C1841 1.376 . S
C1845 C1844 1.392 . S
C1845 H1857 0.929 . S
C1846 C1842 1.531 . S
C1846 H1858 0.960 . S
C1846 H1859 0.962 . S
C1846 H1860 0.960 . S
C1847 C1844 1.511 . S
C1847 H1861 0.961 . S
C1847 H1862 0.961 . S
C1847 H1863 0.961 . S
C1848 C1849 1.370 . S
C1848 C1850 1.363 . S
C1848 H1864 0.931 . S
C1849 C1848 1.370 . S
C1849 C1853 1.408 . S
C1850 C1848 1.363 . S
C1850 C1851 1.370 . S
C1850 C1854 1.524 . S
C1851 C1843 1.503 . S
C1851 C1850 1.370 . S
C1851 C1852 1.403 . S
C1852 C1851 1.403 . S
C1852 C1853 1.404 . S
C1852 C1855 1.539 . S
C1853 C1849 1.408 . S
C1853 C1852 1.404 . S
C1853 H1865 0.930 . S
C1854 C1850 1.524 . S
C1854 H1866 0.956 . S
C1854 H1867 0.961 . S
C1854 H1868 0.961 . S
C1855 C1852 1.539 . S
C1855 H1869 0.958 . S
C1855 H1870 0.961 . S
C1855 H1871 0.960 . S
H1856 C1840 0.931 . S
H1857 C1845 0.929 . S
H1858 C1846 0.960 . S
H1859 C1846 0.962 . S
H1860 C1846 0.960 . S
H1861 C1847 0.961 . S
H1862 C1847 0.961 . S
H1863 C1847 0.961 . S
H1864 C1848 0.931 . S
H1865 C1853 0.930 . S
H1866 C1854 0.956 . S
H1867 C1854 0.961 . S
H1868 C1854 0.961 . S
H1869 C1855 0.958 . S
H1870 C1855 0.961 . S
H1871 C1855 0.960 . S
C1872 C1873 1.391 . S
C1872 C1874 1.394 . S
C1872 H1888 0.931 . S
C1873 C1872 1.391 . S
C1873 C1877 1.376 1_655 S
C1874 C1872 1.394 . S
C1874 C1875 1.369 . S
C1874 C1878 1.531 . S
C1875 C1874 1.369 . S
C1875 C1876 1.410 1_655 S
C1875 C1883 1.503 . S
C1876 C1875 1.410 1_455 S
C1876 C1877 1.392 . S
C1876 C1879 1.511 . S
C1877 C1873 1.376 1_455 S
C1877 C1876 1.392 . S
C1877 H1889 0.929 . S
C1878 C1874 1.531 . S
C1878 H1890 0.960 . S
C1878 H1891 0.962 . S
C1878 H1892 0.960 . S
C1879 C1876 1.511 . S
C1879 H1893 0.961 . S
C1879 H1894 0.961 . S
C1879 H1895 0.961 . S
C1880 C1881 1.370 . S
C1880 C1882 1.363 . S
C1880 H1896 0.931 . S
C1881 C1880 1.370 . S
C1881 C1885 1.408 . S
C1882 C1880 1.363 . S
C1882 C1883 1.370 . S
C1882 C1886 1.524 . S
C1883 C1875 1.503 . S
C1883 C1882 1.370 . S
C1883 C1884 1.403 . S
C1884 C1883 1.403 . S
C1884 C1885 1.404 . S
C1884 C1887 1.539 1_655 S
C1885 C1881 1.408 . S
C1885 C1884 1.404 . S
C1885 H1897 0.930 . S
C1886 C1882 1.524 . S
C1886 H1898 0.956 . S
C1886 H1899 0.961 1_655 S
C1886 H1900 0.961 . S
C1887 C1884 1.539 1_455 S
C1887 H1901 0.958 1_455 S
C1887 H1902 0.961 . S
C1887 H1903 0.960 . S
H1888 C1872 0.931 . S
H1889 C1877 0.929 . S
H1890 C1878 0.960 . S
H1891 C1878 0.962 . S
H1892 C1878 0.960 . S
H1893 C1879 0.961 . S
H1894 C1879 0.961 . S
H1895 C1879 0.961 . S
H1896 C1880 0.931 . S
H1897 C1885 0.930 . S
H1898 C1886 0.956 . S
H1899 C1886 0.961 1_455 S
H1900 C1886 0.961 . S
H1901 C1887 0.958 1_655 S
H1902 C1887 0.961 . S
H1903 C1887 0.960 . S
C1904 C1905 1.391 . S
C1904 C1906 1.394 . S
C1904 H1920 0.931 . S
C1905 C1904 1.391 . S
C1905 C1909 1.376 . S
C1906 C1904 1.394 . S
C1906 C1907 1.369 . S
C1906 C1910 1.531 . S
C1907 C1906 1.369 . S
C1907 C1908 1.410 . S
C1907 C1915 1.503 . S
C1908 C1907 1.410 . S
C1908 C1909 1.392 . S
C1908 C1911 1.511 . S
C1909 C1905 1.376 . S
C1909 C1908 1.392 . S
C1909 H1921 0.929 . S
C1910 C1906 1.531 . S
C1910 H1922 0.960 . S
C1910 H1923 0.962 . S
C1910 H1924 0.960 . S
C1911 C1908 1.511 . S
C1911 H1925 0.961 . S
C1911 H1926 0.961 . S
C1911 H1927 0.961 . S
C1912 C1913 1.370 . S
C1912 C1914 1.363 . S
C1912 H1928 0.931 . S
C1913 C1912 1.370 . S
C1913 C1917 1.408 . S
C1914 C1912 1.363 . S
C1914 C1915 1.370 . S
C1914 C1918 1.524 . S
C1915 C1907 1.503 . S
C1915 C1914 1.370 . S
C1915 C1916 1.403 . S
C1916 C1915 1.403 . S
C1916 C1917 1.404 . S
C1916 C1919 1.539 . S
C1917 C1913 1.408 . S
C1917 C1916 1.404 . S
C1917 H1929 0.930 . S
C1918 C1914 1.524 . S
C1918 H1930 0.956 . S
C1918 H1931 0.961 . S
C1918 H1932 0.961 . S
C1919 C1916 1.539 . S
C1919 H1933 0.958 . S
C1919 H1934 0.961 . S
C1919 H1935 0.960 . S
H1920 C1904 0.931 . S
H1921 C1909 0.929 . S
H1922 C1910 0.960 . S
H1923 C1910 0.962 . S
H1924 C1910 0.960 . S
H1925 C1911 0.961 . S
H1926 C1911 0.961 . S
H1927 C1911 0.961 . S
H1928 C1912 0.931 . S
H1929 C1917 0.930 . S
H1930 C1918 0.956 . S
H1931 C1918 0.961 . S
H1932 C1918 0.961 . S
H1933 C1919 0.958 . S
H1934 C1919 0.961 . S
H1935 C1919 0.960 . S
C1936 C1937 1.391 . S
C1936 C1938 1.394 . S
C1936 H1952 0.931 . S
C1937 C1936 1.391 . S
C1937 C1941 1.376 . S
C1938 C1936 1.394 . S
C1938 C1939 1.369 . S
C1938 C1942 1.531 . S
C1939 C1938 1.369 . S
C1939 C1940 1.410 . S
C1939 C1947 1.503 . S
C1940 C1939 1.410 . S
C1940 C1941 1.392 . S
C1940 C1943 1.511 . S
C1941 C1937 1.376 . S
C1941 C1940 1.392 . S
C1941 H1953 0.929 . S
C1942 C1938 1.531 . S
C1942 H1954 0.960 . S
C1942 H1955 0.962 . S
C1942 H1956 0.960 . S
C1943 C1940 1.511 . S
C1943 H1957 0.961 . S
C1943 H1958 0.961 . S
C1943 H1959 0.961 . S
C1944 C1945 1.370 . S
C1944 C1946 1.363 . S
C1944 H1960 0.931 . S
C1945 C1944 1.370 . S
C1945 C1949 1.408 1_554 S
C1946 C1944 1.363 . S
C1946 C1947 1.370 1_554 S
C1946 C1950 1.524 . S
C1947 C1939 1.503 . S
C1947 C1946 1.370 1_556 S
C1947 C1948 1.403 . S
C1948 C1947 1.403 . S
C1948 C1949 1.404 . S
C1948 C1951 1.539 . S
C1949 C1945 1.408 1_556 S
C1949 C1948 1.404 . S
C1949 H1961 0.930 . S
C1950 C1946 1.524 . S
C1950 H1962 0.982 . S
C1950 H1963 0.961 . S
C1950 H1964 0.961 . S
C1951 C1948 1.539 . S
C1951 H1965 0.958 . S
C1951 H1966 0.961 . S
C1951 H1967 0.960 . S
H1952 C1936 0.931 . S
H1953 C1941 0.929 . S
H1954 C1942 0.960 . S
H1955 C1942 0.962 . S
H1956 C1942 0.960 . S
H1957 C1943 0.961 . S
H1958 C1943 0.961 . S
H1959 C1943 0.961 . S
H1960 C1944 0.931 . S
H1961 C1949 0.930 . S
H1962 C1950 0.982 . S
H1963 C1950 0.961 . S
H1964 C1950 0.961 . S
H1965 C1951 0.958 . S
H1966 C1951 0.961 . S
H1967 C1951 0.960 . S
C1968 C1969 1.391 . S
C1968 C1970 1.394 1_455 S
C1968 H1984 0.931 . S
C1969 C1968 1.391 . S
C1969 C1973 1.376 . S
C1970 C1968 1.394 1_655 S
C1970 C1971 1.369 . S
C1970 C1974 1.531 . S
C1971 C1970 1.369 . S
C1971 C1972 1.410 . S
C1971 C1979 1.503 . S
C1972 C1971 1.410 . S
C1972 C1973 1.392 1_655 S
C1972 C1975 1.511 . S
C1973 C1969 1.376 . S
C1973 C1972 1.392 1_455 S
C1973 H1985 0.929 . S
C1974 C1970 1.531 . S
C1974 H1986 0.960 . S
C1974 H1987 0.962 . S
C1974 H1988 0.960 . S
C1975 C1972 1.511 . S
C1975 H1989 0.961 . S
C1975 H1990 0.961 . S
C1975 H1991 0.956 1_655 S
C1976 C1977 1.370 . S
C1976 C1978 1.363 . S
C1976 H1992 0.931 . S
C1977 C1976 1.370 . S
C1977 C1981 1.408 . S
C1978 C1976 1.363 . S
C1978 C1979 1.370 . S
C1978 C1982 1.524 . S
C1979 C1971 1.503 . S
C1979 C1978 1.370 . S
C1979 C1980 1.403 . S
C1980 C1979 1.403 . S
C1980 C1981 1.404 . S
C1980 C1983 1.539 . S
C1981 C1977 1.408 . S
C1981 C1980 1.404 . S
C1981 H1993 0.930 . S
C1982 C1978 1.524 . S
C1982 H1994 0.956 . S
C1982 H1995 0.961 . S
C1982 H1996 0.961 . S
C1983 C1980 1.539 . S
C1983 H1997 0.958 . S
C1983 H1998 0.961 . S
C1983 H1999 0.960 1_655 S
H1984 C1968 0.931 . S
H1985 C1973 0.929 . S
H1986 C1974 0.960 . S
H1987 C1974 0.962 . S
H1988 C1974 0.960 . S
H1989 C1975 0.961 . S
H1990 C1975 0.961 . S
H1991 C1975 0.956 1_455 S
H1992 C1976 0.931 . S
H1993 C1981 0.930 . S
H1994 C1982 0.956 . S
H1995 C1982 0.961 . S
H1996 C1982 0.961 . S
H1997 C1983 0.958 . S
H1998 C1983 0.961 . S
H1999 C1983 0.960 1_455 S
C2000 C2001 1.391 . S
C2000 C2002 1.394 . S
C2000 H2016 0.931 . S
C2001 C2000 1.391 . S
C2001 C2005 1.376 . S
C2002 C2000 1.394 . S
C2002 C2003 1.369 . S
C2002 C2006 1.531 . S
C2003 C2002 1.369 . S
C2003 C2004 1.410 . S
C2003 C2011 1.503 . S
C2004 C2003 1.410 . S
C2004 C2005 1.392 . S
C2004 C2007 1.511 . S
C2005 C2001 1.376 . S
C2005 C2004 1.392 . S
C2005 H2017 0.929 . S
C2006 C2002 1.531 . S
C2006 H2018 0.960 1_545 S
C2006 H2019 0.962 . S
C2006 H2020 0.960 1_545 S
C2007 C2004 1.511 . S
C2007 H2021 0.961 . S
C2007 H2022 0.961 . S
C2007 H2023 0.961 . S
C2008 C2009 1.370 . S
C2008 C2010 1.363 . S
C2008 H2024 0.931 . S
C2009 C2008 1.370 . S
C2009 C2013 1.408 1_545 S
C2010 C2008 1.363 . S
C2010 C2011 1.370 . S
C2010 C2014 1.524 . S
C2011 C2003 1.503 . S
C2011 C2010 1.370 . S
C2011 C2012 1.438 . S
C2012 C2011 1.438 . S
C2012 C2013 1.397 1_545 S
C2012 C2015 1.511 1_545 S
C2013 C2009 1.408 1_565 S
C2013 C2012 1.397 1_565 S
C2013 H2025 0.930 . S
C2014 C2010 1.524 . S
C2014 H2026 0.956 . S
C2014 H2027 0.961 . S
C2014 H2028 0.961 . S
C2015 C2012 1.511 1_565 S
C2015 H2029 0.958 . S
C2015 H2030 0.961 . S
C2015 H2031 0.960 . S
H2016 C2000 0.931 . S
H2017 C2005 0.929 . S
H2018 C2006 0.960 1_565 S
H2019 C2006 0.962 . S
H2020 C2006 0.960 1_565 S
H2021 C2007 0.961 . S
H2022 C2007 0.961 . S
H2023 C2007 0.961 . S
H2024 C2008 0.931 . S
H2025 C2013 0.930 . S
H2026 C2014 0.956 . S
H2027 C2014 0.961 . S
H2028 C2014 0.961 . S
H2029 C2015 0.958 . S
H2030 C2015 0.961 . S
H2031 C2015 0.960 . S
C2032 C2033 1.391 . S
C2032 C2034 1.394 . S
C2032 H2048 0.931 . S
C2033 C2032 1.391 . S
C2033 C2037 1.376 . S
C2034 C2032 1.394 . S
C2034 C2035 1.369 . S
C2034 C2038 1.531 . S
C2035 C2034 1.369 . S
C2035 C2036 1.410 . S
C2035 C2043 1.503 . S
C2036 C2035 1.410 . S
C2036 C2037 1.392 . S
C2036 C2039 1.511 . S
C2037 C2033 1.376 . S
C2037 C2036 1.392 . S
C2037 H2049 0.929 . S
C2038 C2034 1.531 . S
C2038 H2050 0.960 . S
C2038 H2051 0.962 . S
C2038 H2052 0.960 . S
C2039 C2036 1.511 . S
C2039 H2053 0.961 . S
C2039 H2054 0.961 . S
C2039 H2055 0.961 . S
C2040 C2041 1.370 . S
C2040 C2042 1.363 . S
C2040 H2056 0.931 . S
C2041 C2040 1.370 . S
C2041 C2045 1.408 . S
C2042 C2040 1.363 . S
C2042 C2043 1.370 . S
C2042 C2046 1.524 . S
C2043 C2035 1.503 . S
C2043 C2042 1.370 . S
C2043 C2044 1.403 . S
C2044 C2043 1.403 . S
C2044 C2045 1.404 . S
C2044 C2047 1.539 . S
C2045 C2041 1.408 . S
C2045 C2044 1.404 . S
C2045 H2057 0.930 . S
C2046 C2042 1.524 . S
C2046 H2058 0.956 . S
C2046 H2059 0.961 . S
C2046 H2060 0.961 . S
C2047 C2044 1.539 . S
C2047 H2061 0.958 . S
C2047 H2062 0.961 . S
C2047 H2063 0.960 . S
H2048 C2032 0.931 . S
H2049 C2037 0.929 . S
H2050 C2038 0.960 . S
H2051 C2038 0.962 . S
H2052 C2038 0.960 . S
H2053 C2039 0.961 . S
H2054 C2039 0.961 . S
H2055 C2039 0.961 . S
H2056 C2040 0.931 . S
H2057 C2045 0.930 . S
H2058 C2046 0.956 . S
H2059 C2046 0.961 . S
H2060 C2046 0.961 . S
H2061 C2047 0.958 . S
H2062 C2047 0.961 . S
H2063 C2047 0.960 . S
C2064 C2065 1.391 . S
C2064 C2066 1.394 . S
C2064 H2080 0.931 . S
C2065 C2064 1.391 . S
C2065 C2069 1.376 . S
C2066 C2064 1.394 . S
C2066 C2067 1.369 . S
C2066 C2070 1.531 . S
C2067 C2066 1.369 . S
C2067 C2068 1.410 . S
C2067 C2075 1.503 . S
C2068 C2067 1.410 . S
C2068 C2069 1.392 . S
C2068 C2071 1.511 . S
C2069 C2065 1.376 . S
C2069 C2068 1.392 . S
C2069 H2081 0.929 . S
C2070 C2066 1.531 . S
C2070 H2082 0.960 . S
C2070 H2083 0.962 1_545 S
C2070 H2084 0.960 . S
C2071 C2068 1.511 . S
C2071 H2085 0.961 . S
C2071 H2086 0.961 . S
C2071 H2087 0.961 . S
C2072 C2073 1.370 . S
C2072 C2074 1.363 . S
C2072 H2088 0.931 1_545 S
C2073 C2072 1.370 . S
C2073 C2077 1.408 . S
C2074 C2072 1.363 . S
C2074 C2075 1.370 . S
C2074 C2078 1.524 1_545 S
C2075 C2067 1.503 . S
C2075 C2074 1.370 . S
C2075 C2076 1.403 . S
C2076 C2075 1.403 . S
C2076 C2077 1.404 . S
C2076 C2079 1.539 . S
C2077 C2073 1.408 . S
C2077 C2076 1.404 . S
C2077 H2089 0.930 . S
C2078 C2074 1.524 1_565 S
C2078 H2090 0.956 . S
C2078 H2091 0.961 1_565 S
C2078 H2092 0.961 . S
C2079 C2076 1.539 . S
C2079 H2093 0.958 . S
C2079 H2094 0.961 . S
C2079 H2095 0.960 . S
H2080 C2064 0.931 . S
H2081 C2069 0.929 . S
H2082 C2070 0.960 . S
H2083 C2070 0.962 1_565 S
H2084 C2070 0.960 . S
H2085 C2071 0.961 . S
H2086 C2071 0.961 . S
H2087 C2071 0.961 . S
H2088 C2072 0.931 1_565 S
H2089 C2077 0.930 . S
H2090 C2078 0.956 . S
H2091 C2078 0.961 1_545 S
H2092 C2078 0.961 . S
H2093 C2079 0.958 . S
H2094 C2079 0.961 . S
H2095 C2079 0.960 . S
C2096 C2097 1.391 . S
C2096 C2098 1.394 . S
C2096 H2112 0.931 . S
C2097 C2096 1.391 . S
C2097 C2101 1.376 . S
C2098 C2096 1.394 . S
C2098 C2099 1.369 . S
C2098 C2102 1.531 . S
C2099 C2098 1.369 . S
C2099 C2100 1.410 . S
C2099 C2107 1.503 . S
C2100 C2099 1.410 . S
C2100 C2101 1.392 . S
C2100 C2103 1.511 . S
C2101 C2097 1.376 . S
C2101 C2100 1.392 . S
C2101 H2113 0.929 . S
C2102 C2098 1.531 . S
C2102 H2114 0.960 . S
C2102 H2115 0.962 . S
C2102 H2116 0.960 . S
C2103 C2100 1.511 . S
C2103 H2117 0.961 . S
C2103 H2118 0.961 . S
C2103 H2119 0.961 . S
C2104 C2105 1.370 . S
C2104 C2106 1.363 . S
C2104 H2120 0.931 . S
C2105 C2104 1.370 . S
C2105 C2109 1.408 . S
C2106 C2104 1.363 . S
C2106 C2107 1.370 . S
C2106 C2110 1.524 . S
C2107 C2099 1.503 . S
C2107 C2106 1.370 . S
C2107 C2108 1.403 . S
C2108 C2107 1.403 . S
C2108 C2109 1.404 . S
C2108 C2111 1.539 . S
C2109 C2105 1.408 . S
C2109 C2108 1.404 . S
C2109 H2121 0.930 . S
C2110 C2106 1.524 . S
C2110 H2122 0.956 . S
C2110 H2123 0.961 . S
C2110 H2124 0.961 . S
C2111 C2108 1.539 . S
C2111 H2125 0.958 . S
C2111 H2126 0.961 . S
C2111 H2127 0.960 . S
H2112 C2096 0.931 . S
H2113 C2101 0.929 . S
H2114 C2102 0.960 . S
H2115 C2102 0.962 . S
H2116 C2102 0.960 . S
H2117 C2103 0.961 . S
H2118 C2103 0.961 . S
H2119 C2103 0.961 . S
H2120 C2104 0.931 . S
H2121 C2109 0.930 . S
H2122 C2110 0.956 . S
H2123 C2110 0.961 . S
H2124 C2110 0.961 . S
H2125 C2111 0.958 . S
H2126 C2111 0.961 . S
H2127 C2111 0.960 . S
C2128 C2129 1.391 . S
C2128 C2130 1.394 . S
C2128 H2144 0.931 . S
C2129 C2128 1.391 . S
C2129 C2133 1.376 . S
C2130 C2128 1.394 . S
C2130 C2131 1.369 . S
C2130 C2134 1.531 1_545 S
C2131 C2130 1.369 . S
C2131 C2132 1.410 . S
C2131 C2139 1.503 . S
C2132 C2131 1.410 . S
C2132 C2133 1.392 . S
C2132 C2135 1.511 . S
C2133 C2129 1.376 . S
C2133 C2132 1.392 . S
C2133 H2145 0.929 . S
C2134 C2130 1.531 1_565 S
C2134 H2146 0.960 . S
C2134 H2147 0.962 . S
C2134 H2148 0.960 . S
C2135 C2132 1.511 . S
C2135 H2149 0.961 . S
C2135 H2150 0.961 . S
C2135 H2151 0.961 . S
C2136 C2137 1.370 . S
C2136 C2138 1.363 . S
C2136 H2152 0.931 . S
C2137 C2136 1.370 . S
C2137 C2141 1.408 . S
C2138 C2136 1.363 . S
C2138 C2139 1.370 . S
C2138 C2142 1.524 . S
C2139 C2131 1.503 . S
C2139 C2138 1.370 . S
C2139 C2140 1.403 . S
C2140 C2139 1.403 . S
C2140 C2141 1.404 . S
C2140 C2143 1.539 1_545 S
C2141 C2137 1.408 . S
C2141 C2140 1.404 . S
C2141 H2153 0.918 1_545 S
C2142 C2138 1.524 . S
C2142 H2154 0.956 . S
C2142 H2155 0.961 . S
C2142 H2156 0.961 . S
C2143 C2140 1.539 1_565 S
C2143 H2157 0.958 . S
C2143 H2158 0.961 . S
C2143 H2159 0.960 1_565 S
H2144 C2128 0.931 . S
H2145 C2133 0.929 . S
H2146 C2134 0.960 . S
H2147 C2134 0.962 . S
H2148 C2134 0.960 . S
H2149 C2135 0.961 . S
H2150 C2135 0.961 . S
H2151 C2135 0.961 . S
H2152 C2136 0.931 . S
H2153 C2141 0.918 1_565 S
H2154 C2142 0.956 . S
H2155 C2142 0.961 . S
H2156 C2142 0.961 . S
H2157 C2143 0.958 . S
H2158 C2143 0.961 . S
H2159 C2143 0.960 1_545 S
C2160 C2161 1.391 . S
C2160 C2162 1.394 . S
C2160 H2176 0.931 . S
C2161 C2160 1.391 . S
C2161 C2165 1.376 . S
C2162 C2160 1.394 . S
C2162 C2163 1.369 . S
C2162 C2166 1.531 . S
C2163 C2162 1.369 . S
C2163 C2164 1.410 . S
C2163 C2171 1.503 . S
C2164 C2163 1.410 . S
C2164 C2165 1.392 . S
C2164 C2167 1.511 . S
C2165 C2161 1.376 . S
C2165 C2164 1.392 . S
C2165 H2177 0.929 . S
C2166 C2162 1.531 . S
C2166 H2178 0.960 . S
C2166 H2179 0.962 . S
C2166 H2180 0.960 . S
C2167 C2164 1.511 . S
C2167 H2181 0.961 . S
C2167 H2182 0.961 . S
C2167 H2183 0.961 . S
C2168 C2169 1.370 . S
C2168 C2170 1.363 . S
C2168 H2184 0.931 . S
C2169 C2168 1.370 . S
C2169 C2173 1.408 . S
C2170 C2168 1.363 . S
C2170 C2171 1.370 . S
C2170 C2174 1.524 . S
C2171 C2163 1.503 . S
C2171 C2170 1.370 . S
C2171 C2172 1.403 . S
C2172 C2171 1.403 . S
C2172 C2173 1.404 . S
C2172 C2175 1.539 . S
C2173 C2169 1.408 . S
C2173 C2172 1.404 . S
C2173 H2185 0.930 . S
C2174 C2170 1.524 . S
C2174 H2186 0.956 . S
C2174 H2187 0.961 . S
C2174 H2188 0.961 . S
C2175 C2172 1.539 . S
C2175 H2189 0.958 . S
C2175 H2190 0.961 . S
C2175 H2191 0.960 . S
H2176 C2160 0.931 . S
H2177 C2165 0.929 . S
H2178 C2166 0.960 . S
H2179 C2166 0.962 . S
H2180 C2166 0.960 . S
H2181 C2167 0.961 . S
H2182 C2167 0.961 . S
H2183 C2167 0.961 . S
H2184 C2168 0.931 . S
H2185 C2173 0.930 . S
H2186 C2174 0.956 . S
H2187 C2174 0.961 . S
H2188 C2174 0.961 . S
H2189 C2175 0.958 . S
H2190 C2175 0.961 . S
H2191 C2175 0.960 . S
C2192 C2193 1.391 . S
C2192 C2194 1.394 . S
C2192 H2208 0.931 . S
C2193 C2192 1.391 . S
C2193 C2197 1.396 . S
C2194 C2192 1.394 . S
C2194 C2195 1.369 . S
C2194 C2198 1.531 . S
C2195 C2194 1.369 . S
C2195 C2196 1.376 1_545 S
C2195 C2203 1.503 . S
C2196 C2195 1.376 1_565 S
C2196 C2197 1.390 1_565 S
C2196 C2199 1.547 . S
C2197 C2193 1.396 . S
C2197 C2196 1.390 1_545 S
C2197 H2209 0.910 1_545 S
C2198 C2194 1.531 . S
C2198 H2210 0.960 . S
C2198 H2211 0.962 . S
C2198 H2212 0.960 . S
C2199 C2196 1.547 . S
C2199 H2213 0.961 . S
C2199 H2214 0.961 . S
C2199 H2215 0.961 . S
C2200 C2201 1.370 1_565 S
C2200 C2202 1.363 . S
C2200 H2216 0.931 . S
C2201 C2200 1.370 1_545 S
C2201 C2205 1.408 . S
C2202 C2200 1.363 . S
C2202 C2203 1.370 1_565 S
C2202 C2206 1.524 . S
C2203 C2195 1.503 . S
C2203 C2202 1.370 1_545 S
C2203 C2204 1.403 . S
C2204 C2203 1.403 . S
C2204 C2205 1.404 . S
C2204 C2207 1.539 . S
C2205 C2201 1.408 . S
C2205 C2204 1.404 . S
C2205 H2217 0.930 . S
C2206 C2202 1.524 . S
C2206 H2218 0.956 . S
C2206 H2219 0.961 . S
C2206 H2220 0.961 . S
C2207 C2204 1.539 . S
C2207 H2221 0.958 . S
C2207 H2222 0.961 . S
C2207 H2223 0.960 . S
H2208 C2192 0.931 . S
H2209 C2197 0.910 1_565 S
H2210 C2198 0.960 . S
H2211 C2198 0.962 . S
H2212 C2198 0.960 . S
H2213 C2199 0.961 . S
H2214 C2199 0.961 . S
H2215 C2199 0.961 . S
H2216 C2200 0.931 . S
H2217 C2205 0.930 . S
H2218 C2206 0.956 . S
H2219 C2206 0.961 . S
H2220 C2206 0.961 . S
H2221 C2207 0.958 . S
H2222 C2207 0.961 . S
H2223 C2207 0.960 . S
C2224 C2225 1.391 . S
C2224 C2226 1.394 . S
C2224 H2240 0.931 . S
C2225 C2224 1.391 . S
C2225 C2229 1.376 . S
C2226 C2224 1.394 . S
C2226 C2227 1.369 . S
C2226 C2230 1.531 . S
C2227 C2226 1.369 . S
C2227 C2228 1.410 . S
C2227 C2235 1.503 . S
C2228 C2227 1.410 . S
C2228 C2229 1.392 . S
C2228 C2231 1.511 . S
C2229 C2225 1.376 . S
C2229 C2228 1.392 . S
C2229 H2241 0.929 . S
C2230 C2226 1.531 . S
C2230 H2242 0.960 . S
C2230 H2243 0.962 . S
C2230 H2244 0.960 . S
C2231 C2228 1.511 . S
C2231 H2245 0.961 . S
C2231 H2246 0.961 . S
C2231 H2247 0.961 . S
C2232 C2233 1.370 . S
C2232 C2234 1.363 . S
C2232 H2248 0.931 . S
C2233 C2232 1.370 . S
C2233 C2237 1.408 . S
C2234 C2232 1.363 . S
C2234 C2235 1.370 . S
C2234 C2238 1.524 . S
C2235 C2227 1.503 . S
C2235 C2234 1.370 . S
C2235 C2236 1.403 . S
C2236 C2235 1.403 . S
C2236 C2237 1.404 . S
C2236 C2239 1.539 . S
C2237 C2233 1.408 . S
C2237 C2236 1.404 . S
C2237 H2249 0.930 . S
C2238 C2234 1.524 . S
C2238 H2250 0.956 . S
C2238 H2251 0.961 . S
C2238 H2252 0.961 . S
C2239 C2236 1.539 . S
C2239 H2253 0.958 . S
C2239 H2254 0.961 . S
C2239 H2255 0.960 . S
H2240 C2224 0.931 . S
H2241 C2229 0.929 . S
H2242 C2230 0.960 . S
H2243 C2230 0.962 . S
H2244 C2230 0.960 . S
H2245 C2231 0.961 . S
H2246 C2231 0.961 . S
H2247 C2231 0.961 . S
H2248 C2232 0.931 . S
H2249 C2237 0.930 . S
H2250 C2238 0.956 . S
H2251 C2238 0.961 . S
H2252 C2238 0.961 . S
H2253 C2239 0.958 . S
H2254 C2239 0.961 . S
H2255 C2239 0.960 . S
C2256 C2257 1.391 . S
C2256 C2258 1.394 . S
C2256 H2272 0.931 . S
C2257 C2256 1.391 . S
C2257 C2261 1.376 . S
C2258 C2256 1.394 . S
C2258 C2259 1.369 . S
C2258 C2262 1.531 . S
C2259 C2258 1.369 . S
C2259 C2260 1.410 . S
C2259 C2267 1.503 . S
C2260 C2259 1.410 . S
C2260 C2261 1.392 . S
C2260 C2263 1.511 . S
C2261 C2257 1.376 . S
C2261 C2260 1.392 . S
C2261 H2273 0.929 . S
C2262 C2258 1.531 . S
C2262 H2274 0.960 . S
C2262 H2275 0.962 . S
C2262 H2276 0.960 . S
C2263 C2260 1.511 . S
C2263 H2277 0.961 . S
C2263 H2278 0.961 . S
C2263 H2279 0.961 . S
C2264 C2265 1.370 . S
C2264 C2266 1.363 . S
C2264 H2280 0.931 1_554 S
C2265 C2264 1.370 . S
C2265 C2269 1.408 . S
C2266 C2264 1.363 . S
C2266 C2267 1.370 . S
C2266 C2270 1.524 . S
C2267 C2259 1.503 . S
C2267 C2266 1.370 . S
C2267 C2268 1.403 . S
C2268 C2267 1.403 . S
C2268 C2269 1.404 . S
C2268 C2271 1.539 . S
C2269 C2265 1.408 . S
C2269 C2268 1.404 . S
C2269 H2281 0.930 . S
C2270 C2266 1.524 . S
C2270 H2282 0.956 . S
C2270 H2283 0.961 . S
C2270 H2284 0.961 1_554 S
C2271 C2268 1.539 . S
C2271 H2285 0.958 . S
C2271 H2286 0.961 . S
C2271 H2287 0.960 . S
H2272 C2256 0.931 . S
H2273 C2261 0.929 . S
H2274 C2262 0.960 . S
H2275 C2262 0.962 . S
H2276 C2262 0.960 . S
H2277 C2263 0.961 . S
H2278 C2263 0.961 . S
H2279 C2263 0.961 . S
H2280 C2264 0.931 1_556 S
H2281 C2269 0.930 . S
H2282 C2270 0.956 . S
H2283 C2270 0.961 . S
H2284 C2270 0.961 1_556 S
H2285 C2271 0.958 . S
H2286 C2271 0.961 . S
H2287 C2271 0.960 . S
C2288 C2289 1.391 . S
C2288 C2290 1.394 . S
C2288 H2304 0.931 . S
C2289 C2288 1.391 . S
C2289 C2293 1.376 . S
C2290 C2288 1.394 . S
C2290 C2291 1.369 . S
C2290 C2294 1.531 . S
C2291 C2290 1.369 . S
C2291 C2292 1.410 . S
C2291 C2299 1.503 . S
C2292 C2291 1.410 . S
C2292 C2293 1.392 . S
C2292 C2295 1.511 . S
C2293 C2289 1.376 . S
C2293 C2292 1.392 . S
C2293 H2305 0.929 . S
C2294 C2290 1.531 . S
C2294 H2306 0.960 . S
C2294 H2307 0.962 . S
C2294 H2308 0.960 . S
C2295 C2292 1.511 . S
C2295 H2309 0.961 . S
C2295 H2310 0.961 . S
C2295 H2311 0.961 . S
C2296 C2297 1.370 . S
C2296 C2298 1.363 . S
C2296 H2312 0.931 . S
C2297 C2296 1.370 . S
C2297 C2301 1.408 . S
C2298 C2296 1.363 . S
C2298 C2299 1.370 . S
C2298 C2302 1.524 . S
C2299 C2291 1.503 . S
C2299 C2298 1.370 . S
C2299 C2300 1.403 . S
C2300 C2299 1.403 . S
C2300 C2301 1.404 . S
C2300 C2303 1.539 1_554 S
C2301 C2297 1.408 . S
C2301 C2300 1.404 . S
C2301 H2313 0.930 . S
C2302 C2298 1.524 . S
C2302 H2314 0.956 . S
C2302 H2315 0.961 . S
C2302 H2316 0.961 . S
C2303 C2300 1.539 1_556 S
C2303 H2317 0.958 . S
C2303 H2318 0.961 . S
C2303 H2319 0.949 1_556 S
H2304 C2288 0.931 . S
H2305 C2293 0.929 . S
H2306 C2294 0.960 . S
H2307 C2294 0.962 . S
H2308 C2294 0.960 . S
H2309 C2295 0.961 . S
H2310 C2295 0.961 . S
H2311 C2295 0.961 . S
H2312 C2296 0.931 . S
H2313 C2301 0.930 . S
H2314 C2302 0.956 . S
H2315 C2302 0.961 . S
H2316 C2302 0.961 . S
H2317 C2303 0.958 . S
H2318 C2303 0.961 . S
H2319 C2303 0.949 1_554 S
C2320 C2321 1.391 . S
C2320 C2322 1.394 . S
C2320 H2336 0.931 . S
C2321 C2320 1.391 . S
C2321 C2325 1.376 . S
C2322 C2320 1.394 . S
C2322 C2323 1.369 . S
C2322 C2326 1.531 . S
C2323 C2322 1.369 . S
C2323 C2324 1.410 . S
C2323 C2331 1.503 . S
C2324 C2323 1.410 . S
C2324 C2325 1.392 . S
C2324 C2327 1.511 . S
C2325 C2321 1.376 . S
C2325 C2324 1.392 . S
C2325 H2337 0.929 . S
C2326 C2322 1.531 . S
C2326 H2338 0.960 . S
C2326 H2339 0.962 . S
C2326 H2340 0.960 . S
C2327 C2324 1.511 . S
C2327 H2341 0.961 . S
C2327 H2342 0.961 . S
C2327 H2343 0.961 . S
C2328 C2329 1.370 . S
C2328 C2330 1.363 . S
C2328 H2344 0.931 . S
C2329 C2328 1.370 . S
C2329 C2333 1.408 . S
C2330 C2328 1.363 . S
C2330 C2331 1.370 . S
C2330 C2334 1.524 . S
C2331 C2323 1.503 . S
C2331 C2330 1.370 . S
C2331 C2332 1.403 . S
C2332 C2331 1.403 . S
C2332 C2333 1.404 . S
C2332 C2335 1.539 . S
C2333 C2329 1.408 . S
C2333 C2332 1.404 . S
C2333 H2345 0.930 . S
C2334 C2330 1.524 . S
C2334 H2346 0.956 . S
C2334 H2347 0.961 . S
C2334 H2348 0.961 . S
C2335 C2332 1.539 . S
C2335 H2349 0.958 . S
C2335 H2350 0.961 . S
C2335 H2351 0.960 . S
H2336 C2320 0.931 . S
H2337 C2325 0.929 . S
H2338 C2326 0.960 . S
H2339 C2326 0.962 . S
H2340 C2326 0.960 . S
H2341 C2327 0.961 . S
H2342 C2327 0.961 . S
H2343 C2327 0.961 . S
H2344 C2328 0.931 . S
H2345 C2333 0.930 . S
H2346 C2334 0.956 . S
H2347 C2334 0.961 . S
H2348 C2334 0.961 . S
H2349 C2335 0.958 . S
H2350 C2335 0.961 . S
H2351 C2335 0.960 . S
C2352 C2353 1.391 . S
C2352 C2354 1.394 . S
C2352 H2368 0.931 . S
C2353 C2352 1.391 . S
C2353 C2357 1.376 . S
C2354 C2352 1.394 . S
C2354 C2355 1.369 . S
C2354 C2358 1.531 . S
C2355 C2354 1.369 . S
C2355 C2356 1.410 . S
C2355 C2363 1.503 . S
C2356 C2355 1.410 . S
C2356 C2357 1.392 . S
C2356 C2359 1.511 . S
C2357 C2353 1.376 . S
C2357 C2356 1.392 . S
C2357 H2369 0.929 . S
C2358 C2354 1.531 . S
C2358 H2370 0.960 . S
C2358 H2371 0.962 . S
C2358 H2372 0.960 . S
C2359 C2356 1.511 . S
C2359 H2373 0.961 . S
C2359 H2374 0.961 . S
C2359 H2375 0.961 . S
C2360 C2361 1.370 . S
C2360 C2362 1.363 . S
C2360 H2376 0.931 . S
C2361 C2360 1.370 . S
C2361 C2365 1.408 . S
C2362 C2360 1.363 . S
C2362 C2363 1.370 . S
C2362 C2366 1.524 . S
C2363 C2355 1.503 . S
C2363 C2362 1.370 . S
C2363 C2364 1.403 . S
C2364 C2363 1.403 . S
C2364 C2365 1.404 . S
C2364 C2367 1.539 . S
C2365 C2361 1.408 . S
C2365 C2364 1.404 . S
C2365 H2377 0.930 . S
C2366 C2362 1.524 . S
C2366 H2378 0.956 . S
C2366 H2379 0.961 . S
C2366 H2380 0.961 . S
C2367 C2364 1.539 . S
C2367 H2381 0.958 . S
C2367 H2382 0.961 . S
C2367 H2383 0.960 . S
H2368 C2352 0.931 . S
H2369 C2357 0.929 . S
H2370 C2358 0.960 . S
H2371 C2358 0.962 . S
H2372 C2358 0.960 . S
H2373 C2359 0.961 . S
H2374 C2359 0.961 . S
H2375 C2359 0.961 . S
H2376 C2360 0.931 . S
H2377 C2365 0.930 . S
H2378 C2366 0.956 . S
H2379 C2366 0.961 . S
H2380 C2366 0.961 . S
H2381 C2367 0.958 . S
H2382 C2367 0.961 . S
H2383 C2367 0.960 . S
C2384 C2385 1.391 . S
C2384 C2386 1.394 . S
C2384 H2400 0.931 . S
C2385 C2384 1.391 . S
C2385 C2389 1.376 . S
C2386 C2384 1.394 . S
C2386 C2387 1.369 . S
C2386 C2390 1.531 . S
C2387 C2386 1.369 . S
C2387 C2388 1.410 . S
C2387 C2395 1.503 . S
C2388 C2387 1.410 . S
C2388 C2389 1.392 . S
C2388 C2391 1.511 . S
C2389 C2385 1.376 . S
C2389 C2388 1.392 . S
C2389 H2401 0.929 . S
C2390 C2386 1.531 . S
C2390 H2402 0.960 . S
C2390 H2403 0.962 . S
C2390 H2404 0.960 . S
C2391 C2388 1.511 . S
C2391 H2405 0.961 . S
C2391 H2406 0.961 . S
C2391 H2407 0.961 . S
C2392 C2393 1.370 . S
C2392 C2394 1.363 . S
C2392 H2408 0.931 . S
C2393 C2392 1.370 . S
C2393 C2397 1.408 . S
C2394 C2392 1.363 . S
C2394 C2395 1.370 . S
C2394 C2398 1.524 . S
C2395 C2387 1.503 . S
C2395 C2394 1.370 . S
C2395 C2396 1.403 . S
C2396 C2395 1.403 . S
C2396 C2397 1.404 . S
C2396 C2399 1.539 . S
C2397 C2393 1.408 . S
C2397 C2396 1.404 . S
C2397 H2409 0.930 . S
C2398 C2394 1.524 . S
C2398 H2410 0.956 . S
C2398 H2411 0.961 . S
C2398 H2412 0.961 . S
C2399 C2396 1.539 . S
C2399 H2413 0.958 . S
C2399 H2414 0.961 . S
C2399 H2415 0.960 . S
H2400 C2384 0.931 . S
H2401 C2389 0.929 . S
H2402 C2390 0.960 . S
H2403 C2390 0.962 . S
H2404 C2390 0.960 . S
H2405 C2391 0.961 . S
H2406 C2391 0.961 . S
H2407 C2391 0.961 . S
H2408 C2392 0.931 . S
H2409 C2397 0.930 . S
H2410 C2398 0.956 . S
H2411 C2398 0.961 . S
H2412 C2398 0.961 . S
H2413 C2399 0.958 . S
H2414 C2399 0.961 . S
H2415 C2399 0.960 . S
C2416 C2417 1.391 . S
C2416 C2418 1.394 . S
C2416 H2432 0.931 . S
C2417 C2416 1.391 . S
C2417 C2421 1.376 . S
C2418 C2416 1.394 . S
C2418 C2419 1.369 . S
C2418 C2422 1.531 . S
C2419 C2418 1.369 . S
C2419 C2420 1.410 . S
C2419 C2427 1.503 . S
C2420 C2419 1.410 . S
C2420 C2421 1.392 . S
C2420 C2423 1.511 . S
C2421 C2417 1.376 . S
C2421 C2420 1.392 . S
C2421 H2433 0.929 . S
C2422 C2418 1.531 . S
C2422 H2434 0.960 . S
C2422 H2435 0.962 . S
C2422 H2436 0.960 . S
C2423 C2420 1.511 . S
C2423 H2437 0.961 . S
C2423 H2438 0.961 . S
C2423 H2439 0.961 . S
C2424 C2425 1.370 . S
C2424 C2426 1.363 . S
C2424 H2440 0.931 . S
C2425 C2424 1.370 . S
C2425 C2429 1.408 . S
C2426 C2424 1.363 . S
C2426 C2427 1.370 . S
C2426 C2430 1.524 . S
C2427 C2419 1.503 . S
C2427 C2426 1.370 . S
C2427 C2428 1.403 . S
C2428 C2427 1.403 . S
C2428 C2429 1.404 . S
C2428 C2431 1.539 . S
C2429 C2425 1.408 . S
C2429 C2428 1.404 . S
C2429 H2441 0.930 . S
C2430 C2426 1.524 . S
C2430 H2442 0.956 . S
C2430 H2443 0.961 . S
C2430 H2444 0.961 . S
C2431 C2428 1.539 . S
C2431 H2445 0.958 . S
C2431 H2446 0.961 . S
C2431 H2447 0.960 . S
H2432 C2416 0.931 . S
H2433 C2421 0.929 . S
H2434 C2422 0.960 . S
H2435 C2422 0.962 . S
H2436 C2422 0.960 . S
H2437 C2423 0.961 . S
H2438 C2423 0.961 . S
H2439 C2423 0.961 . S
H2440 C2424 0.931 . S
H2441 C2429 0.930 . S
H2442 C2430 0.956 . S
H2443 C2430 0.961 . S
H2444 C2430 0.961 . S
H2445 C2431 0.958 . S
H2446 C2431 0.961 . S
H2447 C2431 0.960 . S
C2448 C2449 1.391 . S
C2448 C2450 1.394 . S
C2448 H2464 0.931 . S
C2449 C2448 1.391 . S
C2449 C2453 1.376 . S
C2450 C2448 1.394 . S
C2450 C2451 1.369 . S
C2450 C2454 1.531 . S
C2451 C2450 1.369 . S
C2451 C2452 1.410 . S
C2451 C2459 1.503 . S
C2452 C2451 1.410 . S
C2452 C2453 1.392 . S
C2452 C2455 1.511 . S
C2453 C2449 1.376 . S
C2453 C2452 1.392 . S
C2453 H2465 0.929 . S
C2454 C2450 1.531 . S
C2454 H2466 0.960 . S
C2454 H2467 0.962 . S
C2454 H2468 0.960 . S
C2455 C2452 1.511 . S
C2455 H2469 0.961 . S
C2455 H2470 0.961 . S
C2455 H2471 0.961 . S
C2456 C2457 1.370 . S
C2456 C2458 1.363 . S
C2456 H2472 0.931 . S
C2457 C2456 1.370 . S
C2457 C2461 1.408 . S
C2458 C2456 1.363 . S
C2458 C2459 1.370 . S
C2458 C2462 1.524 . S
C2459 C2451 1.503 . S
C2459 C2458 1.370 . S
C2459 C2460 1.403 . S
C2460 C2459 1.403 . S
C2460 C2461 1.404 . S
C2460 C2463 1.539 . S
C2461 C2457 1.408 . S
C2461 C2460 1.404 . S
C2461 H2473 0.930 . S
C2462 C2458 1.524 . S
C2462 H2474 0.956 . S
C2462 H2475 0.961 . S
C2462 H2476 0.961 . S
C2463 C2460 1.539 . S
C2463 H2477 0.958 . S
C2463 H2478 0.961 . S
C2463 H2479 0.960 . S
H2464 C2448 0.931 . S
H2465 C2453 0.929 . S
H2466 C2454 0.960 . S
H2467 C2454 0.962 . S
H2468 C2454 0.960 . S
H2469 C2455 0.961 . S
H2470 C2455 0.961 . S
H2471 C2455 0.961 . S
H2472 C2456 0.931 . S
H2473 C2461 0.930 . S
H2474 C2462 0.956 . S
H2475 C2462 0.961 . S
H2476 C2462 0.961 . S
H2477 C2463 0.958 . S
H2478 C2463 0.961 . S
H2479 C2463 0.960 . S
C2480 C2481 1.391 . S
C2480 C2482 1.394 . S
C2480 H2496 0.931 . S
C2481 C2480 1.391 . S
C2481 C2485 1.376 . S
C2482 C2480 1.394 . S
C2482 C2483 1.369 . S
C2482 C2486 1.531 . S
C2483 C2482 1.369 . S
C2483 C2484 1.410 . S
C2483 C2491 1.503 . S
C2484 C2483 1.410 . S
C2484 C2485 1.392 . S
C2484 C2487 1.511 . S
C2485 C2481 1.376 . S
C2485 C2484 1.392 . S
C2485 H2497 0.929 . S
C2486 C2482 1.531 . S
C2486 H2498 0.960 . S
C2486 H2499 0.962 . S
C2486 H2500 0.960 . S
C2487 C2484 1.511 . S
C2487 H2501 0.961 . S
C2487 H2502 0.961 . S
C2487 H2503 0.961 . S
C2488 C2489 1.370 . S
C2488 C2490 1.363 . S
C2488 H2504 0.931 . S
C2489 C2488 1.370 . S
C2489 C2493 1.408 . S
C2490 C2488 1.363 . S
C2490 C2491 1.370 . S
C2490 C2494 1.524 . S
C2491 C2483 1.503 . S
C2491 C2490 1.370 . S
C2491 C2492 1.403 . S
C2492 C2491 1.403 . S
C2492 C2493 1.404 . S
C2492 C2495 1.539 . S
C2493 C2489 1.408 . S
C2493 C2492 1.404 . S
C2493 H2505 0.930 . S
C2494 C2490 1.524 . S
C2494 H2506 0.956 . S
C2494 H2507 0.961 . S
C2494 H2508 0.961 . S
C2495 C2492 1.539 . S
C2495 H2509 0.958 . S
C2495 H2510 0.961 . S
C2495 H2511 0.960 . S
H2496 C2480 0.931 . S
H2497 C2485 0.929 . S
H2498 C2486 0.960 . S
H2499 C2486 0.962 . S
H2500 C2486 0.960 . S
H2501 C2487 0.961 . S
H2502 C2487 0.961 . S
H2503 C2487 0.961 . S
H2504 C2488 0.931 . S
H2505 C2493 0.930 . S
H2506 C2494 0.956 . S
H2507 C2494 0.961 . S
H2508 C2494 0.961 . S
H2509 C2495 0.958 . S
H2510 C2495 0.961 . S
H2511 C2495 0.960 . S
C2512 C2513 1.391 . S
C2512 C2514 1.394 . S
C2512 H2528 0.931 . S
C2513 C2512 1.391 . S
C2513 C2517 1.376 . S
C2514 C2512 1.394 . S
C2514 C2515 1.369 . S
C2514 C2518 1.531 . S
C2515 C2514 1.369 . S
C2515 C2516 1.410 . S
C2515 C2523 1.503 . S
C2516 C2515 1.410 . S
C2516 C2517 1.392 . S
C2516 C2519 1.511 . S
C2517 C2513 1.376 . S
C2517 C2516 1.392 . S
C2517 H2529 0.929 . S
C2518 C2514 1.531 . S
C2518 H2530 0.960 . S
C2518 H2531 0.962 . S
C2518 H2532 0.960 . S
C2519 C2516 1.511 . S
C2519 H2533 0.961 . S
C2519 H2534 0.961 . S
C2519 H2535 0.961 . S
C2520 C2521 1.370 . S
C2520 C2522 1.363 . S
C2520 H2536 0.931 . S
C2521 C2520 1.370 . S
C2521 C2525 1.408 . S
C2522 C2520 1.363 . S
C2522 C2523 1.370 . S
C2522 C2526 1.524 . S
C2523 C2515 1.503 . S
C2523 C2522 1.370 . S
C2523 C2524 1.403 . S
C2524 C2523 1.403 . S
C2524 C2525 1.404 . S
C2524 C2527 1.539 . S
C2525 C2521 1.408 . S
C2525 C2524 1.404 . S
C2525 H2537 0.930 . S
C2526 C2522 1.524 . S
C2526 H2538 0.956 . S
C2526 H2539 0.961 . S
C2526 H2540 0.961 . S
C2527 C2524 1.539 . S
C2527 H2541 0.958 . S
C2527 H2542 0.961 . S
C2527 H2543 0.960 . S
H2528 C2512 0.931 . S
H2529 C2517 0.929 . S
H2530 C2518 0.960 . S
H2531 C2518 0.962 . S
H2532 C2518 0.960 . S
H2533 C2519 0.961 . S
H2534 C2519 0.961 . S
H2535 C2519 0.961 . S
H2536 C2520 0.931 . S
H2537 C2525 0.930 . S
H2538 C2526 0.956 . S
H2539 C2526 0.961 . S
H2540 C2526 0.961 . S
H2541 C2527 0.958 . S
H2542 C2527 0.961 . S
H2543 C2527 0.960 . S
C2544 C2545 1.391 . S
C2544 C2546 1.394 . S
C2544 H2560 0.931 . S
C2545 C2544 1.391 . S
C2545 C2549 1.376 . S
C2546 C2544 1.394 . S
C2546 C2547 1.369 . S
C2546 C2550 1.531 . S
C2547 C2546 1.369 . S
C2547 C2548 1.410 . S
C2547 C2555 1.503 . S
C2548 C2547 1.410 . S
C2548 C2549 1.392 . S
C2548 C2551 1.511 . S
C2549 C2545 1.376 . S
C2549 C2548 1.392 . S
C2549 H2561 0.929 . S
C2550 C2546 1.531 . S
C2550 H2562 0.960 . S
C2550 H2563 0.962 . S
C2550 H2564 0.960 . S
C2551 C2548 1.511 . S
C2551 H2565 0.961 . S
C2551 H2566 0.961 . S
C2551 H2567 0.961 . S
C2552 C2553 1.370 . S
C2552 C2554 1.363 . S
C2552 H2568 0.931 . S
C2553 C2552 1.370 . S
C2553 C2557 1.408 . S
C2554 C2552 1.363 . S
C2554 C2555 1.370 . S
C2554 C2558 1.524 . S
C2555 C2547 1.503 . S
C2555 C2554 1.370 . S
C2555 C2556 1.403 . S
C2556 C2555 1.403 . S
C2556 C2557 1.404 . S
C2556 C2559 1.539 . S
C2557 C2553 1.408 . S
C2557 C2556 1.404 . S
C2557 H2569 0.930 . S
C2558 C2554 1.524 . S
C2558 H2570 0.956 . S
C2558 H2571 0.961 . S
C2558 H2572 0.961 . S
C2559 C2556 1.539 . S
C2559 H2573 0.958 . S
C2559 H2574 0.961 . S
C2559 H2575 0.960 . S
H2560 C2544 0.931 . S
H2561 C2549 0.929 . S
H2562 C2550 0.960 . S
H2563 C2550 0.962 . S
H2564 C2550 0.960 . S
H2565 C2551 0.961 . S
H2566 C2551 0.961 . S
H2567 C2551 0.961 . S
H2568 C2552 0.931 . S
H2569 C2557 0.930 . S
H2570 C2558 0.956 . S
H2571 C2558 0.961 . S
H2572 C2558 0.961 . S
H2573 C2559 0.958 . S
H2574 C2559 0.961 . S
H2575 C2559 0.960 . S
C2576 C2577 1.391 1_554 S
C2576 C2578 1.394 . S
C2576 H2592 0.931 . S
C2577 C2576 1.391 1_556 S
C2577 C2581 1.376 . S
C2578 C2576 1.394 . S
C2578 C2579 1.383 . S
C2578 C2582 1.531 . S
C2579 C2578 1.383 . S
C2579 C2580 1.393 1_554 S
C2579 C2587 1.505 . S
C2580 C2579 1.393 1_556 S
C2580 C2581 1.392 . S
C2580 C2583 1.511 . S
C2581 C2577 1.376 . S
C2581 C2580 1.392 . S
C2581 H2593 0.929 . S
C2582 C2578 1.531 . S
C2582 H2594 0.960 . S
C2582 H2595 0.962 1_455 S
C2582 H2596 0.960 . S
C2583 C2580 1.511 . S
C2583 H2597 0.961 . S
C2583 H2598 0.961 . S
C2583 H2599 0.961 . S
C2584 C2585 1.370 . S
C2584 C2586 1.363 1_554 S
C2584 H2600 0.931 1_454 S
C2585 C2584 1.370 . S
C2585 C2589 1.408 . S
C2586 C2584 1.363 1_556 S
C2586 C2587 1.370 1_556 S
C2586 C2590 1.524 1_455 S
C2587 C2579 1.505 . S
C2587 C2586 1.370 1_554 S
C2587 C2588 1.403 . S
C2588 C2587 1.403 . S
C2588 C2589 1.404 . S
C2588 C2591 1.539 . S
C2589 C2585 1.408 . S
C2589 C2588 1.404 . S
C2589 H2601 0.930 . S
C2590 C2586 1.524 1_655 S
C2590 H2602 0.956 . S
C2590 H2603 0.961 . S
C2590 H2604 0.961 . S
C2591 C2588 1.539 . S
C2591 H2605 0.958 . S
C2591 H2606 0.961 . S
C2591 H2607 0.960 . S
H2592 C2576 0.931 . S
H2593 C2581 0.929 . S
H2594 C2582 0.960 . S
H2595 C2582 0.962 1_655 S
H2596 C2582 0.960 . S
H2597 C2583 0.961 . S
H2598 C2583 0.961 . S
H2599 C2583 0.961 . S
H2600 C2584 0.931 1_656 S
H2601 C2589 0.930 . S
H2602 C2590 0.956 . S
H2603 C2590 0.961 . S
H2604 C2590 0.961 . S
H2605 C2591 0.958 . S
H2606 C2591 0.961 . S
H2607 C2591 0.960 . S
C2608 C2609 1.359 1_655 S
C2608 C2610 1.394 . S
C2608 H2624 0.931 . S
C2609 C2608 1.359 1_455 S
C2609 C2613 1.370 1_455 S
C2610 C2608 1.394 . S
C2610 C2611 1.369 . S
C2610 C2614 1.531 . S
C2611 C2610 1.369 . S
C2611 C2612 1.410 . S
C2611 C2619 1.503 . S
C2612 C2611 1.410 . S
C2612 C2613 1.392 . S
C2612 C2615 1.511 . S
C2613 C2609 1.370 1_655 S
C2613 C2612 1.392 . S
C2613 H2625 0.929 1_655 S
C2614 C2610 1.531 . S
C2614 H2626 0.960 . S
C2614 H2627 0.962 . S
C2614 H2628 0.960 . S
C2615 C2612 1.511 . S
C2615 H2629 0.961 . S
C2615 H2630 0.961 . S
C2615 H2631 0.961 . S
C2616 C2617 1.370 . S
C2616 C2618 1.363 . S
C2616 H2632 0.931 . S
C2617 C2616 1.370 . S
C2617 C2621 1.408 . S
C2618 C2616 1.363 . S
C2618 C2619 1.370 . S
C2618 C2622 1.524 . S
C2619 C2611 1.503 . S
C2619 C2618 1.370 . S
C2619 C2620 1.403 . S
C2620 C2619 1.403 . S
C2620 C2621 1.404 . S
C2620 C2623 1.539 . S
C2621 C2617 1.408 . S
C2621 C2620 1.404 . S
C2621 H2633 0.930 . S
C2622 C2618 1.524 . S
C2622 H2634 0.956 . S
C2622 H2635 0.961 . S
C2622 H2636 0.961 . S
C2623 C2620 1.539 . S
C2623 H2637 0.958 . S
C2623 H2638 0.961 . S
C2623 H2639 0.960 . S
H2624 C2608 0.931 . S
H2625 C2613 0.929 1_455 S
H2626 C2614 0.960 . S
H2627 C2614 0.962 . S
H2628 C2614 0.960 . S
H2629 C2615 0.961 . S
H2630 C2615 0.961 . S
H2631 C2615 0.961 . S
H2632 C2616 0.931 . S
H2633 C2621 0.930 . S
H2634 C2622 0.956 . S
H2635 C2622 0.961 . S
H2636 C2622 0.961 . S
H2637 C2623 0.958 . S
H2638 C2623 0.961 . S
H2639 C2623 0.960 . S
C2640 C2641 1.391 . S
C2640 C2642 1.394 . S
C2640 H2656 0.931 . S
C2641 C2640 1.391 . S
C2641 C2645 1.376 . S
C2642 C2640 1.394 . S
C2642 C2643 1.369 . S
C2642 C2646 1.531 . S
C2643 C2642 1.369 . S
C2643 C2644 1.410 . S
C2643 C2651 1.503 . S
C2644 C2643 1.410 . S
C2644 C2645 1.392 . S
C2644 C2647 1.511 . S
C2645 C2641 1.376 . S
C2645 C2644 1.392 . S
C2645 H2657 0.929 . S
C2646 C2642 1.531 . S
C2646 H2658 0.960 . S
C2646 H2659 0.962 . S
C2646 H2660 0.960 . S
C2647 C2644 1.511 . S
C2647 H2661 0.961 . S
C2647 H2662 0.961 . S
C2647 H2663 0.961 . S
C2648 C2649 1.370 . S
C2648 C2650 1.363 . S
C2648 H2664 0.931 . S
C2649 C2648 1.370 . S
C2649 C2653 1.408 . S
C2650 C2648 1.363 . S
C2650 C2651 1.370 . S
C2650 C2654 1.524 . S
C2651 C2643 1.503 . S
C2651 C2650 1.370 . S
C2651 C2652 1.403 . S
C2652 C2651 1.403 . S
C2652 C2653 1.404 . S
C2652 C2655 1.539 . S
C2653 C2649 1.408 . S
C2653 C2652 1.404 . S
C2653 H2665 0.930 . S
C2654 C2650 1.524 . S
C2654 H2666 0.956 . S
C2654 H2667 0.961 . S
C2654 H2668 0.961 . S
C2655 C2652 1.539 . S
C2655 H2669 0.958 . S
C2655 H2670 0.961 . S
C2655 H2671 0.960 . S
H2656 C2640 0.931 . S
H2657 C2645 0.929 . S
H2658 C2646 0.960 . S
H2659 C2646 0.962 . S
H2660 C2646 0.960 . S
H2661 C2647 0.961 . S
H2662 C2647 0.961 . S
H2663 C2647 0.961 . S
H2664 C2648 0.931 . S
H2665 C2653 0.930 . S
H2666 C2654 0.956 . S
H2667 C2654 0.961 . S
H2668 C2654 0.961 . S
H2669 C2655 0.958 . S
H2670 C2655 0.961 . S
H2671 C2655 0.960 . S
C2672 C2673 1.391 . S
C2672 C2674 1.394 . S
C2672 H2688 0.931 . S
C2673 C2672 1.391 . S
C2673 C2677 1.376 . S
C2674 C2672 1.394 . S
C2674 C2675 1.369 . S
C2674 C2678 1.531 . S
C2675 C2674 1.369 . S
C2675 C2676 1.410 . S
C2675 C2683 1.503 . S
C2676 C2675 1.410 . S
C2676 C2677 1.392 . S
C2676 C2679 1.511 . S
C2677 C2673 1.376 . S
C2677 C2676 1.392 . S
C2677 H2689 0.929 . S
C2678 C2674 1.531 . S
C2678 H2690 0.960 . S
C2678 H2691 0.962 . S
C2678 H2692 0.960 . S
C2679 C2676 1.511 . S
C2679 H2693 0.961 . S
C2679 H2694 0.961 . S
C2679 H2695 0.961 . S
C2680 C2681 1.370 . S
C2680 C2682 1.363 . S
C2680 H2696 0.931 . S
C2681 C2680 1.370 . S
C2681 C2685 1.408 . S
C2682 C2680 1.363 . S
C2682 C2683 1.370 . S
C2682 C2686 1.524 . S
C2683 C2675 1.503 . S
C2683 C2682 1.370 . S
C2683 C2684 1.403 . S
C2684 C2683 1.403 . S
C2684 C2685 1.404 . S
C2684 C2687 1.539 . S
C2685 C2681 1.408 . S
C2685 C2684 1.404 . S
C2685 H2697 0.930 . S
C2686 C2682 1.524 . S
C2686 H2698 0.956 . S
C2686 H2699 0.961 . S
C2686 H2700 0.961 . S
C2687 C2684 1.539 . S
C2687 H2701 0.958 . S
C2687 H2702 0.961 . S
C2687 H2703 0.960 . S
H2688 C2672 0.931 . S
H2689 C2677 0.929 . S
H2690 C2678 0.960 . S
H2691 C2678 0.962 . S
H2692 C2678 0.960 . S
H2693 C2679 0.961 . S
H2694 C2679 0.961 . S
H2695 C2679 0.961 . S
H2696 C2680 0.931 . S
H2697 C2685 0.930 . S
H2698 C2686 0.956 . S
H2699 C2686 0.961 . S
H2700 C2686 0.961 . S
H2701 C2687 0.958 . S
H2702 C2687 0.961 . S
H2703 C2687 0.960 . S
C2704 C2705 1.391 . S
C2704 C2706 1.394 . S
C2704 H2720 0.931 . S
C2705 C2704 1.391 . S
C2705 C2709 1.376 . S
C2706 C2704 1.394 . S
C2706 C2707 1.369 . S
C2706 C2710 1.531 . S
C2707 C2706 1.369 . S
C2707 C2708 1.410 . S
C2707 C2715 1.503 . S
C2708 C2707 1.410 . S
C2708 C2709 1.392 . S
C2708 C2711 1.511 . S
C2709 C2705 1.376 . S
C2709 C2708 1.392 . S
C2709 H2721 0.929 . S
C2710 C2706 1.531 . S
C2710 H2722 0.960 . S
C2710 H2723 0.962 . S
C2710 H2724 0.960 . S
C2711 C2708 1.511 . S
C2711 H2725 0.961 . S
C2711 H2726 0.961 . S
C2711 H2727 0.961 . S
C2712 C2713 1.370 . S
C2712 C2714 1.363 . S
C2712 H2728 0.931 . S
C2713 C2712 1.370 . S
C2713 C2717 1.408 . S
C2714 C2712 1.363 . S
C2714 C2715 1.370 . S
C2714 C2718 1.524 . S
C2715 C2707 1.503 . S
C2715 C2714 1.370 . S
C2715 C2716 1.403 . S
C2716 C2715 1.403 . S
C2716 C2717 1.404 . S
C2716 C2719 1.539 . S
C2717 C2713 1.408 . S
C2717 C2716 1.404 . S
C2717 H2729 0.930 . S
C2718 C2714 1.524 . S
C2718 H2730 0.956 . S
C2718 H2731 0.961 . S
C2718 H2732 0.961 . S
C2719 C2716 1.539 . S
C2719 H2733 0.958 . S
C2719 H2734 0.961 . S
C2719 H2735 0.960 . S
H2720 C2704 0.931 . S
H2721 C2709 0.929 . S
H2722 C2710 0.960 . S
H2723 C2710 0.962 . S
H2724 C2710 0.960 . S
H2725 C2711 0.961 . S
H2726 C2711 0.961 . S
H2727 C2711 0.961 . S
H2728 C2712 0.931 . S
H2729 C2717 0.930 . S
H2730 C2718 0.956 . S
H2731 C2718 0.961 . S
H2732 C2718 0.961 . S
H2733 C2719 0.958 . S
H2734 C2719 0.961 . S
H2735 C2719 0.960 . S
C2736 C2737 1.391 . S
C2736 C2738 1.394 . S
C2736 H2752 0.931 . S
C2737 C2736 1.391 . S
C2737 C2741 1.376 . S
C2738 C2736 1.394 . S
C2738 C2739 1.369 . S
C2738 C2742 1.531 . S
C2739 C2738 1.369 . S
C2739 C2740 1.410 . S
C2739 C2747 1.503 . S
C2740 C2739 1.410 . S
C2740 C2741 1.392 . S
C2740 C2743 1.511 . S
C2741 C2737 1.376 . S
C2741 C2740 1.392 . S
C2741 H2753 0.929 . S
C2742 C2738 1.531 . S
C2742 H2754 0.960 . S
C2742 H2755 0.962 . S
C2742 H2756 0.960 . S
C2743 C2740 1.511 . S
C2743 H2757 0.961 . S
C2743 H2758 0.961 . S
C2743 H2759 0.961 . S
C2744 C2745 1.370 . S
C2744 C2746 1.363 . S
C2744 H2760 0.931 . S
C2745 C2744 1.370 . S
C2745 C2749 1.408 . S
C2746 C2744 1.363 . S
C2746 C2747 1.370 . S
C2746 C2750 1.524 . S
C2747 C2739 1.503 . S
C2747 C2746 1.370 . S
C2747 C2748 1.403 . S
C2748 C2747 1.403 . S
C2748 C2749 1.404 . S
C2748 C2751 1.539 . S
C2749 C2745 1.408 . S
C2749 C2748 1.404 . S
C2749 H2761 0.930 . S
C2750 C2746 1.524 . S
C2750 H2762 0.956 . S
C2750 H2763 0.961 . S
C2750 H2764 0.961 . S
C2751 C2748 1.539 . S
C2751 H2765 0.958 . S
C2751 H2766 0.961 . S
C2751 H2767 0.960 . S
H2752 C2736 0.931 . S
H2753 C2741 0.929 . S
H2754 C2742 0.960 . S
H2755 C2742 0.962 . S
H2756 C2742 0.960 . S
H2757 C2743 0.961 . S
H2758 C2743 0.961 . S
H2759 C2743 0.961 . S
H2760 C2744 0.931 . S
H2761 C2749 0.930 . S
H2762 C2750 0.956 . S
H2763 C2750 0.961 . S
H2764 C2750 0.961 . S
H2765 C2751 0.958 . S
H2766 C2751 0.961 . S
H2767 C2751 0.960 . S
C2768 C2769 1.391 . S
C2768 C2770 1.394 . S
C2768 H2784 0.931 . S
C2769 C2768 1.391 . S
C2769 C2773 1.376 . S
C2770 C2768 1.394 . S
C2770 C2771 1.369 . S
C2770 C2774 1.531 . S
C2771 C2770 1.369 . S
C2771 C2772 1.410 . S
C2771 C2779 1.503 . S
C2772 C2771 1.410 . S
C2772 C2773 1.392 . S
C2772 C2775 1.511 . S
C2773 C2769 1.376 . S
C2773 C2772 1.392 . S
C2773 H2785 0.929 . S
C2774 C2770 1.531 . S
C2774 H2786 0.960 . S
C2774 H2787 0.962 . S
C2774 H2788 0.960 . S
C2775 C2772 1.511 . S
C2775 H2789 0.961 . S
C2775 H2790 0.961 . S
C2775 H2791 0.961 . S
C2776 C2777 1.370 . S
C2776 C2778 1.363 . S
C2776 H2792 0.931 . S
C2777 C2776 1.370 . S
C2777 C2781 1.408 . S
C2778 C2776 1.363 . S
C2778 C2779 1.370 . S
C2778 C2782 1.524 . S
C2779 C2771 1.503 . S
C2779 C2778 1.370 . S
C2779 C2780 1.403 . S
C2780 C2779 1.403 . S
C2780 C2781 1.404 . S
C2780 C2783 1.539 . S
C2781 C2777 1.408 . S
C2781 C2780 1.404 . S
C2781 H2793 0.930 . S
C2782 C2778 1.524 . S
C2782 H2794 0.956 . S
C2782 H2795 0.961 . S
C2782 H2796 0.961 . S
C2783 C2780 1.539 . S
C2783 H2797 0.958 . S
C2783 H2798 0.961 . S
C2783 H2799 0.960 . S
H2784 C2768 0.931 . S
H2785 C2773 0.929 . S
H2786 C2774 0.960 . S
H2787 C2774 0.962 . S
H2788 C2774 0.960 . S
H2789 C2775 0.961 . S
H2790 C2775 0.961 . S
H2791 C2775 0.961 . S
H2792 C2776 0.931 . S
H2793 C2781 0.930 . S
H2794 C2782 0.956 . S
H2795 C2782 0.961 . S
H2796 C2782 0.961 . S
H2797 C2783 0.958 . S
H2798 C2783 0.961 . S
H2799 C2783 0.960 . S
C2800 C2801 1.391 . S
C2800 C2802 1.394 . S
C2800 H2816 0.931 . S
C2801 C2800 1.391 . S
C2801 C2805 1.376 . S
C2802 C2800 1.394 . S
C2802 C2803 1.369 . S
C2802 C2806 1.531 1_554 S
C2803 C2802 1.369 . S
C2803 C2804 1.410 . S
C2803 C2811 1.503 1_554 S
C2804 C2803 1.410 . S
C2804 C2805 1.392 . S
C2804 C2807 1.511 . S
C2805 C2801 1.376 . S
C2805 C2804 1.392 . S
C2805 H2817 0.929 . S
C2806 C2802 1.531 1_556 S
C2806 H2818 0.960 . S
C2806 H2819 0.962 . S
C2806 H2820 0.961 . S
C2807 C2804 1.511 . S
C2807 H2821 0.961 . S
C2807 H2822 0.961 . S
C2807 H2823 0.961 . S
C2808 C2809 1.370 . S
C2808 C2810 1.363 . S
C2808 H2824 0.931 . S
C2809 C2808 1.370 . S
C2809 C2813 1.408 . S
C2810 C2808 1.363 . S
C2810 C2811 1.370 . S
C2810 C2814 1.524 1_556 S
C2811 C2803 1.503 1_556 S
C2811 C2810 1.370 . S
C2811 C2812 1.403 . S
C2812 C2811 1.403 . S
C2812 C2813 1.404 . S
C2812 C2815 1.539 . S
C2813 C2809 1.408 . S
C2813 C2812 1.404 . S
C2813 H2825 0.930 . S
C2814 C2810 1.524 1_554 S
C2814 H2826 0.956 . S
C2814 H2827 0.961 . S
C2814 H2828 0.961 1_554 S
C2815 C2812 1.539 . S
C2815 H2829 0.958 . S
C2815 H2830 0.961 . S
C2815 H2831 0.960 . S
H2816 C2800 0.931 . S
H2817 C2805 0.929 . S
H2818 C2806 0.960 . S
H2819 C2806 0.962 . S
H2820 C2806 0.961 . S
H2821 C2807 0.961 . S
H2822 C2807 0.961 . S
H2823 C2807 0.961 . S
H2824 C2808 0.931 . S
H2825 C2813 0.930 . S
H2826 C2814 0.956 . S
H2827 C2814 0.961 . S
H2828 C2814 0.961 1_556 S
H2829 C2815 0.958 . S
H2830 C2815 0.961 . S
H2831 C2815 0.960 . S
C2832 C2833 1.391 . S
C2832 C2834 1.394 . S
C2832 H2848 0.931 . S
C2833 C2832 1.391 . S
C2833 C2837 1.376 . S
C2834 C2832 1.394 . S
C2834 C2835 1.369 . S
C2834 C2838 1.531 . S
C2835 C2834 1.369 . S
C2835 C2836 1.410 . S
C2835 C2843 1.503 . S
C2836 C2835 1.410 . S
C2836 C2837 1.392 . S
C2836 C2839 1.511 . S
C2837 C2833 1.376 . S
C2837 C2836 1.392 . S
C2837 H2849 0.929 . S
C2838 C2834 1.531 . S
C2838 H2850 0.960 . S
C2838 H2851 0.962 . S
C2838 H2852 0.960 . S
C2839 C2836 1.511 . S
C2839 H2853 0.961 . S
C2839 H2854 0.961 . S
C2839 H2855 0.961 . S
C2840 C2841 1.370 . S
C2840 C2842 1.363 . S
C2840 H2856 0.931 . S
C2841 C2840 1.370 . S
C2841 C2845 1.408 . S
C2842 C2840 1.363 . S
C2842 C2843 1.370 . S
C2842 C2846 1.524 . S
C2843 C2835 1.503 . S
C2843 C2842 1.370 . S
C2843 C2844 1.403 . S
C2844 C2843 1.403 . S
C2844 C2845 1.404 . S
C2844 C2847 1.539 . S
C2845 C2841 1.408 . S
C2845 C2844 1.404 . S
C2845 H2857 0.930 . S
C2846 C2842 1.524 . S
C2846 H2858 0.956 . S
C2846 H2859 0.961 . S
C2846 H2860 0.961 . S
C2847 C2844 1.539 . S
C2847 H2861 0.958 . S
C2847 H2862 0.961 . S
C2847 H2863 0.960 . S
H2848 C2832 0.931 . S
H2849 C2837 0.929 . S
H2850 C2838 0.960 . S
H2851 C2838 0.962 . S
H2852 C2838 0.960 . S
H2853 C2839 0.961 . S
H2854 C2839 0.961 . S
H2855 C2839 0.961 . S
H2856 C2840 0.931 . S
H2857 C2845 0.930 . S
H2858 C2846 0.956 . S
H2859 C2846 0.961 . S
H2860 C2846 0.961 . S
H2861 C2847 0.958 . S
H2862 C2847 0.961 . S
H2863 C2847 0.960 . S
C2864 C2865 1.391 . S
C2864 C2866 1.394 . S
C2864 H2880 0.931 . S
C2865 C2864 1.391 . S
C2865 C2869 1.376 . S
C2866 C2864 1.394 . S
C2866 C2867 1.369 . S
C2866 C2870 1.531 . S
C2867 C2866 1.369 . S
C2867 C2868 1.410 . S
C2867 C2875 1.503 . S
C2868 C2867 1.410 . S
C2868 C2869 1.392 . S
C2868 C2871 1.511 . S
C2869 C2865 1.376 . S
C2869 C2868 1.392 . S
C2869 H2881 0.929 . S
C2870 C2866 1.531 . S
C2870 H2882 0.960 . S
C2870 H2883 0.962 . S
C2870 H2884 0.960 . S
C2871 C2868 1.511 . S
C2871 H2885 0.961 . S
C2871 H2886 0.961 . S
C2871 H2887 0.961 . S
C2872 C2873 1.370 . S
C2872 C2874 1.363 . S
C2872 H2888 0.931 . S
C2873 C2872 1.370 . S
C2873 C2877 1.408 . S
C2874 C2872 1.363 . S
C2874 C2875 1.370 . S
C2874 C2878 1.524 . S
C2875 C2867 1.503 . S
C2875 C2874 1.370 . S
C2875 C2876 1.403 . S
C2876 C2875 1.403 . S
C2876 C2877 1.404 . S
C2876 C2879 1.539 . S
C2877 C2873 1.408 . S
C2877 C2876 1.404 . S
C2877 H2889 0.930 . S
C2878 C2874 1.524 . S
C2878 H2890 0.956 . S
C2878 H2891 0.961 . S
C2878 H2892 0.961 . S
C2879 C2876 1.539 . S
C2879 H2893 0.958 . S
C2879 H2894 0.961 . S
C2879 H2895 0.960 . S
H2880 C2864 0.931 . S
H2881 C2869 0.929 . S
H2882 C2870 0.960 . S
H2883 C2870 0.962 . S
H2884 C2870 0.960 . S
H2885 C2871 0.961 . S
H2886 C2871 0.961 . S
H2887 C2871 0.961 . S
H2888 C2872 0.931 . S
H2889 C2877 0.930 . S
H2890 C2878 0.956 . S
H2891 C2878 0.961 . S
H2892 C2878 0.961 . S
H2893 C2879 0.958 . S
H2894 C2879 0.961 . S
H2895 C2879 0.960 . S
C2896 C2897 1.391 . S
C2896 C2898 1.394 . S
C2896 H2912 0.931 . S
C2897 C2896 1.391 . S
C2897 C2901 1.376 . S
C2898 C2896 1.394 . S
C2898 C2899 1.369 . S
C2898 C2902 1.531 . S
C2899 C2898 1.369 . S
C2899 C2900 1.410 . S
C2899 C2907 1.503 . S
C2900 C2899 1.410 . S
C2900 C2901 1.392 . S
C2900 C2903 1.511 . S
C2901 C2897 1.376 . S
C2901 C2900 1.392 . S
C2901 H2913 0.929 . S
C2902 C2898 1.531 . S
C2902 H2914 0.960 . S
C2902 H2915 0.962 . S
C2902 H2916 0.960 . S
C2903 C2900 1.511 . S
C2903 H2917 0.961 . S
C2903 H2918 0.961 . S
C2903 H2919 0.961 . S
C2904 C2905 1.370 . S
C2904 C2906 1.363 . S
C2904 H2920 0.931 . S
C2905 C2904 1.370 . S
C2905 C2909 1.408 . S
C2906 C2904 1.363 . S
C2906 C2907 1.370 . S
C2906 C2910 1.524 . S
C2907 C2899 1.503 . S
C2907 C2906 1.370 . S
C2907 C2908 1.403 . S
C2908 C2907 1.403 . S
C2908 C2909 1.404 . S
C2908 C2911 1.539 . S
C2909 C2905 1.408 . S
C2909 C2908 1.404 . S
C2909 H2921 0.930 . S
C2910 C2906 1.524 . S
C2910 H2922 0.956 . S
C2910 H2923 0.961 . S
C2910 H2924 0.961 . S
C2911 C2908 1.539 . S
C2911 H2925 0.958 . S
C2911 H2926 0.961 . S
C2911 H2927 0.960 . S
H2912 C2896 0.931 . S
H2913 C2901 0.929 . S
H2914 C2902 0.960 . S
H2915 C2902 0.962 . S
H2916 C2902 0.960 . S
H2917 C2903 0.961 . S
H2918 C2903 0.961 . S
H2919 C2903 0.961 . S
H2920 C2904 0.931 . S
H2921 C2909 0.930 . S
H2922 C2910 0.956 . S
H2923 C2910 0.961 . S
H2924 C2910 0.961 . S
H2925 C2911 0.958 . S
H2926 C2911 0.961 . S
H2927 C2911 0.960 . S
C2928 C2929 1.391 . S
C2928 C2930 1.394 . S
C2928 H2944 0.931 . S
C2929 C2928 1.391 . S
C2929 C2933 1.376 . S
C2930 C2928 1.394 . S
C2930 C2931 1.369 . S
C2930 C2934 1.531 . S
C2931 C2930 1.369 . S
C2931 C2932 1.410 . S
C2931 C2939 1.503 . S
C2932 C2931 1.410 . S
C2932 C2933 1.392 . S
C2932 C2935 1.511 . S
C2933 C2929 1.376 . S
C2933 C2932 1.392 . S
C2933 H2945 0.929 . S
C2934 C2930 1.531 . S
C2934 H2946 0.960 . S
C2934 H2947 0.962 . S
C2934 H2948 0.960 . S
C2935 C2932 1.511 . S
C2935 H2949 0.961 . S
C2935 H2950 0.961 . S
C2935 H2951 0.961 . S
C2936 C2937 1.370 . S
C2936 C2938 1.363 . S
C2936 H2952 0.931 . S
C2937 C2936 1.370 . S
C2937 C2941 1.408 . S
C2938 C2936 1.363 . S
C2938 C2939 1.370 . S
C2938 C2942 1.524 . S
C2939 C2931 1.503 . S
C2939 C2938 1.370 . S
C2939 C2940 1.403 . S
C2940 C2939 1.403 . S
C2940 C2941 1.404 . S
C2940 C2943 1.539 . S
C2941 C2937 1.408 . S
C2941 C2940 1.404 . S
C2941 H2953 0.930 . S
C2942 C2938 1.524 . S
C2942 H2954 0.956 . S
C2942 H2955 0.961 . S
C2942 H2956 0.961 . S
C2943 C2940 1.539 . S
C2943 H2957 0.958 . S
C2943 H2958 0.961 . S
C2943 H2959 0.960 . S
H2944 C2928 0.931 . S
H2945 C2933 0.929 . S
H2946 C2934 0.960 . S
H2947 C2934 0.962 . S
H2948 C2934 0.960 . S
H2949 C2935 0.961 . S
H2950 C2935 0.961 . S
H2951 C2935 0.961 . S
H2952 C2936 0.931 . S
H2953 C2941 0.930 . S
H2954 C2942 0.956 . S
H2955 C2942 0.961 . S
H2956 C2942 0.961 . S
H2957 C2943 0.958 . S
H2958 C2943 0.961 . S
H2959 C2943 0.960 . S
C2960 C2961 1.391 . S
C2960 C2962 1.394 . S
C2960 H2976 0.931 . S
C2961 C2960 1.391 . S
C2961 C2965 1.376 . S
C2962 C2960 1.394 . S
C2962 C2963 1.369 . S
C2962 C2966 1.531 . S
C2963 C2962 1.369 . S
C2963 C2964 1.410 . S
C2963 C2971 1.503 . S
C2964 C2963 1.410 . S
C2964 C2965 1.392 . S
C2964 C2967 1.511 . S
C2965 C2961 1.376 . S
C2965 C2964 1.392 . S
C2965 H2977 0.929 . S
C2966 C2962 1.531 . S
C2966 H2978 0.960 . S
C2966 H2979 0.962 . S
C2966 H2980 0.960 . S
C2967 C2964 1.511 . S
C2967 H2981 0.961 . S
C2967 H2982 0.961 . S
C2967 H2983 0.961 . S
C2968 C2969 1.370 . S
C2968 C2970 1.363 . S
C2968 H2984 0.931 . S
C2969 C2968 1.370 . S
C2969 C2973 1.408 . S
C2970 C2968 1.363 . S
C2970 C2971 1.370 . S
C2970 C2974 1.524 . S
C2971 C2963 1.503 . S
C2971 C2970 1.370 . S
C2971 C2972 1.403 . S
C2972 C2971 1.403 . S
C2972 C2973 1.404 . S
C2972 C2975 1.539 . S
C2973 C2969 1.408 . S
C2973 C2972 1.404 . S
C2973 H2985 0.930 . S
C2974 C2970 1.524 . S
C2974 H2986 0.956 . S
C2974 H2987 0.961 . S
C2974 H2988 0.961 . S
C2975 C2972 1.539 . S
C2975 H2989 0.958 . S
C2975 H2990 0.961 . S
C2975 H2991 0.960 . S
H2976 C2960 0.931 . S
H2977 C2965 0.929 . S
H2978 C2966 0.960 . S
H2979 C2966 0.962 . S
H2980 C2966 0.960 . S
H2981 C2967 0.961 . S
H2982 C2967 0.961 . S
H2983 C2967 0.961 . S
H2984 C2968 0.931 . S
H2985 C2973 0.930 . S
H2986 C2974 0.956 . S
H2987 C2974 0.961 . S
H2988 C2974 0.961 . S
H2989 C2975 0.958 . S
H2990 C2975 0.961 . S
H2991 C2975 0.960 . S
C2992 C2993 1.391 . S
C2992 C2994 1.394 . S
C2992 H3008 0.931 . S
C2993 C2992 1.391 . S
C2993 C2997 1.376 . S
C2994 C2992 1.394 . S
C2994 C2995 1.369 . S
C2994 C2998 1.531 . S
C2995 C2994 1.369 . S
C2995 C2996 1.410 . S
C2995 C3003 1.503 . S
C2996 C2995 1.410 . S
C2996 C2997 1.392 . S
C2996 C2999 1.511 . S
C2997 C2993 1.376 . S
C2997 C2996 1.392 . S
C2997 H3009 0.929 . S
C2998 C2994 1.531 . S
C2998 H3010 0.960 . S
C2998 H3011 0.962 . S
C2998 H3012 0.960 . S
C2999 C2996 1.511 . S
C2999 H3013 0.961 . S
C2999 H3014 0.961 . S
C2999 H3015 0.961 . S
C3000 C3001 1.370 . S
C3000 C3002 1.363 . S
C3000 H3016 0.931 . S
C3001 C3000 1.370 . S
C3001 C3005 1.408 . S
C3002 C3000 1.363 . S
C3002 C3003 1.370 . S
C3002 C3006 1.524 . S
C3003 C2995 1.503 . S
C3003 C3002 1.370 . S
C3003 C3004 1.403 . S
C3004 C3003 1.403 . S
C3004 C3005 1.404 . S
C3004 C3007 1.539 . S
C3005 C3001 1.408 . S
C3005 C3004 1.404 . S
C3005 H3017 0.930 . S
C3006 C3002 1.524 . S
C3006 H3018 0.956 . S
C3006 H3019 0.961 . S
C3006 H3020 0.961 . S
C3007 C3004 1.539 . S
C3007 H3021 0.958 . S
C3007 H3022 0.961 . S
C3007 H3023 0.960 . S
H3008 C2992 0.931 . S
H3009 C2997 0.929 . S
H3010 C2998 0.960 . S
H3011 C2998 0.962 . S
H3012 C2998 0.960 . S
H3013 C2999 0.961 . S
H3014 C2999 0.961 . S
H3015 C2999 0.961 . S
H3016 C3000 0.931 . S
H3017 C3005 0.930 . S
H3018 C3006 0.956 . S
H3019 C3006 0.961 . S
H3020 C3006 0.961 . S
H3021 C3007 0.958 . S
H3022 C3007 0.961 . S
H3023 C3007 0.960 . S
C3024 C3025 1.391 . S
C3024 C3026 1.394 . S
C3024 H3040 0.931 . S
C3025 C3024 1.391 . S
C3025 C3029 1.376 . S
C3026 C3024 1.394 . S
C3026 C3027 1.369 . S
C3026 C3030 1.531 . S
C3027 C3026 1.369 . S
C3027 C3028 1.410 . S
C3027 C3035 1.503 . S
C3028 C3027 1.410 . S
C3028 C3029 1.392 . S
C3028 C3031 1.511 . S
C3029 C3025 1.376 . S
C3029 C3028 1.392 . S
C3029 H3041 0.929 . S
C3030 C3026 1.531 . S
C3030 H3042 0.960 . S
C3030 H3043 0.962 . S
C3030 H3044 0.960 . S
C3031 C3028 1.511 . S
C3031 H3045 0.961 . S
C3031 H3046 0.961 . S
C3031 H3047 0.961 . S
C3032 C3033 1.370 . S
C3032 C3034 1.363 . S
C3032 H3048 0.931 . S
C3033 C3032 1.370 . S
C3033 C3037 1.408 . S
C3034 C3032 1.363 . S
C3034 C3035 1.370 . S
C3034 C3038 1.524 . S
C3035 C3027 1.503 . S
C3035 C3034 1.370 . S
C3035 C3036 1.403 . S
C3036 C3035 1.403 . S
C3036 C3037 1.404 . S
C3036 C3039 1.539 . S
C3037 C3033 1.408 . S
C3037 C3036 1.404 . S
C3037 H3049 0.930 . S
C3038 C3034 1.524 . S
C3038 H3050 0.956 . S
C3038 H3051 0.961 . S
C3038 H3052 0.961 . S
C3039 C3036 1.539 . S
C3039 H3053 0.958 . S
C3039 H3054 0.961 . S
C3039 H3055 0.960 . S
H3040 C3024 0.931 . S
H3041 C3029 0.929 . S
H3042 C3030 0.960 . S
H3043 C3030 0.962 . S
H3044 C3030 0.960 . S
H3045 C3031 0.961 . S
H3046 C3031 0.961 . S
H3047 C3031 0.961 . S
H3048 C3032 0.931 . S
H3049 C3037 0.930 . S
H3050 C3038 0.956 . S
H3051 C3038 0.961 . S
H3052 C3038 0.961 . S
H3053 C3039 0.958 . S
H3054 C3039 0.961 . S
H3055 C3039 0.960 . S
C3056 C3057 1.391 . S
C3056 C3058 1.394 . S
C3056 H3072 0.931 . S
C3057 C3056 1.391 . S
C3057 C3061 1.376 . S
C3058 C3056 1.394 . S
C3058 C3059 1.369 . S
C3058 C3062 1.531 . S
C3059 C3058 1.369 . S
C3059 C3060 1.410 . S
C3059 C3067 1.503 . S
C3060 C3059 1.410 . S
C3060 C3061 1.392 . S
C3060 C3063 1.511 . S
C3061 C3057 1.376 . S
C3061 C3060 1.392 . S
C3061 H3073 0.929 . S
C3062 C3058 1.531 . S
C3062 H3074 0.960 . S
C3062 H3075 0.962 . S
C3062 H3076 0.960 . S
C3063 C3060 1.511 . S
C3063 H3077 0.961 . S
C3063 H3078 0.961 . S
C3063 H3079 0.961 . S
C3064 C3065 1.370 . S
C3064 C3066 1.363 . S
C3064 H3080 0.931 . S
C3065 C3064 1.370 . S
C3065 C3069 1.408 . S
C3066 C3064 1.363 . S
C3066 C3067 1.370 . S
C3066 C3070 1.524 . S
C3067 C3059 1.503 . S
C3067 C3066 1.370 . S
C3067 C3068 1.403 . S
C3068 C3067 1.403 . S
C3068 C3069 1.404 . S
C3068 C3071 1.539 . S
C3069 C3065 1.408 . S
C3069 C3068 1.404 . S
C3069 H3081 0.930 . S
C3070 C3066 1.524 . S
C3070 H3082 0.956 . S
C3070 H3083 0.961 . S
C3070 H3084 0.961 . S
C3071 C3068 1.539 . S
C3071 H3085 0.958 . S
C3071 H3086 0.961 . S
C3071 H3087 0.960 . S
H3072 C3056 0.931 . S
H3073 C3061 0.929 . S
H3074 C3062 0.960 . S
H3075 C3062 0.962 . S
H3076 C3062 0.960 . S
H3077 C3063 0.961 . S
H3078 C3063 0.961 . S
H3079 C3063 0.961 . S
H3080 C3064 0.931 . S
H3081 C3069 0.930 . S
H3082 C3070 0.956 . S
H3083 C3070 0.961 . S
H3084 C3070 0.961 . S
H3085 C3071 0.958 . S
H3086 C3071 0.961 . S
H3087 C3071 0.960 . S
C3088 C3089 1.391 . S
C3088 C3090 1.394 . S
C3088 H3104 0.931 . S
C3089 C3088 1.391 . S
C3089 C3093 1.376 . S
C3090 C3088 1.394 . S
C3090 C3091 1.369 . S
C3090 C3094 1.531 . S
C3091 C3090 1.369 . S
C3091 C3092 1.410 . S
C3091 C3099 1.503 . S
C3092 C3091 1.410 . S
C3092 C3093 1.392 . S
C3092 C3095 1.511 . S
C3093 C3089 1.376 . S
C3093 C3092 1.392 . S
C3093 H3105 0.929 1_565 S
C3094 C3090 1.531 . S
C3094 H3106 0.960 . S
C3094 H3107 0.962 . S
C3094 H3108 0.960 . S
C3095 C3092 1.511 . S
C3095 H3109 0.961 . S
C3095 H3110 0.961 . S
C3095 H3111 0.961 . S
C3096 C3097 1.370 . S
C3096 C3098 1.363 . S
C3096 H3112 0.931 . S
C3097 C3096 1.370 . S
C3097 C3101 1.408 . S
C3098 C3096 1.363 . S
C3098 C3099 1.370 . S
C3098 C3102 1.524 . S
C3099 C3091 1.503 . S
C3099 C3098 1.370 . S
C3099 C3100 1.403 . S
C3100 C3099 1.403 . S
C3100 C3101 1.404 . S
C3100 C3103 1.539 . S
C3101 C3097 1.408 . S
C3101 C3100 1.404 . S
C3101 H3113 0.930 . S
C3102 C3098 1.524 . S
C3102 H3114 0.956 . S
C3102 H3115 0.961 . S
C3102 H3116 0.961 . S
C3103 C3100 1.539 . S
C3103 H3117 0.958 . S
C3103 H3118 0.961 . S
C3103 H3119 0.960 . S
H3104 C3088 0.931 . S
H3105 C3093 0.929 1_545 S
H3106 C3094 0.960 . S
H3107 C3094 0.962 . S
H3108 C3094 0.960 . S
H3109 C3095 0.961 . S
H3110 C3095 0.961 . S
H3111 C3095 0.961 . S
H3112 C3096 0.931 . S
H3113 C3101 0.930 . S
H3114 C3102 0.956 . S
H3115 C3102 0.961 . S
H3116 C3102 0.961 . S
H3117 C3103 0.958 . S
H3118 C3103 0.961 . S
H3119 C3103 0.960 . S
C3120 C3121 1.391 . S
C3120 C3122 1.394 . S
C3120 H3136 0.931 . S
C3121 C3120 1.391 . S
C3121 C3125 1.376 1_554 S
C3122 C3120 1.394 . S
C3122 C3123 1.369 . S
C3122 C3126 1.531 . S
C3123 C3122 1.369 . S
C3123 C3124 1.410 . S
C3123 C3131 1.503 . S
C3124 C3123 1.410 . S
C3124 C3125 1.392 1_554 S
C3124 C3127 1.511 1_554 S
C3125 C3121 1.376 1_556 S
C3125 C3124 1.392 1_556 S
C3125 H3137 0.929 . S
C3126 C3122 1.531 . S
C3126 H3138 0.960 . S
C3126 H3139 0.962 . S
C3126 H3140 0.960 . S
C3127 C3124 1.511 1_556 S
C3127 H3141 0.961 . S
C3127 H3142 0.961 . S
C3127 H3143 0.961 . S
C3128 C3129 1.370 . S
C3128 C3130 1.363 . S
C3128 H3144 0.958 . S
C3129 C3128 1.370 . S
C3129 C3133 1.408 . S
C3130 C3128 1.363 . S
C3130 C3131 1.370 . S
C3130 C3134 1.524 1_554 S
C3131 C3123 1.503 . S
C3131 C3130 1.370 . S
C3131 C3132 1.403 . S
C3132 C3131 1.403 . S
C3132 C3133 1.404 . S
C3132 C3135 1.539 . S
C3133 C3129 1.408 . S
C3133 C3132 1.404 . S
C3133 H3145 0.930 . S
C3134 C3130 1.524 1_556 S
C3134 H3146 0.956 . S
C3134 H3147 0.961 . S
C3134 H3148 0.961 . S
C3135 C3132 1.539 . S
C3135 H3149 0.958 . S
C3135 H3150 0.961 . S
C3135 H3151 0.960 . S
H3136 C3120 0.931 . S
H3137 C3125 0.929 . S
H3138 C3126 0.960 . S
H3139 C3126 0.962 . S
H3140 C3126 0.960 . S
H3141 C3127 0.961 . S
H3142 C3127 0.961 . S
H3143 C3127 0.961 . S
H3144 C3128 0.958 . S
H3145 C3133 0.930 . S
H3146 C3134 0.956 . S
H3147 C3134 0.961 . S
H3148 C3134 0.961 . S
H3149 C3135 0.958 . S
H3150 C3135 0.961 . S
H3151 C3135 0.960 . S
C3152 C3153 1.391 . S
C3152 C3154 1.394 . S
C3152 H3168 0.931 . S
C3153 C3152 1.391 . S
C3153 C3157 1.376 . S
C3154 C3152 1.394 . S
C3154 C3155 1.369 . S
C3154 C3158 1.531 . S
C3155 C3154 1.369 . S
C3155 C3156 1.410 . S
C3155 C3163 1.503 . S
C3156 C3155 1.410 . S
C3156 C3157 1.392 . S
C3156 C3159 1.511 . S
C3157 C3153 1.376 . S
C3157 C3156 1.392 . S
C3157 H3169 0.929 . S
C3158 C3154 1.531 . S
C3158 H3170 0.960 . S
C3158 H3171 0.962 . S
C3158 H3172 0.960 . S
C3159 C3156 1.511 . S
C3159 H3173 0.961 . S
C3159 H3174 0.961 . S
C3159 H3175 0.961 . S
C3160 C3161 1.370 . S
C3160 C3162 1.363 . S
C3160 H3176 0.931 . S
C3161 C3160 1.370 . S
C3161 C3165 1.408 . S
C3162 C3160 1.363 . S
C3162 C3163 1.370 . S
C3162 C3166 1.524 . S
C3163 C3155 1.503 . S
C3163 C3162 1.370 . S
C3163 C3164 1.403 . S
C3164 C3163 1.403 . S
C3164 C3165 1.404 . S
C3164 C3167 1.539 . S
C3165 C3161 1.408 . S
C3165 C3164 1.404 . S
C3165 H3177 0.930 . S
C3166 C3162 1.524 . S
C3166 H3178 0.956 . S
C3166 H3179 0.961 . S
C3166 H3180 0.961 . S
C3167 C3164 1.539 . S
C3167 H3181 0.958 . S
C3167 H3182 0.961 . S
C3167 H3183 0.960 . S
H3168 C3152 0.931 . S
H3169 C3157 0.929 . S
H3170 C3158 0.960 . S
H3171 C3158 0.962 . S
H3172 C3158 0.960 . S
H3173 C3159 0.961 . S
H3174 C3159 0.961 . S
H3175 C3159 0.961 . S
H3176 C3160 0.931 . S
H3177 C3165 0.930 . S
H3178 C3166 0.956 . S
H3179 C3166 0.961 . S
H3180 C3166 0.961 . S
H3181 C3167 0.958 . S
H3182 C3167 0.961 . S
H3183 C3167 0.960 . S
C3184 C3185 1.391 . S
C3184 C3186 1.394 . S
C3184 H3200 0.931 . S
C3185 C3184 1.391 . S
C3185 C3189 1.376 . S
C3186 C3184 1.394 . S
C3186 C3187 1.369 . S
C3186 C3190 1.531 . S
C3187 C3186 1.369 . S
C3187 C3188 1.410 . S
C3187 C3195 1.503 . S
C3188 C3187 1.410 . S
C3188 C3189 1.392 . S
C3188 C3191 1.511 . S
C3189 C3185 1.376 . S
C3189 C3188 1.392 . S
C3189 H3201 0.929 . S
C3190 C3186 1.531 . S
C3190 H3202 0.960 . S
C3190 H3203 0.962 . S
C3190 H3204 0.960 . S
C3191 C3188 1.511 . S
C3191 H3205 0.961 . S
C3191 H3206 0.961 . S
C3191 H3207 0.961 . S
C3192 C3193 1.370 . S
C3192 C3194 1.363 . S
C3192 H3208 0.931 . S
C3193 C3192 1.370 . S
C3193 C3197 1.408 . S
C3194 C3192 1.363 . S
C3194 C3195 1.370 . S
C3194 C3198 1.524 . S
C3195 C3187 1.503 . S
C3195 C3194 1.370 . S
C3195 C3196 1.403 . S
C3196 C3195 1.403 . S
C3196 C3197 1.404 . S
C3196 C3199 1.539 . S
C3197 C3193 1.408 . S
C3197 C3196 1.404 . S
C3197 H3209 0.930 . S
C3198 C3194 1.524 . S
C3198 H3210 0.956 . S
C3198 H3211 0.961 . S
C3198 H3212 0.961 . S
C3199 C3196 1.539 . S
C3199 H3213 0.958 . S
C3199 H3214 0.961 . S
C3199 H3215 0.960 . S
H3200 C3184 0.931 . S
H3201 C3189 0.929 . S
H3202 C3190 0.960 . S
H3203 C3190 0.962 . S
H3204 C3190 0.960 . S
H3205 C3191 0.961 . S
H3206 C3191 0.961 . S
H3207 C3191 0.961 . S
H3208 C3192 0.931 . S
H3209 C3197 0.930 . S
H3210 C3198 0.956 . S
H3211 C3198 0.961 . S
H3212 C3198 0.961 . S
H3213 C3199 0.958 . S
H3214 C3199 0.961 . S
H3215 C3199 0.960 . S
C3216 C3217 1.391 . S
C3216 C3218 1.394 . S
C3216 H3232 0.931 . S
C3217 C3216 1.391 . S
C3217 C3221 1.376 . S
C3218 C3216 1.394 . S
C3218 C3219 1.369 . S
C3218 C3222 1.531 . S
C3219 C3218 1.369 . S
C3219 C3220 1.410 . S
C3219 C3227 1.503 . S
C3220 C3219 1.410 . S
C3220 C3221 1.392 . S
C3220 C3223 1.511 . S
C3221 C3217 1.376 . S
C3221 C3220 1.392 . S
C3221 H3233 0.929 . S
C3222 C3218 1.531 . S
C3222 H3234 0.960 . S
C3222 H3235 0.962 . S
C3222 H3236 0.960 . S
C3223 C3220 1.511 . S
C3223 H3237 0.961 . S
C3223 H3238 0.961 . S
C3223 H3239 0.961 . S
C3224 C3225 1.370 . S
C3224 C3226 1.363 . S
C3224 H3240 0.931 . S
C3225 C3224 1.370 . S
C3225 C3229 1.408 . S
C3226 C3224 1.363 . S
C3226 C3227 1.370 . S
C3226 C3230 1.524 . S
C3227 C3219 1.503 . S
C3227 C3226 1.370 . S
C3227 C3228 1.403 . S
C3228 C3227 1.403 . S
C3228 C3229 1.404 . S
C3228 C3231 1.539 . S
C3229 C3225 1.408 . S
C3229 C3228 1.404 . S
C3229 H3241 0.930 . S
C3230 C3226 1.524 . S
C3230 H3242 0.956 . S
C3230 H3243 0.961 . S
C3230 H3244 0.961 . S
C3231 C3228 1.539 . S
C3231 H3245 0.958 . S
C3231 H3246 0.961 . S
C3231 H3247 0.960 . S
H3232 C3216 0.931 . S
H3233 C3221 0.929 . S
H3234 C3222 0.960 . S
H3235 C3222 0.962 . S
H3236 C3222 0.960 . S
H3237 C3223 0.961 . S
H3238 C3223 0.961 . S
H3239 C3223 0.961 . S
H3240 C3224 0.931 . S
H3241 C3229 0.930 . S
H3242 C3230 0.956 . S
H3243 C3230 0.961 . S
H3244 C3230 0.961 . S
H3245 C3231 0.958 . S
H3246 C3231 0.961 . S
H3247 C3231 0.960 . S
C3248 C3249 1.391 . S
C3248 C3250 1.394 . S
C3248 H3264 0.931 . S
C3249 C3248 1.391 . S
C3249 C3253 1.376 . S
C3250 C3248 1.394 . S
C3250 C3251 1.369 . S
C3250 C3254 1.531 . S
C3251 C3250 1.369 . S
C3251 C3252 1.410 . S
C3251 C3259 1.503 . S
C3252 C3251 1.410 . S
C3252 C3253 1.392 . S
C3252 C3255 1.511 . S
C3253 C3249 1.376 . S
C3253 C3252 1.392 . S
C3253 H3265 0.929 . S
C3254 C3250 1.531 . S
C3254 H3266 0.960 . S
C3254 H3267 0.962 . S
C3254 H3268 0.960 . S
C3255 C3252 1.511 . S
C3255 H3269 0.961 . S
C3255 H3270 0.961 . S
C3255 H3271 0.961 . S
C3256 C3257 1.370 . S
C3256 C3258 1.363 . S
C3256 H3272 0.931 . S
C3257 C3256 1.370 . S
C3257 C3261 1.408 . S
C3258 C3256 1.363 . S
C3258 C3259 1.370 . S
C3258 C3262 1.524 . S
C3259 C3251 1.503 . S
C3259 C3258 1.370 . S
C3259 C3260 1.403 . S
C3260 C3259 1.403 . S
C3260 C3261 1.404 . S
C3260 C3263 1.539 . S
C3261 C3257 1.408 . S
C3261 C3260 1.404 . S
C3261 H3273 0.930 . S
C3262 C3258 1.524 . S
C3262 H3274 0.956 . S
C3262 H3275 0.961 . S
C3262 H3276 0.961 . S
C3263 C3260 1.539 . S
C3263 H3277 0.958 . S
C3263 H3278 0.961 . S
C3263 H3279 0.960 . S
H3264 C3248 0.931 . S
H3265 C3253 0.929 . S
H3266 C3254 0.960 . S
H3267 C3254 0.962 . S
H3268 C3254 0.960 . S
H3269 C3255 0.961 . S
H3270 C3255 0.961 . S
H3271 C3255 0.961 . S
H3272 C3256 0.931 . S
H3273 C3261 0.930 . S
H3274 C3262 0.956 . S
H3275 C3262 0.961 . S
H3276 C3262 0.961 . S
H3277 C3263 0.958 . S
H3278 C3263 0.961 . S
H3279 C3263 0.960 . S
C3280 C3281 1.391 . S
C3280 C3282 1.394 . S
C3280 H3296 0.931 . S
C3281 C3280 1.391 . S
C3281 C3285 1.376 . S
C3282 C3280 1.394 . S
C3282 C3283 1.369 . S
C3282 C3286 1.531 . S
C3283 C3282 1.369 . S
C3283 C3284 1.410 . S
C3283 C3291 1.503 . S
C3284 C3283 1.410 . S
C3284 C3285 1.392 . S
C3284 C3287 1.511 . S
C3285 C3281 1.376 . S
C3285 C3284 1.392 . S
C3285 H3297 0.929 . S
C3286 C3282 1.531 . S
C3286 H3298 0.960 . S
C3286 H3299 0.962 . S
C3286 H3300 0.960 . S
C3287 C3284 1.511 . S
C3287 H3301 0.961 . S
C3287 H3302 0.961 . S
C3287 H3303 0.961 . S
C3288 C3289 1.370 . S
C3288 C3290 1.363 . S
C3288 H3304 0.931 . S
C3289 C3288 1.370 . S
C3289 C3293 1.408 . S
C3290 C3288 1.363 . S
C3290 C3291 1.370 . S
C3290 C3294 1.524 . S
C3291 C3283 1.503 . S
C3291 C3290 1.370 . S
C3291 C3292 1.403 . S
C3292 C3291 1.403 . S
C3292 C3293 1.404 . S
C3292 C3295 1.539 . S
C3293 C3289 1.408 . S
C3293 C3292 1.404 . S
C3293 H3305 0.930 . S
C3294 C3290 1.524 . S
C3294 H3306 0.956 . S
C3294 H3307 0.961 . S
C3294 H3308 0.961 . S
C3295 C3292 1.539 . S
C3295 H3309 0.958 . S
C3295 H3310 0.961 . S
C3295 H3311 0.960 . S
H3296 C3280 0.931 . S
H3297 C3285 0.929 . S
H3298 C3286 0.960 . S
H3299 C3286 0.962 . S
H3300 C3286 0.960 . S
H3301 C3287 0.961 . S
H3302 C3287 0.961 . S
H3303 C3287 0.961 . S
H3304 C3288 0.931 . S
H3305 C3293 0.930 . S
H3306 C3294 0.956 . S
H3307 C3294 0.961 . S
H3308 C3294 0.961 . S
H3309 C3295 0.958 . S
H3310 C3295 0.961 . S
H3311 C3295 0.960 . S
C3312 C3313 1.391 . S
C3312 C3314 1.394 . S
C3312 H3328 0.931 . S
C3313 C3312 1.391 . S
C3313 C3317 1.376 . S
C3314 C3312 1.394 . S
C3314 C3315 1.369 . S
C3314 C3318 1.531 . S
C3315 C3314 1.369 . S
C3315 C3316 1.410 . S
C3315 C3323 1.503 . S
C3316 C3315 1.410 . S
C3316 C3317 1.392 . S
C3316 C3319 1.511 . S
C3317 C3313 1.376 . S
C3317 C3316 1.392 . S
C3317 H3329 0.929 . S
C3318 C3314 1.531 . S
C3318 H3330 0.960 . S
C3318 H3331 0.962 . S
C3318 H3332 0.960 . S
C3319 C3316 1.511 . S
C3319 H3333 0.961 . S
C3319 H3334 0.961 . S
C3319 H3335 0.961 . S
C3320 C3321 1.370 . S
C3320 C3322 1.363 . S
C3320 H3336 0.931 . S
C3321 C3320 1.370 . S
C3321 C3325 1.408 . S
C3322 C3320 1.363 . S
C3322 C3323 1.370 . S
C3322 C3326 1.524 . S
C3323 C3315 1.503 . S
C3323 C3322 1.370 . S
C3323 C3324 1.403 . S
C3324 C3323 1.403 . S
C3324 C3325 1.404 . S
C3324 C3327 1.539 . S
C3325 C3321 1.408 . S
C3325 C3324 1.404 . S
C3325 H3337 0.930 . S
C3326 C3322 1.524 . S
C3326 H3338 0.956 . S
C3326 H3339 0.961 . S
C3326 H3340 0.961 . S
C3327 C3324 1.539 . S
C3327 H3341 0.958 . S
C3327 H3342 0.961 . S
C3327 H3343 0.960 . S
H3328 C3312 0.931 . S
H3329 C3317 0.929 . S
H3330 C3318 0.960 . S
H3331 C3318 0.962 . S
H3332 C3318 0.960 . S
H3333 C3319 0.961 . S
H3334 C3319 0.961 . S
H3335 C3319 0.961 . S
H3336 C3320 0.931 . S
H3337 C3325 0.930 . S
H3338 C3326 0.956 . S
H3339 C3326 0.961 . S
H3340 C3326 0.961 . S
H3341 C3327 0.958 . S
H3342 C3327 0.961 . S
H3343 C3327 0.960 . S
C3344 C3345 1.391 . S
C3344 C3346 1.394 . S
C3344 H3360 0.931 . S
C3345 C3344 1.391 . S
C3345 C3349 1.376 . S
C3346 C3344 1.394 . S
C3346 C3347 1.369 . S
C3346 C3350 1.531 . S
C3347 C3346 1.369 . S
C3347 C3348 1.410 . S
C3347 C3355 1.503 . S
C3348 C3347 1.410 . S
C3348 C3349 1.392 . S
C3348 C3351 1.511 . S
C3349 C3345 1.376 . S
C3349 C3348 1.392 . S
C3349 H3361 0.929 . S
C3350 C3346 1.531 . S
C3350 H3362 0.960 . S
C3350 H3363 0.962 . S
C3350 H3364 0.960 . S
C3351 C3348 1.511 . S
C3351 H3365 0.961 . S
C3351 H3366 0.961 . S
C3351 H3367 0.961 . S
C3352 C3353 1.370 . S
C3352 C3354 1.363 . S
C3352 H3368 0.931 . S
C3353 C3352 1.370 . S
C3353 C3357 1.408 . S
C3354 C3352 1.363 . S
C3354 C3355 1.370 . S
C3354 C3358 1.524 . S
C3355 C3347 1.503 . S
C3355 C3354 1.370 . S
C3355 C3356 1.403 . S
C3356 C3355 1.403 . S
C3356 C3357 1.404 . S
C3356 C3359 1.539 1_455 S
C3357 C3353 1.408 . S
C3357 C3356 1.404 . S
C3357 H3369 0.965 . S
C3358 C3354 1.524 . S
C3358 H3370 0.956 . S
C3358 H3371 0.961 . S
C3358 H3372 0.961 . S
C3359 C3356 1.539 1_655 S
C3359 H3373 0.958 . S
C3359 H3374 0.961 . S
C3359 H3375 0.960 . S
H3360 C3344 0.931 . S
H3361 C3349 0.929 . S
H3362 C3350 0.960 . S
H3363 C3350 0.962 . S
H3364 C3350 0.960 . S
H3365 C3351 0.961 . S
H3366 C3351 0.961 . S
H3367 C3351 0.961 . S
H3368 C3352 0.931 . S
H3369 C3357 0.965 . S
H3370 C3358 0.956 . S
H3371 C3358 0.961 . S
H3372 C3358 0.961 . S
H3373 C3359 0.958 . S
H3374 C3359 0.961 . S
H3375 C3359 0.960 . S
C3376 C3377 1.391 . S
C3376 C3378 1.394 . S
C3376 H3392 0.931 . S
C3377 C3376 1.391 . S
C3377 C3381 1.376 . S
C3378 C3376 1.394 . S
C3378 C3379 1.369 . S
C3378 C3382 1.531 . S
C3379 C3378 1.369 . S
C3379 C3380 1.410 . S
C3379 C3387 1.503 . S
C3380 C3379 1.410 . S
C3380 C3381 1.392 . S
C3380 C3383 1.511 . S
C3381 C3377 1.376 . S
C3381 C3380 1.392 . S
C3381 H3393 0.929 . S
C3382 C3378 1.531 . S
C3382 H3394 0.960 . S
C3382 H3395 0.962 . S
C3382 H3396 0.960 . S
C3383 C3380 1.511 . S
C3383 H3397 0.961 . S
C3383 H3398 0.961 . S
C3383 H3399 0.961 . S
C3384 C3385 1.370 . S
C3384 C3386 1.363 . S
C3384 H3400 0.931 . S
C3385 C3384 1.370 . S
C3385 C3389 1.408 . S
C3386 C3384 1.363 . S
C3386 C3387 1.370 . S
C3386 C3390 1.524 . S
C3387 C3379 1.503 . S
C3387 C3386 1.370 . S
C3387 C3388 1.403 . S
C3388 C3387 1.403 . S
C3388 C3389 1.404 . S
C3388 C3391 1.539 . S
C3389 C3385 1.408 . S
C3389 C3388 1.404 . S
C3389 H3401 0.930 . S
C3390 C3386 1.524 . S
C3390 H3402 0.956 . S
C3390 H3403 0.961 . S
C3390 H3404 0.961 . S
C3391 C3388 1.539 . S
C3391 H3405 0.958 . S
C3391 H3406 0.961 . S
C3391 H3407 0.960 . S
H3392 C3376 0.931 . S
H3393 C3381 0.929 . S
H3394 C3382 0.960 . S
H3395 C3382 0.962 . S
H3396 C3382 0.960 . S
H3397 C3383 0.961 . S
H3398 C3383 0.961 . S
H3399 C3383 0.961 . S
H3400 C3384 0.931 . S
H3401 C3389 0.930 . S
H3402 C3390 0.956 . S
H3403 C3390 0.961 . S
H3404 C3390 0.961 . S
H3405 C3391 0.958 . S
H3406 C3391 0.961 . S
H3407 C3391 0.960 . S
C3408 C3409 1.391 . S
C3408 C3410 1.394 . S
C3408 H3424 0.931 . S
C3409 C3408 1.391 . S
C3409 C3413 1.376 . S
C3410 C3408 1.394 . S
C3410 C3411 1.369 . S
C3410 C3414 1.531 . S
C3411 C3410 1.369 . S
C3411 C3412 1.410 . S
C3411 C3419 1.503 . S
C3412 C3411 1.410 . S
C3412 C3413 1.392 . S
C3412 C3415 1.511 . S
C3413 C3409 1.376 . S
C3413 C3412 1.392 . S
C3413 H3425 0.929 . S
C3414 C3410 1.531 . S
C3414 H3426 0.960 . S
C3414 H3427 0.962 . S
C3414 H3428 0.960 . S
C3415 C3412 1.511 . S
C3415 H3429 0.961 . S
C3415 H3430 0.961 . S
C3415 H3431 0.961 . S
C3416 C3417 1.370 . S
C3416 C3418 1.363 . S
C3416 H3432 0.931 . S
C3417 C3416 1.370 . S
C3417 C3421 1.408 . S
C3418 C3416 1.363 . S
C3418 C3419 1.370 . S
C3418 C3422 1.524 . S
C3419 C3411 1.503 . S
C3419 C3418 1.370 . S
C3419 C3420 1.403 . S
C3420 C3419 1.403 . S
C3420 C3421 1.404 . S
C3420 C3423 1.539 . S
C3421 C3417 1.408 . S
C3421 C3420 1.404 . S
C3421 H3433 0.930 . S
C3422 C3418 1.524 . S
C3422 H3434 0.956 . S
C3422 H3435 0.961 . S
C3422 H3436 0.961 . S
C3423 C3420 1.539 . S
C3423 H3437 0.958 . S
C3423 H3438 0.961 . S
C3423 H3439 0.960 . S
H3424 C3408 0.931 . S
H3425 C3413 0.929 . S
H3426 C3414 0.960 . S
H3427 C3414 0.962 . S
H3428 C3414 0.960 . S
H3429 C3415 0.961 . S
H3430 C3415 0.961 . S
H3431 C3415 0.961 . S
H3432 C3416 0.931 . S
H3433 C3421 0.930 . S
H3434 C3422 0.956 . S
H3435 C3422 0.961 . S
H3436 C3422 0.961 . S
H3437 C3423 0.958 . S
H3438 C3423 0.961 . S
H3439 C3423 0.960 . S
C3440 C3441 1.391 . S
C3440 C3442 1.394 . S
C3440 H3456 0.931 . S
C3441 C3440 1.391 . S
C3441 C3445 1.376 . S
C3442 C3440 1.394 . S
C3442 C3443 1.369 . S
C3442 C3446 1.531 . S
C3443 C3442 1.369 . S
C3443 C3444 1.410 . S
C3443 C3451 1.503 . S
C3444 C3443 1.410 . S
C3444 C3445 1.392 . S
C3444 C3447 1.511 . S
C3445 C3441 1.376 . S
C3445 C3444 1.392 . S
C3445 H3457 0.929 . S
C3446 C3442 1.531 . S
C3446 H3458 0.960 . S
C3446 H3459 0.962 . S
C3446 H3460 0.960 . S
C3447 C3444 1.511 . S
C3447 H3461 0.961 . S
C3447 H3462 0.961 . S
C3447 H3463 0.961 . S
C3448 C3449 1.370 . S
C3448 C3450 1.363 . S
C3448 H3464 0.931 . S
C3449 C3448 1.370 . S
C3449 C3453 1.408 . S
C3450 C3448 1.363 . S
C3450 C3451 1.370 . S
C3450 C3454 1.524 . S
C3451 C3443 1.503 . S
C3451 C3450 1.370 . S
C3451 C3452 1.403 . S
C3452 C3451 1.403 . S
C3452 C3453 1.404 . S
C3452 C3455 1.539 . S
C3453 C3449 1.408 . S
C3453 C3452 1.404 . S
C3453 H3465 0.930 . S
C3454 C3450 1.524 . S
C3454 H3466 0.956 . S
C3454 H3467 0.961 . S
C3454 H3468 0.961 . S
C3455 C3452 1.539 . S
C3455 H3469 0.958 . S
C3455 H3470 0.961 . S
C3455 H3471 0.960 . S
H3456 C3440 0.931 . S
H3457 C3445 0.929 . S
H3458 C3446 0.960 . S
H3459 C3446 0.962 . S
H3460 C3446 0.960 . S
H3461 C3447 0.961 . S
H3462 C3447 0.961 . S
H3463 C3447 0.961 . S
H3464 C3448 0.931 . S
H3465 C3453 0.930 . S
H3466 C3454 0.956 . S
H3467 C3454 0.961 . S
H3468 C3454 0.961 . S
H3469 C3455 0.958 . S
H3470 C3455 0.961 . S
H3471 C3455 0.960 . S
C3472 C3473 1.391 . S
C3472 C3474 1.394 . S
C3472 H3488 0.931 . S
C3473 C3472 1.391 . S
C3473 C3477 1.376 1_455 S
C3474 C3472 1.394 . S
C3474 C3475 1.369 . S
C3474 C3478 1.531 . S
C3475 C3474 1.369 . S
C3475 C3476 1.410 1_455 S
C3475 C3483 1.503 . S
C3476 C3475 1.410 1_655 S
C3476 C3477 1.392 . S
C3476 C3479 1.511 . S
C3477 C3473 1.376 1_655 S
C3477 C3476 1.392 . S
C3477 H3489 0.929 . S
C3478 C3474 1.531 . S
C3478 H3490 0.960 . S
C3478 H3491 0.962 . S
C3478 H3492 0.960 . S
C3479 C3476 1.511 . S
C3479 H3493 0.961 . S
C3479 H3494 0.961 . S
C3479 H3495 0.961 . S
C3480 C3481 1.370 . S
C3480 C3482 1.363 . S
C3480 H3496 0.931 . S
C3481 C3480 1.370 . S
C3481 C3485 1.408 . S
C3482 C3480 1.363 . S
C3482 C3483 1.370 . S
C3482 C3486 1.524 . S
C3483 C3475 1.503 . S
C3483 C3482 1.370 . S
C3483 C3484 1.403 . S
C3484 C3483 1.403 . S
C3484 C3485 1.404 . S
C3484 C3487 1.539 1_455 S
C3485 C3481 1.408 . S
C3485 C3484 1.404 . S
C3485 H3497 0.930 . S
C3486 C3482 1.524 . S
C3486 H3498 0.956 . S
C3486 H3499 0.961 . S
C3486 H3500 0.961 . S
C3487 C3484 1.539 1_655 S
C3487 H3501 0.983 . S
C3487 H3502 0.961 . S
C3487 H3503 0.960 . S
H3488 C3472 0.931 . S
H3489 C3477 0.929 . S
H3490 C3478 0.960 . S
H3491 C3478 0.962 . S
H3492 C3478 0.960 . S
H3493 C3479 0.961 . S
H3494 C3479 0.961 . S
H3495 C3479 0.961 . S
H3496 C3480 0.931 . S
H3497 C3485 0.930 . S
H3498 C3486 0.956 . S
H3499 C3486 0.961 . S
H3500 C3486 0.961 . S
H3501 C3487 0.983 . S
H3502 C3487 0.961 . S
H3503 C3487 0.960 . S
C3504 C3505 1.391 . S
C3504 C3506 1.394 . S
C3504 H3520 0.931 . S
C3505 C3504 1.391 . S
C3505 C3509 1.376 . S
C3506 C3504 1.394 . S
C3506 C3507 1.369 . S
C3506 C3510 1.531 . S
C3507 C3506 1.369 . S
C3507 C3508 1.410 . S
C3507 C3515 1.503 . S
C3508 C3507 1.410 . S
C3508 C3509 1.392 . S
C3508 C3511 1.511 . S
C3509 C3505 1.376 . S
C3509 C3508 1.392 . S
C3509 H3521 0.929 . S
C3510 C3506 1.531 . S
C3510 H3522 0.960 . S
C3510 H3523 0.962 . S
C3510 H3524 0.960 . S
C3511 C3508 1.511 . S
C3511 H3525 0.961 . S
C3511 H3526 0.961 . S
C3511 H3527 0.961 . S
C3512 C3513 1.370 . S
C3512 C3514 1.363 . S
C3512 H3528 0.931 . S
C3513 C3512 1.370 . S
C3513 C3517 1.408 . S
C3514 C3512 1.363 . S
C3514 C3515 1.370 . S
C3514 C3518 1.524 . S
C3515 C3507 1.503 . S
C3515 C3514 1.370 . S
C3515 C3516 1.403 . S
C3516 C3515 1.403 . S
C3516 C3517 1.404 . S
C3516 C3519 1.539 . S
C3517 C3513 1.408 . S
C3517 C3516 1.404 . S
C3517 H3529 0.930 . S
C3518 C3514 1.524 . S
C3518 H3530 0.956 . S
C3518 H3531 0.961 . S
C3518 H3532 0.961 . S
C3519 C3516 1.539 . S
C3519 H3533 0.958 . S
C3519 H3534 0.961 . S
C3519 H3535 0.960 . S
H3520 C3504 0.931 . S
H3521 C3509 0.929 . S
H3522 C3510 0.960 . S
H3523 C3510 0.962 . S
H3524 C3510 0.960 . S
H3525 C3511 0.961 . S
H3526 C3511 0.961 . S
H3527 C3511 0.961 . S
H3528 C3512 0.931 . S
H3529 C3517 0.930 . S
H3530 C3518 0.956 . S
H3531 C3518 0.961 . S
H3532 C3518 0.961 . S
H3533 C3519 0.958 . S
H3534 C3519 0.961 . S
H3535 C3519 0.960 . S
C3536 C3537 1.391 . S
C3536 C3538 1.394 . S
C3536 H3552 0.931 . S
C3537 C3536 1.391 . S
C3537 C3541 1.376 . S
C3538 C3536 1.394 . S
C3538 C3539 1.369 . S
C3538 C3542 1.531 . S
C3539 C3538 1.369 . S
C3539 C3540 1.410 . S
C3539 C3547 1.503 . S
C3540 C3539 1.410 . S
C3540 C3541 1.392 . S
C3540 C3543 1.511 . S
C3541 C3537 1.376 . S
C3541 C3540 1.392 . S
C3541 H3553 0.929 . S
C3542 C3538 1.531 . S
C3542 H3554 0.960 . S
C3542 H3555 0.962 . S
C3542 H3556 0.960 . S
C3543 C3540 1.511 . S
C3543 H3557 0.961 . S
C3543 H3558 0.961 . S
C3543 H3559 0.961 . S
C3544 C3545 1.370 . S
C3544 C3546 1.363 . S
C3544 H3560 0.931 . S
C3545 C3544 1.370 . S
C3545 C3549 1.408 . S
C3546 C3544 1.363 . S
C3546 C3547 1.370 . S
C3546 C3550 1.524 . S
C3547 C3539 1.503 . S
C3547 C3546 1.370 . S
C3547 C3548 1.403 . S
C3548 C3547 1.403 . S
C3548 C3549 1.404 . S
C3548 C3551 1.539 . S
C3549 C3545 1.408 . S
C3549 C3548 1.404 . S
C3549 H3561 0.930 . S
C3550 C3546 1.524 . S
C3550 H3562 0.956 . S
C3550 H3563 0.961 . S
C3550 H3564 0.961 . S
C3551 C3548 1.539 . S
C3551 H3565 0.958 . S
C3551 H3566 0.961 . S
C3551 H3567 0.960 . S
H3552 C3536 0.931 . S
H3553 C3541 0.929 . S
H3554 C3542 0.960 . S
H3555 C3542 0.962 . S
H3556 C3542 0.960 . S
H3557 C3543 0.961 . S
H3558 C3543 0.961 . S
H3559 C3543 0.961 . S
H3560 C3544 0.931 . S
H3561 C3549 0.930 . S
H3562 C3550 0.956 . S
H3563 C3550 0.961 . S
H3564 C3550 0.961 . S
H3565 C3551 0.958 . S
H3566 C3551 0.961 . S
H3567 C3551 0.960 . S
C3568 C3569 1.391 . S
C3568 C3570 1.394 . S
C3568 H3584 0.931 . S
C3569 C3568 1.391 . S
C3569 C3573 1.376 . S
C3570 C3568 1.394 . S
C3570 C3571 1.369 . S
C3570 C3574 1.531 . S
C3571 C3570 1.369 . S
C3571 C3572 1.410 . S
C3571 C3579 1.503 . S
C3572 C3571 1.410 . S
C3572 C3573 1.392 . S
C3572 C3575 1.511 . S
C3573 C3569 1.376 . S
C3573 C3572 1.392 . S
C3573 H3585 0.929 . S
C3574 C3570 1.531 . S
C3574 H3586 0.960 . S
C3574 H3587 0.962 . S
C3574 H3588 0.960 . S
C3575 C3572 1.511 . S
C3575 H3589 0.961 . S
C3575 H3590 0.961 . S
C3575 H3591 0.961 . S
C3576 C3577 1.370 . S
C3576 C3578 1.363 . S
C3576 H3592 0.931 . S
C3577 C3576 1.370 . S
C3577 C3581 1.408 . S
C3578 C3576 1.363 . S
C3578 C3579 1.370 . S
C3578 C3582 1.524 . S
C3579 C3571 1.503 . S
C3579 C3578 1.370 . S
C3579 C3580 1.403 . S
C3580 C3579 1.403 . S
C3580 C3581 1.404 . S
C3580 C3583 1.539 . S
C3581 C3577 1.408 . S
C3581 C3580 1.404 . S
C3581 H3593 0.930 . S
C3582 C3578 1.524 . S
C3582 H3594 0.956 . S
C3582 H3595 0.961 . S
C3582 H3596 0.961 . S
C3583 C3580 1.539 . S
C3583 H3597 0.958 . S
C3583 H3598 0.961 . S
C3583 H3599 0.960 . S
H3584 C3568 0.931 . S
H3585 C3573 0.929 . S
H3586 C3574 0.960 . S
H3587 C3574 0.962 . S
H3588 C3574 0.960 . S
H3589 C3575 0.961 . S
H3590 C3575 0.961 . S
H3591 C3575 0.961 . S
H3592 C3576 0.931 . S
H3593 C3581 0.930 . S
H3594 C3582 0.956 . S
H3595 C3582 0.961 . S
H3596 C3582 0.961 . S
H3597 C3583 0.958 . S
H3598 C3583 0.961 . S
H3599 C3583 0.960 . S
C3600 C3601 1.391 . S
C3600 C3602 1.394 . S
C3600 H3616 0.931 . S
C3601 C3600 1.391 . S
C3601 C3605 1.376 . S
C3602 C3600 1.394 . S
C3602 C3603 1.369 . S
C3602 C3606 1.531 . S
C3603 C3602 1.369 . S
C3603 C3604 1.410 . S
C3603 C3611 1.503 . S
C3604 C3603 1.410 . S
C3604 C3605 1.392 . S
C3604 C3607 1.511 . S
C3605 C3601 1.376 . S
C3605 C3604 1.392 . S
C3605 H3617 0.929 . S
C3606 C3602 1.531 . S
C3606 H3618 0.960 . S
C3606 H3619 0.962 . S
C3606 H3620 0.960 . S
C3607 C3604 1.511 . S
C3607 H3621 0.961 . S
C3607 H3622 0.963 1_655 S
C3607 H3623 0.961 1_655 S
C3608 C3609 1.343 1_655 S
C3608 C3610 1.363 . S
C3608 H3624 0.931 . S
C3609 C3608 1.343 1_455 S
C3609 C3613 1.426 . S
C3610 C3608 1.363 . S
C3610 C3611 1.370 . S
C3610 C3614 1.524 . S
C3611 C3603 1.503 . S
C3611 C3610 1.370 . S
C3611 C3612 1.403 . S
C3612 C3611 1.403 . S
C3612 C3613 1.404 1_655 S
C3612 C3615 1.539 1_655 S
C3613 C3609 1.426 . S
C3613 C3612 1.404 1_455 S
C3613 H3625 0.930 . S
C3614 C3610 1.524 . S
C3614 H3626 0.956 . S
C3614 H3627 0.961 . S
C3614 H3628 0.961 . S
C3615 C3612 1.539 1_455 S
C3615 H3629 0.958 1_455 S
C3615 H3630 0.961 . S
C3615 H3631 0.960 . S
H3616 C3600 0.931 . S
H3617 C3605 0.929 . S
H3618 C3606 0.960 . S
H3619 C3606 0.962 . S
H3620 C3606 0.960 . S
H3621 C3607 0.961 . S
H3622 C3607 0.963 1_455 S
H3623 C3607 0.961 1_455 S
H3624 C3608 0.931 . S
H3625 C3613 0.930 . S
H3626 C3614 0.956 . S
H3627 C3614 0.961 . S
H3628 C3614 0.961 . S
H3629 C3615 0.958 1_655 S
H3630 C3615 0.961 . S
H3631 C3615 0.960 . S
C3632 C3633 1.391 . S
C3632 C3634 1.394 . S
C3632 H3648 0.931 . S
C3633 C3632 1.391 . S
C3633 C3637 1.376 . S
C3634 C3632 1.394 . S
C3634 C3635 1.369 . S
C3634 C3638 1.531 . S
C3635 C3634 1.369 . S
C3635 C3636 1.410 . S
C3635 C3643 1.503 . S
C3636 C3635 1.410 . S
C3636 C3637 1.392 . S
C3636 C3639 1.511 . S
C3637 C3633 1.376 . S
C3637 C3636 1.392 . S
C3637 H3649 0.929 . S
C3638 C3634 1.531 . S
C3638 H3650 0.960 . S
C3638 H3651 0.962 . S
C3638 H3652 0.960 . S
C3639 C3636 1.511 . S
C3639 H3653 0.961 . S
C3639 H3654 0.961 . S
C3639 H3655 0.961 . S
C3640 C3641 1.370 . S
C3640 C3642 1.363 . S
C3640 H3656 0.931 . S
C3641 C3640 1.370 . S
C3641 C3645 1.408 . S
C3642 C3640 1.363 . S
C3642 C3643 1.370 . S
C3642 C3646 1.524 . S
C3643 C3635 1.503 . S
C3643 C3642 1.370 . S
C3643 C3644 1.403 . S
C3644 C3643 1.403 . S
C3644 C3645 1.404 . S
C3644 C3647 1.539 . S
C3645 C3641 1.408 . S
C3645 C3644 1.404 . S
C3645 H3657 0.930 . S
C3646 C3642 1.524 . S
C3646 H3658 0.956 . S
C3646 H3659 0.961 . S
C3646 H3660 0.961 . S
C3647 C3644 1.539 . S
C3647 H3661 0.958 . S
C3647 H3662 0.961 . S
C3647 H3663 0.960 . S
H3648 C3632 0.931 . S
H3649 C3637 0.929 . S
H3650 C3638 0.960 . S
H3651 C3638 0.962 . S
H3652 C3638 0.960 . S
H3653 C3639 0.961 . S
H3654 C3639 0.961 . S
H3655 C3639 0.961 . S
H3656 C3640 0.931 . S
H3657 C3645 0.930 . S
H3658 C3646 0.956 . S
H3659 C3646 0.961 . S
H3660 C3646 0.961 . S
H3661 C3647 0.958 . S
H3662 C3647 0.961 . S
H3663 C3647 0.960 . S
C3664 C3665 1.391 . S
C3664 C3666 1.394 . S
C3664 H3680 0.931 . S
C3665 C3664 1.391 . S
C3665 C3669 1.376 . S
C3666 C3664 1.394 . S
C3666 C3667 1.369 . S
C3666 C3670 1.531 . S
C3667 C3666 1.369 . S
C3667 C3668 1.410 . S
C3667 C3675 1.503 . S
C3668 C3667 1.410 . S
C3668 C3669 1.392 . S
C3668 C3671 1.511 . S
C3669 C3665 1.376 . S
C3669 C3668 1.392 . S
C3669 H3681 0.929 . S
C3670 C3666 1.531 . S
C3670 H3682 0.960 . S
C3670 H3683 0.962 . S
C3670 H3684 0.960 . S
C3671 C3668 1.511 . S
C3671 H3685 0.961 . S
C3671 H3686 0.961 . S
C3671 H3687 0.961 . S
C3672 C3673 1.370 . S
C3672 C3674 1.363 . S
C3672 H3688 0.931 . S
C3673 C3672 1.370 . S
C3673 C3677 1.408 . S
C3674 C3672 1.363 . S
C3674 C3675 1.370 . S
C3674 C3678 1.524 . S
C3675 C3667 1.503 . S
C3675 C3674 1.370 . S
C3675 C3676 1.403 . S
C3676 C3675 1.403 . S
C3676 C3677 1.404 . S
C3676 C3679 1.539 . S
C3677 C3673 1.408 . S
C3677 C3676 1.404 . S
C3677 H3689 0.930 . S
C3678 C3674 1.524 . S
C3678 H3690 0.956 . S
C3678 H3691 0.961 . S
C3678 H3692 0.961 . S
C3679 C3676 1.539 . S
C3679 H3693 0.958 . S
C3679 H3694 0.961 . S
C3679 H3695 0.960 . S
H3680 C3664 0.931 . S
H3681 C3669 0.929 . S
H3682 C3670 0.960 . S
H3683 C3670 0.962 . S
H3684 C3670 0.960 . S
H3685 C3671 0.961 . S
H3686 C3671 0.961 . S
H3687 C3671 0.961 . S
H3688 C3672 0.931 . S
H3689 C3677 0.930 . S
H3690 C3678 0.956 . S
H3691 C3678 0.961 . S
H3692 C3678 0.961 . S
H3693 C3679 0.958 . S
H3694 C3679 0.961 . S
H3695 C3679 0.960 . S
C3696 C3697 1.391 . S
C3696 C3698 1.394 . S
C3696 H3712 0.931 . S
C3697 C3696 1.391 . S
C3697 C3701 1.376 . S
C3698 C3696 1.394 . S
C3698 C3699 1.369 . S
C3698 C3702 1.531 . S
C3699 C3698 1.369 . S
C3699 C3700 1.410 . S
C3699 C3707 1.503 . S
C3700 C3699 1.410 . S
C3700 C3701 1.392 . S
C3700 C3703 1.511 . S
C3701 C3697 1.376 . S
C3701 C3700 1.392 . S
C3701 H3713 0.929 . S
C3702 C3698 1.531 . S
C3702 H3714 0.960 . S
C3702 H3715 0.962 . S
C3702 H3716 0.960 . S
C3703 C3700 1.511 . S
C3703 H3717 0.961 . S
C3703 H3718 0.961 . S
C3703 H3719 0.961 . S
C3704 C3705 1.370 . S
C3704 C3706 1.363 . S
C3704 H3720 0.931 . S
C3705 C3704 1.370 . S
C3705 C3709 1.408 . S
C3706 C3704 1.363 . S
C3706 C3707 1.370 . S
C3706 C3710 1.524 . S
C3707 C3699 1.503 . S
C3707 C3706 1.370 . S
C3707 C3708 1.403 . S
C3708 C3707 1.403 . S
C3708 C3709 1.404 . S
C3708 C3711 1.539 . S
C3709 C3705 1.408 . S
C3709 C3708 1.404 . S
C3709 H3721 0.930 . S
C3710 C3706 1.524 . S
C3710 H3722 0.956 . S
C3710 H3723 0.961 . S
C3710 H3724 0.961 . S
C3711 C3708 1.539 . S
C3711 H3725 0.958 . S
C3711 H3726 0.961 . S
C3711 H3727 0.960 . S
H3712 C3696 0.931 . S
H3713 C3701 0.929 . S
H3714 C3702 0.960 . S
H3715 C3702 0.962 . S
H3716 C3702 0.960 . S
H3717 C3703 0.961 . S
H3718 C3703 0.961 . S
H3719 C3703 0.961 . S
H3720 C3704 0.931 . S
H3721 C3709 0.930 . S
H3722 C3710 0.956 . S
H3723 C3710 0.961 . S
H3724 C3710 0.961 . S
H3725 C3711 0.958 . S
H3726 C3711 0.961 . S
H3727 C3711 0.960 . S
C3728 C3729 1.391 . S
C3728 C3730 1.394 . S
C3728 H3744 0.931 . S
C3729 C3728 1.391 . S
C3729 C3733 1.376 . S
C3730 C3728 1.394 . S
C3730 C3731 1.369 . S
C3730 C3734 1.531 . S
C3731 C3730 1.369 . S
C3731 C3732 1.410 . S
C3731 C3739 1.503 . S
C3732 C3731 1.410 . S
C3732 C3733 1.392 . S
C3732 C3735 1.511 . S
C3733 C3729 1.376 . S
C3733 C3732 1.392 . S
C3733 H3745 0.929 . S
C3734 C3730 1.531 . S
C3734 H3746 0.960 . S
C3734 H3747 0.962 . S
C3734 H3748 0.960 . S
C3735 C3732 1.511 . S
C3735 H3749 0.961 . S
C3735 H3750 0.961 . S
C3735 H3751 0.961 . S
C3736 C3737 1.370 . S
C3736 C3738 1.363 . S
C3736 H3752 0.931 . S
C3737 C3736 1.370 . S
C3737 C3741 1.408 1_655 S
C3738 C3736 1.363 . S
C3738 C3739 1.370 . S
C3738 C3742 1.524 . S
C3739 C3731 1.503 . S
C3739 C3738 1.370 . S
C3739 C3740 1.403 . S
C3740 C3739 1.403 . S
C3740 C3741 1.404 1_655 S
C3740 C3743 1.539 1_655 S
C3741 C3737 1.408 1_455 S
C3741 C3740 1.404 1_455 S
C3741 H3753 0.930 . S
C3742 C3738 1.524 . S
C3742 H3754 0.956 . S
C3742 H3755 0.961 . S
C3742 H3756 0.961 . S
C3743 C3740 1.539 1_455 S
C3743 H3757 0.958 . S
C3743 H3758 0.961 . S
C3743 H3759 0.960 1_455 S
H3744 C3728 0.931 . S
H3745 C3733 0.929 . S
H3746 C3734 0.960 . S
H3747 C3734 0.962 . S
H3748 C3734 0.960 . S
H3749 C3735 0.961 . S
H3750 C3735 0.961 . S
H3751 C3735 0.961 . S
H3752 C3736 0.931 . S
H3753 C3741 0.930 . S
H3754 C3742 0.956 . S
H3755 C3742 0.961 . S
H3756 C3742 0.961 . S
H3757 C3743 0.958 . S
H3758 C3743 0.961 . S
H3759 C3743 0.960 1_655 S
C3760 C3761 1.391 . S
C3760 C3762 1.394 . S
C3760 H3776 0.931 . S
C3761 C3760 1.391 . S
C3761 C3765 1.376 . S
C3762 C3760 1.394 . S
C3762 C3763 1.369 . S
C3762 C3766 1.531 . S
C3763 C3762 1.369 . S
C3763 C3764 1.410 . S
C3763 C3771 1.503 . S
C3764 C3763 1.410 . S
C3764 C3765 1.392 . S
C3764 C3767 1.511 . S
C3765 C3761 1.376 . S
C3765 C3764 1.392 . S
C3765 H3777 0.929 . S
C3766 C3762 1.531 . S
C3766 H3778 0.960 . S
C3766 H3779 0.962 . S
C3766 H3780 0.960 . S
C3767 C3764 1.511 . S
C3767 H3781 0.961 . S
C3767 H3782 0.961 . S
C3767 H3783 0.961 . S
C3768 C3769 1.370 . S
C3768 C3770 1.363 . S
C3768 H3784 0.931 . S
C3769 C3768 1.370 . S
C3769 C3773 1.408 . S
C3770 C3768 1.363 . S
C3770 C3771 1.370 . S
C3770 C3774 1.524 . S
C3771 C3763 1.503 . S
C3771 C3770 1.370 . S
C3771 C3772 1.403 . S
C3772 C3771 1.403 . S
C3772 C3773 1.404 . S
C3772 C3775 1.539 . S
C3773 C3769 1.408 . S
C3773 C3772 1.404 . S
C3773 H3785 0.930 . S
C3774 C3770 1.524 . S
C3774 H3786 0.956 . S
C3774 H3787 0.961 . S
C3774 H3788 0.961 . S
C3775 C3772 1.539 . S
C3775 H3789 0.958 . S
C3775 H3790 0.961 . S
C3775 H3791 0.960 . S
H3776 C3760 0.931 . S
H3777 C3765 0.929 . S
H3778 C3766 0.960 . S
H3779 C3766 0.962 . S
H3780 C3766 0.960 . S
H3781 C3767 0.961 . S
H3782 C3767 0.961 . S
H3783 C3767 0.961 . S
H3784 C3768 0.931 . S
H3785 C3773 0.930 . S
H3786 C3774 0.956 . S
H3787 C3774 0.961 . S
H3788 C3774 0.961 . S
H3789 C3775 0.958 . S
H3790 C3775 0.961 . S
H3791 C3775 0.960 . S
C3792 C3793 1.391 . S
C3792 C3794 1.394 . S
C3792 H3808 0.931 . S
C3793 C3792 1.391 . S
C3793 C3797 1.376 . S
C3794 C3792 1.394 . S
C3794 C3795 1.369 . S
C3794 C3798 1.531 . S
C3795 C3794 1.369 . S
C3795 C3796 1.410 . S
C3795 C3803 1.503 . S
C3796 C3795 1.410 . S
C3796 C3797 1.392 . S
C3796 C3799 1.511 . S
C3797 C3793 1.376 . S
C3797 C3796 1.392 . S
C3797 H3809 0.929 . S
C3798 C3794 1.531 . S
C3798 H3810 0.960 . S
C3798 H3811 0.962 . S
C3798 H3812 0.960 . S
C3799 C3796 1.511 . S
C3799 H3813 0.961 . S
C3799 H3814 0.961 . S
C3799 H3815 0.961 . S
C3800 C3801 1.370 . S
C3800 C3802 1.363 . S
C3800 H3816 0.931 . S
C3801 C3800 1.370 . S
C3801 C3805 1.408 . S
C3802 C3800 1.363 . S
C3802 C3803 1.370 . S
C3802 C3806 1.524 . S
C3803 C3795 1.503 . S
C3803 C3802 1.370 . S
C3803 C3804 1.403 . S
C3804 C3803 1.403 . S
C3804 C3805 1.404 . S
C3804 C3807 1.539 . S
C3805 C3801 1.408 . S
C3805 C3804 1.404 . S
C3805 H3817 0.930 . S
C3806 C3802 1.524 . S
C3806 H3818 0.956 . S
C3806 H3819 0.961 . S
C3806 H3820 0.961 . S
C3807 C3804 1.539 . S
C3807 H3821 0.958 . S
C3807 H3822 0.961 . S
C3807 H3823 0.960 . S
H3808 C3792 0.931 . S
H3809 C3797 0.929 . S
H3810 C3798 0.960 . S
H3811 C3798 0.962 . S
H3812 C3798 0.960 . S
H3813 C3799 0.961 . S
H3814 C3799 0.961 . S
H3815 C3799 0.961 . S
H3816 C3800 0.931 . S
H3817 C3805 0.930 . S
H3818 C3806 0.956 . S
H3819 C3806 0.961 . S
H3820 C3806 0.961 . S
H3821 C3807 0.958 . S
H3822 C3807 0.961 . S
H3823 C3807 0.960 . S
C3824 C3825 1.391 . S
C3824 C3826 1.394 . S
C3824 H3840 0.931 . S
C3825 C3824 1.391 . S
C3825 C3829 1.376 . S
C3826 C3824 1.394 . S
C3826 C3827 1.369 . S
C3826 C3830 1.531 . S
C3827 C3826 1.369 . S
C3827 C3828 1.410 . S
C3827 C3835 1.503 . S
C3828 C3827 1.410 . S
C3828 C3829 1.392 . S
C3828 C3831 1.511 . S
C3829 C3825 1.376 . S
C3829 C3828 1.392 . S
C3829 H3841 0.929 . S
C3830 C3826 1.531 . S
C3830 H3842 0.960 . S
C3830 H3843 0.962 . S
C3830 H3844 0.960 . S
C3831 C3828 1.511 . S
C3831 H3845 0.961 . S
C3831 H3846 0.961 . S
C3831 H3847 0.961 . S
C3832 C3833 1.370 . S
C3832 C3834 1.363 . S
C3832 H3848 0.931 . S
C3833 C3832 1.370 . S
C3833 C3837 1.408 . S
C3834 C3832 1.363 . S
C3834 C3835 1.370 . S
C3834 C3838 1.524 . S
C3835 C3827 1.503 . S
C3835 C3834 1.370 . S
C3835 C3836 1.403 . S
C3836 C3835 1.403 . S
C3836 C3837 1.404 . S
C3836 C3839 1.523 1_565 S
C3837 C3833 1.408 . S
C3837 C3836 1.404 . S
C3837 H3849 0.930 1_565 S
C3838 C3834 1.524 . S
C3838 H3850 0.956 . S
C3838 H3851 0.961 . S
C3838 H3852 0.961 . S
C3839 C3836 1.523 1_545 S
C3839 H3853 0.962 1_545 S
C3839 H3854 0.981 . S
C3839 H3855 0.952 1_545 S
H3840 C3824 0.931 . S
H3841 C3829 0.929 . S
H3842 C3830 0.960 . S
H3843 C3830 0.962 . S
H3844 C3830 0.960 . S
H3845 C3831 0.961 . S
H3846 C3831 0.961 . S
H3847 C3831 0.961 . S
H3848 C3832 0.931 . S
H3849 C3837 0.930 1_545 S
H3850 C3838 0.956 . S
H3851 C3838 0.961 . S
H3852 C3838 0.961 . S
H3853 C3839 0.962 1_565 S
H3854 C3839 0.981 . S
H3855 C3839 0.952 1_565 S
C3856 C3857 1.391 . S
C3856 C3858 1.394 . S
C3856 H3872 0.931 . S
C3857 C3856 1.391 . S
C3857 C3861 1.376 . S
C3858 C3856 1.394 . S
C3858 C3859 1.369 . S
C3858 C3862 1.531 . S
C3859 C3858 1.369 . S
C3859 C3860 1.410 . S
C3859 C3867 1.503 . S
C3860 C3859 1.410 . S
C3860 C3861 1.392 . S
C3860 C3863 1.511 . S
C3861 C3857 1.376 . S
C3861 C3860 1.392 . S
C3861 H3873 0.929 . S
C3862 C3858 1.531 . S
C3862 H3874 0.960 . S
C3862 H3875 0.962 . S
C3862 H3876 0.960 . S
C3863 C3860 1.511 . S
C3863 H3877 0.961 . S
C3863 H3878 0.961 . S
C3863 H3879 0.961 . S
C3864 C3865 1.370 . S
C3864 C3866 1.363 . S
C3864 H3880 0.931 . S
C3865 C3864 1.370 . S
C3865 C3869 1.408 . S
C3866 C3864 1.363 . S
C3866 C3867 1.370 . S
C3866 C3870 1.524 . S
C3867 C3859 1.503 . S
C3867 C3866 1.370 . S
C3867 C3868 1.403 . S
C3868 C3867 1.403 . S
C3868 C3869 1.404 . S
C3868 C3871 1.539 . S
C3869 C3865 1.408 . S
C3869 C3868 1.404 . S
C3869 H3881 0.930 . S
C3870 C3866 1.524 . S
C3870 H3882 0.956 . S
C3870 H3883 0.961 . S
C3870 H3884 0.961 . S
C3871 C3868 1.539 . S
C3871 H3885 0.958 . S
C3871 H3886 0.961 . S
C3871 H3887 0.960 . S
H3872 C3856 0.931 . S
H3873 C3861 0.929 . S
H3874 C3862 0.960 . S
H3875 C3862 0.962 . S
H3876 C3862 0.960 . S
H3877 C3863 0.961 . S
H3878 C3863 0.961 . S
H3879 C3863 0.961 . S
H3880 C3864 0.931 . S
H3881 C3869 0.930 . S
H3882 C3870 0.956 . S
H3883 C3870 0.961 . S
H3884 C3870 0.961 . S
H3885 C3871 0.958 . S
H3886 C3871 0.961 . S
H3887 C3871 0.960 . S
C3888 C3889 1.391 . S
C3888 C3890 1.394 . S
C3888 H3904 0.931 . S
C3889 C3888 1.391 . S
C3889 C3893 1.376 . S
C3890 C3888 1.394 . S
C3890 C3891 1.369 . S
C3890 C3894 1.531 . S
C3891 C3890 1.369 . S
C3891 C3892 1.410 . S
C3891 C3899 1.503 . S
C3892 C3891 1.410 . S
C3892 C3893 1.392 . S
C3892 C3895 1.511 . S
C3893 C3889 1.376 . S
C3893 C3892 1.392 . S
C3893 H3905 0.929 . S
C3894 C3890 1.531 . S
C3894 H3906 0.960 . S
C3894 H3907 0.962 . S
C3894 H3908 0.960 . S
C3895 C3892 1.511 . S
C3895 H3909 0.961 . S
C3895 H3910 0.961 . S
C3895 H3911 0.961 . S
C3896 C3897 1.370 . S
C3896 C3898 1.363 . S
C3896 H3912 0.931 . S
C3897 C3896 1.370 . S
C3897 C3901 1.408 . S
C3898 C3896 1.363 . S
C3898 C3899 1.370 . S
C3898 C3902 1.524 . S
C3899 C3891 1.503 . S
C3899 C3898 1.370 . S
C3899 C3900 1.403 . S
C3900 C3899 1.403 . S
C3900 C3901 1.404 . S
C3900 C3903 1.539 . S
C3901 C3897 1.408 . S
C3901 C3900 1.404 . S
C3901 H3913 0.930 . S
C3902 C3898 1.524 . S
C3902 H3914 0.956 . S
C3902 H3915 0.961 . S
C3902 H3916 0.961 . S
C3903 C3900 1.539 . S
C3903 H3917 0.958 . S
C3903 H3918 0.961 . S
C3903 H3919 0.960 . S
H3904 C3888 0.931 . S
H3905 C3893 0.929 . S
H3906 C3894 0.960 . S
H3907 C3894 0.962 . S
H3908 C3894 0.960 . S
H3909 C3895 0.961 . S
H3910 C3895 0.961 . S
H3911 C3895 0.961 . S
H3912 C3896 0.931 . S
H3913 C3901 0.930 . S
H3914 C3902 0.956 . S
H3915 C3902 0.961 . S
H3916 C3902 0.961 . S
H3917 C3903 0.958 . S
H3918 C3903 0.961 . S
H3919 C3903 0.960 . S
C3920 C3921 1.391 . S
C3920 C3922 1.394 . S
C3920 H3936 0.931 . S
C3921 C3920 1.391 . S
C3921 C3925 1.376 . S
C3922 C3920 1.394 . S
C3922 C3923 1.369 . S
C3922 C3926 1.531 . S
C3923 C3922 1.369 . S
C3923 C3924 1.410 . S
C3923 C3931 1.503 . S
C3924 C3923 1.410 . S
C3924 C3925 1.392 . S
C3924 C3927 1.511 . S
C3925 C3921 1.376 . S
C3925 C3924 1.392 . S
C3925 H3937 0.929 . S
C3926 C3922 1.531 . S
C3926 H3938 0.960 . S
C3926 H3939 0.962 . S
C3926 H3940 0.960 . S
C3927 C3924 1.511 . S
C3927 H3941 0.961 . S
C3927 H3942 0.961 . S
C3927 H3943 0.961 . S
C3928 C3929 1.370 . S
C3928 C3930 1.363 . S
C3928 H3944 0.931 . S
C3929 C3928 1.370 . S
C3929 C3933 1.408 . S
C3930 C3928 1.363 . S
C3930 C3931 1.370 . S
C3930 C3934 1.524 . S
C3931 C3923 1.503 . S
C3931 C3930 1.370 . S
C3931 C3932 1.403 . S
C3932 C3931 1.403 . S
C3932 C3933 1.404 . S
C3932 C3935 1.539 . S
C3933 C3929 1.408 . S
C3933 C3932 1.404 . S
C3933 H3945 0.930 . S
C3934 C3930 1.524 . S
C3934 H3946 0.956 . S
C3934 H3947 0.961 . S
C3934 H3948 0.961 . S
C3935 C3932 1.539 . S
C3935 H3949 0.958 . S
C3935 H3950 0.961 . S
C3935 H3951 0.960 . S
H3936 C3920 0.931 . S
H3937 C3925 0.929 . S
H3938 C3926 0.960 . S
H3939 C3926 0.962 . S
H3940 C3926 0.960 . S
H3941 C3927 0.961 . S
H3942 C3927 0.961 . S
H3943 C3927 0.961 . S
H3944 C3928 0.931 . S
H3945 C3933 0.930 . S
H3946 C3934 0.956 . S
H3947 C3934 0.961 . S
H3948 C3934 0.961 . S
H3949 C3935 0.958 . S
H3950 C3935 0.961 . S
H3951 C3935 0.960 . S
C3952 C3953 1.391 . S
C3952 C3954 1.394 . S
C3952 H3968 0.931 . S
C3953 C3952 1.391 . S
C3953 C3957 1.376 . S
C3954 C3952 1.394 . S
C3954 C3955 1.369 . S
C3954 C3958 1.531 . S
C3955 C3954 1.369 . S
C3955 C3956 1.410 . S
C3955 C3963 1.503 . S
C3956 C3955 1.410 . S
C3956 C3957 1.392 . S
C3956 C3959 1.514 . S
C3957 C3953 1.376 . S
C3957 C3956 1.392 . S
C3957 H3969 0.929 . S
C3958 C3954 1.531 . S
C3958 H3970 0.960 . S
C3958 H3971 0.962 . S
C3958 H3972 0.960 . S
C3959 C3956 1.514 . S
C3959 H3973 0.965 . S
C3959 H3974 0.965 . S
C3959 H3975 0.949 1_554 S
C3960 C3961 1.370 . S
C3960 C3962 1.363 . S
C3960 H3976 0.931 . S
C3961 C3960 1.370 . S
C3961 C3965 1.408 1_554 S
C3962 C3960 1.363 . S
C3962 C3963 1.370 . S
C3962 C3966 1.524 . S
C3963 C3955 1.503 . S
C3963 C3962 1.370 . S
C3963 C3964 1.403 1_554 S
C3964 C3963 1.403 1_556 S
C3964 C3965 1.404 . S
C3964 C3967 1.539 . S
C3965 C3961 1.408 1_556 S
C3965 C3964 1.404 . S
C3965 H3977 0.930 . S
C3966 C3962 1.524 . S
C3966 H3978 0.956 . S
C3966 H3979 0.961 . S
C3966 H3980 0.961 . S
C3967 C3964 1.539 . S
C3967 H3981 0.958 . S
C3967 H3982 0.961 . S
C3967 H3983 0.960 . S
H3968 C3952 0.931 . S
H3969 C3957 0.929 . S
H3970 C3958 0.960 . S
H3971 C3958 0.962 . S
H3972 C3958 0.960 . S
H3973 C3959 0.965 . S
H3974 C3959 0.965 . S
H3975 C3959 0.949 1_556 S
H3976 C3960 0.931 . S
H3977 C3965 0.930 . S
H3978 C3966 0.956 . S
H3979 C3966 0.961 . S
H3980 C3966 0.961 . S
H3981 C3967 0.958 . S
H3982 C3967 0.961 . S
H3983 C3967 0.960 . S
C3984 C3985 1.391 . S
C3984 C3986 1.394 . S
C3984 H4000 0.931 . S
C3985 C3984 1.391 . S
C3985 C3989 1.376 . S
C3986 C3984 1.394 . S
C3986 C3987 1.369 . S
C3986 C3990 1.531 . S
C3987 C3986 1.369 . S
C3987 C3988 1.410 . S
C3987 C3995 1.503 . S
C3988 C3987 1.410 . S
C3988 C3989 1.392 . S
C3988 C3991 1.511 . S
C3989 C3985 1.376 . S
C3989 C3988 1.392 . S
C3989 H4001 0.929 . S
C3990 C3986 1.531 . S
C3990 H4002 0.960 . S
C3990 H4003 0.962 . S
C3990 H4004 0.960 . S
C3991 C3988 1.511 . S
C3991 H4005 0.961 . S
C3991 H4006 0.961 . S
C3991 H4007 0.961 . S
C3992 C3993 1.370 . S
C3992 C3994 1.363 . S
C3992 H4008 0.931 . S
C3993 C3992 1.370 . S
C3993 C3997 1.408 . S
C3994 C3992 1.363 . S
C3994 C3995 1.370 . S
C3994 C3998 1.524 . S
C3995 C3987 1.503 . S
C3995 C3994 1.370 . S
C3995 C3996 1.403 . S
C3996 C3995 1.403 . S
C3996 C3997 1.404 . S
C3996 C3999 1.539 . S
C3997 C3993 1.408 . S
C3997 C3996 1.404 . S
C3997 H4009 0.930 . S
C3998 C3994 1.524 . S
C3998 H4010 0.956 . S
C3998 H4011 0.961 . S
C3998 H4012 0.961 . S
C3999 C3996 1.539 . S
C3999 H4013 0.958 . S
C3999 H4014 0.961 . S
C3999 H4015 0.960 . S
H4000 C3984 0.931 . S
H4001 C3989 0.929 . S
H4002 C3990 0.960 . S
H4003 C3990 0.962 . S
H4004 C3990 0.960 . S
H4005 C3991 0.961 . S
H4006 C3991 0.961 . S
H4007 C3991 0.961 . S
H4008 C3992 0.931 . S
H4009 C3997 0.930 . S
H4010 C3998 0.956 . S
H4011 C3998 0.961 . S
H4012 C3998 0.961 . S
H4013 C3999 0.958 . S
H4014 C3999 0.961 . S
H4015 C3999 0.960 . S
C4016 C4017 1.391 . S
C4016 C4018 1.394 . S
C4016 H4032 0.931 . S
C4017 C4016 1.391 . S
C4017 C4021 1.376 . S
C4018 C4016 1.394 . S
C4018 C4019 1.369 . S
C4018 C4022 1.531 . S
C4019 C4018 1.369 . S
C4019 C4020 1.410 . S
C4019 C4027 1.503 . S
C4020 C4019 1.410 . S
C4020 C4021 1.392 . S
C4020 C4023 1.511 . S
C4021 C4017 1.376 . S
C4021 C4020 1.392 . S
C4021 H4033 0.929 . S
C4022 C4018 1.531 . S
C4022 H4034 0.960 . S
C4022 H4035 0.962 . S
C4022 H4036 0.960 . S
C4023 C4020 1.511 . S
C4023 H4037 0.961 . S
C4023 H4038 0.961 . S
C4023 H4039 0.961 . S
C4024 C4025 1.370 . S
C4024 C4026 1.363 . S
C4024 H4040 0.931 . S
C4025 C4024 1.370 . S
C4025 C4029 1.408 . S
C4026 C4024 1.363 . S
C4026 C4027 1.370 . S
C4026 C4030 1.524 . S
C4027 C4019 1.503 . S
C4027 C4026 1.370 . S
C4027 C4028 1.403 . S
C4028 C4027 1.403 . S
C4028 C4029 1.404 . S
C4028 C4031 1.539 . S
C4029 C4025 1.408 . S
C4029 C4028 1.404 . S
C4029 H4041 0.930 . S
C4030 C4026 1.524 . S
C4030 H4042 0.956 . S
C4030 H4043 0.961 . S
C4030 H4044 0.961 . S
C4031 C4028 1.539 . S
C4031 H4045 0.958 . S
C4031 H4046 0.961 . S
C4031 H4047 0.960 . S
H4032 C4016 0.931 . S
H4033 C4021 0.929 . S
H4034 C4022 0.960 . S
H4035 C4022 0.962 . S
H4036 C4022 0.960 . S
H4037 C4023 0.961 . S
H4038 C4023 0.961 . S
H4039 C4023 0.961 . S
H4040 C4024 0.931 . S
H4041 C4029 0.930 . S
H4042 C4030 0.956 . S
H4043 C4030 0.961 . S
H4044 C4030 0.961 . S
H4045 C4031 0.958 . S
H4046 C4031 0.961 . S
H4047 C4031 0.960 . S
C977 C109 2.194 . S
C985 C346 2.141 . S
C1009 C61 1.773 . S
C1017 C394 1.983 . S
C1041 C74 1.299 . S
C1049 C426 1.324 . S
C1081 C471 1.574 . S
C1073 C96 1.634 . S
C1105 C25 0.804 . S
C1113 C511 0.839 . S
C1145 C546 0.930 . S
C1137 C40 0.944 . S
C1177 C585 1.203 . S
C1169 C46 1.175 . S
C1201 C5 0.853 . S
C1209 C622 1.159 . S
C1241 C354 1.930 . S
C1233 C229 1.612 1_565 S
C1265 C249 0.456 . S
C1273 C391 0.456 . S
C1305 C434 2.274 . S
C1297 C271 2.064 . S
C1337 C466 1.196 . S
C1329 C172 1.143 1_556 S
C1361 C236 1.239 . S
C1369 C506 1.235 . S
C1401 C554 0.574 . S
C1393 C242 0.580 . S
C1433 C595 1.928 1_556 S
C1425 C278 2.005 . S
C1465 C625 2.007 . S
C1457 C179 2.031 . S
C1497 C351 1.286 . S
C1489 C159 0.946 1_556 S
C1521 C285 1.902 . S
C1529 C674 2.059 . S
C1561 C711 1.053 . S
C1553 C333 1.051 . S
C1593 C742 0.592 . S
C1585 C320 0.497 . S
C1617 C123 2.679 . S
C1625 C635 2.647 . S
C1649 C138 1.430 . S
C1657 C431 1.411 . S
C1681 C326 1.780 . S
C1689 C794 1.794 . S
C1721 C826 1.854 . S
C1713 C298 1.759 . S
C1753 C355 2.123 . S
C1745 C67 2.160 . S
C1785 C825 1.892 . S
C1777 C110 1.906 . S
C1809 C88 1.305 . S
C1817 C435 1.312 . S
C1841 C75 1.318 . S
C1849 C782 1.481 . S
C1881 C502 0.803 . S
C1873 C11 0.814 . S
C1905 C47 0.784 . S
C1913 C715 0.940 . S
C1945 C594 1.148 . S
C1937 C32 1.132 . S
C1977 C871 1.207 . S
C1969 C26 1.192 . S
C2009 C345 2.049 . S
C2001 C152 2.028 . S
C2041 C822 0.546 . S
C2033 C319 0.570 . S
C2065 C124 2.288 . S
C2073 C425 2.254 . S
C2097 C284 1.233 . S
C2105 C795 1.218 . S
C2129 C145 0.968 . S
C2137 C515 1.167 . S
C2169 C705 0.515 . S
C2161 C312 0.505 . S
C2193 C117 1.476 . S
C2201 C586 1.726 . S
C2225 C291 1.939 1_556 S
C2233 C874 1.964 . S
C2257 C194 1.498 . S
C2265 C342 1.424 . S
C2289 C180 2.005 . S
C2297 C665 1.983 . S
C2321 C263 0.979 . S
C2329 C542 0.994 . S
C2353 C243 0.658 . S
C2361 C751 0.517 . S
C2393 C866 2.653 . S
C2385 C277 2.689 . S
C2417 C215 1.232 . S
C2425 C422 1.362 . S
C2457 C465 1.677 . S
C2449 C256 1.622 . S
C2489 C395 1.902 . S
C2481 C200 1.936 . S
C2513 C81 2.194 . S
C2521 C906 2.141 . S
C2553 C834 1.979 . S
C2545 C89 1.744 . S
C2577 C102 1.315 . S
C2585 C946 1.323 . S
C2609 C68 1.656 . S
C2617 C791 1.592 . S
C2641 C53 0.859 . S
C2649 C671 0.844 . S
C2681 C706 0.927 . S
C2673 C12 0.895 . S
C2713 C745 1.201 . S
C2705 C18 1.207 . S
C2745 C862 1.160 . S
C2737 C33 0.939 . S
C2777 C914 1.930 . S
C2769 C257 1.612 . S
C2801 C193 0.309 . S
C2809 C831 0.497 . S
C2841 C954 2.278 . S
C2833 C201 2.103 . S
C2873 C786 1.210 . S
C2865 C214 1.191 . S
C2905 C666 1.239 . S
C2897 C264 1.243 . S
C2929 C186 0.589 . S
C2937 C714 0.556 . S
C2969 C755 1.943 . S
C2961 C208 2.004 . S
C2993 C221 2.029 . S
C3001 C865 2.010 . S
C3033 C911 1.306 . S
C3025 C313 0.809 . S
C3057 C131 1.898 . S
C3065 C514 2.054 . S
C3097 C551 1.054 . S
C3089 C151 1.062 1_565 S
C3129 C582 0.538 . S
C3121 C166 0.554 . S
C3161 C875 2.648 . S
C3153 C305 2.680 . S
C3185 C292 1.423 . S
C3193 C951 1.421 . S
C3225 C474 1.801 . S
C3217 C144 1.779 . S
C3257 C386 1.847 . S
C3249 C116 1.782 . S
C3281 C95 2.133 . S
C3289 C915 2.124 . S
C3321 C385 1.896 . S
C3313 C82 1.901 . S
C3345 C60 1.275 . S
C3353 C955 1.312 . S
C3377 C103 1.368 . S
C3385 C462 1.498 . S
C3409 C39 0.776 . S
C3417 C662 0.817 . S
C3449 C555 0.936 . S
C3441 C19 0.917 . S
C3473 C4 1.118 . S
C3481 C754 1.151 . S
C3505 C54 1.199 . S
C3513 C631 1.207 . S
C3545 C905 2.042 . S
C3537 C334 2.037 . S
C3569 C165 0.701 . S
C3577 C382 0.473 . S
C3609 C945 2.270 . S
C3601 C306 2.281 . S
C3633 C130 1.189 . S
C3641 C475 1.222 . S
C3665 C327 0.961 . S
C3673 C675 1.166 . S
C3705 C545 0.514 . S
C3697 C158 0.569 . S
C3729 C299 1.508 . S
C3737 C746 1.736 1_655 S
C3769 C634 1.968 . S
C3761 C137 1.932 . S
C3801 C902 1.423 . S
C3793 C250 1.499 . S
C3833 C505 1.976 1_565 S
C3825 C222 2.011 . S
C3857 C235 1.010 . S
C3865 C702 0.977 . S
C3897 C591 0.529 . S
C3889 C187 0.756 . S
C3921 C207 2.695 . S
C3929 C626 2.650 . S
C3953 C173 1.260 . S
C3961 C942 1.374 . S
C3993 C785 1.679 . S
C3985 C228 1.625 . S
C4025 C835 1.914 . S
C4017 C270 1.925 . S
