# Generated by pormake.
# Topology gar, (4,6)-cn, num edge types: 1
# Building blocks:
#     Node 0, Type 0, BuildingBlock: QUQFOY_clean_sbu_3, # of connection points: 4
#     Node 1, Type 0, BuildingBlock: QUQFOY_clean_sbu_3, # of connection points: 4
#     Node 2, Type 0, BuildingBlock: QUQFOY_clean_sbu_3, # of connection points: 4
#     Node 3, Type 0, BuildingBlock: QUQFOY_clean_sbu_3, # of connection points: 4
#     Node 4, Type 0, BuildingBlock: QUQFOY_clean_sbu_3, # of connection points: 4
#     Node 5, Type 0, BuildingBlock: QUQFOY_clean_sbu_3, # of connection points: 4
#     Node 6, Type 0, BuildingBlock: QUQFOY_clean_sbu_3, # of connection points: 4
#     Node 7, Type 0, BuildingBlock: QUQFOY_clean_sbu_3, # of connection points: 4
#     Node 8, Type 0, BuildingBlock: QUQFOY_clean_sbu_3, # of connection points: 4
#     Node 9, Type 0, BuildingBlock: QUQFOY_clean_sbu_3, # of connection points: 4
#     Node 10, Type 0, BuildingBlock: QUQFOY_clean_sbu_3, # of connection points: 4
#     Node 11, Type 0, BuildingBlock: QUQFOY_clean_sbu_3, # of connection points: 4
#     Node 12, Type 0, BuildingBlock: QUQFOY_clean_sbu_3, # of connection points: 4
#     Node 13, Type 0, BuildingBlock: QUQFOY_clean_sbu_3, # of connection points: 4
#     Node 14, Type 0, BuildingBlock: QUQFOY_clean_sbu_3, # of connection points: 4
#     Node 15, Type 0, BuildingBlock: QUQFOY_clean_sbu_3, # of connection points: 4
#     Node 16, Type 0, BuildingBlock: QUQFOY_clean_sbu_3, # of connection points: 4
#     Node 17, Type 0, BuildingBlock: QUQFOY_clean_sbu_3, # of connection points: 4
#     Node 18, Type 0, BuildingBlock: QUQFOY_clean_sbu_3, # of connection points: 4
#     Node 19, Type 0, BuildingBlock: QUQFOY_clean_sbu_3, # of connection points: 4
#     Node 20, Type 0, BuildingBlock: QUQFOY_clean_sbu_3, # of connection points: 4
#     Node 21, Type 0, BuildingBlock: QUQFOY_clean_sbu_3, # of connection points: 4
#     Node 22, Type 0, BuildingBlock: QUQFOY_clean_sbu_3, # of connection points: 4
#     Node 23, Type 0, BuildingBlock: QUQFOY_clean_sbu_3, # of connection points: 4
#     Node 24, Type 1, BuildingBlock: PAMTUU_clean_sbu_0, # of connection points: 6
#     Node 25, Type 1, BuildingBlock: PAMTUU_clean_sbu_0, # of connection points: 6
#     Node 26, Type 1, BuildingBlock: PAMTUU_clean_sbu_0, # of connection points: 6
#     Node 27, Type 1, BuildingBlock: PAMTUU_clean_sbu_0, # of connection points: 6
#     Node 28, Type 1, BuildingBlock: PAMTUU_clean_sbu_0, # of connection points: 6
#     Node 29, Type 1, BuildingBlock: PAMTUU_clean_sbu_0, # of connection points: 6
#     Node 30, Type 1, BuildingBlock: PAMTUU_clean_sbu_0, # of connection points: 6
#     Node 31, Type 1, BuildingBlock: PAMTUU_clean_sbu_0, # of connection points: 6
#     Node 32, Type 1, BuildingBlock: PAMTUU_clean_sbu_0, # of connection points: 6
#     Node 33, Type 1, BuildingBlock: PAMTUU_clean_sbu_0, # of connection points: 6
#     Node 34, Type 1, BuildingBlock: PAMTUU_clean_sbu_0, # of connection points: 6
#     Node 35, Type 1, BuildingBlock: PAMTUU_clean_sbu_0, # of connection points: 6
#     Node 36, Type 1, BuildingBlock: PAMTUU_clean_sbu_0, # of connection points: 6
#     Node 37, Type 1, BuildingBlock: PAMTUU_clean_sbu_0, # of connection points: 6
#     Node 38, Type 1, BuildingBlock: PAMTUU_clean_sbu_0, # of connection points: 6
#     Node 39, Type 1, BuildingBlock: PAMTUU_clean_sbu_0, # of connection points: 6
#     Edge 40, Type (0, 1), BuildingBlock: AJUNOK_clean_linker_0, # of connection points: 2
#     Edge 41, Type (0, 1), BuildingBlock: AJUNOK_clean_linker_0, # of connection points: 2
#     Edge 42, Type (0, 1), BuildingBlock: AJUNOK_clean_linker_0, # of connection points: 2
#     Edge 43, Type (0, 1), BuildingBlock: AJUNOK_clean_linker_0, # of connection points: 2
#     Edge 44, Type (0, 1), BuildingBlock: AJUNOK_clean_linker_0, # of connection points: 2
#     Edge 45, Type (0, 1), BuildingBlock: AJUNOK_clean_linker_0, # of connection points: 2
#     Edge 46, Type (0, 1), BuildingBlock: AJUNOK_clean_linker_0, # of connection points: 2
#     Edge 47, Type (0, 1), BuildingBlock: AJUNOK_clean_linker_0, # of connection points: 2
#     Edge 48, Type (0, 1), BuildingBlock: AJUNOK_clean_linker_0, # of connection points: 2
#     Edge 49, Type (0, 1), BuildingBlock: AJUNOK_clean_linker_0, # of connection points: 2
#     Edge 50, Type (0, 1), BuildingBlock: AJUNOK_clean_linker_0, # of connection points: 2
#     Edge 51, Type (0, 1), BuildingBlock: AJUNOK_clean_linker_0, # of connection points: 2
#     Edge 52, Type (0, 1), BuildingBlock: AJUNOK_clean_linker_0, # of connection points: 2
#     Edge 53, Type (0, 1), BuildingBlock: AJUNOK_clean_linker_0, # of connection points: 2
#     Edge 54, Type (0, 1), BuildingBlock: AJUNOK_clean_linker_0, # of connection points: 2
#     Edge 55, Type (0, 1), BuildingBlock: AJUNOK_clean_linker_0, # of connection points: 2
#     Edge 56, Type (0, 1), BuildingBlock: AJUNOK_clean_linker_0, # of connection points: 2
#     Edge 57, Type (0, 1), BuildingBlock: AJUNOK_clean_linker_0, # of connection points: 2
#     Edge 58, Type (0, 1), BuildingBlock: AJUNOK_clean_linker_0, # of connection points: 2
#     Edge 59, Type (0, 1), BuildingBlock: AJUNOK_clean_linker_0, # of connection points: 2
#     Edge 60, Type (0, 1), BuildingBlock: AJUNOK_clean_linker_0, # of connection points: 2
#     Edge 61, Type (0, 1), BuildingBlock: AJUNOK_clean_linker_0, # of connection points: 2
#     Edge 62, Type (0, 1), BuildingBlock: AJUNOK_clean_linker_0, # of connection points: 2
#     Edge 63, Type (0, 1), BuildingBlock: AJUNOK_clean_linker_0, # of connection points: 2
#     Edge 64, Type (0, 1), BuildingBlock: AJUNOK_clean_linker_0, # of connection points: 2
#     Edge 65, Type (0, 1), BuildingBlock: AJUNOK_clean_linker_0, # of connection points: 2
#     Edge 66, Type (0, 1), BuildingBlock: AJUNOK_clean_linker_0, # of connection points: 2
#     Edge 67, Type (0, 1), BuildingBlock: AJUNOK_clean_linker_0, # of connection points: 2
#     Edge 68, Type (0, 1), BuildingBlock: AJUNOK_clean_linker_0, # of connection points: 2
#     Edge 69, Type (0, 1), BuildingBlock: AJUNOK_clean_linker_0, # of connection points: 2
#     Edge 70, Type (0, 1), BuildingBlock: AJUNOK_clean_linker_0, # of connection points: 2
#     Edge 71, Type (0, 1), BuildingBlock: AJUNOK_clean_linker_0, # of connection points: 2
#     Edge 72, Type (0, 1), BuildingBlock: AJUNOK_clean_linker_0, # of connection points: 2
#     Edge 73, Type (0, 1), BuildingBlock: AJUNOK_clean_linker_0, # of connection points: 2
#     Edge 74, Type (0, 1), BuildingBlock: AJUNOK_clean_linker_0, # of connection points: 2
#     Edge 75, Type (0, 1), BuildingBlock: AJUNOK_clean_linker_0, # of connection points: 2
#     Edge 76, Type (0, 1), BuildingBlock: AJUNOK_clean_linker_0, # of connection points: 2
#     Edge 77, Type (0, 1), BuildingBlock: AJUNOK_clean_linker_0, # of connection points: 2
#     Edge 78, Type (0, 1), BuildingBlock: AJUNOK_clean_linker_0, # of connection points: 2
#     Edge 79, Type (0, 1), BuildingBlock: AJUNOK_clean_linker_0, # of connection points: 2
#     Edge 80, Type (0, 1), BuildingBlock: AJUNOK_clean_linker_0, # of connection points: 2
#     Edge 81, Type (0, 1), BuildingBlock: AJUNOK_clean_linker_0, # of connection points: 2
#     Edge 82, Type (0, 1), BuildingBlock: AJUNOK_clean_linker_0, # of connection points: 2
#     Edge 83, Type (0, 1), BuildingBlock: AJUNOK_clean_linker_0, # of connection points: 2
#     Edge 84, Type (0, 1), BuildingBlock: AJUNOK_clean_linker_0, # of connection points: 2
#     Edge 85, Type (0, 1), BuildingBlock: AJUNOK_clean_linker_0, # of connection points: 2
#     Edge 86, Type (0, 1), BuildingBlock: AJUNOK_clean_linker_0, # of connection points: 2
#     Edge 87, Type (0, 1), BuildingBlock: AJUNOK_clean_linker_0, # of connection points: 2
#     Edge 88, Type (0, 1), BuildingBlock: AJUNOK_clean_linker_0, # of connection points: 2
#     Edge 89, Type (0, 1), BuildingBlock: AJUNOK_clean_linker_0, # of connection points: 2
#     Edge 90, Type (0, 1), BuildingBlock: AJUNOK_clean_linker_0, # of connection points: 2
#     Edge 91, Type (0, 1), BuildingBlock: AJUNOK_clean_linker_0, # of connection points: 2
#     Edge 92, Type (0, 1), BuildingBlock: AJUNOK_clean_linker_0, # of connection points: 2
#     Edge 93, Type (0, 1), BuildingBlock: AJUNOK_clean_linker_0, # of connection points: 2
#     Edge 94, Type (0, 1), BuildingBlock: AJUNOK_clean_linker_0, # of connection points: 2
#     Edge 95, Type (0, 1), BuildingBlock: AJUNOK_clean_linker_0, # of connection points: 2
#     Edge 96, Type (0, 1), BuildingBlock: AJUNOK_clean_linker_0, # of connection points: 2
#     Edge 97, Type (0, 1), BuildingBlock: AJUNOK_clean_linker_0, # of connection points: 2
#     Edge 98, Type (0, 1), BuildingBlock: AJUNOK_clean_linker_0, # of connection points: 2
#     Edge 99, Type (0, 1), BuildingBlock: AJUNOK_clean_linker_0, # of connection points: 2
#     Edge 100, Type (0, 1), BuildingBlock: AJUNOK_clean_linker_0, # of connection points: 2
#     Edge 101, Type (0, 1), BuildingBlock: AJUNOK_clean_linker_0, # of connection points: 2
#     Edge 102, Type (0, 1), BuildingBlock: AJUNOK_clean_linker_0, # of connection points: 2
#     Edge 103, Type (0, 1), BuildingBlock: AJUNOK_clean_linker_0, # of connection points: 2
#     Edge 104, Type (0, 1), BuildingBlock: AJUNOK_clean_linker_0, # of connection points: 2
#     Edge 105, Type (0, 1), BuildingBlock: AJUNOK_clean_linker_0, # of connection points: 2
#     Edge 106, Type (0, 1), BuildingBlock: AJUNOK_clean_linker_0, # of connection points: 2
#     Edge 107, Type (0, 1), BuildingBlock: AJUNOK_clean_linker_0, # of connection points: 2
#     Edge 108, Type (0, 1), BuildingBlock: AJUNOK_clean_linker_0, # of connection points: 2
#     Edge 109, Type (0, 1), BuildingBlock: AJUNOK_clean_linker_0, # of connection points: 2
#     Edge 110, Type (0, 1), BuildingBlock: AJUNOK_clean_linker_0, # of connection points: 2
#     Edge 111, Type (0, 1), BuildingBlock: AJUNOK_clean_linker_0, # of connection points: 2
#     Edge 112, Type (0, 1), BuildingBlock: AJUNOK_clean_linker_0, # of connection points: 2
#     Edge 113, Type (0, 1), BuildingBlock: AJUNOK_clean_linker_0, # of connection points: 2
#     Edge 114, Type (0, 1), BuildingBlock: AJUNOK_clean_linker_0, # of connection points: 2
#     Edge 115, Type (0, 1), BuildingBlock: AJUNOK_clean_linker_0, # of connection points: 2
#     Edge 116, Type (0, 1), BuildingBlock: AJUNOK_clean_linker_0, # of connection points: 2
#     Edge 117, Type (0, 1), BuildingBlock: AJUNOK_clean_linker_0, # of connection points: 2
#     Edge 118, Type (0, 1), BuildingBlock: AJUNOK_clean_linker_0, # of connection points: 2
#     Edge 119, Type (0, 1), BuildingBlock: AJUNOK_clean_linker_0, # of connection points: 2
#     Edge 120, Type (0, 1), BuildingBlock: AJUNOK_clean_linker_0, # of connection points: 2
#     Edge 121, Type (0, 1), BuildingBlock: AJUNOK_clean_linker_0, # of connection points: 2
#     Edge 122, Type (0, 1), BuildingBlock: AJUNOK_clean_linker_0, # of connection points: 2
#     Edge 123, Type (0, 1), BuildingBlock: AJUNOK_clean_linker_0, # of connection points: 2
#     Edge 124, Type (0, 1), BuildingBlock: AJUNOK_clean_linker_0, # of connection points: 2
#     Edge 125, Type (0, 1), BuildingBlock: AJUNOK_clean_linker_0, # of connection points: 2
#     Edge 126, Type (0, 1), BuildingBlock: AJUNOK_clean_linker_0, # of connection points: 2
#     Edge 127, Type (0, 1), BuildingBlock: AJUNOK_clean_linker_0, # of connection points: 2
#     Edge 128, Type (0, 1), BuildingBlock: AJUNOK_clean_linker_0, # of connection points: 2
#     Edge 129, Type (0, 1), BuildingBlock: AJUNOK_clean_linker_0, # of connection points: 2
#     Edge 130, Type (0, 1), BuildingBlock: AJUNOK_clean_linker_0, # of connection points: 2
#     Edge 131, Type (0, 1), BuildingBlock: AJUNOK_clean_linker_0, # of connection points: 2
#     Edge 132, Type (0, 1), BuildingBlock: AJUNOK_clean_linker_0, # of connection points: 2
#     Edge 133, Type (0, 1), BuildingBlock: AJUNOK_clean_linker_0, # of connection points: 2
#     Edge 134, Type (0, 1), BuildingBlock: AJUNOK_clean_linker_0, # of connection points: 2
#     Edge 135, Type (0, 1), BuildingBlock: AJUNOK_clean_linker_0, # of connection points: 2
# Relax obj value: 0.223
# Max RMSD: 0.372
# Mean RMSD: 0.170
data_MOF--net-gar--node1-QUQFOY_clean_sbu_3--node2-PAMTUU_clean_sbu_0--edge1-AJUNOK_clean_linker_0
_symmetry_space_group_name_H-M    P1
_symmetry_Int_Tables_number       1
_symmetry_cell_setting            triclinic
loop_
_symmetry_equiv_pos_as_xyz
'x, y, z'
_cell_length_a     46.098148
_cell_length_b     43.327654
_cell_length_c     46.212128
_cell_angle_alpha  94.631611
_cell_angle_beta   94.487912
_cell_angle_gamma 108.01591
loop_
_atom_site_label
_atom_site_type_symbol
_atom_site_fract_x
_atom_site_fract_y
_atom_site_fract_z
_atom_type_partial_charge
C0 C 1.01417 0.31878 0.37078 0.0
O1 O 0.03583 0.33893 0.36016 0.0
Cd2 Cd 0.08408 0.34176 0.38934 0.0
O3 O 0.02322 0.3029 0.39078 0.0
Cd4 Cd 0.08548 0.30718 0.41756 0.0
C5 C 0.09108 0.39321 0.4451 0.0
O6 O 0.12034 0.31396 0.36998 0.0
O7 O 0.14721 0.32404 0.41062 0.0
O8 O 0.06959 0.24235 0.42576 0.0
C9 C 0.14747 0.31969 0.38298 0.0
O10 O 0.09747 0.39585 0.41897 0.0
C11 C 0.07966 0.24361 0.45258 0.0
O12 O 0.08484 0.36387 0.45281 0.0
O13 O 0.09172 0.27322 0.46396 0.0
C14 C 1.00829 0.81662 0.73175 0.0
O15 O 1.01836 0.79348 0.7379 0.0
Cd16 Cd 0.06526 0.79878 0.71097 0.0
O17 O 0.02518 0.83635 0.71509 0.0
Cd18 Cd 0.08188 0.83755 0.68736 0.0
C19 C 0.06793 0.74967 0.65805 0.0
O20 O 0.11948 0.82567 0.73321 0.0
O21 O 0.14228 0.84666 0.69788 0.0
O22 O 0.08947 0.90131 0.67918 0.0
C23 C 0.14524 0.8357 0.72236 0.0
O24 O 0.06305 0.74642 0.68445 0.0
C25 C 0.08693 0.89991 0.6513 0.0
O26 O 0.07322 0.77906 0.65056 0.0
O27 O 0.08307 0.87093 0.63961 0.0
C28 C 0.51813 0.81949 0.87019 0.0
O29 O 0.53981 0.83976 0.85965 0.0
Cd30 Cd 0.58663 0.84612 0.89342 0.0
O31 O 0.52731 0.80458 0.89095 0.0
Cd32 Cd 0.58982 0.81074 0.91848 0.0
C33 C 0.59403 0.89762 0.94779 0.0
O34 O 0.6333 0.83559 0.87718 0.0
O35 O 0.64196 0.8001 0.90206 0.0
O36 O 0.57398 0.74659 0.92912 0.0
C37 C 0.65133 0.81871 0.88245 0.0
O38 O 0.59455 0.89995 0.92066 0.0
C39 C 0.58297 0.74914 0.95639 0.0
O40 O 0.59297 0.86901 0.95558 0.0
O41 O 0.59418 0.77918 0.967 0.0
C42 C 0.50587 0.31838 0.23537 0.0
O43 O 0.51576 0.29498 0.24104 0.0
Cd44 Cd 0.56268 0.30007 0.21407 0.0
O45 O 0.52283 0.3383 0.21885 0.0
Cd46 Cd 0.57962 0.34001 0.19063 0.0
C47 C 0.56725 0.25188 0.1604 0.0
O48 O 0.61667 0.32888 0.23693 0.0
O49 O 0.63967 0.34874 0.20126 0.0
O50 O 0.58869 0.40451 0.18347 0.0
C51 C 0.64248 0.33852 0.22611 0.0
O52 O 0.56074 0.24806 0.18634 0.0
C53 C 0.58485 0.40342 0.15565 0.0
O54 O 0.57344 0.28164 0.15349 0.0
O55 O 0.57959 0.37431 0.14354 0.0
C56 C 0.08567 0.80206 0.20069 0.0
O57 O 0.10391 0.78895 0.21274 0.0
Cd58 Cd 0.15106 0.78652 0.198 0.0
O59 O 0.09141 0.81609 0.17749 0.0
Cd60 Cd 0.13373 0.83074 0.14415 0.0
C61 C 0.12567 0.74703 0.12743 0.0
O62 O 0.17022 0.84043 0.18673 0.0
O63 O 0.19252 0.84203 0.14805 0.0
O64 O 0.12465 0.88541 0.14438 0.0
C65 C 0.19505 0.84414 0.17581 0.0
O66 O 0.13778 0.74829 0.15344 0.0
C67 C 0.11963 0.88566 0.11699 0.0
O68 O 0.11973 0.772 0.11843 0.0
O69 O 0.12206 0.86101 0.10155 0.0
C70 C 0.47499 0.77779 0.39329 0.0
O71 O 0.49583 0.79734 0.38123 0.0
Cd72 Cd 0.54755 0.82279 0.3982 0.0
O73 O 0.48104 0.7687 0.41838 0.0
Cd74 Cd 0.53198 0.77909 0.45423 0.0
C75 C 0.54227 0.86278 0.46592 0.0
O76 O 0.56047 0.77794 0.41305 0.0
O77 O 0.58918 0.80078 0.45224 0.0
O78 O 0.51816 0.71896 0.4609 0.0
C79 C 0.58733 0.7901 0.4256 0.0
O80 O 0.54848 0.86176 0.43955 0.0
C81 C 0.53263 0.72196 0.48606 0.0
O82 O 0.53362 0.83617 0.47805 0.0
O83 O 0.54431 0.75122 0.49797 0.0
C84 C 0.58789 0.30861 0.69548 0.0
O85 O 0.6055 0.29511 0.70806 0.0
Cd86 Cd 0.65463 0.29505 0.69719 0.0
O87 O 0.59573 0.32441 0.67359 0.0
Cd88 Cd 0.64041 0.34047 0.64311 0.0
C89 C 0.63366 0.25716 0.6258 0.0
O90 O 0.67534 0.34909 0.68683 0.0
O91 O 0.69878 0.35045 0.6488 0.0
O92 O 0.63139 0.39519 0.64439 0.0
C93 C 0.7004 0.35195 0.6765 0.0
O94 O 0.6445 0.25821 0.65222 0.0
C95 C 0.62879 0.39726 0.6171 0.0
O96 O 0.6275 0.28193 0.61652 0.0
O97 O 0.63242 0.3735 0.60127 0.0
C98 C 0.96621 0.26786 0.89776 0.0
O99 O 0.98743 0.28643 0.88536 0.0
Cd100 Cd 0.03967 0.31121 0.90125 0.0
O101 O 0.97189 0.25879 0.92288 0.0
Cd102 Cd 0.02227 0.2674 0.95769 0.0
C103 C 0.03642 0.35216 0.96899 0.0
O104 O 0.05252 0.26754 0.9183 0.0
O105 O 0.07967 0.29095 0.95847 0.0
O106 O 1.02213 0.20994 0.95788 0.0
C107 C 0.07886 0.27995 0.932 0.0
O108 O 0.04227 0.35083 0.94251 0.0
C109 C 1.02175 0.20733 0.98495 0.0
O110 O 0.02696 0.32569 0.98125 0.0
O111 O 1.01932 0.23198 1.00047 0.0
C112 C 0.51305 0.07415 0.37871 0.0
O113 O 0.52599 0.06784 0.35675 0.0
Cd114 Cd 0.49874 0.04746 0.3094 0.0
O115 O 0.48438 0.07009 0.37633 0.0
Cd116 Cd 0.43864 0.0547 0.34141 0.0
C117 C 0.44122 0.97946 0.32626 0.0
O118 O 0.46559 0.07903 0.30311 0.0
O119 O 0.41918 0.04912 0.28959 0.0
O120 O 0.4282 0.09959 0.36589 0.0
C121 C 0.4444 0.06696 0.28245 0.0
O122 O 0.46441 0.99225 0.31284 0.0
C123 C 0.39931 0.08635 0.36385 0.0
O124 O 0.42903 0.99707 0.34127 0.0
O125 O 0.38877 0.05632 0.35405 0.0
C126 C 0.36328 0.19684 0.5657 0.0
O127 O 0.34256 0.17976 0.57964 0.0
Cd128 Cd 0.29221 0.18105 0.58328 0.0
O129 O 0.3592 0.21974 0.55164 0.0
Cd130 Cd 0.31721 0.24601 0.54294 0.0
C131 C 0.31312 0.25894 0.62014 0.0
O132 O 0.27899 0.1935 0.53678 0.0
O133 O 0.25979 0.23241 0.54268 0.0
O134 O 0.32433 0.24187 0.48987 0.0
C135 C 0.25525 0.20192 0.53782 0.0
O136 O 0.29981 0.22825 0.61823 0.0
C137 C 0.3277 0.27098 0.48457 0.0
O138 O 0.32418 0.27263 0.59776 0.0
O139 O 0.32759 0.29048 0.50681 0.0
C140 C 0.16058 0.05494 0.9047 0.0
O141 O 0.14551 0.06581 0.88614 0.0
Cd142 Cd 0.15359 0.08192 0.83871 0.0
O143 O 0.18598 0.05072 0.89969 0.0
Cd144 Cd 0.21592 0.05891 0.85699 0.0
C145 C 0.22529 0.13903 0.85263 0.0
O146 O 0.17369 0.04269 0.8186 0.0
O147 O 0.21822 0.06286 0.8047 0.0
O148 O 0.2344 1.01237 0.85671 0.0
C149 C 0.18947 0.05281 0.79808 0.0
O150 O 0.19703 0.13172 0.84315 0.0
C151 C 0.2626 0.02957 0.86016 0.0
O152 O 0.23666 0.11779 0.86161 0.0
O153 O 0.2686 0.06026 0.86505 0.0
C154 C 0.3926 0.02297 0.99764 0.0
O155 O 0.38039 0.04078 0.98381 0.0
Cd156 Cd 0.32559 0.02381 0.97595 0.0
O157 O 0.37593 0.99736 0.00706 0.0
Cd158 Cd 0.32427 0.9633 0.01204 0.0
C159 C 0.31037 0.94852 0.93819 0.0
O160 O 0.31332 1.01261 0.02503 0.0
O161 O 0.27536 0.96849 0.02541 0.0
O162 O 0.35323 0.95538 0.05518 0.0
C163 C 0.28633 0.9993 0.03109 0.0
O164 O 0.31331 0.97852 0.93681 0.0
C165 C 0.3397 0.92498 0.05441 0.0
O166 O 0.31322 0.9377 0.96261 0.0
O167 O 0.31794 0.91223 0.03412 0.0
C168 C 0.39679 0.45728 0.04569 0.0
O169 O 0.37844 0.46841 0.03128 0.0
Cd170 Cd 0.32485 0.44853 0.02246 0.0
O171 O 0.38699 0.4319 0.05925 0.0
Cd172 Cd 0.33427 0.39052 0.06513 0.0
C173 C 0.32621 0.375 0.98702 0.0
O174 O 0.31043 0.43182 0.06751 0.0
O175 O 0.27815 0.38418 0.05506 0.0
O176 O 0.34797 0.39749 0.12002 0.0
C177 C 0.28275 0.41441 0.06183 0.0
O178 O 0.32034 0.4019 0.98767 0.0
C179 C 0.33491 0.36836 0.12522 0.0
O180 O 0.33395 0.36458 0.01098 0.0
O181 O 0.32366 0.34808 0.10244 0.0
C182 C 0.87578 0.11703 0.09216 0.0
O183 O 0.86697 0.10623 0.11576 0.0
Cd184 Cd 0.82712 0.12035 0.13784 0.0
O185 O 0.86623 0.13883 0.08178 0.0
Cd186 Cd 0.83119 0.16896 0.09438 0.0
C187 C 0.85093 0.20075 0.16343 0.0
O188 O 0.78825 0.1199 0.10005 0.0
O189 O 0.78318 0.16724 0.11174 0.0
O190 O 0.8141 0.16522 0.04286 0.0
C191 C 0.77083 0.13673 0.10561 0.0
O192 O 0.84027 0.17117 0.16838 0.0
C193 C 0.82011 0.19553 0.04126 0.0
O194 O 0.85524 0.20797 0.13762 0.0
O195 O 0.83321 0.21428 0.06429 0.0
C196 C 0.13194 0.56792 0.27927 0.0
O197 O 0.11563 0.57071 0.25676 0.0
Cd198 Cd 0.12521 0.55658 0.20841 0.0
O199 O 0.15338 0.55535 0.27722 0.0
Cd200 Cd 0.18027 0.53041 0.24387 0.0
C201 C 0.20075 0.60555 0.21845 0.0
O202 O 0.13412 0.50595 0.21457 0.0
O203 O 0.17162 0.49496 0.19677 0.0
O204 O 0.19312 0.50223 0.28439 0.0
C205 C 0.14362 0.49345 0.1932 0.0
O206 O 0.17345 0.60145 0.20731 0.0
C207 C 0.22116 0.50968 0.27958 0.0
O208 O 0.20722 0.58351 0.23159 0.0
O209 O 0.22881 0.52476 0.25752 0.0
C210 C 0.89485 0.96019 0.55293 0.0
O211 O 0.87675 0.97299 0.54025 0.0
Cd212 Cd 0.82453 0.94834 0.52447 0.0
O213 O 0.88494 0.93119 0.5606 0.0
Cd214 Cd 0.83302 0.88599 0.56149 0.0
C215 C 0.83028 0.87818 0.48371 0.0
O216 O 0.80771 0.92556 0.56654 0.0
O217 O 0.77635 0.87837 0.55071 0.0
O218 O 0.84739 0.89151 0.61579 0.0
C219 C 0.78029 0.908 0.5596 0.0
O220 O 0.82539 0.90558 0.4871 0.0
C221 C 0.83435 0.86231 0.62074 0.0
O222 O 0.83537 0.86418 0.50642 0.0
O223 O 0.82264 0.84232 0.59785 0.0
C224 C 0.03239 0.07331 0.28034 0.0
O225 O 0.03902 0.06072 0.25705 0.0
Cd226 Cd 1.00555 0.04409 0.21331 0.0
O227 O 1.00717 0.07979 0.28079 0.0
Cd228 Cd 0.96121 0.07606 0.24669 0.0
C229 C 0.94494 0.99398 0.2428 0.0
O230 O 0.98909 0.09081 0.20656 0.0
O231 O 0.94127 0.06642 0.19368 0.0
O232 O 0.952 0.12608 0.26702 0.0
C233 C 0.96735 0.08164 0.18628 0.0
O234 O 0.96637 0.99526 0.22667 0.0
C235 C 0.92473 0.11112 0.27204 0.0
O236 O 0.93985 0.01976 0.25266 0.0
O237 O 0.91506 0.08045 0.26527 0.0
C238 C 0.3664 0.60001 0.5928 0.0
O239 O 0.34969 0.58648 0.61168 0.0
Cd240 Cd 0.30878 0.60306 0.62789 0.0
O241 O 0.36325 0.62542 0.58263 0.0
Cd242 Cd 0.32762 0.65793 0.5886 0.0
C243 C 0.33633 0.68249 0.65961 0.0
O244 O 0.28189 0.61017 0.58424 0.0
O245 O 0.27638 0.65594 0.60042 0.0
O246 O 0.32092 0.6611 0.53658 0.0
C247 C 0.26412 0.62635 0.59007 0.0
O248 O 0.32242 0.6525 0.66141 0.0
C249 C 0.32827 0.69189 0.5378 0.0
O250 O 0.34556 0.6918 0.63554 0.0
O251 O 0.33743 0.70771 0.56292 0.0
C252 C 0.50667 0.55946 0.7798 0.0
O253 O 0.52015 0.55167 0.75881 0.0
Cd254 Cd 0.49485 0.53895 0.71065 0.0
O255 O 0.48123 0.56505 0.77504 0.0
Cd256 Cd 0.44347 0.56876 0.7354 0.0
C257 C 0.42744 0.48732 0.72951 0.0
O258 O 0.48051 0.58682 0.70289 0.0
O259 O 0.43439 0.56913 0.68176 0.0
O260 O 0.43624 0.61394 0.76559 0.0
C261 C 0.46275 0.58192 0.6796 0.0
O262 O 0.45271 0.48973 0.71901 0.0
C263 C 0.40711 0.60293 0.76091 0.0
O264 O 0.41991 0.5124 0.73659 0.0
O265 O 0.39541 0.57722 0.74327 0.0
C266 C 0.6375 0.07239 0.78572 0.0
O267 O 0.62106 0.07642 0.76387 0.0
Cd268 Cd 0.6271 0.06233 0.71444 0.0
O269 O 0.6582 0.05891 0.78287 0.0
Cd270 Cd 0.68355 0.03519 0.74709 0.0
C271 C 0.70227 0.11163 0.72398 0.0
O272 O 0.63692 1.01181 0.71796 0.0
O273 O 0.67421 1.0012 0.69932 0.0
O274 O 0.69675 1.00475 0.78553 0.0
C275 C 0.64629 1.00002 0.69609 0.0
O276 O 0.67464 0.10749 0.7139 0.0
C277 C 0.72473 1.01256 0.78047 0.0
O278 O 0.7098 0.08941 0.73592 0.0
O279 O 0.73228 0.0291 0.75922 0.0
C280 C 0.86297 0.69298 0.06311 0.0
O281 O 0.84238 0.67745 0.07805 0.0
Cd282 Cd 0.79241 0.67974 0.08222 0.0
O283 O 0.85919 0.71517 0.04788 0.0
Cd284 Cd 0.81823 0.74254 0.03828 0.0
C285 C 0.81482 0.7593 0.11561 0.0
O286 O 0.77983 0.69054 0.035 0.0
O287 O 0.76086 0.72971 0.03487 0.0
O288 O 0.82758 0.73868 0.98527 0.0
C289 C 0.75611 0.69916 0.03387 0.0
O290 O 0.80154 0.72877 0.11535 0.0
C291 C 0.82973 0.76765 0.98031 0.0
O292 O 0.82519 0.77146 0.09236 0.0
O293 O 0.82782 0.78623 1.00249 0.0
C294 C 0.99986 0.58502 0.88376 0.0
O295 O 1.01226 0.57664 0.86219 0.0
Cd296 Cd 0.98693 0.55356 0.81484 0.0
O297 O 0.97157 0.58298 0.88107 0.0
Cd298 Cd 0.92786 0.56734 0.8426 0.0
C299 C 0.9285 0.4902 0.83582 0.0
O300 O 0.95502 0.58458 0.80129 0.0
O301 O 0.90982 0.55025 0.79067 0.0
O302 O 0.90797 0.61123 0.85723 0.0
C303 C 0.9344 0.56721 0.78172 0.0
O304 O 0.95186 0.49976 0.82178 0.0
C305 C 0.88103 0.5925 0.8593 0.0
O306 O 0.91728 0.51057 0.84808 0.0
O307 O 0.87641 0.562 0.85468 0.0
C308 C 0.8835 0.52262 0.5041 0.0
O309 O 0.87029 0.53802 0.48825 0.0
Cd310 Cd 0.81488 0.51959 0.48225 0.0
O311 O 0.86792 0.49815 0.51575 0.0
Cd312 Cd 0.81762 0.46255 0.52261 0.0
C313 C 0.80142 0.44244 0.44891 0.0
O314 O 0.80332 0.51103 0.53187 0.0
O315 O 0.76979 0.4659 0.53988 0.0
O316 O 0.85008 0.45833 0.56483 0.0
C317 C 0.77762 0.49675 0.54031 0.0
O318 O 0.80222 0.47167 0.44622 0.0
C319 C 0.83726 0.42805 0.56589 0.0
O320 O 0.80621 0.43369 0.47395 0.0
O321 O 0.81433 0.41377 0.54713 0.0
C322 C 0.66329 0.57599 0.40814 0.0
O323 O 0.64625 0.59214 0.39893 0.0
Cd324 Cd 0.62798 0.60416 0.3521 0.0
O325 O 0.6768 0.56181 0.39101 0.0
Cd326 Cd 0.68243 0.56225 0.33845 0.0
C327 C 0.69711 0.64731 0.33438 0.0
O328 O 0.63261 0.55986 0.32323 0.0
O329 O 0.64489 0.52367 0.29795 0.0
O330 O 0.71318 0.52588 0.34139 0.0
C331 C 0.62511 0.53793 0.30205 0.0
O332 O 0.67059 0.64737 0.34011 0.0
C333 C 0.7309 0.53957 0.32307 0.0
O334 O 0.70438 0.62115 0.33359 0.0
O335 O 0.72576 0.56367 0.31224 0.0
Tb336 Tb 0.09478 0.06964 0.06965 0.0
Tb337 Tb 0.03479 0.018 0.03231 0.0
C338 C 0.02979 0.05599 0.09077 0.0
C339 C 0.17268 0.1001 0.10271 0.0
C340 C 0.21895 0.07301 0.0909 0.0
C341 C 0.19681 0.0583 0.10903 0.0
C342 C 0.17379 0.07172 0.11491 0.0
C343 C 0.19713 0.11704 0.08787 0.0
C344 C 0.21997 0.10341 0.08171 0.0
C345 C 0.1433 0.1067 0.09815 0.0
O346 O 0.09029 0.02205 0.08603 0.0
O347 O 0.06256 0.98769 0.0463 0.0
O348 O 0.06908 0.03403 1.0029 0.0
O349 O 0.11215 0.04608 0.03488 0.0
O350 O 0.99453 0.97784 0.02988 0.0
O351 O 1.009 1.00047 0.99143 0.0
O352 O 0.02764 0.06587 0.03006 0.0
O353 O 0.07803 0.09788 0.03857 0.0
O354 O 0.05614 0.078 0.08866 0.0
O355 O 1.02158 0.02732 0.0754 0.0
C356 C 0.08077 0.99288 0.07088 0.0
O357 O 0.1351 0.10911 0.07098 0.0
O358 O 0.12042 0.0885 0.11043 0.0
C359 C 0.09846 0.03853 0.00821 0.0
C360 C 0.95812 0.99314 1.00132 0.0
C361 C 0.92286 0.03099 0.02161 0.0
C362 C 0.94269 0.04184 1.00043 0.0
C363 C 0.95982 0.0228 0.98996 0.0
C364 C 0.93488 0.98017 0.01901 0.0
C365 C 0.91745 0.99911 0.02926 0.0
C366 C 0.98582 0.98287 1.0036 0.0
C367 C 0.04918 0.09405 0.0294 0.0
H368 H 0.1959 0.03508 0.11673 0.0
H369 H 0.15541 0.05813 0.12663 0.0
H370 H 0.19675 0.13893 0.07824 0.0
H371 H 0.23663 0.11514 0.06747 0.0
H372 H 0.94738 0.06632 0.99416 0.0
H373 H 0.97713 0.03341 0.97589 0.0
H374 H 0.93282 0.95726 0.02784 0.0
H375 H 0.90168 0.98997 0.04511 0.0
Tb376 Tb 0.30752 0.78805 0.30837 0.0
Tb377 Tb 0.34696 0.78489 0.25275 0.0
C378 C 0.29012 0.81312 0.24909 0.0
C379 C 0.28603 0.77205 0.38069 0.0
C380 C 0.30189 0.74933 0.43328 0.0
C381 C 0.29131 0.77655 0.43379 0.0
C382 C 0.28352 0.78789 0.40763 0.0
C383 C 0.29658 0.74487 0.3803 0.0
C384 C 0.3044 0.73369 0.40623 0.0
C385 C 0.2791 0.78431 0.35296 0.0
O386 O 0.28042 0.75056 0.27419 0.0
O387 O 0.31985 0.73566 0.25808 0.0
O388 O 0.37572 0.77857 0.2903 0.0
O389 O 0.3392 0.76203 0.32188 0.0
O390 O 0.34714 0.76586 0.20951 0.0
O391 O 0.38828 0.7994 0.23369 0.0
O392 O 0.35718 0.83546 0.26923 0.0
O393 O 0.34983 0.82871 0.31686 0.0
O394 O 0.29099 0.81657 0.27786 0.0
O395 O 0.30695 0.79786 0.23578 0.0
C396 C 0.29052 0.7293 0.26002 0.0
O397 O 0.299 0.81127 0.34725 0.0
O398 O 0.27093 0.76248 0.33023 0.0
C399 C 0.36734 0.76716 0.31499 0.0
C400 C 0.3765 0.80768 0.1851 0.0
C401 C 0.37112 0.84704 0.14077 0.0
C402 C 0.37455 0.81624 0.13381 0.0
C403 C 0.37732 0.7967 0.1559 0.0
C404 C 0.37346 0.83862 0.19201 0.0
C405 C 0.37093 0.85815 0.17009 0.0
C406 C 0.37463 0.78566 0.20793 0.0
C407 C 0.36339 0.84617 0.297 0.0
H408 H 0.28861 0.78872 0.45432 0.0
H409 H 0.27554 0.80895 0.40842 0.0
H410 H 0.29915 0.73233 0.3599 0.0
H411 H 0.31278 0.7129 0.40511 0.0
H412 H 0.37455 0.80713 0.11128 0.0
H413 H 0.37907 0.77265 0.15012 0.0
H414 H 0.37184 0.84724 0.21428 0.0
H415 H 0.36753 0.8814 0.17598 0.0
Tb416 Tb 0.54912 0.05587 0.55481 0.0
Tb417 Tb 0.61681 0.0651 0.53325 0.0
C418 C 0.59798 0.03225 0.58908 0.0
C419 C 0.48187 0.08076 0.56836 0.0
C420 C 0.45123 0.12777 0.56349 0.0
C421 C 0.47903 0.13533 0.58148 0.0
C422 C 0.49431 0.11219 0.58376 0.0
C423 C 0.45412 0.07329 0.55028 0.0
C424 C 0.43899 0.09658 0.5478 0.0
C425 C 0.49803 0.05612 0.57028 0.0
O426 O 0.57222 0.10859 0.55809 0.0
O427 O 0.62179 0.1084 0.56385 0.0
O428 O 0.59692 0.09185 0.50473 0.0
O429 O 0.54694 0.06264 0.50895 0.0
O430 O 0.66426 0.07752 0.54468 0.0
O431 O 0.64441 0.06103 0.5 0.0
O432 O 0.58548 0.01901 0.51061 0.0
O433 O 0.54795 1.00546 0.54157 0.0
O434 O 0.57746 0.04739 0.59125 0.0
O435 O 0.61115 0.03095 0.56527 0.0
C436 C 0.60141 0.12383 0.56646 0.0
O437 O 0.50103 0.04123 0.54556 0.0
O438 O 0.52324 0.06445 0.58811 0.0
C439 C 0.56775 0.08207 0.49513 0.0
C440 C 0.68243 0.04009 0.51901 0.0
C441 C 0.70897 0.99109 0.52927 0.0
C442 C 0.72754 0.02351 0.52826 0.0
C443 C 0.71435 0.04784 0.52319 0.0
C444 C 0.66381 1.0075 0.51893 0.0
C445 C 0.67701 0.98312 0.52391 0.0
C446 C 0.6685 0.0663 0.51885 0.0
C447 C 0.56286 0.99702 0.52064 0.0
H448 H 0.48884 0.15913 0.59392 0.0
H449 H 0.51581 0.11897 0.5977 0.0
H450 H 0.44404 0.04934 0.53815 0.0
H451 H 0.41723 0.08988 0.53427 0.0
H452 H 0.7523 0.03018 0.53223 0.0
H453 H 0.72901 0.07287 0.52368 0.0
H454 H 0.63904 1.00112 0.51628 0.0
H455 H 0.66221 0.95846 0.52502 0.0
Tb456 Tb 0.35975 0.31195 0.80821 0.0
Tb457 Tb 0.2958 0.3299 0.79999 0.0
C458 C 0.29708 0.26328 0.81956 0.0
C459 C 0.43326 0.30025 0.79161 0.0
C460 C 0.47962 0.30354 0.75437 0.0
C461 C 0.45889 0.27328 0.75883 0.0
C462 C 0.43611 0.27166 0.77734 0.0
C463 C 0.45356 0.33067 0.78676 0.0
C464 C 0.47663 0.33227 0.76838 0.0
C465 C 0.40875 0.29753 0.81098 0.0
O466 O 0.35018 0.31109 0.76082 0.0
O467 O 0.29847 0.3038 0.75772 0.0
O468 O 0.32764 0.36589 0.77852 0.0
O469 O 0.37276 0.3633 0.80131 0.0
O470 O 0.24939 0.31634 0.78378 0.0
O471 O 0.27175 0.36313 0.80906 0.0
O472 O 0.31761 0.35043 0.84425 0.0
O473 O 0.34822 0.31877 0.85327 0.0
O474 O 0.32216 0.26672 0.80692 0.0
O475 O 0.28602 0.28745 0.82346 0.0
C476 C 0.32336 0.30406 0.74517 0.0
O477 O 0.40646 0.32444 0.82399 0.0
O478 O 0.382 0.2771 0.80069 0.0
C479 C 0.35751 0.37725 0.78435 0.0
C480 C 0.22249 0.33328 0.8198 0.0
C481 C 0.17966 0.31746 0.86088 0.0
C482 C 0.18728 0.34823 0.85039 0.0
C483 C 0.20862 0.35611 0.82994 0.0
C484 C 0.21541 0.30296 0.83103 0.0
C485 C 0.19439 0.29521 0.85144 0.0
C486 C 0.24558 0.34133 0.7989 0.0
C487 C 0.33242 0.33749 0.86282 0.0
H488 H 0.46056 0.25074 0.74826 0.0
H489 H 0.42073 0.24792 0.78061 0.0
H490 H 0.45192 0.35319 0.79738 0.0
H491 H 0.49267 0.3559 0.76587 0.0
H492 H 0.17613 0.36576 0.85741 0.0
H493 H 0.21412 0.37983 0.82191 0.0
H494 H 0.22594 0.28504 0.82382 0.0
H495 H 0.18924 0.27152 0.85952 0.0
Tb496 Tb 0.08042 0.09143 0.58104 0.0
Tb497 Tb 0.08156 0.04963 0.52145 0.0
C498 C 0.02222 0.03867 0.55188 0.0
C499 C 0.09924 0.11892 0.65746 0.0
C500 C 0.13044 0.10224 0.70544 0.0
C501 C 0.1006 0.10387 0.70691 0.0
C502 C 0.0851 0.11221 0.68305 0.0
C503 C 0.12948 0.11836 0.65645 0.0
C504 C 0.14489 0.11009 0.68019 0.0
C505 C 0.08101 0.12063 0.63043 0.0
O506 O 0.08336 0.04407 0.5965 0.0
O507 O 0.09171 0.01765 0.55452 0.0
O508 O 0.12456 0.08881 0.52763 0.0
O509 O 0.12885 0.0998 0.57706 0.0
O510 O 0.05759 0.02395 0.4821 0.0
O511 O 0.10526 0.02787 0.49351 0.0
O512 O 0.07044 0.09376 0.50617 0.0
O513 O 0.08124 0.12802 0.54882 0.0
O514 O 0.03297 0.06973 0.5617 0.0
O515 O 0.03981 0.02457 0.53924 0.0
C516 C 0.08828 0.01807 0.58295 0.0
O517 O 0.09647 0.13457 0.60998 0.0
O518 O 0.06012 0.09324 0.62007 0.0
C519 C 0.14072 0.10312 0.55222 0.0
C520 C 0.08914 0.03168 0.44483 0.0
C521 C 0.08813 0.05495 0.39015 0.0
C522 C 0.09693 0.07698 0.41561 0.0
C523 C 0.09768 0.06541 0.44283 0.0
C524 C 0.08252 1.00979 0.41942 0.0
C525 C 0.0822 0.02141 0.39211 0.0
C526 C 0.08227 0.01954 0.47292 0.0
C527 C 0.07553 0.12373 0.51982 0.0
H528 H 0.08903 0.09792 0.72621 0.0
H529 H 0.06163 0.11196 0.68407 0.0
H530 H 0.14078 0.12272 0.6368 0.0
H531 H 0.16762 0.10835 0.67825 0.0
H532 H 0.10136 0.10289 0.41447 0.0
H533 H 0.10287 0.08262 0.46233 0.0
H534 H 0.07568 0.9837 0.42069 0.0
H535 H 0.0749 1.00402 0.37268 0.0
Tb536 Tb 0.3467 0.85104 0.78122 0.0
Tb537 Tb 0.312 0.79063 0.81422 0.0
C538 C 0.33599 0.78033 0.75316 0.0
C539 C 0.36962 0.93529 0.77009 0.0
C540 C 0.34467 0.97755 0.80092 0.0
C541 C 0.33122 0.96267 0.7729 0.0
C542 C 0.34375 0.94188 0.75743 0.0
C543 C 0.3857 0.95433 0.79601 0.0
C544 C 0.37313 0.97519 0.81148 0.0
C545 C 0.37403 0.90353 0.76164 0.0
O546 O 0.29692 0.84813 0.77061 0.0
O547 O 0.27223 0.79996 0.78823 0.0
O548 O 0.30153 0.83002 0.83737 0.0
O549 O 0.34008 0.87188 0.82379 0.0
O550 O 0.2812 0.74293 0.81024 0.0
O551 O 0.30431 0.76713 0.85231 0.0
O552 O 0.3617 0.80468 0.83419 0.0
O553 O 0.385 0.83286 0.79833 0.0
O554 O 0.33941 0.8104 0.74801 0.0
O555 O 0.33115 0.77068 0.7789 0.0
C556 C 0.27069 0.82515 0.77395 0.0
O557 O 0.38624 0.89166 0.78261 0.0
O558 O 0.35043 0.88109 0.74718 0.0
C559 C 0.31816 0.86068 0.84035 0.0
C560 C 0.30364 0.71315 0.839 0.0
C561 C 0.33383 0.6681 0.82264 0.0
C562 C 0.30157 0.65804 0.82156 0.0
C563 C 0.28655 0.6806 0.82926 0.0
C564 C 0.33573 0.72197 0.84343 0.0
C565 C 0.35067 0.69988 0.83513 0.0
C566 C 0.28948 0.73914 0.83702 0.0
C567 C 0.38743 0.81804 0.82213 0.0
H568 H 0.30956 0.96491 0.76408 0.0
H569 H 0.33119 0.92826 0.73718 0.0
H570 H 0.40608 0.95033 0.80605 0.0
H571 H 0.38401 0.98674 0.83296 0.0
H572 H 0.28788 0.63331 0.81323 0.0
H573 H 0.26175 0.67325 0.82559 0.0
H574 H 0.3495 0.74683 0.85082 0.0
H575 H 0.37548 0.70869 0.83639 0.0
Tb576 Tb 0.5738 0.05434 0.08087 0.0
Tb577 Tb 0.58783 0.09615 0.02782 0.0
C578 C 0.64142 0.08839 0.06799 0.0
C579 C 0.53263 0.02268 0.14074 0.0
C580 C 0.49176 0.03316 0.17882 0.0
C581 C 0.50974 1.01336 0.18579 0.0
C582 C 0.53025 1.00819 0.16678 0.0
C583 C 0.51319 0.04074 0.13296 0.0
C584 C 0.49292 0.04612 0.15204 0.0
C585 C 0.5573 0.02219 0.12303 0.0
O586 O 0.56338 0.10068 0.0948 0.0
O587 O 0.59278 0.134 0.06531 0.0
O588 O 0.54093 0.08977 0.03507 0.0
O589 O 0.53248 0.04036 0.05066 0.0
O590 O 0.61441 0.13651 0.00911 0.0
O591 O 0.57101 0.1046 0.98693 0.0
O592 O 0.58305 0.04454 0.00866 0.0
O593 O 0.58966 0.02169 0.05069 0.0
O594 O 0.62287 0.07851 0.08782 0.0
O595 O 0.63138 0.0906 0.04128 0.0
C596 C 0.57688 0.1308 0.08814 0.0
O597 O 0.5484 1.01065 0.09584 0.0
O598 O 0.57982 0.04956 0.12557 0.0
C599 C 0.52215 0.06127 0.03809 0.0
C600 C 0.60801 0.13023 0.95766 0.0
C601 C 0.62592 0.12207 0.90198 0.0
C602 C 0.59997 0.1318 0.90564 0.0
C603 C 0.59123 0.13608 0.93336 0.0
C604 C 0.6348 0.12203 0.95438 0.0
C605 C 0.64383 0.11818 0.92661 0.0
C606 C 0.59519 0.12966 0.98545 0.0
C607 C 0.58744 0.01959 0.02176 0.0
H608 H 0.50926 1.00364 0.2067 0.0
H609 H 0.54522 0.99432 0.17302 0.0
H610 H 0.51484 0.05206 0.11282 0.0
H611 H 0.47942 0.06179 0.14666 0.0
H612 H 0.58533 0.13414 0.887 0.0
H613 H 0.5704 0.14225 0.93568 0.0
H614 H 0.64796 0.11733 0.97301 0.0
H615 H 0.66398 0.11075 0.92423 0.0
Tb616 Tb 0.31019 0.28751 0.29356 0.0
Tb617 Tb 0.3423 0.36088 0.31826 0.0
C618 C 0.32104 0.33893 0.24879 0.0
C619 C 0.30341 0.20447 0.2942 0.0
C620 C 0.32731 0.16503 0.32803 0.0
C621 C 0.3036 0.15076 0.30505 0.0
C622 C 0.2912 0.17046 0.28861 0.0
C623 C 0.3275 0.21845 0.31634 0.0
C624 C 0.33835 0.19915 0.3338 0.0
C625 C 0.29133 0.22675 0.27875 0.0
O626 O 0.36048 0.29651 0.28556 0.0
O627 O 0.38318 0.35083 0.30055 0.0
O628 O 0.34884 0.3377 0.35771 0.0
O629 O 0.3186 0.28597 0.34101 0.0
O630 O 0.34449 0.40866 0.31234 0.0
O631 O 0.37177 0.39889 0.3485 0.0
O632 O 0.29359 0.34932 0.33203 0.0
O633 O 0.26838 0.30013 0.30582 0.0
O634 O 0.30228 0.3113 0.25517 0.0
O635 O 0.33944 0.35985 0.26989 0.0
C636 C 0.38527 0.32318 0.28754 0.0
O637 O 0.27683 0.24183 0.29467 0.0
O638 O 0.31133 0.24724 0.26544 0.0
C639 C 0.33441 0.30769 0.36268 0.0
C640 C 0.35056 0.44189 0.35552 0.0
C641 C 0.31203 0.47994 0.35634 0.0
C642 C 0.34382 0.49502 0.35654 0.0
C643 C 0.36304 0.47569 0.35528 0.0
C644 C 0.32093 0.42892 0.36379 0.0
C645 C 0.3014 0.44789 0.3638 0.0
C646 C 0.36229 0.42081 0.33662 0.0
C647 C 0.26741 0.32465 0.32464 0.0
H648 H 0.29526 0.12462 0.29909 0.0
H649 H 0.27272 0.15929 0.27134 0.0
H650 H 0.3381 0.24457 0.32029 0.0
H651 H 0.35606 0.21129 0.35149 0.0
H652 H 0.35273 0.52022 0.35214 0.0
H653 H 0.38615 0.4863 0.3496 0.0
H654 H 0.31132 0.40303 0.36524 0.0
H655 H 0.27715 0.43589 0.36476 0.0
Tb656 Tb 0.57824 0.59551 0.08678 0.0
Tb657 Tb 0.58527 0.55708 0.02772 0.0
C658 C 0.52266 0.5427 0.05086 0.0
C659 C 0.55987 0.60427 0.16033 0.0
C660 C 0.55722 0.56946 0.20921 0.0
C661 C 0.56774 0.60386 0.21263 0.0
C662 C 0.56914 0.62115 0.18828 0.0
C663 C 0.54668 0.57011 0.15711 0.0
C664 C 0.5454 0.5528 0.1814 0.0
C665 C 0.57006 0.62084 0.13479 0.0
O666 O 0.59047 0.55229 0.10267 0.0
O667 O 0.58296 0.51966 0.05945 0.0
O668 O 0.63096 0.57922 0.05057 0.0
O669 O 0.62198 0.6228 0.07362 0.0
O670 O 0.56906 0.51599 0.99646 0.0
O671 O 0.61086 0.55446 0.99254 0.0
O672 O 0.58454 0.60516 0.01253 0.0
O673 O 0.57122 0.62906 0.05332 0.0
O674 O 0.53734 0.55358 0.07671 0.0
O675 O 0.53666 0.55086 0.02777 0.0
C676 C 0.58711 0.52299 0.08855 0.0
O677 O 0.59679 0.61948 0.12836 0.0
O678 O 0.54985 0.61389 0.11174 0.0
C679 C 0.64066 0.60999 0.06122 0.0
C680 C 0.57741 0.5329 0.95035 0.0
C681 C 0.55476 0.54351 0.89522 0.0
C682 C 0.57283 0.52275 0.89765 0.0
C683 C 0.58418 0.51752 0.92515 0.0
C684 C 0.55944 0.55362 0.94794 0.0
C685 C 0.54848 0.55916 0.92062 0.0
C686 C 0.58967 0.5287 0.97934 0.0
C687 C 0.57764 0.63018 0.02555 0.0
H688 H 0.57763 0.61732 0.23373 0.0
H689 H 0.57978 0.64742 0.19109 0.0
H690 H 0.53968 0.55659 0.13563 0.0
H691 H 0.53739 0.52635 0.17819 0.0
H692 H 0.57791 0.51038 0.87832 0.0
H693 H 0.59815 0.50158 0.92674 0.0
H694 H 0.554 0.56567 0.96722 0.0
H695 H 0.53524 0.57586 0.91938 0.0
Tb696 Tb 0.84352 0.3584 0.2891 0.0
Tb697 Tb 0.80901 0.29285 0.31507 0.0
C698 C 0.83474 0.29188 0.25434 0.0
C699 C 0.85726 0.44206 0.27454 0.0
C700 C 0.82456 0.48545 0.28778 0.0
C701 C 0.84893 0.48449 0.3074 0.0
C702 C 0.86543 0.46329 0.3007 0.0
C703 C 0.83477 0.44538 0.25375 0.0
C704 C 0.8185 0.46694 0.26036 0.0
C705 C 0.86777 0.41307 0.27176 0.0
O706 O 0.79383 0.34643 0.26976 0.0
O707 O 0.76937 0.31033 0.30044 0.0
O708 O 0.81215 0.32947 0.35065 0.0
O709 O 0.82212 0.37398 0.32523 0.0
O710 O 0.77432 0.24724 0.30953 0.0
O711 O 0.80674 0.26172 0.34808 0.0
O712 O 0.85897 0.29555 0.32265 0.0
O713 O 0.88217 0.34881 0.3161 0.0
O714 O 0.8539 0.32127 0.2614 0.0
O715 O 0.81186 0.28019 0.2695 0.0
C716 C 0.76764 0.32951 0.27957 0.0
O717 O 0.87682 0.40451 0.29642 0.0
O718 O 0.85011 0.38774 0.25447 0.0
C719 C 0.8141 0.35994 0.34869 0.0
C720 C 0.79903 0.20979 0.32405 0.0
C721 C 0.83758 0.17274 0.31071 0.0
C722 C 0.83197 0.17855 0.33971 0.0
C723 C 0.81283 0.1971 0.34637 0.0
C724 C 0.80288 0.20152 0.29482 0.0
C725 C 0.82213 0.18333 0.28826 0.0
C726 C 0.78734 0.23725 0.33133 0.0
C727 C 0.88447 0.32107 0.32492 0.0
H728 H 0.85407 0.49882 0.32858 0.0
H729 H 0.88297 0.46176 0.31703 0.0
H730 H 0.82814 0.42964 0.2333 0.0
H731 H 0.79968 0.46729 0.24494 0.0
H732 H 0.8438 0.17045 0.35727 0.0
H733 H 0.81056 0.20346 0.36905 0.0
H734 H 0.7928 0.21098 0.27704 0.0
H735 H 0.8261 0.17883 0.26572 0.0
Tb736 Tb 0.06532 0.54992 0.57808 0.0
Tb737 Tb 0.08119 0.59001 0.52299 0.0
C738 C 0.1332 0.57988 0.56541 0.0
C739 C 0.02424 0.51883 0.63874 0.0
C740 C 0.98619 0.52975 0.68025 0.0
C741 C 1.00109 0.50616 0.68341 0.0
C742 C 1.02005 0.50073 0.66271 0.0
C743 C 1.0086 0.5416 0.63509 0.0
C744 C 0.98972 0.54701 0.65568 0.0
C745 C 0.04603 0.51561 0.61824 0.0
O746 O 0.06638 0.59927 0.59751 0.0
O747 O 0.07674 0.62709 0.55747 0.0
O748 O 0.03352 0.56118 0.51412 0.0
O749 O 0.02465 0.56042 0.56147 0.0
O750 O 0.11223 0.62722 0.50419 0.0
O751 O 0.06541 0.60541 0.48479 0.0
O752 O 0.08429 0.54213 0.50436 0.0
O753 O 0.07228 0.51321 0.54382 0.0
O754 O 0.11455 0.57125 0.58533 0.0
O755 O 0.12399 0.58373 0.53886 0.0
C756 C 0.07122 0.62681 0.58517 0.0
O757 O 0.03443 0.50795 0.59098 0.0
O758 O 0.07184 0.53958 0.62127 0.0
C759 C 1.01462 0.55781 0.53395 0.0
C760 C 0.10257 0.6223 0.45338 0.0
C761 C 0.1153 0.61107 0.39621 0.0
C762 C 0.10355 0.63649 0.4039 0.0
C763 C 0.09712 0.64201 0.43244 0.0
C764 C 0.11538 0.59774 0.44606 0.0
C765 C 0.12181 0.59221 0.4176 0.0
C766 C 0.09233 0.62555 0.48203 0.0
C767 C 0.07972 0.5144 0.5165 0.0
H768 H 0.99911 0.49296 0.70247 0.0
H769 H 0.03208 0.48317 0.66583 0.0
H770 H 1.01164 0.55584 0.61671 0.0
H771 H 0.97847 0.56529 0.65281 0.0
H772 H 0.09888 0.65161 0.38776 0.0
H773 H 0.08714 0.66103 0.43799 0.0
H774 H 0.11957 0.58231 0.46214 0.0
H775 H 0.13086 0.57247 0.41204 0.0
Tb776 Tb 0.85558 0.80581 0.30282 0.0
Tb777 Tb 0.80026 0.83732 0.29507 0.0
C778 C 0.78802 0.76672 0.31 0.0
C779 C 0.92541 0.78511 0.29032 0.0
C780 C 0.97708 0.79246 0.25964 0.0
C781 C 0.97201 0.77248 0.28251 0.0
C782 C 0.94646 0.76901 0.29784 0.0
C783 C 0.92976 0.80422 0.26691 0.0
C784 C 0.95545 0.80791 0.25167 0.0
C785 C 0.89889 0.78179 0.30678 0.0
O786 O 0.84928 0.80893 0.25568 0.0
O787 O 0.8002 0.8115 0.25185 0.0
O788 O 0.83694 0.87075 0.27638 0.0
O789 O 0.87756 0.85716 0.29756 0.0
O790 O 0.75408 0.8293 0.28024 0.0
O791 O 0.7822 0.87582 0.30293 0.0
O792 O 0.82323 0.85479 0.3395 0.0
O793 O 0.84392 0.81431 0.34775 0.0
O794 O 0.81269 0.7655 0.29836 0.0
O795 O 0.78415 0.79468 0.31748 0.0
C796 C 0.82374 0.80693 0.23959 0.0
O797 O 0.89892 0.80812 0.3226 0.0
O798 O 0.87228 0.76699 0.29197 0.0
C799 C 0.86644 0.87653 0.28286 0.0
C800 C 0.73191 0.85358 0.31526 0.0
C801 C 0.68631 0.83624 0.35344 0.0
C802 C 0.67943 0.84496 0.32565 0.0
C803 C 0.70208 0.85345 0.30664 0.0
C804 C 0.73914 0.84627 0.34348 0.0
C805 C 0.71656 0.83788 0.3625 0.0
C806 C 0.75432 0.85694 0.29388 0.0
C807 C 0.83407 0.83821 0.35787 0.0
H808 H 0.98786 0.75955 0.28858 0.0
H809 H 0.94318 0.75382 0.31559 0.0
H810 H 0.91339 0.81644 0.26059 0.0
H811 H 0.95871 0.82331 0.23408 0.0
H812 H 0.65633 0.84434 0.31836 0.0
H813 H 0.69605 0.85874 0.28488 0.0
H814 H 0.76193 0.84565 0.35035 0.0
H815 H 0.72239 0.8311 0.38371 0.0
Tb816 Tb 0.80159 0.29399 0.81637 0.0
Tb817 Tb 0.84819 0.2952 0.76584 0.0
C818 C 0.78958 0.31906 0.75528 0.0
C819 C 0.77242 0.27444 0.88545 0.0
C820 C 0.78422 0.24684 0.93644 0.0
C821 C 0.77389 0.27419 0.93809 0.0
C822 C 0.76798 0.28787 0.91273 0.0
C823 C 0.78233 0.24684 0.88375 0.0
C824 C 0.78809 0.23313 0.909 0.0
C825 C 0.77111 0.29172 0.85953 0.0
O826 O 0.78903 0.24443 0.79515 0.0
O827 O 0.80775 0.25444 0.75097 0.0
O828 O 0.85934 0.26378 0.79657 0.0
O829 O 0.84199 0.28445 0.83651 0.0
O830 O 0.85983 0.27766 0.72595 0.0
O831 O 0.89112 0.3194 0.7526 0.0
O832 O 0.86979 0.33355 0.80093 0.0
O833 O 0.82694 0.34441 0.81271 0.0
O834 O 0.77786 0.30604 0.77833 0.0
O835 O 0.81803 0.32214 0.75001 0.0
C836 C 0.78949 0.23591 0.76733 0.0
O837 O 0.79624 0.31517 0.85725 0.0
O838 O 0.76048 0.27355 0.83471 0.0
C839 C 0.85909 0.2684 0.8251 0.0
C840 C 0.88474 0.32286 0.702 0.0
C841 C 0.8764 0.35787 0.65497 0.0
C842 C 0.87552 0.32516 0.64984 0.0
C843 C 0.87979 0.30782 0.6732 0.0
C844 C 0.88654 0.35592 0.70698 0.0
C845 C 0.8824 0.37319 0.68371 0.0
C846 C 0.88405 0.30319 0.72671 0.0
C847 C 0.85661 0.35386 0.81177 0.0
H848 H 0.77078 0.2852 0.95902 0.0
H849 H 0.76092 0.30952 0.91451 0.0
H850 H 0.78674 0.23661 0.86301 0.0
H851 H 0.79671 0.21253 0.90717 0.0
H852 H 0.87085 0.31282 0.62783 0.0
H853 H 0.87802 0.28231 0.66885 0.0
H854 H 0.88986 0.3682 0.72893 0.0
H855 H 0.88247 0.39813 0.68833 0.0
Tb856 Tb 0.81357 0.78305 0.79171 0.0
Tb857 Tb 0.84309 0.85751 0.81286 0.0
C858 C 0.82346 0.83378 0.74464 0.0
C859 C 0.78012 0.695 0.793 0.0
C860 C 0.79071 0.65018 0.82942 0.0
C861 C 0.78409 0.67778 0.8414 0.0
C862 C 0.77913 0.70032 0.82325 0.0
C863 C 0.78184 0.66513 0.78076 0.0
C864 C 0.78704 0.64275 0.79887 0.0
C865 C 0.78848 0.72285 0.77597 0.0
O866 O 0.86136 0.79348 0.77702 0.0
O867 O 0.88481 0.84567 0.79841 0.0
O868 O 0.8387 0.83443 0.85361 0.0
O869 O 0.83153 0.78147 0.8369 0.0
O870 O 0.84883 0.90622 0.80729 0.0
O871 O 0.87246 0.89372 0.84458 0.0
O872 O 0.79236 0.84915 0.81832 0.0
O873 O 0.77733 0.79398 0.81791 0.0
O874 O 0.80612 0.80579 0.75198 0.0
O875 O 0.84098 0.85618 0.76502 0.0
C876 C 0.88665 0.8195 0.78226 0.0
O877 O 0.77323 0.74353 0.77846 0.0
O878 O 0.8179 0.73764 0.7782 0.0
C879 C 0.83618 0.80442 0.8588 0.0
C880 C 0.85311 0.93807 0.85086 0.0
C881 C 0.81525 0.9769 0.85262 0.0
C882 C 0.8471 0.99155 0.85276 0.0
C883 C 0.86597 0.97188 0.85108 0.0
C884 C 0.82327 0.92515 0.85866 0.0
C885 C 0.80418 0.94459 0.85933 0.0
C886 C 0.8652 0.9169 0.83252 0.0
C887 C 0.77132 0.82183 0.82411 0.0
H888 H 0.78609 0.68367 0.86485 0.0
H889 H 0.77783 0.72335 0.83309 0.0
H890 H 0.78277 0.66074 0.75748 0.0
H891 H 0.79194 0.62164 0.78895 0.0
H892 H 0.85638 0.01693 0.849 0.0
H893 H 0.8892 0.98237 0.8457 0.0
H894 H 0.81328 0.89914 0.85948 0.0
H895 H 0.77993 0.93295 0.86046 0.0
Tb896 Tb 0.60487 0.58443 0.57681 0.0
Tb897 Tb 0.55017 0.53278 0.53221 0.0
C898 C 0.53749 0.56569 0.59025 0.0
C899 C 0.67604 0.60664 0.62026 0.0
C900 C 0.71848 0.57514 0.60568 0.0
C901 C 0.72589 0.60912 0.60532 0.0
C902 C 0.70465 0.62479 0.6124 0.0
C903 C 0.67118 0.57399 0.62559 0.0
C904 C 0.69209 0.55826 0.61805 0.0
C905 C 0.64919 0.61723 0.61287 0.0
O906 O 0.5991 0.5349 0.58975 0.0
O907 O 0.57936 0.50414 0.54616 0.0
O908 O 0.58812 0.54611 0.50636 0.0
O909 O 0.62847 0.56926 0.54232 0.0
O910 O 0.51544 0.48734 0.52564 0.0
O911 O 0.52208 0.51994 0.49221 0.0
O912 O 0.54333 0.58041 0.52779 0.0
O913 O 0.58975 0.61636 0.5485 0.0
O914 O 0.56291 0.58982 0.59049 0.0
O915 O 0.53302 0.53793 0.57426 0.0
C916 C 0.59384 0.50752 0.57245 0.0
O917 O 0.64615 0.62323 0.58576 0.0
O918 O 0.62318 0.59936 0.6207 0.0
C919 C 0.61752 0.55752 0.51527 0.0
C920 C 0.47178 0.49802 0.50475 0.0
C921 C 0.42942 0.52538 0.52746 0.0
C922 C 0.44169 0.53503 0.50154 0.0
C923 C 0.46271 0.52139 0.49019 0.0
C924 C 0.45537 0.4845 0.52757 0.0
C925 C 0.43446 0.49823 0.53893 0.0
C926 C 0.50278 0.49542 0.5024 0.0
C927 C 0.56294 0.61035 0.53282 0.0
H928 H 0.74681 0.62299 0.59703 0.0
H929 H 0.70908 0.65005 0.60841 0.0
H930 H 0.64959 0.55936 0.63214 0.0
H931 H 0.68594 0.53218 0.61907 0.0
H932 H 0.43669 0.55465 0.49123 0.0
H933 H 0.47415 0.53157 0.47189 0.0
H934 H 0.46113 0.46582 0.53879 0.0
H935 H 0.42435 0.4894 0.55824 0.0
Tb936 Tb 0.04122 0.54566 0.05411 0.0
Tb937 Tb 0.10837 0.55783 0.03074 0.0
C938 C 0.09269 0.52433 0.08701 0.0
C939 C 0.9749 0.57013 0.06915 0.0
C940 C 0.94665 0.61894 0.0631 0.0
C941 C 0.97429 0.62575 0.08116 0.0
C942 C 0.98839 0.60172 0.08401 0.0
C943 C 0.9472 0.56333 0.05113 0.0
C944 C 0.93324 0.58752 0.04808 0.0
C945 C 0.99052 0.54502 0.07082 0.0
O946 O 0.06296 0.59857 0.05769 0.0
O947 O 0.11295 0.59996 0.06268 0.0
O948 O 0.08627 0.58429 1.00368 0.0
O949 O 0.03729 0.55274 0.00835 0.0
O950 O 0.1562 0.57354 0.04048 0.0
O951 O 0.13513 0.5543 0.99659 0.0
O952 O 0.0783 0.51018 0.00959 0.0
O953 O 0.04122 0.49582 0.04092 0.0
O954 O 0.07097 0.53778 0.08972 0.0
O955 O 0.10586 0.52435 0.06306 0.0
C956 C 0.09201 0.61453 0.06582 0.0
O957 O 0.99301 0.53009 0.04591 0.0
O958 O 1.01594 0.55307 0.08832 0.0
C959 C 0.05684 0.57417 0.99499 0.0
C960 C 0.17612 0.53741 0.01526 0.0
C961 C 0.20706 0.4923 0.02699 0.0
C962 C 0.22358 0.52498 0.02409 0.0
C963 C 0.20821 0.54737 0.01831 0.0
C964 C 0.15953 0.50451 0.017 0.0
C965 C 0.17488 0.48209 0.02274 0.0
C966 C 0.16011 0.56188 0.0147 0.0
C967 C 0.05649 0.4877 0.02019 0.0
H968 H 0.98496 0.6497 0.09312 0.0
H969 H 1.00994 0.60804 0.09781 0.0
H970 H 0.9364 0.53931 0.03933 0.0
H971 H 0.91154 0.58141 0.03454 0.0
H972 H 0.24844 0.5334 0.02714 0.0
H973 H 0.22136 0.57271 0.01742 0.0
H974 H 0.13469 0.49645 0.01528 0.0
H975 H 0.16159 0.45725 0.02536 0.0
C976 C 0.05247 0.16852 0.98852 0.0
C977 C 0.02785 0.17854 0.9974 0.0
C978 C 0.05928 0.14159 0.99916 0.0
C979 C 0.04107 0.12245 0.01836 0.0
H980 H 0.06702 0.18199 0.97342 0.0
H981 H 0.07876 0.13539 0.99189 0.0
S982 S 0.9736 0.13757 0.04823 0.0
N983 N 0.9854 0.16708 0.02714 0.0
N984 N 0.99706 0.11554 0.04582 0.0
C985 C 1.01605 0.13181 0.02714 0.0
C986 C 1.00976 0.16003 0.01706 0.0
C987 C 0.24322 0.82755 0.18193 0.0
C988 C 0.22211 0.84094 0.19412 0.0
C989 C 0.26563 0.81963 0.19977 0.0
C990 C 0.26807 0.82482 0.23064 0.0
H991 H 0.24163 0.82184 0.15849 0.0
H992 H 0.28062 0.80848 0.18916 0.0
S993 S 0.22037 0.86281 0.27329 0.0
N994 N 0.20677 0.86153 0.23895 0.0
N995 N 0.24853 0.84687 0.2722 0.0
C996 C 0.24802 0.83973 0.24294 0.0
C997 C 0.22522 0.8477 0.22481 0.0
C998 C 0.55775 0.92386 0.46646 0.0
C999 C 0.54583 0.89613 0.48134 0.0
C1000 C 0.56234 0.95574 0.47922 0.0
C1001 C 0.55504 0.9621 0.50759 0.0
H1002 H 0.56408 0.9212 0.44455 0.0
H1003 H 0.57191 0.97573 0.46653 0.0
S1004 S 0.52333 0.89904 0.55672 0.0
N1005 N 0.52685 0.87768 0.52666 0.0
N1006 N 0.53527 0.93779 0.55057 0.0
C1007 C 0.54273 0.93484 0.52287 0.0
C1008 C 0.53825 0.90199 0.50984 0.0
C1009 C 0.54885 0.28464 0.72869 0.0
C1010 C 0.55867 0.30665 0.7079 0.0
C1011 C 0.52312 0.28365 0.74307 0.0
C1012 C 0.50587 0.30454 0.73735 0.0
H1013 H 0.56144 0.26823 0.7344 0.0
H1014 H 0.51716 0.26685 0.75942 0.0
S1015 S 0.52026 0.36533 0.68366 0.0
N1016 N 0.54818 0.3491 0.68147 0.0
N1017 N 0.49927 0.34681 0.70841 0.0
C1018 C 0.51477 0.32614 0.71611 0.0
C1019 C 0.54117 0.32719 0.70133 0.0
C1020 C 0.0895 0.96144 0.64714 0.0
C1021 C 0.08794 0.93008 0.63354 0.0
C1022 C 0.08979 0.98898 0.6312 0.0
C1023 C 0.08891 0.98791 0.60015 0.0
H1024 H 0.09028 0.96489 0.67069 0.0
H1025 H 0.09074 1.0116 0.64366 0.0
S1026 S 0.08425 0.91221 0.55271 0.0
N1027 N 0.08509 0.90067 0.58589 0.0
N1028 N 0.08599 0.95098 0.55683 0.0
C1029 C 0.08743 0.95672 0.5863 0.0
C1030 C 0.08686 0.92862 0.60251 0.0
C1031 C 0.47747 0.83115 0.8332 0.0
C1032 C 0.4837 0.81613 0.8584 0.0
C1033 C 0.44734 0.8313 0.82211 0.0
C1034 C 0.42009 0.81671 0.83518 0.0
H1035 H 0.49646 0.84347 0.82156 0.0
H1036 H 0.44558 0.84349 0.80282 0.0
S1037 S 0.42151 0.77398 0.90219 0.0
N1038 N 0.45798 0.78588 0.89607 0.0
N1039 N 0.40276 0.78662 0.87615 0.0
C1040 C 0.42579 0.80152 0.86051 0.0
C1041 C 0.45669 0.80111 0.87171 0.0
C1042 C 0.58696 0.22303 0.11693 0.0
C1043 C 0.56808 0.2214 0.14005 0.0
C1044 C 0.58961 0.19434 0.10058 0.0
C1045 C 0.57356 0.16174 0.10596 0.0
H1046 H 0.60053 0.24677 0.11176 0.0
H1047 H 0.60482 0.19792 0.08358 0.0
S1048 S 0.51855 0.14278 0.16187 0.0
N1049 N 0.53149 0.18307 0.16568 0.0
N1050 N 0.53629 0.13079 0.13565 0.0
C1051 C 0.55405 0.15991 0.12846 0.0
C1052 C 0.55143 0.18895 0.1451 0.0
C1053 C 0.2082 0.33936 0.38015 0.0
C1054 C 0.17775 0.32119 0.36725 0.0
C1055 C 0.23596 0.34108 0.36638 0.0
C1056 C 0.23635 0.32399 0.33862 0.0
H1057 H 0.21082 0.35296 0.40142 0.0
H1058 H 0.25771 0.35573 0.37823 0.0
S1059 S 0.16379 0.27182 0.29446 0.0
N1060 N 0.15109 0.28568 0.32364 0.0
N1061 N 0.20159 0.28753 0.29922 0.0
C1062 C 0.20608 0.30544 0.32562 0.0
C1063 C 0.17774 0.30444 0.33928 0.0
C1064 C 0.9686 0.04509 0.1427 0.0
C1065 C 0.97522 0.07694 0.15652 0.0
C1066 C 0.9853 0.0386 0.12019 0.0
C1067 C 1.00909 0.0638 0.11098 0.0
H1068 H 0.95245 0.02473 0.15103 0.0
H1069 H 0.98082 1.01345 0.11131 0.0
S1070 S 0.02986 0.1523 0.13604 0.0
N1071 N 1.00327 0.13436 0.15665 0.0
N1072 N 0.03423 0.1226 0.11387 0.0
C1073 C 1.01346 0.09617 0.12261 0.0
C1074 C 0.99658 0.10263 0.14554 0.0
C1075 C 0.30492 0.6883 0.48676 0.0
C1076 C 0.32337 0.70772 0.51141 0.0
C1077 C 0.29793 0.70212 0.46194 0.0
C1078 C 0.30927 0.73598 0.46051 0.0
H1079 H 0.29521 0.6621 0.48673 0.0
H1080 H 0.28319 0.68609 0.44377 0.0
S1081 S 0.36009 0.79761 0.51836 0.0
N1082 N 0.35359 0.76264 0.53259 0.0
N1083 N 0.341 0.78861 0.48539 0.0
C1084 C 0.32808 0.75578 0.4848 0.0
C1085 C 0.33505 0.74166 0.51033 0.0
C1086 C 0.60255 1.00599 0.66473 0.0
C1087 C 0.63041 0.99888 0.66681 0.0
C1088 C 0.59143 0.01533 0.63902 0.0
C1089 C 0.60743 0.01727 0.61426 0.0
H1090 H 0.59027 1.00667 0.6837 0.0
H1091 H 0.57088 0.02245 0.63906 0.0
S1092 S 0.67737 0.99309 0.60621 0.0
N1093 N 0.67081 0.98871 0.64048 0.0
N1094 N 0.64967 1.00562 0.5918 0.0
C1095 C 0.63339 1.0065 0.61499 0.0
C1096 C 0.64488 0.99729 0.64135 0.0
C1097 C 0.35054 0.35003 0.94725 0.0
C1098 C 0.3252 0.35815 0.95688 0.0
C1099 C 0.35258 0.34247 0.91705 0.0
C1100 C 0.32961 0.34322 0.89514 0.0
H1101 H 0.36969 0.35127 0.96295 0.0
H1102 H 0.37291 0.33734 0.91078 0.0
S1103 S 0.25657 0.35848 0.90913 0.0
N1104 N 0.27531 0.36308 0.94195 0.0
N1105 N 0.27906 0.34925 0.88614 0.0
C1106 C 0.30349 0.34957 0.90479 0.0
C1107 C 0.30135 0.35692 0.93528 0.0
C1108 C 0.04125 0.08363 0.33462 0.0
C1109 C 0.05162 0.07544 0.30813 0.0
C1110 C 0.05464 0.07867 0.36125 0.0
C1111 C 0.0791 0.06583 0.36249 0.0
H1112 H 1.02138 0.09193 0.3348 0.0
H1113 H 0.04435 0.0827 0.38084 0.0
S1114 S 0.11808 0.04503 0.30037 0.0
N1115 N 0.09045 0.05729 0.2853 0.0
N1116 N 0.11536 0.04806 0.33583 0.0
C1117 C 0.09121 0.05971 0.33662 0.0
C1118 C 0.07765 0.06472 0.30933 0.0
C1119 C 0.35741 0.73933 0.68591 0.0
C1120 C 0.33761 0.70696 0.68447 0.0
C1121 C 0.35681 0.76333 0.70804 0.0
C1122 C 0.33653 0.75563 0.7295 0.0
H1123 H 0.37331 0.74624 0.66971 0.0
H1124 H 0.37245 0.78791 0.7085 0.0
S1125 S 0.27746 0.67597 0.73372 0.0
N1126 N 0.29532 0.66958 0.70537 0.0
N1127 N 0.29482 0.71436 0.74693 0.0
C1128 C 0.31643 0.72361 0.72814 0.0
C1129 C 0.31682 0.69935 0.70566 0.0
C1130 C 0.63734 0.06821 0.83871 0.0
C1131 C 0.63447 0.08566 0.81496 0.0
C1132 C 0.63559 0.0808 0.86701 0.0
C1133 C 0.63149 0.1115 0.87247 0.0
H1134 H 0.64038 0.04441 0.83531 0.0
H1135 H 0.63655 0.06594 0.8846 0.0
S1136 S 0.62698 0.16855 0.81794 0.0
N1137 N 0.62978 0.13603 0.79861 0.0
N1138 N 0.62742 0.1603 0.85221 0.0
C1139 C 0.62986 0.12977 0.84898 0.0
C1140 C 0.63111 0.11667 0.82008 0.0
C1141 C 0.34588 0.38302 0.18061 0.0
C1142 C 0.33153 0.35956 0.15642 0.0
C1143 C 0.34207 0.37635 0.20991 0.0
C1144 C 0.32336 0.34589 0.21697 0.0
H1145 H 0.36033 0.40704 0.17694 0.0
H1146 H 0.35403 0.39546 0.22724 0.0
S1147 S 0.28035 0.27554 0.16212 0.0
N1148 N 0.29769 0.30419 0.14206 0.0
N1149 N 0.29038 0.29176 0.19644 0.0
C1150 C 0.30879 0.32216 0.19297 0.0
C1151 C 0.31289 0.32892 0.16309 0.0
C1152 C 0.23849 1.00454 0.04947 0.0
C1153 C 0.26987 0.0185 0.04683 0.0
C1154 C 0.22248 0.02215 0.06451 0.0
C1155 C 0.23732 0.05425 0.07766 0.0
H1156 H 0.22606 0.98 0.03952 0.0
H1157 H 0.19807 1.01081 0.06517 0.0
S1158 S 0.3196 0.10129 0.07873 0.0
N1159 N 0.31553 0.06608 0.05957 0.0
N1160 N 0.28525 0.09883 0.08825 0.0
C1161 C 0.26876 0.06833 0.07567 0.0
C1162 C 0.28508 0.05053 0.06018 0.0
C1163 C 0.70385 0.6876 0.05079 0.0
C1164 C 0.7264 0.67597 0.03952 0.0
C1165 C 0.67671 0.66605 0.05852 0.0
C1166 C 0.67084 0.63192 0.05505 0.0
H1167 H 0.70733 0.71359 0.05414 0.0
H1168 H 0.66002 0.67637 0.06691 0.0
S1169 S 0.72234 0.58895 0.02574 0.0
N1170 N 0.74096 0.62805 0.02486 0.0
N1171 N 0.68989 0.58762 0.03918 0.0
C1172 C 0.69311 0.61996 0.04357 0.0
C1173 C 0.72086 0.64193 0.03585 0.0
C1174 C 0.76458 0.50488 0.33035 0.0
C1175 C 0.75616 0.52771 0.31445 0.0
C1176 C 0.78759 0.4923 0.32209 0.0
C1177 C 0.80279 0.50184 0.29749 0.0
H1178 H 0.75314 0.49639 0.34917 0.0
H1179 H 0.79289 0.4742 0.33454 0.0
S1180 S 0.79062 0.56183 0.2492 0.0
N1181 N 0.76591 0.5603 0.2735 0.0
N1182 N 0.80894 0.53605 0.25794 0.0
C1183 C 0.79512 0.52499 0.2817 0.0
C1184 C 0.7719 0.53814 0.29023 0.0
C1185 C 0.92934 0.52644 0.53755 0.0
C1186 C 0.91706 0.53346 0.51097 0.0
C1187 C 0.96091 0.53487 0.54481 0.0
C1188 C 0.9815 0.55024 0.52559 0.0
H1189 H 0.91442 0.51429 0.55302 0.0
H1190 H 0.96916 0.5287 0.56547 0.0
S1191 S 0.96117 0.57461 0.45351 0.0
N1192 N 0.92779 0.55734 0.4656 0.0
N1193 N 0.98761 0.57293 0.47907 0.0
C1194 C 0.96966 0.55771 0.49899 0.0
C1195 C 0.93731 0.54948 0.49176 0.0
C1196 C 0.39312 0.1403 0.36108 0.0
C1197 C 0.37944 0.10716 0.36416 0.0
C1198 C 0.37584 0.15878 0.35026 0.0
C1199 C 0.34376 0.14557 0.34353 0.0
H1200 H 0.41784 0.15143 0.36411 0.0
H1201 H 0.38839 0.18298 0.34532 0.0
S1202 S 0.29596 0.06258 0.35626 0.0
N1203 N 0.33163 0.06312 0.36465 0.0
N1204 N 0.29838 0.09916 0.34674 0.0
C1205 C 0.32929 0.11362 0.35013 0.0
C1206 C 0.34725 0.09421 0.36015 0.0
C1207 C 0.40486 0.18038 0.59056 0.0
C1208 C 0.39125 0.18727 0.5646 0.0
C1209 C 0.42583 0.16291 0.58999 0.0
C1210 C 0.43346 0.15109 0.56338 0.0
H1211 H 0.39797 0.18703 0.61144 0.0
H1212 H 0.4346 0.15684 0.61046 0.0
S1213 S 0.40637 0.1652 0.48943 0.0
N1214 N 0.38872 0.18331 0.51169 0.0
N1215 N 0.4279 0.14993 0.51051 0.0
C1216 C 0.42139 0.15942 0.53731 0.0
C1217 C 0.40038 0.17774 0.53795 0.0
C1218 C 0.74902 0.67813 0.32092 0.0
C1219 C 0.71984 0.67804 0.32811 0.0
C1220 C 0.77088 0.70679 0.31481 0.0
C1221 C 0.76446 0.73649 0.31578 0.0
H1222 H 0.75516 0.65591 0.32 0.0
H1223 H 0.79305 0.70565 0.30959 0.0
S1224 S 0.69114 0.74942 0.33236 0.0
N1225 N 0.68554 0.71035 0.33514 0.0
N1226 N 0.72641 0.76395 0.32357 0.0
C1227 C 0.73526 0.73674 0.32264 0.0
C1228 C 0.71303 0.7076 0.32882 0.0
C1229 C 0.92303 0.43233 0.81924 0.0
C1230 C 0.9117 0.45486 0.83435 0.0
C1231 C 0.90538 0.39952 0.81297 0.0
C1232 C 0.87561 0.3879 0.82145 0.0
H1233 H 0.94528 0.44023 0.81112 0.0
H1234 H 0.91482 0.38347 0.80036 0.0
S1235 S 0.83671 0.43569 0.86508 0.0
N1236 N 0.8699 0.46239 0.86039 0.0
N1237 N 0.8367 0.40057 0.84835 0.0
C1238 C 0.86461 0.40961 0.83807 0.0
C1239 C 0.88268 0.4431 0.84465 0.0
C1240 C 0.11311 0.9421 0.12195 0.0
C1241 C 0.11053 0.91299 0.10422 0.0
C1242 C 0.10386 0.96763 0.11103 0.0
C1243 C 0.09095 0.96533 0.08185 0.0
H1244 H 0.12242 0.9453 0.14464 0.0
H1245 H 0.10651 0.98925 0.12583 0.0
S1246 S 0.07965 0.89479 0.02581 0.0
N1247 N 0.09465 0.88406 0.05548 0.0
N1248 N 0.07693 0.93129 0.03522 0.0
C1249 C 0.08842 0.93644 0.06381 0.0
C1250 C 0.09824 0.91061 0.07486 0.0
C1251 C 0.9321 0.25086 0.85106 0.0
C1252 C 0.93495 0.25821 0.88164 0.0
C1253 C 0.90637 0.25164 0.83315 0.0
C1254 C 0.88234 0.26023 0.84495 0.0
H1255 H 0.95096 0.24652 0.84064 0.0
H1256 H 0.90644 0.24761 0.80972 0.0
S1257 S 0.87616 0.27619 0.92425 0.0
N1258 N 0.90981 0.27024 0.9233 0.0
N1259 N 0.86123 0.27172 0.88988 0.0
C1260 C 0.8836 0.26474 0.87579 0.0
C1261 C 0.90991 0.2637 0.89407 0.0
C1262 C 0.59907 0.2104 0.58987 0.0
C1263 C 0.62743 0.2255 0.60688 0.0
C1264 C 0.59106 0.17785 0.57657 0.0
C1265 C 0.61123 0.1591 0.57932 0.0
H1266 H 0.58234 0.22322 0.58796 0.0
H1267 H 0.56858 0.16714 0.56444 0.0
S1268 S 0.68928 0.18838 0.61995 0.0
N1269 N 0.67627 0.2197 0.6246 0.0
N1270 N 0.66169 0.15939 0.59943 0.0
C1271 C 0.64017 0.17457 0.59531 0.0
C1272 C 0.64809 0.20743 0.6091 0.0
C1273 C 0.64084 0.82468 0.41923 0.0
C1274 C 0.61364 0.79962 0.40809 0.0
C1275 C 0.66448 0.83629 0.40156 0.0
C1276 C 0.6616 0.82334 0.37216 0.0
H1277 H 0.64357 0.83604 0.44146 0.0
H1278 H 0.68481 0.85603 0.41074 0.0
S1279 S 0.59685 0.75469 0.33362 0.0
N1280 N 0.58655 0.76029 0.36655 0.0
N1281 N 0.63083 0.78222 0.33353 0.0
C1282 C 0.63511 0.79746 0.36116 0.0
C1283 C 0.61119 0.78555 0.37909 0.0
C1284 C 0.08901 0.21498 0.49956 0.0
C1285 C 0.07786 0.21258 0.46947 0.0
C1286 C 0.08781 0.18701 0.5152 0.0
C1287 C 0.07559 0.15387 0.50225 0.0
H1288 H 0.09901 0.23903 0.51146 0.0
H1289 H 0.09707 0.19165 0.53796 0.0
S1290 S 0.04197 0.13229 0.42439 0.0
N1291 N 0.05308 0.17259 0.42798 0.0
N1292 N 0.0513 0.12153 0.45641 0.0
C1293 C 0.06426 0.15112 0.47221 0.0
C1294 C 0.06524 0.17962 0.45634 0.0
C1295 C 0.70285 0.35079 0.2294 0.0
C1296 C 0.67434 0.33703 0.24099 0.0
C1297 C 0.73197 0.34863 0.24175 0.0
C1298 C 0.73546 0.33208 0.26667 0.0
H1299 H 0.70281 0.36355 0.21022 0.0
H1300 H 0.75215 0.36001 0.2312 0.0
S1301 S 0.66895 0.29119 0.30641 0.0
N1302 N 0.65288 0.30601 0.28 0.0
N1303 N 0.70589 0.30162 0.30229 0.0
C1304 C 0.70713 0.3182 0.27849 0.0
C1305 C 0.67751 0.32071 0.26608 0.0
C1306 C 0.59216 0.95719 0.9561 0.0
C1307 C 0.59323 0.92818 0.96822 0.0
C1308 C 0.59039 0.98576 0.97301 0.0
C1309 C 0.58972 0.98814 1.00374 0.0
H1310 H 0.59245 0.95797 0.93277 0.0
H1311 H 0.58955 1.00639 0.9616 0.0
S1312 S 0.59187 0.91996 0.04771 0.0
N1313 N 0.59327 0.90472 0.01408 0.0
N1314 N 0.59033 0.95731 0.04545 0.0
C1315 C 0.59092 0.95939 0.01634 0.0
C1316 C 0.59254 0.93009 0.99896 0.0
C1317 C 0.96956 0.84749 0.75119 0.0
C1318 C 0.97689 0.8183 0.74351 0.0
C1319 C 0.94158 0.84791 0.76378 0.0
C1320 C 0.91782 0.81918 0.76925 0.0
H1321 H 0.98598 0.87064 0.74804 0.0
H1322 H 0.93845 0.87139 0.76903 0.0
S1323 S 0.92366 0.7357 0.75282 0.0
N1324 N 0.95606 0.75945 0.743 0.0
N1325 N 0.90498 0.76028 0.76472 0.0
C1326 C 0.92471 0.78998 0.76116 0.0
C1327 C 0.95336 0.78957 0.74907 0.0
C1328 C 0.11487 0.03249 0.92993 0.0
C1329 C 0.14688 0.04598 0.93172 0.0
C1330 C 0.09984 0.02838 0.95496 0.0
C1331 C 0.11614 0.03802 0.98294 0.0
H1332 H 0.10112 0.02599 0.90889 0.0
H1333 H 0.075 0.01876 0.95211 0.0
S1334 S 0.20093 0.07066 0.99946 0.0
N1335 N 0.195 0.06578 0.96339 0.0
N1336 N 0.1666 0.05847 0.01104 0.0
C1337 C 0.14847 0.04944 0.98517 0.0
C1338 C 0.1639 0.05333 0.95938 0.0
C1339 C 0.8314 0.37789 0.59109 0.0
C1340 C 0.84858 0.41025 0.58788 0.0
C1341 C 0.8412 0.36073 0.61215 0.0
C1342 C 0.86845 0.37531 0.63085 0.0
H1343 H 0.80995 0.36583 0.57756 0.0
H1344 H 0.82686 0.33617 0.61433 0.0
S1345 S 0.9235 0.45817 0.62955 0.0
N1346 N 0.89546 0.45539 0.60394 0.0
N1347 N 0.9137 0.42295 0.64351 0.0
C1348 C 0.88638 0.40722 0.62732 0.0
C1349 C 0.87649 0.42474 0.60585 0.0
C1350 C 0.51463 0.08805 0.43212 0.0
C1351 C 0.53037 0.08351 0.40803 0.0
C1352 C 0.52807 0.09033 0.46059 0.0
C1353 C 0.55785 0.08864 0.46604 0.0
H1354 H 0.49106 0.08794 0.42911 0.0
H1355 H 0.51441 0.09163 0.47844 0.0
S1356 S 0.61094 0.08291 0.41115 0.0
N1357 N 0.57898 0.08192 0.39172 0.0
N1358 N 0.6043 0.08646 0.44565 0.0
C1359 C 0.57504 0.08741 0.44247 0.0
C1360 C 0.56125 0.08477 0.4133 0.0
C1361 C 0.84632 0.78974 0.16249 0.0
C1362 C 0.81816 0.77925 0.14454 0.0
C1363 C 0.84802 0.79943 0.19281 0.0
C1364 C 0.8216 0.79903 0.20674 0.0
H1365 H 0.86699 0.78863 0.15343 0.0
H1366 H 0.87022 0.80637 0.20558 0.0
S1367 S 0.74229 0.77461 0.16905 0.0
N1368 N 0.7634 0.7698 0.14283 0.0
N1369 N 0.76639 0.78835 0.19904 0.0
C1370 C 0.79348 0.7898 0.18862 0.0
C1371 C 0.79182 0.77977 0.15789 0.0
C1372 C 0.1451 0.0483 0.76175 0.0
C1373 C 0.1757 0.06461 0.77314 0.0
C1374 C 0.13049 0.06082 0.74004 0.0
C1375 C 0.14589 0.09029 0.72928 0.0
H1376 H 0.13233 0.02576 0.76976 0.0
H1377 H 0.10706 0.04719 0.73143 0.0
S1378 S 0.22522 0.14411 0.75393 0.0
N1379 N 0.22044 0.11275 0.77314 0.0
N1380 N 0.19269 0.13645 0.73277 0.0
C1381 C 0.17633 0.10711 0.7408 0.0
C1382 C 0.19133 0.09423 0.76263 0.0
C1383 C 0.80653 0.43232 0.39587 0.0
C1384 C 0.79955 0.41978 0.42254 0.0
C1385 C 0.81041 0.41258 0.37195 0.0
C1386 C 0.80732 0.37941 0.37365 0.0
H1387 H 0.81046 0.45798 0.39375 0.0
H1388 H 0.81676 0.4238 0.35227 0.0
S1389 S 0.78463 0.33355 0.43725 0.0
N1390 N 0.78645 0.37134 0.44831 0.0
N1391 N 0.79358 0.33412 0.40337 0.0
C1392 C 0.79845 0.36606 0.39963 0.0
C1393 C 0.79459 0.38625 0.42404 0.0
C1394 C 0.436 0.03454 0.23375 0.0
C1395 C 0.45243 0.06293 0.25254 0.0
C1396 C 0.44805 0.02558 0.20871 0.0
C1397 C 0.47647 0.04505 0.2017 0.0
H1398 H 0.4149 0.01791 0.23948 0.0
H1399 H 0.43589 1.00263 0.19561 0.0
S1400 S 0.52654 0.12333 0.24146 0.0
N1401 N 0.49699 0.11193 0.26061 0.0
N1402 N 0.51963 0.09472 0.21363 0.0
C1403 C 0.49198 0.0745 0.21899 0.0
C1404 C 0.47985 0.08363 0.24439 0.0
C1405 C 0.83144 0.75529 0.92562 0.0
C1406 C 0.83306 0.77825 0.94982 0.0
C1407 C 0.833 0.76393 0.8967 0.0
C1408 C 0.8365 0.79611 0.89021 0.0
H1409 H 0.82844 0.73007 0.92892 0.0
H1410 H 0.83103 0.74499 0.8792 0.0
S1411 S 0.84278 0.86609 0.94546 0.0
N1412 N 0.83892 0.83502 0.96492 0.0
N1413 N 0.8421 0.8513 0.91127 0.0
C1414 C 0.83865 0.81946 0.91429 0.0
C1415 C 0.83688 0.81058 0.94373 0.0
C1416 C 0.90642 0.07902 0.08679 0.0
C1417 C 0.8918 0.0994 0.07395 0.0
C1418 C 0.91634 0.05704 0.06959 0.0
C1419 C 0.91179 0.05441 0.03891 0.0
H1420 H 0.9095 0.0794 0.11032 0.0
H1421 H 0.92756 0.04186 0.08044 0.0
S1422 S 0.87631 0.10335 0.99438 0.0
N1423 N 0.87479 0.11675 0.02851 0.0
N1424 N 0.89301 0.07482 0.9963 0.0
C1425 C 0.89831 0.07542 0.02573 0.0
C1426 C 0.88846 0.09811 0.04322 0.0
C1427 C 0.44935 0.48361 0.07233 0.0
C1428 C 0.42992 0.47501 0.04606 0.0
C1429 C 0.4793 0.50543 0.07353 0.0
C1430 C 0.49105 0.51915 0.04844 0.0
H1431 H 0.44094 0.47464 0.09229 0.0
H1432 H 0.4932 0.51183 0.09447 0.0
S1433 S 0.44998 0.50139 0.97367 0.0
N1434 N 0.42496 0.47986 0.99397 0.0
N1435 N 0.48123 0.52037 0.99615 0.0
C1436 C 0.47219 0.50943 0.02179 0.0
C1437 C 0.44166 0.48751 0.02064 0.0
C1438 C 0.39788 0.63439 0.80476 0.0
C1439 C 0.38752 0.61818 0.77654 0.0
C1440 C 0.37946 0.64851 0.82031 0.0
C1441 C 0.35024 0.64766 0.80795 0.0
H1442 H 0.42033 0.63599 0.81504 0.0
H1443 H 0.3885 0.66081 0.84199 0.0
S1444 S 0.31262 0.6074 0.73447 0.0
N1445 N 0.34603 0.60076 0.73708 0.0
N1446 N 0.31184 0.62861 0.76555 0.0
C1447 C 0.33942 0.63081 0.77984 0.0
C1448 C 0.35801 0.61588 0.76428 0.0
C1449 C 0.21214 0.62094 0.60432 0.0
C1450 C 0.23078 0.61146 0.58514 0.0
C1451 C 0.18017 0.60888 0.5987 0.0
C1452 C 0.16614 0.58781 0.57332 0.0
H1453 H 0.22233 0.63808 0.62355 0.0
H1454 H 0.16642 0.61734 0.6135 0.0
S1455 S 0.20475 0.55489 0.51684 0.0
N1456 N 0.23305 0.57861 0.54063 0.0
N1457 N 0.17279 0.5569 0.52952 0.0
C1458 C 0.18446 0.57756 0.55437 0.0
C1459 C 0.21693 0.58914 0.56044 0.0
C1460 C 0.7429 0.99599 0.82752 0.0
C1461 C 0.74809 1.00419 0.79908 0.0
C1462 C 0.76542 0.98898 0.84564 0.0
C1463 C 0.79383 0.99005 0.83592 0.0
H1464 H 0.72134 0.99498 0.83585 0.0
H1465 H 0.76035 0.98202 0.86714 0.0
S1466 S 0.81769 1.0079 0.76238 0.0
N1467 N 0.78323 1.0119 0.76172 0.0
N1468 N 0.82508 0.99814 0.79526 0.0
C1469 C 0.79914 0.99815 0.80743 0.0
C1470 C 0.77637 1.00534 0.78914 0.0
C1471 C 0.76042 0.95368 0.57159 0.0
C1472 C 0.75694 0.92431 0.55423 0.0
C1473 C 0.74386 0.97437 0.56383 0.0
C1474 C 0.72318 0.96657 0.53835 0.0
H1475 H 0.77716 0.96147 0.59072 0.0
H1476 H 0.74797 0.99718 0.57747 0.0
S1477 S 0.70375 0.89137 0.48652 0.0
N1478 N 0.72973 0.88732 0.51139 0.0
N1479 N 0.6984 0.92648 0.49671 0.0
C1480 C 0.71798 0.93636 0.52166 0.0
C1481 C 0.73492 0.91512 0.52964 0.0
C1482 C 0.4226 0.4352 0.75081 0.0
C1483 C 0.4085 0.45623 0.73842 0.0
C1484 C 0.406 0.40986 0.7659 0.0
C1485 C 0.37469 0.40459 0.7689 0.0
H1486 H 0.44695 0.43938 0.75021 0.0
H1487 H 0.41789 0.39449 0.77544 0.0
S1488 S 0.32668 0.45134 0.73786 0.0
N1489 N 0.36117 0.46888 0.7282 0.0
N1490 N 0.3299 0.42142 0.7565 0.0
C1491 C 0.36007 0.42461 0.75538 0.0
C1492 C 0.37698 0.45035 0.74012 0.0
C1493 C 0.25522 0.64073 0.22955 0.0
C1494 C 0.22431 0.63814 0.22169 0.0
C1495 C 0.27693 0.67066 0.24072 0.0
C1496 C 0.26841 0.69898 0.24474 0.0
H1497 H 0.26239 0.61912 0.22857 0.0
H1498 H 0.30009 0.67121 0.24771 0.0
S1499 S 0.19206 0.70678 0.22256 0.0
N1500 N 0.18745 0.66755 0.21494 0.0
N1501 N 0.2283 0.72382 0.23606 0.0
C1502 C 0.23829 0.69737 0.23475 0.0
C1503 C 0.21624 0.66694 0.22306 0.0
C1504 C 0.56326 0.69785 0.52085 0.0
C1505 C 0.53826 0.69318 0.49938 0.0
C1506 C 0.571 0.67126 0.53142 0.0
C1507 C 0.55394 0.63844 0.52142 0.0
H1508 H 0.57762 0.72239 0.52907 0.0
H1509 H 0.59071 0.67662 0.54758 0.0
S1510 S 0.48518 0.61247 0.46635 0.0
N1511 N 0.49589 0.65273 0.4692 0.0
N1512 N 0.50983 0.60323 0.48916 0.0
C1513 C 0.52835 0.63345 0.50049 0.0
C1514 C 0.52072 0.66055 0.48949 0.0
C1515 C 0.72707 0.35256 0.72604 0.0
C1516 C 0.72642 0.34741 0.69541 0.0
C1517 C 0.74801 0.34416 0.7451 0.0
C1518 C 0.76967 0.33056 0.73452 0.0
H1519 H 0.71054 0.36235 0.73551 0.0
H1520 H 0.74692 0.34795 0.7684 0.0
S1521 S 0.77799 0.3117 0.65641 0.0
N1522 N 0.74967 0.32758 0.65548 0.0
N1523 N 0.78939 0.31241 0.69131 0.0
C1524 C 0.77007 0.32617 0.70399 0.0
C1525 C 0.74844 0.33445 0.68447 0.0
C1526 C 0.06023 0.41303 0.97245 0.0
C1527 C 0.04144 0.38577 0.98438 0.0
C1528 C 0.06455 0.44526 0.98411 0.0
C1529 C 0.05022 0.45245 0.00843 0.0
H1530 H 0.07193 0.4096 0.9536 0.0
H1531 H 0.07933 0.46475 0.97364 0.0
S1532 S 0.99929 0.39044 0.04897 0.0
N1533 N 1.00879 0.36839 0.02271 0.0
N1534 N 1.01682 0.42906 0.04476 0.0
C1535 C 0.03159 0.42554 0.02103 0.0
C1536 C 0.0273 0.39234 0.00909 0.0
C1537 C 0.02971 0.79656 0.19943 0.0
C1538 C 0.05848 0.80248 0.2154 0.0
C1539 C 1.00341 0.79394 0.21382 0.0
C1540 C 1.00519 0.79746 0.24456 0.0
H1541 H 0.02734 0.79278 0.17579 0.0
H1542 H 0.98143 0.78819 0.20082 0.0
S1543 S 0.07613 0.81871 0.29599 0.0
N1544 N 0.08777 0.81522 0.26336 0.0
N1545 N 0.03868 0.81115 0.29022 0.0
C1546 C 0.03416 0.80521 0.26059 0.0
C1547 C 0.06072 0.80752 0.24605 0.0
C1548 C 0.59028 0.46603 0.15238 0.0
C1549 C 0.58597 0.43403 0.13837 0.0
C1550 C 0.59084 0.49393 0.13677 0.0
C1551 C 0.58728 0.49253 0.10563 0.0
H1552 H 0.59312 0.46974 0.17602 0.0
H1553 H 0.59401 0.51704 0.14952 0.0
S1554 S 0.57513 0.41524 0.05724 0.0
N1555 N 0.57794 0.40384 0.09032 0.0
N1556 N 0.57906 0.45457 0.06184 0.0
C1557 C 0.583 0.46067 0.09141 0.0
C1558 C 0.58235 0.43232 0.10729 0.0
C1559 C 0.9745 0.34383 0.34687 0.0
C1560 C 0.97999 0.31725 0.36029 0.0
C1561 C 0.94458 0.34472 0.33617 0.0
C1562 C 0.91687 0.31884 0.33727 0.0
H1563 H 0.99392 0.36494 0.34465 0.0
H1564 H 0.94334 0.36633 0.32659 0.0
S1565 S 0.91621 0.24189 0.36892 0.0
N1566 N 0.95309 0.26342 0.37332 0.0
N1567 N 0.89807 0.2646 0.35305 0.0
C1568 C 0.92177 0.29172 0.35036 0.0
C1569 C 0.9525 0.29105 0.36176 0.0
C1570 C 0.06209 0.68809 0.64887 0.0
C1571 C 0.06821 0.71904 0.63789 0.0
C1572 C 0.06303 0.6592 0.63211 0.0
C1573 C 0.07019 0.6587 0.60283 0.0
H1574 H 0.05656 0.68595 0.67112 0.0
H1575 H 0.05807 0.63687 0.64247 0.0
S1576 S 0.0881 0.73244 0.5624 0.0
N1577 N 0.08172 0.74644 0.59481 0.0
N1578 N 0.08343 0.69321 0.56367 0.0
C1579 C 0.07622 0.68943 0.59137 0.0
C1580 C 0.07527 0.71898 0.60858 0.0
C1581 C 0.69604 0.79517 0.86742 0.0
C1582 C 0.68181 0.82026 0.86684 0.0
C1583 C 0.72358 0.79575 0.85369 0.0
C1584 C 0.74052 0.82189 0.83847 0.0
H1585 H 0.68554 0.77418 0.87861 0.0
H1586 H 0.73198 0.77518 0.8555 0.0
S1587 S 0.71502 0.89491 0.82975 0.0
N1588 N 0.68858 0.87268 0.84844 0.0
N1589 N 0.73925 0.87428 0.82438 0.0
C1590 C 0.72679 0.84738 0.83793 0.0
C1591 C 0.69827 0.84643 0.85139 0.0
C1592 C 0.49965 0.60536 0.64523 0.0
C1593 C 0.47555 0.57899 0.65191 0.0
C1594 C 0.51853 0.60102 0.62409 0.0
C1595 C 0.5144 0.56993 0.60938 0.0
H1596 H 0.50495 0.62917 0.65754 0.0
H1597 H 0.53736 0.62202 0.6203 0.0
S1598 S 0.45338 0.49319 0.61869 0.0
N1599 N 0.44724 0.52122 0.64156 0.0
N1600 N 0.48306 0.5126 0.60206 0.0
C1601 C 0.4892 0.54363 0.61482 0.0
C1602 C 0.46969 0.54828 0.63609 0.0
C1603 C 0.82164 0.24171 0.01137 0.0
C1604 C 0.81088 0.20809 0.01428 0.0
C1605 C 0.81256 0.25413 0.98632 0.0
C1606 C 0.79233 0.23341 0.96331 0.0
H1607 H 0.83734 0.25858 0.02848 0.0
H1608 H 0.82185 0.28009 0.98473 0.0
S1609 S 0.75553 0.14397 0.96096 0.0
N1610 N 0.77763 0.1545 0.99235 0.0
N1611 N 0.76044 0.17807 0.94561 0.0
C1612 C 0.78096 0.19989 0.96612 0.0
C1613 C 0.79026 0.18718 0.9915 0.0
C1614 C 0.0986 0.49588 0.16161 0.0
C1615 C 0.12768 0.49148 0.16381 0.0
C1616 C 0.08678 0.50507 0.13617 0.0
C1617 C 0.10332 0.50959 0.11178 0.0
H1618 H 0.08581 0.49466 0.18043 0.0
H1619 H 0.06515 0.51005 0.13618 0.0
S1620 S 0.17712 0.49324 0.10396 0.0
N1621 N 0.17027 0.48669 0.13784 0.0
N1622 N 0.14788 0.5034 0.08964 0.0
C1623 C 0.13078 0.50153 0.1125 0.0
C1624 C 0.14294 0.49242 0.1386 0.0
C1625 C 0.81872 0.87899 0.42951 0.0
C1626 C 0.83047 0.86468 0.45225 0.0
C1627 C 0.82023 0.87026 0.39979 0.0
C1628 C 0.83349 0.84641 0.39045 0.0
H1629 H 0.80826 0.89769 0.43458 0.0
H1630 H 0.8108 0.88267 0.38395 0.0
S1631 S 0.86691 0.79994 0.44037 0.0
N1632 N 0.85542 0.82439 0.46281 0.0
N1633 N 0.85801 0.80764 0.40695 0.0
C1634 C 0.84485 0.83117 0.41276 0.0
C1635 C 0.84336 0.84026 0.44343 0.0
C1636 C 0.55006 0.56101 0.81631 0.0
C1637 C 0.51896 0.55832 0.81 0.0
C1638 C 0.56155 0.55643 0.84401 0.0
C1639 C 0.54229 0.54881 0.86629 0.0
H1640 H 0.56561 0.56634 0.79963 0.0
H1641 H 0.58566 0.55882 0.848 0.0
S1642 S 0.45884 0.53752 0.8607 0.0
N1643 N 0.46899 0.54706 0.82829 0.0
N1644 N 0.49053 0.53779 0.88012 0.0
C1645 C 0.51119 0.54618 0.86036 0.0
C1646 C 0.49954 0.55114 0.83228 0.0
C1647 C 0.87184 0.25326 0.19699 0.0
C1648 C 0.84742 0.22547 0.18532 0.0
C1649 C 0.86753 0.27555 0.21883 0.0
C1650 C 0.83862 0.27069 0.2292 0.0
H1651 H 0.8944 0.25727 0.18981 0.0
H1652 H 0.88708 0.2961 0.22822 0.0
S1653 S 0.7666 0.20386 0.20192 0.0
N1654 N 0.79305 0.19579 0.18342 0.0
N1655 N 0.78467 0.23769 0.22356 0.0
C1656 C 0.81382 0.24376 0.21636 0.0
C1657 C 0.81831 0.22114 0.19462 0.0
C1658 C 0.1512 0.58766 0.33117 0.0
C1659 C 0.12722 0.58055 0.30839 0.0
C1660 C 0.14747 0.59869 0.35934 0.0
C1661 C 0.11963 0.60292 0.36575 0.0
H1662 H 0.17307 0.58457 0.32731 0.0
H1663 H 0.16637 0.60352 0.37636 0.0
S1664 S 0.04971 0.58777 0.31413 0.0
N1665 N 0.07477 0.57895 0.29403 0.0
N1666 N 0.06763 0.5993 0.34746 0.0
C1667 C 0.09561 0.59656 0.34319 0.0
C1668 C 0.09944 0.58544 0.31436 0.0
C1669 C 0.84662 0.87684 0.67583 0.0
C1670 C 0.83162 0.85335 0.65189 0.0
C1671 C 0.84347 0.8704 0.70519 0.0
C1672 C 0.8249 0.84007 0.71265 0.0
H1673 H 0.86106 0.90078 0.67192 0.0
H1674 H 0.8559 0.88962 0.72227 0.0
S1675 S 0.78017 0.76973 0.65858 0.0
N1676 N 0.79714 0.79812 0.6381 0.0
N1677 N 0.79117 0.78604 0.6928 0.0
C1678 C 0.80967 0.81626 0.68893 0.0
C1679 C 0.81302 0.82283 0.65889 0.0
C1680 C 0.75446 0.50993 0.58451 0.0
C1681 C 0.76142 0.51587 0.55606 0.0
C1682 C 0.74166 0.52998 0.60093 0.0
C1683 C 0.73504 0.55637 0.58925 0.0
H1684 H 0.75964 0.49002 0.59444 0.0
H1685 H 0.7368 0.52475 0.62297 0.0
S1686 S 0.74621 0.5796 0.51423 0.0
N1687 N 0.7599 0.54873 0.51625 0.0
N1688 N 0.73419 0.58547 0.54632 0.0
C1689 C 0.74131 0.56196 0.5604 0.0
C1690 C 0.7549 0.54193 0.54399 0.0
C1691 C 0.20672 0.18275 0.56189 0.0
C1692 C 0.22572 0.17704 0.54107 0.0
C1693 C 0.18005 0.15796 0.56679 0.0
C1694 C 0.17129 0.12692 0.55065 0.0
H1695 H 0.21273 0.2063 0.57476 0.0
H1696 H 0.16567 0.16348 0.58257 0.0
S1697 S 0.21324 0.09975 0.49373 0.0
N1698 N 0.2342 0.13794 0.50468 0.0
N1699 N 0.18377 0.09191 0.5132 0.0
C1700 C 0.19015 0.12102 0.52986 0.0
C1701 C 0.21744 0.14593 0.52527 0.0
C1702 C 0.27751 0.98234 0.84045 0.0
C1703 C 0.28653 0.01527 0.85223 0.0
C1704 C 0.29704 0.97027 0.8247 0.0
C1705 C 0.32641 0.9905 0.82049 0.0
H1706 H 0.25449 0.96624 0.84166 0.0
H1707 H 0.28871 0.9451 0.81491 0.0
S1708 S 0.36332 0.0766 0.85142 0.0
N1709 N 0.32853 0.06669 0.86207 0.0
N1710 N 0.3653 0.04348 0.83245 0.0
C1711 C 0.33691 0.02246 0.83444 0.0
C1712 C 0.31694 0.03496 0.8504 0.0
C1713 C 0.43818 1.01292 0.02221 0.0
C1714 C 0.4261 0.03288 0.00562 0.0
C1715 C 0.4692 0.0224 0.03254 0.0
C1716 C 0.48953 0.05222 0.02668 0.0
H1717 H 0.42353 0.98985 0.02782 0.0
H1718 H 0.47714 1.00625 0.0455 0.0
S1719 S 0.47009 0.11273 0.98283 0.0
N1720 N 0.43718 0.08338 0.98281 0.0
N1721 N 0.49583 0.10127 1.00216 0.0
C1722 C 0.47805 0.07222 0.00956 0.0
C1723 C 0.44628 0.06251 0.99899 0.0
C1724 C 0.82552 0.58612 0.84938 0.0
C1725 C 0.85518 0.60557 0.86147 0.0
C1726 C 0.8028 0.6003 0.84219 0.0
C1727 C 0.80895 0.63427 0.84715 0.0
H1728 H 0.82065 0.5603 0.84279 0.0
H1729 H 0.78129 0.58502 0.83029 0.0
S1730 S 0.88055 0.69444 0.88515 0.0
N1731 N 0.88756 0.65925 0.88338 0.0
N1732 N 0.84508 0.68608 0.8697 0.0
C1733 C 0.83716 0.65323 0.86281 0.0
C1734 C 0.86029 0.6388 0.86998 0.0
C1735 C 0.90376 0.67586 0.08852 0.0
C1736 C 0.89029 0.68222 0.06225 0.0
C1737 C 0.92362 0.6571 0.08851 0.0
C1738 C 0.93027 0.64348 0.0622 0.0
H1739 H 0.8975 0.68389 0.10927 0.0
H1740 H 0.9322 0.65145 0.10926 0.0
S1741 S 0.90353 0.65587 0.98753 0.0
N1742 N 0.8871 0.67601 0.00929 0.0
N1743 N 0.9243 0.6403 0.00919 0.0
C1744 C 0.91852 0.65138 0.03577 0.0
C1745 C 0.89861 0.67097 0.03581 0.0
C1746 C 0.23627 0.19872 0.8517 0.0
C1747 C 0.24603 0.17121 0.84811 0.0
C1748 C 0.25352 0.22855 0.84323 0.0
C1749 C 0.28067 0.23176 0.82996 0.0
H1750 H 0.21489 0.19703 0.8607 0.0
H1751 H 0.24505 0.24903 0.84673 0.0
S1752 S 0.31625 0.16659 0.81636 0.0
N1753 N 0.28493 0.14884 0.8315 0.0
N1754 N 0.31705 0.20476 0.81477 0.0
C1755 C 0.29107 0.20448 0.82694 0.0
C1756 C 0.27379 0.17423 0.83618 0.0
C1757 C 0.40284 0.9291 0.33901 0.0
C1758 C 0.42532 0.94392 0.32105 0.0
C1759 C 0.38354 0.89696 0.33166 0.0
C1760 C 0.3858 0.87871 0.3059 0.0
H1761 H 0.39939 0.94277 0.3584 0.0
H1762 H 0.36592 0.88687 0.34561 0.0
S1763 S 0.44311 0.90453 0.25324 0.0
N1764 N 0.45048 0.93664 0.27771 0.0
N1765 N 0.41414 0.87627 0.264 0.0
C1766 C 0.40924 0.89249 0.28862 0.0
C1767 C 0.42909 0.92508 0.29622 0.0
C1768 C 0.62012 0.45265 0.62367 0.0
C1769 C 0.62102 0.42561 0.60484 0.0
C1770 C 0.61183 0.47893 0.61312 0.0
C1771 C 0.60357 0.47955 0.58313 0.0
H1772 H 0.62575 0.45355 0.64698 0.0
H1773 H 0.61146 0.49873 0.6288 0.0
S1774 S 0.60326 0.41566 0.52411 0.0
N1775 N 0.61375 0.40204 0.55426 0.0
N1776 N 0.59802 0.45071 0.5346 0.0
C1777 C 0.60476 0.45287 0.56399 0.0
C1778 C 0.61349 0.42625 0.57473 0.0
C1779 C 0.44249 0.75718 0.3459 0.0
C1780 C 0.44405 0.76603 0.37618 0.0
C1781 C 0.41684 0.75561 0.32659 0.0
C1782 C 0.39132 0.76267 0.33659 0.0
H1783 H 0.46223 0.75341 0.33673 0.0
H1784 H 0.41765 0.75026 0.30341 0.0
S1785 S 0.38299 0.78563 0.41407 0.0
N1786 N 0.41711 0.78048 0.41545 0.0
N1787 N 0.36874 0.77748 0.37934 0.0
C1788 C 0.39169 0.7696 0.3671 0.0
C1789 C 0.41804 0.77126 0.38683 0.0
C1790 C 0.13671 0.69504 0.11229 0.0
C1791 C 0.11799 0.7151 0.10852 0.0
C1792 C 0.12869 0.66321 0.09774 0.0
C1793 C 0.10112 0.64946 0.0792 0.0
H1794 H 0.15771 0.70387 0.12704 0.0
H1795 H 0.14381 0.64889 0.10188 0.0
S1796 S 0.04416 0.6918 0.06107 0.0
N1797 N 0.07101 0.71906 0.08391 0.0
N1798 N 0.05546 0.65919 0.05712 0.0
C1799 C 0.08239 0.66946 0.07478 0.0
C1800 C 0.09093 0.7022 0.0892 0.0
C1801 C 0.13137 0.31612 0.92422 0.0
C1802 C 0.10599 0.28795 0.91559 0.0
C1803 C 0.15531 0.32578 0.90645 0.0
C1804 C 0.15473 0.30726 0.87982 0.0
H1805 H 0.13227 0.33134 0.94427 0.0
H1806 H 0.17433 0.34781 0.91351 0.0
S1807 S 0.09407 0.23099 0.84806 0.0
N1808 N 0.08233 0.24123 0.87917 0.0
N1809 N 0.12704 0.25943 0.84594 0.0
C1810 C 0.12984 0.27874 0.87139 0.0
C1811 C 0.10556 0.26905 0.88926 0.0
C1812 C 0.5764 0.68663 0.96107 0.0
C1813 C 0.58097 0.7189 0.97453 0.0
C1814 C 0.57538 0.659 0.97719 0.0
C1815 C 0.57803 0.66071 0.00836 0.0
H1816 H 0.57399 0.68254 0.93746 0.0
H1817 H 0.57226 0.63571 0.96476 0.0
S1818 S 0.59022 0.7387 0.05555 0.0
N1819 N 0.58849 0.74979 0.02224 0.0
N1820 N 0.58562 0.69917 0.05161 0.0
C1821 C 0.58226 0.69274 0.02209 0.0
C1822 C 0.58396 0.72103 0.00568 0.0
C1823 C 0.20612 0.85118 0.72771 0.0
C1824 C 0.17714 0.83369 0.73677 0.0
C1825 C 0.23531 0.84876 0.7397 0.0
C1826 C 0.2384 0.82791 0.7614 0.0
H1827 H 0.20643 0.86731 0.71095 0.0
H1828 H 0.25587 0.86331 0.73135 0.0
S1829 S 0.17056 0.77584 0.79341 0.0
N1830 N 0.15484 0.79443 0.76993 0.0
N1831 N 0.2079 0.78923 0.79116 0.0
C1832 C 0.20959 0.81013 0.77054 0.0
C1833 C 0.17992 0.81313 0.75876 0.0
C1834 C 0.07894 0.42355 0.49265 0.0
C1835 C 0.08943 0.42413 0.46446 0.0
C1836 C 0.07608 0.45208 0.50916 0.0
C1837 C 0.08329 0.48347 0.49876 0.0
H1838 H 0.07249 0.40065 0.50212 0.0
H1839 H 0.06777 0.44929 0.53037 0.0
S1840 S 0.1126 0.4998 0.42673 0.0
N1841 N 0.1077 0.46055 0.4277 0.0
N1842 N 0.10223 0.51232 0.45776 0.0
C1843 C 0.09404 0.48433 0.47077 0.0
C1844 C 0.09707 0.45552 0.4541 0.0
C1845 C 0.46685 0.3495 0.25378 0.0
C1846 C 0.47475 0.32034 0.24778 0.0
C1847 C 0.43913 0.35037 0.26668 0.0
C1848 C 0.41619 0.32213 0.27428 0.0
H1849 H 0.48257 0.37233 0.24895 0.0
H1850 H 0.43555 0.37384 0.27046 0.0
S1851 S 0.42368 0.23882 0.26293 0.0
N1852 N 0.45525 0.26198 0.25119 0.0
N1853 N 0.40471 0.26362 0.27358 0.0
C1854 C 0.42363 0.2929 0.26794 0.0
C1855 C 0.45201 0.29207 0.25545 0.0
C1856 C 0.64614 0.53824 0.44485 0.0
C1857 C 0.6627 0.56964 0.4387 0.0
C1858 C 0.63389 0.53365 0.47152 0.0
C1859 C 0.63866 0.5602 0.49288 0.0
H1860 H 0.63971 0.51784 0.42787 0.0
H1861 H 0.61858 0.50976 0.47453 0.0
S1862 S 0.68538 0.64599 0.48911 0.0
N1863 N 0.68664 0.62676 0.45709 0.0
N1864 N 0.66475 0.61786 0.50793 0.0
C1865 C 0.65839 0.59088 0.48834 0.0
C1866 C 0.67015 0.5957 0.46093 0.0
C1867 C 0.33313 0.87178 0.07486 0.0
C1868 C 0.34908 0.90537 0.07596 0.0
C1869 C 0.34116 0.85279 0.09528 0.0
C1870 C 0.36536 0.86672 0.1176 0.0
H1871 H 0.31401 0.86006 0.05834 0.0
H1872 H 0.32771 0.82723 0.09414 0.0
S1873 S 0.41601 0.95282 0.12901 0.0
N1874 N 0.39146 0.95133 0.10051 0.0
N1875 N 0.40637 0.91546 0.13877 0.0
C1876 C 0.38204 0.9 0.11855 0.0
C1877 C 0.37396 0.91937 0.09777 0.0
C1878 C 1.00017 0.5864 0.93764 0.0
C1879 C 1.01681 0.59118 0.91324 0.0
C1880 C 1.014 0.583 0.96463 0.0
C1881 C 0.04504 0.5847 0.96831 0.0
H1882 H 0.97574 0.5828 0.9355 0.0
H1883 H 0.99984 0.57739 0.98237 0.0
S1884 S 0.10027 0.60408 0.91308 0.0
N1885 N 0.06716 0.60279 0.89569 0.0
N1886 N 0.09322 0.59658 0.94674 0.0
C1887 C 0.06277 0.59301 0.94505 0.0
C1888 C 0.04861 0.59621 0.9174 0.0
C1889 C 0.29021 0.26965 0.66595 0.0
C1890 C 0.31596 0.27702 0.64997 0.0
C1891 C 0.29266 0.27936 0.6962 0.0
C1892 C 0.32118 0.2963 0.71238 0.0
H1893 H 0.26791 0.25508 0.65509 0.0
H1894 H 0.27206 0.2723 0.70717 0.0
S1895 S 0.3958 0.32312 0.68099 0.0
N1896 N 0.37087 0.30371 0.65264 0.0
N1897 N 0.3758 0.32168 0.70929 0.0
C1898 C 0.34708 0.30482 0.69648 0.0
C1899 C 0.34442 0.29532 0.66546 0.0
C1900 C 0.60052 0.52378 0.25082 0.0
C1901 C 0.5995 0.53558 0.27983 0.0
C1902 C 0.58367 0.53184 0.22777 0.0
C1903 C 0.56524 0.5518 0.23308 0.0
H1904 H 0.61667 0.5111 0.24561 0.0
H1905 H 0.58759 0.52516 0.20567 0.0
S1906 S 0.54789 0.58046 0.30537 0.0
N1907 N 0.57343 0.56183 0.3129 0.0
N1908 N 0.54184 0.57705 0.26938 0.0
C1909 C 0.56081 0.55982 0.26205 0.0
C1910 C 0.57791 0.55159 0.28552 0.0
C1911 C 0.32311 0.93844 0.88754 0.0
C1912 C 0.30753 0.92653 0.91133 0.0
C1913 C 0.32592 0.91698 0.86435 0.0
C1914 C 0.31285 0.88295 0.86392 0.0
H1915 H 0.3346 0.96437 0.88754 0.0
H1916 H 0.33901 0.92713 0.84698 0.0
S1917 S 0.26635 0.83999 0.91954 0.0
N1918 N 0.27661 0.87904 0.93201 0.0
N1919 N 0.28135 0.83865 0.88837 0.0
C1920 C 0.29557 0.87095 0.88681 0.0
C1921 C 0.29306 0.89277 0.91051 0.0
C1922 C 0.96523 0.58094 0.74018 0.0
C1923 C 0.94321 0.55769 0.75322 0.0
C1924 C 0.97803 0.57175 0.71578 0.0
C1925 C 0.96965 0.53888 0.70391 0.0
H1926 H 0.97331 0.60629 0.74946 0.0
H1927 H 0.99563 0.59033 0.70694 0.0
S1928 S 0.91236 0.4686 0.72943 0.0
N1929 N 0.91277 0.5004 0.75193 0.0
N1930 N 0.93723 0.48319 0.70614 0.0
C1931 C 0.94705 0.51547 0.7162 0.0
C1932 C 0.93365 0.52487 0.74082 0.0
C1933 C 0.34214 0.31329 0.44761 0.0
C1934 C 0.33028 0.2805 0.4536 0.0
C1935 C 0.34431 0.32182 0.41853 0.0
C1936 C 0.33422 0.2981 0.39379 0.0
H1937 H 0.34996 0.33261 0.46555 0.0
H1938 H 0.35345 0.34741 0.41547 0.0
S1939 S 0.30007 0.20871 0.39719 0.0
N1940 N 0.30806 0.22425 0.43175 0.0
N1941 N 0.311 0.24009 0.37811 0.0
C1942 C 0.32206 0.2653 0.39965 0.0
C1943 C 0.32041 0.25661 0.4291 0.0
C1944 C 0.37318 0.54777 0.57387 0.0
C1945 C 0.38468 0.5821 0.57825 0.0
C1946 C 0.38742 0.5297 0.557 0.0
C1947 C 0.41397 0.54521 0.54416 0.0
H1948 H 0.35229 0.5347 0.58267 0.0
H1949 H 0.37728 0.50337 0.55368 0.0
S1950 S 0.45546 0.6344 0.55212 0.0
N1951 N 0.42511 0.6309 0.56997 0.0
N1952 N 0.453 0.59685 0.53939 0.0
C1953 C 0.42644 0.57953 0.54931 0.0
C1954 C 0.41153 0.59799 0.56608 0.0
C1955 C 0.93653 1.01393 0.5573 0.0
C1956 C 0.92797 0.97964 0.55706 0.0
C1957 C 0.96715 0.03307 0.55672 0.0
C1958 C 0.99044 0.01865 0.55544 0.0
H1959 H 0.91925 0.02614 0.55718 0.0
H1960 H 0.97239 0.05915 0.55612 0.0
S1961 S 0.98107 0.93052 0.55777 0.0
N1962 N 0.9459 0.93255 0.55804 0.0
N1963 N 1.00347 0.96835 0.55681 0.0
C1964 C 0.98253 0.98461 0.55667 0.0
C1965 C 0.95133 0.96516 0.55759 0.0
C1966 C 0.87717 0.10982 0.29498 0.0
C1967 C 0.90441 0.12817 0.28437 0.0
C1968 C 0.85607 0.12459 0.30464 0.0
C1969 C 0.86136 0.15809 0.30369 0.0
H1970 H 0.87182 0.08371 0.29541 0.0
H1971 H 0.83506 0.10959 0.312 0.0
S1972 S 0.92939 0.21752 0.27961 0.0
N1973 N 0.93599 0.18216 0.27503 0.0
N1974 N 0.89586 0.20964 0.29273 0.0
C1975 C 0.88872 0.17694 0.29398 0.0
C1976 C 0.91042 0.16205 0.28447 0.0
C1977 C 0.71874 0.09834 0.10875 0.0
C1978 C 0.73815 0.12387 0.09578 0.0
C1979 C 0.68723 0.08662 0.09947 0.0
C1980 C 0.67467 0.09958 0.07647 0.0
H1981 H 0.72785 0.0879 0.12646 0.0
H1982 H 0.67266 0.06732 0.1103 0.0
S1983 S 0.71702 0.16571 0.03459 0.0
N1984 N 0.74343 0.16117 0.05859 0.0
N1985 N 0.68444 0.13879 0.04055 0.0
C1986 C 0.69426 0.12457 0.06286 0.0
C1987 C 0.72604 0.13684 0.07271 0.0
C1988 C 0.23929 0.49654 0.32825 0.0
C1989 C 0.24454 0.50273 0.29934 0.0
C1990 C 0.2619 0.49104 0.34743 0.0
C1991 C 0.29048 0.49172 0.33834 0.0
H1992 H 0.21762 0.49596 0.33611 0.0
H1993 H 0.25679 0.48555 0.36929 0.0
S1994 S 0.31463 0.50462 0.26412 0.0
N1995 N 0.27995 0.50814 0.2623 0.0
N1996 N 0.32201 0.49732 0.2979 0.0
C1997 C 0.29586 0.49786 0.30941 0.0
C1998 C 0.27299 0.50345 0.29003 0.0
C1999 C 0.26346 0.46133 0.07006 0.0
C2000 C 0.25951 0.43053 0.05504 0.0
C2001 C 0.24578 0.48059 0.06122 0.0
C2002 C 0.22356 0.46993 0.03685 0.0
H2003 H 0.28107 0.4711 0.08835 0.0
H2004 H 0.24995 0.50433 0.07328 0.0
S2005 S 0.20349 0.39074 0.99045 0.0
N2006 N 0.23095 0.38963 0.01518 0.0
N2007 N 0.19772 0.42612 0.99833 0.0
C2008 C 0.21843 0.43862 0.02226 0.0
C2009 C 0.23642 0.41882 0.03141 0.0
C2010 C 0.89523 0.9598 0.2566 0.0
C2011 C 0.92544 0.96266 0.25102 0.0
C2012 C 0.87657 0.9319 0.26695 0.0
C2013 C 0.88746 0.90582 0.2726 0.0
H2014 H 0.88587 0.97944 0.25307 0.0
H2015 H 0.85349 0.93103 0.27092 0.0
S2016 S 0.96483 0.90094 0.26124 0.0
N2017 N 0.96542 0.93692 0.25138 0.0
N2018 N 0.93033 0.8843 0.27135 0.0
C2019 C 0.91762 0.90818 0.26698 0.0
C2020 C 0.93657 0.93658 0.25595 0.0
C2021 C 0.71472 0.17026 0.74106 0.0
C2022 C 0.72437 0.14476 0.72888 0.0
C2023 C 0.7361 0.19985 0.75353 0.0
C2024 C 0.76767 0.20506 0.75348 0.0
H2025 H 0.69059 0.16659 0.74275 0.0
H2026 H 0.72794 0.2186 0.76364 0.0
S2027 S 0.80465 0.14744 0.72197 0.0
N2028 N 0.7675 0.12727 0.71628 0.0
N2029 N 0.80772 0.18376 0.73848 0.0
C2030 C 0.77763 0.18067 0.73984 0.0
C2031 C 0.75592 0.15022 0.72783 0.0
loop_
_geom_bond_atom_site_label_1
_geom_bond_atom_site_label_2
_geom_bond_distance
_geom_bond_site_symmetry_2
_ccdc_geom_bond_type
C0 O1 1.306 1_655 S
C0 O3 1.160 1_655 S
O1 C0 1.306 1_455 S
O1 Cd2 2.228 . S
Cd2 O1 2.228 . S
Cd2 O6 2.273 . S
Cd2 O10 2.277 . S
O3 C0 1.160 1_455 S
O3 Cd4 2.203 . S
Cd4 O3 2.203 . S
Cd4 O6 2.411 . S
Cd4 O7 2.333 . S
Cd4 O8 2.352 . S
Cd4 O12 2.277 . S
Cd4 O13 2.356 . S
C5 O10 1.209 . S
C5 O12 1.226 . S
O6 Cd2 2.273 . S
O6 Cd4 2.411 . S
O6 C9 1.320 . S
O7 Cd4 2.333 . S
O7 C9 1.214 . S
O8 Cd4 2.352 . S
O8 C11 1.258 . S
C9 O6 1.320 . S
C9 O7 1.214 . S
O10 Cd2 2.277 . S
O10 C5 1.209 . S
C11 O8 1.258 . S
C11 O13 1.282 . S
O12 Cd4 2.277 . S
O12 C5 1.226 . S
O13 Cd4 2.356 . S
O13 C11 1.282 . S
C14 O15 1.306 . S
C14 O17 1.160 . S
O15 C14 1.306 . S
O15 Cd16 2.228 . S
Cd16 O15 2.228 . S
Cd16 O20 2.273 . S
Cd16 O24 2.277 . S
O17 C14 1.160 . S
O17 Cd18 2.203 . S
Cd18 O17 2.203 . S
Cd18 O20 2.411 . S
Cd18 O21 2.333 . S
Cd18 O22 2.352 . S
Cd18 O26 2.277 . S
Cd18 O27 2.356 . S
C19 O24 1.209 . S
C19 O26 1.226 . S
O20 Cd16 2.273 . S
O20 Cd18 2.411 . S
O20 C23 1.320 . S
O21 Cd18 2.333 . S
O21 C23 1.214 . S
O22 Cd18 2.352 . S
O22 C25 1.258 . S
C23 O20 1.320 . S
C23 O21 1.214 . S
O24 Cd16 2.277 . S
O24 C19 1.209 . S
C25 O22 1.258 . S
C25 O27 1.282 . S
O26 Cd18 2.277 . S
O26 C19 1.226 . S
O27 Cd18 2.356 . S
O27 C25 1.282 . S
C28 O29 1.306 . S
C28 O31 1.160 . S
O29 C28 1.306 . S
O29 Cd30 2.228 . S
Cd30 O29 2.228 . S
Cd30 O34 2.273 . S
Cd30 O38 2.277 . S
O31 C28 1.160 . S
O31 Cd32 2.203 . S
Cd32 O31 2.203 . S
Cd32 O34 2.411 . S
Cd32 O35 2.333 . S
Cd32 O36 2.352 . S
Cd32 O40 2.277 . S
Cd32 O41 2.356 . S
C33 O38 1.209 . S
C33 O40 1.226 . S
O34 Cd30 2.273 . S
O34 Cd32 2.411 . S
O34 C37 1.320 . S
O35 Cd32 2.333 . S
O35 C37 1.214 . S
O36 Cd32 2.352 . S
O36 C39 1.258 . S
C37 O34 1.320 . S
C37 O35 1.214 . S
O38 Cd30 2.277 . S
O38 C33 1.209 . S
C39 O36 1.258 . S
C39 O41 1.282 . S
O40 Cd32 2.277 . S
O40 C33 1.226 . S
O41 Cd32 2.356 . S
O41 C39 1.282 . S
C42 O43 1.306 . S
C42 O45 1.160 . S
O43 C42 1.306 . S
O43 Cd44 2.228 . S
Cd44 O43 2.228 . S
Cd44 O48 2.273 . S
Cd44 O52 2.277 . S
O45 C42 1.160 . S
O45 Cd46 2.203 . S
Cd46 O45 2.203 . S
Cd46 O48 2.411 . S
Cd46 O49 2.333 . S
Cd46 O50 2.352 . S
Cd46 O54 2.277 . S
Cd46 O55 2.356 . S
C47 O52 1.209 . S
C47 O54 1.226 . S
O48 Cd44 2.273 . S
O48 Cd46 2.411 . S
O48 C51 1.320 . S
O49 Cd46 2.333 . S
O49 C51 1.214 . S
O50 Cd46 2.352 . S
O50 C53 1.258 . S
C51 O48 1.320 . S
C51 O49 1.214 . S
O52 Cd44 2.277 . S
O52 C47 1.209 . S
C53 O50 1.258 . S
C53 O55 1.282 . S
O54 Cd46 2.277 . S
O54 C47 1.226 . S
O55 Cd46 2.356 . S
O55 C53 1.282 . S
C56 O57 1.306 . S
C56 O59 1.160 . S
O57 C56 1.306 . S
O57 Cd58 2.228 . S
Cd58 O57 2.228 . S
Cd58 O62 2.273 . S
Cd58 O66 2.277 . S
O59 C56 1.160 . S
O59 Cd60 2.203 . S
Cd60 O59 2.203 . S
Cd60 O62 2.411 . S
Cd60 O63 2.333 . S
Cd60 O64 2.352 . S
Cd60 O68 2.277 . S
Cd60 O69 2.356 . S
C61 O66 1.209 . S
C61 O68 1.226 . S
O62 Cd58 2.273 . S
O62 Cd60 2.411 . S
O62 C65 1.320 . S
O63 Cd60 2.333 . S
O63 C65 1.214 . S
O64 Cd60 2.352 . S
O64 C67 1.258 . S
C65 O62 1.320 . S
C65 O63 1.214 . S
O66 Cd58 2.277 . S
O66 C61 1.209 . S
C67 O64 1.258 . S
C67 O69 1.282 . S
O68 Cd60 2.277 . S
O68 C61 1.226 . S
O69 Cd60 2.356 . S
O69 C67 1.282 . S
C70 O71 1.306 . S
C70 O73 1.160 . S
O71 C70 1.306 . S
O71 Cd72 2.228 . S
Cd72 O71 2.228 . S
Cd72 O76 2.273 . S
Cd72 O80 2.277 . S
O73 C70 1.160 . S
O73 Cd74 2.203 . S
Cd74 O73 2.203 . S
Cd74 O76 2.411 . S
Cd74 O77 2.333 . S
Cd74 O78 2.352 . S
Cd74 O82 2.277 . S
Cd74 O83 2.356 . S
C75 O80 1.209 . S
C75 O82 1.226 . S
O76 Cd72 2.273 . S
O76 Cd74 2.411 . S
O76 C79 1.320 . S
O77 Cd74 2.333 . S
O77 C79 1.214 . S
O78 Cd74 2.352 . S
O78 C81 1.258 . S
C79 O76 1.320 . S
C79 O77 1.214 . S
O80 Cd72 2.277 . S
O80 C75 1.209 . S
C81 O78 1.258 . S
C81 O83 1.282 . S
O82 Cd74 2.277 . S
O82 C75 1.226 . S
O83 Cd74 2.356 . S
O83 C81 1.282 . S
C84 O85 1.306 . S
C84 O87 1.160 . S
O85 C84 1.306 . S
O85 Cd86 2.228 . S
Cd86 O85 2.228 . S
Cd86 O90 2.273 . S
Cd86 O94 2.277 . S
O87 C84 1.160 . S
O87 Cd88 2.203 . S
Cd88 O87 2.203 . S
Cd88 O90 2.411 . S
Cd88 O91 2.333 . S
Cd88 O92 2.352 . S
Cd88 O96 2.277 . S
Cd88 O97 2.356 . S
C89 O94 1.209 . S
C89 O96 1.226 . S
O90 Cd86 2.273 . S
O90 Cd88 2.411 . S
O90 C93 1.320 . S
O91 Cd88 2.333 . S
O91 C93 1.214 . S
O92 Cd88 2.352 . S
O92 C95 1.258 . S
C93 O90 1.320 . S
C93 O91 1.214 . S
O94 Cd86 2.277 . S
O94 C89 1.209 . S
C95 O92 1.258 . S
C95 O97 1.282 . S
O96 Cd88 2.277 . S
O96 C89 1.226 . S
O97 Cd88 2.356 . S
O97 C95 1.282 . S
C98 O99 1.306 . S
C98 O101 1.160 . S
O99 C98 1.306 . S
O99 Cd100 2.228 1_655 S
Cd100 O99 2.228 1_455 S
Cd100 O104 2.273 . S
Cd100 O108 2.277 . S
O101 C98 1.160 . S
O101 Cd102 2.203 1_655 S
Cd102 O101 2.203 1_455 S
Cd102 O104 2.411 . S
Cd102 O105 2.333 . S
Cd102 O106 2.352 1_455 S
Cd102 O110 2.277 . S
Cd102 O111 2.356 . S
C103 O108 1.209 . S
C103 O110 1.226 . S
O104 Cd100 2.273 . S
O104 Cd102 2.411 . S
O104 C107 1.320 . S
O105 Cd102 2.333 . S
O105 C107 1.214 . S
O106 Cd102 2.352 1_655 S
O106 C109 1.258 . S
C107 O104 1.320 . S
C107 O105 1.214 . S
O108 Cd100 2.277 . S
O108 C103 1.209 . S
C109 O106 1.258 . S
C109 O111 1.282 1_655 S
O110 Cd102 2.277 . S
O110 C103 1.226 . S
O111 Cd102 2.356 . S
O111 C109 1.282 1_455 S
C112 O113 1.306 . S
C112 O115 1.160 . S
O113 C112 1.306 . S
O113 Cd114 2.228 1_545 S
Cd114 O113 2.228 1_565 S
Cd114 O118 2.273 1_565 S
Cd114 O122 2.277 . S
O115 C112 1.160 . S
O115 Cd116 2.203 . S
Cd116 O115 2.203 . S
Cd116 O118 2.411 . S
Cd116 O119 2.333 . S
Cd116 O120 2.352 . S
Cd116 O124 2.277 1_545 S
Cd116 O125 2.356 . S
C117 O122 1.209 . S
C117 O124 1.226 . S
O118 Cd114 2.273 1_545 S
O118 Cd116 2.411 . S
O118 C121 1.320 . S
O119 Cd116 2.333 . S
O119 C121 1.214 . S
O120 Cd116 2.352 . S
O120 C123 1.258 . S
C121 O118 1.320 . S
C121 O119 1.214 . S
O122 Cd114 2.277 . S
O122 C117 1.209 . S
C123 O120 1.258 . S
C123 O125 1.282 . S
O124 Cd116 2.277 1_565 S
O124 C117 1.226 . S
O125 Cd116 2.356 . S
O125 C123 1.282 . S
C126 O127 1.306 . S
C126 O129 1.160 . S
O127 C126 1.306 . S
O127 Cd128 2.228 . S
Cd128 O127 2.228 . S
Cd128 O132 2.273 . S
Cd128 O136 2.277 . S
O129 C126 1.160 . S
O129 Cd130 2.203 . S
Cd130 O129 2.203 . S
Cd130 O132 2.411 . S
Cd130 O133 2.333 . S
Cd130 O134 2.352 . S
Cd130 O138 2.277 . S
Cd130 O139 2.356 . S
C131 O136 1.209 . S
C131 O138 1.226 . S
O132 Cd128 2.273 . S
O132 Cd130 2.411 . S
O132 C135 1.320 . S
O133 Cd130 2.333 . S
O133 C135 1.214 . S
O134 Cd130 2.352 . S
O134 C137 1.258 . S
C135 O132 1.320 . S
C135 O133 1.214 . S
O136 Cd128 2.277 . S
O136 C131 1.209 . S
C137 O134 1.258 . S
C137 O139 1.282 . S
O138 Cd130 2.277 . S
O138 C131 1.226 . S
O139 Cd130 2.356 . S
O139 C137 1.282 . S
C140 O141 1.306 . S
C140 O143 1.160 . S
O141 C140 1.306 . S
O141 Cd142 2.228 . S
Cd142 O141 2.228 . S
Cd142 O146 2.273 . S
Cd142 O150 2.277 . S
O143 C140 1.160 . S
O143 Cd144 2.203 . S
Cd144 O143 2.203 . S
Cd144 O146 2.411 . S
Cd144 O147 2.333 . S
Cd144 O148 2.352 . S
Cd144 O152 2.277 . S
Cd144 O153 2.356 . S
C145 O150 1.209 . S
C145 O152 1.226 . S
O146 Cd142 2.273 . S
O146 Cd144 2.411 . S
O146 C149 1.320 . S
O147 Cd144 2.333 . S
O147 C149 1.214 . S
O148 Cd144 2.352 . S
O148 C151 1.258 . S
C149 O146 1.320 . S
C149 O147 1.214 . S
O150 Cd142 2.277 . S
O150 C145 1.209 . S
C151 O148 1.258 . S
C151 O153 1.282 . S
O152 Cd144 2.277 . S
O152 C145 1.226 . S
O153 Cd144 2.356 . S
O153 C151 1.282 . S
C154 O155 1.300 1_564 S
C154 O157 1.165 . S
O155 C154 1.300 1_546 S
O155 Cd156 2.228 . S
Cd156 O155 2.228 . S
Cd156 O160 2.272 1_545 S
Cd156 O164 2.277 1_545 S
O157 C154 1.165 . S
O157 Cd158 2.203 . S
Cd158 O157 2.203 . S
Cd158 O160 2.411 1_554 S
Cd158 O161 2.333 . S
Cd158 O162 2.352 . S
Cd158 O166 2.277 1_554 S
Cd158 O167 2.356 . S
C159 O164 1.209 . S
C159 O166 1.226 . S
O160 Cd156 2.272 1_565 S
O160 Cd158 2.411 1_556 S
O160 C163 1.321 . S
O161 Cd158 2.333 . S
O161 C163 1.213 1_554 S
O162 Cd158 2.352 . S
O162 C165 1.258 . S
C163 O160 1.321 . S
C163 O161 1.213 1_556 S
O164 Cd156 2.277 1_565 S
O164 C159 1.209 . S
C165 O162 1.258 . S
C165 O167 1.282 . S
O166 Cd158 2.277 1_556 S
O166 C159 1.226 . S
O167 Cd158 2.356 . S
O167 C165 1.282 . S
C168 O169 1.306 . S
C168 O171 1.160 . S
O169 C168 1.306 . S
O169 Cd170 2.228 . S
Cd170 O169 2.228 . S
Cd170 O174 2.273 . S
Cd170 O178 2.277 1_554 S
O171 C168 1.160 . S
O171 Cd172 2.203 . S
Cd172 O171 2.203 . S
Cd172 O174 2.411 . S
Cd172 O175 2.333 . S
Cd172 O176 2.352 . S
Cd172 O180 2.277 . S
Cd172 O181 2.356 . S
C173 O178 1.209 . S
C173 O180 1.226 1_556 S
O174 Cd170 2.273 . S
O174 Cd172 2.411 . S
O174 C177 1.320 . S
O175 Cd172 2.333 . S
O175 C177 1.214 . S
O176 Cd172 2.352 . S
O176 C179 1.258 . S
C177 O174 1.320 . S
C177 O175 1.214 . S
O178 Cd170 2.277 1_556 S
O178 C173 1.209 . S
C179 O176 1.258 . S
C179 O181 1.282 . S
O180 Cd172 2.277 . S
O180 C173 1.226 1_554 S
O181 Cd172 2.356 . S
O181 C179 1.282 . S
C182 O183 1.306 . S
C182 O185 1.160 . S
O183 C182 1.306 . S
O183 Cd184 2.228 . S
Cd184 O183 2.228 . S
Cd184 O188 2.273 . S
Cd184 O192 2.277 . S
O185 C182 1.160 . S
O185 Cd186 2.203 . S
Cd186 O185 2.203 . S
Cd186 O188 2.411 . S
Cd186 O189 2.333 . S
Cd186 O190 2.352 . S
Cd186 O194 2.277 . S
Cd186 O195 2.356 . S
C187 O192 1.209 . S
C187 O194 1.226 . S
O188 Cd184 2.273 . S
O188 Cd186 2.411 . S
O188 C191 1.320 . S
O189 Cd186 2.333 . S
O189 C191 1.214 . S
O190 Cd186 2.352 . S
O190 C193 1.258 . S
C191 O188 1.320 . S
C191 O189 1.214 . S
O192 Cd184 2.277 . S
O192 C187 1.209 . S
C193 O190 1.258 . S
C193 O195 1.282 . S
O194 Cd186 2.277 . S
O194 C187 1.226 . S
O195 Cd186 2.356 . S
O195 C193 1.282 . S
C196 O197 1.306 . S
C196 O199 1.160 . S
O197 C196 1.306 . S
O197 Cd198 2.228 . S
Cd198 O197 2.228 . S
Cd198 O202 2.273 . S
Cd198 O206 2.277 . S
O199 C196 1.160 . S
O199 Cd200 2.203 . S
Cd200 O199 2.203 . S
Cd200 O202 2.411 . S
Cd200 O203 2.333 . S
Cd200 O204 2.352 . S
Cd200 O208 2.277 . S
Cd200 O209 2.356 . S
C201 O206 1.209 . S
C201 O208 1.226 . S
O202 Cd198 2.273 . S
O202 Cd200 2.411 . S
O202 C205 1.320 . S
O203 Cd200 2.333 . S
O203 C205 1.214 . S
O204 Cd200 2.352 . S
O204 C207 1.258 . S
C205 O202 1.320 . S
C205 O203 1.214 . S
O206 Cd198 2.277 . S
O206 C201 1.209 . S
C207 O204 1.258 . S
C207 O209 1.282 . S
O208 Cd200 2.277 . S
O208 C201 1.226 . S
O209 Cd200 2.356 . S
O209 C207 1.282 . S
C210 O211 1.306 . S
C210 O213 1.160 . S
O211 C210 1.306 . S
O211 Cd212 2.228 . S
Cd212 O211 2.228 . S
Cd212 O216 2.273 . S
Cd212 O220 2.277 . S
O213 C210 1.160 . S
O213 Cd214 2.203 . S
Cd214 O213 2.203 . S
Cd214 O216 2.411 . S
Cd214 O217 2.333 . S
Cd214 O218 2.352 . S
Cd214 O222 2.277 . S
Cd214 O223 2.356 . S
C215 O220 1.209 . S
C215 O222 1.226 . S
O216 Cd212 2.273 . S
O216 Cd214 2.411 . S
O216 C219 1.320 . S
O217 Cd214 2.333 . S
O217 C219 1.214 . S
O218 Cd214 2.352 . S
O218 C221 1.258 . S
C219 O216 1.320 . S
C219 O217 1.214 . S
O220 Cd212 2.277 . S
O220 C215 1.209 . S
C221 O218 1.258 . S
C221 O223 1.282 . S
O222 Cd214 2.277 . S
O222 C215 1.226 . S
O223 Cd214 2.356 . S
O223 C221 1.282 . S
C224 O225 1.306 1_545 S
C224 O227 1.160 . S
O225 C224 1.306 1_565 S
O225 Cd226 2.228 . S
Cd226 O225 2.228 . S
Cd226 O230 2.273 1_565 S
Cd226 O234 2.277 . S
O227 C224 1.160 . S
O227 Cd228 2.203 . S
Cd228 O227 2.203 . S
Cd228 O230 2.411 . S
Cd228 O231 2.332 . S
Cd228 O232 2.352 . S
Cd228 O236 2.277 1_545 S
Cd228 O237 2.356 . S
C229 O234 1.209 . S
C229 O236 1.226 . S
O230 Cd226 2.273 1_545 S
O230 Cd228 2.411 . S
O230 C233 1.320 . S
O231 Cd228 2.332 . S
O231 C233 1.205 . S
O232 Cd228 2.352 . S
O232 C235 1.258 . S
C233 O230 1.320 . S
C233 O231 1.205 . S
O234 Cd226 2.277 . S
O234 C229 1.209 . S
C235 O232 1.258 . S
C235 O237 1.282 . S
O236 Cd228 2.277 1_565 S
O236 C229 1.226 . S
O237 Cd228 2.356 . S
O237 C235 1.282 . S
C238 O239 1.306 . S
C238 O241 1.160 . S
O239 C238 1.306 . S
O239 Cd240 2.228 . S
Cd240 O239 2.228 . S
Cd240 O244 2.273 . S
Cd240 O248 2.277 . S
O241 C238 1.160 . S
O241 Cd242 2.203 . S
Cd242 O241 2.203 . S
Cd242 O244 2.411 . S
Cd242 O245 2.333 . S
Cd242 O246 2.352 . S
Cd242 O250 2.277 . S
Cd242 O251 2.356 . S
C243 O248 1.209 . S
C243 O250 1.226 . S
O244 Cd240 2.273 . S
O244 Cd242 2.411 . S
O244 C247 1.320 . S
O245 Cd242 2.333 . S
O245 C247 1.214 . S
O246 Cd242 2.352 . S
O246 C249 1.258 . S
C247 O244 1.320 . S
C247 O245 1.214 . S
O248 Cd240 2.277 . S
O248 C243 1.209 . S
C249 O246 1.258 . S
C249 O251 1.282 . S
O250 Cd242 2.277 . S
O250 C243 1.226 . S
O251 Cd242 2.356 . S
O251 C249 1.282 . S
C252 O253 1.306 . S
C252 O255 1.160 . S
O253 C252 1.306 . S
O253 Cd254 2.228 . S
Cd254 O253 2.228 . S
Cd254 O258 2.273 . S
Cd254 O262 2.277 . S
O255 C252 1.160 . S
O255 Cd256 2.203 . S
Cd256 O255 2.203 . S
Cd256 O258 2.411 . S
Cd256 O259 2.333 . S
Cd256 O260 2.352 . S
Cd256 O264 2.277 . S
Cd256 O265 2.356 . S
C257 O262 1.209 . S
C257 O264 1.226 . S
O258 Cd254 2.273 . S
O258 Cd256 2.411 . S
O258 C261 1.320 . S
O259 Cd256 2.333 . S
O259 C261 1.214 . S
O260 Cd256 2.352 . S
O260 C263 1.258 . S
C261 O258 1.320 . S
C261 O259 1.214 . S
O262 Cd254 2.277 . S
O262 C257 1.209 . S
C263 O260 1.258 . S
C263 O265 1.282 . S
O264 Cd256 2.277 . S
O264 C257 1.226 . S
O265 Cd256 2.356 . S
O265 C263 1.282 . S
C266 O267 1.306 . S
C266 O269 1.160 . S
O267 C266 1.306 . S
O267 Cd268 2.228 . S
Cd268 O267 2.228 . S
Cd268 O272 2.273 . S
Cd268 O276 2.277 . S
O269 C266 1.160 . S
O269 Cd270 2.203 . S
Cd270 O269 2.203 . S
Cd270 O272 2.411 . S
Cd270 O273 2.333 . S
Cd270 O274 2.352 . S
Cd270 O278 2.277 . S
Cd270 O279 2.356 . S
C271 O276 1.209 . S
C271 O278 1.226 . S
O272 Cd268 2.273 . S
O272 Cd270 2.411 . S
O272 C275 1.320 . S
O273 Cd270 2.333 . S
O273 C275 1.214 . S
O274 Cd270 2.352 . S
O274 C277 1.258 . S
C275 O272 1.320 . S
C275 O273 1.214 . S
O276 Cd268 2.277 . S
O276 C271 1.209 . S
C277 O274 1.258 . S
C277 O279 1.282 . S
O278 Cd270 2.277 . S
O278 C271 1.226 . S
O279 Cd270 2.356 . S
O279 C277 1.282 . S
C280 O281 1.306 . S
C280 O283 1.160 . S
O281 C280 1.306 . S
O281 Cd282 2.228 . S
Cd282 O281 2.228 . S
Cd282 O286 2.273 . S
Cd282 O290 2.277 . S
O283 C280 1.160 . S
O283 Cd284 2.203 . S
Cd284 O283 2.203 . S
Cd284 O286 2.411 . S
Cd284 O287 2.333 . S
Cd284 O288 2.352 1_554 S
Cd284 O292 2.277 . S
Cd284 O293 2.356 . S
C285 O290 1.209 . S
C285 O292 1.226 . S
O286 Cd282 2.273 . S
O286 Cd284 2.411 . S
O286 C289 1.320 . S
O287 Cd284 2.333 . S
O287 C289 1.214 . S
O288 Cd284 2.352 1_556 S
O288 C291 1.258 . S
C289 O286 1.320 . S
C289 O287 1.214 . S
O290 Cd282 2.277 . S
O290 C285 1.209 . S
C291 O288 1.258 . S
C291 O293 1.282 1_556 S
O292 Cd284 2.277 . S
O292 C285 1.226 . S
O293 Cd284 2.356 . S
O293 C291 1.282 1_554 S
C294 O295 1.306 . S
C294 O297 1.160 . S
O295 C294 1.306 . S
O295 Cd296 2.228 . S
Cd296 O295 2.228 . S
Cd296 O300 2.273 . S
Cd296 O304 2.277 . S
O297 C294 1.160 . S
O297 Cd298 2.203 . S
Cd298 O297 2.203 . S
Cd298 O300 2.411 . S
Cd298 O301 2.333 . S
Cd298 O302 2.352 . S
Cd298 O306 2.277 . S
Cd298 O307 2.356 . S
C299 O304 1.209 . S
C299 O306 1.226 . S
O300 Cd296 2.273 . S
O300 Cd298 2.411 . S
O300 C303 1.320 . S
O301 Cd298 2.333 . S
O301 C303 1.214 . S
O302 Cd298 2.352 . S
O302 C305 1.258 . S
C303 O300 1.320 . S
C303 O301 1.214 . S
O304 Cd296 2.277 . S
O304 C299 1.209 . S
C305 O302 1.258 . S
C305 O307 1.282 . S
O306 Cd298 2.277 . S
O306 C299 1.226 . S
O307 Cd298 2.356 . S
O307 C305 1.282 . S
C308 O309 1.306 . S
C308 O311 1.160 . S
O309 C308 1.306 . S
O309 Cd310 2.228 . S
Cd310 O309 2.228 . S
Cd310 O314 2.273 . S
Cd310 O318 2.277 . S
O311 C308 1.160 . S
O311 Cd312 2.203 . S
Cd312 O311 2.203 . S
Cd312 O314 2.411 . S
Cd312 O315 2.333 . S
Cd312 O316 2.352 . S
Cd312 O320 2.277 . S
Cd312 O321 2.356 . S
C313 O318 1.209 . S
C313 O320 1.226 . S
O314 Cd310 2.273 . S
O314 Cd312 2.411 . S
O314 C317 1.320 . S
O315 Cd312 2.333 . S
O315 C317 1.214 . S
O316 Cd312 2.352 . S
O316 C319 1.258 . S
C317 O314 1.320 . S
C317 O315 1.214 . S
O318 Cd310 2.277 . S
O318 C313 1.209 . S
C319 O316 1.258 . S
C319 O321 1.282 . S
O320 Cd312 2.277 . S
O320 C313 1.226 . S
O321 Cd312 2.356 . S
O321 C319 1.282 . S
C322 O323 1.306 . S
C322 O325 1.160 . S
O323 C322 1.306 . S
O323 Cd324 2.228 . S
Cd324 O323 2.228 . S
Cd324 O328 2.273 . S
Cd324 O332 2.277 . S
O325 C322 1.160 . S
O325 Cd326 2.203 . S
Cd326 O325 2.203 . S
Cd326 O328 2.411 . S
Cd326 O329 2.333 . S
Cd326 O330 2.352 . S
Cd326 O334 2.277 . S
Cd326 O335 2.356 . S
C327 O332 1.209 . S
C327 O334 1.226 . S
O328 Cd324 2.273 . S
O328 Cd326 2.411 . S
O328 C331 1.320 . S
O329 Cd326 2.333 . S
O329 C331 1.214 . S
O330 Cd326 2.352 . S
O330 C333 1.258 . S
C331 O328 1.320 . S
C331 O329 1.214 . S
O332 Cd324 2.277 . S
O332 C327 1.209 . S
C333 O330 1.258 . S
C333 O335 1.282 . S
O334 Cd326 2.277 . S
O334 C327 1.226 . S
O335 Cd326 2.356 . S
O335 C333 1.282 . S
Tb336 C345 2.764 . S
Tb336 O346 2.325 . S
Tb336 O349 2.303 . S
Tb336 O353 2.322 . S
Tb336 O354 2.349 . S
Tb336 O357 2.415 . S
Tb336 O358 2.399 . S
Tb337 O347 2.322 1_545 S
Tb337 O348 2.349 1_554 S
Tb337 O350 2.415 1_455 S
Tb337 O351 2.399 1_454 S
Tb337 O352 2.325 . S
Tb337 O355 2.303 . S
Tb337 C366 2.764 1_455 S
C338 O354 1.261 . S
C338 O355 1.257 . S
C339 C342 1.358 . S
C339 C343 1.332 . S
C339 C345 1.504 . S
C340 C341 1.373 . S
C340 C344 1.308 . S
C341 C340 1.373 . S
C341 C342 1.429 . S
C341 H368 0.932 . S
C342 C339 1.358 . S
C342 C341 1.429 . S
C342 H369 0.930 . S
C343 C339 1.332 . S
C343 C344 1.394 . S
C343 H370 0.932 . S
C344 C340 1.308 . S
C344 C343 1.394 . S
C344 H371 0.929 . S
C345 Tb336 2.764 . S
C345 C339 1.504 . S
C345 O357 1.239 . S
C345 O358 1.263 . S
O346 Tb336 2.325 . S
O346 C356 1.236 1_545 S
O347 Tb337 2.322 1_565 S
O347 C356 1.257 . S
O348 Tb337 2.349 1_556 S
O348 C359 1.261 . S
O349 Tb336 2.303 . S
O349 C359 1.257 1_554 S
O350 Tb337 2.415 1_655 S
O350 C366 1.239 . S
O351 Tb337 2.399 1_656 S
O351 C366 1.263 1_556 S
O352 Tb337 2.325 . S
O352 C367 1.236 . S
O353 Tb336 2.322 . S
O353 C367 1.257 . S
O354 Tb336 2.349 . S
O354 C338 1.261 . S
O355 Tb337 2.303 . S
O355 C338 1.257 . S
C356 O346 1.236 1_565 S
C356 O347 1.257 . S
O357 Tb336 2.415 . S
O357 C345 1.239 . S
O358 Tb336 2.399 . S
O358 C345 1.263 . S
C359 O348 1.261 . S
C359 O349 1.257 1_556 S
C360 C363 1.358 1_554 S
C360 C364 1.332 . S
C360 C366 1.504 . S
C361 C362 1.370 1_554 S
C361 C365 1.311 . S
C362 C361 1.370 1_556 S
C362 C363 1.429 . S
C362 H372 0.932 . S
C363 C360 1.358 1_556 S
C363 C362 1.429 . S
C363 H373 0.930 . S
C364 C360 1.332 . S
C364 C365 1.394 . S
C364 H374 0.932 . S
C365 C361 1.311 . S
C365 C364 1.394 . S
C365 H375 0.929 . S
C366 Tb337 2.764 1_655 S
C366 O350 1.239 . S
C366 O351 1.263 1_554 S
C366 C360 1.504 . S
C367 O352 1.236 . S
C367 O353 1.257 . S
H368 C341 0.932 . S
H369 C342 0.930 . S
H370 C343 0.932 . S
H371 C344 0.929 . S
H372 C362 0.932 . S
H373 C363 0.930 . S
H374 C364 0.932 . S
H375 C365 0.929 . S
Tb376 C385 2.764 . S
Tb376 O386 2.325 . S
Tb376 O389 2.303 . S
Tb376 O393 2.322 . S
Tb376 O394 2.349 . S
Tb376 O397 2.415 . S
Tb376 O398 2.399 . S
Tb377 O387 2.322 . S
Tb377 O388 2.349 . S
Tb377 O390 2.415 . S
Tb377 O391 2.399 . S
Tb377 O392 2.325 . S
Tb377 O395 2.303 . S
Tb377 C406 2.764 . S
C378 O394 1.261 . S
C378 O395 1.257 . S
C379 C382 1.358 . S
C379 C383 1.332 . S
C379 C385 1.504 . S
C380 C381 1.373 . S
C380 C384 1.308 . S
C381 C380 1.373 . S
C381 C382 1.429 . S
C381 H408 0.932 . S
C382 C379 1.358 . S
C382 C381 1.429 . S
C382 H409 0.930 . S
C383 C379 1.332 . S
C383 C384 1.394 . S
C383 H410 0.932 . S
C384 C380 1.308 . S
C384 C383 1.394 . S
C384 H411 0.929 . S
C385 Tb376 2.764 . S
C385 C379 1.504 . S
C385 O397 1.239 . S
C385 O398 1.263 . S
O386 Tb376 2.325 . S
O386 C396 1.236 . S
O387 Tb377 2.322 . S
O387 C396 1.257 . S
O388 Tb377 2.349 . S
O388 C399 1.261 . S
O389 Tb376 2.303 . S
O389 C399 1.257 . S
O390 Tb377 2.415 . S
O390 C406 1.239 . S
O391 Tb377 2.399 . S
O391 C406 1.263 . S
O392 Tb377 2.325 . S
O392 C407 1.236 . S
O393 Tb376 2.322 . S
O393 C407 1.257 . S
O394 Tb376 2.349 . S
O394 C378 1.261 . S
O395 Tb377 2.303 . S
O395 C378 1.257 . S
C396 O386 1.236 . S
C396 O387 1.257 . S
O397 Tb376 2.415 . S
O397 C385 1.239 . S
O398 Tb376 2.399 . S
O398 C385 1.263 . S
C399 O388 1.261 . S
C399 O389 1.257 . S
C400 C403 1.358 . S
C400 C404 1.332 . S
C400 C406 1.504 . S
C401 C402 1.373 . S
C401 C405 1.308 . S
C402 C401 1.373 . S
C402 C403 1.429 . S
C402 H412 0.932 . S
C403 C400 1.358 . S
C403 C402 1.429 . S
C403 H413 0.930 . S
C404 C400 1.332 . S
C404 C405 1.394 . S
C404 H414 0.932 . S
C405 C401 1.308 . S
C405 C404 1.394 . S
C405 H415 0.929 . S
C406 Tb377 2.764 . S
C406 O390 1.239 . S
C406 O391 1.263 . S
C406 C400 1.504 . S
C407 O392 1.236 . S
C407 O393 1.257 . S
H408 C381 0.932 . S
H409 C382 0.930 . S
H410 C383 0.932 . S
H411 C384 0.929 . S
H412 C402 0.932 . S
H413 C403 0.930 . S
H414 C404 0.932 . S
H415 C405 0.929 . S
Tb416 C425 2.764 . S
Tb416 O426 2.325 . S
Tb416 O429 2.303 . S
Tb416 O433 2.322 1_545 S
Tb416 O434 2.349 . S
Tb416 O437 2.415 . S
Tb416 O438 2.399 . S
Tb417 O427 2.322 . S
Tb417 O428 2.349 . S
Tb417 O430 2.415 . S
Tb417 O431 2.399 . S
Tb417 O432 2.325 . S
Tb417 O435 2.303 . S
Tb417 C446 2.764 . S
C418 O434 1.261 . S
C418 O435 1.257 . S
C419 C422 1.358 . S
C419 C423 1.332 . S
C419 C425 1.504 . S
C420 C421 1.373 . S
C420 C424 1.308 . S
C421 C420 1.373 . S
C421 C422 1.429 . S
C421 H448 0.932 . S
C422 C419 1.358 . S
C422 C421 1.429 . S
C422 H449 0.930 . S
C423 C419 1.332 . S
C423 C424 1.394 . S
C423 H450 0.932 . S
C424 C420 1.308 . S
C424 C423 1.394 . S
C424 H451 0.929 . S
C425 Tb416 2.764 . S
C425 C419 1.504 . S
C425 O437 1.239 . S
C425 O438 1.263 . S
O426 Tb416 2.325 . S
O426 C436 1.236 . S
O427 Tb417 2.322 . S
O427 C436 1.257 . S
O428 Tb417 2.349 . S
O428 C439 1.261 . S
O429 Tb416 2.303 . S
O429 C439 1.257 . S
O430 Tb417 2.415 . S
O430 C446 1.239 . S
O431 Tb417 2.399 . S
O431 C446 1.263 . S
O432 Tb417 2.325 . S
O432 C447 1.236 1_545 S
O433 Tb416 2.322 1_565 S
O433 C447 1.257 . S
O434 Tb416 2.349 . S
O434 C418 1.261 . S
O435 Tb417 2.303 . S
O435 C418 1.257 . S
C436 O426 1.236 . S
C436 O427 1.257 . S
O437 Tb416 2.415 . S
O437 C425 1.239 . S
O438 Tb416 2.399 . S
O438 C425 1.263 . S
C439 O428 1.261 . S
C439 O429 1.257 . S
C440 C443 1.358 . S
C440 C444 1.332 1_545 S
C440 C446 1.504 . S
C441 C442 1.373 . S
C441 C445 1.308 . S
C442 C441 1.373 . S
C442 C443 1.429 1_565 S
C442 H452 0.932 . S
C443 C440 1.358 . S
C443 C442 1.429 1_545 S
C443 H453 0.930 . S
C444 C440 1.332 1_565 S
C444 C445 1.394 . S
C444 H454 0.932 . S
C445 C441 1.308 . S
C445 C444 1.394 . S
C445 H455 0.929 . S
C446 Tb417 2.764 . S
C446 O430 1.239 . S
C446 O431 1.263 . S
C446 C440 1.504 . S
C447 O432 1.236 1_565 S
C447 O433 1.257 . S
H448 C421 0.932 . S
H449 C422 0.930 . S
H450 C423 0.932 . S
H451 C424 0.929 . S
H452 C442 0.932 . S
H453 C443 0.930 . S
H454 C444 0.932 . S
H455 C445 0.929 . S
Tb456 C465 2.764 . S
Tb456 O466 2.325 . S
Tb456 O469 2.303 . S
Tb456 O473 2.322 . S
Tb456 O474 2.349 . S
Tb456 O477 2.415 . S
Tb456 O478 2.399 . S
Tb457 O467 2.322 . S
Tb457 O468 2.349 . S
Tb457 O470 2.415 . S
Tb457 O471 2.399 . S
Tb457 O472 2.325 . S
Tb457 O475 2.303 . S
Tb457 C486 2.764 . S
C458 O474 1.261 . S
C458 O475 1.257 . S
C459 C462 1.358 . S
C459 C463 1.332 . S
C459 C465 1.504 . S
C460 C461 1.373 . S
C460 C464 1.308 . S
C461 C460 1.373 . S
C461 C462 1.429 . S
C461 H488 0.932 . S
C462 C459 1.358 . S
C462 C461 1.429 . S
C462 H489 0.930 . S
C463 C459 1.332 . S
C463 C464 1.394 . S
C463 H490 0.932 . S
C464 C460 1.308 . S
C464 C463 1.394 . S
C464 H491 0.929 . S
C465 Tb456 2.764 . S
C465 C459 1.504 . S
C465 O477 1.239 . S
C465 O478 1.263 . S
O466 Tb456 2.325 . S
O466 C476 1.236 . S
O467 Tb457 2.322 . S
O467 C476 1.257 . S
O468 Tb457 2.349 . S
O468 C479 1.261 . S
O469 Tb456 2.303 . S
O469 C479 1.257 . S
O470 Tb457 2.415 . S
O470 C486 1.239 . S
O471 Tb457 2.399 . S
O471 C486 1.263 . S
O472 Tb457 2.325 . S
O472 C487 1.236 . S
O473 Tb456 2.322 . S
O473 C487 1.257 . S
O474 Tb456 2.349 . S
O474 C458 1.261 . S
O475 Tb457 2.303 . S
O475 C458 1.257 . S
C476 O466 1.236 . S
C476 O467 1.257 . S
O477 Tb456 2.415 . S
O477 C465 1.239 . S
O478 Tb456 2.399 . S
O478 C465 1.263 . S
C479 O468 1.261 . S
C479 O469 1.257 . S
C480 C483 1.358 . S
C480 C484 1.332 . S
C480 C486 1.504 . S
C481 C482 1.373 . S
C481 C485 1.308 . S
C482 C481 1.373 . S
C482 C483 1.429 . S
C482 H492 0.932 . S
C483 C480 1.358 . S
C483 C482 1.429 . S
C483 H493 0.930 . S
C484 C480 1.332 . S
C484 C485 1.394 . S
C484 H494 0.932 . S
C485 C481 1.308 . S
C485 C484 1.394 . S
C485 H495 0.929 . S
C486 Tb457 2.764 . S
C486 O470 1.239 . S
C486 O471 1.263 . S
C486 C480 1.504 . S
C487 O472 1.236 . S
C487 O473 1.257 . S
H488 C461 0.932 . S
H489 C462 0.930 . S
H490 C463 0.932 . S
H491 C464 0.929 . S
H492 C482 0.932 . S
H493 C483 0.930 . S
H494 C484 0.932 . S
H495 C485 0.929 . S
Tb496 C505 2.764 . S
Tb496 O506 2.325 . S
Tb496 O509 2.303 . S
Tb496 O513 2.322 . S
Tb496 O514 2.349 . S
Tb496 O517 2.415 . S
Tb496 O518 2.399 . S
Tb497 O507 2.322 . S
Tb497 O508 2.349 . S
Tb497 O510 2.415 . S
Tb497 O511 2.399 . S
Tb497 O512 2.325 . S
Tb497 O515 2.303 . S
Tb497 C526 2.764 . S
C498 O514 1.262 1_655 S
C498 O515 1.249 1_655 S
C499 C502 1.358 . S
C499 C503 1.332 . S
C499 C505 1.504 . S
C500 C501 1.373 . S
C500 C504 1.308 . S
C501 C500 1.373 . S
C501 C502 1.429 . S
C501 H528 0.932 . S
C502 C499 1.358 . S
C502 C501 1.429 . S
C502 H529 0.930 . S
C503 C499 1.332 . S
C503 C504 1.394 . S
C503 H530 0.932 . S
C504 C500 1.308 . S
C504 C503 1.394 . S
C504 H531 0.929 . S
C505 Tb496 2.764 . S
C505 C499 1.504 . S
C505 O517 1.239 . S
C505 O518 1.263 . S
O506 Tb496 2.325 . S
O506 C516 1.236 . S
O507 Tb497 2.322 . S
O507 C516 1.257 . S
O508 Tb497 2.349 . S
O508 C519 1.261 . S
O509 Tb496 2.303 . S
O509 C519 1.257 . S
O510 Tb497 2.415 . S
O510 C526 1.239 . S
O511 Tb497 2.399 . S
O511 C526 1.263 . S
O512 Tb497 2.325 . S
O512 C527 1.236 . S
O513 Tb496 2.322 . S
O513 C527 1.257 . S
O514 Tb496 2.349 . S
O514 C498 1.262 1_455 S
O515 Tb497 2.303 . S
O515 C498 1.249 1_455 S
C516 O506 1.236 . S
C516 O507 1.257 . S
O517 Tb496 2.415 . S
O517 C505 1.239 . S
O518 Tb496 2.399 . S
O518 C505 1.263 . S
C519 O508 1.261 . S
C519 O509 1.257 . S
C520 C523 1.358 . S
C520 C524 1.332 1_455 S
C520 C526 1.504 . S
C521 C522 1.373 . S
C521 C525 1.308 1_455 S
C522 C521 1.373 . S
C522 C523 1.429 . S
C522 H532 0.932 . S
C523 C520 1.358 . S
C523 C522 1.429 . S
C523 H533 0.930 . S
C524 C520 1.332 1_655 S
C524 C525 1.394 . S
C524 H534 0.932 . S
C525 C521 1.308 1_655 S
C525 C524 1.394 . S
C525 H535 0.929 . S
C526 Tb497 2.764 . S
C526 O510 1.239 . S
C526 O511 1.263 . S
C526 C520 1.504 . S
C527 O512 1.236 . S
C527 O513 1.257 . S
H528 C501 0.932 . S
H529 C502 0.930 . S
H530 C503 0.932 . S
H531 C504 0.929 . S
H532 C522 0.932 . S
H533 C523 0.930 . S
H534 C524 0.932 . S
H535 C525 0.929 . S
Tb536 C545 2.764 . S
Tb536 O546 2.325 . S
Tb536 O549 2.303 . S
Tb536 O553 2.322 . S
Tb536 O554 2.349 . S
Tb536 O557 2.415 . S
Tb536 O558 2.399 . S
Tb537 O547 2.322 . S
Tb537 O548 2.349 . S
Tb537 O550 2.415 . S
Tb537 O551 2.399 . S
Tb537 O552 2.325 . S
Tb537 O555 2.303 . S
Tb537 C566 2.764 . S
C538 O554 1.261 . S
C538 O555 1.257 . S
C539 C542 1.358 . S
C539 C543 1.332 . S
C539 C545 1.504 . S
C540 C541 1.373 . S
C540 C544 1.308 . S
C541 C540 1.373 . S
C541 C542 1.429 . S
C541 H568 0.932 . S
C542 C539 1.358 . S
C542 C541 1.429 . S
C542 H569 0.930 . S
C543 C539 1.332 . S
C543 C544 1.394 . S
C543 H570 0.932 . S
C544 C540 1.308 . S
C544 C543 1.394 . S
C544 H571 0.929 . S
C545 Tb536 2.764 . S
C545 C539 1.504 . S
C545 O557 1.239 . S
C545 O558 1.263 . S
O546 Tb536 2.325 . S
O546 C556 1.236 . S
O547 Tb537 2.322 . S
O547 C556 1.257 . S
O548 Tb537 2.349 . S
O548 C559 1.261 . S
O549 Tb536 2.303 . S
O549 C559 1.257 . S
O550 Tb537 2.415 . S
O550 C566 1.239 . S
O551 Tb537 2.399 . S
O551 C566 1.263 . S
O552 Tb537 2.325 . S
O552 C567 1.236 . S
O553 Tb536 2.322 . S
O553 C567 1.257 . S
O554 Tb536 2.349 . S
O554 C538 1.261 . S
O555 Tb537 2.303 . S
O555 C538 1.257 . S
C556 O546 1.236 . S
C556 O547 1.257 . S
O557 Tb536 2.415 . S
O557 C545 1.239 . S
O558 Tb536 2.399 . S
O558 C545 1.263 . S
C559 O548 1.261 . S
C559 O549 1.257 . S
C560 C563 1.358 . S
C560 C564 1.332 . S
C560 C566 1.504 . S
C561 C562 1.373 . S
C561 C565 1.308 . S
C562 C561 1.373 . S
C562 C563 1.429 . S
C562 H572 0.932 . S
C563 C560 1.358 . S
C563 C562 1.429 . S
C563 H573 0.930 . S
C564 C560 1.332 . S
C564 C565 1.394 . S
C564 H574 0.932 . S
C565 C561 1.308 . S
C565 C564 1.394 . S
C565 H575 0.929 . S
C566 Tb537 2.764 . S
C566 O550 1.239 . S
C566 O551 1.263 . S
C566 C560 1.504 . S
C567 O552 1.236 . S
C567 O553 1.257 . S
H568 C541 0.932 . S
H569 C542 0.930 . S
H570 C543 0.932 . S
H571 C544 0.929 . S
H572 C562 0.932 . S
H573 C563 0.930 . S
H574 C564 0.932 . S
H575 C565 0.929 . S
Tb576 C585 2.764 . S
Tb576 O586 2.325 . S
Tb576 O589 2.303 . S
Tb576 O593 2.322 . S
Tb576 O594 2.349 . S
Tb576 O597 2.415 . S
Tb576 O598 2.399 . S
Tb577 O587 2.322 . S
Tb577 O588 2.349 . S
Tb577 O590 2.415 1_554 S
Tb577 O591 2.399 1_554 S
Tb577 O592 2.325 . S
Tb577 O595 2.303 . S
Tb577 C606 2.764 1_554 S
C578 O594 1.261 . S
C578 O595 1.257 . S
C579 C582 1.358 . S
C579 C583 1.332 . S
C579 C585 1.504 . S
C580 C581 1.373 . S
C580 C584 1.308 . S
C581 C580 1.373 . S
C581 C582 1.429 . S
C581 H608 0.932 . S
C582 C579 1.358 . S
C582 C581 1.429 . S
C582 H609 0.930 . S
C583 C579 1.332 . S
C583 C584 1.394 . S
C583 H610 0.932 . S
C584 C580 1.308 . S
C584 C583 1.394 . S
C584 H611 0.929 . S
C585 Tb576 2.764 . S
C585 C579 1.504 . S
C585 O597 1.239 . S
C585 O598 1.263 . S
O586 Tb576 2.325 . S
O586 C596 1.236 . S
O587 Tb577 2.322 . S
O587 C596 1.257 . S
O588 Tb577 2.349 . S
O588 C599 1.261 . S
O589 Tb576 2.303 . S
O589 C599 1.257 . S
O590 Tb577 2.415 1_556 S
O590 C606 1.239 . S
O591 Tb577 2.399 1_556 S
O591 C606 1.263 . S
O592 Tb577 2.325 . S
O592 C607 1.232 1_545 S
O593 Tb576 2.322 . S
O593 C607 1.258 1_545 S
O594 Tb576 2.349 . S
O594 C578 1.261 . S
O595 Tb577 2.303 . S
O595 C578 1.257 . S
C596 O586 1.236 . S
C596 O587 1.257 . S
O597 Tb576 2.415 . S
O597 C585 1.239 . S
O598 Tb576 2.399 . S
O598 C585 1.263 . S
C599 O588 1.261 . S
C599 O589 1.257 . S
C600 C603 1.358 . S
C600 C604 1.332 . S
C600 C606 1.504 . S
C601 C602 1.373 . S
C601 C605 1.308 . S
C602 C601 1.373 . S
C602 C603 1.429 . S
C602 H612 0.932 . S
C603 C600 1.358 . S
C603 C602 1.429 . S
C603 H613 0.930 . S
C604 C600 1.332 . S
C604 C605 1.394 . S
C604 H614 0.932 . S
C605 C601 1.308 . S
C605 C604 1.394 . S
C605 H615 0.929 . S
C606 Tb577 2.764 1_556 S
C606 O590 1.239 . S
C606 O591 1.263 . S
C606 C600 1.504 . S
C607 O592 1.232 1_565 S
C607 O593 1.258 1_565 S
H608 C581 0.932 . S
H609 C582 0.930 . S
H610 C583 0.932 . S
H611 C584 0.929 . S
H612 C602 0.932 . S
H613 C603 0.930 . S
H614 C604 0.932 . S
H615 C605 0.929 . S
Tb616 C625 2.764 . S
Tb616 O626 2.325 . S
Tb616 O629 2.303 . S
Tb616 O633 2.322 . S
Tb616 O634 2.349 . S
Tb616 O637 2.415 . S
Tb616 O638 2.399 . S
Tb617 O627 2.322 . S
Tb617 O628 2.349 . S
Tb617 O630 2.415 . S
Tb617 O631 2.399 . S
Tb617 O632 2.325 . S
Tb617 O635 2.303 . S
Tb617 C646 2.764 . S
C618 O634 1.261 . S
C618 O635 1.257 . S
C619 C622 1.358 . S
C619 C623 1.332 . S
C619 C625 1.504 . S
C620 C621 1.373 . S
C620 C624 1.308 . S
C621 C620 1.373 . S
C621 C622 1.429 . S
C621 H648 0.932 . S
C622 C619 1.358 . S
C622 C621 1.429 . S
C622 H649 0.930 . S
C623 C619 1.332 . S
C623 C624 1.394 . S
C623 H650 0.932 . S
C624 C620 1.308 . S
C624 C623 1.394 . S
C624 H651 0.929 . S
C625 Tb616 2.764 . S
C625 C619 1.504 . S
C625 O637 1.239 . S
C625 O638 1.263 . S
O626 Tb616 2.325 . S
O626 C636 1.236 . S
O627 Tb617 2.322 . S
O627 C636 1.257 . S
O628 Tb617 2.349 . S
O628 C639 1.261 . S
O629 Tb616 2.303 . S
O629 C639 1.257 . S
O630 Tb617 2.415 . S
O630 C646 1.239 . S
O631 Tb617 2.399 . S
O631 C646 1.263 . S
O632 Tb617 2.325 . S
O632 C647 1.236 . S
O633 Tb616 2.322 . S
O633 C647 1.257 . S
O634 Tb616 2.349 . S
O634 C618 1.261 . S
O635 Tb617 2.303 . S
O635 C618 1.257 . S
C636 O626 1.236 . S
C636 O627 1.257 . S
O637 Tb616 2.415 . S
O637 C625 1.239 . S
O638 Tb616 2.399 . S
O638 C625 1.263 . S
C639 O628 1.261 . S
C639 O629 1.257 . S
C640 C643 1.358 . S
C640 C644 1.332 . S
C640 C646 1.504 . S
C641 C642 1.373 . S
C641 C645 1.308 . S
C642 C641 1.373 . S
C642 C643 1.429 . S
C642 H652 0.932 . S
C643 C640 1.358 . S
C643 C642 1.429 . S
C643 H653 0.930 . S
C644 C640 1.332 . S
C644 C645 1.394 . S
C644 H654 0.932 . S
C645 C641 1.308 . S
C645 C644 1.394 . S
C645 H655 0.929 . S
C646 Tb617 2.764 . S
C646 O630 1.239 . S
C646 O631 1.263 . S
C646 C640 1.504 . S
C647 O632 1.236 . S
C647 O633 1.257 . S
H648 C621 0.932 . S
H649 C622 0.930 . S
H650 C623 0.932 . S
H651 C624 0.929 . S
H652 C642 0.932 . S
H653 C643 0.930 . S
H654 C644 0.932 . S
H655 C645 0.929 . S
Tb656 C665 2.764 . S
Tb656 O666 2.325 . S
Tb656 O669 2.303 . S
Tb656 O673 2.322 . S
Tb656 O674 2.349 . S
Tb656 O677 2.415 . S
Tb656 O678 2.399 . S
Tb657 O667 2.322 . S
Tb657 O668 2.349 . S
Tb657 O670 2.415 1_554 S
Tb657 O671 2.399 1_554 S
Tb657 O672 2.325 . S
Tb657 O675 2.303 . S
Tb657 C686 2.764 1_554 S
C658 O674 1.261 . S
C658 O675 1.257 . S
C659 C662 1.358 . S
C659 C663 1.332 . S
C659 C665 1.504 . S
C660 C661 1.373 . S
C660 C664 1.308 . S
C661 C660 1.373 . S
C661 C662 1.429 . S
C661 H688 0.932 . S
C662 C659 1.358 . S
C662 C661 1.429 . S
C662 H689 0.930 . S
C663 C659 1.332 . S
C663 C664 1.394 . S
C663 H690 0.932 . S
C664 C660 1.308 . S
C664 C663 1.394 . S
C664 H691 0.929 . S
C665 Tb656 2.764 . S
C665 C659 1.504 . S
C665 O677 1.239 . S
C665 O678 1.263 . S
O666 Tb656 2.325 . S
O666 C676 1.236 . S
O667 Tb657 2.322 . S
O667 C676 1.257 . S
O668 Tb657 2.349 . S
O668 C679 1.261 . S
O669 Tb656 2.303 . S
O669 C679 1.257 . S
O670 Tb657 2.415 1_556 S
O670 C686 1.239 . S
O671 Tb657 2.399 1_556 S
O671 C686 1.263 . S
O672 Tb657 2.325 . S
O672 C687 1.236 . S
O673 Tb656 2.322 . S
O673 C687 1.257 . S
O674 Tb656 2.349 . S
O674 C658 1.261 . S
O675 Tb657 2.303 . S
O675 C658 1.257 . S
C676 O666 1.236 . S
C676 O667 1.257 . S
O677 Tb656 2.415 . S
O677 C665 1.239 . S
O678 Tb656 2.399 . S
O678 C665 1.263 . S
C679 O668 1.261 . S
C679 O669 1.257 . S
C680 C683 1.358 . S
C680 C684 1.332 . S
C680 C686 1.504 . S
C681 C682 1.373 . S
C681 C685 1.308 . S
C682 C681 1.373 . S
C682 C683 1.429 . S
C682 H692 0.932 . S
C683 C680 1.358 . S
C683 C682 1.429 . S
C683 H693 0.930 . S
C684 C680 1.332 . S
C684 C685 1.394 . S
C684 H694 0.932 . S
C685 C681 1.308 . S
C685 C684 1.394 . S
C685 H695 0.929 . S
C686 Tb657 2.764 1_556 S
C686 O670 1.239 . S
C686 O671 1.263 . S
C686 C680 1.504 . S
C687 O672 1.236 . S
C687 O673 1.257 . S
H688 C661 0.932 . S
H689 C662 0.930 . S
H690 C663 0.932 . S
H691 C664 0.929 . S
H692 C682 0.932 . S
H693 C683 0.930 . S
H694 C684 0.932 . S
H695 C685 0.929 . S
Tb696 C705 2.764 . S
Tb696 O706 2.325 . S
Tb696 O709 2.303 . S
Tb696 O713 2.322 . S
Tb696 O714 2.349 . S
Tb696 O717 2.415 . S
Tb696 O718 2.399 . S
Tb697 O707 2.322 . S
Tb697 O708 2.349 . S
Tb697 O710 2.415 . S
Tb697 O711 2.399 . S
Tb697 O712 2.325 . S
Tb697 O715 2.303 . S
Tb697 C726 2.764 . S
C698 O714 1.261 . S
C698 O715 1.257 . S
C699 C702 1.358 . S
C699 C703 1.332 . S
C699 C705 1.504 . S
C700 C701 1.373 . S
C700 C704 1.308 . S
C701 C700 1.373 . S
C701 C702 1.429 . S
C701 H728 0.932 . S
C702 C699 1.358 . S
C702 C701 1.429 . S
C702 H729 0.930 . S
C703 C699 1.332 . S
C703 C704 1.394 . S
C703 H730 0.932 . S
C704 C700 1.308 . S
C704 C703 1.394 . S
C704 H731 0.929 . S
C705 Tb696 2.764 . S
C705 C699 1.504 . S
C705 O717 1.239 . S
C705 O718 1.263 . S
O706 Tb696 2.325 . S
O706 C716 1.236 . S
O707 Tb697 2.322 . S
O707 C716 1.257 . S
O708 Tb697 2.349 . S
O708 C719 1.261 . S
O709 Tb696 2.303 . S
O709 C719 1.257 . S
O710 Tb697 2.415 . S
O710 C726 1.239 . S
O711 Tb697 2.399 . S
O711 C726 1.263 . S
O712 Tb697 2.325 . S
O712 C727 1.236 . S
O713 Tb696 2.322 . S
O713 C727 1.257 . S
O714 Tb696 2.349 . S
O714 C698 1.261 . S
O715 Tb697 2.303 . S
O715 C698 1.257 . S
C716 O706 1.236 . S
C716 O707 1.257 . S
O717 Tb696 2.415 . S
O717 C705 1.239 . S
O718 Tb696 2.399 . S
O718 C705 1.263 . S
C719 O708 1.261 . S
C719 O709 1.257 . S
C720 C723 1.358 . S
C720 C724 1.332 . S
C720 C726 1.504 . S
C721 C722 1.373 . S
C721 C725 1.308 . S
C722 C721 1.373 . S
C722 C723 1.429 . S
C722 H732 0.932 . S
C723 C720 1.358 . S
C723 C722 1.429 . S
C723 H733 0.930 . S
C724 C720 1.332 . S
C724 C725 1.394 . S
C724 H734 0.932 . S
C725 C721 1.308 . S
C725 C724 1.394 . S
C725 H735 0.929 . S
C726 Tb697 2.764 . S
C726 O710 1.239 . S
C726 O711 1.263 . S
C726 C720 1.504 . S
C727 O712 1.236 . S
C727 O713 1.257 . S
H728 C701 0.932 . S
H729 C702 0.930 . S
H730 C703 0.932 . S
H731 C704 0.929 . S
H732 C722 0.932 . S
H733 C723 0.930 . S
H734 C724 0.932 . S
H735 C725 0.929 . S
Tb736 C745 2.764 . S
Tb736 O746 2.325 . S
Tb736 O749 2.303 . S
Tb736 O753 2.322 . S
Tb736 O754 2.349 . S
Tb736 O757 2.415 . S
Tb736 O758 2.399 . S
Tb737 O747 2.322 . S
Tb737 O748 2.349 . S
Tb737 O750 2.415 . S
Tb737 O751 2.399 . S
Tb737 O752 2.325 . S
Tb737 O755 2.303 . S
Tb737 C766 2.764 . S
C738 O754 1.261 . S
C738 O755 1.257 . S
C739 C742 1.358 . S
C739 C743 1.332 1_455 S
C739 C745 1.504 . S
C740 C741 1.373 . S
C740 C744 1.308 1_455 S
C741 C740 1.373 . S
C741 C742 1.429 . S
C741 H768 0.932 . S
C742 C739 1.358 . S
C742 C741 1.429 . S
C742 H769 0.930 . S
C743 C739 1.332 1_655 S
C743 C744 1.394 . S
C743 H770 0.932 . S
C744 C740 1.308 1_655 S
C744 C743 1.394 . S
C744 H771 0.929 . S
C745 Tb736 2.764 . S
C745 C739 1.504 . S
C745 O757 1.239 . S
C745 O758 1.263 . S
O746 Tb736 2.325 . S
O746 C756 1.236 . S
O747 Tb737 2.322 . S
O747 C756 1.257 . S
O748 Tb737 2.349 . S
O748 C759 1.261 1_455 S
O749 Tb736 2.303 . S
O749 C759 1.257 1_455 S
O750 Tb737 2.415 . S
O750 C766 1.239 . S
O751 Tb737 2.399 . S
O751 C766 1.263 . S
O752 Tb737 2.325 . S
O752 C767 1.236 . S
O753 Tb736 2.322 . S
O753 C767 1.257 . S
O754 Tb736 2.349 . S
O754 C738 1.261 . S
O755 Tb737 2.303 . S
O755 C738 1.257 . S
C756 O746 1.236 . S
C756 O747 1.257 . S
O757 Tb736 2.415 . S
O757 C745 1.239 . S
O758 Tb736 2.399 . S
O758 C745 1.263 . S
C759 O748 1.261 1_655 S
C759 O749 1.257 1_655 S
C760 C763 1.358 . S
C760 C764 1.332 . S
C760 C766 1.504 . S
C761 C762 1.373 . S
C761 C765 1.308 . S
C762 C761 1.373 . S
C762 C763 1.429 . S
C762 H772 0.932 . S
C763 C760 1.358 . S
C763 C762 1.429 . S
C763 H773 0.930 . S
C764 C760 1.332 . S
C764 C765 1.394 . S
C764 H774 0.932 . S
C765 C761 1.308 . S
C765 C764 1.394 . S
C765 H775 0.929 . S
C766 Tb737 2.764 . S
C766 O750 1.239 . S
C766 O751 1.263 . S
C766 C760 1.504 . S
C767 O752 1.236 . S
C767 O753 1.257 . S
H768 C741 0.932 . S
H769 C742 0.930 . S
H770 C743 0.932 . S
H771 C744 0.929 . S
H772 C762 0.932 . S
H773 C763 0.930 . S
H774 C764 0.932 . S
H775 C765 0.929 . S
Tb776 C785 2.764 . S
Tb776 O786 2.325 . S
Tb776 O789 2.303 . S
Tb776 O793 2.322 . S
Tb776 O794 2.349 . S
Tb776 O797 2.415 . S
Tb776 O798 2.399 . S
Tb777 O787 2.322 . S
Tb777 O788 2.349 . S
Tb777 O790 2.415 . S
Tb777 O791 2.399 . S
Tb777 O792 2.325 . S
Tb777 O795 2.303 . S
Tb777 C806 2.764 . S
C778 O794 1.261 . S
C778 O795 1.257 . S
C779 C782 1.358 . S
C779 C783 1.332 . S
C779 C785 1.504 . S
C780 C781 1.373 . S
C780 C784 1.308 . S
C781 C780 1.373 . S
C781 C782 1.429 . S
C781 H808 0.932 . S
C782 C779 1.358 . S
C782 C781 1.429 . S
C782 H809 0.930 . S
C783 C779 1.332 . S
C783 C784 1.394 . S
C783 H810 0.932 . S
C784 C780 1.308 . S
C784 C783 1.394 . S
C784 H811 0.929 . S
C785 Tb776 2.764 . S
C785 C779 1.504 . S
C785 O797 1.239 . S
C785 O798 1.263 . S
O786 Tb776 2.325 . S
O786 C796 1.236 . S
O787 Tb777 2.322 . S
O787 C796 1.257 . S
O788 Tb777 2.349 . S
O788 C799 1.261 . S
O789 Tb776 2.303 . S
O789 C799 1.257 . S
O790 Tb777 2.415 . S
O790 C806 1.239 . S
O791 Tb777 2.399 . S
O791 C806 1.263 . S
O792 Tb777 2.325 . S
O792 C807 1.236 . S
O793 Tb776 2.322 . S
O793 C807 1.257 . S
O794 Tb776 2.349 . S
O794 C778 1.261 . S
O795 Tb777 2.303 . S
O795 C778 1.257 . S
C796 O786 1.236 . S
C796 O787 1.257 . S
O797 Tb776 2.415 . S
O797 C785 1.239 . S
O798 Tb776 2.399 . S
O798 C785 1.263 . S
C799 O788 1.261 . S
C799 O789 1.257 . S
C800 C803 1.358 . S
C800 C804 1.332 . S
C800 C806 1.504 . S
C801 C802 1.373 . S
C801 C805 1.308 . S
C802 C801 1.373 . S
C802 C803 1.429 . S
C802 H812 0.932 . S
C803 C800 1.358 . S
C803 C802 1.429 . S
C803 H813 0.930 . S
C804 C800 1.332 . S
C804 C805 1.394 . S
C804 H814 0.932 . S
C805 C801 1.308 . S
C805 C804 1.394 . S
C805 H815 0.929 . S
C806 Tb777 2.764 . S
C806 O790 1.239 . S
C806 O791 1.263 . S
C806 C800 1.504 . S
C807 O792 1.236 . S
C807 O793 1.257 . S
H808 C781 0.932 . S
H809 C782 0.930 . S
H810 C783 0.932 . S
H811 C784 0.929 . S
H812 C802 0.932 . S
H813 C803 0.930 . S
H814 C804 0.932 . S
H815 C805 0.929 . S
Tb816 C825 2.764 . S
Tb816 O826 2.325 . S
Tb816 O829 2.303 . S
Tb816 O833 2.322 . S
Tb816 O834 2.349 . S
Tb816 O837 2.415 . S
Tb816 O838 2.399 . S
Tb817 O827 2.322 . S
Tb817 O828 2.349 . S
Tb817 O830 2.415 . S
Tb817 O831 2.399 . S
Tb817 O832 2.325 . S
Tb817 O835 2.303 . S
Tb817 C846 2.764 . S
C818 O834 1.261 . S
C818 O835 1.257 . S
C819 C822 1.358 . S
C819 C823 1.332 . S
C819 C825 1.504 . S
C820 C821 1.373 . S
C820 C824 1.308 . S
C821 C820 1.373 . S
C821 C822 1.429 . S
C821 H848 0.932 . S
C822 C819 1.358 . S
C822 C821 1.429 . S
C822 H849 0.930 . S
C823 C819 1.332 . S
C823 C824 1.394 . S
C823 H850 0.932 . S
C824 C820 1.308 . S
C824 C823 1.394 . S
C824 H851 0.929 . S
C825 Tb816 2.764 . S
C825 C819 1.504 . S
C825 O837 1.239 . S
C825 O838 1.263 . S
O826 Tb816 2.325 . S
O826 C836 1.236 . S
O827 Tb817 2.322 . S
O827 C836 1.257 . S
O828 Tb817 2.349 . S
O828 C839 1.261 . S
O829 Tb816 2.303 . S
O829 C839 1.257 . S
O830 Tb817 2.415 . S
O830 C846 1.239 . S
O831 Tb817 2.399 . S
O831 C846 1.263 . S
O832 Tb817 2.325 . S
O832 C847 1.236 . S
O833 Tb816 2.322 . S
O833 C847 1.257 . S
O834 Tb816 2.349 . S
O834 C818 1.261 . S
O835 Tb817 2.303 . S
O835 C818 1.257 . S
C836 O826 1.236 . S
C836 O827 1.257 . S
O837 Tb816 2.415 . S
O837 C825 1.239 . S
O838 Tb816 2.399 . S
O838 C825 1.263 . S
C839 O828 1.261 . S
C839 O829 1.257 . S
C840 C843 1.358 . S
C840 C844 1.332 . S
C840 C846 1.504 . S
C841 C842 1.373 . S
C841 C845 1.308 . S
C842 C841 1.373 . S
C842 C843 1.429 . S
C842 H852 0.932 . S
C843 C840 1.358 . S
C843 C842 1.429 . S
C843 H853 0.930 . S
C844 C840 1.332 . S
C844 C845 1.394 . S
C844 H854 0.932 . S
C845 C841 1.308 . S
C845 C844 1.394 . S
C845 H855 0.929 . S
C846 Tb817 2.764 . S
C846 O830 1.239 . S
C846 O831 1.263 . S
C846 C840 1.504 . S
C847 O832 1.236 . S
C847 O833 1.257 . S
H848 C821 0.932 . S
H849 C822 0.930 . S
H850 C823 0.932 . S
H851 C824 0.929 . S
H852 C842 0.932 . S
H853 C843 0.930 . S
H854 C844 0.932 . S
H855 C845 0.929 . S
Tb856 C865 2.764 . S
Tb856 O866 2.325 . S
Tb856 O869 2.303 . S
Tb856 O873 2.322 . S
Tb856 O874 2.349 . S
Tb856 O877 2.415 . S
Tb856 O878 2.399 . S
Tb857 O867 2.322 . S
Tb857 O868 2.349 . S
Tb857 O870 2.415 . S
Tb857 O871 2.399 . S
Tb857 O872 2.325 . S
Tb857 O875 2.303 . S
Tb857 C886 2.764 . S
C858 O874 1.261 . S
C858 O875 1.257 . S
C859 C862 1.358 . S
C859 C863 1.332 . S
C859 C865 1.504 . S
C860 C861 1.373 . S
C860 C864 1.308 . S
C861 C860 1.373 . S
C861 C862 1.429 . S
C861 H888 0.932 . S
C862 C859 1.358 . S
C862 C861 1.429 . S
C862 H889 0.930 . S
C863 C859 1.332 . S
C863 C864 1.394 . S
C863 H890 0.932 . S
C864 C860 1.308 . S
C864 C863 1.394 . S
C864 H891 0.929 . S
C865 Tb856 2.764 . S
C865 C859 1.504 . S
C865 O877 1.239 . S
C865 O878 1.263 . S
O866 Tb856 2.325 . S
O866 C876 1.236 . S
O867 Tb857 2.322 . S
O867 C876 1.257 . S
O868 Tb857 2.349 . S
O868 C879 1.261 . S
O869 Tb856 2.303 . S
O869 C879 1.257 . S
O870 Tb857 2.415 . S
O870 C886 1.239 . S
O871 Tb857 2.399 . S
O871 C886 1.263 . S
O872 Tb857 2.325 . S
O872 C887 1.236 . S
O873 Tb856 2.322 . S
O873 C887 1.257 . S
O874 Tb856 2.349 . S
O874 C858 1.261 . S
O875 Tb857 2.303 . S
O875 C858 1.257 . S
C876 O866 1.236 . S
C876 O867 1.257 . S
O877 Tb856 2.415 . S
O877 C865 1.239 . S
O878 Tb856 2.399 . S
O878 C865 1.263 . S
C879 O868 1.261 . S
C879 O869 1.257 . S
C880 C883 1.358 . S
C880 C884 1.332 . S
C880 C886 1.504 . S
C881 C882 1.373 . S
C881 C885 1.308 . S
C882 C881 1.373 . S
C882 C883 1.429 . S
C882 H892 0.932 . S
C883 C880 1.358 . S
C883 C882 1.429 . S
C883 H893 0.930 . S
C884 C880 1.332 . S
C884 C885 1.394 . S
C884 H894 0.932 . S
C885 C881 1.308 . S
C885 C884 1.394 . S
C885 H895 0.929 . S
C886 Tb857 2.764 . S
C886 O870 1.239 . S
C886 O871 1.263 . S
C886 C880 1.504 . S
C887 O872 1.236 . S
C887 O873 1.257 . S
H888 C861 0.932 . S
H889 C862 0.930 . S
H890 C863 0.932 . S
H891 C864 0.929 . S
H892 C882 0.932 . S
H893 C883 0.930 . S
H894 C884 0.932 . S
H895 C885 0.929 . S
Tb896 C905 2.764 . S
Tb896 O906 2.325 . S
Tb896 O909 2.303 . S
Tb896 O913 2.322 . S
Tb896 O914 2.349 . S
Tb896 O917 2.415 . S
Tb896 O918 2.399 . S
Tb897 O907 2.322 . S
Tb897 O908 2.349 . S
Tb897 O910 2.415 . S
Tb897 O911 2.399 . S
Tb897 O912 2.325 . S
Tb897 O915 2.303 . S
Tb897 C926 2.764 . S
C898 O914 1.261 . S
C898 O915 1.257 . S
C899 C902 1.358 . S
C899 C903 1.332 . S
C899 C905 1.504 . S
C900 C901 1.373 . S
C900 C904 1.308 . S
C901 C900 1.373 . S
C901 C902 1.429 . S
C901 H928 0.932 . S
C902 C899 1.358 . S
C902 C901 1.429 . S
C902 H929 0.930 . S
C903 C899 1.332 . S
C903 C904 1.394 . S
C903 H930 0.932 . S
C904 C900 1.308 . S
C904 C903 1.394 . S
C904 H931 0.929 . S
C905 Tb896 2.764 . S
C905 C899 1.504 . S
C905 O917 1.239 . S
C905 O918 1.263 . S
O906 Tb896 2.325 . S
O906 C916 1.236 . S
O907 Tb897 2.322 . S
O907 C916 1.257 . S
O908 Tb897 2.349 . S
O908 C919 1.261 . S
O909 Tb896 2.303 . S
O909 C919 1.257 . S
O910 Tb897 2.415 . S
O910 C926 1.239 . S
O911 Tb897 2.399 . S
O911 C926 1.263 . S
O912 Tb897 2.325 . S
O912 C927 1.236 . S
O913 Tb896 2.322 . S
O913 C927 1.257 . S
O914 Tb896 2.349 . S
O914 C898 1.261 . S
O915 Tb897 2.303 . S
O915 C898 1.257 . S
C916 O906 1.236 . S
C916 O907 1.257 . S
O917 Tb896 2.415 . S
O917 C905 1.239 . S
O918 Tb896 2.399 . S
O918 C905 1.263 . S
C919 O908 1.261 . S
C919 O909 1.257 . S
C920 C923 1.358 . S
C920 C924 1.332 . S
C920 C926 1.504 . S
C921 C922 1.373 . S
C921 C925 1.308 . S
C922 C921 1.373 . S
C922 C923 1.429 . S
C922 H932 0.932 . S
C923 C920 1.358 . S
C923 C922 1.429 . S
C923 H933 0.930 . S
C924 C920 1.332 . S
C924 C925 1.394 . S
C924 H934 0.932 . S
C925 C921 1.308 . S
C925 C924 1.394 . S
C925 H935 0.929 . S
C926 Tb897 2.764 . S
C926 O910 1.239 . S
C926 O911 1.263 . S
C926 C920 1.504 . S
C927 O912 1.236 . S
C927 O913 1.257 . S
H928 C901 0.932 . S
H929 C902 0.930 . S
H930 C903 0.932 . S
H931 C904 0.929 . S
H932 C922 0.932 . S
H933 C923 0.930 . S
H934 C924 0.932 . S
H935 C925 0.929 . S
Tb936 C945 2.764 1_455 S
Tb936 O946 2.325 . S
Tb936 O949 2.303 . S
Tb936 O953 2.322 . S
Tb936 O954 2.349 . S
Tb936 O957 2.415 1_455 S
Tb936 O958 2.399 1_455 S
Tb937 O947 2.322 . S
Tb937 O948 2.349 1_554 S
Tb937 O950 2.415 . S
Tb937 O951 2.399 . S
Tb937 O952 2.325 . S
Tb937 O955 2.303 . S
Tb937 C966 2.764 . S
C938 O954 1.261 . S
C938 O955 1.257 . S
C939 C942 1.358 . S
C939 C943 1.332 . S
C939 C945 1.504 . S
C940 C941 1.373 . S
C940 C944 1.308 . S
C941 C940 1.373 . S
C941 C942 1.429 . S
C941 H968 0.932 . S
C942 C939 1.358 . S
C942 C941 1.429 . S
C942 H969 0.930 . S
C943 C939 1.332 . S
C943 C944 1.394 . S
C943 H970 0.932 . S
C944 C940 1.308 . S
C944 C943 1.394 . S
C944 H971 0.929 . S
C945 Tb936 2.764 1_655 S
C945 C939 1.504 . S
C945 O957 1.239 . S
C945 O958 1.263 . S
O946 Tb936 2.325 . S
O946 C956 1.236 . S
O947 Tb937 2.322 . S
O947 C956 1.257 . S
O948 Tb937 2.349 1_556 S
O948 C959 1.261 . S
O949 Tb936 2.303 . S
O949 C959 1.257 1_554 S
O950 Tb937 2.415 . S
O950 C966 1.239 . S
O951 Tb937 2.399 . S
O951 C966 1.263 . S
O952 Tb937 2.325 . S
O952 C967 1.236 . S
O953 Tb936 2.322 . S
O953 C967 1.257 . S
O954 Tb936 2.349 . S
O954 C938 1.261 . S
O955 Tb937 2.303 . S
O955 C938 1.257 . S
C956 O946 1.236 . S
C956 O947 1.257 . S
O957 Tb936 2.415 1_655 S
O957 C945 1.239 . S
O958 Tb936 2.399 1_655 S
O958 C945 1.263 . S
C959 O948 1.261 . S
C959 O949 1.257 1_556 S
C960 C963 1.358 1_554 S
C960 C964 1.332 . S
C960 C966 1.504 . S
C961 C962 1.373 1_554 S
C961 C965 1.308 . S
C962 C961 1.373 1_556 S
C962 C963 1.429 . S
C962 H972 0.932 . S
C963 C960 1.358 1_556 S
C963 C962 1.429 . S
C963 H973 0.930 . S
C964 C960 1.332 . S
C964 C965 1.394 . S
C964 H974 0.932 . S
C965 C961 1.308 . S
C965 C964 1.394 . S
C965 H975 0.929 . S
C966 Tb937 2.764 . S
C966 O950 1.239 . S
C966 O951 1.263 . S
C966 C960 1.504 . S
C967 O952 1.236 . S
C967 O953 1.257 . S
H968 C941 0.932 . S
H969 C942 0.930 . S
H970 C943 0.932 . S
H971 C944 0.929 . S
H972 C962 0.932 . S
H973 C963 0.930 . S
H974 C964 0.932 . S
H975 C965 0.929 . S
C976 C977 1.369 . S
C976 C978 1.419 1_556 S
C976 H980 0.930 . S
C977 C976 1.369 . S
C977 C986 1.429 1_456 S
C978 C976 1.419 1_554 S
C978 C979 1.363 . S
C978 H981 0.929 . S
C979 C978 1.363 . S
C979 C985 1.428 . S
H980 C976 0.930 . S
H981 C978 0.929 . S
S982 N983 1.613 . S
S982 N984 1.610 . S
N983 S982 1.613 . S
N983 C986 1.350 . S
N984 S982 1.610 . S
N984 C985 1.351 1_655 S
C985 C979 1.428 . S
C985 N984 1.351 1_455 S
C985 C986 1.434 1_455 S
C986 C977 1.429 1_654 S
C986 N983 1.350 . S
C986 C985 1.434 1_655 S
C987 C988 1.369 . S
C987 C989 1.419 . S
C987 H991 0.930 . S
C988 C987 1.369 . S
C988 C997 1.429 . S
C989 C987 1.419 . S
C989 C990 1.363 . S
C989 H992 0.929 . S
C990 C989 1.363 . S
C990 C996 1.428 . S
H991 C987 0.930 . S
H992 C989 0.929 . S
S993 N994 1.613 . S
S993 N995 1.610 . S
N994 S993 1.613 . S
N994 C997 1.350 . S
N995 S993 1.610 . S
N995 C996 1.351 . S
C996 C990 1.428 . S
C996 N995 1.351 . S
C996 C997 1.434 . S
C997 C988 1.429 . S
C997 N994 1.350 . S
C997 C996 1.434 . S
C998 C999 1.369 . S
C998 C1000 1.419 . S
C998 H1002 0.930 . S
C999 C998 1.369 . S
C999 C1008 1.429 . S
C1000 C998 1.419 . S
C1000 C1001 1.363 . S
C1000 H1003 0.929 . S
C1001 C1000 1.363 . S
C1001 C1007 1.428 . S
H1002 C998 0.930 . S
H1003 C1000 0.929 . S
S1004 N1005 1.613 . S
S1004 N1006 1.610 . S
N1005 S1004 1.613 . S
N1005 C1008 1.350 . S
N1006 S1004 1.610 . S
N1006 C1007 1.351 . S
C1007 C1001 1.428 . S
C1007 N1006 1.351 . S
C1007 C1008 1.434 . S
C1008 C999 1.429 . S
C1008 N1005 1.350 . S
C1008 C1007 1.434 . S
C1009 C1010 1.369 . S
C1009 C1011 1.419 . S
C1009 H1013 0.930 . S
C1010 C1009 1.369 . S
C1010 C1019 1.429 . S
C1011 C1009 1.419 . S
C1011 C1012 1.363 . S
C1011 H1014 0.929 . S
C1012 C1011 1.363 . S
C1012 C1018 1.428 . S
H1013 C1009 0.930 . S
H1014 C1011 0.929 . S
S1015 N1016 1.613 . S
S1015 N1017 1.610 . S
N1016 S1015 1.613 . S
N1016 C1019 1.350 . S
N1017 S1015 1.610 . S
N1017 C1018 1.351 . S
C1018 C1012 1.428 . S
C1018 N1017 1.351 . S
C1018 C1019 1.434 . S
C1019 C1010 1.429 . S
C1019 N1016 1.350 . S
C1019 C1018 1.434 . S
C1020 C1021 1.369 . S
C1020 C1022 1.419 . S
C1020 H1024 0.930 . S
C1021 C1020 1.369 . S
C1021 C1030 1.429 . S
C1022 C1020 1.419 . S
C1022 C1023 1.363 . S
C1022 H1025 0.929 . S
C1023 C1022 1.363 . S
C1023 C1029 1.428 . S
H1024 C1020 0.930 . S
H1025 C1022 0.929 . S
S1026 N1027 1.613 1_655 S
S1026 N1028 1.610 1_655 S
N1027 S1026 1.613 1_455 S
N1027 C1030 1.350 . S
N1028 S1026 1.610 1_455 S
N1028 C1029 1.351 . S
C1029 C1023 1.428 . S
C1029 N1028 1.351 . S
C1029 C1030 1.434 . S
C1030 C1021 1.429 . S
C1030 N1027 1.350 . S
C1030 C1029 1.434 . S
C1031 C1032 1.369 . S
C1031 C1033 1.419 . S
C1031 H1035 0.930 . S
C1032 C1031 1.369 . S
C1032 C1041 1.429 . S
C1033 C1031 1.419 . S
C1033 C1034 1.363 . S
C1033 H1036 0.929 . S
C1034 C1033 1.363 . S
C1034 C1040 1.428 . S
H1035 C1031 0.930 . S
H1036 C1033 0.929 . S
S1037 N1038 1.613 . S
S1037 N1039 1.610 . S
N1038 S1037 1.613 . S
N1038 C1041 1.350 . S
N1039 S1037 1.610 . S
N1039 C1040 1.351 . S
C1040 C1034 1.428 . S
C1040 N1039 1.351 . S
C1040 C1041 1.434 . S
C1041 C1032 1.429 . S
C1041 N1038 1.350 . S
C1041 C1040 1.434 . S
C1042 C1043 1.369 . S
C1042 C1044 1.419 . S
C1042 H1046 0.930 . S
C1043 C1042 1.369 . S
C1043 C1052 1.429 . S
C1044 C1042 1.419 . S
C1044 C1045 1.363 . S
C1044 H1047 0.929 . S
C1045 C1044 1.363 . S
C1045 C1051 1.428 . S
H1046 C1042 0.930 . S
H1047 C1044 0.929 . S
S1048 N1049 1.613 . S
S1048 N1050 1.610 . S
N1049 S1048 1.613 . S
N1049 C1052 1.350 . S
N1050 S1048 1.610 . S
N1050 C1051 1.351 . S
C1051 C1045 1.428 . S
C1051 N1050 1.351 . S
C1051 C1052 1.434 . S
C1052 C1043 1.429 . S
C1052 N1049 1.350 . S
C1052 C1051 1.434 . S
C1053 C1054 1.369 . S
C1053 C1055 1.419 . S
C1053 H1057 0.930 . S
C1054 C1053 1.369 . S
C1054 C1063 1.429 . S
C1055 C1053 1.419 . S
C1055 C1056 1.363 . S
C1055 H1058 0.929 . S
C1056 C1055 1.363 . S
C1056 C1062 1.428 . S
H1057 C1053 0.930 . S
H1058 C1055 0.929 . S
S1059 N1060 1.613 . S
S1059 N1061 1.610 . S
N1060 S1059 1.613 . S
N1060 C1063 1.350 . S
N1061 S1059 1.610 . S
N1061 C1062 1.351 . S
C1062 C1056 1.428 . S
C1062 N1061 1.351 . S
C1062 C1063 1.434 . S
C1063 C1054 1.429 . S
C1063 N1060 1.350 . S
C1063 C1062 1.434 . S
C1064 C1065 1.369 1_565 S
C1064 C1066 1.419 1_665 S
C1064 H1068 0.930 . S
C1065 C1064 1.369 1_545 S
C1065 C1074 1.429 . S
C1066 C1064 1.419 1_445 S
C1066 C1067 1.363 . S
C1066 H1069 0.929 . S
C1067 C1066 1.363 . S
C1067 C1073 1.428 . S
H1068 C1064 0.930 . S
H1069 C1066 0.929 . S
S1070 N1071 1.613 . S
S1070 N1072 1.610 1_655 S
N1071 S1070 1.613 . S
N1071 C1074 1.350 . S
N1072 S1070 1.610 1_455 S
N1072 C1073 1.351 . S
C1073 C1067 1.428 . S
C1073 N1072 1.351 . S
C1073 C1074 1.434 1_455 S
C1074 C1065 1.429 . S
C1074 N1071 1.350 . S
C1074 C1073 1.434 1_655 S
C1075 C1076 1.369 . S
C1075 C1077 1.419 . S
C1075 H1079 0.930 . S
C1076 C1075 1.369 . S
C1076 C1085 1.429 . S
C1077 C1075 1.419 . S
C1077 C1078 1.363 . S
C1077 H1080 0.929 . S
C1078 C1077 1.363 . S
C1078 C1084 1.428 . S
H1079 C1075 0.930 . S
H1080 C1077 0.929 . S
S1081 N1082 1.613 . S
S1081 N1083 1.610 . S
N1082 S1081 1.613 . S
N1082 C1085 1.350 . S
N1083 S1081 1.610 . S
N1083 C1084 1.351 . S
C1084 C1078 1.428 . S
C1084 N1083 1.351 . S
C1084 C1085 1.434 . S
C1085 C1076 1.429 . S
C1085 N1082 1.350 . S
C1085 C1084 1.434 . S
C1086 C1087 1.369 . S
C1086 C1088 1.419 . S
C1086 H1090 0.930 . S
C1087 C1086 1.369 . S
C1087 C1096 1.429 . S
C1088 C1086 1.419 . S
C1088 C1089 1.363 . S
C1088 H1091 0.929 . S
C1089 C1088 1.363 . S
C1089 C1095 1.428 . S
H1090 C1086 0.930 . S
H1091 C1088 0.929 . S
S1092 N1093 1.613 . S
S1092 N1094 1.610 . S
N1093 S1092 1.613 . S
N1093 C1096 1.350 . S
N1094 S1092 1.610 . S
N1094 C1095 1.351 . S
C1095 C1089 1.428 . S
C1095 N1094 1.351 . S
C1095 C1096 1.434 . S
C1096 C1087 1.429 . S
C1096 N1093 1.350 . S
C1096 C1095 1.434 . S
C1097 C1098 1.369 . S
C1097 C1099 1.419 . S
C1097 H1101 0.930 . S
C1098 C1097 1.369 . S
C1098 C1107 1.429 . S
C1099 C1097 1.419 . S
C1099 C1100 1.363 . S
C1099 H1102 0.929 . S
C1100 C1099 1.363 . S
C1100 C1106 1.428 . S
H1101 C1097 0.930 . S
H1102 C1099 0.929 . S
S1103 N1104 1.613 . S
S1103 N1105 1.610 . S
N1104 S1103 1.613 . S
N1104 C1107 1.350 . S
N1105 S1103 1.610 . S
N1105 C1106 1.351 . S
C1106 C1100 1.428 . S
C1106 N1105 1.351 . S
C1106 C1107 1.434 . S
C1107 C1098 1.429 . S
C1107 N1104 1.350 . S
C1107 C1106 1.434 . S
C1108 C1109 1.369 . S
C1108 C1110 1.419 . S
C1108 H1112 0.930 . S
C1109 C1108 1.369 . S
C1109 C1118 1.429 . S
C1110 C1108 1.419 . S
C1110 C1111 1.363 . S
C1110 H1113 0.929 . S
C1111 C1110 1.363 . S
C1111 C1117 1.428 1_655 S
H1112 C1108 0.930 . S
H1113 C1110 0.929 . S
S1114 N1115 1.613 1_455 S
S1114 N1116 1.610 . S
N1115 S1114 1.613 1_655 S
N1115 C1118 1.350 1_565 S
N1116 S1114 1.610 . S
N1116 C1117 1.351 1_565 S
C1117 C1111 1.428 1_455 S
C1117 N1116 1.351 1_545 S
C1117 C1118 1.434 1_455 S
C1118 C1109 1.429 . S
C1118 N1115 1.350 1_545 S
C1118 C1117 1.434 1_655 S
C1119 C1120 1.369 . S
C1119 C1121 1.419 . S
C1119 H1123 0.930 . S
C1120 C1119 1.369 . S
C1120 C1129 1.429 . S
C1121 C1119 1.419 . S
C1121 C1122 1.363 . S
C1121 H1124 0.929 . S
C1122 C1121 1.363 . S
C1122 C1128 1.428 . S
H1123 C1119 0.930 . S
H1124 C1121 0.929 . S
S1125 N1126 1.613 . S
S1125 N1127 1.610 . S
N1126 S1125 1.613 . S
N1126 C1129 1.350 . S
N1127 S1125 1.610 . S
N1127 C1128 1.351 . S
C1128 C1122 1.428 . S
C1128 N1127 1.351 . S
C1128 C1129 1.434 . S
C1129 C1120 1.429 . S
C1129 N1126 1.350 . S
C1129 C1128 1.434 . S
C1130 C1131 1.369 . S
C1130 C1132 1.419 . S
C1130 H1134 0.930 . S
C1131 C1130 1.369 . S
C1131 C1140 1.429 . S
C1132 C1130 1.419 . S
C1132 C1133 1.363 . S
C1132 H1135 0.929 . S
C1133 C1132 1.363 . S
C1133 C1139 1.428 . S
H1134 C1130 0.930 . S
H1135 C1132 0.929 . S
S1136 N1137 1.613 . S
S1136 N1138 1.610 . S
N1137 S1136 1.613 . S
N1137 C1140 1.350 . S
N1138 S1136 1.610 . S
N1138 C1139 1.351 . S
C1139 C1133 1.428 . S
C1139 N1138 1.351 . S
C1139 C1140 1.434 . S
C1140 C1131 1.429 . S
C1140 N1137 1.350 . S
C1140 C1139 1.434 . S
C1141 C1142 1.369 . S
C1141 C1143 1.419 . S
C1141 H1145 0.930 . S
C1142 C1141 1.369 . S
C1142 C1151 1.429 . S
C1143 C1141 1.419 . S
C1143 C1144 1.363 . S
C1143 H1146 0.929 . S
C1144 C1143 1.363 . S
C1144 C1150 1.428 . S
H1145 C1141 0.930 . S
H1146 C1143 0.929 . S
S1147 N1148 1.613 . S
S1147 N1149 1.610 . S
N1148 S1147 1.613 . S
N1148 C1151 1.350 . S
N1149 S1147 1.610 . S
N1149 C1150 1.351 . S
C1150 C1144 1.428 . S
C1150 N1149 1.351 . S
C1150 C1151 1.434 . S
C1151 C1142 1.429 . S
C1151 N1148 1.350 . S
C1151 C1150 1.434 . S
C1152 C1153 1.369 . S
C1152 C1154 1.402 1_565 S
C1152 H1156 0.930 . S
C1153 C1152 1.369 . S
C1153 C1162 1.429 1_565 S
C1154 C1152 1.402 1_545 S
C1154 C1155 1.394 . S
C1154 H1157 0.915 1_545 S
C1155 C1154 1.394 . S
C1155 C1161 1.428 . S
H1156 C1152 0.930 . S
H1157 C1154 0.915 1_565 S
S1158 N1159 1.613 1_554 S
S1158 N1160 1.610 . S
N1159 S1158 1.613 1_556 S
N1159 C1162 1.350 1_556 S
N1160 S1158 1.610 . S
N1160 C1161 1.351 . S
C1161 C1155 1.428 . S
C1161 N1160 1.351 . S
C1161 C1162 1.434 . S
C1162 C1153 1.429 1_545 S
C1162 N1159 1.350 1_554 S
C1162 C1161 1.434 . S
C1163 C1164 1.369 . S
C1163 C1165 1.419 . S
C1163 H1167 0.930 . S
C1164 C1163 1.369 . S
C1164 C1173 1.429 . S
C1165 C1163 1.419 . S
C1165 C1166 1.363 . S
C1165 H1168 0.929 . S
C1166 C1165 1.363 . S
C1166 C1172 1.428 . S
H1167 C1163 0.930 . S
H1168 C1165 0.929 . S
S1169 N1170 1.613 . S
S1169 N1171 1.610 . S
N1170 S1169 1.613 . S
N1170 C1173 1.350 . S
N1171 S1169 1.610 . S
N1171 C1172 1.351 . S
C1172 C1166 1.428 . S
C1172 N1171 1.351 . S
C1172 C1173 1.434 . S
C1173 C1164 1.429 . S
C1173 N1170 1.350 . S
C1173 C1172 1.434 . S
C1174 C1175 1.369 . S
C1174 C1176 1.419 . S
C1174 H1178 0.930 . S
C1175 C1174 1.369 . S
C1175 C1184 1.429 . S
C1176 C1174 1.419 . S
C1176 C1177 1.363 . S
C1176 H1179 0.929 . S
C1177 C1176 1.363 . S
C1177 C1183 1.428 . S
H1178 C1174 0.930 . S
H1179 C1176 0.929 . S
S1180 N1181 1.613 . S
S1180 N1182 1.610 . S
N1181 S1180 1.613 . S
N1181 C1184 1.350 . S
N1182 S1180 1.610 . S
N1182 C1183 1.351 . S
C1183 C1177 1.428 . S
C1183 N1182 1.351 . S
C1183 C1184 1.434 . S
C1184 C1175 1.429 . S
C1184 N1181 1.350 . S
C1184 C1183 1.434 . S
C1185 C1186 1.369 . S
C1185 C1187 1.419 . S
C1185 H1189 0.930 . S
C1186 C1185 1.369 . S
C1186 C1195 1.429 . S
C1187 C1185 1.419 . S
C1187 C1188 1.363 . S
C1187 H1190 0.929 . S
C1188 C1187 1.363 . S
C1188 C1194 1.428 . S
H1189 C1185 0.930 . S
H1190 C1187 0.929 . S
S1191 N1192 1.613 . S
S1191 N1193 1.610 . S
N1192 S1191 1.613 . S
N1192 C1195 1.350 . S
N1193 S1191 1.610 . S
N1193 C1194 1.351 . S
C1194 C1188 1.428 . S
C1194 N1193 1.351 . S
C1194 C1195 1.434 . S
C1195 C1186 1.429 . S
C1195 N1192 1.350 . S
C1195 C1194 1.434 . S
C1196 C1197 1.369 . S
C1196 C1198 1.419 . S
C1196 H1200 0.930 . S
C1197 C1196 1.369 . S
C1197 C1206 1.429 . S
C1198 C1196 1.419 . S
C1198 C1199 1.363 . S
C1198 H1201 0.929 . S
C1199 C1198 1.363 . S
C1199 C1205 1.428 . S
H1200 C1196 0.930 . S
H1201 C1198 0.929 . S
S1202 N1203 1.613 . S
S1202 N1204 1.610 . S
N1203 S1202 1.613 . S
N1203 C1206 1.350 . S
N1204 S1202 1.610 . S
N1204 C1205 1.351 . S
C1205 C1199 1.428 . S
C1205 N1204 1.351 . S
C1205 C1206 1.434 . S
C1206 C1197 1.429 . S
C1206 N1203 1.350 . S
C1206 C1205 1.434 . S
C1207 C1208 1.369 . S
C1207 C1209 1.419 . S
C1207 H1211 0.930 . S
C1208 C1207 1.369 . S
C1208 C1217 1.429 . S
C1209 C1207 1.419 . S
C1209 C1210 1.363 . S
C1209 H1212 0.929 . S
C1210 C1209 1.363 . S
C1210 C1216 1.428 . S
H1211 C1207 0.930 . S
H1212 C1209 0.929 . S
S1213 N1214 1.613 . S
S1213 N1215 1.610 . S
N1214 S1213 1.613 . S
N1214 C1217 1.350 . S
N1215 S1213 1.610 . S
N1215 C1216 1.351 . S
C1216 C1210 1.428 . S
C1216 N1215 1.351 . S
C1216 C1217 1.434 . S
C1217 C1208 1.429 . S
C1217 N1214 1.350 . S
C1217 C1216 1.434 . S
C1218 C1219 1.369 . S
C1218 C1220 1.419 . S
C1218 H1222 0.930 . S
C1219 C1218 1.369 . S
C1219 C1228 1.429 . S
C1220 C1218 1.419 . S
C1220 C1221 1.363 . S
C1220 H1223 0.929 . S
C1221 C1220 1.363 . S
C1221 C1227 1.428 . S
H1222 C1218 0.930 . S
H1223 C1220 0.929 . S
S1224 N1225 1.613 . S
S1224 N1226 1.610 . S
N1225 S1224 1.613 . S
N1225 C1228 1.350 . S
N1226 S1224 1.610 . S
N1226 C1227 1.351 . S
C1227 C1221 1.428 . S
C1227 N1226 1.351 . S
C1227 C1228 1.434 . S
C1228 C1219 1.429 . S
C1228 N1225 1.350 . S
C1228 C1227 1.434 . S
C1229 C1230 1.369 . S
C1229 C1231 1.419 . S
C1229 H1233 0.930 . S
C1230 C1229 1.369 . S
C1230 C1239 1.429 . S
C1231 C1229 1.419 . S
C1231 C1232 1.363 . S
C1231 H1234 0.929 . S
C1232 C1231 1.363 . S
C1232 C1238 1.428 . S
H1233 C1229 0.930 . S
H1234 C1231 0.929 . S
S1235 N1236 1.613 . S
S1235 N1237 1.610 . S
N1236 S1235 1.613 . S
N1236 C1239 1.350 . S
N1237 S1235 1.610 . S
N1237 C1238 1.351 . S
C1238 C1232 1.428 . S
C1238 N1237 1.351 . S
C1238 C1239 1.434 . S
C1239 C1230 1.429 . S
C1239 N1236 1.350 . S
C1239 C1238 1.434 . S
C1240 C1241 1.369 . S
C1240 C1242 1.419 . S
C1240 H1244 0.930 . S
C1241 C1240 1.369 . S
C1241 C1250 1.429 . S
C1242 C1240 1.419 . S
C1242 C1243 1.363 . S
C1242 H1245 0.929 . S
C1243 C1242 1.363 . S
C1243 C1249 1.428 . S
H1244 C1240 0.930 . S
H1245 C1242 0.929 . S
S1246 N1247 1.613 . S
S1246 N1248 1.610 . S
N1247 S1246 1.613 . S
N1247 C1250 1.350 . S
N1248 S1246 1.610 . S
N1248 C1249 1.351 . S
C1249 C1243 1.428 . S
C1249 N1248 1.351 . S
C1249 C1250 1.434 . S
C1250 C1241 1.429 . S
C1250 N1247 1.350 . S
C1250 C1249 1.434 . S
C1251 C1252 1.369 . S
C1251 C1253 1.419 . S
C1251 H1255 0.930 . S
C1252 C1251 1.369 . S
C1252 C1261 1.429 . S
C1253 C1251 1.419 . S
C1253 C1254 1.363 . S
C1253 H1256 0.929 . S
C1254 C1253 1.363 . S
C1254 C1260 1.428 . S
H1255 C1251 0.930 . S
H1256 C1253 0.929 . S
S1257 N1258 1.613 . S
S1257 N1259 1.610 . S
N1258 S1257 1.613 . S
N1258 C1261 1.350 . S
N1259 S1257 1.610 . S
N1259 C1260 1.351 . S
C1260 C1254 1.428 . S
C1260 N1259 1.351 . S
C1260 C1261 1.434 . S
C1261 C1252 1.429 . S
C1261 N1258 1.350 . S
C1261 C1260 1.434 . S
C1262 C1263 1.369 . S
C1262 C1264 1.419 . S
C1262 H1266 0.930 . S
C1263 C1262 1.369 . S
C1263 C1272 1.429 . S
C1264 C1262 1.419 . S
C1264 C1265 1.363 . S
C1264 H1267 0.929 . S
C1265 C1264 1.363 . S
C1265 C1271 1.428 . S
H1266 C1262 0.930 . S
H1267 C1264 0.929 . S
S1268 N1269 1.613 . S
S1268 N1270 1.610 . S
N1269 S1268 1.613 . S
N1269 C1272 1.350 . S
N1270 S1268 1.610 . S
N1270 C1271 1.351 . S
C1271 C1265 1.428 . S
C1271 N1270 1.351 . S
C1271 C1272 1.434 . S
C1272 C1263 1.429 . S
C1272 N1269 1.350 . S
C1272 C1271 1.434 . S
C1273 C1274 1.369 . S
C1273 C1275 1.419 . S
C1273 H1277 0.930 . S
C1274 C1273 1.369 . S
C1274 C1283 1.429 . S
C1275 C1273 1.419 . S
C1275 C1276 1.363 . S
C1275 H1278 0.929 . S
C1276 C1275 1.363 . S
C1276 C1282 1.428 . S
H1277 C1273 0.930 . S
H1278 C1275 0.929 . S
S1279 N1280 1.613 . S
S1279 N1281 1.610 . S
N1280 S1279 1.613 . S
N1280 C1283 1.350 . S
N1281 S1279 1.610 . S
N1281 C1282 1.351 . S
C1282 C1276 1.428 . S
C1282 N1281 1.351 . S
C1282 C1283 1.434 . S
C1283 C1274 1.429 . S
C1283 N1280 1.350 . S
C1283 C1282 1.434 . S
C1284 C1285 1.369 . S
C1284 C1286 1.419 . S
C1284 H1288 0.930 . S
C1285 C1284 1.369 . S
C1285 C1294 1.429 . S
C1286 C1284 1.419 . S
C1286 C1287 1.363 . S
C1286 H1289 0.929 . S
C1287 C1286 1.363 . S
C1287 C1293 1.428 . S
H1288 C1284 0.930 . S
H1289 C1286 0.929 . S
S1290 N1291 1.613 . S
S1290 N1292 1.610 . S
N1291 S1290 1.613 . S
N1291 C1294 1.350 1_655 S
N1292 S1290 1.610 . S
N1292 C1293 1.351 1_655 S
C1293 C1287 1.428 . S
C1293 N1292 1.351 1_455 S
C1293 C1294 1.434 . S
C1294 C1285 1.429 . S
C1294 N1291 1.350 1_455 S
C1294 C1293 1.434 . S
C1295 C1296 1.369 . S
C1295 C1297 1.419 . S
C1295 H1299 0.930 . S
C1296 C1295 1.369 . S
C1296 C1305 1.429 . S
C1297 C1295 1.419 . S
C1297 C1298 1.363 . S
C1297 H1300 0.929 . S
C1298 C1297 1.363 . S
C1298 C1304 1.428 . S
H1299 C1295 0.930 . S
H1300 C1297 0.929 . S
S1301 N1302 1.613 . S
S1301 N1303 1.610 . S
N1302 S1301 1.613 . S
N1302 C1305 1.350 . S
N1303 S1301 1.610 . S
N1303 C1304 1.351 . S
C1304 C1298 1.428 . S
C1304 N1303 1.351 . S
C1304 C1305 1.434 . S
C1305 C1296 1.429 . S
C1305 N1302 1.350 . S
C1305 C1304 1.434 . S
C1306 C1307 1.369 . S
C1306 C1308 1.419 . S
C1306 H1310 0.930 . S
C1307 C1306 1.369 . S
C1307 C1316 1.429 . S
C1308 C1306 1.419 . S
C1308 C1309 1.363 . S
C1308 H1311 0.929 . S
C1309 C1308 1.363 . S
C1309 C1315 1.428 . S
H1310 C1306 0.930 . S
H1311 C1308 0.929 . S
S1312 N1313 1.613 1_554 S
S1312 N1314 1.610 . S
N1313 S1312 1.613 1_556 S
N1313 C1316 1.350 . S
N1314 S1312 1.610 . S
N1314 C1315 1.351 1_554 S
C1315 C1309 1.428 . S
C1315 N1314 1.351 1_556 S
C1315 C1316 1.434 . S
C1316 C1307 1.429 . S
C1316 N1313 1.350 . S
C1316 C1315 1.434 . S
C1317 C1318 1.369 . S
C1317 C1319 1.419 . S
C1317 H1321 0.930 . S
C1318 C1317 1.369 . S
C1318 C1327 1.429 . S
C1319 C1317 1.419 . S
C1319 C1320 1.363 . S
C1319 H1322 0.929 . S
C1320 C1319 1.363 . S
C1320 C1326 1.428 . S
H1321 C1317 0.930 . S
H1322 C1319 0.929 . S
S1323 N1324 1.613 . S
S1323 N1325 1.610 . S
N1324 S1323 1.613 . S
N1324 C1327 1.350 . S
N1325 S1323 1.610 . S
N1325 C1326 1.351 . S
C1326 C1320 1.428 . S
C1326 N1325 1.351 . S
C1326 C1327 1.434 . S
C1327 C1318 1.429 . S
C1327 N1324 1.350 . S
C1327 C1326 1.434 . S
C1328 C1329 1.369 . S
C1328 C1330 1.419 . S
C1328 H1332 0.930 . S
C1329 C1328 1.369 . S
C1329 C1338 1.429 . S
C1330 C1328 1.419 . S
C1330 C1331 1.363 . S
C1330 H1333 0.929 . S
C1331 C1330 1.363 . S
C1331 C1337 1.428 . S
H1332 C1328 0.930 . S
H1333 C1330 0.929 . S
S1334 N1335 1.613 1_565 S
S1334 N1336 1.610 1_565 S
N1335 S1334 1.613 1_545 S
N1335 C1338 1.350 . S
N1336 S1334 1.610 1_545 S
N1336 C1337 1.351 . S
C1337 C1331 1.428 . S
C1337 N1336 1.351 . S
C1337 C1338 1.434 . S
C1338 C1329 1.429 . S
C1338 N1335 1.350 . S
C1338 C1337 1.434 . S
C1339 C1340 1.369 . S
C1339 C1341 1.419 . S
C1339 H1343 0.930 . S
C1340 C1339 1.369 . S
C1340 C1349 1.429 . S
C1341 C1339 1.419 . S
C1341 C1342 1.363 . S
C1341 H1344 0.929 . S
C1342 C1341 1.363 . S
C1342 C1348 1.428 . S
H1343 C1339 0.930 . S
H1344 C1341 0.929 . S
S1345 N1346 1.613 . S
S1345 N1347 1.610 . S
N1346 S1345 1.613 . S
N1346 C1349 1.350 . S
N1347 S1345 1.610 . S
N1347 C1348 1.351 . S
C1348 C1342 1.428 . S
C1348 N1347 1.351 . S
C1348 C1349 1.434 . S
C1349 C1340 1.429 . S
C1349 N1346 1.350 . S
C1349 C1348 1.434 . S
C1350 C1351 1.369 . S
C1350 C1352 1.419 . S
C1350 H1354 0.930 . S
C1351 C1350 1.369 . S
C1351 C1360 1.429 . S
C1352 C1350 1.419 . S
C1352 C1353 1.363 . S
C1352 H1355 0.929 . S
C1353 C1352 1.363 . S
C1353 C1359 1.428 . S
H1354 C1350 0.930 . S
H1355 C1352 0.929 . S
S1356 N1357 1.613 . S
S1356 N1358 1.610 . S
N1357 S1356 1.613 . S
N1357 C1360 1.350 . S
N1358 S1356 1.610 . S
N1358 C1359 1.351 . S
C1359 C1353 1.428 . S
C1359 N1358 1.351 . S
C1359 C1360 1.434 . S
C1360 C1351 1.429 . S
C1360 N1357 1.350 . S
C1360 C1359 1.434 . S
C1361 C1362 1.369 . S
C1361 C1363 1.419 . S
C1361 H1365 0.930 . S
C1362 C1361 1.369 . S
C1362 C1371 1.429 . S
C1363 C1361 1.419 . S
C1363 C1364 1.363 . S
C1363 H1366 0.929 . S
C1364 C1363 1.363 . S
C1364 C1370 1.428 . S
H1365 C1361 0.930 . S
H1366 C1363 0.929 . S
S1367 N1368 1.613 . S
S1367 N1369 1.610 . S
N1368 S1367 1.613 . S
N1368 C1371 1.350 . S
N1369 S1367 1.610 . S
N1369 C1370 1.351 . S
C1370 C1364 1.428 . S
C1370 N1369 1.351 . S
C1370 C1371 1.434 . S
C1371 C1362 1.429 . S
C1371 N1368 1.350 . S
C1371 C1370 1.434 . S
C1372 C1373 1.369 . S
C1372 C1374 1.419 . S
C1372 H1376 0.930 . S
C1373 C1372 1.369 . S
C1373 C1382 1.429 . S
C1374 C1372 1.419 . S
C1374 C1375 1.363 . S
C1374 H1377 0.929 . S
C1375 C1374 1.363 . S
C1375 C1381 1.428 . S
H1376 C1372 0.930 . S
H1377 C1374 0.929 . S
S1378 N1379 1.613 . S
S1378 N1380 1.610 . S
N1379 S1378 1.613 . S
N1379 C1382 1.350 . S
N1380 S1378 1.610 . S
N1380 C1381 1.351 . S
C1381 C1375 1.428 . S
C1381 N1380 1.351 . S
C1381 C1382 1.434 . S
C1382 C1373 1.429 . S
C1382 N1379 1.350 . S
C1382 C1381 1.434 . S
C1383 C1384 1.369 . S
C1383 C1385 1.419 . S
C1383 H1387 0.930 . S
C1384 C1383 1.369 . S
C1384 C1393 1.429 . S
C1385 C1383 1.419 . S
C1385 C1386 1.363 . S
C1385 H1388 0.929 . S
C1386 C1385 1.363 . S
C1386 C1392 1.428 . S
H1387 C1383 0.930 . S
H1388 C1385 0.929 . S
S1389 N1390 1.613 . S
S1389 N1391 1.610 . S
N1390 S1389 1.613 . S
N1390 C1393 1.350 . S
N1391 S1389 1.610 . S
N1391 C1392 1.351 . S
C1392 C1386 1.428 . S
C1392 N1391 1.351 . S
C1392 C1393 1.434 . S
C1393 C1384 1.429 . S
C1393 N1390 1.350 . S
C1393 C1392 1.434 . S
C1394 C1395 1.369 . S
C1394 C1396 1.419 . S
C1394 H1398 0.930 1_545 S
C1395 C1394 1.369 . S
C1395 C1404 1.429 . S
C1396 C1394 1.419 . S
C1396 C1397 1.363 . S
C1396 H1399 0.929 1_545 S
C1397 C1396 1.363 . S
C1397 C1403 1.428 . S
H1398 C1394 0.930 1_565 S
H1399 C1396 0.929 1_565 S
S1400 N1401 1.613 . S
S1400 N1402 1.610 . S
N1401 S1400 1.613 . S
N1401 C1404 1.350 . S
N1402 S1400 1.610 . S
N1402 C1403 1.351 . S
C1403 C1397 1.428 . S
C1403 N1402 1.351 . S
C1403 C1404 1.434 . S
C1404 C1395 1.429 . S
C1404 N1401 1.350 . S
C1404 C1403 1.434 . S
C1405 C1406 1.369 . S
C1405 C1407 1.419 . S
C1405 H1409 0.930 . S
C1406 C1405 1.369 . S
C1406 C1415 1.429 . S
C1407 C1405 1.419 . S
C1407 C1408 1.363 . S
C1407 H1410 0.929 . S
C1408 C1407 1.363 . S
C1408 C1414 1.428 . S
H1409 C1405 0.930 . S
H1410 C1407 0.929 . S
S1411 N1412 1.613 . S
S1411 N1413 1.610 . S
N1412 S1411 1.613 . S
N1412 C1415 1.350 . S
N1413 S1411 1.610 . S
N1413 C1414 1.351 . S
C1414 C1408 1.428 . S
C1414 N1413 1.351 . S
C1414 C1415 1.434 . S
C1415 C1406 1.429 . S
C1415 N1412 1.350 . S
C1415 C1414 1.434 . S
C1416 C1417 1.369 . S
C1416 C1418 1.419 . S
C1416 H1420 0.930 . S
C1417 C1416 1.369 . S
C1417 C1426 1.429 . S
C1418 C1416 1.419 . S
C1418 C1419 1.363 . S
C1418 H1421 0.929 . S
C1419 C1418 1.363 . S
C1419 C1425 1.428 . S
H1420 C1416 0.930 . S
H1421 C1418 0.929 . S
S1422 N1423 1.613 . S
S1422 N1424 1.610 1_554 S
N1423 S1422 1.613 . S
N1423 C1426 1.350 . S
N1424 S1422 1.610 1_556 S
N1424 C1425 1.351 1_556 S
C1425 C1419 1.428 . S
C1425 N1424 1.351 1_554 S
C1425 C1426 1.434 . S
C1426 C1417 1.429 . S
C1426 N1423 1.350 . S
C1426 C1425 1.434 . S
C1427 C1428 1.369 . S
C1427 C1429 1.419 . S
C1427 H1431 0.930 . S
C1428 C1427 1.369 . S
C1428 C1437 1.429 . S
C1429 C1427 1.419 . S
C1429 C1430 1.363 . S
C1429 H1432 0.929 . S
C1430 C1429 1.363 . S
C1430 C1436 1.428 . S
H1431 C1427 0.930 . S
H1432 C1429 0.929 . S
S1433 N1434 1.613 . S
S1433 N1435 1.610 . S
N1434 S1433 1.613 . S
N1434 C1437 1.350 . S
N1435 S1433 1.610 . S
N1435 C1436 1.351 . S
C1436 C1430 1.428 . S
C1436 N1435 1.351 . S
C1436 C1437 1.434 . S
C1437 C1428 1.429 . S
C1437 N1434 1.350 . S
C1437 C1436 1.434 . S
C1438 C1439 1.369 . S
C1438 C1440 1.419 . S
C1438 H1442 0.930 . S
C1439 C1438 1.369 . S
C1439 C1448 1.429 . S
C1440 C1438 1.419 . S
C1440 C1441 1.363 . S
C1440 H1443 0.929 . S
C1441 C1440 1.363 . S
C1441 C1447 1.428 . S
H1442 C1438 0.930 . S
H1443 C1440 0.929 . S
S1444 N1445 1.613 . S
S1444 N1446 1.610 . S
N1445 S1444 1.613 . S
N1445 C1448 1.350 . S
N1446 S1444 1.610 . S
N1446 C1447 1.351 . S
C1447 C1441 1.428 . S
C1447 N1446 1.351 . S
C1447 C1448 1.434 . S
C1448 C1439 1.429 . S
C1448 N1445 1.350 . S
C1448 C1447 1.434 . S
C1449 C1450 1.369 . S
C1449 C1451 1.419 . S
C1449 H1453 0.930 . S
C1450 C1449 1.369 . S
C1450 C1459 1.429 . S
C1451 C1449 1.419 . S
C1451 C1452 1.363 . S
C1451 H1454 0.929 . S
C1452 C1451 1.363 . S
C1452 C1458 1.428 . S
H1453 C1449 0.930 . S
H1454 C1451 0.929 . S
S1455 N1456 1.613 . S
S1455 N1457 1.610 . S
N1456 S1455 1.613 . S
N1456 C1459 1.350 . S
N1457 S1455 1.610 . S
N1457 C1458 1.351 . S
C1458 C1452 1.428 . S
C1458 N1457 1.351 . S
C1458 C1459 1.434 . S
C1459 C1450 1.429 . S
C1459 N1456 1.350 . S
C1459 C1458 1.434 . S
C1460 C1461 1.369 . S
C1460 C1462 1.419 . S
C1460 H1464 0.930 . S
C1461 C1460 1.369 . S
C1461 C1470 1.433 1_565 S
C1462 C1460 1.419 . S
C1462 C1463 1.363 . S
C1462 H1465 0.929 . S
C1463 C1462 1.363 . S
C1463 C1469 1.428 . S
H1464 C1460 0.930 . S
H1465 C1462 0.929 . S
S1466 N1467 1.613 . S
S1466 N1468 1.610 1_545 S
N1467 S1466 1.613 . S
N1467 C1470 1.355 . S
N1468 S1466 1.610 1_565 S
N1468 C1469 1.351 . S
C1469 C1463 1.428 . S
C1469 N1468 1.351 . S
C1469 C1470 1.423 1_565 S
C1470 C1461 1.433 1_545 S
C1470 N1467 1.355 . S
C1470 C1469 1.423 1_545 S
C1471 C1472 1.369 . S
C1471 C1473 1.419 . S
C1471 H1475 0.930 . S
C1472 C1471 1.369 . S
C1472 C1481 1.429 . S
C1473 C1471 1.419 . S
C1473 C1474 1.363 . S
C1473 H1476 0.929 . S
C1474 C1473 1.363 . S
C1474 C1480 1.428 . S
H1475 C1471 0.930 . S
H1476 C1473 0.929 . S
S1477 N1478 1.613 . S
S1477 N1479 1.610 . S
N1478 S1477 1.613 . S
N1478 C1481 1.350 . S
N1479 S1477 1.610 . S
N1479 C1480 1.351 . S
C1480 C1474 1.428 . S
C1480 N1479 1.351 . S
C1480 C1481 1.434 . S
C1481 C1472 1.429 . S
C1481 N1478 1.350 . S
C1481 C1480 1.434 . S
C1482 C1483 1.369 . S
C1482 C1484 1.419 . S
C1482 H1486 0.930 . S
C1483 C1482 1.369 . S
C1483 C1492 1.429 . S
C1484 C1482 1.419 . S
C1484 C1485 1.363 . S
C1484 H1487 0.929 . S
C1485 C1484 1.363 . S
C1485 C1491 1.428 . S
H1486 C1482 0.930 . S
H1487 C1484 0.929 . S
S1488 N1489 1.613 . S
S1488 N1490 1.610 . S
N1489 S1488 1.613 . S
N1489 C1492 1.350 . S
N1490 S1488 1.610 . S
N1490 C1491 1.351 . S
C1491 C1485 1.428 . S
C1491 N1490 1.351 . S
C1491 C1492 1.434 . S
C1492 C1483 1.429 . S
C1492 N1489 1.350 . S
C1492 C1491 1.434 . S
C1493 C1494 1.369 . S
C1493 C1495 1.419 . S
C1493 H1497 0.930 . S
C1494 C1493 1.369 . S
C1494 C1503 1.429 . S
C1495 C1493 1.419 . S
C1495 C1496 1.363 . S
C1495 H1498 0.929 . S
C1496 C1495 1.363 . S
C1496 C1502 1.428 . S
H1497 C1493 0.930 . S
H1498 C1495 0.929 . S
S1499 N1500 1.613 . S
S1499 N1501 1.610 . S
N1500 S1499 1.613 . S
N1500 C1503 1.350 . S
N1501 S1499 1.610 . S
N1501 C1502 1.351 . S
C1502 C1496 1.428 . S
C1502 N1501 1.351 . S
C1502 C1503 1.434 . S
C1503 C1494 1.429 . S
C1503 N1500 1.350 . S
C1503 C1502 1.434 . S
C1504 C1505 1.369 . S
C1504 C1506 1.419 . S
C1504 H1508 0.930 . S
C1505 C1504 1.369 . S
C1505 C1514 1.429 . S
C1506 C1504 1.419 . S
C1506 C1507 1.363 . S
C1506 H1509 0.929 . S
C1507 C1506 1.363 . S
C1507 C1513 1.428 . S
H1508 C1504 0.930 . S
H1509 C1506 0.929 . S
S1510 N1511 1.613 . S
S1510 N1512 1.610 . S
N1511 S1510 1.613 . S
N1511 C1514 1.350 . S
N1512 S1510 1.610 . S
N1512 C1513 1.351 . S
C1513 C1507 1.428 . S
C1513 N1512 1.351 . S
C1513 C1514 1.434 . S
C1514 C1505 1.429 . S
C1514 N1511 1.350 . S
C1514 C1513 1.434 . S
C1515 C1516 1.369 . S
C1515 C1517 1.419 . S
C1515 H1519 0.930 . S
C1516 C1515 1.369 . S
C1516 C1525 1.429 . S
C1517 C1515 1.419 . S
C1517 C1518 1.363 . S
C1517 H1520 0.929 . S
C1518 C1517 1.363 . S
C1518 C1524 1.428 . S
H1519 C1515 0.930 . S
H1520 C1517 0.929 . S
S1521 N1522 1.613 . S
S1521 N1523 1.610 . S
N1522 S1521 1.613 . S
N1522 C1525 1.350 . S
N1523 S1521 1.610 . S
N1523 C1524 1.351 . S
C1524 C1518 1.428 . S
C1524 N1523 1.351 . S
C1524 C1525 1.434 . S
C1525 C1516 1.429 . S
C1525 N1522 1.350 . S
C1525 C1524 1.434 . S
C1526 C1527 1.369 1_554 S
C1526 C1528 1.419 . S
C1526 H1530 0.930 . S
C1527 C1526 1.369 1_556 S
C1527 C1536 1.429 . S
C1528 C1526 1.419 . S
C1528 C1529 1.363 . S
C1528 H1531 0.929 . S
C1529 C1528 1.363 . S
C1529 C1535 1.419 1_554 S
H1530 C1526 0.930 . S
H1531 C1528 0.929 . S
S1532 N1533 1.613 . S
S1532 N1534 1.610 . S
N1533 S1532 1.613 . S
N1533 C1536 1.350 1_655 S
N1534 S1532 1.610 . S
N1534 C1535 1.356 1_655 S
C1535 C1529 1.419 1_556 S
C1535 N1534 1.356 1_455 S
C1535 C1536 1.439 . S
C1536 C1527 1.429 . S
C1536 N1533 1.350 1_455 S
C1536 C1535 1.439 . S
C1537 C1538 1.369 . S
C1537 C1539 1.419 1_455 S
C1537 H1541 0.934 . S
C1538 C1537 1.369 . S
C1538 C1547 1.429 . S
C1539 C1537 1.419 1_655 S
C1539 C1540 1.363 . S
C1539 H1542 0.929 . S
C1540 C1539 1.363 . S
C1540 C1546 1.428 1_655 S
H1541 C1537 0.934 . S
H1542 C1539 0.929 . S
S1543 N1544 1.613 . S
S1543 N1545 1.610 . S
N1544 S1543 1.613 . S
N1544 C1547 1.350 . S
N1545 S1543 1.610 . S
N1545 C1546 1.351 . S
C1546 C1540 1.428 1_455 S
C1546 N1545 1.351 . S
C1546 C1547 1.434 . S
C1547 C1538 1.429 . S
C1547 N1544 1.350 . S
C1547 C1546 1.434 . S
C1548 C1549 1.369 . S
C1548 C1550 1.419 . S
C1548 H1552 0.930 . S
C1549 C1548 1.369 . S
C1549 C1558 1.429 . S
C1550 C1548 1.419 . S
C1550 C1551 1.363 . S
C1550 H1553 0.929 . S
C1551 C1550 1.363 . S
C1551 C1557 1.428 . S
H1552 C1548 0.930 . S
H1553 C1550 0.929 . S
S1554 N1555 1.613 . S
S1554 N1556 1.610 . S
N1555 S1554 1.613 . S
N1555 C1558 1.350 . S
N1556 S1554 1.610 . S
N1556 C1557 1.351 . S
C1557 C1551 1.428 . S
C1557 N1556 1.351 . S
C1557 C1558 1.434 . S
C1558 C1549 1.429 . S
C1558 N1555 1.350 . S
C1558 C1557 1.434 . S
C1559 C1560 1.369 . S
C1559 C1561 1.419 . S
C1559 H1563 0.930 . S
C1560 C1559 1.369 . S
C1560 C1569 1.429 . S
C1561 C1559 1.419 . S
C1561 C1562 1.363 . S
C1561 H1564 0.929 . S
C1562 C1561 1.363 . S
C1562 C1568 1.428 . S
H1563 C1559 0.930 . S
H1564 C1561 0.929 . S
S1565 N1566 1.613 . S
S1565 N1567 1.610 . S
N1566 S1565 1.613 . S
N1566 C1569 1.350 . S
N1567 S1565 1.610 . S
N1567 C1568 1.351 . S
C1568 C1562 1.428 . S
C1568 N1567 1.351 . S
C1568 C1569 1.434 . S
C1569 C1560 1.429 . S
C1569 N1566 1.350 . S
C1569 C1568 1.434 . S
C1570 C1571 1.369 . S
C1570 C1572 1.419 . S
C1570 H1574 0.930 . S
C1571 C1570 1.369 . S
C1571 C1580 1.429 . S
C1572 C1570 1.419 . S
C1572 C1573 1.363 . S
C1572 H1575 0.929 . S
C1573 C1572 1.363 . S
C1573 C1579 1.428 . S
H1574 C1570 0.930 . S
H1575 C1572 0.929 . S
S1576 N1577 1.613 . S
S1576 N1578 1.610 . S
N1577 S1576 1.613 . S
N1577 C1580 1.350 . S
N1578 S1576 1.610 . S
N1578 C1579 1.351 . S
C1579 C1573 1.428 . S
C1579 N1578 1.351 . S
C1579 C1580 1.434 . S
C1580 C1571 1.429 . S
C1580 N1577 1.350 . S
C1580 C1579 1.434 . S
C1581 C1582 1.369 . S
C1581 C1583 1.419 . S
C1581 H1585 0.930 . S
C1582 C1581 1.369 . S
C1582 C1591 1.429 . S
C1583 C1581 1.419 . S
C1583 C1584 1.363 . S
C1583 H1586 0.929 . S
C1584 C1583 1.363 . S
C1584 C1590 1.428 . S
H1585 C1581 0.930 . S
H1586 C1583 0.929 . S
S1587 N1588 1.613 . S
S1587 N1589 1.610 . S
N1588 S1587 1.613 . S
N1588 C1591 1.350 . S
N1589 S1587 1.610 . S
N1589 C1590 1.351 . S
C1590 C1584 1.428 . S
C1590 N1589 1.351 . S
C1590 C1591 1.434 . S
C1591 C1582 1.429 . S
C1591 N1588 1.350 . S
C1591 C1590 1.434 . S
C1592 C1593 1.369 . S
C1592 C1594 1.419 . S
C1592 H1596 0.930 . S
C1593 C1592 1.369 . S
C1593 C1602 1.429 . S
C1594 C1592 1.419 . S
C1594 C1595 1.363 . S
C1594 H1597 0.929 . S
C1595 C1594 1.363 . S
C1595 C1601 1.428 . S
H1596 C1592 0.930 . S
H1597 C1594 0.929 . S
S1598 N1599 1.613 . S
S1598 N1600 1.610 . S
N1599 S1598 1.613 . S
N1599 C1602 1.350 . S
N1600 S1598 1.610 . S
N1600 C1601 1.351 . S
C1601 C1595 1.428 . S
C1601 N1600 1.351 . S
C1601 C1602 1.434 . S
C1602 C1593 1.429 . S
C1602 N1599 1.350 . S
C1602 C1601 1.434 . S
C1603 C1604 1.369 . S
C1603 C1605 1.419 1_554 S
C1603 H1607 0.930 . S
C1604 C1603 1.369 . S
C1604 C1613 1.429 1_554 S
C1605 C1603 1.419 1_556 S
C1605 C1606 1.363 . S
C1605 H1608 0.929 . S
C1606 C1605 1.363 . S
C1606 C1612 1.428 . S
H1607 C1603 0.930 . S
H1608 C1605 0.929 . S
S1609 N1610 1.613 . S
S1609 N1611 1.610 . S
N1610 S1609 1.613 . S
N1610 C1613 1.350 . S
N1611 S1609 1.610 . S
N1611 C1612 1.351 . S
C1612 C1606 1.428 . S
C1612 N1611 1.351 . S
C1612 C1613 1.434 . S
C1613 C1604 1.429 1_556 S
C1613 N1610 1.350 . S
C1613 C1612 1.434 . S
C1614 C1615 1.369 . S
C1614 C1616 1.419 . S
C1614 H1618 0.930 . S
C1615 C1614 1.369 . S
C1615 C1624 1.429 . S
C1616 C1614 1.419 . S
C1616 C1617 1.363 . S
C1616 H1619 0.929 . S
C1617 C1616 1.363 . S
C1617 C1623 1.428 . S
H1618 C1614 0.930 . S
H1619 C1616 0.929 . S
S1620 N1621 1.613 . S
S1620 N1622 1.610 . S
N1621 S1620 1.613 . S
N1621 C1624 1.350 . S
N1622 S1620 1.610 . S
N1622 C1623 1.351 . S
C1623 C1617 1.428 . S
C1623 N1622 1.351 . S
C1623 C1624 1.434 . S
C1624 C1615 1.429 . S
C1624 N1621 1.350 . S
C1624 C1623 1.434 . S
C1625 C1626 1.369 . S
C1625 C1627 1.419 . S
C1625 H1629 0.930 . S
C1626 C1625 1.369 . S
C1626 C1635 1.429 . S
C1627 C1625 1.419 . S
C1627 C1628 1.363 . S
C1627 H1630 0.929 . S
C1628 C1627 1.363 . S
C1628 C1634 1.428 . S
H1629 C1625 0.930 . S
H1630 C1627 0.929 . S
S1631 N1632 1.613 . S
S1631 N1633 1.610 . S
N1632 S1631 1.613 . S
N1632 C1635 1.350 . S
N1633 S1631 1.610 . S
N1633 C1634 1.351 . S
C1634 C1628 1.428 . S
C1634 N1633 1.351 . S
C1634 C1635 1.434 . S
C1635 C1626 1.429 . S
C1635 N1632 1.350 . S
C1635 C1634 1.434 . S
C1636 C1637 1.369 . S
C1636 C1638 1.419 . S
C1636 H1640 0.930 . S
C1637 C1636 1.369 . S
C1637 C1646 1.429 . S
C1638 C1636 1.419 . S
C1638 C1639 1.363 . S
C1638 H1641 0.929 . S
C1639 C1638 1.363 . S
C1639 C1645 1.428 . S
H1640 C1636 0.930 . S
H1641 C1638 0.929 . S
S1642 N1643 1.613 . S
S1642 N1644 1.610 . S
N1643 S1642 1.613 . S
N1643 C1646 1.350 . S
N1644 S1642 1.610 . S
N1644 C1645 1.351 . S
C1645 C1639 1.428 . S
C1645 N1644 1.351 . S
C1645 C1646 1.434 . S
C1646 C1637 1.429 . S
C1646 N1643 1.350 . S
C1646 C1645 1.434 . S
C1647 C1648 1.369 . S
C1647 C1649 1.419 . S
C1647 H1651 0.930 . S
C1648 C1647 1.369 . S
C1648 C1657 1.429 . S
C1649 C1647 1.419 . S
C1649 C1650 1.363 . S
C1649 H1652 0.929 . S
C1650 C1649 1.363 . S
C1650 C1656 1.428 . S
H1651 C1647 0.930 . S
H1652 C1649 0.929 . S
S1653 N1654 1.613 . S
S1653 N1655 1.610 . S
N1654 S1653 1.613 . S
N1654 C1657 1.350 . S
N1655 S1653 1.610 . S
N1655 C1656 1.351 . S
C1656 C1650 1.428 . S
C1656 N1655 1.351 . S
C1656 C1657 1.434 . S
C1657 C1648 1.429 . S
C1657 N1654 1.350 . S
C1657 C1656 1.434 . S
C1658 C1659 1.369 . S
C1658 C1660 1.419 . S
C1658 H1662 0.930 . S
C1659 C1658 1.369 . S
C1659 C1668 1.429 . S
C1660 C1658 1.419 . S
C1660 C1661 1.363 . S
C1660 H1663 0.929 . S
C1661 C1660 1.363 . S
C1661 C1667 1.428 . S
H1662 C1658 0.930 . S
H1663 C1660 0.929 . S
S1664 N1665 1.613 . S
S1664 N1666 1.610 . S
N1665 S1664 1.613 . S
N1665 C1668 1.350 . S
N1666 S1664 1.610 . S
N1666 C1667 1.351 . S
C1667 C1661 1.428 . S
C1667 N1666 1.351 . S
C1667 C1668 1.434 . S
C1668 C1659 1.429 . S
C1668 N1665 1.350 . S
C1668 C1667 1.434 . S
C1669 C1670 1.369 . S
C1669 C1671 1.419 . S
C1669 H1673 0.930 . S
C1670 C1669 1.369 . S
C1670 C1679 1.429 . S
C1671 C1669 1.419 . S
C1671 C1672 1.363 . S
C1671 H1674 0.929 . S
C1672 C1671 1.363 . S
C1672 C1678 1.428 . S
H1673 C1669 0.930 . S
H1674 C1671 0.929 . S
S1675 N1676 1.613 . S
S1675 N1677 1.610 . S
N1676 S1675 1.613 . S
N1676 C1679 1.350 . S
N1677 S1675 1.610 . S
N1677 C1678 1.351 . S
C1678 C1672 1.428 . S
C1678 N1677 1.351 . S
C1678 C1679 1.434 . S
C1679 C1670 1.429 . S
C1679 N1676 1.350 . S
C1679 C1678 1.434 . S
C1680 C1681 1.369 . S
C1680 C1682 1.419 . S
C1680 H1684 0.930 . S
C1681 C1680 1.369 . S
C1681 C1690 1.429 . S
C1682 C1680 1.419 . S
C1682 C1683 1.363 . S
C1682 H1685 0.929 . S
C1683 C1682 1.363 . S
C1683 C1689 1.428 . S
H1684 C1680 0.930 . S
H1685 C1682 0.929 . S
S1686 N1687 1.613 . S
S1686 N1688 1.610 . S
N1687 S1686 1.613 . S
N1687 C1690 1.350 . S
N1688 S1686 1.610 . S
N1688 C1689 1.351 . S
C1689 C1683 1.428 . S
C1689 N1688 1.351 . S
C1689 C1690 1.434 . S
C1690 C1681 1.429 . S
C1690 N1687 1.350 . S
C1690 C1689 1.434 . S
C1691 C1692 1.369 . S
C1691 C1693 1.419 . S
C1691 H1695 0.930 . S
C1692 C1691 1.369 . S
C1692 C1701 1.429 . S
C1693 C1691 1.419 . S
C1693 C1694 1.363 . S
C1693 H1696 0.929 . S
C1694 C1693 1.363 . S
C1694 C1700 1.428 . S
H1695 C1691 0.930 . S
H1696 C1693 0.929 . S
S1697 N1698 1.613 . S
S1697 N1699 1.610 . S
N1698 S1697 1.613 . S
N1698 C1701 1.350 . S
N1699 S1697 1.610 . S
N1699 C1700 1.351 . S
C1700 C1694 1.428 . S
C1700 N1699 1.351 . S
C1700 C1701 1.434 . S
C1701 C1692 1.429 . S
C1701 N1698 1.350 . S
C1701 C1700 1.434 . S
C1702 C1703 1.369 1_565 S
C1702 C1704 1.419 . S
C1702 H1706 0.930 . S
C1703 C1702 1.369 1_545 S
C1703 C1712 1.429 . S
C1704 C1702 1.419 . S
C1704 C1705 1.366 . S
C1704 H1707 0.929 . S
C1705 C1704 1.366 . S
C1705 C1711 1.423 1_565 S
H1706 C1702 0.930 . S
H1707 C1704 0.929 . S
S1708 N1709 1.613 . S
S1708 N1710 1.610 . S
N1709 S1708 1.613 . S
N1709 C1712 1.350 . S
N1710 S1708 1.610 . S
N1710 C1711 1.351 . S
C1711 C1705 1.423 1_545 S
C1711 N1710 1.351 . S
C1711 C1712 1.434 . S
C1712 C1703 1.429 . S
C1712 N1709 1.350 . S
C1712 C1711 1.434 . S
C1713 C1714 1.369 . S
C1713 C1715 1.419 . S
C1713 H1717 0.930 . S
C1714 C1713 1.369 . S
C1714 C1723 1.424 1_564 S
C1715 C1713 1.419 . S
C1715 C1716 1.363 1_565 S
C1715 H1718 0.929 . S
C1716 C1715 1.363 1_545 S
C1716 C1722 1.428 . S
H1717 C1713 0.930 . S
H1718 C1715 0.929 . S
S1719 N1720 1.613 . S
S1719 N1721 1.610 1_556 S
N1720 S1719 1.613 . S
N1720 C1723 1.364 . S
N1721 S1719 1.610 1_554 S
N1721 C1722 1.351 . S
C1722 C1716 1.428 . S
C1722 N1721 1.351 . S
C1722 C1723 1.426 1_554 S
C1723 C1714 1.424 1_546 S
C1723 N1720 1.364 . S
C1723 C1722 1.426 1_556 S
C1724 C1725 1.369 . S
C1724 C1726 1.419 . S
C1724 H1728 0.930 . S
C1725 C1724 1.369 . S
C1725 C1734 1.429 . S
C1726 C1724 1.419 . S
C1726 C1727 1.363 . S
C1726 H1729 0.929 . S
C1727 C1726 1.363 . S
C1727 C1733 1.428 . S
H1728 C1724 0.930 . S
H1729 C1726 0.929 . S
S1730 N1731 1.613 . S
S1730 N1732 1.610 . S
N1731 S1730 1.613 . S
N1731 C1734 1.350 . S
N1732 S1730 1.610 . S
N1732 C1733 1.351 . S
C1733 C1727 1.428 . S
C1733 N1732 1.351 . S
C1733 C1734 1.434 . S
C1734 C1725 1.429 . S
C1734 N1731 1.350 . S
C1734 C1733 1.434 . S
C1735 C1736 1.369 . S
C1735 C1737 1.419 . S
C1735 H1739 0.930 . S
C1736 C1735 1.369 . S
C1736 C1745 1.429 . S
C1737 C1735 1.419 . S
C1737 C1738 1.363 . S
C1737 H1740 0.929 . S
C1738 C1737 1.363 . S
C1738 C1744 1.428 . S
H1739 C1735 0.930 . S
H1740 C1737 0.929 . S
S1741 N1742 1.613 . S
S1741 N1743 1.610 . S
N1742 S1741 1.613 . S
N1742 C1745 1.350 . S
N1743 S1741 1.610 . S
N1743 C1744 1.351 . S
C1744 C1738 1.428 . S
C1744 N1743 1.351 . S
C1744 C1745 1.434 . S
C1745 C1736 1.429 . S
C1745 N1742 1.350 . S
C1745 C1744 1.434 . S
C1746 C1747 1.369 . S
C1746 C1748 1.419 . S
C1746 H1750 0.930 . S
C1747 C1746 1.369 . S
C1747 C1756 1.429 . S
C1748 C1746 1.419 . S
C1748 C1749 1.363 . S
C1748 H1751 0.929 . S
C1749 C1748 1.363 . S
C1749 C1755 1.428 . S
H1750 C1746 0.930 . S
H1751 C1748 0.929 . S
S1752 N1753 1.613 . S
S1752 N1754 1.610 . S
N1753 S1752 1.613 . S
N1753 C1756 1.350 . S
N1754 S1752 1.610 . S
N1754 C1755 1.351 . S
C1755 C1749 1.428 . S
C1755 N1754 1.351 . S
C1755 C1756 1.434 . S
C1756 C1747 1.429 . S
C1756 N1753 1.350 . S
C1756 C1755 1.434 . S
C1757 C1758 1.369 . S
C1757 C1759 1.419 . S
C1757 H1761 0.930 . S
C1758 C1757 1.369 . S
C1758 C1767 1.429 . S
C1759 C1757 1.419 . S
C1759 C1760 1.363 . S
C1759 H1762 0.929 . S
C1760 C1759 1.363 . S
C1760 C1766 1.428 . S
H1761 C1757 0.930 . S
H1762 C1759 0.929 . S
S1763 N1764 1.613 . S
S1763 N1765 1.610 . S
N1764 S1763 1.613 . S
N1764 C1767 1.350 . S
N1765 S1763 1.610 . S
N1765 C1766 1.351 . S
C1766 C1760 1.428 . S
C1766 N1765 1.351 . S
C1766 C1767 1.434 . S
C1767 C1758 1.429 . S
C1767 N1764 1.350 . S
C1767 C1766 1.434 . S
C1768 C1769 1.369 . S
C1768 C1770 1.419 . S
C1768 H1772 0.930 . S
C1769 C1768 1.369 . S
C1769 C1778 1.429 . S
C1770 C1768 1.419 . S
C1770 C1771 1.363 . S
C1770 H1773 0.929 . S
C1771 C1770 1.363 . S
C1771 C1777 1.428 . S
H1772 C1768 0.930 . S
H1773 C1770 0.929 . S
S1774 N1775 1.613 . S
S1774 N1776 1.610 . S
N1775 S1774 1.613 . S
N1775 C1778 1.350 . S
N1776 S1774 1.610 . S
N1776 C1777 1.351 . S
C1777 C1771 1.428 . S
C1777 N1776 1.351 . S
C1777 C1778 1.434 . S
C1778 C1769 1.429 . S
C1778 N1775 1.350 . S
C1778 C1777 1.434 . S
C1779 C1780 1.369 . S
C1779 C1781 1.419 . S
C1779 H1783 0.930 . S
C1780 C1779 1.369 . S
C1780 C1789 1.429 . S
C1781 C1779 1.419 . S
C1781 C1782 1.363 . S
C1781 H1784 0.929 . S
C1782 C1781 1.363 . S
C1782 C1788 1.428 . S
H1783 C1779 0.930 . S
H1784 C1781 0.929 . S
S1785 N1786 1.613 . S
S1785 N1787 1.610 . S
N1786 S1785 1.613 . S
N1786 C1789 1.350 . S
N1787 S1785 1.610 . S
N1787 C1788 1.351 . S
C1788 C1782 1.428 . S
C1788 N1787 1.351 . S
C1788 C1789 1.434 . S
C1789 C1780 1.429 . S
C1789 N1786 1.350 . S
C1789 C1788 1.434 . S
C1790 C1791 1.369 . S
C1790 C1792 1.419 . S
C1790 H1794 0.930 . S
C1791 C1790 1.369 . S
C1791 C1800 1.429 . S
C1792 C1790 1.419 . S
C1792 C1793 1.363 . S
C1792 H1795 0.929 . S
C1793 C1792 1.363 . S
C1793 C1799 1.428 . S
H1794 C1790 0.930 . S
H1795 C1792 0.929 . S
S1796 N1797 1.613 . S
S1796 N1798 1.610 . S
N1797 S1796 1.613 . S
N1797 C1800 1.350 . S
N1798 S1796 1.610 . S
N1798 C1799 1.351 . S
C1799 C1793 1.428 . S
C1799 N1798 1.351 . S
C1799 C1800 1.434 . S
C1800 C1791 1.429 . S
C1800 N1797 1.350 . S
C1800 C1799 1.434 . S
C1801 C1802 1.369 . S
C1801 C1803 1.419 . S
C1801 H1805 0.930 . S
C1802 C1801 1.369 . S
C1802 C1811 1.429 . S
C1803 C1801 1.419 . S
C1803 C1804 1.363 . S
C1803 H1806 0.929 . S
C1804 C1803 1.363 . S
C1804 C1810 1.428 . S
H1805 C1801 0.930 . S
H1806 C1803 0.929 . S
S1807 N1808 1.613 . S
S1807 N1809 1.610 . S
N1808 S1807 1.613 . S
N1808 C1811 1.350 . S
N1809 S1807 1.610 . S
N1809 C1810 1.351 . S
C1810 C1804 1.428 . S
C1810 N1809 1.351 . S
C1810 C1811 1.434 . S
C1811 C1802 1.429 . S
C1811 N1808 1.350 . S
C1811 C1810 1.434 . S
C1812 C1813 1.369 . S
C1812 C1814 1.419 . S
C1812 H1816 0.930 . S
C1813 C1812 1.369 . S
C1813 C1822 1.429 . S
C1814 C1812 1.419 . S
C1814 C1815 1.363 . S
C1814 H1817 0.929 . S
C1815 C1814 1.363 . S
C1815 C1821 1.434 . S
H1816 C1812 0.930 . S
H1817 C1814 0.929 . S
S1818 N1819 1.613 1_554 S
S1818 N1820 1.610 . S
N1819 S1818 1.613 1_556 S
N1819 C1822 1.350 . S
N1820 S1818 1.610 . S
N1820 C1821 1.330 1_554 S
C1821 C1815 1.434 . S
C1821 N1820 1.330 1_556 S
C1821 C1822 1.449 . S
C1822 C1813 1.429 . S
C1822 N1819 1.350 . S
C1822 C1821 1.449 . S
C1823 C1824 1.369 . S
C1823 C1825 1.419 . S
C1823 H1827 0.930 . S
C1824 C1823 1.369 . S
C1824 C1833 1.429 . S
C1825 C1823 1.419 . S
C1825 C1826 1.363 . S
C1825 H1828 0.929 . S
C1826 C1825 1.363 . S
C1826 C1832 1.428 . S
H1827 C1823 0.930 . S
H1828 C1825 0.929 . S
S1829 N1830 1.613 . S
S1829 N1831 1.610 . S
N1830 S1829 1.613 . S
N1830 C1833 1.350 . S
N1831 S1829 1.610 . S
N1831 C1832 1.351 . S
C1832 C1826 1.428 . S
C1832 N1831 1.351 . S
C1832 C1833 1.434 . S
C1833 C1824 1.429 . S
C1833 N1830 1.350 . S
C1833 C1832 1.434 . S
C1834 C1835 1.369 . S
C1834 C1836 1.419 . S
C1834 H1838 0.930 . S
C1835 C1834 1.369 . S
C1835 C1844 1.429 . S
C1836 C1834 1.419 . S
C1836 C1837 1.363 . S
C1836 H1839 0.929 . S
C1837 C1836 1.363 . S
C1837 C1843 1.428 . S
H1838 C1834 0.930 . S
H1839 C1836 0.929 . S
S1840 N1841 1.613 . S
S1840 N1842 1.610 . S
N1841 S1840 1.613 . S
N1841 C1844 1.350 . S
N1842 S1840 1.610 . S
N1842 C1843 1.351 . S
C1843 C1837 1.428 . S
C1843 N1842 1.351 . S
C1843 C1844 1.434 . S
C1844 C1835 1.429 . S
C1844 N1841 1.350 . S
C1844 C1843 1.434 . S
C1845 C1846 1.369 . S
C1845 C1847 1.419 . S
C1845 H1849 0.930 . S
C1846 C1845 1.369 . S
C1846 C1855 1.429 . S
C1847 C1845 1.419 . S
C1847 C1848 1.363 . S
C1847 H1850 0.929 . S
C1848 C1847 1.363 . S
C1848 C1854 1.428 . S
H1849 C1845 0.930 . S
H1850 C1847 0.929 . S
S1851 N1852 1.613 . S
S1851 N1853 1.610 . S
N1852 S1851 1.613 . S
N1852 C1855 1.350 . S
N1853 S1851 1.610 . S
N1853 C1854 1.351 . S
C1854 C1848 1.428 . S
C1854 N1853 1.351 . S
C1854 C1855 1.434 . S
C1855 C1846 1.429 . S
C1855 N1852 1.350 . S
C1855 C1854 1.434 . S
C1856 C1857 1.369 . S
C1856 C1858 1.419 . S
C1856 H1860 0.930 . S
C1857 C1856 1.369 . S
C1857 C1866 1.429 . S
C1858 C1856 1.419 . S
C1858 C1859 1.363 . S
C1858 H1861 0.929 . S
C1859 C1858 1.363 . S
C1859 C1865 1.428 . S
H1860 C1856 0.930 . S
H1861 C1858 0.929 . S
S1862 N1863 1.613 . S
S1862 N1864 1.610 . S
N1863 S1862 1.613 . S
N1863 C1866 1.350 . S
N1864 S1862 1.610 . S
N1864 C1865 1.351 . S
C1865 C1859 1.428 . S
C1865 N1864 1.351 . S
C1865 C1866 1.434 . S
C1866 C1857 1.429 . S
C1866 N1863 1.350 . S
C1866 C1865 1.434 . S
C1867 C1868 1.369 . S
C1867 C1869 1.419 . S
C1867 H1871 0.930 . S
C1868 C1867 1.369 . S
C1868 C1877 1.429 . S
C1869 C1867 1.419 . S
C1869 C1870 1.363 . S
C1869 H1872 0.929 . S
C1870 C1869 1.363 . S
C1870 C1876 1.428 . S
H1871 C1867 0.930 . S
H1872 C1869 0.929 . S
S1873 N1874 1.613 . S
S1873 N1875 1.610 . S
N1874 S1873 1.613 . S
N1874 C1877 1.350 . S
N1875 S1873 1.610 . S
N1875 C1876 1.351 . S
C1876 C1870 1.428 . S
C1876 N1875 1.351 . S
C1876 C1877 1.434 . S
C1877 C1868 1.429 . S
C1877 N1874 1.350 . S
C1877 C1876 1.434 . S
C1878 C1879 1.369 . S
C1878 C1880 1.419 1_655 S
C1878 H1882 0.930 . S
C1879 C1878 1.369 . S
C1879 C1888 1.429 1_655 S
C1880 C1878 1.419 1_455 S
C1880 C1881 1.363 . S
C1880 H1883 0.929 . S
C1881 C1880 1.363 . S
C1881 C1887 1.428 . S
H1882 C1878 0.930 . S
H1883 C1880 0.929 . S
S1884 N1885 1.613 . S
S1884 N1886 1.610 . S
N1885 S1884 1.613 . S
N1885 C1888 1.350 . S
N1886 S1884 1.610 . S
N1886 C1887 1.351 . S
C1887 C1881 1.428 . S
C1887 N1886 1.351 . S
C1887 C1888 1.434 . S
C1888 C1879 1.429 1_455 S
C1888 N1885 1.350 . S
C1888 C1887 1.434 . S
C1889 C1890 1.369 . S
C1889 C1891 1.419 . S
C1889 H1893 0.930 . S
C1890 C1889 1.369 . S
C1890 C1899 1.429 . S
C1891 C1889 1.419 . S
C1891 C1892 1.363 . S
C1891 H1894 0.929 . S
C1892 C1891 1.363 . S
C1892 C1898 1.428 . S
H1893 C1889 0.930 . S
H1894 C1891 0.929 . S
S1895 N1896 1.613 . S
S1895 N1897 1.610 . S
N1896 S1895 1.613 . S
N1896 C1899 1.350 . S
N1897 S1895 1.610 . S
N1897 C1898 1.351 . S
C1898 C1892 1.428 . S
C1898 N1897 1.351 . S
C1898 C1899 1.434 . S
C1899 C1890 1.429 . S
C1899 N1896 1.350 . S
C1899 C1898 1.434 . S
C1900 C1901 1.369 . S
C1900 C1902 1.419 . S
C1900 H1904 0.930 . S
C1901 C1900 1.369 . S
C1901 C1910 1.429 . S
C1902 C1900 1.419 . S
C1902 C1903 1.363 . S
C1902 H1905 0.929 . S
C1903 C1902 1.363 . S
C1903 C1909 1.428 . S
H1904 C1900 0.930 . S
H1905 C1902 0.929 . S
S1906 N1907 1.613 . S
S1906 N1908 1.610 . S
N1907 S1906 1.613 . S
N1907 C1910 1.350 . S
N1908 S1906 1.610 . S
N1908 C1909 1.351 . S
C1909 C1903 1.428 . S
C1909 N1908 1.351 . S
C1909 C1910 1.434 . S
C1910 C1901 1.429 . S
C1910 N1907 1.350 . S
C1910 C1909 1.434 . S
C1911 C1912 1.369 . S
C1911 C1913 1.419 . S
C1911 H1915 0.930 . S
C1912 C1911 1.369 . S
C1912 C1921 1.429 . S
C1913 C1911 1.419 . S
C1913 C1914 1.363 . S
C1913 H1916 0.929 . S
C1914 C1913 1.363 . S
C1914 C1920 1.428 . S
H1915 C1911 0.930 . S
H1916 C1913 0.929 . S
S1917 N1918 1.613 . S
S1917 N1919 1.610 . S
N1918 S1917 1.613 . S
N1918 C1921 1.350 . S
N1919 S1917 1.610 . S
N1919 C1920 1.351 . S
C1920 C1914 1.428 . S
C1920 N1919 1.351 . S
C1920 C1921 1.434 . S
C1921 C1912 1.429 . S
C1921 N1918 1.350 . S
C1921 C1920 1.434 . S
C1922 C1923 1.383 . S
C1922 C1924 1.408 1_655 S
C1922 H1926 0.927 1_655 S
C1923 C1922 1.383 . S
C1923 C1932 1.429 . S
C1924 C1922 1.408 1_455 S
C1924 C1925 1.363 . S
C1924 H1927 0.929 . S
C1925 C1924 1.363 . S
C1925 C1931 1.428 1_455 S
H1926 C1922 0.927 1_455 S
H1927 C1924 0.929 . S
S1928 N1929 1.613 . S
S1928 N1930 1.610 . S
N1929 S1928 1.613 . S
N1929 C1932 1.350 . S
N1930 S1928 1.610 . S
N1930 C1931 1.351 . S
C1931 C1925 1.428 1_655 S
C1931 N1930 1.351 . S
C1931 C1932 1.434 . S
C1932 C1923 1.429 . S
C1932 N1929 1.350 . S
C1932 C1931 1.434 . S
C1933 C1934 1.369 . S
C1933 C1935 1.419 . S
C1933 H1937 0.930 . S
C1934 C1933 1.369 . S
C1934 C1943 1.429 . S
C1935 C1933 1.419 . S
C1935 C1936 1.363 . S
C1935 H1938 0.929 . S
C1936 C1935 1.363 . S
C1936 C1942 1.428 . S
H1937 C1933 0.930 . S
H1938 C1935 0.929 . S
S1939 N1940 1.613 . S
S1939 N1941 1.610 . S
N1940 S1939 1.613 . S
N1940 C1943 1.350 . S
N1941 S1939 1.610 . S
N1941 C1942 1.351 . S
C1942 C1936 1.428 . S
C1942 N1941 1.351 . S
C1942 C1943 1.434 . S
C1943 C1934 1.429 . S
C1943 N1940 1.350 . S
C1943 C1942 1.434 . S
C1944 C1945 1.369 . S
C1944 C1946 1.419 . S
C1944 H1948 0.930 . S
C1945 C1944 1.369 . S
C1945 C1954 1.429 . S
C1946 C1944 1.419 . S
C1946 C1947 1.363 . S
C1946 H1949 0.929 . S
C1947 C1946 1.363 . S
C1947 C1953 1.428 . S
H1948 C1944 0.930 . S
H1949 C1946 0.929 . S
S1950 N1951 1.613 . S
S1950 N1952 1.610 . S
N1951 S1950 1.613 . S
N1951 C1954 1.350 . S
N1952 S1950 1.610 . S
N1952 C1953 1.351 . S
C1953 C1947 1.428 . S
C1953 N1952 1.351 . S
C1953 C1954 1.434 . S
C1954 C1945 1.429 . S
C1954 N1951 1.350 . S
C1954 C1953 1.434 . S
C1955 C1956 1.369 . S
C1955 C1957 1.419 1_565 S
C1955 H1959 0.930 . S
C1956 C1955 1.369 . S
C1956 C1965 1.429 . S
C1957 C1955 1.419 1_545 S
C1957 C1958 1.363 1_545 S
C1957 H1960 0.929 . S
C1958 C1957 1.363 1_565 S
C1958 C1964 1.428 . S
H1959 C1955 0.930 . S
H1960 C1957 0.929 . S
S1961 N1962 1.613 . S
S1961 N1963 1.610 . S
N1962 S1961 1.613 . S
N1962 C1965 1.350 . S
N1963 S1961 1.610 . S
N1963 C1964 1.351 . S
C1964 C1958 1.428 . S
C1964 N1963 1.351 . S
C1964 C1965 1.434 . S
C1965 C1956 1.429 . S
C1965 N1962 1.350 . S
C1965 C1964 1.434 . S
C1966 C1967 1.369 . S
C1966 C1968 1.419 . S
C1966 H1970 0.930 . S
C1967 C1966 1.369 . S
C1967 C1976 1.429 . S
C1968 C1966 1.419 . S
C1968 C1969 1.363 . S
C1968 H1971 0.929 . S
C1969 C1968 1.363 . S
C1969 C1975 1.428 . S
H1970 C1966 0.930 . S
H1971 C1968 0.929 . S
S1972 N1973 1.613 . S
S1972 N1974 1.610 . S
N1973 S1972 1.613 . S
N1973 C1976 1.350 . S
N1974 S1972 1.610 . S
N1974 C1975 1.351 . S
C1975 C1969 1.428 . S
C1975 N1974 1.351 . S
C1975 C1976 1.434 . S
C1976 C1967 1.429 . S
C1976 N1973 1.350 . S
C1976 C1975 1.434 . S
C1977 C1978 1.369 . S
C1977 C1979 1.419 . S
C1977 H1981 0.930 . S
C1978 C1977 1.369 . S
C1978 C1987 1.429 . S
C1979 C1977 1.419 . S
C1979 C1980 1.363 . S
C1979 H1982 0.929 . S
C1980 C1979 1.363 . S
C1980 C1986 1.428 . S
H1981 C1977 0.930 . S
H1982 C1979 0.929 . S
S1983 N1984 1.613 . S
S1983 N1985 1.610 . S
N1984 S1983 1.613 . S
N1984 C1987 1.350 . S
N1985 S1983 1.610 . S
N1985 C1986 1.351 . S
C1986 C1980 1.428 . S
C1986 N1985 1.351 . S
C1986 C1987 1.434 . S
C1987 C1978 1.429 . S
C1987 N1984 1.350 . S
C1987 C1986 1.434 . S
C1988 C1989 1.369 . S
C1988 C1990 1.419 . S
C1988 H1992 0.930 . S
C1989 C1988 1.369 . S
C1989 C1998 1.429 . S
C1990 C1988 1.419 . S
C1990 C1991 1.363 . S
C1990 H1993 0.929 . S
C1991 C1990 1.363 . S
C1991 C1997 1.428 . S
H1992 C1988 0.930 . S
H1993 C1990 0.929 . S
S1994 N1995 1.613 . S
S1994 N1996 1.610 . S
N1995 S1994 1.613 . S
N1995 C1998 1.350 . S
N1996 S1994 1.610 . S
N1996 C1997 1.351 . S
C1997 C1991 1.428 . S
C1997 N1996 1.351 . S
C1997 C1998 1.434 . S
C1998 C1989 1.429 . S
C1998 N1995 1.350 . S
C1998 C1997 1.434 . S
C1999 C2000 1.369 . S
C1999 C2001 1.419 . S
C1999 H2003 0.930 . S
C2000 C1999 1.369 . S
C2000 C2009 1.429 . S
C2001 C1999 1.419 . S
C2001 C2002 1.363 . S
C2001 H2004 0.929 . S
C2002 C2001 1.363 . S
C2002 C2008 1.428 1_554 S
H2003 C1999 0.930 . S
H2004 C2001 0.929 . S
S2005 N2006 1.613 . S
S2005 N2007 1.610 . S
N2006 S2005 1.613 . S
N2006 C2009 1.350 1_556 S
N2007 S2005 1.610 . S
N2007 C2008 1.351 . S
C2008 C2002 1.428 1_556 S
C2008 N2007 1.351 . S
C2008 C2009 1.434 1_556 S
C2009 C2000 1.429 . S
C2009 N2006 1.350 1_554 S
C2009 C2008 1.434 1_554 S
C2010 C2011 1.369 . S
C2010 C2012 1.419 . S
C2010 H2014 0.930 . S
C2011 C2010 1.369 . S
C2011 C2020 1.429 . S
C2012 C2010 1.419 . S
C2012 C2013 1.363 . S
C2012 H2015 0.929 . S
C2013 C2012 1.363 . S
C2013 C2019 1.428 . S
H2014 C2010 0.930 . S
H2015 C2012 0.929 . S
S2016 N2017 1.613 . S
S2016 N2018 1.610 . S
N2017 S2016 1.613 . S
N2017 C2020 1.350 . S
N2018 S2016 1.610 . S
N2018 C2019 1.351 . S
C2019 C2013 1.428 . S
C2019 N2018 1.351 . S
C2019 C2020 1.434 . S
C2020 C2011 1.429 . S
C2020 N2017 1.350 . S
C2020 C2019 1.434 . S
C2021 C2022 1.369 . S
C2021 C2023 1.419 . S
C2021 H2025 0.930 . S
C2022 C2021 1.369 . S
C2022 C2031 1.429 . S
C2023 C2021 1.419 . S
C2023 C2024 1.363 . S
C2023 H2026 0.929 . S
C2024 C2023 1.363 . S
C2024 C2030 1.428 . S
H2025 C2021 0.930 . S
H2026 C2023 0.929 . S
S2027 N2028 1.613 . S
S2027 N2029 1.610 . S
N2028 S2027 1.613 . S
N2028 C2031 1.350 . S
N2029 S2027 1.610 . S
N2029 C2030 1.351 . S
C2030 C2024 1.428 . S
C2030 N2029 1.351 . S
C2030 C2031 1.434 . S
C2031 C2022 1.429 . S
C2031 N2028 1.350 . S
C2031 C2030 1.434 . S
C977 C109 2.330 1_455 S
C979 C367 2.319 . S
C988 C65 1.943 . S
C990 C378 1.975 . S
C999 C75 1.848 . S
C1001 C447 1.794 . S
C1012 C460 1.196 . S
C1010 C84 1.222 . S
C1021 C25 2.523 . S
C1023 C516 2.501 1_565 S
C1034 C567 2.259 . S
C1032 C28 2.274 . S
C1045 C596 2.390 . S
C1043 C47 2.393 . S
C1054 C9 2.618 . S
C1056 C647 2.547 . S
C1067 C338 1.647 . S
C1065 C233 1.617 . S
C1076 C249 1.172 . S
C1078 C380 1.093 . S
C1089 C418 1.108 . S
C1087 C275 1.125 . S
C1100 C487 1.825 . S
C1098 C173 1.809 . S
C1109 C224 0.792 . S
C1111 C521 0.803 1_655 S
C1122 C538 1.548 . S
C1120 C243 1.532 . S
C1133 C601 0.525 . S
C1131 C266 0.522 . S
C1144 C618 2.094 . S
C1142 C179 2.135 . S
C1155 C340 2.076 . S
C1153 C163 2.221 1_554 S
C1164 C289 1.695 . S
C1166 C679 1.630 . S
C1177 C700 1.832 . S
C1175 C333 1.928 . S
C1188 C759 0.625 . S
C1186 C308 0.585 . S
C1197 C123 1.372 . S
C1199 C620 1.358 . S
C1208 C126 1.522 . S
C1210 C420 1.497 . S
C1219 C327 1.177 . S
C1221 C778 1.281 . S
C1232 C847 1.096 . S
C1230 C299 1.139 . S
C1243 C356 2.332 . S
C1241 C67 2.354 . S
C1254 C839 2.000 . S
C1252 C98 1.901 . S
C1263 C89 1.863 . S
C1265 C436 1.815 . S
C1274 C79 1.270 . S
C1276 C801 1.229 . S
C1287 C527 2.537 . S
C1285 C11 2.556 . S
C1296 C51 2.325 . S
C1298 C716 2.275 . S
C1309 C607 2.442 1_556 S
C1307 C33 2.439 . S
C1320 C876 2.534 . S
C1318 C14 2.612 1_655 S
C1331 C359 1.604 . S
C1329 C140 1.575 . S
C1342 C841 1.105 . S
C1340 C319 1.179 . S
C1351 C112 1.130 . S
C1353 C439 1.128 . S
C1362 C285 1.835 . S
C1364 C796 1.855 . S
C1373 C149 0.808 . S
C1375 C500 0.802 . S
C1386 C719 1.567 . S
C1384 C313 1.543 . S
C1395 C121 0.576 . S
C1397 C580 0.579 . S
C1406 C291 2.180 . S
C1408 C879 2.128 . S
C1417 C182 2.234 . S
C1419 C361 2.037 . S
C1428 C168 1.654 . S
C1430 C658 1.632 . S
C1439 C263 1.947 . S
C1441 C561 1.810 . S
C1450 C247 0.616 . S
C1452 C738 0.649 . S
C1463 C881 1.337 . S
C1461 C277 1.389 1_565 S
C1472 C219 1.574 . S
C1474 C441 1.497 . S
C1485 C479 1.318 . S
C1483 C257 1.210 . S
C1496 C396 1.083 . S
C1494 C201 1.115 . S
C1505 C81 2.333 . S
C1507 C927 2.320 . S
C1518 C818 1.974 . S
C1516 C93 1.940 . S
C1527 C103 1.848 . S
C1529 C967 1.790 . S
C1538 C56 1.213 . S
C1540 C780 1.203 . S
C1549 C53 2.523 . S
C1551 C676 2.501 . S
C1562 C727 2.261 . S
C1560 C0 2.276 . S
C1573 C756 2.391 . S
C1571 C19 2.393 . S
C1584 C887 2.547 . S
C1582 C37 2.620 . S
C1595 C898 1.641 . S
C1593 C261 1.625 . S
C1604 C193 1.172 . S
C1606 C820 1.095 . S
C1617 C938 1.111 . S
C1615 C205 1.125 . S
C1628 C807 1.826 . S
C1626 C215 1.808 . S
C1639 C681 0.791 . S
C1637 C252 0.804 . S
C1648 C187 1.532 . S
C1650 C698 1.548 . S
C1661 C761 0.531 . S
C1659 C196 0.518 . S
C1670 C221 2.135 . S
C1672 C858 2.091 . S
C1683 C900 2.074 . S
C1681 C317 2.223 . S
C1692 C135 1.697 . S
C1694 C519 1.627 . S
C1705 C540 1.843 . S
C1703 C151 1.920 . S
C1716 C599 0.619 . S
C1714 C154 0.588 . S
C1727 C860 1.355 . S
C1725 C305 1.374 . S
C1736 C280 1.523 . S
C1738 C940 1.498 . S
C1749 C458 1.283 . S
C1747 C145 1.168 . S
C1760 C407 1.093 . S
C1758 C117 1.140 . S
C1769 C95 2.354 . S
C1771 C916 2.332 . S
C1782 C399 1.999 . S
C1780 C70 1.893 . S
C1791 C61 1.862 . S
C1793 C956 1.810 . S
C1802 C107 1.271 . S
C1804 C481 1.218 . S
C1813 C39 2.553 . S
C1815 C687 2.536 1_556 S
C1826 C556 2.275 . S
C1824 C23 2.326 . S
C1835 C5 2.441 . S
C1837 C767 2.437 . S
C1846 C42 2.614 . S
C1848 C636 2.531 . S
C1859 C919 1.598 . S
C1857 C322 1.580 . S
C1868 C165 1.178 . S
C1870 C401 1.105 . S
C1881 C959 1.132 . S
C1879 C294 1.132 . S
C1890 C131 1.831 . S
C1892 C476 1.856 . S
C1901 C331 0.809 . S
C1903 C660 0.801 . S
C1914 C559 1.568 . S
C1912 C159 1.542 . S
C1923 C303 0.584 . S
C1925 C740 0.577 . S
C1936 C639 2.128 . S
C1934 C137 2.181 . S
C1947 C921 2.028 . S
C1945 C238 2.241 . S
C1958 C498 1.638 1_565 S
C1956 C210 1.655 . S
C1967 C235 1.940 . S
C1969 C721 1.816 . S
C1980 C578 0.646 . S
C1978 C191 0.617 . S
C1989 C207 1.385 . S
C1991 C641 1.340 . S
C2000 C177 1.570 . S
C2002 C961 1.503 . S
C2013 C799 1.317 . S
C2011 C229 1.217 . S
C2024 C836 1.089 . S
C2022 C271 1.111 . S
