# Generated by pormake.
# Topology ssb, (4,4)-cn, num edge types: 1
# Building blocks:
#     Node 0, Type 0, BuildingBlock: NAWXER_clean_sbu_0, # of connection points: 4
#     Node 1, Type 0, BuildingBlock: NAWXER_clean_sbu_0, # of connection points: 4
#     Node 2, Type 0, BuildingBlock: NAWXER_clean_sbu_0, # of connection points: 4
#     Node 3, Type 0, BuildingBlock: NAWXER_clean_sbu_0, # of connection points: 4
#     Node 4, Type 0, BuildingBlock: NAWXER_clean_sbu_0, # of connection points: 4
#     Node 5, Type 0, BuildingBlock: NAWXER_clean_sbu_0, # of connection points: 4
#     Node 6, Type 0, BuildingBlock: NAWXER_clean_sbu_0, # of connection points: 4
#     Node 7, Type 0, BuildingBlock: NAWXER_clean_sbu_0, # of connection points: 4
#     Node 8, Type 1, BuildingBlock: KOZSID_clean_sbu_0, # of connection points: 4
#     Node 9, Type 1, BuildingBlock: KOZSID_clean_sbu_0, # of connection points: 4
#     Node 10, Type 1, BuildingBlock: KOZSID_clean_sbu_0, # of connection points: 4
#     Node 11, Type 1, BuildingBlock: KOZSID_clean_sbu_0, # of connection points: 4
#     Node 12, Type 1, BuildingBlock: KOZSID_clean_sbu_0, # of connection points: 4
#     Node 13, Type 1, BuildingBlock: KOZSID_clean_sbu_0, # of connection points: 4
#     Node 14, Type 1, BuildingBlock: KOZSID_clean_sbu_0, # of connection points: 4
#     Node 15, Type 1, BuildingBlock: KOZSID_clean_sbu_0, # of connection points: 4
#     Edge 16, Type (0, 1), BuildingBlock: XIVTED_clean_linker_0, # of connection points: 2
#     Edge 17, Type (0, 1), BuildingBlock: XIVTED_clean_linker_0, # of connection points: 2
#     Edge 18, Type (0, 1), BuildingBlock: XIVTED_clean_linker_0, # of connection points: 2
#     Edge 19, Type (0, 1), BuildingBlock: XIVTED_clean_linker_0, # of connection points: 2
#     Edge 20, Type (0, 1), BuildingBlock: XIVTED_clean_linker_0, # of connection points: 2
#     Edge 21, Type (0, 1), BuildingBlock: XIVTED_clean_linker_0, # of connection points: 2
#     Edge 22, Type (0, 1), BuildingBlock: XIVTED_clean_linker_0, # of connection points: 2
#     Edge 23, Type (0, 1), BuildingBlock: XIVTED_clean_linker_0, # of connection points: 2
#     Edge 24, Type (0, 1), BuildingBlock: XIVTED_clean_linker_0, # of connection points: 2
#     Edge 25, Type (0, 1), BuildingBlock: XIVTED_clean_linker_0, # of connection points: 2
#     Edge 26, Type (0, 1), BuildingBlock: XIVTED_clean_linker_0, # of connection points: 2
#     Edge 27, Type (0, 1), BuildingBlock: XIVTED_clean_linker_0, # of connection points: 2
#     Edge 28, Type (0, 1), BuildingBlock: XIVTED_clean_linker_0, # of connection points: 2
#     Edge 29, Type (0, 1), BuildingBlock: XIVTED_clean_linker_0, # of connection points: 2
#     Edge 30, Type (0, 1), BuildingBlock: XIVTED_clean_linker_0, # of connection points: 2
#     Edge 31, Type (0, 1), BuildingBlock: XIVTED_clean_linker_0, # of connection points: 2
#     Edge 32, Type (0, 1), BuildingBlock: XIVTED_clean_linker_0, # of connection points: 2
#     Edge 33, Type (0, 1), BuildingBlock: XIVTED_clean_linker_0, # of connection points: 2
#     Edge 34, Type (0, 1), BuildingBlock: XIVTED_clean_linker_0, # of connection points: 2
#     Edge 35, Type (0, 1), BuildingBlock: XIVTED_clean_linker_0, # of connection points: 2
#     Edge 36, Type (0, 1), BuildingBlock: XIVTED_clean_linker_0, # of connection points: 2
#     Edge 37, Type (0, 1), BuildingBlock: XIVTED_clean_linker_0, # of connection points: 2
#     Edge 38, Type (0, 1), BuildingBlock: XIVTED_clean_linker_0, # of connection points: 2
#     Edge 39, Type (0, 1), BuildingBlock: XIVTED_clean_linker_0, # of connection points: 2
#     Edge 40, Type (0, 1), BuildingBlock: XIVTED_clean_linker_0, # of connection points: 2
#     Edge 41, Type (0, 1), BuildingBlock: XIVTED_clean_linker_0, # of connection points: 2
#     Edge 42, Type (0, 1), BuildingBlock: XIVTED_clean_linker_0, # of connection points: 2
#     Edge 43, Type (0, 1), BuildingBlock: XIVTED_clean_linker_0, # of connection points: 2
#     Edge 44, Type (0, 1), BuildingBlock: XIVTED_clean_linker_0, # of connection points: 2
#     Edge 45, Type (0, 1), BuildingBlock: XIVTED_clean_linker_0, # of connection points: 2
#     Edge 46, Type (0, 1), BuildingBlock: XIVTED_clean_linker_0, # of connection points: 2
#     Edge 47, Type (0, 1), BuildingBlock: XIVTED_clean_linker_0, # of connection points: 2
# Relax obj value: 0.005
# Max RMSD: 0.029
# Mean RMSD: 0.017
data_MOF--net-ssb--node1-NAWXER_clean_sbu_0--node2-KOZSID_clean_sbu_0--edge1-XIVTED_clean_linker_0
_symmetry_space_group_name_H-M    P1
_symmetry_Int_Tables_number       1
_symmetry_cell_setting            triclinic
loop_
_symmetry_equiv_pos_as_xyz
'x, y, z'
_cell_length_a     53.364849
_cell_length_b     53.114158
_cell_length_c     38.95596
_cell_angle_alpha  92.495386
_cell_angle_beta   95.007692
_cell_angle_gamma 90.076047
loop_
_atom_site_label
_atom_site_type_symbol
_atom_site_fract_x
_atom_site_fract_y
_atom_site_fract_z
_atom_type_partial_charge
C0 C 0.23038 0.26801 0.34715 0.0
C1 C 0.30738 0.24836 0.28976 0.0
O2 O 0.22717 0.25365 0.31982 0.0
Zn3 Zn 0.248 0.23595 0.28139 0.0
O4 O 0.25245 0.27583 0.35753 0.0
Zn5 Zn 0.26999 0.25855 0.32097 0.0
O6 O 0.25629 0.27834 0.27669 0.0
O7 O 0.23421 0.25301 0.23928 0.0
O8 O 0.30637 0.26183 0.31748 0.0
O9 O 0.28724 0.23795 0.27535 0.0
O10 O 0.24285 0.19984 0.29038 0.0
O11 O 0.26527 0.21997 0.33315 0.0
C12 C 0.2434 0.27486 0.24756 0.0
C13 C 0.25463 0.19961 0.3203 0.0
C14 C 0.73024 0.26292 0.25085 0.0
C15 C 0.81206 0.27615 0.31696 0.0
O16 O 0.73405 0.2743 0.28032 0.0
Zn17 Zn 0.77045 0.27031 0.28463 0.0
O18 O 0.74896 0.25406 0.23577 0.0
Zn19 Zn 0.78914 0.25168 0.24422 0.0
O20 O 0.79436 0.21545 0.2443 0.0
O21 O 0.77308 0.23028 0.287 0.0
O22 O 0.81368 0.26491 0.28746 0.0
O23 O 0.79057 0.28263 0.32594 0.0
O24 O 0.78098 0.29413 0.24542 0.0
O25 O 0.7991 0.27081 0.20635 0.0
C26 C 0.78244 0.21169 0.2705 0.0
C27 C 0.79131 0.29215 0.21694 0.0
C28 C 0.74764 0.71675 0.21515 0.0
C29 C 0.74007 0.79489 0.28951 0.0
O30 O 0.73714 0.71821 0.24334 0.0
Zn31 Zn 0.74303 0.75471 0.25459 0.0
O32 O 0.75769 0.73661 0.20466 0.0
Zn33 Zn 0.76324 0.77557 0.21903 0.0
O34 O 0.79991 0.77843 0.22721 0.0
O35 O 0.78271 0.75674 0.26617 0.0
O36 O 0.75163 0.79736 0.26235 0.0
O37 O 0.73154 0.77323 0.29561 0.0
O38 O 0.72028 0.77144 0.21417 0.0
O39 O 0.74422 0.79124 0.18041 0.0
C40 C 0.80228 0.76614 0.25466 0.0
C41 C 0.72244 0.7846 0.18778 0.0
C42 C 0.26837 0.71071 0.22108 0.0
C43 C 0.28257 0.79159 0.28426 0.0
O44 O 0.25794 0.7294 0.20581 0.0
Zn45 Zn 0.25455 0.76934 0.21314 0.0
O46 O 0.28148 0.71445 0.24975 0.0
Zn47 Zn 0.2769 0.75064 0.25318 0.0
O48 O 0.2377 0.7529 0.25936 0.0
O49 O 0.21828 0.77322 0.21657 0.0
O50 O 0.29125 0.77035 0.29328 0.0
O51 O 0.26925 0.79312 0.25545 0.0
O52 O 0.27121 0.78174 0.17438 0.0
O53 O 0.29722 0.76303 0.21225 0.0
C54 C 0.21743 0.76169 0.24446 0.0
C55 C 0.29333 0.77437 0.18392 0.0
C56 C 0.29968 0.749 0.76826 0.0
C57 C 0.21837 0.73301 0.70121 0.0
O58 O 0.28075 0.75896 0.78168 0.0
Zn59 Zn 0.2408 0.76158 0.77182 0.0
O60 O 0.29622 0.73615 0.73986 0.0
Zn61 Zn 0.25968 0.73976 0.7339 0.0
O62 O 0.25608 0.77902 0.72428 0.0
O63 O 0.23632 0.79822 0.76518 0.0
O64 O 0.23972 0.72489 0.69359 0.0
O65 O 0.21686 0.7462 0.72929 0.0
O66 O 0.22936 0.7438 0.81141 0.0
O67 O 0.24842 0.71859 0.77576 0.0
C68 C 0.24699 0.79926 0.73722 0.0
C69 C 0.23739 0.72188 0.80356 0.0
C70 C 0.24224 0.19343 0.81053 0.0
C71 C 0.2374 0.27928 0.85864 0.0
O72 O 0.23061 0.20061 0.8363 0.0
Zn73 Zn 0.24035 0.23582 0.83655 0.0
O74 O 0.25462 0.20934 0.7948 0.0
Zn75 Zn 0.26242 0.24879 0.79716 0.0
O76 O 0.29883 0.25021 0.80597 0.0
O77 O 0.28015 0.23586 0.84958 0.0
O78 O 0.25012 0.27738 0.8322 0.0
O79 O 0.22857 0.25954 0.87062 0.0
O80 O 0.21962 0.24742 0.79073 0.0
O81 O 0.24567 0.25898 0.75324 0.0
C82 C 0.30034 0.24177 0.83615 0.0
C83 C 0.22329 0.25569 0.76117 0.0
C84 C 0.73201 0.21538 0.71787 0.0
C85 C 0.7426 0.29646 0.7869 0.0
O86 O 0.72281 0.23664 0.7097 0.0
Zn87 Zn 0.73581 0.25684 0.75129 0.0
O88 O 0.74488 0.21376 0.74706 0.0
Zn89 Zn 0.75811 0.23758 0.79072 0.0
O90 O 0.74124 0.22414 0.8288 0.0
O91 O 0.71525 0.24351 0.79166 0.0
O92 O 0.75336 0.27736 0.80077 0.0
O93 O 0.73023 0.29343 0.75746 0.0
O94 O 0.77531 0.25648 0.74653 0.0
O95 O 0.79474 0.23552 0.78862 0.0
C96 C 0.71915 0.23184 0.81974 0.0
C97 C 0.79571 0.2481 0.76165 0.0
C98 C 0.80689 0.74176 0.70803 0.0
C99 C 0.73788 0.76151 0.77996 0.0
O100 O 0.78517 0.73545 0.69342 0.0
Zn101 Zn 0.7466 0.73677 0.70505 0.0
O102 O 0.80861 0.75132 0.73865 0.0
Zn103 Zn 0.77304 0.75094 0.74586 0.0
O104 O 0.76399 0.7119 0.74768 0.0
O105 O 0.73559 0.70192 0.70451 0.0
O106 O 0.76124 0.76397 0.78933 0.0
O107 O 0.73075 0.75193 0.74997 0.0
O108 O 0.73175 0.75893 0.67083 0.0
O109 O 0.75787 0.7782 0.71069 0.0
C110 C 0.74926 0.69565 0.7311 0.0
C111 C 0.7424 0.77907 0.68366 0.0
C112 C 0.05228 0.30071 0.60421 0.0
C113 C 0.05993 0.32254 0.62316 0.0
C114 C 0.04178 0.34026 0.61586 0.0
C115 C 0.02417 0.32832 0.59292 0.0
N116 N 0.03014 0.30422 0.58543 0.0
Co117 Co 0.01062 0.28032 0.5529 0.0
N118 N 0.99203 0.30819 0.52984 0.0
C119 C 0.9907 0.33213 0.54249 0.0
C120 C 0.97633 0.3473 0.52108 0.0
C121 C 0.9677 0.33187 0.4935 0.0
C122 C 0.97716 0.30798 0.49979 0.0
N123 N 0.99095 0.25618 0.52069 0.0
C124 C 0.97594 0.26028 0.49158 0.0
C125 C 0.96478 0.23792 0.47799 0.0
C126 C 0.97276 0.21939 0.49967 0.0
C127 C 0.98829 0.23132 0.52523 0.0
N128 N 0.02933 0.25268 0.57599 0.0
C129 C 0.02241 0.22829 0.57505 0.0
C130 C 0.03955 0.21358 0.59326 0.0
C131 C 0.05838 0.22979 0.60642 0.0
C132 C 0.05162 0.25354 0.5954 0.0
N133 N 0.98466 0.27828 0.58544 0.0
C134 C 0.94721 0.27379 0.63123 0.0
C135 C 0.97276 0.27274 0.64302 0.0
C136 C 0.99116 0.27517 0.61978 0.0
C137 C 0.94092 0.27717 0.59606 0.0
C138 C 0.95979 0.27934 0.57375 0.0
N139 N 0.0367 0.28217 0.52067 0.0
C140 C 0.06536 0.26087 0.48497 0.0
C141 C 0.07748 0.28367 0.47995 0.0
C142 C 0.06834 0.30583 0.49515 0.0
C143 C 0.04778 0.3047 0.51509 0.0
C144 C 0.04516 0.26052 0.50542 0.0
H145 H 0.0412 0.32201 0.52656 0.0
H146 H 0.03679 0.24256 0.50959 0.0
H147 H 0.01067 0.27443 0.62959 0.0
H148 H 0.95411 0.28166 0.54692 0.0
C149 C 0.00528 0.34025 0.57256 0.0
C150 C 0.06582 0.27673 0.60543 0.0
C151 C 0.96893 0.28523 0.47899 0.0
C152 C 0.0027 0.21946 0.55158 0.0
H153 H 0.07695 0.32547 0.64009 0.0
H154 H 0.04216 0.35988 0.62467 0.0
H155 H 0.97281 0.36725 0.52481 0.0
H156 H 0.95524 0.3374 0.47172 0.0
H157 H 0.95158 0.23535 0.4554 0.0
H158 H 0.96796 0.19955 0.49693 0.0
H159 H 0.03906 0.19333 0.59532 0.0
H160 H 0.07517 0.22473 0.6222 0.0
H161 H 0.97851 0.27038 0.67003 0.0
H162 H 0.92145 0.27773 0.58559 0.0
H163 H 0.07189 0.24326 0.47394 0.0
H164 H 0.07693 0.3239 0.49155 0.0
C165 C 0.70561 0.05184 0.53489 0.0
C166 C 0.68198 0.06182 0.5391 0.0
C167 C 0.66523 0.04817 0.51724 0.0
C168 C 0.67943 0.03049 0.50125 0.0
N169 N 0.70426 0.03199 0.5115 0.0
Co170 Co 0.73108 0.00867 0.49588 0.0
N171 N 0.70645 0.9892 0.46292 0.0
C172 C 0.68202 0.99501 0.4552 0.0
C173 C 0.66974 0.97864 0.43123 0.0
C174 C 0.68734 0.96124 0.42321 0.0
C175 C 0.70942 0.9679 0.44304 0.0
N176 N 0.75758 0.98427 0.48208 0.0
C177 C 0.75559 0.96272 0.46184 0.0
C178 C 0.77849 0.95034 0.46168 0.0
C179 C 0.79551 0.96453 0.48239 0.0
C180 C 0.78209 0.98457 0.49428 0.0
N181 N 0.75597 0.02903 0.5274 0.0
C182 C 0.78116 0.02567 0.53081 0.0
C183 C 0.79384 0.04341 0.55229 0.0
C184 C 0.77571 0.05923 0.56309 0.0
C185 C 0.75283 0.05007 0.5478 0.0
N186 N 0.72456 0.98606 0.53317 0.0
C187 C 0.71875 0.94569 0.57605 0.0
C188 C 0.74135 0.95918 0.57784 0.0
C189 C 0.74379 0.97925 0.55648 0.0
C190 C 0.69842 0.95419 0.55466 0.0
C191 C 0.70162 0.97456 0.5339 0.0
N192 N 0.73784 0.03108 0.45805 0.0
C193 C 0.76651 0.04776 0.41974 0.0
C194 C 0.74806 0.06388 0.40567 0.0
C195 C 0.72421 0.06288 0.41794 0.0
C196 C 0.71947 0.04633 0.44356 0.0
C197 C 0.76114 0.0319 0.4458 0.0
H198 H 0.70083 0.04645 0.45136 0.0
H199 H 0.77634 0.02059 0.45557 0.0
H200 H 0.76178 0.98819 0.55813 0.0
H201 H 0.68557 0.98005 0.51766 0.0
C202 C 0.67043 0.01375 0.47434 0.0
C203 C 0.72874 0.0622 0.55324 0.0
C204 C 0.73252 0.95313 0.44253 0.0
C205 C 0.79207 0.00455 0.51569 0.0
H206 H 0.67732 0.07756 0.5559 0.0
H207 H 0.64515 0.05112 0.51298 0.0
H208 H 0.65007 0.97878 0.42171 0.0
H209 H 0.68414 0.94516 0.40532 0.0
H210 H 0.78248 0.93279 0.4481 0.0
H211 H 0.81531 0.96068 0.48814 0.0
H212 H 0.81387 0.04455 0.55954 0.0
H213 H 0.77902 0.07568 0.58027 0.0
H214 H 0.75763 0.95345 0.59417 0.0
H215 H 0.68031 0.94477 0.55325 0.0
H216 H 0.78515 0.04725 0.4108 0.0
H217 H 0.70922 0.07515 0.40845 0.0
C218 C 0.05458 0.76244 0.52774 0.0
C219 C 0.06554 0.78424 0.54341 0.0
C220 C 0.05183 0.80396 0.53077 0.0
C221 C 0.03345 0.79319 0.50804 0.0
N222 N 0.03442 0.76772 0.50553 0.0
Co223 Co 0.01202 0.74469 0.47406 0.0
N224 N 0.99261 0.77387 0.45426 0.0
C225 C 0.99604 0.79855 0.4636 0.0
C226 C 0.97955 0.81422 0.44614 0.0
C227 C 0.96461 0.79866 0.42433 0.0
C228 C 0.97298 0.77428 0.42963 0.0
N229 N 0.98996 0.72164 0.44218 0.0
C230 C 0.97099 0.727 0.41816 0.0
C231 C 0.96123 0.7053 0.40071 0.0
C232 C 0.97421 0.68553 0.41449 0.0
C233 C 0.99122 0.6962 0.43927 0.0
N234 N 0.03124 0.71548 0.4941 0.0
C235 C 0.02682 0.69071 0.48633 0.0
C236 C 0.04298 0.675 0.5043 0.0
C237 C 0.05882 0.69064 0.52468 0.0
C238 C 0.05145 0.7151 0.51779 0.0
N239 N 0.98782 0.74259 0.51011 0.0
C240 C 0.95158 0.74006 0.55876 0.0
C241 C 0.95849 0.71855 0.53994 0.0
C242 C 0.97651 0.7202 0.51612 0.0
C243 C 0.96361 0.76275 0.55335 0.0
C244 C 0.98146 0.76359 0.52915 0.0
N245 N 0.03604 0.74684 0.43806 0.0
C246 C 0.06161 0.72646 0.39681 0.0
C247 C 0.07117 0.74964 0.38815 0.0
C248 C 0.06241 0.77145 0.40445 0.0
C249 C 0.04501 0.76963 0.42911 0.0
C250 C 0.04426 0.7255 0.42158 0.0
H251 H 0.03931 0.78692 0.44085 0.0
H252 H 0.0379 0.70724 0.42712 0.0
H253 H 0.9808 0.7031 0.50272 0.0
H254 H 0.9896 0.78154 0.52604 0.0
C255 C 0.01527 0.80648 0.48832 0.0
C256 C 0.0644 0.73726 0.53424 0.0
C257 C 0.96133 0.75215 0.41114 0.0
C258 C 0.00834 0.68281 0.46055 0.0
H259 H 0.08194 0.78578 0.56179 0.0
H260 H 0.05508 0.82381 0.53705 0.0
H261 H 0.97854 0.83455 0.44892 0.0
H262 H 0.94923 0.80463 0.40663 0.0
H263 H 0.9462 0.70388 0.38017 0.0
H264 H 0.97153 0.66572 0.40735 0.0
H265 H 0.04347 0.65462 0.50235 0.0
H266 H 0.07422 0.6847 0.54238 0.0
H267 H 0.95007 0.7004 0.54358 0.0
H268 H 0.95882 0.78002 0.56704 0.0
H269 H 0.06746 0.70901 0.38455 0.0
H270 H 0.06941 0.78986 0.39896 0.0
C271 C 0.27568 0.96757 0.59101 0.0
C272 C 0.29805 0.96289 0.6106 0.0
C273 C 0.31564 0.97892 0.60023 0.0
C274 C 0.30308 0.9926 0.57519 0.0
N275 N 0.27851 0.98625 0.56881 0.0
Co276 Co 0.25327 1.00277 0.53575 0.0
N277 N 0.27958 0.02511 0.51863 0.0
C278 C 0.30456 0.02469 0.52825 0.0
C279 C 0.31833 0.04098 0.51099 0.0
C280 C 0.30119 0.05247 0.48886 0.0
C281 C 0.27774 0.04274 0.49417 0.0
N282 N 0.22783 0.02012 0.50385 0.0
C283 C 0.2305 0.03915 0.48207 0.0
C284 C 0.20741 0.04644 0.46647 0.0
C285 C 0.18965 0.03134 0.47828 0.0
C286 C 0.20273 0.01591 0.50065 0.0
N287 N 0.22715 0.97957 0.55149 0.0
C288 C 0.20254 0.97857 0.53981 0.0
C289 C 0.18926 0.9601 0.55384 0.0
C290 C 0.20641 0.94847 0.57576 0.0
C291 C 0.22925 0.96073 0.57412 0.0
N292 N 0.24702 0.02796 0.57322 0.0
C293 C 0.24069 0.05792 0.63333 0.0
C294 C 0.22036 0.04479 0.61585 0.0
C295 C 0.22388 0.03018 0.58587 0.0
C296 C 0.26371 0.05713 0.61882 0.0
C297 C 0.26642 0.04225 0.5891 0.0
N298 N 0.25971 0.97732 0.4989 0.0
C299 C 0.24468 0.94873 0.45157 0.0
C300 C 0.26869 0.93846 0.45016 0.0
C301 C 0.28821 0.94845 0.4728 0.0
C302 C 0.28339 0.9678 0.49657 0.0
C303 C 0.24061 0.96801 0.47603 0.0
H304 H 0.29913 0.97454 0.51303 0.0
H305 H 0.22184 0.97484 0.47632 0.0
H306 H 0.20772 0.02045 0.57385 0.0
H307 H 0.28461 0.04231 0.57997 0.0
C308 C 0.31421 0.00998 0.55519 0.0
C309 C 0.25234 0.9537 0.59451 0.0
C310 C 0.25434 0.05101 0.47544 0.0
C311 C 0.19223 0.9962 0.51718 0.0
H312 H 0.30136 0.9492 0.63025 0.0
H313 H 0.33535 0.98014 0.60943 0.0
H314 H 0.33843 0.04431 0.51434 0.0
H315 H 0.3055 0.06653 0.47095 0.0
H316 H 0.2037 0.06111 0.44833 0.0
H317 H 0.16959 0.03142 0.47111 0.0
H318 H 0.16941 0.95576 0.54894 0.0
H319 H 0.20247 0.93276 0.59126 0.0
H320 H 0.20201 0.04514 0.62572 0.0
H321 H 0.27978 0.06783 0.63047 0.0
H322 H 0.22895 0.94153 0.43448 0.0
H323 H 0.30723 0.94142 0.47215 0.0
C324 C 0.54613 0.81262 0.02744 0.0
C325 C 0.55198 0.83739 0.03788 0.0
C326 C 0.53706 0.8522 0.01693 0.0
C327 C 0.52302 0.83569 0.99502 0.0
N328 N 0.52765 0.81119 1.00123 0.0
Co329 Co 0.51302 0.78089 0.97401 0.0
N330 N 0.49413 0.80257 0.93975 0.0
C331 C 0.49418 0.82805 0.93975 0.0
C332 C 0.47884 0.8376 0.91343 0.0
C333 C 0.46796 0.81702 0.89592 0.0
C334 C 0.47727 0.79604 0.91275 0.0
N335 N 0.49855 0.75056 0.94662 0.0
C336 C 0.4812 0.74902 0.91897 0.0
C337 C 0.47549 0.72416 0.90873 0.0
C338 C 0.48951 0.70947 0.93087 0.0
C339 C 0.50288 0.72608 0.95335 0.0
N340 N 0.53192 0.75922 0.00831 0.0
C341 C 0.53144 0.73377 0.00885 0.0
C342 C 0.54746 0.72422 0.03444 0.0
C343 C 0.55932 0.74476 0.05077 0.0
C344 C 0.54977 0.76571 0.0341 0.0
N345 N 0.48345 0.7814 1.00198 0.0
C346 C 0.44116 0.78175 0.04092 0.0
C347 C 0.45409 0.75947 0.03428 0.0
C348 C 0.47489 0.7597 0.01487 0.0
C349 C 0.44964 0.80386 0.02749 0.0
C350 C 0.4707 0.80328 0.00842 0.0
N351 N 0.54262 0.78045 0.94639 0.0
C352 C 0.57851 0.75859 0.92578 0.0
C353 C 0.58781 0.7809 0.91395 0.0
C354 C 0.57371 0.80283 0.91765 0.0
C355 C 0.55138 0.80219 0.93385 0.0
C356 C 0.55594 0.75874 0.94147 0.0
H357 H 0.54179 0.81963 0.93649 0.0
H358 H 0.54984 0.74111 0.94983 0.0
H359 H 0.48362 0.74202 0.01056 0.0
H360 H 0.47629 0.8208 0.9992 0.0
C361 C 0.50762 0.84249 0.96606 0.0
C362 C 0.5596 0.79113 0.0418 0.0
C363 C 0.46836 0.77048 0.90329 0.0
C364 C 0.51799 0.71932 0.9826 0.0
H365 H 0.56617 0.844 0.0578 0.0
H366 H 0.53732 0.87257 0.0166 0.0
H367 H 0.47538 0.8572 0.90824 0.0
H368 H 0.4542 0.81738 0.87382 0.0
H369 H 0.46201 0.71728 0.8881 0.0
H370 H 0.48926 0.6891 0.93133 0.0
H371 H 0.55104 0.70462 0.0395 0.0
H372 H 0.57405 0.74428 0.07166 0.0
H373 H 0.44805 0.74176 0.0437 0.0
H374 H 0.44037 0.82165 0.0322 0.0
H375 H 0.58848 0.74099 0.92271 0.0
H376 H 0.58015 0.82058 0.90881 0.0
C377 C 0.21611 0.53252 0.08697 0.0
C378 C 0.19473 0.54058 0.10202 0.0
C379 C 0.17467 0.52986 0.08259 0.0
C380 C 0.18493 0.51583 0.05701 0.0
N381 N 0.21035 0.5167 0.05919 0.0
Co382 Co 0.23298 0.49931 0.02738 0.0
N383 N 0.20349 0.48502 0.99743 0.0
C384 C 0.17885 0.48961 1.00048 0.0
C385 C 0.16303 0.47599 0.97693 0.0
C386 C 0.17849 0.46147 0.95822 0.0
C387 C 0.20287 0.46709 0.97159 0.0
N388 N 0.25561 0.48139 0.99599 0.0
C389 C 0.24986 0.46379 0.97033 0.0
C390 C 0.27125 0.45458 0.95631 0.0
C391 C 0.29129 0.46644 0.97426 0.0
C392 C 0.28104 0.48205 0.99816 0.0
N393 N 0.26253 0.5139 0.05706 0.0
C394 C 0.28717 0.51078 0.05228 0.0
C395 C 0.30311 0.52398 0.07602 0.0
C396 C 0.28777 0.53667 0.09693 0.0
C397 C 0.26323 0.53034 0.08473 0.0
N398 N 0.23334 0.46884 0.05586 0.0
C399 C 0.23388 0.42472 0.09463 0.0
C400 C 0.25622 0.43593 0.08635 0.0
C401 C 0.25553 0.45764 0.06706 0.0
C402 C 0.21124 0.43606 0.08295 0.0
C403 C 0.2114 0.45795 0.064 0.0
N404 N 0.23253 0.52987 0.99866 0.0
C405 C 0.25407 0.55938 0.96518 0.0
C406 C 0.23206 0.57321 0.95797 0.0
C407 C 0.21033 0.56499 0.97193 0.0
C408 C 0.21095 0.54351 0.99184 0.0
C409 C 0.25392 0.53815 0.98541 0.0
H410 H 0.19366 0.53831 1.00136 0.0
H411 H 0.27144 0.52884 0.99003 0.0
H412 H 0.27323 0.46497 0.06132 0.0
H413 H 0.1935 0.46574 0.05616 0.0
C414 C 0.17121 0.50354 0.02895 0.0
C415 C 0.24124 0.54184 0.09856 0.0
C416 C 0.22474 0.45368 0.96076 0.0
C417 C 0.29475 0.49589 0.0247 0.0
H418 H 0.19378 0.5535 0.12414 0.0
H419 H 0.15493 0.53266 0.086 0.0
H420 H 0.14267 0.47555 0.97497 0.0
H421 H 0.17255 0.44755 0.938 0.0
H422 H 0.27236 0.44009 0.93612 0.0
H423 H 0.31103 0.4632 0.9713 0.0
H424 H 0.32345 0.52477 0.07745 0.0
H425 H 0.294 0.5496 0.11817 0.0
H426 H 0.27429 0.4278 0.09433 0.0
H427 H 0.1934 0.42838 0.08893 0.0
H428 H 0.27158 0.56505 0.95562 0.0
H429 H 0.19268 0.57479 0.96702 0.0
C430 C 0.4736 0.26283 0.99728 0.0
C431 C 0.4643 0.28529 0.9844 0.0
C432 C 0.47752 0.30425 1.00243 0.0
C433 C 0.49393 0.29241 0.02535 0.0
N434 N 0.49222 0.26697 0.02294 0.0
Co435 Co 0.51171 0.24257 0.0528 0.0
N436 N 0.53068 0.27067 0.07979 0.0
C437 C 0.52839 0.29564 0.07484 0.0
C438 C 0.54456 0.31037 0.09636 0.0
C439 C 0.55824 0.29385 0.11609 0.0
C440 C 0.54945 0.26987 0.10554 0.0
N441 N 0.53078 0.2182 0.08305 0.0
C442 C 0.54916 0.22242 0.10895 0.0
C443 C 0.55718 0.20017 0.12369 0.0
C444 C 0.5437 0.18114 0.10608 0.0
C445 C 0.52818 0.19282 0.08184 0.0
N446 N 0.49307 0.21447 0.02533 0.0
C447 C 0.49616 0.18944 0.02924 0.0
C448 C 0.48096 0.1747 0.00635 0.0
C449 C 0.4672 0.19127 0.98673 0.0
C450 C 0.47473 0.21527 0.99898 0.0
N451 N 0.53858 0.24071 0.02021 0.0
C452 C 0.57803 0.23804 0.97604 0.0
C453 C 0.56959 0.21655 0.99105 0.0
C454 C 0.54998 0.21826 0.01262 0.0
C455 C 0.56616 0.2609 0.98332 0.0
C456 C 0.54674 0.26183 0.00536 0.0
N457 N 0.48503 0.24431 0.08565 0.0
C458 C 0.45677 0.22318 0.12054 0.0
C459 C 0.44818 0.24614 0.13387 0.0
C460 C 0.4584 0.26824 0.12246 0.0
C461 C 0.47657 0.26691 0.09848 0.0
C462 C 0.47487 0.22271 0.0967 0.0
H463 H 0.48345 0.28442 0.09067 0.0
H464 H 0.48038 0.20455 0.0877 0.0
H465 H 0.54445 0.2011 0.02292 0.0
H466 H 0.53873 0.27987 0.01021 0.0
C467 C 0.51105 0.30467 0.04954 0.0
C468 C 0.46349 0.23816 0.98515 0.0
C469 C 0.56027 0.24692 0.11967 0.0
C470 C 0.51229 0.1804 0.05609 0.0
H471 H 0.44928 0.28781 0.96437 0.0
H472 H 0.47521 0.32431 0.99948 0.0
H473 H 0.54643 0.33069 0.09724 0.0
H474 H 0.57324 0.29895 0.13565 0.0
H475 H 0.57162 0.19792 0.14462 0.0
H476 H 0.54543 0.16114 0.10994 0.0
H477 H 0.47967 0.15434 0.0046 0.0
H478 H 0.45298 0.18627 0.96601 0.0
H479 H 0.57783 0.19831 0.98582 0.0
H480 H 0.5721 0.27816 0.97253 0.0
H481 H 0.4498 0.20545 0.12874 0.0
H482 H 0.45216 0.28655 0.13152 0.0
C483 C 0.72612 0.54687 0.04489 0.0
C484 C 0.70278 0.55388 0.05521 0.0
C485 C 0.68547 0.53819 0.03756 0.0
C486 C 0.69907 0.52262 0.01736 0.0
N487 N 0.72409 0.52736 0.02091 0.0
Co488 Co 0.75044 0.50912 0.99571 0.0
N489 N 0.72464 0.48645 0.96913 0.0
C490 C 0.69948 0.48698 0.9713 0.0
C491 C 0.68646 0.46905 0.95061 0.0
C492 C 0.70432 0.45621 0.93412 0.0
C493 C 0.72735 0.4672 0.94561 0.0
N494 N 0.77684 0.49064 0.97094 0.0
C495 C 0.77475 0.47083 0.94748 0.0
C496 C 0.79803 0.46378 0.93701 0.0
C497 C 0.81544 0.47937 0.95473 0.0
C498 C 0.80191 0.4951 0.97486 0.0
N499 N 0.77616 0.53211 0.02195 0.0
C500 C 0.80132 0.53186 0.01948 0.0
C501 C 0.81431 0.54953 0.04071 0.0
C502 C 0.79642 0.56197 0.05771 0.0
C503 C 0.77339 0.55124 0.04571 0.0
N504 N 0.75457 0.48441 0.0327 0.0
C505 C 0.76209 0.44466 0.07793 0.0
C506 C 0.78207 0.45991 0.07087 0.0
C507 C 0.77797 0.47939 0.04826 0.0
C508 C 0.73801 0.45031 0.06342 0.0
C509 C 0.73462 0.47049 0.04154 0.0
N510 N 0.74654 0.5334 0.9582 0.0
C511 C 0.76563 0.55864 0.91733 0.0
C512 C 0.74224 0.56344 0.8999 0.0
C513 C 0.72084 0.55393 0.91335 0.0
C514 C 0.72339 0.53927 0.94253 0.0
C515 C 0.76732 0.54368 0.94587 0.0
H516 H 0.70643 0.53256 0.9516 0.0
H517 H 0.78578 0.54046 0.95718 0.0
H518 H 0.79423 0.4896 0.04317 0.0
H519 H 0.7158 0.47416 0.03159 0.0
C520 C 0.68879 0.5039 0.99413 0.0
C521 C 0.74952 0.55978 0.05804 0.0
C522 C 0.75127 0.45811 0.93422 0.0
C523 C 0.81221 0.51429 0.99752 0.0
H524 H 0.69857 0.56895 0.07336 0.0
H525 H 0.6653 0.53832 0.03897 0.0
H526 H 0.66639 0.46545 0.94825 0.0
H527 H 0.70072 0.4403 0.91608 0.0
H528 H 0.80202 0.4489 0.91844 0.0
H529 H 0.83559 0.47925 0.95312 0.0
H530 H 0.83441 0.55283 0.04369 0.0
H531 H 0.79999 0.57715 0.07697 0.0
H532 H 0.80104 0.45621 0.08169 0.0
H533 H 0.72192 0.43918 0.06886 0.0
H534 H 0.78279 0.56636 0.90906 0.0
H535 H 0.7022 0.55724 0.90111 0.0
H536 H 0.22824 0.29361 0.41052 0.0
H537 H 0.08261 0.25931 0.41782 0.0
H538 H 0.18153 0.25585 0.3278 0.0
H539 H 0.12265 0.3087 0.4947 0.0
H540 H 0.11958 0.25787 0.38527 0.0
H541 H 0.19071 0.2998 0.4425 0.0
C542 C 0.21017 0.28682 0.39897 0.0
C543 C 0.20816 0.27403 0.36648 0.0
C544 C 0.12036 0.26916 0.40916 0.0
C545 C 0.16531 0.28088 0.40291 0.0
C546 C 0.09923 0.26988 0.42785 0.0
C547 C 0.09955 0.28405 0.4591 0.0
C548 C 0.14225 0.28251 0.42185 0.0
C549 C 0.12156 0.29766 0.47059 0.0
C550 C 0.18877 0.29033 0.41723 0.0
C551 C 0.18419 0.26564 0.35282 0.0
N552 N 0.14212 0.2964 0.45211 0.0
N553 N 0.16389 0.26907 0.37111 0.0
H554 H 0.81682 0.17408 0.2828 0.0
H555 H 0.71658 0.08126 0.35194 0.0
H556 H 0.73821 0.19202 0.28496 0.0
H557 H 0.79289 0.08837 0.39885 0.0
H558 H 0.72547 0.11422 0.31287 0.0
H559 H 0.80918 0.13431 0.31081 0.0
C560 C 0.79792 0.16932 0.28846 0.0
C561 C 0.77809 0.18617 0.28187 0.0
C562 C 0.74027 0.10826 0.33154 0.0
C563 C 0.76925 0.14117 0.31316 0.0
C564 C 0.7352 0.08961 0.35412 0.0
C565 C 0.75384 0.08214 0.37934 0.0
C566 C 0.76428 0.11926 0.33366 0.0
C567 C 0.77789 0.0932 0.37982 0.0
C568 C 0.79361 0.14684 0.30455 0.0
C569 C 0.75396 0.17945 0.28991 0.0
N570 N 0.78238 0.11127 0.35744 0.0
N571 N 0.75019 0.15745 0.30514 0.0
H572 H 0.84875 0.78598 0.24317 0.0
H573 H 0.91394 0.73765 0.42175 0.0
H574 H 0.81196 0.74039 0.31316 0.0
H575 H 0.95628 0.77252 0.34732 0.0
H576 H 0.87584 0.74065 0.38246 0.0
H577 H 0.88815 0.78292 0.28062 0.0
C578 C 0.84896 0.77522 0.26618 0.0
C579 C 0.82694 0.7635 0.275 0.0
C580 C 0.8934 0.74769 0.37455 0.0
C581 C 0.87174 0.76015 0.318 0.0
C582 C 0.91507 0.74601 0.39704 0.0
C583 C 0.93808 0.75484 0.38759 0.0
C584 C 0.89469 0.7584 0.34235 0.0
C585 C 0.93874 0.76556 0.35538 0.0
C586 C 0.87142 0.77354 0.28757 0.0
C587 C 0.82834 0.74986 0.30522 0.0
N588 N 0.91731 0.76708 0.33383 0.0
N589 N 0.85022 0.74868 0.32556 0.0
H590 H 0.27022 0.83976 0.26902 0.0
H591 H 0.29633 0.89589 0.46253 0.0
H592 H 0.3012 0.7953 0.35259 0.0
H593 H 0.25187 0.93292 0.38187 0.0
H594 H 0.30354 0.86091 0.42155 0.0
H595 H 0.26941 0.87621 0.30883 0.0
C596 C 0.27709 0.83769 0.29574 0.0
C597 C 0.28553 0.81431 0.30757 0.0
C598 C 0.29228 0.87673 0.41283 0.0
C599 C 0.28444 0.85614 0.35347 0.0
C600 C 0.28824 0.89672 0.43612 0.0
C601 C 0.27341 0.91729 0.42555 0.0
C602 C 0.28158 0.87742 0.37868 0.0
C603 C 0.26315 0.9173 0.39119 0.0
C604 C 0.27653 0.85855 0.3185 0.0
C605 C 0.29445 0.81292 0.34241 0.0
N606 N 0.26745 0.89768 0.36899 0.0
N607 N 0.29347 0.83354 0.36426 0.0
H608 H 0.16982 0.74065 0.71541 0.0
H609 H 0.11156 0.72292 0.51918 0.0
H610 H 0.21427 0.71735 0.63236 0.0
H611 H 0.0686 0.74431 0.60425 0.0
H612 H 0.1491 0.71861 0.55988 0.0
H613 H 0.13231 0.73945 0.67513 0.0
C614 C 0.17169 0.73506 0.68868 0.0
C615 C 0.19534 0.72923 0.67726 0.0
C616 C 0.13147 0.72416 0.56968 0.0
C617 C 0.15217 0.72806 0.63061 0.0
C618 C 0.11013 0.72663 0.54651 0.0
C619 C 0.08718 0.73413 0.55857 0.0
C620 C 0.12974 0.72924 0.60513 0.0
C621 C 0.08608 0.73865 0.59407 0.0
C622 C 0.15019 0.73442 0.66562 0.0
C623 C 0.19645 0.72197 0.64232 0.0
N624 N 0.10707 0.73623 0.61608 0.0
N625 N 0.1752 0.72181 0.62014 0.0
H626 H 0.1995 0.16621 0.79173 0.0
H627 H 0.2749 0.06149 0.68982 0.0
H628 H 0.28031 0.16295 0.79425 0.0
H629 H 0.20108 0.08707 0.65268 0.0
H630 H 0.27347 0.0895 0.7409 0.0
H631 H 0.19665 0.12784 0.75367 0.0
C632 C 0.2166 0.15685 0.78527 0.0
C633 C 0.24018 0.16749 0.79603 0.0
C634 C 0.25748 0.08874 0.72173 0.0
C635 C 0.2371 0.12416 0.75284 0.0
C636 C 0.25833 0.07293 0.69242 0.0
C637 C 0.23836 0.07242 0.66639 0.0
C638 C 0.23643 0.10406 0.72533 0.0
C639 C 0.21697 0.08696 0.67192 0.0
C640 C 0.21497 0.13522 0.76335 0.0
C641 C 0.26182 0.15515 0.78645 0.0
N642 N 0.21668 0.10245 0.70065 0.0
N643 N 0.25977 0.13417 0.76525 0.0
H644 H 0.80396 0.28344 0.71569 0.0
H645 H 0.94426 0.24116 0.68406 0.0
H646 H 0.84224 0.22523 0.77352 0.0
H647 H 0.904 0.30122 0.63273 0.0
H648 H 0.90891 0.23602 0.71967 0.0
H649 H 0.84188 0.29104 0.68773 0.0
C650 C 0.82042 0.27223 0.72262 0.0
C651 C 0.81977 0.25349 0.74686 0.0
C652 C 0.90793 0.2504 0.70073 0.0
C653 C 0.86373 0.26212 0.71443 0.0
C654 C 0.92814 0.25343 0.68051 0.0
C655 C 0.927 0.27147 0.65504 0.0
C656 C 0.8865 0.26558 0.6955 0.0
C657 C 0.90556 0.28672 0.65148 0.0
C658 C 0.8422 0.27664 0.70659 0.0
C659 C 0.84189 0.23983 0.75495 0.0
N660 N 0.88623 0.28335 0.67128 0.0
N661 N 0.86296 0.24427 0.73853 0.0
H662 H 0.75821 0.82529 0.70993 0.0
H663 H 0.69683 0.90105 0.55148 0.0
H664 H 0.71328 0.78933 0.62392 0.0
H665 H 0.73795 0.93577 0.64162 0.0
H666 H 0.69986 0.86042 0.57877 0.0
H667 H 0.74902 0.86603 0.686 0.0
C668 C 0.74641 0.82592 0.68591 0.0
C669 C 0.73665 0.80377 0.66877 0.0
C670 C 0.70799 0.87698 0.5927 0.0
C671 C 0.72595 0.85069 0.64114 0.0
C672 C 0.70608 0.90023 0.57728 0.0
C673 C 0.71732 0.92182 0.59422 0.0
C674 C 0.72128 0.87531 0.62525 0.0
C675 C 0.72938 0.91955 0.62739 0.0
C676 C 0.74107 0.84929 0.67231 0.0
C677 C 0.72129 0.80591 0.6379 0.0
N678 N 0.73119 0.8967 0.64168 0.0
N679 N 0.71651 0.82899 0.62494 0.0
H680 H 0.8102 0.71673 0.64585 0.0
H681 H 0.94994 0.76417 0.62263 0.0
H682 H 0.8547 0.76085 0.7246 0.0
H683 H 0.90715 0.71359 0.55002 0.0
H684 H 0.91578 0.76315 0.66068 0.0
H685 H 0.84604 0.71497 0.61115 0.0
C686 C 0.82758 0.72596 0.65599 0.0
C687 C 0.82935 0.73905 0.68822 0.0
C688 C 0.91394 0.75218 0.63651 0.0
C689 C 0.87064 0.73725 0.64824 0.0
C690 C 0.93338 0.75286 0.61465 0.0
C691 C 0.93147 0.73896 0.58297 0.0
C692 C 0.89229 0.73763 0.62657 0.0
C693 C 0.90967 0.72438 0.5743 0.0
C694 C 0.84809 0.72493 0.63609 0.0
C695 C 0.85245 0.75053 0.69995 0.0
N696 N 0.89095 0.72421 0.59584 0.0
N697 N 0.87213 0.74952 0.67986 0.0
H698 H 0.2723 0.80668 0.6806 0.0
H699 H 0.22908 0.94991 0.65443 0.0
H700 H 0.22585 0.84628 0.75025 0.0
H701 H 0.27528 0.90801 0.58719 0.0
H702 H 0.22819 0.91324 0.69097 0.0
H703 H 0.27422 0.84433 0.64769 0.0
C704 C 0.26249 0.82333 0.68915 0.0
C705 C 0.24881 0.82309 0.71841 0.0
C706 C 0.23859 0.91207 0.66831 0.0
C707 C 0.25093 0.86684 0.68016 0.0
C708 C 0.23909 0.93297 0.64749 0.0
C709 C 0.25225 0.93191 0.61776 0.0
C710 C 0.25137 0.88991 0.65934 0.0
C711 C 0.26495 0.90959 0.60989 0.0
C712 C 0.26362 0.84495 0.67018 0.0
C713 C 0.23664 0.84549 0.72797 0.0
N714 N 0.26415 0.88955 0.63044 0.0
N715 N 0.23791 0.8664 0.70885 0.0
H716 H 0.17537 0.26175 0.77767 0.0
H717 H 0.11333 0.27288 0.58438 0.0
H718 H 0.22025 0.26228 0.69071 0.0
H719 H 0.07258 0.2768 0.67507 0.0
H720 H 0.153 0.26958 0.6215 0.0
H721 H 0.13795 0.26822 0.73942 0.0
C722 C 0.17739 0.26326 0.7504 0.0
C723 C 0.20103 0.26126 0.73737 0.0
C724 C 0.13539 0.27129 0.63324 0.0
C725 C 0.15779 0.26865 0.69297 0.0
C726 C 0.11288 0.27313 0.61214 0.0
C727 C 0.08996 0.27519 0.62699 0.0
C728 C 0.13469 0.2714 0.66926 0.0
C729 C 0.09002 0.27533 0.66288 0.0
C730 C 0.1559 0.26701 0.72849 0.0
C731 C 0.20238 0.26369 0.70182 0.0
N732 N 0.11203 0.27344 0.68277 0.0
N733 N 0.18097 0.26709 0.68072 0.0
H734 H 0.74485 0.16678 0.73161 0.0
H735 H 0.71554 0.11063 0.53736 0.0
H736 H 0.71336 0.21176 0.64905 0.0
H737 H 0.73989 0.06575 0.62333 0.0
H738 H 0.71462 0.14794 0.57702 0.0
H739 H 0.74306 0.12991 0.69198 0.0
C740 C 0.73742 0.16895 0.70514 0.0
C741 C 0.72926 0.1926 0.69381 0.0
C742 C 0.72011 0.12994 0.58727 0.0
C743 C 0.72732 0.15 0.64775 0.0
C744 C 0.72063 0.10868 0.56464 0.0
C745 C 0.72783 0.0851 0.57713 0.0
C746 C 0.72696 0.12769 0.62271 0.0
C747 C 0.73432 0.08359 0.61266 0.0
C748 C 0.73641 0.14777 0.68243 0.0
C749 C 0.71981 0.19399 0.65907 0.0
N750 N 0.7338 0.10452 0.63411 0.0
N751 N 0.71922 0.17306 0.63729 0.0
H752 H 0.81627 0.2946 0.38437 0.0
H753 H 0.96614 0.27655 0.40896 0.0
H754 H 0.86073 0.26744 0.30317 0.0
H755 H 0.92095 0.29665 0.4922 0.0
H756 H 0.92809 0.27655 0.36853 0.0
H757 H 0.85482 0.29909 0.42319 0.0
C758 C 0.83411 0.28974 0.37463 0.0
C759 C 0.8352 0.28051 0.34048 0.0
C760 C 0.92649 0.28116 0.39559 0.0
C761 C 0.87941 0.28555 0.38479 0.0
C762 C 0.94818 0.28123 0.41851 0.0
C763 C 0.94653 0.28685 0.45366 0.0
C764 C 0.90304 0.28669 0.40806 0.0
C765 C 0.92289 0.2925 0.46511 0.0
C766 C 0.85612 0.29225 0.39682 0.0
C767 C 0.85891 0.2745 0.32931 0.0
N768 N 0.90206 0.29226 0.44238 0.0
N769 N 0.88001 0.27705 0.35139 0.0
H770 H 0.7174 0.79928 0.35124 0.0
H771 H 0.75488 0.94602 0.38257 0.0
H772 H 0.75717 0.84252 0.28177 0.0
H773 H 0.71131 0.9069 0.45163 0.0
H774 H 0.75603 0.90744 0.34595 0.0
H775 H 0.71488 0.8375 0.38901 0.0
C776 C 0.72554 0.81671 0.34385 0.0
C777 C 0.73752 0.81752 0.31315 0.0
C778 C 0.74617 0.90715 0.36907 0.0
C779 C 0.73478 0.86132 0.35631 0.0
C780 C 0.74557 0.9292 0.38995 0.0
C781 C 0.73308 0.92954 0.42011 0.0
C782 C 0.73417 0.88511 0.37833 0.0
C783 C 0.72118 0.9073 0.42852 0.0
C784 C 0.72411 0.83854 0.36544 0.0
C785 C 0.74774 0.84075 0.30505 0.0
N786 N 0.72204 0.88595 0.4078 0.0
N787 N 0.74616 0.86151 0.32638 0.0
H788 H 0.20776 0.72637 0.2896 0.0
H789 H 0.0765 0.78409 0.33813 0.0
H790 H 0.17332 0.78916 0.23722 0.0
H791 H 0.11119 0.71812 0.38218 0.0
H792 H 0.11043 0.78619 0.29965 0.0
H793 H 0.17105 0.72258 0.32158 0.0
C794 C 0.19234 0.73934 0.28468 0.0
C795 C 0.19372 0.75825 0.26085 0.0
C796 C 0.11045 0.77118 0.31759 0.0
C797 C 0.15134 0.75413 0.29792 0.0
C798 C 0.09119 0.77005 0.33972 0.0
C799 C 0.09092 0.75087 0.36349 0.0
C800 C 0.12966 0.7531 0.31938 0.0
C801 C 0.11031 0.73303 0.36404 0.0
C802 C 0.1713 0.73715 0.30301 0.0
C803 C 0.17301 0.77431 0.25535 0.0
N804 N 0.12884 0.73466 0.3425 0.0
N805 N 0.15271 0.77206 0.27405 0.0
H806 H 0.27545 0.19575 0.38644 0.0
H807 H 0.24128 0.04994 0.40531 0.0
H808 H 0.23549 0.15131 0.30375 0.0
H809 H 0.26797 0.10034 0.49022 0.0
H810 H 0.2414 0.08528 0.36633 0.0
H811 H 0.2756 0.15972 0.42288 0.0
C812 C 0.26675 0.17837 0.37574 0.0
C813 C 0.2554 0.17678 0.34171 0.0
C814 C 0.24724 0.08862 0.39347 0.0
C815 C 0.25553 0.13489 0.38401 0.0
C816 C 0.24718 0.06847 0.41569 0.0
C817 C 0.25463 0.07222 0.45107 0.0
C818 C 0.25503 0.11273 0.40662 0.0
C819 C 0.26218 0.09658 0.46315 0.0
C820 C 0.26679 0.15771 0.39678 0.0
C821 C 0.24446 0.15354 0.32972 0.0
N822 N 0.26224 0.11579 0.44105 0.0
N823 N 0.24481 0.13355 0.35079 0.0
H824 H 0.69303 0.78217 0.76031 0.0
H825 H 0.63249 0.75825 0.93466 0.0
H826 H 0.73792 0.75839 0.85044 0.0
H827 H 0.59773 0.80419 0.85534 0.0
H828 H 0.67117 0.75731 0.90489 0.0
H829 H 0.65796 0.79016 0.79525 0.0
C830 C 0.69555 0.7789 0.78766 0.0
C831 C 0.71832 0.76953 0.80256 0.0
C832 C 0.65515 0.76779 0.89424 0.0
C833 C 0.67802 0.77818 0.8427 0.0
C834 C 0.63302 0.76816 0.91102 0.0
C835 C 0.6118 0.78117 0.8973 0.0
C836 C 0.65591 0.78022 0.86326 0.0
C837 C 0.61364 0.79402 0.86691 0.0
C838 C 0.67553 0.78349 0.80761 0.0
C839 C 0.72066 0.76572 0.83809 0.0
N840 N 0.63519 0.793 0.85076 0.0
N841 N 0.70055 0.76968 0.85695 0.0
H842 H 0.25559 0.67425 0.79432 0.0
H843 H 0.20694 0.61852 0.9652 0.0
H844 H 0.21463 0.71945 0.86502 0.0
H845 H 0.25655 0.57935 0.89955 0.0
H846 H 0.20718 0.65479 0.92815 0.0
H847 H 0.25369 0.63884 0.83153 0.0
C848 C 0.24607 0.6768 0.81765 0.0
C849 C 0.23525 0.7001 0.82635 0.0
C850 C 0.21802 0.63826 0.92192 0.0
C851 C 0.23304 0.65902 0.86967 0.0
C852 C 0.2178 0.61743 0.94297 0.0
C853 C 0.23182 0.59567 0.93572 0.0
C854 C 0.23218 0.63738 0.89309 0.0
C855 C 0.24572 0.59568 0.90666 0.0
C856 C 0.24506 0.65644 0.83905 0.0
C857 C 0.22324 0.70195 0.85715 0.0
N858 N 0.24548 0.61604 0.88654 0.0
N859 N 0.22245 0.68172 0.87764 0.0
H860 H 0.3091 0.22342 0.90038 0.0
H861 H 0.45789 0.24858 0.91663 0.0
H862 H 0.34772 0.25421 0.81868 0.0
H863 H 0.41666 0.22405 0.99943 0.0
H864 H 0.41859 0.24796 0.87853 0.0
H865 H 0.34905 0.22067 0.9351 0.0
C866 C 0.32601 0.22956 0.88963 0.0
C867 C 0.32496 0.23919 0.85653 0.0
C868 C 0.41814 0.24261 0.90497 0.0
C869 C 0.37107 0.2361 0.89649 0.0
C870 C 0.4405 0.24293 0.92659 0.0
C871 C 0.44028 0.23647 0.96108 0.0
C872 C 0.39549 0.23566 0.91801 0.0
C873 C 0.41747 0.22919 0.97295 0.0
C874 C 0.34888 0.22798 0.90957 0.0
C875 C 0.34761 0.24673 0.84407 0.0
N876 N 0.39598 0.22905 0.9515 0.0
N877 N 0.36974 0.2451 0.86412 0.0
H878 H 0.72257 0.34266 0.7682 0.0
H879 H 0.77035 0.41199 0.94999 0.0
H880 H 0.76701 0.30718 0.85035 0.0
H881 H 0.73293 0.45154 0.86617 0.0
H882 H 0.76907 0.37337 0.91308 0.0
H883 H 0.72565 0.38269 0.80271 0.0
C884 C 0.73301 0.34325 0.79333 0.0
C885 C 0.74449 0.32138 0.80627 0.0
C886 C 0.7612 0.39046 0.90256 0.0
C887 C 0.74802 0.36711 0.84598 0.0
C888 C 0.76202 0.4125 0.92366 0.0
C889 C 0.75174 0.43489 0.91106 0.0
C890 C 0.74987 0.39069 0.86854 0.0
C891 C 0.74103 0.43457 0.87678 0.0
C892 C 0.73478 0.36611 0.81304 0.0
C893 C 0.75778 0.32339 0.83912 0.0
N894 N 0.74024 0.41281 0.85675 0.0
N895 N 0.75909 0.34568 0.85771 0.0
H896 H 0.71736 0.23881 0.1888 0.0
H897 H 0.56955 0.26504 0.18658 0.0
H898 H 0.68474 0.27944 0.27228 0.0
H899 H 0.60583 0.23165 0.10132 0.0
H900 H 0.61069 0.26839 0.22047 0.0
H901 H 0.67589 0.23387 0.15858 0.0
C902 C 0.70145 0.24672 0.20089 0.0
C903 C 0.70464 0.25969 0.23317 0.0
C904 C 0.60963 0.26028 0.1944 0.0
C905 C 0.65668 0.25403 0.19832 0.0
C906 C 0.58625 0.25836 0.17519 0.0
C907 C 0.58459 0.24819 0.14126 0.0
C908 C 0.63131 0.2518 0.17947 0.0
C909 C 0.60651 0.23964 0.12745 0.0
C910 C 0.67767 0.24387 0.1835 0.0
C911 C 0.68317 0.26938 0.24742 0.0
N912 N 0.62897 0.24168 0.14658 0.0
N913 N 0.66005 0.26639 0.22984 0.0
H914 H 0.76567 0.71035 0.152 0.0
H915 H 0.73697 0.56207 0.12524 0.0
H916 H 0.73051 0.66868 0.22765 0.0
H917 H 0.76079 0.60874 0.0464 0.0
H918 H 0.73617 0.59964 0.16461 0.0
H919 H 0.766 0.67238 0.11502 0.0
C920 C 0.75803 0.69318 0.16102 0.0
C921 C 0.74802 0.69292 0.19324 0.0
C922 C 0.74155 0.60167 0.13871 0.0
C923 C 0.74837 0.64877 0.1503 0.0
C924 C 0.742 0.58026 0.11628 0.0
C925 C 0.74894 0.58236 0.08253 0.0
C926 C 0.74827 0.62535 0.12739 0.0
C927 C 0.75539 0.60631 0.07221 0.0
C928 C 0.75818 0.6714 0.13966 0.0
C929 C 0.7384 0.66988 0.2031 0.0
N930 N 0.75495 0.62676 0.09448 0.0
N931 N 0.73884 0.64875 0.18177 0.0
H932 H 0.29397 0.79717 0.12138 0.0
H933 H 0.43689 0.75747 0.10052 0.0
H934 H 0.34161 0.75883 0.19759 0.0
H935 H 0.39584 0.80629 0.03019 0.0
H936 H 0.40095 0.75684 0.13494 0.0
H937 H 0.32996 0.80021 0.08631 0.0
C938 C 0.31194 0.7895 0.13081 0.0
C939 C 0.31469 0.77768 0.16249 0.0
C940 C 0.39972 0.76776 0.11203 0.0
C941 C 0.35577 0.78094 0.12251 0.0
C942 C 0.42023 0.76799 0.09222 0.0
C943 C 0.41936 0.78185 0.06231 0.0
C944 C 0.37795 0.78138 0.10191 0.0
C945 C 0.39738 0.79548 0.05319 0.0
C946 C 0.33245 0.79124 0.11081 0.0
C947 C 0.33845 0.76808 0.17339 0.0
N948 N 0.37748 0.79481 0.07282 0.0
N949 N 0.35792 0.76984 0.15344 0.0
H950 H 0.2663 0.32074 0.25708 0.0
H951 H 0.20282 0.38264 0.08697 0.0
H952 H 0.21478 0.2787 0.18441 0.0
H953 H 0.26589 0.41448 0.15128 0.0
H954 H 0.20416 0.34567 0.12302 0.0
H955 H 0.26343 0.35612 0.21975 0.0
C956 C 0.25424 0.31887 0.23324 0.0
C957 C 0.24074 0.29646 0.22408 0.0
C958 C 0.21772 0.36073 0.12912 0.0
C959 C 0.2374 0.33763 0.18058 0.0
C960 C 0.2169 0.38195 0.10868 0.0
C961 C 0.23432 0.40183 0.11595 0.0
C962 C 0.23589 0.35946 0.15737 0.0
C963 C 0.25226 0.39962 0.14426 0.0
C964 C 0.25271 0.33923 0.21177 0.0
C965 C 0.22555 0.29551 0.19262 0.0
N966 N 0.25248 0.379 0.16386 0.0
N967 N 0.22423 0.31581 0.17204 0.0
H968 H 0.31762 0.213 0.24051 0.0
H969 H 0.44414 0.27853 0.19069 0.0
H970 H 0.35 0.27865 0.29682 0.0
H971 H 0.40707 0.21515 0.13441 0.0
H972 H 0.41169 0.2783 0.23166 0.0
H973 H 0.35261 0.21215 0.20459 0.0
C974 C 0.33227 0.22715 0.24559 0.0
C975 C 0.33073 0.24601 0.2717 0.0
C976 C 0.41076 0.26441 0.21039 0.0
C977 C 0.37107 0.24536 0.22994 0.0
C978 C 0.42918 0.26463 0.1868 0.0
C979 C 0.42851 0.24675 0.15898 0.0
C980 C 0.39147 0.24621 0.20614 0.0
C981 C 0.40877 0.22904 0.15567 0.0
C982 C 0.35228 0.2267 0.22489 0.0
C983 C 0.35044 0.26372 0.27707 0.0
N984 N 0.39116 0.22925 0.17884 0.0
N985 N 0.3697 0.26311 0.25615 0.0
H986 H 0.78875 0.2933 0.14647 0.0
H987 H 0.78709 0.44335 0.14198 0.0
H988 H 0.79347 0.34148 0.23889 0.0
H989 H 0.74854 0.39572 0.0617 0.0
H990 H 0.79715 0.40599 0.17533 0.0
H991 H 0.7824 0.33077 0.11191 0.0
C992 C 0.78897 0.31178 0.15941 0.0
C993 C 0.7916 0.31437 0.19553 0.0
C994 C 0.78643 0.40375 0.15045 0.0
C995 C 0.7843 0.35701 0.15639 0.0
C996 C 0.78069 0.425 0.13151 0.0
C997 C 0.7668 0.42252 0.09928 0.0
C998 C 0.77869 0.37984 0.13672 0.0
C999 C 0.759 0.39837 0.08669 0.0
C1000 C 0.78508 0.33306 0.13975 0.0
C1001 C 0.79142 0.3387 0.21108 0.0
N1002 N 0.76521 0.37788 0.10535 0.0
N1003 N 0.78784 0.35909 0.19143 0.0
H1004 H 0.71726 0.79814 0.1198 0.0
H1005 H 0.56636 0.7939 0.11188 0.0
H1006 H 0.67468 0.78516 0.20664 0.0
H1007 H 0.60676 0.79655 0.02117 0.0
H1008 H 0.60639 0.79666 0.14787 0.0
H1009 H 0.67749 0.80359 0.08392 0.0
C1010 C 0.69962 0.79678 0.1314 0.0
C1011 C 0.69928 0.79095 0.16616 0.0
C1012 C 0.6066 0.79683 0.12011 0.0
C1013 C 0.6539 0.7971 0.12548 0.0
C1014 C 0.58377 0.79532 0.09971 0.0
C1015 C 0.58353 0.79493 0.06379 0.0
C1016 C 0.62933 0.79789 0.10439 0.0
C1017 C 0.60642 0.79678 0.04893 0.0
C1018 C 0.67695 0.79976 0.11092 0.0
C1019 C 0.67588 0.78933 0.17987 0.0
N1020 N 0.62849 0.79803 0.06931 0.0
N1021 N 0.65423 0.79227 0.15952 0.0
H1022 H 0.28418 0.66504 0.24631 0.0
H1023 H 0.2283 0.58764 0.07543 0.0
H1024 H 0.24375 0.69814 0.15863 0.0
H1025 H 0.26048 0.55128 0.16554 0.0
H1026 H 0.23449 0.62853 0.10623 0.0
H1027 H 0.27679 0.62319 0.21777 0.0
C1028 C 0.2738 0.66353 0.22113 0.0
C1029 C 0.26461 0.68514 0.20484 0.0
C1030 C 0.24017 0.61168 0.11946 0.0
C1031 C 0.2561 0.63754 0.17222 0.0
C1032 C 0.23657 0.58842 0.10188 0.0
C1033 C 0.24402 0.56635 0.1181 0.0
C1034 C 0.25141 0.61286 0.15352 0.0
C1035 C 0.25466 0.56809 0.15231 0.0
C1036 C 0.26954 0.63967 0.20493 0.0
C1037 C 0.25123 0.68209 0.17226 0.0
N1038 N 0.2582 0.59104 0.16894 0.0
N1039 N 0.24744 0.65881 0.15709 0.0
H1040 H 0.31153 0.77403 0.83001 0.0
H1041 H 0.46001 0.74992 0.83728 0.0
H1042 H 0.34571 0.73175 0.74932 0.0
H1043 H 0.42182 0.78301 0.92096 0.0
H1044 H 0.41919 0.74446 0.80294 0.0
H1045 H 0.3525 0.77914 0.86171 0.0
C1046 C 0.32768 0.76581 0.81882 0.0
C1047 C 0.32505 0.75237 0.78684 0.0
C1048 C 0.41975 0.75286 0.82883 0.0
C1049 C 0.37248 0.75821 0.82346 0.0
C1050 C 0.44296 0.75593 0.84833 0.0
C1051 C 0.44405 0.76675 0.88192 0.0
C1052 C 0.39763 0.7609 0.84304 0.0
C1053 C 0.42163 0.77452 0.89516 0.0
C1054 C 0.35117 0.76872 0.83709 0.0
C1055 C 0.34682 0.74222 0.77387 0.0
N1056 N 0.39937 0.77146 0.8757 0.0
N1057 N 0.36966 0.74535 0.79224 0.0
H1058 H 0.21799 0.29191 0.92035 0.0
H1059 H 0.22761 0.44029 0.89301 0.0
H1060 H 0.24567 0.32442 0.83115 0.0
H1061 H 0.21573 0.40983 0.99098 0.0
H1062 H 0.22766 0.39738 0.86712 0.0
H1063 H 0.21114 0.33461 0.94443 0.0
C1064 C 0.22256 0.30798 0.90583 0.0
C1065 C 0.23262 0.3046 0.87386 0.0
C1066 C 0.22485 0.40002 0.89423 0.0
C1067 C 0.22462 0.35326 0.90095 0.0
C1068 C 0.2247 0.42444 0.90883 0.0
C1069 C 0.22183 0.42825 0.94398 0.0
C1070 C 0.22204 0.37938 0.91504 0.0
C1071 C 0.21806 0.40737 0.9637 0.0
C1072 C 0.21865 0.3323 0.91955 0.0
C1073 C 0.23812 0.32607 0.85605 0.0
N1074 N 0.21844 0.3837 0.94899 0.0
N1075 N 0.23406 0.34942 0.86983 0.0
H1076 H 0.71938 0.21064 0.88349 0.0
H1077 H 0.58136 0.26133 0.91508 0.0
H1078 H 0.67103 0.24874 0.80787 0.0
H1079 H 0.62211 0.21113 0.98374 0.0
H1080 H 0.61533 0.25831 0.87697 0.0
H1081 H 0.68501 0.21123 0.92164 0.0
C1082 C 0.70154 0.21891 0.87475 0.0
C1083 C 0.6982 0.22968 0.84235 0.0
C1084 C 0.61687 0.2479 0.90033 0.0
C1085 C 0.65892 0.23073 0.88606 0.0
C1086 C 0.59752 0.24978 0.92227 0.0
C1087 C 0.59882 0.2365 0.95274 0.0
C1088 C 0.63792 0.23278 0.90892 0.0
C1089 C 0.62016 0.22152 0.96037 0.0
C1090 C 0.68194 0.2193 0.89657 0.0
C1091 C 0.67463 0.24022 0.83254 0.0
N1092 N 0.63889 0.22015 0.93872 0.0
N1093 N 0.65606 0.24061 0.8543 0.0
H1094 H 0.7058 0.6703 0.73933 0.0
H1095 H 0.77513 0.56368 0.84949 0.0
H1096 H 0.78643 0.66581 0.75831 0.0
H1097 H 0.70557 0.59719 0.87734 0.0
H1098 H 0.77529 0.592 0.80191 0.0
H1099 H 0.70165 0.63399 0.77573 0.0
C1100 C 0.7226 0.66115 0.75026 0.0
C1101 C 0.7465 0.67088 0.74589 0.0
C1102 C 0.75989 0.59291 0.81829 0.0
C1103 C 0.7419 0.62971 0.78707 0.0
C1104 C 0.75985 0.57693 0.8457 0.0
C1105 C 0.74065 0.57843 0.86827 0.0
C1106 C 0.74037 0.61024 0.81278 0.0
C1107 C 0.72082 0.59532 0.86085 0.0
C1108 C 0.72021 0.64069 0.77122 0.0
C1109 C 0.7677 0.65877 0.7611 0.0
N1110 N 0.72128 0.61072 0.83386 0.0
N1111 N 0.76491 0.6388 0.78106 0.0
loop_
_geom_bond_atom_site_label_1
_geom_bond_atom_site_label_2
_geom_bond_distance
_geom_bond_site_symmetry_2
_ccdc_geom_bond_type
C0 O2 1.247 . S
C0 O4 1.258 . S
C1 O8 1.247 . S
C1 O9 1.258 . S
O2 C0 1.247 . S
O2 Zn3 2.028 . S
Zn3 O2 2.028 . S
Zn3 O7 2.035 . S
Zn3 O9 2.035 . S
Zn3 O10 2.028 . S
O4 C0 1.258 . S
O4 Zn5 2.035 . S
Zn5 O4 2.035 . S
Zn5 O6 2.028 . S
Zn5 O8 2.028 . S
Zn5 O11 2.035 . S
O6 Zn5 2.028 . S
O6 C12 1.247 . S
O7 Zn3 2.035 . S
O7 C12 1.258 . S
O8 C1 1.247 . S
O8 Zn5 2.028 . S
O9 C1 1.258 . S
O9 Zn3 2.035 . S
O10 Zn3 2.028 . S
O10 C13 1.247 . S
O11 Zn5 2.035 . S
O11 C13 1.258 . S
C12 O6 1.247 . S
C12 O7 1.258 . S
C13 O10 1.247 . S
C13 O11 1.258 . S
C14 O16 1.247 . S
C14 O18 1.258 . S
C15 O22 1.247 . S
C15 O23 1.258 . S
O16 C14 1.247 . S
O16 Zn17 2.028 . S
Zn17 O16 2.028 . S
Zn17 O21 2.035 . S
Zn17 O23 2.035 . S
Zn17 O24 2.028 . S
O18 C14 1.258 . S
O18 Zn19 2.035 . S
Zn19 O18 2.035 . S
Zn19 O20 2.028 . S
Zn19 O22 2.028 . S
Zn19 O25 2.035 . S
O20 Zn19 2.028 . S
O20 C26 1.247 . S
O21 Zn17 2.035 . S
O21 C26 1.258 . S
O22 C15 1.247 . S
O22 Zn19 2.028 . S
O23 C15 1.258 . S
O23 Zn17 2.035 . S
O24 Zn17 2.028 . S
O24 C27 1.247 . S
O25 Zn19 2.035 . S
O25 C27 1.258 . S
C26 O20 1.247 . S
C26 O21 1.258 . S
C27 O24 1.247 . S
C27 O25 1.258 . S
C28 O30 1.247 . S
C28 O32 1.258 . S
C29 O36 1.247 . S
C29 O37 1.258 . S
O30 C28 1.247 . S
O30 Zn31 2.028 . S
Zn31 O30 2.028 . S
Zn31 O35 2.035 . S
Zn31 O37 2.035 . S
Zn31 O38 2.028 . S
O32 C28 1.258 . S
O32 Zn33 2.035 . S
Zn33 O32 2.035 . S
Zn33 O34 2.028 . S
Zn33 O36 2.028 . S
Zn33 O39 2.035 . S
O34 Zn33 2.028 . S
O34 C40 1.247 . S
O35 Zn31 2.035 . S
O35 C40 1.258 . S
O36 C29 1.247 . S
O36 Zn33 2.028 . S
O37 C29 1.258 . S
O37 Zn31 2.035 . S
O38 Zn31 2.028 . S
O38 C41 1.247 . S
O39 Zn33 2.035 . S
O39 C41 1.258 . S
C40 O34 1.247 . S
C40 O35 1.258 . S
C41 O38 1.247 . S
C41 O39 1.258 . S
C42 O44 1.247 . S
C42 O46 1.258 . S
C43 O50 1.247 . S
C43 O51 1.258 . S
O44 C42 1.247 . S
O44 Zn45 2.028 . S
Zn45 O44 2.028 . S
Zn45 O49 2.035 . S
Zn45 O51 2.035 . S
Zn45 O52 2.028 . S
O46 C42 1.258 . S
O46 Zn47 2.035 . S
Zn47 O46 2.035 . S
Zn47 O48 2.028 . S
Zn47 O50 2.028 . S
Zn47 O53 2.035 . S
O48 Zn47 2.028 . S
O48 C54 1.247 . S
O49 Zn45 2.035 . S
O49 C54 1.258 . S
O50 C43 1.247 . S
O50 Zn47 2.028 . S
O51 C43 1.258 . S
O51 Zn45 2.035 . S
O52 Zn45 2.028 . S
O52 C55 1.247 . S
O53 Zn47 2.035 . S
O53 C55 1.258 . S
C54 O48 1.247 . S
C54 O49 1.258 . S
C55 O52 1.247 . S
C55 O53 1.258 . S
C56 O58 1.247 . S
C56 O60 1.258 . S
C57 O64 1.247 . S
C57 O65 1.258 . S
O58 C56 1.247 . S
O58 Zn59 2.028 . S
Zn59 O58 2.028 . S
Zn59 O63 2.035 . S
Zn59 O65 2.035 . S
Zn59 O66 2.028 . S
O60 C56 1.258 . S
O60 Zn61 2.035 . S
Zn61 O60 2.035 . S
Zn61 O62 2.028 . S
Zn61 O64 2.028 . S
Zn61 O67 2.035 . S
O62 Zn61 2.028 . S
O62 C68 1.247 . S
O63 Zn59 2.035 . S
O63 C68 1.258 . S
O64 C57 1.247 . S
O64 Zn61 2.028 . S
O65 C57 1.258 . S
O65 Zn59 2.035 . S
O66 Zn59 2.028 . S
O66 C69 1.247 . S
O67 Zn61 2.035 . S
O67 C69 1.258 . S
C68 O62 1.247 . S
C68 O63 1.258 . S
C69 O66 1.247 . S
C69 O67 1.258 . S
C70 O72 1.247 . S
C70 O74 1.258 . S
C71 O78 1.247 . S
C71 O79 1.258 . S
O72 C70 1.247 . S
O72 Zn73 2.028 . S
Zn73 O72 2.028 . S
Zn73 O77 2.035 . S
Zn73 O79 2.035 . S
Zn73 O80 2.028 . S
O74 C70 1.258 . S
O74 Zn75 2.035 . S
Zn75 O74 2.035 . S
Zn75 O76 2.028 . S
Zn75 O78 2.028 . S
Zn75 O81 2.035 . S
O76 Zn75 2.028 . S
O76 C82 1.247 . S
O77 Zn73 2.035 . S
O77 C82 1.258 . S
O78 C71 1.247 . S
O78 Zn75 2.028 . S
O79 C71 1.258 . S
O79 Zn73 2.035 . S
O80 Zn73 2.028 . S
O80 C83 1.247 . S
O81 Zn75 2.035 . S
O81 C83 1.258 . S
C82 O76 1.247 . S
C82 O77 1.258 . S
C83 O80 1.247 . S
C83 O81 1.258 . S
C84 O86 1.247 . S
C84 O88 1.258 . S
C85 O92 1.247 . S
C85 O93 1.258 . S
O86 C84 1.247 . S
O86 Zn87 2.028 . S
Zn87 O86 2.028 . S
Zn87 O91 2.035 . S
Zn87 O93 2.035 . S
Zn87 O94 2.028 . S
O88 C84 1.258 . S
O88 Zn89 2.035 . S
Zn89 O88 2.035 . S
Zn89 O90 2.028 . S
Zn89 O92 2.028 . S
Zn89 O95 2.035 . S
O90 Zn89 2.028 . S
O90 C96 1.247 . S
O91 Zn87 2.035 . S
O91 C96 1.258 . S
O92 C85 1.247 . S
O92 Zn89 2.028 . S
O93 C85 1.258 . S
O93 Zn87 2.035 . S
O94 Zn87 2.028 . S
O94 C97 1.247 . S
O95 Zn89 2.035 . S
O95 C97 1.258 . S
C96 O90 1.247 . S
C96 O91 1.258 . S
C97 O94 1.247 . S
C97 O95 1.258 . S
C98 O100 1.247 . S
C98 O102 1.258 . S
C99 O106 1.247 . S
C99 O107 1.258 . S
O100 C98 1.247 . S
O100 Zn101 2.028 . S
Zn101 O100 2.028 . S
Zn101 O105 2.035 . S
Zn101 O107 2.035 . S
Zn101 O108 2.028 . S
O102 C98 1.258 . S
O102 Zn103 2.035 . S
Zn103 O102 2.035 . S
Zn103 O104 2.028 . S
Zn103 O106 2.028 . S
Zn103 O109 2.035 . S
O104 Zn103 2.028 . S
O104 C110 1.247 . S
O105 Zn101 2.035 . S
O105 C110 1.258 . S
O106 C99 1.247 . S
O106 Zn103 2.028 . S
O107 C99 1.258 . S
O107 Zn101 2.035 . S
O108 Zn101 2.028 . S
O108 C111 1.247 . S
O109 Zn103 2.035 . S
O109 C111 1.258 . S
C110 O104 1.247 . S
C110 O105 1.258 . S
C111 O108 1.247 . S
C111 O109 1.258 . S
C112 C113 1.443 . S
C112 N116 1.376 . S
C112 C150 1.389 . S
C113 C112 1.443 . S
C113 C114 1.340 . S
C113 H153 0.951 . S
C114 C113 1.340 . S
C114 C115 1.439 . S
C114 H154 0.950 . S
C115 C114 1.439 . S
C115 N116 1.374 . S
C115 C149 1.395 . S
N116 C112 1.376 . S
N116 C115 1.374 . S
N116 Co117 2.008 . S
Co117 N116 2.008 . S
Co117 N118 1.995 1_455 S
Co117 N123 2.008 1_455 S
Co117 N128 1.995 . S
Co117 N133 2.282 1_455 S
Co117 N139 2.282 . S
N118 Co117 1.995 1_655 S
N118 C119 1.376 . S
N118 C122 1.383 . S
C119 N118 1.376 . S
C119 C120 1.446 . S
C119 C149 1.391 1_655 S
C120 C119 1.446 . S
C120 C121 1.339 . S
C120 H155 0.949 . S
C121 C120 1.339 . S
C121 C122 1.439 . S
C121 H156 0.950 . S
C122 N118 1.383 . S
C122 C121 1.439 . S
C122 C151 1.392 . S
N123 Co117 2.008 1_655 S
N123 C124 1.376 . S
N123 C127 1.374 . S
C124 N123 1.376 . S
C124 C125 1.443 . S
C124 C151 1.389 . S
C125 C124 1.443 . S
C125 C126 1.340 . S
C125 H157 0.951 . S
C126 C125 1.340 . S
C126 C127 1.439 . S
C126 H158 0.950 . S
C127 N123 1.374 . S
C127 C126 1.439 . S
C127 C152 1.396 . S
N128 Co117 1.995 . S
N128 C129 1.376 . S
N128 C132 1.383 . S
C129 N128 1.376 . S
C129 C130 1.446 . S
C129 C152 1.390 1_455 S
C130 C129 1.446 . S
C130 C131 1.339 . S
C130 H159 0.949 . S
C131 C130 1.339 . S
C131 C132 1.439 . S
C131 H160 0.950 . S
C132 N128 1.383 . S
C132 C131 1.439 . S
C132 C150 1.392 . S
N133 Co117 2.282 1_655 S
N133 C136 1.332 . S
N133 C138 1.332 . S
C134 C135 1.386 . S
C134 C137 1.388 . S
C135 C134 1.386 . S
C135 C136 1.382 . S
C135 H161 0.950 . S
C136 N133 1.332 . S
C136 C135 1.382 . S
C136 H147 0.952 . S
C137 C134 1.388 . S
C137 C138 1.382 . S
C137 H162 0.950 . S
C138 N133 1.332 . S
C138 C137 1.382 . S
C138 H148 0.948 . S
N139 Co117 2.282 . S
N139 C143 1.332 . S
N139 C144 1.332 . S
C140 C141 1.388 . S
C140 C144 1.382 . S
C140 H163 0.950 . S
C141 C140 1.388 . S
C141 C142 1.386 . S
C142 C141 1.386 . S
C142 C143 1.382 . S
C142 H164 0.950 . S
C143 N139 1.332 . S
C143 C142 1.382 . S
C143 H145 0.952 . S
C144 N139 1.332 . S
C144 C140 1.382 . S
C144 H146 0.948 . S
H145 C143 0.952 . S
H146 C144 0.948 . S
H147 C136 0.952 . S
H148 C138 0.948 . S
C149 C115 1.395 . S
C149 C119 1.391 1_455 S
C150 C112 1.389 . S
C150 C132 1.392 . S
C151 C122 1.392 . S
C151 C124 1.389 . S
C152 C127 1.396 . S
C152 C129 1.390 1_655 S
H153 C113 0.951 . S
H154 C114 0.950 . S
H155 C120 0.949 . S
H156 C121 0.950 . S
H157 C125 0.951 . S
H158 C126 0.950 . S
H159 C130 0.949 . S
H160 C131 0.950 . S
H161 C135 0.950 . S
H162 C137 0.950 . S
H163 C140 0.950 . S
H164 C142 0.950 . S
C165 C166 1.443 . S
C165 N169 1.376 . S
C165 C203 1.389 . S
C166 C165 1.443 . S
C166 C167 1.340 . S
C166 H206 0.951 . S
C167 C166 1.340 . S
C167 C168 1.439 . S
C167 H207 0.950 . S
C168 C167 1.439 . S
C168 N169 1.374 . S
C168 C202 1.395 . S
N169 C165 1.376 . S
N169 C168 1.374 . S
N169 Co170 2.008 . S
Co170 N169 2.008 . S
Co170 N171 1.995 1_545 S
Co170 N176 2.008 1_545 S
Co170 N181 1.995 . S
Co170 N186 2.282 1_545 S
Co170 N192 2.282 . S
N171 Co170 1.995 1_565 S
N171 C172 1.376 . S
N171 C175 1.383 . S
C172 N171 1.376 . S
C172 C173 1.446 . S
C172 C202 1.391 1_565 S
C173 C172 1.446 . S
C173 C174 1.339 . S
C173 H208 0.949 . S
C174 C173 1.339 . S
C174 C175 1.439 . S
C174 H209 0.950 . S
C175 N171 1.383 . S
C175 C174 1.439 . S
C175 C204 1.392 . S
N176 Co170 2.008 1_565 S
N176 C177 1.376 . S
N176 C180 1.374 . S
C177 N176 1.376 . S
C177 C178 1.443 . S
C177 C204 1.389 . S
C178 C177 1.443 . S
C178 C179 1.340 . S
C178 H210 0.951 . S
C179 C178 1.340 . S
C179 C180 1.439 . S
C179 H211 0.950 . S
C180 N176 1.374 . S
C180 C179 1.439 . S
C180 C205 1.395 . S
N181 Co170 1.995 . S
N181 C182 1.376 . S
N181 C185 1.383 . S
C182 N181 1.376 . S
C182 C183 1.446 . S
C182 C205 1.391 1_545 S
C183 C182 1.446 . S
C183 C184 1.339 . S
C183 H212 0.949 . S
C184 C183 1.339 . S
C184 C185 1.439 . S
C184 H213 0.950 . S
C185 N181 1.383 . S
C185 C184 1.439 . S
C185 C203 1.392 . S
N186 Co170 2.282 1_565 S
N186 C189 1.332 . S
N186 C191 1.332 . S
C187 C188 1.386 . S
C187 C190 1.388 . S
C188 C187 1.386 . S
C188 C189 1.382 . S
C188 H214 0.950 . S
C189 N186 1.332 . S
C189 C188 1.382 . S
C189 H200 0.952 . S
C190 C187 1.388 . S
C190 C191 1.382 . S
C190 H215 0.950 . S
C191 N186 1.332 . S
C191 C190 1.382 . S
C191 H201 0.948 . S
N192 Co170 2.282 . S
N192 C196 1.332 . S
N192 C197 1.332 . S
C193 C194 1.388 . S
C193 C197 1.382 . S
C193 H216 0.950 . S
C194 C193 1.388 . S
C194 C195 1.386 . S
C195 C194 1.386 . S
C195 C196 1.382 . S
C195 H217 0.950 . S
C196 N192 1.332 . S
C196 C195 1.382 . S
C196 H198 0.952 . S
C197 N192 1.332 . S
C197 C193 1.382 . S
C197 H199 0.948 . S
H198 C196 0.952 . S
H199 C197 0.948 . S
H200 C189 0.952 . S
H201 C191 0.948 . S
C202 C168 1.395 . S
C202 C172 1.391 1_545 S
C203 C165 1.389 . S
C203 C185 1.392 . S
C204 C175 1.392 . S
C204 C177 1.389 . S
C205 C180 1.395 . S
C205 C182 1.391 1_565 S
H206 C166 0.951 . S
H207 C167 0.950 . S
H208 C173 0.949 . S
H209 C174 0.950 . S
H210 C178 0.951 . S
H211 C179 0.950 . S
H212 C183 0.949 . S
H213 C184 0.950 . S
H214 C188 0.950 . S
H215 C190 0.950 . S
H216 C193 0.950 . S
H217 C195 0.950 . S
C218 C219 1.443 . S
C218 N222 1.376 . S
C218 C256 1.389 . S
C219 C218 1.443 . S
C219 C220 1.340 . S
C219 H259 0.951 . S
C220 C219 1.340 . S
C220 C221 1.439 . S
C220 H260 0.950 . S
C221 C220 1.439 . S
C221 N222 1.374 . S
C221 C255 1.395 . S
N222 C218 1.376 . S
N222 C221 1.374 . S
N222 Co223 2.008 . S
Co223 N222 2.008 . S
Co223 N224 1.995 1_455 S
Co223 N229 2.008 1_455 S
Co223 N234 1.995 . S
Co223 N239 2.282 1_455 S
Co223 N245 2.282 . S
N224 Co223 1.995 1_655 S
N224 C225 1.376 . S
N224 C228 1.383 . S
C225 N224 1.376 . S
C225 C226 1.446 . S
C225 C255 1.391 1_655 S
C226 C225 1.446 . S
C226 C227 1.339 . S
C226 H261 0.949 . S
C227 C226 1.339 . S
C227 C228 1.439 . S
C227 H262 0.950 . S
C228 N224 1.383 . S
C228 C227 1.439 . S
C228 C257 1.392 . S
N229 Co223 2.008 1_655 S
N229 C230 1.376 . S
N229 C233 1.374 . S
C230 N229 1.376 . S
C230 C231 1.443 . S
C230 C257 1.389 . S
C231 C230 1.443 . S
C231 C232 1.340 . S
C231 H263 0.951 . S
C232 C231 1.340 . S
C232 C233 1.439 . S
C232 H264 0.950 . S
C233 N229 1.374 . S
C233 C232 1.439 . S
C233 C258 1.395 . S
N234 Co223 1.995 . S
N234 C235 1.376 . S
N234 C238 1.383 . S
C235 N234 1.376 . S
C235 C236 1.446 . S
C235 C258 1.391 1_455 S
C236 C235 1.446 . S
C236 C237 1.339 . S
C236 H265 0.949 . S
C237 C236 1.339 . S
C237 C238 1.439 . S
C237 H266 0.950 . S
C238 N234 1.383 . S
C238 C237 1.439 . S
C238 C256 1.392 . S
N239 Co223 2.282 1_655 S
N239 C242 1.332 . S
N239 C244 1.332 . S
C240 C241 1.386 . S
C240 C243 1.388 . S
C241 C240 1.386 . S
C241 C242 1.382 . S
C241 H267 0.950 . S
C242 N239 1.332 . S
C242 C241 1.382 . S
C242 H253 0.952 . S
C243 C240 1.388 . S
C243 C244 1.382 . S
C243 H268 0.950 . S
C244 N239 1.332 . S
C244 C243 1.382 . S
C244 H254 0.948 . S
N245 Co223 2.282 . S
N245 C249 1.332 . S
N245 C250 1.332 . S
C246 C247 1.388 . S
C246 C250 1.382 . S
C246 H269 0.950 . S
C247 C246 1.388 . S
C247 C248 1.386 . S
C248 C247 1.386 . S
C248 C249 1.382 . S
C248 H270 0.950 . S
C249 N245 1.332 . S
C249 C248 1.382 . S
C249 H251 0.952 . S
C250 N245 1.332 . S
C250 C246 1.382 . S
C250 H252 0.948 . S
H251 C249 0.952 . S
H252 C250 0.948 . S
H253 C242 0.952 . S
H254 C244 0.948 . S
C255 C221 1.395 . S
C255 C225 1.391 1_455 S
C256 C218 1.389 . S
C256 C238 1.392 . S
C257 C228 1.392 . S
C257 C230 1.389 . S
C258 C233 1.395 . S
C258 C235 1.391 1_655 S
H259 C219 0.951 . S
H260 C220 0.950 . S
H261 C226 0.949 . S
H262 C227 0.950 . S
H263 C231 0.951 . S
H264 C232 0.950 . S
H265 C236 0.949 . S
H266 C237 0.950 . S
H267 C241 0.950 . S
H268 C243 0.950 . S
H269 C246 0.950 . S
H270 C248 0.950 . S
C271 C272 1.443 . S
C271 N275 1.376 . S
C271 C309 1.389 . S
C272 C271 1.443 . S
C272 C273 1.340 . S
C272 H312 0.951 . S
C273 C272 1.340 . S
C273 C274 1.439 . S
C273 H313 0.950 . S
C274 C273 1.439 . S
C274 N275 1.374 . S
C274 C308 1.395 . S
N275 C271 1.376 . S
N275 C274 1.374 . S
N275 Co276 2.008 1_565 S
Co276 N275 2.008 1_545 S
Co276 N277 1.995 . S
Co276 N282 2.008 . S
Co276 N287 1.995 1_545 S
Co276 N292 2.282 . S
Co276 N298 2.282 1_545 S
N277 Co276 1.995 . S
N277 C278 1.376 . S
N277 C281 1.383 . S
C278 N277 1.376 . S
C278 C279 1.446 . S
C278 C308 1.391 1_545 S
C279 C278 1.446 . S
C279 C280 1.339 . S
C279 H314 0.949 . S
C280 C279 1.339 . S
C280 C281 1.439 . S
C280 H315 0.950 . S
C281 N277 1.383 . S
C281 C280 1.439 . S
C281 C310 1.392 . S
N282 Co276 2.008 . S
N282 C283 1.376 . S
N282 C286 1.374 . S
C283 N282 1.376 . S
C283 C284 1.443 . S
C283 C310 1.389 . S
C284 C283 1.443 . S
C284 C285 1.340 . S
C284 H316 0.951 . S
C285 C284 1.340 . S
C285 C286 1.439 . S
C285 H317 0.950 . S
C286 N282 1.374 . S
C286 C285 1.439 . S
C286 C311 1.395 . S
N287 Co276 1.995 1_565 S
N287 C288 1.376 . S
N287 C291 1.383 . S
C288 N287 1.376 . S
C288 C289 1.446 . S
C288 C311 1.391 1_565 S
C289 C288 1.446 . S
C289 C290 1.339 . S
C289 H318 0.949 . S
C290 C289 1.339 . S
C290 C291 1.439 . S
C290 H319 0.950 . S
C291 N287 1.383 . S
C291 C290 1.439 . S
C291 C309 1.392 . S
N292 Co276 2.282 . S
N292 C295 1.332 . S
N292 C297 1.332 . S
C293 C294 1.386 . S
C293 C296 1.388 . S
C294 C293 1.386 . S
C294 C295 1.382 . S
C294 H320 0.950 . S
C295 N292 1.332 . S
C295 C294 1.382 . S
C295 H306 0.952 . S
C296 C293 1.388 . S
C296 C297 1.382 . S
C296 H321 0.950 . S
C297 N292 1.332 . S
C297 C296 1.382 . S
C297 H307 0.948 . S
N298 Co276 2.282 1_565 S
N298 C302 1.332 . S
N298 C303 1.332 . S
C299 C300 1.388 . S
C299 C303 1.382 . S
C299 H322 0.950 . S
C300 C299 1.388 . S
C300 C301 1.386 . S
C301 C300 1.386 . S
C301 C302 1.382 . S
C301 H323 0.950 . S
C302 N298 1.332 . S
C302 C301 1.382 . S
C302 H304 0.952 . S
C303 N298 1.332 . S
C303 C299 1.382 . S
C303 H305 0.948 . S
H304 C302 0.952 . S
H305 C303 0.948 . S
H306 C295 0.952 . S
H307 C297 0.948 . S
C308 C274 1.395 . S
C308 C278 1.391 1_565 S
C309 C271 1.389 . S
C309 C291 1.392 . S
C310 C281 1.392 . S
C310 C283 1.389 . S
C311 C286 1.395 . S
C311 C288 1.391 1_545 S
H312 C272 0.951 . S
H313 C273 0.950 . S
H314 C279 0.949 . S
H315 C280 0.950 . S
H316 C284 0.951 . S
H317 C285 0.950 . S
H318 C289 0.949 . S
H319 C290 0.950 . S
H320 C294 0.950 . S
H321 C296 0.950 . S
H322 C299 0.950 . S
H323 C301 0.950 . S
C324 C325 1.443 . S
C324 N328 1.376 . S
C324 C362 1.389 . S
C325 C324 1.443 . S
C325 C326 1.340 . S
C325 H365 0.951 . S
C326 C325 1.340 . S
C326 C327 1.439 . S
C326 H366 0.950 . S
C327 C326 1.439 . S
C327 N328 1.374 . S
C327 C361 1.384 1_554 S
N328 C324 1.376 . S
N328 C327 1.374 . S
N328 Co329 2.010 . S
Co329 N328 2.010 . S
Co329 N330 1.993 1_554 S
Co329 N335 2.007 1_554 S
Co329 N340 1.996 . S
Co329 N345 2.285 . S
Co329 N351 2.280 1_554 S
N330 Co329 1.993 1_556 S
N330 C331 1.376 . S
N330 C334 1.383 . S
C331 N330 1.376 . S
C331 C332 1.446 . S
C331 C361 1.401 . S
C332 C331 1.446 . S
C332 C333 1.339 . S
C332 H367 0.949 . S
C333 C332 1.339 . S
C333 C334 1.439 . S
C333 H368 0.950 . S
C334 N330 1.383 . S
C334 C333 1.439 . S
C334 C363 1.392 . S
N335 Co329 2.007 1_556 S
N335 C336 1.376 . S
N335 C339 1.374 . S
C336 N335 1.376 . S
C336 C337 1.443 . S
C336 C363 1.389 . S
C337 C336 1.443 . S
C337 C338 1.340 . S
C337 H369 0.951 . S
C338 C337 1.340 . S
C338 C339 1.439 . S
C338 H370 0.950 . S
C339 N335 1.374 . S
C339 C338 1.439 . S
C339 C364 1.395 1_556 S
N340 Co329 1.996 . S
N340 C341 1.376 . S
N340 C344 1.383 . S
C341 N340 1.376 . S
C341 C342 1.446 . S
C341 C364 1.391 . S
C342 C341 1.446 . S
C342 C343 1.339 . S
C342 H371 0.949 . S
C343 C342 1.339 . S
C343 C344 1.439 . S
C343 H372 0.950 . S
C344 N340 1.383 . S
C344 C343 1.439 . S
C344 C362 1.392 . S
N345 Co329 2.285 . S
N345 C348 1.332 . S
N345 C350 1.332 . S
C346 C347 1.386 . S
C346 C349 1.388 . S
C347 C346 1.386 . S
C347 C348 1.382 . S
C347 H373 0.950 . S
C348 N345 1.332 . S
C348 C347 1.382 . S
C348 H359 0.952 . S
C349 C346 1.388 . S
C349 C350 1.382 . S
C349 H374 0.950 . S
C350 N345 1.332 . S
C350 C349 1.382 . S
C350 H360 0.948 . S
N351 Co329 2.280 1_556 S
N351 C355 1.332 . S
N351 C356 1.332 . S
C352 C353 1.388 . S
C352 C356 1.382 . S
C352 H375 0.950 . S
C353 C352 1.388 . S
C353 C354 1.386 . S
C354 C353 1.386 . S
C354 C355 1.382 . S
C354 H376 0.950 . S
C355 N351 1.332 . S
C355 C354 1.382 . S
C355 H357 0.952 . S
C356 N351 1.332 . S
C356 C352 1.382 . S
C356 H358 0.948 . S
H357 C355 0.952 . S
H358 C356 0.948 . S
H359 C348 0.952 . S
H360 C350 0.948 . S
C361 C327 1.384 1_556 S
C361 C331 1.401 . S
C362 C324 1.389 . S
C362 C344 1.392 . S
C363 C334 1.392 . S
C363 C336 1.389 . S
C364 C339 1.395 1_554 S
C364 C341 1.391 . S
H365 C325 0.951 . S
H366 C326 0.950 . S
H367 C332 0.949 . S
H368 C333 0.950 . S
H369 C337 0.951 . S
H370 C338 0.950 . S
H371 C342 0.949 . S
H372 C343 0.950 . S
H373 C347 0.950 . S
H374 C349 0.950 . S
H375 C352 0.950 . S
H376 C354 0.950 . S
C377 C378 1.443 . S
C377 N381 1.376 . S
C377 C415 1.389 . S
C378 C377 1.443 . S
C378 C379 1.340 . S
C378 H418 0.951 . S
C379 C378 1.340 . S
C379 C380 1.439 . S
C379 H419 0.950 . S
C380 C379 1.439 . S
C380 N381 1.374 . S
C380 C414 1.395 1_554 S
N381 C377 1.376 . S
N381 C380 1.374 . S
N381 Co382 2.008 . S
Co382 N381 2.008 . S
Co382 N383 1.995 1_554 S
Co382 N388 2.008 1_554 S
Co382 N393 1.995 . S
Co382 N398 2.282 . S
Co382 N404 2.282 1_554 S
N383 Co382 1.995 1_556 S
N383 C384 1.376 . S
N383 C387 1.383 . S
C384 N383 1.376 . S
C384 C385 1.446 . S
C384 C414 1.391 . S
C385 C384 1.446 . S
C385 C386 1.339 . S
C385 H420 0.949 . S
C386 C385 1.339 . S
C386 C387 1.439 . S
C386 H421 0.950 . S
C387 N383 1.383 . S
C387 C386 1.439 . S
C387 C416 1.392 . S
N388 Co382 2.008 1_556 S
N388 C389 1.376 . S
N388 C392 1.374 1_556 S
C389 N388 1.376 . S
C389 C390 1.443 . S
C389 C416 1.389 . S
C390 C389 1.443 . S
C390 C391 1.340 . S
C390 H422 0.951 . S
C391 C390 1.340 . S
C391 C392 1.439 1_556 S
C391 H423 0.950 . S
C392 N388 1.374 1_554 S
C392 C391 1.439 1_554 S
C392 C417 1.395 . S
N393 Co382 1.995 . S
N393 C394 1.376 . S
N393 C397 1.383 . S
C394 N393 1.376 . S
C394 C395 1.446 . S
C394 C417 1.391 . S
C395 C394 1.446 . S
C395 C396 1.339 . S
C395 H424 0.949 . S
C396 C395 1.339 . S
C396 C397 1.439 . S
C396 H425 0.950 . S
C397 N393 1.383 . S
C397 C396 1.439 . S
C397 C415 1.392 . S
N398 Co382 2.282 . S
N398 C401 1.332 . S
N398 C403 1.332 . S
C399 C400 1.386 . S
C399 C402 1.388 . S
C400 C399 1.386 . S
C400 C401 1.382 . S
C400 H426 0.950 . S
C401 N398 1.332 . S
C401 C400 1.382 . S
C401 H412 0.952 . S
C402 C399 1.388 . S
C402 C403 1.382 . S
C402 H427 0.950 . S
C403 N398 1.332 . S
C403 C402 1.382 . S
C403 H413 0.948 . S
N404 Co382 2.282 1_556 S
N404 C408 1.332 . S
N404 C409 1.332 . S
C405 C406 1.388 . S
C405 C409 1.382 . S
C405 H428 0.950 . S
C406 C405 1.388 . S
C406 C407 1.386 . S
C407 C406 1.386 . S
C407 C408 1.382 . S
C407 H429 0.950 . S
C408 N404 1.332 . S
C408 C407 1.382 . S
C408 H410 0.952 . S
C409 N404 1.332 . S
C409 C405 1.382 . S
C409 H411 0.948 . S
H410 C408 0.952 . S
H411 C409 0.948 . S
H412 C401 0.952 . S
H413 C403 0.948 . S
C414 C380 1.395 1_556 S
C414 C384 1.391 . S
C415 C377 1.389 . S
C415 C397 1.392 . S
C416 C387 1.392 . S
C416 C389 1.389 . S
C417 C392 1.395 . S
C417 C394 1.391 . S
H418 C378 0.951 . S
H419 C379 0.950 . S
H420 C385 0.949 . S
H421 C386 0.950 . S
H422 C390 0.951 . S
H423 C391 0.950 . S
H424 C395 0.949 . S
H425 C396 0.950 . S
H426 C400 0.950 . S
H427 C402 0.950 . S
H428 C405 0.950 . S
H429 C407 0.950 . S
C430 C431 1.443 . S
C430 N434 1.361 1_556 S
C430 C468 1.389 . S
C431 C430 1.443 . S
C431 C432 1.340 . S
C431 H471 0.951 . S
C432 C431 1.340 . S
C432 C433 1.439 1_556 S
C432 H472 0.950 . S
C433 C432 1.439 1_554 S
C433 N434 1.380 . S
C433 C467 1.395 . S
N434 C430 1.361 1_554 S
N434 C433 1.380 . S
N434 Co435 2.020 . S
Co435 N434 2.020 . S
Co435 N436 1.995 . S
Co435 N441 2.008 . S
Co435 N446 1.995 1_554 S
Co435 N451 2.282 1_554 S
Co435 N457 2.282 . S
N436 Co435 1.995 . S
N436 C437 1.376 . S
N436 C440 1.383 . S
C437 N436 1.376 . S
C437 C438 1.446 . S
C437 C467 1.391 . S
C438 C437 1.446 . S
C438 C439 1.339 . S
C438 H473 0.949 . S
C439 C438 1.339 . S
C439 C440 1.439 . S
C439 H474 0.950 . S
C440 N436 1.383 . S
C440 C439 1.439 . S
C440 C469 1.392 . S
N441 Co435 2.008 . S
N441 C442 1.376 . S
N441 C445 1.374 . S
C442 N441 1.376 . S
C442 C443 1.443 . S
C442 C469 1.389 . S
C443 C442 1.443 . S
C443 C444 1.340 . S
C443 H475 0.951 . S
C444 C443 1.340 . S
C444 C445 1.439 . S
C444 H476 0.950 . S
C445 N441 1.374 . S
C445 C444 1.439 . S
C445 C470 1.395 . S
N446 Co435 1.995 1_556 S
N446 C447 1.376 . S
N446 C450 1.383 . S
C447 N446 1.376 . S
C447 C448 1.446 . S
C447 C470 1.391 1_556 S
C448 C447 1.446 . S
C448 C449 1.339 . S
C448 H477 0.949 . S
C449 C448 1.339 . S
C449 C450 1.439 . S
C449 H478 0.950 . S
C450 N446 1.383 . S
C450 C449 1.439 . S
C450 C468 1.392 . S
N451 Co435 2.282 1_556 S
N451 C454 1.332 . S
N451 C456 1.332 . S
C452 C453 1.386 . S
C452 C455 1.388 . S
C453 C452 1.386 . S
C453 C454 1.382 . S
C453 H479 0.950 . S
C454 N451 1.332 . S
C454 C453 1.382 . S
C454 H465 0.952 . S
C455 C452 1.388 . S
C455 C456 1.382 . S
C455 H480 0.950 . S
C456 N451 1.332 . S
C456 C455 1.382 . S
C456 H466 0.948 . S
N457 Co435 2.282 . S
N457 C461 1.332 . S
N457 C462 1.332 . S
C458 C459 1.388 . S
C458 C462 1.382 . S
C458 H481 0.950 . S
C459 C458 1.388 . S
C459 C460 1.386 . S
C460 C459 1.386 . S
C460 C461 1.382 . S
C460 H482 0.950 . S
C461 N457 1.332 . S
C461 C460 1.382 . S
C461 H463 0.952 . S
C462 N457 1.332 . S
C462 C458 1.382 . S
C462 H464 0.948 . S
H463 C461 0.952 . S
H464 C462 0.948 . S
H465 C454 0.952 . S
H466 C456 0.948 . S
C467 C433 1.395 . S
C467 C437 1.391 . S
C468 C430 1.389 . S
C468 C450 1.392 . S
C469 C440 1.392 . S
C469 C442 1.389 . S
C470 C445 1.395 . S
C470 C447 1.391 1_554 S
H471 C431 0.951 . S
H472 C432 0.950 . S
H473 C438 0.949 . S
H474 C439 0.950 . S
H475 C443 0.951 . S
H476 C444 0.950 . S
H477 C448 0.949 . S
H478 C449 0.950 . S
H479 C453 0.950 . S
H480 C455 0.950 . S
H481 C458 0.950 . S
H482 C460 0.950 . S
C483 C484 1.443 . S
C483 N487 1.376 . S
C483 C521 1.389 . S
C484 C483 1.443 . S
C484 C485 1.340 . S
C484 H524 0.951 . S
C485 C484 1.340 . S
C485 C486 1.439 . S
C485 H525 0.950 . S
C486 C485 1.439 . S
C486 N487 1.374 . S
C486 C520 1.395 1_554 S
N487 C483 1.376 . S
N487 C486 1.374 . S
N487 Co488 2.008 . S
Co488 N487 2.008 . S
Co488 N489 1.995 1_554 S
Co488 N494 2.008 1_554 S
Co488 N499 1.995 . S
Co488 N504 2.282 . S
Co488 N510 2.282 1_554 S
N489 Co488 1.995 1_556 S
N489 C490 1.376 . S
N489 C493 1.383 . S
C490 N489 1.376 . S
C490 C491 1.446 . S
C490 C520 1.391 . S
C491 C490 1.446 . S
C491 C492 1.339 . S
C491 H526 0.949 . S
C492 C491 1.339 . S
C492 C493 1.439 . S
C492 H527 0.950 . S
C493 N489 1.383 . S
C493 C492 1.439 . S
C493 C522 1.392 . S
N494 Co488 2.008 1_556 S
N494 C495 1.376 . S
N494 C498 1.374 1_556 S
C495 N494 1.376 . S
C495 C496 1.443 . S
C495 C522 1.389 . S
C496 C495 1.443 . S
C496 C497 1.340 . S
C496 H528 0.951 . S
C497 C496 1.340 . S
C497 C498 1.439 1_556 S
C497 H529 0.950 . S
C498 N494 1.374 1_554 S
C498 C497 1.439 1_554 S
C498 C523 1.395 . S
N499 Co488 1.995 . S
N499 C500 1.376 . S
N499 C503 1.383 . S
C500 N499 1.376 . S
C500 C501 1.446 . S
C500 C523 1.391 . S
C501 C500 1.446 . S
C501 C502 1.339 . S
C501 H530 0.949 . S
C502 C501 1.339 . S
C502 C503 1.439 . S
C502 H531 0.950 . S
C503 N499 1.383 . S
C503 C502 1.439 . S
C503 C521 1.392 . S
N504 Co488 2.282 . S
N504 C507 1.332 . S
N504 C509 1.332 . S
C505 C506 1.386 . S
C505 C508 1.388 . S
C506 C505 1.386 . S
C506 C507 1.382 . S
C506 H532 0.950 . S
C507 N504 1.332 . S
C507 C506 1.382 . S
C507 H518 0.952 . S
C508 C505 1.388 . S
C508 C509 1.382 . S
C508 H533 0.950 . S
C509 N504 1.332 . S
C509 C508 1.382 . S
C509 H519 0.948 . S
N510 Co488 2.282 1_556 S
N510 C514 1.332 . S
N510 C515 1.332 . S
C511 C512 1.388 . S
C511 C515 1.382 . S
C511 H534 0.950 . S
C512 C511 1.388 . S
C512 C513 1.386 . S
C513 C512 1.386 . S
C513 C514 1.382 . S
C513 H535 0.950 . S
C514 N510 1.332 . S
C514 C513 1.382 . S
C514 H516 0.952 . S
C515 N510 1.332 . S
C515 C511 1.382 . S
C515 H517 0.948 . S
H516 C514 0.952 . S
H517 C515 0.948 . S
H518 C507 0.952 . S
H519 C509 0.948 . S
C520 C486 1.395 1_556 S
C520 C490 1.391 . S
C521 C483 1.389 . S
C521 C503 1.392 . S
C522 C493 1.392 . S
C522 C495 1.389 . S
C523 C498 1.395 . S
C523 C500 1.391 . S
H524 C484 0.951 . S
H525 C485 0.950 . S
H526 C491 0.949 . S
H527 C492 0.950 . S
H528 C496 0.951 . S
H529 C497 0.950 . S
H530 C501 0.949 . S
H531 C502 0.950 . S
H532 C506 0.950 . S
H533 C508 0.950 . S
H534 C511 0.950 . S
H535 C513 0.950 . S
H536 C542 0.930 . S
H537 C546 0.930 . S
H538 C551 0.929 . S
H539 C549 0.929 . S
H540 C544 0.929 . S
H541 C550 0.929 . S
C542 H536 0.930 . S
C542 C543 1.367 . S
C542 C550 1.378 . S
C543 C542 1.367 . S
C543 C551 1.433 . S
C544 H540 0.929 . S
C544 C546 1.378 . S
C544 C548 1.350 . S
C545 C548 1.463 . S
C545 C550 1.350 . S
C545 N553 1.427 . S
C546 H537 0.930 . S
C546 C544 1.378 . S
C546 C547 1.367 . S
C547 C546 1.367 . S
C547 C549 1.433 . S
C548 C544 1.350 . S
C548 C545 1.463 . S
C548 N552 1.427 . S
C549 H539 0.929 . S
C549 C547 1.433 . S
C549 N552 1.384 . S
C550 H541 0.929 . S
C550 C542 1.378 . S
C550 C545 1.350 . S
C551 H538 0.929 . S
C551 C543 1.433 . S
C551 N553 1.384 . S
N552 C548 1.427 . S
N552 C549 1.384 . S
N553 C545 1.427 . S
N553 C551 1.384 . S
H554 C560 0.930 . S
H555 C564 0.930 . S
H556 C569 0.929 . S
H557 C567 0.929 . S
H558 C562 0.929 . S
H559 C568 0.929 . S
C560 H554 0.930 . S
C560 C561 1.367 . S
C560 C568 1.378 . S
C561 C560 1.367 . S
C561 C569 1.433 . S
C562 H558 0.929 . S
C562 C564 1.378 . S
C562 C566 1.350 . S
C563 C566 1.463 . S
C563 C568 1.350 . S
C563 N571 1.427 . S
C564 H555 0.930 . S
C564 C562 1.378 . S
C564 C565 1.367 . S
C565 C564 1.367 . S
C565 C567 1.433 . S
C566 C562 1.350 . S
C566 C563 1.463 . S
C566 N570 1.427 . S
C567 H557 0.929 . S
C567 C565 1.433 . S
C567 N570 1.384 . S
C568 H559 0.929 . S
C568 C560 1.378 . S
C568 C563 1.350 . S
C569 H556 0.929 . S
C569 C561 1.433 . S
C569 N571 1.384 . S
N570 C566 1.427 . S
N570 C567 1.384 . S
N571 C563 1.427 . S
N571 C569 1.384 . S
H572 C578 0.930 . S
H573 C582 0.930 . S
H574 C587 0.929 . S
H575 C585 0.929 . S
H576 C580 0.929 . S
H577 C586 0.929 . S
C578 H572 0.930 . S
C578 C579 1.367 . S
C578 C586 1.378 . S
C579 C578 1.367 . S
C579 C587 1.433 . S
C580 H576 0.929 . S
C580 C582 1.378 . S
C580 C584 1.350 . S
C581 C584 1.463 . S
C581 C586 1.350 . S
C581 N589 1.427 . S
C582 H573 0.930 . S
C582 C580 1.378 . S
C582 C583 1.367 . S
C583 C582 1.367 . S
C583 C585 1.433 . S
C584 C580 1.350 . S
C584 C581 1.463 . S
C584 N588 1.427 . S
C585 H575 0.929 . S
C585 C583 1.433 . S
C585 N588 1.384 . S
C586 H577 0.929 . S
C586 C578 1.378 . S
C586 C581 1.350 . S
C587 H574 0.929 . S
C587 C579 1.433 . S
C587 N589 1.384 . S
N588 C584 1.427 . S
N588 C585 1.384 . S
N589 C581 1.427 . S
N589 C587 1.384 . S
H590 C596 0.930 . S
H591 C600 0.930 . S
H592 C605 0.929 . S
H593 C603 0.929 . S
H594 C598 0.929 . S
H595 C604 0.929 . S
C596 H590 0.930 . S
C596 C597 1.367 . S
C596 C604 1.378 . S
C597 C596 1.367 . S
C597 C605 1.433 . S
C598 H594 0.929 . S
C598 C600 1.378 . S
C598 C602 1.350 . S
C599 C602 1.463 . S
C599 C604 1.350 . S
C599 N607 1.427 . S
C600 H591 0.930 . S
C600 C598 1.378 . S
C600 C601 1.367 . S
C601 C600 1.367 . S
C601 C603 1.433 . S
C602 C598 1.350 . S
C602 C599 1.463 . S
C602 N606 1.427 . S
C603 H593 0.929 . S
C603 C601 1.433 . S
C603 N606 1.384 . S
C604 H595 0.929 . S
C604 C596 1.378 . S
C604 C599 1.350 . S
C605 H592 0.929 . S
C605 C597 1.433 . S
C605 N607 1.384 . S
N606 C602 1.427 . S
N606 C603 1.384 . S
N607 C599 1.427 . S
N607 C605 1.384 . S
H608 C614 0.930 . S
H609 C618 0.930 . S
H610 C623 0.929 . S
H611 C621 0.929 . S
H612 C616 0.929 . S
H613 C622 0.929 . S
C614 H608 0.930 . S
C614 C615 1.367 . S
C614 C622 1.378 . S
C615 C614 1.367 . S
C615 C623 1.433 . S
C616 H612 0.929 . S
C616 C618 1.378 . S
C616 C620 1.350 . S
C617 C620 1.463 . S
C617 C622 1.350 . S
C617 N625 1.427 . S
C618 H609 0.930 . S
C618 C616 1.378 . S
C618 C619 1.367 . S
C619 C618 1.367 . S
C619 C621 1.433 . S
C620 C616 1.350 . S
C620 C617 1.463 . S
C620 N624 1.427 . S
C621 H611 0.929 . S
C621 C619 1.433 . S
C621 N624 1.384 . S
C622 H613 0.929 . S
C622 C614 1.378 . S
C622 C617 1.350 . S
C623 H610 0.929 . S
C623 C615 1.433 . S
C623 N625 1.384 . S
N624 C620 1.427 . S
N624 C621 1.384 . S
N625 C617 1.427 . S
N625 C623 1.384 . S
H626 C632 0.930 . S
H627 C636 0.930 . S
H628 C641 0.929 . S
H629 C639 0.929 . S
H630 C634 0.929 . S
H631 C640 0.929 . S
C632 H626 0.930 . S
C632 C633 1.367 . S
C632 C640 1.378 . S
C633 C632 1.367 . S
C633 C641 1.433 . S
C634 H630 0.929 . S
C634 C636 1.378 . S
C634 C638 1.350 . S
C635 C638 1.463 . S
C635 C640 1.350 . S
C635 N643 1.427 . S
C636 H627 0.930 . S
C636 C634 1.378 . S
C636 C637 1.367 . S
C637 C636 1.367 . S
C637 C639 1.433 . S
C638 C634 1.350 . S
C638 C635 1.463 . S
C638 N642 1.427 . S
C639 H629 0.929 . S
C639 C637 1.433 . S
C639 N642 1.384 . S
C640 H631 0.929 . S
C640 C632 1.378 . S
C640 C635 1.350 . S
C641 H628 0.929 . S
C641 C633 1.433 . S
C641 N643 1.384 . S
N642 C638 1.427 . S
N642 C639 1.384 . S
N643 C635 1.427 . S
N643 C641 1.384 . S
H644 C650 0.930 . S
H645 C654 0.930 . S
H646 C659 0.929 . S
H647 C657 0.929 . S
H648 C652 0.929 . S
H649 C658 0.929 . S
C650 H644 0.930 . S
C650 C651 1.367 . S
C650 C658 1.378 . S
C651 C650 1.367 . S
C651 C659 1.433 . S
C652 H648 0.929 . S
C652 C654 1.378 . S
C652 C656 1.350 . S
C653 C656 1.463 . S
C653 C658 1.350 . S
C653 N661 1.427 . S
C654 H645 0.930 . S
C654 C652 1.378 . S
C654 C655 1.367 . S
C655 C654 1.367 . S
C655 C657 1.433 . S
C656 C652 1.350 . S
C656 C653 1.463 . S
C656 N660 1.427 . S
C657 H647 0.929 . S
C657 C655 1.433 . S
C657 N660 1.384 . S
C658 H649 0.929 . S
C658 C650 1.378 . S
C658 C653 1.350 . S
C659 H646 0.929 . S
C659 C651 1.433 . S
C659 N661 1.384 . S
N660 C656 1.427 . S
N660 C657 1.384 . S
N661 C653 1.427 . S
N661 C659 1.384 . S
H662 C668 0.930 . S
H663 C672 0.930 . S
H664 C677 0.929 . S
H665 C675 0.929 . S
H666 C670 0.929 . S
H667 C676 0.929 . S
C668 H662 0.930 . S
C668 C669 1.367 . S
C668 C676 1.378 . S
C669 C668 1.367 . S
C669 C677 1.433 . S
C670 H666 0.929 . S
C670 C672 1.378 . S
C670 C674 1.350 . S
C671 C674 1.463 . S
C671 C676 1.350 . S
C671 N679 1.427 . S
C672 H663 0.930 . S
C672 C670 1.378 . S
C672 C673 1.367 . S
C673 C672 1.367 . S
C673 C675 1.433 . S
C674 C670 1.350 . S
C674 C671 1.463 . S
C674 N678 1.427 . S
C675 H665 0.929 . S
C675 C673 1.433 . S
C675 N678 1.384 . S
C676 H667 0.929 . S
C676 C668 1.378 . S
C676 C671 1.350 . S
C677 H664 0.929 . S
C677 C669 1.433 . S
C677 N679 1.384 . S
N678 C674 1.427 . S
N678 C675 1.384 . S
N679 C671 1.427 . S
N679 C677 1.384 . S
H680 C686 0.930 . S
H681 C690 0.930 . S
H682 C695 0.929 . S
H683 C693 0.929 . S
H684 C688 0.929 . S
H685 C694 0.929 . S
C686 H680 0.930 . S
C686 C687 1.367 . S
C686 C694 1.378 . S
C687 C686 1.367 . S
C687 C695 1.433 . S
C688 H684 0.929 . S
C688 C690 1.378 . S
C688 C692 1.350 . S
C689 C692 1.463 . S
C689 C694 1.350 . S
C689 N697 1.427 . S
C690 H681 0.930 . S
C690 C688 1.378 . S
C690 C691 1.367 . S
C691 C690 1.367 . S
C691 C693 1.433 . S
C692 C688 1.350 . S
C692 C689 1.463 . S
C692 N696 1.427 . S
C693 H683 0.929 . S
C693 C691 1.433 . S
C693 N696 1.384 . S
C694 H685 0.929 . S
C694 C686 1.378 . S
C694 C689 1.350 . S
C695 H682 0.929 . S
C695 C687 1.433 . S
C695 N697 1.384 . S
N696 C692 1.427 . S
N696 C693 1.384 . S
N697 C689 1.427 . S
N697 C695 1.384 . S
H698 C704 0.930 . S
H699 C708 0.930 . S
H700 C713 0.929 . S
H701 C711 0.929 . S
H702 C706 0.929 . S
H703 C712 0.929 . S
C704 H698 0.930 . S
C704 C705 1.367 . S
C704 C712 1.378 . S
C705 C704 1.367 . S
C705 C713 1.433 . S
C706 H702 0.929 . S
C706 C708 1.378 . S
C706 C710 1.350 . S
C707 C710 1.463 . S
C707 C712 1.350 . S
C707 N715 1.427 . S
C708 H699 0.930 . S
C708 C706 1.378 . S
C708 C709 1.367 . S
C709 C708 1.367 . S
C709 C711 1.433 . S
C710 C706 1.350 . S
C710 C707 1.463 . S
C710 N714 1.427 . S
C711 H701 0.929 . S
C711 C709 1.433 . S
C711 N714 1.384 . S
C712 H703 0.929 . S
C712 C704 1.378 . S
C712 C707 1.350 . S
C713 H700 0.929 . S
C713 C705 1.433 . S
C713 N715 1.384 . S
N714 C710 1.427 . S
N714 C711 1.384 . S
N715 C707 1.427 . S
N715 C713 1.384 . S
H716 C722 0.930 . S
H717 C726 0.930 . S
H718 C731 0.929 . S
H719 C729 0.929 . S
H720 C724 0.929 . S
H721 C730 0.929 . S
C722 H716 0.930 . S
C722 C723 1.367 . S
C722 C730 1.378 . S
C723 C722 1.367 . S
C723 C731 1.433 . S
C724 H720 0.929 . S
C724 C726 1.378 . S
C724 C728 1.350 . S
C725 C728 1.463 . S
C725 C730 1.350 . S
C725 N733 1.427 . S
C726 H717 0.930 . S
C726 C724 1.378 . S
C726 C727 1.367 . S
C727 C726 1.367 . S
C727 C729 1.433 . S
C728 C724 1.350 . S
C728 C725 1.463 . S
C728 N732 1.427 . S
C729 H719 0.929 . S
C729 C727 1.433 . S
C729 N732 1.384 . S
C730 H721 0.929 . S
C730 C722 1.378 . S
C730 C725 1.350 . S
C731 H718 0.929 . S
C731 C723 1.433 . S
C731 N733 1.384 . S
N732 C728 1.427 . S
N732 C729 1.384 . S
N733 C725 1.427 . S
N733 C731 1.384 . S
H734 C740 0.930 . S
H735 C744 0.930 . S
H736 C749 0.929 . S
H737 C747 0.929 . S
H738 C742 0.929 . S
H739 C748 0.929 . S
C740 H734 0.930 . S
C740 C741 1.367 . S
C740 C748 1.378 . S
C741 C740 1.367 . S
C741 C749 1.433 . S
C742 H738 0.929 . S
C742 C744 1.378 . S
C742 C746 1.350 . S
C743 C746 1.463 . S
C743 C748 1.350 . S
C743 N751 1.427 . S
C744 H735 0.930 . S
C744 C742 1.378 . S
C744 C745 1.367 . S
C745 C744 1.367 . S
C745 C747 1.433 . S
C746 C742 1.350 . S
C746 C743 1.463 . S
C746 N750 1.427 . S
C747 H737 0.929 . S
C747 C745 1.433 . S
C747 N750 1.384 . S
C748 H739 0.929 . S
C748 C740 1.378 . S
C748 C743 1.350 . S
C749 H736 0.929 . S
C749 C741 1.433 . S
C749 N751 1.384 . S
N750 C746 1.427 . S
N750 C747 1.384 . S
N751 C743 1.427 . S
N751 C749 1.384 . S
H752 C758 0.930 . S
H753 C762 0.930 . S
H754 C767 0.929 . S
H755 C765 0.929 . S
H756 C760 0.929 . S
H757 C766 0.929 . S
C758 H752 0.930 . S
C758 C759 1.367 . S
C758 C766 1.378 . S
C759 C758 1.367 . S
C759 C767 1.433 . S
C760 H756 0.929 . S
C760 C762 1.378 . S
C760 C764 1.350 . S
C761 C764 1.463 . S
C761 C766 1.350 . S
C761 N769 1.427 . S
C762 H753 0.930 . S
C762 C760 1.378 . S
C762 C763 1.367 . S
C763 C762 1.367 . S
C763 C765 1.433 . S
C764 C760 1.350 . S
C764 C761 1.463 . S
C764 N768 1.427 . S
C765 H755 0.929 . S
C765 C763 1.433 . S
C765 N768 1.384 . S
C766 H757 0.929 . S
C766 C758 1.378 . S
C766 C761 1.350 . S
C767 H754 0.929 . S
C767 C759 1.433 . S
C767 N769 1.384 . S
N768 C764 1.427 . S
N768 C765 1.384 . S
N769 C761 1.427 . S
N769 C767 1.384 . S
H770 C776 0.930 . S
H771 C780 0.930 . S
H772 C785 0.929 . S
H773 C783 0.929 . S
H774 C778 0.929 . S
H775 C784 0.929 . S
C776 H770 0.930 . S
C776 C777 1.367 . S
C776 C784 1.378 . S
C777 C776 1.367 . S
C777 C785 1.433 . S
C778 H774 0.929 . S
C778 C780 1.378 . S
C778 C782 1.350 . S
C779 C782 1.463 . S
C779 C784 1.350 . S
C779 N787 1.427 . S
C780 H771 0.930 . S
C780 C778 1.378 . S
C780 C781 1.367 . S
C781 C780 1.367 . S
C781 C783 1.433 . S
C782 C778 1.350 . S
C782 C779 1.463 . S
C782 N786 1.427 . S
C783 H773 0.929 . S
C783 C781 1.433 . S
C783 N786 1.384 . S
C784 H775 0.929 . S
C784 C776 1.378 . S
C784 C779 1.350 . S
C785 H772 0.929 . S
C785 C777 1.433 . S
C785 N787 1.384 . S
N786 C782 1.427 . S
N786 C783 1.384 . S
N787 C779 1.427 . S
N787 C785 1.384 . S
H788 C794 0.930 . S
H789 C798 0.930 . S
H790 C803 0.929 . S
H791 C801 0.929 . S
H792 C796 0.929 . S
H793 C802 0.929 . S
C794 H788 0.930 . S
C794 C795 1.367 . S
C794 C802 1.378 . S
C795 C794 1.367 . S
C795 C803 1.433 . S
C796 H792 0.929 . S
C796 C798 1.378 . S
C796 C800 1.350 . S
C797 C800 1.463 . S
C797 C802 1.350 . S
C797 N805 1.427 . S
C798 H789 0.930 . S
C798 C796 1.378 . S
C798 C799 1.367 . S
C799 C798 1.367 . S
C799 C801 1.433 . S
C800 C796 1.350 . S
C800 C797 1.463 . S
C800 N804 1.427 . S
C801 H791 0.929 . S
C801 C799 1.433 . S
C801 N804 1.384 . S
C802 H793 0.929 . S
C802 C794 1.378 . S
C802 C797 1.350 . S
C803 H790 0.929 . S
C803 C795 1.433 . S
C803 N805 1.384 . S
N804 C800 1.427 . S
N804 C801 1.384 . S
N805 C797 1.427 . S
N805 C803 1.384 . S
H806 C812 0.930 . S
H807 C816 0.930 . S
H808 C821 0.929 . S
H809 C819 0.929 . S
H810 C814 0.929 . S
H811 C820 0.929 . S
C812 H806 0.930 . S
C812 C813 1.367 . S
C812 C820 1.378 . S
C813 C812 1.367 . S
C813 C821 1.433 . S
C814 H810 0.929 . S
C814 C816 1.378 . S
C814 C818 1.350 . S
C815 C818 1.463 . S
C815 C820 1.350 . S
C815 N823 1.427 . S
C816 H807 0.930 . S
C816 C814 1.378 . S
C816 C817 1.367 . S
C817 C816 1.367 . S
C817 C819 1.433 . S
C818 C814 1.350 . S
C818 C815 1.463 . S
C818 N822 1.427 . S
C819 H809 0.929 . S
C819 C817 1.433 . S
C819 N822 1.384 . S
C820 H811 0.929 . S
C820 C812 1.378 . S
C820 C815 1.350 . S
C821 H808 0.929 . S
C821 C813 1.433 . S
C821 N823 1.384 . S
N822 C818 1.427 . S
N822 C819 1.384 . S
N823 C815 1.427 . S
N823 C821 1.384 . S
H824 C830 0.930 . S
H825 C834 0.930 . S
H826 C839 0.929 . S
H827 C837 0.929 . S
H828 C832 0.929 . S
H829 C838 0.929 . S
C830 H824 0.930 . S
C830 C831 1.367 . S
C830 C838 1.378 . S
C831 C830 1.367 . S
C831 C839 1.433 . S
C832 H828 0.929 . S
C832 C834 1.378 . S
C832 C836 1.350 . S
C833 C836 1.463 . S
C833 C838 1.350 . S
C833 N841 1.427 . S
C834 H825 0.930 . S
C834 C832 1.378 . S
C834 C835 1.367 . S
C835 C834 1.367 . S
C835 C837 1.433 . S
C836 C832 1.350 . S
C836 C833 1.463 . S
C836 N840 1.427 . S
C837 H827 0.929 . S
C837 C835 1.433 . S
C837 N840 1.384 . S
C838 H829 0.929 . S
C838 C830 1.378 . S
C838 C833 1.350 . S
C839 H826 0.929 . S
C839 C831 1.433 . S
C839 N841 1.384 . S
N840 C836 1.427 . S
N840 C837 1.384 . S
N841 C833 1.427 . S
N841 C839 1.384 . S
H842 C848 0.930 . S
H843 C852 0.930 . S
H844 C857 0.929 . S
H845 C855 0.929 . S
H846 C850 0.929 . S
H847 C856 0.929 . S
C848 H842 0.930 . S
C848 C849 1.367 . S
C848 C856 1.378 . S
C849 C848 1.367 . S
C849 C857 1.433 . S
C850 H846 0.929 . S
C850 C852 1.378 . S
C850 C854 1.350 . S
C851 C854 1.463 . S
C851 C856 1.350 . S
C851 N859 1.427 . S
C852 H843 0.930 . S
C852 C850 1.378 . S
C852 C853 1.367 . S
C853 C852 1.367 . S
C853 C855 1.433 . S
C854 C850 1.350 . S
C854 C851 1.463 . S
C854 N858 1.427 . S
C855 H845 0.929 . S
C855 C853 1.433 . S
C855 N858 1.384 . S
C856 H847 0.929 . S
C856 C848 1.378 . S
C856 C851 1.350 . S
C857 H844 0.929 . S
C857 C849 1.433 . S
C857 N859 1.384 . S
N858 C854 1.427 . S
N858 C855 1.384 . S
N859 C851 1.427 . S
N859 C857 1.384 . S
H860 C866 0.930 . S
H861 C870 0.930 . S
H862 C875 0.929 . S
H863 C873 0.929 . S
H864 C868 0.929 . S
H865 C874 0.929 . S
C866 H860 0.930 . S
C866 C867 1.367 . S
C866 C874 1.378 . S
C867 C866 1.367 . S
C867 C875 1.433 . S
C868 H864 0.929 . S
C868 C870 1.378 . S
C868 C872 1.350 . S
C869 C872 1.463 . S
C869 C874 1.350 . S
C869 N877 1.427 . S
C870 H861 0.930 . S
C870 C868 1.378 . S
C870 C871 1.367 . S
C871 C870 1.367 . S
C871 C873 1.433 . S
C872 C868 1.350 . S
C872 C869 1.463 . S
C872 N876 1.427 . S
C873 H863 0.929 . S
C873 C871 1.433 . S
C873 N876 1.384 . S
C874 H865 0.929 . S
C874 C866 1.378 . S
C874 C869 1.350 . S
C875 H862 0.929 . S
C875 C867 1.433 . S
C875 N877 1.384 . S
N876 C872 1.427 . S
N876 C873 1.384 . S
N877 C869 1.427 . S
N877 C875 1.384 . S
H878 C884 0.930 . S
H879 C888 0.930 . S
H880 C893 0.929 . S
H881 C891 0.929 . S
H882 C886 0.929 . S
H883 C892 0.929 . S
C884 H878 0.930 . S
C884 C885 1.367 . S
C884 C892 1.378 . S
C885 C884 1.367 . S
C885 C893 1.433 . S
C886 H882 0.929 . S
C886 C888 1.378 . S
C886 C890 1.350 . S
C887 C890 1.463 . S
C887 C892 1.350 . S
C887 N895 1.427 . S
C888 H879 0.930 . S
C888 C886 1.378 . S
C888 C889 1.367 . S
C889 C888 1.367 . S
C889 C891 1.433 . S
C890 C886 1.350 . S
C890 C887 1.463 . S
C890 N894 1.427 . S
C891 H881 0.929 . S
C891 C889 1.433 . S
C891 N894 1.384 . S
C892 H883 0.929 . S
C892 C884 1.378 . S
C892 C887 1.350 . S
C893 H880 0.929 . S
C893 C885 1.433 . S
C893 N895 1.384 . S
N894 C890 1.427 . S
N894 C891 1.384 . S
N895 C887 1.427 . S
N895 C893 1.384 . S
H896 C902 0.930 . S
H897 C906 0.930 . S
H898 C911 0.929 . S
H899 C909 0.929 . S
H900 C904 0.929 . S
H901 C910 0.929 . S
C902 H896 0.930 . S
C902 C903 1.367 . S
C902 C910 1.378 . S
C903 C902 1.367 . S
C903 C911 1.433 . S
C904 H900 0.929 . S
C904 C906 1.378 . S
C904 C908 1.350 . S
C905 C908 1.463 . S
C905 C910 1.350 . S
C905 N913 1.427 . S
C906 H897 0.930 . S
C906 C904 1.378 . S
C906 C907 1.367 . S
C907 C906 1.367 . S
C907 C909 1.433 . S
C908 C904 1.350 . S
C908 C905 1.463 . S
C908 N912 1.427 . S
C909 H899 0.929 . S
C909 C907 1.433 . S
C909 N912 1.384 . S
C910 H901 0.929 . S
C910 C902 1.378 . S
C910 C905 1.350 . S
C911 H898 0.929 . S
C911 C903 1.433 . S
C911 N913 1.384 . S
N912 C908 1.427 . S
N912 C909 1.384 . S
N913 C905 1.427 . S
N913 C911 1.384 . S
H914 C920 0.930 . S
H915 C924 0.930 . S
H916 C929 0.929 . S
H917 C927 0.929 . S
H918 C922 0.929 . S
H919 C928 0.929 . S
C920 H914 0.930 . S
C920 C921 1.367 . S
C920 C928 1.378 . S
C921 C920 1.367 . S
C921 C929 1.433 . S
C922 H918 0.929 . S
C922 C924 1.378 . S
C922 C926 1.350 . S
C923 C926 1.463 . S
C923 C928 1.350 . S
C923 N931 1.427 . S
C924 H915 0.930 . S
C924 C922 1.378 . S
C924 C925 1.367 . S
C925 C924 1.367 . S
C925 C927 1.433 . S
C926 C922 1.350 . S
C926 C923 1.463 . S
C926 N930 1.427 . S
C927 H917 0.929 . S
C927 C925 1.433 . S
C927 N930 1.384 . S
C928 H919 0.929 . S
C928 C920 1.378 . S
C928 C923 1.350 . S
C929 H916 0.929 . S
C929 C921 1.433 . S
C929 N931 1.384 . S
N930 C926 1.427 . S
N930 C927 1.384 . S
N931 C923 1.427 . S
N931 C929 1.384 . S
H932 C938 0.930 . S
H933 C942 0.930 . S
H934 C947 0.929 . S
H935 C945 0.929 . S
H936 C940 0.929 . S
H937 C946 0.929 . S
C938 H932 0.930 . S
C938 C939 1.367 . S
C938 C946 1.378 . S
C939 C938 1.367 . S
C939 C947 1.433 . S
C940 H936 0.929 . S
C940 C942 1.378 . S
C940 C944 1.350 . S
C941 C944 1.463 . S
C941 C946 1.350 . S
C941 N949 1.427 . S
C942 H933 0.930 . S
C942 C940 1.378 . S
C942 C943 1.367 . S
C943 C942 1.367 . S
C943 C945 1.433 . S
C944 C940 1.350 . S
C944 C941 1.463 . S
C944 N948 1.427 . S
C945 H935 0.929 . S
C945 C943 1.433 . S
C945 N948 1.384 . S
C946 H937 0.929 . S
C946 C938 1.378 . S
C946 C941 1.350 . S
C947 H934 0.929 . S
C947 C939 1.433 . S
C947 N949 1.384 . S
N948 C944 1.427 . S
N948 C945 1.384 . S
N949 C941 1.427 . S
N949 C947 1.384 . S
H950 C956 0.930 . S
H951 C960 0.930 . S
H952 C965 0.929 . S
H953 C963 0.929 . S
H954 C958 0.929 . S
H955 C964 0.929 . S
C956 H950 0.930 . S
C956 C957 1.367 . S
C956 C964 1.378 . S
C957 C956 1.367 . S
C957 C965 1.433 . S
C958 H954 0.929 . S
C958 C960 1.378 . S
C958 C962 1.350 . S
C959 C962 1.463 . S
C959 C964 1.350 . S
C959 N967 1.427 . S
C960 H951 0.930 . S
C960 C958 1.378 . S
C960 C961 1.367 . S
C961 C960 1.367 . S
C961 C963 1.433 . S
C962 C958 1.350 . S
C962 C959 1.463 . S
C962 N966 1.427 . S
C963 H953 0.929 . S
C963 C961 1.433 . S
C963 N966 1.384 . S
C964 H955 0.929 . S
C964 C956 1.378 . S
C964 C959 1.350 . S
C965 H952 0.929 . S
C965 C957 1.433 . S
C965 N967 1.384 . S
N966 C962 1.427 . S
N966 C963 1.384 . S
N967 C959 1.427 . S
N967 C965 1.384 . S
H968 C974 0.930 . S
H969 C978 0.930 . S
H970 C983 0.929 . S
H971 C981 0.929 . S
H972 C976 0.929 . S
H973 C982 0.929 . S
C974 H968 0.930 . S
C974 C975 1.367 . S
C974 C982 1.378 . S
C975 C974 1.367 . S
C975 C983 1.433 . S
C976 H972 0.929 . S
C976 C978 1.378 . S
C976 C980 1.350 . S
C977 C980 1.463 . S
C977 C982 1.350 . S
C977 N985 1.427 . S
C978 H969 0.930 . S
C978 C976 1.378 . S
C978 C979 1.367 . S
C979 C978 1.367 . S
C979 C981 1.433 . S
C980 C976 1.350 . S
C980 C977 1.463 . S
C980 N984 1.427 . S
C981 H971 0.929 . S
C981 C979 1.433 . S
C981 N984 1.384 . S
C982 H973 0.929 . S
C982 C974 1.378 . S
C982 C977 1.350 . S
C983 H970 0.929 . S
C983 C975 1.433 . S
C983 N985 1.384 . S
N984 C980 1.427 . S
N984 C981 1.384 . S
N985 C977 1.427 . S
N985 C983 1.384 . S
H986 C992 0.930 . S
H987 C996 0.930 . S
H988 C1001 0.929 . S
H989 C999 0.929 . S
H990 C994 0.929 . S
H991 C1000 0.929 . S
C992 H986 0.930 . S
C992 C993 1.367 . S
C992 C1000 1.378 . S
C993 C992 1.367 . S
C993 C1001 1.433 . S
C994 H990 0.929 . S
C994 C996 1.378 . S
C994 C998 1.350 . S
C995 C998 1.463 . S
C995 C1000 1.350 . S
C995 N1003 1.427 . S
C996 H987 0.930 . S
C996 C994 1.378 . S
C996 C997 1.367 . S
C997 C996 1.367 . S
C997 C999 1.433 . S
C998 C994 1.350 . S
C998 C995 1.463 . S
C998 N1002 1.427 . S
C999 H989 0.929 . S
C999 C997 1.433 . S
C999 N1002 1.384 . S
C1000 H991 0.929 . S
C1000 C992 1.378 . S
C1000 C995 1.350 . S
C1001 H988 0.929 . S
C1001 C993 1.433 . S
C1001 N1003 1.384 . S
N1002 C998 1.427 . S
N1002 C999 1.384 . S
N1003 C995 1.427 . S
N1003 C1001 1.384 . S
H1004 C1010 0.930 . S
H1005 C1014 0.930 . S
H1006 C1019 0.929 . S
H1007 C1017 0.929 . S
H1008 C1012 0.929 . S
H1009 C1018 0.929 . S
C1010 H1004 0.930 . S
C1010 C1011 1.367 . S
C1010 C1018 1.378 . S
C1011 C1010 1.367 . S
C1011 C1019 1.433 . S
C1012 H1008 0.929 . S
C1012 C1014 1.378 . S
C1012 C1016 1.350 . S
C1013 C1016 1.463 . S
C1013 C1018 1.350 . S
C1013 N1021 1.427 . S
C1014 H1005 0.930 . S
C1014 C1012 1.378 . S
C1014 C1015 1.367 . S
C1015 C1014 1.367 . S
C1015 C1017 1.433 . S
C1016 C1012 1.350 . S
C1016 C1013 1.463 . S
C1016 N1020 1.427 . S
C1017 H1007 0.929 . S
C1017 C1015 1.433 . S
C1017 N1020 1.384 . S
C1018 H1009 0.929 . S
C1018 C1010 1.378 . S
C1018 C1013 1.350 . S
C1019 H1006 0.929 . S
C1019 C1011 1.433 . S
C1019 N1021 1.384 . S
N1020 C1016 1.427 . S
N1020 C1017 1.384 . S
N1021 C1013 1.427 . S
N1021 C1019 1.384 . S
H1022 C1028 0.930 . S
H1023 C1032 0.930 . S
H1024 C1037 0.929 . S
H1025 C1035 0.929 . S
H1026 C1030 0.929 . S
H1027 C1036 0.929 . S
C1028 H1022 0.930 . S
C1028 C1029 1.367 . S
C1028 C1036 1.378 . S
C1029 C1028 1.367 . S
C1029 C1037 1.433 . S
C1030 H1026 0.929 . S
C1030 C1032 1.378 . S
C1030 C1034 1.350 . S
C1031 C1034 1.463 . S
C1031 C1036 1.350 . S
C1031 N1039 1.427 . S
C1032 H1023 0.930 . S
C1032 C1030 1.378 . S
C1032 C1033 1.367 . S
C1033 C1032 1.367 . S
C1033 C1035 1.433 . S
C1034 C1030 1.350 . S
C1034 C1031 1.463 . S
C1034 N1038 1.427 . S
C1035 H1025 0.929 . S
C1035 C1033 1.433 . S
C1035 N1038 1.384 . S
C1036 H1027 0.929 . S
C1036 C1028 1.378 . S
C1036 C1031 1.350 . S
C1037 H1024 0.929 . S
C1037 C1029 1.433 . S
C1037 N1039 1.384 . S
N1038 C1034 1.427 . S
N1038 C1035 1.384 . S
N1039 C1031 1.427 . S
N1039 C1037 1.384 . S
H1040 C1046 0.930 . S
H1041 C1050 0.930 . S
H1042 C1055 0.929 . S
H1043 C1053 0.929 . S
H1044 C1048 0.929 . S
H1045 C1054 0.929 . S
C1046 H1040 0.930 . S
C1046 C1047 1.367 . S
C1046 C1054 1.378 . S
C1047 C1046 1.367 . S
C1047 C1055 1.433 . S
C1048 H1044 0.929 . S
C1048 C1050 1.378 . S
C1048 C1052 1.350 . S
C1049 C1052 1.463 . S
C1049 C1054 1.350 . S
C1049 N1057 1.427 . S
C1050 H1041 0.930 . S
C1050 C1048 1.378 . S
C1050 C1051 1.367 . S
C1051 C1050 1.367 . S
C1051 C1053 1.433 . S
C1052 C1048 1.350 . S
C1052 C1049 1.463 . S
C1052 N1056 1.427 . S
C1053 H1043 0.929 . S
C1053 C1051 1.433 . S
C1053 N1056 1.384 . S
C1054 H1045 0.929 . S
C1054 C1046 1.378 . S
C1054 C1049 1.350 . S
C1055 H1042 0.929 . S
C1055 C1047 1.433 . S
C1055 N1057 1.384 . S
N1056 C1052 1.427 . S
N1056 C1053 1.384 . S
N1057 C1049 1.427 . S
N1057 C1055 1.384 . S
H1058 C1064 0.930 . S
H1059 C1068 0.930 . S
H1060 C1073 0.929 . S
H1061 C1071 0.929 . S
H1062 C1066 0.929 . S
H1063 C1072 0.929 . S
C1064 H1058 0.930 . S
C1064 C1065 1.367 . S
C1064 C1072 1.378 . S
C1065 C1064 1.367 . S
C1065 C1073 1.433 . S
C1066 H1062 0.929 . S
C1066 C1068 1.378 . S
C1066 C1070 1.350 . S
C1067 C1070 1.463 . S
C1067 C1072 1.350 . S
C1067 N1075 1.427 . S
C1068 H1059 0.930 . S
C1068 C1066 1.378 . S
C1068 C1069 1.367 . S
C1069 C1068 1.367 . S
C1069 C1071 1.433 . S
C1070 C1066 1.350 . S
C1070 C1067 1.463 . S
C1070 N1074 1.427 . S
C1071 H1061 0.929 . S
C1071 C1069 1.433 . S
C1071 N1074 1.384 . S
C1072 H1063 0.929 . S
C1072 C1064 1.378 . S
C1072 C1067 1.350 . S
C1073 H1060 0.929 . S
C1073 C1065 1.433 . S
C1073 N1075 1.384 . S
N1074 C1070 1.427 . S
N1074 C1071 1.384 . S
N1075 C1067 1.427 . S
N1075 C1073 1.384 . S
H1076 C1082 0.930 . S
H1077 C1086 0.930 . S
H1078 C1091 0.929 . S
H1079 C1089 0.929 . S
H1080 C1084 0.929 . S
H1081 C1090 0.929 . S
C1082 H1076 0.930 . S
C1082 C1083 1.367 . S
C1082 C1090 1.378 . S
C1083 C1082 1.367 . S
C1083 C1091 1.433 . S
C1084 H1080 0.929 . S
C1084 C1086 1.378 . S
C1084 C1088 1.350 . S
C1085 C1088 1.463 . S
C1085 C1090 1.350 . S
C1085 N1093 1.427 . S
C1086 H1077 0.930 . S
C1086 C1084 1.378 . S
C1086 C1087 1.367 . S
C1087 C1086 1.367 . S
C1087 C1089 1.433 . S
C1088 C1084 1.350 . S
C1088 C1085 1.463 . S
C1088 N1092 1.427 . S
C1089 H1079 0.929 . S
C1089 C1087 1.433 . S
C1089 N1092 1.384 . S
C1090 H1081 0.929 . S
C1090 C1082 1.378 . S
C1090 C1085 1.350 . S
C1091 H1078 0.929 . S
C1091 C1083 1.433 . S
C1091 N1093 1.384 . S
N1092 C1088 1.427 . S
N1092 C1089 1.384 . S
N1093 C1085 1.427 . S
N1093 C1091 1.384 . S
H1094 C1100 0.930 . S
H1095 C1104 0.930 . S
H1096 C1109 0.929 . S
H1097 C1107 0.929 . S
H1098 C1102 0.929 . S
H1099 C1108 0.929 . S
C1100 H1094 0.930 . S
C1100 C1101 1.367 . S
C1100 C1108 1.378 . S
C1101 C1100 1.367 . S
C1101 C1109 1.433 . S
C1102 H1098 0.929 . S
C1102 C1104 1.378 . S
C1102 C1106 1.350 . S
C1103 C1106 1.463 . S
C1103 C1108 1.350 . S
C1103 N1111 1.427 . S
C1104 H1095 0.930 . S
C1104 C1102 1.378 . S
C1104 C1105 1.367 . S
C1105 C1104 1.367 . S
C1105 C1107 1.433 . S
C1106 C1102 1.350 . S
C1106 C1103 1.463 . S
C1106 N1110 1.427 . S
C1107 H1097 0.929 . S
C1107 C1105 1.433 . S
C1107 N1110 1.384 . S
C1108 H1099 0.929 . S
C1108 C1100 1.378 . S
C1108 C1103 1.350 . S
C1109 H1096 0.929 . S
C1109 C1101 1.433 . S
C1109 N1111 1.384 . S
N1110 C1106 1.427 . S
N1110 C1107 1.384 . S
N1111 C1103 1.427 . S
N1111 C1109 1.384 . S
C547 C141 1.511 . S
C543 C0 1.519 . S
C565 C194 1.351 . S
C561 C26 1.354 . S
C583 C257 1.602 . S
C579 C40 1.602 . S
C601 C300 1.291 . S
C597 C43 1.294 . S
C615 C57 1.603 . S
C619 C256 1.598 . S
C637 C293 1.379 . S
C633 C70 1.381 . S
C655 C134 1.516 . S
C651 C97 1.520 . S
C673 C187 1.261 . S
C669 C111 1.262 . S
C691 C240 1.482 . S
C687 C98 1.487 . S
C709 C309 1.838 . S
C705 C68 1.840 . S
C727 C150 1.590 . S
C723 C83 1.590 . S
C745 C203 1.750 . S
C741 C84 1.753 . S
C763 C151 1.572 . S
C759 C15 1.576 . S
C781 C204 1.842 . S
C777 C29 1.847 . S
C799 C247 1.498 . S
C795 C54 1.501 . S
C817 C310 1.737 . S
C813 C13 1.745 . S
C835 C353 1.473 . S
C831 C99 1.480 . S
C849 C69 1.715 . S
C853 C406 1.712 . S
C867 C82 1.649 . S
C871 C468 1.644 . S
C885 C85 1.709 . S
C889 C522 1.709 . S
C903 C14 1.562 . S
C907 C469 1.559 . S
C921 C28 1.800 . S
C925 C521 1.795 . S
C939 C55 1.557 . S
C943 C346 1.554 . S
C961 C399 1.631 . S
C957 C12 1.634 . S
C979 C459 1.454 . S
C975 C1 1.458 . S
C993 C27 1.397 . S
C997 C505 1.392 . S
C1011 C41 1.624 . S
C1015 C362 1.622 . S
C1029 C42 1.346 . S
C1033 C415 1.344 . S
C1051 C363 1.533 . S
C1047 C56 1.539 . S
C1069 C416 1.446 . S
C1065 C71 1.451 . S
C1083 C96 1.532 . S
C1087 C452 1.527 . S
C1105 C512 1.305 . S
C1101 C110 1.308 . S
