# Generated by pormake.
# Topology eea, (3,6)-cn, num edge types: 1
# Building blocks:
#     Node 0, Type 0, BuildingBlock: OLANEW_clean_sbu_2, # of connection points: 3
#     Node 1, Type 0, BuildingBlock: OLANEW_clean_sbu_2, # of connection points: 3
#     Node 2, Type 0, BuildingBlock: OLANEW_clean_sbu_2, # of connection points: 3
#     Node 3, Type 0, BuildingBlock: OLANEW_clean_sbu_2, # of connection points: 3
#     Node 4, Type 0, BuildingBlock: OLANEW_clean_sbu_2, # of connection points: 3
#     Node 5, Type 0, BuildingBlock: OLANEW_clean_sbu_2, # of connection points: 3
#     Node 6, Type 0, BuildingBlock: OLANEW_clean_sbu_2, # of connection points: 3
#     Node 7, Type 0, BuildingBlock: OLANEW_clean_sbu_2, # of connection points: 3
#     Node 8, Type 0, BuildingBlock: OLANEW_clean_sbu_2, # of connection points: 3
#     Node 9, Type 0, BuildingBlock: OLANEW_clean_sbu_2, # of connection points: 3
#     Node 10, Type 0, BuildingBlock: OLANEW_clean_sbu_2, # of connection points: 3
#     Node 11, Type 0, BuildingBlock: OLANEW_clean_sbu_2, # of connection points: 3
#     Node 12, Type 0, BuildingBlock: OLANEW_clean_sbu_2, # of connection points: 3
#     Node 13, Type 0, BuildingBlock: OLANEW_clean_sbu_2, # of connection points: 3
#     Node 14, Type 0, BuildingBlock: OLANEW_clean_sbu_2, # of connection points: 3
#     Node 15, Type 0, BuildingBlock: OLANEW_clean_sbu_2, # of connection points: 3
#     Node 16, Type 0, BuildingBlock: OLANEW_clean_sbu_2, # of connection points: 3
#     Node 17, Type 0, BuildingBlock: OLANEW_clean_sbu_2, # of connection points: 3
#     Node 18, Type 1, BuildingBlock: CUKXOW_clean_sbu_0, # of connection points: 6
#     Node 19, Type 1, BuildingBlock: CUKXOW_clean_sbu_0, # of connection points: 6
#     Node 20, Type 1, BuildingBlock: CUKXOW_clean_sbu_0, # of connection points: 6
#     Node 21, Type 1, BuildingBlock: CUKXOW_clean_sbu_0, # of connection points: 6
#     Node 22, Type 1, BuildingBlock: CUKXOW_clean_sbu_0, # of connection points: 6
#     Node 23, Type 1, BuildingBlock: CUKXOW_clean_sbu_0, # of connection points: 6
#     Node 24, Type 1, BuildingBlock: CUKXOW_clean_sbu_0, # of connection points: 6
#     Node 25, Type 1, BuildingBlock: CUKXOW_clean_sbu_0, # of connection points: 6
#     Node 26, Type 1, BuildingBlock: CUKXOW_clean_sbu_0, # of connection points: 6
#     Edge 27, Type (0, 1), BuildingBlock: AJUNOK_clean_linker_0, # of connection points: 2
#     Edge 28, Type (0, 1), BuildingBlock: AJUNOK_clean_linker_0, # of connection points: 2
#     Edge 29, Type (0, 1), BuildingBlock: AJUNOK_clean_linker_0, # of connection points: 2
#     Edge 30, Type (0, 1), BuildingBlock: AJUNOK_clean_linker_0, # of connection points: 2
#     Edge 31, Type (0, 1), BuildingBlock: AJUNOK_clean_linker_0, # of connection points: 2
#     Edge 32, Type (0, 1), BuildingBlock: AJUNOK_clean_linker_0, # of connection points: 2
#     Edge 33, Type (0, 1), BuildingBlock: AJUNOK_clean_linker_0, # of connection points: 2
#     Edge 34, Type (0, 1), BuildingBlock: AJUNOK_clean_linker_0, # of connection points: 2
#     Edge 35, Type (0, 1), BuildingBlock: AJUNOK_clean_linker_0, # of connection points: 2
#     Edge 36, Type (0, 1), BuildingBlock: AJUNOK_clean_linker_0, # of connection points: 2
#     Edge 37, Type (0, 1), BuildingBlock: AJUNOK_clean_linker_0, # of connection points: 2
#     Edge 38, Type (0, 1), BuildingBlock: AJUNOK_clean_linker_0, # of connection points: 2
#     Edge 39, Type (0, 1), BuildingBlock: AJUNOK_clean_linker_0, # of connection points: 2
#     Edge 40, Type (0, 1), BuildingBlock: AJUNOK_clean_linker_0, # of connection points: 2
#     Edge 41, Type (0, 1), BuildingBlock: AJUNOK_clean_linker_0, # of connection points: 2
#     Edge 42, Type (0, 1), BuildingBlock: AJUNOK_clean_linker_0, # of connection points: 2
#     Edge 43, Type (0, 1), BuildingBlock: AJUNOK_clean_linker_0, # of connection points: 2
#     Edge 44, Type (0, 1), BuildingBlock: AJUNOK_clean_linker_0, # of connection points: 2
#     Edge 45, Type (0, 1), BuildingBlock: AJUNOK_clean_linker_0, # of connection points: 2
#     Edge 46, Type (0, 1), BuildingBlock: AJUNOK_clean_linker_0, # of connection points: 2
#     Edge 47, Type (0, 1), BuildingBlock: AJUNOK_clean_linker_0, # of connection points: 2
#     Edge 48, Type (0, 1), BuildingBlock: AJUNOK_clean_linker_0, # of connection points: 2
#     Edge 49, Type (0, 1), BuildingBlock: AJUNOK_clean_linker_0, # of connection points: 2
#     Edge 50, Type (0, 1), BuildingBlock: AJUNOK_clean_linker_0, # of connection points: 2
#     Edge 51, Type (0, 1), BuildingBlock: AJUNOK_clean_linker_0, # of connection points: 2
#     Edge 52, Type (0, 1), BuildingBlock: AJUNOK_clean_linker_0, # of connection points: 2
#     Edge 53, Type (0, 1), BuildingBlock: AJUNOK_clean_linker_0, # of connection points: 2
#     Edge 54, Type (0, 1), BuildingBlock: AJUNOK_clean_linker_0, # of connection points: 2
#     Edge 55, Type (0, 1), BuildingBlock: AJUNOK_clean_linker_0, # of connection points: 2
#     Edge 56, Type (0, 1), BuildingBlock: AJUNOK_clean_linker_0, # of connection points: 2
#     Edge 57, Type (0, 1), BuildingBlock: AJUNOK_clean_linker_0, # of connection points: 2
#     Edge 58, Type (0, 1), BuildingBlock: AJUNOK_clean_linker_0, # of connection points: 2
#     Edge 59, Type (0, 1), BuildingBlock: AJUNOK_clean_linker_0, # of connection points: 2
#     Edge 60, Type (0, 1), BuildingBlock: AJUNOK_clean_linker_0, # of connection points: 2
#     Edge 61, Type (0, 1), BuildingBlock: AJUNOK_clean_linker_0, # of connection points: 2
#     Edge 62, Type (0, 1), BuildingBlock: AJUNOK_clean_linker_0, # of connection points: 2
#     Edge 63, Type (0, 1), BuildingBlock: AJUNOK_clean_linker_0, # of connection points: 2
#     Edge 64, Type (0, 1), BuildingBlock: AJUNOK_clean_linker_0, # of connection points: 2
#     Edge 65, Type (0, 1), BuildingBlock: AJUNOK_clean_linker_0, # of connection points: 2
#     Edge 66, Type (0, 1), BuildingBlock: AJUNOK_clean_linker_0, # of connection points: 2
#     Edge 67, Type (0, 1), BuildingBlock: AJUNOK_clean_linker_0, # of connection points: 2
#     Edge 68, Type (0, 1), BuildingBlock: AJUNOK_clean_linker_0, # of connection points: 2
#     Edge 69, Type (0, 1), BuildingBlock: AJUNOK_clean_linker_0, # of connection points: 2
#     Edge 70, Type (0, 1), BuildingBlock: AJUNOK_clean_linker_0, # of connection points: 2
#     Edge 71, Type (0, 1), BuildingBlock: AJUNOK_clean_linker_0, # of connection points: 2
#     Edge 72, Type (0, 1), BuildingBlock: AJUNOK_clean_linker_0, # of connection points: 2
#     Edge 73, Type (0, 1), BuildingBlock: AJUNOK_clean_linker_0, # of connection points: 2
#     Edge 74, Type (0, 1), BuildingBlock: AJUNOK_clean_linker_0, # of connection points: 2
#     Edge 75, Type (0, 1), BuildingBlock: AJUNOK_clean_linker_0, # of connection points: 2
#     Edge 76, Type (0, 1), BuildingBlock: AJUNOK_clean_linker_0, # of connection points: 2
#     Edge 77, Type (0, 1), BuildingBlock: AJUNOK_clean_linker_0, # of connection points: 2
#     Edge 78, Type (0, 1), BuildingBlock: AJUNOK_clean_linker_0, # of connection points: 2
#     Edge 79, Type (0, 1), BuildingBlock: AJUNOK_clean_linker_0, # of connection points: 2
#     Edge 80, Type (0, 1), BuildingBlock: AJUNOK_clean_linker_0, # of connection points: 2
# Relax obj value: 0.013
# Max RMSD: 0.114
# Mean RMSD: 0.051
data_MOF--net-eea--node1-OLANEW_clean_sbu_2--node2-CUKXOW_clean_sbu_0--edge1-AJUNOK_clean_linker_0
_symmetry_space_group_name_H-M    P1
_symmetry_Int_Tables_number       1
_symmetry_cell_setting            triclinic
loop_
_symmetry_equiv_pos_as_xyz
'x, y, z'
_cell_length_a     50.683832
_cell_length_b     46.364923
_cell_length_c     37.538454
_cell_angle_alpha  97.044789
_cell_angle_beta   93.724469
_cell_angle_gamma 120.49982
loop_
_atom_site_label
_atom_site_type_symbol
_atom_site_fract_x
_atom_site_fract_y
_atom_site_fract_z
_atom_type_partial_charge
O0 O 0.26666 0.15743 0.46225 0.0
Cd1 Cd 0.23751 0.14555 0.40187 0.0
O2 O 0.23379 0.10532 0.46996 0.0
Cd3 Cd 0.20303 0.08601 0.41852 0.0
O4 O 0.18477 0.03439 0.38979 0.0
C5 C 0.20482 0.02566 0.39081 0.0
O6 O 0.23343 0.04863 0.40559 0.0
C7 C 0.25819 0.13417 0.48133 0.0
C8 C 0.22252 0.19321 0.38508 0.0
O9 O 0.2044 0.16838 0.40018 0.0
O10 O 0.24823 0.19605 0.37884 0.0
O11 O 0.86925 0.15953 0.44396 0.0
Cd12 Cd 0.88392 0.15393 0.38335 0.0
O13 O 0.88385 0.12682 0.46498 0.0
Cd14 Cd 0.88581 0.10594 0.41072 0.0
O15 O 0.85359 0.05672 0.37648 0.0
C16 C 0.82516 0.04732 0.37504 0.0
O17 O 0.81807 0.06881 0.39107 0.0
C18 C 0.87333 0.14647 0.47008 0.0
C19 C 0.94739 0.19231 0.37884 0.0
O20 O 0.93082 0.20593 0.37972 0.0
O21 O 0.93419 0.16064 0.38069 0.0
O22 O 0.87829 0.71156 0.46623 0.0
Cd23 Cd 0.88695 0.72081 0.4039 0.0
O24 O 0.82829 0.67542 0.45029 0.0
Cd25 Cd 0.82729 0.68978 0.39719 0.0
O26 O 0.81045 0.71713 0.3689 0.0
C27 C 0.80973 0.74033 0.38991 0.0
O28 O 0.82034 0.74625 0.42456 0.0
C29 C 0.85212 0.6905 0.47449 0.0
C30 C 0.94798 0.74478 0.39111 0.0
O31 O 0.93845 0.76537 0.39862 0.0
O32 O 0.92888 0.71304 0.39028 0.0
O33 O 0.17252 0.3124 0.571 0.0
Cd34 Cd 0.16628 0.28817 0.62651 0.0
O35 O 0.12946 0.26864 0.54014 0.0
Cd36 Cd 0.1127 0.24515 0.58712 0.0
O37 O 0.07238 0.22689 0.61522 0.0
C38 C 0.05085 0.22895 0.59875 0.0
O39 O 0.05538 0.241 0.56834 0.0
C40 C 0.15397 0.29733 0.54138 0.0
C41 C 0.19543 0.25085 0.63034 0.0
O42 O 0.16614 0.23561 0.62031 0.0
O43 O 0.21076 0.28342 0.63829 0.0
O44 O 0.74584 0.85847 0.56637 0.0
Cd45 Cd 0.77803 0.87668 0.62586 0.0
O46 O 0.78624 0.87936 0.53768 0.0
Cd47 Cd 0.81747 0.90766 0.58802 0.0
O48 O 0.82849 0.95522 0.62115 0.0
C49 C 0.80591 0.95984 0.62307 0.0
O50 O 0.77812 0.93512 0.60762 0.0
C51 C 0.75702 0.86306 0.53678 0.0
C52 C 0.80008 0.83434 0.64035 0.0
O53 O 0.77439 0.82951 0.64952 0.0
O54 O 0.81538 0.85918 0.6239 0.0
O55 O 0.1263 0.86573 0.5443 0.0
Cd56 Cd 0.11503 0.88984 0.59876 0.0
O57 O 0.15176 0.84782 0.57527 0.0
Cd58 Cd 0.15162 0.87663 0.62534 0.0
O59 O 0.17758 0.93168 0.64225 0.0
C60 C 0.20224 0.94588 0.6281 0.0
O61 O 0.20934 0.92658 0.6074 0.0
C62 C 0.14107 0.85026 0.54494 0.0
C63 C 0.05885 0.84446 0.61954 0.0
O64 O 0.06115 0.86739 0.60184 0.0
O65 O 0.08302 0.84288 0.6273 0.0
O66 O 0.92496 0.49123 0.80274 0.0
Cd67 Cd 0.89093 0.48138 0.74749 0.0
O68 O 0.93902 0.45857 0.77329 0.0
Cd69 Cd 0.90543 0.43947 0.72423 0.0
O70 O 0.88189 0.38553 0.70123 0.0
C71 C 0.8993 0.37394 0.70776 0.0
O72 O 0.92776 0.39535 0.72419 0.0
C73 C 0.94139 0.4777 0.80212 0.0
C74 C 0.88436 0.53608 0.73722 0.0
O75 O 0.8667 0.51386 0.75538 0.0
O76 O 0.90565 0.53272 0.7243 0.0
O77 O 0.55504 0.53443 0.79941 0.0
Cd78 Cd 0.5701 0.53473 0.73871 0.0
O79 O 0.54178 0.48115 0.79119 0.0
Cd80 Cd 0.52211 0.42985 0.80238 0.0
O81 O 0.48906 0.37596 0.78452 0.0
C82 C 0.46676 0.36946 0.76089 0.0
O83 O 0.46568 0.39504 0.75081 0.0
C84 C 0.54303 0.50633 0.81071 0.0
C85 C 0.63359 0.56654 0.73666 0.0
O86 O 0.62006 0.58355 0.73988 0.0
O87 O 0.61712 0.53425 0.73495 0.0
O88 O 0.56408 0.05382 0.81513 0.0
Cd89 Cd 0.58463 0.09149 0.77038 0.0
O90 O 0.51687 0.03891 0.79267 0.0
Cd91 Cd 0.52655 0.07046 0.75104 0.0
O92 O 0.50432 0.09475 0.72682 0.0
C93 C 0.49267 0.10612 0.74939 0.0
O94 O 0.4966 0.10368 0.78359 0.0
C95 C 0.53501 0.03667 0.81563 0.0
C96 C 0.63979 0.1023 0.74666 0.0
O97 O 0.64018 0.1212 0.77491 0.0
O98 O 0.61334 0.07768 0.73037 0.0
O99 O 0.8386 0.63303 0.88985 0.0
Cd100 Cd 0.82335 0.60226 0.94043 0.0
O101 O 0.80106 0.64382 0.88565 0.0
Cd102 Cd 0.77723 0.61699 0.9281 0.0
O103 O 0.73632 0.59459 0.95528 0.0
C104 C 0.71047 0.58082 0.9348 0.0
O105 O 0.71043 0.57988 0.89966 0.0
C106 C 0.82528 0.64639 0.87483 0.0
C107 C 0.86505 0.58198 0.95948 0.0
O108 O 0.84103 0.56294 0.93552 0.0
O109 O 0.8692 0.61056 0.97472 0.0
O110 O 0.41019 0.16944 0.88084 0.0
Cd111 Cd 0.44847 0.18425 0.9338 0.0
O112 O 0.43669 0.22287 0.87394 0.0
Cd113 Cd 0.47158 0.24357 0.9218 0.0
O114 O 0.48794 0.29304 0.95462 0.0
C115 C 0.46682 0.30004 0.95655 0.0
O116 O 0.43836 0.27646 0.94183 0.0
C117 C 0.41362 0.19284 0.86366 0.0
C118 C 0.46224 0.13469 0.94531 0.0
O119 O 0.44061 0.13631 0.95958 0.0
O120 O 0.47689 0.1561 0.92479 0.0
O121 O 0.79606 0.17838 0.87945 0.0
Cd122 Cd 0.78387 0.1904 0.9393 0.0
O123 O 0.8445 0.19983 0.90356 0.0
Cd124 Cd 0.84069 0.21809 0.95801 0.0
O125 O 0.8663 0.26961 0.98884 0.0
C126 C 0.86384 0.29156 0.97415 0.0
O127 O 0.84358 0.28092 0.94466 0.0
C128 C 0.82346 0.18569 0.87604 0.0
C129 C 0.72255 0.14712 0.94769 0.0
O130 O 0.73119 0.17578 0.93788 0.0
O131 O 0.74287 0.13882 0.95293 0.0
O132 O 0.58248 0.80363 0.1334 0.0
Cd133 Cd 0.54798 0.78411 0.07581 0.0
O134 O 0.6232 0.8152 0.10685 0.0
Cd135 Cd 0.59351 0.78498 0.05586 0.0
O136 O 0.56735 0.73086 0.0329 0.0
C137 C 0.55053 0.71052 0.05288 0.0
O138 O 0.54797 0.72322 0.08482 0.0
C139 C 0.6115 0.81583 0.13565 0.0
C140 C 0.54165 0.83618 0.05484 0.0
O141 O 0.5231 0.81598 0.07409 0.0
O142 O 0.56332 0.83167 0.04538 0.0
O143 O 0.22586 0.81242 0.14532 0.0
Cd144 Cd 0.2444 0.80132 0.08963 0.0
O145 O 0.21051 0.76033 0.15332 0.0
Cd146 Cd 0.22076 0.74366 0.10216 0.0
O147 O 0.1901 0.70147 0.05863 0.0
C148 C 0.16423 0.69869 0.0493 0.0
O149 O 0.15992 0.72311 0.06331 0.0
C150 C 0.21314 0.7889 0.16386 0.0
C151 C 0.30362 0.84958 0.0785 0.0
O152 O 0.27972 0.84981 0.06544 0.0
O153 O 0.2996 0.82721 0.09797 0.0
O154 O 0.21579 0.3794 0.13278 0.0
Cd155 Cd 0.22633 0.3944 0.0725 0.0
O156 O 0.16842 0.33749 0.11063 0.0
Cd157 Cd 0.16789 0.35867 0.062 0.0
O158 O 0.14926 0.38816 0.04218 0.0
C159 C 0.13784 0.39864 0.06602 0.0
O160 O 0.13934 0.39173 0.09874 0.0
C161 C 0.19043 0.3536 0.13708 0.0
C162 C 0.2877 0.42098 0.05997 0.0
O163 O 0.27751 0.44068 0.06909 0.0
O164 O 0.2692 0.38889 0.05763 0.0
O165 O 0.49631 0.94733 0.21182 0.0
Cd166 Cd 0.48637 0.92882 0.27029 0.0
O167 O 0.45763 0.95541 0.19998 0.0
Cd168 Cd 0.43429 0.93606 0.24608 0.0
O169 O 0.39556 0.91857 0.27715 0.0
C170 C 0.36882 0.89622 0.26022 0.0
O171 O 0.36627 0.88388 0.22588 0.0
C172 C 0.482 0.95661 0.19149 0.0
C173 C 0.52764 0.90883 0.29229 0.0
O174 O 0.49972 0.88669 0.27772 0.0
O175 O 0.536 0.94031 0.29677 0.0
O176 O 0.05775 0.50142 0.23267 0.0
Cd177 Cd 0.08627 0.51705 0.29423 0.0
O178 O 0.10051 0.53049 0.20973 0.0
Cd179 Cd 0.12807 0.55769 0.26267 0.0
O180 O 0.14507 0.60867 0.29255 0.0
C181 C 0.12514 0.61641 0.30037 0.0
O182 O 0.09565 0.59249 0.29358 0.0
C183 C 0.07128 0.51064 0.20521 0.0
C184 C 0.10692 0.47371 0.31046 0.0
O185 O 0.08031 0.46814 0.31666 0.0
O186 O 0.1237 0.49965 0.29605 0.0
O187 O 0.45545 0.50347 0.21948 0.0
Cd188 Cd 0.44536 0.5089 0.28224 0.0
O189 O 0.47592 0.55834 0.22118 0.0
Cd190 Cd 0.47128 0.57312 0.27659 0.0
O191 O 0.50616 0.62246 0.30848 0.0
C192 C 0.53387 0.63001 0.3068 0.0
O193 O 0.53845 0.6069 0.28946 0.0
C194 C 0.46883 0.52933 0.20426 0.0
C195 C 0.38345 0.47422 0.29307 0.0
O196 O 0.39727 0.50562 0.28986 0.0
O197 O 0.39864 0.45903 0.29006 0.0
Tb198 Tb 0.54405 0.01532 0.99786 0.0
C199 C 0.5216 0.9415 0.0132 0.0
Tb200 Tb 0.47511 0.96822 0.00443 0.0
O201 O 0.5576 0.02099 0.05594 0.0
O202 O 0.51418 0.01149 0.03639 0.0
O203 O 0.54357 0.96842 0.00162 0.0
C204 C 0.42206 0.9321 0.03036 0.0
O205 O 0.49404 0.93716 0.01733 0.0
C206 C 0.48799 0.96829 0.93741 0.0
C207 C 0.49628 0.03888 0.98503 0.0
O208 O 0.44943 0.9421 0.04664 0.0
O209 O 0.42458 0.9421 -0.00069 0.0
O210 O 0.46065 0.95891 0.94576 0.0
O211 O 0.50497 0.97225 0.9658 0.0
O212 O 0.47844 0.01682 0.00496 0.0
O213 O 0.52095 0.03926 0.97449 0.0
C214 C 0.59874 0.05707 0.97843 0.0
O215 O 0.5822 0.0665 0.99559 0.0
O216 O 0.58461 0.02413 0.97246 0.0
C217 C 0.5306 0.01325 0.06414 0.0
Tb218 Tb 0.98704 0.51198 0.00612 0.0
C219 C 0.05886 0.56254 0.00332 0.0
Tb220 Tb 0.03355 0.48449 0.0017 0.0
O221 O 0.98197 0.50172 0.06184 0.0
O222 O 0.02183 0.5119 0.04011 0.0
O223 O 0.03001 0.55615 0.9966 0.0
C224 C 0.06986 0.46243 0.02447 0.0
O225 O 0.06541 0.53914 0.01017 0.0
C226 C 0.00763 0.48237 0.93715 0.0
C227 C 0.9613 0.43364 0.00011 0.0
O228 O 0.0734 0.47829 0.9972 0.0
O229 O 0.04597 0.45909 0.03862 0.0
O230 O 0.0266 0.4715 0.94153 0.0
O231 O 0.0046 0.49227 0.96824 0.0
O232 O 0.98987 0.43961 0.00696 0.0
O233 O 0.95492 0.45725 0.99403 0.0
C234 C 0.95031 0.53621 0.99257 0.0
O235 O 0.97365 0.54986 0.01859 0.0
O236 O 0.94778 0.50903 0.97434 0.0
C237 C 0.008 0.5025 0.06678 0.0
Tb238 Tb 0.46799 0.48857 0.00694 0.0
C239 C 0.49208 0.43776 0.99734 0.0
Tb240 Tb 0.53848 0.51843 0.00968 0.0
O241 O 0.46069 0.47055 0.94791 0.0
O242 O 0.50202 0.51336 0.97399 0.0
O243 O 0.46827 0.44154 0.00275 0.0
C244 C 0.59313 0.53509 0.98895 0.0
O245 O 0.52052 0.46382 0.99758 0.0
C246 C 0.519 0.51665 0.07249 0.0
C247 C 0.51485 0.56867 0.02132 0.0
O248 O 0.58877 0.54136 0.02203 0.0
O249 O 0.56676 0.51942 0.96781 0.0
O250 O 0.54713 0.53821 0.06779 0.0
O251 O 0.5048 0.49527 0.04364 0.0
O252 O 0.53629 0.56377 0.00825 0.0
O253 O 0.48817 0.54316 0.02774 0.0
C254 C 0.41174 0.46956 0.02429 0.0
O255 O 0.42446 0.48825 0.00015 0.0
O256 O 0.43061 0.46149 0.03837 0.0
C257 C 0.48874 0.49341 0.94426 0.0
Tb258 Tb 0.20165 0.36296 0.34554 0.0
C259 C 0.18384 0.28616 0.34731 0.0
Tb260 Tb 0.13319 0.30606 0.33848 0.0
O261 O 0.20443 0.3797 0.40386 0.0
O262 O 0.17263 0.33049 0.3786 0.0
O263 O 0.20457 0.31677 0.34095 0.0
C264 C 0.07554 0.26948 0.35381 0.0
O265 O 0.15528 0.2781 0.35223 0.0
C266 C 0.15582 0.31764 0.27694 0.0
C267 C 0.15052 0.38269 0.33921 0.0
O268 O 0.087 0.25949 0.32851 0.0
O269 O 0.0966 0.29982 0.37041 0.0
O270 O 0.13214 0.28873 0.2807 0.0
O271 O 0.16238 0.33875 0.3053 0.0
O272 O 0.12985 0.35166 0.34423 0.0
O273 O 0.17922 0.39138 0.33422 0.0
C274 C 0.25876 0.39958 0.32911 0.0
O275 O 0.2467 0.41058 0.3526 0.0
O276 O 0.23873 0.36804 0.3151 0.0
C277 C 0.18023 0.3512 0.4076 0.0
Tb278 Tb 0.65613 0.84843 0.34194 0.0
C279 C 0.72722 0.90491 0.33964 0.0
Tb280 Tb 0.70461 0.82737 0.33367 0.0
O281 O 0.65567 0.84224 0.3993 0.0
O282 O 0.69422 0.85383 0.37441 0.0
O283 O 0.69782 0.89698 0.33779 0.0
C284 C 0.74252 0.80446 0.34698 0.0
O285 O 0.73557 0.88216 0.34181 0.0
C286 C 0.68016 0.83384 0.27399 0.0
C287 C 0.6343 0.77139 0.33472 0.0
O288 O 0.72773 0.80014 0.31532 0.0
O289 O 0.73604 0.82178 0.37075 0.0
O290 O 0.7077 0.83815 0.27849 0.0
O291 O 0.66676 0.82261 0.30055 0.0
O292 O 0.66375 0.78045 0.34227 0.0
O293 O 0.62628 0.79341 0.32726 0.0
C294 C 0.61638 0.86913 0.32933 0.0
O295 O 0.61463 0.84968 0.35227 0.0
O296 O 0.64078 0.87735 0.31379 0.0
C297 C 0.68257 0.845 0.40245 0.0
Tb298 Tb 0.12818 0.80571 0.34202 0.0
C299 C 0.1542 0.75628 0.33666 0.0
Tb300 Tb 0.20129 0.83636 0.34573 0.0
O301 O 0.12145 0.7851 0.28416 0.0
O302 O 0.16328 0.8279 0.30932 0.0
O303 O 0.13105 0.76059 0.34471 0.0
C304 C 0.25526 0.85481 0.3224 0.0
O305 O 0.18194 0.78167 0.3329 0.0
C306 C 0.18152 0.82769 0.40944 0.0
C307 C 0.17595 0.88595 0.35573 0.0
O308 O 0.22855 0.82898 0.30694 0.0
O309 O 0.25161 0.87036 0.35122 0.0
O310 O 0.21056 0.84053 0.40562 0.0
O311 O 0.16711 0.82012 0.3783 0.0
O312 O 0.19844 0.88154 0.34518 0.0
O313 O 0.14853 0.86044 0.36051 0.0
C314 C 0.07185 0.78799 0.35758 0.0
O315 O 0.08612 0.80813 0.33512 0.0
O316 O 0.08921 0.77762 0.37097 0.0
C317 C 0.1499 0.80664 0.28039 0.0
Tb318 Tb 0.88626 0.71533 0.68505 0.0
C319 C 0.86262 0.64201 0.7019 0.0
Tb320 Tb 0.8169 0.66835 0.6894 0.0
O321 O 0.89961 0.71826 0.74262 0.0
O322 O 0.85632 0.70948 0.72371 0.0
O323 O 0.88374 0.66707 0.68721 0.0
C324 C 0.76158 0.6337 0.71105 0.0
O325 O 0.8363 0.63973 0.70848 0.0
C326 C 0.83043 0.67409 0.62308 0.0
C327 C 0.83931 0.74133 0.67482 0.0
O328 O 0.77188 0.62119 0.68658 0.0
O329 O 0.78261 0.66521 0.7234 0.0
O330 O 0.80315 0.6646 0.63165 0.0
O331 O 0.8471 0.67471 0.64998 0.0
O332 O 0.81874 0.71576 0.68901 0.0
O333 O 0.86562 0.744 0.66706 0.0
C334 C 0.94233 0.75517 0.66745 0.0
O335 O 0.92704 0.76566 0.68581 0.0
O336 O 0.92586 0.72224 0.6585 0.0
C337 C 0.87264 0.71038 0.75105 0.0
Tb338 Tb 0.30639 0.169 0.6729 0.0
C339 C 0.37594 0.22859 0.69671 0.0
Tb340 Tb 0.35791 0.15127 0.67724 0.0
O341 O 0.31476 0.1851 0.73182 0.0
O342 O 0.32374 0.14846 0.70834 0.0
O343 O 0.34714 0.21997 0.68511 0.0
C344 C 0.40396 0.14229 0.70001 0.0
O345 O 0.38478 0.20611 0.69712 0.0
C346 C 0.3373 0.15393 0.61256 0.0
C347 C 0.28876 0.09183 0.65739 0.0
O348 O 0.39413 0.13999 0.66637 0.0
O349 O 0.38773 0.14945 0.72059 0.0
O350 O 0.34852 0.13487 0.61819 0.0
O351 O 0.34078 0.17226 0.64213 0.0
O352 O 0.31701 0.1011 0.67258 0.0
O353 O 0.28059 0.11411 0.65105 0.0
C354 C 0.26471 0.1843 0.65016 0.0
O355 O 0.2621 0.16649 0.67537 0.0
O356 O 0.29038 0.19276 0.63751 0.0
C357 C 0.3267 0.16676 0.73778 0.0
Tb358 Tb 0.8098 0.15078 0.67108 0.0
C359 C 0.83023 0.09713 0.66067 0.0
Tb360 Tb 0.87958 0.1758 0.67129 0.0
O361 O 0.79886 0.13453 0.61152 0.0
O362 O 0.8432 0.17151 0.63651 0.0
O363 O 0.81007 0.10419 0.67403 0.0
C364 C 0.93408 0.1915 0.65096 0.0
O365 O 0.85718 0.12106 0.65324 0.0
C366 C 0.86171 0.1758 0.73502 0.0
C367 C 0.85991 0.23051 0.68136 0.0
O368 O 0.92381 0.17777 0.67907 0.0
O369 O 0.91372 0.19638 0.63464 0.0
O370 O 0.88986 0.19612 0.72932 0.0
O371 O 0.84615 0.15458 0.70641 0.0
O372 O 0.882 0.22408 0.67457 0.0
O373 O 0.83088 0.20627 0.68273 0.0
C374 C 0.75565 0.13626 0.69248 0.0
O375 O 0.75906 0.12087 0.66347 0.0
O376 O 0.7828 0.16023 0.70916 0.0
C377 C 0.8277 0.15229 0.60706 0.0
C378 C 0.33647 0.88675 0.03719 0.0
C379 C 0.33449 0.8727 0.0688 0.0
C380 C 0.36496 0.9061 0.02521 0.0
C381 C 0.39262 0.91254 0.04458 0.0
H382 H 0.31574 0.88195 0.02089 0.0
H383 H 0.36521 0.91581 0.00033 0.0
S384 S 0.40059 0.8842 0.13075 0.0
N385 N 0.363 0.86818 0.12038 0.0
N386 N 0.41666 0.90509 0.09806 0.0
C387 C 0.39122 0.89972 0.07691 0.0
C388 C 0.36212 0.87965 0.08895 0.0
C389 C 0.12333 0.4276 0.02316 0.0
C390 C 0.1218 0.41673 0.05682 0.0
C391 C 0.10721 0.44336 0.01325 0.0
C392 C 0.08867 0.4484 0.03643 0.0
H393 H 0.13685 0.42366 0.00411 0.0
H394 H 0.10867 0.45083 0.98687 0.0
S395 S 0.078 0.42658 0.12831 0.0
N396 N 0.10118 0.41382 0.11407 0.0
N397 N 0.0707 0.44287 0.09504 0.0
C398 C 0.08741 0.4384 0.0704 0.0
C399 C 0.10404 0.42273 0.08071 0.0
C400 C 0.55048 0.66189 0.01605 0.0
C401 C 0.5382 0.67352 0.04283 0.0
C402 C 0.54227 0.62782 0.00894 0.0
C403 C 0.52107 0.60381 0.02789 0.0
H404 H 0.56747 0.67944 0.00126 0.0
H405 H 0.55296 0.62037 0.98862 0.0
S406 S 0.48015 0.6204 0.09855 0.0
N407 N 0.50235 0.65783 0.08705 0.0
N408 N 0.48651 0.59351 0.0731 0.0
C409 C 0.50748 0.61465 0.05358 0.0
C410 C 0.51617 0.64956 0.06122 0.0
C411 C 0.88395 0.35209 0.96826 0.0
C412 C 0.88692 0.32843 0.98568 0.0
C413 C 0.90761 0.38642 0.97424 0.0
C414 C 0.93526 0.39834 0.9976 0.0
H415 H 0.86364 0.3439 0.94884 0.0
H416 H 0.90471 0.40338 0.95919 0.0
S417 S 0.95307 0.34813 0.05376 0.0
N418 N 0.91859 0.32035 0.03032 0.0
N419 N 0.96306 0.38483 0.04126 0.0
C420 C 0.93788 0.37549 0.01679 0.0
C421 C 0.91368 0.34056 0.01097 0.0
C422 C 0.65279 0.55218 0.92604 0.0
C423 C 0.6809 0.56782 0.94991 0.0
C424 C 0.62455 0.54123 0.93906 0.0
C425 C 0.62324 0.54556 0.97647 0.0
H426 H 0.65249 0.54863 0.89693 0.0
H427 H 0.60363 0.52975 0.91955 0.0
S428 S 0.68967 0.58371 0.05065 0.0
N429 N 0.70534 0.58607 0.01308 0.0
N430 N 0.65212 0.56555 0.0374 0.0
C431 C 0.65094 0.56057 0.00076 0.0
C432 C 0.67979 0.57165 0.98752 0.0
C433 C 0.45786 0.09079 0.98111 0.0
C434 C 0.47076 0.10971 0.95372 0.0
C435 C 0.4663 0.06808 0.99097 0.0
C436 C 0.48805 0.0633 0.97391 0.0
H437 H 0.4413 0.09377 0.9955 0.0
H438 H 0.45581 0.05442 0.01245 0.0
S439 S 0.52713 0.10477 0.8986 0.0
N440 N 0.50546 0.12095 0.90842 0.0
N441 N 0.52122 0.07815 0.92684 0.0
C442 C 0.50078 0.08157 0.94597 0.0
C443 C 0.49216 0.10476 0.9359 0.0
C444 C 0.67941 0.08999 0.95486 0.0
C445 C 0.69024 0.12441 0.95363 0.0
C446 C 0.64944 0.06817 0.962 0.0
C447 C 0.62942 0.08011 0.96883 0.0
H448 H 0.69423 0.07978 0.9504 0.0
H449 H 0.64219 0.04194 0.96301 0.0
S450 S 0.6458 0.16748 0.96749 0.0
N451 N 0.67792 0.16901 0.95857 0.0
N452 N 0.6218 0.128 0.97271 0.0
C453 C 0.63965 0.11423 0.96719 0.0
C454 C 0.67001 0.13638 0.95936 0.0
C455 C 0.88311 0.54079 0.94947 0.0
C456 C 0.88736 0.57122 0.96881 0.0
C457 C 0.90372 0.52989 0.9573 0.0
C458 C 0.92935 0.54886 0.98488 0.0
H459 H 0.86373 0.52516 0.92796 0.0
H460 H 0.8994 0.50629 0.94162 0.0
S461 S 0.95138 0.63047 0.04348 0.0
N462 N 0.9196 0.62035 0.0168 0.0
N463 N 0.95816 0.59964 0.03147 0.0
C464 C 0.93404 0.57933 0.00444 0.0
C465 C 0.91309 0.59056 0.99642 0.0
C466 C 0.45001 0.34158 0.9719 0.0
C467 C 0.47419 0.33499 0.97084 0.0
C468 C 0.45604 0.37473 0.98146 0.0
C469 C 0.48655 0.40278 0.99025 0.0
H470 H 0.42608 0.32107 0.96446 0.0
H471 H 0.43653 0.37834 0.98091 0.0
S472 S 0.55826 0.39912 0.99484 0.0
N473 N 0.52991 0.35913 0.98177 0.0
N474 N 0.54133 0.42148 -0.00022 0.0
C475 C 0.51101 0.39648 0.9907 0.0
C476 C 0.50482 0.36261 0.98105 0.0
C477 C 0.1413 0.63748 0.02209 0.0
C478 C 0.1376 0.66556 0.02993 0.0
C479 C 0.1157 0.60448 0.01115 0.0
C480 C 0.08528 0.59809 0.00745 0.0
H481 H 0.16404 0.64065 0.02632 0.0
H482 H 0.11988 0.58367 0.0072 0.0
S483 S 0.06327 0.66352 0.01809 0.0
N484 N 0.10137 0.68539 0.02823 0.0
N485 N 0.0532 0.62327 0.00773 0.0
C486 C 0.08136 0.62623 0.01199 0.0
C487 C 0.10753 0.65997 0.02322 0.0
C488 C 0.33505 0.41709 0.05767 0.0
C489 C 0.31971 0.43465 0.05173 0.0
C490 C 0.36506 0.42899 0.04931 0.0
C491 C 0.3805 0.45832 0.03376 0.0
H492 H 0.32386 0.39409 0.0691 0.0
H493 H 0.37601 0.41471 0.05446 0.0
S494 S 0.35064 0.51352 0.01266 0.0
N495 N 0.32251 0.48325 0.02984 0.0
N496 N 0.3785 0.50488 0.01303 0.0
C497 C 0.36548 0.47609 0.02758 0.0
C498 C 0.33521 0.46446 0.03689 0.0
C499 C 0.51193 0.86552 0.05213 0.0
C500 C 0.53767 0.86357 0.04373 0.0
C501 C 0.50703 0.89062 0.04189 0.0
C502 C 0.52769 0.91505 0.02281 0.0
H503 H 0.49521 0.84744 0.06674 0.0
H504 H 0.48687 0.89088 0.0494 0.0
S505 S 0.59924 0.92171 0.99477 0.0
N506 N 0.5845 0.88864 0.01557 0.0
N507 N 0.57529 0.93595 0.99632 0.0
C508 C 0.55376 0.91367 0.01445 0.0
C509 C 0.55871 0.88791 0.02485 0.0
C510 C 0.99412 0.19614 0.35563 0.0
C511 C 0.9805 0.21225 0.37431 0.0
C512 C 0.02488 0.21482 0.34901 0.0
C513 C 0.04335 0.25013 0.36162 0.0
H514 H 0.98068 0.16902 0.34521 0.0
H515 H 0.03425 0.2015 0.33397 0.0
S516 S 0.01928 0.3041 0.41362 0.0
N517 N 0.98815 0.26547 0.40606 0.0
N518 N 0.04613 0.30033 0.39466 0.0
C519 C 0.03029 0.26639 0.38114 0.0
C520 C 0.99881 0.24752 0.3872 0.0
C521 C 0.79126 0.78076 0.40236 0.0
C522 C 0.79469 0.75831 0.37696 0.0
C523 C 0.77502 0.79613 0.39205 0.0
C524 C 0.76159 0.78984 0.35589 0.0
H525 H 0.80057 0.78602 0.43077 0.0
H526 H 0.77248 0.81258 0.41285 0.0
S527 S 0.76556 0.73525 0.27812 0.0
N528 N 0.78454 0.73205 0.31339 0.0
N529 N 0.754 0.76114 0.29412 0.0
C530 C 0.76562 0.76844 0.32986 0.0
C531 C 0.78218 0.75264 0.34037 0.0
C532 C 0.21966 0.98241 0.3759 0.0
C533 C 0.19615 0.98986 0.37896 0.0
C534 C 0.21277 0.94884 0.3678 0.0
C535 C 0.18206 0.92117 0.36269 0.0
H536 H 0.24377 0.00268 0.38025 0.0
H537 H 0.23188 0.94466 0.36634 0.0
S538 S 0.11165 0.92677 0.36596 0.0
N539 N 0.14065 0.96674 0.37485 0.0
N540 N 0.12766 0.90352 0.35974 0.0
C541 C 0.15817 0.92819 0.36488 0.0
C542 C 0.1652 0.96253 0.37289 0.0
C543 C 0.55431 0.69227 0.32472 0.0
C544 C 0.56008 0.66556 0.31864 0.0
C545 C 0.57854 0.72635 0.33085 0.0
C546 C 0.60958 0.73515 0.33153 0.0
H547 H 0.5308 0.68693 0.32335 0.0
H548 H 0.57275 0.74594 0.33439 0.0
S549 S 0.63738 0.67473 0.32063 0.0
N550 N 0.59934 0.65019 0.31624 0.0
N551 N 0.64488 0.71419 0.32796 0.0
C552 C 0.61582 0.7087 0.32729 0.0
C553 C 0.59109 0.67394 0.32077 0.0
C554 C 0.31177 0.85849 0.25925 0.0
C555 C 0.34062 0.88537 0.27789 0.0
C556 C 0.28443 0.84857 0.27417 0.0
C557 C 0.28477 0.86524 0.30825 0.0
H558 H 0.31012 0.84505 0.23269 0.0
H559 H 0.2628 0.82792 0.25859 0.0
S560 S 0.35401 0.93652 0.3688 0.0
N561 N 0.36776 0.928 0.33292 0.0
N562 N 0.31624 0.90938 0.36072 0.0
C563 C 0.31336 0.89183 0.32749 0.0
C564 C 0.34132 0.90186 0.3124 0.0
C565 C 0.14666 0.4566 0.31056 0.0
C566 C 0.11802 0.4509 0.31951 0.0
C567 C 0.15738 0.43504 0.31794 0.0
C568 C 0.1399 0.40679 0.33454 0.0
H569 H 0.16084 0.47767 0.29728 0.0
H570 H 0.17925 0.4402 0.30975 0.0
S571 S 0.06427 0.38184 0.36574 0.0
N572 N 0.07303 0.41568 0.34752 0.0
N573 N 0.09313 0.37536 0.36147 0.0
C574 C 0.11156 0.40127 0.34448 0.0
C575 C 0.10065 0.42323 0.33695 0.0
C576 C 0.33355 0.42025 0.29364 0.0
C577 C 0.3512 0.45606 0.3011 0.0
C578 C 0.30348 0.40227 0.30233 0.0
C579 C 0.29017 0.41939 0.31949 0.0
H580 H 0.343 0.40591 0.28096 0.0
H581 H 0.29079 0.37471 0.29612 0.0
S582 S 0.32616 0.51286 0.34435 0.0
N583 N 0.35269 0.50799 0.32592 0.0
N584 N 0.29641 0.47404 0.34293 0.0
C585 C 0.30735 0.45512 0.32692 0.0
C586 C 0.3378 0.4735 0.3175 0.0
C587 C 0.58125 0.91901 0.29891 0.0
C588 C 0.54989 0.89852 0.30275 0.0
C589 C 0.60262 0.90921 0.30735 0.0
C590 C 0.59356 0.87912 0.32099 0.0
H591 H 0.58922 0.94245 0.28854 0.0
H592 H 0.62645 0.92544 0.30345 0.0
S593 S 0.51442 0.81706 0.33703 0.0
N594 N 0.51088 0.8468 0.32113 0.0
N595 N 0.55129 0.82907 0.33836 0.0
C596 C 0.56243 0.85873 0.32561 0.0
C597 C 0.54051 0.86823 0.3161 0.0
C598 C 0.11313 0.65993 0.32681 0.0
C599 C 0.13442 0.65238 0.31266 0.0
C600 C 0.12004 0.69356 0.33538 0.0
C601 C 0.14848 0.72111 0.33 0.0
H602 H 0.09067 0.63964 0.33081 0.0
H603 H 0.10261 0.69781 0.34573 0.0
S604 S 0.21237 0.715 0.29351 0.0
N605 N 0.18533 0.67526 0.29396 0.0
N606 N 0.19834 0.73831 0.30975 0.0
C607 C 0.17028 0.71392 0.31647 0.0
C608 C 0.16326 0.67965 0.30792 0.0
C609 C 0.76922 0.00124 0.36283 0.0
C610 C 0.80032 0.01143 0.36068 0.0
C611 C 0.74555 0.9669 0.35435 0.0
C612 C 0.75198 0.94125 0.34349 0.0
H613 H 0.76309 0.01977 0.37238 0.0
H614 H 0.72224 0.96043 0.35786 0.0
S615 S 0.82887 0.95467 0.32842 0.0
N616 N 0.83576 0.99324 0.34316 0.0
N617 N 0.79131 0.92874 0.32722 0.0
C618 C 0.78269 0.95121 0.33911 0.0
C619 C 0.80682 0.98625 0.34765 0.0
C620 C 0.99355 0.73755 0.38828 0.0
C621 C 0.97995 0.75702 0.38324 0.0
C622 C 0.02349 0.74809 0.38044 0.0
C623 C 0.04067 0.77804 0.36643 0.0
H624 H 0.98105 0.71405 0.3986 0.0
H625 H 0.03303 0.73231 0.38483 0.0
S626 S 0.01599 0.83837 0.34847 0.0
N627 N 0.98639 0.80819 0.36396 0.0
N628 N 0.0423 0.82739 0.34832 0.0
C629 C 0.02746 0.79779 0.36124 0.0
C630 C 0.99721 0.78745 0.36991 0.0
C631 C 0.18408 0.21173 0.3796 0.0
C632 C 0.21346 0.21727 0.37452 0.0
C633 C 0.17456 0.2336 0.36984 0.0
C634 C 0.19401 0.26218 0.35466 0.0
H635 H 0.16817 0.19029 0.39136 0.0
H636 H 0.15184 0.22822 0.3749 0.0
S637 S 0.27303 0.28772 0.33458 0.0
N638 N 0.26182 0.25318 0.35242 0.0
N639 N 0.24395 0.29433 0.33412 0.0
C640 C 0.22337 0.26787 0.34895 0.0
C641 C 0.23307 0.24546 0.35887 0.0
C642 C 0.67893 0.56495 0.71581 0.0
C643 C 0.66695 0.58357 0.73321 0.0
C644 C 0.70978 0.58119 0.70923 0.0
C645 C 0.72984 0.61649 0.72036 0.0
H646 H 0.66412 0.5378 0.70614 0.0
H647 H 0.71784 0.56606 0.69493 0.0
S648 S 0.71051 0.67646 0.76906 0.0
N649 N 0.67809 0.63903 0.7629 0.0
N650 N 0.7359 0.66938 0.7508 0.0
C651 C 0.71845 0.63518 0.73886 0.0
C652 C 0.68705 0.61877 0.7452 0.0
C653 C 0.46163 0.11303 0.69988 0.0
C654 C 0.47237 0.11853 0.73709 0.0
C655 C 0.44006 0.12159 0.68798 0.0
C656 C 0.42844 0.13594 0.71283 0.0
H657 H 0.46923 0.10114 0.67978 0.0
H658 H 0.43186 0.11611 0.65918 0.0
S659 S 0.45157 0.15905 0.81276 0.0
N660 N 0.47145 0.14184 0.79844 0.0
N661 N 0.43102 0.15779 0.776 0.0
C662 C 0.43988 0.14286 0.74992 0.0
C663 C 0.46183 0.13421 0.76206 0.0
C664 C 0.90952 0.32663 0.70242 0.0
C665 C 0.888 0.33712 0.6992 0.0
C666 C 0.90004 0.29221 0.69647 0.0
C667 C 0.86857 0.26662 0.68723 0.0
H668 H 0.93405 0.34515 0.70981 0.0
H669 H 0.9177 0.28573 0.69966 0.0
S670 S 0.80275 0.28036 0.67462 0.0
N671 N 0.83364 0.31911 0.68557 0.0
N672 N 0.81574 0.25411 0.67444 0.0
C673 C 0.84667 0.27661 0.68366 0.0
C674 C 0.8564 0.3119 0.68952 0.0
C675 C 0.25465 0.99705 0.63146 0.0
C676 C 0.22325 0.98326 0.63507 0.0
C677 C 0.27547 0.03222 0.6383 0.0
C678 C 0.2656 0.05504 0.64832 0.0
H679 H 0.26344 0.98054 0.62391 0.0
H680 H 0.29953 0.0416 0.63566 0.0
S681 S 0.18553 0.03216 0.65983 0.0
N682 N 0.18304 0.9952 0.64842 0.0
N683 N 0.22223 0.06158 0.66061 0.0
C684 C 0.23413 0.04175 0.65113 0.0
C685 C 0.21295 0.00578 0.64477 0.0
C686 C 0.99849 0.22182 0.59367 0.0
C687 C 0.02129 0.21858 0.6131 0.0
C688 C 0.97043 0.21285 0.60623 0.0
C689 C 0.96392 0.20023 0.63873 0.0
H690 H 0.00226 0.23148 0.56846 0.0
H691 H 0.95371 0.21588 0.59024 0.0
S692 S 0.01529 0.18636 0.69988 0.0
N693 N 0.03519 0.20149 0.66662 0.0
N694 N 0.98218 0.18456 0.69015 0.0
C695 C 0.98624 0.19656 0.65845 0.0
C696 C 0.01499 0.20577 0.64567 0.0
C697 C 0.79643 0.78846 0.67191 0.0
C698 C 0.81162 0.81194 0.6491 0.0
C699 C 0.80612 0.7665 0.68053 0.0
C700 C 0.83143 0.76684 0.66666 0.0
H701 H 0.77673 0.78688 0.68329 0.0
H702 H 0.79334 0.74891 0.69815 0.0
S703 S 0.87937 0.82353 0.60562 0.0
N704 N 0.85359 0.83451 0.61288 0.0
N705 N 0.87171 0.79289 0.62897 0.0
C706 C 0.84718 0.79046 0.64411 0.0
C707 C 0.83729 0.81303 0.63534 0.0
C708 C 0.00952 0.83267 0.64154 0.0
C709 C 0.02928 0.82109 0.6315 0.0
C710 C 0.98171 0.81131 0.65392 0.0
C711 C 0.97231 0.77739 0.65572 0.0
H712 H 0.01583 0.85859 0.64037 0.0
H713 H 0.96722 0.82128 0.66151 0.0
S714 S 0.01517 0.73437 0.63138 0.0
N715 N 0.03746 0.7735 0.62399 0.0
N716 N 0.98456 0.73296 0.64597 0.0
C717 C 0.99158 0.76532 0.64528 0.0
C718 C 0.02027 0.7873 0.63352 0.0
C719 C 0.24191 0.24607 0.6253 0.0
C720 C 0.21139 0.23173 0.63291 0.0
C721 C 0.25837 0.22959 0.62936 0.0
C722 C 0.24523 0.19862 0.64218 0.0
H723 H 0.25325 0.27036 0.61629 0.0
H724 H 0.28199 0.2419 0.6237 0.0
S725 S 0.16584 0.14995 0.66507 0.0
N726 N 0.1682 0.184 0.65243 0.0
N727 N 0.19971 0.15367 0.66147 0.0
C728 C 0.21462 0.18369 0.64939 0.0
C729 C 0.19752 0.20007 0.64435 0.0
C730 C 0.84184 0.02249 0.64214 0.0
C731 C 0.81155 0.99408 0.63707 0.0
C732 C 0.84757 0.05558 0.65056 0.0
C733 C 0.82332 0.06167 0.65466 0.0
H734 H 0.86128 0.01934 0.63829 0.0
H735 H 0.87129 0.07655 0.6533 0.0
S736 S 0.74004 0.99594 0.64771 0.0
N737 N 0.75711 0.97406 0.63929 0.0
N738 N 0.76798 0.0364 0.65536 0.0
C739 C 0.79304 0.03349 0.65142 0.0
C740 C 0.78715 -0.00032 0.64255 0.0
C741 C 0.44775 0.30728 0.75022 0.0
C742 C 0.44322 0.33387 0.744 0.0
C743 C 0.42621 0.27348 0.73414 0.0
C744 C 0.39909 0.26483 0.71142 0.0
H745 H 0.46816 0.31252 0.76761 0.0
H746 H 0.43064 0.25395 0.74025 0.0
S747 S 0.37621 0.32493 0.68619 0.0
N748 N 0.40953 0.34925 0.71332 0.0
N749 N 0.36903 0.28573 0.68318 0.0
C750 C 0.39425 0.29115 0.70488 0.0
C751 C 0.4163 0.32564 0.72113 0.0
C752 C 0.69771 0.13684 0.75137 0.0
C753 C 0.66902 0.1096 0.73269 0.0
C754 C 0.72555 0.14526 0.73814 0.0
C755 C 0.72587 0.12689 0.70563 0.0
H756 H 0.69876 0.15199 0.7764 0.0
H757 H 0.747 0.1664 0.75352 0.0
S758 S 0.65749 0.05288 0.64657 0.0
N759 N 0.64296 0.06389 0.68004 0.0
N760 N 0.69526 0.07987 0.65532 0.0
C761 C 0.69751 0.09944 0.68679 0.0
C762 C 0.66912 0.09076 0.70028 0.0
C763 C 0.89628 0.58526 0.7059 0.0
C764 C 0.87958 0.56406 0.73014 0.0
C765 C 0.89098 0.61067 0.69721 0.0
C766 C 0.86864 0.61575 0.71225 0.0
H767 H 0.9133 0.58193 0.69302 0.0
H768 H 0.90412 0.62598 0.67804 0.0
S769 S 0.82055 0.56913 0.77976 0.0
N770 N 0.84114 0.55143 0.77087 0.0
N771 N 0.83102 0.59878 0.75445 0.0
C772 C 0.85233 0.5953 0.73727 0.0
C773 C 0.85784 0.56959 0.74625 0.0
C774 C 0.48152 0.98553 0.13934 0.0
C775 C 0.49432 0.97005 0.15845 0.0
C776 C 0.49343 -0.00041 0.10889 0.0
C777 C 0.51861 -0.00123 0.09649 0.0
H778 H 0.46226 0.98711 0.14806 0.0
H779 H 0.48295 0.01131 0.09506 0.0
S780 S 0.55889 0.9587 0.13439 0.0
N781 N 0.53258 0.95303 0.16097 0.0
N782 N 0.55495 0.97967 0.10405 0.0
C783 C 0.53134 0.98293 0.11479 0.0
C784 C 0.51916 0.96845 0.14564 0.0
C785 C 0.06925 0.51284 0.139 0.0
C786 C 0.05328 0.50254 0.16872 0.0
C787 C 0.05409 0.51155 0.10582 0.0
C788 C 0.02228 0.49978 0.10083 0.0
H789 H 0.09401 0.52329 0.14169 0.0
H790 H 0.06776 0.5211 0.08435 0.0
S791 S 0.96877 0.46575 0.16804 0.0
N792 N 0.003 0.47714 0.18966 0.0
N793 N 0.97459 0.47465 0.12696 0.0
C794 C 0.00556 0.48751 0.12939 0.0
C795 C 0.021 0.48877 0.16336 0.0
C796 C 0.46789 0.49478 0.14645 0.0
C797 C 0.4795 0.52674 0.16869 0.0
C798 C 0.48015 0.49168 0.11466 0.0
C799 C 0.50484 0.52031 0.10449 0.0
H800 H 0.44955 0.47192 0.15394 0.0
H801 H 0.47094 0.46659 0.09862 0.0
S802 S 0.54244 0.60993 0.15154 0.0
N803 N 0.51614 0.58792 0.17662 0.0
N804 N 0.53938 0.58168 0.11762 0.0
C805 C 0.51612 0.55242 0.12578 0.0
C806 C 0.50335 0.55574 0.15765 0.0
C807 C 0.96325 0.50156 0.86812 0.0
C808 C 0.961 0.48123 0.83557 0.0
C809 C 0.97898 0.50239 0.90078 0.0
C810 C 0.99262 0.48262 0.90225 0.0
H811 H 0.95245 0.51661 0.86857 0.0
H812 H 0.98058 0.51876 0.92499 0.0
S813 S 0.99558 0.42706 0.82471 0.0
N814 N 0.97581 0.44247 0.80681 0.0
N815 N 0.00467 0.44379 0.86832 0.0
C816 C 0.99163 0.46322 0.86987 0.0
C817 C 0.97592 0.46252 0.83654 0.0
C818 C 0.50316 0.4726 0.84905 0.0
C819 C 0.52988 0.50309 0.84519 0.0
C820 C 0.48978 0.46967 0.88107 0.0
C821 C 0.50256 0.49716 0.91029 0.0
H822 H 0.49191 0.45111 0.82687 0.0
H823 H 0.46934 0.4457 0.88295 0.0
S824 S 0.5714 0.58312 0.91315 0.0
N825 N 0.56815 0.56151 0.87308 0.0
N826 N 0.54253 0.55644 0.93253 0.0
C827 C 0.52886 0.52799 0.90644 0.0
C828 C 0.54259 0.53087 0.87407 0.0
C829 C 0.54133 0.01228 0.86977 0.0
C830 C 0.52201 0.01594 0.84436 0.0
C831 C 0.52983 0.99531 0.89883 0.0
C832 C 0.49882 0.98198 0.90407 0.0
H833 H 0.56564 0.02302 0.86759 0.0
H834 H 0.54541 0.99298 0.91759 0.0
S835 S 0.43779 0.98195 0.84382 0.0
N836 N 0.46939 0.00224 0.82516 0.0
N837 N 0.44837 0.97127 0.88001 0.0
C838 C 0.47894 0.98413 0.8781 0.0
C839 C 0.49042 0.00098 0.8483 0.0
C840 C 0.14234 0.29327 0.47461 0.0
C841 C 0.16051 0.31284 0.50821 0.0
C842 C 0.14827 0.3065 0.44255 0.0
C843 C 0.17245 0.33995 0.44266 0.0
H844 H 0.12369 0.26716 0.47278 0.0
H845 H 0.13415 0.28999 0.41733 0.0
S846 S 0.22556 0.40283 0.52349 0.0
N847 N 0.2029 0.36823 0.53976 0.0
N848 N 0.2138 0.39308 0.47929 0.0
C849 C 0.19018 0.36032 0.47608 0.0
C850 C 0.1843 0.34675 0.50887 0.0
C851 C 0.7504 0.86596 0.47118 0.0
C852 C 0.73672 0.85396 0.50182 0.0
C853 C 0.73255 0.86255 0.43923 0.0
C854 C 0.70019 0.84646 0.43619 0.0
H855 H 0.77531 0.87939 0.47217 0.0
H856 H 0.74444 0.87364 0.4171 0.0
S857 S 0.65238 0.80795 0.50696 0.0
N858 N 0.68834 0.82361 0.52626 0.0
N859 N 0.65478 0.81671 0.46553 0.0
C860 C 0.68593 0.83319 0.46593 0.0
C861 C 0.70416 0.8369 0.49881 0.0
C862 C 0.13267 0.83594 0.47719 0.0
C863 C 0.14895 0.83904 0.51067 0.0
C864 C 0.14257 0.83066 0.44436 0.0
C865 C 0.16927 0.82863 0.4438 0.0
H866 H 0.11269 0.83874 0.47633 0.0
H867 H 0.13011 0.82995 0.41945 0.0
S868 S 0.219 0.83259 0.52333 0.0
N869 N 0.19215 0.83747 0.54084 0.0
N870 N 0.21082 0.82803 0.47896 0.0
C871 C 0.18508 0.8303 0.47678 0.0
C872 C 0.17483 0.83526 0.51026 0.0
C873 C 0.61612 0.819 0.2029 0.0
C874 C 0.63068 0.82629 0.17172 0.0
C875 C 0.63264 0.82289 0.23628 0.0
C876 C 0.66437 0.83431 0.23982 0.0
H877 H 0.59144 0.8087 0.20128 0.0
H878 H 0.62014 0.81564 0.2591 0.0
S879 S 0.71455 0.862 0.16827 0.0
N880 N 0.67962 0.84927 0.14777 0.0
N881 N 0.71058 0.85658 0.21067 0.0
C882 C 0.67972 0.84394 0.20967 0.0
C883 C 0.6629 0.83995 0.17558 0.0
C884 C 0.20571 0.8258 0.21192 0.0
C885 C 0.19838 0.79315 0.19536 0.0
C886 C 0.19005 0.83001 0.23971 0.0
C887 C 0.16606 0.80173 0.25124 0.0
H888 H 0.22357 0.84825 0.20328 0.0
H889 H 0.19643 0.85554 0.2519 0.0
S890 S 0.13894 0.71103 0.21868 0.0
N891 N 0.16638 0.73205 0.19435 0.0
N892 N 0.13657 0.74029 0.24563 0.0
C893 C 0.15875 0.76907 0.23546 0.0
C894 C 0.17507 0.76472 0.20782 0.0
C895 C 0.16256 0.31066 0.17644 0.0
C896 C 0.18492 0.34417 0.1734 0.0
C897 C 0.15407 0.30204 0.21021 0.0
C898 C 0.16717 0.32674 0.24213 0.0
H899 H 0.15111 0.29101 0.15241 0.0
H900 H 0.13647 0.27603 0.21111 0.0
S901 S 0.22668 0.41827 0.24891 0.0
N902 N 0.22048 0.40202 0.20541 0.0
N903 N 0.20374 0.38621 0.26844 0.0
C904 C 0.18992 0.36023 0.23953 0.0
C905 C 0.19901 0.36885 0.20529 0.0
C906 C 0.86204 0.66325 0.82929 0.0
C907 C 0.83762 0.66425 0.8441 0.0
C908 C 0.87359 0.67891 0.79965 0.0
C909 C 0.86101 0.69586 0.78342 0.0
H910 H 0.87211 0.64986 0.84028 0.0
H911 H 0.89201 0.67691 0.78878 0.0
S912 S 0.79948 0.70942 0.8138 0.0
N913 N 0.80284 0.68605 0.84152 0.0
N914 N 0.82486 0.71542 0.78574 0.0
C915 C 0.83728 0.69797 0.79831 0.0
C916 C 0.82552 0.68218 0.82866 0.0
C917 C 0.37179 0.15311 0.81165 0.0
C918 C 0.39057 0.18603 0.83243 0.0
C919 C 0.35082 0.14688 0.78114 0.0
C920 C 0.34748 0.17318 0.77096 0.0
H921 H 0.37386 0.13223 0.81842 0.0
H922 H 0.33729 0.12139 0.76525 0.0
S923 S 0.38953 0.2633 0.81756 0.0
N924 N 0.40342 0.24496 0.84127 0.0
N925 N 0.36356 0.23288 0.78468 0.0
C926 C 0.36528 0.20587 0.79215 0.0
C927 C 0.38699 0.2124 0.82267 0.0
C928 C 0.86179 0.20537 0.83326 0.0
C929 C 0.83216 0.18133 0.83989 0.0
C930 C 0.87088 0.20317 0.7992 0.0
C931 C 0.85091 0.17654 0.77052 0.0
H932 H 0.87796 0.22658 0.8544 0.0
H933 H 0.89376 0.22269 0.79533 0.0
S934 S 0.77183 0.10524 0.77476 0.0
N935 N 0.78316 0.12933 0.81548 0.0
N936 N 0.80091 0.12407 0.7517 0.0
C937 C 0.8215 0.15167 0.77698 0.0
C938 C 0.81192 0.15437 0.8116 0.0
C939 C 0.29725 0.1716 0.53663 0.0
C940 C 0.27785 0.13906 0.51525 0.0
C941 C 0.3163 0.17628 0.56843 0.0
C942 C 0.31715 0.14875 0.57928 0.0
H943 H 0.2975 0.19349 0.52894 0.0
H944 H 0.33079 0.20166 0.58433 0.0
S945 S 0.27119 0.05859 0.53293 0.0
N946 N 0.26073 0.07884 0.5076 0.0
N947 N 0.29704 0.08801 0.56659 0.0
C948 C 0.29813 0.11624 0.5581 0.0
C949 C 0.27831 0.1113 0.5263 0.0
C950 C 0.87527 0.14524 0.53661 0.0
C951 C 0.86316 0.1512 0.5054 0.0
C952 C 0.86389 0.14606 0.56953 0.0
C953 C 0.83984 0.15255 0.57244 0.0
H954 H 0.89339 0.1394 0.53551 0.0
H955 H 0.87336 0.14046 0.59248 0.0
S956 S 0.79997 0.16977 0.49936 0.0
N957 N 0.82573 0.16415 0.47991 0.0
N958 N 0.80426 0.16517 0.5419 0.0
C959 C 0.82756 0.15868 0.54174 0.0
C960 C 0.83936 0.15832 0.50824 0.0
C961 C 0.82078 0.65813 0.52029 0.0
C962 C 0.8486 0.6851 0.51258 0.0
C963 C 0.81555 0.65439 0.55616 0.0
C964 C 0.83801 0.67717 0.58576 0.0
H965 H 0.80256 0.64007 0.49848 0.0
H966 H 0.79356 0.63366 0.56074 0.0
S967 S 0.91369 0.75339 0.58067 0.0
N968 N 0.89842 0.73569 0.53792 0.0
N969 N 0.88835 0.7285 0.60504 0.0
C970 C 0.86595 0.704 0.57855 0.0
C971 C 0.87131 0.70798 0.54205 0.0
loop_
_geom_bond_atom_site_label_1
_geom_bond_atom_site_label_2
_geom_bond_distance
_geom_bond_site_symmetry_2
_ccdc_geom_bond_type
O0 Cd1 2.300 . S
O0 C7 1.275 . S
Cd1 O0 2.300 . S
Cd1 O9 2.381 . S
Cd1 O10 2.378 . S
O2 Cd3 2.385 . S
O2 C7 1.255 . S
Cd3 O2 2.385 . S
Cd3 O4 2.317 . S
O4 Cd3 2.317 . S
O4 C5 1.232 . S
C5 O4 1.232 . S
C5 O6 1.218 . S
O6 C5 1.218 . S
C7 O0 1.275 . S
C7 O2 1.255 . S
C8 O9 1.258 . S
C8 O10 1.256 . S
O9 Cd1 2.381 . S
O9 C8 1.258 . S
O10 Cd1 2.378 . S
O10 C8 1.256 . S
O11 Cd12 2.300 . S
O11 C18 1.275 . S
Cd12 O11 2.300 . S
Cd12 O20 2.381 . S
Cd12 O21 2.378 . S
O13 Cd14 2.385 . S
O13 C18 1.255 . S
Cd14 O13 2.385 . S
Cd14 O15 2.317 . S
O15 Cd14 2.317 . S
O15 C16 1.232 . S
C16 O15 1.232 . S
C16 O17 1.218 . S
O17 C16 1.218 . S
C18 O11 1.275 . S
C18 O13 1.255 . S
C19 O20 1.258 . S
C19 O21 1.256 . S
O20 Cd12 2.381 . S
O20 C19 1.258 . S
O21 Cd12 2.378 . S
O21 C19 1.256 . S
O22 Cd23 2.300 . S
O22 C29 1.275 . S
Cd23 O22 2.300 . S
Cd23 O31 2.381 . S
Cd23 O32 2.378 . S
O24 Cd25 2.385 . S
O24 C29 1.255 . S
Cd25 O24 2.385 . S
Cd25 O26 2.317 . S
O26 Cd25 2.317 . S
O26 C27 1.232 . S
C27 O26 1.232 . S
C27 O28 1.218 . S
O28 C27 1.218 . S
C29 O22 1.275 . S
C29 O24 1.255 . S
C30 O31 1.258 . S
C30 O32 1.256 . S
O31 Cd23 2.381 . S
O31 C30 1.258 . S
O32 Cd23 2.378 . S
O32 C30 1.256 . S
O33 Cd34 2.300 . S
O33 C40 1.275 . S
Cd34 O33 2.300 . S
Cd34 O42 2.381 . S
Cd34 O43 2.378 . S
O35 Cd36 2.385 . S
O35 C40 1.255 . S
Cd36 O35 2.385 . S
Cd36 O37 2.317 . S
O37 Cd36 2.317 . S
O37 C38 1.232 . S
C38 O37 1.232 . S
C38 O39 1.218 . S
O39 C38 1.218 . S
C40 O33 1.275 . S
C40 O35 1.255 . S
C41 O42 1.258 . S
C41 O43 1.256 . S
O42 Cd34 2.381 . S
O42 C41 1.258 . S
O43 Cd34 2.378 . S
O43 C41 1.256 . S
O44 Cd45 2.300 . S
O44 C51 1.275 . S
Cd45 O44 2.300 . S
Cd45 O53 2.381 . S
Cd45 O54 2.378 . S
O46 Cd47 2.385 . S
O46 C51 1.255 . S
Cd47 O46 2.385 . S
Cd47 O48 2.317 . S
O48 Cd47 2.317 . S
O48 C49 1.232 . S
C49 O48 1.232 . S
C49 O50 1.218 . S
O50 C49 1.218 . S
C51 O44 1.275 . S
C51 O46 1.255 . S
C52 O53 1.258 . S
C52 O54 1.256 . S
O53 Cd45 2.381 . S
O53 C52 1.258 . S
O54 Cd45 2.378 . S
O54 C52 1.256 . S
O55 Cd56 2.300 . S
O55 C62 1.275 . S
Cd56 O55 2.300 . S
Cd56 O64 2.381 . S
Cd56 O65 2.378 . S
O57 Cd58 2.385 . S
O57 C62 1.255 . S
Cd58 O57 2.385 . S
Cd58 O59 2.317 . S
O59 Cd58 2.317 . S
O59 C60 1.232 . S
C60 O59 1.232 . S
C60 O61 1.218 . S
O61 C60 1.218 . S
C62 O55 1.275 . S
C62 O57 1.255 . S
C63 O64 1.258 . S
C63 O65 1.256 . S
O64 Cd56 2.381 . S
O64 C63 1.258 . S
O65 Cd56 2.378 . S
O65 C63 1.256 . S
O66 Cd67 2.300 . S
O66 C73 1.275 . S
Cd67 O66 2.300 . S
Cd67 O75 2.381 . S
Cd67 O76 2.378 . S
O68 Cd69 2.385 . S
O68 C73 1.255 . S
Cd69 O68 2.385 . S
Cd69 O70 2.317 . S
O70 Cd69 2.317 . S
O70 C71 1.232 . S
C71 O70 1.232 . S
C71 O72 1.218 . S
O72 C71 1.218 . S
C73 O66 1.275 . S
C73 O68 1.255 . S
C74 O75 1.258 . S
C74 O76 1.256 . S
O75 Cd67 2.381 . S
O75 C74 1.258 . S
O76 Cd67 2.378 . S
O76 C74 1.256 . S
O77 Cd78 2.300 . S
O77 C84 1.275 . S
Cd78 O77 2.300 . S
Cd78 O86 2.381 . S
Cd78 O87 2.378 . S
O79 Cd80 2.385 . S
O79 C84 1.255 . S
Cd80 O79 2.385 . S
Cd80 O81 2.317 . S
O81 Cd80 2.317 . S
O81 C82 1.232 . S
C82 O81 1.232 . S
C82 O83 1.218 . S
O83 C82 1.218 . S
C84 O77 1.275 . S
C84 O79 1.255 . S
C85 O86 1.258 . S
C85 O87 1.256 . S
O86 Cd78 2.381 . S
O86 C85 1.258 . S
O87 Cd78 2.378 . S
O87 C85 1.256 . S
O88 Cd89 2.300 . S
O88 C95 1.275 . S
Cd89 O88 2.300 . S
Cd89 O97 2.381 . S
Cd89 O98 2.378 . S
O90 Cd91 2.385 . S
O90 C95 1.255 . S
Cd91 O90 2.385 . S
Cd91 O92 2.317 . S
O92 Cd91 2.317 . S
O92 C93 1.232 . S
C93 O92 1.232 . S
C93 O94 1.218 . S
O94 C93 1.218 . S
C95 O88 1.275 . S
C95 O90 1.255 . S
C96 O97 1.258 . S
C96 O98 1.256 . S
O97 Cd89 2.381 . S
O97 C96 1.258 . S
O98 Cd89 2.378 . S
O98 C96 1.256 . S
O99 Cd100 2.300 . S
O99 C106 1.275 . S
Cd100 O99 2.300 . S
Cd100 O108 2.381 . S
Cd100 O109 2.378 . S
O101 Cd102 2.385 . S
O101 C106 1.255 . S
Cd102 O101 2.385 . S
Cd102 O103 2.317 . S
O103 Cd102 2.317 . S
O103 C104 1.232 . S
C104 O103 1.232 . S
C104 O105 1.218 . S
O105 C104 1.218 . S
C106 O99 1.275 . S
C106 O101 1.255 . S
C107 O108 1.258 . S
C107 O109 1.256 . S
O108 Cd100 2.381 . S
O108 C107 1.258 . S
O109 Cd100 2.378 . S
O109 C107 1.256 . S
O110 Cd111 2.300 . S
O110 C117 1.275 . S
Cd111 O110 2.300 . S
Cd111 O119 2.381 . S
Cd111 O120 2.378 . S
O112 Cd113 2.385 . S
O112 C117 1.255 . S
Cd113 O112 2.385 . S
Cd113 O114 2.317 . S
O114 Cd113 2.317 . S
O114 C115 1.232 . S
C115 O114 1.232 . S
C115 O116 1.218 . S
O116 C115 1.218 . S
C117 O110 1.275 . S
C117 O112 1.255 . S
C118 O119 1.258 . S
C118 O120 1.256 . S
O119 Cd111 2.381 . S
O119 C118 1.258 . S
O120 Cd111 2.378 . S
O120 C118 1.256 . S
O121 Cd122 2.300 . S
O121 C128 1.275 . S
Cd122 O121 2.300 . S
Cd122 O130 2.381 . S
Cd122 O131 2.378 . S
O123 Cd124 2.385 . S
O123 C128 1.255 . S
Cd124 O123 2.385 . S
Cd124 O125 2.317 . S
O125 Cd124 2.317 . S
O125 C126 1.232 . S
C126 O125 1.232 . S
C126 O127 1.218 . S
O127 C126 1.218 . S
C128 O121 1.275 . S
C128 O123 1.255 . S
C129 O130 1.258 . S
C129 O131 1.256 . S
O130 Cd122 2.381 . S
O130 C129 1.258 . S
O131 Cd122 2.378 . S
O131 C129 1.256 . S
O132 Cd133 2.300 . S
O132 C139 1.275 . S
Cd133 O132 2.300 . S
Cd133 O141 2.381 . S
Cd133 O142 2.378 . S
O134 Cd135 2.385 . S
O134 C139 1.255 . S
Cd135 O134 2.385 . S
Cd135 O136 2.317 . S
O136 Cd135 2.317 . S
O136 C137 1.232 . S
C137 O136 1.232 . S
C137 O138 1.218 . S
O138 C137 1.218 . S
C139 O132 1.275 . S
C139 O134 1.255 . S
C140 O141 1.258 . S
C140 O142 1.256 . S
O141 Cd133 2.381 . S
O141 C140 1.258 . S
O142 Cd133 2.378 . S
O142 C140 1.256 . S
O143 Cd144 2.300 . S
O143 C150 1.275 . S
Cd144 O143 2.300 . S
Cd144 O152 2.381 . S
Cd144 O153 2.378 . S
O145 Cd146 2.385 . S
O145 C150 1.255 . S
Cd146 O145 2.385 . S
Cd146 O147 2.317 . S
O147 Cd146 2.317 . S
O147 C148 1.232 . S
C148 O147 1.232 . S
C148 O149 1.218 . S
O149 C148 1.218 . S
C150 O143 1.275 . S
C150 O145 1.255 . S
C151 O152 1.258 . S
C151 O153 1.256 . S
O152 Cd144 2.381 . S
O152 C151 1.258 . S
O153 Cd144 2.378 . S
O153 C151 1.256 . S
O154 Cd155 2.300 . S
O154 C161 1.275 . S
Cd155 O154 2.300 . S
Cd155 O163 2.381 . S
Cd155 O164 2.378 . S
O156 Cd157 2.385 . S
O156 C161 1.255 . S
Cd157 O156 2.385 . S
Cd157 O158 2.317 . S
O158 Cd157 2.317 . S
O158 C159 1.232 . S
C159 O158 1.232 . S
C159 O160 1.218 . S
O160 C159 1.218 . S
C161 O154 1.275 . S
C161 O156 1.255 . S
C162 O163 1.258 . S
C162 O164 1.256 . S
O163 Cd155 2.381 . S
O163 C162 1.258 . S
O164 Cd155 2.378 . S
O164 C162 1.256 . S
O165 Cd166 2.300 . S
O165 C172 1.275 . S
Cd166 O165 2.300 . S
Cd166 O174 2.381 . S
Cd166 O175 2.378 . S
O167 Cd168 2.385 . S
O167 C172 1.255 . S
Cd168 O167 2.385 . S
Cd168 O169 2.317 . S
O169 Cd168 2.317 . S
O169 C170 1.232 . S
C170 O169 1.232 . S
C170 O171 1.218 . S
O171 C170 1.218 . S
C172 O165 1.275 . S
C172 O167 1.255 . S
C173 O174 1.258 . S
C173 O175 1.256 . S
O174 Cd166 2.381 . S
O174 C173 1.258 . S
O175 Cd166 2.378 . S
O175 C173 1.256 . S
O176 Cd177 2.300 . S
O176 C183 1.275 . S
Cd177 O176 2.300 . S
Cd177 O185 2.381 . S
Cd177 O186 2.378 . S
O178 Cd179 2.385 . S
O178 C183 1.255 . S
Cd179 O178 2.385 . S
Cd179 O180 2.317 . S
O180 Cd179 2.317 . S
O180 C181 1.232 . S
C181 O180 1.232 . S
C181 O182 1.218 . S
O182 C181 1.218 . S
C183 O176 1.275 . S
C183 O178 1.255 . S
C184 O185 1.258 . S
C184 O186 1.256 . S
O185 Cd177 2.381 . S
O185 C184 1.258 . S
O186 Cd177 2.378 . S
O186 C184 1.256 . S
O187 Cd188 2.300 . S
O187 C194 1.275 . S
Cd188 O187 2.300 . S
Cd188 O196 2.381 . S
Cd188 O197 2.378 . S
O189 Cd190 2.385 . S
O189 C194 1.255 . S
Cd190 O189 2.385 . S
Cd190 O191 2.317 . S
O191 Cd190 2.317 . S
O191 C192 1.232 . S
C192 O191 1.232 . S
C192 O193 1.218 . S
O193 C192 1.218 . S
C194 O187 1.275 . S
C194 O189 1.255 . S
C195 O196 1.258 . S
C195 O197 1.256 . S
O196 Cd188 2.381 . S
O196 C195 1.258 . S
O197 Cd188 2.378 . S
O197 C195 1.256 . S
Tb198 O201 2.453 . S
Tb198 O202 2.596 1_545 S
Tb198 O203 2.374 1_545 S
Tb198 O211 2.343 1_554 S
Tb198 O213 2.353 . S
Tb198 O215 2.427 . S
Tb198 O216 2.513 1_554 S
C199 O203 1.251 . S
C199 O205 1.263 1_554 S
Tb200 O202 2.343 1_556 S
Tb200 O205 2.353 . S
Tb200 O208 2.427 1_556 S
Tb200 O209 2.513 1_556 S
Tb200 O210 2.453 . S
Tb200 O211 2.596 1_565 S
Tb200 O212 2.374 1_565 S
O201 Tb198 2.453 . S
O201 C217 1.245 1_545 S
O202 Tb198 2.596 1_565 S
O202 Tb200 2.343 1_554 S
O202 C217 1.259 . S
O203 Tb198 2.374 1_565 S
O203 C199 1.251 . S
C204 O208 1.275 . S
C204 O209 1.246 . S
O205 C199 1.263 1_556 S
O205 Tb200 2.353 . S
C206 O210 1.245 1_545 S
C206 O211 1.259 . S
C207 O212 1.250 1_554 S
C207 O213 1.263 . S
O208 Tb200 2.427 1_554 S
O208 C204 1.275 . S
O209 Tb200 2.513 1_554 S
O209 C204 1.246 . S
O210 Tb200 2.453 . S
O210 C206 1.245 1_565 S
O211 Tb198 2.343 1_556 S
O211 Tb200 2.596 1_545 S
O211 C206 1.259 . S
O212 Tb200 2.374 1_545 S
O212 C207 1.250 1_556 S
O213 Tb198 2.353 . S
O213 C207 1.263 . S
C214 O215 1.275 1_556 S
C214 O216 1.246 . S
O215 Tb198 2.427 . S
O215 C214 1.275 1_554 S
O216 Tb198 2.513 1_556 S
O216 C214 1.246 . S
C217 O201 1.245 1_565 S
C217 O202 1.259 . S
Tb218 O221 2.440 1_655 S
Tb218 O222 2.596 1_655 S
Tb218 O223 2.374 1_655 S
Tb218 O231 2.343 1_554 S
Tb218 O233 2.353 . S
Tb218 O235 2.427 . S
Tb218 O236 2.513 . S
C219 O223 1.251 . S
C219 O225 1.263 . S
Tb220 O222 2.343 1_556 S
Tb220 O225 2.353 1_556 S
Tb220 O228 2.427 1_556 S
Tb220 O229 2.513 1_556 S
Tb220 O230 2.453 . S
Tb220 O231 2.596 1_455 S
Tb220 O232 2.374 1_455 S
O221 Tb218 2.440 1_455 S
O221 C237 1.273 . S
O222 Tb218 2.596 1_455 S
O222 Tb220 2.343 1_554 S
O222 C237 1.259 . S
O223 Tb218 2.374 1_455 S
O223 C219 1.251 . S
C224 O228 1.275 . S
C224 O229 1.246 . S
O225 C219 1.263 . S
O225 Tb220 2.353 1_554 S
C226 O230 1.245 1_655 S
C226 O231 1.259 . S
C227 O232 1.250 1_554 S
C227 O233 1.263 . S
O228 Tb220 2.427 1_554 S
O228 C224 1.275 . S
O229 Tb220 2.513 1_554 S
O229 C224 1.246 . S
O230 Tb220 2.453 . S
O230 C226 1.245 1_455 S
O231 Tb218 2.343 1_556 S
O231 Tb220 2.596 1_655 S
O231 C226 1.259 . S
O232 Tb220 2.374 1_655 S
O232 C227 1.250 1_556 S
O233 Tb218 2.353 . S
O233 C227 1.263 . S
C234 O235 1.275 1_556 S
C234 O236 1.246 1_556 S
O235 Tb218 2.427 . S
O235 C234 1.275 1_554 S
O236 Tb218 2.513 . S
O236 C234 1.246 1_554 S
C237 O221 1.273 . S
C237 O222 1.259 . S
Tb238 O241 2.453 . S
Tb238 O242 2.596 . S
Tb238 O243 2.374 . S
Tb238 O251 2.343 1_556 S
Tb238 O253 2.353 . S
Tb238 O255 2.427 1_556 S
Tb238 O256 2.513 1_556 S
C239 O243 1.251 . S
C239 O245 1.263 1_556 S
Tb240 O242 2.343 1_554 S
Tb240 O245 2.353 . S
Tb240 O248 2.427 1_554 S
Tb240 O249 2.513 1_554 S
Tb240 O250 2.453 . S
Tb240 O251 2.596 . S
Tb240 O252 2.374 . S
O241 Tb238 2.453 . S
O241 C257 1.245 . S
O242 Tb238 2.596 . S
O242 Tb240 2.343 1_556 S
O242 C257 1.259 . S
O243 Tb238 2.374 . S
O243 C239 1.251 . S
C244 O248 1.275 . S
C244 O249 1.246 . S
O245 C239 1.263 1_554 S
O245 Tb240 2.353 . S
C246 O250 1.245 . S
C246 O251 1.259 . S
C247 O252 1.250 . S
C247 O253 1.263 1_554 S
O248 Tb240 2.427 1_556 S
O248 C244 1.275 . S
O249 Tb240 2.513 1_556 S
O249 C244 1.246 . S
O250 Tb240 2.453 . S
O250 C246 1.245 . S
O251 Tb238 2.343 1_554 S
O251 Tb240 2.596 . S
O251 C246 1.259 . S
O252 Tb240 2.374 . S
O252 C247 1.250 . S
O253 Tb238 2.353 . S
O253 C247 1.263 1_556 S
C254 O255 1.275 . S
C254 O256 1.246 . S
O255 Tb238 2.427 1_554 S
O255 C254 1.275 . S
O256 Tb238 2.513 1_554 S
O256 C254 1.246 . S
C257 O241 1.245 . S
C257 O242 1.259 . S
Tb258 O261 2.453 . S
Tb258 O262 2.596 . S
Tb258 O263 2.374 . S
Tb258 O271 2.343 . S
Tb258 O273 2.353 . S
Tb258 O275 2.427 . S
Tb258 O276 2.513 . S
C259 O263 1.251 . S
C259 O265 1.263 . S
Tb260 O262 2.343 . S
Tb260 O265 2.353 . S
Tb260 O268 2.427 . S
Tb260 O269 2.513 . S
Tb260 O270 2.453 . S
Tb260 O271 2.596 . S
Tb260 O272 2.374 . S
O261 Tb258 2.453 . S
O261 C277 1.245 . S
O262 Tb258 2.596 . S
O262 Tb260 2.343 . S
O262 C277 1.259 . S
O263 Tb258 2.374 . S
O263 C259 1.251 . S
C264 O268 1.275 . S
C264 O269 1.246 . S
O265 C259 1.263 . S
O265 Tb260 2.353 . S
C266 O270 1.245 . S
C266 O271 1.259 . S
C267 O272 1.250 . S
C267 O273 1.263 . S
O268 Tb260 2.427 . S
O268 C264 1.275 . S
O269 Tb260 2.513 . S
O269 C264 1.246 . S
O270 Tb260 2.453 . S
O270 C266 1.245 . S
O271 Tb258 2.343 . S
O271 Tb260 2.596 . S
O271 C266 1.259 . S
O272 Tb260 2.374 . S
O272 C267 1.250 . S
O273 Tb258 2.353 . S
O273 C267 1.263 . S
C274 O275 1.275 . S
C274 O276 1.246 . S
O275 Tb258 2.427 . S
O275 C274 1.275 . S
O276 Tb258 2.513 . S
O276 C274 1.246 . S
C277 O261 1.245 . S
C277 O262 1.259 . S
Tb278 O281 2.453 . S
Tb278 O282 2.596 . S
Tb278 O283 2.374 . S
Tb278 O291 2.343 . S
Tb278 O293 2.353 . S
Tb278 O295 2.427 . S
Tb278 O296 2.513 . S
C279 O283 1.251 . S
C279 O285 1.263 . S
Tb280 O282 2.343 . S
Tb280 O285 2.353 . S
Tb280 O288 2.427 . S
Tb280 O289 2.513 . S
Tb280 O290 2.453 . S
Tb280 O291 2.596 . S
Tb280 O292 2.374 . S
O281 Tb278 2.453 . S
O281 C297 1.245 . S
O282 Tb278 2.596 . S
O282 Tb280 2.343 . S
O282 C297 1.259 . S
O283 Tb278 2.374 . S
O283 C279 1.251 . S
C284 O288 1.275 . S
C284 O289 1.246 . S
O285 C279 1.263 . S
O285 Tb280 2.353 . S
C286 O290 1.245 . S
C286 O291 1.259 . S
C287 O292 1.250 . S
C287 O293 1.263 . S
O288 Tb280 2.427 . S
O288 C284 1.275 . S
O289 Tb280 2.513 . S
O289 C284 1.246 . S
O290 Tb280 2.453 . S
O290 C286 1.245 . S
O291 Tb278 2.343 . S
O291 Tb280 2.596 . S
O291 C286 1.259 . S
O292 Tb280 2.374 . S
O292 C287 1.250 . S
O293 Tb278 2.353 . S
O293 C287 1.263 . S
C294 O295 1.275 . S
C294 O296 1.246 . S
O295 Tb278 2.427 . S
O295 C294 1.275 . S
O296 Tb278 2.513 . S
O296 C294 1.246 . S
C297 O281 1.245 . S
C297 O282 1.259 . S
Tb298 O301 2.453 . S
Tb298 O302 2.596 . S
Tb298 O303 2.374 . S
Tb298 O311 2.343 . S
Tb298 O313 2.353 . S
Tb298 O315 2.427 . S
Tb298 O316 2.513 . S
C299 O303 1.251 . S
C299 O305 1.263 . S
Tb300 O302 2.343 . S
Tb300 O305 2.353 . S
Tb300 O308 2.427 . S
Tb300 O309 2.513 . S
Tb300 O310 2.453 . S
Tb300 O311 2.596 . S
Tb300 O312 2.374 . S
O301 Tb298 2.453 . S
O301 C317 1.245 . S
O302 Tb298 2.596 . S
O302 Tb300 2.343 . S
O302 C317 1.259 . S
O303 Tb298 2.374 . S
O303 C299 1.251 . S
C304 O308 1.275 . S
C304 O309 1.246 . S
O305 C299 1.263 . S
O305 Tb300 2.353 . S
C306 O310 1.245 . S
C306 O311 1.259 . S
C307 O312 1.250 . S
C307 O313 1.263 . S
O308 Tb300 2.427 . S
O308 C304 1.275 . S
O309 Tb300 2.513 . S
O309 C304 1.246 . S
O310 Tb300 2.453 . S
O310 C306 1.245 . S
O311 Tb298 2.343 . S
O311 Tb300 2.596 . S
O311 C306 1.259 . S
O312 Tb300 2.374 . S
O312 C307 1.250 . S
O313 Tb298 2.353 . S
O313 C307 1.263 . S
C314 O315 1.275 . S
C314 O316 1.246 . S
O315 Tb298 2.427 . S
O315 C314 1.275 . S
O316 Tb298 2.513 . S
O316 C314 1.246 . S
C317 O301 1.245 . S
C317 O302 1.259 . S
Tb318 O321 2.453 . S
Tb318 O322 2.596 . S
Tb318 O323 2.374 . S
Tb318 O331 2.343 . S
Tb318 O333 2.353 . S
Tb318 O335 2.427 . S
Tb318 O336 2.513 . S
C319 O323 1.251 . S
C319 O325 1.263 . S
Tb320 O322 2.343 . S
Tb320 O325 2.353 . S
Tb320 O328 2.427 . S
Tb320 O329 2.513 . S
Tb320 O330 2.453 . S
Tb320 O331 2.596 . S
Tb320 O332 2.374 . S
O321 Tb318 2.453 . S
O321 C337 1.245 . S
O322 Tb318 2.596 . S
O322 Tb320 2.343 . S
O322 C337 1.259 . S
O323 Tb318 2.374 . S
O323 C319 1.251 . S
C324 O328 1.275 . S
C324 O329 1.246 . S
O325 C319 1.263 . S
O325 Tb320 2.353 . S
C326 O330 1.245 . S
C326 O331 1.259 . S
C327 O332 1.250 . S
C327 O333 1.263 . S
O328 Tb320 2.427 . S
O328 C324 1.275 . S
O329 Tb320 2.513 . S
O329 C324 1.246 . S
O330 Tb320 2.453 . S
O330 C326 1.245 . S
O331 Tb318 2.343 . S
O331 Tb320 2.596 . S
O331 C326 1.259 . S
O332 Tb320 2.374 . S
O332 C327 1.250 . S
O333 Tb318 2.353 . S
O333 C327 1.263 . S
C334 O335 1.275 . S
C334 O336 1.246 . S
O335 Tb318 2.427 . S
O335 C334 1.275 . S
O336 Tb318 2.513 . S
O336 C334 1.246 . S
C337 O321 1.245 . S
C337 O322 1.259 . S
Tb338 O341 2.453 . S
Tb338 O342 2.596 . S
Tb338 O343 2.374 . S
Tb338 O351 2.343 . S
Tb338 O353 2.353 . S
Tb338 O355 2.427 . S
Tb338 O356 2.513 . S
C339 O343 1.251 . S
C339 O345 1.263 . S
Tb340 O342 2.343 . S
Tb340 O345 2.353 . S
Tb340 O348 2.427 . S
Tb340 O349 2.513 . S
Tb340 O350 2.453 . S
Tb340 O351 2.596 . S
Tb340 O352 2.374 . S
O341 Tb338 2.453 . S
O341 C357 1.245 . S
O342 Tb338 2.596 . S
O342 Tb340 2.343 . S
O342 C357 1.259 . S
O343 Tb338 2.374 . S
O343 C339 1.251 . S
C344 O348 1.275 . S
C344 O349 1.246 . S
O345 C339 1.263 . S
O345 Tb340 2.353 . S
C346 O350 1.245 . S
C346 O351 1.259 . S
C347 O352 1.250 . S
C347 O353 1.263 . S
O348 Tb340 2.427 . S
O348 C344 1.275 . S
O349 Tb340 2.513 . S
O349 C344 1.246 . S
O350 Tb340 2.453 . S
O350 C346 1.245 . S
O351 Tb338 2.343 . S
O351 Tb340 2.596 . S
O351 C346 1.259 . S
O352 Tb340 2.374 . S
O352 C347 1.250 . S
O353 Tb338 2.353 . S
O353 C347 1.263 . S
C354 O355 1.275 . S
C354 O356 1.246 . S
O355 Tb338 2.427 . S
O355 C354 1.275 . S
O356 Tb338 2.513 . S
O356 C354 1.246 . S
C357 O341 1.245 . S
C357 O342 1.259 . S
Tb358 O361 2.453 . S
Tb358 O362 2.596 . S
Tb358 O363 2.374 . S
Tb358 O371 2.343 . S
Tb358 O373 2.353 . S
Tb358 O375 2.427 . S
Tb358 O376 2.513 . S
C359 O363 1.251 . S
C359 O365 1.263 . S
Tb360 O362 2.343 . S
Tb360 O365 2.353 . S
Tb360 O368 2.427 . S
Tb360 O369 2.513 . S
Tb360 O370 2.453 . S
Tb360 O371 2.596 . S
Tb360 O372 2.374 . S
O361 Tb358 2.453 . S
O361 C377 1.245 . S
O362 Tb358 2.596 . S
O362 Tb360 2.343 . S
O362 C377 1.259 . S
O363 Tb358 2.374 . S
O363 C359 1.251 . S
C364 O368 1.275 . S
C364 O369 1.246 . S
O365 C359 1.263 . S
O365 Tb360 2.353 . S
C366 O370 1.245 . S
C366 O371 1.259 . S
C367 O372 1.250 . S
C367 O373 1.263 . S
O368 Tb360 2.427 . S
O368 C364 1.275 . S
O369 Tb360 2.513 . S
O369 C364 1.246 . S
O370 Tb360 2.453 . S
O370 C366 1.245 . S
O371 Tb358 2.343 . S
O371 Tb360 2.596 . S
O371 C366 1.259 . S
O372 Tb360 2.374 . S
O372 C367 1.250 . S
O373 Tb358 2.353 . S
O373 C367 1.263 . S
C374 O375 1.275 . S
C374 O376 1.246 . S
O375 Tb358 2.427 . S
O375 C374 1.275 . S
O376 Tb358 2.513 . S
O376 C374 1.246 . S
C377 O361 1.245 . S
C377 O362 1.259 . S
C378 C379 1.369 . S
C378 C380 1.419 . S
C378 H382 0.930 . S
C379 C378 1.369 . S
C379 C388 1.429 . S
C380 C378 1.419 . S
C380 C381 1.363 . S
C380 H383 0.929 . S
C381 C380 1.363 . S
C381 C387 1.428 . S
H382 C378 0.930 . S
H383 C380 0.929 . S
S384 N385 1.613 . S
S384 N386 1.610 . S
N385 S384 1.613 . S
N385 C388 1.350 . S
N386 S384 1.610 . S
N386 C387 1.351 . S
C387 C381 1.428 . S
C387 N386 1.351 . S
C387 C388 1.434 . S
C388 C379 1.429 . S
C388 N385 1.350 . S
C388 C387 1.434 . S
C389 C390 1.369 . S
C389 C391 1.419 . S
C389 H393 0.930 . S
C390 C389 1.369 . S
C390 C399 1.429 . S
C391 C389 1.419 . S
C391 C392 1.363 . S
C391 H394 0.929 . S
C392 C391 1.363 . S
C392 C398 1.428 . S
H393 C389 0.930 . S
H394 C391 0.929 . S
S395 N396 1.613 . S
S395 N397 1.610 . S
N396 S395 1.613 . S
N396 C399 1.350 . S
N397 S395 1.610 . S
N397 C398 1.351 . S
C398 C392 1.428 . S
C398 N397 1.351 . S
C398 C399 1.434 . S
C399 C390 1.429 . S
C399 N396 1.350 . S
C399 C398 1.434 . S
C400 C401 1.369 . S
C400 C402 1.419 . S
C400 H404 0.930 1_554 S
C401 C400 1.369 . S
C401 C410 1.429 . S
C402 C400 1.419 . S
C402 C403 1.363 . S
C402 H405 0.929 1_554 S
C403 C402 1.363 . S
C403 C409 1.428 . S
H404 C400 0.930 1_556 S
H405 C402 0.929 1_556 S
S406 N407 1.613 . S
S406 N408 1.610 . S
N407 S406 1.613 . S
N407 C410 1.350 . S
N408 S406 1.610 . S
N408 C409 1.351 . S
C409 C403 1.428 . S
C409 N408 1.351 . S
C409 C410 1.434 . S
C410 C401 1.429 . S
C410 N407 1.350 . S
C410 C409 1.434 . S
C411 C412 1.369 . S
C411 C413 1.419 . S
C411 H415 0.930 . S
C412 C411 1.369 . S
C412 C421 1.429 . S
C413 C411 1.419 . S
C413 C414 1.363 . S
C413 H416 0.929 . S
C414 C413 1.363 . S
C414 C420 1.428 . S
H415 C411 0.930 . S
H416 C413 0.929 . S
S417 N418 1.613 . S
S417 N419 1.610 . S
N418 S417 1.613 . S
N418 C421 1.350 . S
N419 S417 1.610 . S
N419 C420 1.351 . S
C420 C414 1.428 . S
C420 N419 1.351 . S
C420 C421 1.434 . S
C421 C412 1.429 . S
C421 N418 1.350 . S
C421 C420 1.434 . S
C422 C423 1.369 . S
C422 C424 1.419 . S
C422 H426 0.930 . S
C423 C422 1.369 . S
C423 C432 1.429 . S
C424 C422 1.419 . S
C424 C425 1.363 . S
C424 H427 0.929 . S
C425 C424 1.363 . S
C425 C431 1.428 . S
H426 C422 0.930 . S
H427 C424 0.929 . S
S428 N429 1.613 1_554 S
S428 N430 1.610 . S
N429 S428 1.613 1_556 S
N429 C432 1.350 . S
N430 S428 1.610 . S
N430 C431 1.351 1_554 S
C431 C425 1.428 . S
C431 N430 1.351 1_556 S
C431 C432 1.434 . S
C432 C423 1.429 . S
C432 N429 1.350 . S
C432 C431 1.434 . S
C433 C434 1.369 1_554 S
C433 C435 1.419 . S
C433 H437 0.930 . S
C434 C433 1.369 1_556 S
C434 C443 1.429 . S
C435 C433 1.419 . S
C435 C436 1.363 1_554 S
C435 H438 0.929 . S
C436 C435 1.363 1_556 S
C436 C442 1.428 . S
H437 C433 0.930 . S
H438 C435 0.929 . S
S439 N440 1.613 . S
S439 N441 1.610 . S
N440 S439 1.613 . S
N440 C443 1.350 . S
N441 S439 1.610 . S
N441 C442 1.351 . S
C442 C436 1.428 . S
C442 N441 1.351 . S
C442 C443 1.434 . S
C443 C434 1.429 . S
C443 N440 1.350 . S
C443 C442 1.434 . S
C444 C445 1.369 . S
C444 C446 1.419 . S
C444 H448 0.930 . S
C445 C444 1.369 . S
C445 C454 1.429 . S
C446 C444 1.419 . S
C446 C447 1.363 . S
C446 H449 0.929 . S
C447 C446 1.363 . S
C447 C453 1.428 . S
H448 C444 0.930 . S
H449 C446 0.929 . S
S450 N451 1.613 . S
S450 N452 1.610 . S
N451 S450 1.613 . S
N451 C454 1.350 . S
N452 S450 1.610 . S
N452 C453 1.351 . S
C453 C447 1.428 . S
C453 N452 1.351 . S
C453 C454 1.434 . S
C454 C445 1.429 . S
C454 N451 1.350 . S
C454 C453 1.434 . S
C455 C456 1.369 . S
C455 C457 1.419 . S
C455 H459 0.930 . S
C456 C455 1.369 . S
C456 C465 1.429 1_556 S
C457 C455 1.419 . S
C457 C458 1.363 . S
C457 H460 0.929 . S
C458 C457 1.363 . S
C458 C464 1.428 1_556 S
H459 C455 0.930 . S
H460 C457 0.929 . S
S461 N462 1.613 . S
S461 N463 1.610 . S
N462 S461 1.613 . S
N462 C465 1.350 . S
N463 S461 1.610 . S
N463 C464 1.351 . S
C464 C458 1.428 1_554 S
C464 N463 1.351 . S
C464 C465 1.434 . S
C465 C456 1.429 1_554 S
C465 N462 1.350 . S
C465 C464 1.434 . S
C466 C467 1.372 . S
C466 C468 1.419 1_556 S
C466 H470 0.927 1_556 S
C467 C466 1.372 . S
C467 C476 1.429 . S
C468 C466 1.419 1_554 S
C468 C469 1.363 1_554 S
C468 H471 0.929 . S
C469 C468 1.363 1_556 S
C469 C475 1.428 . S
H470 C466 0.927 1_554 S
H471 C468 0.929 . S
S472 N473 1.613 . S
S472 N474 1.610 . S
N473 S472 1.613 . S
N473 C476 1.350 . S
N474 S472 1.610 . S
N474 C475 1.351 . S
C475 C469 1.428 . S
C475 N474 1.351 . S
C475 C476 1.434 . S
C476 C467 1.429 . S
C476 N473 1.350 . S
C476 C475 1.434 . S
C477 C478 1.369 . S
C477 C479 1.419 . S
C477 H481 0.930 . S
C478 C477 1.369 . S
C478 C487 1.429 . S
C479 C477 1.419 . S
C479 C480 1.363 . S
C479 H482 0.929 . S
C480 C479 1.363 . S
C480 C486 1.428 . S
H481 C477 0.930 . S
H482 C479 0.929 . S
S483 N484 1.613 . S
S483 N485 1.610 . S
N484 S483 1.613 . S
N484 C487 1.350 . S
N485 S483 1.610 . S
N485 C486 1.351 . S
C486 C480 1.428 . S
C486 N485 1.351 . S
C486 C487 1.434 . S
C487 C478 1.429 . S
C487 N484 1.350 . S
C487 C486 1.434 . S
C488 C489 1.369 . S
C488 C490 1.419 . S
C488 H492 0.930 . S
C489 C488 1.369 . S
C489 C498 1.429 . S
C490 C488 1.419 . S
C490 C491 1.363 . S
C490 H493 0.929 . S
C491 C490 1.363 . S
C491 C497 1.428 . S
H492 C488 0.930 . S
H493 C490 0.929 . S
S494 N495 1.613 . S
S494 N496 1.610 . S
N495 S494 1.613 . S
N495 C498 1.350 . S
N496 S494 1.610 . S
N496 C497 1.351 . S
C497 C491 1.428 . S
C497 N496 1.351 . S
C497 C498 1.434 . S
C498 C489 1.429 . S
C498 N495 1.350 . S
C498 C497 1.434 . S
C499 C500 1.369 . S
C499 C501 1.419 . S
C499 H503 0.930 . S
C500 C499 1.369 . S
C500 C509 1.429 . S
C501 C499 1.419 . S
C501 C502 1.363 . S
C501 H504 0.929 . S
C502 C501 1.363 . S
C502 C508 1.428 . S
H503 C499 0.930 . S
H504 C501 0.929 . S
S505 N506 1.613 . S
S505 N507 1.610 . S
N506 S505 1.613 . S
N506 C509 1.350 . S
N507 S505 1.610 . S
N507 C508 1.351 . S
C508 C502 1.428 . S
C508 N507 1.351 . S
C508 C509 1.434 . S
C509 C500 1.429 . S
C509 N506 1.350 . S
C509 C508 1.434 . S
C510 C511 1.369 1_455 S
C510 C512 1.419 . S
C510 H514 0.930 1_455 S
C511 C510 1.369 1_655 S
C511 C520 1.424 . S
C512 C510 1.419 . S
C512 C513 1.363 . S
C512 H515 0.929 . S
C513 C512 1.363 . S
C513 C519 1.428 . S
H514 C510 0.930 1_655 S
H515 C512 0.929 . S
S516 N517 1.613 1_455 S
S516 N518 1.610 . S
N517 S516 1.613 1_655 S
N517 C520 1.385 . S
N518 S516 1.610 . S
N518 C519 1.351 . S
C519 C513 1.428 . S
C519 N518 1.351 . S
C519 C520 1.403 1_455 S
C520 C511 1.424 . S
C520 N517 1.385 . S
C520 C519 1.403 1_655 S
C521 C522 1.369 . S
C521 C523 1.419 . S
C521 H525 0.930 . S
C522 C521 1.369 . S
C522 C531 1.429 . S
C523 C521 1.419 . S
C523 C524 1.363 . S
C523 H526 0.929 . S
C524 C523 1.363 . S
C524 C530 1.428 . S
H525 C521 0.930 . S
H526 C523 0.929 . S
S527 N528 1.613 . S
S527 N529 1.610 . S
N528 S527 1.613 . S
N528 C531 1.350 . S
N529 S527 1.610 . S
N529 C530 1.351 . S
C530 C524 1.428 . S
C530 N529 1.351 . S
C530 C531 1.434 . S
C531 C522 1.429 . S
C531 N528 1.350 . S
C531 C530 1.434 . S
C532 C533 1.369 . S
C532 C534 1.419 1_545 S
C532 H536 0.930 . S
C533 C532 1.369 . S
C533 C542 1.429 1_545 S
C534 C532 1.419 1_565 S
C534 C535 1.363 . S
C534 H537 0.929 . S
C535 C534 1.363 . S
C535 C541 1.428 . S
H536 C532 0.930 . S
H537 C534 0.929 . S
S538 N539 1.613 . S
S538 N540 1.610 . S
N539 S538 1.613 . S
N539 C542 1.350 . S
N540 S538 1.610 . S
N540 C541 1.351 . S
C541 C535 1.428 . S
C541 N540 1.351 . S
C541 C542 1.434 . S
C542 C533 1.429 1_565 S
C542 N539 1.350 . S
C542 C541 1.434 . S
C543 C544 1.369 . S
C543 C545 1.419 . S
C543 H547 0.930 . S
C544 C543 1.369 . S
C544 C553 1.429 . S
C545 C543 1.419 . S
C545 C546 1.363 . S
C545 H548 0.929 . S
C546 C545 1.363 . S
C546 C552 1.428 . S
H547 C543 0.930 . S
H548 C545 0.929 . S
S549 N550 1.613 . S
S549 N551 1.610 . S
N550 S549 1.613 . S
N550 C553 1.350 . S
N551 S549 1.610 . S
N551 C552 1.351 . S
C552 C546 1.428 . S
C552 N551 1.351 . S
C552 C553 1.434 . S
C553 C544 1.429 . S
C553 N550 1.350 . S
C553 C552 1.434 . S
C554 C555 1.369 . S
C554 C556 1.419 . S
C554 H558 0.930 . S
C555 C554 1.369 . S
C555 C564 1.429 . S
C556 C554 1.419 . S
C556 C557 1.363 . S
C556 H559 0.929 . S
C557 C556 1.363 . S
C557 C563 1.428 . S
H558 C554 0.930 . S
H559 C556 0.929 . S
S560 N561 1.613 . S
S560 N562 1.610 . S
N561 S560 1.613 . S
N561 C564 1.350 . S
N562 S560 1.610 . S
N562 C563 1.351 . S
C563 C557 1.428 . S
C563 N562 1.351 . S
C563 C564 1.434 . S
C564 C555 1.429 . S
C564 N561 1.350 . S
C564 C563 1.434 . S
C565 C566 1.369 . S
C565 C567 1.419 . S
C565 H569 0.930 . S
C566 C565 1.369 . S
C566 C575 1.429 . S
C567 C565 1.419 . S
C567 C568 1.363 . S
C567 H570 0.929 . S
C568 C567 1.363 . S
C568 C574 1.428 . S
H569 C565 0.930 . S
H570 C567 0.929 . S
S571 N572 1.613 . S
S571 N573 1.610 . S
N572 S571 1.613 . S
N572 C575 1.350 . S
N573 S571 1.610 . S
N573 C574 1.351 . S
C574 C568 1.428 . S
C574 N573 1.351 . S
C574 C575 1.434 . S
C575 C566 1.429 . S
C575 N572 1.350 . S
C575 C574 1.434 . S
C576 C577 1.369 . S
C576 C578 1.419 . S
C576 H580 0.930 . S
C577 C576 1.369 . S
C577 C586 1.429 . S
C578 C576 1.419 . S
C578 C579 1.363 . S
C578 H581 0.929 . S
C579 C578 1.363 . S
C579 C585 1.428 . S
H580 C576 0.930 . S
H581 C578 0.929 . S
S582 N583 1.613 . S
S582 N584 1.610 . S
N583 S582 1.613 . S
N583 C586 1.350 . S
N584 S582 1.610 . S
N584 C585 1.351 . S
C585 C579 1.428 . S
C585 N584 1.351 . S
C585 C586 1.434 . S
C586 C577 1.429 . S
C586 N583 1.350 . S
C586 C585 1.434 . S
C587 C588 1.369 . S
C587 C589 1.419 . S
C587 H591 0.930 . S
C588 C587 1.369 . S
C588 C597 1.429 . S
C589 C587 1.419 . S
C589 C590 1.363 . S
C589 H592 0.929 . S
C590 C589 1.363 . S
C590 C596 1.428 . S
H591 C587 0.930 . S
H592 C589 0.929 . S
S593 N594 1.613 . S
S593 N595 1.610 . S
N594 S593 1.613 . S
N594 C597 1.350 . S
N595 S593 1.610 . S
N595 C596 1.351 . S
C596 C590 1.428 . S
C596 N595 1.351 . S
C596 C597 1.434 . S
C597 C588 1.429 . S
C597 N594 1.350 . S
C597 C596 1.434 . S
C598 C599 1.369 . S
C598 C600 1.419 . S
C598 H602 0.930 . S
C599 C598 1.369 . S
C599 C608 1.429 . S
C600 C598 1.419 . S
C600 C601 1.363 . S
C600 H603 0.929 . S
C601 C600 1.363 . S
C601 C607 1.428 . S
H602 C598 0.930 . S
H603 C600 0.929 . S
S604 N605 1.613 . S
S604 N606 1.610 . S
N605 S604 1.613 . S
N605 C608 1.350 . S
N606 S604 1.610 . S
N606 C607 1.351 . S
C607 C601 1.428 . S
C607 N606 1.351 . S
C607 C608 1.434 . S
C608 C599 1.429 . S
C608 N605 1.350 . S
C608 C607 1.434 . S
C609 C610 1.369 1_565 S
C609 C611 1.419 . S
C609 H613 0.930 1_565 S
C610 C609 1.369 1_545 S
C610 C619 1.429 1_545 S
C611 C609 1.419 . S
C611 C612 1.363 . S
C611 H614 0.929 . S
C612 C611 1.363 . S
C612 C618 1.428 . S
H613 C609 0.930 1_545 S
H614 C611 0.929 . S
S615 N616 1.613 . S
S615 N617 1.610 . S
N616 S615 1.613 . S
N616 C619 1.350 . S
N617 S615 1.610 . S
N617 C618 1.351 . S
C618 C612 1.428 . S
C618 N617 1.351 . S
C618 C619 1.434 . S
C619 C610 1.429 1_565 S
C619 N616 1.350 . S
C619 C618 1.434 . S
C620 C621 1.369 1_455 S
C620 C622 1.419 . S
C620 H624 0.930 . S
C621 C620 1.369 1_655 S
C621 C630 1.429 1_655 S
C622 C620 1.419 . S
C622 C623 1.363 . S
C622 H625 0.929 . S
C623 C622 1.363 . S
C623 C629 1.428 . S
H624 C620 0.930 . S
H625 C622 0.929 . S
S626 N627 1.613 1_455 S
S626 N628 1.610 . S
N627 S626 1.613 1_655 S
N627 C630 1.350 1_655 S
N628 S626 1.610 . S
N628 C629 1.351 . S
C629 C623 1.428 . S
C629 N628 1.351 . S
C629 C630 1.434 . S
C630 C621 1.429 1_455 S
C630 N627 1.350 1_455 S
C630 C629 1.434 . S
C631 C632 1.369 . S
C631 C633 1.419 . S
C631 H635 0.930 . S
C632 C631 1.369 . S
C632 C641 1.429 . S
C633 C631 1.419 . S
C633 C634 1.363 . S
C633 H636 0.929 . S
C634 C633 1.363 . S
C634 C640 1.428 . S
H635 C631 0.930 . S
H636 C633 0.929 . S
S637 N638 1.613 . S
S637 N639 1.610 . S
N638 S637 1.613 . S
N638 C641 1.350 . S
N639 S637 1.610 . S
N639 C640 1.351 . S
C640 C634 1.428 . S
C640 N639 1.351 . S
C640 C641 1.434 . S
C641 C632 1.429 . S
C641 N638 1.350 . S
C641 C640 1.434 . S
C642 C643 1.369 . S
C642 C644 1.419 . S
C642 H646 0.930 . S
C643 C642 1.369 . S
C643 C652 1.429 . S
C644 C642 1.419 . S
C644 C645 1.363 . S
C644 H647 0.929 . S
C645 C644 1.363 . S
C645 C651 1.428 . S
H646 C642 0.930 . S
H647 C644 0.929 . S
S648 N649 1.613 . S
S648 N650 1.610 . S
N649 S648 1.613 . S
N649 C652 1.350 . S
N650 S648 1.610 . S
N650 C651 1.351 . S
C651 C645 1.428 . S
C651 N650 1.351 . S
C651 C652 1.434 . S
C652 C643 1.429 . S
C652 N649 1.350 . S
C652 C651 1.434 . S
C653 C654 1.369 . S
C653 C655 1.419 . S
C653 H657 0.930 . S
C654 C653 1.369 . S
C654 C663 1.429 . S
C655 C653 1.419 . S
C655 C656 1.363 . S
C655 H658 0.929 . S
C656 C655 1.363 . S
C656 C662 1.428 . S
H657 C653 0.930 . S
H658 C655 0.929 . S
S659 N660 1.613 . S
S659 N661 1.610 . S
N660 S659 1.613 . S
N660 C663 1.350 . S
N661 S659 1.610 . S
N661 C662 1.351 . S
C662 C656 1.428 . S
C662 N661 1.351 . S
C662 C663 1.434 . S
C663 C654 1.429 . S
C663 N660 1.350 . S
C663 C662 1.434 . S
C664 C665 1.369 . S
C664 C666 1.419 . S
C664 H668 0.930 . S
C665 C664 1.369 . S
C665 C674 1.429 . S
C666 C664 1.419 . S
C666 C667 1.363 . S
C666 H669 0.929 . S
C667 C666 1.363 . S
C667 C673 1.428 . S
H668 C664 0.930 . S
H669 C666 0.929 . S
S670 N671 1.613 . S
S670 N672 1.610 . S
N671 S670 1.613 . S
N671 C674 1.350 . S
N672 S670 1.610 . S
N672 C673 1.351 . S
C673 C667 1.428 . S
C673 N672 1.351 . S
C673 C674 1.434 . S
C674 C665 1.429 . S
C674 N671 1.350 . S
C674 C673 1.434 . S
C675 C676 1.369 1_545 S
C675 C677 1.419 . S
C675 H679 0.930 1_545 S
C676 C675 1.369 1_565 S
C676 C685 1.429 1_565 S
C677 C675 1.419 . S
C677 C678 1.363 . S
C677 H680 0.929 . S
C678 C677 1.363 . S
C678 C684 1.428 . S
H679 C675 0.930 1_565 S
H680 C677 0.929 . S
S681 N682 1.613 . S
S681 N683 1.610 . S
N682 S681 1.613 . S
N682 C685 1.350 . S
N683 S681 1.610 . S
N683 C684 1.351 . S
C684 C678 1.428 . S
C684 N683 1.351 . S
C684 C685 1.434 . S
C685 C676 1.429 1_545 S
C685 N682 1.350 . S
C685 C684 1.434 . S
C686 C687 1.369 . S
C686 C688 1.419 1_455 S
C686 H690 0.930 . S
C687 C686 1.369 . S
C687 C696 1.429 . S
C688 C686 1.419 1_655 S
C688 C689 1.363 . S
C688 H691 0.929 . S
C689 C688 1.363 . S
C689 C695 1.428 . S
H690 C686 0.930 . S
H691 C688 0.929 . S
S692 N693 1.613 . S
S692 N694 1.610 1_455 S
N693 S692 1.613 . S
N693 C696 1.350 . S
N694 S692 1.610 1_655 S
N694 C695 1.351 . S
C695 C689 1.428 . S
C695 N694 1.351 . S
C695 C696 1.434 1_655 S
C696 C687 1.429 . S
C696 N693 1.350 . S
C696 C695 1.434 1_455 S
C697 C698 1.369 . S
C697 C699 1.419 . S
C697 H701 0.930 . S
C698 C697 1.369 . S
C698 C707 1.429 . S
C699 C697 1.419 . S
C699 C700 1.363 . S
C699 H702 0.929 . S
C700 C699 1.363 . S
C700 C706 1.428 . S
H701 C697 0.930 . S
H702 C699 0.929 . S
S703 N704 1.613 . S
S703 N705 1.610 . S
N704 S703 1.613 . S
N704 C707 1.350 . S
N705 S703 1.610 . S
N705 C706 1.351 . S
C706 C700 1.428 . S
C706 N705 1.351 . S
C706 C707 1.434 . S
C707 C698 1.429 . S
C707 N704 1.350 . S
C707 C706 1.434 . S
C708 C709 1.369 1_655 S
C708 C710 1.419 . S
C708 H712 0.928 . S
C709 C708 1.369 1_455 S
C709 C718 1.429 . S
C710 C708 1.419 . S
C710 C711 1.363 . S
C710 H713 0.929 . S
C711 C710 1.363 . S
C711 C717 1.428 . S
H712 C708 0.928 . S
H713 C710 0.929 . S
S714 N715 1.602 1_655 S
S714 N716 1.651 . S
N715 S714 1.602 1_455 S
N715 C718 1.350 . S
N716 S714 1.651 . S
N716 C717 1.351 . S
C717 C711 1.428 . S
C717 N716 1.351 . S
C717 C718 1.434 1_655 S
C718 C709 1.429 . S
C718 N715 1.350 . S
C718 C717 1.434 1_455 S
C719 C720 1.369 . S
C719 C721 1.419 . S
C719 H723 0.930 . S
C720 C719 1.369 . S
C720 C729 1.429 . S
C721 C719 1.419 . S
C721 C722 1.363 . S
C721 H724 0.929 . S
C722 C721 1.363 . S
C722 C728 1.428 . S
H723 C719 0.930 . S
H724 C721 0.929 . S
S725 N726 1.613 . S
S725 N727 1.610 . S
N726 S725 1.613 . S
N726 C729 1.350 . S
N727 S725 1.610 . S
N727 C728 1.351 . S
C728 C722 1.428 . S
C728 N727 1.351 . S
C728 C729 1.434 . S
C729 C720 1.429 . S
C729 N726 1.350 . S
C729 C728 1.434 . S
C730 C731 1.369 1_545 S
C730 C732 1.419 . S
C730 H734 0.930 . S
C731 C730 1.369 1_565 S
C731 C740 1.429 1_565 S
C732 C730 1.419 . S
C732 C733 1.363 . S
C732 H735 0.929 . S
C733 C732 1.363 . S
C733 C739 1.428 . S
H734 C730 0.930 . S
H735 C732 0.929 . S
S736 N737 1.613 1_545 S
S736 N738 1.610 . S
N737 S736 1.613 1_565 S
N737 C740 1.350 1_565 S
N738 S736 1.610 . S
N738 C739 1.351 . S
C739 C733 1.428 . S
C739 N738 1.351 . S
C739 C740 1.434 . S
C740 C731 1.429 1_545 S
C740 N737 1.350 1_545 S
C740 C739 1.434 . S
C741 C742 1.369 . S
C741 C743 1.419 . S
C741 H745 0.930 . S
C742 C741 1.369 . S
C742 C751 1.429 . S
C743 C741 1.419 . S
C743 C744 1.363 . S
C743 H746 0.929 . S
C744 C743 1.363 . S
C744 C750 1.428 . S
H745 C741 0.930 . S
H746 C743 0.929 . S
S747 N748 1.613 . S
S747 N749 1.610 . S
N748 S747 1.613 . S
N748 C751 1.350 . S
N749 S747 1.610 . S
N749 C750 1.351 . S
C750 C744 1.428 . S
C750 N749 1.351 . S
C750 C751 1.434 . S
C751 C742 1.429 . S
C751 N748 1.350 . S
C751 C750 1.434 . S
C752 C753 1.369 . S
C752 C754 1.419 . S
C752 H756 0.930 . S
C753 C752 1.369 . S
C753 C762 1.429 . S
C754 C752 1.419 . S
C754 C755 1.363 . S
C754 H757 0.929 . S
C755 C754 1.363 . S
C755 C761 1.428 . S
H756 C752 0.930 . S
H757 C754 0.929 . S
S758 N759 1.613 . S
S758 N760 1.610 . S
N759 S758 1.613 . S
N759 C762 1.350 . S
N760 S758 1.610 . S
N760 C761 1.351 . S
C761 C755 1.428 . S
C761 N760 1.351 . S
C761 C762 1.434 . S
C762 C753 1.429 . S
C762 N759 1.350 . S
C762 C761 1.434 . S
C763 C764 1.369 . S
C763 C765 1.419 . S
C763 H767 0.930 . S
C764 C763 1.369 . S
C764 C773 1.429 . S
C765 C763 1.419 . S
C765 C766 1.363 . S
C765 H768 0.929 . S
C766 C765 1.363 . S
C766 C772 1.428 . S
H767 C763 0.930 . S
H768 C765 0.929 . S
S769 N770 1.613 . S
S769 N771 1.610 . S
N770 S769 1.613 . S
N770 C773 1.350 . S
N771 S769 1.610 . S
N771 C772 1.351 . S
C772 C766 1.428 . S
C772 N771 1.351 . S
C772 C773 1.434 . S
C773 C764 1.429 . S
C773 N770 1.350 . S
C773 C772 1.434 . S
C774 C775 1.369 . S
C774 C776 1.419 . S
C774 H778 0.930 . S
C775 C774 1.369 . S
C775 C784 1.429 . S
C776 C774 1.419 . S
C776 C777 1.363 . S
C776 H779 0.929 . S
C777 C776 1.363 . S
C777 C783 1.428 . S
H778 C774 0.930 . S
H779 C776 0.929 . S
S780 N781 1.613 . S
S780 N782 1.610 . S
N781 S780 1.613 . S
N781 C784 1.350 . S
N782 S780 1.610 . S
N782 C783 1.351 . S
C783 C777 1.428 . S
C783 N782 1.351 . S
C783 C784 1.434 . S
C784 C775 1.429 . S
C784 N781 1.350 . S
C784 C783 1.434 . S
C785 C786 1.369 . S
C785 C787 1.419 . S
C785 H789 0.930 . S
C786 C785 1.369 . S
C786 C795 1.429 . S
C787 C785 1.419 . S
C787 C788 1.363 . S
C787 H790 0.929 . S
C788 C787 1.363 . S
C788 C794 1.428 . S
H789 C785 0.930 . S
H790 C787 0.929 . S
S791 N792 1.613 1_655 S
S791 N793 1.610 . S
N792 S791 1.613 1_455 S
N792 C795 1.350 . S
N793 S791 1.610 . S
N793 C794 1.351 1_655 S
C794 C788 1.428 . S
C794 N793 1.351 1_455 S
C794 C795 1.434 . S
C795 C786 1.429 . S
C795 N792 1.350 . S
C795 C794 1.434 . S
C796 C797 1.369 . S
C796 C798 1.419 . S
C796 H800 0.930 . S
C797 C796 1.369 . S
C797 C806 1.429 . S
C798 C796 1.419 . S
C798 C799 1.363 . S
C798 H801 0.929 . S
C799 C798 1.363 . S
C799 C805 1.428 . S
H800 C796 0.930 . S
H801 C798 0.929 . S
S802 N803 1.613 . S
S802 N804 1.610 . S
N803 S802 1.613 . S
N803 C806 1.350 . S
N804 S802 1.610 . S
N804 C805 1.351 . S
C805 C799 1.428 . S
C805 N804 1.351 . S
C805 C806 1.434 . S
C806 C797 1.429 . S
C806 N803 1.350 . S
C806 C805 1.434 . S
C807 C808 1.369 . S
C807 C809 1.419 . S
C807 H811 0.930 . S
C808 C807 1.369 . S
C808 C817 1.429 . S
C809 C807 1.419 . S
C809 C810 1.363 . S
C809 H812 0.929 . S
C810 C809 1.363 . S
C810 C816 1.428 . S
H811 C807 0.930 . S
H812 C809 0.929 . S
S813 N814 1.613 . S
S813 N815 1.610 . S
N814 S813 1.613 . S
N814 C817 1.350 . S
N815 S813 1.610 . S
N815 C816 1.351 . S
C816 C810 1.428 . S
C816 N815 1.351 . S
C816 C817 1.434 . S
C817 C808 1.429 . S
C817 N814 1.350 . S
C817 C816 1.434 . S
C818 C819 1.369 . S
C818 C820 1.419 . S
C818 H822 0.930 . S
C819 C818 1.369 . S
C819 C828 1.429 . S
C820 C818 1.419 . S
C820 C821 1.363 . S
C820 H823 0.929 . S
C821 C820 1.363 . S
C821 C827 1.428 . S
H822 C818 0.930 . S
H823 C820 0.929 . S
S824 N825 1.613 . S
S824 N826 1.610 . S
N825 S824 1.613 . S
N825 C828 1.350 . S
N826 S824 1.610 . S
N826 C827 1.351 . S
C827 C821 1.428 . S
C827 N826 1.351 . S
C827 C828 1.434 . S
C828 C819 1.429 . S
C828 N825 1.350 . S
C828 C827 1.434 . S
C829 C830 1.369 . S
C829 C831 1.419 . S
C829 H833 0.930 . S
C830 C829 1.369 . S
C830 C839 1.429 . S
C831 C829 1.419 . S
C831 C832 1.363 . S
C831 H834 0.929 . S
C832 C831 1.363 . S
C832 C838 1.428 . S
H833 C829 0.930 . S
H834 C831 0.929 . S
S835 N836 1.613 . S
S835 N837 1.610 . S
N836 S835 1.613 . S
N836 C839 1.350 1_565 S
N837 S835 1.610 . S
N837 C838 1.351 1_565 S
C838 C832 1.428 . S
C838 N837 1.351 1_545 S
C838 C839 1.434 . S
C839 C830 1.429 . S
C839 N836 1.350 1_545 S
C839 C838 1.434 . S
C840 C841 1.369 . S
C840 C842 1.419 . S
C840 H844 0.930 . S
C841 C840 1.369 . S
C841 C850 1.429 . S
C842 C840 1.419 . S
C842 C843 1.363 . S
C842 H845 0.929 . S
C843 C842 1.363 . S
C843 C849 1.428 . S
H844 C840 0.930 . S
H845 C842 0.929 . S
S846 N847 1.613 . S
S846 N848 1.610 . S
N847 S846 1.613 . S
N847 C850 1.350 . S
N848 S846 1.610 . S
N848 C849 1.351 . S
C849 C843 1.428 . S
C849 N848 1.351 . S
C849 C850 1.434 . S
C850 C841 1.429 . S
C850 N847 1.350 . S
C850 C849 1.434 . S
C851 C852 1.369 . S
C851 C853 1.419 . S
C851 H855 0.930 . S
C852 C851 1.369 . S
C852 C861 1.429 . S
C853 C851 1.419 . S
C853 C854 1.363 . S
C853 H856 0.929 . S
C854 C853 1.363 . S
C854 C860 1.428 . S
H855 C851 0.930 . S
H856 C853 0.929 . S
S857 N858 1.613 . S
S857 N859 1.610 . S
N858 S857 1.613 . S
N858 C861 1.350 . S
N859 S857 1.610 . S
N859 C860 1.351 . S
C860 C854 1.428 . S
C860 N859 1.351 . S
C860 C861 1.434 . S
C861 C852 1.429 . S
C861 N858 1.350 . S
C861 C860 1.434 . S
C862 C863 1.369 . S
C862 C864 1.419 . S
C862 H866 0.930 . S
C863 C862 1.369 . S
C863 C872 1.429 . S
C864 C862 1.419 . S
C864 C865 1.363 . S
C864 H867 0.929 . S
C865 C864 1.363 . S
C865 C871 1.428 . S
H866 C862 0.930 . S
H867 C864 0.929 . S
S868 N869 1.613 . S
S868 N870 1.610 . S
N869 S868 1.613 . S
N869 C872 1.350 . S
N870 S868 1.610 . S
N870 C871 1.351 . S
C871 C865 1.428 . S
C871 N870 1.351 . S
C871 C872 1.434 . S
C872 C863 1.429 . S
C872 N869 1.350 . S
C872 C871 1.434 . S
C873 C874 1.369 . S
C873 C875 1.419 . S
C873 H877 0.930 . S
C874 C873 1.369 . S
C874 C883 1.429 . S
C875 C873 1.419 . S
C875 C876 1.363 . S
C875 H878 0.929 . S
C876 C875 1.363 . S
C876 C882 1.428 . S
H877 C873 0.930 . S
H878 C875 0.929 . S
S879 N880 1.613 . S
S879 N881 1.610 . S
N880 S879 1.613 . S
N880 C883 1.350 . S
N881 S879 1.610 . S
N881 C882 1.351 . S
C882 C876 1.428 . S
C882 N881 1.351 . S
C882 C883 1.434 . S
C883 C874 1.429 . S
C883 N880 1.350 . S
C883 C882 1.434 . S
C884 C885 1.369 . S
C884 C886 1.419 . S
C884 H888 0.930 . S
C885 C884 1.369 . S
C885 C894 1.429 . S
C886 C884 1.419 . S
C886 C887 1.363 . S
C886 H889 0.929 . S
C887 C886 1.363 . S
C887 C893 1.428 . S
H888 C884 0.930 . S
H889 C886 0.929 . S
S890 N891 1.613 . S
S890 N892 1.610 . S
N891 S890 1.613 . S
N891 C894 1.350 . S
N892 S890 1.610 . S
N892 C893 1.351 . S
C893 C887 1.428 . S
C893 N892 1.351 . S
C893 C894 1.434 . S
C894 C885 1.429 . S
C894 N891 1.350 . S
C894 C893 1.434 . S
C895 C896 1.369 . S
C895 C897 1.419 . S
C895 H899 0.930 . S
C896 C895 1.369 . S
C896 C905 1.429 . S
C897 C895 1.419 . S
C897 C898 1.363 . S
C897 H900 0.929 . S
C898 C897 1.363 . S
C898 C904 1.428 . S
H899 C895 0.930 . S
H900 C897 0.929 . S
S901 N902 1.613 . S
S901 N903 1.610 . S
N902 S901 1.613 . S
N902 C905 1.350 . S
N903 S901 1.610 . S
N903 C904 1.351 . S
C904 C898 1.428 . S
C904 N903 1.351 . S
C904 C905 1.434 . S
C905 C896 1.429 . S
C905 N902 1.350 . S
C905 C904 1.434 . S
C906 C907 1.369 . S
C906 C908 1.419 . S
C906 H910 0.930 . S
C907 C906 1.369 . S
C907 C916 1.429 . S
C908 C906 1.419 . S
C908 C909 1.363 . S
C908 H911 0.929 . S
C909 C908 1.363 . S
C909 C915 1.428 . S
H910 C906 0.930 . S
H911 C908 0.929 . S
S912 N913 1.613 . S
S912 N914 1.610 . S
N913 S912 1.613 . S
N913 C916 1.350 . S
N914 S912 1.610 . S
N914 C915 1.351 . S
C915 C909 1.428 . S
C915 N914 1.351 . S
C915 C916 1.434 . S
C916 C907 1.429 . S
C916 N913 1.350 . S
C916 C915 1.434 . S
C917 C918 1.369 . S
C917 C919 1.419 . S
C917 H921 0.930 . S
C918 C917 1.369 . S
C918 C927 1.429 . S
C919 C917 1.419 . S
C919 C920 1.363 . S
C919 H922 0.929 . S
C920 C919 1.363 . S
C920 C926 1.428 . S
H921 C917 0.930 . S
H922 C919 0.929 . S
S923 N924 1.613 . S
S923 N925 1.610 . S
N924 S923 1.613 . S
N924 C927 1.350 . S
N925 S923 1.610 . S
N925 C926 1.351 . S
C926 C920 1.428 . S
C926 N925 1.351 . S
C926 C927 1.434 . S
C927 C918 1.429 . S
C927 N924 1.350 . S
C927 C926 1.434 . S
C928 C929 1.369 . S
C928 C930 1.419 . S
C928 H932 0.930 . S
C929 C928 1.369 . S
C929 C938 1.429 . S
C930 C928 1.419 . S
C930 C931 1.363 . S
C930 H933 0.929 . S
C931 C930 1.363 . S
C931 C937 1.428 . S
H932 C928 0.930 . S
H933 C930 0.929 . S
S934 N935 1.613 . S
S934 N936 1.610 . S
N935 S934 1.613 . S
N935 C938 1.350 . S
N936 S934 1.610 . S
N936 C937 1.351 . S
C937 C931 1.428 . S
C937 N936 1.351 . S
C937 C938 1.434 . S
C938 C929 1.429 . S
C938 N935 1.350 . S
C938 C937 1.434 . S
C939 C940 1.369 . S
C939 C941 1.419 . S
C939 H943 0.930 . S
C940 C939 1.369 . S
C940 C949 1.429 . S
C941 C939 1.419 . S
C941 C942 1.363 . S
C941 H944 0.929 . S
C942 C941 1.363 . S
C942 C948 1.428 . S
H943 C939 0.930 . S
H944 C941 0.929 . S
S945 N946 1.613 . S
S945 N947 1.610 . S
N946 S945 1.613 . S
N946 C949 1.350 . S
N947 S945 1.610 . S
N947 C948 1.351 . S
C948 C942 1.428 . S
C948 N947 1.351 . S
C948 C949 1.434 . S
C949 C940 1.429 . S
C949 N946 1.350 . S
C949 C948 1.434 . S
C950 C951 1.369 . S
C950 C952 1.419 . S
C950 H954 0.930 . S
C951 C950 1.369 . S
C951 C960 1.429 . S
C952 C950 1.419 . S
C952 C953 1.363 . S
C952 H955 0.929 . S
C953 C952 1.363 . S
C953 C959 1.428 . S
H954 C950 0.930 . S
H955 C952 0.929 . S
S956 N957 1.613 . S
S956 N958 1.610 . S
N957 S956 1.613 . S
N957 C960 1.350 . S
N958 S956 1.610 . S
N958 C959 1.351 . S
C959 C953 1.428 . S
C959 N958 1.351 . S
C959 C960 1.434 . S
C960 C951 1.429 . S
C960 N957 1.350 . S
C960 C959 1.434 . S
C961 C962 1.369 . S
C961 C963 1.419 . S
C961 H965 0.930 . S
C962 C961 1.369 . S
C962 C971 1.429 . S
C963 C961 1.419 . S
C963 C964 1.363 . S
C963 H966 0.929 . S
C964 C963 1.363 . S
C964 C970 1.428 . S
H965 C961 0.930 . S
H966 C963 0.929 . S
S967 N968 1.613 . S
S967 N969 1.610 . S
N968 S967 1.613 . S
N968 C971 1.350 . S
N969 S967 1.610 . S
N969 C970 1.351 . S
C970 C964 1.428 . S
C970 N969 1.351 . S
C970 C971 1.434 . S
C971 C962 1.429 . S
C971 N968 1.350 . S
C971 C970 1.434 . S
C379 C151 1.335 . S
C381 C204 1.342 . S
C390 C159 1.535 . S
C392 C224 1.640 . S
C401 C137 1.390 . S
C403 C247 1.522 . S
C412 C126 1.307 . S
C414 C227 1.442 1_556 S
C425 C244 1.668 . S
C423 C104 1.577 . S
C434 C118 1.312 . S
C436 C207 1.344 1_556 S
C447 C214 1.503 . S
C445 C129 1.543 . S
C458 C234 1.478 . S
C456 C107 1.521 . S
C467 C115 1.224 . S
C469 C239 1.526 . S
C478 C148 1.175 . S
C480 C219 1.435 . S
C489 C162 1.528 . S
C491 C254 1.494 . S
C502 C199 1.509 . S
C500 C140 1.524 . S
C513 C264 1.337 . S
C511 C19 1.342 . S
C522 C27 1.542 . S
C524 C284 1.636 . S
C533 C5 1.394 . S
C535 C307 1.521 . S
C544 C192 1.309 . S
C546 C287 1.444 . S
C555 C170 1.570 . S
C557 C304 1.665 . S
C566 C184 1.317 . S
C568 C267 1.341 . S
C577 C195 1.543 . S
C579 C274 1.502 . S
C588 C173 1.521 . S
C590 C294 1.482 . S
C601 C299 1.526 . S
C599 C181 1.221 . S
C610 C16 1.180 . S
C612 C279 1.434 . S
C623 C314 1.494 . S
C621 C30 1.528 . S
C632 C8 1.524 . S
C634 C259 1.508 . S
C645 C324 1.340 . S
C643 C85 1.340 . S
C654 C93 1.540 . S
C656 C344 1.640 . S
C667 C367 1.521 . S
C665 C71 1.395 . S
C678 C347 1.444 . S
C676 C60 1.321 . S
C689 C364 1.668 . S
C687 C38 1.577 . S
C698 C52 1.314 . S
C700 C327 1.343 . S
C709 C63 1.543 . S
C711 C334 1.499 . S
C720 C41 1.522 . S
C722 C354 1.479 . S
C733 C359 1.522 . S
C731 C49 1.237 . S
C742 C82 1.182 . S
C744 C339 1.433 . S
C753 C96 1.528 . S
C755 C374 1.493 . S
C764 C74 1.526 . S
C766 C319 1.511 . S
C775 C172 1.485 . S
C777 C217 1.502 . S
C788 C237 1.418 . S
C786 C183 1.412 . S
C797 C194 1.509 . S
C799 C246 1.464 . S
C808 C73 1.643 . S
C810 C226 1.583 . S
C819 C84 1.274 . S
C821 C257 1.290 . S
C832 C206 1.457 . S
C830 C95 1.473 . S
C841 C40 1.486 . S
C843 C277 1.501 . S
C852 C51 1.412 . S
C854 C297 1.419 . S
C863 C62 1.507 . S
C865 C306 1.462 . S
C874 C139 1.639 . S
C876 C286 1.581 . S
C887 C317 1.288 . S
C885 C150 1.280 . S
C896 C161 1.472 . S
C898 C266 1.463 . S
C907 C106 1.495 . S
C909 C337 1.505 . S
C918 C117 1.411 . S
C920 C357 1.422 . S
C931 C366 1.466 . S
C929 C128 1.503 . S
C940 C7 1.643 . S
C942 C346 1.584 . S
C951 C18 1.282 . S
C953 C377 1.285 . S
C962 C29 1.474 . S
C964 C326 1.463 . S
