# Generated by pormake.
# Topology zzz, (3,6)-cn, num edge types: 1
# Building blocks:
#     Node 0, Type 0, BuildingBlock: OLANEW_clean_sbu_2, # of connection points: 3
#     Node 1, Type 0, BuildingBlock: OLANEW_clean_sbu_2, # of connection points: 3
#     Node 2, Type 0, BuildingBlock: OLANEW_clean_sbu_2, # of connection points: 3
#     Node 3, Type 0, BuildingBlock: OLANEW_clean_sbu_2, # of connection points: 3
#     Node 4, Type 0, BuildingBlock: OLANEW_clean_sbu_2, # of connection points: 3
#     Node 5, Type 0, BuildingBlock: OLANEW_clean_sbu_2, # of connection points: 3
#     Node 6, Type 0, BuildingBlock: OLANEW_clean_sbu_2, # of connection points: 3
#     Node 7, Type 0, BuildingBlock: OLANEW_clean_sbu_2, # of connection points: 3
#     Node 8, Type 1, BuildingBlock: BETGAK_clean_sbu_0, # of connection points: 6
#     Node 9, Type 1, BuildingBlock: BETGAK_clean_sbu_0, # of connection points: 6
#     Node 10, Type 1, BuildingBlock: BETGAK_clean_sbu_0, # of connection points: 6
#     Node 11, Type 1, BuildingBlock: BETGAK_clean_sbu_0, # of connection points: 6
#     Edge 12, Type (0, 1), BuildingBlock: AJUNOK_clean_linker_0, # of connection points: 2
#     Edge 13, Type (0, 1), BuildingBlock: AJUNOK_clean_linker_0, # of connection points: 2
#     Edge 14, Type (0, 1), BuildingBlock: AJUNOK_clean_linker_0, # of connection points: 2
#     Edge 15, Type (0, 1), BuildingBlock: AJUNOK_clean_linker_0, # of connection points: 2
#     Edge 16, Type (0, 1), BuildingBlock: AJUNOK_clean_linker_0, # of connection points: 2
#     Edge 17, Type (0, 1), BuildingBlock: AJUNOK_clean_linker_0, # of connection points: 2
#     Edge 18, Type (0, 1), BuildingBlock: AJUNOK_clean_linker_0, # of connection points: 2
#     Edge 19, Type (0, 1), BuildingBlock: AJUNOK_clean_linker_0, # of connection points: 2
#     Edge 20, Type (0, 1), BuildingBlock: AJUNOK_clean_linker_0, # of connection points: 2
#     Edge 21, Type (0, 1), BuildingBlock: AJUNOK_clean_linker_0, # of connection points: 2
#     Edge 22, Type (0, 1), BuildingBlock: AJUNOK_clean_linker_0, # of connection points: 2
#     Edge 23, Type (0, 1), BuildingBlock: AJUNOK_clean_linker_0, # of connection points: 2
#     Edge 24, Type (0, 1), BuildingBlock: AJUNOK_clean_linker_0, # of connection points: 2
#     Edge 25, Type (0, 1), BuildingBlock: AJUNOK_clean_linker_0, # of connection points: 2
#     Edge 26, Type (0, 1), BuildingBlock: AJUNOK_clean_linker_0, # of connection points: 2
#     Edge 27, Type (0, 1), BuildingBlock: AJUNOK_clean_linker_0, # of connection points: 2
#     Edge 28, Type (0, 1), BuildingBlock: AJUNOK_clean_linker_0, # of connection points: 2
#     Edge 29, Type (0, 1), BuildingBlock: AJUNOK_clean_linker_0, # of connection points: 2
#     Edge 30, Type (0, 1), BuildingBlock: AJUNOK_clean_linker_0, # of connection points: 2
#     Edge 31, Type (0, 1), BuildingBlock: AJUNOK_clean_linker_0, # of connection points: 2
#     Edge 32, Type (0, 1), BuildingBlock: AJUNOK_clean_linker_0, # of connection points: 2
#     Edge 33, Type (0, 1), BuildingBlock: AJUNOK_clean_linker_0, # of connection points: 2
#     Edge 34, Type (0, 1), BuildingBlock: AJUNOK_clean_linker_0, # of connection points: 2
#     Edge 35, Type (0, 1), BuildingBlock: AJUNOK_clean_linker_0, # of connection points: 2
# Relax obj value: 0.312
# Max RMSD: 0.212
# Mean RMSD: 0.173
data_MOF--net-zzz--node1-OLANEW_clean_sbu_2--node2-BETGAK_clean_sbu_0--edge1-AJUNOK_clean_linker_0
_symmetry_space_group_name_H-M    P1
_symmetry_Int_Tables_number       1
_symmetry_cell_setting            triclinic
loop_
_symmetry_equiv_pos_as_xyz
'x, y, z'
_cell_length_a     43.206721
_cell_length_b     43.235249
_cell_length_c     11.778923
_cell_angle_alpha  89.476342
_cell_angle_beta   89.881385
_cell_angle_gamma 90.017541
loop_
_atom_site_label
_atom_site_type_symbol
_atom_site_fract_x
_atom_site_fract_y
_atom_site_fract_z
_atom_type_partial_charge
O0 O 0.72111 0.48701 0.34951 0.0
Cd1 Cd 0.6706 0.50246 0.42332 0.0
O2 O 0.73161 0.53668 0.34304 0.0
Cd3 Cd 0.76837 0.57071 0.32791 0.0
O4 O 0.81617 0.56655 0.38207 0.0
C5 C 0.82018 0.55283 0.47681 0.0
O6 O 0.79574 0.54489 0.5369 0.0
C7 C 0.73984 0.50885 0.32687 0.0
C8 C 0.62742 0.50729 0.24895 0.0
O9 O 0.6458 0.52969 0.27106 0.0
O10 O 0.6292 0.48271 0.31028 0.0
O11 O 0.93746 0.70952 0.22223 0.0
Cd12 Cd 0.91067 0.66106 0.26147 0.0
O13 O 0.91625 0.72865 0.37539 0.0
Cd14 Cd 0.90882 0.76874 0.481 0.0
O15 O 0.91844 0.81506 0.53902 0.0
C16 C 0.93278 0.81838 0.63189 0.0
O17 O 0.93934 0.79367 0.69305 0.0
C18 C 0.9342 0.73175 0.29054 0.0
C19 C 0.93556 0.6176 0.11586 0.0
O20 O 0.9118 0.63364 0.08761 0.0
O21 O 0.94688 0.62145 0.21519 0.0
O22 O 0.76702 0.94078 0.2914 0.0
Cd23 Cd 0.81347 0.93627 0.40894 0.0
O24 O 0.76761 0.98891 0.34756 0.0
Cd25 Cd 0.74057 0.03065 0.37222 0.0
O26 O 0.69162 0.03341 0.41184 0.0
C27 C 0.68112 0.00974 0.46388 0.0
O28 O 0.70048 0.98761 0.4927 0.0
C29 C 0.75503 0.96756 0.29019 0.0
C30 C 0.86537 0.95427 0.28424 0.0
O31 O 0.85651 0.926 0.28903 0.0
O32 O 0.84983 0.9742 0.34054 0.0
O33 O 0.5576 0.78181 0.19079 0.0
Cd34 Cd 0.57976 0.83347 0.20863 0.0
O35 O 0.54902 0.78287 0.37373 0.0
Cd36 Cd 0.5381 0.76149 0.53664 0.0
O37 O 0.52841 0.72075 0.63859 0.0
C38 C 0.54074 0.69646 0.59929 0.0
O39 O 0.55858 0.6989 0.50913 0.0
C40 C 0.54736 0.76859 0.2799 0.0
C41 C 0.55106 0.87528 0.06184 0.0
O42 O 0.5745 0.85937 0.03002 0.0
O43 O 0.54128 0.87147 0.1638 0.0
O44 O 0.2801 0.47724 0.20199 0.0
Cd45 Cd 0.33398 0.46191 0.17743 0.0
O46 O 0.26405 0.43091 0.15287 0.0
Cd47 Cd 0.22253 0.40432 0.11499 0.0
O48 O 0.17593 0.41292 0.05155 0.0
C49 C 0.17432 0.43204 0.96912 0.0
O50 O 0.2001 0.44371 0.92782 0.0
C51 C 0.25823 0.45816 0.18617 0.0
C52 C 0.36702 0.47932 0.3696 0.0
O53 O 0.36575 0.497 0.28172 0.0
O54 O 0.35327 0.45312 0.36523 0.0
O55 O 0.01804 0.26444 0.20663 0.0
Cd56 Cd 0.03503 0.31326 0.12203 0.0
O57 O 0.06719 0.25208 0.21538 0.0
Cd58 Cd 0.10109 0.21526 0.23524 0.0
O59 O 0.09431 0.16724 0.19009 0.0
C60 C 0.07741 0.164 0.10289 0.0
O61 O 0.06814 0.1889 0.04788 0.0
C62 C 0.03902 0.24542 0.23554 0.0
C63 C 0.02786 0.35849 0.28568 0.0
O64 O 0.00699 0.35407 0.21036 0.0
O65 O 0.05262 0.34226 0.28076 0.0
O66 O 0.20813 0.96685 0.20148 0.0
Cd67 Cd 0.15441 0.97552 0.14948 0.0
O68 O 0.21821 0.01014 0.11002 0.0
Cd69 Cd 0.2533 0.0418 0.04438 0.0
O70 O 0.2968 0.04845 0.95401 0.0
C71 C 0.32173 0.05203 0.0092 0.0
O72 O 0.32029 0.05414 0.12022 0.0
C73 C 0.22732 0.98746 0.17057 0.0
C74 C 0.12024 0.97918 0.34909 0.0
O75 O 0.12287 0.95366 0.29539 0.0
O76 O 0.13331 0.00329 0.30678 0.0
O77 O 0.56346 0.25541 0.23382 0.0
Cd78 Cd 0.57838 0.20249 0.19436 0.0
O79 O 0.51478 0.24795 0.18594 0.0
Cd80 Cd 0.4702 0.26987 0.15182 0.0
O81 O 0.45381 0.31608 0.10841 0.0
C82 C 0.46225 0.32596 0.01139 0.0
O83 O 0.47704 0.30693 0.94386 0.0
C84 C 0.53603 0.26552 0.22304 0.0
C85 C 0.54785 0.16163 0.3395 0.0
O86 O 0.57184 0.17644 0.37243 0.0
O87 O 0.53819 0.16616 0.23792 0.0
La88 La 0.02169 0.97453 0.96058 0.0
La89 La 0.98815 0.00883 0.76887 0.0
C90 C 0.03087 0.9398 0.12944 0.0
C91 C 0.02088 0.90805 0.15793 0.0
C92 C 0.00531 0.90241 0.26062 0.0
C93 C 0.99322 0.87311 0.28507 0.0
C94 C 0.99618 0.849 0.20658 0.0
C95 C 0.01206 0.8546 0.10423 0.0
C96 C 0.0244 0.88382 0.08025 0.0
C97 C 0.05444 0.98648 0.77722 0.0
C98 C 0.98131 0.93728 0.776 0.0
C99 C 0.97635 0.0414 0.59574 0.0
C100 C 0.98604 0.07121 0.54531 0.0
C101 C 0.99075 0.07337 0.42759 0.0
C102 C -0.00017 0.10139 0.37737 0.0
C103 C 0.00457 0.12772 0.44422 0.0
C104 C -0.00036 0.12552 0.56218 0.0
C105 C 0.99059 0.0975 0.61235 0.0
C106 C 0.95405 0.99364 0.94465 0.0
C107 C 0.03037 0.04532 0.94959 0.0
O108 O 0.05071 0.9431 0.04581 0.0
O109 O 0.00855 0.96023 0.12436 0.0
O110 O 0.06632 0.98533 0.87861 0.0
O111 O 0.02652 0.97887 0.78268 0.0
O112 O 0.99609 0.93763 0.87468 0.0
O113 O 0.97788 0.96247 0.71295 0.0
O114 O 0.96021 0.04235 0.69012 0.0
O115 O 0.99743 0.01962 0.59794 0.0
O116 O 0.94341 0.9957 0.84198 0.0
O117 O 0.9817 0.00285 0.9471 0.0
O118 O 0.01723 0.04461 0.84764 0.0
O119 O 0.03192 0.02064 0.01593 0.0
H120 H 0.00178 0.92091 0.3207 0.0
H121 H 0.98071 0.86958 0.3638 0.0
H122 H 0.01468 0.83643 0.04222 0.0
H123 H 0.03597 0.88759 0.99963 0.0
H124 H 0.98741 0.05334 0.37436 0.0
H125 H 0.00348 0.10239 0.28639 0.0
H126 H 0.00239 0.14558 0.61563 0.0
H127 H 0.98698 0.09645 0.70331 0.0
La128 La 0.51257 0.0233 0.80335 0.0
La129 La 0.48117 0.00256 0.58801 0.0
C130 C 0.54511 0.02609 0.98065 0.0
C131 C 0.57596 0.01575 0.01876 0.0
C132 C 0.5952 0.03692 0.07375 0.0
C133 C 0.62463 0.02812 0.1104 0.0
C134 C 0.63547 0.99786 0.09344 0.0
C135 C 0.61602 0.97646 0.03943 0.0
C136 C 0.58655 0.98536 0.0017 0.0
C137 C 0.50255 0.06762 0.65017 0.0
C138 C 0.55259 -0.00073 0.59808 0.0
C139 C 0.44951 0.99835 0.40875 0.0
C140 C 0.41751 0.99089 0.37782 0.0
C141 C 0.40921 0.98974 0.26295 0.0
C142 C 0.37827 0.98566 0.23205 0.0
C143 C 0.35521 0.98342 0.31577 0.0
C144 C 0.36368 0.98355 0.43083 0.0
C145 C 0.39471 0.98701 0.46169 0.0
C146 C 0.49259 0.95858 0.73784 0.0
C147 C 0.44116 0.03014 0.79578 0.0
O148 O 0.54471 0.04768 0.90218 0.0
O149 O 0.52431 0.00471 0.96265 0.0
O150 O 0.50197 0.07153 0.7593 0.0
O151 O 0.5103 0.04014 0.63178 0.0
O152 O 0.54923 -0.00085 0.70971 0.0
O153 O 0.529 0.00584 0.53055 0.0
O154 O 0.46615 0.9757 0.45062 0.0
O155 O 0.45304 0.02391 0.46585 0.0
O156 O 0.49338 0.95458 0.62915 0.0
O157 O 0.48379 0.98565 0.75771 0.0
O158 O 0.44251 0.02143 0.68802 0.0
O159 O 0.46578 0.03012 0.862 0.0
H160 H 0.58743 0.06039 0.08838 0.0
H161 H 0.63885 0.04501 0.15309 0.0
H162 H 0.62375 0.95299 0.02503 0.0
H163 H 0.57216 0.96854 0.95917 0.0
H164 H 0.4265 0.99296 0.19719 0.0
H165 H 0.37216 0.98568 0.14289 0.0
H166 H 0.34621 0.98167 0.49664 0.0
H167 H 0.40079 0.98759 0.55078 0.0
La168 La 0.47416 0.52668 0.9334 0.0
La169 La 0.50033 0.50444 0.70813 0.0
C170 C 0.46848 0.55353 0.1211 0.0
C171 C 0.47955 0.58364 0.16519 0.0
C172 C 0.45919 0.60891 0.17128 0.0
C173 C 0.46991 0.63811 0.20303 0.0
C174 C 0.50121 0.64266 0.2309 0.0
C175 C 0.52133 0.61712 0.22914 0.0
C176 C 0.51066 0.58794 0.19681 0.0
C177 C 0.43429 0.52001 0.76772 0.0
C178 C 0.50487 0.57397 0.75551 0.0
C179 C 0.50799 0.48153 0.5137 0.0
C180 C 0.51159 0.45053 0.46641 0.0
C181 C 0.51237 0.44657 0.34842 0.0
C182 C 0.51526 0.41693 0.30296 0.0
C183 C 0.51674 0.39095 0.37523 0.0
C184 C 0.51641 0.39514 0.4934 0.0
C185 C 0.51398 0.42474 0.5386 0.0
C186 C 0.54027 0.51 0.87515 0.0
C187 C 0.46997 0.45599 0.88711 0.0
O188 O 0.44764 0.55488 0.04044 0.0
O189 O 0.48957 0.53247 0.10076 0.0
O190 O 0.42775 0.5145 0.8737 0.0
O191 O 0.46135 0.53043 0.75975 0.0
O192 O 0.49935 0.56699 0.86349 0.0
O193 O 0.50117 0.55342 0.67471 0.0
O194 O 0.53064 0.49103 0.57823 0.0
O195 O 0.48086 0.48753 0.55791 0.0
O196 O 0.54721 0.51475 0.76934 0.0
O197 O 0.51301 0.50033 0.88205 0.0
O198 O 0.48001 0.46209 0.78235 0.0
O199 O 0.46841 0.47758 0.96601 0.0
H200 H 0.43509 0.60635 0.14796 0.0
H201 H 0.45392 0.65738 0.20084 0.0
H202 H 0.54553 0.61985 0.25085 0.0
H203 H 0.52699 0.56896 0.19416 0.0
H204 H 0.51066 0.46636 0.29162 0.0
H205 H 0.5157 0.41424 0.2116 0.0
H206 H 0.51836 0.37553 0.55085 0.0
H207 H 0.51407 0.42755 0.62979 0.0
La208 La 0.98265 0.47706 0.8231 0.0
La209 La 0.01226 0.50607 0.61156 0.0
C210 C 0.95217 0.46552 0.00136 0.0
C211 C 0.9217 0.4729 0.05055 0.0
C212 C 0.90557 0.44974 0.10995 0.0
C213 C 0.87661 0.45584 0.15763 0.0
C214 C 0.86331 0.48545 0.14837 0.0
C215 C 0.87945 0.50859 0.08753 0.0
C216 C 0.9084 0.5024 0.03909 0.0
C217 C 0.99701 0.4391 0.6587 0.0
C218 C 0.94108 0.51061 0.63232 0.0
C219 C 0.04255 0.51618 0.4323 0.0
C220 C 0.07291 0.50717 0.38528 0.0
C221 C 0.09524 0.53007 0.36395 0.0
C222 C 0.12449 0.52214 0.32296 0.0
C223 C 0.13187 0.49113 0.30067 0.0
C224 C 0.1093 0.46823 0.32001 0.0
C225 C 0.08011 0.47613 0.3621 0.0
C226 C 0.99758 0.54447 0.77433 0.0
C227 C 0.0541 0.47299 0.80175 0.0
O228 O 0.95201 0.44778 0.9119 0.0
O229 O 0.97207 0.48826 0.99158 0.0
O230 O 0.99864 0.43169 0.7654 0.0
O231 O 0.98606 0.4658 0.64803 0.0
O232 O 0.944 0.50171 0.74012 0.0
O233 O 0.9646 0.51008 0.5607 0.0
O234 O 0.0432 0.5344 0.52058 0.0
O235 O 0.02156 0.49442 0.44258 0.0
O236 O 0.99644 0.55153 0.66716 0.0
O237 O 0.00838 0.51767 0.7861 0.0
O238 O 0.05072 0.48155 0.69405 0.0
O239 O 0.03064 0.47299 0.87415 0.0
H240 H 0.91533 0.42675 0.11876 0.0
H241 H 0.86441 0.43713 0.19998 0.0
H242 H 0.86988 0.53163 0.07852 0.0
H243 H 0.92035 0.52065 0.99304 0.0
H244 H 0.09022 0.55415 0.38097 0.0
H245 H 0.1416 0.54022 0.31174 0.0
H246 H 0.11431 0.44414 0.30339 0.0
H247 H 0.06338 0.45788 0.37741 0.0
C248 C 0.10852 0.00539 0.5332 0.0
C249 C 0.10337 0.9806 0.45846 0.0
C250 C 0.09342 0.00679 0.63874 0.0
C251 C 0.0723 0.98377 0.67159 0.0
H252 H 0.12451 0.02374 0.51051 0.0
H253 H 0.09771 0.02631 0.69361 0.0
S254 S 0.05081 0.91389 0.5095 0.0
N255 N 0.07585 0.93226 0.42699 0.0
N256 N 0.04725 0.93532 0.62395 0.0
C257 C 0.06693 0.95892 0.59827 0.0
C258 C 0.08254 0.95721 0.49196 0.0
C259 C 0.5311 0.14437 0.53289 0.0
C260 C 0.53271 0.13894 0.41551 0.0
C261 C 0.51928 0.12188 0.6079 0.0
C262 C 0.50953 0.09287 0.56833 0.0
H263 H 0.53946 0.16597 0.56719 0.0
H264 H 0.51922 0.12677 0.69793 0.0
S265 S 0.5089 0.06749 0.26781 0.0
N266 N 0.5226 0.10312 0.26241 0.0
N267 N 0.50187 0.06035 0.40333 0.0
C268 C 0.51042 0.08754 0.45064 0.0
C269 C 0.52166 0.11071 0.37416 0.0
C270 C 0.40388 0.51473 0.46779 0.0
C271 C 0.38361 0.48926 0.4732 0.0
C272 C 0.41984 0.52475 0.5641 0.0
C273 C 0.41583 0.50992 0.66977 0.0
H274 H 0.40778 0.52691 0.38814 0.0
H275 H 0.43554 0.54416 0.55572 0.0
S276 S 0.36568 0.44222 0.73071 0.0
N277 N 0.36059 0.44937 0.59404 0.0
N278 N 0.39043 0.46856 0.77507 0.0
C279 C 0.39551 0.48469 0.67715 0.0
C280 C 0.37949 0.47418 0.57883 0.0
C281 C 0.00017 0.40393 0.36661 0.0
C282 C 0.02254 0.38049 0.3791 0.0
C283 C 0.99267 0.42337 0.457 0.0
C284 C 0.00676 0.41961 0.56355 0.0
H285 H 0.98811 0.40709 0.28684 0.0
H286 H 0.97504 0.4409 0.44421 0.0
S287 S 0.06823 0.36343 0.63898 0.0
N288 N 0.06007 0.35598 0.50505 0.0
N289 N 0.04528 0.39222 0.67544 0.0
C290 C 0.0297 0.39693 0.57671 0.0
C291 C 0.0378 0.37748 0.48414 0.0
C292 C 0.89707 0.99556 0.18804 0.0
C293 C 0.8914 0.9639 0.20948 0.0
C294 C 0.91876 0.00512 0.10594 0.0
C295 C 0.93556 0.9834 0.04312 0.0
H296 H 0.88381 0.01311 0.23151 0.0
H297 H 0.9215 0.02961 0.08833 0.0
S298 S 0.93201 0.89804 0.07445 0.0
N299 N 0.90664 0.911 0.16737 0.0
N300 N 0.94669 0.92912 0.01249 0.0
C301 C 0.93124 0.95186 0.06731 0.0
C302 C 0.90939 0.94206 0.151 0.0
C303 C 0.54364 0.89658 0.86593 0.0
C304 C 0.53555 0.89691 0.9818 0.0
C305 C 0.52919 0.91628 0.78744 0.0
C306 C 0.50635 0.9373 0.82193 0.0
H307 H 0.56121 0.88087 0.83509 0.0
H308 H 0.53635 0.91537 0.69931 0.0
S309 S 0.47623 0.94738 0.11401 0.0
N310 N 0.50281 0.92013 0.12657 0.0
N311 N 0.47559 0.95702 0.97807 0.0
C312 C 0.49783 0.93791 0.93691 0.0
C313 C 0.51246 0.91775 0.01711 0.0
C314 C 0.5779 0.49137 0.15737 0.0
C315 C 0.60499 0.50944 0.15451 0.0
C316 C 0.55668 0.49228 0.0676 0.0
C317 C 0.56218 0.51073 0.97072 0.0
H318 H 0.57299 0.47646 0.22957 0.0
H319 H 0.53617 0.47789 0.07314 0.0
S320 S 0.62908 0.56282 0.92196 0.0
N321 N 0.63563 0.54702 0.04783 0.0
N322 N 0.59602 0.54801 0.87791 0.0
C323 C 0.58894 0.52907 0.96693 0.0
C324 C 0.61027 0.52863 0.05927 0.0
C325 C 0.94163 0.5985 0.91807 0.0
C326 C 0.95057 0.5969 0.03285 0.0
C327 C 0.95711 0.58149 0.83511 0.0
C328 C 0.98184 0.56194 0.86395 0.0
H329 H 0.92294 0.61355 0.89122 0.0
H330 H 0.94956 0.58362 0.74771 0.0
S331 S 0.01379 0.54827 0.15176 0.0
N332 N 0.98541 0.57327 0.17113 0.0
N333 N 0.01446 0.54129 0.01416 0.0
C334 C 0.99069 0.55946 0.97818 0.0
C335 C 0.97505 0.57693 0.06297 0.0
C336 C 0.00641 0.19759 0.245 0.0
C337 C 0.03073 0.21544 0.28882 0.0
C338 C 0.99844 0.169 0.29449 0.0
C339 C 0.01417 0.15752 0.39069 0.0
H340 H 0.99368 0.20564 0.17133 0.0
H341 H 0.97946 0.15603 0.25834 0.0
S342 S 0.07914 0.19597 0.53903 0.0
N343 N 0.06985 0.2202 0.43545 0.0
N344 N 0.05548 0.1662 0.52661 0.0
C345 C 0.03851 0.17526 0.43517 0.0
C346 C 0.04661 0.20429 0.38477 0.0
C347 C 0.27888 0.96124 0.17887 0.0
C348 C 0.25962 0.98603 0.20911 0.0
C349 C 0.30996 0.96036 0.21384 0.0
C350 C 0.32223 0.98373 0.28287 0.0
H351 H 0.27005 0.94284 0.12619 0.0
H352 H 0.32444 0.9413 0.18721 0.0
S353 S 0.28076 0.05295 0.38706 0.0
N354 N 0.25471 0.0342 0.31169 0.0
N355 N 0.31268 0.03202 0.38065 0.0
C356 C 0.3029 0.00819 0.31539 0.0
C357 C 0.27166 0.00948 0.27755 0.0
C358 C 0.54841 0.32185 0.2169 0.0
C359 C 0.52908 0.29768 0.2545 0.0
C360 C 0.54346 0.35233 0.25244 0.0
C361 C 0.5194 0.35943 0.3284 0.0
H362 H 0.56766 0.3171 0.16063 0.0
H363 H 0.55924 0.37025 0.22364 0.0
S364 S 0.46216 0.30446 0.45012 0.0
N365 N 0.48496 0.2828 0.37107 0.0
N366 N 0.47532 0.34016 0.43624 0.0
C367 C 0.49954 0.33555 0.36454 0.0
C368 C 0.5045 0.30461 0.32811 0.0
C369 C 0.20944 0.45009 0.29339 0.0
C370 C 0.22607 0.46695 0.21116 0.0
C371 C 0.17885 0.45777 0.32026 0.0
C372 C 0.16368 0.48245 0.26499 0.0
H373 H 0.22035 0.43105 0.33845 0.0
H374 H 0.16722 0.44465 0.38653 0.0
S375 S 0.19637 0.53138 0.03352 0.0
N376 N 0.22505 0.50804 0.06974 0.0
N377 N 0.167 0.52202 0.11708 0.0
C378 C 0.17989 0.49888 0.17985 0.0
C379 C 0.21125 0.49128 0.1538 0.0
C380 C 0.94793 0.77647 0.16504 0.0
C381 C 0.95067 0.76114 0.27016 0.0
C382 C 0.96288 0.8048 0.14492 0.0
C383 C 0.98142 0.81853 0.22884 0.0
H384 H 0.93363 0.76679 0.09876 0.0
H385 H 0.9595 0.81629 0.06376 0.0
S386 S -0.00045 0.78513 0.51208 0.0
N387 N 0.97528 0.76013 0.45528 0.0
N388 N 0.00388 0.81313 0.41706 0.0
C389 C 0.98514 0.80282 0.33295 0.0
C390 C 0.96969 0.77414 0.35365 0.0
C391 C 0.70001 0.95396 0.24525 0.0
C392 C 0.72563 0.97363 0.22997 0.0
C393 C 0.67102 0.96151 0.19853 0.0
C394 C 0.66683 0.98878 0.13391 0.0
H395 H 0.70205 0.93334 0.29762 0.0
H396 H 0.65154 0.94644 0.21639 0.0
S397 S 0.72812 0.04519 0.05464 0.0
N398 N 0.74591 0.01962 0.13649 0.0
N399 N 0.6918 0.03353 0.04686 0.0
C400 C 0.69281 0.00764 0.11307 0.0
C401 C 0.72213 9e-05 0.16132 0.0
C402 C 0.55095 0.71497 0.20453 0.0
C403 C 0.53562 0.73642 0.27383 0.0
C404 C 0.54018 0.68453 0.1942 0.0
C405 C 0.51339 0.67437 0.25173 0.0
H406 H 0.57148 0.72178 0.15761 0.0
H407 H 0.55247 0.66909 0.13797 0.0
S408 S 0.46447 0.72166 0.44262 0.0
N409 N 0.49176 0.7457 0.39843 0.0
N410 N 0.47213 0.68815 0.38258 0.0
C411 C 0.49794 0.69555 0.32202 0.0
C412 C 0.50888 0.72664 0.33219 0.0
C413 C 0.78036 0.51415 0.17775 0.0
C414 C 0.7712 0.50228 0.28394 0.0
C415 C 0.81018 0.50877 0.13504 0.0
C416 C 0.83217 0.4918 0.19802 0.0
H417 H 0.76418 0.52739 0.12665 0.0
H418 H 0.81583 0.51759 0.05117 0.0
S419 S 0.82044 0.45936 0.48817 0.0
N420 N 0.78655 0.47449 0.4544 0.0
N421 N 0.84325 0.46575 0.37769 0.0
C422 C 0.82347 0.48075 0.30654 0.0
C423 C 0.79282 0.48563 0.34859 0.0
C424 C 0.05417 0.1298 0.95674 0.0
C425 C 0.06691 0.13314 0.06572 0.0
C426 C 0.0428 0.10132 0.91988 0.0
C427 C 0.04344 0.07495 0.99077 0.0
H428 H 0.05291 0.14939 0.89887 0.0
H429 H 0.03331 0.10014 0.83506 0.0
S430 S 0.07431 0.07148 0.28544 0.0
N431 N 0.07953 0.10775 0.24484 0.0
N432 N 0.0581 0.05415 0.17636 0.0
C433 C 0.05631 0.07792 0.10024 0.0
C434 C 0.06805 0.107 0.13751 0.0
C435 C 0.37923 0.04639 0.01637 0.0
C436 C 0.35215 0.04969 0.95131 0.0
C437 C 0.40788 0.04067 0.96512 0.0
C438 C 0.41077 0.03827 0.84638 0.0
H439 H 0.37826 0.04731 0.10818 0.0
H440 H 0.42777 0.03739 0.01975 0.0
S441 S 0.3476 0.04927 0.63646 0.0
N442 N 0.33045 0.0528 0.76098 0.0
N443 N 0.38442 0.04267 0.66446 0.0
C444 C 0.38413 0.04306 0.77982 0.0
C445 C 0.35484 0.04867 0.83221 0.0
C446 C 0.46698 0.36854 0.8684 0.0
C447 C 0.45944 0.35912 0.9796 0.0
C448 C 0.46876 0.39985 0.8384 0.0
C449 C 0.46346 0.42323 0.91857 0.0
H450 H 0.47242 0.35161 0.80409 0.0
H451 H 0.47532 0.40559 0.75211 0.0
S452 S 0.43831 0.41085 0.21764 0.0
N453 N 0.44323 0.37565 0.16764 0.0
N454 N 0.44678 0.43462 0.11155 0.0
C455 C 0.45397 0.41416 0.02859 0.0
C456 C 0.45194 0.38212 0.05904 0.0
C457 C 0.11716 0.43924 0.99083 0.0
C458 C 0.14397 0.44211 0.92367 0.0
C459 C 0.08832 0.44943 0.95101 0.0
C460 C 0.08505 0.46265 0.84187 0.0
H461 H 0.11848 0.42942 0.07568 0.0
H462 H 0.06845 0.44678 0.00645 0.0
S463 S 0.14827 0.47485 0.63141 0.0
N464 N 0.16549 0.45887 0.74229 0.0
N465 N 0.11144 0.4778 0.66684 0.0
C466 C 0.11174 0.46547 0.7735 0.0
C467 C 0.14114 0.45531 0.81454 0.0
C468 C 0.96027 0.85217 0.76933 0.0
C469 C 0.94416 0.84919 0.66648 0.0
C470 C 0.9723 0.88064 0.80301 0.0
C471 C 0.96873 0.90744 0.73557 0.0
H472 H 0.96378 0.83234 0.8247 0.0
H473 H 0.98442 0.8815 0.8831 0.0
S474 S 0.92855 0.91216 0.4573 0.0
N475 N 0.92528 0.87556 0.49648 0.0
N476 N 0.94802 0.92908 0.5598 0.0
C477 C 0.95272 0.90484 0.63205 0.0
C478 C 0.94038 0.87576 0.59764 0.0
C479 C 0.6377 0.98225 0.56259 0.0
C480 C 0.64779 0.00667 0.49147 0.0
C481 C 0.60653 0.97927 0.59392 0.0
C482 C 0.58425 4e-05 0.55248 0.0
H483 H 0.65407 0.96568 0.59691 0.0
H484 H 0.59988 0.96087 0.65209 0.0
S485 S 0.59823 0.06832 0.36673 0.0
N486 N 0.6327 0.05246 0.3831 0.0
N487 N 0.57405 0.04602 0.43883 0.0
C488 C 0.59375 0.02411 0.47958 0.0
C489 C 0.62556 0.02765 0.44983 0.0
C490 C 0.53772 0.63944 0.57794 0.0
C491 C 0.53275 0.66561 0.64548 0.0
C492 C 0.52889 0.61001 0.61533 0.0
C493 C 0.51495 0.60543 0.72225 0.0
H494 H 0.54789 0.64169 0.49411 0.0
H495 H 0.53296 0.5907 0.55924 0.0
S496 S 0.49757 0.66628 0.93311 0.0
N497 N 0.51352 0.68513 0.82542 0.0
N498 N 0.49708 0.62952 0.89645 0.0
C499 C 0.51038 0.63128 0.79195 0.0
C500 C 0.51917 0.66144 0.75324 0.0
C501 C 0.85553 0.53091 0.62489 0.0
C502 C 0.8515 0.54349 0.5152 0.0
C503 C 0.88451 0.52048 0.66211 0.0
C504 C 0.91065 0.52197 0.5909 0.0
H505 H 0.8361 0.52894 0.68273 0.0
H506 H 0.88627 0.51098 0.7473 0.0
S507 S 0.9126 0.55325 0.29579 0.0
N508 N 0.87622 0.55709 0.33586 0.0
N509 N 0.93062 0.53752 0.40518 0.0
C510 C 0.90699 0.53469 0.48096 0.0
C511 C 0.87747 0.54544 0.44336 0.0
loop_
_geom_bond_atom_site_label_1
_geom_bond_atom_site_label_2
_geom_bond_distance
_geom_bond_site_symmetry_2
_ccdc_geom_bond_type
O0 Cd1 2.300 . S
O0 C7 1.275 . S
Cd1 O0 2.300 . S
Cd1 O9 2.381 . S
Cd1 O10 2.378 . S
O2 Cd3 2.385 . S
O2 C7 1.255 . S
Cd3 O2 2.385 . S
Cd3 O4 2.317 . S
O4 Cd3 2.317 . S
O4 C5 1.232 . S
C5 O4 1.232 . S
C5 O6 1.218 . S
O6 C5 1.218 . S
C7 O0 1.275 . S
C7 O2 1.255 . S
C8 O9 1.258 . S
C8 O10 1.256 . S
O9 Cd1 2.381 . S
O9 C8 1.258 . S
O10 Cd1 2.378 . S
O10 C8 1.256 . S
O11 Cd12 2.300 1_655 S
O11 C18 1.275 1_655 S
Cd12 O11 2.300 1_455 S
Cd12 O20 2.381 1_455 S
Cd12 O21 2.378 . S
O13 Cd14 2.385 . S
O13 C18 1.255 . S
Cd14 O13 2.385 . S
Cd14 O15 2.317 . S
O15 Cd14 2.317 . S
O15 C16 1.232 . S
C16 O15 1.232 . S
C16 O17 1.218 . S
O17 C16 1.218 . S
C18 O11 1.275 1_455 S
C18 O13 1.255 . S
C19 O20 1.258 1_455 S
C19 O21 1.256 . S
O20 Cd12 2.381 1_655 S
O20 C19 1.258 1_655 S
O21 Cd12 2.378 . S
O21 C19 1.256 . S
O22 Cd23 2.300 1_565 S
O22 C29 1.275 1_565 S
Cd23 O22 2.300 1_545 S
Cd23 O31 2.381 1_545 S
Cd23 O32 2.378 . S
O24 Cd25 2.385 . S
O24 C29 1.255 . S
Cd25 O24 2.385 . S
Cd25 O26 2.317 . S
O26 Cd25 2.317 . S
O26 C27 1.232 . S
C27 O26 1.232 . S
C27 O28 1.218 . S
O28 C27 1.218 . S
C29 O22 1.275 1_545 S
C29 O24 1.255 . S
C30 O31 1.258 1_545 S
C30 O32 1.256 . S
O31 Cd23 2.381 1_565 S
O31 C30 1.258 1_565 S
O32 Cd23 2.378 . S
O32 C30 1.256 . S
O33 Cd34 2.300 . S
O33 C40 1.275 . S
Cd34 O33 2.300 . S
Cd34 O42 2.381 . S
Cd34 O43 2.378 . S
O35 Cd36 2.385 . S
O35 C40 1.255 . S
Cd36 O35 2.385 . S
Cd36 O37 2.317 . S
O37 Cd36 2.317 . S
O37 C38 1.232 . S
C38 O37 1.232 . S
C38 O39 1.218 . S
O39 C38 1.218 . S
C40 O33 1.275 . S
C40 O35 1.255 . S
C41 O42 1.258 . S
C41 O43 1.256 . S
O42 Cd34 2.381 . S
O42 C41 1.258 . S
O43 Cd34 2.378 . S
O43 C41 1.256 . S
O44 Cd45 2.300 . S
O44 C51 1.275 . S
Cd45 O44 2.300 . S
Cd45 O53 2.381 . S
Cd45 O54 2.378 . S
O46 Cd47 2.385 1_554 S
O46 C51 1.255 . S
Cd47 O46 2.385 1_556 S
Cd47 O48 2.317 . S
O48 Cd47 2.317 . S
O48 C49 1.232 . S
C49 O48 1.232 . S
C49 O50 1.218 . S
O50 C49 1.218 . S
C51 O44 1.275 . S
C51 O46 1.255 . S
C52 O53 1.258 . S
C52 O54 1.256 . S
O53 Cd45 2.381 . S
O53 C52 1.258 . S
O54 Cd45 2.378 . S
O54 C52 1.256 . S
O55 Cd56 2.300 1_655 S
O55 C62 1.275 1_655 S
Cd56 O55 2.300 1_455 S
Cd56 O64 2.381 1_455 S
Cd56 O65 2.378 . S
O57 Cd58 2.385 1_554 S
O57 C62 1.255 . S
Cd58 O57 2.385 1_556 S
Cd58 O59 2.317 . S
O59 Cd58 2.317 . S
O59 C60 1.232 . S
C60 O59 1.232 . S
C60 O61 1.218 . S
O61 C60 1.218 . S
C62 O55 1.275 1_455 S
C62 O57 1.255 . S
C63 O64 1.258 1_455 S
C63 O65 1.256 . S
O64 Cd56 2.381 1_655 S
O64 C63 1.258 1_655 S
O65 Cd56 2.378 . S
O65 C63 1.256 . S
O66 Cd67 2.300 1_565 S
O66 C73 1.275 1_565 S
Cd67 O66 2.300 1_545 S
Cd67 O75 2.381 1_545 S
Cd67 O76 2.378 . S
O68 Cd69 2.385 1_554 S
O68 C73 1.255 . S
Cd69 O68 2.385 1_556 S
Cd69 O70 2.317 . S
O70 Cd69 2.317 . S
O70 C71 1.232 . S
C71 O70 1.232 . S
C71 O72 1.218 . S
O72 C71 1.218 . S
C73 O66 1.275 1_545 S
C73 O68 1.255 . S
C74 O75 1.258 1_545 S
C74 O76 1.256 . S
O75 Cd67 2.381 1_565 S
O75 C74 1.258 1_565 S
O76 Cd67 2.378 . S
O76 C74 1.256 . S
O77 Cd78 2.300 . S
O77 C84 1.275 . S
Cd78 O77 2.300 . S
Cd78 O86 2.381 . S
Cd78 O87 2.378 . S
O79 Cd80 2.385 1_554 S
O79 C84 1.255 . S
Cd80 O79 2.385 1_556 S
Cd80 O81 2.317 . S
O81 Cd80 2.317 . S
O81 C82 1.232 . S
C82 O81 1.232 . S
C82 O83 1.218 . S
O83 C82 1.218 . S
C84 O77 1.275 . S
C84 O79 1.255 . S
C85 O86 1.258 . S
C85 O87 1.256 . S
O86 Cd78 2.381 . S
O86 C85 1.258 . S
O87 Cd78 2.378 . S
O87 C85 1.256 . S
La88 C90 2.928 1_556 S
La88 O108 2.521 . S
La88 O109 2.628 1_556 S
La88 O110 2.554 . S
La88 O111 2.757 1_565 S
La88 O112 2.470 . S
La88 O117 2.482 1_455 S
La88 O119 2.503 1_565 S
La89 C99 2.928 . S
La89 O111 2.482 1_655 S
La89 O113 2.503 1_545 S
La89 O114 2.521 . S
La89 O115 2.628 . S
La89 O116 2.554 . S
La89 O117 2.757 1_545 S
La89 O118 2.470 . S
C90 La88 2.928 1_554 S
C90 C91 1.503 . S
C90 O108 1.261 1_554 S
C90 O109 1.243 . S
C91 C90 1.503 . S
C91 C92 1.394 . S
C91 C96 1.373 . S
C92 C91 1.394 . S
C92 C93 1.380 . S
C92 H120 0.930 . S
C93 C92 1.380 . S
C93 C94 1.376 . S
C93 H121 0.930 . S
C94 C93 1.376 . S
C94 C95 1.370 . S
C95 C94 1.370 . S
C95 C96 1.396 . S
C95 H122 0.939 . S
C96 C91 1.373 . S
C96 C95 1.396 . S
C96 H123 0.929 1_455 S
C97 O110 1.240 . S
C97 O111 1.289 1_565 S
C98 O112 1.258 1_655 S
C98 O113 1.256 . S
C99 La89 2.928 . S
C99 C100 1.503 . S
C99 O114 1.261 . S
C99 O115 1.243 . S
C100 C99 1.503 . S
C100 C101 1.394 . S
C100 C105 1.373 . S
C101 C100 1.394 . S
C101 C102 1.380 . S
C101 H124 0.930 . S
C102 C101 1.380 . S
C102 C103 1.376 . S
C102 H125 0.930 . S
C103 C102 1.376 . S
C103 C104 1.370 . S
C104 C103 1.370 . S
C104 C105 1.396 . S
C104 H126 0.933 . S
C105 C100 1.373 . S
C105 C104 1.396 . S
C105 H127 0.929 1_655 S
C106 O116 1.240 . S
C106 O117 1.289 1_545 S
C107 O118 1.258 1_455 S
C107 O119 1.256 . S
O108 La88 2.521 . S
O108 C90 1.261 1_556 S
O109 La88 2.628 1_554 S
O109 C90 1.243 . S
O110 La88 2.554 . S
O110 C97 1.240 . S
O111 La88 2.757 1_545 S
O111 La89 2.482 1_455 S
O111 C97 1.289 1_545 S
O112 La88 2.470 . S
O112 C98 1.258 1_455 S
O113 La89 2.503 1_565 S
O113 C98 1.256 . S
O114 La89 2.521 . S
O114 C99 1.261 . S
O115 La89 2.628 . S
O115 C99 1.243 . S
O116 La89 2.554 . S
O116 C106 1.240 . S
O117 La88 2.482 1_655 S
O117 La89 2.757 1_565 S
O117 C106 1.289 1_565 S
O118 La89 2.470 . S
O118 C107 1.258 1_655 S
O119 La88 2.503 1_545 S
O119 C107 1.256 . S
H120 C92 0.930 . S
H121 C93 0.930 . S
H122 C95 0.939 . S
H123 C96 0.929 1_655 S
H124 C101 0.930 . S
H125 C102 0.930 . S
H126 C104 0.933 . S
H127 C105 0.929 1_455 S
La128 C130 2.928 1_556 S
La128 O148 2.521 . S
La128 O149 2.628 1_556 S
La128 O150 2.554 . S
La128 O151 2.757 . S
La128 O152 2.470 . S
La128 O157 2.482 1_545 S
La128 O159 2.503 . S
La129 C139 2.928 . S
La129 O151 2.482 1_565 S
La129 O153 2.503 . S
La129 O154 2.521 . S
La129 O155 2.628 . S
La129 O156 2.554 . S
La129 O157 2.757 . S
La129 O158 2.470 . S
C130 La128 2.928 1_554 S
C130 C131 1.503 . S
C130 O148 1.261 1_554 S
C130 O149 1.243 . S
C131 C130 1.503 . S
C131 C132 1.394 . S
C131 C136 1.373 . S
C132 C131 1.394 . S
C132 C133 1.380 . S
C132 H160 0.930 . S
C133 C132 1.380 . S
C133 C134 1.376 . S
C133 H161 0.930 . S
C134 C133 1.376 . S
C134 C135 1.370 . S
C135 C134 1.370 . S
C135 C136 1.396 . S
C135 H162 0.902 1_545 S
C136 C131 1.373 . S
C136 C135 1.396 . S
C136 H163 0.929 1_545 S
C137 O150 1.240 . S
C137 O151 1.289 . S
C138 O152 1.258 1_565 S
C138 O153 1.256 . S
C139 La129 2.928 . S
C139 C140 1.503 . S
C139 O154 1.261 . S
C139 O155 1.243 . S
C140 C139 1.503 . S
C140 C141 1.394 . S
C140 C145 1.373 . S
C141 C140 1.394 . S
C141 C142 1.380 . S
C141 H164 0.930 . S
C142 C141 1.380 . S
C142 C143 1.376 . S
C142 H165 0.930 . S
C143 C142 1.376 . S
C143 C144 1.370 . S
C144 C143 1.370 . S
C144 C145 1.396 . S
C144 H166 0.929 1_565 S
C145 C140 1.373 . S
C145 C144 1.396 . S
C145 H167 0.929 1_565 S
C146 O156 1.240 . S
C146 O157 1.289 . S
C147 O158 1.258 1_545 S
C147 O159 1.256 . S
O148 La128 2.521 . S
O148 C130 1.261 1_556 S
O149 La128 2.628 1_554 S
O149 C130 1.243 . S
O150 La128 2.554 . S
O150 C137 1.240 . S
O151 La128 2.757 . S
O151 La129 2.482 1_545 S
O151 C137 1.289 . S
O152 La128 2.470 . S
O152 C138 1.258 1_545 S
O153 La129 2.503 . S
O153 C138 1.256 . S
O154 La129 2.521 . S
O154 C139 1.261 . S
O155 La129 2.628 . S
O155 C139 1.243 . S
O156 La129 2.554 . S
O156 C146 1.240 . S
O157 La128 2.482 1_565 S
O157 La129 2.757 . S
O157 C146 1.289 . S
O158 La129 2.470 . S
O158 C147 1.258 1_565 S
O159 La128 2.503 . S
O159 C147 1.256 . S
H160 C132 0.930 . S
H161 C133 0.930 . S
H162 C135 0.902 1_565 S
H163 C136 0.929 1_565 S
H164 C141 0.930 . S
H165 C142 0.930 . S
H166 C144 0.929 1_545 S
H167 C145 0.929 1_545 S
La168 C170 2.928 1_556 S
La168 O188 2.521 . S
La168 O189 2.628 1_556 S
La168 O190 2.554 . S
La168 O191 2.757 . S
La168 O192 2.470 . S
La168 O197 2.482 . S
La168 O199 2.503 . S
La169 C179 2.928 . S
La169 O191 2.482 . S
La169 O193 2.503 . S
La169 O194 2.521 . S
La169 O195 2.628 . S
La169 O196 2.554 . S
La169 O197 2.757 . S
La169 O198 2.470 . S
C170 La168 2.928 1_554 S
C170 C171 1.503 . S
C170 O188 1.261 1_554 S
C170 O189 1.243 . S
C171 C170 1.503 . S
C171 C172 1.394 . S
C171 C176 1.373 . S
C172 C171 1.394 . S
C172 C173 1.380 . S
C172 H200 0.930 . S
C173 C172 1.380 . S
C173 C174 1.376 . S
C173 H201 0.930 . S
C174 C173 1.376 . S
C174 C175 1.370 . S
C175 C174 1.370 . S
C175 C176 1.396 . S
C175 H202 0.929 . S
C176 C171 1.373 . S
C176 C175 1.396 . S
C176 H203 0.929 . S
C177 O190 1.240 . S
C177 O191 1.289 . S
C178 O192 1.258 . S
C178 O193 1.256 . S
C179 La169 2.928 . S
C179 C180 1.503 . S
C179 O194 1.261 . S
C179 O195 1.243 . S
C180 C179 1.503 . S
C180 C181 1.394 . S
C180 C185 1.373 . S
C181 C180 1.394 . S
C181 C182 1.380 . S
C181 H204 0.930 . S
C182 C181 1.380 . S
C182 C183 1.376 . S
C182 H205 0.930 . S
C183 C182 1.376 . S
C183 C184 1.370 . S
C184 C183 1.370 . S
C184 C185 1.396 . S
C184 H206 0.929 . S
C185 C180 1.373 . S
C185 C184 1.396 . S
C185 H207 0.929 . S
C186 O196 1.240 . S
C186 O197 1.289 . S
C187 O198 1.258 . S
C187 O199 1.256 . S
O188 La168 2.521 . S
O188 C170 1.261 1_556 S
O189 La168 2.628 1_554 S
O189 C170 1.243 . S
O190 La168 2.554 . S
O190 C177 1.240 . S
O191 La168 2.757 . S
O191 La169 2.482 . S
O191 C177 1.289 . S
O192 La168 2.470 . S
O192 C178 1.258 . S
O193 La169 2.503 . S
O193 C178 1.256 . S
O194 La169 2.521 . S
O194 C179 1.261 . S
O195 La169 2.628 . S
O195 C179 1.243 . S
O196 La169 2.554 . S
O196 C186 1.240 . S
O197 La168 2.482 . S
O197 La169 2.757 . S
O197 C186 1.289 . S
O198 La169 2.470 . S
O198 C187 1.258 . S
O199 La168 2.503 . S
O199 C187 1.256 . S
H200 C172 0.930 . S
H201 C173 0.930 . S
H202 C175 0.929 . S
H203 C176 0.929 . S
H204 C181 0.930 . S
H205 C182 0.930 . S
H206 C184 0.929 . S
H207 C185 0.929 . S
La208 C210 2.928 1_556 S
La208 O228 2.521 . S
La208 O229 2.628 1_556 S
La208 O230 2.554 . S
La208 O231 2.757 1_655 S
La208 O232 2.470 . S
La208 O237 2.482 . S
La208 O239 2.503 1_655 S
La209 C219 2.928 . S
La209 O231 2.482 . S
La209 O233 2.503 1_455 S
La209 O234 2.521 . S
La209 O235 2.628 . S
La209 O236 2.554 . S
La209 O237 2.757 1_455 S
La209 O238 2.470 . S
C210 La208 2.928 1_554 S
C210 C211 1.503 . S
C210 O228 1.261 1_554 S
C210 O229 1.243 . S
C211 C210 1.503 . S
C211 C212 1.394 . S
C211 C216 1.373 . S
C212 C211 1.394 . S
C212 C213 1.380 . S
C212 H240 0.930 . S
C213 C212 1.380 . S
C213 C214 1.376 . S
C213 H241 0.930 . S
C214 C213 1.376 . S
C214 C215 1.370 . S
C215 C214 1.370 . S
C215 C216 1.396 . S
C215 H242 0.929 . S
C216 C211 1.373 . S
C216 C215 1.396 . S
C216 H243 0.929 . S
C217 O230 1.251 . S
C217 O231 1.283 1_655 S
C218 O232 1.258 . S
C218 O233 1.256 . S
C219 La209 2.928 . S
C219 C220 1.503 . S
C219 O234 1.261 . S
C219 O235 1.243 . S
C220 C219 1.503 . S
C220 C221 1.394 . S
C220 C225 1.373 . S
C221 C220 1.394 . S
C221 C222 1.380 . S
C221 H244 0.930 . S
C222 C221 1.380 . S
C222 C223 1.376 . S
C222 H245 0.930 . S
C223 C222 1.376 . S
C223 C224 1.370 . S
C224 C223 1.370 . S
C224 C225 1.396 . S
C224 H246 0.929 . S
C225 C220 1.373 . S
C225 C224 1.396 . S
C225 H247 0.929 . S
C226 O236 1.255 . S
C226 O237 1.280 1_455 S
C227 O238 1.258 . S
C227 O239 1.256 . S
O228 La208 2.521 . S
O228 C210 1.261 1_556 S
O229 La208 2.628 1_554 S
O229 C210 1.243 . S
O230 La208 2.554 . S
O230 C217 1.251 . S
O231 La208 2.757 1_455 S
O231 La209 2.482 . S
O231 C217 1.283 1_455 S
O232 La208 2.470 . S
O232 C218 1.258 . S
O233 La209 2.503 1_655 S
O233 C218 1.256 . S
O234 La209 2.521 . S
O234 C219 1.261 . S
O235 La209 2.628 . S
O235 C219 1.243 . S
O236 La209 2.554 . S
O236 C226 1.255 . S
O237 La208 2.482 . S
O237 La209 2.757 1_655 S
O237 C226 1.280 1_655 S
O238 La209 2.470 . S
O238 C227 1.258 . S
O239 La208 2.503 1_455 S
O239 C227 1.256 . S
H240 C212 0.930 . S
H241 C213 0.930 . S
H242 C215 0.929 . S
H243 C216 0.929 . S
H244 C221 0.930 . S
H245 C222 0.930 . S
H246 C224 0.929 . S
H247 C225 0.929 . S
C248 C249 1.369 . S
C248 C250 1.419 . S
C248 H252 0.930 . S
C249 C248 1.369 . S
C249 C258 1.429 1_545 S
C250 C248 1.419 . S
C250 C251 1.376 . S
C250 H253 0.929 . S
C251 C250 1.376 . S
C251 C257 1.415 1_545 S
H252 C248 0.930 . S
H253 C250 0.929 . S
S254 N255 1.613 . S
S254 N256 1.610 . S
N255 S254 1.613 . S
N255 C258 1.350 . S
N256 S254 1.610 . S
N256 C257 1.351 . S
C257 C251 1.415 1_565 S
C257 N256 1.351 . S
C257 C258 1.434 . S
C258 C249 1.429 1_565 S
C258 N255 1.350 . S
C258 C257 1.434 . S
C259 C260 1.369 . S
C259 C261 1.419 . S
C259 H263 0.930 . S
C260 C259 1.369 . S
C260 C269 1.429 . S
C261 C259 1.419 . S
C261 C262 1.363 . S
C261 H264 0.929 . S
C262 C261 1.363 . S
C262 C268 1.428 . S
H263 C259 0.930 . S
H264 C261 0.929 . S
S265 N266 1.613 . S
S265 N267 1.610 . S
N266 S265 1.613 . S
N266 C269 1.350 . S
N267 S265 1.610 . S
N267 C268 1.351 . S
C268 C262 1.428 . S
C268 N267 1.351 . S
C268 C269 1.434 . S
C269 C260 1.429 . S
C269 N266 1.350 . S
C269 C268 1.434 . S
C270 C271 1.369 . S
C270 C272 1.419 . S
C270 H274 0.930 . S
C271 C270 1.369 . S
C271 C280 1.429 . S
C272 C270 1.419 . S
C272 C273 1.363 . S
C272 H275 0.929 . S
C273 C272 1.363 . S
C273 C279 1.428 . S
H274 C270 0.930 . S
H275 C272 0.929 . S
S276 N277 1.613 . S
S276 N278 1.610 . S
N277 S276 1.613 . S
N277 C280 1.350 . S
N278 S276 1.610 . S
N278 C279 1.351 . S
C279 C273 1.428 . S
C279 N278 1.351 . S
C279 C280 1.434 . S
C280 C271 1.429 . S
C280 N277 1.350 . S
C280 C279 1.434 . S
C281 C282 1.353 1_655 S
C281 C283 1.419 . S
C281 H285 0.930 . S
C282 C281 1.353 1_455 S
C282 C291 1.446 . S
C283 C281 1.419 . S
C283 C284 1.363 1_655 S
C283 H286 0.929 . S
C284 C283 1.363 1_455 S
C284 C290 1.428 . S
H285 C281 0.930 . S
H286 C283 0.929 . S
S287 N288 1.613 . S
S287 N289 1.610 . S
N288 S287 1.613 . S
N288 C291 1.350 . S
N289 S287 1.610 . S
N289 C290 1.351 . S
C290 C284 1.428 . S
C290 N289 1.351 . S
C290 C291 1.434 . S
C291 C282 1.446 . S
C291 N288 1.350 . S
C291 C290 1.434 . S
C292 C293 1.367 1_545 S
C292 C294 1.419 . S
C292 H296 0.930 . S
C293 C292 1.367 1_565 S
C293 C302 1.431 . S
C294 C292 1.419 . S
C294 C295 1.349 1_545 S
C294 H297 0.929 1_554 S
C295 C294 1.349 1_565 S
C295 C301 1.442 . S
H296 C292 0.930 . S
H297 C294 0.929 1_556 S
S298 N299 1.613 . S
S298 N300 1.610 . S
N299 S298 1.613 . S
N299 C302 1.350 . S
N300 S298 1.610 . S
N300 C301 1.351 . S
C301 C295 1.442 . S
C301 N300 1.351 . S
C301 C302 1.434 . S
C302 C293 1.431 . S
C302 N299 1.350 . S
C302 C301 1.434 . S
C303 C304 1.369 . S
C303 C305 1.419 . S
C303 H307 0.930 . S
C304 C303 1.369 . S
C304 C313 1.429 . S
C305 C303 1.419 . S
C305 C306 1.363 . S
C305 H308 0.929 . S
C306 C305 1.363 . S
C306 C312 1.428 . S
H307 C303 0.930 . S
H308 C305 0.929 . S
S309 N310 1.613 . S
S309 N311 1.610 1_554 S
N310 S309 1.613 . S
N310 C313 1.350 . S
N311 S309 1.610 1_556 S
N311 C312 1.351 1_556 S
C312 C306 1.428 . S
C312 N311 1.351 1_554 S
C312 C313 1.434 . S
C313 C304 1.429 . S
C313 N310 1.350 . S
C313 C312 1.434 . S
C314 C315 1.369 . S
C314 C316 1.419 . S
C314 H318 0.930 . S
C315 C314 1.369 . S
C315 C324 1.429 . S
C316 C314 1.419 . S
C316 C317 1.363 . S
C316 H319 0.929 . S
C317 C316 1.363 . S
C317 C323 1.428 . S
H318 C314 0.930 . S
H319 C316 0.929 . S
S320 N321 1.613 . S
S320 N322 1.610 . S
N321 S320 1.613 . S
N321 C324 1.350 . S
N322 S320 1.610 . S
N322 C323 1.351 . S
C323 C317 1.428 . S
C323 N322 1.351 . S
C323 C324 1.434 . S
C324 C315 1.429 . S
C324 N321 1.350 . S
C324 C323 1.434 . S
C325 C326 1.378 . S
C325 C327 1.419 . S
C325 H329 0.930 . S
C326 C325 1.378 . S
C326 C335 1.420 1_655 S
C327 C325 1.419 . S
C327 C328 1.363 . S
C327 H330 0.929 . S
C328 C327 1.363 . S
C328 C334 1.428 1_655 S
H329 C325 0.930 . S
H330 C327 0.929 . S
S331 N332 1.613 . S
S331 N333 1.610 . S
N332 S331 1.613 . S
N332 C335 1.350 . S
N333 S331 1.610 . S
N333 C334 1.351 . S
C334 C328 1.428 1_455 S
C334 N333 1.351 . S
C334 C335 1.434 . S
C335 C326 1.420 1_455 S
C335 N332 1.350 . S
C335 C334 1.434 . S
C336 C337 1.369 . S
C336 C338 1.419 . S
C336 H340 0.930 . S
C337 C336 1.369 . S
C337 C346 1.429 1_655 S
C338 C336 1.419 . S
C338 C339 1.363 . S
C338 H341 0.929 . S
C339 C338 1.363 . S
C339 C345 1.428 . S
H340 C336 0.930 . S
H341 C338 0.929 . S
S342 N343 1.613 . S
S342 N344 1.610 1_455 S
N343 S342 1.613 . S
N343 C346 1.350 . S
N344 S342 1.610 1_655 S
N344 C345 1.351 . S
C345 C339 1.428 . S
C345 N344 1.351 . S
C345 C346 1.434 1_655 S
C346 C337 1.429 1_455 S
C346 N343 1.350 . S
C346 C345 1.434 1_455 S
C347 C348 1.369 . S
C347 C349 1.419 . S
C347 H351 0.930 . S
C348 C347 1.369 . S
C348 C357 1.429 1_565 S
C349 C347 1.419 . S
C349 C350 1.363 . S
C349 H352 0.929 . S
C350 C349 1.363 . S
C350 C356 1.428 . S
H351 C347 0.930 . S
H352 C349 0.929 . S
S353 N354 1.613 . S
S353 N355 1.610 1_545 S
N354 S353 1.613 . S
N354 C357 1.350 . S
N355 S353 1.610 1_565 S
N355 C356 1.351 . S
C356 C350 1.428 . S
C356 N355 1.351 . S
C356 C357 1.434 1_565 S
C357 C348 1.429 1_545 S
C357 N354 1.350 . S
C357 C356 1.434 1_545 S
C358 C359 1.369 . S
C358 C360 1.419 . S
C358 H362 0.930 . S
C359 C358 1.369 . S
C359 C368 1.429 . S
C360 C358 1.419 . S
C360 C361 1.363 . S
C360 H363 0.929 . S
C361 C360 1.363 . S
C361 C367 1.428 . S
H362 C358 0.930 . S
H363 C360 0.929 . S
S364 N365 1.613 . S
S364 N366 1.610 . S
N365 S364 1.613 . S
N365 C368 1.350 . S
N366 S364 1.610 . S
N366 C367 1.351 . S
C367 C361 1.428 . S
C367 N366 1.351 . S
C367 C368 1.434 . S
C368 C359 1.429 . S
C368 N365 1.350 . S
C368 C367 1.434 . S
C369 C370 1.369 . S
C369 C371 1.419 . S
C369 H373 0.930 . S
C370 C369 1.369 . S
C370 C379 1.429 . S
C371 C369 1.419 . S
C371 C372 1.363 . S
C371 H374 0.929 . S
C372 C371 1.363 . S
C372 C378 1.428 . S
H373 C369 0.930 . S
H374 C371 0.929 . S
S375 N376 1.613 . S
S375 N377 1.610 . S
N376 S375 1.613 . S
N376 C379 1.350 . S
N377 S375 1.610 . S
N377 C378 1.351 . S
C378 C372 1.428 . S
C378 N377 1.351 . S
C378 C379 1.434 . S
C379 C370 1.429 . S
C379 N376 1.350 . S
C379 C378 1.434 . S
C380 C381 1.369 1_655 S
C380 C382 1.419 1_655 S
C380 H384 0.930 . S
C381 C380 1.369 1_455 S
C381 C390 1.429 . S
C382 C380 1.419 1_455 S
C382 C383 1.363 . S
C382 H385 0.929 . S
C383 C382 1.363 . S
C383 C389 1.428 . S
H384 C380 0.930 . S
H385 C382 0.929 . S
S386 N387 1.613 . S
S386 N388 1.610 . S
N387 S386 1.613 . S
N387 C390 1.350 . S
N388 S386 1.610 . S
N388 C389 1.351 . S
C389 C383 1.428 . S
C389 N388 1.351 . S
C389 C390 1.434 . S
C390 C381 1.429 . S
C390 N387 1.350 . S
C390 C389 1.434 . S
C391 C392 1.369 1_565 S
C391 C393 1.419 1_565 S
C391 H395 0.930 . S
C392 C391 1.369 1_545 S
C392 C401 1.429 . S
C393 C391 1.419 1_545 S
C393 C394 1.363 . S
C393 H396 0.929 . S
C394 C393 1.363 . S
C394 C400 1.428 . S
H395 C391 0.930 . S
H396 C393 0.929 . S
S397 N398 1.613 . S
S397 N399 1.610 . S
N398 S397 1.613 . S
N398 C401 1.350 . S
N399 S397 1.610 . S
N399 C400 1.351 . S
C400 C394 1.428 . S
C400 N399 1.351 . S
C400 C401 1.434 . S
C401 C392 1.429 . S
C401 N398 1.350 . S
C401 C400 1.434 . S
C402 C403 1.369 . S
C402 C404 1.419 . S
C402 H406 0.930 . S
C403 C402 1.369 . S
C403 C412 1.429 . S
C404 C402 1.419 . S
C404 C405 1.363 . S
C404 H407 0.929 . S
C405 C404 1.363 . S
C405 C411 1.428 . S
H406 C402 0.930 . S
H407 C404 0.929 . S
S408 N409 1.613 . S
S408 N410 1.610 . S
N409 S408 1.613 . S
N409 C412 1.350 . S
N410 S408 1.610 . S
N410 C411 1.351 . S
C411 C405 1.428 . S
C411 N410 1.351 . S
C411 C412 1.434 . S
C412 C403 1.429 . S
C412 N409 1.350 . S
C412 C411 1.434 . S
C413 C414 1.369 . S
C413 C415 1.419 . S
C413 H417 0.930 . S
C414 C413 1.369 . S
C414 C423 1.429 . S
C415 C413 1.419 . S
C415 C416 1.363 . S
C415 H418 0.929 . S
C416 C415 1.363 . S
C416 C422 1.428 . S
H417 C413 0.930 . S
H418 C415 0.929 . S
S419 N420 1.613 . S
S419 N421 1.610 . S
N420 S419 1.613 . S
N420 C423 1.350 . S
N421 S419 1.610 . S
N421 C422 1.351 . S
C422 C416 1.428 . S
C422 N421 1.351 . S
C422 C423 1.434 . S
C423 C414 1.429 . S
C423 N420 1.350 . S
C423 C422 1.434 . S
C424 C425 1.369 1_655 S
C424 C426 1.419 . S
C424 H428 0.930 . S
C425 C424 1.369 1_455 S
C425 C434 1.429 . S
C426 C424 1.419 . S
C426 C427 1.363 1_655 S
C426 H429 0.929 . S
C427 C426 1.363 1_455 S
C427 C433 1.428 . S
H428 C424 0.930 . S
H429 C426 0.929 . S
S430 N431 1.613 . S
S430 N432 1.610 . S
N431 S430 1.613 . S
N431 C434 1.350 . S
N432 S430 1.610 . S
N432 C433 1.351 . S
C433 C427 1.428 . S
C433 N432 1.351 . S
C433 C434 1.434 . S
C434 C425 1.429 . S
C434 N431 1.350 . S
C434 C433 1.434 . S
C435 C436 1.369 1_565 S
C435 C437 1.419 . S
C435 H439 0.930 . S
C436 C435 1.369 1_545 S
C436 C445 1.429 . S
C437 C435 1.419 . S
C437 C438 1.363 1_565 S
C437 H440 0.929 . S
C438 C437 1.363 1_545 S
C438 C444 1.428 . S
H439 C435 0.930 . S
H440 C437 0.929 . S
S441 N442 1.613 . S
S441 N443 1.610 . S
N442 S441 1.613 . S
N442 C445 1.350 . S
N443 S441 1.610 . S
N443 C444 1.351 . S
C444 C438 1.428 . S
C444 N443 1.351 . S
C444 C445 1.434 . S
C445 C436 1.429 . S
C445 N442 1.350 . S
C445 C444 1.434 . S
C446 C447 1.369 . S
C446 C448 1.419 . S
C446 H450 0.930 . S
C447 C446 1.369 . S
C447 C456 1.429 . S
C448 C446 1.419 . S
C448 C449 1.363 . S
C448 H451 0.929 . S
C449 C448 1.363 . S
C449 C455 1.428 . S
H450 C446 0.930 . S
H451 C448 0.929 . S
S452 N453 1.613 . S
S452 N454 1.610 . S
N453 S452 1.613 . S
N453 C456 1.350 . S
N454 S452 1.610 . S
N454 C455 1.351 . S
C455 C449 1.428 . S
C455 N454 1.351 . S
C455 C456 1.434 . S
C456 C447 1.429 . S
C456 N453 1.350 . S
C456 C455 1.434 . S
C457 C458 1.369 . S
C457 C459 1.419 . S
C457 H461 0.930 . S
C458 C457 1.369 . S
C458 C467 1.429 . S
C459 C457 1.419 . S
C459 C460 1.363 . S
C459 H462 0.929 . S
C460 C459 1.363 . S
C460 C466 1.428 . S
H461 C457 0.930 . S
H462 C459 0.929 . S
S463 N464 1.613 . S
S463 N465 1.610 . S
N464 S463 1.613 . S
N464 C467 1.350 . S
N465 S463 1.610 . S
N465 C466 1.351 . S
C466 C460 1.428 . S
C466 N465 1.351 . S
C466 C467 1.434 . S
C467 C458 1.429 . S
C467 N464 1.350 . S
C467 C466 1.434 . S
C468 C469 1.369 1_455 S
C468 C470 1.419 . S
C468 H472 0.930 . S
C469 C468 1.369 1_655 S
C469 C478 1.429 . S
C470 C468 1.419 . S
C470 C471 1.363 1_455 S
C470 H473 0.929 . S
C471 C470 1.363 1_655 S
C471 C477 1.428 . S
H472 C468 0.930 . S
H473 C470 0.929 . S
S474 N475 1.613 . S
S474 N476 1.610 . S
N475 S474 1.613 . S
N475 C478 1.350 . S
N476 S474 1.610 . S
N476 C477 1.351 . S
C477 C471 1.428 . S
C477 N476 1.351 . S
C477 C478 1.434 . S
C478 C469 1.429 . S
C478 N475 1.350 . S
C478 C477 1.434 . S
C479 C480 1.369 . S
C479 C481 1.419 . S
C479 H483 0.930 . S
C480 C479 1.369 . S
C480 C489 1.429 1_565 S
C481 C479 1.419 . S
C481 C482 1.363 . S
C481 H484 0.929 . S
C482 C481 1.363 . S
C482 C488 1.428 1_565 S
H483 C479 0.930 . S
H484 C481 0.929 . S
S485 N486 1.613 . S
S485 N487 1.610 . S
N486 S485 1.613 . S
N486 C489 1.350 . S
N487 S485 1.610 . S
N487 C488 1.351 . S
C488 C482 1.428 1_545 S
C488 N487 1.351 . S
C488 C489 1.434 . S
C489 C480 1.429 1_545 S
C489 N486 1.350 . S
C489 C488 1.434 . S
C490 C491 1.369 . S
C490 C492 1.419 . S
C490 H494 0.930 . S
C491 C490 1.369 . S
C491 C500 1.429 . S
C492 C490 1.419 . S
C492 C493 1.363 . S
C492 H495 0.929 . S
C493 C492 1.363 . S
C493 C499 1.428 . S
H494 C490 0.930 . S
H495 C492 0.929 . S
S496 N497 1.613 . S
S496 N498 1.610 . S
N497 S496 1.613 . S
N497 C500 1.350 . S
N498 S496 1.610 . S
N498 C499 1.351 . S
C499 C493 1.428 . S
C499 N498 1.351 . S
C499 C500 1.434 . S
C500 C491 1.429 . S
C500 N497 1.350 . S
C500 C499 1.434 . S
C501 C502 1.369 . S
C501 C503 1.419 . S
C501 H505 0.930 . S
C502 C501 1.369 . S
C502 C511 1.429 . S
C503 C501 1.419 . S
C503 C504 1.363 . S
C503 H506 0.929 . S
C504 C503 1.363 . S
C504 C510 1.428 . S
H505 C501 0.930 . S
H506 C503 0.929 . S
S507 N508 1.613 . S
S507 N509 1.610 . S
N508 S507 1.613 . S
N508 C511 1.350 . S
N509 S507 1.610 . S
N509 C510 1.351 . S
C510 C504 1.428 . S
C510 N509 1.351 . S
C510 C511 1.434 . S
C511 C502 1.429 . S
C511 N508 1.350 . S
C511 C510 1.434 . S
C249 C74 1.934 . S
C251 C97 2.136 1_545 S
C262 C137 2.151 . S
C260 C85 1.946 . S
C273 C177 2.158 . S
C271 C52 1.951 . S
C284 C217 2.145 1_455 S
C282 C63 1.940 . S
C295 C106 2.137 1_564 S
C293 C30 1.945 1_565 S
C304 C41 1.954 . S
C306 C146 2.153 1_554 S
C315 C8 1.968 . S
C317 C186 2.158 1_554 S
C326 C19 1.943 1_655 S
C328 C226 2.143 1_654 S
C339 C103 0.867 . S
C337 C62 0.923 1_655 S
C350 C143 0.868 . S
C348 C73 0.924 1_565 S
C361 C183 0.864 . S
C359 C84 0.909 . S
C370 C51 0.903 . S
C372 C223 0.871 . S
C381 C18 0.843 . S
C383 C94 0.887 . S
C394 C134 0.884 . S
C392 C29 0.842 . S
C405 C174 0.874 . S
C403 C40 0.845 . S
C414 C7 0.845 . S
C416 C214 0.875 . S
C425 C60 1.927 . S
C427 C107 2.567 . S
C436 C71 1.905 . S
C438 C147 2.542 . S
C449 C187 2.534 . S
C447 C82 1.867 . S
C460 C227 2.560 . S
C458 C49 1.898 . S
C469 C16 2.055 1_655 S
C471 C98 2.574 . S
C482 C138 2.541 . S
C480 C27 2.027 1_565 S
C493 C178 2.532 . S
C491 C38 2.060 . S
C502 C5 2.081 . S
C504 C218 2.566 . S
