# Generated by pormake.
# Topology pts, (4,4)-cn, num edge types: 1
# Building blocks:
#     Node 0, Type 0, BuildingBlock: MUDLON_clean_sbu_0, # of connection points: 4
#     Node 1, Type 0, BuildingBlock: MUDLON_clean_sbu_0, # of connection points: 4
#     Node 2, Type 1, BuildingBlock: AZAVOO_clean_sbu_0, # of connection points: 4
#     Node 3, Type 1, BuildingBlock: AZAVOO_clean_sbu_0, # of connection points: 4
#     Edge 4, Type (0, 1), BuildingBlock: MIFKUJ_clean_linker_0, # of connection points: 2
#     Edge 5, Type (0, 1), BuildingBlock: MIFKUJ_clean_linker_0, # of connection points: 2
#     Edge 6, Type (0, 1), BuildingBlock: MIFKUJ_clean_linker_0, # of connection points: 2
#     Edge 7, Type (0, 1), BuildingBlock: MIFKUJ_clean_linker_0, # of connection points: 2
#     Edge 8, Type (0, 1), BuildingBlock: MIFKUJ_clean_linker_0, # of connection points: 2
#     Edge 9, Type (0, 1), BuildingBlock: MIFKUJ_clean_linker_0, # of connection points: 2
#     Edge 10, Type (0, 1), BuildingBlock: MIFKUJ_clean_linker_0, # of connection points: 2
#     Edge 11, Type (0, 1), BuildingBlock: MIFKUJ_clean_linker_0, # of connection points: 2
# Relax obj value: 0.031
# Max RMSD: 0.088
# Mean RMSD: 0.074
data_MOF--net-pts--node1-MUDLON_clean_sbu_0--node2-AZAVOO_clean_sbu_0--edge1-MIFKUJ_clean_linker_0
_symmetry_space_group_name_H-M    P1
_symmetry_Int_Tables_number       1
_symmetry_cell_setting            triclinic
loop_
_symmetry_equiv_pos_as_xyz
'x, y, z'
_cell_length_a     29.355448
_cell_length_b     30.049743
_cell_length_c     50.971412
_cell_angle_alpha  90.033712
_cell_angle_beta   95.991132
_cell_angle_gamma 89.910973
loop_
_atom_site_label
_atom_site_type_symbol
_atom_site_fract_x
_atom_site_fract_y
_atom_site_fract_z
_atom_type_partial_charge
Mg0 Mg 0.5566 0.03217 0.03137 0.0
C1 C 0.4655 0.98834 0.01289 0.0
O2 O 0.45512 0.00318 0.03577 0.0
C3 C 0.64769 0.99131 0.05281 0.0
O4 O 0.65824 0.0026 0.0293 0.0
C5 C 0.5222 0.06768 0.08086 0.0
O6 O 0.55907 0.04626 0.09076 0.0
O7 O 0.51504 0.07206 0.05593 0.0
O8 O 0.50664 0.99164 1.00733 0.0
O9 O 0.59751 0.0671 1.00418 0.0
C10 C 0.59154 0.05632 0.97989 0.0
O11 O 0.55661 0.0308 0.97179 0.0
O12 O 0.60647 0.99583 0.05805 0.0
Mg13 Mg 0.04574 0.52709 0.52224 0.0
C14 C 0.10709 0.59091 0.56186 0.0
O15 O 0.14326 0.5657 0.56015 0.0
C16 C 0.09651 0.44818 0.50259 0.0
O17 O 0.07466 0.42864 0.52059 0.0
C18 C 1.00469 0.55354 0.46762 0.0
O19 O 0.02593 0.51702 0.4616 0.0
O20 O 1.00194 0.5624 0.49183 0.0
O21 O 0.06944 0.58155 0.54835 0.0
O22 O 0.0148 0.48095 0.54852 0.0
C23 C 0.04303 0.47184 0.56852 0.0
O24 O 0.08358 0.49064 0.57025 0.0
O25 O 0.0947 0.49042 0.50066 0.0
Mg26 Mg 0.10798 0.00836 0.29567 0.0
O27 O 0.03984 0.01118 0.26864 0.0
O28 O 0.98317 0.00811 0.29462 0.0
Mg29 Mg 0.01401 0.00377 0.33766 0.0
C30 C 0.99719 0.01026 0.27176 0.0
C31 C 0.1865 0.01062 0.25997 0.0
O32 O 0.2 0.98034 0.2777 0.0
O33 O 0.10052 0.08063 0.30927 0.0
O34 O 0.04523 0.07389 0.33601 0.0
O35 O 0.10575 0.93363 0.2942 0.0
O36 O 0.07601 0.97378 0.32436 0.0
C37 C 0.07482 0.09731 0.32553 0.0
C38 C 0.08267 0.93519 0.3145 0.0
O39 O 0.14811 0.0297 0.26139 0.0
Mg40 Mg 0.01147 0.01198 0.76566 0.0
O41 O 0.07812 0.01208 0.79433 0.0
O42 O 0.13663 0.01412 0.76966 0.0
Mg43 Mg 0.1092 0.01578 0.72617 0.0
C44 C 0.12113 0.01257 0.79211 0.0
C45 C 0.93154 0.00649 0.8011 0.0
O46 O 0.91986 0.97602 0.78316 0.0
O47 O 0.01814 0.08619 0.75577 0.0
O48 O 0.07648 0.08417 0.73083 0.0
O49 O 0.01462 0.937 0.76235 0.0
O50 O 0.04623 0.98315 0.73609 0.0
C51 C 0.04541 0.10542 0.74141 0.0
C52 C 0.03896 0.94282 0.74285 0.0
O53 O 0.96871 0.02774 0.79987 0.0
H54 H 0.52344 0.05086 0.13344 0.0
H55 H 0.45876 0.05171 0.15975 0.0
H56 H 0.37214 0.10584 0.094 0.0
H57 H 0.43678 0.10411 0.06698 0.0
H58 H 0.36995 0.13933 0.15723 0.0
H59 H 0.34486 0.01991 0.0925 0.0
H60 H 0.3721 0.9576 0.06673 0.0
H61 H 0.41938 0.8891 0.13838 0.0
H62 H 0.39318 0.9515 0.16457 0.0
H63 H 0.17164 0.07367 0.22075 0.0
H64 H 0.22193 0.09232 0.1868 0.0
H65 H 0.31869 0.99285 0.2183 0.0
H66 H 0.26875 0.97378 0.25185 0.0
H67 H 0.30685 0.98755 0.16609 0.0
H68 H 0.33526 0.10469 0.23075 0.0
H69 H 0.31396 0.16732 0.25831 0.0
H70 H 0.26391 0.24037 0.1888 0.0
H71 H 0.28439 0.17787 0.16084 0.0
C72 C 0.49098 0.06383 0.12459 0.0
C73 C 0.48529 0.07703 0.09796 0.0
C74 C 0.45403 0.06433 0.13973 0.0
C75 C 0.41074 0.07859 0.12876 0.0
C76 C 0.40541 0.09479 0.1028 0.0
C77 C 0.44238 0.09375 0.08741 0.0
C78 C 0.37077 0.07152 0.14377 0.0
C79 C 0.35517 0.10648 0.15872 0.0
C80 C 0.35246 0.02843 0.14611 0.0
C81 C 0.36753 0.99055 0.13047 0.0
C82 C 0.36148 0.99176 0.10275 0.0
C83 C 0.37665 0.9564 0.08807 0.0
C84 C 0.39757 0.91947 0.10091 0.0
C85 C 0.40323 0.91777 0.12846 0.0
C86 C 0.38821 0.95311 0.14323 0.0
C87 C 0.20361 0.05575 0.22039 0.0
C88 C 0.21615 0.02225 0.23908 0.0
C89 C 0.2324 0.06656 0.20103 0.0
C90 C 0.2743 0.04418 0.20006 0.0
C91 C 0.28654 0.01053 0.21856 0.0
C92 C 0.25792 0.99976 0.23784 0.0
C93 C 0.30583 0.05533 0.17994 0.0
C94 C 0.32038 0.02083 0.16416 0.0
C95 C 0.32312 0.09889 0.17695 0.0
C96 C 0.3108 0.13641 0.19373 0.0
C97 C 0.31934 0.13396 0.22136 0.0
C98 C 0.30749 0.16945 0.23705 0.0
C99 C 0.28744 0.20774 0.22532 0.0
C100 C 0.27933 0.21065 0.19786 0.0
C101 C 0.29107 0.17521 0.18209 0.0
H102 H 0.27831 0.2352 0.2375 0.0
H103 H 0.40929 0.89212 0.08951 0.0
H104 H 0.96142 0.42922 0.57507 0.0
H105 H 0.94922 0.37078 0.60759 0.0
H106 H 0.09118 0.37972 0.63871 0.0
H107 H 0.10348 0.43777 0.60711 0.0
H108 H 0.05661 0.2912 0.62242 0.0
H109 H 0.02189 0.42206 0.67365 0.0
H110 H 0.97727 0.4894 0.68167 0.0
H111 H 0.85445 0.41137 0.67904 0.0
H112 H 0.89831 0.34362 0.67062 0.0
H113 H 0.10944 0.16731 0.73312 0.0
H114 H 0.09708 0.23532 0.70718 0.0
H115 H 0.95099 0.21525 0.70242 0.0
H116 H 0.96327 0.14762 0.7293 0.0
H117 H 0.97327 0.30536 0.70191 0.0
H118 H 1.00594 0.17419 0.6548 0.0
H119 H 0.04777 0.1055 0.64594 0.0
H120 H 0.16921 0.1816 0.6379 0.0
H121 H 0.12831 0.25071 0.64715 0.0
C122 C 0.98983 0.41889 0.58901 0.0
C123 C 0.03344 0.43805 0.5884 0.0
C124 C 0.98278 0.38569 0.60758 0.0
C125 C 0.01937 0.37105 0.62549 0.0
C126 C 0.06254 0.39058 0.62506 0.0
C127 C 0.06943 0.42385 0.60691 0.0
C128 C 0.01448 0.33363 0.64388 0.0
C129 C 0.03843 0.2943 0.63982 0.0
C130 C 0.98948 0.33723 0.66606 0.0
C131 C 0.96325 0.37791 0.67114 0.0
C132 C 0.98529 0.41935 0.67449 0.0
C133 C 0.96016 0.45757 0.67918 0.0
C134 C 0.91302 0.4547 0.68076 0.0
C135 C 0.89094 0.41356 0.67775 0.0
C136 C 0.91592 0.37525 0.67302 0.0
C137 C 0.07464 0.17827 0.72737 0.0
C138 C 0.03734 0.15206 0.73301 0.0
C139 C 0.06759 0.21698 0.71242 0.0
C140 C 0.02316 0.2296 0.7022 0.0
C141 C 0.98556 0.20593 0.70994 0.0
C142 C 0.99262 0.16741 0.72538 0.0
C143 C 0.01704 0.26362 0.68096 0.0
C144 C 0.99088 0.30199 0.68434 0.0
C145 C 0.03951 0.25903 0.65781 0.0
C146 C 0.06412 0.2176 0.65185 0.0
C147 C 0.04164 0.17625 0.6513 0.0
C148 C 0.06518 0.13724 0.6462 0.0
C149 C 0.11113 0.13917 0.6414 0.0
C150 C 0.13361 0.18015 0.64163 0.0
C151 C 0.11026 0.21926 0.64678 0.0
H152 H 0.1293 0.10893 0.63746 0.0
H153 H 0.89362 0.48432 0.68441 0.0
H154 H 0.73945 0.98214 0.04878 0.0
H155 H 0.80129 0.97868 0.08477 0.0
H156 H 0.70187 0.97854 0.14141 0.0
H157 H 0.63991 0.98117 0.10559 0.0
H158 H 0.82234 0.0398 0.12127 0.0
H159 H 0.74444 0.92806 0.19798 0.0
H160 H 0.69421 0.86246 0.19886 0.0
H161 H 0.73223 0.82067 0.12357 0.0
H162 H 0.78315 0.88566 0.12239 0.0
H163 H 0.90375 0.00909 0.27067 0.0
H164 H 0.84713 0.00182 0.23236 0.0
H165 H 0.9552 0.99928 0.18118 0.0
H166 H 0.01228 0.00714 0.21944 0.0
H167 H 0.83392 0.93573 0.19715 0.0
H168 H 0.91496 0.04508 0.12151 0.0
H169 H 0.9649 0.11091 0.12049 0.0
H170 H 0.9201 0.15722 0.19329 0.0
H171 H 0.86949 0.092 0.19455 0.0
C172 C 0.73067 0.98048 0.06888 0.0
C173 C 0.68465 0.98206 0.07428 0.0
C174 C 0.76613 0.97872 0.08945 0.0
C175 C 0.75637 0.9783 0.11584 0.0
C176 C 0.71039 0.97818 0.12124 0.0
C177 C 0.6749 0.97977 0.10069 0.0
C178 C 0.79408 0.98117 0.1377 0.0
C179 C 0.82536 0.0165 0.13761 0.0
C180 C 0.79748 0.95147 0.15937 0.0
C181 C 0.76729 0.91199 0.16 0.0
C182 C 0.74223 0.90478 0.18166 0.0
C183 C 0.71361 0.86772 0.1822 0.0
C184 C 0.70993 0.83749 0.16125 0.0
C185 C 0.73497 0.8442 0.13974 0.0
C186 C 0.76367 0.88118 0.13911 0.0
C187 C 0.91564 0.00737 0.25128 0.0
C188 C 0.96273 0.0088 0.24822 0.0
C189 C 0.88312 0.00297 0.22937 0.0
C190 C 0.8968 1.00012 0.20386 0.0
C191 C 0.94373 0.00194 0.20064 0.0
C192 C 0.97636 0.0064 0.22257 0.0
C193 C 0.86182 0.99454 0.18078 0.0
C194 C 0.83107 0.95875 0.18067 0.0
C195 C 0.8589 0.02379 0.15891 0.0
C196 C 0.88887 0.06338 0.15826 0.0
C197 C 0.9157 0.06938 0.13725 0.0
C198 C 0.94412 0.10658 0.13664 0.0
C199 C 0.9458 0.13814 0.15686 0.0
C200 C 0.91893 0.13265 0.17769 0.0
C201 C 0.89042 0.09554 0.17839 0.0
H202 H 0.96785 0.16689 0.15636 0.0
H203 H 0.68773 0.80884 0.1617 0.0
H204 H 0.03554 0.64351 0.57228 0.0
H205 H 0.03438 0.70196 0.60509 0.0
H206 H 0.1783 0.68146 0.62859 0.0
H207 H 0.17962 0.62149 0.59585 0.0
H208 H 0.13132 0.69283 0.67133 0.0
H209 H 0.14361 0.77046 0.59082 0.0
H210 H 0.12403 0.78907 0.54388 0.0
H211 H 0.98869 0.82771 0.55971 0.0
H212 H 0.00726 0.80876 0.60669 0.0
H213 H 0.09556 0.94661 0.70368 0.0
H214 H 0.11909 0.88638 0.67643 0.0
H215 H 0.0439 0.79302 0.71955 0.0
H216 H 0.02167 0.8535 0.74793 0.0
H217 H 0.0677 0.84046 0.64351 0.0
H218 H 0.08741 0.68786 0.7138 0.0
H219 H 0.1133 0.67147 0.7604 0.0
H220 H 0.19782 0.78828 0.76482 0.0
H221 H 0.17297 0.80502 0.71816 0.0
C222 C 0.06717 0.65135 0.58426 0.0
C223 C 0.10783 0.6279 0.58123 0.0
C224 C 0.0664 0.68495 0.60306 0.0
C225 C 0.10636 0.69656 0.61909 0.0
C226 C 0.14706 0.6731 0.61637 0.0
C227 C 0.14783 0.63906 0.59755 0.0
C228 C 0.105 0.73353 0.6384 0.0
C229 C 0.11768 0.72523 0.66529 0.0
C230 C 0.08798 0.77607 0.63048 0.0
C231 C 0.07676 0.78791 0.60226 0.0
C232 C 0.10959 0.78268 0.58426 0.0
C233 C 0.09868 0.79332 0.55765 0.0
C234 C 0.05512 0.80949 0.54881 0.0
C235 C 0.02241 0.81517 0.56658 0.0
C236 C 0.03314 0.80454 0.59321 0.0
C237 C 0.08485 0.91326 0.70795 0.0
C238 C 0.05685 0.90503 0.72818 0.0
C239 C 0.09815 0.87872 0.69212 0.0
C240 C 0.0834 0.83503 0.69584 0.0
C241 C 0.05638 0.82632 0.71649 0.0
C242 C 0.04349 0.86097 0.73264 0.0
C243 C 0.09321 0.79976 0.67666 0.0
C244 C 0.08182 0.8083 0.64968 0.0
C245 C 0.11238 0.75795 0.68454 0.0
C246 C 0.12795 0.74789 0.71254 0.0
C247 C 0.11167 0.70994 0.72468 0.0
C248 C 0.12614 0.70061 0.75112 0.0
C249 C 0.15707 0.72889 0.76558 0.0
C250 C 0.17373 0.76649 0.75362 0.0
C251 C 0.1594 0.77595 0.72719 0.0
H252 H 0.1682 0.72163 0.78605 0.0
H253 H 0.04673 0.81769 0.52819 0.0
H254 H 0.47358 0.96905 0.96104 0.0
H255 H 0.4121 0.96693 0.92487 0.0
H256 H 0.31187 0.98286 0.98027 0.0
H257 H 0.37315 0.98486 0.01667 0.0
H258 H 0.28254 0.92536 0.93795 0.0
H259 H 0.34625 0.0722 0.95188 0.0
H260 H 0.40932 0.12661 0.95753 0.0
H261 H 0.44658 0.09465 0.88046 0.0
H262 H 0.38411 0.03952 0.87451 0.0
H263 H 0.10381 0.00805 0.84417 0.0
H264 H 0.15967 0.99939 0.88304 0.0
H265 H 0.26955 0.9992 0.83306 0.0
H266 H 0.21446 0.00874 0.7944 0.0
H267 H 0.29188 0.04924 0.87438 0.0
H268 H 0.2299 0.90225 0.85996 0.0
H269 H 0.16884 0.84576 0.85407 0.0
H270 H 0.12963 0.87584 0.93097 0.0
H271 H 0.19011 0.93297 0.93717 0.0
C272 C 0.43845 0.97111 0.96566 0.0
C273 C 0.42838 0.97775 0.99177 0.0
C274 C 0.40333 0.97003 0.94492 0.0
C275 C 0.35749 0.97559 0.94985 0.0
C276 C 0.34703 0.97873 0.97602 0.0
C277 C 0.38217 0.97993 0.99681 0.0
C278 C 0.3212 0.98238 0.92764 0.0
C279 C 0.2842 0.9527 0.9242 0.0
C280 C 0.32373 0.01775 0.90953 0.0
C281 C 0.36077 0.05147 0.91285 0.0
C282 C 0.36807 0.07658 0.9362 0.0
C283 C 0.40369 0.10756 0.93945 0.0
C284 C 0.43201 0.114 0.91939 0.0
C285 C 0.42465 0.08958 0.89599 0.0
C286 C 0.38912 0.0585 0.89266 0.0
C287 C 0.13988 0.00637 0.84146 0.0
C288 C 0.1545 0.00907 0.81607 0.0
C289 C 0.17178 1.00112 0.86371 0.0
C290 C 0.21886 0.99807 0.86098 0.0
C291 C 0.23347 0.00143 0.83572 0.0
C292 C 0.20177 0.00685 0.81356 0.0
C293 C 0.25329 0.99179 0.88429 0.0
C294 C 0.28998 0.02182 0.88807 0.0
C295 C 0.2505 0.95659 0.90256 0.0
C296 C 0.2142 0.92222 0.89891 0.0
C297 C 0.20802 0.89707 0.87553 0.0
C298 C 0.17356 0.86489 0.87215 0.0
C299 C 0.14528 0.85731 0.8921 0.0
C300 C 0.1515 0.88181 0.91551 0.0
C301 C 0.18589 0.91407 0.91898 0.0
H302 H 0.11863 0.83238 0.88945 0.0
H303 H 0.4596 0.13797 0.92195 0.0
H304 H 0.11451 0.35934 0.50411 0.0
H305 H 0.12635 0.3109 0.46711 0.0
H306 H 0.12764 0.42515 0.41599 0.0
H307 H 0.11532 0.47409 0.45312 0.0
H308 H 0.06827 0.36516 0.39533 0.0
H309 H 0.22422 0.36123 0.42887 0.0
H310 H 0.29114 0.35501 0.46217 0.0
H311 H 0.25359 0.2208 0.47903 0.0
H312 H 0.18606 0.22638 0.44612 0.0
H313 H 0.14995 0.15066 0.32183 0.0
H314 H 0.16661 0.22217 0.34401 0.0
H315 H 0.03423 0.21949 0.37357 0.0
H316 H 0.0173 0.14868 0.35149 0.0
H317 H 0.17437 0.2364 0.3962 0.0
H318 H 0.9947 0.32194 0.38202 0.0
H319 H 0.93059 0.33053 0.34709 0.0
H320 H 0.02177 0.30712 0.28791 0.0
H321 H 0.08658 0.29904 0.32245 0.0
C322 C 0.11843 0.37436 0.48516 0.0
C323 C 0.1137 0.42059 0.48157 0.0
C324 C 0.12542 0.34656 0.46398 0.0
C325 C 0.12802 0.36429 0.4387 0.0
C326 C 0.12577 0.41069 0.43531 0.0
C327 C 0.11902 0.43866 0.4566 0.0
C328 C 0.12787 0.33378 0.41565 0.0
C329 C 0.09183 0.33731 0.39535 0.0
C330 C 0.15924 0.29801 0.41524 0.0
C331 C 0.19992 0.29432 0.43505 0.0
C332 C 0.23005 0.33047 0.43979 0.0
C333 C 0.26813 0.32705 0.45859 0.0
C334 C 0.27659 0.28755 0.47272 0.0
C335 C 0.24701 0.25137 0.46806 0.0
C336 C 0.20886 0.25462 0.44929 0.0
C337 C 0.12397 0.16585 0.33253 0.0
C338 C 0.08234 0.14379 0.33495 0.0
C339 C 0.13367 0.20661 0.34533 0.0
C340 C 0.10164 0.22636 0.3604 0.0
C341 C 0.05929 0.20534 0.36179 0.0
C342 C 0.04973 0.16462 0.34922 0.0
C343 C 0.11342 0.26665 0.37672 0.0
C344 C 0.15149 0.26483 0.39582 0.0
C345 C 0.08431 0.30434 0.37581 0.0
C346 C 0.04551 0.30965 0.35488 0.0
C347 C 1.00117 0.3189 0.36156 0.0
C348 C 0.96467 0.32361 0.34182 0.0
C349 C 0.97209 0.31929 0.3153 0.0
C350 C 0.01604 0.31034 0.30847 0.0
C351 C 0.05266 0.30562 0.32812 0.0
H352 H 0.94378 0.32293 0.30006 0.0
H353 H 0.30609 0.28497 0.48727 0.0
H354 H 0.59281 0.02714 0.92939 0.0
H355 H 0.65698 0.02789 0.90274 0.0
H356 H 0.73712 0.1034 0.9628 0.0
H357 H 0.67298 0.10196 0.99025 0.0
H358 H 0.73876 0.12696 0.90134 0.0
H359 H 0.76815 0.014 0.96808 0.0
H360 H 0.74603 0.95152 0.99538 0.0
H361 H 0.71063 0.87344 0.92566 0.0
H362 H 0.73166 0.93588 0.89791 0.0
H363 H 0.9417 0.07074 0.8398 0.0
H364 H 0.88972 0.08715 0.87325 0.0
H365 H 0.80029 0.98137 0.84259 0.0
H366 H 0.85199 0.96454 0.80947 0.0
H367 H 0.81159 0.97866 0.89511 0.0
H368 H 0.77628 0.09134 0.82844 0.0
H369 H 0.7937 0.15396 0.79989 0.0
H370 H 0.83801 0.23248 0.86821 0.0
H371 H 0.82139 0.17005 0.89717 0.0
C372 C 0.62368 0.04463 0.9369 0.0
C373 C 0.62778 0.06419 0.96213 0.0
C374 C 0.66037 0.045 0.92156 0.0
C375 C 0.70179 0.06542 0.93088 0.0
C376 C 0.70531 0.0875 0.95529 0.0
C377 C 0.66865 0.08663 0.97092 0.0
C378 C 0.74205 0.05974 0.91588 0.0
C379 C 0.75557 0.09491 0.90039 0.0
C380 C 0.76316 0.01764 0.91431 0.0
C381 C 0.75103 0.97979 0.93091 0.0
C382 C 0.75521 0.98368 0.95856 0.0
C383 C 0.74294 0.94825 0.97412 0.0
C384 C 0.72684 0.90857 0.96226 0.0
C385 C 0.72306 0.90422 0.93481 0.0
C386 C 0.73516 0.93962 0.91916 0.0
C387 C 0.91102 0.05091 0.84024 0.0
C388 C 0.90101 0.01636 0.82188 0.0
C389 C 0.88123 0.06046 0.85932 0.0
C390 C 0.84084 0.03572 0.86035 0.0
C391 C 0.83122 1.0009 0.84225 0.0
C392 C 0.86083 0.9914 0.82323 0.0
C393 C 0.8082 0.04575 0.88008 0.0
C394 C 0.79577 0.01113 0.8964 0.0
C395 C 0.78813 0.08837 0.88232 0.0
C396 C 0.79815 0.12585 0.86495 0.0
C397 C 0.79012 0.12182 0.83736 0.0
C398 C 0.79978 0.1573 0.82111 0.0
C399 C 0.81711 0.19712 0.83222 0.0
C400 C 0.82469 0.20158 0.85962 0.0
C401 C 0.81515 0.16617 0.87596 0.0
H402 H 0.82454 0.22456 0.81961 0.0
H403 H 0.71738 0.88115 0.97433 0.0
H404 H 0.97437 0.63888 0.47437 0.0
H405 H 0.97556 0.70057 0.44325 0.0
H406 H 0.01638 0.6105 0.38406 0.0
H407 H 0.01562 0.54869 0.41508 0.0
H408 H 0.07427 0.67919 0.3914 0.0
H409 H 0.91189 0.6618 0.37637 0.0
H410 H 0.83316 0.65439 0.38856 0.0
H411 H 0.84273 0.78336 0.42501 0.0
H412 H 0.92178 0.79131 0.41337 0.0
H413 H 0.08577 0.84945 0.29629 0.0
H414 H 0.06113 0.78181 0.31753 0.0
H415 H 0.01539 0.86082 0.38046 0.0
H416 H 0.03931 0.9284 0.35924 0.0
H417 H 0.95615 0.79458 0.36766 0.0
H418 H 0.11938 0.80876 0.38754 0.0
H419 H 0.19914 0.81699 0.37717 0.0
H420 H 0.18865 0.69445 0.33359 0.0
H421 H 0.10857 0.6858 0.34342 0.0
C422 C 0.98244 0.63192 0.45453 0.0
C423 C 0.9953 0.58881 0.44735 0.0
C424 C 0.98305 0.6673 0.4367 0.0
C425 C 0.99622 0.66025 0.4113 0.0
C426 C 1.00632 0.6168 0.40358 0.0
C427 C 1.00566 0.58142 0.42135 0.0
C428 C 1.00417 0.69862 0.39389 0.0
C429 C 0.04807 0.70389 0.38573 0.0
C430 C 0.9705 0.73161 0.38715 0.0
C431 C 0.92293 0.72698 0.39417 0.0
C432 C 0.89736 0.68844 0.38717 0.0
C433 C 0.85263 0.68417 0.39395 0.0
C434 C 0.83299 0.71834 0.4076 0.0
C435 C 0.858 0.7569 0.41445 0.0
C436 C 0.90275 0.76133 0.40774 0.0
C437 C 0.07005 0.85246 0.31451 0.0
C438 C 0.06467 0.89437 0.32609 0.0
C439 C 0.05607 0.81374 0.32668 0.0
C440 C 0.03689 0.81614 0.35079 0.0
C441 C 0.03001 0.85807 0.36186 0.0
C442 C 0.04382 0.89675 0.34969 0.0
C443 C 0.02623 0.77505 0.36526 0.0
C444 C 0.98203 0.76945 0.373 0.0
C445 C 0.05971 0.74182 0.37185 0.0
C446 C 0.10784 0.74691 0.36595 0.0
C447 C 0.13397 0.78376 0.37556 0.0
C448 C 0.17925 0.78847 0.36982 0.0
C449 C 0.1989 0.75634 0.35466 0.0
C450 C 0.17335 0.71936 0.34528 0.0
C451 C 0.12803 0.71453 0.35094 0.0
H452 H 0.23397 0.76003 0.35024 0.0
H453 H 0.79836 0.71498 0.41283 0.0
loop_
_geom_bond_atom_site_label_1
_geom_bond_atom_site_label_2
_geom_bond_distance
_geom_bond_site_symmetry_2
_ccdc_geom_bond_type
Mg0 O7 2.141 . S
Mg0 O8 2.048 1_554 S
Mg0 O9 2.048 1_554 S
Mg0 O12 2.141 . S
C1 O2 1.313 1_545 S
C1 O8 1.195 . S
O2 C1 1.313 1_565 S
C3 O4 1.245 1_545 S
C3 O12 1.289 . S
O4 C3 1.245 1_565 S
C5 O6 1.245 1_545 S
C5 O7 1.289 . S
O6 C5 1.245 1_565 S
O7 Mg0 2.141 . S
O7 C5 1.289 . S
O8 Mg0 2.048 1_556 S
O8 C1 1.195 . S
O9 Mg0 2.048 1_556 S
O9 C10 1.195 . S
C10 O9 1.195 . S
C10 O11 1.313 1_545 S
O11 C10 1.313 1_565 S
O12 Mg0 2.141 . S
O12 C3 1.289 . S
Mg13 O20 2.141 . S
Mg13 O21 2.048 . S
Mg13 O22 2.048 . S
Mg13 O25 2.141 . S
C14 O15 1.313 . S
C14 O21 1.195 . S
O15 C14 1.313 . S
C16 O17 1.245 . S
C16 O25 1.289 . S
O17 C16 1.245 . S
C18 O19 1.245 . S
C18 O20 1.289 . S
O19 C18 1.245 . S
O20 Mg13 2.141 . S
O20 C18 1.289 . S
O21 Mg13 2.048 . S
O21 C14 1.195 . S
O22 Mg13 2.048 . S
O22 C23 1.195 . S
C23 O22 1.195 . S
C23 O24 1.313 . S
O24 C23 1.313 . S
O25 Mg13 2.141 . S
O25 C16 1.289 . S
Mg26 O27 2.028 . S
Mg26 O33 1.986 . S
Mg26 O35 2.114 1_545 S
Mg26 O36 2.251 1_545 S
Mg26 O39 2.010 . S
O27 Mg26 2.028 . S
O27 C30 1.250 . S
O28 Mg29 2.028 1_655 S
O28 C30 1.248 1_655 S
Mg29 O28 2.028 1_455 S
Mg29 O34 2.032 . S
Mg29 O36 2.079 1_545 S
C30 O27 1.250 . S
C30 O28 1.248 1_455 S
C31 O32 1.264 . S
C31 O39 1.249 . S
O32 C31 1.264 . S
O33 Mg26 1.986 . S
O33 C37 1.246 . S
O34 Mg29 2.032 . S
O34 C37 1.259 . S
O35 Mg26 2.114 1_565 S
O35 C38 1.252 . S
O36 Mg26 2.251 1_565 S
O36 Mg29 2.079 1_565 S
O36 C38 1.273 . S
C37 O33 1.246 . S
C37 O34 1.259 . S
C38 O35 1.252 . S
C38 O36 1.273 . S
O39 Mg26 2.010 . S
O39 C31 1.249 . S
Mg40 O41 2.023 1_655 S
Mg40 O47 1.985 1_655 S
Mg40 O49 2.113 1_645 S
Mg40 O50 2.246 1_645 S
Mg40 O53 2.017 . S
O41 Mg40 2.023 1_455 S
O41 C44 1.250 . S
O42 Mg43 2.028 . S
O42 C44 1.248 . S
Mg43 O42 2.028 . S
Mg43 O48 2.032 . S
Mg43 O50 2.079 1_545 S
C44 O41 1.250 . S
C44 O42 1.248 . S
C45 O46 1.264 . S
C45 O53 1.249 . S
O46 C45 1.264 . S
O47 Mg40 1.985 1_455 S
O47 C51 1.246 . S
O48 Mg43 2.032 . S
O48 C51 1.259 . S
O49 Mg40 2.113 1_465 S
O49 C52 1.253 . S
O50 Mg40 2.246 1_465 S
O50 Mg43 2.079 1_565 S
O50 C52 1.273 . S
C51 O47 1.246 . S
C51 O48 1.259 . S
C52 O49 1.253 . S
C52 O50 1.273 . S
O53 Mg40 2.017 . S
O53 C45 1.249 . S
H54 C72 0.951 . S
H55 C74 0.951 . S
H56 C76 0.950 . S
H57 C77 0.950 . S
H58 C79 0.950 . S
H59 C82 0.950 . S
H60 C83 0.950 . S
H61 C85 0.950 . S
H62 C86 0.950 . S
H63 C87 0.951 . S
H64 C89 0.951 . S
H65 C91 0.950 . S
H66 C92 0.950 . S
H67 C94 0.950 . S
H68 C97 0.950 . S
H69 C98 0.950 . S
H70 C100 0.950 . S
H71 C101 0.950 . S
C72 H54 0.951 . S
C72 C73 1.366 1_565 S
C72 C74 1.388 . S
C73 C72 1.366 1_545 S
C73 C77 1.385 . S
C74 H55 0.951 . S
C74 C72 1.388 . S
C74 C75 1.366 1_565 S
C75 C74 1.366 1_545 S
C75 C76 1.414 . S
C75 C78 1.499 . S
C76 H56 0.950 . S
C76 C75 1.414 . S
C76 C77 1.374 . S
C77 H57 0.950 . S
C77 C73 1.385 . S
C77 C76 1.374 . S
C78 C75 1.499 . S
C78 C79 1.373 . S
C78 C80 1.389 1_545 S
C79 H58 0.950 . S
C79 C78 1.373 . S
C79 C95 1.377 . S
C80 C78 1.389 1_565 S
C80 C81 1.524 . S
C80 C94 1.377 . S
C81 C80 1.524 . S
C81 C82 1.397 . S
C81 C86 1.363 . S
C82 H59 0.950 . S
C82 C81 1.397 . S
C82 C83 1.334 . S
C83 H60 0.950 . S
C83 C82 1.334 . S
C83 C84 1.287 . S
C84 C83 1.287 . S
C84 C85 1.524 . S
C84 H103 0.913 . S
C85 H61 0.950 . S
C85 C84 1.524 . S
C85 C86 1.415 . S
C86 H62 0.950 . S
C86 C81 1.363 . S
C86 C85 1.415 . S
C87 H63 0.951 . S
C87 C88 1.366 . S
C87 C89 1.388 . S
C88 C87 1.366 . S
C88 C92 1.385 1_545 S
C89 H64 0.951 . S
C89 C87 1.388 . S
C89 C90 1.366 . S
C90 C89 1.366 . S
C90 C91 1.414 1_545 S
C90 C93 1.499 . S
C91 H65 0.950 . S
C91 C90 1.414 1_565 S
C91 C92 1.374 . S
C92 H66 0.950 . S
C92 C88 1.385 1_565 S
C92 C91 1.374 . S
C93 C90 1.499 . S
C93 C94 1.373 1_545 S
C93 C95 1.389 . S
C94 H67 0.950 . S
C94 C80 1.377 . S
C94 C93 1.373 1_565 S
C95 C79 1.377 . S
C95 C93 1.389 . S
C95 C96 1.524 . S
C96 C95 1.524 . S
C96 C97 1.397 . S
C96 C101 1.363 . S
C97 H68 0.950 . S
C97 C96 1.397 . S
C97 C98 1.334 . S
C98 H69 0.950 . S
C98 C97 1.334 . S
C98 C99 1.287 . S
C99 C98 1.287 . S
C99 C100 1.524 . S
C99 H102 0.999 . S
C100 H70 0.950 . S
C100 C99 1.524 . S
C100 C101 1.415 . S
C101 H71 0.950 . S
C101 C96 1.363 . S
C101 C100 1.415 . S
H102 C99 0.999 . S
H103 C84 0.913 . S
H104 C122 0.951 1_655 S
H105 C124 0.951 1_655 S
H106 C126 0.950 . S
H107 C127 0.950 . S
H108 C129 0.950 . S
H109 C132 0.950 1_455 S
H110 C133 0.950 . S
H111 C135 0.950 . S
H112 C136 0.950 . S
H113 C137 0.951 . S
H114 C139 0.951 . S
H115 C141 0.950 . S
H116 C142 0.950 . S
H117 C144 0.950 1_655 S
H118 C147 0.950 . S
H119 C148 0.950 . S
H120 C150 0.950 . S
H121 C151 0.950 . S
C122 H104 0.951 1_455 S
C122 C123 1.366 . S
C122 C124 1.388 . S
C123 C122 1.366 . S
C123 C127 1.385 . S
C124 H105 0.951 1_455 S
C124 C122 1.388 . S
C124 C125 1.366 . S
C125 C124 1.366 . S
C125 C126 1.414 . S
C125 C128 1.499 . S
C126 H106 0.950 . S
C126 C125 1.414 . S
C126 C127 1.374 . S
C127 H107 0.950 . S
C127 C123 1.385 . S
C127 C126 1.374 . S
C128 C125 1.499 . S
C128 C129 1.373 . S
C128 C130 1.389 . S
C129 H108 0.950 . S
C129 C128 1.373 . S
C129 C145 1.377 . S
C130 C128 1.389 . S
C130 C131 1.524 1_455 S
C130 C144 1.377 . S
C131 C130 1.524 1_655 S
C131 C132 1.397 . S
C131 C136 1.363 . S
C132 H109 0.950 1_655 S
C132 C131 1.397 . S
C132 C133 1.334 . S
C133 H110 0.950 . S
C133 C132 1.334 . S
C133 C134 1.287 . S
C134 C133 1.287 . S
C134 C135 1.524 . S
C134 H153 0.913 . S
C135 H111 0.950 . S
C135 C134 1.524 . S
C135 C136 1.415 . S
C136 H112 0.950 . S
C136 C131 1.363 . S
C136 C135 1.415 . S
C137 H113 0.951 . S
C137 C138 1.366 . S
C137 C139 1.388 . S
C138 C137 1.366 . S
C138 C142 1.385 1_455 S
C139 H114 0.951 . S
C139 C137 1.388 . S
C139 C140 1.366 . S
C140 C139 1.366 . S
C140 C141 1.414 1_455 S
C140 C143 1.499 . S
C141 H115 0.950 . S
C141 C140 1.414 1_655 S
C141 C142 1.374 . S
C142 H116 0.950 . S
C142 C138 1.385 1_655 S
C142 C141 1.374 . S
C143 C140 1.499 . S
C143 C144 1.373 . S
C143 C145 1.389 . S
C144 H117 0.950 1_455 S
C144 C130 1.377 . S
C144 C143 1.373 . S
C145 C129 1.377 . S
C145 C143 1.389 . S
C145 C146 1.524 . S
C146 C145 1.524 . S
C146 C147 1.397 . S
C146 C151 1.363 . S
C147 H118 0.950 . S
C147 C146 1.397 . S
C147 C148 1.334 . S
C148 H119 0.950 . S
C148 C147 1.334 . S
C148 C149 1.287 . S
C149 C148 1.287 . S
C149 C150 1.524 . S
C149 H152 0.999 . S
C150 H120 0.950 . S
C150 C149 1.524 . S
C150 C151 1.415 . S
C151 H121 0.950 . S
C151 C146 1.363 . S
C151 C150 1.415 . S
H152 C149 0.999 . S
H153 C134 0.913 . S
H154 C172 0.951 . S
H155 C174 0.951 . S
H156 C176 0.950 . S
H157 C177 0.950 . S
H158 C179 0.950 . S
H159 C182 0.950 1_545 S
H160 C183 0.950 . S
H161 C185 0.950 . S
H162 C186 0.950 . S
H163 C187 0.951 . S
H164 C189 0.951 . S
H165 C191 0.950 . S
H166 C192 0.950 . S
H167 C194 0.950 . S
H168 C197 0.950 . S
H169 C198 0.950 1_455 S
H170 C200 0.950 . S
H171 C201 0.950 . S
C172 H154 0.951 . S
C172 C173 1.366 1_565 S
C172 C174 1.388 . S
C173 C172 1.366 1_545 S
C173 C177 1.385 . S
C174 H155 0.951 . S
C174 C172 1.388 . S
C174 C175 1.366 1_565 S
C175 C174 1.366 1_545 S
C175 C176 1.414 . S
C175 C178 1.499 . S
C176 H156 0.950 . S
C176 C175 1.414 . S
C176 C177 1.374 . S
C177 H157 0.950 . S
C177 C173 1.385 . S
C177 C176 1.374 . S
C178 C175 1.499 . S
C178 C179 1.373 . S
C178 C180 1.389 1_545 S
C179 H158 0.950 . S
C179 C178 1.373 . S
C179 C195 1.377 . S
C180 C178 1.389 1_565 S
C180 C181 1.524 . S
C180 C194 1.377 . S
C181 C180 1.524 . S
C181 C182 1.397 . S
C181 C186 1.363 . S
C182 H159 0.950 1_565 S
C182 C181 1.397 . S
C182 C183 1.334 . S
C183 H160 0.950 . S
C183 C182 1.334 . S
C183 C184 1.287 . S
C184 C183 1.287 . S
C184 C185 1.524 . S
C184 H203 0.913 . S
C185 H161 0.950 . S
C185 C184 1.524 . S
C185 C186 1.415 . S
C186 H162 0.950 . S
C186 C181 1.363 . S
C186 C185 1.415 . S
C187 H163 0.951 . S
C187 C188 1.366 . S
C187 C189 1.388 . S
C188 C187 1.366 . S
C188 C192 1.385 1_545 S
C189 H164 0.951 . S
C189 C187 1.388 . S
C189 C190 1.366 . S
C190 C189 1.366 . S
C190 C191 1.414 1_545 S
C190 C193 1.499 . S
C191 H165 0.950 . S
C191 C190 1.414 1_565 S
C191 C192 1.374 . S
C192 H166 0.950 . S
C192 C188 1.385 1_565 S
C192 C191 1.374 . S
C193 C190 1.499 . S
C193 C194 1.373 1_545 S
C193 C195 1.389 . S
C194 H167 0.950 . S
C194 C180 1.377 . S
C194 C193 1.373 1_565 S
C195 C179 1.377 . S
C195 C193 1.389 . S
C195 C196 1.524 . S
C196 C195 1.524 . S
C196 C197 1.397 . S
C196 C201 1.363 . S
C197 H168 0.950 . S
C197 C196 1.397 . S
C197 C198 1.334 . S
C198 H169 0.950 1_655 S
C198 C197 1.334 . S
C198 C199 1.287 . S
C199 C198 1.287 . S
C199 C200 1.524 . S
C199 H202 0.999 . S
C200 H170 0.950 . S
C200 C199 1.524 . S
C200 C201 1.415 . S
C201 H171 0.950 . S
C201 C196 1.363 . S
C201 C200 1.415 . S
H202 C199 0.999 . S
H203 C184 0.913 . S
H204 C222 0.951 1_655 S
H205 C224 0.951 1_655 S
H206 C226 0.950 . S
H207 C227 0.950 . S
H208 C229 0.950 . S
H209 C232 0.950 . S
H210 C233 0.950 . S
H211 C235 0.950 . S
H212 C236 0.950 . S
H213 C237 0.951 . S
H214 C239 0.951 . S
H215 C241 0.950 . S
H216 C242 0.950 . S
H217 C244 0.949 1_655 S
H218 C247 0.950 . S
H219 C248 0.950 . S
H220 C250 0.950 . S
H221 C251 0.950 . S
C222 H204 0.951 1_455 S
C222 C223 1.366 . S
C222 C224 1.388 . S
C223 C222 1.366 . S
C223 C227 1.385 . S
C224 H205 0.951 1_455 S
C224 C222 1.388 . S
C224 C225 1.366 . S
C225 C224 1.366 . S
C225 C226 1.414 . S
C225 C228 1.499 . S
C226 H206 0.950 . S
C226 C225 1.414 . S
C226 C227 1.374 . S
C227 H207 0.950 . S
C227 C223 1.385 . S
C227 C226 1.374 . S
C228 C225 1.499 . S
C228 C229 1.373 . S
C228 C230 1.389 . S
C229 H208 0.950 . S
C229 C228 1.373 . S
C229 C245 1.377 . S
C230 C228 1.389 . S
C230 C231 1.524 . S
C230 C244 1.377 . S
C231 C230 1.524 . S
C231 C232 1.397 . S
C231 C236 1.363 1_455 S
C232 H209 0.950 . S
C232 C231 1.397 . S
C232 C233 1.334 . S
C233 H210 0.950 . S
C233 C232 1.334 . S
C233 C234 1.287 1_455 S
C234 C233 1.287 1_655 S
C234 C235 1.524 . S
C234 H253 0.913 . S
C235 H211 0.950 . S
C235 C234 1.524 . S
C235 C236 1.415 . S
C236 H212 0.950 . S
C236 C231 1.363 1_655 S
C236 C235 1.415 . S
C237 H213 0.951 . S
C237 C238 1.366 . S
C237 C239 1.388 . S
C238 C237 1.366 . S
C238 C242 1.385 1_455 S
C239 H214 0.951 . S
C239 C237 1.388 . S
C239 C240 1.366 . S
C240 C239 1.366 . S
C240 C241 1.414 1_455 S
C240 C243 1.499 . S
C241 H215 0.950 . S
C241 C240 1.414 1_655 S
C241 C242 1.374 . S
C242 H216 0.950 . S
C242 C238 1.385 1_655 S
C242 C241 1.374 . S
C243 C240 1.499 . S
C243 C244 1.373 . S
C243 C245 1.389 . S
C244 H217 0.949 1_455 S
C244 C230 1.377 . S
C244 C243 1.373 . S
C245 C229 1.377 . S
C245 C243 1.389 . S
C245 C246 1.524 . S
C246 C245 1.524 . S
C246 C247 1.397 . S
C246 C251 1.363 . S
C247 H218 0.950 . S
C247 C246 1.397 . S
C247 C248 1.334 . S
C248 H219 0.950 . S
C248 C247 1.334 . S
C248 C249 1.287 . S
C249 C248 1.287 . S
C249 C250 1.524 . S
C249 H252 0.999 . S
C250 H220 0.950 . S
C250 C249 1.524 . S
C250 C251 1.415 . S
C251 H221 0.950 . S
C251 C246 1.363 . S
C251 C250 1.415 . S
H252 C249 0.999 . S
H253 C234 0.913 . S
H254 C272 0.951 . S
H255 C274 0.951 . S
H256 C276 0.950 1_565 S
H257 C277 0.950 1_565 S
H258 C279 0.950 . S
H259 C282 0.950 . S
H260 C283 0.950 . S
H261 C285 0.950 . S
H262 C286 0.950 . S
H263 C287 0.951 . S
H264 C289 0.951 . S
H265 C291 0.950 . S
H266 C292 0.950 . S
H267 C294 0.950 . S
H268 C297 0.950 . S
H269 C298 0.950 . S
H270 C300 0.950 . S
H271 C301 0.950 . S
C272 H254 0.951 . S
C272 C273 1.366 . S
C272 C274 1.388 . S
C273 C272 1.366 . S
C273 C277 1.385 . S
C274 H255 0.951 . S
C274 C272 1.388 . S
C274 C275 1.366 . S
C275 C274 1.366 . S
C275 C276 1.414 . S
C275 C278 1.499 . S
C276 H256 0.950 1_545 S
C276 C275 1.414 . S
C276 C277 1.374 . S
C277 H257 0.950 1_545 S
C277 C273 1.385 . S
C277 C276 1.374 . S
C278 C275 1.499 . S
C278 C279 1.373 1_545 S
C278 C280 1.389 . S
C279 H258 0.950 . S
C279 C278 1.373 1_565 S
C279 C295 1.377 . S
C280 C278 1.389 . S
C280 C281 1.524 . S
C280 C294 1.377 . S
C281 C280 1.524 . S
C281 C282 1.397 . S
C281 C286 1.363 . S
C282 H259 0.950 . S
C282 C281 1.397 . S
C282 C283 1.334 . S
C283 H260 0.950 . S
C283 C282 1.334 . S
C283 C284 1.287 . S
C284 C283 1.287 . S
C284 C285 1.524 . S
C284 H303 0.913 . S
C285 H261 0.950 . S
C285 C284 1.524 . S
C285 C286 1.415 . S
C286 H262 0.950 . S
C286 C281 1.363 . S
C286 C285 1.415 . S
C287 H263 0.951 . S
C287 C288 1.366 . S
C287 C289 1.388 . S
C288 C287 1.366 . S
C288 C292 1.385 . S
C289 H264 0.951 . S
C289 C287 1.388 . S
C289 C290 1.366 . S
C290 C289 1.366 . S
C290 C291 1.414 . S
C290 C293 1.499 . S
C291 H265 0.950 . S
C291 C290 1.414 . S
C291 C292 1.374 . S
C292 H266 0.950 . S
C292 C288 1.385 . S
C292 C291 1.374 . S
C293 C290 1.499 . S
C293 C294 1.373 . S
C293 C295 1.389 1_545 S
C294 H267 0.950 . S
C294 C280 1.377 . S
C294 C293 1.373 . S
C295 C279 1.377 . S
C295 C293 1.389 1_565 S
C295 C296 1.524 . S
C296 C295 1.524 . S
C296 C297 1.397 . S
C296 C301 1.363 . S
C297 H268 0.950 . S
C297 C296 1.397 . S
C297 C298 1.334 . S
C298 H269 0.950 . S
C298 C297 1.334 . S
C298 C299 1.287 . S
C299 C298 1.287 . S
C299 C300 1.524 . S
C299 H302 0.999 . S
C300 H270 0.950 . S
C300 C299 1.524 . S
C300 C301 1.415 . S
C301 H271 0.950 . S
C301 C296 1.363 . S
C301 C300 1.415 . S
H302 C299 0.999 . S
H303 C284 0.913 . S
H304 C322 0.951 . S
H305 C324 0.951 . S
H306 C326 0.950 . S
H307 C327 0.950 . S
H308 C329 0.950 . S
H309 C332 0.950 . S
H310 C333 0.950 . S
H311 C335 0.950 . S
H312 C336 0.950 . S
H313 C337 0.951 . S
H314 C339 0.951 . S
H315 C341 0.950 . S
H316 C342 0.950 . S
H317 C344 0.950 . S
H318 C347 0.950 . S
H319 C348 0.950 . S
H320 C350 0.950 . S
H321 C351 0.950 . S
C322 H304 0.951 . S
C322 C323 1.366 . S
C322 C324 1.388 . S
C323 C322 1.366 . S
C323 C327 1.385 . S
C324 H305 0.951 . S
C324 C322 1.388 . S
C324 C325 1.366 . S
C325 C324 1.366 . S
C325 C326 1.414 . S
C325 C328 1.499 . S
C326 H306 0.950 . S
C326 C325 1.414 . S
C326 C327 1.374 . S
C327 H307 0.950 . S
C327 C323 1.385 . S
C327 C326 1.374 . S
C328 C325 1.499 . S
C328 C329 1.373 . S
C328 C330 1.389 . S
C329 H308 0.950 . S
C329 C328 1.373 . S
C329 C345 1.377 . S
C330 C328 1.389 . S
C330 C331 1.524 . S
C330 C344 1.377 . S
C331 C330 1.524 . S
C331 C332 1.397 . S
C331 C336 1.363 . S
C332 H309 0.950 . S
C332 C331 1.397 . S
C332 C333 1.334 . S
C333 H310 0.950 . S
C333 C332 1.334 . S
C333 C334 1.287 . S
C334 C333 1.287 . S
C334 C335 1.524 . S
C334 H353 0.913 . S
C335 H311 0.950 . S
C335 C334 1.524 . S
C335 C336 1.415 . S
C336 H312 0.950 . S
C336 C331 1.363 . S
C336 C335 1.415 . S
C337 H313 0.951 . S
C337 C338 1.366 . S
C337 C339 1.388 . S
C338 C337 1.366 . S
C338 C342 1.385 . S
C339 H314 0.951 . S
C339 C337 1.388 . S
C339 C340 1.366 . S
C340 C339 1.366 . S
C340 C341 1.414 . S
C340 C343 1.499 . S
C341 H315 0.950 . S
C341 C340 1.414 . S
C341 C342 1.374 . S
C342 H316 0.950 . S
C342 C338 1.385 . S
C342 C341 1.374 . S
C343 C340 1.499 . S
C343 C344 1.373 . S
C343 C345 1.389 . S
C344 H317 0.950 . S
C344 C330 1.377 . S
C344 C343 1.373 . S
C345 C329 1.377 . S
C345 C343 1.389 . S
C345 C346 1.524 1_455 S
C346 C345 1.524 1_655 S
C346 C347 1.397 . S
C346 C351 1.363 . S
C347 H318 0.950 . S
C347 C346 1.397 . S
C347 C348 1.334 . S
C348 H319 0.950 . S
C348 C347 1.334 . S
C348 C349 1.287 . S
C349 C348 1.287 . S
C349 C350 1.524 . S
C349 H352 0.999 . S
C350 H320 0.950 . S
C350 C349 1.524 . S
C350 C351 1.415 . S
C351 H321 0.950 . S
C351 C346 1.363 . S
C351 C350 1.415 . S
H352 C349 0.999 . S
H353 C334 0.913 . S
H354 C372 0.951 . S
H355 C374 0.951 . S
H356 C376 0.950 . S
H357 C377 0.950 . S
H358 C379 0.950 . S
H359 C382 0.950 . S
H360 C383 0.950 . S
H361 C385 0.950 . S
H362 C386 0.950 . S
H363 C387 0.951 . S
H364 C389 0.951 . S
H365 C391 0.950 . S
H366 C392 0.950 . S
H367 C394 0.950 . S
H368 C397 0.950 . S
H369 C398 0.950 . S
H370 C400 0.950 . S
H371 C401 0.950 . S
C372 H354 0.951 . S
C372 C373 1.366 1_565 S
C372 C374 1.388 . S
C373 C372 1.366 1_545 S
C373 C377 1.385 . S
C374 H355 0.951 . S
C374 C372 1.388 . S
C374 C375 1.366 1_565 S
C375 C374 1.366 1_545 S
C375 C376 1.414 . S
C375 C378 1.499 . S
C376 H356 0.950 . S
C376 C375 1.414 . S
C376 C377 1.374 . S
C377 H357 0.950 . S
C377 C373 1.385 . S
C377 C376 1.374 . S
C378 C375 1.499 . S
C378 C379 1.373 . S
C378 C380 1.389 1_545 S
C379 H358 0.950 . S
C379 C378 1.373 . S
C379 C395 1.377 . S
C380 C378 1.389 1_565 S
C380 C381 1.524 . S
C380 C394 1.377 . S
C381 C380 1.524 . S
C381 C382 1.397 . S
C381 C386 1.363 . S
C382 H359 0.950 . S
C382 C381 1.397 . S
C382 C383 1.334 . S
C383 H360 0.950 . S
C383 C382 1.334 . S
C383 C384 1.287 . S
C384 C383 1.287 . S
C384 C385 1.524 . S
C384 H403 0.913 . S
C385 H361 0.950 . S
C385 C384 1.524 . S
C385 C386 1.415 . S
C386 H362 0.950 . S
C386 C381 1.363 . S
C386 C385 1.415 . S
C387 H363 0.951 . S
C387 C388 1.366 . S
C387 C389 1.388 . S
C388 C387 1.366 . S
C388 C392 1.385 1_545 S
C389 H364 0.951 . S
C389 C387 1.388 . S
C389 C390 1.366 . S
C390 C389 1.366 . S
C390 C391 1.414 1_545 S
C390 C393 1.499 . S
C391 H365 0.950 . S
C391 C390 1.414 1_565 S
C391 C392 1.374 . S
C392 H366 0.950 . S
C392 C388 1.385 1_565 S
C392 C391 1.374 . S
C393 C390 1.499 . S
C393 C394 1.373 1_545 S
C393 C395 1.389 . S
C394 H367 0.950 . S
C394 C380 1.377 . S
C394 C393 1.373 1_565 S
C395 C379 1.377 . S
C395 C393 1.389 . S
C395 C396 1.524 . S
C396 C395 1.524 . S
C396 C397 1.397 . S
C396 C401 1.363 . S
C397 H368 0.950 . S
C397 C396 1.397 . S
C397 C398 1.334 . S
C398 H369 0.950 . S
C398 C397 1.334 . S
C398 C399 1.287 . S
C399 C398 1.287 . S
C399 C400 1.524 . S
C399 H402 0.999 . S
C400 H370 0.950 . S
C400 C399 1.524 . S
C400 C401 1.415 . S
C401 H371 0.950 . S
C401 C396 1.363 . S
C401 C400 1.415 . S
H402 C399 0.999 . S
H403 C384 0.913 . S
H404 C422 0.951 . S
H405 C424 0.951 . S
H406 C426 0.950 . S
H407 C427 0.950 . S
H408 C429 0.950 . S
H409 C432 0.950 . S
H410 C433 0.950 . S
H411 C435 0.950 . S
H412 C436 0.950 . S
H413 C437 0.951 . S
H414 C439 0.951 . S
H415 C441 0.950 . S
H416 C442 0.950 . S
H417 C444 0.950 . S
H418 C447 0.950 . S
H419 C448 0.950 . S
H420 C450 0.950 . S
H421 C451 0.950 . S
C422 H404 0.951 . S
C422 C423 1.366 . S
C422 C424 1.388 . S
C423 C422 1.366 . S
C423 C427 1.385 . S
C424 H405 0.951 . S
C424 C422 1.388 . S
C424 C425 1.366 . S
C425 C424 1.366 . S
C425 C426 1.414 . S
C425 C428 1.499 . S
C426 H406 0.950 . S
C426 C425 1.414 . S
C426 C427 1.374 . S
C427 H407 0.950 . S
C427 C423 1.385 . S
C427 C426 1.374 . S
C428 C425 1.499 . S
C428 C429 1.373 . S
C428 C430 1.389 . S
C429 H408 0.950 . S
C429 C428 1.373 . S
C429 C445 1.377 . S
C430 C428 1.389 . S
C430 C431 1.524 1_455 S
C430 C444 1.377 . S
C431 C430 1.524 1_655 S
C431 C432 1.397 . S
C431 C436 1.363 . S
C432 H409 0.950 . S
C432 C431 1.397 . S
C432 C433 1.334 . S
C433 H410 0.950 . S
C433 C432 1.334 . S
C433 C434 1.287 . S
C434 C433 1.287 . S
C434 C435 1.524 . S
C434 H453 0.913 . S
C435 H411 0.950 . S
C435 C434 1.524 . S
C435 C436 1.415 . S
C436 H412 0.950 . S
C436 C431 1.363 . S
C436 C435 1.415 . S
C437 H413 0.951 . S
C437 C438 1.366 . S
C437 C439 1.388 . S
C438 C437 1.366 . S
C438 C442 1.385 . S
C439 H414 0.951 . S
C439 C437 1.388 . S
C439 C440 1.366 . S
C440 C439 1.366 . S
C440 C441 1.414 . S
C440 C443 1.499 . S
C441 H415 0.950 . S
C441 C440 1.414 . S
C441 C442 1.374 . S
C442 H416 0.950 . S
C442 C438 1.385 . S
C442 C441 1.374 . S
C443 C440 1.499 . S
C443 C444 1.373 . S
C443 C445 1.389 . S
C444 H417 0.950 . S
C444 C430 1.377 . S
C444 C443 1.373 . S
C445 C429 1.377 . S
C445 C443 1.389 . S
C445 C446 1.524 . S
C446 C445 1.524 . S
C446 C447 1.397 . S
C446 C451 1.363 . S
C447 H418 0.950 . S
C447 C446 1.397 . S
C447 C448 1.334 . S
C448 H419 0.950 . S
C448 C447 1.334 . S
C448 C449 1.287 . S
C449 C448 1.287 . S
C449 C450 1.524 . S
C449 H452 0.999 . S
C450 H420 0.950 . S
C450 C449 1.524 . S
C450 C451 1.415 . S
C451 H421 0.950 . S
C451 C446 1.363 . S
C451 C450 1.415 . S
H452 C449 0.999 . S
H453 C434 0.913 . S
C88 C31 1.201 . S
C73 C5 1.379 . S
C138 C51 1.432 . S
C123 C23 1.461 . S
C188 C30 1.387 1_655 S
C173 C3 1.407 . S
C238 C52 1.487 . S
C223 C14 1.483 . S
C288 C44 1.463 . S
C273 C1 1.488 . S
C338 C37 1.357 . S
C323 C16 1.381 . S
C388 C45 1.259 . S
C373 C10 1.454 . S
C423 C18 1.402 . S
C438 C38 1.410 . S
