# Generated by pormake.
# Topology ocu, (6,8)-cn, num edge types: 1
# Building blocks:
#     Node 0, Type 0, BuildingBlock: KUMBUR_clean_sbu_1, # of connection points: 6
#     Node 1, Type 0, BuildingBlock: KUMBUR_clean_sbu_1, # of connection points: 6
#     Node 2, Type 0, BuildingBlock: KUMBUR_clean_sbu_1, # of connection points: 6
#     Node 3, Type 0, BuildingBlock: KUMBUR_clean_sbu_1, # of connection points: 6
#     Node 4, Type 0, BuildingBlock: KUMBUR_clean_sbu_1, # of connection points: 6
#     Node 5, Type 0, BuildingBlock: KUMBUR_clean_sbu_1, # of connection points: 6
#     Node 6, Type 0, BuildingBlock: KUMBUR_clean_sbu_1, # of connection points: 6
#     Node 7, Type 0, BuildingBlock: KUMBUR_clean_sbu_1, # of connection points: 6
#     Node 8, Type 1, BuildingBlock: VETTIZ_charged_sbu_0, # of connection points: 8
#     Node 9, Type 1, BuildingBlock: VETTIZ_charged_sbu_0, # of connection points: 8
#     Node 10, Type 1, BuildingBlock: VETTIZ_charged_sbu_0, # of connection points: 8
#     Node 11, Type 1, BuildingBlock: VETTIZ_charged_sbu_0, # of connection points: 8
#     Node 12, Type 1, BuildingBlock: VETTIZ_charged_sbu_0, # of connection points: 8
#     Node 13, Type 1, BuildingBlock: VETTIZ_charged_sbu_0, # of connection points: 8
#     Edge 14, Type (0, 1), BuildingBlock: XUDNAN_clean_linker_2, # of connection points: 2
#     Edge 15, Type (0, 1), BuildingBlock: XUDNAN_clean_linker_2, # of connection points: 2
#     Edge 16, Type (0, 1), BuildingBlock: XUDNAN_clean_linker_2, # of connection points: 2
#     Edge 17, Type (0, 1), BuildingBlock: XUDNAN_clean_linker_2, # of connection points: 2
#     Edge 18, Type (0, 1), BuildingBlock: XUDNAN_clean_linker_2, # of connection points: 2
#     Edge 19, Type (0, 1), BuildingBlock: XUDNAN_clean_linker_2, # of connection points: 2
#     Edge 20, Type (0, 1), BuildingBlock: XUDNAN_clean_linker_2, # of connection points: 2
#     Edge 21, Type (0, 1), BuildingBlock: XUDNAN_clean_linker_2, # of connection points: 2
#     Edge 22, Type (0, 1), BuildingBlock: XUDNAN_clean_linker_2, # of connection points: 2
#     Edge 23, Type (0, 1), BuildingBlock: XUDNAN_clean_linker_2, # of connection points: 2
#     Edge 24, Type (0, 1), BuildingBlock: XUDNAN_clean_linker_2, # of connection points: 2
#     Edge 25, Type (0, 1), BuildingBlock: XUDNAN_clean_linker_2, # of connection points: 2
#     Edge 26, Type (0, 1), BuildingBlock: XUDNAN_clean_linker_2, # of connection points: 2
#     Edge 27, Type (0, 1), BuildingBlock: XUDNAN_clean_linker_2, # of connection points: 2
#     Edge 28, Type (0, 1), BuildingBlock: XUDNAN_clean_linker_2, # of connection points: 2
#     Edge 29, Type (0, 1), BuildingBlock: XUDNAN_clean_linker_2, # of connection points: 2
#     Edge 30, Type (0, 1), BuildingBlock: XUDNAN_clean_linker_2, # of connection points: 2
#     Edge 31, Type (0, 1), BuildingBlock: XUDNAN_clean_linker_2, # of connection points: 2
#     Edge 32, Type (0, 1), BuildingBlock: XUDNAN_clean_linker_2, # of connection points: 2
#     Edge 33, Type (0, 1), BuildingBlock: XUDNAN_clean_linker_2, # of connection points: 2
#     Edge 34, Type (0, 1), BuildingBlock: XUDNAN_clean_linker_2, # of connection points: 2
#     Edge 35, Type (0, 1), BuildingBlock: XUDNAN_clean_linker_2, # of connection points: 2
#     Edge 36, Type (0, 1), BuildingBlock: XUDNAN_clean_linker_2, # of connection points: 2
#     Edge 37, Type (0, 1), BuildingBlock: XUDNAN_clean_linker_2, # of connection points: 2
#     Edge 38, Type (0, 1), BuildingBlock: XUDNAN_clean_linker_2, # of connection points: 2
#     Edge 39, Type (0, 1), BuildingBlock: XUDNAN_clean_linker_2, # of connection points: 2
#     Edge 40, Type (0, 1), BuildingBlock: XUDNAN_clean_linker_2, # of connection points: 2
#     Edge 41, Type (0, 1), BuildingBlock: XUDNAN_clean_linker_2, # of connection points: 2
#     Edge 42, Type (0, 1), BuildingBlock: XUDNAN_clean_linker_2, # of connection points: 2
#     Edge 43, Type (0, 1), BuildingBlock: XUDNAN_clean_linker_2, # of connection points: 2
#     Edge 44, Type (0, 1), BuildingBlock: XUDNAN_clean_linker_2, # of connection points: 2
#     Edge 45, Type (0, 1), BuildingBlock: XUDNAN_clean_linker_2, # of connection points: 2
#     Edge 46, Type (0, 1), BuildingBlock: XUDNAN_clean_linker_2, # of connection points: 2
#     Edge 47, Type (0, 1), BuildingBlock: XUDNAN_clean_linker_2, # of connection points: 2
#     Edge 48, Type (0, 1), BuildingBlock: XUDNAN_clean_linker_2, # of connection points: 2
#     Edge 49, Type (0, 1), BuildingBlock: XUDNAN_clean_linker_2, # of connection points: 2
#     Edge 50, Type (0, 1), BuildingBlock: XUDNAN_clean_linker_2, # of connection points: 2
#     Edge 51, Type (0, 1), BuildingBlock: XUDNAN_clean_linker_2, # of connection points: 2
#     Edge 52, Type (0, 1), BuildingBlock: XUDNAN_clean_linker_2, # of connection points: 2
#     Edge 53, Type (0, 1), BuildingBlock: XUDNAN_clean_linker_2, # of connection points: 2
#     Edge 54, Type (0, 1), BuildingBlock: XUDNAN_clean_linker_2, # of connection points: 2
#     Edge 55, Type (0, 1), BuildingBlock: XUDNAN_clean_linker_2, # of connection points: 2
#     Edge 56, Type (0, 1), BuildingBlock: XUDNAN_clean_linker_2, # of connection points: 2
#     Edge 57, Type (0, 1), BuildingBlock: XUDNAN_clean_linker_2, # of connection points: 2
#     Edge 58, Type (0, 1), BuildingBlock: XUDNAN_clean_linker_2, # of connection points: 2
#     Edge 59, Type (0, 1), BuildingBlock: XUDNAN_clean_linker_2, # of connection points: 2
#     Edge 60, Type (0, 1), BuildingBlock: XUDNAN_clean_linker_2, # of connection points: 2
#     Edge 61, Type (0, 1), BuildingBlock: XUDNAN_clean_linker_2, # of connection points: 2
# Relax obj value: 0.071
# Max RMSD: 0.135
# Mean RMSD: 0.101
data_MOF--net-ocu--node1-KUMBUR_clean_sbu_1--node2-VETTIZ_charged_sbu_0--edge1-XUDNAN_clean_linker_2
_symmetry_space_group_name_H-M    P1
_symmetry_Int_Tables_number       1
_symmetry_cell_setting            triclinic
loop_
_symmetry_equiv_pos_as_xyz
'x, y, z'
_cell_length_a     39.082984
_cell_length_b     39.726974
_cell_length_c     41.067659
_cell_angle_alpha  100.48994
_cell_angle_beta   79.836842
_cell_angle_gamma 104.0502
loop_
_atom_site_label
_atom_site_type_symbol
_atom_site_fract_x
_atom_site_fract_y
_atom_site_fract_z
_atom_type_partial_charge
Tb0 Tb 0.24116 0.25933 0.24153 0.0
C1 C 0.32782 0.3531 0.35618 0.0
N2 N 0.33978 0.33417 0.32726 0.0
C3 C 0.39135 0.38056 0.31902 0.0
C4 C 0.3469 0.3869 0.36746 0.0
C5 C 0.37158 0.34696 0.30902 0.0
C6 C 0.37882 0.40075 0.34821 0.0
C7 C 0.28421 0.3558 0.40599 0.0
C8 C 0.29697 0.33785 0.37514 0.0
C9 C 0.30255 0.38991 0.417 0.0
C10 C 0.33381 0.40545 0.39776 0.0
Tb11 Tb 0.30372 0.28104 0.31215 0.0
N12 N 0.27968 0.30508 0.36336 0.0
C13 C 0.25374 0.33868 0.42498 0.0
C14 C 0.25123 0.28742 0.38267 0.0
C15 C 0.23746 0.30418 0.41346 0.0
H16 H 0.38183 0.33124 0.28679 0.0
H17 H 0.2143 0.29049 0.42825 0.0
H18 H 0.20272 0.17538 0.24303 0.0
H19 H 0.32044 0.32722 0.14149 0.0
H20 H 0.23848 0.26082 0.374 0.0
H21 H 0.24301 0.35159 0.44882 0.0
H22 H 0.28185 0.3224 0.1951 0.0
H23 H 0.41631 0.39078 0.30429 0.0
H24 H 0.29303 0.40431 0.44053 0.0
H25 H 0.34796 0.43159 0.40677 0.0
H26 H 0.2044 0.11908 0.2062 0.0
H27 H 0.39427 0.42668 0.35597 0.0
H28 H 0.33385 0.27383 0.10499 0.0
N29 N 0.24056 0.20576 0.20978 0.0
C30 C 0.26138 0.20576 0.17955 0.0
C31 C 0.22066 0.14328 0.19849 0.0
C32 C 0.26312 0.17427 0.15773 0.0
C33 C 0.21987 0.17519 0.21935 0.0
C34 C 0.24242 0.14279 0.16759 0.0
N35 N 0.27757 0.26746 0.19208 0.0
C36 C 0.28957 0.29917 0.18088 0.0
C37 C 0.30182 0.23888 0.13898 0.0
C38 C 0.28093 0.23762 0.17065 0.0
C39 C 0.3178 0.27167 0.1292 0.0
C40 C 0.31068 0.30189 0.14985 0.0
H41 H 0.24287 0.11803 0.15146 0.0
H42 H 0.28688 0.15136 0.10967 0.0
H43 H 0.32067 0.20795 0.09317 0.0
O44 O 0.21689 0.29195 0.22236 0.0
O45 O 0.27962 0.2257 0.24183 0.0
O46 O 0.32753 0.26448 0.26106 0.0
O47 O 0.1912 0.23815 0.22506 0.0
O48 O 0.27304 0.31311 0.25349 0.0
O49 O 0.32445 0.30424 0.26617 0.0
O50 O 0.30938 0.23318 0.32318 0.0
O51 O 0.26076 0.31084 0.32109 0.0
O52 O 0.21531 0.27878 0.29119 0.0
O53 O 0.34623 0.28149 0.33737 0.0
O54 O 0.25938 0.23465 0.3164 0.0
O55 O 0.2156 0.23097 0.28309 0.0
C56 C 0.31439 0.23613 0.24128 0.0
C57 C 0.17932 0.26442 0.1818 0.0
C58 C 0.15265 0.28941 0.14464 0.0
C59 C 0.15523 0.25972 0.12038 0.0
C60 C 0.18208 0.23543 0.15703 0.0
C61 C 0.1701 0.23321 0.12649 0.0
C62 C 0.16507 0.29142 0.17532 0.0
C63 C 0.30761 0.32291 0.25407 0.0
C64 C 0.18998 0.26691 0.21498 0.0
C65 C 0.28514 0.17528 0.12681 0.0
C66 C 0.30452 0.20751 0.11747 0.0
C67 C 0.22709 0.30237 0.31605 0.0
C68 C 0.368 0.22956 0.32641 0.0
C69 C 0.40345 0.19246 0.3404 0.0
C70 C 0.42632 0.19731 0.31016 0.0
C71 C 0.39092 0.23381 0.29641 0.0
C72 C 0.37388 0.20844 0.34787 0.0
C73 C 0.4198 0.2175 0.28827 0.0
C74 C 0.22773 0.22079 0.30686 0.0
C75 C 0.33833 0.24763 0.3365 0.0
H76 H 0.14528 0.25653 0.09678 0.0
H77 H 0.19311 0.21438 0.16136 0.0
H78 H 0.17194 0.21062 0.10759 0.0
H79 H 0.16387 0.31407 0.19435 0.0
H80 H 0.44976 0.18626 0.30358 0.0
H81 H 0.38672 0.25001 0.27957 0.0
H82 H 0.35528 0.20471 0.37049 0.0
H83 H 0.43761 0.22104 0.26518 0.0
Tb84 Tb 0.75219 0.3166 0.28187 0.0
C85 C 0.88713 0.27351 0.21823 0.0
N86 N 0.85503 0.25089 0.21777 0.0
C87 C 0.86906 0.23339 0.15883 0.0
C88 C 0.91102 0.27821 0.18861 0.0
C89 C 0.84619 0.22982 0.18893 0.0
C90 C 0.90144 0.25802 0.1586 0.0
C91 C 0.93032 0.31305 0.25073 0.0
C92 C 0.89633 0.29094 0.24878 0.0
C93 C 0.95347 0.31971 0.22115 0.0
C94 C 0.94382 0.3023 0.19011 0.0
Tb95 Tb 0.81808 0.24926 0.26733 0.0
N96 N 0.87328 0.28345 0.27672 0.0
C97 C 0.94075 0.32607 0.28231 0.0
C98 C 0.88545 0.29209 0.30712 0.0
C99 C 0.91866 0.31456 0.31056 0.0
H100 H 0.82114 0.21085 0.18908 0.0
H101 H 0.9274 0.32244 0.33493 0.0
H102 H 0.80539 0.3957 0.28409 0.0
H103 H 0.6181 0.27799 0.3437 0.0
H104 H 0.86971 0.28174 0.32894 0.0
H105 H 0.96663 0.34315 0.28498 0.0
H106 H 0.669 0.27402 0.29877 0.0
H107 H 0.86171 0.21722 0.13586 0.0
H108 H 0.97945 0.33712 0.2221 0.0
H109 H 0.96234 0.3068 0.16756 0.0
H110 H 0.81376 0.45112 0.32343 0.0
H111 H 0.91913 0.26069 0.13529 0.0
H112 H 0.62333 0.32745 0.39031 0.0
N113 N 0.75962 0.37055 0.31425 0.0
C114 C 0.73513 0.37442 0.34159 0.0
C115 C 0.79159 0.42966 0.32897 0.0
C116 C 0.73822 0.40575 0.36439 0.0
C117 C 0.78682 0.39818 0.30679 0.0
C118 C 0.76746 0.4333 0.35819 0.0
N119 N 0.70285 0.31971 0.32064 0.0
C120 C 0.67141 0.29554 0.3191 0.0
C121 C 0.67713 0.35165 0.3708 0.0
C122 C 0.70536 0.34791 0.34485 0.0
C123 C 0.64571 0.32563 0.37081 0.0
C124 C 0.64261 0.29774 0.34448 0.0
H125 H 0.77096 0.45782 0.37514 0.0
H126 H 0.71329 0.43266 0.40977 0.0
H127 H 0.65955 0.38519 0.41532 0.0
O128 O 0.74969 0.31016 0.23012 0.0
O129 O 0.73439 0.27672 0.31542 0.0
O130 O 0.77567 0.24115 0.31044 0.0
O131 O 0.72141 0.34485 0.26502 0.0
O132 O 0.73073 0.26028 0.26601 0.0
O133 O 0.77523 0.23377 0.23513 0.0
O134 O 0.85312 0.21926 0.27473 0.0
O135 O 0.81561 0.28165 0.22959 0.0
O136 O 0.80796 0.33262 0.26178 0.0
O137 O 0.80142 0.19417 0.2618 0.0
O138 O 0.8135 0.28401 0.31583 0.0
O139 O 0.80279 0.33414 0.30283 0.0
C140 C 0.74603 0.25171 0.32454 0.0
C141 C 0.74043 0.35986 0.2109 0.0
C142 C 0.72261 0.39593 0.17706 0.0
C143 C 0.75892 0.41009 0.1672 0.0
C144 C 0.77625 0.37517 0.20145 0.0
C145 C 0.78541 0.39994 0.17952 0.0
C146 C 0.71375 0.37058 0.199 0.0
C147 C 0.74195 0.2378 0.24093 0.0
C148 C 0.7301 0.33325 0.2337 0.0
C149 C 0.71131 0.40895 0.39171 0.0
C150 C 0.68072 0.38191 0.39489 0.0
C151 C 0.82383 0.31605 0.23529 0.0
C152 C 0.82467 0.1667 0.29769 0.0
C153 C 0.8452 0.14658 0.34298 0.0
C154 C 0.81487 0.11882 0.34309 0.0
C155 C 0.79473 0.13877 0.29907 0.0
C156 C 0.85004 0.17044 0.31978 0.0
C157 C 0.78997 0.11515 0.32153 0.0
C158 C 0.81412 0.31789 0.32257 0.0
C159 C 0.8298 0.18991 0.27162 0.0
H160 H 0.76704 0.42889 0.14975 0.0
H161 H 0.79707 0.36811 0.21109 0.0
H162 H 0.81319 0.41134 0.17205 0.0
H163 H 0.68609 0.3595 0.2074 0.0
H164 H 0.81051 0.09926 0.35948 0.0
H165 H 0.77508 0.13482 0.28236 0.0
H166 H 0.87334 0.19175 0.31893 0.0
H167 H 0.7669 0.09358 0.32206 0.0
Tb168 Tb 0.76439 0.72122 0.30246 0.0
C169 C 0.84667 0.81428 0.19451 0.0
N170 N 0.83886 0.82407 0.22803 0.0
C171 C 0.89815 0.8595 0.22929 0.0
C172 C 0.88101 0.82571 0.17736 0.0
C173 C 0.86365 0.84784 0.24516 0.0
C174 C 0.90704 0.848 0.19536 0.0
C175 C 0.82625 0.78453 0.14201 0.0
C176 C 0.81964 0.79414 0.17691 0.0
C177 C 0.86071 0.79483 0.12506 0.0
C178 C 0.88802 0.81537 0.14269 0.0
Tb179 Tb 0.78115 0.8024 0.25034 0.0
N180 N 0.7867 0.78406 0.19413 0.0
C181 C 0.79786 0.76535 0.12514 0.0
C182 C 0.75851 0.76696 0.17763 0.0
C183 C 0.76376 0.75699 0.14297 0.0
H184 H 0.85691 0.85838 0.27106 0.0
H185 H 0.7415 0.74317 0.12998 0.0
H186 H 0.77587 0.66052 0.23661 0.0
H187 H 0.66589 0.71376 0.41281 0.0
H188 H 0.73203 0.76111 0.19118 0.0
H189 H 0.80181 0.75758 0.09829 0.0
H190 H 0.72392 0.73629 0.38017 0.0
H191 H 0.91774 0.87779 0.24316 0.0
H192 H 0.86638 0.78755 0.09825 0.0
H193 H 0.91431 0.82371 0.12917 0.0
H194 H 0.73967 0.60647 0.20887 0.0
H195 H 0.93372 0.85737 0.18309 0.0
H196 H 0.62192 0.66521 0.3865 0.0
N197 N 0.73395 0.67002 0.27536 0.0
C198 C 0.70063 0.6572 0.29018 0.0
C199 C 0.72821 0.6207 0.23155 0.0
C200 C 0.67896 0.62646 0.27539 0.0
C201 C 0.74865 0.65128 0.24727 0.0
C202 C 0.69294 0.6086 0.2453 0.0
N203 N 0.71241 0.70142 0.33564 0.0
C204 C 0.7049 0.71496 0.36853 0.0
C205 C 0.65607 0.6598 0.33907 0.0
C206 C 0.68941 0.6736 0.32145 0.0
C207 C 0.64726 0.67504 0.37207 0.0
C208 C 0.67207 0.70233 0.38706 0.0
H209 H 0.67721 0.58481 0.23316 0.0
H210 H 0.62751 0.59046 0.28074 0.0
H211 H 0.60742 0.61969 0.33663 0.0
O212 O 0.77711 0.70849 0.34591 0.0
O213 O 0.73051 0.76025 0.32361 0.0
O214 O 0.75542 0.81322 0.3026 0.0
O215 O 0.79703 0.68521 0.29726 0.0
O216 O 0.79026 0.77163 0.32742 0.0
O217 O 0.81882 0.80524 0.28562 0.0
O218 O 0.74522 0.82483 0.23317 0.0
O219 O 0.7946 0.75216 0.22426 0.0
O220 O 0.81326 0.73413 0.26627 0.0
O221 O 0.79138 0.8573 0.25317 0.0
O222 O 0.72735 0.76971 0.25717 0.0
O223 O 0.7418 0.71759 0.25699 0.0
C224 C 0.73179 0.79402 0.32311 0.0
C225 C 0.83447 0.6972 0.33829 0.0
C226 C 0.87769 0.68308 0.36653 0.0
C227 C 0.90413 0.70975 0.35308 0.0
C228 C 0.8611 0.72385 0.32511 0.0
C229 C 0.89574 0.73015 0.33261 0.0
C230 C 0.84276 0.67711 0.35927 0.0
C231 C 0.81591 0.79611 0.31548 0.0
C232 C 0.79849 0.68915 0.32906 0.0
C233 C 0.64478 0.61379 0.29185 0.0
C234 C 0.63334 0.63044 0.32368 0.0
C235 C 0.81368 0.73369 0.2341 0.0
C236 C 0.77099 0.8772 0.21026 0.0
C237 C 0.74745 0.90645 0.17407 0.0
C238 C 0.78268 0.91908 0.15952 0.0
C239 C 0.80568 0.88979 0.19489 0.0
C240 C 0.74198 0.88539 0.1996 0.0
C241 C 0.81137 0.91055 0.16969 0.0
C242 C 0.71877 0.73546 0.25423 0.0
C243 C 0.76453 0.8564 0.23804 0.0
H244 H 0.93122 0.71484 0.3585 0.0
H245 H 0.85526 0.73944 0.30871 0.0
H246 H 0.9162 0.75064 0.32229 0.0
H247 H 0.82233 0.65622 0.36913 0.0
H248 H 0.78833 0.93612 0.14057 0.0
H249 H 0.82849 0.88399 0.20253 0.0
H250 H 0.71522 0.87515 0.21115 0.0
H251 H 0.83824 0.92046 0.15821 0.0
Tb252 Tb 0.25882 0.7775 0.27055 0.0
C253 C 0.35238 0.70801 0.34151 0.0
N254 N 0.36203 0.73657 0.32542 0.0
C255 C 0.40245 0.76516 0.36481 0.0
C256 C 0.36627 0.70748 0.37081 0.0
C257 C 0.38738 0.76479 0.33627 0.0
C258 C 0.39123 0.7368 0.38266 0.0
C259 C 0.32102 0.64743 0.342 0.0
C260 C 0.33032 0.67838 0.32727 0.0
C261 C 0.33355 0.64717 0.37196 0.0
C262 C 0.35612 0.67716 0.38635 0.0
Tb263 Tb 0.33795 0.7315 0.27735 0.0
N264 N 0.31899 0.67958 0.29821 0.0
C265 C 0.30001 0.61752 0.3258 0.0
C266 C 0.30006 0.64999 0.28138 0.0
C267 C 0.28975 0.61875 0.2952 0.0
H268 H 0.39727 0.78649 0.3222 0.0
H269 H 0.27416 0.59556 0.28212 0.0
H270 H 0.24287 0.74164 0.1938 0.0
H271 H 0.27933 0.9141 0.32643 0.0
H272 H 0.29268 0.65038 0.2574 0.0
H273 H 0.29215 0.59325 0.33636 0.0
H274 H 0.25928 0.85029 0.3265 0.0
H275 H 0.42334 0.78695 0.37256 0.0
H276 H 0.32651 0.62372 0.38382 0.0
H277 H 0.36634 0.67633 0.409 0.0
H278 H 0.25377 0.76 0.13773 0.0
H279 H 0.40303 0.73723 0.40475 0.0
H280 H 0.30075 0.93773 0.27296 0.0
N281 N 0.26503 0.79232 0.21806 0.0
C282 C 0.27734 0.82675 0.2152 0.0
C283 C 0.26081 0.77902 0.15928 0.0
C284 C 0.28396 0.83855 0.18389 0.0
C285 C 0.25458 0.7687 0.19101 0.0
C286 C 0.27626 0.81399 0.15559 0.0
N287 N 0.27199 0.8375 0.27368 0.0
C288 C 0.26946 0.86012 0.30299 0.0
C289 C 0.2922 0.88649 0.24279 0.0
C290 C 0.2814 0.85019 0.24412 0.0
C291 C 0.29256 0.90963 0.27286 0.0
C292 C 0.28044 0.89639 0.30308 0.0
H293 H 0.28103 0.82196 0.13103 0.0
H294 H 0.30257 0.88413 0.15826 0.0
H295 H 0.3096 0.92624 0.20997 0.0
O296 O 0.21147 0.7955 0.28958 0.0
O297 O 0.30225 0.77081 0.23003 0.0
O298 O 0.35109 0.78048 0.25581 0.0
O299 O 0.21031 0.74597 0.25839 0.0
O300 O 0.29015 0.8026 0.31241 0.0
O301 O 0.34557 0.78752 0.29818 0.0
O302 O 0.35855 0.70425 0.23253 0.0
O303 O 0.28584 0.71584 0.30853 0.0
O304 O 0.26071 0.7645 0.31944 0.0
O305 O 0.39199 0.72841 0.27038 0.0
O306 O 0.30563 0.70845 0.23642 0.0
O307 O 0.25202 0.72043 0.26081 0.0
C308 C 0.3357 0.78525 0.23174 0.0
C309 C 0.16343 0.74855 0.30228 0.0
C310 C 0.11053 0.75126 0.34282 0.0
C311 C 0.11191 0.71956 0.3524 0.0
C312 C 0.1644 0.71638 0.31155 0.0
C313 C 0.13852 0.70188 0.33633 0.0
C314 C 0.13602 0.76532 0.3175 0.0
C315 C 0.32413 0.80714 0.31604 0.0
C316 C 0.1915 0.76599 0.27814 0.0
C317 C 0.29678 0.8745 0.18212 0.0
C318 C 0.30082 0.89847 0.21156 0.0
C319 C 0.26382 0.73469 0.32693 0.0
C320 C 0.4146 0.73708 0.2143 0.0
C321 C 0.4253 0.74814 0.15634 0.0
C322 C 0.44553 0.78177 0.16615 0.0
C323 C 0.43453 0.77095 0.22381 0.0
C324 C 0.41162 0.72557 0.18052 0.0
C325 C 0.45042 0.79284 0.19969 0.0
C326 C 0.27092 0.7031 0.23717 0.0
C327 C 0.39116 0.71589 0.23897 0.0
H328 H 0.09302 0.70902 0.37268 0.0
H329 H 0.18545 0.70281 0.30027 0.0
H330 H 0.13978 0.67749 0.34381 0.0
H331 H 0.13574 0.79055 0.31101 0.0
H332 H 0.45693 0.79969 0.14817 0.0
H333 H 0.43692 0.78095 0.24985 0.0
H334 H 0.3972 0.69898 0.17346 0.0
H335 H 0.46562 0.8189 0.20723 0.0
Tb336 Tb 0.24729 0.79146 0.78797 0.0
C337 C 0.39592 0.79014 0.79299 0.0
N338 N 0.37689 0.7808 0.76677 0.0
C339 C 0.4235 0.81761 0.73439 0.0
C340 C 0.4285 0.81512 0.79153 0.0
C341 C 0.39182 0.79209 0.73685 0.0
C342 C 0.44158 0.82975 0.76209 0.0
C343 C 0.40295 0.78114 0.84813 0.0
C344 C 0.38343 0.77348 0.82097 0.0
C345 C 0.43477 0.80684 0.84725 0.0
C346 C 0.44743 0.82392 0.81908 0.0
Tb347 Tb 0.32524 0.73874 0.77451 0.0
N348 N 0.35186 0.74979 0.82155 0.0
C349 C 0.38998 0.76248 0.8752 0.0
C350 C 0.33943 0.73087 0.8475 0.0
C351 C 0.35816 0.73715 0.87482 0.0
H352 H 0.38043 0.78059 0.71429 0.0
H353 H 0.34815 0.72235 0.89547 0.0
H354 H 0.28466 0.87674 0.80134 0.0
H355 H 0.12303 0.71946 0.84584 0.0
H356 H 0.31501 0.71103 0.84704 0.0
H357 H 0.40448 0.76716 0.89634 0.0
H358 H 0.17388 0.73062 0.80098 0.0
H359 H 0.4345 0.82709 0.7108 0.0
H360 H 0.44997 0.81345 0.86807 0.0
H361 H 0.4723 0.84332 0.81853 0.0
H362 H 0.28235 0.92588 0.84757 0.0
H363 H 0.46641 0.84912 0.75997 0.0
H364 H 0.11879 0.76292 0.89706 0.0
N365 N 0.24543 0.83997 0.82747 0.0
C366 C 0.22064 0.8353 0.85481 0.0
C367 C 0.26503 0.90044 0.85006 0.0
C368 C 0.21765 0.86281 0.88144 0.0
C369 C 0.2664 0.87247 0.82401 0.0
C370 C 0.24091 0.89546 0.87915 0.0
N371 N 0.19898 0.77888 0.82748 0.0
C372 C 0.17241 0.74951 0.82342 0.0
C373 C 0.16768 0.79864 0.88076 0.0
C374 C 0.19624 0.80369 0.85465 0.0
C375 C 0.14137 0.76769 0.87768 0.0
C376 C 0.14359 0.74316 0.84873 0.0
H377 H 0.23958 0.91728 0.89911 0.0
H378 H 0.18807 0.87793 0.92957 0.0
H379 H 0.1441 0.82171 0.92887 0.0
O380 O 0.23254 0.78481 0.73971 0.0
O381 O 0.24322 0.75447 0.82426 0.0
O382 O 0.27514 0.71132 0.79961 0.0
O383 O 0.2118 0.82025 0.77975 0.0
O384 O 0.23406 0.73632 0.76509 0.0
O385 O 0.28672 0.72118 0.73786 0.0
O386 O 0.3294 0.6878 0.77957 0.0
O387 O 0.31835 0.76175 0.7319 0.0
O388 O 0.2987 0.8108 0.75862 0.0
O389 O 0.36362 0.71566 0.74203 0.0
O390 O 0.3141 0.77655 0.81989 0.0
O391 O 0.30059 0.81978 0.79906 0.0
C392 C 0.25033 0.72297 0.82194 0.0
C393 C 0.22082 0.83578 0.72592 0.0
C394 C 0.20178 0.86395 0.68574 0.0
C395 C 0.2332 0.8903 0.68764 0.0
C396 C 0.252 0.8621 0.72676 0.0
C397 C 0.25801 0.88919 0.7078 0.0
C398 C 0.19581 0.8366 0.70526 0.0
C399 C 0.25187 0.71854 0.7405 0.0
C400 C 0.21364 0.80866 0.74794 0.0
C401 C 0.19062 0.85723 0.90869 0.0
C402 C 0.16558 0.82522 0.90829 0.0
C403 C 0.31266 0.79297 0.7315 0.0
C404 C 0.39059 0.68363 0.76919 0.0
C405 C 0.4193 0.66085 0.80657 0.0
C406 C 0.45265 0.67429 0.78889 0.0
C407 C 0.42443 0.69657 0.75209 0.0
C408 C 0.38824 0.66583 0.79656 0.0
C409 C 0.4551 0.69209 0.76204 0.0
C410 C 0.317 0.81009 0.81975 0.0
C411 C 0.35838 0.68934 0.75824 0.0
H412 H 0.23841 0.91245 0.67419 0.0
H413 H 0.27136 0.86207 0.74261 0.0
H414 H 0.28169 0.90988 0.70923 0.0
H415 H 0.17186 0.81605 0.70455 0.0
H416 H 0.47701 0.67031 0.79515 0.0
H417 H 0.42731 0.71027 0.73091 0.0
H418 H 0.36234 0.65608 0.81008 0.0
H419 H 0.48094 0.70212 0.74858 0.0
Tb420 Tb 0.26599 0.2351 0.7986 0.0
C421 C 0.37434 0.31931 0.69449 0.0
N422 N 0.359 0.33274 0.72485 0.0
C423 C 0.41461 0.37222 0.73447 0.0
C424 C 0.41076 0.33132 0.68321 0.0
C425 C 0.37833 0.35954 0.74449 0.0
C426 C 0.43098 0.35787 0.70381 0.0
C427 C 0.36806 0.27877 0.64292 0.0
C428 C 0.35331 0.29344 0.67457 0.0
C429 C 0.40439 0.29047 0.63164 0.0
C430 C 0.42571 0.31662 0.65176 0.0
Tb431 Tb 0.29993 0.30884 0.73886 0.0
N432 N 0.31849 0.28202 0.68679 0.0
C433 C 0.34578 0.25286 0.62359 0.0
C434 C 0.29628 0.25825 0.66728 0.0
C435 C 0.30963 0.24288 0.63567 0.0
H436 H 0.36565 0.37186 0.76747 0.0
H437 H 0.292 0.22346 0.6206 0.0
H438 H 0.20376 0.16988 0.76726 0.0
H439 H 0.26859 0.31684 0.91887 0.0
H440 H 0.26833 0.25119 0.67584 0.0
H441 H 0.35609 0.24082 0.59916 0.0
H442 H 0.29446 0.29234 0.86288 0.0
H443 H 0.42982 0.39331 0.75025 0.0
H444 H 0.41624 0.2795 0.60738 0.0
H445 H 0.45368 0.32541 0.6427 0.0
H446 H 0.14021 0.14429 0.7836 0.0
H447 H 0.45907 0.36783 0.69607 0.0
H448 H 0.20466 0.29594 0.93904 0.0
N449 N 0.20786 0.20767 0.81121 0.0
C450 C 0.19125 0.21977 0.84151 0.0
C451 C 0.15422 0.16566 0.80003 0.0
C452 C 0.15517 0.2055 0.85212 0.0
C453 C 0.19014 0.18052 0.79067 0.0
C454 C 0.13659 0.17832 0.83079 0.0
N455 N 0.2454 0.25956 0.85083 0.0
C456 C 0.26654 0.28354 0.8712 0.0
C457 C 0.19487 0.2591 0.89409 0.0
C458 C 0.21074 0.24624 0.86223 0.0
C459 C 0.21587 0.28526 0.91439 0.0
C460 C 0.25196 0.29721 0.90305 0.0
H461 H 0.1088 0.16664 0.838 0.0
H462 H 0.11122 0.20805 0.89225 0.0
H463 H 0.14601 0.25493 0.929 0.0
O464 O 0.30576 0.22271 0.81999 0.0
O465 O 0.23862 0.28059 0.81043 0.0
O466 O 0.27705 0.32865 0.78966 0.0
O467 O 0.25805 0.18427 0.81123 0.0
O468 O 0.31989 0.26805 0.79684 0.0
O469 O 0.31937 0.32301 0.78721 0.0
O470 O 0.26739 0.32238 0.70995 0.0
O471 O 0.32874 0.26519 0.73123 0.0
O472 O 0.28732 0.2165 0.7467 0.0
O473 O 0.31047 0.36107 0.72964 0.0
O474 O 0.24479 0.27738 0.74155 0.0
O475 O 0.2461 0.2223 0.7503 0.0
C476 C 0.24878 0.31486 0.80968 0.0
C477 C 0.28643 0.18047 0.85691 0.0
C478 C 0.31348 0.1567 0.89508 0.0
C479 C 0.28437 0.16118 0.91986 0.0
C480 C 0.25763 0.18387 0.88205 0.0
C481 C 0.25677 0.17448 0.91331 0.0
C482 C 0.31439 0.16687 0.86353 0.0
C483 C 0.33063 0.30221 0.80241 0.0
C484 C 0.28772 0.19124 0.82389 0.0
C485 C 0.13897 0.21859 0.88369 0.0
C486 C 0.15879 0.24527 0.90464 0.0
C487 C 0.31731 0.23082 0.72907 0.0
C488 C 0.25843 0.37961 0.72572 0.0
C489 C 0.21528 0.40884 0.71248 0.0
C490 C 0.20601 0.41914 0.74702 0.0
C491 C 0.24936 0.39094 0.75984 0.0
C492 C 0.24201 0.38926 0.70221 0.0
C493 C 0.22327 0.41058 0.77039 0.0
C494 C 0.23356 0.24314 0.7362 0.0
C495 C 0.28281 0.35551 0.71428 0.0
H496 H 0.283 0.15476 0.94465 0.0
H497 H 0.23572 0.19372 0.87759 0.0
H498 H 0.23455 0.17758 0.93263 0.0
H499 H 0.33645 0.16379 0.84398 0.0
H500 H 0.18497 0.43324 0.75624 0.0
H501 H 0.26214 0.38432 0.77832 0.0
H502 H 0.2501 0.38112 0.67592 0.0
H503 H 0.21596 0.4187 0.79683 0.0
Tb504 Tb 0.72271 0.29998 0.774 0.0
C505 C 0.78494 0.21731 0.84876 0.0
N506 N 0.79781 0.24939 0.8387 0.0
C507 C 0.81205 0.27391 0.89388 0.0
C508 C 0.78394 0.21267 0.8822 0.0
C509 C 0.81329 0.27698 0.86029 0.0
C510 C 0.79673 0.24175 0.90504 0.0
C511 C 0.7628 0.15467 0.83403 0.0
C512 C 0.77436 0.1886 0.82504 0.0
C513 C 0.76141 0.15006 0.86737 0.0
C514 C 0.77154 0.17902 0.89146 0.0
Tb515 Tb 0.79704 0.25038 0.78316 0.0
N516 N 0.776 0.19397 0.79297 0.0
C517 C 0.75347 0.12633 0.80913 0.0
C518 C 0.76822 0.16631 0.76836 0.0
C519 C 0.75636 0.13218 0.77614 0.0
H520 H 0.82815 0.30093 0.85171 0.0
H521 H 0.74986 0.11034 0.75662 0.0
H522 H 0.70613 0.26897 0.69669 0.0
H523 H 0.74484 0.43443 0.83605 0.0
H524 H 0.77161 0.17022 0.74258 0.0
H525 H 0.74445 0.09983 0.81504 0.0
H526 H 0.7223 0.37045 0.83292 0.0
H527 H 0.82384 0.29612 0.91091 0.0
H528 H 0.75266 0.12415 0.87475 0.0
H529 H 0.77056 0.17497 0.91703 0.0
H530 H 0.7191 0.29062 0.64182 0.0
H531 H 0.79638 0.2393 0.93095 0.0
H532 H 0.76999 0.46059 0.78429 0.0
N533 N 0.73055 0.31775 0.72279 0.0
C534 C 0.74462 0.3523 0.72163 0.0
C535 C 0.72672 0.30816 0.66404 0.0
C536 C 0.75256 0.36587 0.69116 0.0
C537 C 0.71929 0.29601 0.69501 0.0
C538 C 0.74417 0.34307 0.66198 0.0
N539 N 0.73759 0.36006 0.78024 0.0
C540 C 0.73427 0.3814 0.81026 0.0
C541 C 0.76102 0.41068 0.75191 0.0
C542 C 0.74875 0.37422 0.7515 0.0
C543 C 0.76079 0.43241 0.78284 0.0
C544 C 0.7466 0.41775 0.8121 0.0
H545 H 0.74986 0.35244 0.638 0.0
H546 H 0.77409 0.41281 0.66791 0.0
H547 H 0.78151 0.45215 0.72121 0.0
O548 O 0.67676 0.32095 0.78365 0.0
O549 O 0.76608 0.29365 0.73308 0.0
O550 O 0.81265 0.29875 0.76108 0.0
O551 O 0.67287 0.26565 0.77058 0.0
O552 O 0.75177 0.32155 0.81799 0.0
O553 O 0.80691 0.30692 0.80257 0.0
O554 O 0.83384 0.23343 0.7433 0.0
O555 O 0.74109 0.2328 0.8041 0.0
O556 O 0.72315 0.28436 0.82217 0.0
O557 O 0.84522 0.24393 0.7941 0.0
O558 O 0.77023 0.22965 0.73804 0.0
O559 O 0.71514 0.24377 0.75562 0.0
C560 C 0.80013 0.30291 0.73502 0.0
C561 C 0.62938 0.28345 0.81152 0.0
C562 C 0.6158 0.29183 0.87226 0.0
C563 C 0.58044 0.27359 0.86932 0.0
C564 C 0.59428 0.2654 0.80882 0.0
C565 C 0.57002 0.25998 0.83777 0.0
C566 C 0.64027 0.29476 0.84302 0.0
C567 C 0.78625 0.32762 0.82006 0.0
C568 C 0.65542 0.29015 0.78189 0.0
C569 C 0.76721 0.40186 0.69111 0.0
C570 C 0.77147 0.42425 0.72148 0.0
C571 C 0.72237 0.25213 0.82591 0.0
C572 C 0.89133 0.26482 0.75312 0.0
C573 C 0.94598 0.27871 0.71484 0.0
C574 C 0.95475 0.31209 0.73341 0.0
C575 C 0.89973 0.29875 0.77121 0.0
C576 C 0.91436 0.2552 0.72496 0.0
C577 C 0.93137 0.32217 0.76141 0.0
C578 C 0.7361 0.22532 0.73536 0.0
C579 C 0.85835 0.23952 0.76272 0.0
H580 H 0.56034 0.27112 0.89105 0.0
H581 H 0.58568 0.25569 0.78451 0.0
H582 H 0.54276 0.24627 0.83574 0.0
H583 H 0.66785 0.3074 0.84452 0.0
H584 H 0.97941 0.33018 0.72623 0.0
H585 H 0.88202 0.30706 0.79296 0.0
H586 H 0.90796 0.22895 0.71119 0.0
H587 H 0.93785 0.34808 0.77563 0.0
Tb588 Tb 0.75027 0.76403 0.74169 0.0
C589 C 0.82649 0.85047 0.86594 0.0
N590 N 0.84213 0.83464 0.83693 0.0
C591 C 0.89351 0.88216 0.8379 0.0
C592 C 0.84353 0.88321 0.88185 0.0
C593 C 0.87561 0.84953 0.82321 0.0
C594 C 0.8773 0.89923 0.8672 0.0
C595 C 0.77669 0.84818 0.91068 0.0
C596 C 0.79357 0.8333 0.88015 0.0
C597 C 0.79328 0.88105 0.92643 0.0
C598 C 0.82658 0.89858 0.912 0.0
Tb599 Tb 0.80969 0.78218 0.81473 0.0
N600 N 0.77805 0.80187 0.86382 0.0
C601 C 0.74388 0.82936 0.92456 0.0
C602 C 0.74727 0.78241 0.87829 0.0
C603 C 0.72934 0.79611 0.90849 0.0
H604 H 0.88888 0.83586 0.80138 0.0
H605 H 0.70444 0.78097 0.91943 0.0
H606 H 0.67644 0.70331 0.76038 0.0
H607 H 0.84962 0.77053 0.63232 0.0
H608 H 0.73641 0.75657 0.86637 0.0
H609 H 0.72995 0.83993 0.94793 0.0
H610 H 0.81801 0.79359 0.68606 0.0
H611 H 0.91996 0.89394 0.8268 0.0
H612 H 0.7807 0.89304 0.94986 0.0
H613 H 0.83919 0.92379 0.92455 0.0
H614 H 0.6503 0.64258 0.73777 0.0
H615 H 0.89131 0.92439 0.87863 0.0
H616 H 0.82859 0.70919 0.60649 0.0
N617 N 0.72152 0.70834 0.72235 0.0
C618 C 0.73717 0.69316 0.69294 0.0
C619 C 0.67493 0.65642 0.72506 0.0
C620 C 0.72271 0.65866 0.67877 0.0
C621 C 0.69019 0.69079 0.73806 0.0
C622 C 0.6914 0.64016 0.69544 0.0
N623 N 0.7808 0.74563 0.69146 0.0
C624 C 0.80901 0.76683 0.6753 0.0
C625 C 0.78448 0.69827 0.64592 0.0
C626 C 0.76755 0.71261 0.67667 0.0
C627 C 0.81472 0.71924 0.63013 0.0
C628 C 0.82675 0.75384 0.64468 0.0
H629 H 0.67942 0.61358 0.6854 0.0
H630 H 0.72916 0.61736 0.63717 0.0
H631 H 0.78329 0.65207 0.60842 0.0
O632 O 0.74563 0.80705 0.72063 0.0
O633 O 0.79275 0.73319 0.73512 0.0
O634 O 0.83794 0.76465 0.76558 0.0
O635 O 0.70364 0.76064 0.72132 0.0
O636 O 0.78922 0.8148 0.74815 0.0
O637 O 0.8365 0.80802 0.77132 0.0
O638 O 0.80548 0.74164 0.84253 0.0
O639 O 0.7704 0.81642 0.81935 0.0
O640 O 0.72436 0.78324 0.79136 0.0
O641 O 0.85554 0.7778 0.83289 0.0
O642 O 0.77441 0.7311 0.8006 0.0
O643 O 0.72439 0.74121 0.7871 0.0
C644 C 0.82633 0.74091 0.74067 0.0
C645 C 0.70877 0.79431 0.67795 0.0
C646 C 0.68583 0.82564 0.64322 0.0
C647 C 0.68947 0.79842 0.61638 0.0
C648 C 0.7123 0.76772 0.65084 0.0
C649 C 0.70306 0.77006 0.62013 0.0
C650 C 0.6967 0.82353 0.67371 0.0
C651 C 0.8234 0.82255 0.7512 0.0
C652 C 0.71474 0.79128 0.71163 0.0
C653 C 0.73976 0.64391 0.64836 0.0
C654 C 0.77056 0.66369 0.63196 0.0
C655 C 0.7368 0.80951 0.81388 0.0
C656 C 0.85695 0.71891 0.8346 0.0
C657 C 0.89288 0.68154 0.84725 0.0
C658 C 0.88728 0.65972 0.81675 0.0
C659 C 0.85172 0.69666 0.80432 0.0
C660 C 0.87767 0.71135 0.85593 0.0
C661 C 0.86694 0.66737 0.79543 0.0
C662 C 0.73969 0.72445 0.803 0.0
C663 C 0.83941 0.74892 0.8447 0.0
H664 H 0.6809 0.79823 0.5927 0.0
H665 H 0.72143 0.74491 0.65354 0.0
H666 H 0.70546 0.74926 0.59936 0.0
H667 H 0.69518 0.84424 0.69472 0.0
H668 H 0.89896 0.63693 0.80918 0.0
H669 H 0.83544 0.70162 0.78777 0.0
H670 H 0.88126 0.7282 0.87955 0.0
H671 H 0.86277 0.6504 0.77201 0.0
Fe672 Fe 1.02953 0.05893 0.52713 0.0
O673 O 0.99189 1.01717 0.51278 0.0
Fe674 Fe 0.10458 0.02419 0.5203 0.0
Fe675 Fe 0.94054 1.01435 0.53166 0.0
O676 O 0.05429 0.02383 0.53605 0.0
O677 O 0.05325 1.02067 0.53733 0.0
O678 O 0.99065 1.01388 0.51451 0.0
Fe679 Fe 1.01566 0.97886 0.52346 0.0
C680 C 0.97669 0.07083 0.58308 0.0
O681 O 0.9979 0.09017 0.51369 0.0
O682 O 0.94684 0.05022 0.49951 0.0
O683 O 0.0404 0.97742 0.47516 0.0
O684 O 0.09612 0.98202 0.48287 0.0
O685 O 0.11041 0.05914 0.48674 0.0
O686 O 0.05573 0.05986 0.47901 0.0
O687 O 0.9323 0.96886 0.49761 0.0
O688 O 0.97377 0.93931 0.50548 0.0
C689 C 0.08928 0.06668 0.47026 0.0
O690 O 0.04685 0.94714 0.53568 0.0
O691 O 0.09779 0.98642 0.55068 0.0
O692 O 1.00401 0.05822 0.57464 0.0
O693 O 0.95015 0.05885 0.56714 0.0
C694 C 0.96905 0.08045 0.49898 0.0
C695 C 0.94615 0.94141 0.4927 0.0
C696 C 0.95735 0.97319 0.58246 0.0
O697 O 0.93566 0.98148 0.56711 0.0
O698 O 0.99062 0.97875 0.57209 0.0
C699 C 0.07033 0.96927 0.46605 0.0
O700 O 0.11089 0.06773 0.55618 0.0
O701 O 0.07123 0.09864 0.54709 0.0
C702 C 0.07589 0.95597 0.5498 0.0
C703 C 0.09757 0.09551 0.56141 0.0
Fe704 Fe 0.52669 0.98267 1.02445 0.0
O705 O 0.5568 0.02635 1.00805 0.0
Fe706 Fe 0.44553 1.00645 0.0564 0.0
Fe707 Fe 0.60915 0.03884 1.00505 0.0
O708 O 0.49789 1.01584 0.05278 0.0
O709 O 0.49798 1.0197 0.05391 0.0
O710 O 0.55685 0.0301 1.00911 0.0
Fe711 Fe 0.52775 0.06333 0.03693 0.0
C712 C 0.59047 0.99027 0.05904 0.0
O713 O 0.56205 0.9537 0.99128 0.0
O714 O 0.60611 0.99565 0.96706 0.0
O715 O 0.49754 0.05701 0.99851 0.0
O716 O 0.44266 0.04057 1.025 0.0
O717 O 0.4423 0.96598 1.01601 0.0
O718 O 0.49604 0.9745 0.98583 0.0
O719 O 0.60489 0.07688 0.97866 0.0
O720 O 0.56301 0.10412 1.01367 0.0
C721 C 0.46244 0.96229 0.98817 0.0
O722 O 0.49196 0.09207 0.06922 0.0
O723 O 0.44805 0.05022 0.0937 0.0
O724 O 0.55698 0.98823 0.06263 0.0
O725 O 0.6116 1.00357 0.03509 0.0
C726 C 0.59003 0.96311 0.96926 0.0
C727 C 0.58811 0.10237 0.98816 0.0
C728 C 0.59259 0.08436 0.07363 0.0
O729 O 0.61303 0.07834 0.04633 0.0
O730 O 0.55874 0.07334 0.07567 0.0
C731 C 0.46396 0.05416 1.00124 0.0
O732 O 0.44983 0.96913 0.08365 0.0
O733 O 0.4907 0.94161 0.0474 0.0
C734 C 0.46393 0.08273 0.09116 0.0
C735 C 0.46579 0.94316 0.07319 0.0
Fe736 Fe 0.04618 0.59846 0.05654 0.0
O737 O 0.03141 0.54703 0.0497 0.0
Fe738 Fe 0.0688 0.51759 1.02263 0.0
Fe739 Fe 0.98837 0.52055 0.02856 0.0
O740 O 0.03499 0.54657 0.04971 0.0
O741 O 1.02602 0.49147 1.00086 0.0
O742 O 1.02227 0.49179 1.0011 0.0
Fe743 Fe 1.01128 0.43992 0.99412 0.0
C744 C 0.96694 0.5814 0.08546 0.0
O745 O 1.01503 0.60496 1.02359 0.0
O746 O 0.99884 0.55308 0.99236 0.0
O747 O 0.05747 0.44356 0.95906 0.0
O748 O 0.0986 0.48272 0.98947 0.0
O749 O 0.08243 0.5502 0.98662 0.0
O750 O 0.08912 0.60272 1.0181 0.0
O751 O 0.94768 0.48807 1.00145 0.0
O752 O 0.97537 0.44735 0.96582 0.0
C753 C 0.09494 0.58319 0.99027 0.0
O754 O 0.04391 0.43341 0.02566 0.0
O755 O 0.05718 0.48461 0.05858 0.0
O756 O 0.99954 0.59503 0.09145 0.0
O757 O 0.95866 0.55567 0.0611 0.0
C758 C 1.00391 0.58644 0.99724 0.0
C759 C 0.94945 0.46386 0.97522 0.0
C760 C 0.96515 0.45477 0.06148 0.0
O761 O 0.97611 0.48803 0.0649 0.0
O762 O 0.96911 0.43561 0.03314 0.0
C763 C 0.09015 0.45733 0.9648 0.0
O764 O 0.10909 0.54984 0.05067 0.0
O765 O 0.08122 0.59092 0.08559 0.0
C766 C 0.0549 0.45162 0.05212 0.0
C767 C 0.1071 0.5743 0.07673 0.0
Fe768 Fe 0.52891 0.51344 0.98962 0.0
O769 O 0.54852 0.55132 1.02487 0.0
Fe770 Fe 0.4417 0.48266 1.02487 0.0
Fe771 Fe 0.5996 0.56402 0.02996 0.0
O772 O 0.49275 0.4962 0.02716 0.0
O773 O 0.49253 0.49607 0.03046 0.0
O774 O 0.54842 0.55097 0.02829 0.0
Fe775 Fe 0.51235 0.53366 0.0659 0.0
C776 C 0.59243 0.48882 1.00025 0.0
O777 O 0.57035 0.53712 0.95438 0.0
O778 O 0.60279 0.58423 0.98605 0.0
O779 O 0.48257 0.56505 0.05614 0.0
O780 O 0.4297 0.52866 0.05229 0.0
O781 O 0.44575 0.50484 0.98231 0.0
O782 O 0.49751 0.54383 0.97869 0.0
O783 O 0.58521 0.60488 0.06379 0.0
O784 O 0.53823 0.57582 0.09816 0.0
C785 C 0.46595 0.53197 0.97143 0.0
O786 O 0.47111 0.51051 0.10123 0.0
O787 O 0.43751 0.46407 0.06993 0.0
O788 O 0.55916 0.48231 0.99956 0.0
O789 O 0.61171 0.51957 1.00002 0.0
C790 C 0.59313 0.5673 0.95777 0.0
C791 C 0.56471 0.60211 0.0922 0.0
C792 C 0.57544 0.51184 0.08116 0.0
O793 O 0.59634 0.53923 0.07122 0.0
O794 O 0.54319 0.5023 0.07552 0.0
C795 C 0.45006 0.55905 0.05218 0.0
O796 O 0.45674 0.44087 0.9924 0.0
O797 O 0.50357 0.47045 0.95798 0.0
C798 C 0.44763 0.4809 0.09804 0.0
C799 C 0.47843 0.44324 0.96453 0.0
Fe800 Fe 1.02478 0.48036 0.52931 0.0
O801 O 1.00585 0.51957 0.56003 0.0
Fe802 Fe 0.05657 0.51623 0.45591 0.0
Fe803 Fe 1.00403 0.52764 0.60936 0.0
O804 O 0.05293 0.51897 0.50433 0.0
O805 O 0.05404 0.52286 0.50513 0.0
O806 O 1.00689 0.52355 0.56078 0.0
Fe807 Fe 0.03527 0.56206 0.53573 0.0
C808 C 0.96903 0.45089 0.58754 0.0
O809 O 0.06602 0.48711 0.55611 0.0
O810 O 0.03987 0.49687 0.60897 0.0
O811 O 0.06909 0.59708 0.50407 0.0
O812 O 0.09609 0.56067 0.46216 0.0
O813 O 0.08618 0.4792 0.45548 0.0
O814 O 0.05028 0.44452 0.4931 0.0
O815 O 0.04535 0.57149 0.61375 0.0
O816 O 0.07713 0.57077 0.56338 0.0
C817 C 0.07642 0.45026 0.46844 0.0
O818 O 0.99419 0.55513 0.50853 0.0
O819 O 1.02357 0.54979 0.45684 0.0
O820 O 0.99202 0.44543 0.56095 0.0
O821 O 0.96633 0.48132 0.60463 0.0
C822 C 0.0649 0.48776 0.58733 0.0
C823 C 0.07495 0.57893 0.59505 0.0
C824 C 0.98205 0.59165 0.59594 0.0
O825 O 0.97238 0.56266 0.60891 0.0
O826 O 1.00898 0.59774 0.5719 0.0
C827 C 0.09376 0.59133 0.47889 0.0
O828 O 1.01303 0.47453 0.45069 0.0
O829 O 0.98292 0.47079 0.5018 0.0
C830 C 0.99703 0.55687 0.47755 0.0
C831 C 0.98451 0.46423 0.47004 0.0
Fe832 Fe 0.52245 0.97798 0.52031 0.0
O833 O 0.5022 1.01707 0.5496 0.0
Fe834 Fe 0.5599 1.01533 0.44803 0.0
Fe835 Fe 0.49661 0.02449 0.59894 0.0
O836 O 0.55274 1.0173 0.49682 0.0
O837 O 0.55338 1.02139 0.49734 0.0
O838 O 0.50284 1.02101 0.55014 0.0
Fe839 Fe 0.53208 0.05999 0.52604 0.0
C840 C 0.46235 0.94824 0.57632 0.0
O841 O 0.56127 0.98344 0.55033 0.0
O842 O 0.53024 0.99258 0.601 0.0
O843 O 0.56703 0.09551 0.49583 0.0
O844 O 0.59835 0.06077 0.45625 0.0
O845 O 0.58897 0.97842 0.4501 0.0
O846 O 0.55013 0.94281 0.48545 0.0
O847 O 0.53834 0.06769 0.60567 0.0
O848 O 0.57163 0.06957 0.55602 0.0
C849 C 0.578 0.94904 0.46241 0.0
O850 O 0.4935 0.05232 0.49586 0.0
O851 O 0.52677 0.04837 0.44597 0.0
O852 O 0.48682 0.9426 0.55086 0.0
O853 O 0.45857 0.97899 0.59173 0.0
C854 C 0.5565 0.98289 0.58175 0.0
C855 C 0.56822 0.07659 0.58773 0.0
C856 C 0.4754 0.08816 0.58303 0.0
O857 O 0.46631 0.05958 0.59646 0.0
O858 O 0.50305 0.09519 0.55997 0.0
C859 C 0.59343 0.0911 0.47207 0.0
O860 O 0.51786 0.97327 0.44068 0.0
O861 O 0.48301 0.96976 0.48969 0.0
C862 C 0.49938 0.05592 0.46511 0.0
C863 C 0.48732 0.96528 0.45776 0.0
H864 H 0.23955 0.1911 0.35895 0.0
H865 H 0.1578 0.19127 0.29973 0.0
H866 H 0.11453 0.15068 0.33354 0.0
H867 H 0.21079 0.09902 0.37027 0.0
H868 H 0.22064 0.10716 0.41263 0.0
H869 H 0.24579 0.13541 0.38298 0.0
H870 H 0.22947 0.18941 0.42286 0.0
H871 H 0.20427 0.16137 0.45263 0.0
H872 H 0.18329 0.19 0.43739 0.0
H873 H 0.0788 0.11211 0.37566 0.0
H874 H 0.05421 0.0773 0.42187 0.0
H875 H 0.15889 0.101 0.45338 0.0
C876 C 0.21266 0.18241 0.35284 0.0
C877 C 0.20237 0.19457 0.32642 0.0
C878 C 0.16669 0.18246 0.3196 0.0
C879 C 0.14175 0.15933 0.33875 0.0
C880 C 0.15267 0.14819 0.36471 0.0
C881 C 0.18731 0.15916 0.3717 0.0
C882 C 0.19191 0.1437 0.40145 0.0
C883 C 0.21888 0.11991 0.39121 0.0
C884 C 0.20288 0.17286 0.43029 0.0
C885 C 0.15441 0.12253 0.41019 0.0
C886 C 0.13217 0.12553 0.3887 0.0
C887 C 0.09607 0.10933 0.39245 0.0
C888 C 0.08229 0.08962 0.41886 0.0
C889 C 0.10452 0.08607 0.44126 0.0
C890 C 0.14116 0.10269 0.43652 0.0
H891 H 0.83149 0.13133 0.40751 0.0
H892 H 0.91903 0.16621 0.33174 0.0
H893 H 0.96176 0.16201 0.36799 0.0
H894 H 0.87585 0.17108 0.48203 0.0
H895 H 0.85544 0.13365 0.50315 0.0
H896 H 0.83254 0.14546 0.47392 0.0
H897 H 0.82689 0.08292 0.4403 0.0
H898 H 0.84951 0.07093 0.46945 0.0
H899 H 0.86643 0.06577 0.42549 0.0
H900 H 0.99506 0.14718 0.41121 0.0
H901 H 1.01364 0.12028 0.45349 0.0
H902 H 0.90354 0.09197 0.49797 0.0
C903 C 0.85964 0.13844 0.39844 0.0
C904 C 0.87162 0.14902 0.36643 0.0
C905 C 0.90889 0.1585 0.35619 0.0
C906 C 0.93345 0.15603 0.37665 0.0
C907 C 0.92052 0.14419 0.4075 0.0
C908 C 0.88433 0.13564 0.41824 0.0
C909 C 0.87663 0.12024 0.4506 0.0
C910 C 0.85908 0.14404 0.47911 0.0
C911 C 0.85352 0.08275 0.44617 0.0
C912 C 0.914 0.12029 0.45602 0.0
C913 C 0.9392 0.13492 0.43143 0.0
C914 C 0.97544 0.1361 0.43072 0.0
C915 C 0.98587 0.12098 0.45498 0.0
C916 C 0.9601 0.10428 0.4792 0.0
C917 C 0.92392 0.1049 0.48002 0.0
H918 H 0.80126 0.83513 0.37571 0.0
H919 H 0.88783 0.80214 0.30589 0.0
H920 H 0.92967 0.8301 0.347 0.0
H921 H 0.85374 0.92086 0.40264 0.0
H922 H 0.83097 0.923 0.4449 0.0
H923 H 0.80802 0.89784 0.411 0.0
H924 H 0.79324 0.84308 0.44109 0.0
H925 H 0.81672 0.8679 0.47483 0.0
H926 H 0.82886 0.82807 0.45255 0.0
H927 H 0.96097 0.85909 0.39781 0.0
H928 H 0.98242 0.89836 0.44765 0.0
H929 H 0.87694 0.91914 0.48039 0.0
C930 C 0.82908 0.83393 0.3692 0.0
C931 C 0.84147 0.81606 0.33811 0.0
C932 C 0.87802 0.81552 0.32985 0.0
C933 C 0.9018 0.83109 0.3531 0.0
C934 C 0.88866 0.84798 0.38397 0.0
C935 C 0.85336 0.85047 0.39156 0.0
C936 C 0.84662 0.87303 0.42497 0.0
C937 C 0.83412 0.90561 0.4206 0.0
C938 C 0.81977 0.85173 0.44982 0.0
C939 C 0.88359 0.88274 0.43515 0.0
C940 C 0.90726 0.86725 0.41165 0.0
C941 C 0.94276 0.87175 0.4161 0.0
C942 C 0.95469 0.8939 0.44456 0.0
C943 C 0.93151 0.9121 0.46758 0.0
C944 C 0.89532 0.90569 0.46311 0.0
H945 H 0.11547 0.78306 0.40557 0.0
H946 H 0.05805 0.77299 0.32216 0.0
H947 H 0.03666 0.8269 0.34762 0.0
H948 H 0.05351 0.82874 0.47269 0.0
H949 H 0.09148 0.85613 0.49079 0.0
H950 H 0.09268 0.81186 0.47133 0.0
H951 H 0.15068 0.83599 0.43357 0.0
H952 H 0.14888 0.88034 0.45167 0.0
H953 H 0.15048 0.86751 0.40709 0.0
H954 H 0.0313 0.8871 0.37654 0.0
H955 H 0.03726 0.94628 0.41015 0.0
H956 H 0.10306 0.91825 0.47118 0.0
C957 C 0.09652 0.79109 0.39392 0.0
C958 C 0.08741 0.77374 0.36261 0.0
C959 C 0.06428 0.78571 0.34673 0.0
C960 C 0.05233 0.81636 0.36087 0.0
C961 C 0.06405 0.83453 0.39065 0.0
C962 C 0.0851 0.82197 0.40736 0.0
C963 C 0.09855 0.84873 0.43602 0.0
C964 C 0.08311 0.83558 0.4697 0.0
C965 C 0.13956 0.85871 0.43179 0.0
C966 C 0.0832 0.87879 0.43187 0.0
C967 C 0.06283 0.87001 0.40604 0.0
C968 C 0.04685 0.89413 0.39707 0.0
C969 C 0.05074 0.9277 0.4159 0.0
C970 C 0.07112 0.9368 0.44268 0.0
C971 C 0.08793 0.91218 0.45033 0.0
H972 H 0.21505 0.88902 0.62537 0.0
H973 H 0.12806 0.84545 0.69777 0.0
H974 H 0.08503 0.85605 0.66541 0.0
H975 H 0.18046 0.9594 0.61892 0.0
H976 H 0.19662 0.9601 0.57508 0.0
H977 H 0.21966 0.94295 0.60027 0.0
H978 H 0.21301 0.88436 0.55952 0.0
H979 H 0.18972 0.90137 0.53423 0.0
H980 H 0.16936 0.8608 0.55035 0.0
H981 H 0.0514 0.87738 0.62734 0.0
H982 H 0.03214 0.91084 0.59095 0.0
H983 H 0.1419 0.94427 0.5474 0.0
C984 C 0.18698 0.88139 0.6345 0.0
C985 C 0.17523 0.86635 0.66437 0.0
C986 C 0.13802 0.85643 0.67478 0.0
C987 C 0.11327 0.8625 0.65656 0.0
C988 C 0.12599 0.87848 0.62787 0.0
C989 C 0.16209 0.88777 0.617 0.0
C990 C 0.16947 0.90796 0.58769 0.0
C991 C 0.19292 0.94477 0.59601 0.0
C992 C 0.18639 0.88738 0.55608 0.0
C993 C 0.13203 0.90977 0.58441 0.0
C994 C 0.10707 0.89186 0.60713 0.0
C995 C 0.07079 0.8912 0.60932 0.0
C996 C 0.06001 0.91015 0.5885 0.0
C997 C 0.08555 0.93015 0.56648 0.0
C998 C 0.1218 0.92912 0.56398 0.0
H999 H 0.21982 0.17557 0.70465 0.0
H1000 H 0.18987 0.27512 0.71196 0.0
H1001 H 0.1502 0.24888 0.66871 0.0
H1002 H 0.2248 0.15474 0.617 0.0
H1003 H 0.20813 0.10832 0.61744 0.0
H1004 H 0.23166 0.13455 0.65053 0.0
H1005 H 0.17804 0.11357 0.69462 0.0
H1006 H 0.15443 0.08693 0.66171 0.0
H1007 H 0.13444 0.11884 0.69087 0.0
H1008 H 0.11345 0.2098 0.62273 0.0
H1009 H 0.08658 0.16379 0.57913 0.0
H1010 H 0.14422 0.09251 0.60249 0.0
C1011 C 0.20445 0.19179 0.69773 0.0
C1012 C 0.20759 0.22728 0.71215 0.0
C1013 C 0.18768 0.24774 0.70151 0.0
C1014 C 0.16508 0.23304 0.67691 0.0
C1015 C 0.16293 0.19793 0.66293 0.0
C1016 C 0.18229 0.17775 0.67305 0.0
C1017 C 0.17707 0.14131 0.65338 0.0
C1018 C 0.21251 0.13434 0.6334 0.0
C1019 C 0.15997 0.11353 0.67652 0.0
C1020 C 0.15167 0.14388 0.63054 0.0
C1021 C 0.14342 0.1765 0.63632 0.0
C1022 C 0.12001 0.18424 0.61798 0.0
C1023 C 0.10486 0.15796 0.5932 0.0
C1024 C 0.11338 0.12444 0.58683 0.0
C1025 C 0.13715 0.11777 0.60606 0.0
H1026 H 0.93165 0.25459 0.65221 0.0
H1027 H 1.01233 0.27009 0.71638 0.0
H1028 H 0.03699 0.22223 0.68069 0.0
H1029 H 0.90674 0.17373 0.65131 0.0
H1030 H 0.89782 0.15847 0.60889 0.0
H1031 H 0.89633 0.2027 0.6272 0.0
H1032 H 0.94353 0.22764 0.58008 0.0
H1033 H 0.94392 0.18333 0.56014 0.0
H1034 H 0.98493 0.21318 0.56941 0.0
H1035 H 0.03878 0.16254 0.65236 0.0
H1036 H 1.02542 0.10089 0.62569 0.0
H1037 H 0.94007 0.12122 0.58249 0.0
C1038 C 0.95616 0.24946 0.657 0.0
C1039 C 0.97036 0.2657 0.68661 0.0
C1040 C 1.00163 0.25813 0.69336 0.0
C1041 C 1.01554 0.23073 0.67335 0.0
C1042 C 0.99792 0.21181 0.64675 0.0
C1043 C 0.96954 0.22156 0.63775 0.0
C1044 C 0.9505 0.19311 0.61312 0.0
C1045 C 0.91053 0.18134 0.62594 0.0
C1046 C 0.95607 0.20503 0.57864 0.0
C1047 C 0.97022 0.16466 0.61234 0.0
C1048 C 0.99811 0.17624 0.63103 0.0
C1049 C 1.0178 0.15354 0.63675 0.0
C1050 C 1.0096 0.11846 0.62201 0.0
C1051 C 0.9815 0.10628 0.60229 0.0
C1052 C 0.96151 0.12972 0.59764 0.0
H1053 H 0.80866 0.86168 0.70757 0.0
H1054 H 0.89635 0.83933 0.74562 0.0
H1055 H 0.93894 0.87832 0.71009 0.0
H1056 H 0.85183 0.85965 0.62323 0.0
H1057 H 0.83378 0.89405 0.61417 0.0
H1058 H 0.80951 0.86708 0.64516 0.0
H1059 H 0.80759 0.92251 0.68908 0.0
H1060 H 0.83184 0.94975 0.65827 0.0
H1061 H 0.84857 0.95313 0.6972 0.0
H1062 H 0.97289 0.91823 0.66891 0.0
H1063 H 0.99552 0.95387 0.62328 0.0
H1064 H 0.88686 0.94852 0.60854 0.0
C1065 C 0.83678 0.86543 0.7089 0.0
C1066 C 0.84879 0.84794 0.7305 0.0
C1067 C 0.88602 0.85308 0.7305 0.0
C1068 C 0.91065 0.87507 0.71003 0.0
C1069 C 0.89797 0.8917 0.68908 0.0
C1070 C 0.86193 0.88699 0.68812 0.0
C1071 C 0.85564 0.90619 0.6616 0.0
C1072 C 0.83656 0.88019 0.63443 0.0
C1073 C 0.83467 0.93458 0.67749 0.0
C1074 C 0.89375 0.92241 0.64792 0.0
C1075 C 0.91769 0.91384 0.66434 0.0
C1076 C 0.95437 0.92516 0.65592 0.0
C1077 C 0.967 0.94545 0.62985 0.0
C1078 C 0.94317 0.95421 0.61205 0.0
C1079 C 0.90595 0.94265 0.62164 0.0
H1080 H 0.30802 0.16475 0.21465 0.0
H1081 H 0.38001 0.26658 0.21259 0.0
H1082 H 0.42523 0.23913 0.17484 0.0
H1083 H 0.37648 0.11819 0.2164 0.0
H1084 H 0.35707 0.07891 0.19047 0.0
H1085 H 0.32901 0.10639 0.2159 0.0
H1086 H 0.30372 0.11189 0.16358 0.0
H1087 H 0.33146 0.08427 0.138 0.0
H1088 H 0.33383 0.12715 0.12799 0.0
H1089 H 0.46368 0.20059 0.13675 0.0
H1090 H 0.49194 0.15406 0.10253 0.0
H1091 H 0.39732 0.07596 0.13047 0.0
C1092 C 0.33314 0.18126 0.20591 0.0
C1093 C 0.34014 0.2181 0.21667 0.0
C1094 C 0.37374 0.23847 0.20493 0.0
C1095 C 0.39975 0.22305 0.18334 0.0
C1096 C 0.39237 0.18682 0.17359 0.0
C1097 C 0.35992 0.16608 0.18454 0.0
C1098 C 0.35968 0.12753 0.17125 0.0
C1099 C 0.3553 0.10651 0.20023 0.0
C1100 C 0.33041 0.11181 0.14887 0.0
C1101 C 0.39669 0.12998 0.15089 0.0
C1102 C 0.41505 0.16448 0.15254 0.0
C1103 C 0.44947 0.17346 0.13541 0.0
C1104 C 0.46543 0.14671 0.11594 0.0
C1105 C 0.44734 0.11095 0.11362 0.0
C1106 C 0.41239 0.1028 0.13172 0.0
H1107 H 0.8397 0.30574 0.16591 0.0
H1108 H 0.86985 0.37577 0.25525 0.0
H1109 H 0.9104 0.41737 0.22056 0.0
H1110 H 0.92847 0.32422 0.11466 0.0
H1111 H 0.91066 0.32303 0.07674 0.0
H1112 H 0.88549 0.29671 0.10793 0.0
H1113 H 0.83176 0.3249 0.1114 0.0
H1114 H 0.85621 0.35088 0.07971 0.0
H1115 H 0.83801 0.37198 0.11937 0.0
H1116 H 0.94325 0.45412 0.17709 0.0
H1117 H 0.97023 0.48198 0.12693 0.0
H1118 H 0.92084 0.38882 0.06431 0.0
C1119 C 0.85558 0.32943 0.178 0.0
C1120 C 0.85174 0.33746 0.21332 0.0
C1121 C 0.87233 0.3691 0.22828 0.0
C1122 C 0.89548 0.39292 0.20877 0.0
C1123 C 0.89792 0.38491 0.17413 0.0
C1124 C 0.87892 0.35381 0.15873 0.0
C1125 C 0.88562 0.35266 0.12093 0.0
C1126 C 0.90365 0.32235 0.10408 0.0
C1127 C 0.85083 0.34995 0.10705 0.0
C1128 C 0.91085 0.38809 0.11768 0.0
C1129 C 0.91746 0.4062 0.14876 0.0
C1130 C 0.93858 0.44005 0.15256 0.0
C1131 C 0.95362 0.45579 0.12386 0.0
C1132 C 0.94777 0.43774 0.09155 0.0
C1133 C 0.9261 0.4033 0.08858 0.0
H1134 H 0.74116 0.91568 0.11063 0.0
H1135 H 0.68442 0.91905 0.21173 0.0
H1136 H 0.63577 0.93711 0.193 0.0
H1137 H 0.7217 0.99347 0.09519 0.0
H1138 H 0.71812 0.97768 0.05164 0.0
H1139 H 0.74641 0.96161 0.07248 0.0
H1140 H 0.71272 0.89776 0.05513 0.0
H1141 H 0.6843 0.91371 0.03427 0.0
H1142 H 0.66504 0.886 0.066 0.0
H1143 H 0.59351 0.95715 0.16256 0.0
H1144 H 0.5644 0.97959 0.12438 0.0
H1145 H 0.65204 0.96683 0.04547 0.0
C1146 C 0.7187 0.92032 0.12907 0.0
C1147 C 0.71694 0.91578 0.16277 0.0
C1148 C 0.68641 0.92162 0.18564 0.0
C1149 C 0.65863 0.93215 0.17527 0.0
C1150 C 0.6617 0.93695 0.14197 0.0
C1151 C 0.69114 0.93132 0.11932 0.0
C1152 C 0.68932 0.94014 0.08544 0.0
C1153 C 0.72074 0.97 0.07563 0.0
C1154 C 0.68774 0.90745 0.05864 0.0
C1155 C 0.65444 0.95199 0.09256 0.0
C1156 C 0.63849 0.94959 0.1251 0.0
C1157 C 0.60588 0.95916 0.13705 0.0
C1158 C 0.58949 0.97181 0.11522 0.0
C1159 C 0.60608 0.97531 0.08207 0.0
C1160 C 0.63881 0.96492 0.07078 0.0
H1161 H 0.19887 0.6809 0.2345 0.0
H1162 H 0.30128 0.66817 0.17924 0.0
H1163 H 0.27075 0.62968 0.13343 0.0
H1164 H 0.14739 0.59413 0.20885 0.0
H1165 H 0.10887 0.6102 0.20586 0.0
H1166 H 0.13886 0.63366 0.23512 0.0
H1167 H 0.14745 0.69019 0.20892 0.0
H1168 H 0.11749 0.66706 0.17959 0.0
H1169 H 0.16189 0.68942 0.16466 0.0
H1170 H 0.22743 0.594 0.092 0.0
H1171 H 0.17735 0.56817 0.05908 0.0
H1172 H 0.10477 0.60811 0.1413 0.0
C1173 C 0.2151 0.67014 0.21288 0.0
C1174 C 0.25269 0.67782 0.21058 0.0
C1175 C 0.2725 0.66258 0.18175 0.0
C1176 C 0.25534 0.64074 0.15555 0.0
C1177 C 0.21822 0.6344 0.15839 0.0
C1178 C 0.19847 0.64886 0.18641 0.0
C1179 C 0.15924 0.6401 0.18287 0.0
C1180 C 0.1373 0.61822 0.20977 0.0
C1181 C 0.14574 0.67368 0.18407 0.0
C1182 C 0.15978 0.61857 0.14836 0.0
C1183 C 0.19389 0.6151 0.13465 0.0
C1184 C 0.20064 0.59656 0.10266 0.0
C1185 C 0.17197 0.58179 0.08415 0.0
C1186 C 0.13697 0.58602 0.09741 0.0
C1187 C 0.13109 0.60435 0.13019 0.0
H1188 H 0.32263 0.81491 0.88667 0.0
H1189 H 0.3668 0.866 0.79924 0.0
H1190 H 0.41034 0.90891 0.83171 0.0
H1191 H 0.32833 0.89693 0.94421 0.0
H1192 H 0.33785 0.87911 0.97812 0.0
H1193 H 0.3119 0.851 0.94748 0.0
H1194 H 0.35661 0.80951 0.93423 0.0
H1195 H 0.38125 0.83735 0.96592 0.0
H1196 H 0.40347 0.82818 0.92409 0.0
H1197 H 0.45205 0.94432 0.87368 0.0
H1198 H 0.48162 0.97461 0.92303 0.0
H1199 H 0.40549 0.90551 0.98507 0.0
C1200 C 0.34151 0.83519 0.87446 0.0
C1201 C 0.34164 0.83688 0.84026 0.0
C1202 C 0.36623 0.86421 0.82535 0.0
C1203 C 0.39123 0.88856 0.84358 0.0
C1204 C 0.39067 0.88608 0.87719 0.0
C1205 C 0.36584 0.86057 0.8927 0.0
C1206 C 0.36903 0.86544 0.92976 0.0
C1207 C 0.33474 0.87361 0.95115 0.0
C1208 C 0.3781 0.83316 0.93901 0.0
C1209 C 0.40002 0.89705 0.93254 0.0
C1210 C 0.41255 0.90823 0.90181 0.0
C1211 C 0.4421 0.93597 0.89789 0.0
C1212 C 0.45892 0.95294 0.92605 0.0
C1213 C 0.44586 0.94271 0.95803 0.0
C1214 C 0.41594 0.9143 0.96108 0.0
H1215 H 0.17683 0.30658 0.83861 0.0
H1216 H 0.27864 0.38062 0.83838 0.0
H1217 H 0.25012 0.42391 0.87762 0.0
H1218 H 0.12477 0.37094 0.84015 0.0
H1219 H 0.08693 0.35038 0.86718 0.0
H1220 H 0.11544 0.32424 0.84033 0.0
H1221 H 0.12544 0.3005 0.89136 0.0
H1222 H 0.09755 0.32678 0.91889 0.0
H1223 H 0.14259 0.3306 0.92618 0.0
H1224 H 0.21015 0.46028 0.91789 0.0
H1225 H 0.16228 0.48646 0.9533 0.0
H1226 H 0.08496 0.39112 0.92612 0.0
C1227 C 0.19316 0.33182 0.847 0.0
C1228 C 0.23028 0.33992 0.83497 0.0
C1229 C 0.2503 0.37353 0.84671 0.0
C1230 C 0.23426 0.39844 0.86922 0.0
C1231 C 0.19771 0.38997 0.88013 0.0
C1232 C 0.17732 0.35747 0.86931 0.0
C1233 C 0.13829 0.35566 0.88414 0.0
C1234 C 0.11498 0.34997 0.85629 0.0
C1235 C 0.1252 0.32667 0.90649 0.0
C1236 C 0.13993 0.39206 0.90483 0.0
C1237 C 0.17458 0.4113 0.90241 0.0
C1238 C 0.18292 0.44537 0.91974 0.0
C1239 C 0.15541 0.46015 0.93994 0.0
C1240 C 0.11941 0.44139 0.94262 0.0
C1241 C 0.11192 0.4067 0.92454 0.0
H1242 H 0.68881 0.18361 0.82709 0.0
H1243 H 0.70189 0.28616 0.88766 0.0
H1244 H 0.66241 0.26003 0.935 0.0
H1245 H 0.594 0.15381 0.8613 0.0
H1246 H 0.59827 0.10922 0.85882 0.0
H1247 H 0.62552 0.13639 0.82912 0.0
H1248 H 0.68304 0.12554 0.84531 0.0
H1249 H 0.65526 0.09718 0.87344 0.0
H1250 H 0.6888 0.1333 0.88901 0.0
H1251 H 0.62503 0.22127 0.97713 0.0
H1252 H 0.59609 0.17308 1.01042 0.0
H1253 H 0.6067 0.09709 0.92113 0.0
C1254 C 0.68314 0.20056 0.85027 0.0
C1255 C 0.69827 0.23681 0.85387 0.0
C1256 C 0.69025 0.25828 0.88445 0.0
C1257 C 0.66779 0.24372 0.91138 0.0
C1258 C 0.65306 0.2078 0.907 0.0
C1259 C 0.66031 0.18658 0.87709 0.0
C1260 C 0.64205 0.14867 0.87897 0.0
C1261 C 0.61325 0.1363 0.85567 0.0
C1262 C 0.66896 0.12481 0.8712 0.0
C1263 C 0.62563 0.15141 0.91526 0.0
C1264 C 0.63134 0.18578 0.93092 0.0
C1265 C 0.62009 0.19431 0.96502 0.0
C1266 C 0.60364 0.16687 0.98372 0.0
C1267 C 0.59941 0.13153 0.96826 0.0
C1268 C 0.6097 0.12395 0.93352 0.0
H1269 H 0.89062 0.61724 0.86491 0.0
H1270 H 0.94445 0.72695 0.88049 0.0
H1271 H 0.98113 0.71339 0.91751 0.0
H1272 H 0.88667 0.6016 0.94849 0.0
H1273 H 0.89422 0.55774 0.93656 0.0
H1274 H 0.87325 0.57575 0.91014 0.0
H1275 H 0.9215 0.56326 0.8603 0.0
H1276 H 0.94266 0.54537 0.88671 0.0
H1277 H 0.96786 0.5807 0.8645 0.0
H1278 H 1.01096 0.68856 0.95349 0.0
H1279 H 1.02992 0.65481 0.98906 0.0
H1280 H 0.95702 0.56063 0.95071 0.0
C1281 C 0.91041 0.63834 0.87584 0.0
C1282 C 0.91472 0.67322 0.86974 0.0
C1283 C 0.94044 0.70016 0.88502 0.0
C1284 C 0.96159 0.69264 0.90586 0.0
C1285 C 0.95671 0.65805 0.91127 0.0
C1286 C 0.93165 0.63131 0.89687 0.0
C1287 C 0.9308 0.59663 0.908 0.0
C1288 C 0.89406 0.58209 0.92693 0.0
C1289 C 0.94134 0.56992 0.87809 0.0
C1290 C 0.95907 0.60816 0.93117 0.0
C1291 C 0.97382 0.64365 0.9324 0.0
C1292 C 0.99966 0.66076 0.9527 0.0
C1293 C 1.0102 0.64132 0.97288 0.0
C1294 C 0.99492 0.60506 0.97277 0.0
C1295 C 0.96947 0.58818 0.9511 0.0
H1296 H 0.1556 0.31247 0.08445 0.0
H1297 H 0.11295 0.33092 0.18969 0.0
H1298 H 0.08697 0.37761 0.17852 0.0
H1299 H 0.17471 0.40137 0.06771 0.0
H1300 H 0.16027 0.38908 0.02704 0.0
H1301 H 0.17816 0.35921 0.04383 0.0
H1302 H 0.1208 0.31115 0.03614 0.0
H1303 H 0.10293 0.34082 1.01912 0.0
H1304 H 0.07812 0.32061 0.05453 0.0
H1305 H 0.06476 0.42275 0.15519 0.0
H1306 H 0.04437 0.45763 0.12081 0.0
H1307 H 0.0971 0.40501 0.03118 0.0
C1308 C 0.14063 0.32598 0.10528 0.0
C1309 C 0.13683 0.31789 0.13808 0.0
C1310 C 0.11725 0.33695 0.16443 0.0
C1311 C 0.10209 0.36348 0.15832 0.0
C1312 C 0.10632 0.37055 0.12567 0.0
C1313 C 0.12481 0.35201 0.09956 0.0
C1314 C 0.12383 0.36303 0.06642 0.0
C1315 C 0.16148 0.37914 0.05032 0.0
C1316 C 0.10531 0.33206 0.04267 0.0
C1317 C 0.10166 0.39046 0.07789 0.0
C1318 C 0.09223 0.39498 0.11219 0.0
C1319 C 0.07195 0.41933 0.12831 0.0
C1320 C 0.06063 0.43912 0.10872 0.0
C1321 C 0.0691 0.43377 0.07351 0.0
C1322 C 0.09007 0.40936 0.05811 0.0
H1323 H 0.2137 0.73581 0.88604 0.0
H1324 H 0.234 0.65214 0.80604 0.0
H1325 H 0.1962 0.60842 0.83993 0.0
H1326 H 0.21647 0.68803 0.95303 0.0
H1327 H 0.18201 0.70542 0.98134 0.0
H1328 H 0.20987 0.7308 0.95053 0.0
H1329 H 0.15395 0.73624 0.92963 0.0
H1330 H 0.12492 0.70922 0.95839 0.0
H1331 H 0.12286 0.69744 0.91414 0.0
H1332 H 0.15644 0.5733 0.88158 0.0
H1333 H 0.11833 0.54852 0.92966 0.0
H1334 H 0.12407 0.65355 0.98492 0.0
C1335 C 0.20999 0.70829 0.87568 0.0
C1336 C 0.22691 0.69748 0.84326 0.0
C1337 C 0.22163 0.66117 0.83079 0.0
C1338 C 0.20004 0.63604 0.84983 0.0
C1339 C 0.184 0.64739 0.88164 0.0
C1340 C 0.18881 0.68256 0.89472 0.0
C1341 C 0.16945 0.68714 0.93031 0.0
C1342 C 0.19604 0.70383 0.95528 0.0
C1343 C 0.14107 0.70876 0.93324 0.0
C1344 C 0.15249 0.64918 0.93471 0.0
C1345 C 0.16138 0.62679 0.90625 0.0
C1346 C 0.14928 0.59057 0.90404 0.0
C1347 C 0.12753 0.57672 0.9316 0.0
C1348 C 0.11798 0.59892 0.96131 0.0
C1349 C 0.13079 0.63575 0.96271 0.0
H1350 H 0.30667 0.10439 0.93319 0.0
H1351 H 0.38625 0.17528 0.87529 0.0
H1352 H 0.43377 0.15359 0.89229 0.0
H1353 H 0.35317 0.11769 1.00216 0.0
H1354 H 0.33862 0.07298 1.01029 0.0
H1355 H 0.31127 0.09155 0.9907 0.0
H1356 H 0.31111 0.04088 0.94098 0.0
H1357 H 0.33854 0.02217 0.96045 0.0
H1358 H 0.35286 0.03238 0.91851 0.0
H1359 H 0.47319 0.12618 0.91951 0.0
H1360 H 0.4996 0.09709 0.95429 0.0
H1361 H 0.39345 0.04611 0.99523 0.0
C1362 C 0.33405 0.11546 0.92393 0.0
C1363 C 0.34247 0.14176 0.90284 0.0
C1364 C 0.37883 0.15486 0.89106 0.0
C1365 C 0.4061 0.14279 0.90076 0.0
C1366 C 0.39674 0.11744 0.9222 0.0
C1367 C 0.36147 0.10391 0.9335 0.0
C1368 C 0.35816 0.07824 0.95764 0.0
C1369 C 0.33919 0.09089 0.99224 0.0
C1370 C 0.33904 0.04123 0.94354 0.0
C1371 C 0.39706 0.07981 0.95874 0.0
C1372 C 0.41905 0.10223 0.93792 0.0
C1373 C 0.4561 0.10841 0.93569 0.0
C1374 C 0.47091 0.09167 0.95552 0.0
C1375 C 0.44875 0.06918 0.97762 0.0
C1376 C 0.41133 0.06302 0.97867 0.0
H1377 H 0.85667 0.3588 0.81826 0.0
H1378 H 0.75418 0.36067 0.87863 0.0
H1379 H 0.78458 0.40194 0.9232 0.0
H1380 H 0.89872 0.35251 0.88385 0.0
H1381 H 0.94149 0.37801 0.86862 0.0
H1382 H 0.91138 0.35424 0.83973 0.0
H1383 H 0.91401 0.41145 0.81668 0.0
H1384 H 0.94435 0.43555 0.84543 0.0
H1385 H 0.90363 0.44908 0.84508 0.0
H1386 H 0.828 0.43984 0.96341 0.0
H1387 H 0.87863 0.46619 0.99549 0.0
H1388 H 0.95165 0.43449 0.90937 0.0
C1389 C 0.84042 0.36845 0.84051 0.0
C1390 C 0.80292 0.35669 0.84475 0.0
C1391 C 0.78283 0.36981 0.87447 0.0
C1392 C 0.79994 0.39312 0.89999 0.0
C1393 C 0.83715 0.40309 0.89543 0.0
C1394 C 0.85703 0.39099 0.8663 0.0
C1395 C 0.89655 0.40203 0.86857 0.0
C1396 C 0.91299 0.36979 0.865 0.0
C1397 C 0.91576 0.42596 0.84239 0.0
C1398 C 0.89609 0.42205 0.9037 0.0
C1399 C 0.8617 0.42299 0.91875 0.0
C1400 C 0.85497 0.43933 0.95167 0.0
C1401 C 0.88394 0.45438 0.96972 0.0
C1402 C 0.91922 0.45242 0.95509 0.0
C1403 C 0.92508 0.43646 0.92142 0.0
H1404 H 0.74659 0.8778 0.85001 0.0
H1405 H 0.66611 0.78246 0.83178 0.0
H1406 H 0.62106 0.81022 0.8695 0.0
H1407 H 0.71328 0.90275 0.9373 0.0
H1408 H 0.72184 0.94904 0.93522 0.0
H1409 H 0.74896 0.92213 0.90752 0.0
H1410 H 0.73454 0.94172 0.8561 0.0
H1411 H 0.70786 0.9695 0.88322 0.0
H1412 H 0.68873 0.93709 0.8508 0.0
H1413 H 0.58368 0.84841 0.91049 0.0
H1414 H 0.55735 0.89456 0.94813 0.0
H1415 H 0.65992 0.96723 0.93771 0.0
C1416 C 0.71951 0.86275 0.85403 0.0
C1417 C 0.71022 0.82768 0.83751 0.0
C1418 C 0.67423 0.80927 0.84361 0.0
C1419 C 0.64828 0.82485 0.86526 0.0
C1420 C 0.65809 0.8594 0.88076 0.0
C1421 C 0.69281 0.87829 0.87523 0.0
C1422 C 0.69575 0.91556 0.89407 0.0
C1423 C 0.72148 0.92278 0.92009 0.0
C1424 C 0.70741 0.94256 0.86959 0.0
C1425 C 0.65744 0.91462 0.91097 0.0
C1426 C 0.63624 0.88179 0.90324 0.0
C1427 C 0.60012 0.87426 0.91646 0.0
C1428 C 0.58528 0.90075 0.93796 0.0
C1429 C 0.6061 0.93497 0.94592 0.0
C1430 C 0.64283 0.94167 0.93196 0.0
H1431 H 0.8751 0.70964 0.23627 0.0
H1432 H 0.79459 0.70154 0.17319 0.0
H1433 H 0.82258 0.66003 0.13087 0.0
H1434 H 0.9481 0.70896 0.16743 0.0
H1435 H 0.97086 0.68439 0.18592 0.0
H1436 H 0.9434 0.71192 0.21227 0.0
H1437 H 0.90701 0.65889 0.24071 0.0
H1438 H 0.93422 0.63111 0.21434 0.0
H1439 H 0.88653 0.61962 0.21542 0.0
H1440 H 0.85851 0.61689 0.09542 0.0
H1441 H 0.90314 0.5828 0.06687 0.0
H1442 H 0.96482 0.62203 0.14925 0.0
C1443 C 0.86332 0.69903 0.21358 0.0
C1444 C 0.83221 0.70899 0.20844 0.0
C1445 C 0.81824 0.6947 0.178 0.0
C1446 C 0.83395 0.67079 0.15375 0.0
C1447 C 0.86441 0.66148 0.15952 0.0
C1448 C 0.87939 0.67567 0.18844 0.0
C1449 C 0.91353 0.66285 0.18735 0.0
C1450 C 0.94589 0.69388 0.1883 0.0
C1451 C 0.91011 0.64187 0.21617 0.0
C1452 C 0.9153 0.63915 0.15349 0.0
C1453 C 0.88627 0.63831 0.13818 0.0
C1454 C 0.88142 0.61766 0.1072 0.0
C1455 C 0.90698 0.59803 0.09116 0.0
C1456 C 0.93788 0.59925 0.10544 0.0
C1457 C 0.94172 0.62022 0.13734 0.0
H1458 H 0.38208 0.84911 0.23367 0.0
H1459 H 0.33577 0.75939 0.16592 0.0
H1460 H 0.3691 0.78797 0.11752 0.0
H1461 H 0.37521 0.91295 0.18453 0.0
H1462 H 0.41536 0.94262 0.19605 0.0
H1463 H 0.38949 0.91278 0.22394 0.0
H1464 H 0.44708 0.88917 0.22313 0.0
H1465 H 0.47125 0.91919 0.19468 0.0
H1466 H 0.4699 0.87298 0.18338 0.0
H1467 H 0.40851 0.82619 0.07645 0.0
H1468 H 0.44174 0.87536 0.04593 0.0
H1469 H 0.45735 0.94234 0.14033 0.0
C1470 C 0.37968 0.83533 0.20859 0.0
C1471 C 0.35721 0.80179 0.20329 0.0
C1472 C 0.35333 0.78496 0.17029 0.0
C1473 C 0.37218 0.80095 0.14272 0.0
C1474 C 0.39442 0.834 0.14864 0.0
C1475 C 0.39767 0.85132 0.18076 0.0
C1476 C 0.42038 0.88808 0.18021 0.0
C1477 C 0.39881 0.91572 0.19722 0.0
C1478 C 0.45414 0.89259 0.19633 0.0
C1479 C 0.42935 0.88872 0.14284 0.0
C1480 C 0.41494 0.85695 0.12504 0.0
C1481 C 0.41982 0.85123 0.09012 0.0
C1482 C 0.43893 0.87913 0.07299 0.0
C1483 C 0.45213 0.91238 0.09085 0.0
C1484 C 0.44765 0.91702 0.12616 0.0
H1485 H 0.75171 0.19823 0.17741 0.0
H1486 H 0.66946 0.22236 0.25815 0.0
H1487 H 0.62343 0.18552 0.22533 0.0
H1488 H 0.70397 0.19975 0.11043 0.0
H1489 H 0.7194 0.16385 0.08316 0.0
H1490 H 0.74641 0.19104 0.11342 0.0
H1491 H 0.74824 0.1361 0.13803 0.0
H1492 H 0.72127 0.10873 0.1078 0.0
H1493 H 0.70707 0.10712 0.15181 0.0
H1494 H 0.58519 0.14621 0.18317 0.0
H1495 H 0.55855 0.10895 0.13496 0.0
H1496 H 0.66445 0.11004 0.08026 0.0
C1497 C 0.72404 0.1955 0.18834 0.0
C1498 C 0.71458 0.21357 0.22071 0.0
C1499 C 0.67782 0.20933 0.23357 0.0
C1500 C 0.65127 0.18819 0.21505 0.0
C1501 C 0.66139 0.17113 0.18327 0.0
C1502 C 0.69692 0.17452 0.16993 0.0
C1503 C 0.70033 0.15398 0.13472 0.0
C1504 C 0.71861 0.17863 0.10891 0.0
C1505 C 0.72042 0.12475 0.133 0.0
C1506 C 0.6613 0.13871 0.13038 0.0
C1507 C 0.63931 0.14881 0.15881 0.0
C1508 C 0.60226 0.13815 0.16082 0.0
C1509 C 0.58728 0.11684 0.13317 0.0
C1510 C 0.60906 0.10622 0.10344 0.0
C1511 C 0.64674 0.11746 0.10239 0.0
H1512 H 0.67892 0.7228 0.84858 0.0
H1513 H 0.75225 0.65872 0.79553 0.0
H1514 H 0.7179 0.60904 0.82476 0.0
H1515 H 0.67548 0.694 0.92608 0.0
H1516 H 0.62959 0.69588 0.94066 0.0
H1517 H 0.65589 0.72432 0.91174 0.0
H1518 H 0.60994 0.70074 0.87007 0.0
H1519 H 0.58315 0.67319 0.89959 0.0
H1520 H 0.59666 0.65409 0.85737 0.0
H1521 H 0.67556 0.56636 0.86067 0.0
H1522 H 0.63554 0.53758 0.90635 0.0
H1523 H 0.59517 0.63203 0.94179 0.0
C1524 C 0.6873 0.69806 0.84276 0.0
C1525 C 0.71793 0.69433 0.81944 0.0
C1526 C 0.72872 0.66197 0.81314 0.0
C1527 C 0.70926 0.6336 0.82952 0.0
C1528 C 0.6795 0.63824 0.85285 0.0
C1529 C 0.66902 0.66994 0.85998 0.0
C1530 C 0.63909 0.6696 0.88918 0.0
C1531 C 0.65073 0.6976 0.91866 0.0
C1532 C 0.6052 0.67468 0.87837 0.0
C1533 C 0.63426 0.63275 0.89732 0.0
C1534 C 0.6572 0.61478 0.87548 0.0
C1535 C 0.65755 0.58024 0.8779 0.0
C1536 C 0.63458 0.56398 0.90376 0.0
C1537 C 0.61217 0.58247 0.92737 0.0
C1538 C 0.61187 0.61721 0.92387 0.0
H1539 H 0.46601 0.67135 0.8528 0.0
H1540 H 0.36875 0.60252 0.82216 0.0
H1541 H 0.36847 0.56492 0.86371 0.0
H1542 H 0.50661 0.60382 0.85973 0.0
H1543 H 0.5278 0.62574 0.89572 0.0
H1544 H 0.51889 0.65106 0.86723 0.0
H1545 H 0.48282 0.68515 0.91528 0.0
H1546 H 0.49259 0.66102 0.94437 0.0
H1547 H 0.44706 0.66128 0.94201 0.0
H1548 H 0.38082 0.53225 0.90497 0.0
H1549 H 0.40445 0.50665 0.94394 0.0
H1550 H 0.49579 0.59456 0.94635 0.0
C1551 C 0.44448 0.6485 0.85486 0.0
C1552 C 0.41726 0.64015 0.83408 0.0
C1553 C 0.3895 0.61009 0.83807 0.0
C1554 C 0.38923 0.58835 0.8615 0.0
C1555 C 0.41692 0.59689 0.88081 0.0
C1556 C 0.44399 0.62628 0.87789 0.0
C1557 C 0.47175 0.6282 0.90023 0.0
C1558 C 0.50843 0.62716 0.87947 0.0
C1559 C 0.47365 0.66086 0.92706 0.0
C1560 C 0.45633 0.59492 0.91568 0.0
C1561 C 0.42451 0.57752 0.90433 0.0
C1562 C 0.40553 0.54581 0.91427 0.0
C1563 C 0.41931 0.53147 0.93647 0.0
C1564 C 0.45204 0.54859 0.94843 0.0
C1565 C 0.47072 0.58083 0.9378 0.0
H1566 H 0.35653 0.3717 0.82439 0.0
H1567 H 0.36795 0.26696 0.83004 0.0
H1568 H 0.41286 0.29213 0.86803 0.0
H1569 H 0.45248 0.41334 0.82455 0.0
H1570 H 0.44263 0.45336 0.84875 0.0
H1571 H 0.41288 0.42692 0.82038 0.0
H1572 H 0.36034 0.42369 0.86896 0.0
H1573 H 0.3899 0.45014 0.89725 0.0
H1574 H 0.36414 0.40785 0.90633 0.0
H1575 H 0.45034 0.32834 0.91121 0.0
H1576 H 0.47961 0.37354 0.9539 0.0
H1577 H 0.44957 0.45427 0.91417 0.0
C1578 C 0.36927 0.35403 0.83261 0.0
C1579 C 0.35897 0.31738 0.82376 0.0
C1580 C 0.37534 0.29517 0.83636 0.0
C1581 C 0.4011 0.30921 0.85782 0.0
C1582 C 0.41076 0.3455 0.86585 0.0
C1583 C 0.39567 0.36762 0.85326 0.0
C1584 C 0.40963 0.4056 0.86668 0.0
C1585 C 0.43067 0.42601 0.8384 0.0
C1586 C 0.37919 0.4228 0.88595 0.0
C1587 C 0.43391 0.40133 0.8898 0.0
C1588 C 0.43425 0.36646 0.88904 0.0
C1589 C 0.45128 0.35581 0.9113 0.0
C1590 C 0.46783 0.38147 0.93534 0.0
C1591 C 0.46769 0.41711 0.93619 0.0
C1592 C 0.45122 0.42719 0.91281 0.0
H1593 H 0.66472 0.35381 0.88081 0.0
H1594 H 0.58908 0.27846 0.93696 0.0
H1595 H 0.59248 0.3224 0.98745 0.0
H1596 H 0.7129 0.40622 0.95918 0.0
H1597 H 0.71844 0.44612 0.9419 0.0
H1598 H 0.72312 0.40603 0.91459 0.0
H1599 H 0.67675 0.41263 0.88078 0.0
H1600 H 0.67113 0.4523 0.9071 0.0
H1601 H 0.63293 0.41669 0.90172 0.0
H1602 H 0.58319 0.37668 1.02067 0.0
H1603 H 0.56627 0.43367 0.03389 0.0
H1604 H 0.65239 0.47588 0.961 0.0
C1605 C 0.65061 0.34534 0.90397 0.0
C1606 C 0.62597 0.31271 0.90447 0.0
C1607 C 0.60733 0.30361 0.93551 0.0
C1608 C 0.60967 0.32828 0.96456 0.0
C1609 C 0.63154 0.36155 0.96237 0.0
C1610 C 0.65292 0.36965 0.93299 0.0
C1611 C 0.66817 0.40874 0.93465 0.0
C1612 C 0.70802 0.41727 0.93783 0.0
C1613 C 0.66173 0.42336 0.90433 0.0
C1614 C 0.64695 0.42183 0.96688 0.0
C1615 C 0.6274 0.39417 0.98342 0.0
C1616 C 0.59957 0.39863 1.00903 0.0
C1617 C 0.58996 0.43108 1.01634 0.0
C1618 C 0.60862 0.4589 0.99869 0.0
C1619 C 0.63876 0.455 0.97536 0.0
H1620 H 0.7237 0.46175 0.16303 0.0
H1621 H 0.65705 0.35674 0.16211 0.0
H1622 H 0.61053 0.37618 0.14158 0.0
H1623 H 0.65363 0.50977 0.18699 0.0
H1624 H 0.67427 0.542 0.15978 0.0
H1625 H 0.70144 0.52074 0.17676 0.0
H1626 H 0.73066 0.5005 0.11695 0.0
H1627 H 0.70388 0.52211 0.09987 0.0
H1628 H 0.70278 0.47614 0.08616 0.0
H1629 H 0.57114 0.40712 0.12037 0.0
H1630 H 0.54452 0.44547 0.09599 0.0
H1631 H 0.63903 0.52861 0.10657 0.0
C1632 C 0.69953 0.44259 0.15833 0.0
C1633 C 0.69425 0.40763 0.16458 0.0
C1634 C 0.66171 0.38385 0.15839 0.0
C1635 C 0.63509 0.39459 0.14649 0.0
C1636 C 0.64134 0.42916 0.14057 0.0
C1637 C 0.6729 0.4527 0.14602 0.0
C1638 C 0.67375 0.4879 0.1362 0.0
C1639 C 0.67589 0.51679 0.16676 0.0
C1640 C 0.70459 0.49719 0.10812 0.0
C1641 C 0.63794 0.48032 0.12384 0.0
C1642 C 0.61937 0.44648 0.1271 0.0
C1643 C 0.58555 0.4336 0.11756 0.0
C1644 C 0.57062 0.45564 0.10375 0.0
C1645 C 0.58981 0.48994 0.09885 0.0
C1646 C 0.62373 0.50244 0.10959 0.0
H1647 H 0.71972 0.68554 0.20038 0.0
H1648 H 0.65072 0.74605 0.26743 0.0
H1649 H 0.6009 0.71661 0.23482 0.0
H1650 H 0.6888 0.69369 0.12701 0.0
H1651 H 0.6943 0.6509 0.10632 0.0
H1652 H 0.72213 0.67443 0.1373 0.0
H1653 H 0.70212 0.62103 0.16933 0.0
H1654 H 0.67314 0.59788 0.13924 0.0
H1655 H 0.65538 0.60502 0.18291 0.0
H1656 H 0.55859 0.67887 0.19348 0.0
H1657 H 0.5307 0.64148 0.14518 0.0
H1658 H 0.63127 0.61234 0.10449 0.0
C1659 C 0.69387 0.69196 0.20865 0.0
C1660 C 0.68849 0.71733 0.23659 0.0
C1661 C 0.65489 0.72629 0.24607 0.0
C1662 C 0.6266 0.70968 0.22782 0.0
C1663 C 0.63289 0.68488 0.19995 0.0
C1664 C 0.66595 0.67649 0.19032 0.0
C1665 C 0.66736 0.65172 0.15792 0.0
C1666 C 0.69478 0.66872 0.13054 0.0
C1667 C 0.67491 0.61685 0.16271 0.0
C1668 C 0.62988 0.64708 0.15083 0.0
C1669 C 0.60997 0.66584 0.17538 0.0
C1670 C 0.57411 0.66437 0.17398 0.0
C1671 C 0.5585 0.64326 0.14662 0.0
C1672 C 0.57925 0.62499 0.12102 0.0
C1673 C 0.61515 0.6269 0.1234 0.0
H1674 H 0.36585 0.70492 0.13412 0.0
H1675 H 0.47125 0.76128 0.09873 0.0
H1676 H 0.47095 0.72104 0.04623 0.0
H1677 H 0.38713 0.63684 0.12967 0.0
H1678 H 0.34947 0.6043 0.11589 0.0
H1679 H 0.34347 0.6465 0.13589 0.0
H1680 H 0.31728 0.65483 0.08494 0.0
H1681 H 0.32298 0.61175 0.06512 0.0
H1682 H 0.34191 0.64916 0.04364 0.0
H1683 H 0.47557 0.66583 1.0153 0.0
H1684 H 0.4874 0.6082 1.01469 0.0
H1685 H 0.38543 0.57673 0.07423 0.0
C1686 C 0.38835 0.70912 0.11465 0.0
C1687 C 0.41926 0.73498 0.12108 0.0
C1688 C 0.44739 0.74135 0.09476 0.0
C1689 C 0.44731 0.71832 0.06461 0.0
C1690 C 0.41959 0.68849 0.0617 0.0
C1691 C 0.38997 0.68409 0.08605 0.0
C1692 C 0.37049 0.64582 0.08404 0.0
C1693 C 0.36231 0.63265 0.11838 0.0
C1694 C 0.33615 0.64005 0.06849 0.0
C1695 C 0.39776 0.62885 0.06016 0.0
C1696 C 0.42376 0.654 0.04492 0.0
C1697 C 0.45504 0.64604 0.02656 0.0
C1698 C 0.46177 0.61324 0.02671 0.0
C1699 C 0.4374 0.58859 0.04507 0.0
C1700 C 0.40401 0.59537 0.05986 0.0
H1701 H 0.37184 0.3294 0.21303 0.0
H1702 H 0.28867 0.38526 0.25761 0.0
H1703 H 0.31971 0.4349 0.22709 0.0
H1704 H 0.44693 0.40673 0.20922 0.0
H1705 H 0.46766 0.38925 0.16902 0.0
H1706 H 0.44166 0.35996 0.19746 0.0
H1707 H 0.40043 0.32741 0.15233 0.0
H1708 H 0.42896 0.35557 0.12419 0.0
H1709 H 0.38184 0.35341 0.13124 0.0
H1710 H 0.35826 0.47737 0.18959 0.0
H1711 H 0.3977 0.50651 0.14387 0.0
H1712 H 0.4531 0.42115 0.11965 0.0
C1713 C 0.36072 0.35251 0.21694 0.0
C1714 C 0.32818 0.35386 0.23818 0.0
C1715 C 0.31375 0.38394 0.24178 0.0
C1716 C 0.33124 0.41224 0.22456 0.0
C1717 C 0.36296 0.40992 0.20336 0.0
C1718 C 0.37739 0.38063 0.19916 0.0
C1719 C 0.41002 0.38344 0.17259 0.0
C1720 C 0.44356 0.38494 0.188 0.0
C1721 C 0.40496 0.35313 0.14341 0.0
C1722 C 0.41101 0.41833 0.16177 0.0
C1723 C 0.38421 0.43361 0.18051 0.0
C1724 C 0.37941 0.46569 0.1749 0.0
C1725 C 0.40199 0.48216 0.14901 0.0
C1726 C 0.42855 0.46625 0.1286 0.0
C1727 C 0.43326 0.43406 0.13526 0.0
H1728 H 0.82058 0.67129 0.71031 0.0
H1729 H 0.89346 0.77288 0.71618 0.0
H1730 H 0.9391 0.74712 0.67672 0.0
H1731 H 0.88741 0.62262 0.7103 0.0
H1732 H 0.86786 0.58519 0.68235 0.0
H1733 H 0.84014 0.61238 0.70876 0.0
H1734 H 0.81698 0.62177 0.65656 0.0
H1735 H 0.84511 0.59513 0.62984 0.0
H1736 H 0.84826 0.63932 0.62274 0.0
H1737 H 0.97764 0.70972 0.63567 0.0
H1738 H 1.00742 0.6634 0.60281 0.0
H1739 H 0.91212 0.58475 0.62707 0.0
C1740 C 0.84607 0.68811 0.70303 0.0
C1741 C 0.85324 0.72433 0.71634 0.0
C1742 C 0.88722 0.74518 0.70651 0.0
C1743 C 0.91334 0.73075 0.68388 0.0
C1744 C 0.90566 0.695 0.67142 0.0
C1745 C 0.87298 0.67383 0.68105 0.0
C1746 C 0.87253 0.63575 0.66587 0.0
C1747 C 0.86663 0.61262 0.69346 0.0
C1748 C 0.84403 0.62219 0.64235 0.0
C1749 C 0.90999 0.63874 0.64641 0.0
C1750 C 0.92843 0.67328 0.64939 0.0
C1751 C 0.96337 0.68259 0.63334 0.0
C1752 C 0.98011 0.65604 0.61446 0.0
C1753 C 0.96243 0.6202 0.6121 0.0
C1754 C 0.92663 0.61178 0.62823 0.0
H1755 H 0.34179 0.86285 0.73045 0.0
H1756 H 0.32381 0.76252 0.66639 0.0
H1757 H 0.35906 0.79061 0.61828 0.0
H1758 H 0.33962 0.91817 0.66973 0.0
H1759 H 0.37525 0.95242 0.6847 0.0
H1760 H 0.34643 0.92465 0.713 0.0
H1761 H 0.40107 0.90796 0.72826 0.0
H1762 H 0.43013 0.93571 0.70004 0.0
H1763 H 0.43172 0.89011 0.69546 0.0
H1764 H 0.40035 0.83047 0.57738 0.0
H1765 H 0.44074 0.87827 0.54851 0.0
H1766 H 0.43103 0.95058 0.64089 0.0
C1767 C 0.34446 0.84697 0.70611 0.0
C1768 C 0.32971 0.81062 0.70201 0.0
C1769 C 0.33475 0.79052 0.66996 0.0
C1770 C 0.35479 0.80622 0.64252 0.0
C1771 C 0.36982 0.84206 0.64756 0.0
C1772 C 0.3647 0.86211 0.67863 0.0
C1773 C 0.38526 0.89954 0.67822 0.0
C1774 C 0.36011 0.92519 0.68691 0.0
C1775 C 0.41373 0.90886 0.70189 0.0
C1776 C 0.4021 0.8977 0.642 0.0
C1777 C 0.39331 0.86442 0.62454 0.0
C1778 C 0.40709 0.85674 0.59082 0.0
C1779 C 0.43008 0.88395 0.5746 0.0
C1780 C 0.43867 0.91838 0.59211 0.0
C1781 C 0.4245 0.92485 0.62631 0.0
H1782 H 0.18503 0.46621 0.71668 0.0
H1783 H 0.20098 0.37026 0.6514 0.0
H1784 H 0.17009 0.3841 0.61022 0.0
H1785 H 0.09562 0.45508 0.70254 0.0
H1786 H 0.09781 0.5013 0.7049 0.0
H1787 H 0.12568 0.48675 0.72749 0.0
H1788 H 0.18145 0.5257 0.69805 0.0
H1789 H 0.15369 0.54012 0.67516 0.0
H1790 H 0.18972 0.5204 0.65301 0.0
H1791 H 0.13653 0.40726 0.5762 0.0
H1792 H 0.0957 0.43422 0.55507 0.0
H1793 H 0.09464 0.51057 0.64522 0.0
C1794 C 0.18208 0.44788 0.69388 0.0
C1795 C 0.19644 0.4174 0.68737 0.0
C1796 C 0.19174 0.3945 0.65684 0.0
C1797 C 0.17388 0.40196 0.63321 0.0
C1798 C 0.16013 0.43207 0.64057 0.0
C1799 C 0.16346 0.45439 0.67037 0.0
C1800 C 0.14316 0.48313 0.67347 0.0
C1801 C 0.11383 0.48144 0.7039 0.0
C1802 C 0.16853 0.51948 0.67501 0.0
C1803 C 0.12752 0.47307 0.64094 0.0
C1804 C 0.13841 0.44406 0.62198 0.0
C1805 C 0.12772 0.42994 0.59082 0.0
C1806 C 0.10468 0.44547 0.57899 0.0
C1807 C 0.09199 0.47425 0.59866 0.0
C1808 C 0.10383 0.4884 0.62986 0.0
H1809 H 0.66634 0.19184 0.73874 0.0
H1810 H 0.76692 0.19871 0.67314 0.0
H1811 H 0.73547 0.15971 0.62798 0.0
H1812 H 0.62767 0.10029 0.70916 0.0
H1813 H 0.58355 0.10845 0.71368 0.0
H1814 H 0.61479 0.13458 0.74073 0.0
H1815 H 0.60627 0.19102 0.72297 0.0
H1816 H 0.57533 0.16513 0.69559 0.0
H1817 H 0.61398 0.19562 0.67925 0.0
H1818 H 0.69075 0.12357 0.5885 0.0
H1819 H 0.63896 0.09084 0.56027 0.0
H1820 H 0.56867 0.10774 0.65323 0.0
C1821 C 0.68196 0.18485 0.71502 0.0
C1822 C 0.71916 0.19835 0.70944 0.0
C1823 C 0.7385 0.1884 0.67807 0.0
C1824 C 0.72077 0.16645 0.65225 0.0
C1825 C 0.68381 0.15438 0.65841 0.0
C1826 C 0.66482 0.16294 0.68929 0.0
C1827 C 0.62532 0.14749 0.68974 0.0
C1828 C 0.61206 0.12113 0.71481 0.0
C1829 C 0.60398 0.17654 0.69733 0.0
C1830 C 0.62469 0.12923 0.65406 0.0
C1831 C 0.65859 0.13345 0.63626 0.0
C1832 C 0.66421 0.11987 0.6024 0.0
C1833 C 0.63455 0.10141 0.58652 0.0
C1834 C 0.5996 0.09648 0.60446 0.0
C1835 C 0.59493 0.11066 0.63874 0.0
H1836 H 0.86381 0.38044 0.32315 0.0
H1837 H 0.80794 0.30109 0.38497 0.0
H1838 H 0.84221 0.33244 0.43094 0.0
H1839 H 0.94898 0.38875 0.34811 0.0
H1840 H 0.96261 0.4351 0.34624 0.0
H1841 H 0.93092 0.40787 0.3202 0.0
H1842 H 0.88711 0.44894 0.34532 0.0
H1843 H 0.91874 0.47532 0.37193 0.0
H1844 H 0.8743 0.45628 0.38995 0.0
H1845 H 0.88357 0.37203 0.47003 0.0
H1846 H 0.93252 0.41303 0.49701 0.0
H1847 H 0.96568 0.46395 0.4082 0.0
C1848 C 0.85829 0.37021 0.34669 0.0
C1849 C 0.8327 0.33868 0.35082 0.0
C1850 C 0.8271 0.32539 0.38149 0.0
C1851 C 0.84644 0.34305 0.40772 0.0
C1852 C 0.87185 0.37378 0.40278 0.0
C1853 C 0.87813 0.38706 0.37287 0.0
C1854 C 0.90905 0.41884 0.37304 0.0
C1855 C 0.93968 0.41222 0.34524 0.0
C1856 C 0.89655 0.4518 0.36988 0.0
C1857 C 0.91942 0.42113 0.40753 0.0
C1858 C 0.89712 0.39532 0.42452 0.0
C1859 C 0.90121 0.39228 0.45689 0.0
C1860 C 0.92906 0.41579 0.47211 0.0
C1861 C 0.95312 0.44167 0.45479 0.0
C1862 C 0.9479 0.44437 0.42209 0.0
H1863 H 0.73259 0.86548 0.34118 0.0
H1864 H 0.6698 0.76306 0.35974 0.0
H1865 H 0.62661 0.79093 0.40002 0.0
H1866 H 0.71585 0.91198 0.4258 0.0
H1867 H 0.71244 0.95127 0.41168 0.0
H1868 H 0.74002 0.92329 0.38626 0.0
H1869 H 0.70555 0.91802 0.33654 0.0
H1870 H 0.67794 0.946 0.36178 0.0
H1871 H 0.65778 0.90312 0.34209 0.0
H1872 H 0.58863 0.83086 0.43859 0.0
H1873 H 0.55816 0.87811 0.46769 0.0
H1874 H 0.64333 0.9546 0.42173 0.0
C1875 C 0.70999 0.84882 0.35394 0.0
C1876 C 0.70572 0.8117 0.34789 0.0
C1877 C 0.67503 0.79132 0.36482 0.0
C1878 C 0.64991 0.80705 0.3876 0.0
C1879 C 0.65513 0.84355 0.39322 0.0
C1880 C 0.68431 0.86418 0.3766 0.0
C1881 C 0.68272 0.90275 0.38581 0.0
C1882 C 0.71466 0.92355 0.40344 0.0
C1883 C 0.68088 0.91839 0.35471 0.0
C1884 C 0.64799 0.90059 0.40986 0.0
C1885 C 0.63266 0.86624 0.41416 0.0
C1886 C 0.60049 0.85783 0.43526 0.0
C1887 C 0.58332 0.88497 0.45188 0.0
C1888 C 0.59791 0.92041 0.44723 0.0
C1889 C 0.63104 0.92798 0.42602 0.0
H1890 H 0.25308 0.67016 0.3473 0.0
H1891 H 0.21781 0.76836 0.37195 0.0
H1892 H 0.17373 0.7447 0.41751 0.0
H1893 H 0.16945 0.61529 0.35932 0.0
H1894 H 0.18363 0.58355 0.37713 0.0
H1895 H 0.21464 0.60953 0.34866 0.0
H1896 H 0.25758 0.631 0.39298 0.0
H1897 H 0.22679 0.60549 0.42197 0.0
H1898 H 0.24239 0.65199 0.43383 0.0
H1899 H 0.12985 0.70806 0.4583 0.0
H1900 H 0.09013 0.66132 0.48855 0.0
H1901 H 0.15622 0.58879 0.43777 0.0
C1902 C 0.23684 0.68706 0.36274 0.0
C1903 C 0.23939 0.72124 0.35606 0.0
C1904 C 0.21672 0.74211 0.37655 0.0
C1905 C 0.19156 0.72896 0.40266 0.0
C1906 C 0.18955 0.69499 0.40834 0.0
C1907 C 0.2118 0.67445 0.38903 0.0
C1908 C 0.20301 0.63814 0.39886 0.0
C1909 C 0.19202 0.60998 0.36924 0.0
C1910 C 0.2343 0.63128 0.41276 0.0
C1911 C 0.17187 0.64116 0.4261 0.0
C1912 C 0.16455 0.67416 0.43157 0.0
C1913 C 0.13567 0.68223 0.45452 0.0
C1914 C 0.11332 0.6556 0.47174 0.0
C1915 C 0.11994 0.62133 0.46567 0.0
C1916 C 0.15023 0.61463 0.44314 0.0
H1917 H 0.43658 0.13594 0.32701 0.0
H1918 H 0.38891 0.20312 0.40932 0.0
H1919 H 0.40189 0.17042 0.44918 0.0
H1920 H 0.41165 0.0552 0.36426 0.0
H1921 H 0.45377 0.04319 0.34861 0.0
H1922 H 0.43659 0.06857 0.3257 0.0
H1923 H 0.49472 0.11671 0.32732 0.0
H1924 H 0.51217 0.09135 0.34991 0.0
H1925 H 0.50969 0.13595 0.36703 0.0
H1926 H 0.4222 0.13231 0.48077 0.0
H1927 H 0.45403 0.09596 0.50174 0.0
H1928 H 0.4937 0.05741 0.3996 0.0
C1929 C 0.42879 0.14398 0.35335 0.0
C1930 C 0.41098 0.172 0.3646 0.0
C1931 C 0.40136 0.18114 0.39955 0.0
C1932 C 0.40887 0.16282 0.4226 0.0
C1933 C 0.42649 0.13559 0.41059 0.0
C1934 C 0.43674 0.12645 0.37682 0.0
C1935 C 0.45827 0.0983 0.37069 0.0
C1936 C 0.43891 0.0643 0.35115 0.0
C1937 C 0.49594 0.11137 0.35268 0.0
C1938 C 0.45913 0.09364 0.40634 0.0
C1939 C 0.43994 0.11483 0.42892 0.0
C1940 C 0.43724 0.11553 0.46332 0.0
C1941 C 0.45534 0.09466 0.47498 0.0
C1942 C 0.47644 0.07383 0.45233 0.0
C1943 C 0.47779 0.073 0.41755 0.0
H1944 H 0.68377 0.85402 0.58622 0.0
H1945 H 0.64674 0.86287 0.69324 0.0
H1946 H 0.61771 0.90947 0.68902 0.0
H1947 H 0.69434 0.94595 0.57637 0.0
H1948 H 0.67607 0.93523 0.53748 0.0
H1949 H 0.69924 0.90598 0.5489 0.0
H1950 H 0.64411 0.85492 0.54239 0.0
H1951 H 0.62099 0.88399 0.53073 0.0
H1952 H 0.60143 0.86011 0.56526 0.0
H1953 H 0.58963 0.95253 0.67401 0.0
H1954 H 0.55834 0.98497 0.64808 0.0
H1955 H 0.60704 0.94493 0.54967 0.0
C1956 C 0.66969 0.86561 0.60892 0.0
C1957 C 0.66878 0.85483 0.64029 0.0
C1958 C 0.64969 0.87119 0.66906 0.0
C1959 C 0.63262 0.8977 0.66695 0.0
C1960 C 0.63404 0.90741 0.63581 0.0
C1961 C 0.65157 0.8916 0.60717 0.0
C1962 C 0.64564 0.90454 0.57639 0.0
C1963 C 0.68093 0.92409 0.55875 0.0
C1964 C 0.62692 0.87408 0.55228 0.0
C1965 C 0.62144 0.92951 0.59233 0.0
C1966 C 0.61586 0.93121 0.6267 0.0
C1967 C 0.5938 0.9515 0.64712 0.0
C1968 C 0.57608 0.96982 0.63204 0.0
C1969 C 0.57998 0.96745 0.59674 0.0
C1970 C 0.60368 0.94757 0.57669 0.0
H1971 H 0.74325 0.1863 0.34005 0.0
H1972 H 0.6999 0.27935 0.3743 0.0
H1973 H 0.65999 0.2504 0.41934 0.0
H1974 H 0.66375 0.12456 0.35223 0.0
H1975 H 0.68259 0.0938 0.36678 0.0
H1976 H 0.71002 0.12332 0.33938 0.0
H1977 H 0.75466 0.14732 0.38315 0.0
H1978 H 0.72724 0.11643 0.40938 0.0
H1979 H 0.73788 0.1625 0.42556 0.0
H1980 H 0.62137 0.20962 0.45824 0.0
H1981 H 0.58608 0.15972 0.4863 0.0
H1982 H 0.6551 0.09349 0.42741 0.0
C1983 C 0.72579 0.20079 0.35736 0.0
C1984 C 0.72435 0.23495 0.35322 0.0
C1985 C 0.70092 0.25288 0.37635 0.0
C1986 C 0.6784 0.23678 0.40235 0.0
C1987 C 0.67984 0.2028 0.4053 0.0
C1988 C 0.70311 0.18508 0.38357 0.0
C1989 C 0.69797 0.14808 0.3911 0.0
C1990 C 0.68798 0.12084 0.36057 0.0
C1991 C 0.73141 0.14327 0.403 0.0
C1992 C 0.66716 0.14729 0.4194 0.0
C1993 C 0.65757 0.17932 0.42771 0.0
C1994 C 0.6289 0.18449 0.45221 0.0
C1995 C 0.60902 0.15596 0.46811 0.0
C1996 C 0.61763 0.12252 0.45923 0.0
C1997 C 0.64768 0.11861 0.43501 0.0
H1998 H 0.93139 0.64797 0.35116 0.0
H1999 H 0.84481 0.66843 0.42842 0.0
H2000 H 0.86272 0.63361 0.46427 0.0
H2001 H 0.92591 0.55759 0.36555 0.0
H2002 H 0.97353 0.56227 0.35678 0.0
H2003 H 0.95184 0.58625 0.33652 0.0
H2004 H 0.9931 0.64458 0.35879 0.0
H2005 H 1.01481 0.62079 0.37907 0.0
H2006 H 0.99512 0.65578 0.40308 0.0
H2007 H 0.89406 0.60149 0.49338 0.0
H2008 H 0.93511 0.57339 0.51287 0.0
H2009 H 0.99949 0.57267 0.41512 0.0
C2010 C 0.91609 0.64484 0.37554 0.0
C2011 C 0.88692 0.66086 0.38728 0.0
C2012 C 0.8672 0.65611 0.41911 0.0
C2013 C 0.87715 0.63642 0.43953 0.0
C2014 C 0.90643 0.62128 0.42737 0.0
C2015 C 0.92534 0.62495 0.39594 0.0
C2016 C 0.95648 0.6072 0.38911 0.0
C2017 C 0.95163 0.57651 0.36028 0.0
C2018 C 0.99196 0.63367 0.38212 0.0
C2019 C 0.95305 0.59419 0.42211 0.0
C2020 C 0.92387 0.60221 0.44379 0.0
C2021 C 0.91667 0.59459 0.47645 0.0
C2022 C 0.94018 0.57871 0.4873 0.0
C2023 C 0.97049 0.57073 0.46551 0.0
C2024 C 0.97644 0.57809 0.43236 0.0
H2025 H 0.33564 0.81332 0.38133 0.0
H2026 H 0.35302 0.87104 0.29788 0.0
H2027 H 0.39009 0.92165 0.3294 0.0
H2028 H 0.33479 0.8934 0.44844 0.0
H2029 H 0.35692 0.87676 0.47501 0.0
H2030 H 0.32755 0.84678 0.44819 0.0
H2031 H 0.37852 0.81457 0.42068 0.0
H2032 H 0.40639 0.84384 0.44898 0.0
H2033 H 0.42103 0.8405 0.40471 0.0
H2034 H 0.43228 0.9616 0.36543 0.0
H2035 H 0.47603 0.98918 0.40409 0.0
H2036 H 0.43085 0.90812 0.46686 0.0
C2037 C 0.34634 0.83716 0.37034 0.0
C2038 C 0.34088 0.83881 0.33752 0.0
C2039 C 0.35622 0.86976 0.32327 0.0
C2040 C 0.37736 0.89855 0.341 0.0
C2041 C 0.38275 0.89611 0.37314 0.0
C2042 C 0.36737 0.86642 0.38797 0.0
C2043 C 0.37934 0.87013 0.42209 0.0
C2044 C 0.34777 0.87188 0.4501 0.0
C2045 C 0.39736 0.84041 0.42417 0.0
C2046 C 0.40594 0.90519 0.42288 0.0
C2047 C 0.4068 0.91996 0.39462 0.0
C2048 C 0.43132 0.95061 0.38791 0.0
C2049 C 0.4562 0.96603 0.41 0.0
C2050 C 0.45666 0.95102 0.43865 0.0
C2051 C 0.43053 0.92065 0.44563 0.0
H2052 H 0.23441 0.37065 0.34958 0.0
H2053 H 0.1592 0.27057 0.33917 0.0
H2054 H 0.11454 0.29582 0.38057 0.0
H2055 H 0.20783 0.39833 0.4384 0.0
H2056 H 0.2124 0.44351 0.4337 0.0
H2057 H 0.23951 0.41698 0.40536 0.0
H2058 H 0.21699 0.43109 0.35494 0.0
H2059 H 0.19003 0.4579 0.383 0.0
H2060 H 0.16976 0.42246 0.35354 0.0
H2061 H 0.07736 0.33262 0.42404 0.0
H2062 H 0.04905 0.37889 0.45925 0.0
H2063 H 0.14615 0.45642 0.43786 0.0
C2064 C 0.20859 0.35403 0.35618 0.0
C2065 C 0.20042 0.31848 0.34102 0.0
C2066 C 0.16612 0.29785 0.35016 0.0
C2067 C 0.1406 0.31195 0.37391 0.0
C2068 C 0.1493 0.3471 0.38821 0.0
C2069 C 0.18234 0.36802 0.37928 0.0
C2070 C 0.18398 0.40564 0.39641 0.0
C2071 C 0.21263 0.41676 0.41986 0.0
C2072 C 0.19057 0.43075 0.37042 0.0
C2073 C 0.14672 0.40272 0.41612 0.0
C2074 C 0.12736 0.36856 0.41165 0.0
C2075 C 0.09236 0.35945 0.42757 0.0
C2076 C 0.07647 0.38592 0.4478 0.0
C2077 C 0.09515 0.42144 0.45156 0.0
C2078 C 0.13098 0.42959 0.43564 0.0
H2079 H 0.39034 0.23686 0.70968 0.0
H2080 H 0.28781 0.17262 0.68845 0.0
H2081 H 0.31802 0.13472 0.6439 0.0
H2082 H 0.43843 0.22835 0.62366 0.0
H2083 H 0.47891 0.22514 0.63693 0.0
H2084 H 0.44914 0.24948 0.66447 0.0
H2085 H 0.44607 0.21125 0.71027 0.0
H2086 H 0.47558 0.18686 0.68254 0.0
H2087 H 0.4327 0.16419 0.70077 0.0
H2088 H 0.35901 0.10262 0.60236 0.0
H2089 H 0.40706 0.07359 0.5725 0.0
H2090 H 0.48461 0.15453 0.62226 0.0
C2091 C 0.37432 0.21488 0.69548 0.0
C2092 C 0.33649 0.20782 0.70265 0.0
C2093 C 0.31664 0.17853 0.68372 0.0
C2094 C 0.33365 0.15699 0.65809 0.0
C2095 C 0.37084 0.16445 0.65175 0.0
C2096 C 0.39104 0.19233 0.67026 0.0
C2097 C 0.43065 0.19243 0.66024 0.0
C2098 C 0.45046 0.22586 0.64546 0.0
C2099 C 0.44722 0.18844 0.69024 0.0
C2100 C 0.42955 0.16007 0.63349 0.0
C2101 C 0.39467 0.14493 0.62858 0.0
C2102 C 0.38636 0.11443 0.60591 0.0
C2103 C 0.41397 0.09823 0.58876 0.0
C2104 C 0.44985 0.11209 0.59414 0.0
C2105 C 0.45773 0.14388 0.61656 0.0
H2106 H 0.85892 0.35572 0.73894 0.0
H2107 H 0.79576 0.28354 0.66842 0.0
H2108 H 0.83587 0.30987 0.62144 0.0
H2109 H 0.87009 0.42859 0.69717 0.0
H2110 H 0.91436 0.44823 0.70722 0.0
H2111 H 0.88338 0.42077 0.7345 0.0
H2112 H 0.92865 0.38187 0.72946 0.0
H2113 H 0.95994 0.40839 0.70155 0.0
H2114 H 0.94591 0.36185 0.68878 0.0
H2115 H 0.88323 0.34554 0.5821 0.0
H2116 H 0.92835 0.39182 0.55513 0.0
H2117 H 0.95631 0.4425 0.65249 0.0
C2118 C 0.85402 0.3451 0.71353 0.0
C2119 C 0.8247 0.31748 0.70705 0.0
C2120 C 0.81829 0.30475 0.67368 0.0
C2121 C 0.84102 0.31937 0.64691 0.0
C2122 C 0.86969 0.34692 0.65409 0.0
C2123 C 0.87587 0.35992 0.68668 0.0
C2124 C 0.90595 0.392 0.68813 0.0
C2125 C 0.89264 0.4243 0.70791 0.0
C2126 C 0.93696 0.3856 0.70284 0.0
C2127 C 0.9159 0.39498 0.65134 0.0
C2128 C 0.89521 0.36849 0.6319 0.0
C2129 C 0.89959 0.3664 0.5971 0.0
C2130 C 0.92529 0.39257 0.58196 0.0
C2131 C 0.94548 0.4206 0.60183 0.0
C2132 C 0.94102 0.42135 0.63678 0.0
H2133 H 0.17931 0.69279 0.74407 0.0
H2134 H 0.27835 0.69074 0.67737 0.0
H2135 H 0.24447 0.65455 0.63291 0.0
H2136 H 0.13481 0.60289 0.71577 0.0
H2137 H 0.09189 0.61377 0.72032 0.0
H2138 H 0.12424 0.63864 0.74681 0.0
H2139 H 0.1195 0.69593 0.72787 0.0
H2140 H 0.08736 0.6712 0.70114 0.0
H2141 H 0.1273 0.6995 0.68391 0.0
H2142 H 0.19851 0.6206 0.59432 0.0
H2143 H 0.14561 0.58949 0.56693 0.0
H2144 H 0.07723 0.61249 0.65975 0.0
C2145 C 0.194 0.68462 0.72021 0.0
C2146 C 0.23166 0.69475 0.71437 0.0
C2147 C 0.24961 0.68322 0.68268 0.0
C2148 C 0.23053 0.66273 0.65716 0.0
C2149 C 0.19341 0.65354 0.66368 0.0
C2150 C 0.17541 0.66384 0.69462 0.0
C2151 C 0.13549 0.65046 0.69541 0.0
C2152 C 0.12075 0.62492 0.7211 0.0
C2153 C 0.11629 0.6811 0.7025 0.0
C2154 C 0.13369 0.63153 0.65995 0.0
C2155 C 0.16732 0.63359 0.64194 0.0
C2156 C 0.1721 0.61869 0.60835 0.0
C2157 C 0.14184 0.60116 0.59291 0.0
C2158 C 0.10709 0.59837 0.61103 0.0
C2159 C 0.10329 0.61387 0.64506 0.0
loop_
_geom_bond_atom_site_label_1
_geom_bond_atom_site_label_2
_geom_bond_distance
_geom_bond_site_symmetry_2
_ccdc_geom_bond_type
Tb0 N29 2.617 . S
Tb0 N35 2.572 . S
Tb0 O44 2.465 . S
Tb0 O45 2.387 . S
Tb0 O47 2.428 . S
Tb0 O48 2.308 . S
Tb0 O52 2.349 . S
Tb0 O55 2.393 . S
Tb0 C64 2.802 . S
C1 N2 1.379 . S
C1 C4 1.416 . S
C1 C8 1.424 . S
N2 C1 1.379 . S
N2 C5 1.334 . S
N2 Tb11 2.617 . S
C3 C5 1.390 . S
C3 C6 1.339 . S
C3 H23 0.930 . S
C4 C1 1.416 . S
C4 C6 1.416 . S
C4 C10 1.448 . S
C5 N2 1.334 . S
C5 C3 1.390 . S
C5 H16 0.930 . S
C6 C3 1.339 . S
C6 C4 1.416 . S
C6 H27 0.930 . S
C7 C8 1.413 . S
C7 C9 1.427 . S
C7 C13 1.416 . S
C8 C1 1.424 . S
C8 C7 1.413 . S
C8 N12 1.361 . S
C9 C7 1.427 . S
C9 C10 1.328 . S
C9 H24 0.929 . S
C10 C4 1.448 . S
C10 C9 1.328 . S
C10 H25 0.930 . S
Tb11 N2 2.617 . S
Tb11 N12 2.572 . S
Tb11 O46 2.349 . S
Tb11 O49 2.393 . S
Tb11 O50 2.465 . S
Tb11 O51 2.387 . S
Tb11 O53 2.428 . S
Tb11 O54 2.308 . S
Tb11 C75 2.802 . S
N12 C8 1.361 . S
N12 Tb11 2.572 . S
N12 C14 1.340 . S
C13 C7 1.416 . S
C13 C15 1.332 . S
C13 H21 0.931 . S
C14 N12 1.340 . S
C14 C15 1.407 . S
C14 H20 0.930 . S
C15 C13 1.332 . S
C15 C14 1.407 . S
C15 H17 0.929 . S
H16 C5 0.930 . S
H17 C15 0.929 . S
H18 C33 0.930 . S
H19 C40 0.929 . S
H20 C14 0.930 . S
H21 C13 0.931 . S
H22 C36 0.930 . S
H23 C3 0.930 . S
H24 C9 0.929 . S
H25 C10 0.930 . S
H26 C31 0.930 . S
H27 C6 0.930 . S
H28 C39 0.931 . S
N29 Tb0 2.617 . S
N29 C30 1.379 . S
N29 C33 1.334 . S
C30 N29 1.379 . S
C30 C32 1.416 . S
C30 C38 1.424 . S
C31 H26 0.930 . S
C31 C33 1.390 . S
C31 C34 1.339 . S
C32 C30 1.416 . S
C32 C34 1.416 . S
C32 C65 1.448 . S
C33 H18 0.930 . S
C33 N29 1.334 . S
C33 C31 1.390 . S
C34 C31 1.339 . S
C34 C32 1.416 . S
C34 H41 0.930 . S
N35 Tb0 2.572 . S
N35 C36 1.340 . S
N35 C38 1.361 . S
C36 H22 0.930 . S
C36 N35 1.340 . S
C36 C40 1.407 . S
C37 C38 1.413 . S
C37 C39 1.416 . S
C37 C66 1.427 . S
C38 C30 1.424 . S
C38 N35 1.361 . S
C38 C37 1.413 . S
C39 H28 0.931 . S
C39 C37 1.416 . S
C39 C40 1.332 . S
C40 H19 0.929 . S
C40 C36 1.407 . S
C40 C39 1.332 . S
H41 C34 0.930 . S
H42 C65 0.930 . S
H43 C66 0.929 . S
O44 Tb0 2.465 . S
O44 C64 1.264 . S
O45 Tb0 2.387 . S
O45 C56 1.264 . S
O46 Tb11 2.349 . S
O46 C56 1.243 . S
O47 Tb0 2.428 . S
O47 C64 1.256 . S
O48 Tb0 2.308 . S
O48 C63 1.266 . S
O49 Tb11 2.393 . S
O49 C63 1.248 . S
O50 Tb11 2.465 . S
O50 C75 1.264 . S
O51 Tb11 2.387 . S
O51 C67 1.264 . S
O52 Tb0 2.349 . S
O52 C67 1.243 . S
O53 Tb11 2.428 . S
O53 C75 1.256 . S
O54 Tb11 2.308 . S
O54 C74 1.266 . S
O55 Tb0 2.393 . S
O55 C74 1.248 . S
C56 O45 1.264 . S
C56 O46 1.243 . S
C57 C60 1.399 . S
C57 C62 1.383 . S
C57 C64 1.496 . S
C58 C59 1.399 . S
C58 C62 1.389 . S
C59 C58 1.399 . S
C59 C61 1.380 . S
C59 H76 0.929 . S
C60 C57 1.399 . S
C60 C61 1.392 . S
C60 H77 0.929 . S
C61 C59 1.380 . S
C61 C60 1.392 . S
C61 H78 0.929 . S
C62 C57 1.383 . S
C62 C58 1.389 . S
C62 H79 0.931 . S
C63 O48 1.266 . S
C63 O49 1.248 . S
C64 Tb0 2.802 . S
C64 O44 1.264 . S
C64 O47 1.256 . S
C64 C57 1.496 . S
C65 C32 1.448 . S
C65 H42 0.930 . S
C65 C66 1.328 . S
C66 C37 1.427 . S
C66 H43 0.929 . S
C66 C65 1.328 . S
C67 O51 1.264 . S
C67 O52 1.243 . S
C68 C71 1.399 . S
C68 C72 1.383 . S
C68 C75 1.496 . S
C69 C70 1.399 . S
C69 C72 1.389 . S
C70 C69 1.399 . S
C70 C73 1.380 . S
C70 H80 0.929 . S
C71 C68 1.399 . S
C71 C73 1.392 . S
C71 H81 0.929 . S
C72 C68 1.383 . S
C72 C69 1.389 . S
C72 H82 0.931 . S
C73 C70 1.380 . S
C73 C71 1.392 . S
C73 H83 0.929 . S
C74 O54 1.266 . S
C74 O55 1.248 . S
C75 Tb11 2.802 . S
C75 O50 1.264 . S
C75 O53 1.256 . S
C75 C68 1.496 . S
H76 C59 0.929 . S
H77 C60 0.929 . S
H78 C61 0.929 . S
H79 C62 0.931 . S
H80 C70 0.929 . S
H81 C71 0.929 . S
H82 C72 0.931 . S
H83 C73 0.929 . S
Tb84 N113 2.617 . S
Tb84 N119 2.572 . S
Tb84 O128 2.465 . S
Tb84 O129 2.387 . S
Tb84 O131 2.428 . S
Tb84 O132 2.308 . S
Tb84 O136 2.349 . S
Tb84 O139 2.393 . S
Tb84 C148 2.802 . S
C85 N86 1.379 . S
C85 C88 1.416 . S
C85 C92 1.424 . S
N86 C85 1.379 . S
N86 C89 1.334 . S
N86 Tb95 2.617 . S
C87 C89 1.390 . S
C87 C90 1.339 . S
C87 H107 0.930 . S
C88 C85 1.416 . S
C88 C90 1.416 . S
C88 C94 1.448 . S
C89 N86 1.334 . S
C89 C87 1.390 . S
C89 H100 0.930 . S
C90 C87 1.339 . S
C90 C88 1.416 . S
C90 H111 0.930 . S
C91 C92 1.413 . S
C91 C93 1.427 . S
C91 C97 1.416 . S
C92 C85 1.424 . S
C92 C91 1.413 . S
C92 N96 1.361 . S
C93 C91 1.427 . S
C93 C94 1.328 . S
C93 H108 0.929 . S
C94 C88 1.448 . S
C94 C93 1.328 . S
C94 H109 0.930 . S
Tb95 N86 2.617 . S
Tb95 N96 2.572 . S
Tb95 O130 2.349 . S
Tb95 O133 2.393 . S
Tb95 O134 2.465 . S
Tb95 O135 2.387 . S
Tb95 O137 2.428 . S
Tb95 O138 2.308 . S
Tb95 C159 2.802 . S
N96 C92 1.361 . S
N96 Tb95 2.572 . S
N96 C98 1.340 . S
C97 C91 1.416 . S
C97 C99 1.332 . S
C97 H105 0.931 . S
C98 N96 1.340 . S
C98 C99 1.407 . S
C98 H104 0.930 . S
C99 C97 1.332 . S
C99 C98 1.407 . S
C99 H101 0.929 . S
H100 C89 0.930 . S
H101 C99 0.929 . S
H102 C117 0.930 . S
H103 C124 0.929 . S
H104 C98 0.930 . S
H105 C97 0.931 . S
H106 C120 0.930 . S
H107 C87 0.930 . S
H108 C93 0.929 . S
H109 C94 0.930 . S
H110 C115 0.930 . S
H111 C90 0.930 . S
H112 C123 0.931 . S
N113 Tb84 2.617 . S
N113 C114 1.379 . S
N113 C117 1.334 . S
C114 N113 1.379 . S
C114 C116 1.416 . S
C114 C122 1.424 . S
C115 H110 0.930 . S
C115 C117 1.390 . S
C115 C118 1.339 . S
C116 C114 1.416 . S
C116 C118 1.416 . S
C116 C149 1.448 . S
C117 H102 0.930 . S
C117 N113 1.334 . S
C117 C115 1.390 . S
C118 C115 1.339 . S
C118 C116 1.416 . S
C118 H125 0.930 . S
N119 Tb84 2.572 . S
N119 C120 1.340 . S
N119 C122 1.361 . S
C120 H106 0.930 . S
C120 N119 1.340 . S
C120 C124 1.407 . S
C121 C122 1.413 . S
C121 C123 1.416 . S
C121 C150 1.427 . S
C122 C114 1.424 . S
C122 N119 1.361 . S
C122 C121 1.413 . S
C123 H112 0.931 . S
C123 C121 1.416 . S
C123 C124 1.332 . S
C124 H103 0.929 . S
C124 C120 1.407 . S
C124 C123 1.332 . S
H125 C118 0.930 . S
H126 C149 0.930 . S
H127 C150 0.929 . S
O128 Tb84 2.465 . S
O128 C148 1.264 . S
O129 Tb84 2.387 . S
O129 C140 1.264 . S
O130 Tb95 2.349 . S
O130 C140 1.243 . S
O131 Tb84 2.428 . S
O131 C148 1.256 . S
O132 Tb84 2.308 . S
O132 C147 1.266 . S
O133 Tb95 2.393 . S
O133 C147 1.248 . S
O134 Tb95 2.465 . S
O134 C159 1.264 . S
O135 Tb95 2.387 . S
O135 C151 1.264 . S
O136 Tb84 2.349 . S
O136 C151 1.243 . S
O137 Tb95 2.428 . S
O137 C159 1.256 . S
O138 Tb95 2.308 . S
O138 C158 1.266 . S
O139 Tb84 2.393 . S
O139 C158 1.248 . S
C140 O129 1.264 . S
C140 O130 1.243 . S
C141 C144 1.399 . S
C141 C146 1.383 . S
C141 C148 1.496 . S
C142 C143 1.399 . S
C142 C146 1.389 . S
C143 C142 1.399 . S
C143 C145 1.380 . S
C143 H160 0.929 . S
C144 C141 1.399 . S
C144 C145 1.392 . S
C144 H161 0.929 . S
C145 C143 1.380 . S
C145 C144 1.392 . S
C145 H162 0.929 . S
C146 C141 1.383 . S
C146 C142 1.389 . S
C146 H163 0.931 . S
C147 O132 1.266 . S
C147 O133 1.248 . S
C148 Tb84 2.802 . S
C148 O128 1.264 . S
C148 O131 1.256 . S
C148 C141 1.496 . S
C149 C116 1.448 . S
C149 H126 0.930 . S
C149 C150 1.328 . S
C150 C121 1.427 . S
C150 H127 0.929 . S
C150 C149 1.328 . S
C151 O135 1.264 . S
C151 O136 1.243 . S
C152 C155 1.399 . S
C152 C156 1.383 . S
C152 C159 1.496 . S
C153 C154 1.399 . S
C153 C156 1.389 . S
C154 C153 1.399 . S
C154 C157 1.380 . S
C154 H164 0.929 . S
C155 C152 1.399 . S
C155 C157 1.392 . S
C155 H165 0.929 . S
C156 C152 1.383 . S
C156 C153 1.389 . S
C156 H166 0.931 . S
C157 C154 1.380 . S
C157 C155 1.392 . S
C157 H167 0.929 . S
C158 O138 1.266 . S
C158 O139 1.248 . S
C159 Tb95 2.802 . S
C159 O134 1.264 . S
C159 O137 1.256 . S
C159 C152 1.496 . S
H160 C143 0.929 . S
H161 C144 0.929 . S
H162 C145 0.929 . S
H163 C146 0.931 . S
H164 C154 0.929 . S
H165 C155 0.929 . S
H166 C156 0.931 . S
H167 C157 0.929 . S
Tb168 N197 2.617 . S
Tb168 N203 2.572 . S
Tb168 O212 2.465 . S
Tb168 O213 2.387 . S
Tb168 O215 2.428 . S
Tb168 O216 2.308 . S
Tb168 O220 2.349 . S
Tb168 O223 2.393 . S
Tb168 C232 2.802 . S
C169 N170 1.379 . S
C169 C172 1.416 . S
C169 C176 1.424 . S
N170 C169 1.379 . S
N170 C173 1.334 . S
N170 Tb179 2.617 . S
C171 C173 1.390 . S
C171 C174 1.339 . S
C171 H191 0.930 . S
C172 C169 1.416 . S
C172 C174 1.416 . S
C172 C178 1.448 . S
C173 N170 1.334 . S
C173 C171 1.390 . S
C173 H184 0.930 . S
C174 C171 1.339 . S
C174 C172 1.416 . S
C174 H195 0.930 . S
C175 C176 1.413 . S
C175 C177 1.427 . S
C175 C181 1.416 . S
C176 C169 1.424 . S
C176 C175 1.413 . S
C176 N180 1.361 . S
C177 C175 1.427 . S
C177 C178 1.328 . S
C177 H192 0.929 . S
C178 C172 1.448 . S
C178 C177 1.328 . S
C178 H193 0.930 . S
Tb179 N170 2.617 . S
Tb179 N180 2.572 . S
Tb179 O214 2.349 . S
Tb179 O217 2.393 . S
Tb179 O218 2.465 . S
Tb179 O219 2.387 . S
Tb179 O221 2.428 . S
Tb179 O222 2.308 . S
Tb179 C243 2.802 . S
N180 C176 1.361 . S
N180 Tb179 2.572 . S
N180 C182 1.340 . S
C181 C175 1.416 . S
C181 C183 1.332 . S
C181 H189 0.931 . S
C182 N180 1.340 . S
C182 C183 1.407 . S
C182 H188 0.930 . S
C183 C181 1.332 . S
C183 C182 1.407 . S
C183 H185 0.929 . S
H184 C173 0.930 . S
H185 C183 0.929 . S
H186 C201 0.930 . S
H187 C208 0.929 . S
H188 C182 0.930 . S
H189 C181 0.931 . S
H190 C204 0.930 . S
H191 C171 0.930 . S
H192 C177 0.929 . S
H193 C178 0.930 . S
H194 C199 0.930 . S
H195 C174 0.930 . S
H196 C207 0.931 . S
N197 Tb168 2.617 . S
N197 C198 1.379 . S
N197 C201 1.334 . S
C198 N197 1.379 . S
C198 C200 1.416 . S
C198 C206 1.424 . S
C199 H194 0.930 . S
C199 C201 1.390 . S
C199 C202 1.339 . S
C200 C198 1.416 . S
C200 C202 1.416 . S
C200 C233 1.448 . S
C201 H186 0.930 . S
C201 N197 1.334 . S
C201 C199 1.390 . S
C202 C199 1.339 . S
C202 C200 1.416 . S
C202 H209 0.930 . S
N203 Tb168 2.572 . S
N203 C204 1.340 . S
N203 C206 1.361 . S
C204 H190 0.930 . S
C204 N203 1.340 . S
C204 C208 1.407 . S
C205 C206 1.413 . S
C205 C207 1.416 . S
C205 C234 1.427 . S
C206 C198 1.424 . S
C206 N203 1.361 . S
C206 C205 1.413 . S
C207 H196 0.931 . S
C207 C205 1.416 . S
C207 C208 1.332 . S
C208 H187 0.929 . S
C208 C204 1.407 . S
C208 C207 1.332 . S
H209 C202 0.930 . S
H210 C233 0.930 . S
H211 C234 0.929 . S
O212 Tb168 2.465 . S
O212 C232 1.264 . S
O213 Tb168 2.387 . S
O213 C224 1.264 . S
O214 Tb179 2.349 . S
O214 C224 1.243 . S
O215 Tb168 2.428 . S
O215 C232 1.256 . S
O216 Tb168 2.308 . S
O216 C231 1.266 . S
O217 Tb179 2.393 . S
O217 C231 1.248 . S
O218 Tb179 2.465 . S
O218 C243 1.264 . S
O219 Tb179 2.387 . S
O219 C235 1.264 . S
O220 Tb168 2.349 . S
O220 C235 1.243 . S
O221 Tb179 2.428 . S
O221 C243 1.256 . S
O222 Tb179 2.308 . S
O222 C242 1.266 . S
O223 Tb168 2.393 . S
O223 C242 1.248 . S
C224 O213 1.264 . S
C224 O214 1.243 . S
C225 C228 1.399 . S
C225 C230 1.383 . S
C225 C232 1.496 . S
C226 C227 1.399 . S
C226 C230 1.389 . S
C227 C226 1.399 . S
C227 C229 1.380 . S
C227 H244 0.929 . S
C228 C225 1.399 . S
C228 C229 1.392 . S
C228 H245 0.929 . S
C229 C227 1.380 . S
C229 C228 1.392 . S
C229 H246 0.929 . S
C230 C225 1.383 . S
C230 C226 1.389 . S
C230 H247 0.931 . S
C231 O216 1.266 . S
C231 O217 1.248 . S
C232 Tb168 2.802 . S
C232 O212 1.264 . S
C232 O215 1.256 . S
C232 C225 1.496 . S
C233 C200 1.448 . S
C233 H210 0.930 . S
C233 C234 1.328 . S
C234 C205 1.427 . S
C234 H211 0.929 . S
C234 C233 1.328 . S
C235 O219 1.264 . S
C235 O220 1.243 . S
C236 C239 1.399 . S
C236 C240 1.383 . S
C236 C243 1.496 . S
C237 C238 1.399 . S
C237 C240 1.389 . S
C238 C237 1.399 . S
C238 C241 1.380 . S
C238 H248 0.929 . S
C239 C236 1.399 . S
C239 C241 1.392 . S
C239 H249 0.929 . S
C240 C236 1.383 . S
C240 C237 1.389 . S
C240 H250 0.931 . S
C241 C238 1.380 . S
C241 C239 1.392 . S
C241 H251 0.929 . S
C242 O222 1.266 . S
C242 O223 1.248 . S
C243 Tb179 2.802 . S
C243 O218 1.264 . S
C243 O221 1.256 . S
C243 C236 1.496 . S
H244 C227 0.929 . S
H245 C228 0.929 . S
H246 C229 0.929 . S
H247 C230 0.931 . S
H248 C238 0.929 . S
H249 C239 0.929 . S
H250 C240 0.931 . S
H251 C241 0.929 . S
Tb252 N281 2.617 . S
Tb252 N287 2.572 . S
Tb252 O296 2.465 . S
Tb252 O297 2.387 . S
Tb252 O299 2.428 . S
Tb252 O300 2.308 . S
Tb252 O304 2.349 . S
Tb252 O307 2.393 . S
Tb252 C316 2.802 . S
C253 N254 1.379 . S
C253 C256 1.416 . S
C253 C260 1.424 . S
N254 C253 1.379 . S
N254 C257 1.334 . S
N254 Tb263 2.617 . S
C255 C257 1.390 . S
C255 C258 1.339 . S
C255 H275 0.930 . S
C256 C253 1.416 . S
C256 C258 1.416 . S
C256 C262 1.448 . S
C257 N254 1.334 . S
C257 C255 1.390 . S
C257 H268 0.930 . S
C258 C255 1.339 . S
C258 C256 1.416 . S
C258 H279 0.930 . S
C259 C260 1.413 . S
C259 C261 1.427 . S
C259 C265 1.416 . S
C260 C253 1.424 . S
C260 C259 1.413 . S
C260 N264 1.361 . S
C261 C259 1.427 . S
C261 C262 1.328 . S
C261 H276 0.929 . S
C262 C256 1.448 . S
C262 C261 1.328 . S
C262 H277 0.930 . S
Tb263 N254 2.617 . S
Tb263 N264 2.572 . S
Tb263 O298 2.349 . S
Tb263 O301 2.393 . S
Tb263 O302 2.465 . S
Tb263 O303 2.387 . S
Tb263 O305 2.428 . S
Tb263 O306 2.308 . S
Tb263 C327 2.802 . S
N264 C260 1.361 . S
N264 Tb263 2.572 . S
N264 C266 1.340 . S
C265 C259 1.416 . S
C265 C267 1.332 . S
C265 H273 0.931 . S
C266 N264 1.340 . S
C266 C267 1.407 . S
C266 H272 0.930 . S
C267 C265 1.332 . S
C267 C266 1.407 . S
C267 H269 0.929 . S
H268 C257 0.930 . S
H269 C267 0.929 . S
H270 C285 0.930 . S
H271 C292 0.929 . S
H272 C266 0.930 . S
H273 C265 0.931 . S
H274 C288 0.930 . S
H275 C255 0.930 . S
H276 C261 0.929 . S
H277 C262 0.930 . S
H278 C283 0.930 . S
H279 C258 0.930 . S
H280 C291 0.931 . S
N281 Tb252 2.617 . S
N281 C282 1.379 . S
N281 C285 1.334 . S
C282 N281 1.379 . S
C282 C284 1.416 . S
C282 C290 1.424 . S
C283 H278 0.930 . S
C283 C285 1.390 . S
C283 C286 1.339 . S
C284 C282 1.416 . S
C284 C286 1.416 . S
C284 C317 1.448 . S
C285 H270 0.930 . S
C285 N281 1.334 . S
C285 C283 1.390 . S
C286 C283 1.339 . S
C286 C284 1.416 . S
C286 H293 0.930 . S
N287 Tb252 2.572 . S
N287 C288 1.340 . S
N287 C290 1.361 . S
C288 H274 0.930 . S
C288 N287 1.340 . S
C288 C292 1.407 . S
C289 C290 1.413 . S
C289 C291 1.416 . S
C289 C318 1.427 . S
C290 C282 1.424 . S
C290 N287 1.361 . S
C290 C289 1.413 . S
C291 H280 0.931 . S
C291 C289 1.416 . S
C291 C292 1.332 . S
C292 H271 0.929 . S
C292 C288 1.407 . S
C292 C291 1.332 . S
H293 C286 0.930 . S
H294 C317 0.930 . S
H295 C318 0.929 . S
O296 Tb252 2.465 . S
O296 C316 1.264 . S
O297 Tb252 2.387 . S
O297 C308 1.264 . S
O298 Tb263 2.349 . S
O298 C308 1.243 . S
O299 Tb252 2.428 . S
O299 C316 1.256 . S
O300 Tb252 2.308 . S
O300 C315 1.266 . S
O301 Tb263 2.393 . S
O301 C315 1.248 . S
O302 Tb263 2.465 . S
O302 C327 1.264 . S
O303 Tb263 2.387 . S
O303 C319 1.264 . S
O304 Tb252 2.349 . S
O304 C319 1.243 . S
O305 Tb263 2.428 . S
O305 C327 1.256 . S
O306 Tb263 2.308 . S
O306 C326 1.266 . S
O307 Tb252 2.393 . S
O307 C326 1.248 . S
C308 O297 1.264 . S
C308 O298 1.243 . S
C309 C312 1.399 . S
C309 C314 1.383 . S
C309 C316 1.496 . S
C310 C311 1.399 . S
C310 C314 1.389 . S
C311 C310 1.399 . S
C311 C313 1.380 . S
C311 H328 0.929 . S
C312 C309 1.399 . S
C312 C313 1.392 . S
C312 H329 0.929 . S
C313 C311 1.380 . S
C313 C312 1.392 . S
C313 H330 0.929 . S
C314 C309 1.383 . S
C314 C310 1.389 . S
C314 H331 0.931 . S
C315 O300 1.266 . S
C315 O301 1.248 . S
C316 Tb252 2.802 . S
C316 O296 1.264 . S
C316 O299 1.256 . S
C316 C309 1.496 . S
C317 C284 1.448 . S
C317 H294 0.930 . S
C317 C318 1.328 . S
C318 C289 1.427 . S
C318 H295 0.929 . S
C318 C317 1.328 . S
C319 O303 1.264 . S
C319 O304 1.243 . S
C320 C323 1.399 . S
C320 C324 1.383 . S
C320 C327 1.496 . S
C321 C322 1.399 . S
C321 C324 1.389 . S
C322 C321 1.399 . S
C322 C325 1.380 . S
C322 H332 0.929 . S
C323 C320 1.399 . S
C323 C325 1.392 . S
C323 H333 0.929 . S
C324 C320 1.383 . S
C324 C321 1.389 . S
C324 H334 0.931 . S
C325 C322 1.380 . S
C325 C323 1.392 . S
C325 H335 0.929 . S
C326 O306 1.266 . S
C326 O307 1.248 . S
C327 Tb263 2.802 . S
C327 O302 1.264 . S
C327 O305 1.256 . S
C327 C320 1.496 . S
H328 C311 0.929 . S
H329 C312 0.929 . S
H330 C313 0.929 . S
H331 C314 0.931 . S
H332 C322 0.929 . S
H333 C323 0.929 . S
H334 C324 0.931 . S
H335 C325 0.929 . S
Tb336 N365 2.617 . S
Tb336 N371 2.572 . S
Tb336 O380 2.465 . S
Tb336 O381 2.387 . S
Tb336 O383 2.428 . S
Tb336 O384 2.308 . S
Tb336 O388 2.349 . S
Tb336 O391 2.393 . S
Tb336 C400 2.802 . S
C337 N338 1.379 . S
C337 C340 1.416 . S
C337 C344 1.424 . S
N338 C337 1.379 . S
N338 C341 1.334 . S
N338 Tb347 2.617 . S
C339 C341 1.390 . S
C339 C342 1.339 . S
C339 H359 0.930 . S
C340 C337 1.416 . S
C340 C342 1.416 . S
C340 C346 1.448 . S
C341 N338 1.334 . S
C341 C339 1.390 . S
C341 H352 0.930 . S
C342 C339 1.339 . S
C342 C340 1.416 . S
C342 H363 0.930 . S
C343 C344 1.413 . S
C343 C345 1.427 . S
C343 C349 1.416 . S
C344 C337 1.424 . S
C344 C343 1.413 . S
C344 N348 1.361 . S
C345 C343 1.427 . S
C345 C346 1.328 . S
C345 H360 0.929 . S
C346 C340 1.448 . S
C346 C345 1.328 . S
C346 H361 0.930 . S
Tb347 N338 2.617 . S
Tb347 N348 2.572 . S
Tb347 O382 2.349 . S
Tb347 O385 2.393 . S
Tb347 O386 2.465 . S
Tb347 O387 2.387 . S
Tb347 O389 2.428 . S
Tb347 O390 2.308 . S
Tb347 C411 2.802 . S
N348 C344 1.361 . S
N348 Tb347 2.572 . S
N348 C350 1.340 . S
C349 C343 1.416 . S
C349 C351 1.332 . S
C349 H357 0.931 . S
C350 N348 1.340 . S
C350 C351 1.407 . S
C350 H356 0.930 . S
C351 C349 1.332 . S
C351 C350 1.407 . S
C351 H353 0.929 . S
H352 C341 0.930 . S
H353 C351 0.929 . S
H354 C369 0.930 . S
H355 C376 0.929 . S
H356 C350 0.930 . S
H357 C349 0.931 . S
H358 C372 0.930 . S
H359 C339 0.930 . S
H360 C345 0.929 . S
H361 C346 0.930 . S
H362 C367 0.930 . S
H363 C342 0.930 . S
H364 C375 0.931 . S
N365 Tb336 2.617 . S
N365 C366 1.379 . S
N365 C369 1.334 . S
C366 N365 1.379 . S
C366 C368 1.416 . S
C366 C374 1.424 . S
C367 H362 0.930 . S
C367 C369 1.390 . S
C367 C370 1.339 . S
C368 C366 1.416 . S
C368 C370 1.416 . S
C368 C401 1.448 . S
C369 H354 0.930 . S
C369 N365 1.334 . S
C369 C367 1.390 . S
C370 C367 1.339 . S
C370 C368 1.416 . S
C370 H377 0.930 . S
N371 Tb336 2.572 . S
N371 C372 1.340 . S
N371 C374 1.361 . S
C372 H358 0.930 . S
C372 N371 1.340 . S
C372 C376 1.407 . S
C373 C374 1.413 . S
C373 C375 1.416 . S
C373 C402 1.427 . S
C374 C366 1.424 . S
C374 N371 1.361 . S
C374 C373 1.413 . S
C375 H364 0.931 . S
C375 C373 1.416 . S
C375 C376 1.332 . S
C376 H355 0.929 . S
C376 C372 1.407 . S
C376 C375 1.332 . S
H377 C370 0.930 . S
H378 C401 0.930 . S
H379 C402 0.929 . S
O380 Tb336 2.465 . S
O380 C400 1.264 . S
O381 Tb336 2.387 . S
O381 C392 1.264 . S
O382 Tb347 2.349 . S
O382 C392 1.243 . S
O383 Tb336 2.428 . S
O383 C400 1.256 . S
O384 Tb336 2.308 . S
O384 C399 1.266 . S
O385 Tb347 2.393 . S
O385 C399 1.248 . S
O386 Tb347 2.465 . S
O386 C411 1.264 . S
O387 Tb347 2.387 . S
O387 C403 1.264 . S
O388 Tb336 2.349 . S
O388 C403 1.243 . S
O389 Tb347 2.428 . S
O389 C411 1.256 . S
O390 Tb347 2.308 . S
O390 C410 1.266 . S
O391 Tb336 2.393 . S
O391 C410 1.248 . S
C392 O381 1.264 . S
C392 O382 1.243 . S
C393 C396 1.399 . S
C393 C398 1.383 . S
C393 C400 1.496 . S
C394 C395 1.399 . S
C394 C398 1.389 . S
C395 C394 1.399 . S
C395 C397 1.380 . S
C395 H412 0.929 . S
C396 C393 1.399 . S
C396 C397 1.392 . S
C396 H413 0.929 . S
C397 C395 1.380 . S
C397 C396 1.392 . S
C397 H414 0.929 . S
C398 C393 1.383 . S
C398 C394 1.389 . S
C398 H415 0.931 . S
C399 O384 1.266 . S
C399 O385 1.248 . S
C400 Tb336 2.802 . S
C400 O380 1.264 . S
C400 O383 1.256 . S
C400 C393 1.496 . S
C401 C368 1.448 . S
C401 H378 0.930 . S
C401 C402 1.328 . S
C402 C373 1.427 . S
C402 H379 0.929 . S
C402 C401 1.328 . S
C403 O387 1.264 . S
C403 O388 1.243 . S
C404 C407 1.399 . S
C404 C408 1.383 . S
C404 C411 1.496 . S
C405 C406 1.399 . S
C405 C408 1.389 . S
C406 C405 1.399 . S
C406 C409 1.380 . S
C406 H416 0.929 . S
C407 C404 1.399 . S
C407 C409 1.392 . S
C407 H417 0.929 . S
C408 C404 1.383 . S
C408 C405 1.389 . S
C408 H418 0.931 . S
C409 C406 1.380 . S
C409 C407 1.392 . S
C409 H419 0.929 . S
C410 O390 1.266 . S
C410 O391 1.248 . S
C411 Tb347 2.802 . S
C411 O386 1.264 . S
C411 O389 1.256 . S
C411 C404 1.496 . S
H412 C395 0.929 . S
H413 C396 0.929 . S
H414 C397 0.929 . S
H415 C398 0.931 . S
H416 C406 0.929 . S
H417 C407 0.929 . S
H418 C408 0.931 . S
H419 C409 0.929 . S
Tb420 N449 2.617 . S
Tb420 N455 2.572 . S
Tb420 O464 2.465 . S
Tb420 O465 2.387 . S
Tb420 O467 2.428 . S
Tb420 O468 2.308 . S
Tb420 O472 2.349 . S
Tb420 O475 2.393 . S
Tb420 C484 2.802 . S
C421 N422 1.379 . S
C421 C424 1.416 . S
C421 C428 1.424 . S
N422 C421 1.379 . S
N422 C425 1.334 . S
N422 Tb431 2.617 . S
C423 C425 1.390 . S
C423 C426 1.339 . S
C423 H443 0.930 . S
C424 C421 1.416 . S
C424 C426 1.416 . S
C424 C430 1.448 . S
C425 N422 1.334 . S
C425 C423 1.390 . S
C425 H436 0.930 . S
C426 C423 1.339 . S
C426 C424 1.416 . S
C426 H447 0.930 . S
C427 C428 1.413 . S
C427 C429 1.427 . S
C427 C433 1.416 . S
C428 C421 1.424 . S
C428 C427 1.413 . S
C428 N432 1.361 . S
C429 C427 1.427 . S
C429 C430 1.328 . S
C429 H444 0.929 . S
C430 C424 1.448 . S
C430 C429 1.328 . S
C430 H445 0.930 . S
Tb431 N422 2.617 . S
Tb431 N432 2.572 . S
Tb431 O466 2.349 . S
Tb431 O469 2.393 . S
Tb431 O470 2.465 . S
Tb431 O471 2.387 . S
Tb431 O473 2.428 . S
Tb431 O474 2.308 . S
Tb431 C495 2.802 . S
N432 C428 1.361 . S
N432 Tb431 2.572 . S
N432 C434 1.340 . S
C433 C427 1.416 . S
C433 C435 1.332 . S
C433 H441 0.931 . S
C434 N432 1.340 . S
C434 C435 1.407 . S
C434 H440 0.930 . S
C435 C433 1.332 . S
C435 C434 1.407 . S
C435 H437 0.929 . S
H436 C425 0.930 . S
H437 C435 0.929 . S
H438 C453 0.930 . S
H439 C460 0.929 . S
H440 C434 0.930 . S
H441 C433 0.931 . S
H442 C456 0.930 . S
H443 C423 0.930 . S
H444 C429 0.929 . S
H445 C430 0.930 . S
H446 C451 0.930 . S
H447 C426 0.930 . S
H448 C459 0.931 . S
N449 Tb420 2.617 . S
N449 C450 1.379 . S
N449 C453 1.334 . S
C450 N449 1.379 . S
C450 C452 1.416 . S
C450 C458 1.424 . S
C451 H446 0.930 . S
C451 C453 1.390 . S
C451 C454 1.339 . S
C452 C450 1.416 . S
C452 C454 1.416 . S
C452 C485 1.448 . S
C453 H438 0.930 . S
C453 N449 1.334 . S
C453 C451 1.390 . S
C454 C451 1.339 . S
C454 C452 1.416 . S
C454 H461 0.930 . S
N455 Tb420 2.572 . S
N455 C456 1.340 . S
N455 C458 1.361 . S
C456 H442 0.930 . S
C456 N455 1.340 . S
C456 C460 1.407 . S
C457 C458 1.413 . S
C457 C459 1.416 . S
C457 C486 1.427 . S
C458 C450 1.424 . S
C458 N455 1.361 . S
C458 C457 1.413 . S
C459 H448 0.931 . S
C459 C457 1.416 . S
C459 C460 1.332 . S
C460 H439 0.929 . S
C460 C456 1.407 . S
C460 C459 1.332 . S
H461 C454 0.930 . S
H462 C485 0.930 . S
H463 C486 0.929 . S
O464 Tb420 2.465 . S
O464 C484 1.264 . S
O465 Tb420 2.387 . S
O465 C476 1.264 . S
O466 Tb431 2.349 . S
O466 C476 1.243 . S
O467 Tb420 2.428 . S
O467 C484 1.256 . S
O468 Tb420 2.308 . S
O468 C483 1.266 . S
O469 Tb431 2.393 . S
O469 C483 1.248 . S
O470 Tb431 2.465 . S
O470 C495 1.264 . S
O471 Tb431 2.387 . S
O471 C487 1.264 . S
O472 Tb420 2.349 . S
O472 C487 1.243 . S
O473 Tb431 2.428 . S
O473 C495 1.256 . S
O474 Tb431 2.308 . S
O474 C494 1.266 . S
O475 Tb420 2.393 . S
O475 C494 1.248 . S
C476 O465 1.264 . S
C476 O466 1.243 . S
C477 C480 1.399 . S
C477 C482 1.383 . S
C477 C484 1.496 . S
C478 C479 1.399 . S
C478 C482 1.389 . S
C479 C478 1.399 . S
C479 C481 1.380 . S
C479 H496 0.929 . S
C480 C477 1.399 . S
C480 C481 1.392 . S
C480 H497 0.929 . S
C481 C479 1.380 . S
C481 C480 1.392 . S
C481 H498 0.929 . S
C482 C477 1.383 . S
C482 C478 1.389 . S
C482 H499 0.931 . S
C483 O468 1.266 . S
C483 O469 1.248 . S
C484 Tb420 2.802 . S
C484 O464 1.264 . S
C484 O467 1.256 . S
C484 C477 1.496 . S
C485 C452 1.448 . S
C485 H462 0.930 . S
C485 C486 1.328 . S
C486 C457 1.427 . S
C486 H463 0.929 . S
C486 C485 1.328 . S
C487 O471 1.264 . S
C487 O472 1.243 . S
C488 C491 1.399 . S
C488 C492 1.383 . S
C488 C495 1.496 . S
C489 C490 1.399 . S
C489 C492 1.389 . S
C490 C489 1.399 . S
C490 C493 1.380 . S
C490 H500 0.929 . S
C491 C488 1.399 . S
C491 C493 1.392 . S
C491 H501 0.929 . S
C492 C488 1.383 . S
C492 C489 1.389 . S
C492 H502 0.931 . S
C493 C490 1.380 . S
C493 C491 1.392 . S
C493 H503 0.929 . S
C494 O474 1.266 . S
C494 O475 1.248 . S
C495 Tb431 2.802 . S
C495 O470 1.264 . S
C495 O473 1.256 . S
C495 C488 1.496 . S
H496 C479 0.929 . S
H497 C480 0.929 . S
H498 C481 0.929 . S
H499 C482 0.931 . S
H500 C490 0.929 . S
H501 C491 0.929 . S
H502 C492 0.931 . S
H503 C493 0.929 . S
Tb504 N533 2.617 . S
Tb504 N539 2.572 . S
Tb504 O548 2.465 . S
Tb504 O549 2.387 . S
Tb504 O551 2.428 . S
Tb504 O552 2.308 . S
Tb504 O556 2.349 . S
Tb504 O559 2.393 . S
Tb504 C568 2.802 . S
C505 N506 1.379 . S
C505 C508 1.416 . S
C505 C512 1.424 . S
N506 C505 1.379 . S
N506 C509 1.334 . S
N506 Tb515 2.617 . S
C507 C509 1.390 . S
C507 C510 1.339 . S
C507 H527 0.930 . S
C508 C505 1.416 . S
C508 C510 1.416 . S
C508 C514 1.448 . S
C509 N506 1.334 . S
C509 C507 1.390 . S
C509 H520 0.930 . S
C510 C507 1.339 . S
C510 C508 1.416 . S
C510 H531 0.930 . S
C511 C512 1.413 . S
C511 C513 1.427 . S
C511 C517 1.416 . S
C512 C505 1.424 . S
C512 C511 1.413 . S
C512 N516 1.361 . S
C513 C511 1.427 . S
C513 C514 1.328 . S
C513 H528 0.929 . S
C514 C508 1.448 . S
C514 C513 1.328 . S
C514 H529 0.930 . S
Tb515 N506 2.617 . S
Tb515 N516 2.572 . S
Tb515 O550 2.349 . S
Tb515 O553 2.393 . S
Tb515 O554 2.465 . S
Tb515 O555 2.387 . S
Tb515 O557 2.428 . S
Tb515 O558 2.308 . S
Tb515 C579 2.802 . S
N516 C512 1.361 . S
N516 Tb515 2.572 . S
N516 C518 1.340 . S
C517 C511 1.416 . S
C517 C519 1.332 . S
C517 H525 0.931 . S
C518 N516 1.340 . S
C518 C519 1.407 . S
C518 H524 0.930 . S
C519 C517 1.332 . S
C519 C518 1.407 . S
C519 H521 0.929 . S
H520 C509 0.930 . S
H521 C519 0.929 . S
H522 C537 0.930 . S
H523 C544 0.929 . S
H524 C518 0.930 . S
H525 C517 0.931 . S
H526 C540 0.930 . S
H527 C507 0.930 . S
H528 C513 0.929 . S
H529 C514 0.930 . S
H530 C535 0.930 . S
H531 C510 0.930 . S
H532 C543 0.931 . S
N533 Tb504 2.617 . S
N533 C534 1.379 . S
N533 C537 1.334 . S
C534 N533 1.379 . S
C534 C536 1.416 . S
C534 C542 1.424 . S
C535 H530 0.930 . S
C535 C537 1.390 . S
C535 C538 1.339 . S
C536 C534 1.416 . S
C536 C538 1.416 . S
C536 C569 1.448 . S
C537 H522 0.930 . S
C537 N533 1.334 . S
C537 C535 1.390 . S
C538 C535 1.339 . S
C538 C536 1.416 . S
C538 H545 0.930 . S
N539 Tb504 2.572 . S
N539 C540 1.340 . S
N539 C542 1.361 . S
C540 H526 0.930 . S
C540 N539 1.340 . S
C540 C544 1.407 . S
C541 C542 1.413 . S
C541 C543 1.416 . S
C541 C570 1.427 . S
C542 C534 1.424 . S
C542 N539 1.361 . S
C542 C541 1.413 . S
C543 H532 0.931 . S
C543 C541 1.416 . S
C543 C544 1.332 . S
C544 H523 0.929 . S
C544 C540 1.407 . S
C544 C543 1.332 . S
H545 C538 0.930 . S
H546 C569 0.930 . S
H547 C570 0.929 . S
O548 Tb504 2.465 . S
O548 C568 1.264 . S
O549 Tb504 2.387 . S
O549 C560 1.264 . S
O550 Tb515 2.349 . S
O550 C560 1.243 . S
O551 Tb504 2.428 . S
O551 C568 1.256 . S
O552 Tb504 2.308 . S
O552 C567 1.266 . S
O553 Tb515 2.393 . S
O553 C567 1.248 . S
O554 Tb515 2.465 . S
O554 C579 1.264 . S
O555 Tb515 2.387 . S
O555 C571 1.264 . S
O556 Tb504 2.349 . S
O556 C571 1.243 . S
O557 Tb515 2.428 . S
O557 C579 1.256 . S
O558 Tb515 2.308 . S
O558 C578 1.266 . S
O559 Tb504 2.393 . S
O559 C578 1.248 . S
C560 O549 1.264 . S
C560 O550 1.243 . S
C561 C564 1.399 . S
C561 C566 1.383 . S
C561 C568 1.496 . S
C562 C563 1.399 . S
C562 C566 1.389 . S
C563 C562 1.399 . S
C563 C565 1.380 . S
C563 H580 0.929 . S
C564 C561 1.399 . S
C564 C565 1.392 . S
C564 H581 0.929 . S
C565 C563 1.380 . S
C565 C564 1.392 . S
C565 H582 0.929 . S
C566 C561 1.383 . S
C566 C562 1.389 . S
C566 H583 0.931 . S
C567 O552 1.266 . S
C567 O553 1.248 . S
C568 Tb504 2.802 . S
C568 O548 1.264 . S
C568 O551 1.256 . S
C568 C561 1.496 . S
C569 C536 1.448 . S
C569 H546 0.930 . S
C569 C570 1.328 . S
C570 C541 1.427 . S
C570 H547 0.929 . S
C570 C569 1.328 . S
C571 O555 1.264 . S
C571 O556 1.243 . S
C572 C575 1.399 . S
C572 C576 1.383 . S
C572 C579 1.496 . S
C573 C574 1.399 . S
C573 C576 1.389 . S
C574 C573 1.399 . S
C574 C577 1.380 . S
C574 H584 0.929 . S
C575 C572 1.399 . S
C575 C577 1.392 . S
C575 H585 0.929 . S
C576 C572 1.383 . S
C576 C573 1.389 . S
C576 H586 0.931 . S
C577 C574 1.380 . S
C577 C575 1.392 . S
C577 H587 0.929 . S
C578 O558 1.266 . S
C578 O559 1.248 . S
C579 Tb515 2.802 . S
C579 O554 1.264 . S
C579 O557 1.256 . S
C579 C572 1.496 . S
H580 C563 0.929 . S
H581 C564 0.929 . S
H582 C565 0.929 . S
H583 C566 0.931 . S
H584 C574 0.929 . S
H585 C575 0.929 . S
H586 C576 0.931 . S
H587 C577 0.929 . S
Tb588 N617 2.617 . S
Tb588 N623 2.572 . S
Tb588 O632 2.465 . S
Tb588 O633 2.387 . S
Tb588 O635 2.428 . S
Tb588 O636 2.308 . S
Tb588 O640 2.349 . S
Tb588 O643 2.393 . S
Tb588 C652 2.802 . S
C589 N590 1.379 . S
C589 C592 1.416 . S
C589 C596 1.424 . S
N590 C589 1.379 . S
N590 C593 1.334 . S
N590 Tb599 2.617 . S
C591 C593 1.390 . S
C591 C594 1.339 . S
C591 H611 0.930 . S
C592 C589 1.416 . S
C592 C594 1.416 . S
C592 C598 1.448 . S
C593 N590 1.334 . S
C593 C591 1.390 . S
C593 H604 0.930 . S
C594 C591 1.339 . S
C594 C592 1.416 . S
C594 H615 0.930 . S
C595 C596 1.413 . S
C595 C597 1.427 . S
C595 C601 1.416 . S
C596 C589 1.424 . S
C596 C595 1.413 . S
C596 N600 1.361 . S
C597 C595 1.427 . S
C597 C598 1.328 . S
C597 H612 0.929 . S
C598 C592 1.448 . S
C598 C597 1.328 . S
C598 H613 0.930 . S
Tb599 N590 2.617 . S
Tb599 N600 2.572 . S
Tb599 O634 2.349 . S
Tb599 O637 2.393 . S
Tb599 O638 2.465 . S
Tb599 O639 2.387 . S
Tb599 O641 2.428 . S
Tb599 O642 2.308 . S
Tb599 C663 2.802 . S
N600 C596 1.361 . S
N600 Tb599 2.572 . S
N600 C602 1.340 . S
C601 C595 1.416 . S
C601 C603 1.332 . S
C601 H609 0.931 . S
C602 N600 1.340 . S
C602 C603 1.407 . S
C602 H608 0.930 . S
C603 C601 1.332 . S
C603 C602 1.407 . S
C603 H605 0.929 . S
H604 C593 0.930 . S
H605 C603 0.929 . S
H606 C621 0.930 . S
H607 C628 0.929 . S
H608 C602 0.930 . S
H609 C601 0.931 . S
H610 C624 0.930 . S
H611 C591 0.930 . S
H612 C597 0.929 . S
H613 C598 0.930 . S
H614 C619 0.930 . S
H615 C594 0.930 . S
H616 C627 0.931 . S
N617 Tb588 2.617 . S
N617 C618 1.379 . S
N617 C621 1.334 . S
C618 N617 1.379 . S
C618 C620 1.416 . S
C618 C626 1.424 . S
C619 H614 0.930 . S
C619 C621 1.390 . S
C619 C622 1.339 . S
C620 C618 1.416 . S
C620 C622 1.416 . S
C620 C653 1.448 . S
C621 H606 0.930 . S
C621 N617 1.334 . S
C621 C619 1.390 . S
C622 C619 1.339 . S
C622 C620 1.416 . S
C622 H629 0.930 . S
N623 Tb588 2.572 . S
N623 C624 1.340 . S
N623 C626 1.361 . S
C624 H610 0.930 . S
C624 N623 1.340 . S
C624 C628 1.407 . S
C625 C626 1.413 . S
C625 C627 1.416 . S
C625 C654 1.427 . S
C626 C618 1.424 . S
C626 N623 1.361 . S
C626 C625 1.413 . S
C627 H616 0.931 . S
C627 C625 1.416 . S
C627 C628 1.332 . S
C628 H607 0.929 . S
C628 C624 1.407 . S
C628 C627 1.332 . S
H629 C622 0.930 . S
H630 C653 0.930 . S
H631 C654 0.929 . S
O632 Tb588 2.465 . S
O632 C652 1.264 . S
O633 Tb588 2.387 . S
O633 C644 1.264 . S
O634 Tb599 2.349 . S
O634 C644 1.243 . S
O635 Tb588 2.428 . S
O635 C652 1.256 . S
O636 Tb588 2.308 . S
O636 C651 1.266 . S
O637 Tb599 2.393 . S
O637 C651 1.248 . S
O638 Tb599 2.465 . S
O638 C663 1.264 . S
O639 Tb599 2.387 . S
O639 C655 1.264 . S
O640 Tb588 2.349 . S
O640 C655 1.243 . S
O641 Tb599 2.428 . S
O641 C663 1.256 . S
O642 Tb599 2.308 . S
O642 C662 1.266 . S
O643 Tb588 2.393 . S
O643 C662 1.248 . S
C644 O633 1.264 . S
C644 O634 1.243 . S
C645 C648 1.399 . S
C645 C650 1.383 . S
C645 C652 1.496 . S
C646 C647 1.399 . S
C646 C650 1.389 . S
C647 C646 1.399 . S
C647 C649 1.380 . S
C647 H664 0.929 . S
C648 C645 1.399 . S
C648 C649 1.392 . S
C648 H665 0.929 . S
C649 C647 1.380 . S
C649 C648 1.392 . S
C649 H666 0.929 . S
C650 C645 1.383 . S
C650 C646 1.389 . S
C650 H667 0.931 . S
C651 O636 1.266 . S
C651 O637 1.248 . S
C652 Tb588 2.802 . S
C652 O632 1.264 . S
C652 O635 1.256 . S
C652 C645 1.496 . S
C653 C620 1.448 . S
C653 H630 0.930 . S
C653 C654 1.328 . S
C654 C625 1.427 . S
C654 H631 0.929 . S
C654 C653 1.328 . S
C655 O639 1.264 . S
C655 O640 1.243 . S
C656 C659 1.399 . S
C656 C660 1.383 . S
C656 C663 1.496 . S
C657 C658 1.399 . S
C657 C660 1.389 . S
C658 C657 1.399 . S
C658 C661 1.380 . S
C658 H668 0.929 . S
C659 C656 1.399 . S
C659 C661 1.392 . S
C659 H669 0.929 . S
C660 C656 1.383 . S
C660 C657 1.389 . S
C660 H670 0.931 . S
C661 C658 1.380 . S
C661 C659 1.392 . S
C661 H671 0.929 . S
C662 O642 1.266 . S
C662 O643 1.248 . S
C663 Tb599 2.802 . S
C663 O638 1.264 . S
C663 O641 1.256 . S
C663 C656 1.496 . S
H664 C647 0.929 . S
H665 C648 0.929 . S
H666 C649 0.929 . S
H667 C650 0.931 . S
H668 C658 0.929 . S
H669 C659 0.929 . S
H670 C660 0.931 . S
H671 C661 0.929 . S
Fe672 O673 1.886 1_455 S
Fe672 O676 1.715 . S
Fe672 O681 2.077 1_455 S
Fe672 O686 1.935 . S
Fe672 O692 2.077 1_455 S
Fe672 O701 1.935 . S
O673 Fe672 1.886 1_655 S
O673 Fe675 1.715 1_545 S
Fe674 O676 1.886 . S
Fe674 O677 1.715 1_545 S
Fe674 O684 1.935 1_545 S
Fe674 O685 2.077 . S
Fe674 O691 1.935 1_545 S
Fe674 O700 2.077 . S
Fe675 O673 1.715 1_565 S
Fe675 O678 1.886 . S
Fe675 O682 1.935 1_565 S
Fe675 O687 2.077 . S
Fe675 O693 1.935 1_565 S
Fe675 O697 2.077 . S
O676 Fe672 1.715 . S
O676 Fe674 1.886 . S
O677 Fe674 1.715 1_565 S
O677 Fe679 1.886 1_455 S
O678 Fe675 1.886 . S
O678 Fe679 1.715 . S
Fe679 O677 1.886 1_655 S
Fe679 O678 1.715 . S
Fe679 O683 2.077 1_655 S
Fe679 O688 1.935 . S
Fe679 O690 2.077 1_655 S
Fe679 O698 1.935 . S
C680 O692 1.381 . S
C680 O693 1.421 . S
O681 Fe672 2.077 1_655 S
O681 C694 1.381 . S
O682 Fe675 1.935 1_545 S
O682 C694 1.421 . S
O683 Fe679 2.077 1_455 S
O683 C699 1.381 . S
O684 Fe674 1.935 1_565 S
O684 C699 1.421 . S
O685 Fe674 2.077 . S
O685 C689 1.381 . S
O686 Fe672 1.935 . S
O686 C689 1.421 . S
O687 Fe675 2.077 . S
O687 C695 1.381 . S
O688 Fe679 1.935 . S
O688 C695 1.421 . S
C689 O685 1.381 . S
C689 O686 1.421 . S
O690 Fe679 2.077 1_455 S
O690 C702 1.381 . S
O691 Fe674 1.935 1_565 S
O691 C702 1.421 . S
O692 Fe672 2.077 1_655 S
O692 C680 1.381 . S
O693 Fe675 1.935 1_545 S
O693 C680 1.421 . S
C694 O681 1.381 . S
C694 O682 1.421 . S
C695 O687 1.381 . S
C695 O688 1.421 . S
C696 O697 1.381 . S
C696 O698 1.421 . S
O697 Fe675 2.077 . S
O697 C696 1.381 . S
O698 Fe679 1.935 . S
O698 C696 1.421 . S
C699 O683 1.381 . S
C699 O684 1.421 . S
O700 Fe674 2.077 . S
O700 C703 1.381 . S
O701 Fe672 1.935 . S
O701 C703 1.421 . S
C702 O690 1.381 . S
C702 O691 1.421 . S
C703 O700 1.381 . S
C703 O701 1.421 . S
Fe704 O705 1.886 . S
Fe704 O708 1.715 . S
Fe704 O713 2.077 . S
Fe704 O718 1.935 . S
Fe704 O724 2.077 1_556 S
Fe704 O733 1.935 1_556 S
O705 Fe704 1.886 . S
O705 Fe707 1.715 1_565 S
Fe706 O708 1.886 1_554 S
Fe706 O709 1.715 1_565 S
Fe706 O716 1.935 1_564 S
Fe706 O717 2.077 1_554 S
Fe706 O723 1.935 1_565 S
Fe706 O732 2.077 . S
Fe707 O705 1.715 1_545 S
Fe707 O710 1.887 1_556 S
Fe707 O714 1.935 1_545 S
Fe707 O719 2.077 . S
Fe707 O725 1.935 1_546 S
Fe707 O729 2.077 1_556 S
O708 Fe704 1.715 . S
O708 Fe706 1.886 1_556 S
O709 Fe706 1.715 1_545 S
O709 Fe711 1.886 . S
O710 Fe707 1.887 1_554 S
O710 Fe711 1.714 . S
Fe711 O709 1.886 . S
Fe711 O710 1.714 . S
Fe711 O715 2.077 1_554 S
Fe711 O720 1.935 1_554 S
Fe711 O722 2.077 . S
Fe711 O730 1.935 . S
C712 O724 1.381 . S
C712 O725 1.421 . S
O713 Fe704 2.077 . S
O713 C726 1.381 . S
O714 Fe707 1.935 1_565 S
O714 C726 1.421 . S
O715 Fe711 2.077 1_556 S
O715 C731 1.381 . S
O716 Fe706 1.935 1_546 S
O716 C731 1.421 . S
O717 Fe706 2.077 1_556 S
O717 C721 1.381 . S
O718 Fe704 1.935 . S
O718 C721 1.421 . S
O719 Fe707 2.077 . S
O719 C727 1.381 . S
O720 Fe711 1.935 1_556 S
O720 C727 1.421 . S
C721 O717 1.381 . S
C721 O718 1.421 . S
O722 Fe711 2.077 . S
O722 C734 1.381 . S
O723 Fe706 1.935 1_545 S
O723 C734 1.421 . S
O724 Fe704 2.077 1_554 S
O724 C712 1.381 . S
O725 Fe707 1.935 1_564 S
O725 C712 1.421 . S
C726 O713 1.381 . S
C726 O714 1.421 . S
C727 O719 1.381 . S
C727 O720 1.421 . S
C728 O729 1.381 . S
C728 O730 1.421 . S
O729 Fe707 2.077 1_554 S
O729 C728 1.381 . S
O730 Fe711 1.935 . S
O730 C728 1.421 . S
C731 O715 1.381 . S
C731 O716 1.421 . S
O732 Fe706 2.077 . S
O732 C735 1.381 . S
O733 Fe704 1.935 1_554 S
O733 C735 1.421 . S
C734 O722 1.381 . S
C734 O723 1.421 . S
C735 O732 1.381 . S
C735 O733 1.421 . S
Fe736 O737 1.886 1_455 S
Fe736 O740 1.714 . S
Fe736 O745 2.077 1_454 S
Fe736 O750 1.935 1_554 S
Fe736 O756 2.077 1_455 S
Fe736 O765 1.935 . S
O737 Fe736 1.886 1_655 S
O737 Fe739 1.715 . S
Fe738 O740 1.887 1_556 S
Fe738 O741 1.715 . S
Fe738 O748 1.935 . S
Fe738 O749 2.077 . S
Fe738 O755 1.935 1_556 S
Fe738 O764 2.077 1_556 S
Fe739 O737 1.715 . S
Fe739 O742 1.886 1_554 S
Fe739 O746 1.935 1_554 S
Fe739 O751 2.077 1_554 S
Fe739 O757 1.935 . S
Fe739 O761 2.077 . S
O740 Fe736 1.714 . S
O740 Fe738 1.887 1_554 S
O741 Fe738 1.715 . S
O741 Fe743 1.886 1_455 S
O742 Fe739 1.886 1_556 S
O742 Fe743 1.715 . S
Fe743 O741 1.886 1_655 S
Fe743 O742 1.715 . S
Fe743 O747 2.077 1_655 S
Fe743 O752 1.935 . S
Fe743 O754 2.077 1_656 S
Fe743 O762 1.935 1_556 S
C744 O756 1.381 . S
C744 O757 1.421 . S
O745 Fe736 2.077 1_656 S
O745 C758 1.381 . S
O746 Fe739 1.935 1_556 S
O746 C758 1.421 . S
O747 Fe743 2.077 1_455 S
O747 C763 1.381 . S
O748 Fe738 1.935 . S
O748 C763 1.421 . S
O749 Fe738 2.077 . S
O749 C753 1.381 . S
O750 Fe736 1.935 1_556 S
O750 C753 1.421 . S
O751 Fe739 2.077 1_556 S
O751 C759 1.381 . S
O752 Fe743 1.935 . S
O752 C759 1.421 . S
C753 O749 1.381 . S
C753 O750 1.421 . S
O754 Fe743 2.077 1_454 S
O754 C766 1.381 . S
O755 Fe738 1.935 1_554 S
O755 C766 1.421 . S
O756 Fe736 2.077 1_655 S
O756 C744 1.381 . S
O757 Fe739 1.935 . S
O757 C744 1.421 . S
C758 O745 1.381 . S
C758 O746 1.421 . S
C759 O751 1.381 . S
C759 O752 1.421 . S
C760 O761 1.381 . S
C760 O762 1.421 . S
O761 Fe739 2.077 . S
O761 C760 1.381 . S
O762 Fe743 1.935 1_554 S
O762 C760 1.421 . S
C763 O747 1.381 . S
C763 O748 1.421 . S
O764 Fe738 2.077 1_554 S
O764 C767 1.381 . S
O765 Fe736 1.935 . S
O765 C767 1.421 . S
C766 O754 1.381 . S
C766 O755 1.421 . S
C767 O764 1.381 . S
C767 O765 1.421 . S
Fe768 O769 1.886 . S
Fe768 O772 1.715 . S
Fe768 O777 2.077 . S
Fe768 O782 1.935 . S
Fe768 O788 2.077 . S
Fe768 O797 1.935 . S
O769 Fe768 1.886 . S
O769 Fe771 1.715 . S
Fe770 O772 1.886 1_554 S
Fe770 O773 1.715 . S
Fe770 O780 1.935 . S
Fe770 O781 2.077 1_554 S
Fe770 O787 1.935 . S
Fe770 O796 2.077 1_554 S
Fe771 O769 1.715 . S
Fe771 O774 1.886 1_556 S
Fe771 O778 1.935 . S
Fe771 O783 2.077 1_556 S
Fe771 O789 1.935 . S
Fe771 O793 2.077 1_556 S
O772 Fe768 1.715 . S
O772 Fe770 1.886 1_556 S
O773 Fe770 1.715 . S
O773 Fe775 1.886 . S
O774 Fe771 1.886 1_554 S
O774 Fe775 1.715 . S
Fe775 O773 1.886 . S
Fe775 O774 1.715 . S
Fe775 O779 2.077 . S
Fe775 O784 1.935 . S
Fe775 O786 2.077 . S
Fe775 O794 1.935 . S
C776 O788 1.381 . S
C776 O789 1.421 . S
O777 Fe768 2.077 . S
O777 C790 1.381 . S
O778 Fe771 1.935 . S
O778 C790 1.421 . S
O779 Fe775 2.077 . S
O779 C795 1.381 . S
O780 Fe770 1.935 . S
O780 C795 1.421 . S
O781 Fe770 2.077 1_556 S
O781 C785 1.381 . S
O782 Fe768 1.935 . S
O782 C785 1.421 . S
O783 Fe771 2.077 1_554 S
O783 C791 1.381 . S
O784 Fe775 1.935 . S
O784 C791 1.421 . S
C785 O781 1.381 . S
C785 O782 1.421 . S
O786 Fe775 2.077 . S
O786 C798 1.381 . S
O787 Fe770 1.935 . S
O787 C798 1.421 . S
O788 Fe768 2.077 . S
O788 C776 1.381 . S
O789 Fe771 1.935 . S
O789 C776 1.421 . S
C790 O777 1.381 . S
C790 O778 1.421 . S
C791 O783 1.381 . S
C791 O784 1.421 . S
C792 O793 1.381 . S
C792 O794 1.421 . S
O793 Fe771 2.077 1_554 S
O793 C792 1.381 . S
O794 Fe775 1.935 . S
O794 C792 1.421 . S
C795 O779 1.381 . S
C795 O780 1.421 . S
O796 Fe770 2.077 1_556 S
O796 C799 1.381 . S
O797 Fe768 1.935 . S
O797 C799 1.421 . S
C798 O786 1.381 . S
C798 O787 1.421 . S
C799 O796 1.381 . S
C799 O797 1.421 . S
Fe800 O801 1.886 . S
Fe800 O804 1.715 . S
Fe800 O809 2.077 1_655 S
Fe800 O814 1.935 1_655 S
Fe800 O820 2.077 . S
Fe800 O829 1.935 . S
O801 Fe800 1.886 . S
O801 Fe803 1.715 . S
Fe802 O804 1.886 1_455 S
Fe802 O805 1.715 . S
Fe802 O812 1.935 . S
Fe802 O813 2.077 . S
Fe802 O819 1.935 1_455 S
Fe802 O828 2.077 1_455 S
Fe803 O801 1.715 . S
Fe803 O806 1.886 1_655 S
Fe803 O810 1.935 1_655 S
Fe803 O815 2.077 1_655 S
Fe803 O821 1.935 . S
Fe803 O825 2.077 . S
O804 Fe800 1.715 . S
O804 Fe802 1.886 1_655 S
O805 Fe802 1.715 . S
O805 Fe807 1.886 . S
O806 Fe803 1.886 1_455 S
O806 Fe807 1.715 . S
Fe807 O805 1.886 . S
Fe807 O806 1.715 . S
Fe807 O811 2.077 . S
Fe807 O816 1.935 . S
Fe807 O818 2.077 1_455 S
Fe807 O826 1.935 1_455 S
C808 O820 1.381 . S
C808 O821 1.421 . S
O809 Fe800 2.077 1_455 S
O809 C822 1.381 . S
O810 Fe803 1.935 1_455 S
O810 C822 1.421 . S
O811 Fe807 2.077 . S
O811 C827 1.381 . S
O812 Fe802 1.935 . S
O812 C827 1.421 . S
O813 Fe802 2.077 . S
O813 C817 1.381 . S
O814 Fe800 1.935 1_455 S
O814 C817 1.421 . S
O815 Fe803 2.077 1_455 S
O815 C823 1.381 . S
O816 Fe807 1.935 . S
O816 C823 1.421 . S
C817 O813 1.381 . S
C817 O814 1.421 . S
O818 Fe807 2.077 1_655 S
O818 C830 1.381 . S
O819 Fe802 1.935 1_655 S
O819 C830 1.421 . S
O820 Fe800 2.077 . S
O820 C808 1.381 . S
O821 Fe803 1.935 . S
O821 C808 1.421 . S
C822 O809 1.381 . S
C822 O810 1.421 . S
C823 O815 1.381 . S
C823 O816 1.421 . S
C824 O825 1.381 . S
C824 O826 1.421 . S
O825 Fe803 2.077 . S
O825 C824 1.381 . S
O826 Fe807 1.935 1_655 S
O826 C824 1.421 . S
C827 O811 1.381 . S
C827 O812 1.421 . S
O828 Fe802 2.077 1_655 S
O828 C831 1.381 . S
O829 Fe800 1.935 . S
O829 C831 1.421 . S
C830 O818 1.381 . S
C830 O819 1.421 . S
C831 O828 1.381 . S
C831 O829 1.421 . S
Fe832 O833 1.886 . S
Fe832 O836 1.715 . S
Fe832 O841 2.077 . S
Fe832 O846 1.935 . S
Fe832 O852 2.077 . S
Fe832 O861 1.935 . S
O833 Fe832 1.886 . S
O833 Fe835 1.715 1_565 S
Fe834 O836 1.886 . S
Fe834 O837 1.715 1_565 S
Fe834 O844 1.935 1_565 S
Fe834 O845 2.077 . S
Fe834 O851 1.935 1_565 S
Fe834 O860 2.077 . S
Fe835 O833 1.715 1_545 S
Fe835 O838 1.886 . S
Fe835 O842 1.935 1_545 S
Fe835 O847 2.077 . S
Fe835 O853 1.935 1_545 S
Fe835 O857 2.077 . S
O836 Fe832 1.715 . S
O836 Fe834 1.886 . S
O837 Fe834 1.715 1_545 S
O837 Fe839 1.886 . S
O838 Fe835 1.886 . S
O838 Fe839 1.715 . S
Fe839 O837 1.886 . S
Fe839 O838 1.715 . S
Fe839 O843 2.077 . S
Fe839 O848 1.935 . S
Fe839 O850 2.077 . S
Fe839 O858 1.935 . S
C840 O852 1.381 . S
C840 O853 1.421 . S
O841 Fe832 2.077 . S
O841 C854 1.381 . S
O842 Fe835 1.935 1_565 S
O842 C854 1.421 . S
O843 Fe839 2.077 . S
O843 C859 1.381 . S
O844 Fe834 1.935 1_545 S
O844 C859 1.421 . S
O845 Fe834 2.077 . S
O845 C849 1.381 . S
O846 Fe832 1.935 . S
O846 C849 1.421 . S
O847 Fe835 2.077 . S
O847 C855 1.381 . S
O848 Fe839 1.935 . S
O848 C855 1.421 . S
C849 O845 1.381 . S
C849 O846 1.421 . S
O850 Fe839 2.077 . S
O850 C862 1.381 . S
O851 Fe834 1.935 1_545 S
O851 C862 1.421 . S
O852 Fe832 2.077 . S
O852 C840 1.381 . S
O853 Fe835 1.935 1_565 S
O853 C840 1.421 . S
C854 O841 1.381 . S
C854 O842 1.421 . S
C855 O847 1.381 . S
C855 O848 1.421 . S
C856 O857 1.381 . S
C856 O858 1.421 . S
O857 Fe835 2.077 . S
O857 C856 1.381 . S
O858 Fe839 1.935 . S
O858 C856 1.421 . S
C859 O843 1.381 . S
C859 O844 1.421 . S
O860 Fe834 2.077 . S
O860 C863 1.381 . S
O861 Fe832 1.935 . S
O861 C863 1.421 . S
C862 O850 1.381 . S
C862 O851 1.421 . S
C863 O860 1.381 . S
C863 O861 1.421 . S
H864 C876 0.930 . S
H865 C878 0.930 . S
H866 C879 0.930 . S
H867 C883 0.959 . S
H868 C883 0.959 . S
H869 C883 0.961 . S
H870 C884 0.960 . S
H871 C884 0.961 . S
H872 C884 0.959 . S
H873 C887 0.929 . S
H874 C888 0.931 . S
H875 C890 0.930 . S
C876 H864 0.930 . S
C876 C877 1.399 . S
C876 C881 1.399 . S
C877 C876 1.399 . S
C877 C878 1.376 . S
C878 H865 0.930 . S
C878 C877 1.376 . S
C878 C879 1.388 . S
C879 H866 0.930 . S
C879 C878 1.388 . S
C879 C880 1.390 . S
C880 C879 1.390 . S
C880 C881 1.394 . S
C880 C886 1.465 . S
C881 C876 1.399 . S
C881 C880 1.394 . S
C881 C882 1.516 . S
C882 C881 1.516 . S
C882 C883 1.502 . S
C882 C884 1.561 . S
C882 C885 1.526 . S
C883 H867 0.959 . S
C883 H868 0.959 . S
C883 H869 0.961 . S
C883 C882 1.502 . S
C884 H870 0.960 . S
C884 H871 0.961 . S
C884 H872 0.959 . S
C884 C882 1.561 . S
C885 C882 1.526 . S
C885 C886 1.396 . S
C885 C890 1.390 . S
C886 C880 1.465 . S
C886 C885 1.396 . S
C886 C887 1.399 . S
C887 H873 0.929 . S
C887 C886 1.399 . S
C887 C888 1.385 . S
C888 H874 0.931 . S
C888 C887 1.385 . S
C888 C889 1.389 . S
C889 C888 1.389 . S
C889 C890 1.387 . S
C890 H875 0.930 . S
C890 C885 1.390 . S
C890 C889 1.387 . S
H891 C903 0.930 . S
H892 C905 0.930 . S
H893 C906 0.930 . S
H894 C910 0.959 . S
H895 C910 0.959 . S
H896 C910 0.961 . S
H897 C911 0.960 . S
H898 C911 0.961 . S
H899 C911 0.959 . S
H900 C914 0.929 . S
H901 C915 0.931 . S
H902 C917 0.930 . S
C903 H891 0.930 . S
C903 C904 1.399 . S
C903 C908 1.399 . S
C904 C903 1.399 . S
C904 C905 1.376 . S
C905 H892 0.930 . S
C905 C904 1.376 . S
C905 C906 1.388 . S
C906 H893 0.930 . S
C906 C905 1.388 . S
C906 C907 1.390 . S
C907 C906 1.390 . S
C907 C908 1.394 . S
C907 C913 1.465 . S
C908 C903 1.399 . S
C908 C907 1.394 . S
C908 C909 1.516 . S
C909 C908 1.516 . S
C909 C910 1.502 . S
C909 C911 1.561 . S
C909 C912 1.526 . S
C910 H894 0.959 . S
C910 H895 0.959 . S
C910 H896 0.961 . S
C910 C909 1.502 . S
C911 H897 0.960 . S
C911 H898 0.961 . S
C911 H899 0.959 . S
C911 C909 1.561 . S
C912 C909 1.526 . S
C912 C913 1.396 . S
C912 C917 1.390 . S
C913 C907 1.465 . S
C913 C912 1.396 . S
C913 C914 1.399 . S
C914 H900 0.929 . S
C914 C913 1.399 . S
C914 C915 1.385 . S
C915 H901 0.931 . S
C915 C914 1.385 . S
C915 C916 1.389 . S
C916 C915 1.389 . S
C916 C917 1.387 . S
C917 H902 0.930 . S
C917 C912 1.390 . S
C917 C916 1.387 . S
H918 C930 0.930 . S
H919 C932 0.930 . S
H920 C933 0.930 . S
H921 C937 0.959 . S
H922 C937 0.959 . S
H923 C937 0.961 . S
H924 C938 0.960 . S
H925 C938 0.961 . S
H926 C938 0.959 . S
H927 C941 0.929 . S
H928 C942 0.931 . S
H929 C944 0.930 . S
C930 H918 0.930 . S
C930 C931 1.399 . S
C930 C935 1.399 . S
C931 C930 1.399 . S
C931 C932 1.376 . S
C932 H919 0.930 . S
C932 C931 1.376 . S
C932 C933 1.388 . S
C933 H920 0.930 . S
C933 C932 1.388 . S
C933 C934 1.390 . S
C934 C933 1.390 . S
C934 C935 1.394 . S
C934 C940 1.465 . S
C935 C930 1.399 . S
C935 C934 1.394 . S
C935 C936 1.516 . S
C936 C935 1.516 . S
C936 C937 1.502 . S
C936 C938 1.561 . S
C936 C939 1.526 . S
C937 H921 0.959 . S
C937 H922 0.959 . S
C937 H923 0.961 . S
C937 C936 1.502 . S
C938 H924 0.960 . S
C938 H925 0.961 . S
C938 H926 0.959 . S
C938 C936 1.561 . S
C939 C936 1.526 . S
C939 C940 1.396 . S
C939 C944 1.390 . S
C940 C934 1.465 . S
C940 C939 1.396 . S
C940 C941 1.399 . S
C941 H927 0.929 . S
C941 C940 1.399 . S
C941 C942 1.385 . S
C942 H928 0.931 . S
C942 C941 1.385 . S
C942 C943 1.389 . S
C943 C942 1.389 . S
C943 C944 1.387 . S
C944 H929 0.930 . S
C944 C939 1.390 . S
C944 C943 1.387 . S
H945 C957 0.930 . S
H946 C959 0.930 . S
H947 C960 0.930 . S
H948 C964 0.959 . S
H949 C964 0.959 . S
H950 C964 0.961 . S
H951 C965 0.960 . S
H952 C965 0.961 . S
H953 C965 0.959 . S
H954 C968 0.929 . S
H955 C969 0.931 . S
H956 C971 0.930 . S
C957 H945 0.930 . S
C957 C958 1.399 . S
C957 C962 1.399 . S
C958 C957 1.399 . S
C958 C959 1.376 . S
C959 H946 0.930 . S
C959 C958 1.376 . S
C959 C960 1.388 . S
C960 H947 0.930 . S
C960 C959 1.388 . S
C960 C961 1.390 . S
C961 C960 1.390 . S
C961 C962 1.394 . S
C961 C967 1.465 . S
C962 C957 1.399 . S
C962 C961 1.394 . S
C962 C963 1.516 . S
C963 C962 1.516 . S
C963 C964 1.502 . S
C963 C965 1.561 . S
C963 C966 1.526 . S
C964 H948 0.959 . S
C964 H949 0.959 . S
C964 H950 0.961 . S
C964 C963 1.502 . S
C965 H951 0.960 . S
C965 H952 0.961 . S
C965 H953 0.959 . S
C965 C963 1.561 . S
C966 C963 1.526 . S
C966 C967 1.396 . S
C966 C971 1.390 . S
C967 C961 1.465 . S
C967 C966 1.396 . S
C967 C968 1.399 . S
C968 H954 0.929 . S
C968 C967 1.399 . S
C968 C969 1.385 . S
C969 H955 0.931 . S
C969 C968 1.385 . S
C969 C970 1.389 . S
C970 C969 1.389 . S
C970 C971 1.387 . S
C971 H956 0.930 . S
C971 C966 1.390 . S
C971 C970 1.387 . S
H972 C984 0.930 . S
H973 C986 0.930 . S
H974 C987 0.930 . S
H975 C991 0.959 . S
H976 C991 0.959 . S
H977 C991 0.961 . S
H978 C992 0.960 . S
H979 C992 0.961 . S
H980 C992 0.959 . S
H981 C995 0.929 . S
H982 C996 0.931 . S
H983 C998 0.930 . S
C984 H972 0.930 . S
C984 C985 1.399 . S
C984 C989 1.399 . S
C985 C984 1.399 . S
C985 C986 1.376 . S
C986 H973 0.930 . S
C986 C985 1.376 . S
C986 C987 1.388 . S
C987 H974 0.930 . S
C987 C986 1.388 . S
C987 C988 1.390 . S
C988 C987 1.390 . S
C988 C989 1.394 . S
C988 C994 1.465 . S
C989 C984 1.399 . S
C989 C988 1.394 . S
C989 C990 1.516 . S
C990 C989 1.516 . S
C990 C991 1.502 . S
C990 C992 1.561 . S
C990 C993 1.526 . S
C991 H975 0.959 . S
C991 H976 0.959 . S
C991 H977 0.961 . S
C991 C990 1.502 . S
C992 H978 0.960 . S
C992 H979 0.961 . S
C992 H980 0.959 . S
C992 C990 1.561 . S
C993 C990 1.526 . S
C993 C994 1.396 . S
C993 C998 1.390 . S
C994 C988 1.465 . S
C994 C993 1.396 . S
C994 C995 1.399 . S
C995 H981 0.929 . S
C995 C994 1.399 . S
C995 C996 1.385 . S
C996 H982 0.931 . S
C996 C995 1.385 . S
C996 C997 1.389 . S
C997 C996 1.389 . S
C997 C998 1.387 . S
C998 H983 0.930 . S
C998 C993 1.390 . S
C998 C997 1.387 . S
H999 C1011 0.930 . S
H1000 C1013 0.930 . S
H1001 C1014 0.930 . S
H1002 C1018 0.959 . S
H1003 C1018 0.959 . S
H1004 C1018 0.961 . S
H1005 C1019 0.960 . S
H1006 C1019 0.961 . S
H1007 C1019 0.959 . S
H1008 C1022 0.929 . S
H1009 C1023 0.931 . S
H1010 C1025 0.930 . S
C1011 H999 0.930 . S
C1011 C1012 1.399 . S
C1011 C1016 1.399 . S
C1012 C1011 1.399 . S
C1012 C1013 1.376 . S
C1013 H1000 0.930 . S
C1013 C1012 1.376 . S
C1013 C1014 1.388 . S
C1014 H1001 0.930 . S
C1014 C1013 1.388 . S
C1014 C1015 1.390 . S
C1015 C1014 1.390 . S
C1015 C1016 1.394 . S
C1015 C1021 1.465 . S
C1016 C1011 1.399 . S
C1016 C1015 1.394 . S
C1016 C1017 1.516 . S
C1017 C1016 1.516 . S
C1017 C1018 1.502 . S
C1017 C1019 1.561 . S
C1017 C1020 1.526 . S
C1018 H1002 0.959 . S
C1018 H1003 0.959 . S
C1018 H1004 0.961 . S
C1018 C1017 1.502 . S
C1019 H1005 0.960 . S
C1019 H1006 0.961 . S
C1019 H1007 0.959 . S
C1019 C1017 1.561 . S
C1020 C1017 1.526 . S
C1020 C1021 1.396 . S
C1020 C1025 1.390 . S
C1021 C1015 1.465 . S
C1021 C1020 1.396 . S
C1021 C1022 1.399 . S
C1022 H1008 0.929 . S
C1022 C1021 1.399 . S
C1022 C1023 1.385 . S
C1023 H1009 0.931 . S
C1023 C1022 1.385 . S
C1023 C1024 1.389 . S
C1024 C1023 1.389 . S
C1024 C1025 1.387 . S
C1025 H1010 0.930 . S
C1025 C1020 1.390 . S
C1025 C1024 1.387 . S
H1026 C1038 0.930 . S
H1027 C1040 0.930 . S
H1028 C1041 0.930 . S
H1029 C1045 0.959 . S
H1030 C1045 0.959 . S
H1031 C1045 0.961 . S
H1032 C1046 0.960 . S
H1033 C1046 0.961 . S
H1034 C1046 0.959 . S
H1035 C1049 0.929 . S
H1036 C1050 0.931 . S
H1037 C1052 0.930 . S
C1038 H1026 0.930 . S
C1038 C1039 1.399 . S
C1038 C1043 1.399 . S
C1039 C1038 1.399 . S
C1039 C1040 1.376 . S
C1040 H1027 0.930 . S
C1040 C1039 1.376 . S
C1040 C1041 1.388 . S
C1041 H1028 0.930 . S
C1041 C1040 1.388 . S
C1041 C1042 1.390 . S
C1042 C1041 1.390 . S
C1042 C1043 1.394 . S
C1042 C1048 1.465 . S
C1043 C1038 1.399 . S
C1043 C1042 1.394 . S
C1043 C1044 1.516 . S
C1044 C1043 1.516 . S
C1044 C1045 1.502 . S
C1044 C1046 1.561 . S
C1044 C1047 1.526 . S
C1045 H1029 0.959 . S
C1045 H1030 0.959 . S
C1045 H1031 0.961 . S
C1045 C1044 1.502 . S
C1046 H1032 0.960 . S
C1046 H1033 0.961 . S
C1046 H1034 0.959 . S
C1046 C1044 1.561 . S
C1047 C1044 1.526 . S
C1047 C1048 1.396 . S
C1047 C1052 1.390 . S
C1048 C1042 1.465 . S
C1048 C1047 1.396 . S
C1048 C1049 1.399 . S
C1049 H1035 0.929 . S
C1049 C1048 1.399 . S
C1049 C1050 1.385 . S
C1050 H1036 0.931 . S
C1050 C1049 1.385 . S
C1050 C1051 1.389 . S
C1051 C1050 1.389 . S
C1051 C1052 1.387 . S
C1052 H1037 0.930 . S
C1052 C1047 1.390 . S
C1052 C1051 1.387 . S
H1053 C1065 0.930 . S
H1054 C1067 0.930 . S
H1055 C1068 0.930 . S
H1056 C1072 0.959 . S
H1057 C1072 0.959 . S
H1058 C1072 0.961 . S
H1059 C1073 0.960 . S
H1060 C1073 0.961 . S
H1061 C1073 0.959 . S
H1062 C1076 0.929 . S
H1063 C1077 0.931 . S
H1064 C1079 0.930 . S
C1065 H1053 0.930 . S
C1065 C1066 1.399 . S
C1065 C1070 1.399 . S
C1066 C1065 1.399 . S
C1066 C1067 1.376 . S
C1067 H1054 0.930 . S
C1067 C1066 1.376 . S
C1067 C1068 1.388 . S
C1068 H1055 0.930 . S
C1068 C1067 1.388 . S
C1068 C1069 1.390 . S
C1069 C1068 1.390 . S
C1069 C1070 1.394 . S
C1069 C1075 1.465 . S
C1070 C1065 1.399 . S
C1070 C1069 1.394 . S
C1070 C1071 1.516 . S
C1071 C1070 1.516 . S
C1071 C1072 1.502 . S
C1071 C1073 1.561 . S
C1071 C1074 1.526 . S
C1072 H1056 0.959 . S
C1072 H1057 0.959 . S
C1072 H1058 0.961 . S
C1072 C1071 1.502 . S
C1073 H1059 0.960 . S
C1073 H1060 0.961 . S
C1073 H1061 0.959 . S
C1073 C1071 1.561 . S
C1074 C1071 1.526 . S
C1074 C1075 1.396 . S
C1074 C1079 1.390 . S
C1075 C1069 1.465 . S
C1075 C1074 1.396 . S
C1075 C1076 1.399 . S
C1076 H1062 0.929 . S
C1076 C1075 1.399 . S
C1076 C1077 1.385 . S
C1077 H1063 0.931 . S
C1077 C1076 1.385 . S
C1077 C1078 1.389 . S
C1078 C1077 1.389 . S
C1078 C1079 1.387 . S
C1079 H1064 0.930 . S
C1079 C1074 1.390 . S
C1079 C1078 1.387 . S
H1080 C1092 0.930 . S
H1081 C1094 0.930 . S
H1082 C1095 0.930 . S
H1083 C1099 0.959 . S
H1084 C1099 0.959 . S
H1085 C1099 0.961 . S
H1086 C1100 0.960 . S
H1087 C1100 0.961 . S
H1088 C1100 0.959 . S
H1089 C1103 0.929 . S
H1090 C1104 0.931 . S
H1091 C1106 0.930 . S
C1092 H1080 0.930 . S
C1092 C1093 1.399 . S
C1092 C1097 1.399 . S
C1093 C1092 1.399 . S
C1093 C1094 1.376 . S
C1094 H1081 0.930 . S
C1094 C1093 1.376 . S
C1094 C1095 1.388 . S
C1095 H1082 0.930 . S
C1095 C1094 1.388 . S
C1095 C1096 1.390 . S
C1096 C1095 1.390 . S
C1096 C1097 1.394 . S
C1096 C1102 1.465 . S
C1097 C1092 1.399 . S
C1097 C1096 1.394 . S
C1097 C1098 1.516 . S
C1098 C1097 1.516 . S
C1098 C1099 1.502 . S
C1098 C1100 1.561 . S
C1098 C1101 1.526 . S
C1099 H1083 0.959 . S
C1099 H1084 0.959 . S
C1099 H1085 0.961 . S
C1099 C1098 1.502 . S
C1100 H1086 0.960 . S
C1100 H1087 0.961 . S
C1100 H1088 0.959 . S
C1100 C1098 1.561 . S
C1101 C1098 1.526 . S
C1101 C1102 1.396 . S
C1101 C1106 1.390 . S
C1102 C1096 1.465 . S
C1102 C1101 1.396 . S
C1102 C1103 1.399 . S
C1103 H1089 0.929 . S
C1103 C1102 1.399 . S
C1103 C1104 1.385 . S
C1104 H1090 0.931 . S
C1104 C1103 1.385 . S
C1104 C1105 1.389 . S
C1105 C1104 1.389 . S
C1105 C1106 1.387 . S
C1106 H1091 0.930 . S
C1106 C1101 1.390 . S
C1106 C1105 1.387 . S
H1107 C1119 0.930 . S
H1108 C1121 0.930 . S
H1109 C1122 0.930 . S
H1110 C1126 0.959 . S
H1111 C1126 0.959 . S
H1112 C1126 0.961 . S
H1113 C1127 0.960 . S
H1114 C1127 0.961 . S
H1115 C1127 0.959 . S
H1116 C1130 0.929 . S
H1117 C1131 0.931 . S
H1118 C1133 0.930 . S
C1119 H1107 0.930 . S
C1119 C1120 1.399 . S
C1119 C1124 1.399 . S
C1120 C1119 1.399 . S
C1120 C1121 1.376 . S
C1121 H1108 0.930 . S
C1121 C1120 1.376 . S
C1121 C1122 1.388 . S
C1122 H1109 0.930 . S
C1122 C1121 1.388 . S
C1122 C1123 1.390 . S
C1123 C1122 1.390 . S
C1123 C1124 1.394 . S
C1123 C1129 1.465 . S
C1124 C1119 1.399 . S
C1124 C1123 1.394 . S
C1124 C1125 1.516 . S
C1125 C1124 1.516 . S
C1125 C1126 1.502 . S
C1125 C1127 1.561 . S
C1125 C1128 1.526 . S
C1126 H1110 0.959 . S
C1126 H1111 0.959 . S
C1126 H1112 0.961 . S
C1126 C1125 1.502 . S
C1127 H1113 0.960 . S
C1127 H1114 0.961 . S
C1127 H1115 0.959 . S
C1127 C1125 1.561 . S
C1128 C1125 1.526 . S
C1128 C1129 1.396 . S
C1128 C1133 1.390 . S
C1129 C1123 1.465 . S
C1129 C1128 1.396 . S
C1129 C1130 1.399 . S
C1130 H1116 0.929 . S
C1130 C1129 1.399 . S
C1130 C1131 1.385 . S
C1131 H1117 0.931 . S
C1131 C1130 1.385 . S
C1131 C1132 1.389 . S
C1132 C1131 1.389 . S
C1132 C1133 1.387 . S
C1133 H1118 0.930 . S
C1133 C1128 1.390 . S
C1133 C1132 1.387 . S
H1134 C1146 0.930 . S
H1135 C1148 0.930 . S
H1136 C1149 0.930 . S
H1137 C1153 0.959 . S
H1138 C1153 0.959 . S
H1139 C1153 0.961 . S
H1140 C1154 0.960 . S
H1141 C1154 0.961 . S
H1142 C1154 0.959 . S
H1143 C1157 0.929 . S
H1144 C1158 0.931 . S
H1145 C1160 0.930 . S
C1146 H1134 0.930 . S
C1146 C1147 1.399 . S
C1146 C1151 1.399 . S
C1147 C1146 1.399 . S
C1147 C1148 1.376 . S
C1148 H1135 0.930 . S
C1148 C1147 1.376 . S
C1148 C1149 1.388 . S
C1149 H1136 0.930 . S
C1149 C1148 1.388 . S
C1149 C1150 1.390 . S
C1150 C1149 1.390 . S
C1150 C1151 1.394 . S
C1150 C1156 1.465 . S
C1151 C1146 1.399 . S
C1151 C1150 1.394 . S
C1151 C1152 1.516 . S
C1152 C1151 1.516 . S
C1152 C1153 1.502 . S
C1152 C1154 1.561 . S
C1152 C1155 1.526 . S
C1153 H1137 0.959 . S
C1153 H1138 0.959 . S
C1153 H1139 0.961 . S
C1153 C1152 1.502 . S
C1154 H1140 0.960 . S
C1154 H1141 0.961 . S
C1154 H1142 0.959 . S
C1154 C1152 1.561 . S
C1155 C1152 1.526 . S
C1155 C1156 1.396 . S
C1155 C1160 1.390 . S
C1156 C1150 1.465 . S
C1156 C1155 1.396 . S
C1156 C1157 1.399 . S
C1157 H1143 0.929 . S
C1157 C1156 1.399 . S
C1157 C1158 1.385 . S
C1158 H1144 0.931 . S
C1158 C1157 1.385 . S
C1158 C1159 1.389 . S
C1159 C1158 1.389 . S
C1159 C1160 1.387 . S
C1160 H1145 0.930 . S
C1160 C1155 1.390 . S
C1160 C1159 1.387 . S
H1161 C1173 0.930 . S
H1162 C1175 0.930 . S
H1163 C1176 0.930 . S
H1164 C1180 0.959 . S
H1165 C1180 0.959 . S
H1166 C1180 0.961 . S
H1167 C1181 0.960 . S
H1168 C1181 0.961 . S
H1169 C1181 0.959 . S
H1170 C1184 0.929 . S
H1171 C1185 0.931 . S
H1172 C1187 0.930 . S
C1173 H1161 0.930 . S
C1173 C1174 1.399 . S
C1173 C1178 1.399 . S
C1174 C1173 1.399 . S
C1174 C1175 1.376 . S
C1175 H1162 0.930 . S
C1175 C1174 1.376 . S
C1175 C1176 1.388 . S
C1176 H1163 0.930 . S
C1176 C1175 1.388 . S
C1176 C1177 1.390 . S
C1177 C1176 1.390 . S
C1177 C1178 1.394 . S
C1177 C1183 1.465 . S
C1178 C1173 1.399 . S
C1178 C1177 1.394 . S
C1178 C1179 1.516 . S
C1179 C1178 1.516 . S
C1179 C1180 1.502 . S
C1179 C1181 1.561 . S
C1179 C1182 1.526 . S
C1180 H1164 0.959 . S
C1180 H1165 0.959 . S
C1180 H1166 0.961 . S
C1180 C1179 1.502 . S
C1181 H1167 0.960 . S
C1181 H1168 0.961 . S
C1181 H1169 0.959 . S
C1181 C1179 1.561 . S
C1182 C1179 1.526 . S
C1182 C1183 1.396 . S
C1182 C1187 1.390 . S
C1183 C1177 1.465 . S
C1183 C1182 1.396 . S
C1183 C1184 1.399 . S
C1184 H1170 0.929 . S
C1184 C1183 1.399 . S
C1184 C1185 1.385 . S
C1185 H1171 0.931 . S
C1185 C1184 1.385 . S
C1185 C1186 1.389 . S
C1186 C1185 1.389 . S
C1186 C1187 1.387 . S
C1187 H1172 0.930 . S
C1187 C1182 1.390 . S
C1187 C1186 1.387 . S
H1188 C1200 0.930 . S
H1189 C1202 0.930 . S
H1190 C1203 0.930 . S
H1191 C1207 0.959 . S
H1192 C1207 0.959 . S
H1193 C1207 0.961 . S
H1194 C1208 0.960 . S
H1195 C1208 0.961 . S
H1196 C1208 0.959 . S
H1197 C1211 0.929 . S
H1198 C1212 0.931 . S
H1199 C1214 0.930 . S
C1200 H1188 0.930 . S
C1200 C1201 1.399 . S
C1200 C1205 1.399 . S
C1201 C1200 1.399 . S
C1201 C1202 1.376 . S
C1202 H1189 0.930 . S
C1202 C1201 1.376 . S
C1202 C1203 1.388 . S
C1203 H1190 0.930 . S
C1203 C1202 1.388 . S
C1203 C1204 1.390 . S
C1204 C1203 1.390 . S
C1204 C1205 1.394 . S
C1204 C1210 1.465 . S
C1205 C1200 1.399 . S
C1205 C1204 1.394 . S
C1205 C1206 1.516 . S
C1206 C1205 1.516 . S
C1206 C1207 1.502 . S
C1206 C1208 1.561 . S
C1206 C1209 1.526 . S
C1207 H1191 0.959 . S
C1207 H1192 0.959 . S
C1207 H1193 0.961 . S
C1207 C1206 1.502 . S
C1208 H1194 0.960 . S
C1208 H1195 0.961 . S
C1208 H1196 0.959 . S
C1208 C1206 1.561 . S
C1209 C1206 1.526 . S
C1209 C1210 1.396 . S
C1209 C1214 1.390 . S
C1210 C1204 1.465 . S
C1210 C1209 1.396 . S
C1210 C1211 1.399 . S
C1211 H1197 0.929 . S
C1211 C1210 1.399 . S
C1211 C1212 1.385 . S
C1212 H1198 0.931 . S
C1212 C1211 1.385 . S
C1212 C1213 1.389 . S
C1213 C1212 1.389 . S
C1213 C1214 1.387 . S
C1214 H1199 0.930 . S
C1214 C1209 1.390 . S
C1214 C1213 1.387 . S
H1215 C1227 0.930 . S
H1216 C1229 0.930 . S
H1217 C1230 0.930 . S
H1218 C1234 0.959 . S
H1219 C1234 0.959 . S
H1220 C1234 0.961 . S
H1221 C1235 0.960 . S
H1222 C1235 0.961 . S
H1223 C1235 0.959 . S
H1224 C1238 0.929 . S
H1225 C1239 0.931 . S
H1226 C1241 0.930 . S
C1227 H1215 0.930 . S
C1227 C1228 1.399 . S
C1227 C1232 1.399 . S
C1228 C1227 1.399 . S
C1228 C1229 1.376 . S
C1229 H1216 0.930 . S
C1229 C1228 1.376 . S
C1229 C1230 1.388 . S
C1230 H1217 0.930 . S
C1230 C1229 1.388 . S
C1230 C1231 1.390 . S
C1231 C1230 1.390 . S
C1231 C1232 1.394 . S
C1231 C1237 1.465 . S
C1232 C1227 1.399 . S
C1232 C1231 1.394 . S
C1232 C1233 1.516 . S
C1233 C1232 1.516 . S
C1233 C1234 1.502 . S
C1233 C1235 1.561 . S
C1233 C1236 1.526 . S
C1234 H1218 0.959 . S
C1234 H1219 0.959 . S
C1234 H1220 0.961 . S
C1234 C1233 1.502 . S
C1235 H1221 0.960 . S
C1235 H1222 0.961 . S
C1235 H1223 0.959 . S
C1235 C1233 1.561 . S
C1236 C1233 1.526 . S
C1236 C1237 1.396 . S
C1236 C1241 1.390 . S
C1237 C1231 1.465 . S
C1237 C1236 1.396 . S
C1237 C1238 1.399 . S
C1238 H1224 0.929 . S
C1238 C1237 1.399 . S
C1238 C1239 1.385 . S
C1239 H1225 0.931 . S
C1239 C1238 1.385 . S
C1239 C1240 1.389 . S
C1240 C1239 1.389 . S
C1240 C1241 1.387 . S
C1241 H1226 0.930 . S
C1241 C1236 1.390 . S
C1241 C1240 1.387 . S
H1242 C1254 0.930 . S
H1243 C1256 0.930 . S
H1244 C1257 0.930 . S
H1245 C1261 0.959 . S
H1246 C1261 0.959 . S
H1247 C1261 0.961 . S
H1248 C1262 0.960 . S
H1249 C1262 0.961 . S
H1250 C1262 0.959 . S
H1251 C1265 0.929 . S
H1252 C1266 0.931 . S
H1253 C1268 0.930 . S
C1254 H1242 0.930 . S
C1254 C1255 1.399 . S
C1254 C1259 1.399 . S
C1255 C1254 1.399 . S
C1255 C1256 1.376 . S
C1256 H1243 0.930 . S
C1256 C1255 1.376 . S
C1256 C1257 1.388 . S
C1257 H1244 0.930 . S
C1257 C1256 1.388 . S
C1257 C1258 1.390 . S
C1258 C1257 1.390 . S
C1258 C1259 1.394 . S
C1258 C1264 1.465 . S
C1259 C1254 1.399 . S
C1259 C1258 1.394 . S
C1259 C1260 1.516 . S
C1260 C1259 1.516 . S
C1260 C1261 1.502 . S
C1260 C1262 1.561 . S
C1260 C1263 1.526 . S
C1261 H1245 0.959 . S
C1261 H1246 0.959 . S
C1261 H1247 0.961 . S
C1261 C1260 1.502 . S
C1262 H1248 0.960 . S
C1262 H1249 0.961 . S
C1262 H1250 0.959 . S
C1262 C1260 1.561 . S
C1263 C1260 1.526 . S
C1263 C1264 1.396 . S
C1263 C1268 1.390 . S
C1264 C1258 1.465 . S
C1264 C1263 1.396 . S
C1264 C1265 1.399 . S
C1265 H1251 0.929 . S
C1265 C1264 1.399 . S
C1265 C1266 1.385 . S
C1266 H1252 0.931 . S
C1266 C1265 1.385 . S
C1266 C1267 1.389 . S
C1267 C1266 1.389 . S
C1267 C1268 1.387 . S
C1268 H1253 0.930 . S
C1268 C1263 1.390 . S
C1268 C1267 1.387 . S
H1269 C1281 0.930 . S
H1270 C1283 0.930 . S
H1271 C1284 0.930 . S
H1272 C1288 0.959 . S
H1273 C1288 0.959 . S
H1274 C1288 0.961 . S
H1275 C1289 0.960 . S
H1276 C1289 0.961 . S
H1277 C1289 0.959 . S
H1278 C1292 0.929 . S
H1279 C1293 0.931 . S
H1280 C1295 0.930 . S
C1281 H1269 0.930 . S
C1281 C1282 1.399 . S
C1281 C1286 1.399 . S
C1282 C1281 1.399 . S
C1282 C1283 1.376 . S
C1283 H1270 0.930 . S
C1283 C1282 1.376 . S
C1283 C1284 1.388 . S
C1284 H1271 0.930 . S
C1284 C1283 1.388 . S
C1284 C1285 1.390 . S
C1285 C1284 1.390 . S
C1285 C1286 1.394 . S
C1285 C1291 1.465 . S
C1286 C1281 1.399 . S
C1286 C1285 1.394 . S
C1286 C1287 1.516 . S
C1287 C1286 1.516 . S
C1287 C1288 1.502 . S
C1287 C1289 1.561 . S
C1287 C1290 1.526 . S
C1288 H1272 0.959 . S
C1288 H1273 0.959 . S
C1288 H1274 0.961 . S
C1288 C1287 1.502 . S
C1289 H1275 0.960 . S
C1289 H1276 0.961 . S
C1289 H1277 0.959 . S
C1289 C1287 1.561 . S
C1290 C1287 1.526 . S
C1290 C1291 1.396 . S
C1290 C1295 1.390 . S
C1291 C1285 1.465 . S
C1291 C1290 1.396 . S
C1291 C1292 1.399 . S
C1292 H1278 0.929 . S
C1292 C1291 1.399 . S
C1292 C1293 1.385 . S
C1293 H1279 0.931 . S
C1293 C1292 1.385 . S
C1293 C1294 1.389 . S
C1294 C1293 1.389 . S
C1294 C1295 1.387 . S
C1295 H1280 0.930 . S
C1295 C1290 1.390 . S
C1295 C1294 1.387 . S
H1296 C1308 0.930 . S
H1297 C1310 0.930 . S
H1298 C1311 0.930 . S
H1299 C1315 0.959 . S
H1300 C1315 0.959 . S
H1301 C1315 0.961 . S
H1302 C1316 0.960 . S
H1303 C1316 0.961 . S
H1304 C1316 0.959 . S
H1305 C1319 0.929 . S
H1306 C1320 0.931 . S
H1307 C1322 0.930 . S
C1308 H1296 0.930 . S
C1308 C1309 1.399 . S
C1308 C1313 1.399 . S
C1309 C1308 1.399 . S
C1309 C1310 1.376 . S
C1310 H1297 0.930 . S
C1310 C1309 1.376 . S
C1310 C1311 1.388 . S
C1311 H1298 0.930 . S
C1311 C1310 1.388 . S
C1311 C1312 1.390 . S
C1312 C1311 1.390 . S
C1312 C1313 1.394 . S
C1312 C1318 1.465 . S
C1313 C1308 1.399 . S
C1313 C1312 1.394 . S
C1313 C1314 1.516 . S
C1314 C1313 1.516 . S
C1314 C1315 1.502 . S
C1314 C1316 1.561 . S
C1314 C1317 1.526 . S
C1315 H1299 0.959 . S
C1315 H1300 0.959 . S
C1315 H1301 0.961 . S
C1315 C1314 1.502 . S
C1316 H1302 0.960 . S
C1316 H1303 0.961 . S
C1316 H1304 0.959 . S
C1316 C1314 1.561 . S
C1317 C1314 1.526 . S
C1317 C1318 1.396 . S
C1317 C1322 1.390 . S
C1318 C1312 1.465 . S
C1318 C1317 1.396 . S
C1318 C1319 1.399 . S
C1319 H1305 0.929 . S
C1319 C1318 1.399 . S
C1319 C1320 1.385 . S
C1320 H1306 0.931 . S
C1320 C1319 1.385 . S
C1320 C1321 1.389 . S
C1321 C1320 1.389 . S
C1321 C1322 1.387 . S
C1322 H1307 0.930 . S
C1322 C1317 1.390 . S
C1322 C1321 1.387 . S
H1323 C1335 0.930 . S
H1324 C1337 0.930 . S
H1325 C1338 0.930 . S
H1326 C1342 0.959 . S
H1327 C1342 0.959 . S
H1328 C1342 0.961 . S
H1329 C1343 0.960 . S
H1330 C1343 0.961 . S
H1331 C1343 0.959 . S
H1332 C1346 0.929 . S
H1333 C1347 0.931 . S
H1334 C1349 0.930 . S
C1335 H1323 0.930 . S
C1335 C1336 1.399 . S
C1335 C1340 1.399 . S
C1336 C1335 1.399 . S
C1336 C1337 1.376 . S
C1337 H1324 0.930 . S
C1337 C1336 1.376 . S
C1337 C1338 1.388 . S
C1338 H1325 0.930 . S
C1338 C1337 1.388 . S
C1338 C1339 1.390 . S
C1339 C1338 1.390 . S
C1339 C1340 1.394 . S
C1339 C1345 1.465 . S
C1340 C1335 1.399 . S
C1340 C1339 1.394 . S
C1340 C1341 1.516 . S
C1341 C1340 1.516 . S
C1341 C1342 1.502 . S
C1341 C1343 1.561 . S
C1341 C1344 1.526 . S
C1342 H1326 0.959 . S
C1342 H1327 0.959 . S
C1342 H1328 0.961 . S
C1342 C1341 1.502 . S
C1343 H1329 0.960 . S
C1343 H1330 0.961 . S
C1343 H1331 0.959 . S
C1343 C1341 1.561 . S
C1344 C1341 1.526 . S
C1344 C1345 1.396 . S
C1344 C1349 1.390 . S
C1345 C1339 1.465 . S
C1345 C1344 1.396 . S
C1345 C1346 1.399 . S
C1346 H1332 0.929 . S
C1346 C1345 1.399 . S
C1346 C1347 1.385 . S
C1347 H1333 0.931 . S
C1347 C1346 1.385 . S
C1347 C1348 1.389 . S
C1348 C1347 1.389 . S
C1348 C1349 1.387 . S
C1349 H1334 0.930 . S
C1349 C1344 1.390 . S
C1349 C1348 1.387 . S
H1350 C1362 0.930 . S
H1351 C1364 0.930 . S
H1352 C1365 0.930 . S
H1353 C1369 0.959 . S
H1354 C1369 0.959 . S
H1355 C1369 0.961 . S
H1356 C1370 0.960 . S
H1357 C1370 0.961 . S
H1358 C1370 0.959 . S
H1359 C1373 0.929 . S
H1360 C1374 0.931 . S
H1361 C1376 0.930 . S
C1362 H1350 0.930 . S
C1362 C1363 1.399 . S
C1362 C1367 1.399 . S
C1363 C1362 1.399 . S
C1363 C1364 1.376 . S
C1364 H1351 0.930 . S
C1364 C1363 1.376 . S
C1364 C1365 1.388 . S
C1365 H1352 0.930 . S
C1365 C1364 1.388 . S
C1365 C1366 1.390 . S
C1366 C1365 1.390 . S
C1366 C1367 1.394 . S
C1366 C1372 1.465 . S
C1367 C1362 1.399 . S
C1367 C1366 1.394 . S
C1367 C1368 1.516 . S
C1368 C1367 1.516 . S
C1368 C1369 1.502 . S
C1368 C1370 1.561 . S
C1368 C1371 1.526 . S
C1369 H1353 0.959 . S
C1369 H1354 0.959 . S
C1369 H1355 0.961 . S
C1369 C1368 1.502 . S
C1370 H1356 0.960 . S
C1370 H1357 0.961 . S
C1370 H1358 0.959 . S
C1370 C1368 1.561 . S
C1371 C1368 1.526 . S
C1371 C1372 1.396 . S
C1371 C1376 1.390 . S
C1372 C1366 1.465 . S
C1372 C1371 1.396 . S
C1372 C1373 1.399 . S
C1373 H1359 0.929 . S
C1373 C1372 1.399 . S
C1373 C1374 1.385 . S
C1374 H1360 0.931 . S
C1374 C1373 1.385 . S
C1374 C1375 1.389 . S
C1375 C1374 1.389 . S
C1375 C1376 1.387 . S
C1376 H1361 0.930 . S
C1376 C1371 1.390 . S
C1376 C1375 1.387 . S
H1377 C1389 0.930 . S
H1378 C1391 0.930 . S
H1379 C1392 0.930 . S
H1380 C1396 0.959 . S
H1381 C1396 0.959 . S
H1382 C1396 0.961 . S
H1383 C1397 0.960 . S
H1384 C1397 0.961 . S
H1385 C1397 0.959 . S
H1386 C1400 0.929 . S
H1387 C1401 0.931 . S
H1388 C1403 0.930 . S
C1389 H1377 0.930 . S
C1389 C1390 1.399 . S
C1389 C1394 1.399 . S
C1390 C1389 1.399 . S
C1390 C1391 1.376 . S
C1391 H1378 0.930 . S
C1391 C1390 1.376 . S
C1391 C1392 1.388 . S
C1392 H1379 0.930 . S
C1392 C1391 1.388 . S
C1392 C1393 1.390 . S
C1393 C1392 1.390 . S
C1393 C1394 1.394 . S
C1393 C1399 1.465 . S
C1394 C1389 1.399 . S
C1394 C1393 1.394 . S
C1394 C1395 1.516 . S
C1395 C1394 1.516 . S
C1395 C1396 1.502 . S
C1395 C1397 1.561 . S
C1395 C1398 1.526 . S
C1396 H1380 0.959 . S
C1396 H1381 0.959 . S
C1396 H1382 0.961 . S
C1396 C1395 1.502 . S
C1397 H1383 0.960 . S
C1397 H1384 0.961 . S
C1397 H1385 0.959 . S
C1397 C1395 1.561 . S
C1398 C1395 1.526 . S
C1398 C1399 1.396 . S
C1398 C1403 1.390 . S
C1399 C1393 1.465 . S
C1399 C1398 1.396 . S
C1399 C1400 1.399 . S
C1400 H1386 0.929 . S
C1400 C1399 1.399 . S
C1400 C1401 1.385 . S
C1401 H1387 0.931 . S
C1401 C1400 1.385 . S
C1401 C1402 1.389 . S
C1402 C1401 1.389 . S
C1402 C1403 1.387 . S
C1403 H1388 0.930 . S
C1403 C1398 1.390 . S
C1403 C1402 1.387 . S
H1404 C1416 0.930 . S
H1405 C1418 0.930 . S
H1406 C1419 0.930 . S
H1407 C1423 0.959 . S
H1408 C1423 0.959 . S
H1409 C1423 0.961 . S
H1410 C1424 0.960 . S
H1411 C1424 0.961 . S
H1412 C1424 0.959 . S
H1413 C1427 0.929 . S
H1414 C1428 0.931 . S
H1415 C1430 0.930 . S
C1416 H1404 0.930 . S
C1416 C1417 1.399 . S
C1416 C1421 1.399 . S
C1417 C1416 1.399 . S
C1417 C1418 1.376 . S
C1418 H1405 0.930 . S
C1418 C1417 1.376 . S
C1418 C1419 1.388 . S
C1419 H1406 0.930 . S
C1419 C1418 1.388 . S
C1419 C1420 1.390 . S
C1420 C1419 1.390 . S
C1420 C1421 1.394 . S
C1420 C1426 1.465 . S
C1421 C1416 1.399 . S
C1421 C1420 1.394 . S
C1421 C1422 1.516 . S
C1422 C1421 1.516 . S
C1422 C1423 1.502 . S
C1422 C1424 1.561 . S
C1422 C1425 1.526 . S
C1423 H1407 0.959 . S
C1423 H1408 0.959 . S
C1423 H1409 0.961 . S
C1423 C1422 1.502 . S
C1424 H1410 0.960 . S
C1424 H1411 0.961 . S
C1424 H1412 0.959 . S
C1424 C1422 1.561 . S
C1425 C1422 1.526 . S
C1425 C1426 1.396 . S
C1425 C1430 1.390 . S
C1426 C1420 1.465 . S
C1426 C1425 1.396 . S
C1426 C1427 1.399 . S
C1427 H1413 0.929 . S
C1427 C1426 1.399 . S
C1427 C1428 1.385 . S
C1428 H1414 0.931 . S
C1428 C1427 1.385 . S
C1428 C1429 1.389 . S
C1429 C1428 1.389 . S
C1429 C1430 1.387 . S
C1430 H1415 0.930 . S
C1430 C1425 1.390 . S
C1430 C1429 1.387 . S
H1431 C1443 0.930 . S
H1432 C1445 0.930 . S
H1433 C1446 0.930 . S
H1434 C1450 0.959 . S
H1435 C1450 0.959 . S
H1436 C1450 0.961 . S
H1437 C1451 0.960 . S
H1438 C1451 0.961 . S
H1439 C1451 0.959 . S
H1440 C1454 0.929 . S
H1441 C1455 0.931 . S
H1442 C1457 0.930 . S
C1443 H1431 0.930 . S
C1443 C1444 1.399 . S
C1443 C1448 1.399 . S
C1444 C1443 1.399 . S
C1444 C1445 1.376 . S
C1445 H1432 0.930 . S
C1445 C1444 1.376 . S
C1445 C1446 1.388 . S
C1446 H1433 0.930 . S
C1446 C1445 1.388 . S
C1446 C1447 1.390 . S
C1447 C1446 1.390 . S
C1447 C1448 1.394 . S
C1447 C1453 1.465 . S
C1448 C1443 1.399 . S
C1448 C1447 1.394 . S
C1448 C1449 1.516 . S
C1449 C1448 1.516 . S
C1449 C1450 1.502 . S
C1449 C1451 1.561 . S
C1449 C1452 1.526 . S
C1450 H1434 0.959 . S
C1450 H1435 0.959 . S
C1450 H1436 0.961 . S
C1450 C1449 1.502 . S
C1451 H1437 0.960 . S
C1451 H1438 0.961 . S
C1451 H1439 0.959 . S
C1451 C1449 1.561 . S
C1452 C1449 1.526 . S
C1452 C1453 1.396 . S
C1452 C1457 1.390 . S
C1453 C1447 1.465 . S
C1453 C1452 1.396 . S
C1453 C1454 1.399 . S
C1454 H1440 0.929 . S
C1454 C1453 1.399 . S
C1454 C1455 1.385 . S
C1455 H1441 0.931 . S
C1455 C1454 1.385 . S
C1455 C1456 1.389 . S
C1456 C1455 1.389 . S
C1456 C1457 1.387 . S
C1457 H1442 0.930 . S
C1457 C1452 1.390 . S
C1457 C1456 1.387 . S
H1458 C1470 0.930 . S
H1459 C1472 0.930 . S
H1460 C1473 0.930 . S
H1461 C1477 0.959 . S
H1462 C1477 0.959 . S
H1463 C1477 0.961 . S
H1464 C1478 0.960 . S
H1465 C1478 0.961 . S
H1466 C1478 0.959 . S
H1467 C1481 0.929 . S
H1468 C1482 0.931 . S
H1469 C1484 0.930 . S
C1470 H1458 0.930 . S
C1470 C1471 1.399 . S
C1470 C1475 1.399 . S
C1471 C1470 1.399 . S
C1471 C1472 1.376 . S
C1472 H1459 0.930 . S
C1472 C1471 1.376 . S
C1472 C1473 1.388 . S
C1473 H1460 0.930 . S
C1473 C1472 1.388 . S
C1473 C1474 1.390 . S
C1474 C1473 1.390 . S
C1474 C1475 1.394 . S
C1474 C1480 1.465 . S
C1475 C1470 1.399 . S
C1475 C1474 1.394 . S
C1475 C1476 1.516 . S
C1476 C1475 1.516 . S
C1476 C1477 1.502 . S
C1476 C1478 1.561 . S
C1476 C1479 1.526 . S
C1477 H1461 0.959 . S
C1477 H1462 0.959 . S
C1477 H1463 0.961 . S
C1477 C1476 1.502 . S
C1478 H1464 0.960 . S
C1478 H1465 0.961 . S
C1478 H1466 0.959 . S
C1478 C1476 1.561 . S
C1479 C1476 1.526 . S
C1479 C1480 1.396 . S
C1479 C1484 1.390 . S
C1480 C1474 1.465 . S
C1480 C1479 1.396 . S
C1480 C1481 1.399 . S
C1481 H1467 0.929 . S
C1481 C1480 1.399 . S
C1481 C1482 1.385 . S
C1482 H1468 0.931 . S
C1482 C1481 1.385 . S
C1482 C1483 1.389 . S
C1483 C1482 1.389 . S
C1483 C1484 1.387 . S
C1484 H1469 0.930 . S
C1484 C1479 1.390 . S
C1484 C1483 1.387 . S
H1485 C1497 0.930 . S
H1486 C1499 0.930 . S
H1487 C1500 0.930 . S
H1488 C1504 0.959 . S
H1489 C1504 0.959 . S
H1490 C1504 0.961 . S
H1491 C1505 0.960 . S
H1492 C1505 0.961 . S
H1493 C1505 0.959 . S
H1494 C1508 0.929 . S
H1495 C1509 0.931 . S
H1496 C1511 0.930 . S
C1497 H1485 0.930 . S
C1497 C1498 1.399 . S
C1497 C1502 1.399 . S
C1498 C1497 1.399 . S
C1498 C1499 1.376 . S
C1499 H1486 0.930 . S
C1499 C1498 1.376 . S
C1499 C1500 1.388 . S
C1500 H1487 0.930 . S
C1500 C1499 1.388 . S
C1500 C1501 1.390 . S
C1501 C1500 1.390 . S
C1501 C1502 1.394 . S
C1501 C1507 1.465 . S
C1502 C1497 1.399 . S
C1502 C1501 1.394 . S
C1502 C1503 1.516 . S
C1503 C1502 1.516 . S
C1503 C1504 1.502 . S
C1503 C1505 1.561 . S
C1503 C1506 1.526 . S
C1504 H1488 0.959 . S
C1504 H1489 0.959 . S
C1504 H1490 0.961 . S
C1504 C1503 1.502 . S
C1505 H1491 0.960 . S
C1505 H1492 0.961 . S
C1505 H1493 0.959 . S
C1505 C1503 1.561 . S
C1506 C1503 1.526 . S
C1506 C1507 1.396 . S
C1506 C1511 1.390 . S
C1507 C1501 1.465 . S
C1507 C1506 1.396 . S
C1507 C1508 1.399 . S
C1508 H1494 0.929 . S
C1508 C1507 1.399 . S
C1508 C1509 1.385 . S
C1509 H1495 0.931 . S
C1509 C1508 1.385 . S
C1509 C1510 1.389 . S
C1510 C1509 1.389 . S
C1510 C1511 1.387 . S
C1511 H1496 0.930 . S
C1511 C1506 1.390 . S
C1511 C1510 1.387 . S
H1512 C1524 0.930 . S
H1513 C1526 0.930 . S
H1514 C1527 0.930 . S
H1515 C1531 0.959 . S
H1516 C1531 0.959 . S
H1517 C1531 0.961 . S
H1518 C1532 0.960 . S
H1519 C1532 0.961 . S
H1520 C1532 0.959 . S
H1521 C1535 0.929 . S
H1522 C1536 0.931 . S
H1523 C1538 0.930 . S
C1524 H1512 0.930 . S
C1524 C1525 1.399 . S
C1524 C1529 1.399 . S
C1525 C1524 1.399 . S
C1525 C1526 1.376 . S
C1526 H1513 0.930 . S
C1526 C1525 1.376 . S
C1526 C1527 1.388 . S
C1527 H1514 0.930 . S
C1527 C1526 1.388 . S
C1527 C1528 1.390 . S
C1528 C1527 1.390 . S
C1528 C1529 1.394 . S
C1528 C1534 1.465 . S
C1529 C1524 1.399 . S
C1529 C1528 1.394 . S
C1529 C1530 1.516 . S
C1530 C1529 1.516 . S
C1530 C1531 1.502 . S
C1530 C1532 1.561 . S
C1530 C1533 1.526 . S
C1531 H1515 0.959 . S
C1531 H1516 0.959 . S
C1531 H1517 0.961 . S
C1531 C1530 1.502 . S
C1532 H1518 0.960 . S
C1532 H1519 0.961 . S
C1532 H1520 0.959 . S
C1532 C1530 1.561 . S
C1533 C1530 1.526 . S
C1533 C1534 1.396 . S
C1533 C1538 1.390 . S
C1534 C1528 1.465 . S
C1534 C1533 1.396 . S
C1534 C1535 1.399 . S
C1535 H1521 0.929 . S
C1535 C1534 1.399 . S
C1535 C1536 1.385 . S
C1536 H1522 0.931 . S
C1536 C1535 1.385 . S
C1536 C1537 1.389 . S
C1537 C1536 1.389 . S
C1537 C1538 1.387 . S
C1538 H1523 0.930 . S
C1538 C1533 1.390 . S
C1538 C1537 1.387 . S
H1539 C1551 0.930 . S
H1540 C1553 0.930 . S
H1541 C1554 0.930 . S
H1542 C1558 0.959 . S
H1543 C1558 0.959 . S
H1544 C1558 0.961 . S
H1545 C1559 0.960 . S
H1546 C1559 0.961 . S
H1547 C1559 0.959 . S
H1548 C1562 0.929 . S
H1549 C1563 0.931 . S
H1550 C1565 0.930 . S
C1551 H1539 0.930 . S
C1551 C1552 1.399 . S
C1551 C1556 1.399 . S
C1552 C1551 1.399 . S
C1552 C1553 1.376 . S
C1553 H1540 0.930 . S
C1553 C1552 1.376 . S
C1553 C1554 1.388 . S
C1554 H1541 0.930 . S
C1554 C1553 1.388 . S
C1554 C1555 1.390 . S
C1555 C1554 1.390 . S
C1555 C1556 1.394 . S
C1555 C1561 1.465 . S
C1556 C1551 1.399 . S
C1556 C1555 1.394 . S
C1556 C1557 1.516 . S
C1557 C1556 1.516 . S
C1557 C1558 1.502 . S
C1557 C1559 1.561 . S
C1557 C1560 1.526 . S
C1558 H1542 0.959 . S
C1558 H1543 0.959 . S
C1558 H1544 0.961 . S
C1558 C1557 1.502 . S
C1559 H1545 0.960 . S
C1559 H1546 0.961 . S
C1559 H1547 0.959 . S
C1559 C1557 1.561 . S
C1560 C1557 1.526 . S
C1560 C1561 1.396 . S
C1560 C1565 1.390 . S
C1561 C1555 1.465 . S
C1561 C1560 1.396 . S
C1561 C1562 1.399 . S
C1562 H1548 0.929 . S
C1562 C1561 1.399 . S
C1562 C1563 1.385 . S
C1563 H1549 0.931 . S
C1563 C1562 1.385 . S
C1563 C1564 1.389 . S
C1564 C1563 1.389 . S
C1564 C1565 1.387 . S
C1565 H1550 0.930 . S
C1565 C1560 1.390 . S
C1565 C1564 1.387 . S
H1566 C1578 0.930 . S
H1567 C1580 0.930 . S
H1568 C1581 0.930 . S
H1569 C1585 0.959 . S
H1570 C1585 0.959 . S
H1571 C1585 0.961 . S
H1572 C1586 0.960 . S
H1573 C1586 0.961 . S
H1574 C1586 0.959 . S
H1575 C1589 0.929 . S
H1576 C1590 0.931 . S
H1577 C1592 0.930 . S
C1578 H1566 0.930 . S
C1578 C1579 1.399 . S
C1578 C1583 1.399 . S
C1579 C1578 1.399 . S
C1579 C1580 1.376 . S
C1580 H1567 0.930 . S
C1580 C1579 1.376 . S
C1580 C1581 1.388 . S
C1581 H1568 0.930 . S
C1581 C1580 1.388 . S
C1581 C1582 1.390 . S
C1582 C1581 1.390 . S
C1582 C1583 1.394 . S
C1582 C1588 1.465 . S
C1583 C1578 1.399 . S
C1583 C1582 1.394 . S
C1583 C1584 1.516 . S
C1584 C1583 1.516 . S
C1584 C1585 1.502 . S
C1584 C1586 1.561 . S
C1584 C1587 1.526 . S
C1585 H1569 0.959 . S
C1585 H1570 0.959 . S
C1585 H1571 0.961 . S
C1585 C1584 1.502 . S
C1586 H1572 0.960 . S
C1586 H1573 0.961 . S
C1586 H1574 0.959 . S
C1586 C1584 1.561 . S
C1587 C1584 1.526 . S
C1587 C1588 1.396 . S
C1587 C1592 1.390 . S
C1588 C1582 1.465 . S
C1588 C1587 1.396 . S
C1588 C1589 1.399 . S
C1589 H1575 0.929 . S
C1589 C1588 1.399 . S
C1589 C1590 1.385 . S
C1590 H1576 0.931 . S
C1590 C1589 1.385 . S
C1590 C1591 1.389 . S
C1591 C1590 1.389 . S
C1591 C1592 1.387 . S
C1592 H1577 0.930 . S
C1592 C1587 1.390 . S
C1592 C1591 1.387 . S
H1593 C1605 0.930 . S
H1594 C1607 0.930 . S
H1595 C1608 0.930 . S
H1596 C1612 0.959 . S
H1597 C1612 0.959 . S
H1598 C1612 0.961 . S
H1599 C1613 0.960 . S
H1600 C1613 0.961 . S
H1601 C1613 0.959 . S
H1602 C1616 0.929 . S
H1603 C1617 0.931 . S
H1604 C1619 0.930 . S
C1605 H1593 0.930 . S
C1605 C1606 1.399 . S
C1605 C1610 1.399 . S
C1606 C1605 1.399 . S
C1606 C1607 1.376 . S
C1607 H1594 0.930 . S
C1607 C1606 1.376 . S
C1607 C1608 1.388 . S
C1608 H1595 0.930 . S
C1608 C1607 1.388 . S
C1608 C1609 1.390 . S
C1609 C1608 1.390 . S
C1609 C1610 1.394 . S
C1609 C1615 1.465 . S
C1610 C1605 1.399 . S
C1610 C1609 1.394 . S
C1610 C1611 1.516 . S
C1611 C1610 1.516 . S
C1611 C1612 1.502 . S
C1611 C1613 1.561 . S
C1611 C1614 1.526 . S
C1612 H1596 0.959 . S
C1612 H1597 0.959 . S
C1612 H1598 0.961 . S
C1612 C1611 1.502 . S
C1613 H1599 0.960 . S
C1613 H1600 0.961 . S
C1613 H1601 0.959 . S
C1613 C1611 1.561 . S
C1614 C1611 1.526 . S
C1614 C1615 1.396 . S
C1614 C1619 1.390 . S
C1615 C1609 1.465 . S
C1615 C1614 1.396 . S
C1615 C1616 1.399 . S
C1616 H1602 0.929 . S
C1616 C1615 1.399 . S
C1616 C1617 1.385 . S
C1617 H1603 0.931 . S
C1617 C1616 1.385 . S
C1617 C1618 1.389 . S
C1618 C1617 1.389 . S
C1618 C1619 1.387 . S
C1619 H1604 0.930 . S
C1619 C1614 1.390 . S
C1619 C1618 1.387 . S
H1620 C1632 0.930 . S
H1621 C1634 0.930 . S
H1622 C1635 0.930 . S
H1623 C1639 0.959 . S
H1624 C1639 0.959 . S
H1625 C1639 0.961 . S
H1626 C1640 0.960 . S
H1627 C1640 0.961 . S
H1628 C1640 0.959 . S
H1629 C1643 0.929 . S
H1630 C1644 0.931 . S
H1631 C1646 0.930 . S
C1632 H1620 0.930 . S
C1632 C1633 1.399 . S
C1632 C1637 1.399 . S
C1633 C1632 1.399 . S
C1633 C1634 1.376 . S
C1634 H1621 0.930 . S
C1634 C1633 1.376 . S
C1634 C1635 1.388 . S
C1635 H1622 0.930 . S
C1635 C1634 1.388 . S
C1635 C1636 1.390 . S
C1636 C1635 1.390 . S
C1636 C1637 1.394 . S
C1636 C1642 1.465 . S
C1637 C1632 1.399 . S
C1637 C1636 1.394 . S
C1637 C1638 1.516 . S
C1638 C1637 1.516 . S
C1638 C1639 1.502 . S
C1638 C1640 1.561 . S
C1638 C1641 1.526 . S
C1639 H1623 0.959 . S
C1639 H1624 0.959 . S
C1639 H1625 0.961 . S
C1639 C1638 1.502 . S
C1640 H1626 0.960 . S
C1640 H1627 0.961 . S
C1640 H1628 0.959 . S
C1640 C1638 1.561 . S
C1641 C1638 1.526 . S
C1641 C1642 1.396 . S
C1641 C1646 1.390 . S
C1642 C1636 1.465 . S
C1642 C1641 1.396 . S
C1642 C1643 1.399 . S
C1643 H1629 0.929 . S
C1643 C1642 1.399 . S
C1643 C1644 1.385 . S
C1644 H1630 0.931 . S
C1644 C1643 1.385 . S
C1644 C1645 1.389 . S
C1645 C1644 1.389 . S
C1645 C1646 1.387 . S
C1646 H1631 0.930 . S
C1646 C1641 1.390 . S
C1646 C1645 1.387 . S
H1647 C1659 0.930 . S
H1648 C1661 0.930 . S
H1649 C1662 0.930 . S
H1650 C1666 0.959 . S
H1651 C1666 0.959 . S
H1652 C1666 0.961 . S
H1653 C1667 0.960 . S
H1654 C1667 0.961 . S
H1655 C1667 0.959 . S
H1656 C1670 0.929 . S
H1657 C1671 0.931 . S
H1658 C1673 0.930 . S
C1659 H1647 0.930 . S
C1659 C1660 1.399 . S
C1659 C1664 1.399 . S
C1660 C1659 1.399 . S
C1660 C1661 1.376 . S
C1661 H1648 0.930 . S
C1661 C1660 1.376 . S
C1661 C1662 1.388 . S
C1662 H1649 0.930 . S
C1662 C1661 1.388 . S
C1662 C1663 1.390 . S
C1663 C1662 1.390 . S
C1663 C1664 1.394 . S
C1663 C1669 1.465 . S
C1664 C1659 1.399 . S
C1664 C1663 1.394 . S
C1664 C1665 1.516 . S
C1665 C1664 1.516 . S
C1665 C1666 1.502 . S
C1665 C1667 1.561 . S
C1665 C1668 1.526 . S
C1666 H1650 0.959 . S
C1666 H1651 0.959 . S
C1666 H1652 0.961 . S
C1666 C1665 1.502 . S
C1667 H1653 0.960 . S
C1667 H1654 0.961 . S
C1667 H1655 0.959 . S
C1667 C1665 1.561 . S
C1668 C1665 1.526 . S
C1668 C1669 1.396 . S
C1668 C1673 1.390 . S
C1669 C1663 1.465 . S
C1669 C1668 1.396 . S
C1669 C1670 1.399 . S
C1670 H1656 0.929 . S
C1670 C1669 1.399 . S
C1670 C1671 1.385 . S
C1671 H1657 0.931 . S
C1671 C1670 1.385 . S
C1671 C1672 1.389 . S
C1672 C1671 1.389 . S
C1672 C1673 1.387 . S
C1673 H1658 0.930 . S
C1673 C1668 1.390 . S
C1673 C1672 1.387 . S
H1674 C1686 0.930 . S
H1675 C1688 0.930 . S
H1676 C1689 0.930 . S
H1677 C1693 0.959 . S
H1678 C1693 0.959 . S
H1679 C1693 0.961 . S
H1680 C1694 0.960 . S
H1681 C1694 0.961 . S
H1682 C1694 0.959 . S
H1683 C1697 0.929 . S
H1684 C1698 0.931 . S
H1685 C1700 0.930 . S
C1686 H1674 0.930 . S
C1686 C1687 1.399 . S
C1686 C1691 1.399 . S
C1687 C1686 1.399 . S
C1687 C1688 1.376 . S
C1688 H1675 0.930 . S
C1688 C1687 1.376 . S
C1688 C1689 1.388 . S
C1689 H1676 0.930 . S
C1689 C1688 1.388 . S
C1689 C1690 1.390 . S
C1690 C1689 1.390 . S
C1690 C1691 1.394 . S
C1690 C1696 1.465 . S
C1691 C1686 1.399 . S
C1691 C1690 1.394 . S
C1691 C1692 1.516 . S
C1692 C1691 1.516 . S
C1692 C1693 1.502 . S
C1692 C1694 1.561 . S
C1692 C1695 1.526 . S
C1693 H1677 0.959 . S
C1693 H1678 0.959 . S
C1693 H1679 0.961 . S
C1693 C1692 1.502 . S
C1694 H1680 0.960 . S
C1694 H1681 0.961 . S
C1694 H1682 0.959 . S
C1694 C1692 1.561 . S
C1695 C1692 1.526 . S
C1695 C1696 1.396 . S
C1695 C1700 1.390 . S
C1696 C1690 1.465 . S
C1696 C1695 1.396 . S
C1696 C1697 1.399 . S
C1697 H1683 0.929 . S
C1697 C1696 1.399 . S
C1697 C1698 1.385 . S
C1698 H1684 0.931 . S
C1698 C1697 1.385 . S
C1698 C1699 1.389 . S
C1699 C1698 1.389 . S
C1699 C1700 1.387 . S
C1700 H1685 0.930 . S
C1700 C1695 1.390 . S
C1700 C1699 1.387 . S
H1701 C1713 0.930 . S
H1702 C1715 0.930 . S
H1703 C1716 0.930 . S
H1704 C1720 0.959 . S
H1705 C1720 0.959 . S
H1706 C1720 0.961 . S
H1707 C1721 0.960 . S
H1708 C1721 0.961 . S
H1709 C1721 0.959 . S
H1710 C1724 0.929 . S
H1711 C1725 0.931 . S
H1712 C1727 0.930 . S
C1713 H1701 0.930 . S
C1713 C1714 1.399 . S
C1713 C1718 1.399 . S
C1714 C1713 1.399 . S
C1714 C1715 1.376 . S
C1715 H1702 0.930 . S
C1715 C1714 1.376 . S
C1715 C1716 1.388 . S
C1716 H1703 0.930 . S
C1716 C1715 1.388 . S
C1716 C1717 1.390 . S
C1717 C1716 1.390 . S
C1717 C1718 1.394 . S
C1717 C1723 1.465 . S
C1718 C1713 1.399 . S
C1718 C1717 1.394 . S
C1718 C1719 1.516 . S
C1719 C1718 1.516 . S
C1719 C1720 1.502 . S
C1719 C1721 1.561 . S
C1719 C1722 1.526 . S
C1720 H1704 0.959 . S
C1720 H1705 0.959 . S
C1720 H1706 0.961 . S
C1720 C1719 1.502 . S
C1721 H1707 0.960 . S
C1721 H1708 0.961 . S
C1721 H1709 0.959 . S
C1721 C1719 1.561 . S
C1722 C1719 1.526 . S
C1722 C1723 1.396 . S
C1722 C1727 1.390 . S
C1723 C1717 1.465 . S
C1723 C1722 1.396 . S
C1723 C1724 1.399 . S
C1724 H1710 0.929 . S
C1724 C1723 1.399 . S
C1724 C1725 1.385 . S
C1725 H1711 0.931 . S
C1725 C1724 1.385 . S
C1725 C1726 1.389 . S
C1726 C1725 1.389 . S
C1726 C1727 1.387 . S
C1727 H1712 0.930 . S
C1727 C1722 1.390 . S
C1727 C1726 1.387 . S
H1728 C1740 0.930 . S
H1729 C1742 0.930 . S
H1730 C1743 0.930 . S
H1731 C1747 0.959 . S
H1732 C1747 0.959 . S
H1733 C1747 0.961 . S
H1734 C1748 0.960 . S
H1735 C1748 0.961 . S
H1736 C1748 0.959 . S
H1737 C1751 0.929 . S
H1738 C1752 0.931 . S
H1739 C1754 0.930 . S
C1740 H1728 0.930 . S
C1740 C1741 1.399 . S
C1740 C1745 1.399 . S
C1741 C1740 1.399 . S
C1741 C1742 1.376 . S
C1742 H1729 0.930 . S
C1742 C1741 1.376 . S
C1742 C1743 1.388 . S
C1743 H1730 0.930 . S
C1743 C1742 1.388 . S
C1743 C1744 1.390 . S
C1744 C1743 1.390 . S
C1744 C1745 1.394 . S
C1744 C1750 1.465 . S
C1745 C1740 1.399 . S
C1745 C1744 1.394 . S
C1745 C1746 1.516 . S
C1746 C1745 1.516 . S
C1746 C1747 1.502 . S
C1746 C1748 1.561 . S
C1746 C1749 1.526 . S
C1747 H1731 0.959 . S
C1747 H1732 0.959 . S
C1747 H1733 0.961 . S
C1747 C1746 1.502 . S
C1748 H1734 0.960 . S
C1748 H1735 0.961 . S
C1748 H1736 0.959 . S
C1748 C1746 1.561 . S
C1749 C1746 1.526 . S
C1749 C1750 1.396 . S
C1749 C1754 1.390 . S
C1750 C1744 1.465 . S
C1750 C1749 1.396 . S
C1750 C1751 1.399 . S
C1751 H1737 0.929 . S
C1751 C1750 1.399 . S
C1751 C1752 1.385 . S
C1752 H1738 0.931 . S
C1752 C1751 1.385 . S
C1752 C1753 1.389 . S
C1753 C1752 1.389 . S
C1753 C1754 1.387 . S
C1754 H1739 0.930 . S
C1754 C1749 1.390 . S
C1754 C1753 1.387 . S
H1755 C1767 0.930 . S
H1756 C1769 0.930 . S
H1757 C1770 0.930 . S
H1758 C1774 0.959 . S
H1759 C1774 0.959 . S
H1760 C1774 0.961 . S
H1761 C1775 0.960 . S
H1762 C1775 0.961 . S
H1763 C1775 0.959 . S
H1764 C1778 0.929 . S
H1765 C1779 0.931 . S
H1766 C1781 0.930 . S
C1767 H1755 0.930 . S
C1767 C1768 1.399 . S
C1767 C1772 1.399 . S
C1768 C1767 1.399 . S
C1768 C1769 1.376 . S
C1769 H1756 0.930 . S
C1769 C1768 1.376 . S
C1769 C1770 1.388 . S
C1770 H1757 0.930 . S
C1770 C1769 1.388 . S
C1770 C1771 1.390 . S
C1771 C1770 1.390 . S
C1771 C1772 1.394 . S
C1771 C1777 1.465 . S
C1772 C1767 1.399 . S
C1772 C1771 1.394 . S
C1772 C1773 1.516 . S
C1773 C1772 1.516 . S
C1773 C1774 1.502 . S
C1773 C1775 1.561 . S
C1773 C1776 1.526 . S
C1774 H1758 0.959 . S
C1774 H1759 0.959 . S
C1774 H1760 0.961 . S
C1774 C1773 1.502 . S
C1775 H1761 0.960 . S
C1775 H1762 0.961 . S
C1775 H1763 0.959 . S
C1775 C1773 1.561 . S
C1776 C1773 1.526 . S
C1776 C1777 1.396 . S
C1776 C1781 1.390 . S
C1777 C1771 1.465 . S
C1777 C1776 1.396 . S
C1777 C1778 1.399 . S
C1778 H1764 0.929 . S
C1778 C1777 1.399 . S
C1778 C1779 1.385 . S
C1779 H1765 0.931 . S
C1779 C1778 1.385 . S
C1779 C1780 1.389 . S
C1780 C1779 1.389 . S
C1780 C1781 1.387 . S
C1781 H1766 0.930 . S
C1781 C1776 1.390 . S
C1781 C1780 1.387 . S
H1782 C1794 0.930 . S
H1783 C1796 0.930 . S
H1784 C1797 0.930 . S
H1785 C1801 0.959 . S
H1786 C1801 0.959 . S
H1787 C1801 0.961 . S
H1788 C1802 0.960 . S
H1789 C1802 0.961 . S
H1790 C1802 0.959 . S
H1791 C1805 0.929 . S
H1792 C1806 0.931 . S
H1793 C1808 0.930 . S
C1794 H1782 0.930 . S
C1794 C1795 1.399 . S
C1794 C1799 1.399 . S
C1795 C1794 1.399 . S
C1795 C1796 1.376 . S
C1796 H1783 0.930 . S
C1796 C1795 1.376 . S
C1796 C1797 1.388 . S
C1797 H1784 0.930 . S
C1797 C1796 1.388 . S
C1797 C1798 1.390 . S
C1798 C1797 1.390 . S
C1798 C1799 1.394 . S
C1798 C1804 1.465 . S
C1799 C1794 1.399 . S
C1799 C1798 1.394 . S
C1799 C1800 1.516 . S
C1800 C1799 1.516 . S
C1800 C1801 1.502 . S
C1800 C1802 1.561 . S
C1800 C1803 1.526 . S
C1801 H1785 0.959 . S
C1801 H1786 0.959 . S
C1801 H1787 0.961 . S
C1801 C1800 1.502 . S
C1802 H1788 0.960 . S
C1802 H1789 0.961 . S
C1802 H1790 0.959 . S
C1802 C1800 1.561 . S
C1803 C1800 1.526 . S
C1803 C1804 1.396 . S
C1803 C1808 1.390 . S
C1804 C1798 1.465 . S
C1804 C1803 1.396 . S
C1804 C1805 1.399 . S
C1805 H1791 0.929 . S
C1805 C1804 1.399 . S
C1805 C1806 1.385 . S
C1806 H1792 0.931 . S
C1806 C1805 1.385 . S
C1806 C1807 1.389 . S
C1807 C1806 1.389 . S
C1807 C1808 1.387 . S
C1808 H1793 0.930 . S
C1808 C1803 1.390 . S
C1808 C1807 1.387 . S
H1809 C1821 0.930 . S
H1810 C1823 0.930 . S
H1811 C1824 0.930 . S
H1812 C1828 0.959 . S
H1813 C1828 0.959 . S
H1814 C1828 0.961 . S
H1815 C1829 0.960 . S
H1816 C1829 0.961 . S
H1817 C1829 0.959 . S
H1818 C1832 0.929 . S
H1819 C1833 0.931 . S
H1820 C1835 0.930 . S
C1821 H1809 0.930 . S
C1821 C1822 1.399 . S
C1821 C1826 1.399 . S
C1822 C1821 1.399 . S
C1822 C1823 1.376 . S
C1823 H1810 0.930 . S
C1823 C1822 1.376 . S
C1823 C1824 1.388 . S
C1824 H1811 0.930 . S
C1824 C1823 1.388 . S
C1824 C1825 1.390 . S
C1825 C1824 1.390 . S
C1825 C1826 1.394 . S
C1825 C1831 1.465 . S
C1826 C1821 1.399 . S
C1826 C1825 1.394 . S
C1826 C1827 1.516 . S
C1827 C1826 1.516 . S
C1827 C1828 1.502 . S
C1827 C1829 1.561 . S
C1827 C1830 1.526 . S
C1828 H1812 0.959 . S
C1828 H1813 0.959 . S
C1828 H1814 0.961 . S
C1828 C1827 1.502 . S
C1829 H1815 0.960 . S
C1829 H1816 0.961 . S
C1829 H1817 0.959 . S
C1829 C1827 1.561 . S
C1830 C1827 1.526 . S
C1830 C1831 1.396 . S
C1830 C1835 1.390 . S
C1831 C1825 1.465 . S
C1831 C1830 1.396 . S
C1831 C1832 1.399 . S
C1832 H1818 0.929 . S
C1832 C1831 1.399 . S
C1832 C1833 1.385 . S
C1833 H1819 0.931 . S
C1833 C1832 1.385 . S
C1833 C1834 1.389 . S
C1834 C1833 1.389 . S
C1834 C1835 1.387 . S
C1835 H1820 0.930 . S
C1835 C1830 1.390 . S
C1835 C1834 1.387 . S
H1836 C1848 0.930 . S
H1837 C1850 0.930 . S
H1838 C1851 0.930 . S
H1839 C1855 0.959 . S
H1840 C1855 0.959 . S
H1841 C1855 0.961 . S
H1842 C1856 0.960 . S
H1843 C1856 0.961 . S
H1844 C1856 0.959 . S
H1845 C1859 0.929 . S
H1846 C1860 0.931 . S
H1847 C1862 0.930 . S
C1848 H1836 0.930 . S
C1848 C1849 1.399 . S
C1848 C1853 1.399 . S
C1849 C1848 1.399 . S
C1849 C1850 1.376 . S
C1850 H1837 0.930 . S
C1850 C1849 1.376 . S
C1850 C1851 1.388 . S
C1851 H1838 0.930 . S
C1851 C1850 1.388 . S
C1851 C1852 1.390 . S
C1852 C1851 1.390 . S
C1852 C1853 1.394 . S
C1852 C1858 1.465 . S
C1853 C1848 1.399 . S
C1853 C1852 1.394 . S
C1853 C1854 1.516 . S
C1854 C1853 1.516 . S
C1854 C1855 1.502 . S
C1854 C1856 1.561 . S
C1854 C1857 1.526 . S
C1855 H1839 0.959 . S
C1855 H1840 0.959 . S
C1855 H1841 0.961 . S
C1855 C1854 1.502 . S
C1856 H1842 0.960 . S
C1856 H1843 0.961 . S
C1856 H1844 0.959 . S
C1856 C1854 1.561 . S
C1857 C1854 1.526 . S
C1857 C1858 1.396 . S
C1857 C1862 1.390 . S
C1858 C1852 1.465 . S
C1858 C1857 1.396 . S
C1858 C1859 1.399 . S
C1859 H1845 0.929 . S
C1859 C1858 1.399 . S
C1859 C1860 1.385 . S
C1860 H1846 0.931 . S
C1860 C1859 1.385 . S
C1860 C1861 1.389 . S
C1861 C1860 1.389 . S
C1861 C1862 1.387 . S
C1862 H1847 0.930 . S
C1862 C1857 1.390 . S
C1862 C1861 1.387 . S
H1863 C1875 0.930 . S
H1864 C1877 0.930 . S
H1865 C1878 0.930 . S
H1866 C1882 0.959 . S
H1867 C1882 0.959 . S
H1868 C1882 0.961 . S
H1869 C1883 0.960 . S
H1870 C1883 0.961 . S
H1871 C1883 0.959 . S
H1872 C1886 0.929 . S
H1873 C1887 0.931 . S
H1874 C1889 0.930 . S
C1875 H1863 0.930 . S
C1875 C1876 1.399 . S
C1875 C1880 1.399 . S
C1876 C1875 1.399 . S
C1876 C1877 1.376 . S
C1877 H1864 0.930 . S
C1877 C1876 1.376 . S
C1877 C1878 1.388 . S
C1878 H1865 0.930 . S
C1878 C1877 1.388 . S
C1878 C1879 1.390 . S
C1879 C1878 1.390 . S
C1879 C1880 1.394 . S
C1879 C1885 1.465 . S
C1880 C1875 1.399 . S
C1880 C1879 1.394 . S
C1880 C1881 1.516 . S
C1881 C1880 1.516 . S
C1881 C1882 1.502 . S
C1881 C1883 1.561 . S
C1881 C1884 1.526 . S
C1882 H1866 0.959 . S
C1882 H1867 0.959 . S
C1882 H1868 0.961 . S
C1882 C1881 1.502 . S
C1883 H1869 0.960 . S
C1883 H1870 0.961 . S
C1883 H1871 0.959 . S
C1883 C1881 1.561 . S
C1884 C1881 1.526 . S
C1884 C1885 1.396 . S
C1884 C1889 1.390 . S
C1885 C1879 1.465 . S
C1885 C1884 1.396 . S
C1885 C1886 1.399 . S
C1886 H1872 0.929 . S
C1886 C1885 1.399 . S
C1886 C1887 1.385 . S
C1887 H1873 0.931 . S
C1887 C1886 1.385 . S
C1887 C1888 1.389 . S
C1888 C1887 1.389 . S
C1888 C1889 1.387 . S
C1889 H1874 0.930 . S
C1889 C1884 1.390 . S
C1889 C1888 1.387 . S
H1890 C1902 0.930 . S
H1891 C1904 0.930 . S
H1892 C1905 0.930 . S
H1893 C1909 0.959 . S
H1894 C1909 0.959 . S
H1895 C1909 0.961 . S
H1896 C1910 0.960 . S
H1897 C1910 0.961 . S
H1898 C1910 0.959 . S
H1899 C1913 0.929 . S
H1900 C1914 0.931 . S
H1901 C1916 0.930 . S
C1902 H1890 0.930 . S
C1902 C1903 1.399 . S
C1902 C1907 1.399 . S
C1903 C1902 1.399 . S
C1903 C1904 1.376 . S
C1904 H1891 0.930 . S
C1904 C1903 1.376 . S
C1904 C1905 1.388 . S
C1905 H1892 0.930 . S
C1905 C1904 1.388 . S
C1905 C1906 1.390 . S
C1906 C1905 1.390 . S
C1906 C1907 1.394 . S
C1906 C1912 1.465 . S
C1907 C1902 1.399 . S
C1907 C1906 1.394 . S
C1907 C1908 1.516 . S
C1908 C1907 1.516 . S
C1908 C1909 1.502 . S
C1908 C1910 1.561 . S
C1908 C1911 1.526 . S
C1909 H1893 0.959 . S
C1909 H1894 0.959 . S
C1909 H1895 0.961 . S
C1909 C1908 1.502 . S
C1910 H1896 0.960 . S
C1910 H1897 0.961 . S
C1910 H1898 0.959 . S
C1910 C1908 1.561 . S
C1911 C1908 1.526 . S
C1911 C1912 1.396 . S
C1911 C1916 1.390 . S
C1912 C1906 1.465 . S
C1912 C1911 1.396 . S
C1912 C1913 1.399 . S
C1913 H1899 0.929 . S
C1913 C1912 1.399 . S
C1913 C1914 1.385 . S
C1914 H1900 0.931 . S
C1914 C1913 1.385 . S
C1914 C1915 1.389 . S
C1915 C1914 1.389 . S
C1915 C1916 1.387 . S
C1916 H1901 0.930 . S
C1916 C1911 1.390 . S
C1916 C1915 1.387 . S
H1917 C1929 0.930 . S
H1918 C1931 0.930 . S
H1919 C1932 0.930 . S
H1920 C1936 0.959 . S
H1921 C1936 0.959 . S
H1922 C1936 0.961 . S
H1923 C1937 0.960 . S
H1924 C1937 0.961 . S
H1925 C1937 0.959 . S
H1926 C1940 0.929 . S
H1927 C1941 0.931 . S
H1928 C1943 0.930 . S
C1929 H1917 0.930 . S
C1929 C1930 1.399 . S
C1929 C1934 1.399 . S
C1930 C1929 1.399 . S
C1930 C1931 1.376 . S
C1931 H1918 0.930 . S
C1931 C1930 1.376 . S
C1931 C1932 1.388 . S
C1932 H1919 0.930 . S
C1932 C1931 1.388 . S
C1932 C1933 1.390 . S
C1933 C1932 1.390 . S
C1933 C1934 1.394 . S
C1933 C1939 1.465 . S
C1934 C1929 1.399 . S
C1934 C1933 1.394 . S
C1934 C1935 1.516 . S
C1935 C1934 1.516 . S
C1935 C1936 1.502 . S
C1935 C1937 1.561 . S
C1935 C1938 1.526 . S
C1936 H1920 0.959 . S
C1936 H1921 0.959 . S
C1936 H1922 0.961 . S
C1936 C1935 1.502 . S
C1937 H1923 0.960 . S
C1937 H1924 0.961 . S
C1937 H1925 0.959 . S
C1937 C1935 1.561 . S
C1938 C1935 1.526 . S
C1938 C1939 1.396 . S
C1938 C1943 1.390 . S
C1939 C1933 1.465 . S
C1939 C1938 1.396 . S
C1939 C1940 1.399 . S
C1940 H1926 0.929 . S
C1940 C1939 1.399 . S
C1940 C1941 1.385 . S
C1941 H1927 0.931 . S
C1941 C1940 1.385 . S
C1941 C1942 1.389 . S
C1942 C1941 1.389 . S
C1942 C1943 1.387 . S
C1943 H1928 0.930 . S
C1943 C1938 1.390 . S
C1943 C1942 1.387 . S
H1944 C1956 0.930 . S
H1945 C1958 0.930 . S
H1946 C1959 0.930 . S
H1947 C1963 0.959 . S
H1948 C1963 0.959 . S
H1949 C1963 0.961 . S
H1950 C1964 0.960 . S
H1951 C1964 0.961 . S
H1952 C1964 0.959 . S
H1953 C1967 0.929 . S
H1954 C1968 0.931 . S
H1955 C1970 0.930 . S
C1956 H1944 0.930 . S
C1956 C1957 1.399 . S
C1956 C1961 1.399 . S
C1957 C1956 1.399 . S
C1957 C1958 1.376 . S
C1958 H1945 0.930 . S
C1958 C1957 1.376 . S
C1958 C1959 1.388 . S
C1959 H1946 0.930 . S
C1959 C1958 1.388 . S
C1959 C1960 1.390 . S
C1960 C1959 1.390 . S
C1960 C1961 1.394 . S
C1960 C1966 1.465 . S
C1961 C1956 1.399 . S
C1961 C1960 1.394 . S
C1961 C1962 1.516 . S
C1962 C1961 1.516 . S
C1962 C1963 1.502 . S
C1962 C1964 1.561 . S
C1962 C1965 1.526 . S
C1963 H1947 0.959 . S
C1963 H1948 0.959 . S
C1963 H1949 0.961 . S
C1963 C1962 1.502 . S
C1964 H1950 0.960 . S
C1964 H1951 0.961 . S
C1964 H1952 0.959 . S
C1964 C1962 1.561 . S
C1965 C1962 1.526 . S
C1965 C1966 1.396 . S
C1965 C1970 1.390 . S
C1966 C1960 1.465 . S
C1966 C1965 1.396 . S
C1966 C1967 1.399 . S
C1967 H1953 0.929 . S
C1967 C1966 1.399 . S
C1967 C1968 1.385 . S
C1968 H1954 0.931 . S
C1968 C1967 1.385 . S
C1968 C1969 1.389 . S
C1969 C1968 1.389 . S
C1969 C1970 1.387 . S
C1970 H1955 0.930 . S
C1970 C1965 1.390 . S
C1970 C1969 1.387 . S
H1971 C1983 0.930 . S
H1972 C1985 0.930 . S
H1973 C1986 0.930 . S
H1974 C1990 0.959 . S
H1975 C1990 0.959 . S
H1976 C1990 0.961 . S
H1977 C1991 0.960 . S
H1978 C1991 0.961 . S
H1979 C1991 0.959 . S
H1980 C1994 0.929 . S
H1981 C1995 0.931 . S
H1982 C1997 0.930 . S
C1983 H1971 0.930 . S
C1983 C1984 1.399 . S
C1983 C1988 1.399 . S
C1984 C1983 1.399 . S
C1984 C1985 1.376 . S
C1985 H1972 0.930 . S
C1985 C1984 1.376 . S
C1985 C1986 1.388 . S
C1986 H1973 0.930 . S
C1986 C1985 1.388 . S
C1986 C1987 1.390 . S
C1987 C1986 1.390 . S
C1987 C1988 1.394 . S
C1987 C1993 1.465 . S
C1988 C1983 1.399 . S
C1988 C1987 1.394 . S
C1988 C1989 1.516 . S
C1989 C1988 1.516 . S
C1989 C1990 1.502 . S
C1989 C1991 1.561 . S
C1989 C1992 1.526 . S
C1990 H1974 0.959 . S
C1990 H1975 0.959 . S
C1990 H1976 0.961 . S
C1990 C1989 1.502 . S
C1991 H1977 0.960 . S
C1991 H1978 0.961 . S
C1991 H1979 0.959 . S
C1991 C1989 1.561 . S
C1992 C1989 1.526 . S
C1992 C1993 1.396 . S
C1992 C1997 1.390 . S
C1993 C1987 1.465 . S
C1993 C1992 1.396 . S
C1993 C1994 1.399 . S
C1994 H1980 0.929 . S
C1994 C1993 1.399 . S
C1994 C1995 1.385 . S
C1995 H1981 0.931 . S
C1995 C1994 1.385 . S
C1995 C1996 1.389 . S
C1996 C1995 1.389 . S
C1996 C1997 1.387 . S
C1997 H1982 0.930 . S
C1997 C1992 1.390 . S
C1997 C1996 1.387 . S
H1998 C2010 0.930 . S
H1999 C2012 0.930 . S
H2000 C2013 0.930 . S
H2001 C2017 0.959 . S
H2002 C2017 0.959 . S
H2003 C2017 0.961 . S
H2004 C2018 0.960 . S
H2005 C2018 0.961 . S
H2006 C2018 0.959 . S
H2007 C2021 0.929 . S
H2008 C2022 0.931 . S
H2009 C2024 0.930 . S
C2010 H1998 0.930 . S
C2010 C2011 1.399 . S
C2010 C2015 1.399 . S
C2011 C2010 1.399 . S
C2011 C2012 1.376 . S
C2012 H1999 0.930 . S
C2012 C2011 1.376 . S
C2012 C2013 1.388 . S
C2013 H2000 0.930 . S
C2013 C2012 1.388 . S
C2013 C2014 1.390 . S
C2014 C2013 1.390 . S
C2014 C2015 1.394 . S
C2014 C2020 1.465 . S
C2015 C2010 1.399 . S
C2015 C2014 1.394 . S
C2015 C2016 1.516 . S
C2016 C2015 1.516 . S
C2016 C2017 1.502 . S
C2016 C2018 1.561 . S
C2016 C2019 1.526 . S
C2017 H2001 0.959 . S
C2017 H2002 0.959 . S
C2017 H2003 0.961 . S
C2017 C2016 1.502 . S
C2018 H2004 0.960 . S
C2018 H2005 0.961 . S
C2018 H2006 0.959 . S
C2018 C2016 1.561 . S
C2019 C2016 1.526 . S
C2019 C2020 1.396 . S
C2019 C2024 1.390 . S
C2020 C2014 1.465 . S
C2020 C2019 1.396 . S
C2020 C2021 1.399 . S
C2021 H2007 0.929 . S
C2021 C2020 1.399 . S
C2021 C2022 1.385 . S
C2022 H2008 0.931 . S
C2022 C2021 1.385 . S
C2022 C2023 1.389 . S
C2023 C2022 1.389 . S
C2023 C2024 1.387 . S
C2024 H2009 0.930 . S
C2024 C2019 1.390 . S
C2024 C2023 1.387 . S
H2025 C2037 0.930 . S
H2026 C2039 0.930 . S
H2027 C2040 0.930 . S
H2028 C2044 0.959 . S
H2029 C2044 0.959 . S
H2030 C2044 0.961 . S
H2031 C2045 0.960 . S
H2032 C2045 0.961 . S
H2033 C2045 0.959 . S
H2034 C2048 0.929 . S
H2035 C2049 0.931 . S
H2036 C2051 0.930 . S
C2037 H2025 0.930 . S
C2037 C2038 1.399 . S
C2037 C2042 1.399 . S
C2038 C2037 1.399 . S
C2038 C2039 1.376 . S
C2039 H2026 0.930 . S
C2039 C2038 1.376 . S
C2039 C2040 1.388 . S
C2040 H2027 0.930 . S
C2040 C2039 1.388 . S
C2040 C2041 1.390 . S
C2041 C2040 1.390 . S
C2041 C2042 1.394 . S
C2041 C2047 1.465 . S
C2042 C2037 1.399 . S
C2042 C2041 1.394 . S
C2042 C2043 1.516 . S
C2043 C2042 1.516 . S
C2043 C2044 1.502 . S
C2043 C2045 1.561 . S
C2043 C2046 1.526 . S
C2044 H2028 0.959 . S
C2044 H2029 0.959 . S
C2044 H2030 0.961 . S
C2044 C2043 1.502 . S
C2045 H2031 0.960 . S
C2045 H2032 0.961 . S
C2045 H2033 0.959 . S
C2045 C2043 1.561 . S
C2046 C2043 1.526 . S
C2046 C2047 1.396 . S
C2046 C2051 1.390 . S
C2047 C2041 1.465 . S
C2047 C2046 1.396 . S
C2047 C2048 1.399 . S
C2048 H2034 0.929 . S
C2048 C2047 1.399 . S
C2048 C2049 1.385 . S
C2049 H2035 0.931 . S
C2049 C2048 1.385 . S
C2049 C2050 1.389 . S
C2050 C2049 1.389 . S
C2050 C2051 1.387 . S
C2051 H2036 0.930 . S
C2051 C2046 1.390 . S
C2051 C2050 1.387 . S
H2052 C2064 0.930 . S
H2053 C2066 0.930 . S
H2054 C2067 0.930 . S
H2055 C2071 0.959 . S
H2056 C2071 0.959 . S
H2057 C2071 0.961 . S
H2058 C2072 0.960 . S
H2059 C2072 0.961 . S
H2060 C2072 0.959 . S
H2061 C2075 0.929 . S
H2062 C2076 0.931 . S
H2063 C2078 0.930 . S
C2064 H2052 0.930 . S
C2064 C2065 1.399 . S
C2064 C2069 1.399 . S
C2065 C2064 1.399 . S
C2065 C2066 1.376 . S
C2066 H2053 0.930 . S
C2066 C2065 1.376 . S
C2066 C2067 1.388 . S
C2067 H2054 0.930 . S
C2067 C2066 1.388 . S
C2067 C2068 1.390 . S
C2068 C2067 1.390 . S
C2068 C2069 1.394 . S
C2068 C2074 1.465 . S
C2069 C2064 1.399 . S
C2069 C2068 1.394 . S
C2069 C2070 1.516 . S
C2070 C2069 1.516 . S
C2070 C2071 1.502 . S
C2070 C2072 1.561 . S
C2070 C2073 1.526 . S
C2071 H2055 0.959 . S
C2071 H2056 0.959 . S
C2071 H2057 0.961 . S
C2071 C2070 1.502 . S
C2072 H2058 0.960 . S
C2072 H2059 0.961 . S
C2072 H2060 0.959 . S
C2072 C2070 1.561 . S
C2073 C2070 1.526 . S
C2073 C2074 1.396 . S
C2073 C2078 1.390 . S
C2074 C2068 1.465 . S
C2074 C2073 1.396 . S
C2074 C2075 1.399 . S
C2075 H2061 0.929 . S
C2075 C2074 1.399 . S
C2075 C2076 1.385 . S
C2076 H2062 0.931 . S
C2076 C2075 1.385 . S
C2076 C2077 1.389 . S
C2077 C2076 1.389 . S
C2077 C2078 1.387 . S
C2078 H2063 0.930 . S
C2078 C2073 1.390 . S
C2078 C2077 1.387 . S
H2079 C2091 0.930 . S
H2080 C2093 0.930 . S
H2081 C2094 0.930 . S
H2082 C2098 0.959 . S
H2083 C2098 0.959 . S
H2084 C2098 0.961 . S
H2085 C2099 0.960 . S
H2086 C2099 0.961 . S
H2087 C2099 0.959 . S
H2088 C2102 0.929 . S
H2089 C2103 0.931 . S
H2090 C2105 0.930 . S
C2091 H2079 0.930 . S
C2091 C2092 1.399 . S
C2091 C2096 1.399 . S
C2092 C2091 1.399 . S
C2092 C2093 1.376 . S
C2093 H2080 0.930 . S
C2093 C2092 1.376 . S
C2093 C2094 1.388 . S
C2094 H2081 0.930 . S
C2094 C2093 1.388 . S
C2094 C2095 1.390 . S
C2095 C2094 1.390 . S
C2095 C2096 1.394 . S
C2095 C2101 1.465 . S
C2096 C2091 1.399 . S
C2096 C2095 1.394 . S
C2096 C2097 1.516 . S
C2097 C2096 1.516 . S
C2097 C2098 1.502 . S
C2097 C2099 1.561 . S
C2097 C2100 1.526 . S
C2098 H2082 0.959 . S
C2098 H2083 0.959 . S
C2098 H2084 0.961 . S
C2098 C2097 1.502 . S
C2099 H2085 0.960 . S
C2099 H2086 0.961 . S
C2099 H2087 0.959 . S
C2099 C2097 1.561 . S
C2100 C2097 1.526 . S
C2100 C2101 1.396 . S
C2100 C2105 1.390 . S
C2101 C2095 1.465 . S
C2101 C2100 1.396 . S
C2101 C2102 1.399 . S
C2102 H2088 0.929 . S
C2102 C2101 1.399 . S
C2102 C2103 1.385 . S
C2103 H2089 0.931 . S
C2103 C2102 1.385 . S
C2103 C2104 1.389 . S
C2104 C2103 1.389 . S
C2104 C2105 1.387 . S
C2105 H2090 0.930 . S
C2105 C2100 1.390 . S
C2105 C2104 1.387 . S
H2106 C2118 0.930 . S
H2107 C2120 0.930 . S
H2108 C2121 0.930 . S
H2109 C2125 0.959 . S
H2110 C2125 0.959 . S
H2111 C2125 0.961 . S
H2112 C2126 0.960 . S
H2113 C2126 0.961 . S
H2114 C2126 0.959 . S
H2115 C2129 0.929 . S
H2116 C2130 0.931 . S
H2117 C2132 0.930 . S
C2118 H2106 0.930 . S
C2118 C2119 1.399 . S
C2118 C2123 1.399 . S
C2119 C2118 1.399 . S
C2119 C2120 1.376 . S
C2120 H2107 0.930 . S
C2120 C2119 1.376 . S
C2120 C2121 1.388 . S
C2121 H2108 0.930 . S
C2121 C2120 1.388 . S
C2121 C2122 1.390 . S
C2122 C2121 1.390 . S
C2122 C2123 1.394 . S
C2122 C2128 1.465 . S
C2123 C2118 1.399 . S
C2123 C2122 1.394 . S
C2123 C2124 1.516 . S
C2124 C2123 1.516 . S
C2124 C2125 1.502 . S
C2124 C2126 1.561 . S
C2124 C2127 1.526 . S
C2125 H2109 0.959 . S
C2125 H2110 0.959 . S
C2125 H2111 0.961 . S
C2125 C2124 1.502 . S
C2126 H2112 0.960 . S
C2126 H2113 0.961 . S
C2126 H2114 0.959 . S
C2126 C2124 1.561 . S
C2127 C2124 1.526 . S
C2127 C2128 1.396 . S
C2127 C2132 1.390 . S
C2128 C2122 1.465 . S
C2128 C2127 1.396 . S
C2128 C2129 1.399 . S
C2129 H2115 0.929 . S
C2129 C2128 1.399 . S
C2129 C2130 1.385 . S
C2130 H2116 0.931 . S
C2130 C2129 1.385 . S
C2130 C2131 1.389 . S
C2131 C2130 1.389 . S
C2131 C2132 1.387 . S
C2132 H2117 0.930 . S
C2132 C2127 1.390 . S
C2132 C2131 1.387 . S
H2133 C2145 0.930 . S
H2134 C2147 0.930 . S
H2135 C2148 0.930 . S
H2136 C2152 0.959 . S
H2137 C2152 0.959 . S
H2138 C2152 0.961 . S
H2139 C2153 0.960 . S
H2140 C2153 0.961 . S
H2141 C2153 0.959 . S
H2142 C2156 0.929 . S
H2143 C2157 0.931 . S
H2144 C2159 0.930 . S
C2145 H2133 0.930 . S
C2145 C2146 1.399 . S
C2145 C2150 1.399 . S
C2146 C2145 1.399 . S
C2146 C2147 1.376 . S
C2147 H2134 0.930 . S
C2147 C2146 1.376 . S
C2147 C2148 1.388 . S
C2148 H2135 0.930 . S
C2148 C2147 1.388 . S
C2148 C2149 1.390 . S
C2149 C2148 1.390 . S
C2149 C2150 1.394 . S
C2149 C2155 1.465 . S
C2150 C2145 1.399 . S
C2150 C2149 1.394 . S
C2150 C2151 1.516 . S
C2151 C2150 1.516 . S
C2151 C2152 1.502 . S
C2151 C2153 1.561 . S
C2151 C2154 1.526 . S
C2152 H2136 0.959 . S
C2152 H2137 0.959 . S
C2152 H2138 0.961 . S
C2152 C2151 1.502 . S
C2153 H2139 0.960 . S
C2153 H2140 0.961 . S
C2153 H2141 0.959 . S
C2153 C2151 1.561 . S
C2154 C2151 1.526 . S
C2154 C2155 1.396 . S
C2154 C2159 1.390 . S
C2155 C2149 1.465 . S
C2155 C2154 1.396 . S
C2155 C2156 1.399 . S
C2156 H2142 0.929 . S
C2156 C2155 1.399 . S
C2156 C2157 1.385 . S
C2157 H2143 0.931 . S
C2157 C2156 1.385 . S
C2157 C2158 1.389 . S
C2158 C2157 1.389 . S
C2158 C2159 1.387 . S
C2159 H2144 0.930 . S
C2159 C2154 1.390 . S
C2159 C2158 1.387 . S
C889 C689 1.668 . S
C877 C74 1.623 . S
C916 C694 1.276 . S
C904 C153 1.109 . S
C943 C695 1.620 . S
C931 C231 1.589 . S
C958 C310 0.796 . S
C970 C699 0.741 . S
C985 C394 1.162 . S
C997 C702 1.289 . S
C1024 C703 1.620 . S
C1012 C494 1.574 . S
C1039 C573 0.726 . S
C1051 C680 0.746 . S
C1066 C651 1.602 . S
C1078 C696 1.636 . S
C1105 C734 2.371 . S
C1093 C56 2.434 . S
C1120 C151 1.575 . S
C1132 C760 1.566 . S
C1159 C712 1.271 . S
C1147 C237 1.162 . S
C1186 C767 1.549 . S
C1174 C326 1.565 . S
C1201 C410 1.541 . S
C1213 C721 1.572 . S
C1240 C763 2.363 . S
C1228 C476 2.425 . S
C1255 C571 1.604 . S
C1267 C727 1.584 . S
C1282 C657 1.189 . S
C1294 C758 1.187 . S
C1309 C58 1.115 . S
C1321 C766 1.262 . S
C1336 C392 1.582 . S
C1348 C753 1.568 . S
C1375 C731 1.231 . S
C1363 C478 1.250 . S
C1402 C759 1.570 . S
C1390 C567 1.530 . S
C1417 C655 2.442 . S
C1429 C726 2.362 . S
C1444 C235 2.430 . S
C1456 C744 2.347 . S
C1483 C735 1.558 . S
C1471 C308 1.586 . S
C1498 C147 1.578 . S
C1510 C728 1.549 . S
C1525 C662 1.631 . S
C1537 C790 1.554 . S
C1552 C405 1.144 . S
C1564 C785 1.198 . S
C1591 C799 1.556 . S
C1579 C483 1.570 . S
C1618 C776 0.450 . S
C1606 C562 0.882 . S
C1633 C142 1.198 . S
C1645 C792 1.252 . S
C1672 C791 1.547 . S
C1660 C242 1.585 . S
C1687 C321 0.914 . S
C1699 C795 0.478 . S
C1714 C63 1.614 . S
C1726 C798 1.571 . S
C1741 C644 2.446 . S
C1753 C824 2.390 . S
C1780 C840 1.521 . S
C1768 C403 1.582 . S
C1795 C489 1.257 . S
C1807 C822 1.227 . S
C1822 C578 1.522 . S
C1834 C855 1.528 . S
C1861 C831 1.502 . S
C1849 C158 1.566 . S
C1876 C224 2.459 . S
C1888 C849 2.406 . S
C1915 C827 1.475 . S
C1903 C319 1.581 . S
C1942 C862 1.282 . S
C1930 C69 1.208 . S
C1969 C854 1.233 . S
C1957 C646 1.170 . S
C1984 C140 1.577 . S
C1996 C859 1.545 . S
C2011 C226 1.223 . S
C2023 C830 1.224 . S
C2050 C863 1.541 . S
C2038 C315 1.527 . S
C2065 C67 2.449 . S
C2077 C817 2.409 . S
C2092 C487 2.454 . S
C2104 C856 2.404 . S
C2131 C808 1.540 . S
C2119 C560 1.572 . S
C2158 C823 1.546 . S
C2146 C399 1.530 . S
