# Generated by pormake.
# Topology pth, (4,4)-cn, num edge types: 1
# Building blocks:
#     Node 0, Type 0, BuildingBlock: QUQFOY_clean_sbu_3, # of connection points: 4
#     Node 1, Type 0, BuildingBlock: QUQFOY_clean_sbu_3, # of connection points: 4
#     Node 2, Type 0, BuildingBlock: QUQFOY_clean_sbu_3, # of connection points: 4
#     Node 3, Type 1, BuildingBlock: KOZSID_clean_sbu_0, # of connection points: 4
#     Node 4, Type 1, BuildingBlock: KOZSID_clean_sbu_0, # of connection points: 4
#     Node 5, Type 1, BuildingBlock: KOZSID_clean_sbu_0, # of connection points: 4
#     Edge 6, Type (0, 1), BuildingBlock: TEMPAE_clean_linker_10, # of connection points: 2
#     Edge 7, Type (0, 1), BuildingBlock: TEMPAE_clean_linker_10, # of connection points: 2
#     Edge 8, Type (0, 1), BuildingBlock: TEMPAE_clean_linker_10, # of connection points: 2
#     Edge 9, Type (0, 1), BuildingBlock: TEMPAE_clean_linker_10, # of connection points: 2
#     Edge 10, Type (0, 1), BuildingBlock: TEMPAE_clean_linker_10, # of connection points: 2
#     Edge 11, Type (0, 1), BuildingBlock: TEMPAE_clean_linker_10, # of connection points: 2
#     Edge 12, Type (0, 1), BuildingBlock: TEMPAE_clean_linker_10, # of connection points: 2
#     Edge 13, Type (0, 1), BuildingBlock: TEMPAE_clean_linker_10, # of connection points: 2
#     Edge 14, Type (0, 1), BuildingBlock: TEMPAE_clean_linker_10, # of connection points: 2
#     Edge 15, Type (0, 1), BuildingBlock: TEMPAE_clean_linker_10, # of connection points: 2
#     Edge 16, Type (0, 1), BuildingBlock: TEMPAE_clean_linker_10, # of connection points: 2
#     Edge 17, Type (0, 1), BuildingBlock: TEMPAE_clean_linker_10, # of connection points: 2
# Relax obj value: 0.008
# Max RMSD: 0.067
# Mean RMSD: 0.043
data_MOF--net-pth--node1-QUQFOY_clean_sbu_3--node2-KOZSID_clean_sbu_0--edge1-TEMPAE_clean_linker_10
_symmetry_space_group_name_H-M    P1
_symmetry_Int_Tables_number       1
_symmetry_cell_setting            triclinic
loop_
_symmetry_equiv_pos_as_xyz
'x, y, z'
_cell_length_a     27.118979
_cell_length_b     26.925758
_cell_length_c     63.338444
_cell_angle_alpha  87.267853
_cell_angle_beta   88.142463
_cell_angle_gamma 120.74689
loop_
_atom_site_label
_atom_site_type_symbol
_atom_site_fract_x
_atom_site_fract_y
_atom_site_fract_z
_atom_type_partial_charge
C0 C 0.00257 0.13526 0.06131 0.0
O1 O 0.97334 0.13134 0.04556 0.0
Cd2 Cd 0.97654 0.08461 0.01476 0.0
O3 O 0.03139 0.10996 0.06195 0.0
Cd4 Cd 0.0491 0.04552 0.04068 0.0
C5 C 0.12324 0.15666 0.00416 0.0
O6 O 0.95694 0.98918 0.0251 0.0
O7 O 0.02906 0.98709 0.01058 0.0
O8 O 0.02639 0.98015 0.07169 0.0
C9 C 0.97538 0.96751 0.01185 0.0
O10 O 0.07427 0.14716 -0.00096 0.0
C11 C 0.07331 0.98037 0.07079 0.0
O12 O 0.12743 0.12737 0.01963 0.0
O13 O 0.11069 0.01297 0.05609 0.0
C14 C 0.17403 0.12937 0.38447 0.0
O15 O 0.1957 0.15923 0.36695 0.0
Cd16 Cd 0.13754 0.16489 0.34002 0.0
O17 O 0.12003 0.10309 0.38883 0.0
Cd18 Cd 0.03288 0.08912 0.37312 0.0
C19 C 0.0535 0.01954 0.33447 0.0
O20 O 0.06877 0.18501 0.35556 0.0
O21 O 0.98672 0.1162 0.34654 0.0
O22 O 0.00343 0.10681 0.40692 0.0
C23 C 0.02416 0.16982 0.34543 0.0
O24 O 0.08983 0.06972 0.32597 0.0
C25 C 0.95365 0.06172 0.40838 0.0
O26 O 0.02914 0.01286 0.35277 0.0
O27 O 0.94142 0.02729 0.39373 0.0
C28 C 0.96229 0.08466 0.68657 0.0
O29 O 0.96446 0.10989 0.70325 0.0
Cd30 Cd 0.01924 0.11136 0.73243 0.0
O31 O 0.99344 0.06238 0.68388 0.0
Cd32 Cd 0.06761 0.0524 0.7019 0.0
C33 C 0.9661 0.96438 0.73977 0.0
O34 O 0.11492 0.14328 0.71912 0.0
O35 O 0.13601 0.0786 0.72897 0.0
O36 O 0.12737 0.08483 0.66911 0.0
C37 C 0.14498 0.12941 0.7301 0.0
O38 O 0.96977 0.01033 0.74605 0.0
C39 C 0.13341 0.04115 0.66865 0.0
O40 O 0.99569 0.96624 0.72339 0.0
O41 O 0.10673 0.00116 0.68337 0.0
C42 C 0.12427 0.67011 0.17271 0.0
C43 C 0.18153 0.71011 0.16676 0.0
C44 C 0.21338 0.69966 0.18052 0.0
C45 C 0.17389 0.65405 0.19397 0.0
N46 N 0.11871 0.63392 0.18942 0.0
Co47 Co 0.04772 0.57073 0.20569 0.0
N48 N 0.09467 0.55574 0.22599 0.0
C49 C 0.15269 0.58276 0.22564 0.0
C50 C 0.17244 0.5614 0.24114 0.0
C51 C 0.12413 0.51722 0.25178 0.0
C52 C 0.07761 0.51428 0.24206 0.0
N53 N 0.97676 0.50953 0.22259 0.0
C54 C 0.97109 0.47366 0.23944 0.0
C55 C 0.91394 0.43737 0.24657 0.0
C56 C 0.88229 0.45057 0.23364 0.0
C57 C 0.92176 0.49395 0.21943 0.0
N58 N 0.00078 0.5835 0.18465 0.0
C59 C 0.94275 0.554 0.18437 0.0
C60 C 0.92284 0.57282 0.16812 0.0
C61 C 0.97092 0.61727 0.15744 0.0
C62 C 0.01771 0.62301 0.16786 0.0
N63 N 0.04706 0.51176 0.18803 0.0
C64 C 0.04447 0.42534 0.16404 0.0
C65 C 0.99374 0.42287 0.17079 0.0
C66 C 0.996 0.46613 0.18262 0.0
C67 C 0.09671 0.47208 0.16935 0.0
C68 C 0.09702 0.51451 0.18132 0.0
N69 N 0.04791 0.62948 0.22355 0.0
C70 C 0.00081 0.67836 0.23697 0.0
C71 C 0.04531 0.7094 0.25014 0.0
C72 C 0.09178 0.70042 0.24941 0.0
C73 C 0.09262 0.66136 0.23589 0.0
C74 C 0.0026 0.6386 0.22417 0.0
H75 H 0.12987 0.65767 0.23582 0.0
H76 H 0.96655 0.61591 0.21497 0.0
H77 H 0.95575 0.4616 0.18723 0.0
H78 H 0.13807 0.5489 0.18507 0.0
C79 C 0.18732 0.62864 0.21076 0.0
C80 C 0.07683 0.66957 0.16239 0.0
C81 C 0.01819 0.47006 0.24817 0.0
C82 C 0.90823 0.51467 0.20124 0.0
H83 H 0.19841 0.74382 0.15396 0.0
H84 H 0.25977 0.72283 0.18079 0.0
H85 H 0.21665 0.57586 0.24421 0.0
H86 H 0.12318 0.48972 0.26502 0.0
H87 H 0.89677 0.40361 0.25935 0.0
H88 H 0.83589 0.42913 0.23393 0.0
H89 H 0.87856 0.55797 0.16502 0.0
H90 H 0.97108 0.64378 0.14404 0.0
H91 H 0.95229 0.38806 0.1667 0.0
H92 H 0.13712 0.4756 0.1645 0.0
H93 H 0.96455 0.68472 0.23632 0.0
H94 H 0.12732 0.72285 0.25936 0.0
C95 C 0.43832 -0.00168 0.56801 0.0
C96 C 0.39479 0.94435 0.57659 0.0
C97 C 0.40078 0.90411 0.56639 0.0
C98 C 0.44767 0.93565 0.55238 0.0
N99 N 0.47237 0.99366 0.55312 0.0
Co100 Co 0.54271 0.05541 0.53611 0.0
N101 N 0.54829 0.9962 0.51989 0.0
C102 C 0.51068 0.93839 0.52119 0.0
C103 C 0.52541 0.90904 0.50772 0.0
C104 C 0.57585 0.95049 0.49735 0.0
C105 C 0.58916 0.00282 0.5053 0.0
N106 N 0.61474 0.11698 0.51975 0.0
C107 C 0.65103 0.11169 0.50609 0.0
C108 C 0.69917 0.16517 0.4997 0.0
C109 C 0.69318 0.20568 0.50972 0.0
C110 C 0.64227 0.17479 0.52175 0.0
N111 N 0.53546 0.11479 0.55174 0.0
C112 C 0.56976 0.17312 0.54884 0.0
C113 C 0.55171 0.20276 0.56071 0.0
C114 C 0.50243 0.16099 0.57164 0.0
C115 C 0.49351 0.10799 0.5659 0.0
N116 N 0.59128 0.05026 0.55778 0.0
C117 C 0.66995 0.04732 0.58486 0.0
C118 C 0.67043 0.09864 0.58011 0.0
C119 C 0.63099 0.09909 0.56675 0.0
C120 C 0.62759 0.99667 0.57669 0.0
C121 C 0.58877 -0.00092 0.56326 0.0
N122 N 0.4945 0.06105 0.51436 0.0
C123 C 0.47489 0.12003 0.49021 0.0
C124 C 0.42318 0.07183 0.48553 0.0
C125 C 0.40845 0.01765 0.49498 0.0
C126 C 0.44455 0.01325 0.50926 0.0
C127 C 0.50955 0.11372 0.50448 0.0
H128 H 0.43079 0.97094 0.51618 0.0
H129 H 0.54802 0.15239 0.50737 0.0
H130 H 0.63432 0.13984 0.56366 0.0
H131 H 0.55788 0.95933 0.55719 0.0
C132 C 0.46589 0.91231 0.53691 0.0
C133 C 0.44366 0.05251 0.57375 0.0
C134 C 0.64272 0.0569 0.49947 0.0
C135 C 0.6192 0.19869 0.53511 0.0
H136 H 0.36129 0.93504 0.58861 0.0
H137 H 0.37312 0.85746 0.56844 0.0
H138 H 0.50335 0.86276 0.50623 0.0
H139 H 0.60094 0.94284 0.48574 0.0
H140 H 0.73545 0.17406 0.48919 0.0
H141 H 0.72292 0.25202 0.50867 0.0
H142 H 0.57168 0.24923 0.5612 0.0
H143 H 0.47574 0.16882 0.5824 0.0
H144 H 0.70142 0.13862 0.58661 0.0
H145 H 0.62537 0.95575 0.58014 0.0
H146 H 0.48873 0.16272 0.48288 0.0
H147 H 0.36866 0.97903 0.49179 0.0
C148 C 0.6679 0.5662 0.83813 0.0
C149 C 0.70437 0.54725 0.83147 0.0
C150 C 0.69264 0.50102 0.84499 0.0
C151 C 0.64962 0.49422 0.85897 0.0
N152 N 0.63299 0.5332 0.85518 0.0
Co153 Co 0.57028 0.53754 0.87106 0.0
N154 N 0.55641 0.47259 0.89193 0.0
C155 C 0.58638 0.44502 0.89288 0.0
C156 C 0.56779 0.40333 0.90935 0.0
C157 C 0.52297 0.40398 0.91945 0.0
C158 C 0.51658 0.4459 0.90837 0.0
N159 N 0.50583 0.54012 0.88643 0.0
C160 C 0.46887 0.50489 0.90272 0.0
C161 C 0.4275 0.51906 0.90768 0.0
C162 C 0.43866 0.56483 0.89404 0.0
C163 C 0.48567 0.57567 0.88147 0.0
N164 N 0.58602 0.60433 0.85075 0.0
C165 C 0.55944 0.63534 0.85099 0.0
C166 C 0.58184 0.68092 0.83593 0.0
C167 C 0.62579 0.67942 0.82554 0.0
C168 C 0.62727 0.63234 0.83478 0.0
N169 N 0.514 0.4817 0.8524 0.0
C170 C 0.43383 0.40298 0.82603 0.0
C171 C 0.44131 0.45784 0.82728 0.0
C172 C 0.48084 0.49601 0.84065 0.0
C173 C 0.46663 0.38765 0.83815 0.0
C174 C 0.50677 0.42772 0.85097 0.0
N175 N 0.62648 0.59344 0.8897 0.0
C176 C 0.66146 0.6796 0.90875 0.0
C177 C 0.70678 0.67402 0.91566 0.0
C178 C 0.71127 0.62735 0.90949 0.0
C179 C 0.67107 0.58798 0.8965 0.0
C180 C 0.62201 0.63906 0.89596 0.0
H181 H 0.67712 0.55367 0.8921 0.0
H182 H 0.58832 0.64565 0.89138 0.0
H183 H 0.48352 0.5367 0.84123 0.0
H184 H 0.53143 0.414 0.85954 0.0
C185 C 0.62779 0.45527 0.87689 0.0
C186 C 0.6695 0.61689 0.8282 0.0
C187 C 0.47002 0.45632 0.91335 0.0
C188 C 0.51244 0.61952 0.86517 0.0
H189 H 0.73681 0.56565 0.8184 0.0
H190 H 0.71397 0.47629 0.84497 0.0
H191 H 0.58371 0.37463 0.91314 0.0
H192 H 0.49689 0.37575 0.93308 0.0
H193 H 0.39239 0.49812 0.91973 0.0
H194 H 0.415 0.58721 0.89324 0.0
H195 H 0.56803 0.71173 0.83293 0.0
H196 H 0.65378 0.71001 0.81273 0.0
H197 H 0.41611 0.47091 0.81819 0.0
H198 H 0.46198 0.34534 0.83745 0.0
H199 H 0.65594 0.71476 0.91341 0.0
H200 H 0.7461 0.62169 0.9144 0.0
C201 C 0.97606 0.20199 0.07755 0.0
C202 C 0.00625 0.1725 0.07837 0.0
C203 C 0.9828 0.2411 0.09262 0.0
C204 C 0.02063 0.25095 0.1089 0.0
C205 C 0.05004 0.22021 0.1102 0.0
C206 C 0.04247 0.18128 0.09492 0.0
C207 C 0.95045 0.27292 0.09082 0.0
C208 C 0.09058 0.22955 0.12741 0.0
C209 C 0.07931 0.39547 0.13283 0.0
C210 C 0.04229 0.38005 0.15104 0.0
C211 C 0.07392 0.35348 0.1193 0.0
C212 C 0.03052 0.29479 0.12415 0.0
C213 C 0.99451 0.27866 0.14294 0.0
C214 C 0.00085 0.32153 0.15618 0.0
C215 C 0.11321 0.37223 0.09941 0.0
C216 C 0.94804 0.21645 0.1487 0.0
H217 H 0.94788 0.19539 0.06487 0.0
H218 H 0.06594 0.15866 0.09571 0.0
H219 H 0.92469 0.26581 0.10582 0.0
H220 H 0.98136 0.3202 0.08812 0.0
H221 H 0.92119 0.25884 0.07765 0.0
H222 H 0.10786 0.20004 0.12685 0.0
H223 H 0.1272 0.27494 0.12576 0.0
H224 H 0.06833 0.22271 0.14322 0.0
H225 H 0.11107 0.44069 0.12873 0.0
H226 H 0.97279 0.30937 0.17044 0.0
H227 H 0.08767 0.36452 0.08531 0.0
H228 H 0.13419 0.34615 0.09844 0.0
H229 H 0.14712 0.41883 0.09866 0.0
H230 H 0.91523 0.20184 0.13677 0.0
H231 H 0.92634 0.21059 0.16458 0.0
H232 H 0.9664 0.1879 0.14851 0.0
C233 C 0.92334 0.09683 0.43902 0.0
C234 C 0.91023 0.05344 0.42506 0.0
C235 C 0.88051 0.09469 0.45267 0.0
C236 C 0.82335 0.04775 0.45246 0.0
C237 C 0.8105 0.00197 0.43938 0.0
C238 C 0.85415 0.00546 0.42574 0.0
C239 C 0.89582 0.14436 0.46639 0.0
C240 C 0.7501 0.9508 0.43901 0.0
C241 C 0.71733 0.02923 0.49711 0.0
C242 C 0.6896 0.05533 0.48751 0.0
C243 C 0.7606 0.02566 0.48582 0.0
C244 C 0.77642 0.0492 0.46455 0.0
C245 C 0.74824 0.07554 0.45483 0.0
C246 C 0.70471 0.07787 0.46644 0.0
C247 C 0.78932 0.99682 0.4966 0.0
C248 C 0.76427 0.10151 0.43223 0.0
H249 H 0.96666 0.13397 0.43865 0.0
H250 H 0.84383 0.97165 0.41506 0.0
H251 H 0.87492 0.16843 0.46084 0.0
H252 H 0.87958 0.12785 0.48305 0.0
H253 H 0.94296 0.17514 0.46599 0.0
H254 H 0.74849 0.91594 0.42981 0.0
H255 H 0.73166 0.93257 0.45536 0.0
H256 H 0.72233 0.96516 0.43176 0.0
H257 H 0.70486 0.01146 0.51343 0.0
H258 H 0.68243 0.09738 0.4591 0.0
H259 H 0.83604 0.02824 0.49704 0.0
H260 H 0.78464 0.96067 0.48745 0.0
H261 H 0.77099 0.97953 0.51306 0.0
H262 H 0.81037 0.136 0.43051 0.0
H263 H 0.73819 0.12045 0.42709 0.0
H264 H 0.75825 0.06788 0.42143 0.0
C265 C 0.88234 0.90417 0.76551 0.0
C266 C 0.92546 0.90825 0.75144 0.0
C267 C 0.8429 0.85166 0.7767 0.0
C268 C 0.84709 0.80206 0.77399 0.0
C269 C 0.8905 0.80568 0.75986 0.0
C270 C 0.92906 0.85881 0.7486 0.0
C271 C 0.79668 0.84934 0.79146 0.0
C272 C 0.89644 0.75368 0.75682 0.0
C273 C 0.77252 0.69201 0.82054 0.0
C274 C 0.71813 0.65701 0.81309 0.0
C275 C 0.81689 0.73686 0.80731 0.0
C276 C 0.80592 0.74695 0.78631 0.0
C277 C 0.75207 0.70887 0.77832 0.0
C278 C 0.70872 0.66389 0.79186 0.0
C279 C 0.87397 0.77604 0.81631 0.0
C280 C 0.73861 0.71844 0.75609 0.0
H281 H 0.87893 0.94204 0.76766 0.0
H282 H 0.96242 0.86179 0.73778 0.0
H283 H 0.75356 0.81586 0.78692 0.0
H284 H 0.80128 0.83692 0.80791 0.0
H285 H 0.79846 0.8915 0.7913 0.0
H286 H 0.9322 0.76357 0.74508 0.0
H287 H 0.90429 0.73803 0.77215 0.0
H288 H 0.85589 0.7177 0.75144 0.0
H289 H 0.77939 0.68604 0.83702 0.0
H290 H 0.66641 0.63618 0.78624 0.0
H291 H 0.87788 0.81827 0.81906 0.0
H292 H 0.91002 0.78474 0.80497 0.0
H293 H 0.87852 0.75716 0.83158 0.0
H294 H 0.73373 0.75696 0.75507 0.0
H295 H 0.69823 0.6806 0.75139 0.0
H296 H 0.77427 0.72719 0.74455 0.0
C297 C 0.1349 0.944 0.08535 0.0
C298 C 0.08186 0.94129 0.08536 0.0
C299 C 0.14156 0.90389 0.09807 0.0
C300 C 0.09382 0.85979 0.11078 0.0
C301 C 0.04057 0.85765 0.11115 0.0
C302 C 0.03538 0.89866 0.09855 0.0
C303 C 0.1992 0.90795 0.09761 0.0
C304 C 0.9885 0.81096 0.12439 0.0
C305 C 0.0798 0.71572 0.12686 0.0
C306 C 0.08799 0.72053 0.14851 0.0
C307 C 0.08424 0.76196 0.11408 0.0
C308 C 0.0982 0.81426 0.12322 0.0
C309 C 0.11011 0.82033 0.14485 0.0
C310 C 0.10444 0.77305 0.15731 0.0
C311 C 0.07076 0.75366 0.09113 0.0
C312 C 0.126 0.87568 0.15507 0.0
H313 H 0.17101 0.97701 0.07523 0.0
H314 H 0.99421 0.89621 0.09861 0.0
H315 H 0.21302 0.90872 0.11395 0.0
H316 H 0.19563 0.86914 0.09079 0.0
H317 H 0.233 0.94719 0.08807 0.0
H318 H 0.95042 0.81585 0.12307 0.0
H319 H 0.97724 0.76769 0.11932 0.0
H320 H -0.0018 0.81192 0.14129 0.0
H321 H 0.06767 0.67497 0.12018 0.0
H322 H 0.11117 0.77644 0.1741 0.0
H323 H 0.1054 0.79003 0.08077 0.0
H324 H 0.03039 0.75357 0.08865 0.0
H325 H 0.06542 0.71232 0.08607 0.0
H326 H 0.16019 0.91371 0.14518 0.0
H327 H 0.14112 0.87597 0.17118 0.0
H328 H 0.08798 0.88083 0.15636 0.0
C329 C 0.18637 0.08789 0.41864 0.0
C330 C 0.21097 0.12256 0.39962 0.0
C331 C 0.22004 0.07867 0.43279 0.0
C332 C 0.27978 0.10482 0.42783 0.0
C333 C 0.30508 0.14026 0.40878 0.0
C334 C 0.27034 0.14873 0.39488 0.0
C335 C 0.19161 0.0407 0.45299 0.0
C336 C 0.36879 0.16903 0.40307 0.0
C337 C 0.3753 0.12496 0.47288 0.0
C338 C 0.38496 0.07885 0.47107 0.0
C339 C 0.34115 0.13389 0.45891 0.0
C340 C 0.31591 0.09566 0.44276 0.0
C341 C 0.32486 0.04856 0.44098 0.0
C342 C 0.35929 0.04065 0.4552 0.0
C343 C 0.33219 0.18432 0.46139 0.0
C344 C 0.29848 0.00691 0.42393 0.0
H345 H 0.14053 0.06742 0.42245 0.0
H346 H 0.28969 0.17549 0.38022 0.0
H347 H 0.19873 0.0036 0.45357 0.0
H348 H 0.21119 0.06561 0.4669 0.0
H349 H 0.14458 0.02354 0.45448 0.0
H350 H 0.38175 0.19521 0.38764 0.0
H351 H 0.3934 0.1977 0.41554 0.0
H352 H 0.38117 0.13572 0.40223 0.0
H353 H 0.39434 0.15403 0.48536 0.0
H354 H 0.36708 0.00528 0.45366 0.0
H355 H 0.28566 0.16835 0.46408 0.0
H356 H 0.34776 0.21336 0.44663 0.0
H357 H 0.35498 0.21007 0.47478 0.0
H358 H 0.25101 0.98639 0.42532 0.0
H359 H 0.30925 0.97225 0.42482 0.0
H360 H 0.31377 0.03074 0.40809 0.0
C361 C 0.18092 0.21359 0.75236 0.0
C362 C 0.18724 0.16968 0.74411 0.0
C363 C 0.22027 0.25121 0.76615 0.0
C364 C 0.26773 0.24558 0.77124 0.0
C365 C 0.27468 0.20178 0.76268 0.0
C366 C 0.23382 0.16378 0.74942 0.0
C367 C 0.21081 0.29657 0.7754 0.0
C368 C 0.32556 0.19545 0.76734 0.0
C369 C 0.39757 0.3773 0.79029 0.0
C370 C 0.39197 0.36218 0.81204 0.0
C371 C 0.3577 0.33936 0.77675 0.0
C372 C 0.31051 0.28588 0.78536 0.0
C373 C 0.30446 0.27076 0.80741 0.0
C374 C 0.34585 0.30894 0.8205 0.0
C375 C 0.36624 0.35631 0.75326 0.0
C376 C 0.254 0.21466 0.81719 0.0
H377 H 0.14456 0.21777 0.74837 0.0
H378 H 0.23886 0.12999 0.74291 0.0
H379 H 0.20851 0.29143 0.79296 0.0
H380 H 0.24762 0.34048 0.77046 0.0
H381 H 0.17071 0.29393 0.77039 0.0
H382 H 0.32528 0.15993 0.75901 0.0
H383 H 0.36616 0.23655 0.76247 0.0
H384 H 0.32568 0.18659 0.78461 0.0
H385 H 0.4336 0.41859 0.78387 0.0
H386 H 0.34161 0.29785 0.83741 0.0
H387 H 0.32905 0.35876 0.74779 0.0
H388 H 0.36852 0.32281 0.74445 0.0
H389 H 0.40607 0.39879 0.74908 0.0
H390 H 0.21316 0.21214 0.81337 0.0
H391 H 0.25487 0.21021 0.83468 0.0
H392 H 0.25384 0.17733 0.81043 0.0
C393 C 0.91459 0.04618 0.65306 0.0
C394 C 0.92132 0.07868 0.67057 0.0
C395 C 0.87405 0.03793 0.63831 0.0
C396 C 0.83962 0.06293 0.64112 0.0
C397 C 0.8465 0.09618 0.65863 0.0
C398 C 0.88723 0.1036 0.67316 0.0
C399 C 0.86786 0.00227 0.61979 0.0
C400 C 0.81074 0.12383 0.66204 0.0
C401 C 0.7716 0.09227 0.59464 0.0
C402 C 0.71398 0.04766 0.59818 0.0
C403 C 0.81332 0.0967 0.60813 0.0
C404 C 0.79699 0.05542 0.62557 0.0
C405 C 0.73934 0.00891 0.62876 0.0
C406 C 0.69841 0.00553 0.61497 0.0
C407 C 0.87445 0.14665 0.60412 0.0
C408 C 0.72051 0.96399 0.64717 0.0
H409 H 0.94061 0.02659 0.65095 0.0
H410 H 0.8921 0.12876 0.68662 0.0
H411 H 0.8232 0.96488 0.62006 0.0
H412 H 0.8761 0.02872 0.60469 0.0
H413 H 0.89787 0.98567 0.61992 0.0
H414 H 0.82122 0.14816 0.67651 0.0
H415 H 0.81773 0.15407 0.64819 0.0
H416 H 0.76438 0.09008 0.66342 0.0
H417 H 0.78393 0.12428 0.5814 0.0
H418 H 0.65385 0.97115 0.61778 0.0
H419 H 0.90462 0.13035 0.60339 0.0
H420 H 0.88614 0.17524 0.61741 0.0
H421 H 0.88072 0.17301 0.58915 0.0
H422 H 0.7485 0.94508 0.64739 0.0
H423 H 0.67515 0.92839 0.64657 0.0
H424 H 0.72491 0.98475 0.66227 0.0
C425 C 0.87716 0.90012 0.00031 0.0
C426 C 0.93674 0.92372 -0.0022 0.0
C427 C 0.84008 0.85859 0.98702 0.0
C428 C 0.8633 0.84064 0.97079 0.0
C429 C 0.9234 0.86421 0.9682 0.0
C430 C 0.95943 0.90539 0.9818 0.0
C431 C 0.7761 0.83408 0.99028 0.0
C432 C 0.94963 0.8463 0.95096 0.0
C433 C 0.764 0.6979 0.94768 0.0
C434 C 0.74871 0.71662 0.92935 0.0
C435 C 0.80162 0.73788 0.96129 0.0
C436 C 0.8247 0.79783 0.95629 0.0
C437 C 0.81025 0.81699 0.93758 0.0
C438 C 0.77222 0.77607 0.92436 0.0
C439 C 0.81587 0.71596 0.9812 0.0
C440 C 0.83458 0.88065 0.93163 0.0
H441 H 0.85941 0.91401 0.0127 0.0
H442 H 0.00549 0.92352 0.97978 0.0
H443 H 0.75981 0.84408 0.97582 0.0
H444 H 0.75338 0.7862 0.99301 0.0
H445 H 0.76489 0.85171 0.00392 0.0
H446 H -0.00282 0.86848 0.95118 0.0
H447 H 0.9316 0.79881 0.95275 0.0
H448 H 0.93867 0.85639 0.93523 0.0
H449 H 0.74538 0.65188 0.95164 0.0
H450 H 0.76093 0.79055 0.91003 0.0
H451 H 0.80153 0.72934 -0.0047 0.0
H452 H 0.86308 0.73542 0.98149 0.0
H453 H 0.79515 0.66802 0.98256 0.0
H454 H 0.82125 0.89985 0.94408 0.0
H455 H 0.82015 0.88834 0.91625 0.0
H456 H 0.88226 0.90392 0.9306 0.0
C457 C 0.04072 0.97001 0.30128 0.0
C458 C 0.0429 0.96869 0.32333 0.0
C459 C 0.03645 0.92444 0.29013 0.0
C460 C 0.03654 0.87766 0.30128 0.0
C461 C 0.03759 0.87561 0.32363 0.0
C462 C 0.03983 0.9209 0.33446 0.0
C463 C 0.03347 0.92717 0.26636 0.0
C464 C 0.03941 0.82725 0.33597 0.0
C465 C 0.99049 0.74087 0.27317 0.0
C466 C 0.04333 0.75118 0.26423 0.0
C467 C 0.98755 0.78151 0.28534 0.0
C468 C 0.03884 0.83276 0.28935 0.0
C469 C 0.09248 0.84248 0.28116 0.0
C470 C 0.09401 0.8021 0.26842 0.0
C471 C 0.92948 0.77033 0.29344 0.0
C472 C 0.14826 0.89614 0.28552 0.0
H473 H 0.04279 0.00699 0.29275 0.0
H474 H 0.0422 0.9204 0.35152 0.0
H475 H 0.07344 0.93282 0.25858 0.0
H476 H -0.00294 0.88599 0.26151 0.0
H477 H 0.02814 0.96352 0.2604 0.0
H478 H 0.03693 0.83039 0.35336 0.0
H479 H 0.00349 0.78452 0.3321 0.0
H480 H 0.08002 0.82869 0.33144 0.0
H481 H 0.95111 0.70111 0.27057 0.0
H482 H 0.13502 0.81126 0.26139 0.0
H483 H 0.92277 0.8052 0.28682 0.0
H484 H 0.92756 0.77114 0.31092 0.0
H485 H 0.89366 0.72799 0.28909 0.0
H486 H 0.15034 0.93502 0.27775 0.0
H487 H 0.18647 0.8946 0.27964 0.0
H488 H 0.15053 0.90155 0.30279 0.0
C489 C 0.17888 0.99044 0.65213 0.0
C490 C 0.17325 0.03931 0.65267 0.0
C491 C 0.22066 0.99059 0.63841 0.0
C492 C 0.25784 0.04098 0.62511 0.0
C493 C 0.2512 0.08977 0.62514 0.0
C494 C 0.20878 0.08825 0.63886 0.0
C495 C 0.22614 0.93752 0.6386 0.0
C496 C 0.29025 0.14435 0.61123 0.0
C497 C 0.40454 0.06641 0.60769 0.0
C498 C 0.39646 0.05074 0.58681 0.0
C499 C 0.35966 0.06351 0.62035 0.0
C500 C 0.30548 0.04378 0.61189 0.0
C501 C 0.29717 0.02749 0.59079 0.0
C502 C 0.34302 0.03139 0.57844 0.0
C503 C 0.3702 0.08161 0.64274 0.0
C504 C 0.23992 0.00587 0.58131 0.0
H505 H 0.15143 0.95244 0.66272 0.0
H506 H 0.20471 0.12621 0.63921 0.0
H507 H 0.22504 0.92388 0.62229 0.0
H508 H 0.26817 0.94787 0.64454 0.0
H509 H 0.1914 0.90055 0.64878 0.0
H510 H 0.27774 0.17754 0.61244 0.0
H511 H 0.33518 0.1632 0.61582 0.0
H512 H 0.28963 0.13422 0.59444 0.0
H513 H 0.44601 0.08085 0.61406 0.0
H514 H 0.33719 0.01902 0.56225 0.0
H515 H 0.3401 0.04487 0.6541 0.0
H516 H 0.36185 0.11739 0.64487 0.0
H517 H 0.41492 0.09625 0.64683 0.0
H518 H 0.20587 0.96723 0.59099 0.0
H519 H 0.24044 0.99416 0.56475 0.0
H520 H 0.22802 0.03961 0.58146 0.0
C521 C 0.17249 0.24184 0.97758 0.0
C522 C 0.17563 0.20227 0.99187 0.0
C523 C 0.22137 0.28465 0.96547 0.0
C524 C 0.27453 0.28755 0.96756 0.0
C525 C 0.27824 0.24818 0.98208 0.0
C526 C 0.22873 0.20612 0.99417 0.0
C527 C 0.21598 0.32633 0.95026 0.0
C528 C 0.33425 0.24983 0.98456 0.0
C529 C 0.38361 0.35819 0.92066 0.0
C530 C 0.42036 0.41322 0.92747 0.0
C531 C 0.33636 0.31647 0.93373 0.0
C532 C 0.32576 0.33062 0.95397 0.0
C533 C 0.36321 0.38625 0.96093 0.0
C534 C 0.41049 0.42696 0.94757 0.0
C535 C 0.29759 0.25749 0.92583 0.0
C536 C 0.35293 0.40289 0.98235 0.0
H537 H 0.13171 0.23946 0.97583 0.0
H538 H 0.23146 0.17562 0.00515 0.0
H539 H 0.24708 0.37166 0.95365 0.0
H540 H 0.2266 0.32086 0.9338 0.0
H541 H 0.17203 0.31975 0.95118 0.0
H542 H 0.3302 0.21706 -0.00307 0.0
H543 H 0.34926 0.24179 0.9693 0.0
H544 H 0.36792 0.2934 0.98875 0.0
H545 H 0.39191 0.34802 0.90506 0.0
H546 H 0.43959 0.46968 0.95271 0.0
H547 H 0.25344 0.24972 0.92485 0.0
H548 H 0.29481 0.22324 0.93713 0.0
H549 H 0.31295 0.25298 0.90996 0.0
H550 H 0.31046 0.39967 0.98339 0.0
H551 H 0.38656 0.44768 0.98545 0.0
H552 H 0.35192 0.37243 -0.00498 0.0
C553 C 0.06393 0.26886 0.3278 0.0
C554 C 0.01772 0.21196 0.33186 0.0
C555 C 0.059 0.30878 0.31438 0.0
C556 C 0.00641 0.2914 0.305 0.0
C557 C 0.95922 0.23438 0.30939 0.0
C558 C 0.96553 0.19517 0.32271 0.0
C559 C 0.11041 0.36922 0.30991 0.0
C560 C 0.9024 0.21466 0.29979 0.0
C561 C 0.98916 0.41498 0.28353 0.0
C562 C 0.0067 0.41939 0.26219 0.0
C563 C 0.98618 0.37155 0.29758 0.0
C564 C 0.00189 0.33257 0.28999 0.0
C565 C 0.01752 0.33576 0.2682 0.0
C566 C 0.01966 0.37929 0.25452 0.0
C567 C 0.96884 0.36906 0.32067 0.0
C568 C 0.03479 0.29515 0.25954 0.0
H569 H 0.10435 0.28201 0.33483 0.0
H570 H 0.92955 0.15128 0.32593 0.0
H571 H 0.12342 0.37741 0.29272 0.0
H572 H 0.09905 0.40175 0.31423 0.0
H573 H 0.14785 0.3761 0.31877 0.0
H574 H 0.86912 0.1697 0.3056 0.0
H575 H 0.88647 0.24407 0.30353 0.0
H576 H 0.90818 0.21664 0.28229 0.0
H577 H 0.97974 0.44671 0.28931 0.0
H578 H 0.0336 0.38351 0.23795 0.0
H579 H 0.00649 0.38159 0.33024 0.0
H580 H 0.93522 0.32423 0.32638 0.0
H581 H 0.95234 0.39851 0.32357 0.0
H582 H 0.07517 0.30311 0.26637 0.0
H583 H 0.04178 0.3008 0.24199 0.0
H584 H 0.00132 0.24947 0.26419 0.0
loop_
_geom_bond_atom_site_label_1
_geom_bond_atom_site_label_2
_geom_bond_distance
_geom_bond_site_symmetry_2
_ccdc_geom_bond_type
C0 O1 1.306 . S
C0 O3 1.160 . S
O1 C0 1.306 . S
O1 Cd2 2.228 . S
Cd2 O1 2.228 . S
Cd2 O6 2.273 1_455 S
Cd2 O10 2.277 . S
O3 C0 1.160 . S
O3 Cd4 2.203 . S
Cd4 O3 2.203 . S
Cd4 O6 2.411 1_455 S
Cd4 O7 2.333 1_545 S
Cd4 O8 2.352 1_545 S
Cd4 O12 2.277 . S
Cd4 O13 2.356 1_545 S
C5 O10 1.209 . S
C5 O12 1.226 . S
O6 Cd2 2.273 1_655 S
O6 Cd4 2.411 1_655 S
O6 C9 1.320 1_545 S
O7 Cd4 2.333 1_565 S
O7 C9 1.214 1_455 S
O8 Cd4 2.352 1_565 S
O8 C11 1.258 . S
C9 O6 1.320 1_565 S
C9 O7 1.214 1_655 S
O10 Cd2 2.277 . S
O10 C5 1.209 . S
C11 O8 1.258 . S
C11 O13 1.282 . S
O12 Cd4 2.277 . S
O12 C5 1.226 . S
O13 Cd4 2.356 1_565 S
O13 C11 1.282 . S
C14 O15 1.306 . S
C14 O17 1.160 . S
O15 C14 1.306 . S
O15 Cd16 2.228 . S
Cd16 O15 2.228 . S
Cd16 O20 2.273 . S
Cd16 O24 2.277 . S
O17 C14 1.160 . S
O17 Cd18 2.203 . S
Cd18 O17 2.203 . S
Cd18 O20 2.411 . S
Cd18 O21 2.333 1_455 S
Cd18 O22 2.352 1_455 S
Cd18 O26 2.277 1_445 S
Cd18 O27 2.356 1_455 S
C19 O24 1.209 1_565 S
C19 O26 1.226 1_455 S
O20 Cd16 2.273 . S
O20 Cd18 2.411 . S
O20 C23 1.320 . S
O21 Cd18 2.333 1_655 S
O21 C23 1.214 1_655 S
O22 Cd18 2.352 1_655 S
O22 C25 1.258 . S
C23 O20 1.320 . S
C23 O21 1.214 1_455 S
O24 Cd16 2.277 . S
O24 C19 1.209 1_545 S
C25 O22 1.258 . S
C25 O27 1.282 . S
O26 Cd18 2.277 1_665 S
O26 C19 1.226 1_655 S
O27 Cd18 2.356 1_655 S
O27 C25 1.282 . S
C28 O29 1.306 . S
C28 O31 1.160 1_655 S
O29 C28 1.306 . S
O29 Cd30 2.228 1_655 S
Cd30 O29 2.228 1_455 S
Cd30 O34 2.273 . S
Cd30 O38 2.277 1_455 S
O31 C28 1.160 1_455 S
O31 Cd32 2.203 . S
Cd32 O31 2.203 . S
Cd32 O34 2.411 . S
Cd32 O35 2.333 . S
Cd32 O36 2.352 . S
Cd32 O40 2.277 1_545 S
Cd32 O41 2.357 1_545 S
C33 O38 1.209 1_565 S
C33 O40 1.226 1_655 S
O34 Cd30 2.273 . S
O34 Cd32 2.411 . S
O34 C37 1.320 . S
O35 Cd32 2.333 . S
O35 C37 1.214 . S
O36 Cd32 2.352 . S
O36 C39 1.258 . S
C37 O34 1.320 . S
C37 O35 1.214 . S
O38 Cd30 2.277 1_655 S
O38 C33 1.209 1_545 S
C39 O36 1.258 . S
C39 O41 1.283 1_545 S
O40 Cd32 2.277 1_565 S
O40 C33 1.226 1_455 S
O41 Cd32 2.357 1_565 S
O41 C39 1.283 1_565 S
C42 C43 1.443 . S
C42 N46 1.376 . S
C42 C80 1.389 . S
C43 C42 1.443 . S
C43 C44 1.340 . S
C43 H83 0.951 . S
C44 C43 1.340 . S
C44 C45 1.439 . S
C44 H84 0.950 . S
C45 C44 1.439 . S
C45 N46 1.374 . S
C45 C79 1.395 . S
N46 C42 1.376 . S
N46 C45 1.374 . S
N46 Co47 2.008 . S
Co47 N46 2.008 . S
Co47 N48 1.995 . S
Co47 N53 2.008 1_455 S
Co47 N58 1.995 1_455 S
Co47 N63 2.282 . S
Co47 N69 2.282 . S
N48 Co47 1.995 . S
N48 C49 1.376 . S
N48 C52 1.383 . S
C49 N48 1.376 . S
C49 C50 1.446 . S
C49 C79 1.391 . S
C50 C49 1.446 . S
C50 C51 1.339 . S
C50 H85 0.949 . S
C51 C50 1.339 . S
C51 C52 1.439 . S
C51 H86 0.950 . S
C52 N48 1.383 . S
C52 C51 1.439 . S
C52 C81 1.392 . S
N53 Co47 2.008 1_655 S
N53 C54 1.376 . S
N53 C57 1.374 . S
C54 N53 1.376 . S
C54 C55 1.443 . S
C54 C81 1.389 1_655 S
C55 C54 1.443 . S
C55 C56 1.340 . S
C55 H87 0.951 . S
C56 C55 1.340 . S
C56 C57 1.439 . S
C56 H88 0.950 . S
C57 N53 1.374 . S
C57 C56 1.439 . S
C57 C82 1.395 . S
N58 Co47 1.995 1_655 S
N58 C59 1.376 . S
N58 C62 1.383 1_655 S
C59 N58 1.376 . S
C59 C60 1.446 . S
C59 C82 1.391 . S
C60 C59 1.446 . S
C60 C61 1.339 . S
C60 H89 0.949 . S
C61 C60 1.339 . S
C61 C62 1.439 1_655 S
C61 H90 0.950 . S
C62 N58 1.383 1_455 S
C62 C61 1.439 1_455 S
C62 C80 1.392 . S
N63 Co47 2.282 . S
N63 C66 1.332 . S
N63 C68 1.332 . S
C64 C65 1.386 . S
C64 C67 1.388 . S
C65 C64 1.386 . S
C65 C66 1.382 . S
C65 H91 0.950 1_455 S
C66 N63 1.332 . S
C66 C65 1.382 . S
C66 H77 0.952 1_455 S
C67 C64 1.388 . S
C67 C68 1.382 . S
C67 H92 0.950 . S
C68 N63 1.332 . S
C68 C67 1.382 . S
C68 H78 0.948 . S
N69 Co47 2.282 . S
N69 C73 1.332 . S
N69 C74 1.332 1_455 S
C70 C71 1.388 1_655 S
C70 C74 1.382 . S
C70 H93 0.950 . S
C71 C70 1.388 1_455 S
C71 C72 1.386 . S
C72 C71 1.386 . S
C72 C73 1.382 . S
C72 H94 0.950 . S
C73 N69 1.332 . S
C73 C72 1.382 . S
C73 H75 0.952 . S
C74 N69 1.332 1_655 S
C74 C70 1.382 . S
C74 H76 0.948 . S
H75 C73 0.952 . S
H76 C74 0.948 . S
H77 C66 0.952 1_655 S
H78 C68 0.948 . S
C79 C45 1.395 . S
C79 C49 1.391 . S
C80 C42 1.389 . S
C80 C62 1.392 . S
C81 C52 1.392 . S
C81 C54 1.389 1_455 S
C82 C57 1.395 . S
C82 C59 1.391 . S
H83 C43 0.951 . S
H84 C44 0.950 . S
H85 C50 0.949 . S
H86 C51 0.950 . S
H87 C55 0.951 . S
H88 C56 0.950 . S
H89 C60 0.949 . S
H90 C61 0.950 . S
H91 C65 0.950 1_655 S
H92 C67 0.950 . S
H93 C70 0.950 . S
H94 C72 0.950 . S
C95 C96 1.443 1_545 S
C95 N99 1.376 . S
C95 C133 1.389 . S
C96 C95 1.443 1_565 S
C96 C97 1.340 . S
C96 H136 0.951 . S
C97 C96 1.340 . S
C97 C98 1.439 . S
C97 H137 0.950 . S
C98 C97 1.439 . S
C98 N99 1.374 1_565 S
C98 C132 1.395 . S
N99 C95 1.376 . S
N99 C98 1.374 1_545 S
N99 Co100 2.008 . S
Co100 N99 2.008 . S
Co100 N101 1.995 . S
Co100 N106 2.008 . S
Co100 N111 1.995 . S
Co100 N116 2.282 . S
Co100 N122 2.282 . S
N101 Co100 1.995 . S
N101 C102 1.376 1_545 S
N101 C105 1.383 . S
C102 N101 1.376 1_565 S
C102 C103 1.446 . S
C102 C132 1.391 . S
C103 C102 1.446 . S
C103 C104 1.339 . S
C103 H138 0.949 . S
C104 C103 1.339 . S
C104 C105 1.439 1_565 S
C104 H139 0.950 . S
C105 N101 1.383 . S
C105 C104 1.439 1_545 S
C105 C134 1.392 . S
N106 Co100 2.008 . S
N106 C107 1.376 . S
N106 C110 1.374 . S
C107 N106 1.376 . S
C107 C108 1.443 . S
C107 C134 1.389 . S
C108 C107 1.443 . S
C108 C109 1.340 . S
C108 H140 0.951 . S
C109 C108 1.340 . S
C109 C110 1.439 . S
C109 H141 0.950 . S
C110 N106 1.374 . S
C110 C109 1.439 . S
C110 C135 1.395 . S
N111 Co100 1.995 . S
N111 C112 1.376 . S
N111 C115 1.383 . S
C112 N111 1.376 . S
C112 C113 1.446 . S
C112 C135 1.391 . S
C113 C112 1.446 . S
C113 C114 1.339 . S
C113 H142 0.949 . S
C114 C113 1.339 . S
C114 C115 1.439 . S
C114 H143 0.950 . S
C115 N111 1.383 . S
C115 C114 1.439 . S
C115 C133 1.392 . S
N116 Co100 2.282 . S
N116 C119 1.332 . S
N116 C121 1.332 . S
C117 C118 1.386 . S
C117 C120 1.388 . S
C118 C117 1.386 . S
C118 C119 1.382 . S
C118 H144 0.950 . S
C119 N116 1.332 . S
C119 C118 1.382 . S
C119 H130 0.952 . S
C120 C117 1.388 . S
C120 C121 1.382 . S
C120 H145 0.950 1_545 S
C121 N116 1.332 . S
C121 C120 1.382 . S
C121 H131 0.948 1_545 S
N122 Co100 2.282 . S
N122 C126 1.332 . S
N122 C127 1.332 . S
C123 C124 1.388 . S
C123 C127 1.382 . S
C123 H146 0.950 . S
C124 C123 1.388 . S
C124 C125 1.386 . S
C125 C124 1.386 . S
C125 C126 1.382 . S
C125 H147 0.950 1_545 S
C126 N122 1.332 . S
C126 C125 1.382 . S
C126 H128 0.952 1_545 S
C127 N122 1.332 . S
C127 C123 1.382 . S
C127 H129 0.948 . S
H128 C126 0.952 1_565 S
H129 C127 0.948 . S
H130 C119 0.952 . S
H131 C121 0.948 1_565 S
C132 C98 1.395 . S
C132 C102 1.391 . S
C133 C95 1.389 . S
C133 C115 1.392 . S
C134 C105 1.392 . S
C134 C107 1.389 . S
C135 C110 1.395 . S
C135 C112 1.391 . S
H136 C96 0.951 . S
H137 C97 0.950 . S
H138 C103 0.949 . S
H139 C104 0.950 . S
H140 C108 0.951 . S
H141 C109 0.950 . S
H142 C113 0.949 . S
H143 C114 0.950 . S
H144 C118 0.950 . S
H145 C120 0.950 1_565 S
H146 C123 0.950 . S
H147 C125 0.950 1_565 S
C148 C149 1.443 . S
C148 N152 1.376 . S
C148 C186 1.389 . S
C149 C148 1.443 . S
C149 C150 1.340 . S
C149 H189 0.951 . S
C150 C149 1.340 . S
C150 C151 1.439 . S
C150 H190 0.950 . S
C151 C150 1.439 . S
C151 N152 1.374 . S
C151 C185 1.395 . S
N152 C148 1.376 . S
N152 C151 1.374 . S
N152 Co153 2.008 . S
Co153 N152 2.008 . S
Co153 N154 1.995 . S
Co153 N159 2.008 . S
Co153 N164 1.995 . S
Co153 N169 2.282 . S
Co153 N175 2.282 . S
N154 Co153 1.995 . S
N154 C155 1.376 . S
N154 C158 1.383 . S
C155 N154 1.376 . S
C155 C156 1.446 . S
C155 C185 1.391 . S
C156 C155 1.446 . S
C156 C157 1.339 . S
C156 H191 0.949 . S
C157 C156 1.339 . S
C157 C158 1.439 . S
C157 H192 0.950 . S
C158 N154 1.383 . S
C158 C157 1.439 . S
C158 C187 1.392 . S
N159 Co153 2.008 . S
N159 C160 1.376 . S
N159 C163 1.374 . S
C160 N159 1.376 . S
C160 C161 1.443 . S
C160 C187 1.389 . S
C161 C160 1.443 . S
C161 C162 1.340 . S
C161 H193 0.951 . S
C162 C161 1.340 . S
C162 C163 1.439 . S
C162 H194 0.950 . S
C163 N159 1.374 . S
C163 C162 1.439 . S
C163 C188 1.395 . S
N164 Co153 1.995 . S
N164 C165 1.376 . S
N164 C168 1.383 . S
C165 N164 1.376 . S
C165 C166 1.446 . S
C165 C188 1.391 . S
C166 C165 1.446 . S
C166 C167 1.339 . S
C166 H195 0.949 . S
C167 C166 1.339 . S
C167 C168 1.439 . S
C167 H196 0.950 . S
C168 N164 1.383 . S
C168 C167 1.439 . S
C168 C186 1.392 . S
N169 Co153 2.282 . S
N169 C172 1.332 . S
N169 C174 1.332 . S
C170 C171 1.386 . S
C170 C173 1.388 . S
C171 C170 1.386 . S
C171 C172 1.382 . S
C171 H197 0.950 . S
C172 N169 1.332 . S
C172 C171 1.382 . S
C172 H183 0.952 . S
C173 C170 1.388 . S
C173 C174 1.382 . S
C173 H198 0.950 . S
C174 N169 1.332 . S
C174 C173 1.382 . S
C174 H184 0.948 . S
N175 Co153 2.282 . S
N175 C179 1.332 . S
N175 C180 1.332 . S
C176 C177 1.388 . S
C176 C180 1.382 . S
C176 H199 0.950 . S
C177 C176 1.388 . S
C177 C178 1.386 . S
C178 C177 1.386 . S
C178 C179 1.382 . S
C178 H200 0.950 . S
C179 N175 1.332 . S
C179 C178 1.382 . S
C179 H181 0.952 . S
C180 N175 1.332 . S
C180 C176 1.382 . S
C180 H182 0.948 . S
H181 C179 0.952 . S
H182 C180 0.948 . S
H183 C172 0.952 . S
H184 C174 0.948 . S
C185 C151 1.395 . S
C185 C155 1.391 . S
C186 C148 1.389 . S
C186 C168 1.392 . S
C187 C158 1.392 . S
C187 C160 1.389 . S
C188 C163 1.395 . S
C188 C165 1.391 . S
H189 C149 0.951 . S
H190 C150 0.950 . S
H191 C156 0.949 . S
H192 C157 0.950 . S
H193 C161 0.951 . S
H194 C162 0.950 . S
H195 C166 0.949 . S
H196 C167 0.950 . S
H197 C171 0.950 . S
H198 C173 0.950 . S
H199 C176 0.950 . S
H200 C178 0.950 . S
C201 C202 1.391 . S
C201 C203 1.394 . S
C201 H217 0.931 1_455 S
C202 C201 1.391 . S
C202 C206 1.376 . S
C203 C201 1.394 . S
C203 C204 1.369 . S
C203 C207 1.531 1_455 S
C204 C203 1.369 . S
C204 C205 1.410 . S
C204 C212 1.503 . S
C205 C204 1.410 . S
C205 C206 1.392 . S
C205 C208 1.511 . S
C206 C202 1.376 . S
C206 C205 1.392 . S
C206 H218 0.929 . S
C207 C203 1.531 1_655 S
C207 H219 0.960 . S
C207 H220 0.962 . S
C207 H221 0.960 . S
C208 C205 1.511 . S
C208 H222 0.961 . S
C208 H223 0.961 . S
C208 H224 0.961 . S
C209 C210 1.370 . S
C209 C211 1.363 . S
C209 H225 0.931 . S
C210 C209 1.370 . S
C210 C214 1.408 . S
C211 C209 1.363 . S
C211 C212 1.370 . S
C211 C215 1.524 . S
C212 C204 1.503 . S
C212 C211 1.370 . S
C212 C213 1.403 . S
C213 C212 1.403 . S
C213 C214 1.404 . S
C213 C216 1.539 . S
C214 C210 1.408 . S
C214 C213 1.404 . S
C214 H226 0.930 . S
C215 C211 1.524 . S
C215 H227 0.956 . S
C215 H228 0.961 . S
C215 H229 0.961 . S
C216 C213 1.539 . S
C216 H230 0.958 . S
C216 H231 0.961 . S
C216 H232 0.960 . S
H217 C201 0.931 1_655 S
H218 C206 0.929 . S
H219 C207 0.960 . S
H220 C207 0.962 . S
H221 C207 0.960 . S
H222 C208 0.961 . S
H223 C208 0.961 . S
H224 C208 0.961 . S
H225 C209 0.931 . S
H226 C214 0.930 . S
H227 C215 0.956 . S
H228 C215 0.961 . S
H229 C215 0.961 . S
H230 C216 0.958 . S
H231 C216 0.961 . S
H232 C216 0.960 . S
C233 C234 1.391 . S
C233 C235 1.394 . S
C233 H249 0.931 . S
C234 C233 1.391 . S
C234 C238 1.376 . S
C235 C233 1.394 . S
C235 C236 1.369 . S
C235 C239 1.531 . S
C236 C235 1.369 . S
C236 C237 1.410 . S
C236 C244 1.503 . S
C237 C236 1.410 . S
C237 C238 1.392 . S
C237 C240 1.511 . S
C238 C234 1.376 . S
C238 C237 1.392 . S
C238 H250 0.929 . S
C239 C235 1.531 . S
C239 H251 0.960 . S
C239 H252 0.962 . S
C239 H253 0.960 . S
C240 C237 1.511 . S
C240 H254 0.961 1_545 S
C240 H255 0.961 . S
C240 H256 0.961 . S
C241 C242 1.370 . S
C241 C243 1.363 . S
C241 H257 0.931 . S
C242 C241 1.370 . S
C242 C246 1.408 . S
C243 C241 1.363 . S
C243 C244 1.370 . S
C243 C247 1.524 1_545 S
C244 C236 1.503 . S
C244 C243 1.370 . S
C244 C245 1.403 . S
C245 C244 1.403 . S
C245 C246 1.404 . S
C245 C248 1.539 . S
C246 C242 1.408 . S
C246 C245 1.404 . S
C246 H258 0.930 . S
C247 C243 1.524 1_565 S
C247 H259 0.958 1_565 S
C247 H260 0.961 . S
C247 H261 0.961 . S
C248 C245 1.539 . S
C248 H262 0.958 . S
C248 H263 0.961 . S
C248 H264 0.960 . S
H249 C233 0.931 . S
H250 C238 0.929 . S
H251 C239 0.960 . S
H252 C239 0.962 . S
H253 C239 0.960 . S
H254 C240 0.961 1_565 S
H255 C240 0.961 . S
H256 C240 0.961 . S
H257 C241 0.931 . S
H258 C246 0.930 . S
H259 C247 0.958 1_545 S
H260 C247 0.961 . S
H261 C247 0.961 . S
H262 C248 0.958 . S
H263 C248 0.961 . S
H264 C248 0.960 . S
C265 C266 1.391 . S
C265 C267 1.394 . S
C265 H281 0.931 . S
C266 C265 1.391 . S
C266 C270 1.376 . S
C267 C265 1.394 . S
C267 C268 1.369 . S
C267 C271 1.531 . S
C268 C267 1.369 . S
C268 C269 1.410 . S
C268 C276 1.503 . S
C269 C268 1.410 . S
C269 C270 1.392 . S
C269 C272 1.511 . S
C270 C266 1.376 . S
C270 C269 1.392 . S
C270 H282 0.929 . S
C271 C267 1.531 . S
C271 H283 0.960 . S
C271 H284 0.962 . S
C271 H285 0.960 . S
C272 C269 1.511 . S
C272 H286 0.961 . S
C272 H287 0.961 . S
C272 H288 0.961 . S
C273 C274 1.370 . S
C273 C275 1.363 . S
C273 H289 0.931 . S
C274 C273 1.370 . S
C274 C278 1.408 . S
C275 C273 1.363 . S
C275 C276 1.370 . S
C275 C279 1.524 . S
C276 C268 1.503 . S
C276 C275 1.370 . S
C276 C277 1.403 . S
C277 C276 1.403 . S
C277 C278 1.404 . S
C277 C280 1.539 . S
C278 C274 1.408 . S
C278 C277 1.404 . S
C278 H290 0.930 . S
C279 C275 1.524 . S
C279 H291 0.956 . S
C279 H292 0.961 . S
C279 H293 0.961 . S
C280 C277 1.539 . S
C280 H294 0.958 . S
C280 H295 0.961 . S
C280 H296 0.960 . S
H281 C265 0.931 . S
H282 C270 0.929 . S
H283 C271 0.960 . S
H284 C271 0.962 . S
H285 C271 0.960 . S
H286 C272 0.961 . S
H287 C272 0.961 . S
H288 C272 0.961 . S
H289 C273 0.931 . S
H290 C278 0.930 . S
H291 C279 0.956 . S
H292 C279 0.961 . S
H293 C279 0.961 . S
H294 C280 0.958 . S
H295 C280 0.961 . S
H296 C280 0.960 . S
C297 C298 1.391 . S
C297 C299 1.394 . S
C297 H313 0.931 . S
C298 C297 1.391 . S
C298 C302 1.376 . S
C299 C297 1.394 . S
C299 C300 1.369 . S
C299 C303 1.531 . S
C300 C299 1.369 . S
C300 C301 1.410 . S
C300 C308 1.503 . S
C301 C300 1.410 . S
C301 C302 1.392 . S
C301 C304 1.511 . S
C302 C298 1.376 . S
C302 C301 1.392 . S
C302 H314 0.929 . S
C303 C299 1.531 . S
C303 H315 0.960 . S
C303 H316 0.962 . S
C303 H317 0.960 . S
C304 C301 1.511 . S
C304 H318 0.961 1_455 S
C304 H319 0.961 . S
C304 H320 0.961 . S
C305 C306 1.370 . S
C305 C307 1.363 . S
C305 H321 0.931 1_455 S
C306 C305 1.370 . S
C306 C310 1.408 . S
C307 C305 1.363 . S
C307 C308 1.370 . S
C307 C311 1.524 1_455 S
C308 C300 1.503 . S
C308 C307 1.370 . S
C308 C309 1.403 . S
C309 C308 1.403 . S
C309 C310 1.404 . S
C309 C312 1.539 . S
C310 C306 1.408 . S
C310 C309 1.404 . S
C310 H322 0.930 . S
C311 C307 1.524 1_655 S
C311 H323 0.956 . S
C311 H324 0.961 . S
C311 H325 0.961 . S
C312 C309 1.539 . S
C312 H326 0.958 . S
C312 H327 0.961 . S
C312 H328 0.960 . S
H313 C297 0.931 . S
H314 C302 0.929 . S
H315 C303 0.960 . S
H316 C303 0.962 . S
H317 C303 0.960 . S
H318 C304 0.961 1_655 S
H319 C304 0.961 . S
H320 C304 0.961 . S
H321 C305 0.931 1_655 S
H322 C310 0.930 . S
H323 C311 0.956 . S
H324 C311 0.961 . S
H325 C311 0.961 . S
H326 C312 0.958 . S
H327 C312 0.961 . S
H328 C312 0.960 . S
C329 C330 1.391 . S
C329 C331 1.394 . S
C329 H345 0.931 . S
C330 C329 1.391 . S
C330 C334 1.376 . S
C331 C329 1.394 . S
C331 C332 1.369 . S
C331 C335 1.531 1_545 S
C332 C331 1.369 . S
C332 C333 1.410 . S
C332 C340 1.503 . S
C333 C332 1.410 . S
C333 C334 1.392 . S
C333 C336 1.511 . S
C334 C330 1.376 . S
C334 C333 1.392 . S
C334 H346 0.929 . S
C335 C331 1.531 1_565 S
C335 H347 0.960 . S
C335 H348 0.962 1_565 S
C335 H349 0.960 . S
C336 C333 1.511 . S
C336 H350 0.961 . S
C336 H351 0.961 . S
C336 H352 0.961 . S
C337 C338 1.370 . S
C337 C339 1.363 . S
C337 H353 0.931 . S
C338 C337 1.370 . S
C338 C342 1.408 . S
C339 C337 1.363 . S
C339 C340 1.370 . S
C339 C343 1.524 . S
C340 C332 1.503 . S
C340 C339 1.370 . S
C340 C341 1.403 . S
C341 C340 1.403 . S
C341 C342 1.404 . S
C341 C344 1.539 1_545 S
C342 C338 1.408 . S
C342 C341 1.404 . S
C342 H354 0.930 . S
C343 C339 1.524 . S
C343 H355 0.956 . S
C343 H356 0.961 . S
C343 H357 0.961 . S
C344 C341 1.539 1_565 S
C344 H358 0.958 . S
C344 H359 0.961 . S
C344 H360 0.960 1_565 S
H345 C329 0.931 . S
H346 C334 0.929 . S
H347 C335 0.960 . S
H348 C335 0.962 1_545 S
H349 C335 0.960 . S
H350 C336 0.961 . S
H351 C336 0.961 . S
H352 C336 0.961 . S
H353 C337 0.931 . S
H354 C342 0.930 . S
H355 C343 0.956 . S
H356 C343 0.961 . S
H357 C343 0.961 . S
H358 C344 0.958 . S
H359 C344 0.961 . S
H360 C344 0.960 1_545 S
C361 C362 1.391 . S
C361 C363 1.394 . S
C361 H377 0.931 . S
C362 C361 1.391 . S
C362 C366 1.376 . S
C363 C361 1.394 . S
C363 C364 1.369 . S
C363 C367 1.531 . S
C364 C363 1.369 . S
C364 C365 1.410 . S
C364 C372 1.503 . S
C365 C364 1.410 . S
C365 C366 1.392 . S
C365 C368 1.511 . S
C366 C362 1.376 . S
C366 C365 1.392 . S
C366 H378 0.929 . S
C367 C363 1.531 . S
C367 H379 0.960 . S
C367 H380 0.962 . S
C367 H381 0.960 . S
C368 C365 1.511 . S
C368 H382 0.961 . S
C368 H383 0.961 . S
C368 H384 0.961 . S
C369 C370 1.370 . S
C369 C371 1.363 . S
C369 H385 0.931 . S
C370 C369 1.370 . S
C370 C374 1.408 . S
C371 C369 1.363 . S
C371 C372 1.370 . S
C371 C375 1.524 . S
C372 C364 1.503 . S
C372 C371 1.370 . S
C372 C373 1.403 . S
C373 C372 1.403 . S
C373 C374 1.404 . S
C373 C376 1.539 . S
C374 C370 1.408 . S
C374 C373 1.404 . S
C374 H386 0.930 . S
C375 C371 1.524 . S
C375 H387 0.956 . S
C375 H388 0.961 . S
C375 H389 0.961 . S
C376 C373 1.539 . S
C376 H390 0.958 . S
C376 H391 0.961 . S
C376 H392 0.960 . S
H377 C361 0.931 . S
H378 C366 0.929 . S
H379 C367 0.960 . S
H380 C367 0.962 . S
H381 C367 0.960 . S
H382 C368 0.961 . S
H383 C368 0.961 . S
H384 C368 0.961 . S
H385 C369 0.931 . S
H386 C374 0.930 . S
H387 C375 0.956 . S
H388 C375 0.961 . S
H389 C375 0.961 . S
H390 C376 0.958 . S
H391 C376 0.961 . S
H392 C376 0.960 . S
C393 C394 1.391 . S
C393 C395 1.394 . S
C393 H409 0.931 1_545 S
C394 C393 1.391 . S
C394 C398 1.376 . S
C395 C393 1.394 . S
C395 C396 1.369 . S
C395 C399 1.531 1_545 S
C396 C395 1.369 . S
C396 C397 1.410 . S
C396 C404 1.503 . S
C397 C396 1.410 . S
C397 C398 1.392 . S
C397 C400 1.511 . S
C398 C394 1.376 . S
C398 C397 1.392 . S
C398 H410 0.929 . S
C399 C395 1.531 1_565 S
C399 H411 0.960 . S
C399 H412 0.962 . S
C399 H413 0.960 . S
C400 C397 1.511 . S
C400 H414 0.961 . S
C400 H415 0.961 . S
C400 H416 0.961 . S
C401 C402 1.370 . S
C401 C403 1.363 . S
C401 H417 0.931 . S
C402 C401 1.370 . S
C402 C406 1.408 . S
C403 C401 1.363 . S
C403 C404 1.370 . S
C403 C407 1.524 . S
C404 C396 1.503 . S
C404 C403 1.370 . S
C404 C405 1.403 . S
C405 C404 1.403 . S
C405 C406 1.404 . S
C405 C408 1.539 1_545 S
C406 C402 1.408 . S
C406 C405 1.404 . S
C406 H418 0.930 . S
C407 C403 1.524 . S
C407 H419 0.956 . S
C407 H420 0.961 . S
C407 H421 0.961 . S
C408 C405 1.539 1_565 S
C408 H422 0.958 . S
C408 H423 0.961 . S
C408 H424 0.960 1_565 S
H409 C393 0.931 1_565 S
H410 C398 0.929 . S
H411 C399 0.960 . S
H412 C399 0.962 . S
H413 C399 0.960 . S
H414 C400 0.961 . S
H415 C400 0.961 . S
H416 C400 0.961 . S
H417 C401 0.931 . S
H418 C406 0.930 . S
H419 C407 0.956 . S
H420 C407 0.961 . S
H421 C407 0.961 . S
H422 C408 0.958 . S
H423 C408 0.961 . S
H424 C408 0.960 1_545 S
C425 C426 1.391 1_556 S
C425 C427 1.394 . S
C425 H441 0.931 . S
C426 C425 1.391 1_554 S
C426 C430 1.376 1_554 S
C427 C425 1.394 . S
C427 C428 1.369 . S
C427 C431 1.531 . S
C428 C427 1.369 . S
C428 C429 1.410 . S
C428 C436 1.503 . S
C429 C428 1.410 . S
C429 C430 1.392 . S
C429 C432 1.511 . S
C430 C426 1.376 1_556 S
C430 C429 1.392 . S
C430 H442 0.929 1_556 S
C431 C427 1.531 . S
C431 H443 0.960 . S
C431 H444 0.962 . S
C431 H445 0.960 . S
C432 C429 1.511 . S
C432 H446 0.961 . S
C432 H447 0.961 . S
C432 H448 0.961 . S
C433 C434 1.370 . S
C433 C435 1.363 . S
C433 H449 0.931 . S
C434 C433 1.370 . S
C434 C438 1.408 . S
C435 C433 1.363 . S
C435 C436 1.370 . S
C435 C439 1.524 . S
C436 C428 1.503 . S
C436 C435 1.370 . S
C436 C437 1.403 . S
C437 C436 1.403 . S
C437 C438 1.404 . S
C437 C440 1.539 . S
C438 C434 1.408 . S
C438 C437 1.404 . S
C438 H450 0.930 . S
C439 C435 1.524 . S
C439 H451 0.956 . S
C439 H452 0.949 1_556 S
C439 H453 0.961 . S
C440 C437 1.539 . S
C440 H454 0.958 . S
C440 H455 0.961 . S
C440 H456 0.960 . S
H441 C425 0.931 . S
H442 C430 0.929 1_554 S
H443 C431 0.960 . S
H444 C431 0.962 . S
H445 C431 0.960 . S
H446 C432 0.961 . S
H447 C432 0.961 . S
H448 C432 0.961 . S
H449 C433 0.931 . S
H450 C438 0.930 . S
H451 C439 0.956 . S
H452 C439 0.949 1_554 S
H453 C439 0.961 . S
H454 C440 0.958 . S
H455 C440 0.961 . S
H456 C440 0.960 . S
C457 C458 1.391 . S
C457 C459 1.394 . S
C457 H473 0.931 . S
C458 C457 1.391 . S
C458 C462 1.376 . S
C459 C457 1.394 . S
C459 C460 1.369 . S
C459 C463 1.531 . S
C460 C459 1.369 . S
C460 C461 1.410 . S
C460 C468 1.503 . S
C461 C460 1.410 . S
C461 C462 1.392 . S
C461 C464 1.511 . S
C462 C458 1.376 . S
C462 C461 1.392 . S
C462 H474 0.929 . S
C463 C459 1.531 . S
C463 H475 0.960 . S
C463 H476 0.962 1_455 S
C463 H477 0.960 . S
C464 C461 1.511 . S
C464 H478 0.961 . S
C464 H479 0.961 . S
C464 H480 0.961 . S
C465 C466 1.370 1_655 S
C465 C467 1.357 . S
C465 H481 0.931 . S
C466 C465 1.370 1_455 S
C466 C470 1.408 . S
C467 C465 1.357 . S
C467 C468 1.364 1_655 S
C467 C471 1.537 . S
C468 C460 1.503 . S
C468 C467 1.364 1_455 S
C468 C469 1.403 . S
C469 C468 1.403 . S
C469 C470 1.404 . S
C469 C472 1.539 . S
C470 C466 1.408 . S
C470 C469 1.404 . S
C470 H482 0.930 . S
C471 C467 1.537 . S
C471 H483 0.956 . S
C471 H484 0.961 . S
C471 H485 0.961 . S
C472 C469 1.539 . S
C472 H486 0.958 . S
C472 H487 0.961 . S
C472 H488 0.960 . S
H473 C457 0.931 . S
H474 C462 0.929 . S
H475 C463 0.960 . S
H476 C463 0.962 1_655 S
H477 C463 0.960 . S
H478 C464 0.961 . S
H479 C464 0.961 . S
H480 C464 0.961 . S
H481 C465 0.931 . S
H482 C470 0.930 . S
H483 C471 0.956 . S
H484 C471 0.961 . S
H485 C471 0.961 . S
H486 C472 0.958 . S
H487 C472 0.961 . S
H488 C472 0.960 . S
C489 C490 1.391 . S
C489 C491 1.394 . S
C489 H505 0.931 . S
C490 C489 1.391 . S
C490 C494 1.376 . S
C491 C489 1.394 . S
C491 C492 1.369 . S
C491 C495 1.531 . S
C492 C491 1.369 . S
C492 C493 1.410 . S
C492 C500 1.503 . S
C493 C492 1.410 . S
C493 C494 1.392 . S
C493 C496 1.511 . S
C494 C490 1.376 . S
C494 C493 1.392 . S
C494 H506 0.929 . S
C495 C491 1.531 . S
C495 H507 0.960 . S
C495 H508 0.962 . S
C495 H509 0.960 . S
C496 C493 1.511 . S
C496 H510 0.961 . S
C496 H511 0.961 . S
C496 H512 0.961 . S
C497 C498 1.370 . S
C497 C499 1.363 . S
C497 H513 0.931 1_545 S
C498 C497 1.370 . S
C498 C502 1.408 . S
C499 C497 1.363 . S
C499 C500 1.370 . S
C499 C503 1.524 1_545 S
C500 C492 1.503 . S
C500 C499 1.370 . S
C500 C501 1.403 . S
C501 C500 1.403 . S
C501 C502 1.404 . S
C501 C504 1.539 . S
C502 C498 1.408 . S
C502 C501 1.404 . S
C502 H514 0.930 . S
C503 C499 1.524 1_565 S
C503 H515 0.956 . S
C503 H516 0.961 . S
C503 H517 0.961 . S
C504 C501 1.539 . S
C504 H518 0.958 . S
C504 H519 0.961 . S
C504 H520 0.960 . S
H505 C489 0.931 . S
H506 C494 0.929 . S
H507 C495 0.960 . S
H508 C495 0.962 . S
H509 C495 0.960 . S
H510 C496 0.961 . S
H511 C496 0.961 . S
H512 C496 0.961 . S
H513 C497 0.931 1_565 S
H514 C502 0.930 . S
H515 C503 0.956 . S
H516 C503 0.961 . S
H517 C503 0.961 . S
H518 C504 0.958 . S
H519 C504 0.961 . S
H520 C504 0.960 . S
C521 C522 1.391 1_554 S
C521 C523 1.394 1_554 S
C521 H537 0.931 . S
C522 C521 1.391 1_556 S
C522 C526 1.376 . S
C523 C521 1.394 1_556 S
C523 C524 1.369 . S
C523 C527 1.531 . S
C524 C523 1.369 . S
C524 C525 1.410 . S
C524 C532 1.503 . S
C525 C524 1.410 . S
C525 C526 1.392 . S
C525 C528 1.511 . S
C526 C522 1.376 . S
C526 C525 1.392 . S
C526 H538 0.929 . S
C527 C523 1.531 . S
C527 H539 0.960 . S
C527 H540 0.962 . S
C527 H541 0.960 1_556 S
C528 C525 1.511 . S
C528 H542 0.961 . S
C528 H543 0.961 . S
C528 H544 0.961 . S
C529 C530 1.370 . S
C529 C531 1.363 . S
C529 H545 0.931 . S
C530 C529 1.370 . S
C530 C534 1.408 . S
C531 C529 1.363 . S
C531 C532 1.370 . S
C531 C535 1.524 . S
C532 C524 1.503 . S
C532 C531 1.370 . S
C532 C533 1.403 . S
C533 C532 1.403 . S
C533 C534 1.404 . S
C533 C536 1.539 . S
C534 C530 1.408 . S
C534 C533 1.404 . S
C534 H546 0.930 . S
C535 C531 1.524 . S
C535 H547 0.956 . S
C535 H548 0.961 . S
C535 H549 0.961 . S
C536 C533 1.539 . S
C536 H550 0.958 . S
C536 H551 0.961 . S
C536 H552 0.960 . S
H537 C521 0.931 . S
H538 C526 0.929 . S
H539 C527 0.960 . S
H540 C527 0.962 . S
H541 C527 0.960 1_554 S
H542 C528 0.961 . S
H543 C528 0.961 . S
H544 C528 0.961 . S
H545 C529 0.931 . S
H546 C534 0.930 . S
H547 C535 0.956 . S
H548 C535 0.961 . S
H549 C535 0.961 . S
H550 C536 0.958 . S
H551 C536 0.961 . S
H552 C536 0.960 . S
C553 C554 1.391 . S
C553 C555 1.394 . S
C553 H569 0.931 . S
C554 C553 1.391 . S
C554 C558 1.376 . S
C555 C553 1.394 . S
C555 C556 1.369 . S
C555 C559 1.531 . S
C556 C555 1.369 . S
C556 C557 1.410 . S
C556 C564 1.503 . S
C557 C556 1.410 . S
C557 C558 1.392 . S
C557 C560 1.511 . S
C558 C554 1.376 . S
C558 C557 1.392 . S
C558 H570 0.929 . S
C559 C555 1.531 . S
C559 H571 0.960 . S
C559 H572 0.962 . S
C559 H573 0.960 . S
C560 C557 1.511 . S
C560 H574 0.961 . S
C560 H575 0.961 . S
C560 H576 0.961 1_455 S
C561 C562 1.370 . S
C561 C563 1.363 . S
C561 H577 0.931 . S
C562 C561 1.370 . S
C562 C566 1.408 1_455 S
C563 C561 1.363 . S
C563 C564 1.370 . S
C563 C567 1.524 . S
C564 C556 1.503 . S
C564 C563 1.370 . S
C564 C565 1.403 1_455 S
C565 C564 1.403 1_655 S
C565 C566 1.404 . S
C565 C568 1.539 . S
C566 C562 1.408 1_655 S
C566 C565 1.404 . S
C566 H578 0.930 . S
C567 C563 1.524 . S
C567 H579 0.956 . S
C567 H580 0.961 . S
C567 H581 0.961 . S
C568 C565 1.539 . S
C568 H582 0.958 . S
C568 H583 0.961 . S
C568 H584 0.960 . S
H569 C553 0.931 . S
H570 C558 0.929 . S
H571 C559 0.960 . S
H572 C559 0.962 . S
H573 C559 0.960 . S
H574 C560 0.961 . S
H575 C560 0.961 . S
H576 C560 0.961 1_655 S
H577 C561 0.931 . S
H578 C566 0.930 . S
H579 C567 0.956 . S
H580 C567 0.961 . S
H581 C567 0.961 . S
H582 C568 0.958 . S
H583 C568 0.961 . S
H584 C568 0.960 . S
C210 C64 1.456 . S
C202 C0 1.456 . S
C234 C25 1.482 . S
C242 C134 1.490 . S
C266 C33 1.509 . S
C274 C186 1.505 . S
C298 C11 1.440 . S
C306 C80 1.443 . S
C338 C124 1.483 . S
C330 C14 1.468 . S
C362 C37 1.487 . S
C370 C170 1.503 . S
C402 C117 1.481 . S
C394 C28 1.465 . S
C426 C9 1.495 . S
C434 C177 1.505 . S
C466 C71 1.532 . S
C458 C19 1.520 . S
C498 C133 1.490 . S
C490 C39 1.486 . S
C530 C187 1.504 . S
C522 C5 1.505 1_556 S
C554 C23 1.527 . S
C562 C81 1.551 . S
