# Generated by pormake.
# Topology gar, (4,6)-cn, num edge types: 1
# Building blocks:
#     Node 0, Type 0, BuildingBlock: QUQFOY_clean_sbu_1, # of connection points: 4
#     Node 1, Type 0, BuildingBlock: QUQFOY_clean_sbu_1, # of connection points: 4
#     Node 2, Type 0, BuildingBlock: QUQFOY_clean_sbu_1, # of connection points: 4
#     Node 3, Type 0, BuildingBlock: QUQFOY_clean_sbu_1, # of connection points: 4
#     Node 4, Type 0, BuildingBlock: QUQFOY_clean_sbu_1, # of connection points: 4
#     Node 5, Type 0, BuildingBlock: QUQFOY_clean_sbu_1, # of connection points: 4
#     Node 6, Type 0, BuildingBlock: QUQFOY_clean_sbu_1, # of connection points: 4
#     Node 7, Type 0, BuildingBlock: QUQFOY_clean_sbu_1, # of connection points: 4
#     Node 8, Type 0, BuildingBlock: QUQFOY_clean_sbu_1, # of connection points: 4
#     Node 9, Type 0, BuildingBlock: QUQFOY_clean_sbu_1, # of connection points: 4
#     Node 10, Type 0, BuildingBlock: QUQFOY_clean_sbu_1, # of connection points: 4
#     Node 11, Type 0, BuildingBlock: QUQFOY_clean_sbu_1, # of connection points: 4
#     Node 12, Type 0, BuildingBlock: QUQFOY_clean_sbu_1, # of connection points: 4
#     Node 13, Type 0, BuildingBlock: QUQFOY_clean_sbu_1, # of connection points: 4
#     Node 14, Type 0, BuildingBlock: QUQFOY_clean_sbu_1, # of connection points: 4
#     Node 15, Type 0, BuildingBlock: QUQFOY_clean_sbu_1, # of connection points: 4
#     Node 16, Type 0, BuildingBlock: QUQFOY_clean_sbu_1, # of connection points: 4
#     Node 17, Type 0, BuildingBlock: QUQFOY_clean_sbu_1, # of connection points: 4
#     Node 18, Type 0, BuildingBlock: QUQFOY_clean_sbu_1, # of connection points: 4
#     Node 19, Type 0, BuildingBlock: QUQFOY_clean_sbu_1, # of connection points: 4
#     Node 20, Type 0, BuildingBlock: QUQFOY_clean_sbu_1, # of connection points: 4
#     Node 21, Type 0, BuildingBlock: QUQFOY_clean_sbu_1, # of connection points: 4
#     Node 22, Type 0, BuildingBlock: QUQFOY_clean_sbu_1, # of connection points: 4
#     Node 23, Type 0, BuildingBlock: QUQFOY_clean_sbu_1, # of connection points: 4
#     Node 24, Type 1, BuildingBlock: NUHQIS_clean_sbu_0, # of connection points: 6
#     Node 25, Type 1, BuildingBlock: NUHQIS_clean_sbu_0, # of connection points: 6
#     Node 26, Type 1, BuildingBlock: NUHQIS_clean_sbu_0, # of connection points: 6
#     Node 27, Type 1, BuildingBlock: NUHQIS_clean_sbu_0, # of connection points: 6
#     Node 28, Type 1, BuildingBlock: NUHQIS_clean_sbu_0, # of connection points: 6
#     Node 29, Type 1, BuildingBlock: NUHQIS_clean_sbu_0, # of connection points: 6
#     Node 30, Type 1, BuildingBlock: NUHQIS_clean_sbu_0, # of connection points: 6
#     Node 31, Type 1, BuildingBlock: NUHQIS_clean_sbu_0, # of connection points: 6
#     Node 32, Type 1, BuildingBlock: NUHQIS_clean_sbu_0, # of connection points: 6
#     Node 33, Type 1, BuildingBlock: NUHQIS_clean_sbu_0, # of connection points: 6
#     Node 34, Type 1, BuildingBlock: NUHQIS_clean_sbu_0, # of connection points: 6
#     Node 35, Type 1, BuildingBlock: NUHQIS_clean_sbu_0, # of connection points: 6
#     Node 36, Type 1, BuildingBlock: NUHQIS_clean_sbu_0, # of connection points: 6
#     Node 37, Type 1, BuildingBlock: NUHQIS_clean_sbu_0, # of connection points: 6
#     Node 38, Type 1, BuildingBlock: NUHQIS_clean_sbu_0, # of connection points: 6
#     Node 39, Type 1, BuildingBlock: NUHQIS_clean_sbu_0, # of connection points: 6
#     Edge 40, Type (0, 1), BuildingBlock: AJUNOK_clean_linker_0, # of connection points: 2
#     Edge 41, Type (0, 1), BuildingBlock: AJUNOK_clean_linker_0, # of connection points: 2
#     Edge 42, Type (0, 1), BuildingBlock: AJUNOK_clean_linker_0, # of connection points: 2
#     Edge 43, Type (0, 1), BuildingBlock: AJUNOK_clean_linker_0, # of connection points: 2
#     Edge 44, Type (0, 1), BuildingBlock: AJUNOK_clean_linker_0, # of connection points: 2
#     Edge 45, Type (0, 1), BuildingBlock: AJUNOK_clean_linker_0, # of connection points: 2
#     Edge 46, Type (0, 1), BuildingBlock: AJUNOK_clean_linker_0, # of connection points: 2
#     Edge 47, Type (0, 1), BuildingBlock: AJUNOK_clean_linker_0, # of connection points: 2
#     Edge 48, Type (0, 1), BuildingBlock: AJUNOK_clean_linker_0, # of connection points: 2
#     Edge 49, Type (0, 1), BuildingBlock: AJUNOK_clean_linker_0, # of connection points: 2
#     Edge 50, Type (0, 1), BuildingBlock: AJUNOK_clean_linker_0, # of connection points: 2
#     Edge 51, Type (0, 1), BuildingBlock: AJUNOK_clean_linker_0, # of connection points: 2
#     Edge 52, Type (0, 1), BuildingBlock: AJUNOK_clean_linker_0, # of connection points: 2
#     Edge 53, Type (0, 1), BuildingBlock: AJUNOK_clean_linker_0, # of connection points: 2
#     Edge 54, Type (0, 1), BuildingBlock: AJUNOK_clean_linker_0, # of connection points: 2
#     Edge 55, Type (0, 1), BuildingBlock: AJUNOK_clean_linker_0, # of connection points: 2
#     Edge 56, Type (0, 1), BuildingBlock: AJUNOK_clean_linker_0, # of connection points: 2
#     Edge 57, Type (0, 1), BuildingBlock: AJUNOK_clean_linker_0, # of connection points: 2
#     Edge 58, Type (0, 1), BuildingBlock: AJUNOK_clean_linker_0, # of connection points: 2
#     Edge 59, Type (0, 1), BuildingBlock: AJUNOK_clean_linker_0, # of connection points: 2
#     Edge 60, Type (0, 1), BuildingBlock: AJUNOK_clean_linker_0, # of connection points: 2
#     Edge 61, Type (0, 1), BuildingBlock: AJUNOK_clean_linker_0, # of connection points: 2
#     Edge 62, Type (0, 1), BuildingBlock: AJUNOK_clean_linker_0, # of connection points: 2
#     Edge 63, Type (0, 1), BuildingBlock: AJUNOK_clean_linker_0, # of connection points: 2
#     Edge 64, Type (0, 1), BuildingBlock: AJUNOK_clean_linker_0, # of connection points: 2
#     Edge 65, Type (0, 1), BuildingBlock: AJUNOK_clean_linker_0, # of connection points: 2
#     Edge 66, Type (0, 1), BuildingBlock: AJUNOK_clean_linker_0, # of connection points: 2
#     Edge 67, Type (0, 1), BuildingBlock: AJUNOK_clean_linker_0, # of connection points: 2
#     Edge 68, Type (0, 1), BuildingBlock: AJUNOK_clean_linker_0, # of connection points: 2
#     Edge 69, Type (0, 1), BuildingBlock: AJUNOK_clean_linker_0, # of connection points: 2
#     Edge 70, Type (0, 1), BuildingBlock: AJUNOK_clean_linker_0, # of connection points: 2
#     Edge 71, Type (0, 1), BuildingBlock: AJUNOK_clean_linker_0, # of connection points: 2
#     Edge 72, Type (0, 1), BuildingBlock: AJUNOK_clean_linker_0, # of connection points: 2
#     Edge 73, Type (0, 1), BuildingBlock: AJUNOK_clean_linker_0, # of connection points: 2
#     Edge 74, Type (0, 1), BuildingBlock: AJUNOK_clean_linker_0, # of connection points: 2
#     Edge 75, Type (0, 1), BuildingBlock: AJUNOK_clean_linker_0, # of connection points: 2
#     Edge 76, Type (0, 1), BuildingBlock: AJUNOK_clean_linker_0, # of connection points: 2
#     Edge 77, Type (0, 1), BuildingBlock: AJUNOK_clean_linker_0, # of connection points: 2
#     Edge 78, Type (0, 1), BuildingBlock: AJUNOK_clean_linker_0, # of connection points: 2
#     Edge 79, Type (0, 1), BuildingBlock: AJUNOK_clean_linker_0, # of connection points: 2
#     Edge 80, Type (0, 1), BuildingBlock: AJUNOK_clean_linker_0, # of connection points: 2
#     Edge 81, Type (0, 1), BuildingBlock: AJUNOK_clean_linker_0, # of connection points: 2
#     Edge 82, Type (0, 1), BuildingBlock: AJUNOK_clean_linker_0, # of connection points: 2
#     Edge 83, Type (0, 1), BuildingBlock: AJUNOK_clean_linker_0, # of connection points: 2
#     Edge 84, Type (0, 1), BuildingBlock: AJUNOK_clean_linker_0, # of connection points: 2
#     Edge 85, Type (0, 1), BuildingBlock: AJUNOK_clean_linker_0, # of connection points: 2
#     Edge 86, Type (0, 1), BuildingBlock: AJUNOK_clean_linker_0, # of connection points: 2
#     Edge 87, Type (0, 1), BuildingBlock: AJUNOK_clean_linker_0, # of connection points: 2
#     Edge 88, Type (0, 1), BuildingBlock: AJUNOK_clean_linker_0, # of connection points: 2
#     Edge 89, Type (0, 1), BuildingBlock: AJUNOK_clean_linker_0, # of connection points: 2
#     Edge 90, Type (0, 1), BuildingBlock: AJUNOK_clean_linker_0, # of connection points: 2
#     Edge 91, Type (0, 1), BuildingBlock: AJUNOK_clean_linker_0, # of connection points: 2
#     Edge 92, Type (0, 1), BuildingBlock: AJUNOK_clean_linker_0, # of connection points: 2
#     Edge 93, Type (0, 1), BuildingBlock: AJUNOK_clean_linker_0, # of connection points: 2
#     Edge 94, Type (0, 1), BuildingBlock: AJUNOK_clean_linker_0, # of connection points: 2
#     Edge 95, Type (0, 1), BuildingBlock: AJUNOK_clean_linker_0, # of connection points: 2
#     Edge 96, Type (0, 1), BuildingBlock: AJUNOK_clean_linker_0, # of connection points: 2
#     Edge 97, Type (0, 1), BuildingBlock: AJUNOK_clean_linker_0, # of connection points: 2
#     Edge 98, Type (0, 1), BuildingBlock: AJUNOK_clean_linker_0, # of connection points: 2
#     Edge 99, Type (0, 1), BuildingBlock: AJUNOK_clean_linker_0, # of connection points: 2
#     Edge 100, Type (0, 1), BuildingBlock: AJUNOK_clean_linker_0, # of connection points: 2
#     Edge 101, Type (0, 1), BuildingBlock: AJUNOK_clean_linker_0, # of connection points: 2
#     Edge 102, Type (0, 1), BuildingBlock: AJUNOK_clean_linker_0, # of connection points: 2
#     Edge 103, Type (0, 1), BuildingBlock: AJUNOK_clean_linker_0, # of connection points: 2
#     Edge 104, Type (0, 1), BuildingBlock: AJUNOK_clean_linker_0, # of connection points: 2
#     Edge 105, Type (0, 1), BuildingBlock: AJUNOK_clean_linker_0, # of connection points: 2
#     Edge 106, Type (0, 1), BuildingBlock: AJUNOK_clean_linker_0, # of connection points: 2
#     Edge 107, Type (0, 1), BuildingBlock: AJUNOK_clean_linker_0, # of connection points: 2
#     Edge 108, Type (0, 1), BuildingBlock: AJUNOK_clean_linker_0, # of connection points: 2
#     Edge 109, Type (0, 1), BuildingBlock: AJUNOK_clean_linker_0, # of connection points: 2
#     Edge 110, Type (0, 1), BuildingBlock: AJUNOK_clean_linker_0, # of connection points: 2
#     Edge 111, Type (0, 1), BuildingBlock: AJUNOK_clean_linker_0, # of connection points: 2
#     Edge 112, Type (0, 1), BuildingBlock: AJUNOK_clean_linker_0, # of connection points: 2
#     Edge 113, Type (0, 1), BuildingBlock: AJUNOK_clean_linker_0, # of connection points: 2
#     Edge 114, Type (0, 1), BuildingBlock: AJUNOK_clean_linker_0, # of connection points: 2
#     Edge 115, Type (0, 1), BuildingBlock: AJUNOK_clean_linker_0, # of connection points: 2
#     Edge 116, Type (0, 1), BuildingBlock: AJUNOK_clean_linker_0, # of connection points: 2
#     Edge 117, Type (0, 1), BuildingBlock: AJUNOK_clean_linker_0, # of connection points: 2
#     Edge 118, Type (0, 1), BuildingBlock: AJUNOK_clean_linker_0, # of connection points: 2
#     Edge 119, Type (0, 1), BuildingBlock: AJUNOK_clean_linker_0, # of connection points: 2
#     Edge 120, Type (0, 1), BuildingBlock: AJUNOK_clean_linker_0, # of connection points: 2
#     Edge 121, Type (0, 1), BuildingBlock: AJUNOK_clean_linker_0, # of connection points: 2
#     Edge 122, Type (0, 1), BuildingBlock: AJUNOK_clean_linker_0, # of connection points: 2
#     Edge 123, Type (0, 1), BuildingBlock: AJUNOK_clean_linker_0, # of connection points: 2
#     Edge 124, Type (0, 1), BuildingBlock: AJUNOK_clean_linker_0, # of connection points: 2
#     Edge 125, Type (0, 1), BuildingBlock: AJUNOK_clean_linker_0, # of connection points: 2
#     Edge 126, Type (0, 1), BuildingBlock: AJUNOK_clean_linker_0, # of connection points: 2
#     Edge 127, Type (0, 1), BuildingBlock: AJUNOK_clean_linker_0, # of connection points: 2
#     Edge 128, Type (0, 1), BuildingBlock: AJUNOK_clean_linker_0, # of connection points: 2
#     Edge 129, Type (0, 1), BuildingBlock: AJUNOK_clean_linker_0, # of connection points: 2
#     Edge 130, Type (0, 1), BuildingBlock: AJUNOK_clean_linker_0, # of connection points: 2
#     Edge 131, Type (0, 1), BuildingBlock: AJUNOK_clean_linker_0, # of connection points: 2
#     Edge 132, Type (0, 1), BuildingBlock: AJUNOK_clean_linker_0, # of connection points: 2
#     Edge 133, Type (0, 1), BuildingBlock: AJUNOK_clean_linker_0, # of connection points: 2
#     Edge 134, Type (0, 1), BuildingBlock: AJUNOK_clean_linker_0, # of connection points: 2
#     Edge 135, Type (0, 1), BuildingBlock: AJUNOK_clean_linker_0, # of connection points: 2
# Relax obj value: 0.298
# Max RMSD: 0.368
# Mean RMSD: 0.179
data_MOF--net-gar--node1-QUQFOY_clean_sbu_1--node2-NUHQIS_clean_sbu_0--edge1-AJUNOK_clean_linker_0
_symmetry_space_group_name_H-M    P1
_symmetry_Int_Tables_number       1
_symmetry_cell_setting            triclinic
loop_
_symmetry_equiv_pos_as_xyz
'x, y, z'
_cell_length_a     43.275749
_cell_length_b     46.142497
_cell_length_c     43.334389
_cell_angle_alpha  94.243841
_cell_angle_beta   95.984142
_cell_angle_gamma 101.21428
loop_
_atom_site_label
_atom_site_type_symbol
_atom_site_fract_x
_atom_site_fract_y
_atom_site_fract_z
_atom_type_partial_charge
O0 O 0.11352 0.26779 0.44288 0.0
Cd1 Cd 0.11909 0.29847 0.40598 0.0
Cd2 Cd 0.08773 0.33745 0.46764 0.0
O3 O 0.09655 0.29072 0.48362 0.0
O4 O 0.14586 0.28254 0.37181 0.0
O5 O 0.16431 0.32472 0.3988 0.0
C6 C 0.16899 0.30538 0.37752 0.0
C7 C 0.09507 0.39291 0.49309 0.0
C8 C 0.10463 0.26674 0.47056 0.0
C9 C 1.05029 0.31922 0.3968 0.0
O10 O 0.05373 0.33032 0.42553 0.0
O11 O 0.07258 0.30759 0.386 0.0
O12 O 0.07441 0.37079 0.50016 0.0
O13 O 0.11323 0.38413 0.47394 0.0
O14 O 0.07392 0.77787 0.66551 0.0
Cd15 Cd 0.07436 0.81249 0.70258 0.0
Cd16 Cd 0.11497 0.85027 0.64707 0.0
O17 O 0.10071 0.79963 0.62872 0.0
O18 O 1.04075 0.79619 0.73361 0.0
O19 O 1.03771 0.8363 0.71164 0.0
C20 C 1.02569 0.81758 0.73014 0.0
C21 C 0.11332 0.90179 0.62302 0.0
C22 C 0.08659 0.77527 0.63993 0.0
C23 C 0.15011 0.83918 0.71427 0.0
O24 O 0.14961 0.85102 0.68805 0.0
O25 O 0.12409 0.82535 0.7234 0.0
O26 O 0.13414 0.8857 0.61816 0.0
O27 O 0.09255 0.88893 0.63982 0.0
O28 O 0.6665 0.82261 0.92731 0.0
Cd29 Cd 0.6353 0.81822 0.96614 0.0
Cd30 Cd 0.59744 0.84851 0.90442 0.0
O31 O 0.64066 0.83872 0.88652 0.0
O32 O 0.65112 0.78608 0.99705 0.0
O33 O 0.60586 0.77338 0.9698 0.0
C34 C 0.6265 0.7648 0.9891 0.0
C35 C 0.54401 0.84173 0.87346 0.0
C36 C 0.6656 0.83019 0.89888 0.0
C37 C 0.61621 0.88774 0.97163 0.0
O38 O 0.60559 0.88269 0.9425 0.0
O39 O 0.62671 0.86606 0.98523 0.0
O40 O 0.56728 0.86322 0.87066 0.0
O41 O 0.55101 0.82295 0.89239 0.0
O42 O 0.58849 0.26717 0.16443 0.0
Cd43 Cd 0.58852 0.30357 0.19995 0.0
Cd44 Cd 0.62623 0.34119 0.14542 0.0
O45 O 0.61159 0.29052 0.12643 0.0
O46 O 0.55652 0.29291 0.23422 0.0
O47 O 0.54885 0.32508 0.20189 0.0
C48 C 0.53891 0.31101 0.22488 0.0
C49 C 0.62268 0.39327 0.12336 0.0
C50 C 0.59954 0.2655 0.13782 0.0
C51 C 0.66428 0.33156 0.21132 0.0
O52 O 0.6632 0.34224 0.18447 0.0
O53 O 0.6383 0.31839 0.22108 0.0
O54 O 0.64024 0.37556 0.11349 0.0
O55 O 0.60596 0.3817 0.14421 0.0
O56 O 0.19217 0.88593 0.21404 0.0
Cd57 Cd 0.18411 0.92703 0.22474 0.0
Cd58 Cd 0.21282 0.9371 0.1738 0.0
O59 O 0.19131 0.89335 0.1645 0.0
O60 O 0.15415 0.92178 0.25575 0.0
O61 O 0.14047 0.92845 0.2062 0.0
C62 C 0.13238 0.9215 0.23291 0.0
C63 C 0.18455 0.96822 0.15214 0.0
C64 C 0.18694 0.87588 0.18559 0.0
C65 C 0.24835 0.95536 0.23458 0.0
O66 O 0.25178 0.94741 0.20662 0.0
O67 O 0.22176 0.9611 0.2398 0.0
O68 O 0.20605 0.95927 0.13742 0.0
O69 O 0.18213 0.96187 0.18029 0.0
O70 O 0.58765 0.76749 0.42915 0.0
Cd71 Cd 0.54633 0.75624 0.4487 0.0
Cd72 Cd 0.53057 0.75501 0.39176 0.0
O73 O 0.56799 0.73469 0.38992 0.0
O74 O 0.56169 0.74952 0.49066 0.0
O75 O 0.53371 0.71443 0.45456 0.0
C76 C 0.55125 0.72183 0.48113 0.0
C77 C 0.49032 0.75092 0.35273 0.0
C78 C 0.59192 0.75186 0.40528 0.0
C79 C 0.53011 0.80629 0.43505 0.0
O80 O 0.54116 0.79855 0.41056 0.0
O81 O 0.51911 0.78663 0.45201 0.0
O82 O 0.51914 0.76171 0.34849 0.0
O83 O 0.48503 0.73834 0.37788 0.0
O84 O 0.68725 0.38012 0.68426 0.0
Cd85 Cd 0.69693 0.41515 0.71801 0.0
Cd86 Cd 0.72839 0.43393 0.65924 0.0
O87 O 0.70895 0.39162 0.64157 0.0
O88 O 0.68425 0.39848 0.75556 0.0
O89 O 0.65598 0.42418 0.72582 0.0
C90 C 0.65747 0.4058 0.74689 0.0
C91 C 0.69573 0.46555 0.64836 0.0
C92 C 0.69156 0.37352 0.65634 0.0
C93 C 0.76194 0.43915 0.71791 0.0
O94 O 0.76908 0.4403 0.69036 0.0
O95 O 0.73676 0.44774 0.72304 0.0
O96 O 0.71778 0.46276 0.63101 0.0
O97 O 0.69419 0.45228 0.67349 0.0
O98 O 1.05239 0.20191 0.9287 0.0
Cd99 Cd 1.05297 0.23319 0.89864 0.0
Cd100 Cd 1.026 0.26196 0.94095 0.0
O101 O 1.04796 0.23495 0.96634 0.0
O102 O 0.09 0.23645 0.8753 0.0
O103 O 0.08507 0.26892 0.91427 0.0
C104 C 0.1011 0.26076 0.89309 0.0
C105 C 1.04039 0.30979 0.96204 0.0
C106 C 0.05528 0.21078 0.95743 0.0
C107 C 0.98942 0.2454 0.87951 0.0
O108 O 0.98703 0.24972 0.90838 0.0
O109 O 1.01467 0.23963 0.87055 0.0
O110 O 1.01912 0.2914 0.97343 0.0
O111 O 1.0514 0.30155 0.93714 0.0
O112 O 0.58868 0.1379 0.29658 0.0
Cd113 Cd 0.57155 0.15094 0.33679 0.0
Cd114 Cd 0.62655 0.1355 0.34898 0.0
O115 O 0.63968 0.15196 0.3097 0.0
O116 O 0.55059 0.1864 0.33633 0.0
O117 O 0.52711 0.14083 0.31763 0.0
C118 C 0.52584 0.16822 0.32226 0.0
C119 C 0.64812 0.14463 0.39873 0.0
C120 C 0.61664 0.14006 0.28941 0.0
C121 C 0.56968 0.09523 0.35682 0.0
O122 O 0.59354 0.09648 0.34208 0.0
O123 O 0.56325 0.11928 0.36776 0.0
O124 O 0.66072 0.12945 0.37901 0.0
O125 O 0.62667 0.15883 0.38845 0.0
O126 O 0.38717 0.21461 0.60524 0.0
Cd127 Cd 0.38668 0.17778 0.57165 0.0
Cd128 Cd 0.35049 0.22517 0.53096 0.0
O129 O 0.36227 0.24606 0.57999 0.0
O130 O 0.41687 0.14969 0.58951 0.0
O131 O 0.42843 0.17449 0.55034 0.0
C132 C 0.43686 0.15661 0.56972 0.0
C133 C 0.35638 0.24896 0.4797 0.0
C134 C 0.37545 0.23827 0.60565 0.0
C135 C 0.31135 0.16208 0.54507 0.0
O136 O 0.3137 0.18631 0.53166 0.0
O137 O 0.33632 0.15509 0.55954 0.0
O138 O 0.33377 0.25129 0.49644 0.0
O139 O 0.37641 0.23426 0.49182 0.0
O140 O 0.27595 0.13338 0.84381 0.0
Cd141 Cd 0.29759 0.13114 0.8876 0.0
Cd142 Cd 0.25257 0.15037 0.90711 0.0
O143 O 0.23168 0.13521 0.86359 0.0
O144 O 0.32645 0.10457 0.87978 0.0
O145 O 0.28249 0.09176 0.90233 0.0
C146 C 0.30601 0.08441 0.88991 0.0
C147 C 0.22455 0.12896 0.94331 0.0
C148 C 0.24616 0.13121 0.84029 0.0
C149 C 0.31385 0.19206 0.91333 0.0
O150 O 0.28406 0.18986 0.91216 0.0
O151 O 0.32507 0.16866 0.91138 0.0
O152 O 0.21659 0.15128 0.93047 0.0
O153 O 0.25075 0.12123 0.93792 0.0
O154 O 0.37276 0.91576 0.1142 0.0
Cd155 Cd 0.36763 0.9451 0.0816 0.0
Cd156 Cd 0.38816 0.89354 0.04763 0.0
O157 O 0.37898 0.87367 0.0903 0.0
O158 O 0.36303 0.97908 0.11107 0.0
O159 O 0.32532 0.95723 0.07398 0.0
C160 C 0.33492 0.97722 0.09725 0.0
C161 C 0.37064 0.87427 0.99371 0.0
C162 C 0.37563 0.88897 0.11532 0.0
C163 C 0.42991 0.95586 0.05604 0.0
O164 O 0.42848 0.92793 0.05271 0.0
O165 O 0.40616 0.96633 0.06259 0.0
O166 O 0.39369 0.86611 1.00996 0.0
O167 O 0.35568 0.89151 1.0085 0.0
O168 O 0.34032 0.44338 0.11882 0.0
Cd169 Cd 0.34052 0.48044 0.08881 0.0
Cd170 Cd 0.3674 0.42386 0.04633 0.0
O171 O 0.35448 0.40583 0.09139 0.0
O172 O 0.31534 0.5121 0.10764 0.0
O173 O 0.29646 0.48619 0.06392 0.0
C174 C 0.29243 0.50607 0.08497 0.0
C175 C 0.36157 0.39859 0.99117 0.0
C176 C 0.34611 0.41674 0.1172 0.0
C177 C 0.4114 0.48965 0.06515 0.0
O178 O 0.40494 0.46231 0.05379 0.0
O179 O 0.38966 0.50076 0.07779 0.0
O180 O 0.38147 0.39362 1.01359 0.0
O181 O 0.34335 0.41599 0.99994 0.0
O182 O 0.8501 0.2468 0.09315 0.0
Cd183 Cd 0.83975 0.22454 0.04863 0.0
Cd184 Cd 0.80866 0.26742 0.03752 0.0
O185 O 0.83117 0.28646 0.083 0.0
O186 O 0.86318 0.19183 0.05097 0.0
O187 O 0.8727 0.22634 1.01843 0.0
C188 C 0.87817 0.20212 0.02877 0.0
C189 C 0.81796 0.28264 0.98691 0.0
C190 C 0.84523 0.27216 0.10245 0.0
C191 C 0.76887 0.20693 0.03566 0.0
O192 O 0.76815 0.23445 0.03814 0.0
O193 O 0.79518 0.19872 0.03655 0.0
O194 O 0.80096 0.29535 1.00435 0.0
O195 O 0.83129 0.26265 0.99895 0.0
O196 O 0.10106 0.46311 0.22548 0.0
Cd197 Cd 0.13974 0.49414 0.24773 0.0
Cd198 Cd 0.07384 0.51809 0.25186 0.0
O199 O 0.05733 0.47677 0.22846 0.0
O200 O 0.18023 0.48373 0.23966 0.0
O201 O 0.16302 0.48409 0.2862 0.0
C202 C 0.18537 0.48146 0.2692 0.0
C203 C 0.0808 0.53248 0.30158 0.0
C204 C 0.07894 0.47365 0.2119 0.0
C205 C 0.13131 0.56002 0.24076 0.0
O206 O 0.1011 0.55481 0.23623 0.0
O207 O 0.14638 0.53953 0.24617 0.0
O208 O 0.05354 0.53207 0.28578 0.0
O209 O 0.09952 0.51649 0.29088 0.0
O210 O 0.83818 0.94666 0.62445 0.0
Cd211 Cd 0.83832 0.98106 0.59153 0.0
Cd212 Cd 0.8647 0.92534 0.55339 0.0
O213 O 0.85161 0.90796 0.59872 0.0
O214 O 0.8115 1.01257 0.60633 0.0
O215 O 0.79453 0.9827 0.56451 0.0
C216 C 0.78918 1.00371 0.58341 0.0
C217 C 0.85765 0.89997 0.49879 0.0
C218 C 0.84336 0.9199 0.62404 0.0
C219 C 0.90828 0.99103 0.56736 0.0
O220 O 0.90268 0.96322 0.55814 0.0
O221 O 0.88638 1.00214 0.5795 0.0
O222 O 0.878 0.89499 0.52078 0.0
O223 O 0.83936 0.91716 0.50792 0.0
O224 O 0.95116 0.04188 0.15434 0.0
Cd225 Cd 0.91454 1.02911 0.18043 0.0
Cd226 Cd 0.95753 1.01024 0.21714 0.0
O227 O 0.98386 0.04134 0.19654 0.0
O228 O 0.88844 0.06008 0.1844 0.0
O229 O 0.92642 0.05439 0.22034 0.0
C230 C 0.90549 0.06909 0.21094 0.0
C231 C 0.97762 1.01696 0.26782 0.0
C232 C 0.9785 0.04967 0.16989 0.0
C233 C 0.90814 0.96503 0.1906 0.0
O234 O 0.93803 0.9711 0.193 0.0
O235 O 0.89307 0.98591 0.1874 0.0
O236 O 0.99078 1.00309 0.24766 0.0
O237 O 0.94976 1.02219 0.26022 0.0
O238 O 0.33809 0.74421 0.58947 0.0
Cd239 Cd 0.33015 0.72136 0.54531 0.0
Cd240 Cd 0.3007 0.76564 0.53224 0.0
O241 O 0.32137 0.78463 0.57788 0.0
O242 O 0.35115 0.68788 0.55357 0.0
O243 O 0.36573 0.71845 0.51862 0.0
C244 C 0.36891 0.69513 0.53229 0.0
C245 C 0.31259 0.78252 0.48289 0.0
C246 C 0.33346 0.7698 0.59811 0.0
C247 C 0.25953 0.70526 0.53046 0.0
O248 O 0.25964 0.73295 0.53237 0.0
O249 O 0.28543 0.69627 0.5319 0.0
O250 O 0.29418 0.79424 0.49949 0.0
O251 O 0.3255 0.76226 0.49499 0.0
O252 O 0.44912 0.54306 0.65334 0.0
Cd253 Cd 0.41383 0.53466 0.6828 0.0
Cd254 Cd 0.46053 0.5277 0.721 0.0
O255 O 0.4833 0.55668 0.69553 0.0
O256 O 0.38405 0.56304 0.68309 0.0
O257 O 0.42423 0.56502 0.71955 0.0
C258 C 0.40056 0.57588 0.70877 0.0
C259 C 0.48307 0.5346 0.7715 0.0
C260 C 0.47676 0.55525 0.66641 0.0
C261 C 0.41652 0.47515 0.70118 0.0
O262 O 0.44583 0.48551 0.70277 0.0
O263 O 0.39709 0.49212 0.6958 0.0
O264 O 0.49627 0.5229 0.74991 0.0
O265 O 0.45575 0.54124 0.76467 0.0
O266 O 0.5914 0.95823 0.71959 0.0
Cd267 Cd 0.62514 0.98593 0.75183 0.0
Cd268 Cd 0.56813 1.02365 0.74441 0.0
O269 O 0.55331 0.9799 0.72745 0.0
O270 O 0.66623 0.97409 0.75099 0.0
O271 O 0.64015 0.97303 0.7927 0.0
C272 C 0.66554 0.97081 0.7802 0.0
C273 C 0.5735 0.04097 0.79444 0.0
C274 C 0.57147 0.97262 0.70854 0.0
C275 C 0.63175 0.05425 0.73965 0.0
O276 O 0.60325 0.05415 0.72881 0.0
O277 O 0.63939 0.03087 0.74894 0.0
O278 O 0.54946 0.04489 0.77595 0.0
O279 O 0.5896 1.02173 0.78592 0.0
O280 O 0.88671 0.7177 0.11474 0.0
Cd281 Cd 0.88985 0.68221 0.08079 0.0
Cd282 Cd 0.85226 0.73025 0.03984 0.0
O283 O 0.86499 0.75086 0.08891 0.0
O284 O 0.91983 0.6537 0.09876 0.0
O285 O 0.93357 0.68081 0.06191 0.0
C286 C 0.94108 0.66192 0.08052 0.0
C287 C 0.85573 0.755 0.98872 0.0
C288 C 0.87582 0.74186 0.11492 0.0
C289 C 0.81464 0.66601 0.05376 0.0
O290 O 0.81616 0.69085 0.04144 0.0
O291 O 0.84013 0.65887 0.06698 0.0
O292 O 0.8366 0.76002 1.00858 0.0
O293 O 0.87354 0.73689 0.99751 0.0
O294 O 0.07066 0.6625 0.79786 0.0
Cd295 Cd 1.04992 0.65028 0.83703 0.0
Cd296 Cd 0.1208 0.6348 0.84892 0.0
O297 O 0.11868 0.66397 0.8165 0.0
O298 O 1.00519 0.63936 0.81838 0.0
O299 O 1.02383 0.67866 0.85232 0.0
C300 C 1.00071 0.66282 0.83337 0.0
C301 C 0.12842 0.64818 0.90157 0.0
C302 C 0.0962 0.65399 0.79494 0.0
C303 C 0.06415 0.58879 0.84857 0.0
O304 O 0.09171 0.59344 0.83981 0.0
O305 O 1.05073 0.61022 0.85568 0.0
O306 O 0.15113 0.64035 0.88798 0.0
O307 O 0.10367 0.65206 0.8845 0.0
O308 O 0.87438 0.41083 0.61891 0.0
Cd309 Cd 0.86647 0.4392 0.58573 0.0
Cd310 Cd 0.89236 0.39264 0.552 0.0
O311 O 0.88399 0.37093 0.5933 0.0
O312 O 0.8601 0.47248 0.61482 0.0
O313 O 0.8233 0.44996 0.57731 0.0
C314 C 0.83237 0.47048 0.60012 0.0
C315 C 0.87394 0.3741 0.49848 0.0
C316 C 0.87975 0.38473 0.61881 0.0
C317 C 0.92907 0.45567 0.56032 0.0
O318 O 0.9312 0.42848 0.55746 0.0
O319 O 0.9037 0.46313 0.56684 0.0
O320 O 0.89672 0.36512 0.51427 0.0
O321 O 0.86006 0.39209 0.5136 0.0
O322 O 0.7722 0.64302 0.35365 0.0
Cd323 Cd 0.8029 0.63764 0.39053 0.0
Cd324 Cd 0.75466 0.63468 0.41667 0.0
O325 O 0.73844 0.61104 0.3742 0.0
O326 O 0.83496 0.62164 0.37044 0.0
O327 O 0.80006 0.59554 0.39745 0.0
C328 C 0.82112 0.59626 0.3782 0.0
C329 C 0.72506 0.61644 0.45404 0.0
C330 C 0.74739 0.62288 0.35037 0.0
C331 C 0.80193 0.69087 0.42003 0.0
O332 O 0.77246 0.67955 0.41677 0.0
O333 O 0.82125 0.67347 0.4212 0.0
O334 O 0.71455 0.63249 0.43396 0.0
O335 O 0.75394 0.61275 0.45465 0.0
Tb336 Tb 0.07708 0.08179 0.05677 0.0
Eu337 Eu 0.14851 0.11429 0.09662 0.0
C338 C 0.14278 0.08121 0.02868 0.0
C339 C 0.11826 0.04525 0.09319 0.0
C340 C 1.00086 0.0841 1.02019 0.0
C341 C 0.96227 0.10186 0.98546 0.0
C342 C 0.98068 0.0806 0.99205 0.0
C343 C 1.00299 0.10933 0.04096 0.0
C344 C 0.98519 0.13051 0.03436 0.0
C345 C 0.96459 0.12709 1.00664 0.0
C346 C 1.02304 0.06427 0.02695 0.0
O347 O 0.07162 0.11607 0.09137 0.0
O348 O 0.11066 0.11228 0.12854 0.0
O349 O 0.13608 0.14611 0.06214 0.0
O350 O 0.08224 0.12906 0.05767 0.0
C351 C 0.08193 0.1163 0.12068 0.0
O352 O 0.17829 0.11733 0.14112 0.0
O353 O 0.19613 0.14231 0.10404 0.0
O354 O 0.15947 0.08685 0.05622 0.0
O355 O 0.11222 0.08123 0.02427 0.0
O356 O 0.0895 0.04988 0.08733 0.0
O357 O 0.14371 0.06525 0.09128 0.0
C358 C 0.10703 0.14734 0.05088 0.0
O359 O 1.0488 0.0701 1.01351 0.0
O360 O 1.0294 0.06045 0.05641 0.0
C361 C 0.2287 0.11304 0.1292 0.0
C362 C 0.26358 0.06739 0.12657 0.0
C363 C 0.25964 0.0811 0.15556 0.0
C364 C 0.24206 0.1037 0.15686 0.0
C365 C 0.2346 0.10045 0.10046 0.0
C366 C 0.25197 0.07812 0.09932 0.0
C367 C 0.20347 0.13049 0.12969 0.0
H368 H 0.94622 0.09861 0.96401 0.0
H369 H 0.97928 0.06165 0.97526 0.0
H370 H 1.01863 0.11279 0.06243 0.0
H371 H 0.98688 0.14922 0.05153 0.0
H372 H 0.2689 0.07348 0.177 0.0
H373 H 0.2375 0.11277 0.17932 0.0
H374 H 0.22453 0.10678 0.07865 0.0
H375 H 0.25589 0.06853 0.07703 0.0
Tb376 Tb 0.36645 0.86417 0.31523 0.0
Eu377 Eu 0.31743 0.80521 0.28073 0.0
C378 C 0.29985 0.86642 0.29169 0.0
C379 C 0.33001 0.8179 0.35669 0.0
C380 C 0.42161 0.93973 0.33801 0.0
C381 C 0.43983 0.99285 0.3503 0.0
C382 C 0.41645 0.96731 0.34972 0.0
C383 C 0.44989 0.93812 0.32544 0.0
C384 C 0.47331 0.96381 0.32585 0.0
C385 C 0.46865 0.99118 0.33896 0.0
C386 C 0.39785 0.91319 0.34152 0.0
O387 O 0.39581 0.83285 0.30316 0.0
O388 O 0.35902 0.78984 0.30358 0.0
O389 O 0.34785 0.82104 0.24325 0.0
O390 O 0.36706 0.8691 0.26487 0.0
C391 C 0.38851 0.80407 0.30539 0.0
O392 O 0.30522 0.76162 0.25428 0.0
O393 O 0.26799 0.78489 0.26582 0.0
O394 O 0.30156 0.84686 0.26911 0.0
O395 O 0.3175 0.86675 0.31786 0.0
O396 O 0.3557 0.83784 0.35423 0.0
O397 O 0.30957 0.80586 0.33215 0.0
C398 C 0.36183 0.84864 0.24072 0.0
O399 O 0.37051 0.91005 0.32461 0.0
O400 O 0.40701 0.88801 0.34378 0.0
C401 C 0.25391 0.73255 0.25829 0.0
C402 C 0.2125 0.67748 0.25918 0.0
C403 C 0.24498 0.68119 0.27018 0.0
C404 C 0.26563 0.70854 0.2696 0.0
C405 C 0.22137 0.72926 0.24909 0.0
C406 C 0.20091 0.70198 0.24911 0.0
C407 C 0.27472 0.76059 0.25331 0.0
H408 H 0.43571 1.01381 0.36025 0.0
H409 H 0.39466 0.96895 0.35937 0.0
H410 H 0.45425 0.91703 0.31618 0.0
H411 H 0.4955 0.96212 0.31709 0.0
H412 H 0.25453 0.66275 0.27844 0.0
H413 H 0.29069 0.71064 0.27721 0.0
H414 H 0.21194 0.74773 0.24092 0.0
H415 H 0.17627 0.69983 0.23983 0.0
Tb416 Tb 0.59597 0.05576 0.55538 0.0
Eu417 Eu 0.63514 0.11388 0.59144 0.0
C418 C 0.60955 0.06011 0.62592 0.0
C419 C 0.55991 0.11074 0.57232 0.0
C420 C 0.56489 0.98026 0.518 0.0
C421 C 0.55378 0.92717 0.51954 0.0
C422 C 0.55141 0.95512 0.53184 0.0
C423 C 0.58226 0.97733 0.49269 0.0
C424 C 0.58424 0.94926 0.48009 0.0
C425 C 0.56937 0.92414 0.49308 0.0
C426 C 0.56002 1.00912 0.53003 0.0
O427 O 0.6199 0.0777 0.51961 0.0
O428 O 0.62758 0.1249 0.54244 0.0
O429 O 0.67151 0.0828 0.58827 0.0
O430 O 0.64321 0.0429 0.55587 0.0
C431 C 0.62748 0.10633 0.51833 0.0
O432 O 0.67657 0.14957 0.59412 0.0
O433 O 0.64832 0.14505 0.6329 0.0
O434 O 0.60955 0.08829 0.62639 0.0
O435 O 0.61298 0.04514 0.60047 0.0
O436 O 0.55889 0.08197 0.56608 0.0
O437 O 0.58782 0.12876 0.57982 0.0
C438 C 0.67043 0.05687 0.5722 0.0
O439 O 0.56647 1.01514 0.56011 0.0
O440 O 0.57046 0.03169 0.51484 0.0
C441 C 0.66604 0.19277 0.61946 0.0
C442 C 0.65552 0.25058 0.62015 0.0
C443 C 0.65502 0.23402 0.59161 0.0
C444 C 0.65999 0.20507 0.59122 0.0
C445 C 0.66571 0.20909 0.64781 0.0
C446 C 0.66037 0.23777 0.64819 0.0
C447 C 0.66993 0.16214 0.61992 0.0
H448 H 0.54177 0.90784 0.52949 0.0
H449 H 0.53816 0.95704 0.55153 0.0
H450 H 0.59337 0.99653 0.48198 0.0
H451 H 0.59623 0.94706 0.45956 0.0
H452 H 0.65164 0.24375 0.56981 0.0
H453 H 0.65938 0.19251 0.56894 0.0
H454 H 0.66981 0.19969 0.6697 0.0
H455 H 0.66164 0.25046 0.67051 0.0
Tb456 Tb 0.33058 0.32363 0.78667 0.0
Eu457 Eu 0.40202 0.31896 0.80579 0.0
C458 C 0.38414 0.37039 0.7655 0.0
C459 C 0.36888 0.29493 0.73505 0.0
C460 C 0.2501 0.32178 0.79815 0.0
C461 C 0.2153 0.34291 0.8295 0.0
C462 C 0.23525 0.34524 0.80613 0.0
C463 C 0.24538 0.2963 0.8143 0.0
C464 C 0.22543 0.29391 0.83734 0.0
C465 C 0.21004 0.31706 0.84502 0.0
C466 C 0.2734 0.32525 0.77586 0.0
O467 O 0.32903 0.29493 0.82378 0.0
O468 O 0.37135 0.27602 0.81331 0.0
O469 O 0.38696 0.33429 0.85257 0.0
O470 O 0.34376 0.35181 0.83307 0.0
C471 C 0.34711 0.27589 0.82867 0.0
O472 O 0.43625 0.29023 0.80733 0.0
O473 O 0.44995 0.33568 0.82872 0.0
O474 O 0.40493 0.36352 0.78659 0.0
O475 O 0.35527 0.35512 0.75956 0.0
O476 O 0.34131 0.29524 0.74605 0.0
O477 O 0.3955 0.30661 0.7531 0.0
C478 C 0.3645 0.34921 0.8573 0.0
O479 O 0.29562 0.34922 0.78178 0.0
O480 O 0.28468 0.30162 0.76871 0.0
C481 C 0.48676 0.31631 0.80279 0.0
C482 C 0.54071 0.33522 0.77408 0.0
C483 C 0.54336 0.32378 0.80318 0.0
C484 C 0.5164 0.31437 0.81752 0.0
C485 C 0.48372 0.32561 0.77272 0.0
C486 C 0.51069 0.3351 0.75837 0.0
C487 C 0.45948 0.31155 0.81985 0.0
H488 H 0.2033 0.36086 0.83487 0.0
H489 H 0.23916 0.36533 0.79437 0.0
H490 H 0.25695 0.278 0.80917 0.0
H491 H 0.22095 0.27328 0.84808 0.0
H492 H 0.56639 0.32413 0.81586 0.0
H493 H 0.51886 0.30718 0.84073 0.0
H494 H 0.46071 0.32706 0.76115 0.0
H495 H 0.50828 0.34381 0.73589 0.0
Tb496 Tb 0.10453 0.07061 0.51978 0.0
Eu497 Eu 0.10818 0.09951 0.58463 0.0
C498 C 0.17472 0.10348 0.55243 0.0
C499 C 0.11399 1.02685 0.5749 0.0
C500 C 0.09017 0.06111 0.43444 0.0
C501 C 0.08466 0.05199 0.37861 0.0
C502 C 0.09935 0.04821 0.40766 0.0
C503 C 0.06933 0.08095 0.43199 0.0
C504 C 0.05422 0.08434 0.40297 0.0
C505 C 0.06051 0.06843 0.3764 0.0
C506 C 0.09706 0.04926 0.46397 0.0
O507 O 0.05831 0.04957 0.53499 0.0
O508 O 0.05396 0.0853 0.57136 0.0
O509 O 0.10444 0.14149 0.55778 0.0
O510 O 0.0984 0.11769 0.5092 0.0
C511 C 1.04061 0.06061 0.5539 0.0
O512 O 0.08996 0.09641 0.62945 0.0
O513 O 0.12601 0.13428 0.62254 0.0
O514 O 0.16139 0.10959 0.57757 0.0
O515 O 0.15678 0.08737 0.52827 0.0
O516 O 0.11158 0.03035 0.54458 0.0
O517 O 0.11509 0.05096 0.59435 0.0
C518 C 0.1011 0.1433 0.52719 0.0
O519 O 0.12489 0.05944 0.47951 0.0
O520 O 0.07444 0.04755 0.48164 0.0
C521 C 0.13104 0.11251 0.66971 0.0
C522 C 0.16825 0.10151 0.72242 0.0
C523 C 0.13501 0.09454 0.72062 0.0
C524 C 0.1165 0.10026 0.69447 0.0
C525 C 0.16417 0.11689 0.67033 0.0
C526 C 0.18268 0.11158 0.69665 0.0
C527 C 0.11134 0.11892 0.64266 0.0
H528 H 0.08963 0.03935 0.35828 0.0
H529 H 0.11553 0.03301 0.4093 0.0
H530 H 0.06229 0.0914 0.4526 0.0
H531 H 1.03569 0.09713 0.40156 0.0
H532 H 0.12349 0.08659 0.74031 0.0
H533 H 0.09091 0.09587 0.69391 0.0
H534 H 0.17591 0.12541 0.65101 0.0
H535 H 0.20828 0.11744 0.69768 0.0
Tb536 Tb 0.33597 0.79915 0.80061 0.0
Eu537 Eu 0.35521 0.86606 0.78645 0.0
C538 C 0.34437 0.84841 0.85622 0.0
C539 C 0.28057 0.83392 0.77721 0.0
C540 C 0.34217 0.72182 0.80298 0.0
C541 C 0.34479 0.66976 0.79824 0.0
C542 C 0.33132 0.69277 0.8101 0.0
C543 C 0.36793 0.72801 0.7856 0.0
C544 C 0.38129 0.70501 0.77365 0.0
C545 C 0.36918 0.6757 0.77923 0.0
C546 C 0.32528 0.74531 0.81143 0.0
O547 O 0.35294 0.79523 0.75452 0.0
O548 O 0.34849 0.84046 0.73915 0.0
O549 O 0.40367 0.85344 0.79331 0.0
O550 O 0.38792 0.81172 0.81766 0.0
C551 C 0.3507 0.81294 0.73225 0.0
O552 O 0.3489 0.89981 0.75504 0.0
O553 O 0.38066 0.91183 0.79786 0.0
O554 O 0.36086 0.86667 0.8393 0.0
O555 O 0.32573 0.82376 0.84268 0.0
O556 O 0.28999 0.80824 0.77815 0.0
O557 O 0.3014 0.85852 0.78714 0.0
C558 C 0.41085 0.83302 0.81097 0.0
O559 O 0.34135 0.76677 0.83131 0.0
O560 O 0.31084 0.75543 0.78799 0.0
C561 C 0.34548 0.94223 0.78533 0.0
C562 C 0.31631 0.98337 0.81457 0.0
C563 C 0.33675 0.99213 0.79229 0.0
C564 C 0.35136 0.97147 0.77756 0.0
C565 C 0.32287 0.93312 0.80552 0.0
C566 C 0.30812 0.95359 0.81993 0.0
C567 C 0.36435 0.92134 0.77518 0.0
H568 H 0.33507 0.64714 0.80247 0.0
H569 H 0.31159 0.68771 0.82361 0.0
H570 H 0.37674 0.75041 0.7801 0.0
H571 H 0.39984 0.70987 0.7587 0.0
H572 H 0.34343 1.01532 0.78835 0.0
H573 H 0.36863 0.97864 0.76187 0.0
H574 H 0.31842 0.91066 0.81201 0.0
H575 H 0.29282 0.94674 0.83746 0.0
Tb576 Tb 0.61955 0.07024 0.08625 0.0
Eu577 Eu 0.59287 0.08419 1.02154 0.0
C578 C 0.61155 1.01692 0.02799 0.0
C579 C 0.66433 0.10929 0.04524 0.0
C580 C 0.63183 0.03326 0.15766 0.0
C581 C 0.64426 1.02849 0.21205 0.0
C582 C 0.65406 0.03084 0.18258 0.0
C583 C 0.59938 1.0235 0.16025 0.0
C584 C 0.58972 1.02136 0.18989 0.0
C585 C 0.6128 0.03056 0.21587 0.0
C586 C 0.64118 0.05714 0.138 0.0
O587 O 0.60413 0.11421 0.0989 0.0
O588 O 0.60177 0.13043 0.05087 0.0
O589 O 0.54867 0.0636 0.04101 0.0
O590 O 0.57236 0.04219 0.08002 0.0
C591 C 0.60232 0.13668 0.08129 0.0
O592 O 0.56897 0.11449 0.99645 0.0
O593 O 0.58145 0.07684 0.97132 0.0
O594 O 0.59677 0.03419 1.01081 0.0
O595 O 0.62453 1.02843 0.05675 0.0
O596 O 0.65694 0.1042 0.07309 0.0
O597 O 0.64549 0.09631 1.0206 0.0
C598 C 0.54715 0.04412 0.06147 0.0
O599 O 0.65274 0.05077 0.11234 0.0
O600 O 0.62108 0.07468 0.13438 0.0
C601 C 0.58822 0.12132 0.94849 0.0
C602 C 0.61435 0.12966 0.89372 0.0
C603 C 0.58356 0.13477 0.89611 0.0
C604 C 0.57008 0.12948 0.92339 0.0
C605 C 0.6213 0.1253 0.94886 0.0
C606 C 0.63464 0.13018 0.92129 0.0
C607 C 0.57215 0.10197 0.96945 0.0
H608 H 0.66269 0.03281 0.23166 0.0
H609 H 0.67924 0.0367 0.18072 0.0
H610 H 0.58165 1.02398 0.14086 0.0
H611 H 0.56486 1.0204 0.19225 0.0
H612 H 0.56766 0.13631 0.87554 0.0
H613 H 0.54472 0.12766 0.92327 0.0
H614 H 0.63592 0.12032 0.96877 0.0
H615 H 0.65905 0.12813 0.92037 0.0
Tb616 Tb 0.366 0.3522 0.31231 0.0
Eu617 Eu 0.33754 0.29144 0.27479 0.0
C618 C 0.36111 0.29758 0.35239 0.0
C619 C 0.41571 0.32043 0.27885 0.0
C620 C 0.3509 0.42153 0.3333 0.0
C621 C 0.327 0.46436 0.34259 0.0
C622 C 0.35207 0.44948 0.34908 0.0
C623 C 0.32446 0.40849 0.31181 0.0
C624 C 0.29979 0.42294 0.30561 0.0
C625 C 0.30101 0.45106 0.32048 0.0
C626 C 0.37555 0.40412 0.33856 0.0
O627 O 0.35551 0.36512 0.26327 0.0
O628 O 0.331 0.3215 0.23514 0.0
O629 O 0.29082 0.30177 0.2876 0.0
O630 O 0.31536 0.33933 0.32435 0.0
C631 C 0.34256 0.35035 0.23595 0.0
O632 O 0.33663 0.25924 0.23469 0.0
O633 O 0.31427 0.24471 0.27436 0.0
O634 O 0.3422 0.28332 0.32764 0.0
O635 O 0.37872 0.32373 0.34902 0.0
O636 O 0.41221 0.34205 0.29944 0.0
O637 O 0.39062 0.29975 0.26787 0.0
C638 C 0.28919 0.31984 0.31214 0.0
O639 O 0.36677 0.3807 0.35284 0.0
O640 O 0.38805 0.39733 0.31368 0.0
C641 C 0.35437 0.22167 0.25938 0.0
C642 C 0.41126 0.20236 0.27311 0.0
C643 C 0.38958 0.18858 0.24725 0.0
C644 C 0.36123 0.19857 0.24009 0.0
C645 C 0.37589 0.23437 0.28562 0.0
C646 C 0.40394 0.22494 0.29237 0.0
C647 C 0.32854 0.23704 0.25099 0.0
H648 H 0.32811 0.48619 0.35422 0.0
H649 H 0.37217 0.45973 0.36598 0.0
H650 H 0.32283 0.38697 0.29947 0.0
H651 H 0.27986 0.41232 0.2886 0.0
H652 H 0.39498 0.17079 0.23235 0.0
H653 H 0.34529 0.18893 0.21937 0.0
H654 H 0.3718 0.25267 0.30042 0.0
H655 H 0.42011 0.23551 0.31266 0.0
Tb656 Tb 0.61254 0.56573 0.02734 0.0
Eu657 Eu 0.61466 0.59206 0.09282 0.0
C658 C 0.68089 0.60009 0.06185 0.0
C659 C 0.62179 0.52043 0.08084 0.0
C660 C 0.59519 0.55737 0.94341 0.0
C661 C 0.59516 0.56166 0.8884 0.0
C662 C 0.61041 0.55627 0.91661 0.0
C663 C 0.56649 0.5674 0.94265 0.0
C664 C 0.55084 0.57191 0.91439 0.0
C665 C 0.56423 0.56722 0.88686 0.0
C666 C 0.60772 0.54577 0.97133 0.0
O667 O 0.56457 0.54596 0.03974 0.0
O668 O 0.56058 0.58111 0.07685 0.0
O669 O 0.61901 0.63505 0.06621 0.0
O670 O 0.60258 0.61167 1.01781 0.0
C671 C 0.54677 0.55712 0.05845 0.0
O672 O 0.59361 0.58972 0.13627 0.0
O673 O 0.63244 0.62581 0.13173 0.0
O674 O 0.66841 0.59762 0.08837 0.0
O675 O 0.66225 0.59082 0.03561 0.0
O676 O 0.62589 0.52723 0.05194 0.0
O677 O 0.61645 0.54207 0.10043 0.0
C678 C 0.61156 0.63734 0.0361 0.0
O679 O 0.63393 0.56135 0.98621 0.0
O680 O 0.58698 0.53697 0.98999 0.0
C681 C 0.63131 0.60553 0.17922 0.0
C682 C 0.66713 0.59754 0.23392 0.0
C683 C 0.64093 0.61117 0.23531 0.0
C684 C 0.62309 0.61523 0.20795 0.0
C685 C 0.65611 0.59007 0.17783 0.0
C686 C 0.67405 0.58615 0.20515 0.0
C687 C 0.61456 0.61194 0.15059 0.0
H688 H 0.60611 0.55856 0.86736 0.0
H689 H 0.633 0.54938 0.91712 0.0
H690 H 0.55485 0.56938 0.96345 0.0
H691 H 0.527 0.57602 0.9139 0.0
H692 H 0.63543 0.62019 0.25741 0.0
H693 H 0.60367 0.62681 0.20916 0.0
H694 H 0.66224 0.58203 0.1556 0.0
H695 H 0.6941 0.57542 0.2038 0.0
Tb696 Tb 0.84921 0.29291 0.3045 0.0
Eu697 Eu 0.87047 0.36116 0.29607 0.0
C698 C 0.85168 0.34201 0.36198 0.0
C699 C 0.79479 0.32958 0.27884 0.0
C700 C 0.85342 0.21599 0.3049 0.0
C701 C 0.86041 0.16523 0.30364 0.0
C702 C 0.84543 0.18751 0.31454 0.0
C703 C 0.87793 0.22263 0.2861 0.0
C704 C 0.8926 0.20038 0.27498 0.0
C705 C 0.88322 0.17144 0.28299 0.0
C706 C 0.8357 0.23874 0.31306 0.0
O707 O 0.8598 0.28999 0.25612 0.0
O708 O 0.87402 0.33912 0.24837 0.0
O709 O 0.91557 0.34918 0.32082 0.0
O710 O 0.90228 0.29875 0.31209 0.0
C711 C 0.8673 0.31098 0.23768 0.0
O712 O 0.86973 0.39781 0.26723 0.0
O713 O 0.89922 0.405 0.31166 0.0
O714 O 0.8505 0.36237 0.34249 0.0
O715 O 0.8539 0.31509 0.35179 0.0
O716 O 0.80188 0.305 0.28959 0.0
O717 O 0.8173 0.35356 0.28044 0.0
C718 C 0.92348 0.32311 0.32313 0.0
O719 O 0.85057 0.25928 0.33447 0.0
O720 O 0.82306 0.25001 0.28944 0.0
C721 C 0.86951 0.44093 0.29862 0.0
C722 C 0.83934 0.48671 0.31671 0.0
C723 C 0.84415 0.48147 0.28538 0.0
C724 C 0.85951 0.45885 0.27645 0.0
C725 C 0.8619 0.4444 0.32921 0.0
C726 C 0.84709 0.46722 0.3382 0.0
C727 C 0.88568 0.41726 0.28924 0.0
H728 H 0.85273 0.14279 0.30962 0.0
H729 H 0.8268 0.18222 0.3293 0.0
H730 H 0.88463 0.24467 0.27877 0.0
H731 H 0.90995 0.20536 0.2588 0.0
H732 H 0.83738 0.49568 0.26817 0.0
H733 H 0.86403 0.45566 0.25244 0.0
H734 H 0.86815 0.43005 0.3465 0.0
H735 H 0.84346 0.47063 0.36246 0.0
Tb736 Tb 0.10841 0.58058 0.59567 0.0
Eu737 Eu 0.08357 0.59332 0.52975 0.0
C738 C 0.09868 0.52564 0.53829 0.0
C739 C 0.15496 0.61209 0.55179 0.0
C740 C 0.11345 0.5469 0.66894 0.0
C741 C 0.1197 0.533 0.72145 0.0
C742 C 0.13209 0.53783 0.69328 0.0
C743 C 0.08072 0.54373 0.67038 0.0
C744 C 0.06926 0.54105 0.69908 0.0
C745 C 0.09086 0.54167 0.72596 0.0
C746 C 0.12851 0.56786 0.64841 0.0
O747 O 0.09091 0.62342 0.60682 0.0
O748 O 0.09196 0.63948 0.5589 0.0
O749 O 1.03825 0.57474 0.54852 0.0
O750 O 0.06072 0.5538 0.58885 0.0
C751 C 0.09078 0.64582 0.58892 0.0
O752 O 0.08002 0.63018 0.50197 0.0
O753 O 0.06108 0.58507 0.48165 0.0
O754 O 0.08707 0.54335 0.51917 0.0
O755 O 0.10999 0.53717 0.56748 0.0
O756 O 0.14678 0.61197 0.57998 0.0
O757 O 0.13565 0.59628 0.52899 0.0
C758 C 1.03615 0.55527 0.56911 0.0
O759 O 0.13685 0.55701 0.62271 0.0
O760 O 0.11425 0.58983 0.6439 0.0
C761 C 0.09367 0.61727 0.45363 0.0
C762 C 0.12824 0.61885 0.40329 0.0
C763 C 0.11509 0.64343 0.41194 0.0
C764 C 0.09623 0.64184 0.43628 0.0
C765 C 0.11452 0.59782 0.45054 0.0
C766 C 0.13239 0.59901 0.4258 0.0
C767 C 0.07128 0.61264 0.47646 0.0
H768 H 0.13571 0.52992 0.74131 0.0
H769 H 0.1571 0.5385 0.69213 0.0
H770 H 0.06529 0.54886 0.65111 0.0
H771 H 1.0456 0.54494 0.70036 0.0
H772 H 0.11477 0.66112 0.3969 0.0
H773 H 0.08239 0.65865 0.44031 0.0
H774 H 0.1151 0.58016 0.46562 0.0
H775 H 0.14465 0.58101 0.42177 0.0
Tb776 Tb 0.82377 0.82655 0.29442 0.0
Eu777 Eu 0.89735 0.82308 0.31204 0.0
C778 C 0.87674 0.87349 0.27079 0.0
C779 C 0.86073 0.79662 0.24263 0.0
C780 C 0.74189 0.82451 0.30416 0.0
C781 C 0.68667 0.81616 0.31198 0.0
C782 C 0.7105 0.82522 0.29341 0.0
C783 C 0.74976 0.81692 0.33431 0.0
C784 C 0.72604 0.80778 0.35275 0.0
C785 C 0.69427 0.8061 0.34111 0.0
C786 C 0.76647 0.82963 0.2837 0.0
O787 O 0.82133 0.78615 0.31801 0.0
O788 O 0.8715 0.79477 0.34367 0.0
O789 O 0.88701 0.84755 0.35676 0.0
O790 O 0.83399 0.84726 0.34399 0.0
C791 C 0.84198 0.7811 0.34035 0.0
O792 O 0.93134 0.79402 0.31394 0.0
O793 O 0.94676 0.84123 0.32904 0.0
O794 O 0.89952 0.86058 0.28156 0.0
O795 O 0.84743 0.8653 0.27606 0.0
O796 O 0.83775 0.81081 0.24847 0.0
O797 O 0.88207 0.79385 0.26564 0.0
C798 C 0.85997 0.85345 0.36459 0.0
O799 O 0.78913 0.8525 0.29322 0.0
O800 O 0.77742 0.80614 0.27543 0.0
C801 C 0.97854 0.81922 0.29906 0.0
C802 C 1.0253 0.84251 0.26336 0.0
C803 C 1.03359 0.8304 0.2911 0.0
C804 C 1.01015 0.81889 0.3091 0.0
C805 C 0.96998 0.82774 0.26941 0.0
C806 C 0.99341 0.83947 0.25156 0.0
C807 C 0.95534 0.81632 0.32107 0.0
H808 H 0.66221 0.81562 0.30303 0.0
H809 H 0.70434 0.83153 0.27033 0.0
H810 H 0.77408 0.81658 0.34293 0.0
H811 H 0.73233 0.80023 0.37521 0.0
H812 H 0.05829 0.83265 0.30032 0.0
H813 H 1.0169 0.81223 0.33188 0.0
H814 H 0.94544 0.82797 0.26146 0.0
H815 H 0.98677 0.84894 0.23031 0.0
Tb816 Tb 0.86743 0.35506 0.81561 0.0
Eu817 Eu 0.83358 0.28866 0.78149 0.0
C818 C 0.79932 0.34477 0.78374 0.0
C819 C 0.83226 0.30886 0.85697 0.0
C820 C 0.92406 0.42867 0.8323 0.0
C821 C 0.9436 0.47893 0.82024 0.0
C822 C 0.91843 0.45519 0.82119 0.0
C823 C 0.95553 0.42563 0.8405 0.0
C824 C 0.98076 0.44949 0.83961 0.0
C825 C 0.97479 0.47663 0.83058 0.0
C826 C 0.89692 0.40597 0.83836 0.0
O827 O 0.89731 0.32391 0.82757 0.0
O828 O 0.88569 0.29126 0.78406 0.0
O829 O 0.85579 0.31009 0.74187 0.0
O830 O 0.87516 0.35715 0.76627 0.0
C831 C 0.90414 0.30273 0.8094 0.0
O832 O 0.83044 0.24056 0.77654 0.0
O833 O 0.79696 0.26037 0.74859 0.0
O834 O 0.80236 0.32033 0.76813 0.0
O835 O 0.81728 0.35464 0.80994 0.0
O836 O 0.84251 0.33694 0.85307 0.0
O837 O 0.82909 0.28753 0.83396 0.0
C838 C 0.8693 0.33806 0.74105 0.0
O839 O 0.87165 0.40128 0.81803 0.0
O840 O 0.90299 0.38136 0.84804 0.0
C841 C 0.78022 0.2104 0.75756 0.0
C842 C 0.72992 0.16139 0.75484 0.0
C843 C 0.75816 0.15831 0.7429 0.0
C844 C 0.7831 0.18265 0.74423 0.0
C845 C 0.75223 0.21357 0.77002 0.0
C846 C 0.72707 0.18913 0.76852 0.0
C847 C 0.80565 0.23593 0.75557 0.0
H848 H 0.93854 0.49969 0.81302 0.0
H849 H 0.89444 0.45812 0.8147 0.0
H850 H 0.96064 0.40541 0.8491 0.0
H851 H 1.00462 0.44734 0.84793 0.0
H852 H 0.76071 0.13708 0.73214 0.0
H853 H 0.80444 0.17994 0.73427 0.0
H854 H 0.74966 0.23495 0.78035 0.0
H855 H 0.70553 0.19181 0.77808 0.0
Tb856 Tb 0.85772 0.86183 0.8222 0.0
Eu857 Eu 0.82628 0.80077 0.78697 0.0
C858 C 0.85501 0.80769 0.86344 0.0
C859 C 0.90523 0.82755 0.78896 0.0
C860 C 0.84003 0.92935 0.84152 0.0
C861 C 0.80917 0.96577 0.85615 0.0
C862 C 0.83757 0.95511 0.85964 0.0
C863 C 0.81415 0.91467 0.8201 0.0
C864 C 0.78613 0.92475 0.8171 0.0
C865 C 0.7832 0.95008 0.83524 0.0
C866 C 0.86697 0.91447 0.84587 0.0
O867 O 0.84821 0.87304 0.7723 0.0
O868 O 0.82183 0.82941 0.74569 0.0
O869 O 0.78086 0.81495 0.80101 0.0
O870 O 0.80889 0.85001 0.83829 0.0
C871 C 0.83491 0.85777 0.74537 0.0
O872 O 0.8231 0.7673 0.74749 0.0
O873 O 0.79964 0.75523 0.78728 0.0
O874 O 0.83525 0.79267 0.83962 0.0
O875 O 0.87132 0.8343 0.85941 0.0
O876 O 0.90268 0.85047 0.80829 0.0
O877 O 0.87959 0.80668 0.77968 0.0
C878 C 0.78128 0.83274 0.82651 0.0
O879 O 0.86186 0.89196 0.86224 0.0
O880 O 0.87778 0.90708 0.82018 0.0
C881 C 0.8363 0.72786 0.77222 0.0
C882 C 0.88871 0.70194 0.78672 0.0
C883 C 0.86501 0.68851 0.7623 0.0
C884 C 0.83879 0.7017 0.75481 0.0
C885 C 0.85985 0.74029 0.79685 0.0
C886 C 0.88545 0.72748 0.80422 0.0
C887 C 0.81274 0.74574 0.76383 0.0
H888 H 0.80726 0.98576 0.86993 0.0
H889 H 0.85716 0.96657 0.87653 0.0
H890 H 0.81512 0.89468 0.80604 0.0
H891 H 0.7666 0.91271 0.8004 0.0
H892 H 0.86728 0.66858 0.74864 0.0
H893 H 0.8212 0.69207 0.73527 0.0
H894 H 0.85935 0.76085 0.80986 0.0
H895 H 0.90321 0.73801 0.82335 0.0
Tb896 Tb 0.57884 0.57377 0.55692 0.0
Eu897 Eu 0.6516 0.61797 0.60157 0.0
C898 C 0.63775 0.56752 0.53543 0.0
C899 C 0.62252 0.54688 0.60719 0.0
C900 C 0.49988 0.58006 0.52787 0.0
C901 C 0.44941 0.58871 0.50488 0.0
C902 C 0.46983 0.56926 0.51128 0.0
C903 C 0.51001 0.61066 0.53646 0.0
C904 C 0.48955 0.63003 0.53044 0.0
C905 C 0.45875 0.61916 0.51518 0.0
C906 C 0.52117 0.55991 0.536 0.0
O907 O 0.58583 0.6136 0.58831 0.0
O908 O 0.61517 0.62053 0.63411 0.0
O909 O 0.63127 0.64813 0.57014 0.0
O910 O 0.59786 0.61248 0.53328 0.0
C911 C 0.58691 0.61425 0.61838 0.0
O912 O 0.69103 0.63309 0.63867 0.0
O913 O 0.6992 0.63512 0.59016 0.0
O914 O 0.64283 0.58625 0.56003 0.0
O915 O 0.60836 0.55409 0.5278 0.0
O916 O 0.59588 0.54364 0.58803 0.0
O917 O 0.6447 0.57122 0.61347 0.0
C918 C 0.61298 0.64001 0.54314 0.0
O919 O 0.54396 0.56011 0.51848 0.0
O920 O 0.53153 0.56127 0.56565 0.0
C921 C 0.7351 0.61457 0.62229 0.0
C922 C 0.76752 0.56718 0.6213 0.0
C923 C 0.75191 0.57341 0.64696 0.0
C924 C 0.73571 0.59688 0.64743 0.0
C925 C 0.75286 0.60944 0.59774 0.0
C926 C 0.76862 0.58576 0.59711 0.0
C927 C 0.71199 0.63443 0.61875 0.0
H928 H 0.42585 0.57979 0.49289 0.0
H929 H 0.46192 0.5458 0.5039 0.0
H930 H 0.53348 0.61947 0.54868 0.0
H931 H 0.4973 0.6532 0.53919 0.0
H932 H 0.75105 0.55934 0.66592 0.0
H933 H 0.72238 0.60016 0.66675 0.0
H934 H 0.753 0.62265 0.57808 0.0
H935 H 0.78087 0.58134 0.57725 0.0
Tb936 Tb 0.10028 0.56297 0.06277 0.0
Eu937 Eu 0.14124 0.61973 0.09855 0.0
C938 C 0.11607 0.56479 0.13219 0.0
C939 C 0.06449 0.61545 0.08338 0.0
C940 C 0.07214 0.48586 0.0325 0.0
C941 C 1.05332 0.43386 0.03731 0.0
C942 C 1.05028 0.46315 0.04268 0.0
C943 C 0.09849 0.47929 1.01909 0.0
C944 C 0.10126 0.44997 1.01333 0.0
C945 C 0.07806 0.42716 1.02144 0.0
C946 C 0.06696 0.51612 0.03573 0.0
O947 O 0.09992 0.59692 0.03158 0.0
O948 O 0.14943 0.62193 0.04828 0.0
O949 O 0.17675 0.58824 0.09894 0.0
O950 O 0.14985 0.55424 0.05955 0.0
C951 C 0.12522 0.61542 0.02666 0.0
O952 O 0.17266 0.66255 0.09887 0.0
O953 O 0.16124 0.64572 0.14265 0.0
O954 O 0.1152 0.5929 0.13291 0.0
O955 O 0.11904 0.55047 0.10625 0.0
O956 O 0.06353 0.5864 0.08031 0.0
O957 O 0.09277 0.63343 0.08644 0.0
C958 C 0.17629 0.56475 0.07924 0.0
O959 O 0.06374 0.52616 0.06394 0.0
O960 O 0.08519 0.53548 1.02146 0.0
C961 C 0.16403 0.69619 0.13831 0.0
C962 C 0.15013 0.75125 0.15502 0.0
C963 C 0.13458 0.73464 0.1275 0.0
C964 C 0.14125 0.70696 0.11931 0.0
C965 C 0.17824 0.71208 0.16649 0.0
C966 C 0.17117 0.73946 0.17487 0.0
C967 C 0.17339 0.6686 0.1288 0.0
H968 H 1.03497 0.41636 0.04332 0.0
H969 H 1.03017 0.46796 0.05357 0.0
H970 H 0.11619 0.49658 1.01179 0.0
H971 H 0.12036 0.44497 1.00092 0.0
H972 H 0.11861 0.7437 0.11175 0.0
H973 H 0.12963 0.69459 0.0976 0.0
H974 H 0.19571 0.70388 0.1813 0.0
H975 H 0.18394 0.75256 0.19562 0.0
C976 C 0.08763 0.21034 1.00832 0.0
C977 C 0.07055 0.19491 0.98043 0.0
C978 C 0.10248 0.19538 0.03058 0.0
C979 C 0.10041 0.16477 0.02533 0.0
H980 H 0.08922 0.234 1.01313 0.0
H981 H 0.11403 0.2074 0.05249 0.0
S982 S 0.05794 0.11456 0.95665 0.0
N983 N 1.05264 0.1478 0.94895 0.0
N984 N 0.07972 0.11969 0.99091 0.0
C985 C 0.08391 0.14948 0.99734 0.0
C986 C 0.06914 0.16455 0.97478 0.0
C987 C 0.29567 0.93614 0.2536 0.0
C988 C 0.26508 0.94036 0.25807 0.0
C989 C 0.30761 0.913 0.2663 0.0
C990 C 0.28942 0.89351 0.28398 0.0
H991 H 0.30931 0.94916 0.23795 0.0
H992 H 0.33043 0.90932 0.26079 0.0
S993 S 0.21041 0.89731 0.30691 0.0
N994 N 0.21877 0.92523 0.28538 0.0
N995 N 0.24145 0.88135 0.30849 0.0
C996 C 0.2603 0.89896 0.2912 0.0
C997 C 0.24812 0.9227 0.27858 0.0
C998 C 0.5363 0.86039 0.43296 0.0
C999 C 0.5417 0.8364 0.44921 0.0
C1000 C 0.54763 0.88938 0.44657 0.0
C1001 C 0.56499 0.89479 0.47641 0.0
H1002 H 0.52244 0.85667 0.41019 0.0
H1003 H 0.54138 0.90753 0.43445 0.0
S1004 S 0.59112 0.83943 0.52507 0.0
N1005 N 0.56939 0.81966 0.49422 0.0
N1006 N 0.59084 0.87447 0.51977 0.0
C1007 C 0.57262 0.87104 0.49171 0.0
C1008 C 0.56088 0.84163 0.47806 0.0
C1009 C 0.60024 0.39946 0.75353 0.0
C1010 C 0.628 0.3879 0.75469 0.0
C1011 C 0.57134 0.38161 0.75795 0.0
C1012 C 0.56937 0.35162 0.76315 0.0
H1013 H 0.60094 0.42248 0.74955 0.0
H1014 H 0.5507 0.39161 0.75848 0.0
S1015 S 0.63364 0.30929 0.76203 0.0
N1016 N 0.65079 0.34363 0.75734 0.0
N1017 N 0.59614 0.31013 0.76513 0.0
C1018 C 0.5964 0.33934 0.76235 0.0
C1019 C 0.62586 0.35751 0.75832 0.0
C1020 C 0.13442 0.96049 0.62433 0.0
C1021 C 0.11353 0.93365 0.61043 0.0
C1022 C 0.13437 0.98968 0.61351 0.0
C1023 C 0.11413 0.99483 0.58704 0.0
H1024 H 0.15105 0.95911 0.64437 0.0
H1025 H 0.15098 1.00851 0.62602 0.0
S1026 S 0.05369 0.93335 0.54182 0.0
N1027 N 0.07083 0.91593 0.56857 0.0
N1028 N 0.07168 0.96866 0.548 0.0
C1029 C 0.09329 0.96814 0.5729 0.0
C1030 C 0.09274 0.93863 0.58445 0.0
C1031 C 0.48741 0.81262 0.85255 0.0
C1032 C 0.5104 0.8395 0.85659 0.0
C1033 C 0.45591 0.81053 0.83757 0.0
C1034 C 0.44532 0.83518 0.82561 0.0
H1035 H 0.49377 0.79282 0.86105 0.0
H1036 H 0.43965 0.78924 0.83539 0.0
S1037 S 0.49462 0.91166 0.83289 0.0
N1038 N 0.5189 0.89188 0.84878 0.0
N1039 N 0.46079 0.88809 0.82123 0.0
C1040 C 0.46798 0.86227 0.82995 0.0
C1041 C 0.49998 0.86438 0.84516 0.0
C1042 C 0.59454 0.20713 0.13887 0.0
C1043 C 0.59989 0.23293 0.12195 0.0
C1044 C 0.59554 0.17725 0.12633 0.0
C1045 C 0.60143 0.16976 0.09522 0.0
H1046 H 0.58978 0.20999 0.16282 0.0
H1047 H 0.59137 0.15964 0.1415 0.0
S1048 S 0.61748 0.22756 0.03947 0.0
N1049 N 0.6121 0.24722 0.07119 0.0
N1050 N 0.61297 0.19276 0.04789 0.0
C1051 C 0.60663 0.19526 0.07788 0.0
C1052 C 0.60619 0.22585 0.09091 0.0
C1053 C 0.2216 0.33654 0.36182 0.0
C1054 C 0.19957 0.30903 0.36056 0.0
C1055 C 0.24982 0.34005 0.34634 0.0
C1056 C 0.25808 0.31639 0.32813 0.0
H1057 H 0.21702 0.35582 0.37495 0.0
H1058 H 0.26528 0.36177 0.34857 0.0
S1059 S 0.21128 0.23877 0.31962 0.0
N1060 N 0.19042 0.2571 0.34081 0.0
N1061 N 0.242 0.26356 0.31232 0.0
C1062 C 0.23657 0.28872 0.32719 0.0
C1063 C 0.20801 0.28511 0.34304 0.0
C1064 C 1.03577 0.06643 0.16906 0.0
C1065 C 1.0047 0.06949 0.15899 0.0
C1066 C 0.06184 0.08545 0.16059 0.0
C1067 C 0.05761 0.10755 0.14105 0.0
H1068 H 1.04002 0.04862 0.18288 0.0
H1069 H 0.08518 0.08112 0.16721 0.0
S1070 S 0.982 0.13109 0.11804 0.0
N1071 N 0.97145 0.10064 0.13542 0.0
N1072 N 1.02102 0.13664 0.11901 0.0
C1073 C 1.027 0.11326 0.13424 0.0
C1074 C 1.00029 0.09385 0.14294 0.0
C1075 C 0.30433 0.81448 0.4386 0.0
C1076 C 0.31767 0.79134 0.45059 0.0
C1077 C 0.30797 0.82269 0.40817 0.0
C1078 C 0.3249 0.80803 0.38821 0.0
H1079 H 0.29095 0.82648 0.45286 0.0
H1080 H 0.29757 0.84079 0.40025 0.0
S1081 S 0.36463 0.74622 0.40726 0.0
N1082 N 0.34873 0.75399 0.43914 0.0
N1083 N 0.35534 0.76955 0.38243 0.0
C1084 C 0.33837 0.78501 0.39967 0.0
C1085 C 0.3348 0.77663 0.43064 0.0
C1086 C 0.56184 1.0137 0.6772 0.0
C1087 C 0.58289 0.99587 0.68821 0.0
C1088 C 0.57174 0.03721 0.65962 0.0
C1089 C 0.60287 0.04337 0.65221 0.0
H1090 H 0.53743 1.0094 0.68219 0.0
H1091 H 0.55453 0.04951 0.65033 0.0
S1092 S 0.66749 1.00427 0.67429 0.0
N1093 N 0.63663 0.98632 0.68935 0.0
N1094 N 0.65491 0.03109 0.65675 0.0
C1095 C 0.62428 1.02626 0.66302 0.0
C1096 C 0.6143 1.0021 0.68063 0.0
C1097 C 0.37677 0.36269 0.94885 0.0
C1098 C 0.36078 0.38579 0.95673 0.0
C1099 C 0.37754 0.35129 0.91734 0.0
C1100 C 0.36245 0.3621 0.89109 0.0
H1101 H 0.38903 0.35314 0.96735 0.0
H1102 H 0.39022 0.33354 0.91359 0.0
S1103 S 0.31835 0.42352 0.89755 0.0
N1104 N 0.33003 0.41955 0.93426 0.0
N1105 N 0.33141 0.39839 0.87613 0.0
C1106 C 0.34632 0.38518 0.89855 0.0
C1107 C 0.34555 0.39685 0.93074 0.0
C1108 C 0.98609 0.03352 0.3245 0.0
C1109 C 0.9973 0.03305 0.29536 0.0
C1110 C 1.00611 0.04786 0.35088 0.0
C1111 C 1.03743 0.06242 0.34841 0.0
H1112 H 0.96247 1.02159 0.32709 0.0
H1113 H 0.99781 0.04579 0.37352 0.0
S1114 S 0.0747 0.07331 0.27605 0.0
N1115 N 1.03927 0.05236 0.26452 0.0
N1116 N 0.07674 0.07954 0.3143 0.0
C1117 C 1.0476 0.06447 0.31897 0.0
C1118 C 1.02751 0.04965 0.29231 0.0
C1119 C 0.33925 0.81041 0.64266 0.0
C1120 C 0.34022 0.78096 0.63235 0.0
C1121 C 0.34364 0.82059 0.6747 0.0
C1122 C 0.34897 0.80182 0.69828 0.0
H1123 H 0.33472 0.82578 0.62584 0.0
H1124 H 0.34216 0.84339 0.68097 0.0
S1125 S 0.35394 0.72254 0.68421 0.0
N1126 N 0.34745 0.73309 0.64894 0.0
N1127 N 0.35531 0.75213 0.70855 0.0
C1128 C 0.35043 0.7724 0.68831 0.0
C1129 C 0.34618 0.76205 0.65567 0.0
C1130 C 0.58938 0.09371 0.8142 0.0
C1131 C 0.58832 0.06386 0.81941 0.0
C1132 C 0.60429 0.11656 0.83686 0.0
C1133 C 0.61725 0.11014 0.86602 0.0
H1134 H 0.57814 0.09948 0.79262 0.0
H1135 H 0.6023 0.1391 0.833 0.0
S1136 S 0.62848 0.03565 0.88699 0.0
N1137 N 0.60795 1.02924 0.85202 0.0
N1138 N 0.63459 0.07189 0.89586 0.0
C1139 C 0.62017 0.0805 0.86967 0.0
C1140 C 0.60556 0.05733 0.84619 0.0
C1141 C 0.33918 0.41184 0.17651 0.0
C1142 C 0.34422 0.39881 0.14696 0.0
C1143 C 0.33863 0.39656 0.20443 0.0
C1144 C 0.34227 0.3666 0.2052 0.0
H1145 H 0.336 0.43457 0.17839 0.0
H1146 H 0.33504 0.40853 0.22579 0.0
S1147 S 0.35777 0.32148 0.13564 0.0
N1148 N 0.35435 0.35331 0.12188 0.0
N1149 N 0.35234 0.32511 0.17279 0.0
C1150 C 0.34725 0.35324 0.17592 0.0
C1151 C 0.34846 0.36897 0.14761 0.0
C1152 C 0.32865 1.02308 0.1287 0.0
C1153 C 0.31505 0.99805 0.10746 0.0
C1154 C 0.31121 0.04463 0.13662 0.0
C1155 C 0.27957 0.04184 0.12361 0.0
H1156 H 0.35335 1.02673 0.1384 0.0
H1157 H 0.32304 0.06431 0.15165 0.0
S1158 S 0.23183 0.97895 0.06991 0.0
N1159 N 0.26717 0.97056 0.07593 0.0
N1160 N 0.23437 1.01087 0.0909 0.0
C1161 C 0.26513 1.01606 0.10392 0.0
C1162 C 0.28288 0.99424 0.09578 0.0
C1163 C 0.75566 0.64652 0.03225 0.0
C1164 C 0.78146 0.64665 0.05531 0.0
C1165 C 0.72413 0.63103 0.0344 0.0
C1166 C 0.71572 0.61542 0.06032 0.0
H1167 H 0.75979 0.65869 1.01214 0.0
H1168 H 0.70584 0.63203 1.01567 0.0
S1169 S 0.77348 0.60874 0.12791 0.0
N1170 N 0.7956 0.62892 0.10525 0.0
N1171 N 0.73688 0.60137 0.1098 0.0
C1172 C 0.74116 0.61546 0.0837 0.0
C1173 C 0.77358 0.63052 0.08107 0.0
C1174 C 0.80728 0.54119 0.36719 0.0
C1175 C 0.82597 0.56855 0.362 0.0
C1176 C 0.81 0.51477 0.35075 0.0
C1177 C 0.83148 0.5148 0.32857 0.0
H1178 H 0.79047 0.54006 0.38413 0.0
H1179 H 0.79586 0.49406 0.35604 0.0
S1180 S 0.88401 0.58058 0.30439 0.0
N1181 N 0.86512 0.59416 0.3314 0.0
N1182 N 0.87059 0.54439 0.30106 0.0
C1183 C 0.84931 0.54204 0.32218 0.0
C1184 C 0.84658 0.56894 0.33887 0.0
C1185 C 0.98323 0.48238 0.58273 0.0
C1186 C 0.95701 0.47969 0.56005 0.0
C1187 C 1.00789 0.50754 0.5863 0.0
C1188 C 1.00752 0.53093 0.56704 0.0
H1189 H 0.98425 0.46531 0.59848 0.0
H1190 H 1.02758 0.50837 0.60418 0.0
S1191 S 0.94411 0.53348 0.50309 0.0
N1192 N 0.93179 0.50187 0.51786 0.0
N1193 N 0.97849 0.54882 0.52362 0.0
C1194 C 0.98136 0.52817 0.54395 0.0
C1195 C 0.95605 0.50266 0.54069 0.0
C1196 C 0.46797 0.15734 0.30581 0.0
C1197 C 0.4971 0.17787 0.30998 0.0
C1198 C 0.44039 0.16485 0.29198 0.0
C1199 C 0.44119 0.19302 0.28174 0.0
H1200 H 0.4664 0.13538 0.31361 0.0
H1201 H 0.41812 0.14894 0.29027 0.0
S1202 S 0.51171 0.25392 0.28541 0.0
N1203 N 0.52541 0.22695 0.30162 0.0
N1204 N 0.47329 0.24119 0.2754 0.0
C1205 C 0.47022 0.21357 0.28518 0.0
C1206 C 0.49828 0.20599 0.29947 0.0
C1207 C 0.47296 0.11922 0.58422 0.0
C1208 C 0.46837 0.14499 0.56974 0.0
C1209 C 0.50183 0.10822 0.58454 0.0
C1210 C 0.52872 0.12274 0.5714 0.0
H1211 H 0.4538 0.10707 0.59525 0.0
H1212 H 0.50324 0.08826 0.59581 0.0
S1213 S 0.53035 0.19084 0.53018 0.0
N1214 N 0.49433 0.18409 0.54099 0.0
N1215 N 0.54795 0.16455 0.54297 0.0
C1216 C 0.52461 0.1486 0.55709 0.0
C1217 C 0.49491 0.15931 0.55591 0.0
C1218 C 0.78978 0.73012 0.38712 0.0
C1219 C 0.812 0.71942 0.40708 0.0
C1220 C 0.7996 0.7502 0.36572 0.0
C1221 C 0.83198 0.76064 0.36378 0.0
H1222 H 0.76457 0.72133 0.38627 0.0
H1223 H 0.78166 0.75695 0.35009 0.0
S1224 S 0.89951 0.74368 0.415 0.0
N1225 N 0.86755 0.72388 0.42659 0.0
N1226 N 0.88632 0.76168 0.38659 0.0
C1227 C 0.85441 0.75211 0.38552 0.0
C1228 C 0.84433 0.73165 0.40724 0.0
C1229 C 1.01621 0.55456 0.86062 0.0
C1230 C 1.04492 0.5584 0.84737 0.0
C1231 C 0.99414 0.52787 0.85526 0.0
C1232 C 0.99982 0.50378 0.83657 0.0
H1233 H 1.01012 0.57266 0.87452 0.0
H1234 H 0.97214 0.5262 0.86554 0.0
S1235 S 0.07238 0.5008 0.79904 0.0
N1236 N 0.07902 0.53472 0.81688 0.0
N1237 N 1.03687 0.4843 0.80651 0.0
C1238 C 1.02903 0.50648 0.82454 0.0
C1239 C 1.05177 0.53384 0.83008 0.0
C1240 C 0.15795 0.98283 0.10408 0.0
C1241 C 0.16205 0.98404 0.13675 0.0
C1242 C 0.13946 1.00028 0.08895 0.0
C1243 C 0.1238 1.01854 0.1061 0.0
H1244 H 0.17001 0.96921 0.09017 0.0
H1245 H 0.1394 1.00125 0.06402 0.0
S1246 S 0.12153 1.02534 0.1913 0.0
N1247 N 0.14526 1.00195 0.18545 0.0
N1248 N 0.10962 0.0341 0.15641 0.0
C1249 C 0.12465 1.01742 0.13828 0.0
C1250 C 0.14403 1.00022 0.15386 0.0
C1251 C 0.93542 0.25424 0.86516 0.0
C1252 C 0.96599 0.25426 0.85704 0.0
C1253 C 0.91521 0.26932 0.84863 0.0
C1254 C 0.92488 0.28477 0.82347 0.0
H1255 H 0.92766 0.24377 0.88537 0.0
H1256 H 0.89221 0.26975 0.85621 0.0
S1257 S 1.00165 0.29091 0.79182 0.0
N1258 N 1.00447 0.27028 0.82116 0.0
N1259 N 0.96578 0.29849 0.79004 0.0
C1260 C 0.95453 0.28386 0.81394 0.0
C1261 C 0.97528 0.26849 0.83074 0.0
C1262 C 0.69188 0.33036 0.61888 0.0
C1263 C 0.67703 0.34364 0.64176 0.0
C1264 C 0.68211 0.3002 0.60901 0.0
C1265 C 0.65716 0.28264 0.62166 0.0
H1266 H 0.71266 0.34272 0.61031 0.0
H1267 H 0.69604 0.2901 0.59359 0.0
S1268 S 0.60553 0.30836 0.67617 0.0
N1269 N 0.63252 0.33823 0.67263 0.0
N1270 N 0.61405 0.28133 0.65353 0.0
C1271 C 0.63978 0.29632 0.64175 0.0
C1272 C 0.64984 0.32694 0.65207 0.0
C1273 C 0.64494 0.78433 0.4056 0.0
C1274 C 0.62076 0.76121 0.39035 0.0
C1275 C 0.6688 0.79884 0.38956 0.0
C1276 C 0.66921 0.79067 0.35782 0.0
H1277 H 0.64467 0.79225 0.42973 0.0
H1278 H 0.6865 0.81708 0.4018 0.0
S1279 S 0.61464 0.72888 0.30833 0.0
N1280 N 0.60097 0.72879 0.34249 0.0
N1281 N 0.64611 0.75616 0.31251 0.0
C1282 C 0.6465 0.76652 0.34278 0.0
C1283 C 0.62229 0.75162 0.35907 0.0
C1284 C 0.10422 0.23138 0.5185 0.0
C1285 C 0.1027 0.2354 0.48588 0.0
C1286 C 0.10359 0.20271 0.53126 0.0
C1287 C 0.10088 0.1748 0.51286 0.0
H1288 H 0.10649 0.25083 0.5348 0.0
H1289 H 0.10541 0.2026 0.55634 0.0
S1290 S 0.09395 0.17049 0.42592 0.0
N1291 N 0.09709 0.2063 0.43575 0.0
N1292 N 0.09556 0.15478 0.45889 0.0
C1293 C 0.09875 0.17849 0.4803 0.0
C1294 C 0.09973 0.20757 0.46734 0.0
C1295 C 0.70264 0.30966 0.24956 0.0
C1296 C 0.69708 0.33236 0.2304 0.0
C1297 C 0.73347 0.3087 0.26503 0.0
C1298 C 0.76095 0.33078 0.26311 0.0
H1299 H 0.68303 0.29176 0.25198 0.0
H1300 H 0.73571 0.29029 0.27862 0.0
S1301 S 0.76004 0.39605 0.21715 0.0
N1302 N 0.7228 0.37783 0.21124 0.0
N1303 N 0.77915 0.37677 0.24026 0.0
C1304 C 0.75543 0.35393 0.24453 0.0
C1305 C 0.72428 0.35452 0.22836 0.0
C1306 C 0.62549 0.93185 1.01956 0.0
C1307 C 0.61567 0.92054 0.98755 0.0
C1308 C 0.62446 0.96198 0.03227 0.0
C1309 C 0.61346 0.98388 1.01438 0.0
H1310 H 0.63416 0.91727 0.03529 0.0
H1311 H 0.63234 0.96806 0.05684 0.0
S1312 S 0.58567 0.96806 0.92924 0.0
N1313 N 0.59494 0.93655 0.93858 0.0
N1314 N 0.59311 0.99042 0.96179 0.0
C1315 C 0.60382 0.97288 0.98254 0.0
C1316 C 0.60491 0.94255 0.9696 0.0
C1317 C 0.96773 0.79768 0.74146 0.0
C1318 C 0.99565 0.82025 0.74625 0.0
C1319 C 0.9395 0.80011 0.75539 0.0
C1320 C 0.93707 0.82508 0.77574 0.0
H1321 H 0.96739 0.7779 0.72623 0.0
H1322 H 0.91915 0.78198 0.74988 0.0
S1323 S 1.00403 0.88986 0.79837 0.0
N1324 N 1.01885 0.86827 0.77424 0.0
N1325 N 0.96725 0.87252 0.8006 0.0
C1326 C 0.96521 0.8475 0.7813 0.0
C1327 C 0.99378 0.84521 0.76665 0.0
C1328 C 0.17074 0.11318 0.95812 0.0
C1329 C 0.20293 0.11165 0.96208 0.0
C1330 C 0.14989 0.09893 0.97717 0.0
C1331 C 0.16077 0.08389 1.00173 0.0
H1332 H 0.16164 0.12608 0.94071 0.0
H1333 H 0.12577 0.10185 0.97402 0.0
S1334 S 0.24014 0.06491 1.01428 0.0
N1335 N 0.2429 0.08739 0.9864 0.0
N1336 N 0.20371 0.06183 0.02379 0.0
C1337 C 0.19195 0.07911 1.00341 0.0
C1338 C 0.21309 0.0929 0.98327 0.0
C1339 C 0.86965 0.34134 0.65229 0.0
C1340 C 0.88129 0.37164 0.6496 0.0
C1341 C 0.86696 0.3304 0.68183 0.0
C1342 C 0.87608 0.34919 0.71001 0.0
H1343 H 0.86122 0.32623 0.63147 0.0
H1344 H 0.85666 0.30714 0.68245 0.0
S1345 S 0.91224 0.42973 0.71571 0.0
N1346 N 0.90493 0.41967 0.67791 0.0
N1347 N 0.90019 0.39938 0.73265 0.0
C1348 C 0.88947 0.37921 0.70746 0.0
C1349 C 0.89198 0.3903 0.67756 0.0
C1350 C 0.63659 0.15529 0.45277 0.0
C1351 C 0.65121 0.13919 0.43182 0.0
C1352 C 0.6298 0.14491 0.48127 0.0
C1353 C 0.63706 0.11795 0.48951 0.0
H1354 H 0.62857 0.17509 0.44633 0.0
H1355 H 0.61735 0.15731 0.49622 0.0
S1356 S 0.67975 0.06967 0.44539 0.0
N1357 N 0.67637 0.09677 0.42326 0.0
N1358 N 0.66281 0.07706 0.47664 0.0
C1359 C 0.65359 0.10265 0.46991 0.0
C1360 C 0.66108 0.11347 0.44116 0.0
C1361 C 0.86916 0.74064 0.1733 0.0
C1362 C 0.8723 0.75729 0.14706 0.0
C1363 C 0.865 0.75323 0.20333 0.0
C1364 C 0.86325 0.78337 0.2094 0.0
H1365 H 0.86963 0.71722 0.17066 0.0
H1366 H 0.86295 0.73897 0.22208 0.0
S1367 S 0.87329 0.83833 0.15065 0.0
N1368 N 0.87527 0.80689 0.13073 0.0
N1369 N 0.86737 0.83014 0.18635 0.0
C1370 C 0.8667 0.80052 0.18362 0.0
C1371 C 0.87113 0.7877 0.15293 0.0
C1372 C 0.19834 0.13188 0.80467 0.0
C1373 C 0.22745 0.12289 0.80975 0.0
C1374 C 0.17871 0.12337 0.77678 0.0
C1375 C 0.18738 0.10542 0.75295 0.0
H1376 H 0.19078 0.14602 0.82225 0.0
H1377 H 0.1571 0.13191 0.77345 0.0
S1378 S 0.25958 0.07326 0.75589 0.0
N1379 N 0.26318 0.09329 0.78978 0.0
N1380 N 0.22582 0.07716 0.73666 0.0
C1381 C 0.216 0.09547 0.7579 0.0
C1382 C 0.2362 0.10427 0.7865 0.0
C1383 C 0.87755 0.34201 0.44947 0.0
C1384 C 0.86556 0.36522 0.46385 0.0
C1385 C 0.87206 0.33436 0.41694 0.0
C1386 C 0.85477 0.34984 0.39678 0.0
H1387 H 0.89167 0.32968 0.46345 0.0
H1388 H 0.88237 0.31657 0.40742 0.0
S1389 S 0.81731 0.412 0.42206 0.0
N1390 N 0.83445 0.4031 0.45491 0.0
N1391 N 0.82501 0.38922 0.39396 0.0
C1392 C 0.84238 0.37294 0.41074 0.0
C1393 C 0.84747 0.38043 0.44407 0.0
C1394 C 0.60111 0.10744 0.2404 0.0
C1395 C 0.61976 0.11407 0.26939 0.0
C1396 C 0.59647 0.07929 0.22429 0.0
C1397 C 0.60952 0.05629 0.23704 0.0
H1398 H 0.58968 0.12405 0.23031 0.0
H1399 H 0.58351 0.07609 0.20113 0.0
S1400 S 0.65589 0.06119 0.3147 0.0
N1401 N 0.64968 0.09503 0.3113 0.0
N1402 N 0.63836 0.04132 0.28214 0.0
C1403 C 0.6265 0.06225 0.26692 0.0
C1404 C 0.63251 0.09132 0.28267 0.0
C1405 C 0.85524 0.7516 0.92815 0.0
C1406 C 0.85674 0.76896 0.95701 0.0
C1407 C 0.85472 0.76395 0.8986 0.0
C1408 C 0.85706 0.7948 0.89572 0.0
H1409 H 0.85359 0.72789 0.92823 0.0
H1410 H 0.85268 0.749 0.87766 0.0
S1411 S 0.86254 0.85079 0.96356 0.0
N1412 N 0.86048 0.81929 0.97982 0.0
N1413 N 0.86138 0.84224 0.92569 0.0
C1414 C 0.85933 0.81244 0.92446 0.0
C1415 C 0.85869 0.79973 0.9544 0.0
C1416 C 0.88887 0.155 1.00602 0.0
C1417 C 0.89985 0.18541 1.01525 0.0
C1418 C 0.90998 0.13658 0.99959 0.0
C1419 C 0.94281 0.14796 1.00282 0.0
H1420 H 0.86394 0.14508 1.00548 0.0
H1421 H 0.90077 0.11292 0.99481 0.0
S1422 S 0.98294 0.22689 1.02251 0.0
N1423 N 0.94492 0.22682 0.02411 0.0
N1424 N 0.98499 0.19216 1.01228 0.0
C1425 C 0.95378 0.17885 1.0095 0.0
C1426 C 0.93216 0.19764 1.01573 0.0
C1427 C 0.4566 0.53824 0.07453 0.0
C1428 C 0.44575 0.50772 0.06349 0.0
C1429 C 0.48857 0.55408 0.07303 0.0
C1430 C 0.51194 0.54067 0.06006 0.0
H1431 H 0.44027 0.55015 0.0846 0.0
H1432 H 0.49494 0.57724 0.08204 0.0
S1433 S 0.49779 0.46098 0.0296 0.0
N1434 N 0.46324 0.46489 0.04029 0.0
N1435 N 0.52125 0.49401 0.03735 0.0
C1436 C 0.50144 0.51023 0.04928 0.0
C1437 C 0.46927 0.49412 0.05101 0.0
C1438 C 0.41159 0.61515 0.75391 0.0
C1439 C 0.39277 0.60203 0.72588 0.0
C1440 C 0.40424 0.63934 0.77117 0.0
C1441 C 0.37786 0.65106 0.76092 0.0
H1442 H 0.43202 0.60658 0.7628 0.0
H1443 H 0.41901 0.64869 0.7927 0.0
S1444 S 0.32203 0.62643 0.68899 0.0
N1445 N 0.34724 0.60379 0.68849 0.0
N1446 N 0.33366 0.64914 0.72113 0.0
C1447 C 0.35931 0.63874 0.7329 0.0
C1448 C 0.3667 0.61423 0.71529 0.0
C1449 C 0.21369 0.68577 0.55833 0.0
C1450 C 0.23029 0.68314 0.53245 0.0
C1451 C 0.18991 0.66237 0.56462 0.0
C1452 C 0.18137 0.63561 0.54495 0.0
H1453 H 0.22009 0.70555 0.57463 0.0
H1454 H 0.17801 0.66543 0.58505 0.0
S1455 S 0.21626 0.61865 0.47276 0.0
N1456 N 0.23611 0.65225 0.48644 0.0
N1457 N 0.19033 0.60872 0.49739 0.0
C1458 C 0.19698 0.6332 0.51826 0.0
C1459 C 0.22176 0.65681 0.51229 0.0
C1460 C 0.72322 0.98713 0.79554 0.0
C1461 C 0.6946 0.96794 0.79916 0.0
C1462 C 0.7521 0.98347 0.81078 0.0
C1463 C 0.75316 0.96016 0.82958 0.0
H1464 H 0.7234 1.00445 0.77995 0.0
H1465 H 0.77388 0.99741 0.80583 0.0
S1466 S 0.6847 0.90454 0.84715 0.0
N1467 N 0.66869 0.92599 0.82404 0.0
N1468 N 0.72331 0.91822 0.85188 0.0
C1469 C 0.72453 0.94167 0.8345 0.0
C1470 C 0.69507 0.94578 0.81943 0.0
C1471 C 0.75528 0.04199 0.59895 0.0
C1472 C 0.75867 1.01695 0.57947 0.0
C1473 C 0.72742 0.05452 0.5962 0.0
C1474 C 0.70048 0.04284 0.57398 0.0
H1475 H 0.77454 0.05226 0.61674 0.0
H1476 H 0.72699 0.07362 0.61212 0.0
S1477 S 0.69595 0.97733 0.51669 0.0
N1478 N 0.7315 0.98118 0.53651 0.0
N1479 N 0.67994 1.00403 0.53174 0.0
C1480 C 0.70347 1.01773 0.55431 0.0
C1481 C 0.73204 1.00512 0.55691 0.0
C1482 C 0.42515 0.44475 0.74443 0.0
C1483 C 0.40735 0.44792 0.71618 0.0
C1484 C 0.4179 0.41936 0.75998 0.0
C1485 C 0.39258 0.39623 0.74782 0.0
H1486 H 0.44467 0.46231 0.75489 0.0
H1487 H 0.43185 0.41814 0.78194 0.0
S1488 S 0.33996 0.39316 0.67344 0.0
N1489 N 0.36416 0.42591 0.67614 0.0
N1490 N 0.35045 0.37745 0.70484 0.0
C1491 C 0.37478 0.39897 0.71924 0.0
C1492 C 0.38212 0.42508 0.70359 0.0
C1493 C 0.18156 0.59526 0.23603 0.0
C1494 C 0.15008 0.59064 0.24314 0.0
C1495 C 0.20168 0.62323 0.24189 0.0
C1496 C 0.19125 0.64769 0.25542 0.0
H1497 H 0.19084 0.577 0.22599 0.0
H1498 H 0.22547 0.62575 0.23534 0.0
S1499 S 0.112 0.64674 0.28136 0.0
N1500 N 0.10991 0.61248 0.26599 0.0
N1501 N 0.14801 0.66504 0.27771 0.0
C1502 C 0.15999 0.64329 0.26321 0.0
C1503 C 0.13933 0.61481 0.25686 0.0
C1504 C 0.57815 0.70641 0.52844 0.0
C1505 C 0.56515 0.69983 0.49704 0.0
C1506 C 0.59615 0.68807 0.54282 0.0
C1507 C 0.6018 0.66278 0.52609 0.0
H1508 H 0.57441 0.72587 0.54197 0.0
H1509 H 0.60445 0.69306 0.56746 0.0
S1510 S 0.57595 0.63772 0.4425 0.0
N1511 N 0.56093 0.6675 0.44908 0.0
N1512 N 0.59524 0.63323 0.47613 0.0
C1513 C 0.58993 0.6566 0.49441 0.0
C1514 C 0.57127 0.67497 0.4799 0.0
C1515 C 0.77405 0.41655 0.76703 0.0
C1516 C 0.7689 0.41377 0.73433 0.0
C1517 C 0.78144 0.39312 0.78327 0.0
C1518 C 0.7832 0.36583 0.76738 0.0
H1519 H 0.77347 0.43735 0.78009 0.0
H1520 H 0.78714 0.39692 0.80837 0.0
S1521 S 0.76582 0.34563 0.68179 0.0
N1522 N 0.76255 0.38065 0.6867 0.0
N1523 N 0.77484 0.33624 0.71709 0.0
C1524 C 0.77535 0.362 0.73474 0.0
C1525 C 0.76874 0.3861 0.71822 0.0
C1526 C 0.05919 0.3634 0.95996 0.0
C1527 C 1.05304 0.33923 0.97773 0.0
C1528 C 0.06988 0.39201 0.97458 0.0
C1529 C 0.07504 0.39698 1.00725 0.0
H1530 H 0.05441 0.36032 0.93475 0.0
H1531 H 0.07233 0.41048 0.96033 0.0
S1532 S 0.06869 0.34027 0.06351 0.0
N1533 N 0.05709 0.32123 0.02906 0.0
N1534 N 0.07748 0.37552 0.0567 0.0
C1535 C 0.07128 0.37278 0.02512 0.0
C1536 C 0.06013 0.34366 1.01025 0.0
C1537 C 0.08788 0.91104 0.26386 0.0
C1538 C 0.10012 0.9064 0.23568 0.0
C1539 C 0.06255 0.89059 0.27179 0.0
C1540 C 1.04912 0.86475 0.25198 0.0
H1541 H 0.09923 0.9296 0.28068 0.0
H1542 H 0.0543 0.89429 0.29425 0.0
S1543 S 0.07139 0.8432 0.1748 0.0
N1544 N 0.09591 0.87511 0.18695 0.0
N1545 N 1.04802 0.83633 0.20234 0.0
C1546 C 0.05967 0.86068 0.22287 0.0
C1547 C 0.08535 0.88171 0.21457 0.0
C1548 C 0.61732 0.45009 0.13177 0.0
C1549 C 0.62234 0.42558 0.11199 0.0
C1550 C 0.61769 0.47971 0.12207 0.0
C1551 C 0.62261 0.48786 0.0914 0.0
H1552 H 0.61339 0.44654 0.15558 0.0
H1553 H 0.61383 0.49655 0.13917 0.0
S1554 S 0.63418 0.43239 0.02851 0.0
N1555 N 0.63113 0.41274 0.05882 0.0
N1556 N 0.63087 0.46627 0.04086 0.0
C1557 C 0.62696 0.46335 0.07121 0.0
C1558 C 0.62712 0.43332 0.08126 0.0
C1559 C 1.0024 0.3434 0.38094 0.0
C1560 C 1.0189 0.32002 0.37598 0.0
C1561 C 0.97275 0.34443 0.36342 0.0
C1562 C 0.9566 0.32167 0.34015 0.0
H1563 H 1.01259 0.36145 0.39872 0.0
H1564 H 0.96193 0.36316 0.36888 0.0
S1565 S 0.98823 0.25468 0.31749 0.0
N1566 N 1.01588 0.2733 0.34491 0.0
N1567 N 0.96038 0.27454 0.31352 0.0
C1568 C 0.97264 0.29798 0.33499 0.0
C1569 C 1.00342 0.29736 0.35229 0.0
C1570 C 0.10133 0.73486 0.59885 0.0
C1571 C 0.0865 0.74218 0.62553 0.0
C1572 C 0.10234 0.70461 0.58742 0.0
C1573 C 0.08933 0.67875 0.60192 0.0
H1574 H 0.1126 0.75278 0.5865 0.0
H1575 H 0.11413 0.70157 0.56693 0.0
S1576 S 1.04649 0.68338 0.67175 0.0
N1577 N 0.05718 0.71849 0.66514 0.0
N1578 N 0.0601 0.66391 0.64468 0.0
C1579 C 0.07446 0.68568 0.62845 0.0
C1580 C 0.07284 0.71628 0.63977 0.0
C1581 C 0.72671 0.83609 0.89441 0.0
C1582 C 0.69475 0.83013 0.87988 0.0
C1583 C 0.75374 0.83746 0.87729 0.0
C1584 C 0.7512 0.83208 0.84419 0.0
H1585 H 0.7311 0.84034 0.91954 0.0
H1586 H 0.77713 0.84238 0.89044 0.0
S1587 S 0.67358 0.81517 0.7937 0.0
N1588 N 0.66317 0.8192 0.82914 0.0
N1589 N 0.71271 0.82032 0.79794 0.0
C1590 C 0.71942 0.82572 0.82938 0.0
C1591 C 0.69191 0.82518 0.84674 0.0
C1592 C 0.50155 0.5891 0.63015 0.0
C1593 C 0.50311 0.56623 0.64933 0.0
C1594 C 0.52935 0.6053 0.62104 0.0
C1595 C 0.55916 0.59917 0.63125 0.0
H1596 H 0.47913 0.59542 0.62349 0.0
H1597 H 0.52764 0.62299 0.60626 0.0
S1598 S 0.57498 0.53986 0.6799 0.0
N1599 N 0.5361 0.53664 0.67638 0.0
N1600 N 0.58845 0.56807 0.66031 0.0
C1601 C 0.56085 0.57597 0.64987 0.0
C1602 C 0.53266 0.55907 0.65846 0.0
C1603 C 0.83271 0.27058 0.93283 0.0
C1604 C 0.82093 0.28962 0.95368 0.0
C1605 C 0.83497 0.27613 0.90136 0.0
C1606 C 0.82617 0.30132 0.88931 0.0
H1607 H 0.84016 0.25104 0.94081 0.0
H1608 H 0.84458 0.26097 0.88662 0.0
S1609 S 0.79282 0.35775 0.93329 0.0
N1610 N 0.7992 0.33428 0.95905 0.0
N1611 N 0.80435 0.34503 0.9007 0.0
C1612 C 0.81416 0.32039 0.90977 0.0
C1613 C 0.8113 0.31448 0.94161 0.0
C1614 C 0.11918 0.50411 0.18337 0.0
C1615 C 0.08846 0.49835 0.1925 0.0
C1616 C 0.12912 0.5281 0.16647 0.0
C1617 C 0.10864 0.54694 0.15768 0.0
H1618 H 0.13572 0.48993 0.18908 0.0
H1619 H 0.15258 0.53118 0.15898 0.0
S1620 S 1.02503 0.54033 0.17227 0.0
N1621 N 1.03676 0.51263 0.18898 0.0
N1622 N 0.05612 0.55795 0.15732 0.0
C1623 C 0.07785 0.54149 0.16598 0.0
C1624 C 0.06744 0.51685 0.18294 0.0
C1625 C 0.8769 0.86847 0.45555 0.0
C1626 C 0.85673 0.8877 0.46433 0.0
C1627 C 0.87785 0.85796 0.42384 0.0
C1628 C 0.85848 0.86564 0.39852 0.0
H1629 H 0.89248 0.86147 0.47343 0.0
H1630 H 0.89387 0.84327 0.4192 0.0
S1631 S 0.80207 0.91625 0.40739 0.0
N1632 N 0.81738 0.9146 0.44363 0.0
N1633 N 0.81871 0.89459 0.38513 0.0
C1634 C 0.83806 0.88471 0.40686 0.0
C1635 C 0.83735 0.89574 0.43917 0.0
C1636 C 0.52231 0.52491 0.81225 0.0
C1637 C 0.50063 0.54222 0.80241 0.0
C1638 C 0.54321 0.53377 0.83929 0.0
C1639 C 0.54346 0.56051 0.85719 0.0
H1640 H 0.52337 0.50445 0.79877 0.0
H1641 H 0.559 0.51928 0.8464 0.0
S1642 S 0.49095 0.61364 0.84119 0.0
N1643 N 0.4798 0.58687 0.81242 0.0
N1644 N 0.51997 0.60411 0.86351 0.0
C1645 C 0.5215 0.57788 0.84788 0.0
C1646 C 0.49979 0.56856 0.82039 0.0
C1647 C 0.84689 0.31033 0.14891 0.0
C1648 C 0.8541 0.28352 0.13667 0.0
C1649 C 0.85262 0.31972 0.18128 0.0
C1650 C 0.86541 0.30258 0.20313 0.0
H1651 H 0.83604 0.32393 0.13349 0.0
H1652 H 0.84573 0.34004 0.18938 0.0
S1653 S 0.89094 0.23188 0.18385 0.0
N1654 N 0.87707 0.24104 0.14977 0.0
N1655 N 0.88671 0.25835 0.20988 0.0
C1656 C 0.87347 0.27623 0.19124 0.0
C1657 C 0.86817 0.26686 0.15835 0.0
C1658 C 0.12557 0.5598 0.34013 0.0
C1659 C 0.09431 0.55706 0.32574 0.0
C1660 C 0.13983 0.58411 0.36144 0.0
C1661 C 0.12274 0.60577 0.37032 0.0
H1662 H 0.13902 0.54281 0.33541 0.0
H1663 H 0.16308 0.58424 0.37353 0.0
S1664 S 1.04472 0.61415 0.33075 0.0
N1665 N 1.05022 0.5821 0.31539 0.0
N1666 N 0.07646 0.62722 0.35595 0.0
C1667 C 0.09342 0.60552 0.35249 0.0
C1668 C 0.07902 0.58093 0.33063 0.0
C1669 C 0.83845 0.9181 0.684 0.0
C1670 C 0.84049 0.90308 0.65447 0.0
C1671 C 0.83667 0.90378 0.71246 0.0
C1672 C 0.83586 0.87291 0.71389 0.0
H1673 H 0.83869 0.94167 0.68542 0.0
H1674 H 0.83567 0.91726 0.73374 0.0
S1675 S 0.84128 0.82225 0.64434 0.0
N1676 N 0.84243 0.85455 0.62991 0.0
N1677 N 0.83806 0.82811 0.68184 0.0
C1678 C 0.83767 0.85752 0.68457 0.0
C1679 C 0.84022 0.87226 0.65568 0.0
C1680 C 0.82661 0.51706 0.6302 0.0
C1681 C 0.81318 0.49274 0.60798 0.0
C1682 C 0.81107 0.54059 0.63546 0.0
C1683 C 0.78157 0.54058 0.61873 0.0
H1684 H 0.84989 0.51858 0.64288 0.0
H1685 H 0.82271 0.55941 0.65181 0.0
S1686 S 0.73427 0.48113 0.56098 0.0
N1687 N 0.76707 0.46915 0.57133 0.0
N1688 N 0.73805 0.51363 0.58127 0.0
C1689 C 0.76704 0.5159 0.59776 0.0
C1690 C 0.78277 0.49186 0.59241 0.0
C1691 C 0.264 0.14375 0.57532 0.0
C1692 C 0.27776 0.1439 0.54698 0.0
C1693 C 0.23147 0.1305 0.57704 0.0
C1694 C 0.21046 0.11605 0.55059 0.0
H1695 H 0.27829 0.15494 0.59641 0.0
H1696 H 0.22264 0.132 0.59946 0.0
S1697 S 0.23447 0.10904 0.47059 0.0
N1698 N 0.26715 0.1278 0.49179 0.0
N1699 N 0.20747 0.10242 0.49485 0.0
C1700 C 0.2243 0.11546 0.52223 0.0
C1701 C 0.25724 0.12945 0.52046 0.0
C1702 C 0.2792 0.03876 0.85786 0.0
C1703 C 0.30521 0.05369 0.87921 0.0
C1704 C 0.28221 1.01492 0.83727 0.0
C1705 C 0.31119 1.00565 0.83799 0.0
H1706 H 0.25753 0.04727 0.85504 0.0
H1707 H 0.26258 1.00484 0.81975 0.0
S1708 S 0.38407 0.03426 0.89281 0.0
N1709 N 0.35918 0.05553 0.9021 0.0
N1710 N 0.36461 1.01003 0.86398 0.0
C1711 C 0.33622 1.01864 0.86101 0.0
C1712 C 0.33326 0.04292 0.88162 0.0
C1713 C 0.46117 1.00309 0.04105 0.0
C1714 C 0.46033 0.97697 0.05601 0.0
C1715 C 0.48916 1.02485 0.04327 0.0
C1716 C 0.51722 1.02168 0.06119 0.0
H1717 H 0.44 1.0067 0.02749 0.0
H1718 H 0.4887 0.04433 0.03088 0.0
S1719 S 0.52646 0.9578 0.10646 0.0
N1720 N 0.48926 0.94941 0.09009 0.0
N1721 N 0.54177 0.99015 0.09471 0.0
C1722 C 0.51638 0.99567 0.07661 0.0
C1723 C 0.48801 0.97336 0.07387 0.0
C1724 C 0.9423 0.65428 0.8208 0.0
C1725 C 0.9721 0.67362 0.82383 0.0
C1726 C 0.91518 0.66278 0.8069 0.0
C1727 C 0.91748 0.69046 0.79498 0.0
H1728 H 0.94002 0.63254 0.82928 0.0
H1729 H 0.89227 0.64808 0.80627 0.0
S1730 S 0.99089 0.74707 0.79346 0.0
N1731 N 1.00286 0.72036 0.8118 0.0
N1732 N 0.9521 0.73603 0.78465 0.0
C1733 C 0.94744 0.70934 0.79668 0.0
C1734 C 0.97474 0.70103 0.81148 0.0
C1735 C 0.97521 0.62153 0.08908 0.0
C1736 C 0.97283 0.65047 0.08122 0.0
C1737 C 1.00415 0.61053 0.08946 0.0
C1738 C 1.03331 0.6279 0.08301 0.0
H1739 H 0.95421 0.60684 0.09458 0.0
H1740 H 1.00363 0.58803 0.09527 0.0
S1741 S 1.04154 0.70589 0.06255 0.0
N1742 N 1.0036 0.69635 0.06717 0.0
N1743 N 0.05708 0.67662 0.06916 0.0
C1744 C 1.03138 0.65711 0.07575 0.0
C1745 C 1.00172 0.66801 0.07452 0.0
C1746 C 0.3537 0.21507 0.881 0.0
C1747 C 0.33176 0.21884 0.90207 0.0
C1748 C 0.35916 0.23412 0.8577 0.0
C1749 C 0.34339 0.25784 0.85514 0.0
H1750 H 0.36404 0.19549 0.88012 0.0
H1751 H 0.37441 0.22916 0.84058 0.0
S1752 S 0.29281 0.28312 0.9115 0.0
N1753 N 0.30058 0.25197 0.92377 0.0
N1754 N 0.31137 0.28842 0.88037 0.0
C1755 C 0.32517 0.26436 0.87887 0.0
C1756 C 0.31956 0.24487 0.90251 0.0
C1757 C 0.52991 0.05743 0.37747 0.0
C1758 C 0.54484 0.06824 0.35225 0.0
C1759 C 0.50523 0.03234 0.37289 0.0
C1760 C 0.49456 1.01764 0.34292 0.0
H1761 H 0.53749 0.06831 0.40081 0.0
H1762 H 0.49449 1.02426 0.39294 0.0
S1763 S 0.52343 0.0398 0.26888 0.0
N1764 N 0.54588 0.06402 0.29609 0.0
N1765 N 0.49912 1.01705 0.28749 0.0
C1766 C 0.50884 1.02874 0.31745 0.0
C1767 C 0.53409 0.05407 0.32212 0.0
C1768 C 0.66575 0.50455 0.66035 0.0
C1769 C 0.67201 0.48271 0.63908 0.0
C1770 C 0.64624 0.52374 0.65057 0.0
C1771 C 0.63167 0.52085 0.61961 0.0
H1772 H 0.67771 0.50814 0.68397 0.0
H1773 H 0.64449 0.54231 0.66667 0.0
S1774 S 0.63679 0.46379 0.55673 0.0
N1775 N 0.65967 0.45677 0.58706 0.0
N1776 N 0.62213 0.49254 0.56881 0.0
C1777 C 0.63541 0.49726 0.59904 0.0
C1778 C 0.65596 0.47824 0.60876 0.0
C1779 C 0.47062 0.78975 0.32552 0.0
C1780 C 0.46463 0.76066 0.33433 0.0
C1781 C 0.44586 0.80317 0.31499 0.0
C1782 C 0.41418 0.78785 0.31248 0.0
H1783 H 0.49448 0.80311 0.32881 0.0
H1784 H 0.45168 0.82613 0.31002 0.0
S1785 S 0.38659 0.70954 0.32862 0.0
N1786 N 0.42551 0.71595 0.33752 0.0
N1787 N 0.37845 0.74063 0.31651 0.0
C1788 C 0.40804 0.75792 0.31918 0.0
C1789 C 0.43341 0.74446 0.33047 0.0
C1790 C 0.17577 0.83165 0.14702 0.0
C1791 C 0.17323 0.84436 0.17687 0.0
C1792 C 0.16471 0.80136 0.13872 0.0
C1793 C 0.15075 0.78301 0.16002 0.0
H1794 H 0.18772 0.84486 0.13045 0.0
H1795 H 0.16936 0.79191 0.11644 0.0
S1796 S 0.13189 0.8064 0.2382 0.0
N1797 N 0.15075 0.83719 0.22578 0.0
N1798 N 0.13042 0.77983 0.21003 0.0
C1799 C 0.14541 0.79576 0.18879 0.0
C1800 C 0.15664 0.82662 0.19732 0.0
C1801 C 0.12665 0.29858 0.86232 0.0
C1802 C 0.12937 0.28061 0.88665 0.0
C1803 C 0.15369 0.31383 0.85133 0.0
C1804 C 0.18401 0.31115 0.86433 0.0
H1805 H 0.10354 0.29932 0.85044 0.0
H1806 H 0.15064 0.32529 0.83063 0.0
S1807 S 0.20294 0.27134 0.93285 0.0
N1808 N 0.16374 0.26416 0.92664 0.0
N1809 N 0.21517 0.29333 0.90623 0.0
C1810 C 0.18686 0.29582 0.89102 0.0
C1811 C 0.15924 0.28019 0.90209 0.0
C1812 C 0.59284 0.71144 0.9994 0.0
C1813 C 0.62261 0.73203 1.00089 0.0
C1814 C 0.58926 0.68173 1.00995 0.0
C1815 C 0.61509 0.66945 1.02307 0.0
H1816 H 0.57158 0.71844 0.99009 0.0
H1817 H 0.56554 0.6683 1.00809 0.0
S1818 S 0.69897 0.71114 0.02988 0.0
N1819 N 0.67894 0.73508 1.0153 0.0
N1820 N 0.67235 0.68139 0.03459 0.0
C1821 C 0.64493 0.68954 0.02414 0.0
C1822 C 0.6486 0.71968 1.01338 0.0
C1823 C 0.1917 0.81135 0.73864 0.0
C1824 C 0.1825 0.83854 0.73273 0.0
C1825 C 0.22265 0.80994 0.75311 0.0
C1826 C 0.24645 0.83567 0.7633 0.0
H1827 H 0.17504 0.79069 0.73109 0.0
H1828 H 0.22802 0.78827 0.756 0.0
S1829 S 0.23432 0.91284 0.75559 0.0
N1830 N 0.2002 0.89195 0.73946 0.0
N1831 N 0.25686 0.88968 0.76715 0.0
C1832 C 0.23708 0.86304 0.75828 0.0
C1833 C 0.20582 0.86437 0.74297 0.0
C1834 C 0.09169 0.44888 0.48462 0.0
C1835 C 0.0968 0.42685 0.50508 0.0
C1836 C 0.09216 0.47966 0.49509 0.0
C1837 C 0.09865 0.49175 0.52703 0.0
H1838 H 0.08662 0.44214 0.45985 0.0
H1839 H 0.08744 0.49429 0.47756 0.0
S1840 S 0.11538 0.44499 0.59116 0.0
N1841 N 0.10912 0.42099 0.55979 0.0
N1842 N 0.11123 0.47724 0.57888 0.0
C1843 C 0.10439 0.47001 0.54765 0.0
C1844 C 0.10315 0.43852 0.53702 0.0
C1845 C 0.50703 0.32426 0.27061 0.0
C1846 C 0.50778 0.31436 0.23879 0.0
C1847 C 0.47811 0.32698 0.28339 0.0
C1848 C 0.44771 0.31923 0.26547 0.0
H1849 H 0.52915 0.33008 0.28595 0.0
H1850 H 0.47962 0.33463 0.30783 0.0
S1851 S 0.43566 0.29275 0.18082 0.0
N1852 N 0.4745 0.29782 0.18981 0.0
N1853 N 0.42138 0.30165 0.2133 0.0
C1854 C 0.44834 0.30938 0.23367 0.0
C1855 C 0.47771 0.30736 0.2206 0.0
C1856 C 0.71397 0.5971 0.50468 0.0
C1857 C 0.70336 0.60079 0.47382 0.0
C1858 C 0.69265 0.58362 0.52399 0.0
C1859 C 0.66039 0.57293 0.51277 0.0
H1860 H 0.73845 0.60577 0.51427 0.0
H1861 H 0.7011 0.58273 0.54827 0.0
S1862 S 0.62172 0.57578 0.43294 0.0
N1863 N 0.65927 0.5915 0.43226 0.0
N1864 N 0.6192 0.56621 0.46868 0.0
C1865 C 0.6499 0.57542 0.48157 0.0
C1866 C 0.67145 0.58944 0.46206 0.0
C1867 C 0.3718 0.89678 0.1729 0.0
C1868 C 0.37433 0.87711 0.14698 0.0
C1869 C 0.36906 0.88753 0.20286 0.0
C1870 C 0.3683 0.85792 0.20892 0.0
H1871 H 0.37152 0.91987 0.1702 0.0
H1872 H 0.36659 0.90381 0.22126 0.0
S1873 S 0.37792 0.79772 0.15092 0.0
N1874 N 0.37876 0.82674 0.13059 0.0
N1875 N 0.37306 0.80917 0.18681 0.0
C1876 C 0.37194 0.83802 0.18369 0.0
C1877 C 0.37511 0.84761 0.15292 0.0
C1878 C 0.15543 0.64904 0.95559 0.0
C1879 C 0.12732 0.64588 0.93511 0.0
C1880 C 0.15461 0.64067 0.98602 0.0
C1881 C 0.1257 0.62827 0.99652 0.0
H1882 H 0.17823 0.65693 0.94767 0.0
H1883 H 0.17684 0.6425 1.00077 0.0
S1884 S 1.04524 0.61664 0.95219 0.0
N1885 N 0.06965 0.63093 0.92796 0.0
N1886 N 0.06809 0.61499 0.98464 0.0
C1887 C 0.09732 0.62631 0.97666 0.0
C1888 C 0.09813 0.6352 0.94604 0.0
C1889 C 0.34855 0.26701 0.64565 0.0
C1890 C 0.37499 0.25515 0.63783 0.0
C1891 C 0.34631 0.27921 0.67663 0.0
C1892 C 0.37068 0.28098 0.70177 0.0
H1893 H 0.32878 0.26605 0.62784 0.0
H1894 H 0.32525 0.28755 0.6808 0.0
S1895 S 0.44559 0.25401 0.69442 0.0
N1896 N 0.42621 0.24646 0.65893 0.0
N1897 N 0.42266 0.2698 0.71554 0.0
C1898 C 0.39745 0.26974 0.69402 0.0
C1899 C 0.3994 0.25679 0.6628 0.0
C1900 C 0.69825 0.59569 0.31772 0.0
C1901 C 0.72885 0.61355 0.31969 0.0
C1902 C 0.67881 0.58893 0.28931 0.0
C1903 C 0.6896 0.59944 0.26203 0.0
H1904 H 0.68868 0.58786 0.33842 0.0
H1905 H 0.65481 0.57636 0.28883 0.0
S1906 S 0.76873 0.64428 0.25394 0.0
N1907 N 0.76992 0.63949 0.29139 0.0
N1908 N 0.7331 0.62673 0.2379 0.0
C1909 C 0.72071 0.61576 0.26324 0.0
C1910 C 0.74044 0.62286 0.29216 0.0
C1911 C 0.33231 0.86016 0.94324 0.0
C1912 C 0.36363 0.86631 0.95879 0.0
C1913 C 0.32589 0.85359 0.91032 0.0
C1914 C 0.35056 0.85409 0.89133 0.0
H1915 H 0.31256 0.86018 0.95665 0.0
H1916 H 0.30147 0.84882 0.89961 0.0
S1917 S 0.43666 0.86932 0.91989 0.0
N1918 N 0.41944 0.87198 0.95198 0.0
N1919 N 0.40756 0.86126 0.89084 0.0
C1920 C 0.38187 0.86043 0.90658 0.0
C1921 C 0.38834 0.86611 0.93998 0.0
C1922 C 0.12126 0.61285 0.77745 0.0
C1923 C 0.09336 0.62286 0.78178 0.0
C1924 C 0.12031 0.58465 0.76304 0.0
C1925 C 0.09124 0.56492 0.75207 0.0
H1926 H 0.14421 0.6275 0.78393 0.0
H1927 H 0.14286 0.57972 0.75826 0.0
S1928 S 1.01137 0.57716 0.76602 0.0
N1929 N 1.03564 0.609 0.77864 0.0
N1930 N 1.03416 0.55496 0.75387 0.0
C1931 C 0.06322 0.5733 0.75982 0.0
C1932 C 0.06411 0.60256 0.77365 0.0
C1933 C 0.3826 0.28441 0.44085 0.0
C1934 C 0.35804 0.26105 0.44714 0.0
C1935 C 0.3836 0.29597 0.41089 0.0
C1936 C 0.36061 0.28449 0.3847 0.0
H1937 H 0.4011 0.29434 0.45951 0.0
H1938 H 0.40283 0.31417 0.40828 0.0
S1939 S 0.29177 0.22235 0.38769 0.0
N1940 N 0.31028 0.22685 0.42356 0.0
N1941 N 0.31253 0.24719 0.3683 0.0
C1942 C 0.33631 0.26072 0.39072 0.0
C1943 C 0.33495 0.24949 0.42132 0.0
C1944 C 0.38456 0.64634 0.5304 0.0
C1945 C 0.39114 0.67615 0.52386 0.0
C1946 C 0.40593 0.62785 0.52584 0.0
C1947 C 0.43495 0.63838 0.51468 0.0
H1948 H 0.3629 0.63723 0.53984 0.0
H1949 H 0.40022 0.60546 0.53258 0.0
S1950 S 0.4624 0.71397 0.49112 0.0
N1951 N 0.42769 0.71496 0.50343 0.0
N1952 N 0.46829 0.68001 0.49488 0.0
C1953 C 0.44136 0.66783 0.50666 0.0
C1954 C 0.41929 0.68673 0.51112 0.0
C1955 C 0.95422 0.03855 0.57886 0.0
C1956 C 0.94143 1.00987 0.56317 0.0
C1957 C 0.98556 0.0548 0.57578 0.0
C1958 C 1.00625 0.04372 0.55652 0.0
H1959 H 0.94012 0.04847 0.5942 0.0
H1960 H 0.9937 0.07632 0.58889 0.0
S1961 S 0.98483 0.97035 0.50912 0.0
N1962 N 0.9531 0.97188 0.52673 0.0
N1963 N 1.01018 1.00173 0.52101 0.0
C1964 C 0.99348 1.01533 0.5404 0.0
C1965 C 0.9619 0.99878 0.54368 0.0
C1966 C 0.88173 0.11372 0.21701 0.0
C1967 C 0.90173 0.09589 0.2297 0.0
C1968 C 0.87701 0.13887 0.23428 0.0
C1969 C 0.89192 0.14688 0.26486 0.0
H1970 H 0.86934 0.10815 0.19365 0.0
H1971 H 0.86088 0.15174 0.22397 0.0
S1972 S 0.94889 0.10979 0.30813 0.0
N1973 N 0.93861 0.08955 0.27421 0.0
N1974 N 0.92887 0.13683 0.30676 0.0
C1975 C 0.91275 0.13008 0.27767 0.0
C1976 C 0.91792 0.10454 0.26 0.0
C1977 C 0.73547 0.15701 1.01623 0.0
C1978 C 0.73987 0.18385 0.03548 0.0
C1979 C 0.71063 0.133 1.01896 0.0
C1980 C 0.6903 0.1346 0.042 0.0
H1981 H 0.75161 0.15445 0.99919 0.0
H1982 H 0.70792 0.1128 1.00363 0.0
S1983 S 0.6915 0.20011 0.09776 0.0
N1984 N 0.72104 0.21099 0.0773 0.0
N1985 N 0.67562 0.16557 0.08372 0.0
C1986 C 0.69432 0.16145 0.06114 0.0
C1987 C 0.71878 0.18616 0.05755 0.0
C1988 C 0.22095 0.47135 0.31481 0.0
C1989 C 0.21653 0.47707 0.28331 0.0
C1990 C 0.24987 0.46568 0.32813 0.0
C1991 C 0.27528 0.46604 0.31046 0.0
H1992 H 0.20161 0.4701 0.32897 0.0
H1993 H 0.25176 0.45927 0.3517 0.0
S1994 S 0.27727 0.48222 0.22821 0.0
N1995 N 0.24116 0.48462 0.2356 0.0
N1996 N 0.2953 0.47413 0.26096 0.0
C1997 C 0.27184 0.47332 0.27965 0.0
C1998 C 0.24248 0.47876 0.26595 0.0
C1999 C 0.23683 0.51329 0.05927 0.0
C2000 C 0.26282 0.52115 0.08346 0.0
C2001 C 0.20944 0.52691 0.05792 0.0
C2002 C 0.20594 0.5497 0.08052 0.0
H2003 H 0.23749 0.49619 0.04099 0.0
H2004 H 0.1908 0.51945 0.0387 0.0
S2005 S 0.26597 0.57841 0.14971 0.0
N2006 N 0.28176 0.55339 0.13122 0.0
N2007 N 0.23191 0.5785 0.12872 0.0
C2008 C 0.2317 0.55757 0.1049 0.0
C2009 C 0.25937 0.5436 0.10635 0.0
C2010 C 0.91193 0.91565 0.2073 0.0
C2011 C 0.89414 0.93806 0.20443 0.0
C2012 C 0.90667 0.89528 0.2294 0.0
C2013 C 0.88298 0.89618 0.24896 0.0
H2014 H 0.93148 0.915 0.19371 0.0
H2015 H 0.92134 0.87878 0.23118 0.0
S2016 S 0.82721 0.94805 0.24848 0.0
N2017 N 0.85 0.95825 0.22131 0.0
N2018 N 0.83974 0.91954 0.26255 0.0
C2019 C 0.86353 0.91712 0.24496 0.0
C2020 C 0.869 0.938 0.22255 0.0
C2021 C 0.65088 0.10808 0.73168 0.0
C2022 C 0.65645 0.08199 0.74424 0.0
C2023 C 0.67432 0.13429 0.73616 0.0
C2024 C 0.70399 0.13516 0.75328 0.0
H2025 H 0.62849 0.10815 0.71797 0.0
H2026 H 0.66961 0.15371 0.72541 0.0
S2027 S 0.72946 0.0747 0.79438 0.0
N2028 N 0.69342 0.06002 0.77713 0.0
N2029 N 0.73693 0.10915 0.78501 0.0
C2030 C 0.70944 0.10983 0.76697 0.0
C2031 C 0.68582 0.08328 0.76257 0.0
loop_
_geom_bond_atom_site_label_1
_geom_bond_atom_site_label_2
_geom_bond_distance
_geom_bond_site_symmetry_2
_ccdc_geom_bond_type
O0 Cd1 2.223 . S
O0 C8 1.315 . S
Cd1 O0 2.223 . S
Cd1 O4 2.297 . S
Cd1 O5 2.439 . S
Cd1 O11 2.240 . S
Cd2 O3 2.240 . S
Cd2 O10 2.223 1_455 S
Cd2 O12 2.297 . S
Cd2 O13 2.439 . S
O3 Cd2 2.240 . S
O3 C8 1.279 . S
O4 Cd1 2.297 . S
O4 C6 1.247 . S
O5 Cd1 2.439 . S
O5 C6 1.208 . S
C6 O4 1.247 . S
C6 O5 1.208 . S
C7 O12 1.247 . S
C7 O13 1.208 . S
C8 O0 1.315 . S
C8 O3 1.279 . S
C9 O10 1.315 . S
C9 O11 1.279 1_655 S
O10 Cd2 2.223 1_655 S
O10 C9 1.315 . S
O11 Cd1 2.240 . S
O11 C9 1.279 1_455 S
O12 Cd2 2.297 . S
O12 C7 1.247 . S
O13 Cd2 2.439 . S
O13 C7 1.208 . S
O14 Cd15 2.223 . S
O14 C22 1.315 . S
Cd15 O14 2.223 . S
Cd15 O18 2.297 1_455 S
Cd15 O19 2.439 1_455 S
Cd15 O25 2.240 . S
Cd16 O17 2.240 . S
Cd16 O24 2.223 . S
Cd16 O26 2.297 . S
Cd16 O27 2.439 . S
O17 Cd16 2.240 . S
O17 C22 1.279 . S
O18 Cd15 2.297 1_655 S
O18 C20 1.247 . S
O19 Cd15 2.439 1_655 S
O19 C20 1.208 . S
C20 O18 1.247 . S
C20 O19 1.208 . S
C21 O26 1.247 . S
C21 O27 1.208 . S
C22 O14 1.315 . S
C22 O17 1.279 . S
C23 O24 1.315 . S
C23 O25 1.279 . S
O24 Cd16 2.223 . S
O24 C23 1.315 . S
O25 Cd15 2.240 . S
O25 C23 1.279 . S
O26 Cd16 2.297 . S
O26 C21 1.247 . S
O27 Cd16 2.439 . S
O27 C21 1.208 . S
O28 Cd29 2.223 . S
O28 C36 1.315 . S
Cd29 O28 2.223 . S
Cd29 O32 2.297 . S
Cd29 O33 2.439 . S
Cd29 O39 2.240 . S
Cd30 O31 2.240 . S
Cd30 O38 2.223 . S
Cd30 O40 2.297 . S
Cd30 O41 2.439 . S
O31 Cd30 2.240 . S
O31 C36 1.279 . S
O32 Cd29 2.297 . S
O32 C34 1.247 . S
O33 Cd29 2.439 . S
O33 C34 1.208 . S
C34 O32 1.247 . S
C34 O33 1.208 . S
C35 O40 1.247 . S
C35 O41 1.208 . S
C36 O28 1.315 . S
C36 O31 1.279 . S
C37 O38 1.315 . S
C37 O39 1.279 . S
O38 Cd30 2.223 . S
O38 C37 1.315 . S
O39 Cd29 2.240 . S
O39 C37 1.279 . S
O40 Cd30 2.297 . S
O40 C35 1.247 . S
O41 Cd30 2.439 . S
O41 C35 1.208 . S
O42 Cd43 2.223 . S
O42 C50 1.315 . S
Cd43 O42 2.223 . S
Cd43 O46 2.297 . S
Cd43 O47 2.439 . S
Cd43 O53 2.240 . S
Cd44 O45 2.240 . S
Cd44 O52 2.223 . S
Cd44 O54 2.297 . S
Cd44 O55 2.439 . S
O45 Cd44 2.240 . S
O45 C50 1.279 . S
O46 Cd43 2.297 . S
O46 C48 1.247 . S
O47 Cd43 2.439 . S
O47 C48 1.208 . S
C48 O46 1.247 . S
C48 O47 1.208 . S
C49 O54 1.247 . S
C49 O55 1.208 . S
C50 O42 1.315 . S
C50 O45 1.279 . S
C51 O52 1.315 . S
C51 O53 1.279 . S
O52 Cd44 2.223 . S
O52 C51 1.315 . S
O53 Cd43 2.240 . S
O53 C51 1.279 . S
O54 Cd44 2.297 . S
O54 C49 1.247 . S
O55 Cd44 2.439 . S
O55 C49 1.208 . S
O56 Cd57 2.223 . S
O56 C64 1.315 . S
Cd57 O56 2.223 . S
Cd57 O60 2.297 . S
Cd57 O61 2.439 . S
Cd57 O67 2.240 . S
Cd58 O59 2.240 . S
Cd58 O66 2.223 . S
Cd58 O68 2.297 . S
Cd58 O69 2.439 . S
O59 Cd58 2.240 . S
O59 C64 1.279 . S
O60 Cd57 2.297 . S
O60 C62 1.247 . S
O61 Cd57 2.439 . S
O61 C62 1.208 . S
C62 O60 1.247 . S
C62 O61 1.208 . S
C63 O68 1.247 . S
C63 O69 1.208 . S
C64 O56 1.315 . S
C64 O59 1.279 . S
C65 O66 1.315 . S
C65 O67 1.279 . S
O66 Cd58 2.223 . S
O66 C65 1.315 . S
O67 Cd57 2.240 . S
O67 C65 1.279 . S
O68 Cd58 2.297 . S
O68 C63 1.247 . S
O69 Cd58 2.439 . S
O69 C63 1.208 . S
O70 Cd71 2.223 . S
O70 C78 1.315 . S
Cd71 O70 2.223 . S
Cd71 O74 2.297 . S
Cd71 O75 2.439 . S
Cd71 O81 2.240 . S
Cd72 O73 2.240 . S
Cd72 O80 2.223 . S
Cd72 O82 2.297 . S
Cd72 O83 2.439 . S
O73 Cd72 2.240 . S
O73 C78 1.279 . S
O74 Cd71 2.297 . S
O74 C76 1.247 . S
O75 Cd71 2.439 . S
O75 C76 1.208 . S
C76 O74 1.247 . S
C76 O75 1.208 . S
C77 O82 1.247 . S
C77 O83 1.208 . S
C78 O70 1.315 . S
C78 O73 1.279 . S
C79 O80 1.315 . S
C79 O81 1.279 . S
O80 Cd72 2.223 . S
O80 C79 1.315 . S
O81 Cd71 2.240 . S
O81 C79 1.279 . S
O82 Cd72 2.297 . S
O82 C77 1.247 . S
O83 Cd72 2.439 . S
O83 C77 1.208 . S
O84 Cd85 2.223 . S
O84 C92 1.315 . S
Cd85 O84 2.223 . S
Cd85 O88 2.297 . S
Cd85 O89 2.439 . S
Cd85 O95 2.240 . S
Cd86 O87 2.240 . S
Cd86 O94 2.223 . S
Cd86 O96 2.297 . S
Cd86 O97 2.439 . S
O87 Cd86 2.240 . S
O87 C92 1.279 . S
O88 Cd85 2.297 . S
O88 C90 1.247 . S
O89 Cd85 2.439 . S
O89 C90 1.208 . S
C90 O88 1.247 . S
C90 O89 1.208 . S
C91 O96 1.247 . S
C91 O97 1.208 . S
C92 O84 1.315 . S
C92 O87 1.279 . S
C93 O94 1.315 . S
C93 O95 1.279 . S
O94 Cd86 2.223 . S
O94 C93 1.315 . S
O95 Cd85 2.240 . S
O95 C93 1.279 . S
O96 Cd86 2.297 . S
O96 C91 1.247 . S
O97 Cd86 2.439 . S
O97 C91 1.208 . S
O98 Cd99 2.223 1_655 S
O98 C106 1.315 . S
Cd99 O98 2.223 1_455 S
Cd99 O102 2.297 . S
Cd99 O103 2.439 . S
Cd99 O109 2.240 1_455 S
Cd100 O101 2.240 1_655 S
Cd100 O108 2.223 . S
Cd100 O110 2.297 . S
Cd100 O111 2.439 1_655 S
O101 Cd100 2.240 1_455 S
O101 C106 1.279 1_455 S
O102 Cd99 2.297 . S
O102 C104 1.247 . S
O103 Cd99 2.439 . S
O103 C104 1.208 . S
C104 O102 1.247 . S
C104 O103 1.208 . S
C105 O110 1.247 1_455 S
C105 O111 1.208 . S
C106 O98 1.315 . S
C106 O101 1.279 1_655 S
C107 O108 1.315 . S
C107 O109 1.279 . S
O108 Cd100 2.223 . S
O108 C107 1.315 . S
O109 Cd99 2.240 1_655 S
O109 C107 1.279 . S
O110 Cd100 2.297 . S
O110 C105 1.247 1_655 S
O111 Cd100 2.439 1_455 S
O111 C105 1.208 . S
O112 Cd113 2.223 . S
O112 C120 1.315 . S
Cd113 O112 2.223 . S
Cd113 O116 2.297 . S
Cd113 O117 2.439 . S
Cd113 O123 2.240 . S
Cd114 O115 2.240 . S
Cd114 O122 2.223 . S
Cd114 O124 2.297 . S
Cd114 O125 2.439 . S
O115 Cd114 2.240 . S
O115 C120 1.279 . S
O116 Cd113 2.297 . S
O116 C118 1.247 . S
O117 Cd113 2.439 . S
O117 C118 1.208 . S
C118 O116 1.247 . S
C118 O117 1.208 . S
C119 O124 1.247 . S
C119 O125 1.208 . S
C120 O112 1.315 . S
C120 O115 1.279 . S
C121 O122 1.315 . S
C121 O123 1.279 . S
O122 Cd114 2.223 . S
O122 C121 1.315 . S
O123 Cd113 2.240 . S
O123 C121 1.279 . S
O124 Cd114 2.297 . S
O124 C119 1.247 . S
O125 Cd114 2.439 . S
O125 C119 1.208 . S
O126 Cd127 2.223 . S
O126 C134 1.315 . S
Cd127 O126 2.223 . S
Cd127 O130 2.297 . S
Cd127 O131 2.439 . S
Cd127 O137 2.240 . S
Cd128 O129 2.240 . S
Cd128 O136 2.223 . S
Cd128 O138 2.297 . S
Cd128 O139 2.439 . S
O129 Cd128 2.240 . S
O129 C134 1.279 . S
O130 Cd127 2.297 . S
O130 C132 1.247 . S
O131 Cd127 2.439 . S
O131 C132 1.208 . S
C132 O130 1.247 . S
C132 O131 1.208 . S
C133 O138 1.247 . S
C133 O139 1.208 . S
C134 O126 1.315 . S
C134 O129 1.279 . S
C135 O136 1.315 . S
C135 O137 1.279 . S
O136 Cd128 2.223 . S
O136 C135 1.315 . S
O137 Cd127 2.240 . S
O137 C135 1.279 . S
O138 Cd128 2.297 . S
O138 C133 1.247 . S
O139 Cd128 2.439 . S
O139 C133 1.208 . S
O140 Cd141 2.223 . S
O140 C148 1.315 . S
Cd141 O140 2.223 . S
Cd141 O144 2.297 . S
Cd141 O145 2.439 . S
Cd141 O151 2.240 . S
Cd142 O143 2.240 . S
Cd142 O150 2.223 . S
Cd142 O152 2.297 . S
Cd142 O153 2.439 . S
O143 Cd142 2.240 . S
O143 C148 1.279 . S
O144 Cd141 2.297 . S
O144 C146 1.247 . S
O145 Cd141 2.439 . S
O145 C146 1.208 . S
C146 O144 1.247 . S
C146 O145 1.208 . S
C147 O152 1.247 . S
C147 O153 1.208 . S
C148 O140 1.315 . S
C148 O143 1.279 . S
C149 O150 1.315 . S
C149 O151 1.279 . S
O150 Cd142 2.223 . S
O150 C149 1.315 . S
O151 Cd141 2.240 . S
O151 C149 1.279 . S
O152 Cd142 2.297 . S
O152 C147 1.247 . S
O153 Cd142 2.439 . S
O153 C147 1.208 . S
O154 Cd155 2.223 . S
O154 C162 1.315 . S
Cd155 O154 2.223 . S
Cd155 O158 2.297 . S
Cd155 O159 2.439 . S
Cd155 O165 2.240 . S
Cd156 O157 2.240 . S
Cd156 O164 2.223 . S
Cd156 O166 2.297 1_554 S
Cd156 O167 2.439 1_554 S
O157 Cd156 2.240 . S
O157 C162 1.279 . S
O158 Cd155 2.297 . S
O158 C160 1.247 . S
O159 Cd155 2.439 . S
O159 C160 1.208 . S
C160 O158 1.247 . S
C160 O159 1.208 . S
C161 O166 1.247 . S
C161 O167 1.208 . S
C162 O154 1.315 . S
C162 O157 1.279 . S
C163 O164 1.315 . S
C163 O165 1.279 . S
O164 Cd156 2.223 . S
O164 C163 1.315 . S
O165 Cd155 2.240 . S
O165 C163 1.279 . S
O166 Cd156 2.297 1_556 S
O166 C161 1.247 . S
O167 Cd156 2.439 1_556 S
O167 C161 1.208 . S
O168 Cd169 2.223 . S
O168 C176 1.315 . S
Cd169 O168 2.223 . S
Cd169 O172 2.297 . S
Cd169 O173 2.439 . S
Cd169 O179 2.240 . S
Cd170 O171 2.240 . S
Cd170 O178 2.223 . S
Cd170 O180 2.297 1_554 S
Cd170 O181 2.439 1_554 S
O171 Cd170 2.240 . S
O171 C176 1.279 . S
O172 Cd169 2.297 . S
O172 C174 1.247 . S
O173 Cd169 2.439 . S
O173 C174 1.208 . S
C174 O172 1.247 . S
C174 O173 1.208 . S
C175 O180 1.247 . S
C175 O181 1.208 . S
C176 O168 1.315 . S
C176 O171 1.279 . S
C177 O178 1.315 . S
C177 O179 1.279 . S
O178 Cd170 2.223 . S
O178 C177 1.315 . S
O179 Cd169 2.240 . S
O179 C177 1.279 . S
O180 Cd170 2.297 1_556 S
O180 C175 1.247 . S
O181 Cd170 2.439 1_556 S
O181 C175 1.208 . S
O182 Cd183 2.223 . S
O182 C190 1.315 . S
Cd183 O182 2.223 . S
Cd183 O186 2.297 . S
Cd183 O187 2.424 1_554 S
Cd183 O193 2.240 1_554 S
Cd184 O185 2.240 1_556 S
Cd184 O192 2.224 1_556 S
Cd184 O194 2.297 . S
Cd184 O195 2.439 . S
O185 Cd184 2.240 1_554 S
O185 C190 1.279 . S
O186 Cd183 2.297 . S
O186 C188 1.247 . S
O187 Cd183 2.424 1_556 S
O187 C188 1.190 1_556 S
C188 O186 1.247 . S
C188 O187 1.190 1_554 S
C189 O194 1.247 . S
C189 O195 1.208 . S
C190 O182 1.315 . S
C190 O185 1.279 . S
C191 O192 1.315 1_556 S
C191 O193 1.279 . S
O192 Cd184 2.224 1_554 S
O192 C191 1.315 1_554 S
O193 Cd183 2.240 1_556 S
O193 C191 1.279 . S
O194 Cd184 2.297 . S
O194 C189 1.247 . S
O195 Cd184 2.439 . S
O195 C189 1.208 . S
O196 Cd197 2.223 . S
O196 C204 1.315 . S
Cd197 O196 2.223 . S
Cd197 O200 2.297 . S
Cd197 O201 2.439 . S
Cd197 O207 2.240 . S
Cd198 O199 2.240 . S
Cd198 O206 2.223 . S
Cd198 O208 2.297 . S
Cd198 O209 2.439 . S
O199 Cd198 2.240 . S
O199 C204 1.279 . S
O200 Cd197 2.297 . S
O200 C202 1.247 . S
O201 Cd197 2.439 . S
O201 C202 1.208 . S
C202 O200 1.247 . S
C202 O201 1.208 . S
C203 O208 1.247 . S
C203 O209 1.208 . S
C204 O196 1.315 . S
C204 O199 1.279 . S
C205 O206 1.315 . S
C205 O207 1.279 . S
O206 Cd198 2.223 . S
O206 C205 1.315 . S
O207 Cd197 2.240 . S
O207 C205 1.279 . S
O208 Cd198 2.297 . S
O208 C203 1.247 . S
O209 Cd198 2.439 . S
O209 C203 1.208 . S
O210 Cd211 2.223 . S
O210 C218 1.315 . S
Cd211 O210 2.223 . S
Cd211 O214 2.297 . S
Cd211 O215 2.439 . S
Cd211 O221 2.240 . S
Cd212 O213 2.240 . S
Cd212 O220 2.223 . S
Cd212 O222 2.297 . S
Cd212 O223 2.439 . S
O213 Cd212 2.240 . S
O213 C218 1.279 . S
O214 Cd211 2.297 . S
O214 C216 1.247 . S
O215 Cd211 2.439 . S
O215 C216 1.208 . S
C216 O214 1.247 . S
C216 O215 1.208 . S
C217 O222 1.247 . S
C217 O223 1.208 . S
C218 O210 1.315 . S
C218 O213 1.279 . S
C219 O220 1.315 . S
C219 O221 1.279 . S
O220 Cd212 2.223 . S
O220 C219 1.315 . S
O221 Cd211 2.240 . S
O221 C219 1.279 . S
O222 Cd212 2.297 . S
O222 C217 1.247 . S
O223 Cd212 2.439 . S
O223 C217 1.208 . S
O224 Cd225 2.222 . S
O224 C232 1.315 . S
Cd225 O224 2.222 . S
Cd225 O228 2.301 1_565 S
Cd225 O229 2.441 1_565 S
Cd225 O235 2.237 . S
Cd226 O227 2.240 1_565 S
Cd226 O234 2.223 . S
Cd226 O236 2.297 . S
Cd226 O237 2.439 1_565 S
O227 Cd226 2.240 1_545 S
O227 C232 1.279 1_545 S
O228 Cd225 2.301 1_545 S
O228 C230 1.247 . S
O229 Cd225 2.441 1_545 S
O229 C230 1.208 . S
C230 O228 1.247 . S
C230 O229 1.208 . S
C231 O236 1.247 . S
C231 O237 1.208 1_565 S
C232 O224 1.315 . S
C232 O227 1.279 1_565 S
C233 O234 1.315 . S
C233 O235 1.279 . S
O234 Cd226 2.223 . S
O234 C233 1.315 . S
O235 Cd225 2.237 . S
O235 C233 1.279 . S
O236 Cd226 2.297 . S
O236 C231 1.247 . S
O237 Cd226 2.439 1_545 S
O237 C231 1.208 1_545 S
O238 Cd239 2.223 . S
O238 C246 1.315 . S
Cd239 O238 2.223 . S
Cd239 O242 2.297 . S
Cd239 O243 2.439 . S
Cd239 O249 2.240 . S
Cd240 O241 2.240 . S
Cd240 O248 2.223 . S
Cd240 O250 2.297 . S
Cd240 O251 2.439 . S
O241 Cd240 2.240 . S
O241 C246 1.279 . S
O242 Cd239 2.297 . S
O242 C244 1.247 . S
O243 Cd239 2.439 . S
O243 C244 1.208 . S
C244 O242 1.247 . S
C244 O243 1.208 . S
C245 O250 1.247 . S
C245 O251 1.208 . S
C246 O238 1.315 . S
C246 O241 1.279 . S
C247 O248 1.315 . S
C247 O249 1.279 . S
O248 Cd240 2.223 . S
O248 C247 1.315 . S
O249 Cd239 2.240 . S
O249 C247 1.279 . S
O250 Cd240 2.297 . S
O250 C245 1.247 . S
O251 Cd240 2.439 . S
O251 C245 1.208 . S
O252 Cd253 2.223 . S
O252 C260 1.315 . S
Cd253 O252 2.223 . S
Cd253 O256 2.297 . S
Cd253 O257 2.439 . S
Cd253 O263 2.240 . S
Cd254 O255 2.240 . S
Cd254 O262 2.223 . S
Cd254 O264 2.297 . S
Cd254 O265 2.439 . S
O255 Cd254 2.240 . S
O255 C260 1.279 . S
O256 Cd253 2.297 . S
O256 C258 1.247 . S
O257 Cd253 2.439 . S
O257 C258 1.208 . S
C258 O256 1.247 . S
C258 O257 1.208 . S
C259 O264 1.247 . S
C259 O265 1.208 . S
C260 O252 1.315 . S
C260 O255 1.279 . S
C261 O262 1.315 . S
C261 O263 1.279 . S
O262 Cd254 2.223 . S
O262 C261 1.315 . S
O263 Cd253 2.240 . S
O263 C261 1.279 . S
O264 Cd254 2.297 . S
O264 C259 1.247 . S
O265 Cd254 2.439 . S
O265 C259 1.208 . S
O266 Cd267 2.223 . S
O266 C274 1.315 . S
Cd267 O266 2.223 . S
Cd267 O270 2.297 1_545 S
Cd267 O271 2.439 1_545 S
Cd267 O277 2.240 . S
Cd268 O269 2.240 1_545 S
Cd268 O276 2.223 . S
Cd268 O278 2.297 . S
Cd268 O279 2.439 . S
O269 Cd268 2.240 1_565 S
O269 C274 1.279 1_565 S
O270 Cd267 2.297 1_565 S
O270 C272 1.247 . S
O271 Cd267 2.439 1_565 S
O271 C272 1.208 . S
C272 O270 1.247 . S
C272 O271 1.208 . S
C273 O278 1.247 . S
C273 O279 1.208 . S
C274 O266 1.315 . S
C274 O269 1.279 1_545 S
C275 O276 1.315 . S
C275 O277 1.279 . S
O276 Cd268 2.223 . S
O276 C275 1.315 . S
O277 Cd267 2.240 . S
O277 C275 1.279 . S
O278 Cd268 2.297 . S
O278 C273 1.247 . S
O279 Cd268 2.439 . S
O279 C273 1.208 . S
O280 Cd281 2.223 . S
O280 C288 1.315 . S
Cd281 O280 2.223 . S
Cd281 O284 2.297 . S
Cd281 O285 2.439 . S
Cd281 O291 2.240 . S
Cd282 O283 2.240 . S
Cd282 O290 2.223 . S
Cd282 O292 2.297 1_554 S
Cd282 O293 2.439 1_554 S
O283 Cd282 2.240 . S
O283 C288 1.279 . S
O284 Cd281 2.297 . S
O284 C286 1.247 . S
O285 Cd281 2.439 . S
O285 C286 1.208 . S
C286 O284 1.247 . S
C286 O285 1.208 . S
C287 O292 1.247 . S
C287 O293 1.208 . S
C288 O280 1.315 . S
C288 O283 1.279 . S
C289 O290 1.315 . S
C289 O291 1.279 . S
O290 Cd282 2.223 . S
O290 C289 1.315 . S
O291 Cd281 2.240 . S
O291 C289 1.279 . S
O292 Cd282 2.297 1_556 S
O292 C287 1.247 . S
O293 Cd282 2.439 1_556 S
O293 C287 1.208 . S
O294 Cd295 2.223 . S
O294 C302 1.315 1_655 S
Cd295 O294 2.223 . S
Cd295 O298 2.297 . S
Cd295 O299 2.439 . S
Cd295 O305 2.240 . S
Cd296 O297 2.240 . S
Cd296 O304 2.223 . S
Cd296 O306 2.297 . S
Cd296 O307 2.439 . S
O297 Cd296 2.240 . S
O297 C302 1.279 . S
O298 Cd295 2.297 . S
O298 C300 1.247 . S
O299 Cd295 2.439 . S
O299 C300 1.208 . S
C300 O298 1.247 . S
C300 O299 1.208 . S
C301 O306 1.247 . S
C301 O307 1.208 . S
C302 O294 1.315 1_455 S
C302 O297 1.279 . S
C303 O304 1.315 1_655 S
C303 O305 1.279 . S
O304 Cd296 2.223 . S
O304 C303 1.315 1_455 S
O305 Cd295 2.240 . S
O305 C303 1.279 . S
O306 Cd296 2.297 . S
O306 C301 1.247 . S
O307 Cd296 2.439 . S
O307 C301 1.208 . S
O308 Cd309 2.223 . S
O308 C316 1.315 . S
Cd309 O308 2.223 . S
Cd309 O312 2.297 . S
Cd309 O313 2.439 . S
Cd309 O319 2.240 . S
Cd310 O311 2.240 . S
Cd310 O318 2.223 . S
Cd310 O320 2.297 . S
Cd310 O321 2.439 . S
O311 Cd310 2.240 . S
O311 C316 1.279 . S
O312 Cd309 2.297 . S
O312 C314 1.247 . S
O313 Cd309 2.439 . S
O313 C314 1.208 . S
C314 O312 1.247 . S
C314 O313 1.208 . S
C315 O320 1.247 . S
C315 O321 1.208 . S
C316 O308 1.315 . S
C316 O311 1.279 . S
C317 O318 1.315 . S
C317 O319 1.279 . S
O318 Cd310 2.223 . S
O318 C317 1.315 . S
O319 Cd309 2.240 . S
O319 C317 1.279 . S
O320 Cd310 2.297 . S
O320 C315 1.247 . S
O321 Cd310 2.439 . S
O321 C315 1.208 . S
O322 Cd323 2.223 . S
O322 C330 1.315 . S
Cd323 O322 2.223 . S
Cd323 O326 2.297 . S
Cd323 O327 2.439 . S
Cd323 O333 2.240 . S
Cd324 O325 2.240 . S
Cd324 O332 2.223 . S
Cd324 O334 2.297 . S
Cd324 O335 2.439 . S
O325 Cd324 2.240 . S
O325 C330 1.279 . S
O326 Cd323 2.297 . S
O326 C328 1.247 . S
O327 Cd323 2.439 . S
O327 C328 1.208 . S
C328 O326 1.247 . S
C328 O327 1.208 . S
C329 O334 1.247 . S
C329 O335 1.208 . S
C330 O322 1.315 . S
C330 O325 1.279 . S
C331 O332 1.315 . S
C331 O333 1.279 . S
O332 Cd324 2.223 . S
O332 C331 1.315 . S
O333 Cd323 2.240 . S
O333 C331 1.279 . S
O334 Cd324 2.297 . S
O334 C329 1.247 . S
O335 Cd324 2.439 . S
O335 C329 1.208 . S
Tb336 C346 2.825 1_454 S
Tb336 O347 2.347 . S
Tb336 O350 2.366 . S
Tb336 O355 2.418 1_554 S
Tb336 O356 2.384 . S
Tb336 O359 2.479 1_454 S
Tb336 O360 2.471 1_455 S
Eu337 O348 2.418 . S
Eu337 O349 2.384 . S
Eu337 O352 2.479 . S
Eu337 O353 2.471 . S
Eu337 O354 2.347 . S
Eu337 O357 2.366 . S
Eu337 C367 2.825 . S
C338 O354 1.259 1_556 S
C338 O355 1.265 . S
C339 O356 1.255 . S
C339 O357 1.265 . S
C340 C342 1.380 . S
C340 C343 1.374 1_556 S
C340 C346 1.507 . S
C341 C342 1.384 . S
C341 C345 1.387 . S
C341 H368 0.930 . S
C342 C340 1.380 . S
C342 C341 1.384 . S
C342 H369 0.931 . S
C343 C340 1.374 1_554 S
C343 C344 1.390 1_554 S
C343 H370 0.930 . S
C344 C343 1.390 1_556 S
C344 C345 1.391 . S
C344 H371 0.930 1_556 S
C345 C341 1.387 . S
C345 C344 1.391 . S
C346 Tb336 2.825 1_656 S
C346 C340 1.507 . S
C346 O359 1.238 . S
C346 O360 1.247 1_556 S
O347 Tb336 2.347 . S
O347 C351 1.259 . S
O348 Eu337 2.418 . S
O348 C351 1.265 . S
O349 Eu337 2.384 . S
O349 C358 1.255 . S
O350 Tb336 2.366 . S
O350 C358 1.265 . S
C351 O347 1.259 . S
C351 O348 1.265 . S
O352 Eu337 2.479 . S
O352 C367 1.238 . S
O353 Eu337 2.471 . S
O353 C367 1.247 . S
O354 Eu337 2.347 . S
O354 C338 1.259 1_554 S
O355 Tb336 2.418 1_556 S
O355 C338 1.265 . S
O356 Tb336 2.384 . S
O356 C339 1.255 . S
O357 Eu337 2.366 . S
O357 C339 1.265 . S
C358 O349 1.255 . S
C358 O350 1.265 . S
O359 Tb336 2.479 1_656 S
O359 C346 1.238 . S
O360 Tb336 2.471 1_655 S
O360 C346 1.247 1_554 S
C361 C364 1.380 . S
C361 C365 1.374 . S
C361 C367 1.507 . S
C362 C363 1.387 . S
C362 C366 1.391 . S
C363 C362 1.387 . S
C363 C364 1.384 . S
C363 H372 0.930 . S
C364 C361 1.380 . S
C364 C363 1.384 . S
C364 H373 0.931 . S
C365 C361 1.374 . S
C365 C366 1.390 . S
C365 H374 0.930 . S
C366 C362 1.391 . S
C366 C365 1.390 . S
C366 H375 0.930 . S
C367 Eu337 2.825 . S
C367 O352 1.238 . S
C367 O353 1.247 . S
C367 C361 1.507 . S
H368 C341 0.930 . S
H369 C342 0.931 . S
H370 C343 0.930 . S
H371 C344 0.930 1_554 S
H372 C363 0.930 . S
H373 C364 0.931 . S
H374 C365 0.930 . S
H375 C366 0.930 . S
Tb376 C386 2.825 . S
Tb376 O387 2.347 . S
Tb376 O390 2.366 . S
Tb376 O395 2.418 . S
Tb376 O396 2.384 . S
Tb376 O399 2.479 . S
Tb376 O400 2.471 . S
Eu377 O388 2.418 . S
Eu377 O389 2.384 . S
Eu377 O392 2.479 . S
Eu377 O393 2.471 . S
Eu377 O394 2.347 . S
Eu377 O397 2.366 . S
Eu377 C407 2.825 . S
C378 O394 1.259 . S
C378 O395 1.265 . S
C379 O396 1.255 . S
C379 O397 1.265 . S
C380 C382 1.380 . S
C380 C383 1.374 . S
C380 C386 1.507 . S
C381 C382 1.384 . S
C381 C385 1.387 . S
C381 H408 0.930 . S
C382 C380 1.380 . S
C382 C381 1.384 . S
C382 H409 0.931 . S
C383 C380 1.374 . S
C383 C384 1.390 . S
C383 H410 0.930 . S
C384 C383 1.390 . S
C384 C385 1.391 . S
C384 H411 0.930 . S
C385 C381 1.387 . S
C385 C384 1.391 . S
C386 Tb376 2.825 . S
C386 C380 1.507 . S
C386 O399 1.238 . S
C386 O400 1.247 . S
O387 Tb376 2.347 . S
O387 C391 1.259 . S
O388 Eu377 2.418 . S
O388 C391 1.265 . S
O389 Eu377 2.384 . S
O389 C398 1.255 . S
O390 Tb376 2.366 . S
O390 C398 1.265 . S
C391 O387 1.259 . S
C391 O388 1.265 . S
O392 Eu377 2.479 . S
O392 C407 1.238 . S
O393 Eu377 2.471 . S
O393 C407 1.247 . S
O394 Eu377 2.347 . S
O394 C378 1.259 . S
O395 Tb376 2.418 . S
O395 C378 1.265 . S
O396 Tb376 2.384 . S
O396 C379 1.255 . S
O397 Eu377 2.366 . S
O397 C379 1.265 . S
C398 O389 1.255 . S
C398 O390 1.265 . S
O399 Tb376 2.479 . S
O399 C386 1.238 . S
O400 Tb376 2.471 . S
O400 C386 1.247 . S
C401 C404 1.380 . S
C401 C405 1.374 . S
C401 C407 1.507 . S
C402 C403 1.387 . S
C402 C406 1.391 . S
C403 C402 1.387 . S
C403 C404 1.384 . S
C403 H412 0.930 . S
C404 C401 1.380 . S
C404 C403 1.384 . S
C404 H413 0.931 . S
C405 C401 1.374 . S
C405 C406 1.390 . S
C405 H414 0.930 . S
C406 C402 1.391 . S
C406 C405 1.390 . S
C406 H415 0.930 . S
C407 Eu377 2.825 . S
C407 O392 1.238 . S
C407 O393 1.247 . S
C407 C401 1.507 . S
H408 C381 0.930 . S
H409 C382 0.931 . S
H410 C383 0.930 . S
H411 C384 0.930 . S
H412 C403 0.930 . S
H413 C404 0.931 . S
H414 C405 0.930 . S
H415 C406 0.930 . S
Tb416 C426 2.825 1_545 S
Tb416 O427 2.347 . S
Tb416 O430 2.366 . S
Tb416 O435 2.418 . S
Tb416 O436 2.384 . S
Tb416 O439 2.479 1_545 S
Tb416 O440 2.471 1_545 S
Eu417 O428 2.418 . S
Eu417 O429 2.384 . S
Eu417 O432 2.479 . S
Eu417 O433 2.471 . S
Eu417 O434 2.347 . S
Eu417 O437 2.366 . S
Eu417 C447 2.825 . S
C418 O434 1.259 . S
C418 O435 1.265 . S
C419 O436 1.255 . S
C419 O437 1.265 . S
C420 C422 1.380 . S
C420 C423 1.374 . S
C420 C426 1.507 . S
C421 C422 1.384 . S
C421 C425 1.387 . S
C421 H448 0.930 . S
C422 C420 1.380 . S
C422 C421 1.384 . S
C422 H449 0.931 . S
C423 C420 1.374 . S
C423 C424 1.390 . S
C423 H450 0.930 . S
C424 C423 1.390 . S
C424 C425 1.391 . S
C424 H451 0.930 . S
C425 C421 1.387 . S
C425 C424 1.391 . S
C426 Tb416 2.825 1_565 S
C426 C420 1.507 . S
C426 O439 1.238 . S
C426 O440 1.247 . S
O427 Tb416 2.347 . S
O427 C431 1.259 . S
O428 Eu417 2.418 . S
O428 C431 1.265 . S
O429 Eu417 2.384 . S
O429 C438 1.255 . S
O430 Tb416 2.366 . S
O430 C438 1.265 . S
C431 O427 1.259 . S
C431 O428 1.265 . S
O432 Eu417 2.479 . S
O432 C447 1.238 . S
O433 Eu417 2.471 . S
O433 C447 1.247 . S
O434 Eu417 2.347 . S
O434 C418 1.259 . S
O435 Tb416 2.418 . S
O435 C418 1.265 . S
O436 Tb416 2.384 . S
O436 C419 1.255 . S
O437 Eu417 2.366 . S
O437 C419 1.265 . S
C438 O429 1.255 . S
C438 O430 1.265 . S
O439 Tb416 2.479 1_565 S
O439 C426 1.238 . S
O440 Tb416 2.471 1_565 S
O440 C426 1.247 . S
C441 C444 1.380 . S
C441 C445 1.374 . S
C441 C447 1.507 . S
C442 C443 1.387 . S
C442 C446 1.391 . S
C443 C442 1.387 . S
C443 C444 1.384 . S
C443 H452 0.930 . S
C444 C441 1.380 . S
C444 C443 1.384 . S
C444 H453 0.931 . S
C445 C441 1.374 . S
C445 C446 1.390 . S
C445 H454 0.930 . S
C446 C442 1.391 . S
C446 C445 1.390 . S
C446 H455 0.930 . S
C447 Eu417 2.825 . S
C447 O432 1.238 . S
C447 O433 1.247 . S
C447 C441 1.507 . S
H448 C421 0.930 . S
H449 C422 0.931 . S
H450 C423 0.930 . S
H451 C424 0.930 . S
H452 C443 0.930 . S
H453 C444 0.931 . S
H454 C445 0.930 . S
H455 C446 0.930 . S
Tb456 C466 2.825 . S
Tb456 O467 2.347 . S
Tb456 O470 2.366 . S
Tb456 O475 2.418 . S
Tb456 O476 2.384 . S
Tb456 O479 2.479 . S
Tb456 O480 2.471 . S
Eu457 O468 2.418 . S
Eu457 O469 2.384 . S
Eu457 O472 2.479 . S
Eu457 O473 2.471 . S
Eu457 O474 2.347 . S
Eu457 O477 2.366 . S
Eu457 C487 2.825 . S
C458 O474 1.259 . S
C458 O475 1.265 . S
C459 O476 1.255 . S
C459 O477 1.265 . S
C460 C462 1.380 . S
C460 C463 1.374 . S
C460 C466 1.507 . S
C461 C462 1.384 . S
C461 C465 1.387 . S
C461 H488 0.930 . S
C462 C460 1.380 . S
C462 C461 1.384 . S
C462 H489 0.931 . S
C463 C460 1.374 . S
C463 C464 1.390 . S
C463 H490 0.930 . S
C464 C463 1.390 . S
C464 C465 1.391 . S
C464 H491 0.930 . S
C465 C461 1.387 . S
C465 C464 1.391 . S
C466 Tb456 2.825 . S
C466 C460 1.507 . S
C466 O479 1.238 . S
C466 O480 1.247 . S
O467 Tb456 2.347 . S
O467 C471 1.259 . S
O468 Eu457 2.418 . S
O468 C471 1.265 . S
O469 Eu457 2.384 . S
O469 C478 1.255 . S
O470 Tb456 2.366 . S
O470 C478 1.265 . S
C471 O467 1.259 . S
C471 O468 1.265 . S
O472 Eu457 2.479 . S
O472 C487 1.238 . S
O473 Eu457 2.471 . S
O473 C487 1.247 . S
O474 Eu457 2.347 . S
O474 C458 1.259 . S
O475 Tb456 2.418 . S
O475 C458 1.265 . S
O476 Tb456 2.384 . S
O476 C459 1.255 . S
O477 Eu457 2.366 . S
O477 C459 1.265 . S
C478 O469 1.255 . S
C478 O470 1.265 . S
O479 Tb456 2.479 . S
O479 C466 1.238 . S
O480 Tb456 2.471 . S
O480 C466 1.247 . S
C481 C484 1.380 . S
C481 C485 1.374 . S
C481 C487 1.507 . S
C482 C483 1.387 . S
C482 C486 1.391 . S
C483 C482 1.387 . S
C483 C484 1.384 . S
C483 H492 0.930 . S
C484 C481 1.380 . S
C484 C483 1.384 . S
C484 H493 0.931 . S
C485 C481 1.374 . S
C485 C486 1.390 . S
C485 H494 0.930 . S
C486 C482 1.391 . S
C486 C485 1.390 . S
C486 H495 0.930 . S
C487 Eu457 2.825 . S
C487 O472 1.238 . S
C487 O473 1.247 . S
C487 C481 1.507 . S
H488 C461 0.930 . S
H489 C462 0.931 . S
H490 C463 0.930 . S
H491 C464 0.930 . S
H492 C483 0.930 . S
H493 C484 0.931 . S
H494 C485 0.930 . S
H495 C486 0.930 . S
Tb496 C506 2.825 . S
Tb496 O507 2.347 . S
Tb496 O510 2.366 . S
Tb496 O515 2.418 . S
Tb496 O516 2.384 . S
Tb496 O519 2.479 . S
Tb496 O520 2.471 . S
Eu497 O508 2.418 . S
Eu497 O509 2.384 . S
Eu497 O512 2.479 . S
Eu497 O513 2.471 . S
Eu497 O514 2.347 . S
Eu497 O517 2.366 . S
Eu497 C527 2.825 . S
C498 O514 1.259 . S
C498 O515 1.265 . S
C499 O516 1.255 . S
C499 O517 1.265 . S
C500 C502 1.380 . S
C500 C503 1.374 1_455 S
C500 C506 1.507 . S
C501 C502 1.384 . S
C501 C505 1.387 1_455 S
C501 H528 0.930 . S
C502 C500 1.380 . S
C502 C501 1.384 . S
C502 H529 0.931 . S
C503 C500 1.374 1_655 S
C503 C504 1.390 . S
C503 H530 0.930 . S
C504 C503 1.390 . S
C504 C505 1.391 . S
C504 H531 0.930 . S
C505 C501 1.387 1_655 S
C505 C504 1.391 . S
C506 Tb496 2.825 . S
C506 C500 1.507 . S
C506 O519 1.238 . S
C506 O520 1.247 . S
O507 Tb496 2.347 . S
O507 C511 1.259 . S
O508 Eu497 2.418 . S
O508 C511 1.265 . S
O509 Eu497 2.384 . S
O509 C518 1.255 . S
O510 Tb496 2.366 . S
O510 C518 1.265 . S
C511 O507 1.259 . S
C511 O508 1.265 . S
O512 Eu497 2.479 . S
O512 C527 1.238 . S
O513 Eu497 2.471 . S
O513 C527 1.247 . S
O514 Eu497 2.347 . S
O514 C498 1.259 . S
O515 Tb496 2.418 . S
O515 C498 1.265 . S
O516 Tb496 2.384 . S
O516 C499 1.255 . S
O517 Eu497 2.366 . S
O517 C499 1.265 . S
C518 O509 1.255 . S
C518 O510 1.265 . S
O519 Tb496 2.479 . S
O519 C506 1.238 . S
O520 Tb496 2.471 . S
O520 C506 1.247 . S
C521 C524 1.380 . S
C521 C525 1.374 . S
C521 C527 1.507 . S
C522 C523 1.387 . S
C522 C526 1.391 . S
C523 C522 1.387 . S
C523 C524 1.384 . S
C523 H532 0.930 . S
C524 C521 1.380 . S
C524 C523 1.384 . S
C524 H533 0.931 . S
C525 C521 1.374 . S
C525 C526 1.390 . S
C525 H534 0.930 . S
C526 C522 1.391 . S
C526 C525 1.390 . S
C526 H535 0.930 . S
C527 Eu497 2.825 . S
C527 O512 1.238 . S
C527 O513 1.247 . S
C527 C521 1.507 . S
H528 C501 0.930 . S
H529 C502 0.931 . S
H530 C503 0.930 . S
H531 C504 0.930 . S
H532 C523 0.930 . S
H533 C524 0.931 . S
H534 C525 0.930 . S
H535 C526 0.930 . S
Tb536 C546 2.825 . S
Tb536 O547 2.347 . S
Tb536 O550 2.366 . S
Tb536 O555 2.418 . S
Tb536 O556 2.384 . S
Tb536 O559 2.479 . S
Tb536 O560 2.471 . S
Eu537 O548 2.418 . S
Eu537 O549 2.384 . S
Eu537 O552 2.479 . S
Eu537 O553 2.471 . S
Eu537 O554 2.347 . S
Eu537 O557 2.366 . S
Eu537 C567 2.825 . S
C538 O554 1.259 . S
C538 O555 1.265 . S
C539 O556 1.255 . S
C539 O557 1.265 . S
C540 C542 1.380 . S
C540 C543 1.374 . S
C540 C546 1.507 . S
C541 C542 1.384 . S
C541 C545 1.387 . S
C541 H568 0.930 . S
C542 C540 1.380 . S
C542 C541 1.384 . S
C542 H569 0.931 . S
C543 C540 1.374 . S
C543 C544 1.390 . S
C543 H570 0.930 . S
C544 C543 1.390 . S
C544 C545 1.391 . S
C544 H571 0.930 . S
C545 C541 1.387 . S
C545 C544 1.391 . S
C546 Tb536 2.825 . S
C546 C540 1.507 . S
C546 O559 1.238 . S
C546 O560 1.247 . S
O547 Tb536 2.347 . S
O547 C551 1.259 . S
O548 Eu537 2.418 . S
O548 C551 1.265 . S
O549 Eu537 2.384 . S
O549 C558 1.255 . S
O550 Tb536 2.366 . S
O550 C558 1.265 . S
C551 O547 1.259 . S
C551 O548 1.265 . S
O552 Eu537 2.479 . S
O552 C567 1.238 . S
O553 Eu537 2.471 . S
O553 C567 1.247 . S
O554 Eu537 2.347 . S
O554 C538 1.259 . S
O555 Tb536 2.418 . S
O555 C538 1.265 . S
O556 Tb536 2.384 . S
O556 C539 1.255 . S
O557 Eu537 2.366 . S
O557 C539 1.265 . S
C558 O549 1.255 . S
C558 O550 1.265 . S
O559 Tb536 2.479 . S
O559 C546 1.238 . S
O560 Tb536 2.471 . S
O560 C546 1.247 . S
C561 C564 1.380 . S
C561 C565 1.374 . S
C561 C567 1.507 . S
C562 C563 1.387 . S
C562 C566 1.391 . S
C563 C562 1.387 . S
C563 C564 1.384 . S
C563 H572 0.930 . S
C564 C561 1.380 . S
C564 C563 1.384 . S
C564 H573 0.931 . S
C565 C561 1.374 . S
C565 C566 1.390 . S
C565 H574 0.930 . S
C566 C562 1.391 . S
C566 C565 1.390 . S
C566 H575 0.930 . S
C567 Eu537 2.825 . S
C567 O552 1.238 . S
C567 O553 1.247 . S
C567 C561 1.507 . S
H568 C541 0.930 . S
H569 C542 0.931 . S
H570 C543 0.930 . S
H571 C544 0.930 . S
H572 C563 0.930 . S
H573 C564 0.931 . S
H574 C565 0.930 . S
H575 C566 0.930 . S
Tb576 C586 2.825 . S
Tb576 O587 2.347 . S
Tb576 O590 2.366 . S
Tb576 O595 2.429 . S
Tb576 O596 2.384 . S
Tb576 O599 2.479 . S
Tb576 O600 2.471 . S
Eu577 O588 2.418 1_556 S
Eu577 O589 2.384 1_556 S
Eu577 O592 2.479 . S
Eu577 O593 2.471 . S
Eu577 O594 2.347 1_556 S
Eu577 O597 2.366 1_556 S
Eu577 C607 2.825 . S
C578 O594 1.258 . S
C578 O595 1.267 . S
C579 O596 1.255 . S
C579 O597 1.265 . S
C580 C582 1.380 . S
C580 C583 1.374 . S
C580 C586 1.507 . S
C581 C582 1.384 . S
C581 C585 1.387 . S
C581 H608 0.930 1_545 S
C582 C580 1.380 . S
C582 C581 1.384 . S
C582 H609 0.931 . S
C583 C580 1.374 . S
C583 C584 1.390 . S
C583 H610 0.930 . S
C584 C583 1.390 . S
C584 C585 1.391 . S
C584 H611 0.930 . S
C585 C581 1.387 . S
C585 C584 1.391 . S
C586 Tb576 2.825 . S
C586 C580 1.507 . S
C586 O599 1.238 . S
C586 O600 1.247 . S
O587 Tb576 2.347 . S
O587 C591 1.259 . S
O588 Eu577 2.418 1_554 S
O588 C591 1.265 . S
O589 Eu577 2.384 1_554 S
O589 C598 1.255 . S
O590 Tb576 2.366 . S
O590 C598 1.265 . S
C591 O587 1.259 . S
C591 O588 1.265 . S
O592 Eu577 2.479 . S
O592 C607 1.238 . S
O593 Eu577 2.471 . S
O593 C607 1.247 . S
O594 Eu577 2.347 1_554 S
O594 C578 1.258 . S
O595 Tb576 2.429 . S
O595 C578 1.267 . S
O596 Tb576 2.384 . S
O596 C579 1.255 . S
O597 Eu577 2.366 1_554 S
O597 C579 1.265 . S
C598 O589 1.255 . S
C598 O590 1.265 . S
O599 Tb576 2.479 . S
O599 C586 1.238 . S
O600 Tb576 2.471 . S
O600 C586 1.247 . S
C601 C604 1.380 . S
C601 C605 1.374 . S
C601 C607 1.507 . S
C602 C603 1.387 . S
C602 C606 1.391 . S
C603 C602 1.387 . S
C603 C604 1.384 . S
C603 H612 0.930 . S
C604 C601 1.380 . S
C604 C603 1.384 . S
C604 H613 0.931 . S
C605 C601 1.374 . S
C605 C606 1.390 . S
C605 H614 0.930 . S
C606 C602 1.391 . S
C606 C605 1.390 . S
C606 H615 0.930 . S
C607 Eu577 2.825 . S
C607 O592 1.238 . S
C607 O593 1.247 . S
C607 C601 1.507 . S
H608 C581 0.930 1_565 S
H609 C582 0.931 . S
H610 C583 0.930 . S
H611 C584 0.930 . S
H612 C603 0.930 . S
H613 C604 0.931 . S
H614 C605 0.930 . S
H615 C606 0.930 . S
Tb616 C626 2.825 . S
Tb616 O627 2.347 . S
Tb616 O630 2.366 . S
Tb616 O635 2.418 . S
Tb616 O636 2.384 . S
Tb616 O639 2.479 . S
Tb616 O640 2.471 . S
Eu617 O628 2.418 . S
Eu617 O629 2.384 . S
Eu617 O632 2.479 . S
Eu617 O633 2.471 . S
Eu617 O634 2.347 . S
Eu617 O637 2.366 . S
Eu617 C647 2.825 . S
C618 O634 1.259 . S
C618 O635 1.265 . S
C619 O636 1.255 . S
C619 O637 1.265 . S
C620 C622 1.380 . S
C620 C623 1.374 . S
C620 C626 1.507 . S
C621 C622 1.384 . S
C621 C625 1.387 . S
C621 H648 0.930 . S
C622 C620 1.380 . S
C622 C621 1.384 . S
C622 H649 0.931 . S
C623 C620 1.374 . S
C623 C624 1.390 . S
C623 H650 0.930 . S
C624 C623 1.390 . S
C624 C625 1.391 . S
C624 H651 0.930 . S
C625 C621 1.387 . S
C625 C624 1.391 . S
C626 Tb616 2.825 . S
C626 C620 1.507 . S
C626 O639 1.238 . S
C626 O640 1.247 . S
O627 Tb616 2.347 . S
O627 C631 1.259 . S
O628 Eu617 2.418 . S
O628 C631 1.265 . S
O629 Eu617 2.384 . S
O629 C638 1.255 . S
O630 Tb616 2.366 . S
O630 C638 1.265 . S
C631 O627 1.259 . S
C631 O628 1.265 . S
O632 Eu617 2.479 . S
O632 C647 1.238 . S
O633 Eu617 2.471 . S
O633 C647 1.247 . S
O634 Eu617 2.347 . S
O634 C618 1.259 . S
O635 Tb616 2.418 . S
O635 C618 1.265 . S
O636 Tb616 2.384 . S
O636 C619 1.255 . S
O637 Eu617 2.366 . S
O637 C619 1.265 . S
C638 O629 1.255 . S
C638 O630 1.265 . S
O639 Tb616 2.479 . S
O639 C626 1.238 . S
O640 Tb616 2.471 . S
O640 C626 1.247 . S
C641 C644 1.380 . S
C641 C645 1.374 . S
C641 C647 1.507 . S
C642 C643 1.387 . S
C642 C646 1.391 . S
C643 C642 1.387 . S
C643 C644 1.384 . S
C643 H652 0.930 . S
C644 C641 1.380 . S
C644 C643 1.384 . S
C644 H653 0.931 . S
C645 C641 1.374 . S
C645 C646 1.390 . S
C645 H654 0.930 . S
C646 C642 1.391 . S
C646 C645 1.390 . S
C646 H655 0.930 . S
C647 Eu617 2.825 . S
C647 O632 1.238 . S
C647 O633 1.247 . S
C647 C641 1.507 . S
H648 C621 0.930 . S
H649 C622 0.931 . S
H650 C623 0.930 . S
H651 C624 0.930 . S
H652 C643 0.930 . S
H653 C644 0.931 . S
H654 C645 0.930 . S
H655 C646 0.930 . S
Tb656 C666 2.824 1_554 S
Tb656 O667 2.348 . S
Tb656 O670 2.366 1_554 S
Tb656 O675 2.418 . S
Tb656 O676 2.385 . S
Tb656 O679 2.477 1_554 S
Tb656 O680 2.471 1_554 S
Eu657 O668 2.418 . S
Eu657 O669 2.384 . S
Eu657 O672 2.479 . S
Eu657 O673 2.471 . S
Eu657 O674 2.347 . S
Eu657 O677 2.366 . S
Eu657 C687 2.825 . S
C658 O674 1.259 . S
C658 O675 1.265 . S
C659 O676 1.255 . S
C659 O677 1.265 . S
C660 C662 1.380 . S
C660 C663 1.374 . S
C660 C666 1.507 . S
C661 C662 1.384 . S
C661 C665 1.387 . S
C661 H688 0.930 . S
C662 C660 1.380 . S
C662 C661 1.384 . S
C662 H689 0.931 . S
C663 C660 1.374 . S
C663 C664 1.390 . S
C663 H690 0.930 . S
C664 C663 1.390 . S
C664 C665 1.391 . S
C664 H691 0.930 . S
C665 C661 1.387 . S
C665 C664 1.391 . S
C666 Tb656 2.824 1_556 S
C666 C660 1.507 . S
C666 O679 1.238 . S
C666 O680 1.247 . S
O667 Tb656 2.348 . S
O667 C671 1.259 . S
O668 Eu657 2.418 . S
O668 C671 1.265 . S
O669 Eu657 2.384 . S
O669 C678 1.255 . S
O670 Tb656 2.366 1_556 S
O670 C678 1.265 1_556 S
C671 O667 1.259 . S
C671 O668 1.265 . S
O672 Eu657 2.479 . S
O672 C687 1.238 . S
O673 Eu657 2.471 . S
O673 C687 1.247 . S
O674 Eu657 2.347 . S
O674 C658 1.259 . S
O675 Tb656 2.418 . S
O675 C658 1.265 . S
O676 Tb656 2.385 . S
O676 C659 1.255 . S
O677 Eu657 2.366 . S
O677 C659 1.265 . S
C678 O669 1.255 . S
C678 O670 1.265 1_554 S
O679 Tb656 2.477 1_556 S
O679 C666 1.238 . S
O680 Tb656 2.471 1_556 S
O680 C666 1.247 . S
C681 C684 1.380 . S
C681 C685 1.374 . S
C681 C687 1.507 . S
C682 C683 1.387 . S
C682 C686 1.391 . S
C683 C682 1.387 . S
C683 C684 1.384 . S
C683 H692 0.930 . S
C684 C681 1.380 . S
C684 C683 1.384 . S
C684 H693 0.931 . S
C685 C681 1.374 . S
C685 C686 1.390 . S
C685 H694 0.930 . S
C686 C682 1.391 . S
C686 C685 1.390 . S
C686 H695 0.930 . S
C687 Eu657 2.825 . S
C687 O672 1.238 . S
C687 O673 1.247 . S
C687 C681 1.507 . S
H688 C661 0.930 . S
H689 C662 0.931 . S
H690 C663 0.930 . S
H691 C664 0.930 . S
H692 C683 0.930 . S
H693 C684 0.931 . S
H694 C685 0.930 . S
H695 C686 0.930 . S
Tb696 C706 2.825 . S
Tb696 O707 2.347 . S
Tb696 O710 2.366 . S
Tb696 O715 2.418 . S
Tb696 O716 2.384 . S
Tb696 O719 2.479 . S
Tb696 O720 2.471 . S
Eu697 O708 2.418 . S
Eu697 O709 2.384 . S
Eu697 O712 2.479 . S
Eu697 O713 2.471 . S
Eu697 O714 2.347 . S
Eu697 O717 2.366 . S
Eu697 C727 2.825 . S
C698 O714 1.259 . S
C698 O715 1.265 . S
C699 O716 1.255 . S
C699 O717 1.265 . S
C700 C702 1.380 . S
C700 C703 1.374 . S
C700 C706 1.507 . S
C701 C702 1.384 . S
C701 C705 1.387 . S
C701 H728 0.930 . S
C702 C700 1.380 . S
C702 C701 1.384 . S
C702 H729 0.931 . S
C703 C700 1.374 . S
C703 C704 1.390 . S
C703 H730 0.930 . S
C704 C703 1.390 . S
C704 C705 1.391 . S
C704 H731 0.930 . S
C705 C701 1.387 . S
C705 C704 1.391 . S
C706 Tb696 2.825 . S
C706 C700 1.507 . S
C706 O719 1.238 . S
C706 O720 1.247 . S
O707 Tb696 2.347 . S
O707 C711 1.259 . S
O708 Eu697 2.418 . S
O708 C711 1.265 . S
O709 Eu697 2.384 . S
O709 C718 1.255 . S
O710 Tb696 2.366 . S
O710 C718 1.265 . S
C711 O707 1.259 . S
C711 O708 1.265 . S
O712 Eu697 2.479 . S
O712 C727 1.238 . S
O713 Eu697 2.471 . S
O713 C727 1.247 . S
O714 Eu697 2.347 . S
O714 C698 1.259 . S
O715 Tb696 2.418 . S
O715 C698 1.265 . S
O716 Tb696 2.384 . S
O716 C699 1.255 . S
O717 Eu697 2.366 . S
O717 C699 1.265 . S
C718 O709 1.255 . S
C718 O710 1.265 . S
O719 Tb696 2.479 . S
O719 C706 1.238 . S
O720 Tb696 2.471 . S
O720 C706 1.247 . S
C721 C724 1.380 . S
C721 C725 1.374 . S
C721 C727 1.507 . S
C722 C723 1.387 . S
C722 C726 1.391 . S
C723 C722 1.387 . S
C723 C724 1.384 . S
C723 H732 0.930 . S
C724 C721 1.380 . S
C724 C723 1.384 . S
C724 H733 0.931 . S
C725 C721 1.374 . S
C725 C726 1.390 . S
C725 H734 0.930 . S
C726 C722 1.391 . S
C726 C725 1.390 . S
C726 H735 0.930 . S
C727 Eu697 2.825 . S
C727 O712 1.238 . S
C727 O713 1.247 . S
C727 C721 1.507 . S
H728 C701 0.930 . S
H729 C702 0.931 . S
H730 C703 0.930 . S
H731 C704 0.930 . S
H732 C723 0.930 . S
H733 C724 0.931 . S
H734 C725 0.930 . S
H735 C726 0.930 . S
Tb736 C746 2.825 . S
Tb736 O747 2.347 . S
Tb736 O750 2.366 . S
Tb736 O755 2.418 . S
Tb736 O756 2.384 . S
Tb736 O759 2.479 . S
Tb736 O760 2.471 . S
Eu737 O748 2.418 . S
Eu737 O749 2.384 1_455 S
Eu737 O752 2.479 . S
Eu737 O753 2.471 . S
Eu737 O754 2.347 . S
Eu737 O757 2.366 . S
Eu737 C767 2.825 . S
C738 O754 1.259 . S
C738 O755 1.265 . S
C739 O756 1.255 . S
C739 O757 1.265 . S
C740 C742 1.380 . S
C740 C743 1.374 . S
C740 C746 1.507 . S
C741 C742 1.384 . S
C741 C745 1.387 . S
C741 H768 0.930 . S
C742 C740 1.380 . S
C742 C741 1.384 . S
C742 H769 0.931 . S
C743 C740 1.374 . S
C743 C744 1.390 . S
C743 H770 0.930 . S
C744 C743 1.390 . S
C744 C745 1.391 . S
C744 H771 0.930 1_455 S
C745 C741 1.387 . S
C745 C744 1.391 . S
C746 Tb736 2.825 . S
C746 C740 1.507 . S
C746 O759 1.238 . S
C746 O760 1.247 . S
O747 Tb736 2.347 . S
O747 C751 1.259 . S
O748 Eu737 2.418 . S
O748 C751 1.265 . S
O749 Eu737 2.384 1_655 S
O749 C758 1.255 . S
O750 Tb736 2.366 . S
O750 C758 1.265 1_455 S
C751 O747 1.259 . S
C751 O748 1.265 . S
O752 Eu737 2.479 . S
O752 C767 1.238 . S
O753 Eu737 2.471 . S
O753 C767 1.247 . S
O754 Eu737 2.347 . S
O754 C738 1.259 . S
O755 Tb736 2.418 . S
O755 C738 1.265 . S
O756 Tb736 2.384 . S
O756 C739 1.255 . S
O757 Eu737 2.366 . S
O757 C739 1.265 . S
C758 O749 1.255 . S
C758 O750 1.265 1_655 S
O759 Tb736 2.479 . S
O759 C746 1.238 . S
O760 Tb736 2.471 . S
O760 C746 1.247 . S
C761 C764 1.380 . S
C761 C765 1.374 . S
C761 C767 1.507 . S
C762 C763 1.387 . S
C762 C766 1.391 . S
C763 C762 1.387 . S
C763 C764 1.384 . S
C763 H772 0.930 . S
C764 C761 1.380 . S
C764 C763 1.384 . S
C764 H773 0.931 . S
C765 C761 1.374 . S
C765 C766 1.390 . S
C765 H774 0.930 . S
C766 C762 1.391 . S
C766 C765 1.390 . S
C766 H775 0.930 . S
C767 Eu737 2.825 . S
C767 O752 1.238 . S
C767 O753 1.247 . S
C767 C761 1.507 . S
H768 C741 0.930 . S
H769 C742 0.931 . S
H770 C743 0.930 . S
H771 C744 0.930 1_655 S
H772 C763 0.930 . S
H773 C764 0.931 . S
H774 C765 0.930 . S
H775 C766 0.930 . S
Tb776 C786 2.825 . S
Tb776 O787 2.347 . S
Tb776 O790 2.366 . S
Tb776 O795 2.418 . S
Tb776 O796 2.384 . S
Tb776 O799 2.479 . S
Tb776 O800 2.471 . S
Eu777 O788 2.418 . S
Eu777 O789 2.384 . S
Eu777 O792 2.479 . S
Eu777 O793 2.471 . S
Eu777 O794 2.347 . S
Eu777 O797 2.366 . S
Eu777 C807 2.825 . S
C778 O794 1.259 . S
C778 O795 1.265 . S
C779 O796 1.255 . S
C779 O797 1.265 . S
C780 C782 1.380 . S
C780 C783 1.374 . S
C780 C786 1.507 . S
C781 C782 1.384 . S
C781 C785 1.387 . S
C781 H808 0.930 . S
C782 C780 1.380 . S
C782 C781 1.384 . S
C782 H809 0.931 . S
C783 C780 1.374 . S
C783 C784 1.390 . S
C783 H810 0.930 . S
C784 C783 1.390 . S
C784 C785 1.391 . S
C784 H811 0.930 . S
C785 C781 1.387 . S
C785 C784 1.391 . S
C786 Tb776 2.825 . S
C786 C780 1.507 . S
C786 O799 1.238 . S
C786 O800 1.247 . S
O787 Tb776 2.347 . S
O787 C791 1.259 . S
O788 Eu777 2.418 . S
O788 C791 1.265 . S
O789 Eu777 2.384 . S
O789 C798 1.255 . S
O790 Tb776 2.366 . S
O790 C798 1.265 . S
C791 O787 1.259 . S
C791 O788 1.265 . S
O792 Eu777 2.479 . S
O792 C807 1.238 . S
O793 Eu777 2.471 . S
O793 C807 1.247 . S
O794 Eu777 2.347 . S
O794 C778 1.259 . S
O795 Tb776 2.418 . S
O795 C778 1.265 . S
O796 Tb776 2.384 . S
O796 C779 1.255 . S
O797 Eu777 2.366 . S
O797 C779 1.265 . S
C798 O789 1.255 . S
C798 O790 1.265 . S
O799 Tb776 2.479 . S
O799 C786 1.238 . S
O800 Tb776 2.471 . S
O800 C786 1.247 . S
C801 C804 1.380 . S
C801 C805 1.374 . S
C801 C807 1.507 . S
C802 C803 1.387 . S
C802 C806 1.391 . S
C803 C802 1.387 . S
C803 C804 1.384 . S
C803 H812 0.930 . S
C804 C801 1.380 . S
C804 C803 1.384 . S
C804 H813 0.931 . S
C805 C801 1.374 . S
C805 C806 1.390 . S
C805 H814 0.930 . S
C806 C802 1.391 . S
C806 C805 1.390 . S
C806 H815 0.930 . S
C807 Eu777 2.825 . S
C807 O792 1.238 . S
C807 O793 1.247 . S
C807 C801 1.507 . S
H808 C781 0.930 . S
H809 C782 0.931 . S
H810 C783 0.930 . S
H811 C784 0.930 . S
H812 C803 0.930 . S
H813 C804 0.931 . S
H814 C805 0.930 . S
H815 C806 0.930 . S
Tb816 C826 2.825 . S
Tb816 O827 2.347 . S
Tb816 O830 2.366 . S
Tb816 O835 2.418 . S
Tb816 O836 2.384 . S
Tb816 O839 2.479 . S
Tb816 O840 2.471 . S
Eu817 O828 2.418 . S
Eu817 O829 2.384 . S
Eu817 O832 2.479 . S
Eu817 O833 2.471 . S
Eu817 O834 2.347 . S
Eu817 O837 2.366 . S
Eu817 C847 2.825 . S
C818 O834 1.259 . S
C818 O835 1.265 . S
C819 O836 1.255 . S
C819 O837 1.265 . S
C820 C822 1.380 . S
C820 C823 1.374 . S
C820 C826 1.507 . S
C821 C822 1.384 . S
C821 C825 1.387 . S
C821 H848 0.930 . S
C822 C820 1.380 . S
C822 C821 1.384 . S
C822 H849 0.931 . S
C823 C820 1.374 . S
C823 C824 1.390 . S
C823 H850 0.930 . S
C824 C823 1.390 . S
C824 C825 1.391 . S
C824 H851 0.930 . S
C825 C821 1.387 . S
C825 C824 1.391 . S
C826 Tb816 2.825 . S
C826 C820 1.507 . S
C826 O839 1.238 . S
C826 O840 1.247 . S
O827 Tb816 2.347 . S
O827 C831 1.259 . S
O828 Eu817 2.418 . S
O828 C831 1.265 . S
O829 Eu817 2.384 . S
O829 C838 1.255 . S
O830 Tb816 2.366 . S
O830 C838 1.265 . S
C831 O827 1.259 . S
C831 O828 1.265 . S
O832 Eu817 2.479 . S
O832 C847 1.238 . S
O833 Eu817 2.471 . S
O833 C847 1.247 . S
O834 Eu817 2.347 . S
O834 C818 1.259 . S
O835 Tb816 2.418 . S
O835 C818 1.265 . S
O836 Tb816 2.384 . S
O836 C819 1.255 . S
O837 Eu817 2.366 . S
O837 C819 1.265 . S
C838 O829 1.255 . S
C838 O830 1.265 . S
O839 Tb816 2.479 . S
O839 C826 1.238 . S
O840 Tb816 2.471 . S
O840 C826 1.247 . S
C841 C844 1.380 . S
C841 C845 1.374 . S
C841 C847 1.507 . S
C842 C843 1.387 . S
C842 C846 1.391 . S
C843 C842 1.387 . S
C843 C844 1.384 . S
C843 H852 0.930 . S
C844 C841 1.380 . S
C844 C843 1.384 . S
C844 H853 0.931 . S
C845 C841 1.374 . S
C845 C846 1.390 . S
C845 H854 0.930 . S
C846 C842 1.391 . S
C846 C845 1.390 . S
C846 H855 0.930 . S
C847 Eu817 2.825 . S
C847 O832 1.238 . S
C847 O833 1.247 . S
C847 C841 1.507 . S
H848 C821 0.930 . S
H849 C822 0.931 . S
H850 C823 0.930 . S
H851 C824 0.930 . S
H852 C843 0.930 . S
H853 C844 0.931 . S
H854 C845 0.930 . S
H855 C846 0.930 . S
Tb856 C866 2.825 . S
Tb856 O867 2.347 . S
Tb856 O870 2.366 . S
Tb856 O875 2.418 . S
Tb856 O876 2.384 . S
Tb856 O879 2.479 . S
Tb856 O880 2.471 . S
Eu857 O868 2.418 . S
Eu857 O869 2.384 . S
Eu857 O872 2.479 . S
Eu857 O873 2.471 . S
Eu857 O874 2.347 . S
Eu857 O877 2.366 . S
Eu857 C887 2.825 . S
C858 O874 1.259 . S
C858 O875 1.265 . S
C859 O876 1.255 . S
C859 O877 1.265 . S
C860 C862 1.380 . S
C860 C863 1.374 . S
C860 C866 1.507 . S
C861 C862 1.384 . S
C861 C865 1.387 . S
C861 H888 0.930 . S
C862 C860 1.380 . S
C862 C861 1.384 . S
C862 H889 0.931 . S
C863 C860 1.374 . S
C863 C864 1.390 . S
C863 H890 0.930 . S
C864 C863 1.390 . S
C864 C865 1.391 . S
C864 H891 0.930 . S
C865 C861 1.387 . S
C865 C864 1.391 . S
C866 Tb856 2.825 . S
C866 C860 1.507 . S
C866 O879 1.238 . S
C866 O880 1.247 . S
O867 Tb856 2.347 . S
O867 C871 1.259 . S
O868 Eu857 2.418 . S
O868 C871 1.265 . S
O869 Eu857 2.384 . S
O869 C878 1.255 . S
O870 Tb856 2.366 . S
O870 C878 1.265 . S
C871 O867 1.259 . S
C871 O868 1.265 . S
O872 Eu857 2.479 . S
O872 C887 1.238 . S
O873 Eu857 2.471 . S
O873 C887 1.247 . S
O874 Eu857 2.347 . S
O874 C858 1.259 . S
O875 Tb856 2.418 . S
O875 C858 1.265 . S
O876 Tb856 2.384 . S
O876 C859 1.255 . S
O877 Eu857 2.366 . S
O877 C859 1.265 . S
C878 O869 1.255 . S
C878 O870 1.265 . S
O879 Tb856 2.479 . S
O879 C866 1.238 . S
O880 Tb856 2.471 . S
O880 C866 1.247 . S
C881 C884 1.380 . S
C881 C885 1.374 . S
C881 C887 1.507 . S
C882 C883 1.387 . S
C882 C886 1.391 . S
C883 C882 1.387 . S
C883 C884 1.384 . S
C883 H892 0.930 . S
C884 C881 1.380 . S
C884 C883 1.384 . S
C884 H893 0.931 . S
C885 C881 1.374 . S
C885 C886 1.390 . S
C885 H894 0.930 . S
C886 C882 1.391 . S
C886 C885 1.390 . S
C886 H895 0.930 . S
C887 Eu857 2.825 . S
C887 O872 1.238 . S
C887 O873 1.247 . S
C887 C881 1.507 . S
H888 C861 0.930 . S
H889 C862 0.931 . S
H890 C863 0.930 . S
H891 C864 0.930 . S
H892 C883 0.930 . S
H893 C884 0.931 . S
H894 C885 0.930 . S
H895 C886 0.930 . S
Tb896 C906 2.825 . S
Tb896 O907 2.347 . S
Tb896 O910 2.366 . S
Tb896 O915 2.418 . S
Tb896 O916 2.384 . S
Tb896 O919 2.479 . S
Tb896 O920 2.471 . S
Eu897 O908 2.418 . S
Eu897 O909 2.384 . S
Eu897 O912 2.479 . S
Eu897 O913 2.471 . S
Eu897 O914 2.347 . S
Eu897 O917 2.366 . S
Eu897 C927 2.825 . S
C898 O914 1.259 . S
C898 O915 1.265 . S
C899 O916 1.255 . S
C899 O917 1.265 . S
C900 C902 1.380 . S
C900 C903 1.374 . S
C900 C906 1.507 . S
C901 C902 1.384 . S
C901 C905 1.387 . S
C901 H928 0.930 . S
C902 C900 1.380 . S
C902 C901 1.384 . S
C902 H929 0.931 . S
C903 C900 1.374 . S
C903 C904 1.390 . S
C903 H930 0.930 . S
C904 C903 1.390 . S
C904 C905 1.391 . S
C904 H931 0.930 . S
C905 C901 1.387 . S
C905 C904 1.391 . S
C906 Tb896 2.825 . S
C906 C900 1.507 . S
C906 O919 1.238 . S
C906 O920 1.247 . S
O907 Tb896 2.347 . S
O907 C911 1.259 . S
O908 Eu897 2.418 . S
O908 C911 1.265 . S
O909 Eu897 2.384 . S
O909 C918 1.255 . S
O910 Tb896 2.366 . S
O910 C918 1.265 . S
C911 O907 1.259 . S
C911 O908 1.265 . S
O912 Eu897 2.479 . S
O912 C927 1.238 . S
O913 Eu897 2.471 . S
O913 C927 1.247 . S
O914 Eu897 2.347 . S
O914 C898 1.259 . S
O915 Tb896 2.418 . S
O915 C898 1.265 . S
O916 Tb896 2.384 . S
O916 C899 1.255 . S
O917 Eu897 2.366 . S
O917 C899 1.265 . S
C918 O909 1.255 . S
C918 O910 1.265 . S
O919 Tb896 2.479 . S
O919 C906 1.238 . S
O920 Tb896 2.471 . S
O920 C906 1.247 . S
C921 C924 1.380 . S
C921 C925 1.374 . S
C921 C927 1.507 . S
C922 C923 1.387 . S
C922 C926 1.391 . S
C923 C922 1.387 . S
C923 C924 1.384 . S
C923 H932 0.930 . S
C924 C921 1.380 . S
C924 C923 1.384 . S
C924 H933 0.931 . S
C925 C921 1.374 . S
C925 C926 1.390 . S
C925 H934 0.930 . S
C926 C922 1.391 . S
C926 C925 1.390 . S
C926 H935 0.930 . S
C927 Eu897 2.825 . S
C927 O912 1.238 . S
C927 O913 1.247 . S
C927 C921 1.507 . S
H928 C901 0.930 . S
H929 C902 0.931 . S
H930 C903 0.930 . S
H931 C904 0.930 . S
H932 C923 0.930 . S
H933 C924 0.931 . S
H934 C925 0.930 . S
H935 C926 0.930 . S
Tb936 C946 2.825 . S
Tb936 O947 2.347 . S
Tb936 O950 2.366 . S
Tb936 O955 2.418 . S
Tb936 O956 2.384 . S
Tb936 O959 2.479 . S
Tb936 O960 2.471 . S
Eu937 O948 2.418 . S
Eu937 O949 2.384 . S
Eu937 O952 2.479 . S
Eu937 O953 2.471 . S
Eu937 O954 2.347 . S
Eu937 O957 2.366 . S
Eu937 C967 2.825 . S
C938 O954 1.259 . S
C938 O955 1.265 . S
C939 O956 1.255 . S
C939 O957 1.265 . S
C940 C942 1.380 . S
C940 C943 1.374 1_554 S
C940 C946 1.507 . S
C941 C942 1.384 . S
C941 C945 1.387 1_554 S
C941 H968 0.930 . S
C942 C940 1.380 . S
C942 C941 1.384 . S
C942 H969 0.931 . S
C943 C940 1.374 1_556 S
C943 C944 1.390 . S
C943 H970 0.930 . S
C944 C943 1.390 . S
C944 C945 1.391 . S
C944 H971 0.930 . S
C945 C941 1.387 1_556 S
C945 C944 1.391 . S
C946 Tb936 2.825 . S
C946 C940 1.507 . S
C946 O959 1.238 . S
C946 O960 1.247 . S
O947 Tb936 2.347 . S
O947 C951 1.259 . S
O948 Eu937 2.418 . S
O948 C951 1.265 . S
O949 Eu937 2.384 . S
O949 C958 1.255 . S
O950 Tb936 2.366 . S
O950 C958 1.265 . S
C951 O947 1.259 . S
C951 O948 1.265 . S
O952 Eu937 2.479 . S
O952 C967 1.238 . S
O953 Eu937 2.471 . S
O953 C967 1.247 . S
O954 Eu937 2.347 . S
O954 C938 1.259 . S
O955 Tb936 2.418 . S
O955 C938 1.265 . S
O956 Tb936 2.384 . S
O956 C939 1.255 . S
O957 Eu937 2.366 . S
O957 C939 1.265 . S
C958 O949 1.255 . S
C958 O950 1.265 . S
O959 Tb936 2.479 . S
O959 C946 1.238 . S
O960 Tb936 2.471 . S
O960 C946 1.247 . S
C961 C964 1.380 . S
C961 C965 1.374 . S
C961 C967 1.507 . S
C962 C963 1.387 . S
C962 C966 1.391 . S
C963 C962 1.387 . S
C963 C964 1.384 . S
C963 H972 0.930 . S
C964 C961 1.380 . S
C964 C963 1.384 . S
C964 H973 0.931 . S
C965 C961 1.374 . S
C965 C966 1.390 . S
C965 H974 0.930 . S
C966 C962 1.391 . S
C966 C965 1.390 . S
C966 H975 0.930 . S
C967 Eu937 2.825 . S
C967 O952 1.238 . S
C967 O953 1.247 . S
C967 C961 1.507 . S
H968 C941 0.930 . S
H969 C942 0.931 . S
H970 C943 0.930 . S
H971 C944 0.930 . S
H972 C963 0.930 . S
H973 C964 0.931 . S
H974 C965 0.930 . S
H975 C966 0.930 . S
C976 C977 1.369 . S
C976 C978 1.419 . S
C976 H980 0.930 . S
C977 C976 1.369 . S
C977 C986 1.429 1_455 S
C978 C976 1.419 . S
C978 C979 1.363 1_556 S
C978 H981 0.929 1_556 S
C979 C978 1.363 1_554 S
C979 C985 1.428 1_554 S
H980 C976 0.930 . S
H981 C978 0.929 1_554 S
S982 N983 1.613 . S
S982 N984 1.610 1_655 S
N983 S982 1.613 . S
N983 C986 1.350 . S
N984 S982 1.610 1_455 S
N984 C985 1.351 . S
C985 C979 1.428 1_556 S
C985 N984 1.351 . S
C985 C986 1.434 1_455 S
C986 C977 1.429 1_655 S
C986 N983 1.350 . S
C986 C985 1.434 1_655 S
C987 C988 1.369 . S
C987 C989 1.419 . S
C987 H991 0.930 . S
C988 C987 1.369 . S
C988 C997 1.429 . S
C989 C987 1.419 . S
C989 C990 1.363 . S
C989 H992 0.929 . S
C990 C989 1.363 . S
C990 C996 1.428 . S
H991 C987 0.930 . S
H992 C989 0.929 . S
S993 N994 1.613 . S
S993 N995 1.610 . S
N994 S993 1.613 . S
N994 C997 1.350 . S
N995 S993 1.610 . S
N995 C996 1.351 . S
C996 C990 1.428 . S
C996 N995 1.351 . S
C996 C997 1.434 . S
C997 C988 1.429 . S
C997 N994 1.350 . S
C997 C996 1.434 . S
C998 C999 1.369 . S
C998 C1000 1.419 . S
C998 H1002 0.930 . S
C999 C998 1.369 . S
C999 C1008 1.429 . S
C1000 C998 1.419 . S
C1000 C1001 1.363 . S
C1000 H1003 0.929 . S
C1001 C1000 1.363 . S
C1001 C1007 1.428 . S
H1002 C998 0.930 . S
H1003 C1000 0.929 . S
S1004 N1005 1.613 . S
S1004 N1006 1.610 . S
N1005 S1004 1.613 . S
N1005 C1008 1.350 . S
N1006 S1004 1.610 . S
N1006 C1007 1.351 . S
C1007 C1001 1.428 . S
C1007 N1006 1.351 . S
C1007 C1008 1.434 . S
C1008 C999 1.429 . S
C1008 N1005 1.350 . S
C1008 C1007 1.434 . S
C1009 C1010 1.369 . S
C1009 C1011 1.419 . S
C1009 H1013 0.930 . S
C1010 C1009 1.369 . S
C1010 C1019 1.429 . S
C1011 C1009 1.419 . S
C1011 C1012 1.363 . S
C1011 H1014 0.929 . S
C1012 C1011 1.363 . S
C1012 C1018 1.428 . S
H1013 C1009 0.930 . S
H1014 C1011 0.929 . S
S1015 N1016 1.613 . S
S1015 N1017 1.610 . S
N1016 S1015 1.613 . S
N1016 C1019 1.350 . S
N1017 S1015 1.610 . S
N1017 C1018 1.351 . S
C1018 C1012 1.428 . S
C1018 N1017 1.351 . S
C1018 C1019 1.434 . S
C1019 C1010 1.429 . S
C1019 N1016 1.350 . S
C1019 C1018 1.434 . S
C1020 C1021 1.369 . S
C1020 C1022 1.419 . S
C1020 H1024 0.930 . S
C1021 C1020 1.369 . S
C1021 C1030 1.429 . S
C1022 C1020 1.419 . S
C1022 C1023 1.363 . S
C1022 H1025 0.929 . S
C1023 C1022 1.363 . S
C1023 C1029 1.428 . S
H1024 C1020 0.930 . S
H1025 C1022 0.929 . S
S1026 N1027 1.613 . S
S1026 N1028 1.610 . S
N1027 S1026 1.613 . S
N1027 C1030 1.350 . S
N1028 S1026 1.610 . S
N1028 C1029 1.351 . S
C1029 C1023 1.428 . S
C1029 N1028 1.351 . S
C1029 C1030 1.434 . S
C1030 C1021 1.429 . S
C1030 N1027 1.350 . S
C1030 C1029 1.434 . S
C1031 C1032 1.369 . S
C1031 C1033 1.419 . S
C1031 H1035 0.930 . S
C1032 C1031 1.369 . S
C1032 C1041 1.429 . S
C1033 C1031 1.419 . S
C1033 C1034 1.363 . S
C1033 H1036 0.929 . S
C1034 C1033 1.363 . S
C1034 C1040 1.428 . S
H1035 C1031 0.930 . S
H1036 C1033 0.929 . S
S1037 N1038 1.613 . S
S1037 N1039 1.610 . S
N1038 S1037 1.613 . S
N1038 C1041 1.350 . S
N1039 S1037 1.610 . S
N1039 C1040 1.351 . S
C1040 C1034 1.428 . S
C1040 N1039 1.351 . S
C1040 C1041 1.434 . S
C1041 C1032 1.429 . S
C1041 N1038 1.350 . S
C1041 C1040 1.434 . S
C1042 C1043 1.369 . S
C1042 C1044 1.419 . S
C1042 H1046 0.930 . S
C1043 C1042 1.369 . S
C1043 C1052 1.429 . S
C1044 C1042 1.419 . S
C1044 C1045 1.363 . S
C1044 H1047 0.929 . S
C1045 C1044 1.363 . S
C1045 C1051 1.428 . S
H1046 C1042 0.930 . S
H1047 C1044 0.929 . S
S1048 N1049 1.613 . S
S1048 N1050 1.610 . S
N1049 S1048 1.613 . S
N1049 C1052 1.350 . S
N1050 S1048 1.610 . S
N1050 C1051 1.351 . S
C1051 C1045 1.428 . S
C1051 N1050 1.351 . S
C1051 C1052 1.434 . S
C1052 C1043 1.429 . S
C1052 N1049 1.350 . S
C1052 C1051 1.434 . S
C1053 C1054 1.369 . S
C1053 C1055 1.419 . S
C1053 H1057 0.930 . S
C1054 C1053 1.369 . S
C1054 C1063 1.429 . S
C1055 C1053 1.419 . S
C1055 C1056 1.363 . S
C1055 H1058 0.929 . S
C1056 C1055 1.363 . S
C1056 C1062 1.428 . S
H1057 C1053 0.930 . S
H1058 C1055 0.929 . S
S1059 N1060 1.613 . S
S1059 N1061 1.610 . S
N1060 S1059 1.613 . S
N1060 C1063 1.350 . S
N1061 S1059 1.610 . S
N1061 C1062 1.351 . S
C1062 C1056 1.428 . S
C1062 N1061 1.351 . S
C1062 C1063 1.434 . S
C1063 C1054 1.429 . S
C1063 N1060 1.350 . S
C1063 C1062 1.434 . S
C1064 C1065 1.369 . S
C1064 C1066 1.421 1_655 S
C1064 H1068 0.930 1_545 S
C1065 C1064 1.369 . S
C1065 C1074 1.429 . S
C1066 C1064 1.421 1_455 S
C1066 C1067 1.363 . S
C1066 H1069 0.926 . S
C1067 C1066 1.363 . S
C1067 C1073 1.428 1_455 S
H1068 C1064 0.930 1_565 S
H1069 C1066 0.926 . S
S1070 N1071 1.613 . S
S1070 N1072 1.610 . S
N1071 S1070 1.613 . S
N1071 C1074 1.350 . S
N1072 S1070 1.610 . S
N1072 C1073 1.351 . S
C1073 C1067 1.428 1_655 S
C1073 N1072 1.351 . S
C1073 C1074 1.434 . S
C1074 C1065 1.429 . S
C1074 N1071 1.350 . S
C1074 C1073 1.434 . S
C1075 C1076 1.369 . S
C1075 C1077 1.419 . S
C1075 H1079 0.930 . S
C1076 C1075 1.369 . S
C1076 C1085 1.429 . S
C1077 C1075 1.419 . S
C1077 C1078 1.363 . S
C1077 H1080 0.929 . S
C1078 C1077 1.363 . S
C1078 C1084 1.428 . S
H1079 C1075 0.930 . S
H1080 C1077 0.929 . S
S1081 N1082 1.613 . S
S1081 N1083 1.610 . S
N1082 S1081 1.613 . S
N1082 C1085 1.350 . S
N1083 S1081 1.610 . S
N1083 C1084 1.351 . S
C1084 C1078 1.428 . S
C1084 N1083 1.351 . S
C1084 C1085 1.434 . S
C1085 C1076 1.429 . S
C1085 N1082 1.350 . S
C1085 C1084 1.434 . S
C1086 C1087 1.369 . S
C1086 C1088 1.419 . S
C1086 H1090 0.930 . S
C1087 C1086 1.369 . S
C1087 C1096 1.429 . S
C1088 C1086 1.419 . S
C1088 C1089 1.363 . S
C1088 H1091 0.929 . S
C1089 C1088 1.363 . S
C1089 C1095 1.428 . S
H1090 C1086 0.930 . S
H1091 C1088 0.929 . S
S1092 N1093 1.613 . S
S1092 N1094 1.610 . S
N1093 S1092 1.613 . S
N1093 C1096 1.350 . S
N1094 S1092 1.610 . S
N1094 C1095 1.351 . S
C1095 C1089 1.428 . S
C1095 N1094 1.351 . S
C1095 C1096 1.434 . S
C1096 C1087 1.429 . S
C1096 N1093 1.350 . S
C1096 C1095 1.434 . S
C1097 C1098 1.369 . S
C1097 C1099 1.419 . S
C1097 H1101 0.930 . S
C1098 C1097 1.369 . S
C1098 C1107 1.429 . S
C1099 C1097 1.419 . S
C1099 C1100 1.363 . S
C1099 H1102 0.929 . S
C1100 C1099 1.363 . S
C1100 C1106 1.428 . S
H1101 C1097 0.930 . S
H1102 C1099 0.929 . S
S1103 N1104 1.613 . S
S1103 N1105 1.610 . S
N1104 S1103 1.613 . S
N1104 C1107 1.350 . S
N1105 S1103 1.610 . S
N1105 C1106 1.351 . S
C1106 C1100 1.428 . S
C1106 N1105 1.351 . S
C1106 C1107 1.434 . S
C1107 C1098 1.429 . S
C1107 N1104 1.350 . S
C1107 C1106 1.434 . S
C1108 C1109 1.369 1_545 S
C1108 C1110 1.419 . S
C1108 H1112 0.924 1_545 S
C1109 C1108 1.369 1_565 S
C1109 C1118 1.429 1_565 S
C1110 C1108 1.419 . S
C1110 C1111 1.363 . S
C1110 H1113 0.929 . S
C1111 C1110 1.363 . S
C1111 C1117 1.428 . S
H1112 C1108 0.924 1_565 S
H1113 C1110 0.929 . S
S1114 N1115 1.613 1_455 S
S1114 N1116 1.610 . S
N1115 S1114 1.613 1_655 S
N1115 C1118 1.350 . S
N1116 S1114 1.610 . S
N1116 C1117 1.351 1_455 S
C1117 C1111 1.428 . S
C1117 N1116 1.351 1_655 S
C1117 C1118 1.434 . S
C1118 C1109 1.429 1_545 S
C1118 N1115 1.350 . S
C1118 C1117 1.434 . S
C1119 C1120 1.369 . S
C1119 C1121 1.419 . S
C1119 H1123 0.930 . S
C1120 C1119 1.369 . S
C1120 C1129 1.429 . S
C1121 C1119 1.419 . S
C1121 C1122 1.363 . S
C1121 H1124 0.929 . S
C1122 C1121 1.363 . S
C1122 C1128 1.428 . S
H1123 C1119 0.930 . S
H1124 C1121 0.929 . S
S1125 N1126 1.613 . S
S1125 N1127 1.610 . S
N1126 S1125 1.613 . S
N1126 C1129 1.350 . S
N1127 S1125 1.610 . S
N1127 C1128 1.351 . S
C1128 C1122 1.428 . S
C1128 N1127 1.351 . S
C1128 C1129 1.434 . S
C1129 C1120 1.429 . S
C1129 N1126 1.350 . S
C1129 C1128 1.434 . S
C1130 C1131 1.369 . S
C1130 C1132 1.419 . S
C1130 H1134 0.930 . S
C1131 C1130 1.369 . S
C1131 C1140 1.429 . S
C1132 C1130 1.419 . S
C1132 C1133 1.363 . S
C1132 H1135 0.929 . S
C1133 C1132 1.363 . S
C1133 C1139 1.428 . S
H1134 C1130 0.930 . S
H1135 C1132 0.929 . S
S1136 N1137 1.613 . S
S1136 N1138 1.610 . S
N1137 S1136 1.613 . S
N1137 C1140 1.350 . S
N1138 S1136 1.610 . S
N1138 C1139 1.351 . S
C1139 C1133 1.428 . S
C1139 N1138 1.351 . S
C1139 C1140 1.434 . S
C1140 C1131 1.429 . S
C1140 N1137 1.350 . S
C1140 C1139 1.434 . S
C1141 C1142 1.369 . S
C1141 C1143 1.419 . S
C1141 H1145 0.930 . S
C1142 C1141 1.369 . S
C1142 C1151 1.429 . S
C1143 C1141 1.419 . S
C1143 C1144 1.363 . S
C1143 H1146 0.929 . S
C1144 C1143 1.363 . S
C1144 C1150 1.428 . S
H1145 C1141 0.930 . S
H1146 C1143 0.929 . S
S1147 N1148 1.613 . S
S1147 N1149 1.610 . S
N1148 S1147 1.613 . S
N1148 C1151 1.350 . S
N1149 S1147 1.610 . S
N1149 C1150 1.351 . S
C1150 C1144 1.428 . S
C1150 N1149 1.351 . S
C1150 C1151 1.434 . S
C1151 C1142 1.429 . S
C1151 N1148 1.350 . S
C1151 C1150 1.434 . S
C1152 C1153 1.369 . S
C1152 C1154 1.432 . S
C1152 H1156 0.930 . S
C1153 C1152 1.369 . S
C1153 C1162 1.429 . S
C1154 C1152 1.432 . S
C1154 C1155 1.356 1_565 S
C1154 H1157 0.922 1_565 S
C1155 C1154 1.356 1_545 S
C1155 C1161 1.428 1_545 S
H1156 C1152 0.930 . S
H1157 C1154 0.922 1_545 S
S1158 N1159 1.613 . S
S1158 N1160 1.610 . S
N1159 S1158 1.613 . S
N1159 C1162 1.350 . S
N1160 S1158 1.610 . S
N1160 C1161 1.351 . S
C1161 C1155 1.428 1_565 S
C1161 N1160 1.351 . S
C1161 C1162 1.434 . S
C1162 C1153 1.429 . S
C1162 N1159 1.350 . S
C1162 C1161 1.434 . S
C1163 C1164 1.369 . S
C1163 C1165 1.419 . S
C1163 H1167 0.930 . S
C1164 C1163 1.369 . S
C1164 C1173 1.429 . S
C1165 C1163 1.419 . S
C1165 C1166 1.363 . S
C1165 H1168 0.929 . S
C1166 C1165 1.363 . S
C1166 C1172 1.428 . S
H1167 C1163 0.930 . S
H1168 C1165 0.929 . S
S1169 N1170 1.613 . S
S1169 N1171 1.610 . S
N1170 S1169 1.613 . S
N1170 C1173 1.350 . S
N1171 S1169 1.610 . S
N1171 C1172 1.351 . S
C1172 C1166 1.428 . S
C1172 N1171 1.351 . S
C1172 C1173 1.434 . S
C1173 C1164 1.429 . S
C1173 N1170 1.350 . S
C1173 C1172 1.434 . S
C1174 C1175 1.369 . S
C1174 C1176 1.419 . S
C1174 H1178 0.930 . S
C1175 C1174 1.369 . S
C1175 C1184 1.429 . S
C1176 C1174 1.419 . S
C1176 C1177 1.363 . S
C1176 H1179 0.929 . S
C1177 C1176 1.363 . S
C1177 C1183 1.428 . S
H1178 C1174 0.930 . S
H1179 C1176 0.929 . S
S1180 N1181 1.613 . S
S1180 N1182 1.610 . S
N1181 S1180 1.613 . S
N1181 C1184 1.350 . S
N1182 S1180 1.610 . S
N1182 C1183 1.351 . S
C1183 C1177 1.428 . S
C1183 N1182 1.351 . S
C1183 C1184 1.434 . S
C1184 C1175 1.429 . S
C1184 N1181 1.350 . S
C1184 C1183 1.434 . S
C1185 C1186 1.369 . S
C1185 C1187 1.419 . S
C1185 H1189 0.930 . S
C1186 C1185 1.369 . S
C1186 C1195 1.429 . S
C1187 C1185 1.419 . S
C1187 C1188 1.363 . S
C1187 H1190 0.929 . S
C1188 C1187 1.363 . S
C1188 C1194 1.428 . S
H1189 C1185 0.930 . S
H1190 C1187 0.929 . S
S1191 N1192 1.613 . S
S1191 N1193 1.610 . S
N1192 S1191 1.613 . S
N1192 C1195 1.350 . S
N1193 S1191 1.610 . S
N1193 C1194 1.351 . S
C1194 C1188 1.428 . S
C1194 N1193 1.351 . S
C1194 C1195 1.434 . S
C1195 C1186 1.429 . S
C1195 N1192 1.350 . S
C1195 C1194 1.434 . S
C1196 C1197 1.369 . S
C1196 C1198 1.419 . S
C1196 H1200 0.930 . S
C1197 C1196 1.369 . S
C1197 C1206 1.429 . S
C1198 C1196 1.419 . S
C1198 C1199 1.363 . S
C1198 H1201 0.929 . S
C1199 C1198 1.363 . S
C1199 C1205 1.428 . S
H1200 C1196 0.930 . S
H1201 C1198 0.929 . S
S1202 N1203 1.613 . S
S1202 N1204 1.610 . S
N1203 S1202 1.613 . S
N1203 C1206 1.350 . S
N1204 S1202 1.610 . S
N1204 C1205 1.351 . S
C1205 C1199 1.428 . S
C1205 N1204 1.351 . S
C1205 C1206 1.434 . S
C1206 C1197 1.429 . S
C1206 N1203 1.350 . S
C1206 C1205 1.434 . S
C1207 C1208 1.369 . S
C1207 C1209 1.419 . S
C1207 H1211 0.930 . S
C1208 C1207 1.369 . S
C1208 C1217 1.429 . S
C1209 C1207 1.419 . S
C1209 C1210 1.363 . S
C1209 H1212 0.929 . S
C1210 C1209 1.363 . S
C1210 C1216 1.428 . S
H1211 C1207 0.930 . S
H1212 C1209 0.929 . S
S1213 N1214 1.613 . S
S1213 N1215 1.610 . S
N1214 S1213 1.613 . S
N1214 C1217 1.350 . S
N1215 S1213 1.610 . S
N1215 C1216 1.351 . S
C1216 C1210 1.428 . S
C1216 N1215 1.351 . S
C1216 C1217 1.434 . S
C1217 C1208 1.429 . S
C1217 N1214 1.350 . S
C1217 C1216 1.434 . S
C1218 C1219 1.369 . S
C1218 C1220 1.419 . S
C1218 H1222 0.930 . S
C1219 C1218 1.369 . S
C1219 C1228 1.429 . S
C1220 C1218 1.419 . S
C1220 C1221 1.363 . S
C1220 H1223 0.929 . S
C1221 C1220 1.363 . S
C1221 C1227 1.428 . S
H1222 C1218 0.930 . S
H1223 C1220 0.929 . S
S1224 N1225 1.613 . S
S1224 N1226 1.610 . S
N1225 S1224 1.613 . S
N1225 C1228 1.350 . S
N1226 S1224 1.610 . S
N1226 C1227 1.351 . S
C1227 C1221 1.428 . S
C1227 N1226 1.351 . S
C1227 C1228 1.434 . S
C1228 C1219 1.429 . S
C1228 N1225 1.350 . S
C1228 C1227 1.434 . S
C1229 C1230 1.369 . S
C1229 C1231 1.419 . S
C1229 H1233 0.930 . S
C1230 C1229 1.369 . S
C1230 C1239 1.429 . S
C1231 C1229 1.419 . S
C1231 C1232 1.363 . S
C1231 H1234 0.929 . S
C1232 C1231 1.363 . S
C1232 C1238 1.428 . S
H1233 C1229 0.930 . S
H1234 C1231 0.929 . S
S1235 N1236 1.613 . S
S1235 N1237 1.610 1_455 S
N1236 S1235 1.613 . S
N1236 C1239 1.350 1_455 S
N1237 S1235 1.610 1_655 S
N1237 C1238 1.351 . S
C1238 C1232 1.428 . S
C1238 N1237 1.351 . S
C1238 C1239 1.434 . S
C1239 C1230 1.429 . S
C1239 N1236 1.350 1_655 S
C1239 C1238 1.434 . S
C1240 C1241 1.369 . S
C1240 C1242 1.419 . S
C1240 H1244 0.930 . S
C1241 C1240 1.369 . S
C1241 C1250 1.429 . S
C1242 C1240 1.419 . S
C1242 C1243 1.363 . S
C1242 H1245 0.929 . S
C1243 C1242 1.363 . S
C1243 C1249 1.428 . S
H1244 C1240 0.930 . S
H1245 C1242 0.929 . S
S1246 N1247 1.613 1_545 S
S1246 N1248 1.610 . S
N1247 S1246 1.613 1_565 S
N1247 C1250 1.350 . S
N1248 S1246 1.610 . S
N1248 C1249 1.351 1_545 S
C1249 C1243 1.428 . S
C1249 N1248 1.351 1_565 S
C1249 C1250 1.434 . S
C1250 C1241 1.429 . S
C1250 N1247 1.350 . S
C1250 C1249 1.434 . S
C1251 C1252 1.369 . S
C1251 C1253 1.419 . S
C1251 H1255 0.930 . S
C1252 C1251 1.369 . S
C1252 C1261 1.429 . S
C1253 C1251 1.419 . S
C1253 C1254 1.363 . S
C1253 H1256 0.929 . S
C1254 C1253 1.363 . S
C1254 C1260 1.428 . S
H1255 C1251 0.930 . S
H1256 C1253 0.929 . S
S1257 N1258 1.613 . S
S1257 N1259 1.610 . S
N1258 S1257 1.613 . S
N1258 C1261 1.350 . S
N1259 S1257 1.610 . S
N1259 C1260 1.351 . S
C1260 C1254 1.428 . S
C1260 N1259 1.351 . S
C1260 C1261 1.434 . S
C1261 C1252 1.429 . S
C1261 N1258 1.350 . S
C1261 C1260 1.434 . S
C1262 C1263 1.369 . S
C1262 C1264 1.419 . S
C1262 H1266 0.930 . S
C1263 C1262 1.369 . S
C1263 C1272 1.429 . S
C1264 C1262 1.419 . S
C1264 C1265 1.363 . S
C1264 H1267 0.929 . S
C1265 C1264 1.363 . S
C1265 C1271 1.428 . S
H1266 C1262 0.930 . S
H1267 C1264 0.929 . S
S1268 N1269 1.613 . S
S1268 N1270 1.610 . S
N1269 S1268 1.613 . S
N1269 C1272 1.350 . S
N1270 S1268 1.610 . S
N1270 C1271 1.351 . S
C1271 C1265 1.428 . S
C1271 N1270 1.351 . S
C1271 C1272 1.434 . S
C1272 C1263 1.429 . S
C1272 N1269 1.350 . S
C1272 C1271 1.434 . S
C1273 C1274 1.369 . S
C1273 C1275 1.419 . S
C1273 H1277 0.930 . S
C1274 C1273 1.369 . S
C1274 C1283 1.429 . S
C1275 C1273 1.419 . S
C1275 C1276 1.363 . S
C1275 H1278 0.929 . S
C1276 C1275 1.363 . S
C1276 C1282 1.428 . S
H1277 C1273 0.930 . S
H1278 C1275 0.929 . S
S1279 N1280 1.613 . S
S1279 N1281 1.610 . S
N1280 S1279 1.613 . S
N1280 C1283 1.350 . S
N1281 S1279 1.610 . S
N1281 C1282 1.351 . S
C1282 C1276 1.428 . S
C1282 N1281 1.351 . S
C1282 C1283 1.434 . S
C1283 C1274 1.429 . S
C1283 N1280 1.350 . S
C1283 C1282 1.434 . S
C1284 C1285 1.369 . S
C1284 C1286 1.419 . S
C1284 H1288 0.930 . S
C1285 C1284 1.369 . S
C1285 C1294 1.429 . S
C1286 C1284 1.419 . S
C1286 C1287 1.363 . S
C1286 H1289 0.929 . S
C1287 C1286 1.363 . S
C1287 C1293 1.428 . S
H1288 C1284 0.930 . S
H1289 C1286 0.929 . S
S1290 N1291 1.613 . S
S1290 N1292 1.610 . S
N1291 S1290 1.613 . S
N1291 C1294 1.350 . S
N1292 S1290 1.610 . S
N1292 C1293 1.351 . S
C1293 C1287 1.428 . S
C1293 N1292 1.351 . S
C1293 C1294 1.434 . S
C1294 C1285 1.429 . S
C1294 N1291 1.350 . S
C1294 C1293 1.434 . S
C1295 C1296 1.369 . S
C1295 C1297 1.419 . S
C1295 H1299 0.930 . S
C1296 C1295 1.369 . S
C1296 C1305 1.429 . S
C1297 C1295 1.419 . S
C1297 C1298 1.363 . S
C1297 H1300 0.929 . S
C1298 C1297 1.363 . S
C1298 C1304 1.428 . S
H1299 C1295 0.930 . S
H1300 C1297 0.929 . S
S1301 N1302 1.613 . S
S1301 N1303 1.610 . S
N1302 S1301 1.613 . S
N1302 C1305 1.350 . S
N1303 S1301 1.610 . S
N1303 C1304 1.351 . S
C1304 C1298 1.428 . S
C1304 N1303 1.351 . S
C1304 C1305 1.434 . S
C1305 C1296 1.429 . S
C1305 N1302 1.350 . S
C1305 C1304 1.434 . S
C1306 C1307 1.369 . S
C1306 C1308 1.401 1_556 S
C1306 H1310 0.930 . S
C1307 C1306 1.369 . S
C1307 C1316 1.429 . S
C1308 C1306 1.401 1_554 S
C1308 C1309 1.347 1_554 S
C1308 H1311 0.964 . S
C1309 C1308 1.347 1_556 S
C1309 C1315 1.428 . S
H1310 C1306 0.930 . S
H1311 C1308 0.964 . S
S1312 N1313 1.613 . S
S1312 N1314 1.610 . S
N1313 S1312 1.613 . S
N1313 C1316 1.350 . S
N1314 S1312 1.610 . S
N1314 C1315 1.351 . S
C1315 C1309 1.428 . S
C1315 N1314 1.351 . S
C1315 C1316 1.434 . S
C1316 C1307 1.429 . S
C1316 N1313 1.350 . S
C1316 C1315 1.434 . S
C1317 C1318 1.369 . S
C1317 C1319 1.419 . S
C1317 H1321 0.930 . S
C1318 C1317 1.369 . S
C1318 C1327 1.429 . S
C1319 C1317 1.419 . S
C1319 C1320 1.363 . S
C1319 H1322 0.929 . S
C1320 C1319 1.363 . S
C1320 C1326 1.428 . S
H1321 C1317 0.930 . S
H1322 C1319 0.929 . S
S1323 N1324 1.613 . S
S1323 N1325 1.610 . S
N1324 S1323 1.613 . S
N1324 C1327 1.350 . S
N1325 S1323 1.610 . S
N1325 C1326 1.351 . S
C1326 C1320 1.428 . S
C1326 N1325 1.351 . S
C1326 C1327 1.434 . S
C1327 C1318 1.429 . S
C1327 N1324 1.350 . S
C1327 C1326 1.434 . S
C1328 C1329 1.369 . S
C1328 C1330 1.419 . S
C1328 H1332 0.930 . S
C1329 C1328 1.369 . S
C1329 C1338 1.429 . S
C1330 C1328 1.419 . S
C1330 C1331 1.363 . S
C1330 H1333 0.929 . S
C1331 C1330 1.363 . S
C1331 C1337 1.428 . S
H1332 C1328 0.930 . S
H1333 C1330 0.929 . S
S1334 N1335 1.613 1_554 S
S1334 N1336 1.610 . S
N1335 S1334 1.613 1_556 S
N1335 C1338 1.350 . S
N1336 S1334 1.610 . S
N1336 C1337 1.351 1_554 S
C1337 C1331 1.428 . S
C1337 N1336 1.351 1_556 S
C1337 C1338 1.434 . S
C1338 C1329 1.429 . S
C1338 N1335 1.350 . S
C1338 C1337 1.434 . S
C1339 C1340 1.369 . S
C1339 C1341 1.419 . S
C1339 H1343 0.930 . S
C1340 C1339 1.369 . S
C1340 C1349 1.429 . S
C1341 C1339 1.419 . S
C1341 C1342 1.363 . S
C1341 H1344 0.929 . S
C1342 C1341 1.363 . S
C1342 C1348 1.428 . S
H1343 C1339 0.930 . S
H1344 C1341 0.929 . S
S1345 N1346 1.613 . S
S1345 N1347 1.610 . S
N1346 S1345 1.613 . S
N1346 C1349 1.350 . S
N1347 S1345 1.610 . S
N1347 C1348 1.351 . S
C1348 C1342 1.428 . S
C1348 N1347 1.351 . S
C1348 C1349 1.434 . S
C1349 C1340 1.429 . S
C1349 N1346 1.350 . S
C1349 C1348 1.434 . S
C1350 C1351 1.369 . S
C1350 C1352 1.419 . S
C1350 H1354 0.930 . S
C1351 C1350 1.369 . S
C1351 C1360 1.429 . S
C1352 C1350 1.419 . S
C1352 C1353 1.363 . S
C1352 H1355 0.929 . S
C1353 C1352 1.363 . S
C1353 C1359 1.428 . S
H1354 C1350 0.930 . S
H1355 C1352 0.929 . S
S1356 N1357 1.613 . S
S1356 N1358 1.610 . S
N1357 S1356 1.613 . S
N1357 C1360 1.350 . S
N1358 S1356 1.610 . S
N1358 C1359 1.351 . S
C1359 C1353 1.428 . S
C1359 N1358 1.351 . S
C1359 C1360 1.434 . S
C1360 C1351 1.429 . S
C1360 N1357 1.350 . S
C1360 C1359 1.434 . S
C1361 C1362 1.369 . S
C1361 C1363 1.419 . S
C1361 H1365 0.930 . S
C1362 C1361 1.369 . S
C1362 C1371 1.429 . S
C1363 C1361 1.419 . S
C1363 C1364 1.363 . S
C1363 H1366 0.929 . S
C1364 C1363 1.363 . S
C1364 C1370 1.428 . S
H1365 C1361 0.930 . S
H1366 C1363 0.929 . S
S1367 N1368 1.613 . S
S1367 N1369 1.610 . S
N1368 S1367 1.613 . S
N1368 C1371 1.350 . S
N1369 S1367 1.610 . S
N1369 C1370 1.351 . S
C1370 C1364 1.428 . S
C1370 N1369 1.351 . S
C1370 C1371 1.434 . S
C1371 C1362 1.429 . S
C1371 N1368 1.350 . S
C1371 C1370 1.434 . S
C1372 C1373 1.369 . S
C1372 C1374 1.419 . S
C1372 H1376 0.930 . S
C1373 C1372 1.369 . S
C1373 C1382 1.429 . S
C1374 C1372 1.419 . S
C1374 C1375 1.363 . S
C1374 H1377 0.929 . S
C1375 C1374 1.363 . S
C1375 C1381 1.428 . S
H1376 C1372 0.930 . S
H1377 C1374 0.929 . S
S1378 N1379 1.613 . S
S1378 N1380 1.610 . S
N1379 S1378 1.613 . S
N1379 C1382 1.350 . S
N1380 S1378 1.610 . S
N1380 C1381 1.351 . S
C1381 C1375 1.428 . S
C1381 N1380 1.351 . S
C1381 C1382 1.434 . S
C1382 C1373 1.429 . S
C1382 N1379 1.350 . S
C1382 C1381 1.434 . S
C1383 C1384 1.369 . S
C1383 C1385 1.419 . S
C1383 H1387 0.930 . S
C1384 C1383 1.369 . S
C1384 C1393 1.429 . S
C1385 C1383 1.419 . S
C1385 C1386 1.363 . S
C1385 H1388 0.929 . S
C1386 C1385 1.363 . S
C1386 C1392 1.428 . S
H1387 C1383 0.930 . S
H1388 C1385 0.929 . S
S1389 N1390 1.613 . S
S1389 N1391 1.610 . S
N1390 S1389 1.613 . S
N1390 C1393 1.350 . S
N1391 S1389 1.610 . S
N1391 C1392 1.351 . S
C1392 C1386 1.428 . S
C1392 N1391 1.351 . S
C1392 C1393 1.434 . S
C1393 C1384 1.429 . S
C1393 N1390 1.350 . S
C1393 C1392 1.434 . S
C1394 C1395 1.369 . S
C1394 C1396 1.419 . S
C1394 H1398 0.930 . S
C1395 C1394 1.369 . S
C1395 C1404 1.429 . S
C1396 C1394 1.419 . S
C1396 C1397 1.363 . S
C1396 H1399 0.929 . S
C1397 C1396 1.363 . S
C1397 C1403 1.428 . S
H1398 C1394 0.930 . S
H1399 C1396 0.929 . S
S1400 N1401 1.613 . S
S1400 N1402 1.610 . S
N1401 S1400 1.613 . S
N1401 C1404 1.350 . S
N1402 S1400 1.610 . S
N1402 C1403 1.351 . S
C1403 C1397 1.428 . S
C1403 N1402 1.351 . S
C1403 C1404 1.434 . S
C1404 C1395 1.429 . S
C1404 N1401 1.350 . S
C1404 C1403 1.434 . S
C1405 C1406 1.369 . S
C1405 C1407 1.419 . S
C1405 H1409 0.930 . S
C1406 C1405 1.369 . S
C1406 C1415 1.429 . S
C1407 C1405 1.419 . S
C1407 C1408 1.363 . S
C1407 H1410 0.929 . S
C1408 C1407 1.363 . S
C1408 C1414 1.428 . S
H1409 C1405 0.930 . S
H1410 C1407 0.929 . S
S1411 N1412 1.613 . S
S1411 N1413 1.610 . S
N1412 S1411 1.613 . S
N1412 C1415 1.350 . S
N1413 S1411 1.610 . S
N1413 C1414 1.351 . S
C1414 C1408 1.428 . S
C1414 N1413 1.351 . S
C1414 C1415 1.434 . S
C1415 C1406 1.429 . S
C1415 N1412 1.350 . S
C1415 C1414 1.434 . S
C1416 C1417 1.369 1_556 S
C1416 C1418 1.419 . S
C1416 H1420 0.930 . S
C1417 C1416 1.369 1_554 S
C1417 C1426 1.429 . S
C1418 C1416 1.419 . S
C1418 C1419 1.363 . S
C1418 H1421 0.929 . S
C1419 C1418 1.363 . S
C1419 C1425 1.428 1_556 S
H1420 C1416 0.930 . S
H1421 C1418 0.929 . S
S1422 N1423 1.613 . S
S1422 N1424 1.610 . S
N1423 S1422 1.613 . S
N1423 C1426 1.350 . S
N1424 S1422 1.610 . S
N1424 C1425 1.351 . S
C1425 C1419 1.428 1_554 S
C1425 N1424 1.351 . S
C1425 C1426 1.434 . S
C1426 C1417 1.429 . S
C1426 N1423 1.350 . S
C1426 C1425 1.434 . S
C1427 C1428 1.369 . S
C1427 C1429 1.419 . S
C1427 H1431 0.930 . S
C1428 C1427 1.369 . S
C1428 C1437 1.429 . S
C1429 C1427 1.419 . S
C1429 C1430 1.363 . S
C1429 H1432 0.929 . S
C1430 C1429 1.363 . S
C1430 C1436 1.428 . S
H1431 C1427 0.930 . S
H1432 C1429 0.929 . S
S1433 N1434 1.613 . S
S1433 N1435 1.610 . S
N1434 S1433 1.613 . S
N1434 C1437 1.350 . S
N1435 S1433 1.610 . S
N1435 C1436 1.351 . S
C1436 C1430 1.428 . S
C1436 N1435 1.351 . S
C1436 C1437 1.434 . S
C1437 C1428 1.429 . S
C1437 N1434 1.350 . S
C1437 C1436 1.434 . S
C1438 C1439 1.369 . S
C1438 C1440 1.419 . S
C1438 H1442 0.930 . S
C1439 C1438 1.369 . S
C1439 C1448 1.429 . S
C1440 C1438 1.419 . S
C1440 C1441 1.363 . S
C1440 H1443 0.929 . S
C1441 C1440 1.363 . S
C1441 C1447 1.428 . S
H1442 C1438 0.930 . S
H1443 C1440 0.929 . S
S1444 N1445 1.613 . S
S1444 N1446 1.610 . S
N1445 S1444 1.613 . S
N1445 C1448 1.350 . S
N1446 S1444 1.610 . S
N1446 C1447 1.351 . S
C1447 C1441 1.428 . S
C1447 N1446 1.351 . S
C1447 C1448 1.434 . S
C1448 C1439 1.429 . S
C1448 N1445 1.350 . S
C1448 C1447 1.434 . S
C1449 C1450 1.369 . S
C1449 C1451 1.419 . S
C1449 H1453 0.930 . S
C1450 C1449 1.369 . S
C1450 C1459 1.429 . S
C1451 C1449 1.419 . S
C1451 C1452 1.363 . S
C1451 H1454 0.929 . S
C1452 C1451 1.363 . S
C1452 C1458 1.428 . S
H1453 C1449 0.930 . S
H1454 C1451 0.929 . S
S1455 N1456 1.613 . S
S1455 N1457 1.610 . S
N1456 S1455 1.613 . S
N1456 C1459 1.350 . S
N1457 S1455 1.610 . S
N1457 C1458 1.351 . S
C1458 C1452 1.428 . S
C1458 N1457 1.351 . S
C1458 C1459 1.434 . S
C1459 C1450 1.429 . S
C1459 N1456 1.350 . S
C1459 C1458 1.434 . S
C1460 C1461 1.369 . S
C1460 C1462 1.419 . S
C1460 H1464 0.930 . S
C1461 C1460 1.369 . S
C1461 C1470 1.429 . S
C1462 C1460 1.419 . S
C1462 C1463 1.363 . S
C1462 H1465 0.929 . S
C1463 C1462 1.363 . S
C1463 C1469 1.428 . S
H1464 C1460 0.930 . S
H1465 C1462 0.929 . S
S1466 N1467 1.613 . S
S1466 N1468 1.610 . S
N1467 S1466 1.613 . S
N1467 C1470 1.350 . S
N1468 S1466 1.610 . S
N1468 C1469 1.351 . S
C1469 C1463 1.428 . S
C1469 N1468 1.351 . S
C1469 C1470 1.434 . S
C1470 C1461 1.429 . S
C1470 N1467 1.350 . S
C1470 C1469 1.434 . S
C1471 C1472 1.369 . S
C1471 C1473 1.419 1_565 S
C1471 H1475 0.930 . S
C1472 C1471 1.369 . S
C1472 C1481 1.429 . S
C1473 C1471 1.419 1_545 S
C1473 C1474 1.363 . S
C1473 H1476 0.929 . S
C1474 C1473 1.363 . S
C1474 C1480 1.428 1_545 S
H1475 C1471 0.930 . S
H1476 C1473 0.929 . S
S1477 N1478 1.613 . S
S1477 N1479 1.610 . S
N1478 S1477 1.613 . S
N1478 C1481 1.350 . S
N1479 S1477 1.610 . S
N1479 C1480 1.351 . S
C1480 C1474 1.428 1_565 S
C1480 N1479 1.351 . S
C1480 C1481 1.434 . S
C1481 C1472 1.429 . S
C1481 N1478 1.350 . S
C1481 C1480 1.434 . S
C1482 C1483 1.369 . S
C1482 C1484 1.419 . S
C1482 H1486 0.930 . S
C1483 C1482 1.369 . S
C1483 C1492 1.429 . S
C1484 C1482 1.419 . S
C1484 C1485 1.363 . S
C1484 H1487 0.929 . S
C1485 C1484 1.363 . S
C1485 C1491 1.428 . S
H1486 C1482 0.930 . S
H1487 C1484 0.929 . S
S1488 N1489 1.613 . S
S1488 N1490 1.610 . S
N1489 S1488 1.613 . S
N1489 C1492 1.350 . S
N1490 S1488 1.610 . S
N1490 C1491 1.351 . S
C1491 C1485 1.428 . S
C1491 N1490 1.351 . S
C1491 C1492 1.434 . S
C1492 C1483 1.429 . S
C1492 N1489 1.350 . S
C1492 C1491 1.434 . S
C1493 C1494 1.369 . S
C1493 C1495 1.419 . S
C1493 H1497 0.930 . S
C1494 C1493 1.369 . S
C1494 C1503 1.429 . S
C1495 C1493 1.419 . S
C1495 C1496 1.363 . S
C1495 H1498 0.929 . S
C1496 C1495 1.363 . S
C1496 C1502 1.428 . S
H1497 C1493 0.930 . S
H1498 C1495 0.929 . S
S1499 N1500 1.613 . S
S1499 N1501 1.610 . S
N1500 S1499 1.613 . S
N1500 C1503 1.350 . S
N1501 S1499 1.610 . S
N1501 C1502 1.351 . S
C1502 C1496 1.428 . S
C1502 N1501 1.351 . S
C1502 C1503 1.434 . S
C1503 C1494 1.429 . S
C1503 N1500 1.350 . S
C1503 C1502 1.434 . S
C1504 C1505 1.369 . S
C1504 C1506 1.419 . S
C1504 H1508 0.930 . S
C1505 C1504 1.369 . S
C1505 C1514 1.429 . S
C1506 C1504 1.419 . S
C1506 C1507 1.363 . S
C1506 H1509 0.929 . S
C1507 C1506 1.363 . S
C1507 C1513 1.428 . S
H1508 C1504 0.930 . S
H1509 C1506 0.929 . S
S1510 N1511 1.613 . S
S1510 N1512 1.610 . S
N1511 S1510 1.613 . S
N1511 C1514 1.350 . S
N1512 S1510 1.610 . S
N1512 C1513 1.351 . S
C1513 C1507 1.428 . S
C1513 N1512 1.351 . S
C1513 C1514 1.434 . S
C1514 C1505 1.429 . S
C1514 N1511 1.350 . S
C1514 C1513 1.434 . S
C1515 C1516 1.369 . S
C1515 C1517 1.419 . S
C1515 H1519 0.930 . S
C1516 C1515 1.369 . S
C1516 C1525 1.429 . S
C1517 C1515 1.419 . S
C1517 C1518 1.363 . S
C1517 H1520 0.929 . S
C1518 C1517 1.363 . S
C1518 C1524 1.428 . S
H1519 C1515 0.930 . S
H1520 C1517 0.929 . S
S1521 N1522 1.613 . S
S1521 N1523 1.610 . S
N1522 S1521 1.613 . S
N1522 C1525 1.350 . S
N1523 S1521 1.610 . S
N1523 C1524 1.351 . S
C1524 C1518 1.428 . S
C1524 N1523 1.351 . S
C1524 C1525 1.434 . S
C1525 C1516 1.429 . S
C1525 N1522 1.350 . S
C1525 C1524 1.434 . S
C1526 C1527 1.369 . S
C1526 C1528 1.419 . S
C1526 H1530 0.930 . S
C1527 C1526 1.369 . S
C1527 C1536 1.429 . S
C1528 C1526 1.419 . S
C1528 C1529 1.363 . S
C1528 H1531 0.929 . S
C1529 C1528 1.363 . S
C1529 C1535 1.428 . S
H1530 C1526 0.930 . S
H1531 C1528 0.929 . S
S1532 N1533 1.613 1_454 S
S1532 N1534 1.610 . S
N1533 S1532 1.613 1_656 S
N1533 C1536 1.350 1_655 S
N1534 S1532 1.610 . S
N1534 C1535 1.351 1_554 S
C1535 C1529 1.428 . S
C1535 N1534 1.351 1_556 S
C1535 C1536 1.434 . S
C1536 C1527 1.429 . S
C1536 N1533 1.350 1_455 S
C1536 C1535 1.434 . S
C1537 C1538 1.369 . S
C1537 C1539 1.419 1_455 S
C1537 H1541 0.930 . S
C1538 C1537 1.369 . S
C1538 C1547 1.429 . S
C1539 C1537 1.419 1_655 S
C1539 C1540 1.363 . S
C1539 H1542 0.929 . S
C1540 C1539 1.363 . S
C1540 C1546 1.428 1_655 S
H1541 C1537 0.930 . S
H1542 C1539 0.929 . S
S1543 N1544 1.613 . S
S1543 N1545 1.610 . S
N1544 S1543 1.613 . S
N1544 C1547 1.350 . S
N1545 S1543 1.610 . S
N1545 C1546 1.351 . S
C1546 C1540 1.428 1_455 S
C1546 N1545 1.351 . S
C1546 C1547 1.434 . S
C1547 C1538 1.429 . S
C1547 N1544 1.350 . S
C1547 C1546 1.434 . S
C1548 C1549 1.369 . S
C1548 C1550 1.419 . S
C1548 H1552 0.930 . S
C1549 C1548 1.369 . S
C1549 C1558 1.429 . S
C1550 C1548 1.419 . S
C1550 C1551 1.363 . S
C1550 H1553 0.929 . S
C1551 C1550 1.363 . S
C1551 C1557 1.428 . S
H1552 C1548 0.930 . S
H1553 C1550 0.929 . S
S1554 N1555 1.613 . S
S1554 N1556 1.610 . S
N1555 S1554 1.613 . S
N1555 C1558 1.350 . S
N1556 S1554 1.610 . S
N1556 C1557 1.351 . S
C1557 C1551 1.428 . S
C1557 N1556 1.351 . S
C1557 C1558 1.434 . S
C1558 C1549 1.429 . S
C1558 N1555 1.350 . S
C1558 C1557 1.434 . S
C1559 C1560 1.369 . S
C1559 C1561 1.419 . S
C1559 H1563 0.930 . S
C1560 C1559 1.369 . S
C1560 C1569 1.429 . S
C1561 C1559 1.419 . S
C1561 C1562 1.363 . S
C1561 H1564 0.929 . S
C1562 C1561 1.363 . S
C1562 C1568 1.428 . S
H1563 C1559 0.930 . S
H1564 C1561 0.929 . S
S1565 N1566 1.613 . S
S1565 N1567 1.610 . S
N1566 S1565 1.613 . S
N1566 C1569 1.350 . S
N1567 S1565 1.610 . S
N1567 C1568 1.351 . S
C1568 C1562 1.428 . S
C1568 N1567 1.351 . S
C1568 C1569 1.434 . S
C1569 C1560 1.429 . S
C1569 N1566 1.350 . S
C1569 C1568 1.434 . S
C1570 C1571 1.369 . S
C1570 C1572 1.419 . S
C1570 H1574 0.930 . S
C1571 C1570 1.369 . S
C1571 C1580 1.429 . S
C1572 C1570 1.419 . S
C1572 C1573 1.363 . S
C1572 H1575 0.929 . S
C1573 C1572 1.363 . S
C1573 C1579 1.428 . S
H1574 C1570 0.930 . S
H1575 C1572 0.929 . S
S1576 N1577 1.613 . S
S1576 N1578 1.610 . S
N1577 S1576 1.613 . S
N1577 C1580 1.350 1_655 S
N1578 S1576 1.610 . S
N1578 C1579 1.351 1_655 S
C1579 C1573 1.428 . S
C1579 N1578 1.351 1_455 S
C1579 C1580 1.434 . S
C1580 C1571 1.429 . S
C1580 N1577 1.350 1_455 S
C1580 C1579 1.434 . S
C1581 C1582 1.369 . S
C1581 C1583 1.419 . S
C1581 H1585 0.930 . S
C1582 C1581 1.369 . S
C1582 C1591 1.429 . S
C1583 C1581 1.419 . S
C1583 C1584 1.363 . S
C1583 H1586 0.929 . S
C1584 C1583 1.363 . S
C1584 C1590 1.428 . S
H1585 C1581 0.930 . S
H1586 C1583 0.929 . S
S1587 N1588 1.613 . S
S1587 N1589 1.610 . S
N1588 S1587 1.613 . S
N1588 C1591 1.350 . S
N1589 S1587 1.610 . S
N1589 C1590 1.351 . S
C1590 C1584 1.428 . S
C1590 N1589 1.351 . S
C1590 C1591 1.434 . S
C1591 C1582 1.429 . S
C1591 N1588 1.350 . S
C1591 C1590 1.434 . S
C1592 C1593 1.369 . S
C1592 C1594 1.419 . S
C1592 H1596 0.930 . S
C1593 C1592 1.369 . S
C1593 C1602 1.429 . S
C1594 C1592 1.419 . S
C1594 C1595 1.363 . S
C1594 H1597 0.929 . S
C1595 C1594 1.363 . S
C1595 C1601 1.428 . S
H1596 C1592 0.930 . S
H1597 C1594 0.929 . S
S1598 N1599 1.613 . S
S1598 N1600 1.610 . S
N1599 S1598 1.613 . S
N1599 C1602 1.350 . S
N1600 S1598 1.610 . S
N1600 C1601 1.351 . S
C1601 C1595 1.428 . S
C1601 N1600 1.351 . S
C1601 C1602 1.434 . S
C1602 C1593 1.429 . S
C1602 N1599 1.350 . S
C1602 C1601 1.434 . S
C1603 C1604 1.369 . S
C1603 C1605 1.419 . S
C1603 H1607 0.930 . S
C1604 C1603 1.369 . S
C1604 C1613 1.429 . S
C1605 C1603 1.419 . S
C1605 C1606 1.363 . S
C1605 H1608 0.929 . S
C1606 C1605 1.363 . S
C1606 C1612 1.428 . S
H1607 C1603 0.930 . S
H1608 C1605 0.929 . S
S1609 N1610 1.613 . S
S1609 N1611 1.610 . S
N1610 S1609 1.613 . S
N1610 C1613 1.350 . S
N1611 S1609 1.610 . S
N1611 C1612 1.351 . S
C1612 C1606 1.428 . S
C1612 N1611 1.351 . S
C1612 C1613 1.434 . S
C1613 C1604 1.429 . S
C1613 N1610 1.350 . S
C1613 C1612 1.434 . S
C1614 C1615 1.369 . S
C1614 C1616 1.419 . S
C1614 H1618 0.930 . S
C1615 C1614 1.369 . S
C1615 C1624 1.429 . S
C1616 C1614 1.419 . S
C1616 C1617 1.363 . S
C1616 H1619 0.929 . S
C1617 C1616 1.363 . S
C1617 C1623 1.428 . S
H1618 C1614 0.930 . S
H1619 C1616 0.929 . S
S1620 N1621 1.613 1_655 S
S1620 N1622 1.610 1_655 S
N1621 S1620 1.613 1_455 S
N1621 C1624 1.350 . S
N1622 S1620 1.610 1_455 S
N1622 C1623 1.351 . S
C1623 C1617 1.428 . S
C1623 N1622 1.351 . S
C1623 C1624 1.434 . S
C1624 C1615 1.429 . S
C1624 N1621 1.350 . S
C1624 C1623 1.434 . S
C1625 C1626 1.369 . S
C1625 C1627 1.419 . S
C1625 H1629 0.930 . S
C1626 C1625 1.369 . S
C1626 C1635 1.429 . S
C1627 C1625 1.419 . S
C1627 C1628 1.363 . S
C1627 H1630 0.929 . S
C1628 C1627 1.363 . S
C1628 C1634 1.428 . S
H1629 C1625 0.930 . S
H1630 C1627 0.929 . S
S1631 N1632 1.613 . S
S1631 N1633 1.610 . S
N1632 S1631 1.613 . S
N1632 C1635 1.350 . S
N1633 S1631 1.610 . S
N1633 C1634 1.351 . S
C1634 C1628 1.428 . S
C1634 N1633 1.351 . S
C1634 C1635 1.434 . S
C1635 C1626 1.429 . S
C1635 N1632 1.350 . S
C1635 C1634 1.434 . S
C1636 C1637 1.369 . S
C1636 C1638 1.419 . S
C1636 H1640 0.930 . S
C1637 C1636 1.369 . S
C1637 C1646 1.429 . S
C1638 C1636 1.419 . S
C1638 C1639 1.363 . S
C1638 H1641 0.929 . S
C1639 C1638 1.363 . S
C1639 C1645 1.428 . S
H1640 C1636 0.930 . S
H1641 C1638 0.929 . S
S1642 N1643 1.613 . S
S1642 N1644 1.610 . S
N1643 S1642 1.613 . S
N1643 C1646 1.350 . S
N1644 S1642 1.610 . S
N1644 C1645 1.351 . S
C1645 C1639 1.428 . S
C1645 N1644 1.351 . S
C1645 C1646 1.434 . S
C1646 C1637 1.429 . S
C1646 N1643 1.350 . S
C1646 C1645 1.434 . S
C1647 C1648 1.369 . S
C1647 C1649 1.419 . S
C1647 H1651 0.930 . S
C1648 C1647 1.369 . S
C1648 C1657 1.429 . S
C1649 C1647 1.419 . S
C1649 C1650 1.363 . S
C1649 H1652 0.929 . S
C1650 C1649 1.363 . S
C1650 C1656 1.428 . S
H1651 C1647 0.930 . S
H1652 C1649 0.929 . S
S1653 N1654 1.613 . S
S1653 N1655 1.610 . S
N1654 S1653 1.613 . S
N1654 C1657 1.350 . S
N1655 S1653 1.610 . S
N1655 C1656 1.351 . S
C1656 C1650 1.428 . S
C1656 N1655 1.351 . S
C1656 C1657 1.434 . S
C1657 C1648 1.429 . S
C1657 N1654 1.350 . S
C1657 C1656 1.434 . S
C1658 C1659 1.369 . S
C1658 C1660 1.419 . S
C1658 H1662 0.930 . S
C1659 C1658 1.369 . S
C1659 C1668 1.429 . S
C1660 C1658 1.419 . S
C1660 C1661 1.363 . S
C1660 H1663 0.929 . S
C1661 C1660 1.363 . S
C1661 C1667 1.428 . S
H1662 C1658 0.930 . S
H1663 C1660 0.929 . S
S1664 N1665 1.613 . S
S1664 N1666 1.610 . S
N1665 S1664 1.613 . S
N1665 C1668 1.350 . S
N1666 S1664 1.610 . S
N1666 C1667 1.351 . S
C1667 C1661 1.428 . S
C1667 N1666 1.351 . S
C1667 C1668 1.434 . S
C1668 C1659 1.429 . S
C1668 N1665 1.350 . S
C1668 C1667 1.434 . S
C1669 C1670 1.369 . S
C1669 C1671 1.419 . S
C1669 H1673 0.930 . S
C1670 C1669 1.369 . S
C1670 C1679 1.429 . S
C1671 C1669 1.419 . S
C1671 C1672 1.363 . S
C1671 H1674 0.929 . S
C1672 C1671 1.363 . S
C1672 C1678 1.428 . S
H1673 C1669 0.930 . S
H1674 C1671 0.929 . S
S1675 N1676 1.613 . S
S1675 N1677 1.610 . S
N1676 S1675 1.613 . S
N1676 C1679 1.350 . S
N1677 S1675 1.610 . S
N1677 C1678 1.351 . S
C1678 C1672 1.428 . S
C1678 N1677 1.351 . S
C1678 C1679 1.434 . S
C1679 C1670 1.429 . S
C1679 N1676 1.350 . S
C1679 C1678 1.434 . S
C1680 C1681 1.369 . S
C1680 C1682 1.419 . S
C1680 H1684 0.930 . S
C1681 C1680 1.369 . S
C1681 C1690 1.429 . S
C1682 C1680 1.419 . S
C1682 C1683 1.363 . S
C1682 H1685 0.929 . S
C1683 C1682 1.363 . S
C1683 C1689 1.428 . S
H1684 C1680 0.930 . S
H1685 C1682 0.929 . S
S1686 N1687 1.613 . S
S1686 N1688 1.610 . S
N1687 S1686 1.613 . S
N1687 C1690 1.350 . S
N1688 S1686 1.610 . S
N1688 C1689 1.351 . S
C1689 C1683 1.428 . S
C1689 N1688 1.351 . S
C1689 C1690 1.434 . S
C1690 C1681 1.429 . S
C1690 N1687 1.350 . S
C1690 C1689 1.434 . S
C1691 C1692 1.369 . S
C1691 C1693 1.419 . S
C1691 H1695 0.930 . S
C1692 C1691 1.369 . S
C1692 C1701 1.429 . S
C1693 C1691 1.419 . S
C1693 C1694 1.363 . S
C1693 H1696 0.929 . S
C1694 C1693 1.363 . S
C1694 C1700 1.428 . S
H1695 C1691 0.930 . S
H1696 C1693 0.929 . S
S1697 N1698 1.613 . S
S1697 N1699 1.610 . S
N1698 S1697 1.613 . S
N1698 C1701 1.350 . S
N1699 S1697 1.610 . S
N1699 C1700 1.351 . S
C1700 C1694 1.428 . S
C1700 N1699 1.351 . S
C1700 C1701 1.434 . S
C1701 C1692 1.429 . S
C1701 N1698 1.350 . S
C1701 C1700 1.434 . S
C1702 C1703 1.369 . S
C1702 C1704 1.419 1_545 S
C1702 H1706 0.930 . S
C1703 C1702 1.369 . S
C1703 C1712 1.429 1_545 S
C1704 C1702 1.419 1_565 S
C1704 C1705 1.363 . S
C1704 H1707 0.929 . S
C1705 C1704 1.363 . S
C1705 C1711 1.428 . S
H1706 C1702 0.930 . S
H1707 C1704 0.929 . S
S1708 N1709 1.613 . S
S1708 N1710 1.610 . S
N1709 S1708 1.613 . S
N1709 C1712 1.350 . S
N1710 S1708 1.610 . S
N1710 C1711 1.351 . S
C1711 C1705 1.428 . S
C1711 N1710 1.351 . S
C1711 C1712 1.434 . S
C1712 C1703 1.429 1_565 S
C1712 N1709 1.350 . S
C1712 C1711 1.434 . S
C1713 C1714 1.369 . S
C1713 C1715 1.419 . S
C1713 H1717 0.930 . S
C1714 C1713 1.369 . S
C1714 C1723 1.429 . S
C1715 C1713 1.419 . S
C1715 C1716 1.363 . S
C1715 H1718 0.929 . S
C1716 C1715 1.363 . S
C1716 C1722 1.428 . S
H1717 C1713 0.930 . S
H1718 C1715 0.929 . S
S1719 N1720 1.613 . S
S1719 N1721 1.610 . S
N1720 S1719 1.613 . S
N1720 C1723 1.350 . S
N1721 S1719 1.610 . S
N1721 C1722 1.351 . S
C1722 C1716 1.428 . S
C1722 N1721 1.351 . S
C1722 C1723 1.434 . S
C1723 C1714 1.429 . S
C1723 N1720 1.350 . S
C1723 C1722 1.434 . S
C1724 C1725 1.369 . S
C1724 C1726 1.419 . S
C1724 H1728 0.930 . S
C1725 C1724 1.369 . S
C1725 C1734 1.429 . S
C1726 C1724 1.419 . S
C1726 C1727 1.363 . S
C1726 H1729 0.929 . S
C1727 C1726 1.363 . S
C1727 C1733 1.428 . S
H1728 C1724 0.930 . S
H1729 C1726 0.929 . S
S1730 N1731 1.613 . S
S1730 N1732 1.610 . S
N1731 S1730 1.613 . S
N1731 C1734 1.350 . S
N1732 S1730 1.610 . S
N1732 C1733 1.351 . S
C1733 C1727 1.428 . S
C1733 N1732 1.351 . S
C1733 C1734 1.434 . S
C1734 C1725 1.429 . S
C1734 N1731 1.350 . S
C1734 C1733 1.434 . S
C1735 C1736 1.369 . S
C1735 C1737 1.419 . S
C1735 H1739 0.930 . S
C1736 C1735 1.369 . S
C1736 C1745 1.429 . S
C1737 C1735 1.419 . S
C1737 C1738 1.363 . S
C1737 H1740 0.929 . S
C1738 C1737 1.363 . S
C1738 C1744 1.428 . S
H1739 C1735 0.930 . S
H1740 C1737 0.929 . S
S1741 N1742 1.613 1_455 S
S1741 N1743 1.610 . S
N1742 S1741 1.613 1_655 S
N1742 C1745 1.350 . S
N1743 S1741 1.610 . S
N1743 C1744 1.351 1_455 S
C1744 C1738 1.428 . S
C1744 N1743 1.351 1_655 S
C1744 C1745 1.434 . S
C1745 C1736 1.429 . S
C1745 N1742 1.350 . S
C1745 C1744 1.434 . S
C1746 C1747 1.369 . S
C1746 C1748 1.419 . S
C1746 H1750 0.930 . S
C1747 C1746 1.369 . S
C1747 C1756 1.429 . S
C1748 C1746 1.419 . S
C1748 C1749 1.363 . S
C1748 H1751 0.929 . S
C1749 C1748 1.363 . S
C1749 C1755 1.428 . S
H1750 C1746 0.930 . S
H1751 C1748 0.929 . S
S1752 N1753 1.613 . S
S1752 N1754 1.610 . S
N1753 S1752 1.613 . S
N1753 C1756 1.350 . S
N1754 S1752 1.610 . S
N1754 C1755 1.351 . S
C1755 C1749 1.428 . S
C1755 N1754 1.351 . S
C1755 C1756 1.434 . S
C1756 C1747 1.429 . S
C1756 N1753 1.350 . S
C1756 C1755 1.434 . S
C1757 C1758 1.369 . S
C1757 C1759 1.419 1_545 S
C1757 H1761 0.930 . S
C1758 C1757 1.369 . S
C1758 C1767 1.429 . S
C1759 C1757 1.419 1_565 S
C1759 C1760 1.363 . S
C1759 H1762 0.929 . S
C1760 C1759 1.363 . S
C1760 C1766 1.428 1_565 S
H1761 C1757 0.930 . S
H1762 C1759 0.929 . S
S1763 N1764 1.613 . S
S1763 N1765 1.610 . S
N1764 S1763 1.613 . S
N1764 C1767 1.350 . S
N1765 S1763 1.610 . S
N1765 C1766 1.351 . S
C1766 C1760 1.428 1_545 S
C1766 N1765 1.351 . S
C1766 C1767 1.434 . S
C1767 C1758 1.429 . S
C1767 N1764 1.350 . S
C1767 C1766 1.434 . S
C1768 C1769 1.369 . S
C1768 C1770 1.419 . S
C1768 H1772 0.930 . S
C1769 C1768 1.369 . S
C1769 C1778 1.429 . S
C1770 C1768 1.419 . S
C1770 C1771 1.363 . S
C1770 H1773 0.929 . S
C1771 C1770 1.363 . S
C1771 C1777 1.428 . S
H1772 C1768 0.930 . S
H1773 C1770 0.929 . S
S1774 N1775 1.613 . S
S1774 N1776 1.610 . S
N1775 S1774 1.613 . S
N1775 C1778 1.350 . S
N1776 S1774 1.610 . S
N1776 C1777 1.351 . S
C1777 C1771 1.428 . S
C1777 N1776 1.351 . S
C1777 C1778 1.434 . S
C1778 C1769 1.429 . S
C1778 N1775 1.350 . S
C1778 C1777 1.434 . S
C1779 C1780 1.369 . S
C1779 C1781 1.419 . S
C1779 H1783 0.930 . S
C1780 C1779 1.369 . S
C1780 C1789 1.429 . S
C1781 C1779 1.419 . S
C1781 C1782 1.363 . S
C1781 H1784 0.929 . S
C1782 C1781 1.363 . S
C1782 C1788 1.428 . S
H1783 C1779 0.930 . S
H1784 C1781 0.929 . S
S1785 N1786 1.613 . S
S1785 N1787 1.610 . S
N1786 S1785 1.613 . S
N1786 C1789 1.350 . S
N1787 S1785 1.610 . S
N1787 C1788 1.351 . S
C1788 C1782 1.428 . S
C1788 N1787 1.351 . S
C1788 C1789 1.434 . S
C1789 C1780 1.429 . S
C1789 N1786 1.350 . S
C1789 C1788 1.434 . S
C1790 C1791 1.369 . S
C1790 C1792 1.419 . S
C1790 H1794 0.930 . S
C1791 C1790 1.369 . S
C1791 C1800 1.429 . S
C1792 C1790 1.419 . S
C1792 C1793 1.363 . S
C1792 H1795 0.929 . S
C1793 C1792 1.363 . S
C1793 C1799 1.428 . S
H1794 C1790 0.930 . S
H1795 C1792 0.929 . S
S1796 N1797 1.613 . S
S1796 N1798 1.610 . S
N1797 S1796 1.613 . S
N1797 C1800 1.350 . S
N1798 S1796 1.610 . S
N1798 C1799 1.351 . S
C1799 C1793 1.428 . S
C1799 N1798 1.351 . S
C1799 C1800 1.434 . S
C1800 C1791 1.429 . S
C1800 N1797 1.350 . S
C1800 C1799 1.434 . S
C1801 C1802 1.369 . S
C1801 C1803 1.419 . S
C1801 H1805 0.930 . S
C1802 C1801 1.369 . S
C1802 C1811 1.429 . S
C1803 C1801 1.419 . S
C1803 C1804 1.363 . S
C1803 H1806 0.929 . S
C1804 C1803 1.363 . S
C1804 C1810 1.428 . S
H1805 C1801 0.930 . S
H1806 C1803 0.929 . S
S1807 N1808 1.613 . S
S1807 N1809 1.610 . S
N1808 S1807 1.613 . S
N1808 C1811 1.350 . S
N1809 S1807 1.610 . S
N1809 C1810 1.351 . S
C1810 C1804 1.428 . S
C1810 N1809 1.351 . S
C1810 C1811 1.434 . S
C1811 C1802 1.429 . S
C1811 N1808 1.350 . S
C1811 C1810 1.434 . S
C1812 C1813 1.369 . S
C1812 C1814 1.419 . S
C1812 H1816 0.930 . S
C1813 C1812 1.369 . S
C1813 C1822 1.429 . S
C1814 C1812 1.419 . S
C1814 C1815 1.363 . S
C1814 H1817 0.929 . S
C1815 C1814 1.363 . S
C1815 C1821 1.428 . S
H1816 C1812 0.930 . S
H1817 C1814 0.929 . S
S1818 N1819 1.613 . S
S1818 N1820 1.610 . S
N1819 S1818 1.613 . S
N1819 C1822 1.350 . S
N1820 S1818 1.610 . S
N1820 C1821 1.351 . S
C1821 C1815 1.428 . S
C1821 N1820 1.351 . S
C1821 C1822 1.434 . S
C1822 C1813 1.429 . S
C1822 N1819 1.350 . S
C1822 C1821 1.434 . S
C1823 C1824 1.369 . S
C1823 C1825 1.419 . S
C1823 H1827 0.930 . S
C1824 C1823 1.369 . S
C1824 C1833 1.429 . S
C1825 C1823 1.419 . S
C1825 C1826 1.363 . S
C1825 H1828 0.929 . S
C1826 C1825 1.363 . S
C1826 C1832 1.428 . S
H1827 C1823 0.930 . S
H1828 C1825 0.929 . S
S1829 N1830 1.613 . S
S1829 N1831 1.610 . S
N1830 S1829 1.613 . S
N1830 C1833 1.350 . S
N1831 S1829 1.610 . S
N1831 C1832 1.351 . S
C1832 C1826 1.428 . S
C1832 N1831 1.351 . S
C1832 C1833 1.434 . S
C1833 C1824 1.429 . S
C1833 N1830 1.350 . S
C1833 C1832 1.434 . S
C1834 C1835 1.369 . S
C1834 C1836 1.419 . S
C1834 H1838 0.930 . S
C1835 C1834 1.369 . S
C1835 C1844 1.429 . S
C1836 C1834 1.419 . S
C1836 C1837 1.363 . S
C1836 H1839 0.929 . S
C1837 C1836 1.363 . S
C1837 C1843 1.428 . S
H1838 C1834 0.930 . S
H1839 C1836 0.929 . S
S1840 N1841 1.613 . S
S1840 N1842 1.610 . S
N1841 S1840 1.613 . S
N1841 C1844 1.350 . S
N1842 S1840 1.610 . S
N1842 C1843 1.351 . S
C1843 C1837 1.428 . S
C1843 N1842 1.351 . S
C1843 C1844 1.434 . S
C1844 C1835 1.429 . S
C1844 N1841 1.350 . S
C1844 C1843 1.434 . S
C1845 C1846 1.369 . S
C1845 C1847 1.419 . S
C1845 H1849 0.930 . S
C1846 C1845 1.369 . S
C1846 C1855 1.429 . S
C1847 C1845 1.419 . S
C1847 C1848 1.363 . S
C1847 H1850 0.929 . S
C1848 C1847 1.363 . S
C1848 C1854 1.428 . S
H1849 C1845 0.930 . S
H1850 C1847 0.929 . S
S1851 N1852 1.613 . S
S1851 N1853 1.610 . S
N1852 S1851 1.613 . S
N1852 C1855 1.350 . S
N1853 S1851 1.610 . S
N1853 C1854 1.351 . S
C1854 C1848 1.428 . S
C1854 N1853 1.351 . S
C1854 C1855 1.434 . S
C1855 C1846 1.429 . S
C1855 N1852 1.350 . S
C1855 C1854 1.434 . S
C1856 C1857 1.369 . S
C1856 C1858 1.419 . S
C1856 H1860 0.930 . S
C1857 C1856 1.369 . S
C1857 C1866 1.429 . S
C1858 C1856 1.419 . S
C1858 C1859 1.363 . S
C1858 H1861 0.929 . S
C1859 C1858 1.363 . S
C1859 C1865 1.428 . S
H1860 C1856 0.930 . S
H1861 C1858 0.929 . S
S1862 N1863 1.613 . S
S1862 N1864 1.610 . S
N1863 S1862 1.613 . S
N1863 C1866 1.350 . S
N1864 S1862 1.610 . S
N1864 C1865 1.351 . S
C1865 C1859 1.428 . S
C1865 N1864 1.351 . S
C1865 C1866 1.434 . S
C1866 C1857 1.429 . S
C1866 N1863 1.350 . S
C1866 C1865 1.434 . S
C1867 C1868 1.369 . S
C1867 C1869 1.419 . S
C1867 H1871 0.930 . S
C1868 C1867 1.369 . S
C1868 C1877 1.429 . S
C1869 C1867 1.419 . S
C1869 C1870 1.363 . S
C1869 H1872 0.929 . S
C1870 C1869 1.363 . S
C1870 C1876 1.428 . S
H1871 C1867 0.930 . S
H1872 C1869 0.929 . S
S1873 N1874 1.613 . S
S1873 N1875 1.610 . S
N1874 S1873 1.613 . S
N1874 C1877 1.350 . S
N1875 S1873 1.610 . S
N1875 C1876 1.351 . S
C1876 C1870 1.428 . S
C1876 N1875 1.351 . S
C1876 C1877 1.434 . S
C1877 C1868 1.429 . S
C1877 N1874 1.350 . S
C1877 C1876 1.434 . S
C1878 C1879 1.369 . S
C1878 C1880 1.419 . S
C1878 H1882 0.930 . S
C1879 C1878 1.369 . S
C1879 C1888 1.429 . S
C1880 C1878 1.419 . S
C1880 C1881 1.363 . S
C1880 H1883 0.929 . S
C1881 C1880 1.363 . S
C1881 C1887 1.428 . S
H1882 C1878 0.930 . S
H1883 C1880 0.929 . S
S1884 N1885 1.613 . S
S1884 N1886 1.610 1_655 S
N1885 S1884 1.613 . S
N1885 C1888 1.350 1_655 S
N1886 S1884 1.610 1_455 S
N1886 C1887 1.351 . S
C1887 C1881 1.428 . S
C1887 N1886 1.351 . S
C1887 C1888 1.434 . S
C1888 C1879 1.429 . S
C1888 N1885 1.350 1_455 S
C1888 C1887 1.434 . S
C1889 C1890 1.369 . S
C1889 C1891 1.419 . S
C1889 H1893 0.930 . S
C1890 C1889 1.369 . S
C1890 C1899 1.429 . S
C1891 C1889 1.419 . S
C1891 C1892 1.363 . S
C1891 H1894 0.929 . S
C1892 C1891 1.363 . S
C1892 C1898 1.428 . S
H1893 C1889 0.930 . S
H1894 C1891 0.929 . S
S1895 N1896 1.613 . S
S1895 N1897 1.610 . S
N1896 S1895 1.613 . S
N1896 C1899 1.350 . S
N1897 S1895 1.610 . S
N1897 C1898 1.351 . S
C1898 C1892 1.428 . S
C1898 N1897 1.351 . S
C1898 C1899 1.434 . S
C1899 C1890 1.429 . S
C1899 N1896 1.350 . S
C1899 C1898 1.434 . S
C1900 C1901 1.369 . S
C1900 C1902 1.419 . S
C1900 H1904 0.930 . S
C1901 C1900 1.369 . S
C1901 C1910 1.429 . S
C1902 C1900 1.419 . S
C1902 C1903 1.363 . S
C1902 H1905 0.929 . S
C1903 C1902 1.363 . S
C1903 C1909 1.428 . S
H1904 C1900 0.930 . S
H1905 C1902 0.929 . S
S1906 N1907 1.613 . S
S1906 N1908 1.610 . S
N1907 S1906 1.613 . S
N1907 C1910 1.350 . S
N1908 S1906 1.610 . S
N1908 C1909 1.351 . S
C1909 C1903 1.428 . S
C1909 N1908 1.351 . S
C1909 C1910 1.434 . S
C1910 C1901 1.429 . S
C1910 N1907 1.350 . S
C1910 C1909 1.434 . S
C1911 C1912 1.369 . S
C1911 C1913 1.419 . S
C1911 H1915 0.930 . S
C1912 C1911 1.369 . S
C1912 C1921 1.429 . S
C1913 C1911 1.419 . S
C1913 C1914 1.363 . S
C1913 H1916 0.929 . S
C1914 C1913 1.363 . S
C1914 C1920 1.428 . S
H1915 C1911 0.930 . S
H1916 C1913 0.929 . S
S1917 N1918 1.613 . S
S1917 N1919 1.610 . S
N1918 S1917 1.613 . S
N1918 C1921 1.350 . S
N1919 S1917 1.610 . S
N1919 C1920 1.351 . S
C1920 C1914 1.428 . S
C1920 N1919 1.351 . S
C1920 C1921 1.434 . S
C1921 C1912 1.429 . S
C1921 N1918 1.350 . S
C1921 C1920 1.434 . S
C1922 C1923 1.369 . S
C1922 C1924 1.419 . S
C1922 H1926 0.930 . S
C1923 C1922 1.369 . S
C1923 C1932 1.429 1_455 S
C1924 C1922 1.419 . S
C1924 C1925 1.363 . S
C1924 H1927 0.929 . S
C1925 C1924 1.363 . S
C1925 C1931 1.428 1_455 S
H1926 C1922 0.930 . S
H1927 C1924 0.929 . S
S1928 N1929 1.613 . S
S1928 N1930 1.610 . S
N1929 S1928 1.613 . S
N1929 C1932 1.350 . S
N1930 S1928 1.610 . S
N1930 C1931 1.351 . S
C1931 C1925 1.428 1_655 S
C1931 N1930 1.351 . S
C1931 C1932 1.434 . S
C1932 C1923 1.429 1_655 S
C1932 N1929 1.350 . S
C1932 C1931 1.434 . S
C1933 C1934 1.369 . S
C1933 C1935 1.419 . S
C1933 H1937 0.930 . S
C1934 C1933 1.369 . S
C1934 C1943 1.429 . S
C1935 C1933 1.419 . S
C1935 C1936 1.363 . S
C1935 H1938 0.929 . S
C1936 C1935 1.363 . S
C1936 C1942 1.428 . S
H1937 C1933 0.930 . S
H1938 C1935 0.929 . S
S1939 N1940 1.613 . S
S1939 N1941 1.610 . S
N1940 S1939 1.613 . S
N1940 C1943 1.350 . S
N1941 S1939 1.610 . S
N1941 C1942 1.351 . S
C1942 C1936 1.428 . S
C1942 N1941 1.351 . S
C1942 C1943 1.434 . S
C1943 C1934 1.429 . S
C1943 N1940 1.350 . S
C1943 C1942 1.434 . S
C1944 C1945 1.369 . S
C1944 C1946 1.419 . S
C1944 H1948 0.930 . S
C1945 C1944 1.369 . S
C1945 C1954 1.429 . S
C1946 C1944 1.419 . S
C1946 C1947 1.363 . S
C1946 H1949 0.929 . S
C1947 C1946 1.363 . S
C1947 C1953 1.428 . S
H1948 C1944 0.930 . S
H1949 C1946 0.929 . S
S1950 N1951 1.613 . S
S1950 N1952 1.610 . S
N1951 S1950 1.613 . S
N1951 C1954 1.350 . S
N1952 S1950 1.610 . S
N1952 C1953 1.351 . S
C1953 C1947 1.428 . S
C1953 N1952 1.351 . S
C1953 C1954 1.434 . S
C1954 C1945 1.429 . S
C1954 N1951 1.350 . S
C1954 C1953 1.434 . S
C1955 C1956 1.369 . S
C1955 C1957 1.419 1_565 S
C1955 H1959 0.930 1_565 S
C1956 C1955 1.369 . S
C1956 C1965 1.429 . S
C1957 C1955 1.419 1_545 S
C1957 C1958 1.363 . S
C1957 H1960 0.929 . S
C1958 C1957 1.363 . S
C1958 C1964 1.428 1_545 S
H1959 C1955 0.930 1_545 S
H1960 C1957 0.929 . S
S1961 N1962 1.613 . S
S1961 N1963 1.610 . S
N1962 S1961 1.613 . S
N1962 C1965 1.350 . S
N1963 S1961 1.610 . S
N1963 C1964 1.351 . S
C1964 C1958 1.428 1_565 S
C1964 N1963 1.351 . S
C1964 C1965 1.434 . S
C1965 C1956 1.429 . S
C1965 N1962 1.350 . S
C1965 C1964 1.434 . S
C1966 C1967 1.369 . S
C1966 C1968 1.419 . S
C1966 H1970 0.930 . S
C1967 C1966 1.369 . S
C1967 C1976 1.429 . S
C1968 C1966 1.419 . S
C1968 C1969 1.363 . S
C1968 H1971 0.929 . S
C1969 C1968 1.363 . S
C1969 C1975 1.428 . S
H1970 C1966 0.930 . S
H1971 C1968 0.929 . S
S1972 N1973 1.613 . S
S1972 N1974 1.610 . S
N1973 S1972 1.613 . S
N1973 C1976 1.350 . S
N1974 S1972 1.610 . S
N1974 C1975 1.351 . S
C1975 C1969 1.428 . S
C1975 N1974 1.351 . S
C1975 C1976 1.434 . S
C1976 C1967 1.429 . S
C1976 N1973 1.350 . S
C1976 C1975 1.434 . S
C1977 C1978 1.369 1_556 S
C1977 C1979 1.419 . S
C1977 H1981 0.930 . S
C1978 C1977 1.369 1_554 S
C1978 C1987 1.429 . S
C1979 C1977 1.419 . S
C1979 C1980 1.363 1_556 S
C1979 H1982 0.929 . S
C1980 C1979 1.363 1_554 S
C1980 C1986 1.428 . S
H1981 C1977 0.930 . S
H1982 C1979 0.929 . S
S1983 N1984 1.613 . S
S1983 N1985 1.610 . S
N1984 S1983 1.613 . S
N1984 C1987 1.350 . S
N1985 S1983 1.610 . S
N1985 C1986 1.351 . S
C1986 C1980 1.428 . S
C1986 N1985 1.351 . S
C1986 C1987 1.434 . S
C1987 C1978 1.429 . S
C1987 N1984 1.350 . S
C1987 C1986 1.434 . S
C1988 C1989 1.369 . S
C1988 C1990 1.419 . S
C1988 H1992 0.930 . S
C1989 C1988 1.369 . S
C1989 C1998 1.429 . S
C1990 C1988 1.419 . S
C1990 C1991 1.363 . S
C1990 H1993 0.929 . S
C1991 C1990 1.363 . S
C1991 C1997 1.428 . S
H1992 C1988 0.930 . S
H1993 C1990 0.929 . S
S1994 N1995 1.613 . S
S1994 N1996 1.610 . S
N1995 S1994 1.613 . S
N1995 C1998 1.350 . S
N1996 S1994 1.610 . S
N1996 C1997 1.351 . S
C1997 C1991 1.428 . S
C1997 N1996 1.351 . S
C1997 C1998 1.434 . S
C1998 C1989 1.429 . S
C1998 N1995 1.350 . S
C1998 C1997 1.434 . S
C1999 C2000 1.369 . S
C1999 C2001 1.419 . S
C1999 H2003 0.930 . S
C2000 C1999 1.369 . S
C2000 C2009 1.429 . S
C2001 C1999 1.419 . S
C2001 C2002 1.363 . S
C2001 H2004 0.929 . S
C2002 C2001 1.363 . S
C2002 C2008 1.428 . S
H2003 C1999 0.930 . S
H2004 C2001 0.929 . S
S2005 N2006 1.613 . S
S2005 N2007 1.610 . S
N2006 S2005 1.613 . S
N2006 C2009 1.350 . S
N2007 S2005 1.610 . S
N2007 C2008 1.351 . S
C2008 C2002 1.428 . S
C2008 N2007 1.351 . S
C2008 C2009 1.434 . S
C2009 C2000 1.429 . S
C2009 N2006 1.350 . S
C2009 C2008 1.434 . S
C2010 C2011 1.369 . S
C2010 C2012 1.419 . S
C2010 H2014 0.930 . S
C2011 C2010 1.369 . S
C2011 C2020 1.429 . S
C2012 C2010 1.419 . S
C2012 C2013 1.363 . S
C2012 H2015 0.929 . S
C2013 C2012 1.363 . S
C2013 C2019 1.428 . S
H2014 C2010 0.930 . S
H2015 C2012 0.929 . S
S2016 N2017 1.613 . S
S2016 N2018 1.610 . S
N2017 S2016 1.613 . S
N2017 C2020 1.350 . S
N2018 S2016 1.610 . S
N2018 C2019 1.351 . S
C2019 C2013 1.428 . S
C2019 N2018 1.351 . S
C2019 C2020 1.434 . S
C2020 C2011 1.429 . S
C2020 N2017 1.350 . S
C2020 C2019 1.434 . S
C2021 C2022 1.369 . S
C2021 C2023 1.419 . S
C2021 H2025 0.930 . S
C2022 C2021 1.369 . S
C2022 C2031 1.429 . S
C2023 C2021 1.419 . S
C2023 C2024 1.363 . S
C2023 H2026 0.929 . S
C2024 C2023 1.363 . S
C2024 C2030 1.428 . S
H2025 C2021 0.930 . S
H2026 C2023 0.929 . S
S2027 N2028 1.613 . S
S2027 N2029 1.610 . S
N2028 S2027 1.613 . S
N2028 C2031 1.350 . S
N2029 S2027 1.610 . S
N2029 C2030 1.351 . S
C2030 C2024 1.428 . S
C2030 N2029 1.351 . S
C2030 C2031 1.434 . S
C2031 C2022 1.429 . S
C2031 N2028 1.350 . S
C2031 C2030 1.434 . S
C977 C106 2.371 1_455 S
C979 C358 2.342 . S
C988 C65 1.447 . S
C990 C378 1.398 . S
C999 C79 1.114 . S
C1001 C425 1.098 . S
C1012 C482 1.075 . S
C1010 C90 1.066 . S
C1021 C21 2.405 . S
C1023 C499 2.424 1_565 S
C1034 C558 1.935 . S
C1032 C35 1.889 . S
C1045 C591 2.807 . S
C1043 C50 2.806 . S
C1054 C6 2.530 . S
C1056 C638 2.568 . S
C1067 C351 2.329 . S
C1065 C232 2.242 1_545 S
C1076 C245 1.672 . S
C1078 C379 1.694 . S
C1089 C418 0.655 . S
C1087 C274 0.635 . S
C1100 C478 2.344 . S
C1098 C175 2.246 . S
C1109 C231 0.698 . S
C1111 C505 0.710 . S
C1122 C551 2.244 . S
C1120 C246 2.215 . S
C1133 C602 0.781 . S
C1131 C273 0.821 . S
C1144 C631 2.612 . S
C1142 C176 2.614 . S
C1155 C362 2.338 . S
C1153 C160 2.277 . S
C1164 C289 2.212 . S
C1166 C658 2.167 . S
C1177 C722 1.635 . S
C1175 C328 1.582 . S
C1188 C758 1.720 . S
C1186 C317 1.730 . S
C1197 C118 1.802 . S
C1199 C642 2.032 . S
C1208 C132 2.617 . S
C1210 C419 2.674 . S
C1219 C331 1.655 . S
C1221 C791 1.665 . S
C1232 C825 0.715 . S
C1230 C303 0.676 . S
C1243 C339 2.010 1_565 S
C1241 C63 1.937 . S
C1254 C831 2.055 . S
C1252 C107 1.995 . S
C1263 C92 0.959 . S
C1265 C442 0.988 . S
C1274 C78 1.315 . S
C1276 C785 1.263 . S
C1287 C518 2.973 . S
C1285 C8 2.949 . S
C1296 C51 2.037 . S
C1298 C699 2.021 . S
C1309 C578 3.073 1_566 S
C1307 C37 3.011 . S
C1320 C859 2.445 . S
C1318 C20 2.431 . S
C1331 C338 1.804 . S
C1329 C147 1.643 . S
C1342 C838 1.761 . S
C1340 C316 1.749 . S
C1351 C119 0.594 . S
C1353 C431 0.630 . S
C1362 C288 2.385 . S
C1364 C779 2.390 . S
C1373 C148 0.789 . S
C1375 C522 0.795 . S
C1386 C698 2.218 . S
C1384 C315 2.212 . S
C1395 C120 1.004 . S
C1397 C585 0.955 . S
C1406 C287 2.315 . S
C1408 C858 2.403 . S
C1417 C188 1.873 . S
C1419 C345 1.871 . S
C1428 C177 2.349 . S
C1430 C671 2.351 . S
C1439 C258 1.616 . S
C1441 C545 1.596 . S
C1450 C247 1.884 . S
C1452 C739 1.859 . S
C1463 C865 1.871 . S
C1461 C272 1.742 . S
C1472 C216 2.358 . S
C1474 C438 2.416 . S
C1485 C458 1.927 . S
C1483 C261 1.780 . S
C1496 C402 0.678 . S
C1494 C205 0.681 . S
C1505 C76 1.996 . S
C1507 C918 2.123 . S
C1518 C818 1.468 . S
C1516 C93 1.532 . S
C1527 C105 0.738 . S
C1529 C945 0.746 . S
C1538 C62 1.072 . S
C1540 C802 1.082 . S
C1549 C49 2.364 . S
C1551 C659 2.378 . S
C1562 C718 2.357 . S
C1560 C9 2.353 . S
C1573 C751 2.737 . S
C1571 C22 2.736 . S
C1584 C878 2.830 . S
C1582 C36 2.878 . S
C1595 C911 2.163 . S
C1593 C260 2.086 . S
C1604 C189 1.585 . S
C1606 C819 1.608 . S
C1617 C938 0.662 . S
C1615 C204 0.654 . S
C1628 C798 2.056 . S
C1626 C217 1.994 . S
C1639 C665 0.724 . S
C1637 C259 0.716 . S
C1648 C190 2.340 . S
C1650 C711 2.375 . S
C1661 C762 0.824 . S
C1659 C203 0.820 . S
C1670 C218 2.607 . S
C1672 C871 2.604 . S
C1683 C922 2.355 . S
C1681 C314 2.286 . S
C1692 C135 2.311 . S
C1694 C498 2.272 . S
C1705 C562 1.563 . S
C1703 C146 1.527 . S
C1716 C598 1.756 1_565 S
C1714 C163 1.761 . S
C1727 C882 1.769 . S
C1725 C300 1.587 . S
C1736 C286 2.540 . S
C1738 C939 2.609 1_655 S
C1749 C471 1.608 . S
C1747 C149 1.601 . S
C1760 C385 0.891 . S
C1758 C121 0.902 . S
C1769 C91 1.944 . S
C1771 C899 2.030 . S
C1782 C391 1.483 . S
C1780 C77 1.384 . S
C1791 C64 0.986 . S
C1793 C962 1.015 . S
C1802 C104 1.053 . S
C1804 C465 1.031 . S
C1813 C34 2.585 . S
C1815 C678 2.612 1_556 S
C1826 C539 2.005 . S
C1824 C23 2.014 . S
C1835 C7 2.607 . S
C1837 C738 2.685 . S
C1846 C48 2.356 . S
C1848 C619 2.361 . S
C1859 C898 1.785 . S
C1857 C329 1.612 . S
C1868 C162 1.730 . S
C1870 C398 1.758 . S
C1881 C951 0.637 1_556 S
C1879 C301 0.624 . S
C1890 C134 2.338 . S
C1892 C459 2.345 . S
C1901 C330 0.816 . S
C1903 C682 0.798 . S
C1914 C538 2.222 . S
C1912 C161 2.224 . S
C1923 C302 0.952 . S
C1925 C745 0.937 . S
C1936 C618 2.353 . S
C1934 C133 2.277 . S
C1947 C905 2.026 . S
C1945 C244 2.010 . S
C1958 C511 2.395 1_655 S
C1956 C219 2.395 . S
C1967 C230 1.541 . S
C1969 C705 1.527 . S
C1980 C579 1.812 . S
C1978 C191 1.850 1_554 S
C1989 C202 1.799 . S
C1991 C625 1.913 . S
C2000 C174 2.661 . S
C2002 C958 2.732 . S
C2013 C778 1.939 . S
C2011 C233 1.766 . S
C2024 C842 0.813 . S
C2022 C275 0.796 . S
