# Generated by pormake.
# Topology rtl, (3,6)-cn, num edge types: 1
# Building blocks:
#     Node 0, Type 0, BuildingBlock: OLANEW_clean_sbu_2, # of connection points: 3
#     Node 1, Type 0, BuildingBlock: OLANEW_clean_sbu_2, # of connection points: 3
#     Node 2, Type 0, BuildingBlock: OLANEW_clean_sbu_2, # of connection points: 3
#     Node 3, Type 0, BuildingBlock: OLANEW_clean_sbu_2, # of connection points: 3
#     Node 4, Type 1, BuildingBlock: VOLQOD_clean_sbu_1, # of connection points: 6
#     Node 5, Type 1, BuildingBlock: VOLQOD_clean_sbu_1, # of connection points: 6
#     Edge 6, Type (0, 1), BuildingBlock: CIFDUS_clean_linker_0, # of connection points: 2
#     Edge 7, Type (0, 1), BuildingBlock: CIFDUS_clean_linker_0, # of connection points: 2
#     Edge 8, Type (0, 1), BuildingBlock: CIFDUS_clean_linker_0, # of connection points: 2
#     Edge 9, Type (0, 1), BuildingBlock: CIFDUS_clean_linker_0, # of connection points: 2
#     Edge 10, Type (0, 1), BuildingBlock: CIFDUS_clean_linker_0, # of connection points: 2
#     Edge 11, Type (0, 1), BuildingBlock: CIFDUS_clean_linker_0, # of connection points: 2
#     Edge 12, Type (0, 1), BuildingBlock: CIFDUS_clean_linker_0, # of connection points: 2
#     Edge 13, Type (0, 1), BuildingBlock: CIFDUS_clean_linker_0, # of connection points: 2
#     Edge 14, Type (0, 1), BuildingBlock: CIFDUS_clean_linker_0, # of connection points: 2
#     Edge 15, Type (0, 1), BuildingBlock: CIFDUS_clean_linker_0, # of connection points: 2
#     Edge 16, Type (0, 1), BuildingBlock: CIFDUS_clean_linker_0, # of connection points: 2
#     Edge 17, Type (0, 1), BuildingBlock: CIFDUS_clean_linker_0, # of connection points: 2
# Relax obj value: 0.055
# Max RMSD: 0.146
# Mean RMSD: 0.098
data_MOF--net-rtl--node1-OLANEW_clean_sbu_2--node2-VOLQOD_clean_sbu_1--edge1-CIFDUS_clean_linker_0
_symmetry_space_group_name_H-M    P1
_symmetry_Int_Tables_number       1
_symmetry_cell_setting            triclinic
loop_
_symmetry_equiv_pos_as_xyz
'x, y, z'
_cell_length_a     36.061847
_cell_length_b     33.997705
_cell_length_c     20.632309
_cell_angle_alpha  86.85397
_cell_angle_beta   93.372328
_cell_angle_gamma 89.75775
loop_
_atom_site_label
_atom_site_type_symbol
_atom_site_fract_x
_atom_site_fract_y
_atom_site_fract_z
_atom_type_partial_charge
O0 O 0.12208 0.72942 0.87809 0.0
Cd1 Cd 0.13995 0.66556 0.9319 0.0
O2 O 0.1333 0.76006 0.96763 0.0
Cd3 Cd 0.13748 0.80744 0.03592 0.0
O4 O 0.1258 0.85193 0.10482 0.0
C5 C 0.09443 0.85009 0.12984 0.0
O6 O 0.07135 0.82212 0.11295 0.0
C7 C 0.12156 0.76113 0.90802 0.0
C8 C 0.2154 0.64577 0.93949 0.0
O9 O 0.19441 0.63783 0.88964 0.0
O10 O 0.20091 0.66412 0.98455 0.0
O11 O 0.63332 0.79041 0.69427 0.0
Cd12 Cd 0.64095 0.8479 0.61964 0.0
O13 O 0.61573 0.76287 0.60474 0.0
Cd14 Cd 0.59834 0.71703 0.54005 0.0
O15 O 0.58342 0.68443 0.45472 0.0
C16 C 0.55053 0.67214 0.44423 0.0
O17 O 0.52572 0.67818 0.48684 0.0
C18 C 0.62111 0.7603 0.66628 0.0
C19 C 0.71399 0.87231 0.60678 0.0
O20 O 0.69319 0.88834 0.64636 0.0
O21 O 0.70051 0.84413 0.57419 0.0
O22 O 0.89592 0.31269 0.22331 0.0
Cd23 Cd 0.88678 0.37287 0.15288 0.0
O24 O 0.93973 0.30148 0.15788 0.0
Cd25 Cd 0.98515 0.27003 0.11707 0.0
O26 O 0.00437 0.22789 0.05044 0.0
C27 C 0.97829 0.21422 0.01437 0.0
O28 O 0.94413 0.22629 0.02112 0.0
C29 C 0.92152 0.29024 0.20651 0.0
C30 C 0.81357 0.39928 0.12865 0.0
O31 O 0.82675 0.37196 0.09605 0.0
O32 O 0.83467 0.41339 0.17374 0.0
O33 O 0.39736 0.21569 0.70394 0.0
Cd34 Cd 0.3815 0.1521 0.65991 0.0
O35 O 0.37293 0.24672 0.61584 0.0
Cd36 Cd 0.36529 0.29704 0.54637 0.0
O37 O 0.37332 0.33608 0.4615 0.0
C38 C 0.39202 0.3219 0.41788 0.0
O39 O 0.40428 0.28542 0.42651 0.0
C40 C 0.39046 0.24782 0.67096 0.0
C41 C 0.30626 0.13321 0.65346 0.0
O42 O 0.32693 0.1255 0.70535 0.0
O43 O 0.32101 0.15078 0.60488 0.0
O44 O 0.91314 0.02038 0.5798 0.0
Zn45 Zn 0.95872 0.05406 0.57877 0.0
O46 O 0.003 0.02295 0.56647 0.0
Zn47 Zn 0.0361 0.02425 0.64525 0.0
Zn48 Zn 0.98836 0.96865 0.55246 0.0
Zn49 Zn 0.02806 0.04454 0.49026 0.0
O50 O 0.08475 0.04843 0.6234 0.0
O51 O 0.07971 0.0636 0.51714 0.0
O52 O 0.96219 0.07914 0.66426 0.0
O53 O 0.01534 0.05744 0.71315 0.0
O54 O 0.047 0.96948 0.68483 0.0
O55 O 0.01732 0.93103 0.6154 0.0
O56 O 0.99998 0.95346 0.46323 0.0
O57 O 0.95157 0.09785 0.50974 0.0
O58 O 0.03305 0.00328 0.42364 0.0
O59 O 0.99882 0.09094 0.4466 0.0
C60 C 0.90727 0.98376 0.57453 0.0
C61 C 0.09829 0.06291 0.57176 0.0
C62 C 0.03857 0.93544 0.66594 0.0
C63 C 0.98563 0.07782 0.71285 0.0
C64 C 0.0191 0.96908 0.41881 0.0
C65 C 0.96942 0.10885 0.46057 0.0
O66 O 0.93354 0.96016 0.56409 0.0
O67 O 0.59957 0.49455 0.00536 0.0
Zn68 Zn 0.55394 0.52913 0.98862 0.0
O69 O 0.50872 0.49812 0.97678 0.0
Zn70 Zn 0.48485 0.50797 0.88874 0.0
Zn71 Zn 0.52196 0.44255 0.99153 0.0
Zn72 Zn 0.47417 0.51251 0.04093 0.0
O73 O 0.43363 0.53284 0.89308 0.0
O74 O 0.42809 0.53808 -0.00116 0.0
O75 O 0.56013 0.56454 0.90896 0.0
O76 O 0.51538 0.54769 0.83702 0.0
O77 O 0.4779 0.45645 0.84234 0.0
O78 O 0.505 0.41298 0.9147 0.0
O79 O 0.49676 0.41786 0.06823 0.0
O80 O 0.55256 0.56246 0.06642 0.0
O81 O 0.45963 0.46547 0.09616 0.0
O82 O 0.49709 0.54984 0.10308 0.0
C83 C 0.6044 0.45738 0.01166 0.0
C84 C 0.41539 0.54369 0.9402 0.0
C85 C 0.48785 0.42118 0.85995 0.0
C86 C 0.54365 0.56847 0.85257 0.0
C87 C 0.47185 0.43025 0.10353 0.0
C88 C 0.52823 0.56717 0.10763 0.0
O89 O 0.57715 0.43384 0.00696 0.0
H90 H 0.25834 0.13564 0.54602 0.0
H91 H 0.26592 0.10232 0.75139 0.0
H92 H 0.20224 0.07841 0.74411 0.0
H93 H 0.14519 0.0653 0.67946 0.0
H94 H 0.1373 0.09733 0.4736 0.0
H95 H 0.20038 0.12335 0.48122 0.0
C96 C 0.24598 0.12338 0.58927 0.0
C97 C 0.26693 0.12077 0.64916 0.0
C98 C 0.20938 0.10926 0.58465 0.0
C99 C 0.25051 0.10464 0.70465 0.0
C100 C 0.21408 0.0909 0.70055 0.0
C101 C 0.15713 0.078 0.63611 0.0
C102 C 0.13643 0.07919 0.57598 0.0
C103 C 0.19339 0.09276 0.64075 0.0
C104 C 0.15253 0.09588 0.52051 0.0
C105 C 0.18863 0.11082 0.52482 0.0
H106 H 0.2551 0.60957 0.85073 0.0
H107 H 0.26382 0.65112 0.04507 0.0
H108 H 0.32656 0.62402 0.06148 0.0
H109 H 0.37781 0.5861 0.02293 0.0
H110 H 0.37028 0.54516 0.82827 0.0
H111 H 0.30827 0.5746 0.80972 0.0
C112 C 0.27082 0.61294 0.8965 0.0
C113 C 0.25461 0.63217 0.94672 0.0
C114 C 0.30702 0.59723 0.90574 0.0
C115 C 0.2755 0.63644 0.00559 0.0
C116 C 0.31139 0.62084 0.01514 0.0
C117 C 0.36267 0.5836 0.97634 0.0
C118 C 0.37857 0.56308 0.9273 0.0
C119 C 0.32721 0.60074 0.96592 0.0
C120 C 0.35871 0.56069 0.86694 0.0
C121 C 0.32321 0.57747 0.85634 0.0
H122 H 0.74252 0.94263 0.63922 0.0
H123 H 0.77059 0.83469 0.55233 0.0
H124 H 0.83305 0.8594 0.53491 0.0
H125 H 0.87958 0.91201 0.54389 0.0
H126 H 0.84986 0.02098 0.62649 0.0
H127 H 0.78818 0.99558 0.64563 0.0
C128 C 0.76237 0.92441 0.61679 0.0
C129 C 0.75203 0.88681 0.59749 0.0
C130 C 0.79791 0.93908 0.60579 0.0
C131 C 0.7779 0.86377 0.56768 0.0
C132 C 0.8136 0.87787 0.55768 0.0
C133 C 0.8596 0.93019 0.56604 0.0
C134 C 0.86945 0.96834 0.58374 0.0
C135 C 0.82389 0.91556 0.5764 0.0
C136 C 0.84307 0.99159 0.61203 0.0
C137 C 0.80777 0.97705 0.62327 0.0
H138 H 0.75674 0.36496 0.06035 0.0
H139 H 0.78521 0.46926 0.16201 0.0
H140 H 0.72359 0.49709 0.13249 0.0
H141 H 0.66164 0.49201 0.0774 0.0
H142 H 0.6316 0.38604 0.98181 0.0
H143 H 0.6938 0.35871 0.00905 0.0
C144 C 0.74942 0.39375 0.07609 0.0
C145 C 0.77557 0.41506 0.1131 0.0
C146 C 0.71371 0.40935 0.05978 0.0
C147 C 0.76556 0.45218 0.13367 0.0
C148 C 0.73037 0.4682 0.1166 0.0
C149 C 0.66882 0.46303 0.0622 0.0
C150 C 0.64223 0.44122 0.02712 0.0
C151 C 0.70427 0.44712 0.07948 0.0
C152 C 0.65165 0.40342 0.00879 0.0
C153 C 0.68718 0.38779 0.02434 0.0
H154 H 0.03423 0.84705 0.20267 0.0
H155 H 0.13205 0.91579 0.1672 0.0
H156 H 0.11607 0.96039 0.25054 0.0
H157 H 0.07552 0.97823 0.33677 0.0
H158 H 0.97933 0.90724 0.37435 0.0
H159 H 0.99336 0.86541 0.28659 0.0
C160 C 0.05201 0.87189 0.21283 0.0
C161 C 0.08434 0.87797 0.17879 0.0
C162 C 0.04294 0.89706 0.26129 0.0
C163 C 0.10707 0.91029 0.19284 0.0
C164 C 0.09793 0.93585 0.24046 0.0
C165 C 0.05743 0.95386 0.32525 0.0
C166 C 0.02644 0.94589 0.36215 0.0
C167 C 0.06608 0.92932 0.27542 0.0
C168 C 0.00347 0.91395 0.34699 0.0
C169 C 0.01146 0.88997 0.29679 0.0
H170 H 0.56898 0.70459 0.63907 0.0
H171 H 0.6546 0.73473 0.78234 0.0
H172 H 0.63974 0.67664 0.85062 0.0
H173 H 0.60089 0.61917 0.87166 0.0
H174 H 0.51459 0.58902 0.72921 0.0
H175 H 0.53213 0.64464 0.65754 0.0
C176 C 0.58514 0.69785 0.68423 0.0
C177 C 0.61333 0.72362 0.705 0.0
C178 C 0.57627 0.66447 0.72347 0.0
C179 C 0.63284 0.71532 0.76518 0.0
C180 C 0.62439 0.68209 0.80421 0.0
C181 C 0.58603 0.62443 0.82472 0.0
C182 C 0.5563 0.59989 0.80617 0.0
C183 C 0.59591 0.65671 0.78415 0.0
C184 C 0.53753 0.60735 0.74498 0.0
C185 C 0.54747 0.63926 0.70398 0.0
H186 H 0.91088 0.2723 0.33376 0.0
H187 H 0.94905 0.22194 0.1622 0.0
H188 H 0.96921 0.16247 0.22589 0.0
H189 H 0.97692 0.12482 0.33139 0.0
H190 H 0.93251 0.17217 0.50065 0.0
H191 H 0.91322 0.23223 0.43689 0.0
C192 C 0.9235 0.24824 0.31028 0.0
C193 C 0.93037 0.25254 0.24388 0.0
C194 C 0.93369 0.21338 0.3469 0.0
C195 C 0.94586 0.22069 0.21393 0.0
C196 C 0.95673 0.18623 0.2502 0.0
C197 C 0.96301 0.14832 0.35418 0.0
C198 C 0.95646 0.14425 0.42067 0.0
C199 C 0.95129 0.18247 0.31694 0.0
C200 C 0.93784 0.17461 0.44945 0.0
C201 C 0.92688 0.209 0.4131 0.0
H202 H 0.45405 0.25745 0.74317 0.0
H203 H 0.35941 0.32186 0.65418 0.0
H204 H 0.38335 0.38276 0.69853 0.0
H205 H 0.42929 0.41666 0.76978 0.0
H206 H 0.52264 0.35041 0.86051 0.0
H207 H 0.50133 0.29157 0.80798 0.0
C208 C 0.43874 0.28487 0.73326 0.0
C209 C 0.40518 0.28521 0.69511 0.0
C210 C 0.45248 0.31953 0.75935 0.0
C211 C 0.38572 0.32096 0.68231 0.0
C212 C 0.39926 0.35575 0.70813 0.0
C213 C 0.44528 0.38952 0.77696 0.0
C214 C 0.4774 0.38792 0.8193 0.0
C215 C 0.43246 0.35532 0.7474 0.0
C216 C 0.49767 0.35242 0.82857 0.0
C217 C 0.48547 0.31866 0.7987 0.0
H218 H 0.59288 0.66314 0.34128 0.0
H219 H 0.48482 0.63655 0.41145 0.0
H220 H 0.46788 0.60336 0.3121 0.0
H221 H 0.48423 0.58059 0.20687 0.0
H222 H 0.59239 0.60701 0.1367 0.0
H223 H 0.6086 0.64197 0.23449 0.0
C224 C 0.56562 0.65007 0.33494 0.0
C225 C 0.54023 0.65215 0.38393 0.0
C226 C 0.556 0.63116 0.27764 0.0
C227 C 0.50493 0.63531 0.37462 0.0
C228 C 0.4952 0.61634 0.31779 0.0
C229 C 0.5113 0.59419 0.2126 0.0
C230 C 0.53707 0.59102 0.16443 0.0
C231 C 0.52057 0.61396 0.26915 0.0
C232 C 0.57198 0.60892 0.17289 0.0
C233 C 0.58134 0.62883 0.22893 0.0
H234 H 0.9291 0.18661 0.92417 0.0
H235 H 0.04463 0.17923 0.99165 0.0
H236 H 0.05687 0.1346 0.90614 0.0
H237 H 0.03493 0.09946 0.80978 0.0
H238 H 0.91953 0.10932 0.7416 0.0
H239 H 0.90713 0.15107 0.83013 0.0
C240 C 0.95698 0.17516 0.92048 0.0
C241 C 0.98591 0.18632 0.96415 0.0
C242 C 0.96385 0.14996 0.87099 0.0
C243 C 0.02186 0.1712 0.9585 0.0
C244 C 0.02887 0.14567 0.90964 0.0
C245 C 0.00703 0.1105 0.81465 0.0
C246 C 0.97824 0.10133 0.769 0.0
C247 C 1.00011 0.13508 0.86529 0.0
C248 C 0.94227 0.11609 0.77576 0.0
C249 C 0.9351 0.13997 0.82642 0.0
H250 H 0.43451 0.30114 0.32076 0.0
H251 H 0.37055 0.3979 0.38463 0.0
H252 H 0.38832 0.43929 0.29125 0.0
H253 H 0.42382 0.44876 0.19416 0.0
H254 H 0.48881 0.35238 0.13138 0.0
H255 H 0.46858 0.31004 0.22174 0.0
C256 C 0.42429 0.33122 0.31416 0.0
C257 C 0.40136 0.34643 0.35979 0.0
C258 C 0.43483 0.35495 0.26068 0.0
C259 C 0.38833 0.38547 0.35038 0.0
C260 C 0.39849 0.40918 0.297 0.0
C261 C 0.43343 0.41842 0.19986 0.0
C262 C 0.45794 0.40387 0.15606 0.0
C263 C 0.422 0.39433 0.25223 0.0
C264 C 0.47005 0.36445 0.16441 0.0
C265 C 0.45852 0.34019 0.21613 0.0
H266 H 0.11012 0.77456 0.77776 0.0
H267 H 0.09571 0.82923 0.95847 0.0
H268 H 0.07229 0.88872 0.89967 0.0
H269 H 0.05355 0.92501 0.79622 0.0
H270 H 0.05951 0.86692 0.61646 0.0
H271 H 0.08759 0.80882 0.67536 0.0
C272 C 0.10205 0.79951 0.80449 0.0
C273 C 0.10674 0.79779 0.87287 0.0
C274 C 0.08642 0.83298 0.77024 0.0
C275 C 0.09512 0.83021 0.90626 0.0
C276 C 0.08076 0.86417 0.87243 0.0
C277 C 0.06112 0.89962 0.77009 0.0
C278 C 0.05472 0.90022 0.70221 0.0
C279 C 0.07629 0.86591 0.80442 0.0
C280 C 0.06407 0.867 0.66883 0.0
C281 C 0.08023 0.83386 0.70242 0.0
loop_
_geom_bond_atom_site_label_1
_geom_bond_atom_site_label_2
_geom_bond_distance
_geom_bond_site_symmetry_2
_ccdc_geom_bond_type
O0 Cd1 2.300 1_556 S
O0 C7 1.275 . S
Cd1 O0 2.300 1_554 S
Cd1 O9 2.381 1_554 S
Cd1 O10 2.378 . S
O2 Cd3 2.385 . S
O2 C7 1.255 1_554 S
Cd3 O2 2.385 . S
Cd3 O4 2.317 . S
O4 Cd3 2.317 . S
O4 C5 1.232 . S
C5 O4 1.232 . S
C5 O6 1.218 . S
O6 C5 1.218 . S
C7 O0 1.275 . S
C7 O2 1.255 1_556 S
C8 O9 1.258 1_554 S
C8 O10 1.256 . S
O9 Cd1 2.381 1_556 S
O9 C8 1.258 1_556 S
O10 Cd1 2.378 . S
O10 C8 1.256 . S
O11 Cd12 2.300 . S
O11 C18 1.275 . S
Cd12 O11 2.300 . S
Cd12 O20 2.381 . S
Cd12 O21 2.378 . S
O13 Cd14 2.385 . S
O13 C18 1.255 . S
Cd14 O13 2.385 . S
Cd14 O15 2.317 . S
O15 Cd14 2.317 . S
O15 C16 1.232 . S
C16 O15 1.232 . S
C16 O17 1.218 . S
O17 C16 1.218 . S
C18 O11 1.275 . S
C18 O13 1.255 . S
C19 O20 1.258 . S
C19 O21 1.256 . S
O20 Cd12 2.381 . S
O20 C19 1.258 . S
O21 Cd12 2.378 . S
O21 C19 1.256 . S
O22 Cd23 2.300 . S
O22 C29 1.275 . S
Cd23 O22 2.300 . S
Cd23 O31 2.381 . S
Cd23 O32 2.378 . S
O24 Cd25 2.385 . S
O24 C29 1.255 . S
Cd25 O24 2.385 . S
Cd25 O26 2.317 1_554 S
O26 Cd25 2.317 1_556 S
O26 C27 1.232 . S
C27 O26 1.232 . S
C27 O28 1.218 . S
O28 C27 1.218 . S
C29 O22 1.275 . S
C29 O24 1.255 . S
C30 O31 1.258 . S
C30 O32 1.256 . S
O31 Cd23 2.381 . S
O31 C30 1.258 . S
O32 Cd23 2.378 . S
O32 C30 1.256 . S
O33 Cd34 2.300 . S
O33 C40 1.275 . S
Cd34 O33 2.300 . S
Cd34 O42 2.381 . S
Cd34 O43 2.378 . S
O35 Cd36 2.385 . S
O35 C40 1.255 . S
Cd36 O35 2.385 . S
Cd36 O37 2.317 . S
O37 Cd36 2.317 . S
O37 C38 1.232 . S
C38 O37 1.232 . S
C38 O39 1.218 . S
O39 C38 1.218 . S
C40 O33 1.275 . S
C40 O35 1.255 . S
C41 O42 1.258 . S
C41 O43 1.256 . S
O42 Cd34 2.381 . S
O42 C41 1.258 . S
O43 Cd34 2.378 . S
O43 C41 1.256 . S
O44 Zn45 1.953 1_565 S
O44 C60 1.225 . S
Zn45 O44 1.953 1_545 S
Zn45 O46 1.949 1_655 S
Zn45 O52 1.919 . S
Zn45 O57 1.924 . S
O46 Zn45 1.949 1_455 S
O46 Zn47 1.923 . S
O46 Zn48 1.950 1_545 S
O46 Zn49 1.945 . S
Zn47 O46 1.923 . S
Zn47 O50 1.933 . S
Zn47 O53 1.941 . S
Zn47 O54 1.965 1_545 S
Zn48 O46 1.950 1_565 S
Zn48 O55 1.938 . S
Zn48 O56 1.906 . S
Zn48 O66 1.953 1_455 S
Zn49 O46 1.945 . S
Zn49 O51 1.932 . S
Zn49 O58 1.977 1_545 S
Zn49 O59 1.910 1_455 S
O50 Zn47 1.933 . S
O50 C61 1.226 . S
O51 Zn49 1.932 . S
O51 C61 1.307 . S
O52 Zn45 1.919 . S
O52 C63 1.253 . S
O53 Zn47 1.941 . S
O53 C63 1.283 1_455 S
O54 Zn47 1.965 1_565 S
O54 C62 1.303 . S
O55 Zn48 1.938 . S
O55 C62 1.247 . S
O56 Zn48 1.906 . S
O56 C64 1.304 . S
O57 Zn45 1.924 . S
O57 C65 1.311 . S
O58 Zn49 1.977 1_565 S
O58 C64 1.272 . S
O59 Zn49 1.910 1_655 S
O59 C65 1.231 . S
C60 O44 1.225 . S
C60 O66 1.298 . S
C61 O50 1.226 . S
C61 O51 1.307 . S
C62 O54 1.303 . S
C62 O55 1.247 . S
C63 O52 1.253 . S
C63 O53 1.283 1_655 S
C64 O56 1.304 . S
C64 O58 1.272 . S
C65 O57 1.311 . S
C65 O59 1.231 . S
O66 Zn48 1.953 1_655 S
O66 C60 1.298 . S
O67 Zn68 1.953 . S
O67 C83 1.225 . S
Zn68 O67 1.953 . S
Zn68 O69 1.949 . S
Zn68 O75 1.919 1_554 S
Zn68 O80 1.924 . S
O69 Zn68 1.949 . S
O69 Zn70 1.923 1_554 S
O69 Zn71 1.950 . S
O69 Zn72 1.945 . S
Zn70 O69 1.923 1_556 S
Zn70 O73 1.933 . S
Zn70 O76 1.941 . S
Zn70 O77 1.965 . S
Zn71 O69 1.950 . S
Zn71 O78 1.938 1_554 S
Zn71 O79 1.906 . S
Zn71 O89 1.953 . S
Zn72 O69 1.945 . S
Zn72 O74 1.932 . S
Zn72 O81 1.977 . S
Zn72 O82 1.910 . S
O73 Zn70 1.933 . S
O73 C84 1.226 1_556 S
O74 Zn72 1.932 . S
O74 C84 1.307 . S
O75 Zn68 1.919 1_556 S
O75 C86 1.253 . S
O76 Zn70 1.941 . S
O76 C86 1.283 . S
O77 Zn70 1.965 . S
O77 C85 1.303 . S
O78 Zn71 1.938 1_556 S
O78 C85 1.247 . S
O79 Zn71 1.906 . S
O79 C87 1.304 . S
O80 Zn68 1.924 . S
O80 C88 1.311 . S
O81 Zn72 1.977 . S
O81 C87 1.272 . S
O82 Zn72 1.910 . S
O82 C88 1.231 . S
C83 O67 1.225 . S
C83 O89 1.298 . S
C84 O73 1.226 1_554 S
C84 O74 1.307 . S
C85 O77 1.303 . S
C85 O78 1.247 . S
C86 O75 1.253 . S
C86 O76 1.283 . S
C87 O79 1.304 . S
C87 O81 1.272 . S
C88 O80 1.311 . S
C88 O82 1.231 . S
O89 Zn71 1.953 . S
O89 C83 1.298 . S
H90 C96 0.930 . S
H91 C99 0.930 . S
H92 C100 0.930 . S
H93 C101 0.930 . S
H94 C104 0.930 . S
H95 C105 0.930 . S
C96 H90 0.930 . S
C96 C97 1.355 . S
C96 C98 1.415 . S
C97 C96 1.355 . S
C97 C99 1.419 . S
C98 C96 1.415 . S
C98 C103 1.425 . S
C98 C105 1.409 . S
C99 H91 0.930 . S
C99 C97 1.419 . S
C99 C100 1.362 . S
C100 H92 0.930 . S
C100 C99 1.362 . S
C100 C103 1.409 . S
C101 H93 0.930 . S
C101 C102 1.355 . S
C101 C103 1.415 . S
C102 C101 1.355 . S
C102 C104 1.419 . S
C103 C98 1.425 . S
C103 C100 1.409 . S
C103 C101 1.415 . S
C104 H94 0.930 . S
C104 C102 1.419 . S
C104 C105 1.362 . S
C105 H95 0.930 . S
C105 C98 1.409 . S
C105 C104 1.362 . S
H106 C112 0.930 . S
H107 C115 0.930 . S
H108 C116 0.930 . S
H109 C117 0.930 1_556 S
H110 C120 0.930 . S
H111 C121 0.930 . S
C112 H106 0.930 . S
C112 C113 1.355 . S
C112 C114 1.415 . S
C113 C112 1.355 . S
C113 C115 1.419 . S
C114 C112 1.415 . S
C114 C119 1.425 . S
C114 C121 1.409 . S
C115 H107 0.930 . S
C115 C113 1.419 . S
C115 C116 1.362 . S
C116 H108 0.930 . S
C116 C115 1.362 . S
C116 C119 1.409 . S
C117 H109 0.930 1_554 S
C117 C118 1.355 . S
C117 C119 1.415 . S
C118 C117 1.355 . S
C118 C120 1.419 . S
C119 C114 1.425 . S
C119 C116 1.409 . S
C119 C117 1.415 . S
C120 H110 0.930 . S
C120 C118 1.419 . S
C120 C121 1.362 . S
C121 H111 0.930 . S
C121 C114 1.409 . S
C121 C120 1.362 . S
H122 C128 0.930 . S
H123 C131 0.930 . S
H124 C132 0.930 . S
H125 C133 0.930 . S
H126 C136 0.930 . S
H127 C137 0.930 . S
C128 H122 0.930 . S
C128 C129 1.355 . S
C128 C130 1.415 . S
C129 C128 1.355 . S
C129 C131 1.419 . S
C130 C128 1.415 . S
C130 C135 1.425 . S
C130 C137 1.409 . S
C131 H123 0.930 . S
C131 C129 1.419 . S
C131 C132 1.362 . S
C132 H124 0.930 . S
C132 C131 1.362 . S
C132 C135 1.409 . S
C133 H125 0.930 . S
C133 C134 1.355 . S
C133 C135 1.415 . S
C134 C133 1.355 . S
C134 C136 1.419 . S
C135 C130 1.425 . S
C135 C132 1.409 . S
C135 C133 1.415 . S
C136 H126 0.930 . S
C136 C134 1.419 . S
C136 C137 1.362 . S
C137 H127 0.930 . S
C137 C130 1.409 . S
C137 C136 1.362 . S
H138 C144 0.930 . S
H139 C147 0.919 1_556 S
H140 C148 0.930 . S
H141 C149 0.930 1_556 S
H142 C152 0.930 . S
H143 C153 0.930 . S
C144 H138 0.930 . S
C144 C145 1.355 . S
C144 C146 1.415 . S
C145 C144 1.355 . S
C145 C147 1.433 . S
C146 C144 1.415 . S
C146 C151 1.425 . S
C146 C153 1.409 . S
C147 H139 0.919 1_554 S
C147 C145 1.433 . S
C147 C148 1.359 1_554 S
C148 H140 0.930 . S
C148 C147 1.359 1_556 S
C148 C151 1.409 1_556 S
C149 H141 0.930 1_554 S
C149 C150 1.355 . S
C149 C151 1.415 . S
C150 C149 1.355 . S
C150 C152 1.419 . S
C151 C146 1.425 . S
C151 C148 1.409 1_554 S
C151 C149 1.415 . S
C152 H142 0.930 . S
C152 C150 1.419 . S
C152 C153 1.362 . S
C153 H143 0.930 . S
C153 C146 1.409 . S
C153 C152 1.362 . S
H154 C160 0.930 . S
H155 C163 0.930 . S
H156 C164 0.930 . S
H157 C165 0.930 . S
H158 C168 0.930 . S
H159 C169 0.930 . S
C160 H154 0.930 . S
C160 C161 1.355 . S
C160 C162 1.415 . S
C161 C160 1.355 . S
C161 C163 1.419 . S
C162 C160 1.415 . S
C162 C167 1.425 . S
C162 C169 1.409 . S
C163 H155 0.930 . S
C163 C161 1.419 . S
C163 C164 1.362 . S
C164 H156 0.930 . S
C164 C163 1.362 . S
C164 C167 1.409 . S
C165 H157 0.930 . S
C165 C166 1.355 . S
C165 C167 1.415 . S
C166 C165 1.355 . S
C166 C168 1.419 . S
C167 C162 1.425 . S
C167 C164 1.409 . S
C167 C165 1.415 . S
C168 H158 0.930 . S
C168 C166 1.419 . S
C168 C169 1.362 . S
C169 H159 0.930 . S
C169 C162 1.409 . S
C169 C168 1.362 . S
H170 C176 0.930 . S
H171 C179 0.930 . S
H172 C180 0.930 . S
H173 C181 0.930 . S
H174 C184 0.930 . S
H175 C185 0.930 . S
C176 H170 0.930 . S
C176 C177 1.355 . S
C176 C178 1.415 . S
C177 C176 1.355 . S
C177 C179 1.419 . S
C178 C176 1.415 . S
C178 C183 1.425 . S
C178 C185 1.409 . S
C179 H171 0.930 . S
C179 C177 1.419 . S
C179 C180 1.362 . S
C180 H172 0.930 . S
C180 C179 1.362 . S
C180 C183 1.409 . S
C181 H173 0.930 . S
C181 C182 1.355 . S
C181 C183 1.415 . S
C182 C181 1.355 . S
C182 C184 1.419 . S
C183 C178 1.425 . S
C183 C180 1.409 . S
C183 C181 1.415 . S
C184 H174 0.930 . S
C184 C182 1.419 . S
C184 C185 1.362 . S
C185 H175 0.930 . S
C185 C178 1.409 . S
C185 C184 1.362 . S
H186 C192 0.930 . S
H187 C195 0.930 . S
H188 C196 0.930 . S
H189 C197 0.930 . S
H190 C200 0.930 . S
H191 C201 0.930 . S
C192 H186 0.930 . S
C192 C193 1.355 . S
C192 C194 1.415 . S
C193 C192 1.355 . S
C193 C195 1.419 . S
C194 C192 1.415 . S
C194 C199 1.425 . S
C194 C201 1.409 . S
C195 H187 0.930 . S
C195 C193 1.419 . S
C195 C196 1.362 . S
C196 H188 0.930 . S
C196 C195 1.362 . S
C196 C199 1.409 . S
C197 H189 0.930 . S
C197 C198 1.355 . S
C197 C199 1.415 . S
C198 C197 1.355 . S
C198 C200 1.419 . S
C199 C194 1.425 . S
C199 C196 1.409 . S
C199 C197 1.415 . S
C200 H190 0.930 . S
C200 C198 1.419 . S
C200 C201 1.362 . S
C201 H191 0.930 . S
C201 C194 1.409 . S
C201 C200 1.362 . S
H202 C208 0.930 . S
H203 C211 0.930 . S
H204 C212 0.930 . S
H205 C213 0.930 . S
H206 C216 0.930 . S
H207 C217 0.930 . S
C208 H202 0.930 . S
C208 C209 1.355 . S
C208 C210 1.415 . S
C209 C208 1.355 . S
C209 C211 1.419 . S
C210 C208 1.415 . S
C210 C215 1.425 . S
C210 C217 1.409 . S
C211 H203 0.930 . S
C211 C209 1.419 . S
C211 C212 1.362 . S
C212 H204 0.930 . S
C212 C211 1.362 . S
C212 C215 1.409 . S
C213 H205 0.930 . S
C213 C214 1.355 . S
C213 C215 1.415 . S
C214 C213 1.355 . S
C214 C216 1.419 . S
C215 C210 1.425 . S
C215 C212 1.409 . S
C215 C213 1.415 . S
C216 H206 0.930 . S
C216 C214 1.419 . S
C216 C217 1.362 . S
C217 H207 0.930 . S
C217 C210 1.409 . S
C217 C216 1.362 . S
H218 C224 0.930 . S
H219 C227 0.930 . S
H220 C228 0.930 . S
H221 C229 0.930 . S
H222 C232 0.930 . S
H223 C233 0.930 . S
C224 H218 0.930 . S
C224 C225 1.355 . S
C224 C226 1.415 . S
C225 C224 1.355 . S
C225 C227 1.419 . S
C226 C224 1.415 . S
C226 C231 1.425 . S
C226 C233 1.409 . S
C227 H219 0.930 . S
C227 C225 1.419 . S
C227 C228 1.362 . S
C228 H220 0.930 . S
C228 C227 1.362 . S
C228 C231 1.409 . S
C229 H221 0.930 . S
C229 C230 1.355 . S
C229 C231 1.415 . S
C230 C229 1.355 . S
C230 C232 1.419 . S
C231 C226 1.425 . S
C231 C228 1.409 . S
C231 C229 1.415 . S
C232 H222 0.930 . S
C232 C230 1.419 . S
C232 C233 1.362 . S
C233 H223 0.930 . S
C233 C226 1.409 . S
C233 C232 1.362 . S
H234 C240 0.930 . S
H235 C243 0.930 . S
H236 C244 0.930 . S
H237 C245 0.930 1_455 S
H238 C248 0.930 . S
H239 C249 0.930 . S
C240 H234 0.930 . S
C240 C241 1.355 . S
C240 C242 1.415 . S
C241 C240 1.355 . S
C241 C243 1.419 . S
C242 C240 1.415 . S
C242 C247 1.425 . S
C242 C249 1.409 . S
C243 H235 0.930 . S
C243 C241 1.419 . S
C243 C244 1.362 . S
C244 H236 0.930 . S
C244 C243 1.362 . S
C244 C247 1.409 . S
C245 H237 0.930 1_655 S
C245 C246 1.355 . S
C245 C247 1.415 . S
C246 C245 1.355 . S
C246 C248 1.419 . S
C247 C242 1.425 . S
C247 C244 1.409 . S
C247 C245 1.415 . S
C248 H238 0.930 . S
C248 C246 1.419 . S
C248 C249 1.362 . S
C249 H239 0.930 . S
C249 C242 1.409 . S
C249 C248 1.362 . S
H250 C256 0.930 . S
H251 C259 0.930 . S
H252 C260 0.930 . S
H253 C261 0.930 . S
H254 C264 0.930 . S
H255 C265 0.930 . S
C256 H250 0.930 . S
C256 C257 1.355 . S
C256 C258 1.415 . S
C257 C256 1.355 . S
C257 C259 1.419 . S
C258 C256 1.415 . S
C258 C263 1.425 . S
C258 C265 1.409 . S
C259 H251 0.930 . S
C259 C257 1.419 . S
C259 C260 1.362 . S
C260 H252 0.930 . S
C260 C259 1.362 . S
C260 C263 1.409 . S
C261 H253 0.930 . S
C261 C262 1.355 . S
C261 C263 1.415 . S
C262 C261 1.355 . S
C262 C264 1.419 . S
C263 C258 1.425 . S
C263 C260 1.409 . S
C263 C261 1.415 . S
C264 H254 0.930 . S
C264 C262 1.419 . S
C264 C265 1.362 . S
C265 H255 0.930 . S
C265 C258 1.409 . S
C265 C264 1.362 . S
H266 C272 0.930 . S
H267 C275 0.930 . S
H268 C276 0.930 . S
H269 C277 0.930 . S
H270 C280 0.930 . S
H271 C281 0.930 . S
C272 H266 0.930 . S
C272 C273 1.355 . S
C272 C274 1.415 . S
C273 C272 1.355 . S
C273 C275 1.419 . S
C274 C272 1.415 . S
C274 C279 1.425 . S
C274 C281 1.409 . S
C275 H267 0.930 . S
C275 C273 1.419 . S
C275 C276 1.362 . S
C276 H268 0.930 . S
C276 C275 1.362 . S
C276 C279 1.409 . S
C277 H269 0.930 . S
C277 C278 1.355 . S
C277 C279 1.415 . S
C278 C277 1.355 . S
C278 C280 1.419 . S
C279 C274 1.425 . S
C279 C276 1.409 . S
C279 C277 1.415 . S
C280 H270 0.930 . S
C280 C278 1.419 . S
C280 C281 1.362 . S
C281 H271 0.930 . S
C281 C274 1.409 . S
C281 C280 1.362 . S
C102 C61 1.532 . S
C97 C41 1.521 . S
C113 C8 1.460 . S
C118 C84 1.501 . S
C129 C19 1.488 . S
C134 C60 1.533 . S
C145 C30 1.550 . S
C150 C83 1.553 . S
C166 C64 1.478 . S
C161 C5 1.222 . S
C182 C86 1.612 . S
C177 C18 1.623 . S
C193 C29 1.606 . S
C198 C65 1.563 . S
C209 C40 1.577 . S
C214 C85 1.613 . S
C230 C88 1.404 . S
C225 C16 1.227 . S
C246 C63 1.385 . S
C241 C27 1.230 . S
C262 C87 1.294 . S
C257 C38 1.059 . S
C273 C7 1.414 . S
C278 C62 1.379 . S
