# Generated by pormake.
# Topology gar, (4,6)-cn, num edge types: 1
# Building blocks:
#     Node 0, Type 0, BuildingBlock: QUQFOY_clean_sbu_1, # of connection points: 4
#     Node 1, Type 0, BuildingBlock: QUQFOY_clean_sbu_1, # of connection points: 4
#     Node 2, Type 0, BuildingBlock: QUQFOY_clean_sbu_1, # of connection points: 4
#     Node 3, Type 0, BuildingBlock: QUQFOY_clean_sbu_1, # of connection points: 4
#     Node 4, Type 0, BuildingBlock: QUQFOY_clean_sbu_1, # of connection points: 4
#     Node 5, Type 0, BuildingBlock: QUQFOY_clean_sbu_1, # of connection points: 4
#     Node 6, Type 0, BuildingBlock: QUQFOY_clean_sbu_1, # of connection points: 4
#     Node 7, Type 0, BuildingBlock: QUQFOY_clean_sbu_1, # of connection points: 4
#     Node 8, Type 0, BuildingBlock: QUQFOY_clean_sbu_1, # of connection points: 4
#     Node 9, Type 0, BuildingBlock: QUQFOY_clean_sbu_1, # of connection points: 4
#     Node 10, Type 0, BuildingBlock: QUQFOY_clean_sbu_1, # of connection points: 4
#     Node 11, Type 0, BuildingBlock: QUQFOY_clean_sbu_1, # of connection points: 4
#     Node 12, Type 0, BuildingBlock: QUQFOY_clean_sbu_1, # of connection points: 4
#     Node 13, Type 0, BuildingBlock: QUQFOY_clean_sbu_1, # of connection points: 4
#     Node 14, Type 0, BuildingBlock: QUQFOY_clean_sbu_1, # of connection points: 4
#     Node 15, Type 0, BuildingBlock: QUQFOY_clean_sbu_1, # of connection points: 4
#     Node 16, Type 0, BuildingBlock: QUQFOY_clean_sbu_1, # of connection points: 4
#     Node 17, Type 0, BuildingBlock: QUQFOY_clean_sbu_1, # of connection points: 4
#     Node 18, Type 0, BuildingBlock: QUQFOY_clean_sbu_1, # of connection points: 4
#     Node 19, Type 0, BuildingBlock: QUQFOY_clean_sbu_1, # of connection points: 4
#     Node 20, Type 0, BuildingBlock: QUQFOY_clean_sbu_1, # of connection points: 4
#     Node 21, Type 0, BuildingBlock: QUQFOY_clean_sbu_1, # of connection points: 4
#     Node 22, Type 0, BuildingBlock: QUQFOY_clean_sbu_1, # of connection points: 4
#     Node 23, Type 0, BuildingBlock: QUQFOY_clean_sbu_1, # of connection points: 4
#     Node 24, Type 1, BuildingBlock: HISSIN_clean_sbu_0, # of connection points: 6
#     Node 25, Type 1, BuildingBlock: HISSIN_clean_sbu_0, # of connection points: 6
#     Node 26, Type 1, BuildingBlock: HISSIN_clean_sbu_0, # of connection points: 6
#     Node 27, Type 1, BuildingBlock: HISSIN_clean_sbu_0, # of connection points: 6
#     Node 28, Type 1, BuildingBlock: HISSIN_clean_sbu_0, # of connection points: 6
#     Node 29, Type 1, BuildingBlock: HISSIN_clean_sbu_0, # of connection points: 6
#     Node 30, Type 1, BuildingBlock: HISSIN_clean_sbu_0, # of connection points: 6
#     Node 31, Type 1, BuildingBlock: HISSIN_clean_sbu_0, # of connection points: 6
#     Node 32, Type 1, BuildingBlock: HISSIN_clean_sbu_0, # of connection points: 6
#     Node 33, Type 1, BuildingBlock: HISSIN_clean_sbu_0, # of connection points: 6
#     Node 34, Type 1, BuildingBlock: HISSIN_clean_sbu_0, # of connection points: 6
#     Node 35, Type 1, BuildingBlock: HISSIN_clean_sbu_0, # of connection points: 6
#     Node 36, Type 1, BuildingBlock: HISSIN_clean_sbu_0, # of connection points: 6
#     Node 37, Type 1, BuildingBlock: HISSIN_clean_sbu_0, # of connection points: 6
#     Node 38, Type 1, BuildingBlock: HISSIN_clean_sbu_0, # of connection points: 6
#     Node 39, Type 1, BuildingBlock: HISSIN_clean_sbu_0, # of connection points: 6
#     Edge 40, Type (0, 1), BuildingBlock: UVAHIK_clean_linker_0, # of connection points: 2
#     Edge 41, Type (0, 1), BuildingBlock: UVAHIK_clean_linker_0, # of connection points: 2
#     Edge 42, Type (0, 1), BuildingBlock: UVAHIK_clean_linker_0, # of connection points: 2
#     Edge 43, Type (0, 1), BuildingBlock: UVAHIK_clean_linker_0, # of connection points: 2
#     Edge 44, Type (0, 1), BuildingBlock: UVAHIK_clean_linker_0, # of connection points: 2
#     Edge 45, Type (0, 1), BuildingBlock: UVAHIK_clean_linker_0, # of connection points: 2
#     Edge 46, Type (0, 1), BuildingBlock: UVAHIK_clean_linker_0, # of connection points: 2
#     Edge 47, Type (0, 1), BuildingBlock: UVAHIK_clean_linker_0, # of connection points: 2
#     Edge 48, Type (0, 1), BuildingBlock: UVAHIK_clean_linker_0, # of connection points: 2
#     Edge 49, Type (0, 1), BuildingBlock: UVAHIK_clean_linker_0, # of connection points: 2
#     Edge 50, Type (0, 1), BuildingBlock: UVAHIK_clean_linker_0, # of connection points: 2
#     Edge 51, Type (0, 1), BuildingBlock: UVAHIK_clean_linker_0, # of connection points: 2
#     Edge 52, Type (0, 1), BuildingBlock: UVAHIK_clean_linker_0, # of connection points: 2
#     Edge 53, Type (0, 1), BuildingBlock: UVAHIK_clean_linker_0, # of connection points: 2
#     Edge 54, Type (0, 1), BuildingBlock: UVAHIK_clean_linker_0, # of connection points: 2
#     Edge 55, Type (0, 1), BuildingBlock: UVAHIK_clean_linker_0, # of connection points: 2
#     Edge 56, Type (0, 1), BuildingBlock: UVAHIK_clean_linker_0, # of connection points: 2
#     Edge 57, Type (0, 1), BuildingBlock: UVAHIK_clean_linker_0, # of connection points: 2
#     Edge 58, Type (0, 1), BuildingBlock: UVAHIK_clean_linker_0, # of connection points: 2
#     Edge 59, Type (0, 1), BuildingBlock: UVAHIK_clean_linker_0, # of connection points: 2
#     Edge 60, Type (0, 1), BuildingBlock: UVAHIK_clean_linker_0, # of connection points: 2
#     Edge 61, Type (0, 1), BuildingBlock: UVAHIK_clean_linker_0, # of connection points: 2
#     Edge 62, Type (0, 1), BuildingBlock: UVAHIK_clean_linker_0, # of connection points: 2
#     Edge 63, Type (0, 1), BuildingBlock: UVAHIK_clean_linker_0, # of connection points: 2
#     Edge 64, Type (0, 1), BuildingBlock: UVAHIK_clean_linker_0, # of connection points: 2
#     Edge 65, Type (0, 1), BuildingBlock: UVAHIK_clean_linker_0, # of connection points: 2
#     Edge 66, Type (0, 1), BuildingBlock: UVAHIK_clean_linker_0, # of connection points: 2
#     Edge 67, Type (0, 1), BuildingBlock: UVAHIK_clean_linker_0, # of connection points: 2
#     Edge 68, Type (0, 1), BuildingBlock: UVAHIK_clean_linker_0, # of connection points: 2
#     Edge 69, Type (0, 1), BuildingBlock: UVAHIK_clean_linker_0, # of connection points: 2
#     Edge 70, Type (0, 1), BuildingBlock: UVAHIK_clean_linker_0, # of connection points: 2
#     Edge 71, Type (0, 1), BuildingBlock: UVAHIK_clean_linker_0, # of connection points: 2
#     Edge 72, Type (0, 1), BuildingBlock: UVAHIK_clean_linker_0, # of connection points: 2
#     Edge 73, Type (0, 1), BuildingBlock: UVAHIK_clean_linker_0, # of connection points: 2
#     Edge 74, Type (0, 1), BuildingBlock: UVAHIK_clean_linker_0, # of connection points: 2
#     Edge 75, Type (0, 1), BuildingBlock: UVAHIK_clean_linker_0, # of connection points: 2
#     Edge 76, Type (0, 1), BuildingBlock: UVAHIK_clean_linker_0, # of connection points: 2
#     Edge 77, Type (0, 1), BuildingBlock: UVAHIK_clean_linker_0, # of connection points: 2
#     Edge 78, Type (0, 1), BuildingBlock: UVAHIK_clean_linker_0, # of connection points: 2
#     Edge 79, Type (0, 1), BuildingBlock: UVAHIK_clean_linker_0, # of connection points: 2
#     Edge 80, Type (0, 1), BuildingBlock: UVAHIK_clean_linker_0, # of connection points: 2
#     Edge 81, Type (0, 1), BuildingBlock: UVAHIK_clean_linker_0, # of connection points: 2
#     Edge 82, Type (0, 1), BuildingBlock: UVAHIK_clean_linker_0, # of connection points: 2
#     Edge 83, Type (0, 1), BuildingBlock: UVAHIK_clean_linker_0, # of connection points: 2
#     Edge 84, Type (0, 1), BuildingBlock: UVAHIK_clean_linker_0, # of connection points: 2
#     Edge 85, Type (0, 1), BuildingBlock: UVAHIK_clean_linker_0, # of connection points: 2
#     Edge 86, Type (0, 1), BuildingBlock: UVAHIK_clean_linker_0, # of connection points: 2
#     Edge 87, Type (0, 1), BuildingBlock: UVAHIK_clean_linker_0, # of connection points: 2
#     Edge 88, Type (0, 1), BuildingBlock: UVAHIK_clean_linker_0, # of connection points: 2
#     Edge 89, Type (0, 1), BuildingBlock: UVAHIK_clean_linker_0, # of connection points: 2
#     Edge 90, Type (0, 1), BuildingBlock: UVAHIK_clean_linker_0, # of connection points: 2
#     Edge 91, Type (0, 1), BuildingBlock: UVAHIK_clean_linker_0, # of connection points: 2
#     Edge 92, Type (0, 1), BuildingBlock: UVAHIK_clean_linker_0, # of connection points: 2
#     Edge 93, Type (0, 1), BuildingBlock: UVAHIK_clean_linker_0, # of connection points: 2
#     Edge 94, Type (0, 1), BuildingBlock: UVAHIK_clean_linker_0, # of connection points: 2
#     Edge 95, Type (0, 1), BuildingBlock: UVAHIK_clean_linker_0, # of connection points: 2
#     Edge 96, Type (0, 1), BuildingBlock: UVAHIK_clean_linker_0, # of connection points: 2
#     Edge 97, Type (0, 1), BuildingBlock: UVAHIK_clean_linker_0, # of connection points: 2
#     Edge 98, Type (0, 1), BuildingBlock: UVAHIK_clean_linker_0, # of connection points: 2
#     Edge 99, Type (0, 1), BuildingBlock: UVAHIK_clean_linker_0, # of connection points: 2
#     Edge 100, Type (0, 1), BuildingBlock: UVAHIK_clean_linker_0, # of connection points: 2
#     Edge 101, Type (0, 1), BuildingBlock: UVAHIK_clean_linker_0, # of connection points: 2
#     Edge 102, Type (0, 1), BuildingBlock: UVAHIK_clean_linker_0, # of connection points: 2
#     Edge 103, Type (0, 1), BuildingBlock: UVAHIK_clean_linker_0, # of connection points: 2
#     Edge 104, Type (0, 1), BuildingBlock: UVAHIK_clean_linker_0, # of connection points: 2
#     Edge 105, Type (0, 1), BuildingBlock: UVAHIK_clean_linker_0, # of connection points: 2
#     Edge 106, Type (0, 1), BuildingBlock: UVAHIK_clean_linker_0, # of connection points: 2
#     Edge 107, Type (0, 1), BuildingBlock: UVAHIK_clean_linker_0, # of connection points: 2
#     Edge 108, Type (0, 1), BuildingBlock: UVAHIK_clean_linker_0, # of connection points: 2
#     Edge 109, Type (0, 1), BuildingBlock: UVAHIK_clean_linker_0, # of connection points: 2
#     Edge 110, Type (0, 1), BuildingBlock: UVAHIK_clean_linker_0, # of connection points: 2
#     Edge 111, Type (0, 1), BuildingBlock: UVAHIK_clean_linker_0, # of connection points: 2
#     Edge 112, Type (0, 1), BuildingBlock: UVAHIK_clean_linker_0, # of connection points: 2
#     Edge 113, Type (0, 1), BuildingBlock: UVAHIK_clean_linker_0, # of connection points: 2
#     Edge 114, Type (0, 1), BuildingBlock: UVAHIK_clean_linker_0, # of connection points: 2
#     Edge 115, Type (0, 1), BuildingBlock: UVAHIK_clean_linker_0, # of connection points: 2
#     Edge 116, Type (0, 1), BuildingBlock: UVAHIK_clean_linker_0, # of connection points: 2
#     Edge 117, Type (0, 1), BuildingBlock: UVAHIK_clean_linker_0, # of connection points: 2
#     Edge 118, Type (0, 1), BuildingBlock: UVAHIK_clean_linker_0, # of connection points: 2
#     Edge 119, Type (0, 1), BuildingBlock: UVAHIK_clean_linker_0, # of connection points: 2
#     Edge 120, Type (0, 1), BuildingBlock: UVAHIK_clean_linker_0, # of connection points: 2
#     Edge 121, Type (0, 1), BuildingBlock: UVAHIK_clean_linker_0, # of connection points: 2
#     Edge 122, Type (0, 1), BuildingBlock: UVAHIK_clean_linker_0, # of connection points: 2
#     Edge 123, Type (0, 1), BuildingBlock: UVAHIK_clean_linker_0, # of connection points: 2
#     Edge 124, Type (0, 1), BuildingBlock: UVAHIK_clean_linker_0, # of connection points: 2
#     Edge 125, Type (0, 1), BuildingBlock: UVAHIK_clean_linker_0, # of connection points: 2
#     Edge 126, Type (0, 1), BuildingBlock: UVAHIK_clean_linker_0, # of connection points: 2
#     Edge 127, Type (0, 1), BuildingBlock: UVAHIK_clean_linker_0, # of connection points: 2
#     Edge 128, Type (0, 1), BuildingBlock: UVAHIK_clean_linker_0, # of connection points: 2
#     Edge 129, Type (0, 1), BuildingBlock: UVAHIK_clean_linker_0, # of connection points: 2
#     Edge 130, Type (0, 1), BuildingBlock: UVAHIK_clean_linker_0, # of connection points: 2
#     Edge 131, Type (0, 1), BuildingBlock: UVAHIK_clean_linker_0, # of connection points: 2
#     Edge 132, Type (0, 1), BuildingBlock: UVAHIK_clean_linker_0, # of connection points: 2
#     Edge 133, Type (0, 1), BuildingBlock: UVAHIK_clean_linker_0, # of connection points: 2
#     Edge 134, Type (0, 1), BuildingBlock: UVAHIK_clean_linker_0, # of connection points: 2
#     Edge 135, Type (0, 1), BuildingBlock: UVAHIK_clean_linker_0, # of connection points: 2
# Relax obj value: 0.162
# Max RMSD: 0.274
# Mean RMSD: 0.166
data_MOF--net-gar--node1-QUQFOY_clean_sbu_1--node2-HISSIN_clean_sbu_0--edge1-UVAHIK_clean_linker_0
_symmetry_space_group_name_H-M    P1
_symmetry_Int_Tables_number       1
_symmetry_cell_setting            triclinic
loop_
_symmetry_equiv_pos_as_xyz
'x, y, z'
_cell_length_a     76.963138
_cell_length_b     76.615072
_cell_length_c     74.702034
_cell_angle_alpha  99.658743
_cell_angle_beta   93.84744
_cell_angle_gamma 102.86261
loop_
_atom_site_label
_atom_site_type_symbol
_atom_site_fract_x
_atom_site_fract_y
_atom_site_fract_z
_atom_type_partial_charge
O0 O 0.06796 0.25 0.39066 0.0
Cd1 Cd 0.06911 0.26357 0.36884 0.0
Cd2 Cd 0.04522 0.27929 0.38669 0.0
O3 O 0.04888 0.26315 0.40528 0.0
O4 O 0.09013 0.25889 0.35664 0.0
O5 O 0.08815 0.28652 0.3694 0.0
C6 C 0.09693 0.27623 0.3602 0.0
C7 C 0.04732 0.31002 0.3974 0.0
C8 C 0.0589 0.25197 0.40418 0.0
C9 C 0.03322 0.25926 0.3482 0.0
O10 O 0.02905 0.26789 0.36267 0.0
O11 O 0.04871 0.25614 0.34767 0.0
O12 O 0.03317 0.29778 0.39862 0.0
O13 O 0.0606 0.30479 0.39031 0.0
O14 O 0.98404 0.70923 0.63551 0.0
Cd15 Cd 0.9888 0.73304 0.6543 0.0
Cd16 Cd 0.00734 0.74763 0.62781 0.0
O17 O 0.99889 0.72093 0.6144 0.0
O18 O 0.97188 0.72746 0.67252 0.0
O19 O 0.97176 0.74946 0.6567 0.0
C20 C 0.96524 0.74071 0.66904 0.0
C21 C 0.00755 0.77003 0.61009 0.0
C22 C 0.98972 0.70729 0.61991 0.0
C23 C 0.02785 0.7501 0.66438 0.0
O24 O 0.02812 0.75387 0.64846 0.0
O25 O 0.01342 0.74164 0.66938 0.0
O26 O 0.0186 0.75964 0.60849 0.0
O27 O 0.99599 0.7676 0.62174 0.0
O28 O 0.60641 0.79304 0.88884 0.0
Cd29 Cd 0.58417 0.79045 0.90299 0.0
Cd30 Cd 0.56779 0.79845 0.87139 0.0
O31 O 0.59384 0.80179 0.86557 0.0
O32 O 0.58972 0.77894 0.92388 0.0
O33 O 0.56734 0.76607 0.90217 0.0
C34 C 0.5762 0.76556 0.91733 0.0
C35 C 0.5474 0.78778 0.8451 0.0
C36 C 0.60743 0.79855 0.87374 0.0
C37 C 0.56703 0.82234 0.90765 0.0
O38 O 0.56135 0.81775 0.89078 0.0
O39 O 0.57698 0.81368 0.91493 0.0
O40 O 0.5572 0.80413 0.84881 0.0
O41 O 0.54883 0.77725 0.85664 0.0
O42 O 0.49483 0.22308 0.14783 0.0
Cd43 Cd 0.4978 0.24484 0.169 0.0
Cd44 Cd 0.51988 0.26366 0.14779 0.0
O45 O 0.51423 0.2379 0.13199 0.0
O46 O 0.47774 0.23839 0.18379 0.0
O47 O 0.48218 0.2627 0.17068 0.0
C48 C 0.47309 0.25296 0.18099 0.0
C49 C 0.52216 0.2868 0.1307 0.0
C50 C 0.50357 0.2233 0.13402 0.0
C51 C 0.53526 0.2622 0.18561 0.0
O52 O 0.5373 0.2692 0.17139 0.0
O53 O 0.5206 0.25127 0.18704 0.0
O54 O 0.53425 0.2777 0.13159 0.0
O55 O 0.50866 0.28304 0.13993 0.0
O56 O 0.078 0.75853 0.13011 0.0
Cd57 Cd 0.07756 0.78435 0.14321 0.0
Cd58 Cd 0.10041 0.79279 0.11757 0.0
O59 O 0.09767 0.76517 0.11068 0.0
O60 O 0.06181 0.77798 0.16223 0.0
O61 O 0.05469 0.79332 0.14153 0.0
C62 C 0.05067 0.78604 0.15555 0.0
C63 C 0.09032 0.80755 0.09593 0.0
C64 C 0.08721 0.75347 0.11761 0.0
C65 C 0.11525 0.80784 0.156 0.0
O66 O 0.1185 0.80697 0.13947 0.0
O67 O 0.10001 0.79991 0.15982 0.0
O68 O 0.1058 0.80366 0.09572 0.0
O69 O 0.08064 0.80322 0.10876 0.0
O70 O 0.54114 0.80324 0.39962 0.0
Cd71 Cd 0.51702 0.79906 0.41087 0.0
Cd72 Cd 0.50468 0.8041 0.3782 0.0
O73 O 0.5305 0.80611 0.37243 0.0
O74 O 0.52273 0.79076 0.43384 0.0
O75 O 0.50414 0.77312 0.41063 0.0
C76 C 0.51233 0.77512 0.42677 0.0
C77 C 0.48222 0.782 0.3598 0.0
C78 C 0.54354 0.8055 0.38343 0.0
C79 C 0.49887 0.83013 0.40975 0.0
O80 O 0.49804 0.82657 0.39246 0.0
O81 O 0.50538 0.82042 0.41935 0.0
O82 O 0.48963 0.79681 0.35446 0.0
O83 O 0.48773 0.77968 0.37577 0.0
O84 O 0.58457 0.25714 0.63932 0.0
Cd85 Cd 0.58143 0.28106 0.65447 0.0
Cd86 Cd 0.60188 0.29584 0.63066 0.0
O87 O 0.60376 0.26948 0.62176 0.0
O88 O 0.56291 0.27265 0.67035 0.0
O89 O 0.55938 0.29077 0.65097 0.0
C90 C 0.55319 0.28205 0.66345 0.0
C91 C 0.59151 0.3105 0.60894 0.0
C92 C 0.59496 0.25549 0.62697 0.0
C93 C 0.61608 0.30805 0.66982 0.0
O94 O 0.61808 0.31075 0.65369 0.0
O95 O 0.60265 0.29633 0.67284 0.0
O96 O 0.60782 0.30875 0.61017 0.0
O97 O 0.5811 0.30414 0.62041 0.0
O98 O 0.03129 0.25411 0.88355 0.0
Cd99 Cd 0.02509 0.26872 0.86413 0.0
Cd100 Cd 1.0047 0.28045 0.88935 0.0
O101 O 0.01556 0.26481 0.90456 0.0
O102 O 0.04413 0.26965 0.84737 0.0
O103 O 0.04002 0.29407 0.86546 0.0
C104 C 0.04892 0.28701 0.85334 0.0
C105 C 0.00777 0.3109 0.90202 0.0
C106 C 0.02616 0.25487 0.89943 0.0
C107 C 0.98567 0.26052 0.85284 0.0
O108 O 0.98427 0.2679 0.86906 0.0
O109 O 1.00095 0.25978 0.84777 0.0
O110 O 0.99557 0.29834 0.90647 0.0
O111 O 0.01813 0.3061 0.8902 0.0
O112 O 0.40161 0.02528 0.27513 0.0
Cd113 Cd 0.38711 0.02848 0.29705 0.0
Cd114 Cd 0.41861 0.02979 0.31738 0.0
O115 O 0.42719 0.02843 0.29181 0.0
O116 O 0.36579 0.03603 0.28772 0.0
O117 O 0.38644 0.05364 0.30928 0.0
C118 C 0.37174 0.0514 0.29879 0.0
C119 C 0.43999 0.04785 0.34066 0.0
C120 C 0.41832 0.02618 0.27632 0.0
C121 C 0.3866 0.99931 0.31904 0.0
O122 O 0.4031 1.00659 0.32399 0.0
O123 O 0.37758 1.00619 0.30848 0.0
O124 O 0.44175 0.03246 0.33205 0.0
O125 O 0.42578 0.05316 0.3362 0.0
O126 O 0.30271 0.19618 0.54571 0.0
Cd127 Cd 0.29912 0.1768 0.52197 0.0
Cd128 Cd 0.28377 0.20352 0.50912 0.0
O129 O 0.29149 0.21742 0.53581 0.0
O130 O 0.31048 0.15813 0.5303 0.0
O131 O 0.32066 0.17294 0.50884 0.0
C132 C 0.32207 0.16103 0.51886 0.0
C133 C 0.29083 0.21766 0.48408 0.0
C134 C 0.29875 0.21159 0.54869 0.0
C135 C 0.25958 0.16638 0.50727 0.0
O136 O 0.26082 0.18273 0.50518 0.0
O137 O 0.27332 0.16139 0.51295 0.0
O138 O 0.27882 0.22164 0.49422 0.0
O139 O 0.29928 0.2059 0.48842 0.0
O140 O 0.17168 0.00858 0.74965 0.0
Cd141 Cd 0.19451 0.01018 0.76915 0.0
Cd142 Cd 0.16363 0.03056 0.79307 0.0
O143 O 0.15179 0.02134 0.76463 0.0
O144 O 0.21176 0.9938 0.7574 0.0
O145 O 0.19856 0.98738 0.7809 0.0
C146 C 0.20902 0.98292 0.76898 0.0
C147 C 0.14708 0.0306 0.82134 0.0
C148 C 0.15693 0.01404 0.74956 0.0
C149 C 0.20239 0.05365 0.78661 0.0
O150 O 0.18721 0.05161 0.79331 0.0
O151 O 0.20747 0.03963 0.7782 0.0
O152 O 0.14606 0.04152 0.81008 0.0
O153 O 0.15693 0.0193 0.81663 0.0
O154 O 0.27118 0.94079 0.04247 0.0
Cd155 Cd 0.27357 0.96188 0.02797 0.0
Cd156 Cd 0.28513 0.93138 1.00059 0.0
O157 O 0.27791 0.91907 0.02251 0.0
O158 O 0.26034 0.97918 0.04175 0.0
O159 O 0.25098 0.96456 0.01362 0.0
C160 C 0.24823 0.97524 0.02794 0.0
C161 C 0.28528 0.91034 0.97332 0.0
C162 C 0.27329 0.92466 0.03808 0.0
C163 C 0.31139 0.96923 0.01546 0.0
O164 O 0.307 0.9535 1.0053 0.0
O165 O 0.30031 0.97527 0.02542 0.0
O166 O 0.29659 0.91255 0.98743 0.0
O167 O 0.27356 0.92007 0.9745 0.0
O168 O 0.30649 0.38767 0.07847 0.0
Cd169 Cd 0.31091 0.40232 0.05769 0.0
Cd170 Cd 0.31991 0.37146 0.04171 0.0
O171 O 0.31035 0.36132 0.06439 0.0
O172 O 0.2988 0.42268 0.06393 0.0
O173 O 0.29069 0.40176 0.03875 0.0
C174 C 0.28828 0.41619 0.049 0.0
C175 C 0.31028 0.35657 0.0114 0.0
C176 C 0.30645 0.37105 0.07842 0.0
C177 C 0.34916 0.40621 0.05019 0.0
O178 O 0.34518 0.38896 0.0452 0.0
O179 O 0.33714 0.41448 0.05501 0.0
O180 O 0.32095 0.35078 0.02181 0.0
O181 O 0.30424 0.37031 0.01856 0.0
O182 O 0.81518 0.12325 0.06899 0.0
Cd183 Cd 0.81232 0.10287 0.04581 0.0
Cd184 Cd 0.80323 0.12966 0.02891 0.0
O185 O 0.81321 0.14551 0.0542 0.0
O186 O 0.82899 0.08636 0.04966 0.0
O187 O 0.83303 0.10501 0.03 0.0
C188 C 0.83869 0.09323 0.03792 0.0
C189 C 0.80642 0.14446 1.00365 0.0
C190 C 0.81582 0.14004 0.06908 0.0
C191 C 0.77362 0.09601 0.03101 0.0
O192 O 0.77844 0.11199 0.0276 0.0
O193 O 0.78542 0.08842 0.03707 0.0
O194 O 0.79601 0.14801 0.01579 0.0
O195 O 0.81558 0.13265 1.00594 0.0
O196 O 0.16929 0.51016 0.20465 0.0
Cd197 Cd 0.18995 0.52741 0.22276 0.0
Cd198 Cd 0.16375 0.54332 0.23297 0.0
O199 O 0.14739 0.52162 0.21535 0.0
O200 O 0.20891 0.5138 0.22546 0.0
O201 O 0.19403 0.52301 0.24817 0.0
C202 C 0.206 0.5147 0.24236 0.0
C203 C 0.15715 0.55013 0.26284 0.0
C204 C 0.15268 0.50987 0.20434 0.0
C205 C 0.19359 0.56543 0.2167 0.0
O206 O 0.17805 0.56411 0.22189 0.0
O207 O 0.2015 0.55255 0.21688 0.0
O208 O 0.1482 0.55421 0.24956 0.0
O209 O 0.16987 0.54208 0.25907 0.0
O210 O 0.80461 0.88746 0.58033 0.0
Cd211 Cd 0.80831 0.90086 0.55848 0.0
Cd212 Cd 0.81843 0.87026 0.54418 0.0
O213 O 0.80957 0.86116 0.56752 0.0
O214 O 0.79588 0.92114 0.56369 0.0
O215 O 0.78768 0.89905 0.53949 0.0
C216 C 0.78521 0.91384 0.54899 0.0
C217 C 0.80809 0.85479 0.51422 0.0
C218 C 0.80539 0.87119 0.58116 0.0
C219 C 0.8468 0.90524 0.55095 0.0
O220 O 0.84347 0.88794 0.5471 0.0
O221 O 0.83433 0.91319 0.55494 0.0
O222 O 0.81882 0.84904 0.5246 0.0
O223 O 0.80243 0.86884 0.52123 0.0
O224 O 0.9311 0.05839 0.24271 0.0
Cd225 Cd 0.90954 0.05948 0.26039 0.0
Cd226 Cd 0.94453 0.04443 0.28318 0.0
O227 O 0.9541 0.05093 0.25744 0.0
O228 O 0.89068 0.07296 0.24955 0.0
O229 O 0.90726 0.08545 0.27495 0.0
C230 C 0.89516 0.08693 0.26277 0.0
C231 C 0.96202 0.04652 0.31324 0.0
C232 C 0.94689 0.05502 0.24298 0.0
C233 C 0.90421 0.01972 0.27263 0.0
O234 O 0.9209 0.02349 0.27855 0.0
O235 O 0.89729 0.03187 0.26642 0.0
O236 O 0.96331 0.03523 0.29874 0.0
O237 O 0.95188 0.05745 0.3107 0.0
O238 O 0.31433 0.62286 0.57113 0.0
Cd239 Cd 0.31239 0.60187 0.54852 0.0
Cd240 Cd 0.30225 0.6273 0.5295 0.0
O241 O 0.30952 0.64335 0.55505 0.0
O242 O 0.32948 0.58596 0.55298 0.0
O243 O 0.33305 0.60397 0.53268 0.0
C244 C 0.33892 0.59248 0.54089 0.0
C245 C 0.30472 0.64332 0.50503 0.0
C246 C 0.31286 0.63899 0.57038 0.0
C247 C 0.27404 0.5926 0.53143 0.0
O248 O 0.2784 0.60807 0.52679 0.0
O249 O 0.28591 0.5864 0.53943 0.0
O250 O 0.2935 0.64508 0.51676 0.0
O251 O 0.31506 0.63253 0.50719 0.0
O252 O 0.43074 0.55734 0.74082 0.0
Cd253 Cd 0.40914 0.55867 0.75847 0.0
Cd254 Cd 0.44389 0.5428 0.78112 0.0
O255 O 0.45334 0.54898 0.75524 0.0
O256 O 0.39066 0.5726 0.74774 0.0
O257 O 0.40707 0.58457 0.77336 0.0
C258 C 0.39514 0.58636 0.76117 0.0
C259 C 0.46194 0.54435 0.8107 0.0
C260 C 0.44633 0.55351 0.74093 0.0
C261 C 0.40296 0.51911 0.77116 0.0
O262 O 0.41961 0.52268 0.77715 0.0
O263 O 0.39639 0.53123 0.76448 0.0
O264 O 0.46181 0.53232 0.7963 0.0
O265 O 0.4529 0.55627 0.80827 0.0
O266 O 0.66564 0.01169 0.70735 0.0
Cd267 Cd 0.68509 0.02874 0.72691 0.0
Cd268 Cd 0.65751 0.04172 0.73734 0.0
O269 O 0.64243 0.02044 0.71825 0.0
O270 O 0.7063 0.0181 0.7254 0.0
O271 O 0.69191 0.02054 0.75004 0.0
C272 C 0.70486 0.01567 0.74194 0.0
C273 C 0.65111 0.046 0.76737 0.0
C274 C 0.6488 0.01016 0.70666 0.0
C275 C 0.68624 0.06762 0.72435 0.0
O276 O 0.67023 0.06465 0.72839 0.0
O277 O 0.69494 0.05532 0.72396 0.0
O278 O 0.64128 0.04988 0.75463 0.0
O279 O 0.66443 0.03911 0.76289 0.0
O280 O 0.80645 0.69885 0.04984 0.0
Cd281 Cd 0.80274 0.67837 0.02706 0.0
Cd282 Cd 0.7876 0.70518 0.01274 0.0
O283 O 0.79467 0.71947 0.03936 0.0
O284 O 0.81392 0.66035 0.03704 0.0
O285 O 0.82404 0.67309 0.01428 0.0
C286 C 0.82542 0.66211 0.02536 0.0
C287 C 0.79465 0.72006 0.98812 0.0
C288 C 0.80223 0.71415 0.05243 0.0
C289 C 0.76339 0.66782 0.01167 0.0
O290 O 0.76498 0.68383 0.0084 0.0
O291 O 0.77684 0.6631 0.01849 0.0
O292 O 0.78162 0.72258 0.99744 0.0
O293 O 0.80404 0.70925 0.99296 0.0
O294 O 0.92085 0.53924 0.7688 0.0
Cd295 Cd 0.90615 0.54155 0.79073 0.0
Cd296 Cd 0.93625 0.53829 0.80955 0.0
O297 O 0.94558 0.53767 0.7844 0.0
O298 O 0.88514 0.54938 0.7811 0.0
O299 O 0.90424 0.56583 0.80451 0.0
C300 C 0.88993 0.56386 0.79355 0.0
C301 C 0.95594 0.55573 0.83435 0.0
C302 C 0.93698 0.53781 0.76935 0.0
C303 C 0.90292 0.50921 0.809 0.0
O304 O 0.91958 0.51481 0.81424 0.0
O305 O 0.89501 0.51814 0.7997 0.0
O306 O 0.95851 0.54073 0.82555 0.0
O307 O 0.942 0.56105 0.82903 0.0
O308 O 0.773 0.44697 0.54034 0.0
Cd309 Cd 0.7756 0.46601 0.52328 0.0
Cd310 Cd 0.78206 0.43294 0.49906 0.0
O311 O 0.77132 0.4217 0.52028 0.0
O312 O 0.76354 0.48519 0.53555 0.0
O313 O 0.75251 0.46754 0.50902 0.0
C314 C 0.75064 0.47981 0.52244 0.0
C315 C 0.77996 0.41262 0.47086 0.0
C316 C 0.77046 0.42969 0.53645 0.0
C317 C 0.81304 0.46744 0.51247 0.0
O318 O 0.80695 0.45066 0.50548 0.0
O319 O 0.80249 0.47719 0.51877 0.0
O320 O 0.78892 0.41102 0.48537 0.0
O321 O 0.77166 0.4256 0.47222 0.0
O322 O 0.67293 0.50982 0.24897 0.0
Cd323 Cd 0.69534 0.51129 0.26891 0.0
Cd324 Cd 0.66401 0.5311 0.29201 0.0
O325 O 0.65238 0.52186 0.2635 0.0
O326 O 0.71262 0.49483 0.25748 0.0
O327 O 0.69876 0.48828 0.28059 0.0
C328 C 0.70942 0.4838 0.26888 0.0
C329 C 0.64726 0.53071 0.32008 0.0
C330 C 0.65798 0.5149 0.24856 0.0
C331 C 0.70297 0.55463 0.28652 0.0
O332 O 0.68751 0.55239 0.29263 0.0
O333 O 0.70838 0.5407 0.27839 0.0
O334 O 0.64617 0.54168 0.30889 0.0
O335 O 0.65728 0.51959 0.3154 0.0
Eu336 Eu 0.05587 0.06129 0.0373 0.0
Eu337 Eu 0.03587 0.01829 0.02633 0.0
C338 C 0.05868 0.03926 0.99594 0.0
C339 C 0.07387 0.11098 0.03573 0.0
C340 C 0.06971 0.10721 0.0167 0.0
C341 C 0.07955 0.14335 0.03544 0.0
C342 C 0.07031 0.12141 1.00711 0.0
C343 C 0.07899 0.12909 0.04504 0.0
C344 C 0.075 0.13963 0.0164 0.0
C345 C 0.07183 0.09602 0.04589 0.0
O346 O 0.0637 0.01697 0.03704 0.0
O347 O 0.07851 0.04698 0.03997 0.0
C348 C 0.07864 0.02978 0.0396 0.0
O349 O 0.04666 0.05446 0.06478 0.0
O350 O 0.02067 0.99528 1.00563 0.0
O351 O 0.02654 0.99176 0.03347 0.0
O352 O 0.02654 0.02711 0.05452 0.0
C353 C 0.0333 0.04135 0.06773 0.0
O354 O 0.02778 0.06224 0.02647 0.0
O355 O 0.01322 0.03203 0.02224 0.0
O356 O 0.0512 0.02395 1.00136 0.0
O357 O 0.05555 0.08928 0.04913 0.0
O358 O 0.07999 0.0833 0.04025 0.0
O359 O 0.05941 0.05517 1.00657 0.0
C360 C 0.02469 0.96657 0.01026 0.0
C361 C 0.0426 0.96535 0.01218 0.0
C362 C 0.01519 0.93373 1.00103 0.0
C363 C 0.04673 0.94832 0.00925 0.0
C364 C 0.01108 0.95077 1.00405 0.0
C365 C 0.03298 0.93228 1.00433 0.0
C366 C 0.01988 0.9838 0.01682 0.0
C367 C 0.01295 0.04922 0.02304 0.0
H368 H 0.06556 0.09327 0.00933 0.0
H369 H 0.08332 0.15726 0.04293 0.0
H370 H 0.06643 0.11809 0.99251 0.0
H371 H 0.0822 0.13218 0.05974 0.0
H372 H 0.05328 0.97747 0.01696 0.0
H373 H 1.00436 0.92165 0.99696 0.0
H374 H 0.06054 0.94771 0.01209 0.0
H375 H 0.99719 0.95153 1.00244 0.0
Eu376 Eu 0.3019 0.78696 0.25012 0.0
Eu377 Eu 0.28367 0.77633 0.28729 0.0
C378 C 0.2646 0.79649 0.26019 0.0
C379 C 0.30818 0.80372 0.20512 0.0
C380 C 0.2911 0.80737 0.2041 0.0
C381 C 0.3138 0.81588 0.1775 0.0
C382 C 0.2855 0.81549 0.19001 0.0
C383 C 0.31942 0.80787 0.19167 0.0
C384 C 0.29686 0.81999 0.17662 0.0
C385 C 0.31474 0.7966 0.2207 0.0
O386 O 0.28157 0.75043 0.26729 0.0
O387 O 0.27882 0.7623 0.24148 0.0
C388 C 0.27672 0.7483 0.24977 0.0
O389 O 0.31847 0.76902 0.26017 0.0
O390 O 0.26329 0.7601 0.30071 0.0
O391 O 0.28411 0.78202 0.31689 0.0
O392 O 0.31085 0.77028 0.28971 0.0
C393 C 0.32075 0.7658 0.27682 0.0
O394 O 0.31849 0.8055 0.27486 0.0
O395 O 0.2954 0.80649 0.29223 0.0
O396 O 0.26214 0.78414 0.27064 0.0
O397 O 0.31699 0.8075 0.23649 0.0
O398 O 0.30709 0.77984 0.22169 0.0
O399 O 0.27997 0.80187 0.2538 0.0
C400 C 0.27365 0.75656 0.33023 0.0
C401 C 0.28059 0.74119 0.32525 0.0
C402 C 0.274 0.75142 0.3614 0.0
C403 C 0.28411 0.7309 0.3383 0.0
C404 C 0.27038 0.76158 0.34835 0.0
C405 C 0.28089 0.73591 0.35658 0.0
C406 C 0.27075 0.76822 0.3171 0.0
C407 C 0.31141 0.81378 0.28829 0.0
H408 H 0.28223 0.80415 0.21435 0.0
H409 H 0.32295 0.81934 0.16754 0.0
H410 H 0.2723 0.81828 0.1896 0.0
H411 H 0.33269 0.80524 0.19232 0.0
H412 H 0.28341 0.73724 0.31132 0.0
H413 H 0.27172 0.75598 0.37538 0.0
H414 H 0.28927 0.71899 0.33405 0.0
H415 H 0.26528 0.77356 0.35249 0.0
Eu416 Eu 0.57665 0.03817 0.51178 0.0
Eu417 Eu 0.54017 0.04319 0.53175 0.0
C418 C 0.56688 0.0213 0.54802 0.0
C419 C 0.61867 0.02224 0.50047 0.0
C420 C 0.6208 0.01625 0.51706 0.0
C421 C 0.64177 1.00747 0.48931 0.0
C422 C 0.63349 1.00619 0.51987 0.0
C423 C 0.6291 0.01762 0.48655 0.0
C424 C 0.64428 1.00185 0.5061 0.0
C425 C 0.60597 0.03367 0.49783 0.0
O426 O 0.5647 0.06117 0.54901 0.0
O427 O 0.58057 0.06746 0.52539 0.0
C428 C 0.57683 0.0722 0.5421 0.0
O429 O 0.55928 0.04675 0.49102 0.0
O430 O 0.52715 0.06128 0.54881 0.0
O431 O 0.51266 0.03349 0.53781 0.0
O432 O 0.54281 0.06104 0.51064 0.0
C433 C 0.54852 0.05775 0.49454 0.0
O434 O 0.55735 0.01084 0.50745 0.0
O435 O 0.53133 0.02052 0.50722 0.0
O436 O 0.55041 0.02347 0.54632 0.0
O437 O 0.58993 0.02521 0.49005 0.0
O438 O 0.60559 0.04633 0.51177 0.0
O439 O 0.57938 0.02838 0.53837 0.0
C440 C 0.49605 0.05614 0.54163 0.0
C441 C 0.49322 0.06059 0.52436 0.0
C442 C 0.46965 0.06635 0.55043 0.0
C443 C 0.47868 0.06796 0.52017 0.0
C444 C 0.48416 0.059 0.55458 0.0
C445 C 0.46674 0.071 0.5332 0.0
C446 C 0.51179 0.04941 0.54669 0.0
C447 C 0.54001 1.00772 0.50303 0.0
H448 H 0.61283 0.01959 0.52796 0.0
H449 H 0.64995 1.00447 0.47849 0.0
H450 H 0.6349 1.00185 0.53285 0.0
H451 H 0.62763 0.02211 0.47365 0.0
H452 H 0.50236 0.05854 0.51422 0.0
H453 H 0.46096 0.0688 0.56091 0.0
H454 H 0.47676 0.07121 0.50673 0.0
H455 H 0.48625 0.0558 0.56803 0.0
Eu456 Eu 0.27999 0.29026 0.77515 0.0
Eu457 Eu 0.3202 0.28393 0.78222 0.0
C458 C 0.28513 0.24891 0.77992 0.0
C459 C 0.23713 0.30817 0.77789 0.0
C460 C 0.24139 0.31841 0.7957 0.0
C461 C 0.20979 0.3187 0.77509 0.0
C462 C 0.22957 0.32824 0.80339 0.0
C463 C 0.22158 0.30884 0.76746 0.0
C464 C 0.21335 0.328 0.79334 0.0
C465 C 0.24763 0.29532 0.77063 0.0
O466 O 0.31602 0.28315 0.75193 0.0
O467 O 0.28537 0.2769 0.74756 0.0
C468 C 0.30093 0.27792 0.74114 0.0
O469 O 0.29773 0.3181 0.77255 0.0
O470 O 0.33961 0.26753 0.77665 0.0
O471 O 0.34748 0.293 0.79611 0.0
O472 O 0.32561 0.31481 0.78214 0.0
C473 C 0.31516 0.32507 0.77696 0.0
O474 O 0.28943 0.30279 0.80474 0.0
O475 O 0.30975 0.28605 0.80979 0.0
O476 O 0.3027 0.25496 0.7806 0.0
O477 O 0.26025 0.30107 0.76072 0.0
O478 O 0.25254 0.28559 0.7819 0.0
O479 O 0.27444 0.26015 0.77869 0.0
C480 C 0.36884 0.28489 0.77724 0.0
C481 C 0.3674 0.29089 0.76058 0.0
C482 C 0.40042 0.28671 0.77488 0.0
C483 C 0.38232 0.29445 0.75094 0.0
C484 C 0.38545 0.28304 0.78446 0.0
C485 C 0.39894 0.29218 0.75788 0.0
C486 C 0.35285 0.27968 0.78658 0.0
C487 C 0.29942 0.29667 0.81597 0.0
H488 H 0.25344 0.31813 0.80393 0.0
H489 H 0.19734 0.31802 0.76704 0.0
H490 H 0.23276 0.33542 0.81742 0.0
H491 H 0.21809 0.301 0.75369 0.0
H492 H 0.35465 0.29246 0.75486 0.0
H493 H 0.41301 0.28467 0.78047 0.0
H494 H 0.38083 0.29882 0.73798 0.0
H495 H 0.38674 0.27838 0.79729 0.0
Eu496 Eu 0.05232 0.04973 0.54068 0.0
Eu497 Eu 0.0616 0.01153 0.52304 0.0
C498 C 0.08923 0.04984 0.52185 0.0
C499 C 0.04924 0.09859 0.54716 0.0
C500 C 0.06612 0.10548 0.54165 0.0
C501 C 0.03841 0.12295 0.5366 0.0
C502 C 0.06903 0.12083 0.53347 0.0
C503 C 0.03553 0.10764 0.5449 0.0
C504 C 0.05509 0.12949 0.53044 0.0
C505 C 0.04528 0.08099 0.55336 0.0
O506 O 0.07541 0.01758 0.55251 0.0
O507 O 0.06133 0.03893 0.56604 0.0
C508 C 0.07189 0.02759 0.56744 0.0
O509 O 0.02652 0.02842 0.53848 0.0
O510 O 0.07831 0.99172 0.52108 0.0
O511 O 0.05359 0.98607 0.50332 0.0
O512 O 0.03804 1.00347 0.5387 0.0
C513 C 0.02468 0.01143 0.54033 0.0
O514 O 0.04836 0.049 0.50965 0.0
O515 O 0.04408 0.01829 0.50001 0.0
O516 O 0.08382 0.03237 0.5149 0.0
O517 O 0.03393 0.06779 0.5423 0.0
O518 O 0.05894 0.07565 0.55991 0.0
O519 O 0.08027 0.05836 0.53325 0.0
C520 C 0.06079 0.9615 0.51495 0.0
C521 C 0.04347 0.95563 0.51995 0.0
C522 C 0.06803 0.93391 0.52189 0.0
C523 C 0.03848 0.93908 0.52587 0.0
C524 C 0.073 0.95047 0.51586 0.0
C525 C 0.05073 0.9281 0.52704 0.0
C526 C 0.0664 0.97942 0.50965 0.0
C527 C 0.04282 0.03439 0.49662 0.0
H528 H 0.07693 0.09872 0.54315 0.0
H529 H 0.02731 0.12915 0.5343 0.0
H530 H 0.08213 0.12568 0.52918 0.0
H531 H 0.02238 0.10244 0.5489 0.0
H532 H 0.03383 0.96395 0.51953 0.0
H533 H 0.07771 0.92565 0.52252 0.0
H534 H 0.02515 0.93511 0.52999 0.0
H535 H 0.08643 0.95478 0.51212 0.0
Eu536 Eu 0.32263 0.79743 0.76582 0.0
Eu537 Eu 0.28331 0.7728 0.76818 0.0
C538 C 0.3058 0.79867 0.80381 0.0
C539 C 0.37064 0.80752 0.75782 0.0
C540 C 0.37233 0.79082 0.76215 0.0
C541 C 0.39839 0.80989 0.7437 0.0
C542 C 0.38704 0.78389 0.7577 0.0
C543 C 0.38359 0.81689 0.74829 0.0
C544 C 0.40041 0.79341 0.74862 0.0
C545 C 0.35515 0.81474 0.76304 0.0
O546 O 0.27764 0.80131 0.76729 0.0
O547 O 0.3045 0.81708 0.76019 0.0
C548 C 0.28758 0.81649 0.76342 0.0
O549 O 0.31605 0.77678 0.73981 0.0
O550 O 0.26073 0.76649 0.78404 0.0
O551 O 0.25983 0.75082 0.75702 0.0
O552 O 0.28557 0.76982 0.73779 0.0
C553 C 0.30048 0.76896 0.73051 0.0
O554 O 0.32866 0.77033 0.77224 0.0
O555 O 0.3005 0.75138 0.76754 0.0
O556 O 0.29646 0.78201 0.79726 0.0
O557 O 0.34201 0.81198 0.75009 0.0
O558 O 0.34949 0.81128 0.7785 0.0
O559 O 0.31498 0.80826 0.79319 0.0
C560 C 0.233 0.75705 0.76616 0.0
C561 C 0.23112 0.77302 0.76024 0.0
C562 C 0.2007 0.74595 0.76248 0.0
C563 C 0.21412 0.77544 0.7554 0.0
C564 C 0.21775 0.74358 0.76737 0.0
C565 C 0.19873 0.76186 0.75631 0.0
C566 C 0.25088 0.75439 0.77079 0.0
C567 C 0.31815 0.7536 0.77007 0.0
H568 H 0.36247 0.78326 0.76939 0.0
H569 H 0.40834 0.81749 0.73655 0.0
H570 H 0.38824 0.77141 0.76213 0.0
H571 H 0.38237 0.82968 0.7446 0.0
H572 H 0.2428 0.78356 0.75924 0.0
H573 H 0.1891 0.73515 0.76309 0.0
H574 H 0.21304 0.78792 0.75093 0.0
H575 H 0.21903 0.73116 0.77188 0.0
Eu576 Eu 0.54473 0.01903 0.04345 0.0
Eu577 Eu 0.5412 0.03212 1.00419 0.0
C578 C 0.53832 0.05802 0.04154 0.0
C579 C 0.53631 0.00806 0.08978 0.0
C580 C 0.52131 0.0156 0.08945 0.0
C581 C 0.53028 1.00036 0.11925 0.0
C582 C 0.51091 0.01566 0.10403 0.0
C583 C 0.5407 1.00035 0.10465 0.0
C584 C 0.51534 0.00813 0.11915 0.0
C585 C 0.5474 0.00841 0.07466 0.0
O586 O 0.57025 0.03086 0.00901 0.0
O587 O 0.57242 0.03551 0.0402 0.0
C588 C 0.58005 0.03535 0.02493 0.0
O589 O 0.55207 0.99804 0.02253 0.0
O590 O 0.54332 0.05455 0.98925 0.0
O591 O 0.53584 0.02671 0.97452 0.0
O592 O 0.53463 1.00145 0.99812 0.0
C593 C 0.54343 0.99163 1.00623 0.0
O594 O 0.51473 0.01062 0.03429 0.0
O595 O 0.51267 0.02704 0.01135 0.0
O596 O 0.5462 0.05704 0.0265 0.0
O597 O 0.54012 0.99742 0.0594 0.0
O598 O 0.55526 0.02463 0.07213 0.0
O599 O 0.5335 0.04369 0.04902 0.0
C600 C 0.55368 0.04873 0.96055 0.0
C601 C 0.56696 0.03904 0.95715 0.0
C602 C 0.56547 0.06827 0.93963 0.0
C603 C 0.57917 0.04369 0.94474 0.0
C604 C 0.55315 0.06349 0.9519 0.0
C605 C 0.57846 0.05825 0.93568 0.0
C606 C 0.54055 0.04387 0.97333 0.0
C607 C 0.50515 0.01689 0.02264 0.0
H608 H 0.51777 0.02161 0.078 0.0
H609 H 0.53389 0.99426 0.1306 0.0
H610 H 0.49965 0.02196 0.10365 0.0
H611 H 0.55222 0.9944 0.105 0.0
H612 H 0.56776 0.02774 0.9639 0.0
H613 H 0.56475 0.07977 0.93317 0.0
H614 H 0.58883 0.03553 0.94189 0.0
H615 H 0.54314 0.07128 0.9546 0.0
Eu616 Eu 0.30548 0.32184 0.29475 0.0
Eu617 Eu 0.2871 0.27902 0.27447 0.0
C618 C 0.29154 0.31118 0.2512 0.0
C619 C 0.31069 0.37129 0.31552 0.0
C620 C 0.29234 0.36914 0.31064 0.0
C621 C 0.31375 0.40372 0.32584 0.0
C622 C 0.28474 0.38413 0.31319 0.0
C623 C 0.32135 0.3886 0.32331 0.0
C624 C 0.29537 0.40164 0.32064 0.0
C625 C 0.3186 0.35551 0.31183 0.0
O626 O 0.31562 0.28414 0.26822 0.0
O627 O 0.32911 0.30938 0.29018 0.0
C628 C 0.32992 0.29565 0.27735 0.0
O629 O 0.29826 0.30493 0.31643 0.0
O630 O 0.28229 0.25614 0.25158 0.0
O631 O 0.26983 0.25279 0.27633 0.0
O632 O 0.30194 0.27795 0.30116 0.0
C633 C 0.30101 0.28865 0.31652 0.0
O634 O 0.27603 0.32078 0.29029 0.0
O635 O 0.26529 0.28987 0.2876 0.0
O636 O 0.28162 0.29547 0.25334 0.0
O637 O 0.31218 0.34212 0.31999 0.0
O638 O 0.32008 0.34977 0.29471 0.0
O639 O 0.30304 0.32203 0.26446 0.0
C640 C 0.2804 0.22842 0.26174 0.0
C641 C 0.29882 0.23022 0.26597 0.0
C642 C 0.27498 0.1962 0.26272 0.0
C643 C 0.3053 0.21513 0.26856 0.0
C644 C 0.26852 0.21133 0.26 0.0
C645 C 0.29343 0.198 0.26716 0.0
C646 C 0.27353 0.24464 0.26078 0.0
C647 C 0.26293 0.30652 0.2903 0.0
H648 H 0.28396 0.3559 0.30447 0.0
H649 H 0.32226 0.41702 0.33166 0.0
H650 H 0.27065 0.38207 0.30864 0.0
H651 H 0.33556 0.39046 0.32714 0.0
H652 H 0.30815 0.24341 0.26771 0.0
H653 H 0.26557 0.18312 0.26146 0.0
H654 H 0.31954 0.21699 0.27225 0.0
H655 H 0.25423 0.20978 0.25693 0.0
Eu656 Eu 0.55413 0.54884 0.03847 0.0
Eu657 Eu 0.56527 0.51178 0.02106 0.0
C658 C 0.59124 0.5506 0.02072 0.0
C659 C 0.54409 0.59452 0.0404 0.0
C660 C 0.54378 0.59172 0.02133 0.0
C661 C 0.54252 0.62586 0.04075 0.0
C662 C 0.54281 0.60585 0.01201 0.0
C663 C 0.54338 0.61162 0.05008 0.0
C664 C 0.54228 0.62311 0.02161 0.0
C665 C 0.54579 0.57968 0.05002 0.0
O666 O 0.56971 0.51294 0.05216 0.0
O667 O 0.5712 0.54316 0.06252 0.0
C668 C 0.5739 0.52737 0.06556 0.0
O669 O 0.53372 0.52681 0.04724 0.0
O670 O 0.58279 0.49292 0.02133 0.0
O671 O 0.56055 0.4871 1.00027 0.0
O672 O 0.53642 0.50269 0.02585 0.0
C673 C 0.52766 0.51001 0.03834 0.0
O674 O 0.54024 0.54171 0.00898 0.0
O675 O 0.5568 0.52275 0.99568 0.0
O676 O 0.59045 0.53381 0.02276 0.0
O677 O 0.53394 0.56433 0.04423 0.0
O678 O 0.56199 0.57729 0.05242 0.0
O679 O 0.57726 0.55764 0.0224 0.0
C680 C 0.56648 0.46243 0.01288 0.0
C681 C 0.54819 0.45505 0.01381 0.0
C682 C 0.57365 0.4369 0.02467 0.0
C683 C 0.54272 0.43888 0.02033 0.0
C684 C 0.57911 0.45304 0.01803 0.0
C685 C 0.55541 0.42982 0.02622 0.0
C686 C 0.5726 0.48066 0.00838 0.0
C687 C 0.54503 0.5328 0.9941 0.0
H688 H 0.54454 0.57866 0.01364 0.0
H689 H 0.54205 0.639 0.04849 0.0
H690 H 0.54297 0.60338 0.99732 0.0
H691 H 0.54368 0.614 0.06482 0.0
H692 H 0.53812 0.46202 0.00998 0.0
H693 H 0.58381 0.43041 0.02929 0.0
H694 H 0.52855 0.43366 0.02106 0.0
H695 H 0.59328 0.45856 0.01756 0.0
Eu696 Eu 0.82066 0.29686 0.26306 0.0
Eu697 Eu 0.7823 0.2725 0.2692 0.0
C698 C 0.80473 0.30207 0.30218 0.0
C699 C 0.86882 0.3075 0.25362 0.0
C700 C 0.86823 0.28882 0.25088 0.0
C701 C 0.90026 0.31371 0.24874 0.0
C702 C 0.88371 0.28267 0.24789 0.0
C703 C 0.88476 0.31988 0.25203 0.0
C704 C 0.90009 0.29508 0.24731 0.0
C705 C 0.85321 0.31399 0.25957 0.0
O706 O 0.77624 0.3006 0.26585 0.0
O707 O 0.80327 0.31761 0.2605 0.0
C708 C 0.78612 0.31629 0.26289 0.0
O709 O 0.80968 0.28202 0.23451 0.0
O710 O 0.7631 0.25888 0.28569 0.0
O711 O 0.75511 0.25903 0.25732 0.0
O712 O 0.78837 0.25918 0.24184 0.0
C713 C 0.79873 0.26584 0.23019 0.0
O714 O 0.82688 0.26914 0.26755 0.0
O715 O 0.79939 0.2513 0.27043 0.0
O716 O 0.79513 0.28529 0.2977 0.0
O717 O 0.83974 0.31137 0.24706 0.0
O718 O 0.84809 0.30957 0.27487 0.0
O719 O 0.81369 0.30996 0.29022 0.0
C720 C 0.73321 0.25978 0.27737 0.0
C721 C 0.7323 0.2781 0.28096 0.0
C722 C 0.70102 0.25042 0.27749 0.0
C723 C 0.71573 0.28255 0.28225 0.0
C724 C 0.71759 0.24599 0.27615 0.0
C725 C 0.69985 0.26872 0.27997 0.0
C726 C 0.74989 0.25489 0.27266 0.0
C727 C 0.8168 0.25306 0.26925 0.0
H728 H 0.85597 0.27905 0.25189 0.0
H729 H 0.91251 0.32362 0.24797 0.0
H730 H 0.88297 0.26828 0.24713 0.0
H731 H 0.88538 0.33435 0.25394 0.0
H732 H 0.7443 0.28891 0.28194 0.0
H733 H 0.68904 0.23944 0.27543 0.0
H734 H 0.71526 0.29677 0.28434 0.0
H735 H 0.71809 0.23178 0.27326 0.0
Eu736 Eu 0.04485 0.50775 0.53151 0.0
Eu737 Eu 0.0434 0.5297 0.49786 0.0
C738 C 0.0391 0.54793 0.53843 0.0
C739 C 0.03459 0.48918 0.57391 0.0
C740 C 0.0202 0.49762 0.57487 0.0
C741 C 0.02978 0.48115 0.60351 0.0
C742 C 0.01085 0.49814 0.59022 0.0
C743 C 0.03917 0.4807 0.58813 0.0
C744 C 0.01573 0.49019 0.60486 0.0
C745 C 0.0456 0.4906 0.55878 0.0
O746 O 0.07191 0.52649 0.5015 0.0
O747 O 0.07276 0.52558 0.53191 0.0
C748 C 0.08109 0.52817 0.51742 0.0
O749 O 0.05378 0.49116 0.50771 0.0
O750 O 0.05271 0.55478 0.48766 0.0
O751 O 0.03346 0.53216 0.47056 0.0
O752 O 0.03823 0.49995 0.48506 0.0
C753 C 0.04661 0.48843 0.49078 0.0
O754 O 0.01547 0.50055 0.51984 0.0
O755 O 0.01514 0.52499 0.50589 0.0
O756 O 0.04769 0.55017 0.52411 0.0
O757 O 0.03746 0.48282 0.54256 0.0
O758 O 0.05538 0.50692 0.55903 0.0
O759 O 0.034 0.53177 0.54257 0.0
C760 C 0.05493 0.55053 0.45632 0.0
C761 C 0.06547 0.53827 0.45078 0.0
C762 C 0.06679 0.56869 0.43432 0.0
C763 C 0.07656 0.54116 0.43699 0.0
C764 C 0.05564 0.56574 0.44806 0.0
C765 C 0.07738 0.55644 0.42865 0.0
C766 C 0.04408 0.54822 0.47147 0.0
C767 C 0.00665 0.51109 0.51264 0.0
H768 H 0.01659 0.50435 0.56401 0.0
H769 H 0.0337 0.47473 0.61447 0.0
H770 H 1.00032 0.50546 0.59092 0.0
H771 H 0.05029 0.47415 0.58754 0.0
H772 H 0.06519 0.52655 0.4572 0.0
H773 H 0.0673 0.58072 0.42836 0.0
H774 H 0.08434 0.53133 0.43277 0.0
H775 H 0.04776 0.57546 0.45241 0.0
Eu776 Eu 0.78328 0.79121 0.27799 0.0
Eu777 Eu 0.82306 0.78461 0.28539 0.0
C778 C 0.78782 0.75035 0.28375 0.0
C779 C 0.73456 0.79326 0.28176 0.0
C780 C 0.71801 0.78955 0.27115 0.0
C781 C 0.7193 0.7933 0.30916 0.0
C782 C 0.70219 0.78798 0.27949 0.0
C783 C 0.7351 0.79469 0.30078 0.0
C784 C 0.70269 0.79028 0.29863 0.0
C785 C 0.75114 0.79658 0.27295 0.0
O786 O 0.8161 0.7758 0.25497 0.0
O787 O 0.79344 0.79 0.25035 0.0
C788 C 0.80528 0.78132 0.24405 0.0
O789 O 0.80167 0.82003 0.28128 0.0
O790 O 0.84151 0.7667 0.28188 0.0
O791 O 0.85086 0.79406 0.29758 0.0
O792 O 0.82886 0.8132 0.27775 0.0
C793 C 0.81882 0.82523 0.27899 0.0
O794 O 0.7862 0.79086 0.3082 0.0
O795 O 0.81676 0.79632 0.31325 0.0
O796 O 0.80465 0.75807 0.29054 0.0
O797 O 0.76469 0.80864 0.28245 0.0
O798 O 0.75581 0.7823 0.26448 0.0
O799 O 0.77804 0.76005 0.27635 0.0
C800 C 0.87092 0.78205 0.27931 0.0
C801 C 0.87484 0.79666 0.26994 0.0
C802 C 0.8954 0.7707 0.26677 0.0
C803 C 0.88902 0.79831 0.25912 0.0
C804 C 0.88132 0.76915 0.2777 0.0
C805 C 0.89942 0.78528 0.25732 0.0
C806 C 0.85536 0.77941 0.28979 0.0
C807 C 0.80107 0.79548 0.31935 0.0
H808 H 0.71737 0.78825 0.25643 0.0
H809 H 0.72022 0.7953 0.32392 0.0
H810 H 0.68959 0.78524 0.27096 0.0
H811 H 0.74777 0.79743 0.30922 0.0
H812 H 0.86683 0.80668 0.27083 0.0
H813 H 0.90287 0.76021 0.26543 0.0
H814 H 0.89185 0.80981 0.25221 0.0
H815 H 0.87833 0.75766 0.28463 0.0
Eu816 Eu 0.80168 0.28932 0.74779 0.0
Eu817 Eu 0.7928 0.28467 0.78998 0.0
C818 C 0.77024 0.30445 0.76563 0.0
C819 C 0.80192 0.3048 0.70128 0.0
C820 C 0.80827 0.32386 0.70513 0.0
C821 C 0.78697 0.30704 0.67231 0.0
C822 C 0.8041 0.33439 0.69257 0.0
C823 C 0.79124 0.29653 0.68477 0.0
C824 C 0.79343 0.32611 0.67595 0.0
C825 C 0.8062 0.29318 0.71409 0.0
O826 O 0.78669 0.25669 0.77271 0.0
O827 O 0.77813 0.26545 0.74651 0.0
C828 C 0.778 0.2528 0.75634 0.0
O829 O 0.81885 0.27094 0.75551 0.0
O830 O 0.77484 0.27272 0.80841 0.0
O831 O 0.8004 0.29121 0.81944 0.0
O832 O 0.81986 0.27874 0.78681 0.0
C833 C 0.8258 0.27108 0.77211 0.0
O834 O 0.82124 0.31197 0.76708 0.0
O835 O 0.8047 0.31446 0.7914 0.0
O836 O 0.76921 0.29259 0.77661 0.0
O837 O 0.81833 0.30063 0.72793 0.0
O838 O 0.7926 0.28193 0.71861 0.0
O839 O 0.78391 0.30808 0.75618 0.0
C840 C 0.78966 0.26743 0.83507 0.0
C841 C 0.79256 0.25025 0.82806 0.0
C842 C 0.79393 0.26161 0.86583 0.0
C843 C 0.79597 0.23874 0.83989 0.0
C844 C 0.79041 0.27303 0.854 0.0
C845 C 0.79672 0.24431 0.85893 0.0
C846 C 0.78627 0.27984 0.82292 0.0
C847 C 0.81773 0.32128 0.78227 0.0
H848 H 0.81653 0.33064 0.71777 0.0
H849 H 0.77846 0.30018 0.65985 0.0
H850 H 0.80949 0.349 0.69577 0.0
H851 H 0.78613 0.28187 0.68151 0.0
H852 H 0.79224 0.24577 0.81346 0.0
H853 H 0.7942 0.26621 0.88039 0.0
H854 H 0.79823 0.22558 0.83417 0.0
H855 H 0.78826 0.28627 0.85964 0.0
Eu856 Eu 0.81596 0.8253 0.79978 0.0
Eu857 Eu 0.79542 0.78335 0.78066 0.0
C858 C 0.80166 0.81546 0.75697 0.0
C859 C 0.82668 0.87646 0.81206 0.0
C860 C 0.82216 0.87931 0.79443 0.0
C861 C 0.81975 0.90512 0.82488 0.0
C862 C 0.81643 0.89486 0.79205 0.0
C863 C 0.82566 0.88957 0.82726 0.0
C864 C 0.81491 0.9078 0.80724 0.0
C865 C 0.83082 0.85916 0.8147 0.0
O866 O 0.82459 0.78384 0.78641 0.0
O867 O 0.83558 0.81336 0.78384 0.0
C868 C 0.83743 0.79664 0.78264 0.0
O869 O 0.82172 0.80762 0.81986 0.0
O870 O 0.7933 0.75897 0.76006 0.0
O871 O 0.77457 0.75876 0.7804 0.0
O872 O 0.79574 0.78569 0.81115 0.0
C873 C 0.80938 0.79412 0.82333 0.0
O874 O 0.78712 0.82094 0.80552 0.0
O875 O 0.77384 0.79872 0.78097 0.0
O876 O 0.80108 0.79824 0.75732 0.0
O877 O 0.81881 0.84857 0.82206 0.0
O878 O 0.83676 0.85012 0.80101 0.0
O879 O 0.8036 0.82764 0.77214 0.0
C880 C 0.7857 0.73279 0.77277 0.0
C881 C 0.80127 0.7349 0.78458 0.0
C882 C 0.77969 0.70006 0.77089 0.0
C883 C 0.80618 0.71972 0.78933 0.0
C884 C 0.77484 0.71534 0.76604 0.0
C885 C 0.7955 0.7021 0.78252 0.0
C886 C 0.78105 0.74897 0.76773 0.0
C887 C 0.77281 0.81143 0.7947 0.0
H888 H 0.82252 0.86926 0.78247 0.0
H889 H 0.81873 0.9149 0.8368 0.0
H890 H 0.81247 0.89638 0.77831 0.0
H891 H 0.82895 0.88753 0.84097 0.0
H892 H 0.80977 0.74832 0.78997 0.0
H893 H 0.77109 0.68669 0.76556 0.0
H894 H 0.8186 0.72181 0.798 0.0
H895 H 0.7627 0.71354 0.75701 0.0
Eu896 Eu 0.55501 0.5604 0.53525 0.0
Eu897 Eu 0.53556 0.51718 0.52458 0.0
C898 C 0.55783 0.53747 0.49392 0.0
C899 C 0.56268 0.60985 0.53385 0.0
C900 C 0.54696 0.60508 0.52171 0.0
C901 C 0.56713 0.64111 0.52939 0.0
C902 C 0.54128 0.61817 0.51354 0.0
C903 C 0.57274 0.62793 0.53772 0.0
C904 C 0.55136 0.63632 0.51711 0.0
C905 C 0.56852 0.59566 0.54193 0.0
O906 O 0.56425 0.51697 0.53374 0.0
O907 O 0.57829 0.54749 0.54001 0.0
C908 C 0.57887 0.53023 0.53799 0.0
O909 O 0.54691 0.55354 0.56305 0.0
O910 O 0.52099 0.49284 0.50507 0.0
O911 O 0.52687 0.49147 0.53358 0.0
O912 O 0.52604 0.52682 0.5525 0.0
C913 C 0.5332 0.54077 0.5659 0.0
O914 O 0.52602 0.56031 0.52711 0.0
O915 O 0.51274 0.52989 0.5177 0.0
O916 O 0.55056 0.52215 0.49937 0.0
O917 O 0.55728 0.58735 0.55178 0.0
O918 O 0.57468 0.58419 0.53072 0.0
O919 O 0.55829 0.55336 0.50446 0.0
C920 C 0.52548 0.46505 0.51211 0.0
C921 C 0.54342 0.46412 0.51485 0.0
C922 C 0.51634 0.43205 0.50518 0.0
C923 C 0.54773 0.44721 0.51351 0.0
C924 C 0.51205 0.44898 0.50663 0.0
C925 C 0.53414 0.431 0.50936 0.0
C926 C 0.52038 0.48238 0.51724 0.0
C927 C 0.51178 0.54701 0.52104 0.0
H928 H 0.5391 0.59116 0.51844 0.0
H929 H 0.57529 0.65494 0.53228 0.0
H930 H 0.52892 0.61405 0.50445 0.0
H931 H 0.58498 0.6318 0.54698 0.0
H932 H 0.55396 0.47645 0.51908 0.0
H933 H 0.50562 0.41981 0.50165 0.0
H934 H 0.56154 0.44693 0.51697 0.0
H935 H 0.49813 0.4495 0.5044 0.0
Eu936 Eu 0.07308 0.53197 0.01434 0.0
Eu937 Eu 0.03165 0.52759 0.02722 0.0
C938 C 0.06067 0.5112 0.04754 0.0
C939 C 0.11943 0.52407 0.00783 0.0
C940 C 0.12074 0.51595 0.02323 0.0
C941 C 0.14467 0.51274 0.99697 0.0
C942 C 0.13409 0.50653 0.02561 0.0
C943 C 0.13139 0.52229 0.99467 0.0
C944 C 0.14626 0.50489 0.01255 0.0
C945 C 0.10564 0.53434 1.00537 0.0
O946 O 0.0495 0.55172 0.04639 0.0
O947 O 0.07116 0.55989 0.02772 0.0
C948 C 0.06265 0.56381 0.04194 0.0
O949 O 0.05611 0.53862 0.99184 0.0
O950 O 0.01275 0.53072 0.04745 0.0
O951 O 1.00288 0.52014 0.01901 0.0
O952 O 0.03547 0.54848 0.00916 0.0
C953 C 0.04365 0.54778 0.99431 0.0
O954 O 0.05988 0.50231 1.00646 0.0
O955 O 0.0304 0.5039 1.00423 0.0
O956 O 0.04356 0.50953 0.04269 0.0
O957 O 0.09133 0.5257 0.9943 0.0
O958 O 0.10179 0.54375 0.0202 0.0
O959 O 0.07356 0.52161 0.04074 0.0
C960 C 0.98652 0.53822 0.03591 0.0
C961 C 0.99208 0.55586 0.03222 0.0
C962 C 0.95656 0.5429 0.03866 0.0
C963 C 0.9799 0.56694 0.03167 0.0
C964 C 0.96874 0.53186 0.03922 0.0
C965 C 0.96193 0.56055 0.03476 0.0
C966 C 0.9988 0.52596 0.03523 0.0
C967 C 0.04297 0.49513 1.00055 0.0
H968 H 0.11152 0.51696 0.03347 0.0
H969 H 0.15392 0.51182 0.98674 0.0
H970 H 0.13481 0.50043 0.03763 0.0
H971 H 0.13054 0.5284 0.98266 0.0
H972 H 1.00577 0.56097 0.02955 0.0
H973 H 0.9428 0.5374 0.04083 0.0
H974 H 0.98457 0.58052 0.02883 0.0
H975 H 0.96418 0.5182 0.04191 0.0
C976 C 0.04372 0.23251 0.90664 0.0
C977 C 0.03274 0.24438 0.91221 0.0
C978 C 0.04989 0.22266 0.9188 0.0
C979 C 0.03939 0.2057 0.96107 0.0
H980 H 0.0877 0.19839 0.96228 0.0
C981 C 0.0655 0.1683 0.01346 0.0
C982 C 0.07384 0.1545 1.00632 0.0
C983 C 0.06234 0.18101 1.00304 0.0
C984 C 0.07416 0.20027 0.96203 0.0
H985 H 0.0199 0.25544 0.93503 0.0
H986 H 0.03081 0.23844 0.95622 0.0
H987 H 0.07826 0.21702 0.94171 0.0
H988 H 0.08637 0.14384 0.98312 0.0
H989 H 0.08063 0.1659 0.96479 0.0
H990 H 0.03519 0.18886 0.98121 0.0
C991 C 0.03441 0.23651 0.94238 0.0
C992 C 0.06873 0.21088 0.95023 0.0
C993 C 0.02821 0.2463 0.93023 0.0
C994 C 0.07972 0.1542 0.98889 0.0
C995 C 0.07659 0.16693 0.97847 0.0
C996 C 0.04482 0.19516 0.97287 0.0
C997 C 0.04523 0.2245 0.93678 0.0
C998 C 0.05125 0.21363 0.94957 0.0
C999 C 0.06748 0.18019 0.98527 0.0
C1000 C 0.06222 0.19226 0.97342 0.0
H1001 H 0.04745 0.23072 0.89284 0.0
H1002 H 0.05802 0.21334 0.91401 0.0
H1003 H 0.02574 0.20728 0.96066 0.0
H1004 H 0.06069 0.16882 0.02679 0.0
H1005 H 0.05551 0.19124 0.00873 0.0
C1006 C 0.14752 0.82228 0.16723 0.0
C1007 C 0.12978 0.81612 0.171 0.0
C1008 C 0.16167 0.82647 0.18117 0.0
C1009 C 0.17179 0.80974 0.22185 0.0
H1010 H 0.21677 0.84592 0.22678 0.0
C1011 C 0.23355 0.80093 0.26321 0.0
C1012 C 0.24947 0.80417 0.25485 0.0
C1013 C 0.21883 0.80707 0.25709 0.0
C1014 C 0.20431 0.83568 0.22554 0.0
H1015 H 0.11284 0.81141 0.19267 0.0
H1016 H 0.13755 0.81861 0.21687 0.0
H1017 H 0.19081 0.84921 0.20808 0.0
H1018 H 0.26271 0.8172 0.23412 0.0
H1019 H 0.23695 0.82703 0.22289 0.0
H1020 H 0.18533 0.79545 0.23806 0.0
C1021 C 0.1405 0.81995 0.20312 0.0
C1022 C 0.18945 0.83766 0.21493 0.0
C1023 C 0.12637 0.81583 0.18923 0.0
C1024 C 0.25061 0.81432 0.24077 0.0
C1025 C 0.23584 0.82019 0.23447 0.0
C1026 C 0.18666 0.80763 0.23222 0.0
C1027 C 0.1583 0.82454 0.19908 0.0
C1028 C 0.17318 0.82445 0.21264 0.0
C1029 C 0.21963 0.81633 0.24229 0.0
C1030 C 0.20325 0.8203 0.23379 0.0
H1031 H 0.1506 0.82278 0.15336 0.0
H1032 H 0.17529 0.82991 0.17766 0.0
H1033 H 0.1595 0.79918 0.2201 0.0
H1034 H 0.23234 0.79341 0.2743 0.0
H1035 H 0.2067 0.80419 0.26371 0.0
C1036 C 0.49432 0.86149 0.41043 0.0
C1037 C 0.49354 0.84639 0.41896 0.0
C1038 C 0.4924 0.878 0.42031 0.0
C1039 C 0.50111 0.90188 0.4679 0.0
H1040 H 0.48883 0.94102 0.44673 0.0
C1041 C 0.53932 0.97509 0.49183 0.0
C1042 C 0.53017 0.98912 0.49411 0.0
C1043 C 0.53028 0.95735 0.48401 0.0
C1044 C 0.492 0.93016 0.45295 0.0
H1045 H 0.48817 0.83602 0.4438 0.0
H1046 H 0.48412 0.86459 0.46085 0.0
H1047 H 0.47885 0.90958 0.43004 0.0
H1048 H 0.50432 0.99555 0.48973 0.0
H1049 H 0.48844 0.96423 0.47574 0.0
H1050 H 0.51453 0.9224 0.49058 0.0
C1051 C 0.48694 0.86397 0.44678 0.0
C1052 C 0.48645 0.91219 0.44334 0.0
C1053 C 0.4892 0.84758 0.43701 0.0
C1054 C 0.51173 0.98501 0.48817 0.0
C1055 C 0.50265 0.96714 0.48016 0.0
C1056 C 0.50653 0.91974 0.47748 0.0
C1057 C 0.48939 0.87962 0.43883 0.0
C1058 C 0.4916 0.89794 0.45039 0.0
C1059 C 0.51185 0.95313 0.47822 0.0
C1060 C 0.50273 0.93413 0.46976 0.0
H1061 H 0.4976 0.86093 0.3965 0.0
H1062 H 0.49453 0.88976 0.41374 0.0
H1063 H 0.50549 0.89139 0.47377 0.0
H1064 H 0.55352 0.97773 0.4962 0.0
H1065 H 0.53781 0.94691 0.48231 0.0
C1066 C 0.52872 0.27181 0.68223 0.0
C1067 C 0.53595 0.28337 0.67048 0.0
C1068 C 0.51347 0.27401 0.6905 0.0
C1069 C 0.47473 0.29493 0.68884 0.0
H1070 H 0.47617 0.29032 0.73981 0.0
C1071 C 0.41222 0.28687 0.72832 0.0
C1072 C 0.41444 0.29454 0.74703 0.0
C1073 C 0.42704 0.28766 0.7184 0.0
C1074 C 0.47561 0.29192 0.72567 0.0
H1075 H 0.53247 0.30589 0.65761 0.0
H1076 H 0.50577 0.30992 0.67233 0.0
H1077 H 0.50176 0.28726 0.72331 0.0
H1078 H 0.43375 0.30993 0.76978 0.0
H1079 H 0.45963 0.31155 0.75241 0.0
H1080 H 0.44857 0.29982 0.69136 0.0
C1081 C 0.51189 0.29905 0.67501 0.0
C1082 C 0.49019 0.28988 0.71612 0.0
C1083 C 0.52718 0.29677 0.66661 0.0
C1084 C 0.43169 0.30364 0.75544 0.0
C1085 C 0.44649 0.30454 0.7455 0.0
C1086 C 0.46009 0.29701 0.69844 0.0
C1087 C 0.50512 0.28793 0.68736 0.0
C1088 C 0.48984 0.29108 0.69753 0.0
C1089 C 0.44439 0.29622 0.72695 0.0
C1090 C 0.46031 0.29534 0.71693 0.0
H1091 H 0.53503 0.2612 0.68532 0.0
H1092 H 0.50832 0.26491 0.69957 0.0
H1093 H 0.47404 0.29589 0.67452 0.0
H1094 H 0.39911 0.27959 0.72151 0.0
H1095 H 0.42495 0.2809 0.70421 0.0
C1096 C 0.01901 0.78456 0.58442 0.0
C1097 C 0.00888 0.78473 0.59937 0.0
C1098 C 0.02201 0.79922 0.57528 0.0
C1099 C 0.00747 0.84107 0.56911 0.0
H1100 H 0.05594 0.85582 0.55642 0.0
C1101 C 0.02866 0.89901 0.52862 0.0
C1102 C 0.04559 0.91094 0.53416 0.0
C1103 C 0.02358 0.8832 0.53588 0.0
C1104 C 0.04238 0.85199 0.55999 0.0
H1105 H 0.99336 0.80005 0.61608 0.0
H1106 H 0.99895 0.82597 0.60035 0.0
H1107 H 0.04764 0.82918 0.57041 0.0
H1108 H 0.0704 0.91578 0.55177 0.0
H1109 H 0.06152 0.88829 0.56455 0.0
H1110 H 1.00246 0.86436 0.55924 0.0
C1111 C 1.00436 0.81436 0.59552 0.0
C1112 C 0.03753 0.83653 0.56778 0.0
C1113 C 1.0012 0.79955 0.60457 0.0
C1114 C 0.05738 0.90669 0.54702 0.0
C1115 C 0.05227 0.89093 0.55434 0.0
C1116 C 0.01236 0.85662 0.56136 0.0
C1117 C 0.01514 0.81452 0.58101 0.0
C1118 C 0.02002 0.83086 0.57244 0.0
C1119 C 0.0353 0.879 0.54888 0.0
C1120 C 0.0299 0.86229 0.55677 0.0
H1121 H 0.02491 0.77321 0.57992 0.0
H1122 H 0.02997 0.79866 0.56387 0.0
H1123 H 0.99384 0.83701 0.5724 0.0
H1124 H 0.01937 0.90185 0.51858 0.0
H1125 H 0.01053 0.87416 0.53116 0.0
C1126 C 0.5237 0.76405 0.82374 0.0
C1127 C 0.53486 0.78172 0.82819 0.0
C1128 C 0.51116 0.7591 0.80819 0.0
C1129 C 0.4967 0.77578 0.7664 0.0
H1130 H 0.44903 0.75416 0.77726 0.0
C1131 C 0.43389 0.79959 0.74994 0.0
C1132 C 0.41715 0.78701 0.74631 0.0
C1133 C 0.44959 0.79362 0.75234 0.0
C1134 C 0.46228 0.75976 0.77371 0.0
H1135 H 0.54219 0.80776 0.81942 0.0
H1136 H 0.52022 0.79944 0.79298 0.0
H1137 H 0.47491 0.75298 0.79703 0.0
H1138 H 0.40404 0.75816 0.73992 0.0
H1139 H 0.43149 0.74784 0.74496 0.0
H1140 H 0.48376 0.78411 0.74408 0.0
C1141 C 0.52125 0.78916 0.80106 0.0
C1142 C 0.47717 0.75907 0.78506 0.0
C1143 C 0.53374 0.79404 0.81646 0.0
C1144 C 0.41667 0.76824 0.74327 0.0
C1145 C 0.43237 0.76229 0.74598 0.0
C1146 C 0.48178 0.77673 0.75523 0.0
C1147 C 0.50956 0.77174 0.79686 0.0
C1148 C 0.49451 0.76795 0.78212 0.0
C1149 C 0.44884 0.77499 0.75135 0.0
C1150 C 0.46443 0.76948 0.75933 0.0
H1151 H 0.52438 0.7542 0.83245 0.0
H1152 H 0.50246 0.74551 0.80526 0.0
H1153 H 0.50991 0.78228 0.76343 0.0
H1154 H 0.43482 0.81412 0.75248 0.0
H1155 H 0.46212 0.80372 0.75662 0.0
C1156 C 0.49522 0.18922 0.12549 0.0
C1157 C 0.50276 0.20621 0.12106 0.0
C1158 C 0.49694 0.17313 0.11456 0.0
C1159 C 0.52721 0.15746 0.08293 0.0
H1160 H 0.49182 0.11142 0.07547 0.0
C1161 C 0.53894 0.09092 0.04192 0.0
C1162 C 0.53402 0.07529 0.0497 0.0
C1163 C 0.53407 0.10696 0.04915 0.0
C1164 C 0.50186 0.12418 0.07754 0.0
H1165 H 0.51677 0.21958 0.10095 0.0
H1166 H 0.51943 0.19152 0.08174 0.0
H1167 H 0.4841 0.13931 0.08994 0.0
H1168 H 0.5202 0.06428 0.07123 0.0
H1169 H 0.51189 0.0923 0.08391 0.0
H1170 H 0.54503 0.14232 0.07076 0.0
C1171 C 0.51264 0.19064 0.09391 0.0
C1172 C 0.49744 0.14014 0.0858 0.0
C1173 C 0.51103 0.20671 0.10488 0.0
C1174 C 0.52423 0.07608 0.06491 0.0
C1175 C 0.51931 0.09208 0.07209 0.0
C1176 C 0.53161 0.14153 0.07463 0.0
C1177 C 0.50612 0.17371 0.09894 0.0
C1178 C 0.51014 0.15693 0.08879 0.0
C1179 C 0.52413 0.10766 0.06425 0.0
C1180 C 0.51906 0.12469 0.07207 0.0
H1181 H 0.48876 0.18836 0.13786 0.0
H1182 H 0.49186 0.16032 0.11889 0.0
H1183 H 0.53744 0.1701 0.08532 0.0
H1184 H 0.54641 0.09074 0.03013 0.0
H1185 H 0.53786 0.11873 0.04275 0.0
C1186 C 0.12267 0.30241 0.35815 0.0
C1187 C 0.11381 0.28388 0.35296 0.0
C1188 C 0.13827 0.30944 0.35049 0.0
C1189 C 0.16169 0.3003 0.30996 0.0
H1190 H 0.20586 0.32426 0.34099 0.0
C1191 C 0.23004 0.29431 0.28927 0.0
C1192 C 0.24506 0.30901 0.29449 0.0
C1193 C 0.21339 0.29564 0.2948 0.0
C1194 C 0.19357 0.31801 0.33209 0.0
H1195 H 0.11438 0.25823 0.33575 0.0
H1196 H 0.1413 0.27048 0.32243 0.0
H1197 H 0.17749 0.31843 0.35448 0.0
H1198 H 0.25431 0.3369 0.30912 0.0
H1199 H 0.22501 0.33919 0.319 0.0
H1200 H 0.17772 0.29917 0.28769 0.0
C1201 C 0.13621 0.2796 0.3323 0.0
C1202 C 0.17736 0.31464 0.33982 0.0
C1203 C 0.12086 0.27256 0.34007 0.0
C1204 C 0.24294 0.32537 0.30482 0.0
C1205 C 0.22623 0.32665 0.31057 0.0
C1206 C 0.17782 0.30371 0.30224 0.0
C1207 C 0.14501 0.2981 0.33731 0.0
C1208 C 0.16142 0.30507 0.32891 0.0
C1209 C 0.21134 0.31168 0.3058 0.0
C1210 C 0.19402 0.31189 0.31332 0.0
H1211 H 0.11753 0.31145 0.36806 0.0
H1212 H 0.14489 0.32375 0.35462 0.0
H1213 H 0.14952 0.29319 0.3012 0.0
H1214 H 0.23122 0.28155 0.28124 0.0
H1215 H 0.20227 0.28377 0.2911 0.0
C1216 C 0.948 0.05634 0.20855 0.0
C1217 C 0.95658 0.05474 0.22541 0.0
C1218 C 0.95639 0.05508 0.19207 0.0
C1219 C 1.00181 0.05632 0.1729 0.0
H1220 H 0.97246 0.03634 0.12673 0.0
C1221 C 0.03266 0.05683 0.10144 0.0
C1222 C 0.02519 0.04278 0.08621 0.0
C1223 C 0.02475 0.05829 0.11825 0.0
C1224 C 0.9811 0.0419 0.13938 0.0
H1225 H 0.9815 0.05057 0.23714 0.0
H1226 H 0.99604 0.04862 0.20889 0.0
H1227 H 0.9585 0.03868 0.15513 0.0
H1228 H 1.00288 0.01925 0.07769 0.0
H1229 H 0.98931 0.02175 0.10639 0.0
H1230 H 0.02442 0.05946 0.15709 0.0
C1231 C 0.98266 0.05094 0.20833 0.0
C1232 C 0.97291 0.04346 0.15597 0.0
C1233 C 0.97418 0.05202 0.2248 0.0
C1234 C 0.00935 0.03031 0.08877 0.0
C1235 C 1.00135 0.03187 0.10548 0.0
C1236 C 0.00998 0.05494 0.15626 0.0
C1237 C 0.97398 0.05228 0.19139 0.0
C1238 C 0.98299 0.05068 0.17329 0.0
C1239 C 0.00877 0.04591 0.12077 0.0
C1240 C 0.9999 0.04762 0.13895 0.0
H1241 H 0.93451 0.05838 0.20796 0.0
H1242 H 0.94897 0.0565 0.17979 0.0
H1243 H 0.0104 0.06212 0.18554 0.0
H1244 H 0.04471 0.06689 0.1004 0.0
H1245 H 0.03111 0.06949 0.12922 0.0
C1246 C 0.31713 0.65163 0.47632 0.0
C1247 C 0.30514 0.65319 0.48956 0.0
C1248 C 0.31687 0.66087 0.46161 0.0
C1249 C 0.30048 0.69914 0.44726 0.0
H1250 H 0.30291 0.67475 0.39794 0.0
C1251 C 0.27366 0.72299 0.3847 0.0
C1252 C 0.28485 0.72531 0.37072 0.0
C1253 C 0.27792 0.71422 0.39873 0.0
C1254 C 0.30241 0.68178 0.41167 0.0
H1255 H 0.2834 0.66559 0.49765 0.0
H1256 H 0.28276 0.68125 0.47218 0.0
H1257 H 0.30766 0.65968 0.4237 0.0
H1258 H 0.30912 0.71964 0.36038 0.0
H1259 H 0.31625 0.70382 0.38477 0.0
H1260 H 0.29462 0.72092 0.43524 0.0
C1261 C 0.29265 0.67329 0.47321 0.0
C1262 C 0.30519 0.6732 0.42643 0.0
C1263 C 0.29294 0.66416 0.48781 0.0
C1264 C 0.30009 0.71797 0.37081 0.0
C1265 C 0.30424 0.70898 0.3848 0.0
C1266 C 0.29754 0.70759 0.43256 0.0
C1267 C 0.30462 0.67186 0.45994 0.0
C1268 C 0.30384 0.68163 0.44437 0.0
C1269 C 0.29335 0.70732 0.39907 0.0
C1270 C 0.2981 0.69885 0.4146 0.0
H1271 H 0.32667 0.64327 0.47728 0.0
H1272 H 0.32633 0.65955 0.45167 0.0
H1273 H 0.29981 0.70626 0.46091 0.0
H1274 H 0.26157 0.728 0.38486 0.0
H1275 H 0.26908 0.71281 0.40937 0.0
C1276 C 0.61881 0.9992 0.6883 0.0
C1277 C 0.63688 0.99845 0.69076 0.0
C1278 C 0.60875 0.99222 0.67135 0.0
C1279 C 0.61864 0.98916 0.62457 0.0
H1280 H 0.56687 0.97532 0.61426 0.0
C1281 C 0.5859 1.00203 0.55902 0.0
C1282 C 0.57177 0.01074 0.56151 0.0
C1283 C 0.59163 0.99328 0.57243 0.0
C1284 C 0.58135 0.97915 0.61691 0.0
H1285 H 0.65778 0.98752 0.67819 0.0
H1286 H 0.64011 0.97515 0.64864 0.0
H1287 H 0.58094 0.97126 0.64312 0.0
H1288 H 0.55189 0.01631 0.57944 0.0
H1289 H 0.56238 1.00177 0.60329 0.0
H1290 H 0.6192 0.99819 0.59915 0.0
C1291 C 0.63389 0.98158 0.65968 0.0
C1292 C 0.5894 0.97674 0.63338 0.0
C1293 C 0.644 0.98864 0.67663 0.0
C1294 C 0.56287 0.00976 0.57723 0.0
C1295 C 0.56879 1.00126 0.59081 0.0
C1296 C 0.61063 0.99163 0.60822 0.0
C1297 C 0.61655 0.98429 0.65657 0.0
C1298 C 0.60811 0.98237 0.63767 0.0
C1299 C 0.58356 0.99334 0.58878 0.0
C1300 C 0.59186 0.9873 0.60446 0.0
H1301 H 0.61282 1.00644 0.699 0.0
H1302 H 0.59544 0.99457 0.66945 0.0
H1303 H 0.63306 0.99395 0.62751 0.0
H1304 H 0.5927 1.00216 0.5468 0.0
H1305 H 0.60275 0.98695 0.57022 0.0
C1306 C 0.2961 0.35585 0.97979 0.0
C1307 C 0.30635 0.34856 0.99158 0.0
C1308 C 0.29408 0.34947 0.96085 0.0
C1309 C 0.31673 0.32671 0.92498 0.0
H1310 H 0.27216 0.31983 0.89435 0.0
C1311 C 0.30904 0.29482 0.84831 0.0
C1312 C 0.29922 0.30203 0.83604 0.0
C1313 C 0.30914 0.30006 0.8672 0.0
C1314 C 0.28478 0.32188 0.90266 0.0
H1315 H 0.32196 0.32834 0.99268 0.0
H1316 H 0.31831 0.31718 0.95983 0.0
H1317 H 0.27337 0.32954 0.92737 0.0
H1318 H 0.28167 0.32038 0.83419 0.0
H1319 H 0.2821 0.32975 0.86711 0.0
H1320 H 0.32826 0.31933 0.9004 0.0
C1321 C 0.31206 0.32802 0.96515 0.0
C1322 C 0.28545 0.32742 0.92162 0.0
C1323 C 0.31403 0.33434 0.98404 0.0
C1324 C 0.28937 0.31452 0.8432 0.0
C1325 C 0.28953 0.31981 0.86212 0.0
C1326 C 0.31608 0.32125 0.90607 0.0
C1327 C 0.30233 0.33571 0.95326 0.0
C1328 C 0.30143 0.32982 0.93304 0.0
C1329 C 0.29949 0.31273 0.8744 0.0
C1330 C 0.30009 0.31868 0.89461 0.0
H1331 H 0.29004 0.36684 0.98513 0.0
H1332 H 0.28657 0.35578 0.95211 0.0
H1333 H 0.32937 0.32878 0.93329 0.0
H1334 H 0.31668 0.28508 0.84334 0.0
H1335 H 0.31671 0.29403 0.87616 0.0
C1336 C 0.98629 0.039 0.33428 0.0
C1337 C 0.97104 0.04624 0.33215 0.0
C1338 C 0.99428 0.03829 0.35182 0.0
C1339 C 0.98472 0.03572 0.40005 0.0
H1340 H 0.03601 0.05259 0.41347 0.0
C1341 C 0.02241 0.02115 0.46635 0.0
C1342 C 0.03475 0.03598 0.47774 0.0
C1343 C 0.01465 0.02263 0.449 0.0
C1344 C 0.02164 0.04776 0.41005 0.0
H1345 H 0.95234 0.05808 0.34765 0.0
H1346 H 0.96568 0.0561 0.37787 0.0
H1347 H 0.02287 0.05443 0.38309 0.0
H1348 H 0.04856 0.0641 0.47883 0.0
H1349 H 0.0358 0.06639 0.44844 0.0
H1350 H 0.98356 0.02844 0.42675 0.0
C1351 C 0.97173 0.05128 0.36592 0.0
C1352 C 0.01405 0.04876 0.39244 0.0
C1353 C 0.96408 0.05252 0.34843 0.0
C1354 C 0.03916 0.0523 0.47075 0.0
C1355 C 0.03182 0.0536 0.45313 0.0
C1356 C 0.99238 0.0342 0.41744 0.0
C1357 C 0.98709 0.04421 0.36808 0.0
C1358 C 0.99537 0.04289 0.38703 0.0
C1359 C 0.01925 0.03884 0.44187 0.0
C1360 C 0.01102 0.04031 0.42295 0.0
H1361 H 0.99217 0.03392 0.32231 0.0
H1362 H 1.00597 0.03266 0.35261 0.0
H1363 H 0.97035 0.03094 0.39666 0.0
H1364 H 0.01848 0.00832 0.47099 0.0
H1365 H 1.00517 0.01085 0.44097 0.0
C1366 C 0.30984 0.66966 0.58595 0.0
C1367 C 0.31314 0.65254 0.58732 0.0
C1368 C 0.30802 0.68184 0.60147 0.0
C1369 C 0.3188 0.69415 0.65135 0.0
H1370 H 0.28027 0.71915 0.64873 0.0
C1371 C 0.31667 0.75651 0.70526 0.0
C1372 C 0.30033 0.75707 0.71251 0.0
C1373 C 0.31743 0.74358 0.68994 0.0
C1374 C 0.29101 0.7122 0.64973 0.0
H1375 H 0.31764 0.63517 0.60641 0.0
H1376 H 0.31474 0.65669 0.63367 0.0
H1377 H 0.2835 0.6966 0.62259 0.0
H1378 H 0.27179 0.74478 0.70866 0.0
H1379 H 0.27308 0.72226 0.68151 0.0
H1380 H 0.3264 0.70984 0.67843 0.0
C1381 C 0.31348 0.66055 0.62043 0.0
C1382 C 0.29297 0.69939 0.6347 0.0
C1383 C 0.31517 0.64822 0.60481 0.0
C1384 C 0.28458 0.74482 0.70342 0.0
C1385 C 0.28533 0.73188 0.68791 0.0
C1386 C 0.31695 0.70709 0.66631 0.0
C1387 C 0.30956 0.67738 0.61889 0.0
C1388 C 0.30699 0.69033 0.63526 0.0
C1389 C 0.30186 0.73084 0.68127 0.0
C1390 C 0.30315 0.71642 0.66562 0.0
H1391 H 0.30824 0.67358 0.57278 0.0
H1392 H 0.30536 0.69481 0.5998 0.0
H1393 H 0.32976 0.68749 0.65223 0.0
H1394 H 0.32911 0.76576 0.71175 0.0
H1395 H 0.33031 0.74344 0.68497 0.0
C1396 C 0.63254 0.05703 0.79085 0.0
C1397 C 0.64736 0.04987 0.78657 0.0
C1398 C 0.62902 0.06112 0.80892 0.0
C1399 C 0.6367 0.04927 0.85376 0.0
H1400 H 0.61649 0.09066 0.86954 0.0
C1401 C 0.60826 0.06033 0.92314 0.0
C1402 C 0.59048 0.06221 0.92138 0.0
C1403 C 0.61885 0.06218 0.90877 0.0
C1404 C 0.62222 0.07912 0.86536 0.0
H1405 H 0.67022 0.04151 0.7979 0.0
H1406 H 0.66405 0.04873 0.82965 0.0
H1407 H 0.62859 0.08731 0.84013 0.0
H1408 H 0.57012 0.06803 0.90325 0.0
H1409 H 0.58865 0.07158 0.87847 0.0
H1410 H 0.62983 0.04083 0.87879 0.0
C1411 C 0.65511 0.05104 0.81894 0.0
C1412 C 0.62908 0.07715 0.84851 0.0
C1413 C 0.65864 0.04692 0.80078 0.0
C1414 C 0.58383 0.06679 0.90525 0.0
C1415 C 0.59445 0.06881 0.891 0.0
C1416 C 0.62992 0.0513 0.87067 0.0
C1417 C 0.64026 0.05821 0.82318 0.0
C1418 C 0.63579 0.06186 0.84225 0.0
C1419 C 0.61192 0.06615 0.89246 0.0
C1420 C 0.62206 0.06591 0.87632 0.0
H1421 H 0.62356 0.05943 0.78023 0.0
H1422 H 0.61725 0.06623 0.81168 0.0
H1423 H 0.64168 0.03728 0.84928 0.0
H1424 H 0.61392 0.05715 0.93552 0.0
H1425 H 0.63234 0.06022 0.91029 0.0
C1426 C 0.30287 0.37544 0.11185 0.0
C1427 C 0.30269 0.36354 0.09527 0.0
C1428 C 0.3001 0.36881 0.12801 0.0
C1429 C 0.30042 0.32798 0.14911 0.0
H1430 H 0.27824 0.35404 0.18665 0.0
C1431 C 0.284 0.30331 0.21707 0.0
C1432 C 0.29043 0.31653 0.23301 0.0
C1433 C 0.28417 0.30821 0.19981 0.0
C1434 C 0.2845 0.34665 0.17631 0.0
H1435 H 0.29912 0.33517 0.08273 0.0
H1436 H 0.29361 0.32345 0.11084 0.0
H1437 H 0.28035 0.36357 0.15721 0.0
H1438 H 0.30165 0.34535 0.24327 0.0
H1439 H 0.3015 0.35393 0.2132 0.0
H1440 H 0.30414 0.31082 0.1683 0.0
C1441 C 0.29638 0.33803 0.11145 0.0
C1442 C 0.28583 0.35216 0.15942 0.0
C1443 C 0.29941 0.34473 0.09526 0.0
C1444 C 0.29661 0.33482 0.23129 0.0
C1445 C 0.29647 0.33976 0.21407 0.0
C1446 C 0.29881 0.32228 0.16594 0.0
C1447 C 0.29676 0.35 0.12811 0.0
C1448 C 0.29412 0.34314 0.14564 0.0
C1449 C 0.29045 0.32649 0.19812 0.0
C1450 C 0.29109 0.33174 0.17982 0.0
H1451 H 0.30555 0.39004 0.11248 0.0
H1452 H 0.30098 0.37858 0.14051 0.0
H1453 H 0.3071 0.32079 0.13905 0.0
H1454 H 0.27924 0.28908 0.21789 0.0
H1455 H 0.27936 0.29771 0.18777 0.0
C1456 C 0.22654 0.98934 0.04601 0.0
C1457 C 0.23129 0.98185 0.02902 0.0
C1458 C 0.21015 0.99445 0.04737 0.0
C1459 C 0.1742 1.00781 0.02111 0.0
H1460 H 0.14539 0.99417 0.05947 0.0
C1461 C 0.11216 0.03699 0.03805 0.0
C1462 C 0.09636 0.02457 0.04045 0.0
C1463 C 0.12849 0.03173 0.0369 0.0
C1464 C 0.15322 0.99806 0.04864 0.0
H1465 H 0.22237 0.97421 1.00005 0.0
H1466 H 0.19401 0.98358 1.00236 0.0
H1467 H 0.17392 0.9853 0.05672 0.0
H1468 H 0.08574 0.99678 0.04386 0.0
H1469 H 0.11433 0.98779 0.04238 0.0
H1470 H 0.15362 0.02077 0.01317 0.0
C1471 C 0.20297 0.98538 0.01469 0.0
C1472 C 0.16968 0.99308 0.04714 0.0
C1473 C 0.21926 0.97996 0.01336 0.0
C1474 C 0.09757 1.00681 0.04213 0.0
C1475 C 0.11401 1.00163 0.04128 0.0
C1476 C 0.15789 0.01307 0.02281 0.0
C1477 C 0.19806 0.99253 0.03175 0.0
C1478 C 0.18043 0.99784 0.03332 0.0
C1479 C 0.12968 0.01394 0.03837 0.0
C1480 C 0.14712 0.00826 0.03659 0.0
H1481 H 0.23536 0.99095 0.05841 0.0
H1482 H 0.20698 1.00006 0.06072 0.0
H1483 H 0.18209 0.01183 0.01036 0.0
H1484 H 0.11187 0.05074 0.03655 0.0
H1485 H 0.14025 0.04167 0.03485 0.0
C1486 C 0.72994 0.66078 1.00417 0.0
C1487 C 0.74546 0.65493 0.00876 0.0
C1488 C 0.71292 0.64917 1.00319 0.0
C1489 C 0.6889 0.60083 0.99922 0.0
H1490 H 0.6533 0.62126 0.02412 0.0
C1491 C 0.62416 0.5557 0.01744 0.0
C1492 C 0.60835 0.56201 0.01685 0.0
C1493 C 0.64049 0.56681 0.01475 0.0
C1494 C 0.66294 0.61535 0.01682 0.0
H1495 H 0.75518 0.63197 0.01523 0.0
H1496 H 0.72552 0.61176 0.01346 0.0
H1497 H 0.68238 0.6409 0.02199 0.0
H1498 H 0.59728 0.58481 0.01245 0.0
H1499 H 0.62563 0.60401 1.00738 0.0
H1500 H 0.66949 0.57527 0.99408 0.0
C1501 C 0.72652 0.62532 0.01058 0.0
C1502 C 0.67965 0.62664 0.01563 0.0
C1503 C 0.74354 0.63696 0.01168 0.0
C1504 C 0.6092 0.57955 0.01312 0.0
C1505 C 0.62551 0.59061 0.01032 0.0
C1506 C 0.67214 0.58955 1.00032 0.0
C1507 C 0.711 0.63139 1.00664 0.0
C1508 C 0.69289 0.6195 1.00696 0.0
C1509 C 0.64142 0.58447 0.01129 0.0
C1510 C 0.65898 0.59662 0.00929 0.0
H1511 H 0.73088 0.6745 1.0018 0.0
H1512 H 0.70123 0.65418 0.99988 0.0
H1513 H 0.69873 0.59495 0.99224 0.0
H1514 H 0.62404 0.5423 0.02036 0.0
H1515 H 0.65246 0.56168 0.01586 0.0
C1516 C 0.72877 0.46178 0.25516 0.0
C1517 C 0.71739 0.46666 0.26835 0.0
C1518 C 0.73592 0.44594 0.25451 0.0
C1519 C 0.73223 0.4012 0.27425 0.0
H1520 H 0.77444 0.39815 0.24976 0.0
C1521 C 0.75982 0.33294 0.26594 0.0
C1522 C 0.77791 0.33324 0.26293 0.0
C1523 C 0.75254 0.34871 0.26652 0.0
C1524 C 0.76271 0.39847 0.25688 0.0
H1525 H 0.70508 0.45743 0.29137 0.0
H1526 H 0.71739 0.43051 0.29048 0.0
H1527 H 0.76257 0.42516 0.25126 0.0
H1528 H 0.80215 0.35176 0.25832 0.0
H1529 H 0.78989 0.37865 0.25943 0.0
H1530 H 0.73259 0.37465 0.28018 0.0
C1531 C 0.72079 0.43876 0.28024 0.0
C1532 C 0.75556 0.41431 0.25756 0.0
C1533 C 0.71365 0.45462 0.28087 0.0
C1534 C 0.78819 0.35037 0.26053 0.0
C1535 C 0.78093 0.36613 0.2611 0.0
C1536 C 0.73937 0.38534 0.27355 0.0
C1537 C 0.73221 0.43378 0.26702 0.0
C1538 C 0.74004 0.41633 0.26628 0.0
C1539 C 0.76282 0.36595 0.26414 0.0
C1540 C 0.7549 0.38334 0.26485 0.0
H1541 H 0.73218 0.47025 0.24507 0.0
H1542 H 0.74425 0.44318 0.2438 0.0
H1543 H 0.72027 0.40136 0.28102 0.0
H1544 H 0.75111 0.32038 0.26794 0.0
H1545 H 0.73857 0.34715 0.26868 0.0
C1546 C 0.84399 0.46223 0.51419 0.0
C1547 C 0.83295 0.47464 0.51408 0.0
C1548 C 0.86264 0.46801 0.51525 0.0
C1549 C 0.89939 0.50277 0.50476 0.0
H1550 H 0.92838 0.48367 0.53754 0.0
C1551 C 0.97761 0.52104 0.5093 0.0
C1552 C 0.98676 0.5078 0.51295 0.0
C1553 C 0.95904 0.5183 0.51019 0.0
C1554 C 0.92059 0.48895 0.52806 0.0
H1555 H 0.83319 0.50309 0.51503 0.0
H1556 H 0.86614 0.51327 0.51644 0.0
H1557 H 0.89601 0.47719 0.53803 0.0
H1558 H 0.98325 0.4811 0.52018 0.0
H1559 H 0.95097 0.47601 0.52111 0.0
H1560 H 0.92384 0.51396 0.49426 0.0
C1561 C 0.86009 0.49897 0.51583 0.0
C1562 C 0.90195 0.48534 0.52848 0.0
C1563 C 0.84124 0.49317 0.51512 0.0
C1564 C 0.97674 0.49166 0.51735 0.0
C1565 C 0.95814 0.48882 0.51805 0.0
C1566 C 0.91808 0.50621 0.50416 0.0
C1567 C 0.87101 0.48641 0.51599 0.0
C1568 C 0.89104 0.49199 0.5167 0.0
C1569 C 0.94894 0.50214 0.51461 0.0
C1570 C 0.929 0.49916 0.51566 0.0
H1571 H 0.83822 0.44786 0.51353 0.0
H1572 H 0.87052 0.45792 0.51514 0.0
H1573 H 0.8914 0.50795 0.49536 0.0
H1574 H 0.98484 0.53374 0.50604 0.0
H1575 H 0.95269 0.52907 0.50773 0.0
C1576 C 0.3468 0.06347 0.28654 0.0
C1577 C 0.36231 0.06619 0.2987 0.0
C1578 C 0.33855 0.07773 0.28524 0.0
C1579 C 0.34862 0.12768 0.29317 0.0
H1580 H 0.29702 0.11941 0.28335 0.0
C1581 C 0.31604 0.17902 0.26416 0.0
C1582 C 0.30032 0.18232 0.27109 0.0
C1583 C 0.32313 0.16489 0.26871 0.0
C1584 C 0.31144 0.12201 0.28628 0.0
H1585 H 0.38099 0.08584 0.31952 0.0
H1586 H 0.3664 0.11079 0.31741 0.0
H1587 H 0.30999 0.09487 0.29067 0.0
H1588 H 0.27967 0.17345 0.28818 0.0
H1589 H 0.29212 0.1488 0.29622 0.0
H1590 H 0.35007 0.15488 0.289 0.0
C1591 C 0.3608 0.09765 0.30868 0.0
C1592 C 0.31888 0.10789 0.29029 0.0
C1593 C 0.36909 0.08335 0.30996 0.0
C1594 C 0.29168 0.17105 0.28244 0.0
C1595 C 0.29882 0.15696 0.28706 0.0
C1596 C 0.34118 0.14181 0.28922 0.0
C1597 C 0.34558 0.09505 0.29611 0.0
C1598 C 0.33757 0.11049 0.29352 0.0
C1599 C 0.31471 0.15381 0.28036 0.0
C1600 C 0.32252 0.13906 0.28546 0.0
H1601 H 0.34123 0.05041 0.27765 0.0
H1602 H 0.32702 0.07531 0.27523 0.0
H1603 H 0.36308 0.13009 0.29541 0.0
H1604 H 0.32285 0.18736 0.25519 0.0
H1605 H 0.33518 0.16259 0.263 0.0
C1606 C 0.35147 0.1565 0.5083 0.0
C1607 C 0.33661 0.15118 0.51782 0.0
C1608 C 0.36564 0.14774 0.50857 0.0
C1609 C 0.38569 0.11971 0.53617 0.0
H1610 H 0.41084 0.10887 0.49396 0.0
C1611 C 0.43489 0.07335 0.53561 0.0
C1612 C 0.45151 0.07933 0.52914 0.0
C1613 C 0.42097 0.08198 0.53305 0.0
C1614 C 0.40402 0.11195 0.5059 0.0
H1615 H 0.32465 0.13197 0.53439 0.0
H1616 H 0.34896 0.11654 0.53451 0.0
H1617 H 0.38634 0.12428 0.49159 0.0
H1618 H 0.46631 0.09888 0.51443 0.0
H1619 H 0.44187 0.11384 0.50977 0.0
H1620 H 0.40318 0.10729 0.55045 0.0
C1621 C 0.35001 0.12779 0.52727 0.0
C1622 C 0.39001 0.12081 0.50455 0.0
C1623 C 0.33598 0.13658 0.52709 0.0
C1624 C 0.45364 0.0938 0.51945 0.0
C1625 C 0.43965 0.1024 0.5168 0.0
C1626 C 0.39956 0.1108 0.53747 0.0
C1627 C 0.36519 0.13343 0.51831 0.0
C1628 C 0.38055 0.12463 0.51965 0.0
C1629 C 0.42327 0.09678 0.52386 0.0
C1630 C 0.40879 0.10666 0.52233 0.0
H1631 H 0.35235 0.16772 0.50104 0.0
H1632 H 0.37716 0.1525 0.5016 0.0
H1633 H 0.37906 0.12284 0.54822 0.0
H1634 H 0.43261 0.062 0.54276 0.0
H1635 H 0.40839 0.07708 0.53832 0.0
C1636 C 0.7075 0.5893 0.2966 0.0
C1637 C 0.71373 0.57445 0.28755 0.0
C1638 C 0.7159 0.60773 0.29632 0.0
C1639 C 0.7582 0.63926 0.28464 0.0
H1640 H 0.72852 0.67413 0.28791 0.0
C1641 C 0.78977 0.71892 0.29121 0.0
C1642 C 0.77965 0.73015 0.2843 0.0
C1643 C 0.78221 0.7002 0.29149 0.0
C1644 C 0.73721 0.66477 0.28682 0.0
H1645 H 0.73453 0.5685 0.27107 0.0
H1646 H 0.74919 0.60039 0.27062 0.0
H1647 H 0.71522 0.6423 0.28821 0.0
H1648 H 0.75307 0.7294 0.27217 0.0
H1649 H 0.7401 0.69735 0.27255 0.0
H1650 H 0.78015 0.6618 0.28294 0.0
C1651 C 0.73768 0.59775 0.27819 0.0
C1652 C 0.72948 0.64617 0.28726 0.0
C1653 C 0.72918 0.57919 0.27844 0.0
C1654 C 0.76154 0.72162 0.27771 0.0
C1655 C 0.75397 0.70295 0.27805 0.0
C1656 C 0.76597 0.65793 0.28429 0.0
C1657 C 0.73112 0.61259 0.28693 0.0
C1658 C 0.73971 0.63281 0.28623 0.0
C1659 C 0.76405 0.69163 0.28495 0.0
C1660 C 0.75571 0.67128 0.28536 0.0
H1661 H 0.69575 0.58673 0.30386 0.0
H1662 H 0.71033 0.61824 0.30368 0.0
H1663 H 0.7669 0.62991 0.28391 0.0
H1664 H 0.80371 0.7246 0.29646 0.0
H1665 H 0.79071 0.69254 0.29717 0.0
C1666 C 0.87449 0.48525 0.80644 0.0
C1667 C 0.89293 0.49139 0.81226 0.0
C1668 C 0.86554 0.46738 0.80673 0.0
C1669 C 0.85674 0.42687 0.79287 0.0
H1670 H 0.8626 0.39868 0.83046 0.0
C1671 C 0.83916 0.34912 0.777 0.0
C1672 C 0.82779 0.3404 0.78843 0.0
C1673 C 0.84733 0.36765 0.78194 0.0
C1674 C 0.86081 0.40646 0.81992 0.0
H1675 H 0.91611 0.48405 0.82432 0.0
H1676 H 0.90042 0.45271 0.82468 0.0
H1677 H 0.87538 0.43173 0.8367 0.0
H1678 H 0.81676 0.34405 0.81443 0.0
H1679 H 0.8312 0.37652 0.82308 0.0
H1680 H 0.84243 0.40174 0.776 0.0
C1681 C 0.89293 0.46177 0.81993 0.0
C1682 C 0.86815 0.42528 0.82345 0.0
C1683 C 0.90192 0.47969 0.81963 0.0
C1684 C 0.82538 0.35042 0.80528 0.0
C1685 C 0.83369 0.36896 0.81029 0.0
C1686 C 0.8496 0.40813 0.78931 0.0
C1687 C 0.87483 0.4553 0.81286 0.0
C1688 C 0.86621 0.43562 0.80991 0.0
C1689 C 0.8444 0.37779 0.79846 0.0
C1690 C 0.8517 0.39772 0.80271 0.0
H1691 H 0.86709 0.49399 0.80092 0.0
H1692 H 0.85149 0.4628 0.80151 0.0
H1693 H 0.85525 0.43445 0.78209 0.0
H1694 H 0.84136 0.34181 0.76395 0.0
H1695 H 0.85573 0.37413 0.7727 0.0
C1696 C 0.09502 0.82223 0.0686 0.0
C1697 C 0.08391 0.81673 0.08182 0.0
C1698 C 0.08921 0.83133 0.05552 0.0
C1699 C 0.04887 0.84138 0.03379 0.0
H1700 H 0.08163 0.88632 0.02887 0.0
C1701 C 0.0258 0.90219 0.01429 0.0
C1702 C 0.03693 0.91435 1.00536 0.0
C1703 C 0.03104 0.88697 0.01856 0.0
C1704 C 0.07243 0.87359 0.02966 0.0
H1705 H 0.05783 0.81602 0.09141 0.0
H1706 H 0.04773 0.83205 0.06866 0.0
H1707 H 0.09194 0.86595 0.04651 0.0
H1708 H 0.06156 0.9192 0.99253 0.0
H1709 H 0.07072 0.89246 0.99997 0.0
H1710 H 0.02919 0.84933 0.01738 0.0
C1711 C 0.06087 0.82917 0.06831 0.0
C1712 C 0.07834 0.86194 0.03985 0.0
C1713 C 0.06672 0.82014 0.08144 0.0
C1714 C 0.05284 0.91023 0.99967 0.0
C1715 C 0.05808 0.89494 1.00394 0.0
C1716 C 0.04297 0.853 0.02351 0.0
C1717 C 0.07213 0.83502 0.05533 0.0
C1718 C 0.06648 0.84599 0.04247 0.0
C1719 C 0.04753 0.88351 0.01401 0.0
C1720 C 0.05453 0.86952 0.02181 0.0
H1721 H 0.10832 0.81971 0.06846 0.0
H1722 H 0.09811 0.83556 0.0456 0.0
H1723 H 0.03953 0.82899 0.03532 0.0
H1724 H 0.0136 0.90507 0.01913 0.0
H1725 H 0.02269 0.87863 0.02654 0.0
C1726 C 0.97048 0.25087 0.82078 0.0
C1727 C 0.96938 0.25348 0.83972 0.0
C1728 C 0.95487 0.24617 0.80854 0.0
C1729 C 0.90544 0.22961 0.80511 0.0
H1730 H 0.90453 0.26495 0.77369 0.0
C1731 C 0.84475 0.2576 0.79152 0.0
C1732 C 0.84089 0.26245 0.77465 0.0
C1733 C 0.8597 0.25071 0.79471 0.0
C1734 C 0.9046 0.25462 0.78196 0.0
H1735 H 0.95115 0.25213 0.86065 0.0
H1736 H 0.92407 0.24393 0.83939 0.0
H1737 H 0.9331 0.26285 0.78822 0.0
H1738 H 0.84923 0.26316 0.74757 0.0
H1739 H 0.87576 0.25132 0.7533 0.0
H1740 H 0.87684 0.22214 0.7997 0.0
C1741 C 0.93691 0.24545 0.83394 0.0
C1742 C 0.92098 0.25342 0.79029 0.0
C1743 C 0.95244 0.25034 0.84614 0.0
C1744 C 0.85193 0.25959 0.76073 0.0
C1745 C 0.86709 0.25285 0.76401 0.0
C1746 C 0.88908 0.23078 0.79676 0.0
C1747 C 0.93795 0.24373 0.81504 0.0
C1748 C 0.92145 0.24154 0.80266 0.0
C1749 C 0.87125 0.2486 0.78113 0.0
C1750 C 0.88845 0.24394 0.78585 0.0
H1751 H 0.98337 0.25317 0.81545 0.0
H1752 H 0.95603 0.2449 0.79403 0.0
H1753 H 0.90547 0.2201 0.81432 0.0
H1754 H 0.83639 0.25945 0.80246 0.0
H1755 H 0.86267 0.24784 0.80814 0.0
C1756 C 0.60731 0.23484 0.60416 0.0
C1757 C 0.59702 0.23719 0.61885 0.0
C1758 C 0.60914 0.21749 0.59652 0.0
C1759 C 0.60448 0.17092 0.6058 0.0
H1760 H 0.59508 0.15605 0.55316 0.0
C1761 C 0.57964 0.09635 0.56982 0.0
C1762 C 0.5847 0.09081 0.55245 0.0
C1763 C 0.58522 0.1145 0.57869 0.0
C1764 C 0.59814 0.16006 0.56785 0.0
H1765 H 0.5808 0.22318 0.63719 0.0
H1766 H 0.58391 0.19297 0.62379 0.0
H1767 H 0.59705 0.18761 0.56716 0.0
H1768 H 0.6005 0.09973 0.53123 0.0
H1769 H 0.6104 0.13146 0.54685 0.0
H1770 H 0.60511 0.14326 0.60653 0.0
C1771 C 0.59071 0.20456 0.6183 0.0
C1772 C 0.59922 0.17815 0.57586 0.0
C1773 C 0.58879 0.22186 0.62587 0.0
C1774 C 0.59625 0.1036 0.54455 0.0
C1775 C 0.60185 0.12179 0.55344 0.0
C1776 C 0.60345 0.15285 0.59779 0.0
C1777 C 0.60083 0.20218 0.60351 0.0
C1778 C 0.60194 0.18363 0.59494 0.0
C1779 C 0.59604 0.12751 0.57041 0.0
C1780 C 0.59981 0.14712 0.57875 0.0
H1781 H 0.61386 0.24638 0.59847 0.0
H1782 H 0.6171 0.21605 0.58518 0.0
H1783 H 0.6069 0.17487 0.62054 0.0
H1784 H 0.57079 0.08683 0.57632 0.0
H1785 H 0.58033 0.11848 0.59165 0.0
C1786 C 0.5647 0.8117 0.36015 0.0
C1787 C 0.56125 0.80608 0.37677 0.0
C1788 C 0.58055 0.81032 0.35266 0.0
C1789 C 0.62607 0.80354 0.36272 0.0
H1790 H 0.62093 0.78602 0.31035 0.0
C1791 C 0.6832 0.78316 0.32345 0.0
C1792 C 0.68613 0.79064 0.30764 0.0
C1793 C 0.66803 0.78447 0.33239 0.0
C1794 C 0.62258 0.791 0.32497 0.0
H1795 H 0.572 0.79524 0.39897 0.0
H1796 H 0.59962 0.79249 0.38568 0.0
H1797 H 0.59472 0.79019 0.32548 0.0
H1798 H 0.67546 0.80553 0.28897 0.0
H1799 H 0.64887 0.8074 0.3043 0.0
H1800 H 0.65401 0.80414 0.36208 0.0
C1801 C 0.59014 0.79818 0.37855 0.0
C1802 C 0.6076 0.79349 0.33363 0.0
C1803 C 0.57431 0.79973 0.38614 0.0
C1804 C 0.67344 0.79925 0.30086 0.0
C1805 C 0.65824 0.80041 0.30968 0.0
C1806 C 0.64107 0.80093 0.35403 0.0
C1807 C 0.59323 0.80309 0.36152 0.0
C1808 C 0.6092 0.80002 0.35256 0.0
C1809 C 0.65544 0.79313 0.32558 0.0
C1810 C 0.63947 0.79485 0.33504 0.0
H1811 H 0.55499 0.81687 0.35271 0.0
H1812 H 0.58273 0.81467 0.33976 0.0
H1813 H 0.62777 0.80871 0.37729 0.0
H1814 H 0.69259 0.77624 0.3289 0.0
H1815 H 0.66606 0.77859 0.34453 0.0
C1816 C 0.06974 0.22763 0.4171 0.0
C1817 C 0.05991 0.24113 0.41871 0.0
C1818 C 0.07035 0.21716 0.43065 0.0
C1819 C 0.04557 0.20203 0.46808 0.0
H1820 H 0.08908 0.18765 0.48181 0.0
C1821 C 0.04979 0.15933 0.52432 0.0
C1822 C 0.05756 0.14442 0.51976 0.0
C1823 C 0.05118 0.17267 0.51346 0.0
C1824 C 0.07681 0.19151 0.47806 0.0
H1825 H 0.04331 0.25446 0.43605 0.0
H1826 H 0.04458 0.23637 0.45976 0.0
H1827 H 0.08941 0.20809 0.45999 0.0
H1828 H 0.0729 0.13192 0.50019 0.0
H1829 H 0.07546 0.15523 0.48145 0.0
H1830 H 0.03294 0.18532 0.48603 0.0
C1831 C 0.05156 0.23366 0.44787 0.0
C1832 C 0.07698 0.20318 0.46553 0.0
C1833 C 0.05091 0.24408 0.4343 0.0
C1834 C 0.06705 0.14339 0.50433 0.0
C1835 C 0.0685 0.15674 0.49354 0.0
C1836 C 0.04542 0.19042 0.48066 0.0
C1837 C 0.06119 0.21999 0.44615 0.0
C1838 C 0.06131 0.2084 0.46022 0.0
C1839 C 0.06042 0.17142 0.49786 0.0
C1840 C 0.06098 0.18486 0.48561 0.0
H1841 H 0.0768 0.22497 0.40525 0.0
H1842 H 0.07769 0.20657 0.42877 0.0
H1843 H 0.03319 0.20557 0.46411 0.0
H1844 H 0.04259 0.16066 0.53625 0.0
H1845 H 0.04499 0.18395 0.51724 0.0
C1846 C 0.56649 0.2786 0.19902 0.0
C1847 C 0.55027 0.26634 0.2003 0.0
C1848 C 0.58107 0.2816 0.21225 0.0
C1849 C 0.59992 0.25829 0.24465 0.0
H1850 H 0.63358 0.3052 0.26042 0.0
C1851 C 0.6673 0.2634 0.28503 0.0
C1852 C 0.68208 0.27307 0.27781 0.0
C1853 C 0.65002 0.26521 0.28021 0.0
C1854 C 0.62429 0.29201 0.25617 0.0
H1855 H 0.5364 0.24815 0.2169 0.0
H1856 H 0.5619 0.25338 0.23998 0.0
H1857 H 0.60508 0.3033 0.24282 0.0
H1858 H 0.69042 0.29291 0.26061 0.0
H1859 H 0.66041 0.296 0.25214 0.0
H1860 H 0.61934 0.24682 0.25719 0.0
C1861 C 0.56335 0.26055 0.22864 0.0
C1862 C 0.608 0.29093 0.24609 0.0
C1863 C 0.54875 0.2576 0.21543 0.0
C1864 C 0.67936 0.28544 0.26661 0.0
C1865 C 0.66211 0.28722 0.26175 0.0
C1866 C 0.61621 0.25935 0.25465 0.0
C1867 C 0.57975 0.27237 0.22703 0.0
C1868 C 0.59585 0.27399 0.23983 0.0
C1869 C 0.64718 0.27668 0.26801 0.0
C1870 C 0.62879 0.27615 0.26012 0.0
H1871 H 0.56811 0.28561 0.18757 0.0
H1872 H 0.59359 0.29061 0.2105 0.0
H1873 H 0.59095 0.245 0.23984 0.0
H1874 H 0.66903 0.25395 0.29391 0.0
H1875 H 0.63882 0.25716 0.28552 0.0
C1876 C 0.55208 0.84842 0.91067 0.0
C1877 C 0.56254 0.83832 0.91872 0.0
C1878 C 0.54868 0.8641 0.92083 0.0
C1879 C 0.56742 0.89959 0.96114 0.0
H1880 H 0.52129 0.91179 0.95586 0.0
C1881 C 0.55313 0.96253 1.00564 0.0
C1882 C 0.54412 0.97328 0.99676 0.0
C1883 C 0.55434 0.94544 0.99662 0.0
C1884 C 0.53428 0.90862 0.95735 0.0
H1885 H 0.57716 0.83648 0.94395 0.0
H1886 H 0.5711 0.86378 0.9617 0.0
H1887 H 0.52509 0.88275 0.93938 0.0
H1888 H 0.52904 0.97437 0.97152 0.0
H1889 H 0.53135 0.94454 0.95569 0.0
H1890 H 0.5767 0.92547 0.97893 0.0
C1891 C 0.56575 0.85969 0.94744 0.0
C1892 C 0.53645 0.892 0.94794 0.0
C1893 C 0.56915 0.844 0.93728 0.0
C1894 C 0.53607 0.96642 0.97875 0.0
C1895 C 0.53731 0.94929 0.96971 0.0
C1896 C 0.56526 0.91617 0.97053 0.0
C1897 C 0.55567 0.87003 0.93926 0.0
C1898 C 0.55307 0.88734 0.9497 0.0
C1899 C 0.5466 0.9387 0.97851 0.0
C1900 C 0.54869 0.9209 0.96871 0.0
H1901 H 0.54677 0.84442 0.8964 0.0
H1902 H 0.54102 0.87188 0.91409 0.0
H1903 H 0.58048 0.89655 0.96252 0.0
H1904 H 0.55936 0.96733 0.01956 0.0
H1905 H 0.56135 0.93748 1.00386 0.0
C1906 C 0.94784 0.76347 0.68046 0.0
C1907 C 0.95124 0.74613 0.6797 0.0
C1908 C 0.93588 0.76916 0.69211 0.0
C1909 C 0.91449 0.75869 0.73335 0.0
H1910 H 0.88367 0.78908 0.71967 0.0
C1911 C 0.85493 0.77367 0.77192 0.0
C1912 C 0.85299 0.7917 0.77438 0.0
C1913 C 0.8681 0.76853 0.76163 0.0
C1914 C 0.89235 0.78074 0.72373 0.0
H1915 H 0.94422 0.7208 0.68979 0.0
H1916 H 0.92292 0.73043 0.70956 0.0
H1917 H 0.9034 0.77882 0.69818 0.0
H1918 H 0.86398 0.8187 0.76883 0.0
H1919 H 0.88682 0.80964 0.75085 0.0
H1920 H 0.90299 0.7603 0.75875 0.0
C1921 C 0.92989 0.73992 0.70169 0.0
C1922 C 0.90367 0.77489 0.71144 0.0
C1923 C 0.94198 0.73433 0.69024 0.0
C1924 C 0.86504 0.80467 0.76713 0.0
C1925 C 0.87806 0.79949 0.75673 0.0
C1926 C 0.90301 0.76439 0.74556 0.0
C1927 C 0.92695 0.75752 0.70305 0.0
C1928 C 0.91488 0.76378 0.71609 0.0
C1929 C 0.87942 0.7813 0.75353 0.0
C1930 C 0.89188 0.77549 0.74086 0.0
H1931 H 0.95489 0.77289 0.67257 0.0
H1932 H 0.93407 0.78288 0.69294 0.0
H1933 H 0.9232 0.75045 0.73754 0.0
H1934 H 0.84587 0.76336 0.77735 0.0
H1935 H 0.86888 0.75439 0.75932 0.0
C1936 C 0.13965 0.01987 0.85177 0.0
C1937 C 0.13764 0.03126 0.83905 0.0
C1938 C 0.13119 0.02071 0.86824 0.0
C1939 C 0.10551 0.04974 0.89936 0.0
H1940 H 0.09678 0.00817 0.92342 0.0
C1941 C 0.07632 0.05433 0.97174 0.0
C1942 C 0.06704 0.03847 0.97759 0.0
C1943 C 0.08463 0.0535 0.95517 0.0
C1944 C 0.09882 0.02003 0.91704 0.0
H1945 H 0.12448 0.0526 0.83462 0.0
H1946 H 0.10971 0.0539 0.8626 0.0
H1947 H 0.11068 1.0065 0.89513 0.0
H1948 H 0.05966 0.00908 0.96943 0.0
H1949 H 0.07351 1.00761 0.94094 0.0
H1950 H 0.09322 0.06311 0.92103 0.0
C1951 C 0.11812 0.04435 0.8602 0.0
C1952 C 0.10724 0.01914 0.90055 0.0
C1953 C 0.12663 0.04352 0.84375 0.0
C1954 C 0.06651 0.02175 0.96582 0.0
C1955 C 0.07477 0.02091 0.94924 0.0
C1956 C 0.09707 0.05063 0.91585 0.0
C1957 C 0.12012 0.033 0.87306 0.0
C1958 C 0.11089 0.03397 0.89111 0.0
C1959 C 0.08419 0.03675 0.94335 0.0
C1960 C 0.09342 0.0358 0.92529 0.0
H1961 H 0.14797 0.01024 0.84908 0.0
H1962 H 0.13368 0.01177 0.87737 0.0
H1963 H 0.10797 0.06177 0.89324 0.0
H1964 H 0.07738 0.06757 0.98014 0.0
H1965 H 0.09173 0.06622 0.9519 0.0
C1966 C 0.76813 0.42731 0.56944 0.0
C1967 C 0.7683 0.41886 0.55124 0.0
C1968 C 0.76833 0.41747 0.58362 0.0
C1969 C 0.76201 0.37025 0.59311 0.0
H1970 H 0.79418 0.39424 0.63681 0.0
C1971 C 0.78853 0.3305 0.64351 0.0
C1972 C 0.78919 0.33718 0.66234 0.0
C1973 C 0.78436 0.34068 0.63068 0.0
C1974 C 0.78496 0.38741 0.6248 0.0
H1975 H 0.76813 0.39318 0.53368 0.0
H1976 H 0.76875 0.37619 0.55828 0.0
H1977 H 0.78914 0.41148 0.61313 0.0
H1978 H 0.78585 0.35993 0.68233 0.0
H1979 H 0.77891 0.37786 0.65986 0.0
H1980 H 0.75828 0.34605 0.6046 0.0
C1981 C 0.76822 0.39036 0.56166 0.0
C1982 C 0.78201 0.39731 0.61122 0.0
C1983 C 0.76795 0.40016 0.54751 0.0
C1984 C 0.78572 0.35444 0.66797 0.0
C1985 C 0.78168 0.3647 0.6551 0.0
C1986 C 0.76506 0.36035 0.60662 0.0
C1987 C 0.76874 0.39894 0.57995 0.0
C1988 C 0.77068 0.3888 0.59507 0.0
C1989 C 0.78088 0.35789 0.6363 0.0
C1990 C 0.77675 0.36875 0.62252 0.0
H1991 H 0.76832 0.44167 0.57283 0.0
H1992 H 0.7684 0.42446 0.59749 0.0
H1993 H 0.75292 0.36332 0.58104 0.0
H1994 H 0.7915 0.31747 0.63863 0.0
H1995 H 0.78419 0.3352 0.6163 0.0
C1996 C 0.47075 0.05467 0.35661 0.0
C1997 C 0.45374 0.05848 0.35553 0.0
C1998 C 0.48319 0.06264 0.37177 0.0
C1999 C 0.48354 0.07771 0.42022 0.0
H2000 H 0.53503 0.08704 0.41879 0.0
C2001 C 0.52986 0.07742 0.48331 0.0
C2002 C 0.54156 0.06582 0.47975 0.0
C2003 C 0.52143 0.08321 0.46904 0.0
C2004 C 0.52069 0.08458 0.41944 0.0
H2005 H 0.43676 0.07452 0.36891 0.0
H2006 H 0.45859 0.0884 0.39579 0.0
H2007 H 0.51554 0.08604 0.39127 0.0
H2008 H 0.55442 0.05215 0.45852 0.0
H2009 H 0.53951 0.06201 0.43362 0.0
H2010 H 0.48852 0.0752 0.44802 0.0
C2011 C 0.46222 0.07918 0.38482 0.0
C2012 C 0.50955 0.08406 0.40371 0.0
C2013 C 0.44977 0.0713 0.36945 0.0
C2014 C 0.54544 0.06102 0.46173 0.0
C2015 C 0.53699 0.0668 0.44746 0.0
C2016 C 0.49467 0.07824 0.43593 0.0
C2017 C 0.47889 0.07454 0.38632 0.0
C2018 C 0.49081 0.07982 0.40374 0.0
C2019 C 0.52451 0.07754 0.45091 0.0
C2020 C 0.51331 0.0809 0.43549 0.0
H2021 H 0.47425 0.04497 0.34599 0.0
H2022 H 0.49578 0.05856 0.37257 0.0
H2023 H 0.46916 0.07423 0.42066 0.0
H2024 H 0.5267 0.08156 0.49706 0.0
H2025 H 0.51207 0.09167 0.47215 0.0
C2026 C 0.79613 0.73901 0.07605 0.0
C2027 C 0.80511 0.72508 0.07124 0.0
C2028 C 0.79733 0.74779 0.09429 0.0
C2029 C 0.824 0.75609 0.13945 0.0
H2030 H 0.77922 0.75958 0.15896 0.0
C2031 C 0.81788 0.76674 0.21683 0.0
C2032 C 0.80631 0.77732 0.22403 0.0
C2033 C 0.8185 0.76246 0.19797 0.0
C2034 C 0.79191 0.75903 0.15373 0.0
H2035 H 0.82305 0.71007 0.08176 0.0
H2036 H 0.82523 0.72542 0.11338 0.0
H2037 H 0.77934 0.74906 0.12632 0.0
H2038 H 0.78658 0.79201 0.21693 0.0
H2039 H 0.78788 0.78479 0.18406 0.0
H2040 H 0.83659 0.76593 0.16682 0.0
C2041 C 0.81724 0.72958 0.10311 0.0
C2042 C 0.79196 0.75298 0.13498 0.0
C2043 C 0.8159 0.72069 0.08496 0.0
C2044 C 0.79558 0.78374 0.21188 0.0
C2045 C 0.79625 0.77951 0.193 0.0
C2046 C 0.82398 0.76224 0.15817 0.0
C2047 C 0.80773 0.743 0.10807 0.0
C2048 C 0.80797 0.75115 0.12767 0.0
C2049 C 0.80764 0.76871 0.18577 0.0
C2050 C 0.80788 0.7635 0.16563 0.0
H2051 H 0.78768 0.74271 0.06584 0.0
H2052 H 0.78998 0.7582 0.09766 0.0
H2053 H 0.8366 0.75509 0.1342 0.0
H2054 H 0.82632 0.76151 0.22574 0.0
H2055 H 0.82723 0.75387 0.19296 0.0
C2056 C 0.13249 0.02274 0.72958 0.0
C2057 C 0.14656 0.0137 0.73104 0.0
C2058 C 0.12416 0.02394 0.71235 0.0
C2059 C 0.11898 1.0041 0.66097 0.0
H2060 H 0.10151 0.04686 0.65604 0.0
C2061 C 0.09244 0.01497 0.58813 0.0
C2062 C 0.0801 0.02595 0.58631 0.0
C2063 C 0.10017 0.01344 0.60548 0.0
C2064 C 0.10599 0.03459 0.65692 0.0
H2065 H 0.16241 0.99873 0.7144 0.0
H2066 H 0.14803 1.00063 0.68487 0.0
H2067 H 0.11481 0.04407 0.68563 0.0
H2068 H 0.06646 0.04386 0.60241 0.0
H2069 H 0.07939 0.04098 0.63225 0.0
H2070 H 0.11004 0.99447 0.63239 0.0
C2071 C 0.1432 1.00677 0.69708 0.0
C2072 C 0.11379 0.03298 0.67424 0.0
C2073 C 0.15162 1.00569 0.71429 0.0
C2074 C 0.07587 0.03528 0.60284 0.0
C2075 C 0.08353 0.03369 0.62023 0.0
C2076 C 0.11109 1.00565 0.64369 0.0
C2077 C 0.12933 0.01609 0.69556 0.0
C2078 C 0.12058 0.01772 0.67679 0.0
C2079 C 0.09595 0.02272 0.62212 0.0
C2080 C 0.10439 0.02097 0.64106 0.0
H2081 H 0.12806 0.02928 0.74186 0.0
H2082 H 0.11349 0.03106 0.71228 0.0
H2083 H 0.12357 0.9919 0.66191 0.0
H2084 H 0.09632 1.00753 0.57601 0.0
H2085 H 0.10976 1.00507 0.60568 0.0
C2086 C 0.78332 0.38304 0.45323 0.0
C2087 C 0.78007 0.40037 0.45327 0.0
C2088 C 0.78511 0.37193 0.43691 0.0
C2089 C 0.77902 0.36728 0.38579 0.0
H2090 H 0.81165 0.33554 0.38814 0.0
C2091 C 0.8062 0.33215 0.32225 0.0
C2092 C 0.80348 0.31311 0.32018 0.0
C2093 C 0.80318 0.34253 0.33852 0.0
C2094 C 0.80243 0.34427 0.38731 0.0
H2095 H 0.77599 0.41961 0.4362 0.0
H2096 H 0.77994 0.40069 0.40778 0.0
H2097 H 0.8065 0.35426 0.41608 0.0
H2098 H 0.79589 0.29012 0.33378 0.0
H2099 H 0.79132 0.30844 0.36255 0.0
H2100 H 0.77575 0.35773 0.35677 0.0
C2101 C 0.78053 0.39528 0.42023 0.0
C2102 C 0.79932 0.35495 0.40336 0.0
C2103 C 0.77832 0.40624 0.43657 0.0
C2104 C 0.79817 0.30476 0.33497 0.0
C2105 C 0.79555 0.31522 0.35142 0.0
C2106 C 0.78246 0.35687 0.3697 0.0
C2107 C 0.78418 0.37801 0.42016 0.0
C2108 C 0.78747 0.36658 0.40291 0.0
C2109 C 0.79775 0.33418 0.35323 0.0
C2110 C 0.79414 0.34522 0.37031 0.0
H2111 H 0.78458 0.37806 0.46589 0.0
H2112 H 0.78732 0.35857 0.43753 0.0
H2113 H 0.76957 0.3757 0.38474 0.0
H2114 H 0.81008 0.339 0.31107 0.0
H2115 H 0.80508 0.35713 0.3396 0.0
C2116 C 0.44631 0.02662 0.26114 0.0
C2117 C 0.42761 0.02448 0.25967 0.0
C2118 C 0.4552 0.02489 0.24554 0.0
C2119 C 0.44849 1.00456 0.19685 0.0
H2120 H 0.49335 0.0392 0.1954 0.0
C2121 C 0.48595 1.00571 0.13232 0.0
C2122 C 0.50473 0.00893 0.13497 0.0
C2123 C 0.47606 1.00735 0.14725 0.0
C2124 C 0.48095 0.0293 0.19568 0.0
H2125 H 0.4036 0.01881 0.24063 0.0
H2126 H 0.41925 0.01582 0.21328 0.0
H2127 H 0.47682 0.04289 0.22191 0.0
H2128 H 0.52785 0.01624 0.15536 0.0
H2129 H 0.51058 0.01864 0.18141 0.0
H2130 H 0.45272 0.99087 0.17066 0.0
C2131 C 0.42694 0.01874 0.22657 0.0
C2132 C 0.47147 0.03144 0.21083 0.0
C2133 C 0.41801 0.02055 0.24222 0.0
C2134 C 0.51339 0.0135 0.15286 0.0
C2135 C 0.50351 0.01512 0.16778 0.0
C2136 C 0.45801 1.00239 0.18168 0.0
C2137 C 0.44563 0.02093 0.22811 0.0
C2138 C 0.45522 0.01903 0.21164 0.0
C2139 C 0.48476 0.01224 0.16514 0.0
C2140 C 0.47441 0.01466 0.18101 0.0
H2141 H 0.45412 0.02962 0.27437 0.0
H2142 H 0.46959 0.02641 0.24713 0.0
H2143 H 0.43609 0.99468 0.1972 0.0
H2144 H 0.47888 1.00197 0.11869 0.0
H2145 H 0.46164 1.00517 0.14478 0.0
C2146 C 0.81461 0.73028 0.96453 0.0
C2147 C 0.79825 0.72902 0.97214 0.0
C2148 C 0.81774 0.73881 0.94942 0.0
C2149 C 0.79929 0.76911 0.92232 0.0
H2150 H 0.82732 0.75105 0.88536 0.0
C2151 C 0.79411 0.78067 0.84802 0.0
C2152 C 0.81012 0.78851 0.84138 0.0
C2153 C 0.79443 0.77494 0.8648 0.0
C2154 C 0.81963 0.75634 0.8957 0.0
H2155 H 0.77224 0.73537 0.96956 0.0
H2156 H 0.77726 0.74935 0.94299 0.0
H2157 H 0.82426 0.73774 0.91287 0.0
H2158 H 0.83906 0.79631 0.84709 0.0
H2159 H 0.83962 0.78559 0.87638 0.0
H2160 H 0.79388 0.78696 0.90451 0.0
C2161 C 0.78806 0.7445 0.94897 0.0
C2162 C 0.8179 0.74879 0.91154 0.0
C2163 C 0.78508 0.73629 0.9642 0.0
C2164 C 0.82652 0.79041 0.85191 0.0
C2165 C 0.82685 0.78421 0.86858 0.0
C2166 C 0.80073 0.77637 0.90635 0.0
C2167 C 0.80448 0.74604 0.94137 0.0
C2168 C 0.80747 0.75487 0.925 0.0
C2169 C 0.81077 0.77651 0.8752 0.0
C2170 C 0.81074 0.76993 0.8928 0.0
H2171 H 0.82506 0.72487 0.97038 0.0
H2172 H 0.83065 0.73989 0.94422 0.0
H2173 H 0.7916 0.77464 0.93249 0.0
H2174 H 0.78126 0.77908 0.84028 0.0
H2175 H 0.78186 0.76897 0.86955 0.0
C2176 C 0.86022 0.07286 0.03979 0.0
C2177 C 0.85616 0.08836 0.03441 0.0
C2178 C 0.87695 0.06875 0.03744 0.0
C2179 C 0.91935 0.08166 0.0145 0.0
H2180 H 0.93766 0.05526 0.04842 0.0
C2181 C 0.9933 0.07166 0.02048 0.0
C2182 C 0.99501 0.05394 0.02172 0.0
C2183 C 0.97648 0.07615 0.02099 0.0
C2184 C 0.93273 0.06256 0.03874 0.0
H2185 H 0.8668 0.11173 0.02229 0.0
H2186 H 0.89608 0.1051 0.01885 0.0
H2187 H 0.90876 0.06258 0.05159 0.0
H2188 H 0.97998 0.0271 0.02437 0.0
H2189 H 0.95109 0.03499 0.02557 0.0
H2190 H 0.94392 0.0821 1.00218 0.0
C2191 C 0.88622 0.09567 0.02441 0.0
C2192 C 0.91595 0.06669 0.04045 0.0
C2193 C 0.86934 0.09958 0.02647 0.0
C2194 C 0.97935 0.04086 0.02325 0.0
C2195 C 0.9627 0.04542 0.0241 0.0
C2196 C 0.93633 0.0778 0.01302 0.0
C2197 C 0.89044 0.08021 0.02996 0.0
C2198 C 0.90876 0.07615 0.02825 0.0
C2199 C 0.96099 0.06316 0.02316 0.0
C2200 C 0.94319 0.06801 0.025 0.0
H2201 H 0.85042 0.0638 0.04584 0.0
H2202 H 0.87917 0.05644 0.04147 0.0
H2203 H 0.91444 0.0887 1.00458 0.0
H2204 H 1.00499 0.08215 0.01938 0.0
H2205 H 0.97572 0.08996 0.02028 0.0
C2206 C 0.37287 0.4356 0.05713 0.0
C2207 C 0.36787 0.41674 0.0502 0.0
C2208 C 0.39043 0.44555 0.05688 0.0
C2209 C 0.4306 0.44439 0.03302 0.0
H2210 H 0.45522 0.48102 0.07462 0.0
C2211 C 0.50492 0.48031 0.03474 0.0
C2212 C 0.51013 0.49913 0.04179 0.0
C2213 C 0.48795 0.47015 0.03681 0.0
C2214 C 0.44847 0.47099 0.0628 0.0
H2215 H 0.37755 0.39354 0.03772 0.0
H2216 H 0.40815 0.4109 0.03728 0.0
H2217 H 0.42481 0.4636 0.0761 0.0
H2218 H 0.50166 0.52195 0.05692 0.0
H2219 H 0.47188 0.50427 0.06026 0.0
H2220 H 0.45403 0.45188 0.01957 0.0
C2221 C 0.39843 0.41802 0.04279 0.0
C2222 C 0.43105 0.46099 0.06367 0.0
C2223 C 0.3809 0.40805 0.04313 0.0
C2224 C 0.4981 0.50747 0.05138 0.0
C2225 C 0.48103 0.4973 0.05334 0.0
C2226 C 0.44795 0.45444 0.03211 0.0
C2227 C 0.40339 0.43689 0.0496 0.0
C2228 C 0.42193 0.44754 0.0488 0.0
C2229 C 0.47565 0.47854 0.04587 0.0
C2230 C 0.45716 0.46784 0.047 0.0
H2231 H 0.36319 0.44274 0.06269 0.0
H2232 H 0.39378 0.4601 0.06207 0.0
H2233 H 0.42384 0.43435 0.02121 0.0
H2234 H 0.51391 0.47339 0.02747 0.0
H2235 H 0.48446 0.45567 0.03124 0.0
C2236 C 0.37388 0.60508 0.74899 0.0
C2237 C 0.38717 0.60353 0.76237 0.0
C2238 C 0.36668 0.6209 0.74995 0.0
C2239 C 0.37384 0.67133 0.77504 0.0
H2240 H 0.32696 0.6674 0.75035 0.0
C2241 C 0.34503 0.73787 0.77242 0.0
C2242 C 0.3263 0.73661 0.76991 0.0
C2243 C 0.35237 0.72213 0.77166 0.0
C2244 C 0.34005 0.66909 0.75757 0.0
H2245 H 0.4029 0.61872 0.78752 0.0
H2246 H 0.39058 0.64574 0.78929 0.0
H2247 H 0.33903 0.64049 0.74909 0.0
H2248 H 0.301 0.71644 0.7645 0.0
H2249 H 0.31341 0.68963 0.76338 0.0
H2250 H 0.37474 0.6999 0.78373 0.0
C2251 C 0.38565 0.63476 0.77772 0.0
C2252 C 0.34726 0.65329 0.75663 0.0
C2253 C 0.3928 0.61889 0.77678 0.0
C2254 C 0.31543 0.71856 0.76659 0.0
C2255 C 0.32274 0.70283 0.76578 0.0
C2256 C 0.36666 0.68717 0.77591 0.0
C2257 C 0.3723 0.63637 0.76434 0.0
C2258 C 0.36443 0.65377 0.76535 0.0
C2259 C 0.34149 0.70399 0.76825 0.0
C2260 C 0.34947 0.68666 0.76724 0.0
H2261 H 0.36896 0.59394 0.73753 0.0
H2262 H 0.35676 0.62098 0.73902 0.0
H2263 H 0.38709 0.67307 0.78195 0.0
H2264 H 0.35422 0.75117 0.7749 0.0
H2265 H 0.3668 0.72435 0.77348 0.0
C2266 C 0.24182 0.59254 0.52367 0.0
C2267 C 0.25454 0.58312 0.52891 0.0
C2268 C 0.22344 0.58498 0.52278 0.0
C2269 C 0.18838 0.5433 0.51609 0.0
H2270 H 0.16091 0.57395 0.54238 0.0
C2271 C 0.11042 0.5314 0.50355 0.0
C2272 C 0.10111 0.53302 0.51911 0.0
C2273 C 0.12926 0.53594 0.5052 0.0
C2274 C 0.16836 0.56516 0.53504 0.0
H2275 H 0.25752 0.55787 0.53673 0.0
H2276 H 0.22504 0.54432 0.53458 0.0
H2277 H 0.19352 0.58433 0.54434 0.0
H2278 H 0.10449 0.54073 0.54865 0.0
H2279 H 0.13726 0.54907 0.55145 0.0
H2280 H 0.16306 0.52437 0.50632 0.0
C2281 C 0.2296 0.55776 0.5314 0.0
C2282 C 0.18705 0.57114 0.53611 0.0
C2283 C 0.24818 0.56552 0.53264 0.0
C2284 C 0.11116 0.5393 0.53635 0.0
C2285 C 0.12997 0.54414 0.53797 0.0
C2286 C 0.16958 0.53744 0.51473 0.0
C2287 C 0.21704 0.56761 0.5268 0.0
C2288 C 0.1973 0.56036 0.52658 0.0
C2289 C 0.13928 0.54253 0.52242 0.0
C2290 C 0.15933 0.54835 0.52415 0.0
H2291 H 0.24602 0.60611 0.52067 0.0
H2292 H 0.21415 0.59283 0.51899 0.0
H2293 H 0.1959 0.53474 0.50851 0.0
H2294 H 0.10316 0.52655 0.49005 0.0
H2295 H 0.13599 0.53469 0.49293 0.0
C2296 C 0.73309 1.00494 0.74291 0.0
C2297 C 0.71772 1.00743 0.75111 0.0
C2298 C 0.74498 0.99644 0.7509 0.0
C2299 C 0.7587 0.98218 0.79356 0.0
H2300 H 0.77582 0.9471 0.75988 0.0
C2301 C 0.7933 0.9274 0.81462 0.0
C2302 C 0.80707 0.92326 0.80446 0.0
C2303 C 0.78392 0.93997 0.80998 0.0
C2304 C 0.7714 0.95705 0.76946 0.0
H2305 H 0.70297 1.00345 0.77442 0.0
H2306 H 0.72364 0.98813 0.78825 0.0
H2307 H 0.75611 0.96423 0.74818 0.0
H2308 H 0.82282 0.93007 0.78254 0.0
H2309 H 0.80655 0.95207 0.77451 0.0
H2310 H 0.77383 0.97452 0.8149 0.0
C2311 C 0.72659 0.993 0.77573 0.0
C2312 C 0.76008 0.96688 0.76275 0.0
C2313 C 0.71471 1.00167 0.76777 0.0
C2314 C 0.81205 0.93277 0.79038 0.0
C2315 C 0.80272 0.94532 0.78577 0.0
C2316 C 0.77003 0.97224 0.80032 0.0
C2317 C 0.74171 0.99005 0.7672 0.0
C2318 C 0.75367 0.97963 0.77468 0.0
C2319 C 0.78818 0.9486 0.79512 0.0
C2320 C 0.77657 0.95964 0.78829 0.0
H2321 H 0.73594 0.00945 0.7302 0.0
H2322 H 0.75671 0.99475 0.74419 0.0
H2323 H 0.75407 0.992 0.80309 0.0
H2324 H 0.78909 0.92018 0.82546 0.0
H2325 H 0.77272 0.94215 0.81737 0.0
C2326 C 0.7597 0.9153 0.52677 0.0
C2327 C 0.77063 0.92228 0.54342 0.0
C2328 C 0.74606 0.92353 0.52166 0.0
C2329 C 0.73147 0.96696 0.53196 0.0
H2330 H 0.68522 0.93764 0.50869 0.0
C2331 C 0.66953 0.99697 0.52625 0.0
C2332 C 0.65851 0.99208 0.50954 0.0
C2333 C 0.68318 0.98816 0.52947 0.0
C2334 C 0.69813 0.94602 0.515 0.0
H2335 H 0.77559 0.94321 0.56788 0.0
H2336 H 0.75176 0.95726 0.55921 0.0
H2337 H 0.70911 0.92277 0.51592 0.0
H2338 H 0.65306 0.97387 0.4832 0.0
H2339 H 0.677 0.95847 0.48884 0.0
H2340 H 0.72042 0.99016 0.53133 0.0
C2341 C 0.7539 0.9457 0.54984 0.0
C2342 C 0.71185 0.93751 0.51912 0.0
C2343 C 0.76753 0.93755 0.55489 0.0
C2344 C 0.6614 0.97805 0.49616 0.0
C2345 C 0.675 0.96912 0.49945 0.0
C2346 C 0.71776 0.97543 0.52795 0.0
C2347 C 0.74303 0.93889 0.53313 0.0
C2348 C 0.72864 0.94787 0.52784 0.0
C2349 C 0.68613 0.97418 0.5161 0.0
C2350 C 0.70087 0.96507 0.51959 0.0
H2351 H 0.76176 0.90357 0.51761 0.0
H2352 H 0.73807 0.91802 0.50861 0.0
H2353 H 0.74433 0.97543 0.53828 0.0
H2354 H 0.66779 1.00783 0.53677 0.0
H2355 H 0.69137 0.99225 0.54252 0.0
C2356 C 0.40027 0.48762 0.77955 0.0
C2357 C 0.39192 0.49975 0.77175 0.0
C2358 C 0.39134 0.46938 0.77968 0.0
C2359 C 0.34565 0.43561 0.77341 0.0
H2360 H 0.37465 0.40012 0.77043 0.0
C2361 C 0.31302 0.35655 0.76985 0.0
C2362 C 0.32334 0.34516 0.77609 0.0
C2363 C 0.32069 0.3751 0.76899 0.0
C2364 C 0.36614 0.40966 0.77162 0.0
H2365 H 0.36664 0.50103 0.75808 0.0
H2366 H 0.35098 0.46925 0.75841 0.0
H2367 H 0.3883 0.43164 0.76946 0.0
H2368 H 0.35036 0.34543 0.78651 0.0
H2369 H 0.36347 0.37721 0.78543 0.0
H2370 H 0.32346 0.41354 0.77564 0.0
C2371 C 0.36473 0.47408 0.76454 0.0
C2372 C 0.37414 0.42812 0.77101 0.0
C2373 C 0.3738 0.49253 0.76431 0.0
C2374 C 0.34173 0.35336 0.78151 0.0
C2375 C 0.34938 0.37188 0.78072 0.0
C2376 C 0.33762 0.41708 0.77411 0.0
C2377 C 0.37338 0.46192 0.77206 0.0
C2378 C 0.36421 0.44172 0.77203 0.0
C2379 C 0.33914 0.38336 0.77437 0.0
C2380 C 0.34765 0.40353 0.77335 0.0
H2381 H 0.41407 0.49216 0.78561 0.0
H2382 H 0.39869 0.46113 0.78607 0.0
H2383 H 0.33726 0.44527 0.77441 0.0
H2384 H 0.29887 0.35111 0.76546 0.0
H2385 H 0.31202 0.38286 0.76378 0.0
C2386 C 0.22139 0.589 0.21532 0.0
C2387 C 0.20276 0.58254 0.21147 0.0
C2388 C 0.2297 0.60648 0.2129 0.0
C2389 C 0.21809 0.65057 0.21124 0.0
H2390 H 0.26889 0.66575 0.20682 0.0
C2391 C 0.25666 0.72629 0.22407 0.0
C2392 C 0.26949 0.72973 0.23929 0.0
C2393 C 0.24896 0.70835 0.21518 0.0
C2394 C 0.25463 0.66164 0.20778 0.0
H2395 H 0.17836 0.58844 0.20055 0.0
H2396 H 0.19292 0.61852 0.19534 0.0
H2397 H 0.25401 0.63335 0.19999 0.0
H2398 H 0.28519 0.71746 0.25653 0.0
H2399 H 0.27209 0.68625 0.24072 0.0
H2400 H 0.21888 0.67894 0.2192 0.0
C2401 C 0.20109 0.61056 0.20105 0.0
C2402 C 0.24612 0.64311 0.20407 0.0
C2403 C 0.19274 0.59327 0.20391 0.0
C2404 C 0.27517 0.71513 0.24492 0.0
C2405 C 0.26784 0.69732 0.23579 0.0
C2406 C 0.22653 0.66908 0.21456 0.0
C2407 C 0.21958 0.6177 0.20619 0.0
C2408 C 0.22789 0.63729 0.20651 0.0
C2409 C 0.25443 0.69375 0.22109 0.0
C2410 C 0.24498 0.67471 0.21353 0.0
H2411 H 0.22939 0.58098 0.22122 0.0
H2412 H 0.2439 0.61149 0.21728 0.0
H2413 H 0.20413 0.64676 0.21357 0.0
H2414 H 0.25209 0.73736 0.2195 0.0
H2415 H 0.23854 0.70583 0.20392 0.0
C2416 C 0.51765 0.76303 0.45508 0.0
C2417 C 0.51099 0.75975 0.43655 0.0
C2418 C 0.51869 0.74857 0.46388 0.0
C2419 C 0.5251 0.70265 0.45361 0.0
H2420 H 0.51541 0.70122 0.5037 0.0
C2421 C 0.53807 0.64514 0.4894 0.0
C2422 C 0.54544 0.64999 0.5078 0.0
C2423 C 0.53198 0.65771 0.48068 0.0
C2424 C 0.51834 0.70153 0.48976 0.0
H2425 H 0.49935 0.73876 0.4129 0.0
H2426 H 0.50133 0.71337 0.42831 0.0
H2427 H 0.50679 0.72435 0.48851 0.0
H2428 H 0.55223 0.67194 0.53141 0.0
H2429 H 0.5422 0.69415 0.51596 0.0
H2430 H 0.53721 0.68033 0.45496 0.0
C2431 C 0.50579 0.72718 0.43596 0.0
C2432 C 0.5133 0.71469 0.48105 0.0
C2433 C 0.50457 0.74169 0.42719 0.0
C2434 C 0.54677 0.66781 0.5172 0.0
C2435 C 0.54077 0.68045 0.50841 0.0
C2436 C 0.53025 0.68959 0.46235 0.0
C2437 C 0.51323 0.73052 0.45428 0.0
C2438 C 0.5168 0.71549 0.46295 0.0
C2439 C 0.53326 0.67553 0.49005 0.0
C2440 C 0.5271 0.68898 0.48059 0.0
H2441 H 0.52262 0.77682 0.46267 0.0
H2442 H 0.52461 0.75156 0.47795 0.0
H2443 H 0.52825 0.70315 0.43976 0.0
H2444 H 0.53709 0.63161 0.48166 0.0
H2445 H 0.52612 0.65339 0.46659 0.0
C2446 C 0.64486 0.33086 0.68221 0.0
C2447 C 0.63038 0.31707 0.68485 0.0
C2448 C 0.65986 0.33702 0.69521 0.0
C2449 C 0.67867 0.33219 0.74129 0.0
H2450 H 0.72126 0.33124 0.71663 0.0
C2451 C 0.73813 0.30575 0.76731 0.0
C2452 C 0.75526 0.31314 0.76269 0.0
C2453 C 0.72347 0.3123 0.76179 0.0
C2454 C 0.70965 0.332 0.72388 0.0
H2455 H 0.61959 0.30005 0.70389 0.0
H2456 H 0.64586 0.31023 0.72613 0.0
H2457 H 0.69399 0.33253 0.69948 0.0
H2458 H 0.77081 0.33435 0.75031 0.0
H2459 H 0.7453 0.34584 0.74089 0.0
H2460 H 0.69434 0.33045 0.7655 0.0
C2461 C 0.64565 0.31659 0.71425 0.0
C2462 C 0.69394 0.3328 0.71402 0.0
C2463 C 0.63059 0.31061 0.70137 0.0
C2464 C 0.7577 0.32812 0.75375 0.0
C2465 C 0.7431 0.33472 0.74836 0.0
C2466 C 0.69443 0.33126 0.75117 0.0
C2467 C 0.66076 0.32932 0.71097 0.0
C2468 C 0.67808 0.33231 0.72244 0.0
C2469 C 0.72573 0.32641 0.75166 0.0
C2470 C 0.70993 0.33061 0.74241 0.0
H2471 H 0.64496 0.33634 0.66974 0.0
H2472 H 0.6711 0.34717 0.69248 0.0
H2473 H 0.66677 0.33211 0.74827 0.0
H2474 H 0.73587 0.29424 0.77425 0.0
H2475 H 0.71023 0.30552 0.76443 0.0
C2476 C 0.02584 0.34312 0.90928 0.0
C2477 C 0.01014 0.33018 0.91068 0.0
C2478 C 0.02857 0.36113 0.91841 0.0
C2479 C 1.006 0.39567 0.93849 0.0
H2480 H 0.05115 0.41632 0.96891 0.0
C2481 C 0.02057 0.46577 0.98742 0.0
C2482 C 0.03817 0.47655 0.98945 0.0
C2483 C 0.01646 0.4479 0.97751 0.0
C2484 C 0.03858 0.41091 0.96027 0.0
H2485 H 0.98473 0.32604 0.92221 0.0
H2486 H 0.98944 0.35766 0.93795 0.0
H2487 H 0.04528 0.38541 0.9515 0.0
H2488 H 0.06511 0.47736 0.98212 0.0
H2489 H 0.05788 0.44662 0.96443 0.0
H2490 H 0.99941 0.4213 0.94691 0.0
C2491 C 0.99963 0.35379 0.92986 0.0
C2492 C 0.03522 0.39317 0.95036 0.0
C2493 C 0.99699 0.33571 0.92094 0.0
C2494 C 0.05146 0.46931 0.98103 0.0
C2495 C 0.04733 0.45161 0.97096 0.0
C2496 C 0.00945 0.41355 0.94824 0.0
C2497 C 0.01556 0.36658 0.92889 0.0
C2498 C 0.01894 0.38541 0.93934 0.0
C2499 C 0.02985 0.44056 0.96928 0.0
C2500 C 0.02584 0.42142 0.95918 0.0
H2501 H 0.0362 0.33927 0.90147 0.0
H2502 H 0.04091 0.3708 0.91734 0.0
H2503 H 0.99336 0.38997 0.93001 0.0
H2504 H 0.01007 0.47099 0.99382 0.0
H2505 H 1.0029 0.43972 0.97665 0.0
C2506 C 0.03103 0.77949 0.17988 0.0
C2507 C 0.03391 0.78668 0.16394 0.0
C2508 C 0.01527 0.77955 0.18794 0.0
C2509 C 0.97757 0.80154 0.19156 0.0
H2510 H 0.95721 0.75919 0.21208 0.0
C2511 C 0.91247 0.79238 0.22858 0.0
C2512 C 0.91421 0.78663 0.24542 0.0
C2513 C 0.92612 0.79279 0.21708 0.0
C2514 C 0.96277 0.77112 0.20644 0.0
H2515 H 0.02257 0.79982 0.14405 0.0
H2516 H 0.99468 0.79978 0.1582 0.0
H2517 H 0.98236 0.75876 0.19406 0.0
H2518 H 0.93207 0.77759 0.26366 0.0
H2519 H 0.95558 0.77789 0.24342 0.0
H2520 H 0.95781 0.81384 0.20414 0.0
C2521 C 1.00479 0.79419 0.16445 0.0
C2522 C 0.97717 0.7709 0.19615 0.0
C2523 C 0.0207 0.79416 0.15632 0.0
C2524 C 0.93006 0.78167 0.25062 0.0
C2525 C 0.94357 0.78189 0.23907 0.0
C2526 C 0.96298 0.80169 0.20179 0.0
C2527 C 1.00187 0.7867 0.18026 0.0
C2528 C 0.98509 0.78629 0.18905 0.0
C2529 C 0.94165 0.78726 0.22212 0.0
C2530 C 0.9558 0.78665 0.20972 0.0
H2531 H 0.04098 0.77378 0.18623 0.0
H2532 H 0.01367 0.77409 0.20037 0.0
H2533 H 0.98342 0.81362 0.18632 0.0
H2534 H 0.90036 0.7961 0.22403 0.0
H2535 H 0.92432 0.79692 0.20404 0.0
C2536 C 0.53701 0.30209 0.10697 0.0
C2537 C 0.52388 0.30087 0.11918 0.0
C2538 C 0.53914 0.31542 0.09618 0.0
C2539 C 0.51691 0.34807 0.07827 0.0
H2540 H 0.56568 0.37121 0.07169 0.0
C2541 C 0.5366 0.41327 0.04717 0.0
C2542 C 0.54979 0.41372 0.03497 0.0
C2543 C 0.53222 0.3988 0.05647 0.0
C2544 C 0.55198 0.36473 0.07322 0.0
H2545 H 0.50246 0.3125 0.12947 0.0
H2546 H 0.50647 0.33624 0.11084 0.0
H2547 H 0.5604 0.34783 0.09035 0.0
H2548 H 0.56813 0.39885 0.02241 0.0
H2549 H 0.56066 0.3737 0.03889 0.0
H2550 H 0.50861 0.3654 0.06135 0.0
C2551 C 0.51495 0.32665 0.10945 0.0
C2552 C 0.54893 0.35131 0.0839 0.0
C2553 C 0.51271 0.31314 0.12019 0.0
C2554 C 0.55815 0.3991 0.03195 0.0
C2555 C 0.55385 0.38468 0.04135 0.0
C2556 C 0.51998 0.36164 0.06765 0.0
C2557 C 0.52833 0.32803 0.09744 0.0
C2558 C 0.53137 0.3427 0.08645 0.0
C2559 C 0.54103 0.38452 0.05389 0.0
C2560 C 0.53756 0.37 0.06494 0.0
H2561 H 0.54569 0.29269 0.10568 0.0
H2562 H 0.54928 0.31579 0.08678 0.0
H2563 H 0.50322 0.34158 0.07979 0.0
H2564 H 0.53008 0.42443 0.05005 0.0
H2565 H 0.52242 0.39912 0.06621 0.0
C2566 C 1.00218 0.25325 0.33275 0.0
C2567 C 0.02052 0.25457 0.33146 0.0
C2568 C 0.99053 0.25195 0.3172 0.0
C2569 C 0.99115 0.26953 0.27581 0.0
H2570 H 0.94133 0.24284 0.26796 0.0
C2571 C 0.93253 0.29971 0.25856 0.0
C2572 C 0.91708 0.28881 0.2476 0.0
C2573 C 0.94733 0.2926 0.26201 0.0
C2574 C 0.95529 0.25012 0.26959 0.0
H2575 H 0.04091 0.2545 0.31277 0.0
H2576 H 0.0205 0.2527 0.28556 0.0
H2577 H 0.96275 0.23324 0.28747 0.0
H2578 H 0.90596 0.26241 0.23011 0.0
H2579 H 0.93163 0.2498 0.23684 0.0
H2580 H 0.98341 0.28723 0.25904 0.0
C2581 C 0.01519 0.2525 0.29861 0.0
C2582 C 0.96751 0.24469 0.28086 0.0
C2583 C 0.02682 0.25347 0.31416 0.0
C2584 C 0.91742 0.27106 0.23902 0.0
C2585 C 0.93215 0.26385 0.24273 0.0
C2586 C 0.97889 0.27508 0.26471 0.0
C2587 C 0.99704 0.25221 0.30009 0.0
C2588 C 0.98536 0.25483 0.28469 0.0
C2589 C 0.94697 0.27437 0.25476 0.0
C2590 C 0.9607 0.26589 0.26215 0.0
H2591 H 0.99695 0.25397 0.34589 0.0
H2592 H 0.97664 0.25194 0.31879 0.0
H2593 H 1.00483 0.27766 0.27861 0.0
H2594 H 0.9328 0.31332 0.26563 0.0
H2595 H 0.95848 0.30098 0.27152 0.0
C2596 C 0.98052 0.67331 0.61644 0.0
C2597 C 0.98775 0.68879 0.60913 0.0
C2598 C 0.98191 0.65606 0.60795 0.0
C2599 C 0.99422 0.63045 0.56576 0.0
H2600 H 0.01419 0.60467 0.59937 0.0
C2601 C 0.03675 0.58029 0.54261 0.0
C2602 C 0.03301 0.56343 0.54838 0.0
C2603 C 0.02898 0.59421 0.55017 0.0
C2604 C 0.00839 0.61156 0.58984 0.0
H2605 H 1.00075 0.6981 0.58639 0.0
H2606 H 1.00332 0.66816 0.57176 0.0
H2607 H 1.00264 0.63097 0.61131 0.0
H2608 H 0.01876 0.54823 0.56717 0.0
H2609 H 1.00534 0.57278 0.58055 0.0
H2610 H 1.00063 0.61142 0.54432 0.0
C2611 C 0.99652 0.66926 0.58398 0.0
C2612 C 1.00168 0.62657 0.59665 0.0
C2613 C 0.99514 0.68648 0.59245 0.0
C2614 C 0.02193 0.56107 0.56245 0.0
C2615 C 0.01423 0.57509 0.57009 0.0
C2616 C 1.00101 0.61552 0.55897 0.0
C2617 C 0.9905 0.65396 0.59198 0.0
C2618 C 0.99493 0.63644 0.58469 0.0
C2619 C 0.01737 0.59163 0.56371 0.0
C2620 C 0.00856 0.60623 0.57095 0.0
H2621 H 0.97461 0.6746 0.6292 0.0
H2622 H 0.97686 0.64446 0.61425 0.0
H2623 H 0.98882 0.63758 0.5562 0.0
H2624 H 0.04527 0.5826 0.53186 0.0
H2625 H 0.03195 0.60698 0.54528 0.0
C2626 C 0.6259 0.8092 0.8497 0.0
C2627 C 0.62445 0.80127 0.86537 0.0
C2628 C 0.64178 0.81166 0.8415 0.0
C2629 C 0.67262 0.80495 0.82054 0.0
H2630 H 0.71857 0.82038 0.8502 0.0
C2631 C 0.7395 0.79996 0.792 0.0
C2632 C 0.75502 0.81334 0.79974 0.0
C2633 C 0.72314 0.80012 0.79895 0.0
C2634 C 0.70585 0.81631 0.8417 0.0
H2635 H 0.63859 0.78973 0.88474 0.0
H2636 H 0.66631 0.79375 0.87019 0.0
H2637 H 0.6911 0.8174 0.86496 0.0
H2638 H 0.76529 0.83814 0.81988 0.0
H2639 H 0.73664 0.83861 0.83171 0.0
H2640 H 0.68739 0.80414 0.79728 0.0
C2641 C 0.6552 0.79832 0.86444 0.0
C2642 C 0.69011 0.81433 0.85018 0.0
C2643 C 0.6393 0.79593 0.87272 0.0
C2644 C 0.75361 0.82751 0.81376 0.0
C2645 C 0.73723 0.82772 0.82063 0.0
C2646 C 0.68837 0.80699 0.81206 0.0
C2647 C 0.65658 0.80616 0.8487 0.0
C2648 C 0.67332 0.80852 0.8397 0.0
C2649 C 0.72194 0.81372 0.81368 0.0
C2650 C 0.70516 0.81259 0.82255 0.0
H2651 H 0.61477 0.8136 0.84374 0.0
H2652 H 0.6425 0.81802 0.82958 0.0
H2653 H 0.65989 0.80028 0.81208 0.0
H2654 H 0.74014 0.78884 0.7812 0.0
H2655 H 0.71164 0.78906 0.79336 0.0
C2656 C 0.4735 0.55016 0.72269 0.0
C2657 C 0.45605 0.55329 0.72338 0.0
C2658 C 0.48204 0.5492 0.70625 0.0
C2659 C 0.47257 0.54295 0.65395 0.0
H2660 H 0.52419 0.55781 0.65534 0.0
C2661 C 0.50893 0.53001 0.58671 0.0
C2662 C 0.52506 0.5422 0.58436 0.0
C2663 C 0.50091 0.53151 0.6034 0.0
C2664 C 0.50973 0.55362 0.65444 0.0
H2665 H 0.43432 0.55779 0.70613 0.0
H2666 H 0.44887 0.55612 0.678 0.0
H2667 H 0.51008 0.56027 0.68375 0.0
H2668 H 0.54505 0.56574 0.59894 0.0
H2669 H 0.53139 0.56824 0.62774 0.0
H2670 H 0.47217 0.53636 0.62468 0.0
C2671 C 0.45612 0.55427 0.69019 0.0
C2672 C 0.50149 0.55488 0.67105 0.0
C2673 C 0.44768 0.55541 0.70664 0.0
C2674 C 0.53277 0.55591 0.5998 0.0
C2675 C 0.52483 0.55731 0.6166 0.0
C2676 C 0.4808 0.5415 0.63738 0.0
C2677 C 0.47356 0.55109 0.68942 0.0
C2678 C 0.48263 0.54963 0.67135 0.0
C2679 C 0.50857 0.54521 0.6189 0.0
C2680 C 0.49965 0.54682 0.63705 0.0
H2681 H 0.48066 0.5483 0.73494 0.0
H2682 H 0.49528 0.54655 0.70674 0.0
H2683 H 0.45812 0.53849 0.65303 0.0
H2684 H 0.50227 0.51922 0.57547 0.0
H2685 H 0.48865 0.52161 0.60412 0.0
C2686 C 0.81979 0.15147 0.97499 0.0
C2687 C 0.80716 0.15338 0.98748 0.0
C2688 C 0.81994 0.15981 0.95962 0.0
C2689 C 0.79063 0.17751 0.92985 0.0
H2690 H 0.8345 0.20711 0.91782 0.0
C2691 C 0.79119 0.21353 0.86794 0.0
C2692 C 0.80008 0.23209 0.87161 0.0
C2693 C 0.79337 0.20235 0.88052 0.0
C2694 C 0.82215 0.19884 0.92099 0.0
H2695 H 0.78483 0.16557 0.99364 0.0
H2696 H 0.78504 0.17987 0.96698 0.0
H2697 H 0.83562 0.19042 0.94296 0.0
H2698 H 0.81887 0.25325 0.89097 0.0
H2699 H 0.82258 0.23378 0.91297 0.0
H2700 H 0.77706 0.18621 0.9083 0.0
C2701 C 0.79477 0.1719 0.96894 0.0
C2702 C 0.82283 0.18918 0.93527 0.0
C2703 C 0.79475 0.16379 0.98431 0.0
C2704 C 0.81167 0.23906 0.88785 0.0
C2705 C 0.81395 0.22785 0.90036 0.0
C2706 C 0.78998 0.18701 0.91551 0.0
C2707 C 0.8073 0.16997 0.95638 0.0
C2708 C 0.80701 0.17871 0.94008 0.0
C2709 C 0.8046 0.20944 0.89698 0.0
C2710 C 0.80568 0.19805 0.91111 0.0
H2711 H 0.82953 0.14354 0.97706 0.0
H2712 H 0.82973 0.15807 0.95013 0.0
H2713 H 0.77824 0.1694 0.93313 0.0
H2714 H 0.7821 0.20777 0.8556 0.0
H2715 H 0.78609 0.18818 0.87745 0.0
C2716 C 0.14581 0.48681 0.17525 0.0
C2717 C 0.13977 0.49764 0.18948 0.0
C2718 C 0.13464 0.47897 0.15905 0.0
C2719 C 0.08886 0.47283 0.13521 0.0
H2720 H 0.11581 0.49222 0.09803 0.0
C2721 C 0.05734 0.50006 0.07697 0.0
C2722 C 0.06597 0.50101 0.06111 0.0
C2723 C 0.06425 0.49266 0.09098 0.0
C2724 C 0.10799 0.48617 0.10791 0.0
H2725 H 0.11657 0.50671 0.19881 0.0
H2726 H 0.09729 0.49336 0.17052 0.0
H2727 H 0.13152 0.49002 0.12622 0.0
H2728 H 0.08728 0.49341 0.04642 0.0
H2729 H 0.09879 0.47963 0.07031 0.0
H2730 H 0.0652 0.46966 0.11696 0.0
C2731 C 0.11059 0.49088 0.1718 0.0
C2732 C 0.11709 0.48491 0.12419 0.0
C2733 C 0.12174 0.49869 0.188 0.0
C2734 C 0.08066 0.49317 0.05876 0.0
C2735 C 0.08727 0.48534 0.07249 0.0
C2736 C 0.0797 0.47392 0.11875 0.0
C2737 C 0.11727 0.48184 0.15681 0.0
C2738 C 0.10763 0.47886 0.13829 0.0
C2739 C 0.07968 0.48574 0.08913 0.0
C2740 C 0.08914 0.48124 0.10516 0.0
H2741 H 0.15954 0.48545 0.17607 0.0
H2742 H 0.14002 0.47175 0.14782 0.0
H2743 H 0.08123 0.46798 0.1458 0.0
H2744 H 0.04595 0.50603 0.07901 0.0
H2745 H 0.05811 0.49339 0.10362 0.0
C2746 C 0.80818 0.82991 0.48771 0.0
C2747 C 0.80368 0.84638 0.49454 0.0
C2748 C 0.80597 0.82297 0.46891 0.0
C2749 C 0.81219 0.81793 0.42905 0.0
H2750 H 0.77447 0.82502 0.39598 0.0
C2751 C 0.81611 0.80753 0.35132 0.0
C2752 C 0.80026 0.80021 0.3394 0.0
C2753 C 0.81552 0.81232 0.37014 0.0
C2754 C 0.785 0.82271 0.405 0.0
H2755 H 0.79282 0.86822 0.48695 0.0
H2756 H 0.78937 0.85641 0.45417 0.0
H2757 H 0.77432 0.83399 0.42884 0.0
H2758 H 0.77127 0.79212 0.3381 0.0
H2759 H 0.77025 0.80007 0.371 0.0
H2760 H 0.82263 0.80623 0.40533 0.0
C2761 C 0.7943 0.8486 0.46332 0.0
C2762 C 0.78504 0.82811 0.4239 0.0
C2763 C 0.79634 0.85544 0.48216 0.0
C2764 C 0.78376 0.79775 0.34685 0.0
C2765 C 0.78317 0.80243 0.36574 0.0
C2766 C 0.81208 0.81244 0.4102 0.0
C2767 C 0.7994 0.83243 0.45638 0.0
C2768 C 0.79873 0.82593 0.43622 0.0
C2769 C 0.79906 0.80979 0.37768 0.0
C2770 C 0.7986 0.81493 0.39786 0.0
H2771 H 0.81374 0.8225 0.49687 0.0
H2772 H 0.80963 0.81026 0.46422 0.0
H2773 H 0.82313 0.81623 0.43797 0.0
H2774 H 0.82907 0.80979 0.34611 0.0
H2775 H 0.82803 0.81828 0.37875 0.0
C2776 C 0.48146 0.53094 0.83162 0.0
C2777 C 0.47134 0.5439 0.82939 0.0
C2778 C 0.48956 0.52999 0.84902 0.0
C2779 C 0.48865 0.54526 0.90046 0.0
H2780 H 0.53279 0.52925 0.90446 0.0
C2781 C 0.52565 0.5462 0.97304 0.0
C2782 C 0.53689 0.53421 0.97516 0.0
C2783 C 0.51798 0.5475 0.95559 0.0
C2784 C 0.52032 0.53352 0.90386 0.0
H2785 H 0.46215 0.56609 0.84467 0.0
H2786 H 0.47612 0.56455 0.87462 0.0
H2787 H 0.51934 0.5312 0.87464 0.0
H2788 H 0.54852 0.51409 0.95957 0.0
H2789 H 0.5351 0.51597 0.92958 0.0
H2790 H 0.48946 0.54741 0.92959 0.0
C2791 C 0.47777 0.55488 0.86291 0.0
C2792 C 0.51248 0.53469 0.88642 0.0
C2793 C 0.46977 0.55589 0.84548 0.0
C2794 C 0.54008 0.52359 0.95886 0.0
C2795 C 0.53234 0.5248 0.94139 0.0
C2796 C 0.49643 0.544 0.91789 0.0
C2797 C 0.48788 0.54187 0.86521 0.0
C2798 C 0.49642 0.54062 0.88419 0.0
C2799 C 0.52103 0.5368 0.93919 0.0
C2800 C 0.51253 0.53812 0.92016 0.0
H2801 H 0.48305 0.5213 0.81984 0.0
H2802 H 0.49688 0.51956 0.84974 0.0
H2803 H 0.47621 0.5496 0.89979 0.0
H2804 H 0.52276 0.5548 0.98498 0.0
H2805 H 0.50979 0.55723 0.95507 0.0
C2806 C 0.81274 0.14699 0.10267 0.0
C2807 C 0.8176 0.15314 0.08658 0.0
C2808 C 0.81164 0.15942 0.11838 0.0
C2809 C 0.82602 0.20752 0.14154 0.0
H2810 H 0.78114 0.19761 0.16286 0.0
C2811 C 0.80912 0.26046 0.19882 0.0
C2812 C 0.79955 0.25377 0.2126 0.0
C2813 C 0.81127 0.24854 0.18311 0.0
C2814 C 0.7939 0.20053 0.15735 0.0
H2815 H 0.82608 0.17723 0.07474 0.0
H2816 H 0.82462 0.19888 0.1023 0.0
H2817 H 0.78639 0.17588 0.13729 0.0
H2818 H 0.78476 0.22919 0.2206 0.0
H2819 H 0.78891 0.20858 0.19379 0.0
H2820 H 0.83379 0.23193 0.16183 0.0
C2821 C 0.82147 0.18445 0.10269 0.0
C2822 C 0.79687 0.18803 0.14262 0.0
C2823 C 0.82227 0.17203 0.08689 0.0
C2824 C 0.792 0.23493 0.21018 0.0
C2825 C 0.79434 0.22303 0.19466 0.0
C2826 C 0.82318 0.21992 0.15649 0.0
C2827 C 0.8157 0.17827 0.11846 0.0
C2828 C 0.81294 0.19137 0.13453 0.0
C2829 C 0.80411 0.22959 0.18091 0.0
C2830 C 0.80705 0.21662 0.16464 0.0
H2831 H 0.80897 0.13254 0.10288 0.0
H2832 H 0.80732 0.15427 0.1304 0.0
H2833 H 0.83858 0.21043 0.13563 0.0
H2834 H 0.81514 0.27488 0.20023 0.0
H2835 H 0.81859 0.25423 0.17273 0.0
C2836 C 0.13821 0.56217 0.28543 0.0
C2837 C 0.1527 0.55426 0.28176 0.0
C2838 C 0.13338 0.56529 0.30313 0.0
C2839 C 0.13615 0.54851 0.34611 0.0
H2840 H 0.11667 0.58983 0.3642 0.0
C2841 C 0.10615 0.55573 0.41487 0.0
C2842 C 0.08904 0.55941 0.41388 0.0
C2843 C 0.11671 0.55761 0.40049 0.0
C2844 C 0.1221 0.57824 0.35932 0.0
H2845 H 0.1739 0.544 0.29385 0.0
H2846 H 0.16552 0.54962 0.32488 0.0
H2847 H 0.1306 0.58878 0.33575 0.0
H2848 H 0.06973 0.56821 0.39713 0.0
H2849 H 0.08819 0.57163 0.37216 0.0
H2850 H 0.12729 0.53779 0.36947 0.0
C2851 C 0.15775 0.55316 0.31399 0.0
C2852 C 0.13003 0.57761 0.34304 0.0
C2853 C 0.16258 0.54999 0.29624 0.0
C2854 C 0.08294 0.56551 0.39844 0.0
C2855 C 0.09352 0.56748 0.38413 0.0
C2856 C 0.12828 0.54918 0.36243 0.0
C2857 C 0.14296 0.56063 0.31758 0.0
C2858 C 0.13673 0.56251 0.33601 0.0
C2859 C 0.1104 0.56333 0.38491 0.0
C2860 C 0.12078 0.56383 0.36895 0.0
H2861 H 0.13034 0.56562 0.27456 0.0
H2862 H 0.12174 0.5708 0.30536 0.0
H2863 H 0.14098 0.53659 0.34097 0.0
H2864 H 0.11138 0.55134 0.42673 0.0
H2865 H 0.12976 0.55451 0.40152 0.0
C2866 C 0.80007 0.87636 0.61426 0.0
C2867 C 0.80258 0.8645 0.59861 0.0
C2868 C 0.79885 0.8707 0.6311 0.0
C2869 C 0.81059 0.83601 0.65594 0.0
H2870 H 0.78005 0.85335 0.69059 0.0
C2871 C 0.80015 0.80847 0.72277 0.0
C2872 C 0.80054 0.82114 0.73889 0.0
C2873 C 0.79976 0.81369 0.70572 0.0
C2874 C 0.78877 0.84853 0.68114 0.0
H2875 H 0.80525 0.83712 0.58843 0.0
H2876 H 0.80271 0.82709 0.61768 0.0
H2877 H 0.77988 0.86193 0.66056 0.0
H2878 H 0.8006 0.84929 0.74953 0.0
H2879 H 0.79985 0.85839 0.71965 0.0
H2880 H 0.81936 0.8225 0.67648 0.0
C2881 C 0.80207 0.84095 0.61703 0.0
C2882 C 0.7887 0.85345 0.66388 0.0
C2883 C 0.80338 0.84665 0.60018 0.0
C2884 C 0.80028 0.83916 0.73744 0.0
C2885 C 0.79978 0.84436 0.72029 0.0
C2886 C 0.81057 0.83101 0.67313 0.0
C2887 C 0.80002 0.85298 0.6328 0.0
C2888 C 0.79964 0.8473 0.65104 0.0
C2889 C 0.79967 0.83171 0.70423 0.0
C2890 C 0.79969 0.83721 0.68597 0.0
H2891 H 0.79946 0.89024 0.61366 0.0
H2892 H 0.79753 0.88047 0.6429 0.0
H2893 H 0.81949 0.83129 0.64664 0.0
H2894 H 0.8003 0.79446 0.72328 0.0
H2895 H 0.79942 0.80352 0.69364 0.0
C2896 C 0.7197 0.48088 0.50918 0.0
C2897 C 0.73371 0.48646 0.52356 0.0
C2898 C 0.70332 0.48602 0.51092 0.0
C2899 C 0.68146 0.51847 0.54017 0.0
H2900 H 0.63762 0.48497 0.51604 0.0
C2901 C 0.61278 0.53899 0.53954 0.0
C2902 C 0.59683 0.52549 0.53886 0.0
C2903 C 0.62942 0.53438 0.53818 0.0
C2904 C 0.64964 0.49448 0.52311 0.0
H2905 H 0.74121 0.502 0.5511 0.0
H2906 H 0.71283 0.51059 0.5543 0.0
H2907 H 0.66616 0.47685 0.51268 0.0
H2908 H 0.58631 0.49642 0.53666 0.0
H2909 H 0.61519 0.48848 0.53491 0.0
H2910 H 0.6649 0.53582 0.55114 0.0
C2911 C 0.71448 0.50256 0.54143 0.0
C2912 C 0.66621 0.48991 0.52091 0.0
C2913 C 0.73088 0.49753 0.53963 0.0
C2914 C 0.5982 0.50726 0.53725 0.0
C2915 C 0.61487 0.50267 0.53602 0.0
C2916 C 0.66489 0.52299 0.54247 0.0
C2917 C 0.7003 0.49682 0.52717 0.0
C2918 C 0.68248 0.50182 0.52937 0.0
C2919 C 0.6308 0.5161 0.53619 0.0
C2920 C 0.64862 0.51111 0.53397 0.0
H2921 H 0.72131 0.47235 0.49659 0.0
H2922 H 0.69304 0.48152 0.49943 0.0
H2923 H 0.69353 0.52824 0.54679 0.0
H2924 H 0.61239 0.55316 0.54054 0.0
H2925 H 0.64114 0.54522 0.53811 0.0
C2926 C 0.226 0.15966 0.50284 0.0
C2927 C 0.24175 0.15337 0.50447 0.0
C2928 C 0.20921 0.14782 0.50234 0.0
C2929 C 0.18453 0.09969 0.49397 0.0
H2930 H 0.15434 0.11703 0.52896 0.0
C2931 C 0.12022 0.05271 0.51205 0.0
C2932 C 0.10601 0.06067 0.51685 0.0
C2933 C 0.13656 0.06354 0.50888 0.0
C2934 C 0.16237 0.11202 0.51884 0.0
H2935 H 0.25212 0.12945 0.50589 0.0
H2936 H 0.22272 0.10874 0.50477 0.0
H2937 H 0.1829 0.13673 0.52564 0.0
H2938 H 0.09734 0.08597 0.52093 0.0
H2939 H 0.12534 0.10463 0.51473 0.0
H2940 H 0.16386 0.07503 0.48696 0.0
C2941 C 0.22343 0.12287 0.50398 0.0
C2942 C 0.17881 0.12335 0.51701 0.0
C2943 C 0.24026 0.13476 0.50471 0.0
C2944 C 0.10817 0.07948 0.51761 0.0
C2945 C 0.12431 0.09021 0.51416 0.0
C2946 C 0.1679 0.08839 0.49562 0.0
C2947 C 0.20776 0.12938 0.50323 0.0
C2948 C 0.19008 0.11732 0.50458 0.0
C2949 C 0.13891 0.08251 0.51018 0.0
C2950 C 0.15659 0.09442 0.5081 0.0
H2951 H 0.22663 0.17388 0.5026 0.0
H2952 H 0.19733 0.15316 0.50156 0.0
H2953 H 0.19294 0.09472 0.48423 0.0
H2954 H 0.11894 0.03824 0.5114 0.0
H2955 H 0.1475 0.05711 0.506 0.0
C2956 C 0.22849 0.96108 0.75502 0.0
C2957 C 0.21731 0.96596 0.76843 0.0
C2958 C 0.23592 0.94541 0.75439 0.0
C2959 C 0.23349 0.90117 0.77478 0.0
H2960 H 0.2751 0.89809 0.74927 0.0
C2961 C 0.26153 0.83333 0.76673 0.0
C2962 C 0.27949 0.83351 0.76326 0.0
C2963 C 0.25418 0.84902 0.76722 0.0
C2964 C 0.26354 0.89842 0.75667 0.0
H2965 H 0.2057 0.95693 0.79186 0.0
H2966 H 0.2185 0.93033 0.791 0.0
H2967 H 0.26284 0.92489 0.7507 0.0
H2968 H 0.30344 0.85178 0.75765 0.0
H2969 H 0.29102 0.87864 0.7586 0.0
H2970 H 0.2344 0.87489 0.78107 0.0
C2971 C 0.22151 0.93843 0.78057 0.0
C2972 C 0.25617 0.91414 0.75731 0.0
C2973 C 0.21408 0.9541 0.78119 0.0
C2974 C 0.28959 0.85049 0.76026 0.0
C2975 C 0.28224 0.86622 0.76075 0.0
C2976 C 0.24084 0.88546 0.77411 0.0
C2977 C 0.23272 0.93344 0.76713 0.0
C2978 C 0.24084 0.91615 0.7664 0.0
C2979 C 0.26425 0.86613 0.76431 0.0
C2980 C 0.25617 0.88344 0.76503 0.0
H2981 H 0.23151 0.96942 0.74476 0.0
H2982 H 0.24407 0.94264 0.74351 0.0
H2983 H 0.2217 0.90132 0.78185 0.0
H2984 H 0.25295 0.82089 0.76916 0.0
H2985 H 0.24031 0.84749 0.76976 0.0
C2986 C 0.34086 0.98621 0.03365 0.0
C2987 C 0.33049 0.97935 0.01667 0.0
C2988 C 0.35969 0.99169 0.03473 0.0
C2989 C 0.39745 0.98592 1.00609 0.0
H2990 H 0.42686 0.02032 0.0467 0.0
C2991 C 0.4743 0.01341 1.00672 0.0
C2992 C 0.4852 0.01278 0.02239 0.0
C2993 C 0.45557 0.00979 1.00641 0.0
C2994 C 0.41881 0.0106 0.03531 0.0
H2995 H 0.3317 0.97393 0.98748 0.0
H2996 H 0.36405 0.98467 0.98913 0.0
H2997 H 0.39421 0.0146 0.04519 0.0
H2998 H 0.48476 0.00814 0.05022 0.0
H2999 H 0.45203 1.00228 0.04982 0.0
H3000 H 0.42215 0.98246 0.99598 0.0
C3001 C 0.358 0.98504 1.0018 0.0
C3002 C 0.4 1.00722 0.03444 0.0
C3003 C 0.33929 0.97917 1.00078 0.0
C3004 C 0.47681 0.00862 0.03786 0.0
C3005 C 0.45806 1.00539 0.03768 0.0
C3006 C 0.4162 0.98958 1.00679 0.0
C3007 C 0.36867 0.99075 0.0188 0.0
C3008 C 0.38891 0.9948 0.01979 0.0
C3009 C 0.44718 1.00582 0.02191 0.0
C3010 C 0.42716 1.00193 0.02141 0.0
H3011 H 0.33452 0.98618 0.04616 0.0
H3012 H 0.36718 0.99579 0.04813 0.0
H3013 H 0.3897 0.97582 0.99483 0.0
H3014 H 0.48025 0.01655 0.99455 0.0
H3015 H 0.44763 0.01033 0.99407 0.0
C3016 C 0.86529 0.57626 0.78129 0.0
C3017 C 0.87911 0.5776 0.79508 0.0
C3018 C 0.85481 0.58897 0.78254 0.0
C3019 C 0.85471 0.63558 0.80494 0.0
H3020 H 0.80451 0.62035 0.78554 0.0
C3021 C 0.81008 0.68663 0.80429 0.0
C3022 C 0.80147 0.68601 0.78689 0.0
C3023 C 0.81777 0.67249 0.80771 0.0
C3024 C 0.81849 0.62476 0.79104 0.0
H3025 H 0.89269 0.59321 0.82113 0.0
H3026 H 0.87407 0.61536 0.82352 0.0
H3027 H 0.82175 0.59746 0.78746 0.0
H3028 H 0.7935 0.66961 0.75971 0.0
H3029 H 0.80657 0.64475 0.76586 0.0
H3030 H 0.85139 0.66291 0.8084 0.0
C3031 C 0.87156 0.60461 0.81158 0.0
C3032 C 0.82841 0.6117 0.79206 0.0
C3033 C 0.88219 0.59191 0.81024 0.0
C3034 C 0.79984 0.67045 0.77331 0.0
C3035 C 0.80737 0.65622 0.77681 0.0
C3036 C 0.84473 0.64863 0.80408 0.0
C3037 C 0.85774 0.60327 0.79772 0.0
C3038 C 0.84675 0.61698 0.7986 0.0
C3039 C 0.81678 0.65733 0.7939 0.0
C3040 C 0.82665 0.64336 0.79676 0.0
H3041 H 0.86265 0.56545 0.76936 0.0
H3042 H 0.84459 0.58775 0.77141 0.0
H3043 H 0.86883 0.64016 0.80984 0.0
H3044 H 0.81122 0.69823 0.81518 0.0
H3045 H 0.82474 0.67353 0.82108 0.0
C3046 C 0.84073 0.64042 0.03773 0.0
C3047 C 0.8397 0.65189 0.02504 0.0
C3048 C 0.85412 0.63078 0.03782 0.0
C3049 C 0.89886 0.62978 0.02309 0.0
H3050 H 0.88663 0.58054 0.03263 0.0
C3051 C 0.94877 0.58261 0.01987 0.0
C3052 C 0.94871 0.57199 0.03354 0.0
C3053 C 0.93581 0.59268 0.01825 0.0
C3054 C 0.89032 0.59434 0.03013 0.0
H3055 H 0.85203 0.66221 1.00247 0.0
H3056 H 0.87543 0.64515 1.00249 0.0
H3057 H 0.86331 0.59715 0.0303 0.0
H3058 H 0.93529 0.56426 0.05665 0.0
H3059 H 0.91272 0.5817 0.05376 0.0
H3060 H 0.92593 0.62686 0.02292 0.0
C3061 C 0.86592 0.64379 0.01251 0.0
C3062 C 0.87694 0.60388 0.02878 0.0
C3063 C 0.85245 0.65349 0.01242 0.0
C3064 C 0.93555 0.57198 0.04574 0.0
C3065 C 0.92259 0.58199 0.04408 0.0
C3066 C 0.91227 0.62018 0.02439 0.0
C3067 C 0.86687 0.63226 0.02519 0.0
C3068 C 0.88105 0.62181 0.02548 0.0
C3069 C 0.92244 0.59233 0.03022 0.0
C3070 C 0.90819 0.60242 0.02815 0.0
H3071 H 0.83121 0.63892 0.04774 0.0
H3072 H 0.85461 0.62233 0.04801 0.0
H3073 H 0.90254 0.64362 0.02071 0.0
H3074 H 0.95854 0.58277 0.01009 0.0
H3075 H 0.93598 0.60037 1.00732 0.0
C3076 C 0.2084 0.08827 0.79803 0.0
C3077 C 0.21315 0.07336 0.78722 0.0
C3078 C 0.21659 0.10667 0.7974 0.0
C3079 C 0.25558 0.13752 0.77923 0.0
H3080 H 0.22842 0.1738 0.79207 0.0
C3081 C 0.288 0.21648 0.78304 0.0
C3082 C 0.2771 0.22873 0.7806 0.0
C3083 C 0.2806 0.19785 0.78374 0.0
C3084 C 0.23637 0.16406 0.7882 0.0
H3085 H 0.23096 0.06719 0.76713 0.0
H3086 H 0.24507 0.09893 0.76585 0.0
H3087 H 0.21545 0.14214 0.79297 0.0
H3088 H 0.24927 0.22989 0.77684 0.0
H3089 H 0.23651 0.19792 0.77767 0.0
H3090 H 0.27629 0.15946 0.7739 0.0
C3091 C 0.23505 0.09646 0.7752 0.0
C3092 C 0.22888 0.14551 0.78902 0.0
C3093 C 0.22687 0.07795 0.77592 0.0
C3094 C 0.25837 0.22128 0.77883 0.0
C3095 C 0.25096 0.20264 0.77946 0.0
C3096 C 0.26307 0.15611 0.77836 0.0
C3097 C 0.22999 0.11142 0.78576 0.0
C3098 C 0.23825 0.13162 0.78464 0.0
C3099 C 0.26183 0.19031 0.78198 0.0
C3100 C 0.25371 0.17 0.78284 0.0
H3101 H 0.19801 0.08577 0.80701 0.0
H3102 H 0.21228 0.11722 0.80625 0.0
H3103 H 0.26366 0.12781 0.77581 0.0
H3104 H 0.30245 0.22131 0.78455 0.0
H3105 H 0.28982 0.18944 0.78598 0.0
C3106 C 0.36072 0.97248 0.31687 0.0
C3107 C 0.37823 0.98183 0.32427 0.0
C3108 C 0.3537 0.9548 0.3195 0.0
C3109 C 0.36956 0.91482 0.32702 0.0
H3110 H 0.31862 0.89403 0.3255 0.0
C3111 C 0.33647 0.84161 0.29198 0.0
C3112 C 0.32101 0.83207 0.29824 0.0
C3113 C 0.34455 0.85956 0.30032 0.0
C3114 C 0.33294 0.89957 0.32631 0.0
H3115 H 0.4016 0.98049 0.34146 0.0
H3116 H 0.38921 0.94966 0.34628 0.0
H3117 H 0.32992 0.92696 0.33231 0.0
H3118 H 0.30251 0.83347 0.31883 0.0
H3119 H 0.31681 0.86474 0.33356 0.0
H3120 H 0.37256 0.88744 0.32085 0.0
C3121 C 0.38107 0.95588 0.3381 0.0
C3122 C 0.33938 0.91848 0.32999 0.0
C3123 C 0.38813 0.97357 0.33539 0.0
C3124 C 0.31429 0.84054 0.31355 0.0
C3125 C 0.32245 0.85848 0.32196 0.0
C3126 C 0.36314 0.89592 0.32347 0.0
C3127 C 0.36399 0.94609 0.3297 0.0
C3128 C 0.35767 0.92631 0.32966 0.0
C3129 C 0.33744 0.86833 0.31518 0.0
C3130 C 0.34467 0.88809 0.32235 0.0
H3131 H 0.35269 0.97846 0.3083 0.0
H3132 H 0.34059 0.94762 0.31264 0.0
H3133 H 0.38372 0.92036 0.32657 0.0
H3134 H 0.34198 0.83547 0.28022 0.0
H3135 H 0.3559 0.86681 0.29454 0.0
C3136 C 0.59649 0.32566 0.58198 0.0
C3137 C 0.58505 0.31947 0.59467 0.0
C3138 C 0.59063 0.33448 0.56869 0.0
C3139 C 0.55004 0.34291 0.54552 0.0
H3140 H 0.58247 0.38784 0.54001 0.0
C3141 C 0.52688 0.40202 0.52144 0.0
C3142 C 0.5382 0.41349 0.51201 0.0
C3143 C 0.53211 0.38734 0.52709 0.0
C3144 C 0.57337 0.37512 0.541 0.0
H3145 H 0.55837 0.31734 0.60315 0.0
H3146 H 0.54823 0.33305 0.5801 0.0
H3147 H 0.59267 0.36846 0.55894 0.0
H3148 H 0.56321 0.41761 0.49978 0.0
H3149 H 0.57237 0.39187 0.50969 0.0
H3150 H 0.53055 0.34996 0.528 0.0
C3151 C 0.56165 0.33084 0.58028 0.0
C3152 C 0.57921 0.36402 0.55193 0.0
C3153 C 0.56751 0.32198 0.59358 0.0
C3154 C 0.55433 0.4092 0.50728 0.0
C3155 C 0.55958 0.39448 0.51296 0.0
C3156 C 0.5442 0.35402 0.53455 0.0
C3157 C 0.57322 0.33735 0.56781 0.0
C3158 C 0.56749 0.34801 0.55465 0.0
C3159 C 0.54879 0.38378 0.52347 0.0
C3160 C 0.55568 0.37047 0.53253 0.0
H3161 H 0.61004 0.32379 0.58235 0.0
H3162 H 0.59978 0.33914 0.55914 0.0
H3163 H 0.54081 0.33049 0.5471 0.0
H3164 H 0.51449 0.40506 0.52557 0.0
H3165 H 0.52358 0.37954 0.53536 0.0
C3166 C 0.46293 0.77051 0.33021 0.0
C3167 C 0.46694 0.76888 0.34838 0.0
C3168 C 0.44675 0.76062 0.32032 0.0
C3169 C 0.40153 0.7458 0.33039 0.0
H3170 H 0.39204 0.7325 0.27764 0.0
C3171 C 0.33397 0.74739 0.29601 0.0
C3172 C 0.33523 0.75711 0.28161 0.0
C3173 C 0.34839 0.74081 0.302 0.0
C3174 C 0.39444 0.7361 0.29239 0.0
H3175 H 0.45802 0.75435 0.3699 0.0
H3176 H 0.4295 0.73714 0.35259 0.0
H3177 H 0.4219 0.73449 0.29244 0.0
H3178 H 0.35203 0.76661 0.26141 0.0
H3179 H 0.37756 0.75591 0.27236 0.0
H3180 H 0.37473 0.74885 0.33046 0.0
C3181 C 0.43888 0.74616 0.34607 0.0
C3182 C 0.41149 0.73712 0.30085 0.0
C3183 C 0.45518 0.756 0.35596 0.0
C3184 C 0.35075 0.75921 0.27259 0.0
C3185 C 0.36532 0.7529 0.27879 0.0
C3186 C 0.38458 0.7449 0.32195 0.0
C3187 C 0.43419 0.74898 0.32844 0.0
C3188 C 0.4154 0.7428 0.31987 0.0
C3189 C 0.3645 0.74412 0.29394 0.0
C3190 C 0.38105 0.74085 0.3028 0.0
H3191 H 0.47186 0.78017 0.32393 0.0
H3192 H 0.44351 0.76323 0.30683 0.0
H3193 H 0.40414 0.75043 0.34504 0.0
H3194 H 0.32196 0.74521 0.30294 0.0
H3195 H 0.34713 0.73372 0.3134 0.0
C3196 C 0.09597 0.72776 0.09769 0.0
C3197 C 0.08567 0.73379 0.11121 0.0
C3198 C 0.09436 0.70914 0.09165 0.0
C3199 C 0.06308 0.66464 0.08865 0.0
H3200 H 0.10498 0.64555 0.07979 0.0
C3201 C 0.0574 0.58776 0.06685 0.0
C3202 C 0.06706 0.58272 0.05232 0.0
C3203 C 0.0606 0.60594 0.07562 0.0
C3204 C 0.09315 0.6507 0.0821 0.0
H3205 H 0.06573 0.72496 0.12912 0.0
H3206 H 0.06301 0.69255 0.11861 0.0
H3207 H 0.10869 0.67798 0.09179 0.0
H3208 H 0.08809 0.59276 0.03603 0.0
H3209 H 0.0935 0.62443 0.05119 0.0
H3210 H 0.0475 0.63749 0.07871 0.0
C3211 C 0.07219 0.70222 0.11256 0.0
C3212 C 0.09528 0.66926 0.08894 0.0
C3213 C 0.07382 0.7208 0.11863 0.0
C3214 C 0.08039 0.59615 0.04716 0.0
C3215 C 0.08358 0.61432 0.05593 0.0
C3216 C 0.06095 0.64611 0.08178 0.0
C3217 C 0.08239 0.69619 0.09896 0.0
C3218 C 0.08025 0.67643 0.09218 0.0
C3219 C 0.07353 0.61946 0.07006 0.0
C3220 C 0.07595 0.63896 0.07832 0.0
H3221 H 0.10522 0.73741 0.0917 0.0
H3222 H 0.10225 0.70489 0.081 0.0
H3223 H 0.05123 0.66982 0.09076 0.0
H3224 H 0.04709 0.57774 0.07123 0.0
H3225 H 0.05283 0.60945 0.08666 0.0
C3226 C 0.07222 0.31628 0.85574 0.0
C3227 C 0.06451 0.29826 0.84678 0.0
C3228 C 0.08784 0.32627 0.85024 0.0
C3229 C 0.11651 0.32684 0.81223 0.0
H3230 H 0.15597 0.34738 0.85039 0.0
C3231 C 0.18782 0.34353 0.79307 0.0
C3232 C 0.19904 0.33504 0.80241 0.0
C3233 C 0.17198 0.34633 0.79991 0.0
C3234 C 0.14505 0.34187 0.83958 0.0
H3235 H 0.06667 0.27685 0.82462 0.0
H3236 H 0.09375 0.29415 0.8151 0.0
H3237 H 0.12564 0.33747 0.8586 0.0
H3238 H 0.20314 0.32416 0.82694 0.0
H3239 H 0.17565 0.32887 0.83874 0.0
H3240 H 0.13593 0.3299 0.79322 0.0
C3241 C 0.08775 0.30068 0.82627 0.0
C3242 C 0.12766 0.33635 0.84428 0.0
C3243 C 0.0723 0.29068 0.83184 0.0
C3244 C 0.1949 0.33088 0.81947 0.0
C3245 C 0.17907 0.33362 0.82627 0.0
C3246 C 0.13386 0.33231 0.80754 0.0
C3247 C 0.09585 0.31848 0.83555 0.0
C3248 C 0.11335 0.32803 0.83065 0.0
C3249 C 0.16704 0.34062 0.81618 0.0
C3250 C 0.14846 0.33916 0.82117 0.0
H3251 H 0.06648 0.32248 0.8673 0.0
H3252 H 0.09376 0.33998 0.8576 0.0
H3253 H 0.10568 0.32075 0.80143 0.0
H3254 H 0.19083 0.34718 0.78004 0.0
H3255 H 0.16317 0.3521 0.79199 0.0
C3256 C 0.55658 0.7354 0.92018 0.0
C3257 C 0.57083 0.75049 0.92737 0.0
C3258 C 0.55133 0.72154 0.93016 0.0
C3259 C 0.55355 0.71268 0.97719 0.0
H3260 H 0.54616 0.662 0.95403 0.0
C3261 C 0.55378 0.65555 0.01829 0.0
C3262 C 0.54232 0.63831 0.01164 0.0
C3263 C 0.55505 0.6694 0.00808 0.0
C3264 C 0.54785 0.67606 0.96066 0.0
H3265 H 0.5908 0.76281 0.95062 0.0
H3266 H 0.58169 0.73873 0.96789 0.0
H3267 H 0.55248 0.68573 0.93568 0.0
H3268 H 0.52257 0.62231 0.9895 0.0
H3269 H 0.52464 0.64656 0.97175 0.0
H3270 H 0.54909 0.70311 1.00218 0.0
C3271 C 0.57445 0.73766 0.95465 0.0
C3272 C 0.5515 0.68965 0.95013 0.0
C3273 C 0.57975 0.75139 0.94467 0.0
C3274 C 0.53172 0.63539 0.99485 0.0
C3275 C 0.53294 0.64926 0.98467 0.0
C3276 C 0.54982 0.69912 0.98769 0.0
C3277 C 0.56014 0.72263 0.94757 0.0
C3278 C 0.55472 0.70811 0.95836 0.0
C3279 C 0.54483 0.66634 0.99103 0.0
C3280 C 0.54724 0.68066 0.97962 0.0
H3281 H 0.54943 0.73433 0.9069 0.0
H3282 H 0.54022 0.71013 0.92439 0.0
H3283 H 0.55565 0.7268 0.98384 0.0
H3284 H 0.5623 0.65814 0.03105 0.0
H3285 H 0.56455 0.6823 0.01328 0.0
C3286 C 0.04456 0.75064 0.69448 0.0
C3287 C 0.04458 0.755 0.67693 0.0
C3288 C 0.06057 0.75412 0.70585 0.0
C3289 C 0.10812 0.77971 0.71237 0.0
H3290 H 0.11581 0.73946 0.73468 0.0
C3291 C 0.17811 0.77091 0.73417 0.0
C3292 C 0.18074 0.76397 0.75013 0.0
C3293 C 0.16106 0.7721 0.72777 0.0
C3294 C 0.11378 0.75097 0.72885 0.0
H3295 H 0.06136 0.76704 0.65783 0.0
H3296 H 0.08928 0.77288 0.67757 0.0
H3297 H 0.08656 0.73763 0.71892 0.0
H3298 H 0.16767 0.75342 0.77225 0.0
H3299 H 0.13777 0.75542 0.76096 0.0
H3300 H 0.13554 0.7928 0.72187 0.0
C3301 C 0.07687 0.76696 0.68262 0.0
C3302 C 0.09701 0.74992 0.71982 0.0
C3303 C 0.06087 0.76348 0.67125 0.0
C3304 C 0.166 0.75858 0.75976 0.0
C3305 C 0.14892 0.75976 0.75333 0.0
C3306 C 0.1249 0.78075 0.7214 0.0
C3307 C 0.07692 0.76206 0.69993 0.0
C3308 C 0.09411 0.76412 0.71117 0.0
C3309 C 0.14625 0.76636 0.73716 0.0
C3310 C 0.12799 0.76623 0.72941 0.0
H3311 H 0.03223 0.74422 0.69933 0.0
H3312 H 0.06018 0.75042 0.71921 0.0
H3313 H 0.10618 0.79098 0.70608 0.0
H3314 H 0.18914 0.7749 0.72628 0.0
H3315 H 0.15939 0.77694 0.71509 0.0
C3316 C 0.03213 0.33548 0.40375 0.0
C3317 C 0.04803 0.32943 0.40394 0.0
C3318 C 0.0324 0.35363 0.41065 0.0
C3319 C 0.0632 0.39975 0.4272 0.0
H3320 H 0.02235 0.4083 0.45205 0.0
C3321 C 0.06193 0.46346 0.48118 0.0
C3322 C 0.04783 0.47188 0.47812 0.0
C3323 C 0.06258 0.44716 0.46992 0.0
C3324 C 0.03374 0.40611 0.44497 0.0
H3325 H 0.07676 0.33753 0.41121 0.0
H3326 H 0.07724 0.36907 0.4243 0.0
H3327 H 0.02238 0.37759 0.43713 0.0
H3328 H 0.02354 0.47013 0.46076 0.0
H3329 H 0.02435 0.44115 0.44143 0.0
H3330 H 0.07489 0.42836 0.43627 0.0
C3331 C 0.06456 0.36003 0.41825 0.0
C3332 C 0.03377 0.38852 0.43629 0.0
C3333 C 0.06431 0.34192 0.41088 0.0
C3334 C 0.03457 0.46392 0.46338 0.0
C3335 C 0.035 0.44739 0.45237 0.0
C3336 C 0.06332 0.41731 0.43627 0.0
C3337 C 0.04855 0.36609 0.41841 0.0
C3338 C 0.04849 0.38505 0.42726 0.0
C3339 C 0.04893 0.43883 0.45567 0.0
C3340 C 0.04858 0.42059 0.4452 0.0
H3341 H 0.01941 0.32617 0.39819 0.0
H3342 H 0.01987 0.35781 0.40995 0.0
H3343 H 0.07464 0.39776 0.42016 0.0
H3344 H 0.07239 0.46938 0.49238 0.0
H3345 H 0.07337 0.44071 0.47277 0.0
C3346 C 0.45735 0.27702 0.19323 0.0
C3347 C 0.4585 0.25874 0.19042 0.0
C3348 C 0.44484 0.28276 0.20415 0.0
C3349 C 0.41668 0.26828 0.24006 0.0
H3350 H 0.39126 0.30403 0.22847 0.0
C3351 C 0.34962 0.27568 0.26565 0.0
C3352 C 0.34746 0.29328 0.27208 0.0
C3353 C 0.36523 0.27324 0.25821 0.0
C3354 C 0.3985 0.29426 0.23201 0.0
H3355 H 0.44689 0.23195 0.19595 0.0
H3356 H 0.42469 0.24173 0.21429 0.0
H3357 H 0.41379 0.29599 0.20921 0.0
H3358 H 0.35998 0.32214 0.27623 0.0
H3359 H 0.38731 0.31784 0.26267 0.0
H3360 H 0.40069 0.26594 0.26232 0.0
C3361 C 0.43383 0.25184 0.20872 0.0
C3362 C 0.41139 0.28963 0.221 0.0
C3363 C 0.44644 0.24617 0.19804 0.0
C3364 C 0.36143 0.30843 0.27149 0.0
C3365 C 0.37694 0.30599 0.26365 0.0
C3366 C 0.40365 0.27273 0.25089 0.0
C3367 C 0.43314 0.27027 0.2123 0.0
C3368 C 0.42038 0.2763 0.22468 0.0
C3369 C 0.37883 0.28837 0.25672 0.0
C3370 C 0.39424 0.28552 0.24679 0.0
H3371 H 0.46657 0.28702 0.1876 0.0
H3372 H 0.44475 0.29707 0.20667 0.0
H3373 H 0.42369 0.25836 0.24364 0.0
H3374 H 0.33904 0.26379 0.26597 0.0
H3375 H 0.3663 0.25952 0.25285 0.0
C3376 C 0.62642 0.54314 0.34232 0.0
C3377 C 0.63768 0.53112 0.33769 0.0
C3378 C 0.61779 0.54375 0.35868 0.0
C3379 C 0.60706 0.5183 0.39887 0.0
H3380 H 0.5923 0.56185 0.41927 0.0
C3381 C 0.56593 0.52013 0.46385 0.0
C3382 C 0.56623 0.53679 0.4756 0.0
C3383 C 0.57428 0.51944 0.44732 0.0
C3384 C 0.59636 0.54948 0.41411 0.0
H3385 H 0.64833 0.5103 0.34774 0.0
H3386 H 0.63383 0.51147 0.3759 0.0
H3387 H 0.60724 0.56084 0.39162 0.0
H3388 H 0.57624 0.56594 0.47821 0.0
H3389 H 0.59074 0.56484 0.45007 0.0
H3390 H 0.59663 0.50713 0.42164 0.0
C3391 C 0.63123 0.52038 0.36678 0.0
C3392 C 0.60491 0.54879 0.3977 0.0
C3393 C 0.63982 0.51975 0.35038 0.0
C3394 C 0.57535 0.55273 0.46981 0.0
C3395 C 0.58375 0.55206 0.4533 0.0
C3396 C 0.59854 0.519 0.41529 0.0
C3397 C 0.61992 0.53242 0.37152 0.0
C3398 C 0.61056 0.53317 0.38948 0.0
C3399 C 0.58355 0.53538 0.44149 0.0
C3400 C 0.59287 0.53461 0.4235 0.0
H3401 H 0.62417 0.55219 0.33319 0.0
H3402 H 0.60919 0.55312 0.36103 0.0
H3403 H 0.61072 0.50577 0.39346 0.0
H3404 H 0.55921 0.5074 0.46744 0.0
H3405 H 0.57321 0.50617 0.43902 0.0
C3406 C 0.27615 0.89556 0.04792 0.0
C3407 C 0.27167 0.91253 0.05179 0.0
C3408 C 0.27634 0.88485 0.06132 0.0
C3409 C 0.28053 0.8887 0.11154 0.0
H3410 H 0.26784 0.83589 0.09946 0.0
C3411 C 0.28307 0.84402 0.16644 0.0
C3412 C 0.29136 0.82946 0.16213 0.0
C3413 C 0.27879 0.85358 0.15303 0.0
C3414 C 0.27152 0.85063 0.10302 0.0
H3415 H 0.26316 0.93115 0.07269 0.0
H3416 H 0.26316 0.9123 0.09595 0.0
H3417 H 0.26316 0.85351 0.07598 0.0
H3418 H 0.30112 0.81319 0.14019 0.0
H3419 H 0.29373 0.82993 0.11682 0.0
H3420 H 0.28896 0.88579 0.13856 0.0
C3421 C 0.26691 0.90745 0.08264 0.0
C3422 C 0.26887 0.86075 0.08956 0.0
C3423 C 0.26678 0.91822 0.06924 0.0
C3424 C 0.2949 0.82444 0.144 0.0
C3425 C 0.2905 0.83392 0.13057 0.0
C3426 C 0.28309 0.87858 0.12501 0.0
C3427 C 0.27198 0.89076 0.07894 0.0
C3428 C 0.27355 0.87993 0.09357 0.0
C3429 C 0.28256 0.84873 0.13496 0.0
C3430 C 0.27882 0.85943 0.12087 0.0
H3431 H 0.28004 0.89073 0.03466 0.0
H3432 H 0.28055 0.87222 0.058 0.0
H3433 H 0.28458 0.90343 0.11509 0.0
H3434 H 0.2803 0.84833 0.1803 0.0
H3435 H 0.27254 0.86482 0.15683 0.0
C3436 C 0.96254 0.57712 0.8646 0.0
C3437 C 0.96822 0.56565 0.85067 0.0
C3438 C 0.97312 0.58363 0.8814 0.0
C3439 C 0.01784 0.58632 0.90586 0.0
H3440 H 0.98987 0.57097 0.94413 0.0
C3441 C 0.04484 0.55501 0.96288 0.0
C3442 C 0.0383 0.55732 0.98 0.0
C3443 C 0.03847 0.56271 0.94887 0.0
C3444 C 0.99793 0.5758 0.93382 0.0
H3445 H 0.99002 0.5534 0.84265 0.0
H3446 H 0.00835 0.56464 0.87175 0.0
H3447 H 0.97467 0.5739 0.91567 0.0
H3448 H 0.02079 0.57051 0.99623 0.0
H3449 H 0.00981 0.58401 0.97183 0.0
H3450 H 0.0411 0.58721 0.92373 0.0
C3451 C 0.99583 0.56868 0.86988 0.0
C3452 C 0.98919 0.57752 0.91748 0.0
C3453 C 0.98522 0.56206 0.85323 0.0
C3454 C 0.02595 0.56825 0.98311 0.0
C3455 C 0.01963 0.576 0.96914 0.0
C3456 C 0.02661 0.58461 0.92224 0.0
C3457 C 0.98961 0.57893 0.88439 0.0
C3458 C 0.99901 0.582 0.90303 0.0
C3459 C 0.02548 0.57295 0.95173 0.0
C3460 C 0.01669 0.57856 0.93607 0.0
H3461 H 0.94949 0.58014 0.86292 0.0
H3462 H 0.96807 0.59163 0.89232 0.0
H3463 H 0.02576 0.59008 0.89504 0.0
H3464 H 0.0544 0.54672 0.96005 0.0
H3465 H 0.04308 0.55988 0.93555 0.0
C3466 C 0.2904 0.23397 0.57323 0.0
C3467 C 0.30127 0.22197 0.56771 0.0
C3468 C 0.29114 0.24187 0.59168 0.0
C3469 C 0.31883 0.2542 0.63584 0.0
H3470 H 0.27377 0.24546 0.65698 0.0
C3471 C 0.31649 0.2679 0.71414 0.0
C3472 C 0.30147 0.27299 0.72114 0.0
C3473 C 0.31682 0.26281 0.69529 0.0
C3474 C 0.28647 0.24842 0.65135 0.0
H3475 H 0.32204 0.20955 0.57709 0.0
H3476 H 0.3237 0.22382 0.6092 0.0
H3477 H 0.27415 0.23572 0.62431 0.0
H3478 H 0.27524 0.27728 0.71377 0.0
H3479 H 0.27608 0.26928 0.68098 0.0
H3480 H 0.33119 0.26731 0.66265 0.0
C3481 C 0.31447 0.22692 0.59928 0.0
C3482 C 0.28665 0.24273 0.63257 0.0
C3483 C 0.31348 0.21872 0.58091 0.0
C3484 C 0.28693 0.27322 0.70883 0.0
C3485 C 0.28739 0.26848 0.68997 0.0
C3486 C 0.31863 0.26024 0.65458 0.0
C3487 C 0.30303 0.23825 0.60492 0.0
C3488 C 0.30284 0.24539 0.62465 0.0
C3489 C 0.30227 0.26302 0.68287 0.0
C3490 C 0.30246 0.25726 0.6627 0.0
H3491 H 0.28078 0.23667 0.56343 0.0
H3492 H 0.28224 0.25064 0.59566 0.0
H3493 H 0.33149 0.25654 0.63005 0.0
H3494 H 0.32788 0.26747 0.72326 0.0
H3495 H 0.32838 0.25837 0.69053 0.0
C3496 C 0.65441 0.50827 0.21326 0.0
C3497 C 0.64788 0.51443 0.22986 0.0
C3498 C 0.64616 0.50928 0.19595 0.0
C3499 C 0.61249 0.53143 0.17311 0.0
H3500 H 0.61755 0.49823 0.12972 0.0
C3501 C 0.58715 0.54089 0.0991 0.0
C3502 C 0.58194 0.52576 0.08451 0.0
C3503 C 0.59479 0.53941 0.11654 0.0
C3504 C 0.61571 0.50764 0.14155 0.0
H3505 H 0.62682 0.52654 0.2403 0.0
H3506 H 0.61237 0.52796 0.21057 0.0
H3507 H 0.63044 0.49543 0.15941 0.0
H3508 H 0.581 0.49692 0.07777 0.0
H3509 H 0.59382 0.49425 0.1077 0.0
H3510 H 0.59739 0.54338 0.15527 0.0
C3511 C 0.62417 0.5225 0.21081 0.0
C3512 C 0.62349 0.50617 0.15891 0.0
C3513 C 0.63246 0.52149 0.22814 0.0
C3514 C 0.58474 0.50904 0.08833 0.0
C3515 C 0.59236 0.50755 0.10575 0.0
C3516 C 0.60471 0.53291 0.15573 0.0
C3517 C 0.63085 0.51655 0.19416 0.0
C3518 C 0.62216 0.51803 0.17526 0.0
C3519 C 0.59766 0.52269 0.12042 0.0
C3520 C 0.60608 0.52107 0.13939 0.0
H3521 H 0.66629 0.5029 0.21357 0.0
H3522 H 0.65223 0.5047 0.18395 0.0
H3523 H 0.61105 0.54114 0.18489 0.0
H3524 H 0.58544 0.5541 0.09706 0.0
H3525 H 0.59872 0.55165 0.12691 0.0
C3526 C 0.29877 0.88647 0.9564 0.0
C3527 C 0.28617 0.89726 0.95648 0.0
C3528 C 0.30035 0.87457 0.94057 0.0
C3529 C 0.27718 0.85055 0.89495 0.0
H3530 H 0.32538 0.84843 0.88431 0.0
C3531 C 0.29117 0.80026 0.83308 0.0
C3532 C 0.30464 0.80767 0.82279 0.0
C3533 C 0.28882 0.81008 0.85003 0.0
C3534 C 0.31181 0.84887 0.88701 0.0
H3535 H 0.2651 0.90369 0.93991 0.0
H3536 H 0.268 0.88299 0.91206 0.0
H3537 H 0.32099 0.86802 0.91196 0.0
H3538 H 0.32654 0.83101 0.82259 0.0
H3539 H 0.3225 0.84796 0.85191 0.0
H3540 H 0.26808 0.83171 0.86964 0.0
C3541 C 0.27655 0.88363 0.92439 0.0
C3542 C 0.30928 0.85999 0.90301 0.0
C3543 C 0.27494 0.89558 0.94033 0.0
C3544 C 0.31605 0.82483 0.83013 0.0
C3545 C 0.31377 0.83456 0.84703 0.0
C3546 C 0.27973 0.83936 0.87891 0.0
C3547 C 0.28943 0.87312 0.92427 0.0
C3548 C 0.29194 0.86105 0.90719 0.0
C3549 C 0.29998 0.82746 0.85712 0.0
C3550 C 0.2971 0.83849 0.87467 0.0
H3551 H 0.30755 0.88726 0.96861 0.0
H3552 H 0.31018 0.86647 0.94113 0.0
H3553 H 0.26363 0.85088 0.89779 0.0
H3554 H 0.28207 0.78714 0.82781 0.0
H3555 H 0.27819 0.80411 0.85752 0.0
C3556 C 0.96354 0.5342 0.75285 0.0
C3557 C 0.94541 0.53488 0.75226 0.0
C3558 C 0.97111 0.52965 0.73678 0.0
C3559 C 0.95878 0.50452 0.68987 0.0
H3560 H 1.00631 0.53004 0.68206 0.0
C3561 C 0.98861 0.49183 0.62132 0.0
C3562 C 0.00706 0.49262 0.62194 0.0
C3563 C 0.98087 0.49621 0.63733 0.0
C3564 C 0.99312 0.5226 0.68416 0.0
H3565 H 0.92115 0.53187 0.73427 0.0
H3566 H 0.93444 0.52397 0.70617 0.0
H3567 H 0.99331 0.54033 0.7096 0.0
H3568 H 0.03175 0.49804 0.63994 0.0
H3569 H 0.01814 0.50508 0.66791 0.0
H3570 H 0.95863 0.48668 0.66452 0.0
C3571 C 0.94271 0.52679 0.71912 0.0
C3572 C 0.98567 0.52856 0.69989 0.0
C3573 C 0.93516 0.53145 0.7352 0.0
C3574 C 0.01747 0.49713 0.63899 0.0
C3575 C 0.00972 0.50144 0.655 0.0
C3576 C 0.96627 0.4985 0.67417 0.0
C3577 C 0.96068 0.5256 0.71979 0.0
C3578 C 0.96842 0.51958 0.70289 0.0
C3579 C 0.99142 0.5014 0.65431 0.0
C3580 C 0.98353 0.50747 0.67115 0.0
H3581 H 0.97182 0.53678 0.76577 0.0
H3582 H 0.98497 0.52872 0.73771 0.0
H3583 H 0.94556 0.49717 0.69199 0.0
H3584 H 0.98019 0.48817 0.60841 0.0
H3585 H 0.96675 0.49613 0.63632 0.0
C3586 C 0.28744 0.24105 0.46518 0.0
C3587 C 0.29415 0.22588 0.46759 0.0
C3588 C 0.2894 0.24818 0.44917 0.0
C3589 C 0.31391 0.24722 0.40749 0.0
H3590 H 0.27471 0.26584 0.38913 0.0
C3591 C 0.30683 0.26545 0.33497 0.0
C3592 C 0.30186 0.2819 0.33402 0.0
C3593 C 0.30686 0.2588 0.35136 0.0
C3594 C 0.28584 0.26083 0.39415 0.0
H3595 H 0.30843 0.20645 0.45512 0.0
H3596 H 0.31142 0.21851 0.42693 0.0
H3597 H 0.27293 0.25382 0.41725 0.0
H3598 H 0.2932 0.30432 0.34972 0.0
H3599 H 0.29306 0.29263 0.37813 0.0
H3600 H 0.32652 0.25387 0.38392 0.0
C3601 C 0.30496 0.22521 0.43757 0.0
C3602 C 0.28488 0.25399 0.41037 0.0
C3603 C 0.30319 0.21821 0.45373 0.0
C3604 C 0.29711 0.29162 0.34991 0.0
C3605 C 0.29692 0.28486 0.36619 0.0
C3606 C 0.31476 0.25388 0.3911 0.0
C3607 C 0.2979 0.24018 0.43496 0.0
C3608 C 0.29896 0.24722 0.41741 0.0
C3609 C 0.30169 0.26833 0.3671 0.0
C3610 C 0.30079 0.2609 0.38432 0.0
H3611 H 0.28055 0.24741 0.47565 0.0
H3612 H 0.28419 0.25999 0.44798 0.0
H3613 H 0.32513 0.24236 0.41251 0.0
H3614 H 0.31058 0.25762 0.32301 0.0
H3615 H 0.3105 0.24597 0.35159 0.0
C3616 C 0.36932 0.59842 0.52895 0.0
C3617 C 0.35619 0.58734 0.53705 0.0
C3618 C 0.38593 0.59409 0.52632 0.0
C3619 C 0.41503 0.56358 0.54037 0.0
H3620 H 0.44244 0.57985 0.50208 0.0
C3621 C 0.4781 0.53786 0.52056 0.0
C3622 C 0.49369 0.55133 0.51977 0.0
C3623 C 0.46138 0.54224 0.5218 0.0
C3624 C 0.43498 0.57527 0.51289 0.0
H3625 H 0.35019 0.56262 0.54818 0.0
H3626 H 0.37843 0.5545 0.54276 0.0
H3627 H 0.41333 0.58694 0.50556 0.0
H3628 H 0.50353 0.58 0.51908 0.0
H3629 H 0.4742 0.58746 0.52056 0.0
H3630 H 0.43654 0.55135 0.54717 0.0
C3631 C 0.37643 0.56703 0.53907 0.0
C3632 C 0.41822 0.57944 0.51502 0.0
C3633 C 0.36 0.57158 0.54204 0.0
C3634 C 0.49188 0.56922 0.51959 0.0
C3635 C 0.47503 0.57351 0.52043 0.0
C3636 C 0.43158 0.55911 0.53798 0.0
C3637 C 0.38989 0.5783 0.53137 0.0
C3638 C 0.40788 0.57372 0.52886 0.0
C3639 C 0.4596 0.56016 0.52193 0.0
C3640 C 0.44184 0.56491 0.52425 0.0
H3641 H 0.36695 0.61076 0.52506 0.0
H3642 H 0.39579 0.60344 0.52066 0.0
H3643 H 0.40803 0.55924 0.55153 0.0
H3644 H 0.4789 0.52399 0.52092 0.0
H3645 H 0.44979 0.53157 0.52278 0.0
C3646 C 0.87956 0.90771 0.54806 0.0
C3647 C 0.86527 0.91622 0.55073 0.0
C3648 C 0.89696 0.91808 0.5478 0.0
C3649 C 0.92159 0.96259 0.53972 0.0
H3650 H 0.96232 0.95162 0.56509 0.0
C3651 C 0.99247 0.00919 0.54561 0.0
C3652 C 0.00689 1.0008 0.54348 0.0
C3653 C 0.97542 0.99901 0.54742 0.0
C3654 C 0.95112 0.95475 0.55775 0.0
H3655 H 0.85814 0.94235 0.55528 0.0
H3656 H 0.88845 0.96037 0.55477 0.0
H3657 H 0.93214 0.93348 0.56619 0.0
H3658 H 0.0147 0.97513 0.54208 0.0
H3659 H 0.9849 0.9573 0.54482 0.0
H3660 H 0.94046 0.98364 0.53102 0.0
C3661 C 0.88617 0.94567 0.55277 0.0
C3662 C 0.93382 0.94435 0.55841 0.0
C3663 C 0.8688 0.93533 0.55316 0.0
C3664 C 1.00391 0.98204 0.54363 0.0
C3665 C 0.98681 0.97182 0.54533 0.0
C3666 C 0.93887 0.97291 0.53897 0.0
C3667 C 0.90044 0.93717 0.55007 0.0
C3668 C 0.91885 0.94818 0.54942 0.0
C3669 C 0.97229 0.98014 0.54705 0.0
C3670 C 0.95388 0.96916 0.54801 0.0
H3671 H 0.87734 0.89303 0.54615 0.0
H3672 H 0.90763 0.91111 0.5455 0.0
H3673 H 0.91037 0.96571 0.53241 0.0
H3674 H 0.99429 0.02364 0.5457 0.0
H3675 H 0.96466 1.00596 0.5491 0.0
C3676 C 0.89336 0.11997 0.27729 0.0
C3677 C 0.88703 0.10399 0.26371 0.0
C3678 C 0.88611 0.13575 0.27794 0.0
C3679 C 0.84599 0.15288 0.25879 0.0
H3680 H 0.87521 0.20073 0.28048 0.0
C3681 C 0.81449 0.21843 0.26892 0.0
C3682 C 0.82515 0.23621 0.26921 0.0
C3683 C 0.82192 0.20279 0.26827 0.0
C3684 C 0.86663 0.18761 0.27422 0.0
H3685 H 0.8674 0.09317 0.24006 0.0
H3686 H 0.8549 0.12004 0.24118 0.0
H3687 H 0.88773 0.17397 0.2792 0.0
H3688 H 0.85279 0.25036 0.26896 0.0
H3689 H 0.86559 0.22367 0.26798 0.0
H3690 H 0.82493 0.16651 0.25368 0.0
C3691 C 0.86553 0.12052 0.25161 0.0
C3692 C 0.87392 0.17187 0.27365 0.0
C3693 C 0.87289 0.10481 0.25088 0.0
C3694 C 0.84379 0.23729 0.26889 0.0
C3695 C 0.85126 0.22166 0.26839 0.0
C3696 C 0.83865 0.16859 0.25952 0.0
C3697 C 0.8719 0.13662 0.26514 0.0
C3698 C 0.86389 0.1539 0.26587 0.0
C3699 C 0.84059 0.2038 0.26798 0.0
C3700 C 0.84869 0.18657 0.26723 0.0
H3701 H 0.90413 0.12038 0.28756 0.0
H3702 H 0.89165 0.14729 0.28884 0.0
H3703 H 0.83731 0.13974 0.25277 0.0
H3704 H 0.80013 0.21647 0.26907 0.0
H3705 H 0.81282 0.18981 0.26822 0.0
C3706 C 0.74155 0.09763 0.02513 0.0
C3707 C 0.75391 0.08736 0.02918 0.0
C3708 C 0.72308 0.09075 0.02483 0.0
C3709 C 0.68691 0.04922 0.01925 0.0
H3710 H 0.66086 0.08178 0.04491 0.0
C3711 C 0.60872 0.03689 0.00987 0.0
C3712 C 0.60009 0.04027 0.0257 0.0
C3713 C 0.62753 0.04142 0.01064 0.0
C3714 C 0.66789 0.07244 0.03775 0.0
H3715 H 0.75607 0.0613 0.03555 0.0
H3716 H 0.72351 0.04902 0.03456 0.0
H3717 H 0.69337 0.09145 0.04556 0.0
H3718 H 0.60475 0.05114 0.0548 0.0
H3719 H 0.63742 0.05931 0.05606 0.0
H3720 H 0.66126 0.03034 0.01116 0.0
C3721 C 0.72838 0.06259 0.03178 0.0
C3722 C 0.68656 0.07804 0.03803 0.0
C3723 C 0.74704 0.06963 0.03237 0.0
C3724 C 0.61084 0.04833 0.04231 0.0
C3725 C 0.62963 0.05309 0.04303 0.0
C3726 C 0.66813 0.04371 0.01873 0.0
C3727 C 0.71618 0.07323 0.02833 0.0
C3728 C 0.69635 0.06658 0.02872 0.0
C3729 C 0.63827 0.0497 0.02721 0.0
C3730 C 0.65834 0.05528 0.02795 0.0
H3731 H 0.74612 0.11132 0.02256 0.0
H3732 H 0.71414 0.09924 0.02184 0.0
H3733 H 0.69399 0.04008 0.01186 0.0
H3734 H 0.60094 0.03067 0.99683 0.0
H3735 H 0.63367 0.03876 0.99816 0.0
C3736 C 0.21627 0.51061 0.27362 0.0
C3737 C 0.21568 0.50589 0.25452 0.0
C3738 C 0.22496 0.50169 0.285 0.0
C3739 C 0.23423 0.45842 0.28673 0.0
H3740 H 0.27747 0.48202 0.31942 0.0
C3741 C 0.26976 0.41651 0.32581 0.0
C3742 C 0.28739 0.41765 0.32134 0.0
C3743 C 0.26081 0.42985 0.32266 0.0
C3744 C 0.26527 0.47534 0.31053 0.0
H3745 H 0.22372 0.48827 0.23236 0.0
H3746 H 0.23839 0.47236 0.25225 0.0
H3747 H 0.2617 0.50039 0.30321 0.0
H3748 H 0.30998 0.43455 0.31163 0.0
H3749 H 0.2944 0.45797 0.30637 0.0
H3750 H 0.23785 0.43338 0.2935 0.0
C3751 C 0.23234 0.48309 0.25835 0.0
C3752 C 0.25628 0.48581 0.30134 0.0
C3753 C 0.22401 0.49223 0.24702 0.0
C3754 C 0.29644 0.43329 0.31529 0.0
C3755 C 0.28752 0.44672 0.31228 0.0
C3756 C 0.24298 0.44803 0.29611 0.0
C3757 C 0.2328 0.48769 0.27738 0.0
C3758 C 0.24098 0.4773 0.28903 0.0
C3759 C 0.26939 0.44469 0.31517 0.0
C3760 C 0.25882 0.45632 0.30775 0.0
H3761 H 0.21 0.52115 0.27976 0.0
H3762 H 0.22518 0.50537 0.29968 0.0
H3763 H 0.22242 0.45163 0.27728 0.0
H3764 H 0.26256 0.40482 0.33089 0.0
H3765 H 0.2469 0.42812 0.32524 0.0
C3766 C 0.26337 0.41934 0.02704 0.0
C3767 C 0.27381 0.42504 0.04407 0.0
C3768 C 0.24974 0.42785 0.02262 0.0
C3769 C 0.234 0.47023 0.03669 0.0
H3770 H 0.18886 0.44171 0.01008 0.0
C3771 C 0.17083 0.49866 0.03255 0.0
C3772 C 0.16078 0.49536 0.01539 0.0
C3773 C 0.18471 0.48999 0.03523 0.0
C3774 C 0.20146 0.44987 0.01736 0.0
H3775 H 0.27795 0.444 0.06991 0.0
H3776 H 0.25408 0.45846 0.06244 0.0
H3777 H 0.21293 0.42673 0.01618 0.0
H3778 H 0.15725 0.48012 0.98766 0.0
H3779 H 0.18152 0.46489 0.99238 0.0
H3780 H 0.22238 0.49328 0.0382 0.0
C3781 C 0.25662 0.44775 0.05225 0.0
C3782 C 0.21529 0.44131 0.02083 0.0
C3783 C 0.27027 0.43934 0.0566 0.0
C3784 C 0.16484 0.48305 1.001 0.0
C3785 C 0.17862 0.47422 1.00374 0.0
C3786 C 0.22015 0.47874 0.03336 0.0
C3787 C 0.24621 0.4422 0.03518 0.0
C3788 C 0.2317 0.45135 0.03069 0.0
C3789 C 0.18878 0.47769 0.02086 0.0
C3790 C 0.20367 0.46865 0.02379 0.0
H3791 H 0.2658 0.40838 0.01707 0.0
H3792 H 0.24214 0.42334 0.00927 0.0
H3793 H 0.24657 0.4785 0.04395 0.0
H3794 H 0.16813 0.50818 0.04387 0.0
H3795 H 0.19217 0.49282 0.04863 0.0
C3796 C 0.90298 0.987 0.2768 0.0
C3797 C 0.89359 1.00007 0.27269 0.0
C3798 C 0.89427 0.96869 0.2769 0.0
C3799 C 0.84945 0.93648 0.27927 0.0
H3800 H 0.87487 0.89931 0.26353 0.0
C3801 C 0.81622 0.85795 0.27702 0.0
C3802 C 0.82695 0.84524 0.27782 0.0
C3803 C 0.82367 0.87648 0.27599 0.0
C3804 C 0.86746 0.90928 0.26835 0.0
H3805 H 0.86677 1.00294 0.26556 0.0
H3806 H 0.85148 0.97103 0.26598 0.0
H3807 H 0.88811 0.93092 0.26247 0.0
H3808 H 0.85454 0.84311 0.27831 0.0
H3809 H 0.86747 0.87491 0.27709 0.0
H3810 H 0.82891 0.9149 0.28546 0.0
C3811 C 0.86591 0.97517 0.26913 0.0
C3812 C 0.8752 0.92779 0.26765 0.0
C3813 C 0.87475 0.99367 0.2688 0.0
C3814 C 0.84558 0.8521 0.27762 0.0
C3815 C 0.85306 0.87066 0.27676 0.0
C3816 C 0.84175 0.91792 0.28015 0.0
C3817 C 0.87551 0.96214 0.27304 0.0
C3818 C 0.86649 0.94197 0.27318 0.0
C3819 C 0.84236 0.88347 0.27586 0.0
C3820 C 0.85055 0.90372 0.27479 0.0
H3821 H 0.91742 0.99084 0.27993 0.0
H3822 H 0.90245 0.95966 0.28033 0.0
H3823 H 0.84213 0.94663 0.28387 0.0
H3824 H 0.80184 0.85356 0.27705 0.0
H3825 H 0.81452 0.88522 0.27506 0.0
C3826 C 0.7139 0.09184 0.7244 0.0
C3827 C 0.69516 0.08587 0.72138 0.0
C3828 C 0.7223 0.10979 0.7237 0.0
C3829 C 0.71228 0.15529 0.72816 0.0
H3830 H 0.76172 0.16919 0.71798 0.0
C3831 C 0.75352 0.23014 0.73539 0.0
C3832 C 0.76822 0.2339 0.74882 0.0
C3833 C 0.7441 0.21215 0.72862 0.0
C3834 C 0.74785 0.16544 0.72068 0.0
H3835 H 0.67056 0.09354 0.71404 0.0
H3836 H 0.68525 0.12468 0.71196 0.0
H3837 H 0.74571 0.13713 0.71084 0.0
H3838 H 0.78499 0.22196 0.76528 0.0
H3839 H 0.76878 0.19049 0.75302 0.0
H3840 H 0.71457 0.18376 0.73785 0.0
C3841 C 0.69346 0.11575 0.71559 0.0
C3842 C 0.73871 0.14711 0.71677 0.0
C3843 C 0.68503 0.09788 0.71666 0.0
C3844 C 0.77362 0.21942 0.75503 0.0
C3845 C 0.76447 0.20146 0.74794 0.0
C3846 C 0.72133 0.17365 0.73169 0.0
C3847 C 0.71217 0.1221 0.7196 0.0
C3848 C 0.72099 0.14172 0.72103 0.0
C3849 C 0.74957 0.19772 0.73482 0.0
C3850 C 0.73931 0.17876 0.72847 0.0
H3851 H 0.72205 0.0829 0.72816 0.0
H3852 H 0.73667 0.11416 0.72721 0.0
H3853 H 0.69878 0.15175 0.73191 0.0
H3854 H 0.7491 0.24109 0.73042 0.0
H3855 H 0.73257 0.20948 0.71854 0.0
loop_
_geom_bond_atom_site_label_1
_geom_bond_atom_site_label_2
_geom_bond_distance
_geom_bond_site_symmetry_2
_ccdc_geom_bond_type
O0 Cd1 2.223 . S
O0 C8 1.315 . S
Cd1 O0 2.223 . S
Cd1 O4 2.297 . S
Cd1 O5 2.439 . S
Cd1 O11 2.240 . S
Cd2 O3 2.240 . S
Cd2 O10 2.223 . S
Cd2 O12 2.297 . S
Cd2 O13 2.439 . S
O3 Cd2 2.240 . S
O3 C8 1.279 . S
O4 Cd1 2.297 . S
O4 C6 1.247 . S
O5 Cd1 2.439 . S
O5 C6 1.208 . S
C6 O4 1.247 . S
C6 O5 1.208 . S
C7 O12 1.247 . S
C7 O13 1.208 . S
C8 O0 1.315 . S
C8 O3 1.279 . S
C9 O10 1.315 . S
C9 O11 1.279 . S
O10 Cd2 2.223 . S
O10 C9 1.315 . S
O11 Cd1 2.240 . S
O11 C9 1.279 . S
O12 Cd2 2.297 . S
O12 C7 1.247 . S
O13 Cd2 2.439 . S
O13 C7 1.208 . S
O14 Cd15 2.229 . S
O14 C22 1.317 . S
Cd15 O14 2.229 . S
Cd15 O18 2.297 . S
Cd15 O19 2.439 . S
Cd15 O25 2.240 1_655 S
Cd16 O17 2.240 1_455 S
Cd16 O24 2.223 . S
Cd16 O26 2.297 . S
Cd16 O27 2.435 1_455 S
O17 Cd16 2.240 1_655 S
O17 C22 1.279 . S
O18 Cd15 2.297 . S
O18 C20 1.247 . S
O19 Cd15 2.439 . S
O19 C20 1.208 . S
C20 O18 1.247 . S
C20 O19 1.208 . S
C21 O26 1.247 . S
C21 O27 1.204 1_455 S
C22 O14 1.317 . S
C22 O17 1.279 . S
C23 O24 1.315 . S
C23 O25 1.279 . S
O24 Cd16 2.223 . S
O24 C23 1.315 . S
O25 Cd15 2.240 1_455 S
O25 C23 1.279 . S
O26 Cd16 2.297 . S
O26 C21 1.247 . S
O27 Cd16 2.435 1_655 S
O27 C21 1.204 1_655 S
O28 Cd29 2.223 . S
O28 C36 1.315 . S
Cd29 O28 2.223 . S
Cd29 O32 2.297 . S
Cd29 O33 2.439 . S
Cd29 O39 2.240 . S
Cd30 O31 2.240 . S
Cd30 O38 2.223 . S
Cd30 O40 2.297 . S
Cd30 O41 2.439 . S
O31 Cd30 2.240 . S
O31 C36 1.279 . S
O32 Cd29 2.297 . S
O32 C34 1.247 . S
O33 Cd29 2.439 . S
O33 C34 1.208 . S
C34 O32 1.247 . S
C34 O33 1.208 . S
C35 O40 1.247 . S
C35 O41 1.208 . S
C36 O28 1.315 . S
C36 O31 1.279 . S
C37 O38 1.315 . S
C37 O39 1.279 . S
O38 Cd30 2.223 . S
O38 C37 1.315 . S
O39 Cd29 2.240 . S
O39 C37 1.279 . S
O40 Cd30 2.297 . S
O40 C35 1.247 . S
O41 Cd30 2.439 . S
O41 C35 1.208 . S
O42 Cd43 2.223 . S
O42 C50 1.315 . S
Cd43 O42 2.223 . S
Cd43 O46 2.297 . S
Cd43 O47 2.439 . S
Cd43 O53 2.240 . S
Cd44 O45 2.240 . S
Cd44 O52 2.223 . S
Cd44 O54 2.297 . S
Cd44 O55 2.439 . S
O45 Cd44 2.240 . S
O45 C50 1.279 . S
O46 Cd43 2.297 . S
O46 C48 1.247 . S
O47 Cd43 2.439 . S
O47 C48 1.208 . S
C48 O46 1.247 . S
C48 O47 1.208 . S
C49 O54 1.247 . S
C49 O55 1.208 . S
C50 O42 1.315 . S
C50 O45 1.279 . S
C51 O52 1.315 . S
C51 O53 1.279 . S
O52 Cd44 2.223 . S
O52 C51 1.315 . S
O53 Cd43 2.240 . S
O53 C51 1.279 . S
O54 Cd44 2.297 . S
O54 C49 1.247 . S
O55 Cd44 2.439 . S
O55 C49 1.208 . S
O56 Cd57 2.223 . S
O56 C64 1.315 . S
Cd57 O56 2.223 . S
Cd57 O60 2.297 . S
Cd57 O61 2.439 . S
Cd57 O67 2.240 . S
Cd58 O59 2.240 . S
Cd58 O66 2.223 . S
Cd58 O68 2.297 . S
Cd58 O69 2.439 . S
O59 Cd58 2.240 . S
O59 C64 1.279 . S
O60 Cd57 2.297 . S
O60 C62 1.247 . S
O61 Cd57 2.439 . S
O61 C62 1.208 . S
C62 O60 1.247 . S
C62 O61 1.208 . S
C63 O68 1.247 . S
C63 O69 1.208 . S
C64 O56 1.315 . S
C64 O59 1.279 . S
C65 O66 1.315 . S
C65 O67 1.279 . S
O66 Cd58 2.223 . S
O66 C65 1.315 . S
O67 Cd57 2.240 . S
O67 C65 1.279 . S
O68 Cd58 2.297 . S
O68 C63 1.247 . S
O69 Cd58 2.439 . S
O69 C63 1.208 . S
O70 Cd71 2.223 . S
O70 C78 1.315 . S
Cd71 O70 2.223 . S
Cd71 O74 2.297 . S
Cd71 O75 2.439 . S
Cd71 O81 2.240 . S
Cd72 O73 2.240 . S
Cd72 O80 2.223 . S
Cd72 O82 2.297 . S
Cd72 O83 2.439 . S
O73 Cd72 2.240 . S
O73 C78 1.279 . S
O74 Cd71 2.297 . S
O74 C76 1.247 . S
O75 Cd71 2.439 . S
O75 C76 1.208 . S
C76 O74 1.247 . S
C76 O75 1.208 . S
C77 O82 1.247 . S
C77 O83 1.208 . S
C78 O70 1.315 . S
C78 O73 1.279 . S
C79 O80 1.315 . S
C79 O81 1.279 . S
O80 Cd72 2.223 . S
O80 C79 1.315 . S
O81 Cd71 2.240 . S
O81 C79 1.279 . S
O82 Cd72 2.297 . S
O82 C77 1.247 . S
O83 Cd72 2.439 . S
O83 C77 1.208 . S
O84 Cd85 2.223 . S
O84 C92 1.315 . S
Cd85 O84 2.223 . S
Cd85 O88 2.297 . S
Cd85 O89 2.439 . S
Cd85 O95 2.240 . S
Cd86 O87 2.240 . S
Cd86 O94 2.223 . S
Cd86 O96 2.297 . S
Cd86 O97 2.439 . S
O87 Cd86 2.240 . S
O87 C92 1.279 . S
O88 Cd85 2.297 . S
O88 C90 1.247 . S
O89 Cd85 2.439 . S
O89 C90 1.208 . S
C90 O88 1.247 . S
C90 O89 1.208 . S
C91 O96 1.247 . S
C91 O97 1.208 . S
C92 O84 1.315 . S
C92 O87 1.279 . S
C93 O94 1.315 . S
C93 O95 1.279 . S
O94 Cd86 2.223 . S
O94 C93 1.315 . S
O95 Cd85 2.240 . S
O95 C93 1.279 . S
O96 Cd86 2.297 . S
O96 C91 1.247 . S
O97 Cd86 2.439 . S
O97 C91 1.208 . S
O98 Cd99 2.223 . S
O98 C106 1.315 . S
Cd99 O98 2.223 . S
Cd99 O102 2.297 . S
Cd99 O103 2.439 . S
Cd99 O109 2.240 . S
Cd100 O101 2.240 . S
Cd100 O108 2.223 1_455 S
Cd100 O110 2.297 . S
Cd100 O111 2.439 . S
O101 Cd100 2.240 . S
O101 C106 1.279 . S
O102 Cd99 2.297 . S
O102 C104 1.247 . S
O103 Cd99 2.439 . S
O103 C104 1.208 . S
C104 O102 1.247 . S
C104 O103 1.208 . S
C105 O110 1.247 . S
C105 O111 1.208 . S
C106 O98 1.315 . S
C106 O101 1.279 . S
C107 O108 1.315 . S
C107 O109 1.279 1_655 S
O108 Cd100 2.223 1_655 S
O108 C107 1.315 . S
O109 Cd99 2.240 . S
O109 C107 1.279 1_455 S
O110 Cd100 2.297 . S
O110 C105 1.247 . S
O111 Cd100 2.439 . S
O111 C105 1.208 . S
O112 Cd113 2.223 . S
O112 C120 1.315 . S
Cd113 O112 2.223 . S
Cd113 O116 2.297 . S
Cd113 O117 2.439 . S
Cd113 O123 2.240 1_545 S
Cd114 O115 2.240 . S
Cd114 O122 2.223 1_545 S
Cd114 O124 2.271 1_545 S
Cd114 O125 2.439 . S
O115 Cd114 2.240 . S
O115 C120 1.279 . S
O116 Cd113 2.297 . S
O116 C118 1.247 . S
O117 Cd113 2.439 . S
O117 C118 1.208 . S
C118 O116 1.247 . S
C118 O117 1.208 . S
C119 O124 1.197 1_545 S
C119 O125 1.208 . S
C120 O112 1.315 . S
C120 O115 1.279 . S
C121 O122 1.315 . S
C121 O123 1.279 . S
O122 Cd114 2.223 1_565 S
O122 C121 1.315 . S
O123 Cd113 2.240 1_565 S
O123 C121 1.279 . S
O124 Cd114 2.271 1_565 S
O124 C119 1.197 1_565 S
O125 Cd114 2.439 . S
O125 C119 1.208 . S
O126 Cd127 2.223 . S
O126 C134 1.315 . S
Cd127 O126 2.223 . S
Cd127 O130 2.297 . S
Cd127 O131 2.439 . S
Cd127 O137 2.240 . S
Cd128 O129 2.240 . S
Cd128 O136 2.223 . S
Cd128 O138 2.297 . S
Cd128 O139 2.439 . S
O129 Cd128 2.240 . S
O129 C134 1.279 . S
O130 Cd127 2.297 . S
O130 C132 1.247 . S
O131 Cd127 2.439 . S
O131 C132 1.208 . S
C132 O130 1.247 . S
C132 O131 1.208 . S
C133 O138 1.247 . S
C133 O139 1.208 . S
C134 O126 1.315 . S
C134 O129 1.279 . S
C135 O136 1.315 . S
C135 O137 1.279 . S
O136 Cd128 2.223 . S
O136 C135 1.315 . S
O137 Cd127 2.240 . S
O137 C135 1.279 . S
O138 Cd128 2.297 . S
O138 C133 1.247 . S
O139 Cd128 2.439 . S
O139 C133 1.208 . S
O140 Cd141 2.223 1_545 S
O140 C148 1.315 1_545 S
Cd141 O140 2.223 1_565 S
Cd141 O144 2.297 . S
Cd141 O145 2.439 . S
Cd141 O151 2.240 1_565 S
Cd142 O143 2.240 1_545 S
Cd142 O150 2.223 . S
Cd142 O152 2.297 . S
Cd142 O153 2.439 1_545 S
O143 Cd142 2.240 1_565 S
O143 C148 1.279 . S
O144 Cd141 2.297 . S
O144 C146 1.247 . S
O145 Cd141 2.439 . S
O145 C146 1.208 . S
C146 O144 1.247 . S
C146 O145 1.208 . S
C147 O152 1.247 . S
C147 O153 1.208 1_545 S
C148 O140 1.315 1_565 S
C148 O143 1.279 . S
C149 O150 1.315 . S
C149 O151 1.279 . S
O150 Cd142 2.223 . S
O150 C149 1.315 . S
O151 Cd141 2.240 1_545 S
O151 C149 1.279 . S
O152 Cd142 2.297 . S
O152 C147 1.247 . S
O153 Cd142 2.439 1_565 S
O153 C147 1.208 1_565 S
O154 Cd155 2.223 . S
O154 C162 1.315 . S
Cd155 O154 2.223 . S
Cd155 O158 2.297 . S
Cd155 O159 2.452 . S
Cd155 O165 2.240 . S
Cd156 O157 2.240 1_556 S
Cd156 O164 2.223 1_556 S
Cd156 O166 2.297 . S
Cd156 O167 2.439 . S
O157 Cd156 2.240 1_554 S
O157 C162 1.279 . S
O158 Cd155 2.297 . S
O158 C160 1.247 . S
O159 Cd155 2.452 . S
O159 C160 1.231 . S
C160 O158 1.247 . S
C160 O159 1.231 . S
C161 O166 1.247 . S
C161 O167 1.208 . S
C162 O154 1.315 . S
C162 O157 1.279 . S
C163 O164 1.315 . S
C163 O165 1.279 . S
O164 Cd156 2.223 1_554 S
O164 C163 1.315 . S
O165 Cd155 2.240 . S
O165 C163 1.279 . S
O166 Cd156 2.297 . S
O166 C161 1.247 . S
O167 Cd156 2.439 . S
O167 C161 1.208 . S
O168 Cd169 2.223 . S
O168 C176 1.315 . S
Cd169 O168 2.223 . S
Cd169 O172 2.297 . S
Cd169 O173 2.439 . S
Cd169 O179 2.240 . S
Cd170 O171 2.240 . S
Cd170 O178 2.223 . S
Cd170 O180 2.297 1_554 S
Cd170 O181 2.439 1_554 S
O171 Cd170 2.240 . S
O171 C176 1.279 . S
O172 Cd169 2.297 . S
O172 C174 1.247 . S
O173 Cd169 2.439 . S
O173 C174 1.208 . S
C174 O172 1.247 . S
C174 O173 1.208 . S
C175 O180 1.247 . S
C175 O181 1.208 . S
C176 O168 1.315 . S
C176 O171 1.279 . S
C177 O178 1.315 . S
C177 O179 1.279 . S
O178 Cd170 2.223 . S
O178 C177 1.315 . S
O179 Cd169 2.240 . S
O179 C177 1.279 . S
O180 Cd170 2.297 1_556 S
O180 C175 1.247 . S
O181 Cd170 2.439 1_556 S
O181 C175 1.208 . S
O182 Cd183 2.223 . S
O182 C190 1.315 . S
Cd183 O182 2.223 . S
Cd183 O186 2.297 . S
Cd183 O187 2.439 . S
Cd183 O193 2.240 . S
Cd184 O185 2.240 . S
Cd184 O192 2.223 . S
Cd184 O194 2.297 1_554 S
Cd184 O195 2.439 1_554 S
O185 Cd184 2.240 . S
O185 C190 1.279 . S
O186 Cd183 2.297 . S
O186 C188 1.247 . S
O187 Cd183 2.439 . S
O187 C188 1.208 . S
C188 O186 1.247 . S
C188 O187 1.208 . S
C189 O194 1.247 . S
C189 O195 1.208 . S
C190 O182 1.315 . S
C190 O185 1.279 . S
C191 O192 1.315 . S
C191 O193 1.279 . S
O192 Cd184 2.223 . S
O192 C191 1.315 . S
O193 Cd183 2.240 . S
O193 C191 1.279 . S
O194 Cd184 2.297 1_556 S
O194 C189 1.247 . S
O195 Cd184 2.439 1_556 S
O195 C189 1.208 . S
O196 Cd197 2.223 . S
O196 C204 1.315 . S
Cd197 O196 2.223 . S
Cd197 O200 2.297 . S
Cd197 O201 2.439 . S
Cd197 O207 2.240 . S
Cd198 O199 2.240 . S
Cd198 O206 2.223 . S
Cd198 O208 2.297 . S
Cd198 O209 2.439 . S
O199 Cd198 2.240 . S
O199 C204 1.279 . S
O200 Cd197 2.297 . S
O200 C202 1.247 . S
O201 Cd197 2.439 . S
O201 C202 1.208 . S
C202 O200 1.247 . S
C202 O201 1.208 . S
C203 O208 1.247 . S
C203 O209 1.208 . S
C204 O196 1.315 . S
C204 O199 1.279 . S
C205 O206 1.315 . S
C205 O207 1.279 . S
O206 Cd198 2.223 . S
O206 C205 1.315 . S
O207 Cd197 2.240 . S
O207 C205 1.279 . S
O208 Cd198 2.297 . S
O208 C203 1.247 . S
O209 Cd198 2.439 . S
O209 C203 1.208 . S
O210 Cd211 2.223 . S
O210 C218 1.315 . S
Cd211 O210 2.223 . S
Cd211 O214 2.297 . S
Cd211 O215 2.439 . S
Cd211 O221 2.240 . S
Cd212 O213 2.240 . S
Cd212 O220 2.223 . S
Cd212 O222 2.297 . S
Cd212 O223 2.439 . S
O213 Cd212 2.240 . S
O213 C218 1.279 . S
O214 Cd211 2.297 . S
O214 C216 1.247 . S
O215 Cd211 2.439 . S
O215 C216 1.208 . S
C216 O214 1.247 . S
C216 O215 1.208 . S
C217 O222 1.247 . S
C217 O223 1.208 . S
C218 O210 1.315 . S
C218 O213 1.279 . S
C219 O220 1.315 . S
C219 O221 1.279 . S
O220 Cd212 2.223 . S
O220 C219 1.315 . S
O221 Cd211 2.240 . S
O221 C219 1.279 . S
O222 Cd212 2.297 . S
O222 C217 1.247 . S
O223 Cd212 2.439 . S
O223 C217 1.208 . S
O224 Cd225 2.223 . S
O224 C232 1.315 . S
Cd225 O224 2.223 . S
Cd225 O228 2.297 . S
Cd225 O229 2.439 . S
Cd225 O235 2.240 . S
Cd226 O227 2.240 . S
Cd226 O234 2.223 . S
Cd226 O236 2.297 . S
Cd226 O237 2.439 . S
O227 Cd226 2.240 . S
O227 C232 1.279 . S
O228 Cd225 2.297 . S
O228 C230 1.247 . S
O229 Cd225 2.439 . S
O229 C230 1.208 . S
C230 O228 1.247 . S
C230 O229 1.208 . S
C231 O236 1.247 . S
C231 O237 1.208 . S
C232 O224 1.315 . S
C232 O227 1.279 . S
C233 O234 1.315 . S
C233 O235 1.279 . S
O234 Cd226 2.223 . S
O234 C233 1.315 . S
O235 Cd225 2.240 . S
O235 C233 1.279 . S
O236 Cd226 2.297 . S
O236 C231 1.247 . S
O237 Cd226 2.439 . S
O237 C231 1.208 . S
O238 Cd239 2.223 . S
O238 C246 1.315 . S
Cd239 O238 2.223 . S
Cd239 O242 2.297 . S
Cd239 O243 2.439 . S
Cd239 O249 2.240 . S
Cd240 O241 2.240 . S
Cd240 O248 2.223 . S
Cd240 O250 2.297 . S
Cd240 O251 2.439 . S
O241 Cd240 2.240 . S
O241 C246 1.279 . S
O242 Cd239 2.297 . S
O242 C244 1.247 . S
O243 Cd239 2.439 . S
O243 C244 1.208 . S
C244 O242 1.247 . S
C244 O243 1.208 . S
C245 O250 1.247 . S
C245 O251 1.208 . S
C246 O238 1.315 . S
C246 O241 1.279 . S
C247 O248 1.315 . S
C247 O249 1.279 . S
O248 Cd240 2.223 . S
O248 C247 1.315 . S
O249 Cd239 2.240 . S
O249 C247 1.279 . S
O250 Cd240 2.297 . S
O250 C245 1.247 . S
O251 Cd240 2.439 . S
O251 C245 1.208 . S
O252 Cd253 2.223 . S
O252 C260 1.315 . S
Cd253 O252 2.223 . S
Cd253 O256 2.297 . S
Cd253 O257 2.439 . S
Cd253 O263 2.240 . S
Cd254 O255 2.240 . S
Cd254 O262 2.223 . S
Cd254 O264 2.297 . S
Cd254 O265 2.439 . S
O255 Cd254 2.240 . S
O255 C260 1.279 . S
O256 Cd253 2.297 . S
O256 C258 1.247 . S
O257 Cd253 2.439 . S
O257 C258 1.208 . S
C258 O256 1.247 . S
C258 O257 1.208 . S
C259 O264 1.247 . S
C259 O265 1.208 . S
C260 O252 1.315 . S
C260 O255 1.279 . S
C261 O262 1.315 . S
C261 O263 1.279 . S
O262 Cd254 2.223 . S
O262 C261 1.315 . S
O263 Cd253 2.240 . S
O263 C261 1.279 . S
O264 Cd254 2.297 . S
O264 C259 1.247 . S
O265 Cd254 2.439 . S
O265 C259 1.208 . S
O266 Cd267 2.223 . S
O266 C274 1.315 . S
Cd267 O266 2.223 . S
Cd267 O270 2.297 . S
Cd267 O271 2.439 . S
Cd267 O277 2.240 . S
Cd268 O269 2.240 . S
Cd268 O276 2.223 . S
Cd268 O278 2.297 . S
Cd268 O279 2.439 . S
O269 Cd268 2.240 . S
O269 C274 1.279 . S
O270 Cd267 2.297 . S
O270 C272 1.247 . S
O271 Cd267 2.439 . S
O271 C272 1.208 . S
C272 O270 1.247 . S
C272 O271 1.208 . S
C273 O278 1.247 . S
C273 O279 1.208 . S
C274 O266 1.315 . S
C274 O269 1.279 . S
C275 O276 1.315 . S
C275 O277 1.279 . S
O276 Cd268 2.223 . S
O276 C275 1.315 . S
O277 Cd267 2.240 . S
O277 C275 1.279 . S
O278 Cd268 2.297 . S
O278 C273 1.247 . S
O279 Cd268 2.439 . S
O279 C273 1.208 . S
O280 Cd281 2.223 . S
O280 C288 1.315 . S
Cd281 O280 2.223 . S
Cd281 O284 2.297 . S
Cd281 O285 2.439 . S
Cd281 O291 2.240 . S
Cd282 O283 2.240 . S
Cd282 O290 2.223 . S
Cd282 O292 2.297 1_554 S
Cd282 O293 2.439 1_554 S
O283 Cd282 2.240 . S
O283 C288 1.279 . S
O284 Cd281 2.297 . S
O284 C286 1.247 . S
O285 Cd281 2.439 . S
O285 C286 1.208 . S
C286 O284 1.247 . S
C286 O285 1.208 . S
C287 O292 1.247 . S
C287 O293 1.208 . S
C288 O280 1.315 . S
C288 O283 1.279 . S
C289 O290 1.315 . S
C289 O291 1.279 . S
O290 Cd282 2.223 . S
O290 C289 1.315 . S
O291 Cd281 2.240 . S
O291 C289 1.279 . S
O292 Cd282 2.297 1_556 S
O292 C287 1.247 . S
O293 Cd282 2.439 1_556 S
O293 C287 1.208 . S
O294 Cd295 2.223 . S
O294 C302 1.315 . S
Cd295 O294 2.223 . S
Cd295 O298 2.297 . S
Cd295 O299 2.439 . S
Cd295 O305 2.240 . S
Cd296 O297 2.240 . S
Cd296 O304 2.223 . S
Cd296 O306 2.297 . S
Cd296 O307 2.439 . S
O297 Cd296 2.240 . S
O297 C302 1.279 . S
O298 Cd295 2.297 . S
O298 C300 1.247 . S
O299 Cd295 2.439 . S
O299 C300 1.208 . S
C300 O298 1.247 . S
C300 O299 1.208 . S
C301 O306 1.247 . S
C301 O307 1.208 . S
C302 O294 1.315 . S
C302 O297 1.279 . S
C303 O304 1.315 . S
C303 O305 1.279 . S
O304 Cd296 2.223 . S
O304 C303 1.315 . S
O305 Cd295 2.240 . S
O305 C303 1.279 . S
O306 Cd296 2.297 . S
O306 C301 1.247 . S
O307 Cd296 2.439 . S
O307 C301 1.208 . S
O308 Cd309 2.223 . S
O308 C316 1.315 . S
Cd309 O308 2.223 . S
Cd309 O312 2.297 . S
Cd309 O313 2.439 . S
Cd309 O319 2.240 . S
Cd310 O311 2.240 . S
Cd310 O318 2.223 . S
Cd310 O320 2.297 . S
Cd310 O321 2.439 . S
O311 Cd310 2.240 . S
O311 C316 1.279 . S
O312 Cd309 2.297 . S
O312 C314 1.247 . S
O313 Cd309 2.439 . S
O313 C314 1.208 . S
C314 O312 1.247 . S
C314 O313 1.208 . S
C315 O320 1.247 . S
C315 O321 1.208 . S
C316 O308 1.315 . S
C316 O311 1.279 . S
C317 O318 1.315 . S
C317 O319 1.279 . S
O318 Cd310 2.223 . S
O318 C317 1.315 . S
O319 Cd309 2.240 . S
O319 C317 1.279 . S
O320 Cd310 2.297 . S
O320 C315 1.247 . S
O321 Cd310 2.439 . S
O321 C315 1.208 . S
O322 Cd323 2.223 . S
O322 C330 1.315 . S
Cd323 O322 2.223 . S
Cd323 O326 2.297 . S
Cd323 O327 2.439 . S
Cd323 O333 2.240 . S
Cd324 O325 2.240 . S
Cd324 O332 2.223 . S
Cd324 O334 2.297 . S
Cd324 O335 2.439 . S
O325 Cd324 2.240 . S
O325 C330 1.279 . S
O326 Cd323 2.297 . S
O326 C328 1.247 . S
O327 Cd323 2.439 . S
O327 C328 1.208 . S
C328 O326 1.247 . S
C328 O327 1.208 . S
C329 O334 1.247 . S
C329 O335 1.208 . S
C330 O322 1.315 . S
C330 O325 1.279 . S
C331 O332 1.315 . S
C331 O333 1.279 . S
O332 Cd324 2.223 . S
O332 C331 1.315 . S
O333 Cd323 2.240 . S
O333 C331 1.279 . S
O334 Cd324 2.297 . S
O334 C329 1.247 . S
O335 Cd324 2.439 . S
O335 C329 1.208 . S
Eu336 C345 2.828 . S
Eu336 O347 2.392 . S
Eu336 O349 2.418 . S
Eu336 O354 2.373 . S
Eu336 O357 2.488 . S
Eu336 O358 2.471 1_554 S
Eu336 O359 2.349 1_554 S
Eu337 O346 2.373 . S
Eu337 O350 2.488 1_545 S
Eu337 O351 2.471 1_545 S
Eu337 O352 2.349 . S
Eu337 O355 2.392 . S
Eu337 O356 2.418 1_554 S
Eu337 C366 2.828 1_545 S
C338 O356 1.244 . S
C338 O359 1.265 . S
C339 C340 1.379 1_554 S
C339 C343 1.373 . S
C339 C345 1.505 . S
C340 C339 1.379 1_556 S
C340 C342 1.369 . S
C340 H368 0.930 . S
C341 C343 1.383 . S
C341 C344 1.382 1_554 S
C341 H369 0.930 . S
C342 C340 1.369 . S
C342 C344 1.392 . S
C342 H370 0.930 . S
C343 C339 1.373 . S
C343 C341 1.383 . S
C343 H371 0.931 . S
C344 C341 1.382 1_556 S
C344 C342 1.392 . S
C345 Eu336 2.828 . S
C345 C339 1.505 . S
C345 O357 1.249 . S
C345 O358 1.244 1_554 S
O346 Eu337 2.373 . S
O346 C348 1.258 . S
O347 Eu336 2.392 . S
O347 C348 1.242 . S
C348 O346 1.258 . S
C348 O347 1.242 . S
O349 Eu336 2.418 . S
O349 C353 1.244 . S
O350 Eu337 2.488 1_565 S
O350 C366 1.249 . S
O351 Eu337 2.471 1_565 S
O351 C366 1.244 . S
O352 Eu337 2.349 . S
O352 C353 1.265 . S
C353 O349 1.244 . S
C353 O352 1.265 . S
O354 Eu336 2.373 . S
O354 C367 1.258 . S
O355 Eu337 2.392 . S
O355 C367 1.242 . S
O356 Eu337 2.418 1_556 S
O356 C338 1.244 . S
O357 Eu336 2.488 . S
O357 C345 1.249 . S
O358 Eu336 2.471 1_556 S
O358 C345 1.244 1_556 S
O359 Eu336 2.349 1_556 S
O359 C338 1.265 . S
C360 C361 1.379 . S
C360 C364 1.373 . S
C360 C366 1.505 . S
C361 C360 1.379 . S
C361 C363 1.369 . S
C361 H372 0.930 . S
C362 C364 1.383 . S
C362 C365 1.382 . S
C362 H373 0.930 . S
C363 C361 1.369 . S
C363 C365 1.392 . S
C363 H374 0.930 . S
C364 C360 1.373 . S
C364 C362 1.383 . S
C364 H375 0.931 . S
C365 C362 1.382 . S
C365 C363 1.392 . S
C366 Eu337 2.828 1_565 S
C366 O350 1.249 . S
C366 O351 1.244 . S
C366 C360 1.505 . S
C367 O354 1.258 . S
C367 O355 1.242 . S
H368 C340 0.930 . S
H369 C341 0.930 . S
H370 C342 0.930 . S
H371 C343 0.931 . S
H372 C361 0.930 . S
H373 C362 0.930 . S
H374 C363 0.930 . S
H375 C364 0.931 . S
Eu376 C385 2.828 . S
Eu376 O387 2.392 . S
Eu376 O389 2.418 . S
Eu376 O394 2.373 . S
Eu376 O397 2.488 . S
Eu376 O398 2.471 . S
Eu376 O399 2.349 . S
Eu377 O386 2.373 . S
Eu377 O390 2.488 . S
Eu377 O391 2.471 . S
Eu377 O392 2.349 . S
Eu377 O395 2.392 . S
Eu377 O396 2.418 . S
Eu377 C406 2.828 . S
C378 O396 1.244 . S
C378 O399 1.265 . S
C379 C380 1.379 . S
C379 C383 1.373 . S
C379 C385 1.505 . S
C380 C379 1.379 . S
C380 C382 1.369 . S
C380 H408 0.930 . S
C381 C383 1.383 . S
C381 C384 1.382 . S
C381 H409 0.930 . S
C382 C380 1.369 . S
C382 C384 1.392 . S
C382 H410 0.930 . S
C383 C379 1.373 . S
C383 C381 1.383 . S
C383 H411 0.931 . S
C384 C381 1.382 . S
C384 C382 1.392 . S
C385 Eu376 2.828 . S
C385 C379 1.505 . S
C385 O397 1.249 . S
C385 O398 1.244 . S
O386 Eu377 2.373 . S
O386 C388 1.258 . S
O387 Eu376 2.392 . S
O387 C388 1.242 . S
C388 O386 1.258 . S
C388 O387 1.242 . S
O389 Eu376 2.418 . S
O389 C393 1.244 . S
O390 Eu377 2.488 . S
O390 C406 1.249 . S
O391 Eu377 2.471 . S
O391 C406 1.244 . S
O392 Eu377 2.349 . S
O392 C393 1.265 . S
C393 O389 1.244 . S
C393 O392 1.265 . S
O394 Eu376 2.373 . S
O394 C407 1.258 . S
O395 Eu377 2.392 . S
O395 C407 1.242 . S
O396 Eu377 2.418 . S
O396 C378 1.244 . S
O397 Eu376 2.488 . S
O397 C385 1.249 . S
O398 Eu376 2.471 . S
O398 C385 1.244 . S
O399 Eu376 2.349 . S
O399 C378 1.265 . S
C400 C401 1.379 . S
C400 C404 1.373 . S
C400 C406 1.505 . S
C401 C400 1.379 . S
C401 C403 1.369 . S
C401 H412 0.930 . S
C402 C404 1.383 . S
C402 C405 1.382 . S
C402 H413 0.930 . S
C403 C401 1.369 . S
C403 C405 1.392 . S
C403 H414 0.930 . S
C404 C400 1.373 . S
C404 C402 1.383 . S
C404 H415 0.931 . S
C405 C402 1.382 . S
C405 C403 1.392 . S
C406 Eu377 2.828 . S
C406 O390 1.249 . S
C406 O391 1.244 . S
C406 C400 1.505 . S
C407 O394 1.258 . S
C407 O395 1.242 . S
H408 C380 0.930 . S
H409 C381 0.930 . S
H410 C382 0.930 . S
H411 C383 0.931 . S
H412 C401 0.930 . S
H413 C402 0.930 . S
H414 C403 0.930 . S
H415 C404 0.931 . S
Eu416 C425 2.828 . S
Eu416 O427 2.392 . S
Eu416 O429 2.418 . S
Eu416 O434 2.373 1_545 S
Eu416 O437 2.488 . S
Eu416 O438 2.471 . S
Eu416 O439 2.349 . S
Eu417 O426 2.373 . S
Eu417 O430 2.488 . S
Eu417 O431 2.471 . S
Eu417 O432 2.349 . S
Eu417 O435 2.392 1_545 S
Eu417 O436 2.418 . S
Eu417 C446 2.828 . S
C418 O436 1.244 . S
C418 O439 1.265 . S
C419 C420 1.379 . S
C419 C423 1.373 . S
C419 C425 1.505 1_565 S
C420 C419 1.379 . S
C420 C422 1.369 . S
C420 H448 0.930 . S
C421 C423 1.383 . S
C421 C424 1.382 . S
C421 H449 0.930 . S
C422 C420 1.369 . S
C422 C424 1.392 . S
C422 H450 0.930 . S
C423 C419 1.373 . S
C423 C421 1.383 . S
C423 H451 0.931 1_565 S
C424 C421 1.382 . S
C424 C422 1.392 . S
C425 Eu416 2.828 . S
C425 C419 1.505 1_545 S
C425 O437 1.249 . S
C425 O438 1.244 . S
O426 Eu417 2.373 . S
O426 C428 1.258 . S
O427 Eu416 2.392 . S
O427 C428 1.242 . S
C428 O426 1.258 . S
C428 O427 1.242 . S
O429 Eu416 2.418 . S
O429 C433 1.244 . S
O430 Eu417 2.488 . S
O430 C446 1.249 . S
O431 Eu417 2.471 . S
O431 C446 1.244 . S
O432 Eu417 2.349 . S
O432 C433 1.265 . S
C433 O429 1.244 . S
C433 O432 1.265 . S
O434 Eu416 2.373 1_565 S
O434 C447 1.258 . S
O435 Eu417 2.392 1_565 S
O435 C447 1.242 . S
O436 Eu417 2.418 . S
O436 C418 1.244 . S
O437 Eu416 2.488 . S
O437 C425 1.249 . S
O438 Eu416 2.471 . S
O438 C425 1.244 . S
O439 Eu416 2.349 . S
O439 C418 1.265 . S
C440 C441 1.379 . S
C440 C444 1.373 . S
C440 C446 1.505 . S
C441 C440 1.379 . S
C441 C443 1.369 . S
C441 H452 0.930 . S
C442 C444 1.383 . S
C442 C445 1.382 . S
C442 H453 0.930 . S
C443 C441 1.369 . S
C443 C445 1.392 . S
C443 H454 0.930 . S
C444 C440 1.373 . S
C444 C442 1.383 . S
C444 H455 0.931 . S
C445 C442 1.382 . S
C445 C443 1.392 . S
C446 Eu417 2.828 . S
C446 O430 1.249 . S
C446 O431 1.244 . S
C446 C440 1.505 . S
C447 O434 1.258 . S
C447 O435 1.242 . S
H448 C420 0.930 . S
H449 C421 0.930 . S
H450 C422 0.930 . S
H451 C423 0.931 1_545 S
H452 C441 0.930 . S
H453 C442 0.930 . S
H454 C443 0.930 . S
H455 C444 0.931 . S
Eu456 C465 2.828 . S
Eu456 O467 2.392 . S
Eu456 O469 2.418 . S
Eu456 O474 2.373 . S
Eu456 O477 2.488 . S
Eu456 O478 2.471 . S
Eu456 O479 2.349 . S
Eu457 O466 2.373 . S
Eu457 O470 2.488 . S
Eu457 O471 2.471 . S
Eu457 O472 2.349 . S
Eu457 O475 2.392 . S
Eu457 O476 2.418 . S
Eu457 C486 2.828 . S
C458 O476 1.244 . S
C458 O479 1.265 . S
C459 C460 1.379 . S
C459 C463 1.373 . S
C459 C465 1.505 . S
C460 C459 1.379 . S
C460 C462 1.369 . S
C460 H488 0.930 . S
C461 C463 1.383 . S
C461 C464 1.382 . S
C461 H489 0.930 . S
C462 C460 1.369 . S
C462 C464 1.392 . S
C462 H490 0.930 . S
C463 C459 1.373 . S
C463 C461 1.383 . S
C463 H491 0.931 . S
C464 C461 1.382 . S
C464 C462 1.392 . S
C465 Eu456 2.828 . S
C465 C459 1.505 . S
C465 O477 1.249 . S
C465 O478 1.244 . S
O466 Eu457 2.373 . S
O466 C468 1.258 . S
O467 Eu456 2.392 . S
O467 C468 1.242 . S
C468 O466 1.258 . S
C468 O467 1.242 . S
O469 Eu456 2.418 . S
O469 C473 1.244 . S
O470 Eu457 2.488 . S
O470 C486 1.249 . S
O471 Eu457 2.471 . S
O471 C486 1.244 . S
O472 Eu457 2.349 . S
O472 C473 1.265 . S
C473 O469 1.244 . S
C473 O472 1.265 . S
O474 Eu456 2.373 . S
O474 C487 1.258 . S
O475 Eu457 2.392 . S
O475 C487 1.242 . S
O476 Eu457 2.418 . S
O476 C458 1.244 . S
O477 Eu456 2.488 . S
O477 C465 1.249 . S
O478 Eu456 2.471 . S
O478 C465 1.244 . S
O479 Eu456 2.349 . S
O479 C458 1.265 . S
C480 C481 1.379 . S
C480 C484 1.373 . S
C480 C486 1.505 . S
C481 C480 1.379 . S
C481 C483 1.369 . S
C481 H492 0.930 . S
C482 C484 1.383 . S
C482 C485 1.382 . S
C482 H493 0.930 . S
C483 C481 1.369 . S
C483 C485 1.392 . S
C483 H494 0.930 . S
C484 C480 1.373 . S
C484 C482 1.383 . S
C484 H495 0.931 . S
C485 C482 1.382 . S
C485 C483 1.392 . S
C486 Eu457 2.828 . S
C486 O470 1.249 . S
C486 O471 1.244 . S
C486 C480 1.505 . S
C487 O474 1.258 . S
C487 O475 1.242 . S
H488 C460 0.930 . S
H489 C461 0.930 . S
H490 C462 0.930 . S
H491 C463 0.931 . S
H492 C481 0.930 . S
H493 C482 0.930 . S
H494 C483 0.930 . S
H495 C484 0.931 . S
Eu496 C505 2.828 . S
Eu496 O507 2.392 . S
Eu496 O509 2.418 . S
Eu496 O514 2.373 . S
Eu496 O517 2.488 . S
Eu496 O518 2.471 . S
Eu496 O519 2.349 . S
Eu497 O506 2.373 . S
Eu497 O510 2.488 1_545 S
Eu497 O511 2.471 1_545 S
Eu497 O512 2.349 . S
Eu497 O515 2.392 . S
Eu497 O516 2.418 . S
Eu497 C526 2.828 1_545 S
C498 O516 1.244 . S
C498 O519 1.265 . S
C499 C500 1.379 . S
C499 C503 1.373 . S
C499 C505 1.505 . S
C500 C499 1.379 . S
C500 C502 1.369 . S
C500 H528 0.930 . S
C501 C503 1.383 . S
C501 C504 1.382 . S
C501 H529 0.930 . S
C502 C500 1.369 . S
C502 C504 1.392 . S
C502 H530 0.930 . S
C503 C499 1.373 . S
C503 C501 1.383 . S
C503 H531 0.931 . S
C504 C501 1.382 . S
C504 C502 1.392 . S
C505 Eu496 2.828 . S
C505 C499 1.505 . S
C505 O517 1.249 . S
C505 O518 1.244 . S
O506 Eu497 2.373 . S
O506 C508 1.258 . S
O507 Eu496 2.392 . S
O507 C508 1.242 . S
C508 O506 1.258 . S
C508 O507 1.242 . S
O509 Eu496 2.418 . S
O509 C513 1.244 . S
O510 Eu497 2.488 1_565 S
O510 C526 1.249 . S
O511 Eu497 2.471 1_565 S
O511 C526 1.244 . S
O512 Eu497 2.349 . S
O512 C513 1.265 . S
C513 O509 1.244 . S
C513 O512 1.265 . S
O514 Eu496 2.373 . S
O514 C527 1.258 . S
O515 Eu497 2.392 . S
O515 C527 1.242 . S
O516 Eu497 2.418 . S
O516 C498 1.244 . S
O517 Eu496 2.488 . S
O517 C505 1.249 . S
O518 Eu496 2.471 . S
O518 C505 1.244 . S
O519 Eu496 2.349 . S
O519 C498 1.265 . S
C520 C521 1.379 . S
C520 C524 1.373 . S
C520 C526 1.505 . S
C521 C520 1.379 . S
C521 C523 1.369 . S
C521 H532 0.930 . S
C522 C524 1.383 . S
C522 C525 1.382 . S
C522 H533 0.930 . S
C523 C521 1.369 . S
C523 C525 1.392 . S
C523 H534 0.930 . S
C524 C520 1.373 . S
C524 C522 1.383 . S
C524 H535 0.931 . S
C525 C522 1.382 . S
C525 C523 1.392 . S
C526 Eu497 2.828 1_565 S
C526 O510 1.249 . S
C526 O511 1.244 . S
C526 C520 1.505 . S
C527 O514 1.258 . S
C527 O515 1.242 . S
H528 C500 0.930 . S
H529 C501 0.930 . S
H530 C502 0.930 . S
H531 C503 0.931 . S
H532 C521 0.930 . S
H533 C522 0.930 . S
H534 C523 0.930 . S
H535 C524 0.931 . S
Eu536 C545 2.828 . S
Eu536 O547 2.392 . S
Eu536 O549 2.418 . S
Eu536 O554 2.373 . S
Eu536 O557 2.488 . S
Eu536 O558 2.471 . S
Eu536 O559 2.349 . S
Eu537 O546 2.373 . S
Eu537 O550 2.488 . S
Eu537 O551 2.471 . S
Eu537 O552 2.349 . S
Eu537 O555 2.392 . S
Eu537 O556 2.418 . S
Eu537 C566 2.828 . S
C538 O556 1.244 . S
C538 O559 1.265 . S
C539 C540 1.379 . S
C539 C543 1.373 . S
C539 C545 1.505 . S
C540 C539 1.379 . S
C540 C542 1.369 . S
C540 H568 0.930 . S
C541 C543 1.383 . S
C541 C544 1.382 . S
C541 H569 0.930 . S
C542 C540 1.369 . S
C542 C544 1.392 . S
C542 H570 0.930 . S
C543 C539 1.373 . S
C543 C541 1.383 . S
C543 H571 0.931 . S
C544 C541 1.382 . S
C544 C542 1.392 . S
C545 Eu536 2.828 . S
C545 C539 1.505 . S
C545 O557 1.249 . S
C545 O558 1.244 . S
O546 Eu537 2.373 . S
O546 C548 1.258 . S
O547 Eu536 2.392 . S
O547 C548 1.242 . S
C548 O546 1.258 . S
C548 O547 1.242 . S
O549 Eu536 2.418 . S
O549 C553 1.244 . S
O550 Eu537 2.488 . S
O550 C566 1.249 . S
O551 Eu537 2.471 . S
O551 C566 1.244 . S
O552 Eu537 2.349 . S
O552 C553 1.265 . S
C553 O549 1.244 . S
C553 O552 1.265 . S
O554 Eu536 2.373 . S
O554 C567 1.258 . S
O555 Eu537 2.392 . S
O555 C567 1.242 . S
O556 Eu537 2.418 . S
O556 C538 1.244 . S
O557 Eu536 2.488 . S
O557 C545 1.249 . S
O558 Eu536 2.471 . S
O558 C545 1.244 . S
O559 Eu536 2.349 . S
O559 C538 1.265 . S
C560 C561 1.379 . S
C560 C564 1.373 . S
C560 C566 1.505 . S
C561 C560 1.379 . S
C561 C563 1.369 . S
C561 H572 0.930 . S
C562 C564 1.383 . S
C562 C565 1.382 . S
C562 H573 0.930 . S
C563 C561 1.369 . S
C563 C565 1.392 . S
C563 H574 0.930 . S
C564 C560 1.373 . S
C564 C562 1.383 . S
C564 H575 0.931 . S
C565 C562 1.382 . S
C565 C563 1.392 . S
C566 Eu537 2.828 . S
C566 O550 1.249 . S
C566 O551 1.244 . S
C566 C560 1.505 . S
C567 O554 1.258 . S
C567 O555 1.242 . S
H568 C540 0.930 . S
H569 C541 0.930 . S
H570 C542 0.930 . S
H571 C543 0.931 . S
H572 C561 0.930 . S
H573 C562 0.930 . S
H574 C563 0.930 . S
H575 C564 0.931 . S
Eu576 C585 2.828 . S
Eu576 O587 2.392 . S
Eu576 O589 2.418 1_545 S
Eu576 O594 2.373 . S
Eu576 O597 2.488 . S
Eu576 O598 2.471 . S
Eu576 O599 2.349 . S
Eu577 O586 2.373 1_556 S
Eu577 O590 2.488 . S
Eu577 O591 2.471 . S
Eu577 O592 2.349 1_556 S
Eu577 O595 2.392 1_556 S
Eu577 O596 2.418 1_556 S
Eu577 C606 2.828 . S
C578 O596 1.244 . S
C578 O599 1.265 . S
C579 C580 1.379 . S
C579 C583 1.373 1_545 S
C579 C585 1.505 . S
C580 C579 1.379 . S
C580 C582 1.369 . S
C580 H608 0.930 . S
C581 C583 1.383 . S
C581 C584 1.382 1_565 S
C581 H609 0.930 . S
C582 C580 1.369 . S
C582 C584 1.392 . S
C582 H610 0.930 . S
C583 C579 1.373 1_565 S
C583 C581 1.383 . S
C583 H611 0.931 . S
C584 C581 1.382 1_545 S
C584 C582 1.392 . S
C585 Eu576 2.828 . S
C585 C579 1.505 . S
C585 O597 1.249 . S
C585 O598 1.244 . S
O586 Eu577 2.373 1_554 S
O586 C588 1.258 . S
O587 Eu576 2.392 . S
O587 C588 1.242 . S
C588 O586 1.258 . S
C588 O587 1.242 . S
O589 Eu576 2.418 1_565 S
O589 C593 1.244 . S
O590 Eu577 2.488 . S
O590 C606 1.249 . S
O591 Eu577 2.471 . S
O591 C606 1.244 . S
O592 Eu577 2.349 1_554 S
O592 C593 1.265 1_545 S
C593 O589 1.244 . S
C593 O592 1.265 1_565 S
O594 Eu576 2.373 . S
O594 C607 1.258 . S
O595 Eu577 2.392 1_554 S
O595 C607 1.242 . S
O596 Eu577 2.418 1_554 S
O596 C578 1.244 . S
O597 Eu576 2.488 . S
O597 C585 1.249 . S
O598 Eu576 2.471 . S
O598 C585 1.244 . S
O599 Eu576 2.349 . S
O599 C578 1.265 . S
C600 C601 1.379 . S
C600 C604 1.373 . S
C600 C606 1.505 . S
C601 C600 1.379 . S
C601 C603 1.369 . S
C601 H612 0.930 . S
C602 C604 1.383 . S
C602 C605 1.382 . S
C602 H613 0.930 . S
C603 C601 1.369 . S
C603 C605 1.392 . S
C603 H614 0.930 . S
C604 C600 1.373 . S
C604 C602 1.383 . S
C604 H615 0.931 . S
C605 C602 1.382 . S
C605 C603 1.392 . S
C606 Eu577 2.828 . S
C606 O590 1.249 . S
C606 O591 1.244 . S
C606 C600 1.505 . S
C607 O594 1.258 . S
C607 O595 1.242 . S
H608 C580 0.930 . S
H609 C581 0.930 . S
H610 C582 0.930 . S
H611 C583 0.931 . S
H612 C601 0.930 . S
H613 C602 0.930 . S
H614 C603 0.930 . S
H615 C604 0.931 . S
Eu616 C625 2.828 . S
Eu616 O627 2.392 . S
Eu616 O629 2.418 . S
Eu616 O634 2.373 . S
Eu616 O637 2.488 . S
Eu616 O638 2.471 . S
Eu616 O639 2.349 . S
Eu617 O626 2.373 . S
Eu617 O630 2.488 . S
Eu617 O631 2.471 . S
Eu617 O632 2.349 . S
Eu617 O635 2.392 . S
Eu617 O636 2.418 . S
Eu617 C646 2.828 . S
C618 O636 1.244 . S
C618 O639 1.265 . S
C619 C620 1.379 . S
C619 C623 1.373 . S
C619 C625 1.505 . S
C620 C619 1.379 . S
C620 C622 1.369 . S
C620 H648 0.930 . S
C621 C623 1.383 . S
C621 C624 1.382 . S
C621 H649 0.930 . S
C622 C620 1.369 . S
C622 C624 1.392 . S
C622 H650 0.930 . S
C623 C619 1.373 . S
C623 C621 1.383 . S
C623 H651 0.931 . S
C624 C621 1.382 . S
C624 C622 1.392 . S
C625 Eu616 2.828 . S
C625 C619 1.505 . S
C625 O637 1.249 . S
C625 O638 1.244 . S
O626 Eu617 2.373 . S
O626 C628 1.258 . S
O627 Eu616 2.392 . S
O627 C628 1.242 . S
C628 O626 1.258 . S
C628 O627 1.242 . S
O629 Eu616 2.418 . S
O629 C633 1.244 . S
O630 Eu617 2.488 . S
O630 C646 1.249 . S
O631 Eu617 2.471 . S
O631 C646 1.244 . S
O632 Eu617 2.349 . S
O632 C633 1.265 . S
C633 O629 1.244 . S
C633 O632 1.265 . S
O634 Eu616 2.373 . S
O634 C647 1.258 . S
O635 Eu617 2.392 . S
O635 C647 1.242 . S
O636 Eu617 2.418 . S
O636 C618 1.244 . S
O637 Eu616 2.488 . S
O637 C625 1.249 . S
O638 Eu616 2.471 . S
O638 C625 1.244 . S
O639 Eu616 2.349 . S
O639 C618 1.265 . S
C640 C641 1.379 . S
C640 C644 1.373 . S
C640 C646 1.505 . S
C641 C640 1.379 . S
C641 C643 1.369 . S
C641 H652 0.930 . S
C642 C644 1.383 . S
C642 C645 1.382 . S
C642 H653 0.930 . S
C643 C641 1.369 . S
C643 C645 1.392 . S
C643 H654 0.930 . S
C644 C640 1.373 . S
C644 C642 1.383 . S
C644 H655 0.931 . S
C645 C642 1.382 . S
C645 C643 1.392 . S
C646 Eu617 2.828 . S
C646 O630 1.249 . S
C646 O631 1.244 . S
C646 C640 1.505 . S
C647 O634 1.258 . S
C647 O635 1.242 . S
H648 C620 0.930 . S
H649 C621 0.930 . S
H650 C622 0.930 . S
H651 C623 0.931 . S
H652 C641 0.930 . S
H653 C642 0.930 . S
H654 C643 0.930 . S
H655 C644 0.931 . S
Eu656 C665 2.828 . S
Eu656 O667 2.392 . S
Eu656 O669 2.418 . S
Eu656 O674 2.373 1_554 S
Eu656 O677 2.488 . S
Eu656 O678 2.471 . S
Eu656 O679 2.349 . S
Eu657 O666 2.373 . S
Eu657 O670 2.488 . S
Eu657 O671 2.471 . S
Eu657 O672 2.349 . S
Eu657 O675 2.392 1_554 S
Eu657 O676 2.418 . S
Eu657 C686 2.828 . S
C658 O676 1.244 . S
C658 O679 1.265 . S
C659 C660 1.379 1_554 S
C659 C663 1.373 . S
C659 C665 1.505 . S
C660 C659 1.379 1_556 S
C660 C662 1.369 . S
C660 H688 0.930 . S
C661 C663 1.383 1_556 S
C661 C664 1.382 . S
C661 H689 0.930 . S
C662 C660 1.369 . S
C662 C664 1.392 . S
C662 H690 0.930 . S
C663 C659 1.373 . S
C663 C661 1.383 1_554 S
C663 H691 0.931 . S
C664 C661 1.382 . S
C664 C662 1.392 . S
C665 Eu656 2.828 . S
C665 C659 1.505 . S
C665 O677 1.249 . S
C665 O678 1.244 . S
O666 Eu657 2.373 . S
O666 C668 1.258 . S
O667 Eu656 2.392 . S
O667 C668 1.242 . S
C668 O666 1.258 . S
C668 O667 1.242 . S
O669 Eu656 2.418 . S
O669 C673 1.244 . S
O670 Eu657 2.488 . S
O670 C686 1.249 . S
O671 Eu657 2.471 . S
O671 C686 1.244 . S
O672 Eu657 2.349 . S
O672 C673 1.265 . S
C673 O669 1.244 . S
C673 O672 1.265 . S
O674 Eu656 2.373 1_556 S
O674 C687 1.258 . S
O675 Eu657 2.392 1_556 S
O675 C687 1.242 . S
O676 Eu657 2.418 . S
O676 C658 1.244 . S
O677 Eu656 2.488 . S
O677 C665 1.249 . S
O678 Eu656 2.471 . S
O678 C665 1.244 . S
O679 Eu656 2.349 . S
O679 C658 1.265 . S
C680 C681 1.379 . S
C680 C684 1.373 . S
C680 C686 1.505 . S
C681 C680 1.379 . S
C681 C683 1.369 . S
C681 H692 0.930 . S
C682 C684 1.383 . S
C682 C685 1.382 . S
C682 H693 0.930 . S
C683 C681 1.369 . S
C683 C685 1.392 . S
C683 H694 0.930 . S
C684 C680 1.373 . S
C684 C682 1.383 . S
C684 H695 0.931 . S
C685 C682 1.382 . S
C685 C683 1.392 . S
C686 Eu657 2.828 . S
C686 O670 1.249 . S
C686 O671 1.244 . S
C686 C680 1.505 . S
C687 O674 1.258 . S
C687 O675 1.242 . S
H688 C660 0.930 . S
H689 C661 0.930 . S
H690 C662 0.930 . S
H691 C663 0.931 . S
H692 C681 0.930 . S
H693 C682 0.930 . S
H694 C683 0.930 . S
H695 C684 0.931 . S
Eu696 C705 2.828 . S
Eu696 O707 2.392 . S
Eu696 O709 2.418 . S
Eu696 O714 2.373 . S
Eu696 O717 2.488 . S
Eu696 O718 2.471 . S
Eu696 O719 2.349 . S
Eu697 O706 2.373 . S
Eu697 O710 2.488 . S
Eu697 O711 2.471 . S
Eu697 O712 2.349 . S
Eu697 O715 2.392 . S
Eu697 O716 2.418 . S
Eu697 C726 2.828 . S
C698 O716 1.244 . S
C698 O719 1.265 . S
C699 C700 1.379 . S
C699 C703 1.373 . S
C699 C705 1.505 . S
C700 C699 1.379 . S
C700 C702 1.369 . S
C700 H728 0.930 . S
C701 C703 1.383 . S
C701 C704 1.382 . S
C701 H729 0.930 . S
C702 C700 1.369 . S
C702 C704 1.392 . S
C702 H730 0.930 . S
C703 C699 1.373 . S
C703 C701 1.383 . S
C703 H731 0.931 . S
C704 C701 1.382 . S
C704 C702 1.392 . S
C705 Eu696 2.828 . S
C705 C699 1.505 . S
C705 O717 1.249 . S
C705 O718 1.244 . S
O706 Eu697 2.373 . S
O706 C708 1.258 . S
O707 Eu696 2.392 . S
O707 C708 1.242 . S
C708 O706 1.258 . S
C708 O707 1.242 . S
O709 Eu696 2.418 . S
O709 C713 1.244 . S
O710 Eu697 2.488 . S
O710 C726 1.249 . S
O711 Eu697 2.471 . S
O711 C726 1.244 . S
O712 Eu697 2.349 . S
O712 C713 1.265 . S
C713 O709 1.244 . S
C713 O712 1.265 . S
O714 Eu696 2.373 . S
O714 C727 1.258 . S
O715 Eu697 2.392 . S
O715 C727 1.242 . S
O716 Eu697 2.418 . S
O716 C698 1.244 . S
O717 Eu696 2.488 . S
O717 C705 1.249 . S
O718 Eu696 2.471 . S
O718 C705 1.244 . S
O719 Eu696 2.349 . S
O719 C698 1.265 . S
C720 C721 1.379 . S
C720 C724 1.373 . S
C720 C726 1.505 . S
C721 C720 1.379 . S
C721 C723 1.369 . S
C721 H732 0.930 . S
C722 C724 1.383 . S
C722 C725 1.382 . S
C722 H733 0.930 . S
C723 C721 1.369 . S
C723 C725 1.392 . S
C723 H734 0.930 . S
C724 C720 1.373 . S
C724 C722 1.383 . S
C724 H735 0.931 . S
C725 C722 1.382 . S
C725 C723 1.392 . S
C726 Eu697 2.828 . S
C726 O710 1.249 . S
C726 O711 1.244 . S
C726 C720 1.505 . S
C727 O714 1.258 . S
C727 O715 1.242 . S
H728 C700 0.930 . S
H729 C701 0.930 . S
H730 C702 0.930 . S
H731 C703 0.931 . S
H732 C721 0.930 . S
H733 C722 0.930 . S
H734 C723 0.930 . S
H735 C724 0.931 . S
Eu736 C745 2.828 . S
Eu736 O747 2.392 . S
Eu736 O749 2.418 . S
Eu736 O754 2.373 . S
Eu736 O757 2.488 . S
Eu736 O758 2.471 . S
Eu736 O759 2.349 . S
Eu737 O746 2.373 . S
Eu737 O750 2.488 . S
Eu737 O751 2.471 . S
Eu737 O752 2.349 . S
Eu737 O755 2.392 . S
Eu737 O756 2.418 . S
Eu737 C766 2.828 . S
C738 O756 1.244 . S
C738 O759 1.265 . S
C739 C740 1.379 . S
C739 C743 1.373 . S
C739 C745 1.505 . S
C740 C739 1.379 . S
C740 C742 1.369 1_455 S
C740 H768 0.930 . S
C741 C743 1.383 . S
C741 C744 1.382 1_455 S
C741 H769 0.930 . S
C742 C740 1.369 1_655 S
C742 C744 1.392 . S
C742 H770 0.930 . S
C743 C739 1.373 . S
C743 C741 1.383 . S
C743 H771 0.931 . S
C744 C741 1.382 1_655 S
C744 C742 1.392 . S
C745 Eu736 2.828 . S
C745 C739 1.505 . S
C745 O757 1.249 . S
C745 O758 1.244 . S
O746 Eu737 2.373 . S
O746 C748 1.258 . S
O747 Eu736 2.392 . S
O747 C748 1.242 . S
C748 O746 1.258 . S
C748 O747 1.242 . S
O749 Eu736 2.418 . S
O749 C753 1.244 . S
O750 Eu737 2.488 . S
O750 C766 1.249 . S
O751 Eu737 2.471 . S
O751 C766 1.244 . S
O752 Eu737 2.349 . S
O752 C753 1.265 . S
C753 O749 1.244 . S
C753 O752 1.265 . S
O754 Eu736 2.373 . S
O754 C767 1.258 . S
O755 Eu737 2.392 . S
O755 C767 1.242 . S
O756 Eu737 2.418 . S
O756 C738 1.244 . S
O757 Eu736 2.488 . S
O757 C745 1.249 . S
O758 Eu736 2.471 . S
O758 C745 1.244 . S
O759 Eu736 2.349 . S
O759 C738 1.265 . S
C760 C761 1.379 . S
C760 C764 1.373 . S
C760 C766 1.505 . S
C761 C760 1.379 . S
C761 C763 1.369 . S
C761 H772 0.930 . S
C762 C764 1.383 . S
C762 C765 1.382 . S
C762 H773 0.930 . S
C763 C761 1.369 . S
C763 C765 1.392 . S
C763 H774 0.930 . S
C764 C760 1.373 . S
C764 C762 1.383 . S
C764 H775 0.931 . S
C765 C762 1.382 . S
C765 C763 1.392 . S
C766 Eu737 2.828 . S
C766 O750 1.249 . S
C766 O751 1.244 . S
C766 C760 1.505 . S
C767 O754 1.258 . S
C767 O755 1.242 . S
H768 C740 0.930 . S
H769 C741 0.930 . S
H770 C742 0.930 . S
H771 C743 0.931 . S
H772 C761 0.930 . S
H773 C762 0.930 . S
H774 C763 0.930 . S
H775 C764 0.931 . S
Eu776 C785 2.828 . S
Eu776 O787 2.392 . S
Eu776 O789 2.418 . S
Eu776 O794 2.373 . S
Eu776 O797 2.488 . S
Eu776 O798 2.471 . S
Eu776 O799 2.349 . S
Eu777 O786 2.373 . S
Eu777 O790 2.488 . S
Eu777 O791 2.471 . S
Eu777 O792 2.349 . S
Eu777 O795 2.392 . S
Eu777 O796 2.418 . S
Eu777 C806 2.828 . S
C778 O796 1.244 . S
C778 O799 1.265 . S
C779 C780 1.379 . S
C779 C783 1.373 . S
C779 C785 1.505 . S
C780 C779 1.379 . S
C780 C782 1.369 . S
C780 H808 0.930 . S
C781 C783 1.383 . S
C781 C784 1.382 . S
C781 H809 0.930 . S
C782 C780 1.369 . S
C782 C784 1.392 . S
C782 H810 0.930 . S
C783 C779 1.373 . S
C783 C781 1.383 . S
C783 H811 0.931 . S
C784 C781 1.382 . S
C784 C782 1.392 . S
C785 Eu776 2.828 . S
C785 C779 1.505 . S
C785 O797 1.249 . S
C785 O798 1.244 . S
O786 Eu777 2.373 . S
O786 C788 1.258 . S
O787 Eu776 2.392 . S
O787 C788 1.242 . S
C788 O786 1.258 . S
C788 O787 1.242 . S
O789 Eu776 2.418 . S
O789 C793 1.244 . S
O790 Eu777 2.488 . S
O790 C806 1.249 . S
O791 Eu777 2.471 . S
O791 C806 1.244 . S
O792 Eu777 2.349 . S
O792 C793 1.265 . S
C793 O789 1.244 . S
C793 O792 1.265 . S
O794 Eu776 2.373 . S
O794 C807 1.258 . S
O795 Eu777 2.392 . S
O795 C807 1.242 . S
O796 Eu777 2.418 . S
O796 C778 1.244 . S
O797 Eu776 2.488 . S
O797 C785 1.249 . S
O798 Eu776 2.471 . S
O798 C785 1.244 . S
O799 Eu776 2.349 . S
O799 C778 1.265 . S
C800 C801 1.379 . S
C800 C804 1.373 . S
C800 C806 1.505 . S
C801 C800 1.379 . S
C801 C803 1.369 . S
C801 H812 0.930 . S
C802 C804 1.383 . S
C802 C805 1.382 . S
C802 H813 0.930 . S
C803 C801 1.369 . S
C803 C805 1.392 . S
C803 H814 0.930 . S
C804 C800 1.373 . S
C804 C802 1.383 . S
C804 H815 0.931 . S
C805 C802 1.382 . S
C805 C803 1.392 . S
C806 Eu777 2.828 . S
C806 O790 1.249 . S
C806 O791 1.244 . S
C806 C800 1.505 . S
C807 O794 1.258 . S
C807 O795 1.242 . S
H808 C780 0.930 . S
H809 C781 0.930 . S
H810 C782 0.930 . S
H811 C783 0.931 . S
H812 C801 0.930 . S
H813 C802 0.930 . S
H814 C803 0.930 . S
H815 C804 0.931 . S
Eu816 C825 2.828 . S
Eu816 O827 2.392 . S
Eu816 O829 2.418 . S
Eu816 O834 2.373 . S
Eu816 O837 2.488 . S
Eu816 O838 2.471 . S
Eu816 O839 2.349 . S
Eu817 O826 2.373 . S
Eu817 O830 2.488 . S
Eu817 O831 2.471 . S
Eu817 O832 2.349 . S
Eu817 O835 2.392 . S
Eu817 O836 2.418 . S
Eu817 C846 2.828 . S
C818 O836 1.244 . S
C818 O839 1.265 . S
C819 C820 1.379 . S
C819 C823 1.373 . S
C819 C825 1.505 . S
C820 C819 1.379 . S
C820 C822 1.369 . S
C820 H848 0.930 . S
C821 C823 1.383 . S
C821 C824 1.382 . S
C821 H849 0.930 . S
C822 C820 1.369 . S
C822 C824 1.392 . S
C822 H850 0.930 . S
C823 C819 1.373 . S
C823 C821 1.383 . S
C823 H851 0.931 . S
C824 C821 1.382 . S
C824 C822 1.392 . S
C825 Eu816 2.828 . S
C825 C819 1.505 . S
C825 O837 1.249 . S
C825 O838 1.244 . S
O826 Eu817 2.373 . S
O826 C828 1.258 . S
O827 Eu816 2.392 . S
O827 C828 1.242 . S
C828 O826 1.258 . S
C828 O827 1.242 . S
O829 Eu816 2.418 . S
O829 C833 1.244 . S
O830 Eu817 2.488 . S
O830 C846 1.249 . S
O831 Eu817 2.471 . S
O831 C846 1.244 . S
O832 Eu817 2.349 . S
O832 C833 1.265 . S
C833 O829 1.244 . S
C833 O832 1.265 . S
O834 Eu816 2.373 . S
O834 C847 1.258 . S
O835 Eu817 2.392 . S
O835 C847 1.242 . S
O836 Eu817 2.418 . S
O836 C818 1.244 . S
O837 Eu816 2.488 . S
O837 C825 1.249 . S
O838 Eu816 2.471 . S
O838 C825 1.244 . S
O839 Eu816 2.349 . S
O839 C818 1.265 . S
C840 C841 1.379 . S
C840 C844 1.373 . S
C840 C846 1.505 . S
C841 C840 1.379 . S
C841 C843 1.369 . S
C841 H852 0.930 . S
C842 C844 1.383 . S
C842 C845 1.382 . S
C842 H853 0.930 . S
C843 C841 1.369 . S
C843 C845 1.392 . S
C843 H854 0.930 . S
C844 C840 1.373 . S
C844 C842 1.383 . S
C844 H855 0.931 . S
C845 C842 1.382 . S
C845 C843 1.392 . S
C846 Eu817 2.828 . S
C846 O830 1.249 . S
C846 O831 1.244 . S
C846 C840 1.505 . S
C847 O834 1.258 . S
C847 O835 1.242 . S
H848 C820 0.930 . S
H849 C821 0.930 . S
H850 C822 0.930 . S
H851 C823 0.931 . S
H852 C841 0.930 . S
H853 C842 0.930 . S
H854 C843 0.930 . S
H855 C844 0.931 . S
Eu856 C865 2.828 . S
Eu856 O867 2.392 . S
Eu856 O869 2.418 . S
Eu856 O874 2.373 . S
Eu856 O877 2.488 . S
Eu856 O878 2.471 . S
Eu856 O879 2.349 . S
Eu857 O866 2.373 . S
Eu857 O870 2.488 . S
Eu857 O871 2.471 . S
Eu857 O872 2.349 . S
Eu857 O875 2.392 . S
Eu857 O876 2.418 . S
Eu857 C886 2.828 . S
C858 O876 1.244 . S
C858 O879 1.265 . S
C859 C860 1.379 . S
C859 C863 1.373 . S
C859 C865 1.505 . S
C860 C859 1.379 . S
C860 C862 1.369 . S
C860 H888 0.930 . S
C861 C863 1.383 . S
C861 C864 1.382 . S
C861 H889 0.930 . S
C862 C860 1.369 . S
C862 C864 1.392 . S
C862 H890 0.930 . S
C863 C859 1.373 . S
C863 C861 1.383 . S
C863 H891 0.931 . S
C864 C861 1.382 . S
C864 C862 1.392 . S
C865 Eu856 2.828 . S
C865 C859 1.505 . S
C865 O877 1.249 . S
C865 O878 1.244 . S
O866 Eu857 2.373 . S
O866 C868 1.258 . S
O867 Eu856 2.392 . S
O867 C868 1.242 . S
C868 O866 1.258 . S
C868 O867 1.242 . S
O869 Eu856 2.418 . S
O869 C873 1.244 . S
O870 Eu857 2.488 . S
O870 C886 1.249 . S
O871 Eu857 2.471 . S
O871 C886 1.244 . S
O872 Eu857 2.349 . S
O872 C873 1.265 . S
C873 O869 1.244 . S
C873 O872 1.265 . S
O874 Eu856 2.373 . S
O874 C887 1.258 . S
O875 Eu857 2.392 . S
O875 C887 1.242 . S
O876 Eu857 2.418 . S
O876 C858 1.244 . S
O877 Eu856 2.488 . S
O877 C865 1.249 . S
O878 Eu856 2.471 . S
O878 C865 1.244 . S
O879 Eu856 2.349 . S
O879 C858 1.265 . S
C880 C881 1.379 . S
C880 C884 1.373 . S
C880 C886 1.505 . S
C881 C880 1.379 . S
C881 C883 1.369 . S
C881 H892 0.930 . S
C882 C884 1.383 . S
C882 C885 1.382 . S
C882 H893 0.930 . S
C883 C881 1.369 . S
C883 C885 1.392 . S
C883 H894 0.930 . S
C884 C880 1.373 . S
C884 C882 1.383 . S
C884 H895 0.931 . S
C885 C882 1.382 . S
C885 C883 1.392 . S
C886 Eu857 2.828 . S
C886 O870 1.249 . S
C886 O871 1.244 . S
C886 C880 1.505 . S
C887 O874 1.258 . S
C887 O875 1.242 . S
H888 C860 0.930 . S
H889 C861 0.930 . S
H890 C862 0.930 . S
H891 C863 0.931 . S
H892 C881 0.930 . S
H893 C882 0.930 . S
H894 C883 0.930 . S
H895 C884 0.931 . S
Eu896 C905 2.828 . S
Eu896 O907 2.392 . S
Eu896 O909 2.418 . S
Eu896 O914 2.373 . S
Eu896 O917 2.488 . S
Eu896 O918 2.471 . S
Eu896 O919 2.349 . S
Eu897 O906 2.373 . S
Eu897 O910 2.488 . S
Eu897 O911 2.471 . S
Eu897 O912 2.349 . S
Eu897 O915 2.392 . S
Eu897 O916 2.418 . S
Eu897 C926 2.828 . S
C898 O916 1.244 . S
C898 O919 1.265 . S
C899 C900 1.379 . S
C899 C903 1.373 . S
C899 C905 1.505 . S
C900 C899 1.379 . S
C900 C902 1.369 . S
C900 H928 0.930 . S
C901 C903 1.383 . S
C901 C904 1.382 . S
C901 H929 0.930 . S
C902 C900 1.369 . S
C902 C904 1.392 . S
C902 H930 0.930 . S
C903 C899 1.373 . S
C903 C901 1.383 . S
C903 H931 0.931 . S
C904 C901 1.382 . S
C904 C902 1.392 . S
C905 Eu896 2.828 . S
C905 C899 1.505 . S
C905 O917 1.249 . S
C905 O918 1.244 . S
O906 Eu897 2.373 . S
O906 C908 1.258 . S
O907 Eu896 2.392 . S
O907 C908 1.242 . S
C908 O906 1.258 . S
C908 O907 1.242 . S
O909 Eu896 2.418 . S
O909 C913 1.244 . S
O910 Eu897 2.488 . S
O910 C926 1.249 . S
O911 Eu897 2.471 . S
O911 C926 1.244 . S
O912 Eu897 2.349 . S
O912 C913 1.265 . S
C913 O909 1.244 . S
C913 O912 1.265 . S
O914 Eu896 2.373 . S
O914 C927 1.258 . S
O915 Eu897 2.392 . S
O915 C927 1.242 . S
O916 Eu897 2.418 . S
O916 C898 1.244 . S
O917 Eu896 2.488 . S
O917 C905 1.249 . S
O918 Eu896 2.471 . S
O918 C905 1.244 . S
O919 Eu896 2.349 . S
O919 C898 1.265 . S
C920 C921 1.379 . S
C920 C924 1.373 . S
C920 C926 1.505 . S
C921 C920 1.379 . S
C921 C923 1.369 . S
C921 H932 0.930 . S
C922 C924 1.383 . S
C922 C925 1.382 . S
C922 H933 0.930 . S
C923 C921 1.369 . S
C923 C925 1.392 . S
C923 H934 0.930 . S
C924 C920 1.373 . S
C924 C922 1.383 . S
C924 H935 0.931 . S
C925 C922 1.382 . S
C925 C923 1.392 . S
C926 Eu897 2.828 . S
C926 O910 1.249 . S
C926 O911 1.244 . S
C926 C920 1.505 . S
C927 O914 1.258 . S
C927 O915 1.242 . S
H928 C900 0.930 . S
H929 C901 0.930 . S
H930 C902 0.930 . S
H931 C903 0.931 . S
H932 C921 0.930 . S
H933 C922 0.930 . S
H934 C923 0.930 . S
H935 C924 0.931 . S
Eu936 C945 2.828 . S
Eu936 O947 2.392 . S
Eu936 O949 2.384 1_554 S
Eu936 O954 2.373 . S
Eu936 O957 2.488 . S
Eu936 O958 2.471 . S
Eu936 O959 2.349 . S
Eu937 O946 2.373 . S
Eu937 O950 2.488 1_455 S
Eu937 O951 2.471 1_455 S
Eu937 O952 2.349 . S
Eu937 O955 2.392 . S
Eu937 O956 2.418 . S
Eu937 C966 2.828 1_455 S
C938 O956 1.244 . S
C938 O959 1.265 . S
C939 C940 1.379 . S
C939 C943 1.373 . S
C939 C945 1.505 . S
C940 C939 1.379 . S
C940 C942 1.369 . S
C940 H968 0.930 . S
C941 C943 1.390 . S
C941 C944 1.422 . S
C941 H969 0.885 1_554 S
C942 C940 1.369 . S
C942 C944 1.392 . S
C942 H970 0.930 . S
C943 C939 1.373 . S
C943 C941 1.390 . S
C943 H971 0.931 1_554 S
C944 C941 1.422 . S
C944 C942 1.392 . S
C945 Eu936 2.828 . S
C945 C939 1.505 . S
C945 O957 1.249 . S
C945 O958 1.244 . S
O946 Eu937 2.373 . S
O946 C948 1.258 . S
O947 Eu936 2.392 . S
O947 C948 1.242 . S
C948 O946 1.258 . S
C948 O947 1.242 . S
O949 Eu936 2.384 1_556 S
O949 C953 1.234 1_556 S
O950 Eu937 2.488 1_655 S
O950 C966 1.249 . S
O951 Eu937 2.471 1_655 S
O951 C966 1.244 . S
O952 Eu937 2.349 . S
O952 C953 1.265 . S
C953 O949 1.234 1_554 S
C953 O952 1.265 . S
O954 Eu936 2.373 . S
O954 C967 1.258 . S
O955 Eu937 2.392 . S
O955 C967 1.242 . S
O956 Eu937 2.418 . S
O956 C938 1.244 . S
O957 Eu936 2.488 . S
O957 C945 1.249 . S
O958 Eu936 2.471 . S
O958 C945 1.244 . S
O959 Eu936 2.349 . S
O959 C938 1.265 . S
C960 C961 1.379 . S
C960 C964 1.373 . S
C960 C966 1.505 . S
C961 C960 1.379 . S
C961 C963 1.369 . S
C961 H972 0.930 . S
C962 C964 1.383 . S
C962 C965 1.382 . S
C962 H973 0.930 . S
C963 C961 1.369 . S
C963 C965 1.392 . S
C963 H974 0.930 . S
C964 C960 1.373 . S
C964 C962 1.383 . S
C964 H975 0.931 . S
C965 C962 1.382 . S
C965 C963 1.392 . S
C966 Eu937 2.828 1_655 S
C966 O950 1.249 . S
C966 O951 1.244 . S
C966 C960 1.505 . S
C967 O954 1.258 . S
C967 O955 1.242 . S
H968 C940 0.930 . S
H969 C941 0.885 1_556 S
H970 C942 0.930 . S
H971 C943 0.931 1_556 S
H972 C961 0.930 . S
H973 C962 0.930 . S
H974 C963 0.930 . S
H975 C964 0.931 . S
C976 C977 1.349 . S
C976 C978 1.327 . S
C976 H1001 0.950 . S
C977 C976 1.349 . S
C977 C993 1.349 . S
C978 C976 1.327 . S
C978 C997 1.429 . S
C978 H1002 0.950 . S
C979 C996 1.574 . S
C979 C998 1.368 . S
C979 H1003 0.949 . S
H980 C984 0.949 . S
C981 C982 1.349 . S
C981 C983 1.327 . S
C981 H1004 0.950 1_556 S
C982 C981 1.349 . S
C982 C994 1.349 . S
C983 C981 1.327 . S
C983 C999 1.429 . S
C983 H1005 0.950 . S
C984 H980 0.949 . S
C984 C992 1.574 . S
C984 C1000 1.368 . S
H985 C993 0.950 . S
H986 C991 0.950 . S
H987 C992 0.949 . S
H988 C994 0.950 . S
H989 C995 0.950 . S
H990 C996 0.949 . S
C991 H986 0.950 . S
C991 C993 1.327 . S
C991 C997 1.429 . S
C992 C984 1.574 . S
C992 H987 0.949 . S
C992 C998 1.368 . S
C993 C977 1.349 . S
C993 H985 0.950 . S
C993 C991 1.327 . S
C994 C982 1.349 . S
C994 H988 0.950 . S
C994 C995 1.327 . S
C995 H989 0.950 . S
C995 C994 1.327 . S
C995 C999 1.429 . S
C996 C979 1.574 . S
C996 H990 0.949 . S
C996 C1000 1.368 . S
C997 C978 1.429 . S
C997 C991 1.429 . S
C997 C998 1.523 . S
C998 C979 1.368 . S
C998 C992 1.368 . S
C998 C997 1.523 . S
C999 C983 1.429 . S
C999 C995 1.429 . S
C999 C1000 1.523 . S
C1000 C984 1.368 . S
C1000 C996 1.368 . S
C1000 C999 1.523 . S
H1001 C976 0.950 . S
H1002 C978 0.950 . S
H1003 C979 0.949 . S
H1004 C981 0.950 1_554 S
H1005 C983 0.950 . S
C1006 C1007 1.349 . S
C1006 C1008 1.327 . S
C1006 H1031 0.950 . S
C1007 C1006 1.349 . S
C1007 C1023 1.349 . S
C1008 C1006 1.327 . S
C1008 C1027 1.429 . S
C1008 H1032 0.950 . S
C1009 C1026 1.574 . S
C1009 C1028 1.368 . S
C1009 H1033 0.949 . S
H1010 C1014 0.949 . S
C1011 C1012 1.349 . S
C1011 C1013 1.327 . S
C1011 H1034 0.950 . S
C1012 C1011 1.349 . S
C1012 C1024 1.349 . S
C1013 C1011 1.327 . S
C1013 C1029 1.429 . S
C1013 H1035 0.950 . S
C1014 H1010 0.949 . S
C1014 C1022 1.574 . S
C1014 C1030 1.368 . S
H1015 C1023 0.950 . S
H1016 C1021 0.950 . S
H1017 C1022 0.949 . S
H1018 C1024 0.950 . S
H1019 C1025 0.950 . S
H1020 C1026 0.949 . S
C1021 H1016 0.950 . S
C1021 C1023 1.327 . S
C1021 C1027 1.429 . S
C1022 C1014 1.574 . S
C1022 H1017 0.949 . S
C1022 C1028 1.368 . S
C1023 C1007 1.349 . S
C1023 H1015 0.950 . S
C1023 C1021 1.327 . S
C1024 C1012 1.349 . S
C1024 H1018 0.950 . S
C1024 C1025 1.327 . S
C1025 H1019 0.950 . S
C1025 C1024 1.327 . S
C1025 C1029 1.429 . S
C1026 C1009 1.574 . S
C1026 H1020 0.949 . S
C1026 C1030 1.368 . S
C1027 C1008 1.429 . S
C1027 C1021 1.429 . S
C1027 C1028 1.523 . S
C1028 C1009 1.368 . S
C1028 C1022 1.368 . S
C1028 C1027 1.523 . S
C1029 C1013 1.429 . S
C1029 C1025 1.429 . S
C1029 C1030 1.523 . S
C1030 C1014 1.368 . S
C1030 C1026 1.368 . S
C1030 C1029 1.523 . S
H1031 C1006 0.950 . S
H1032 C1008 0.950 . S
H1033 C1009 0.949 . S
H1034 C1011 0.950 . S
H1035 C1013 0.950 . S
C1036 C1037 1.349 . S
C1036 C1038 1.327 . S
C1036 H1061 0.950 . S
C1037 C1036 1.349 . S
C1037 C1053 1.349 . S
C1038 C1036 1.327 . S
C1038 C1057 1.429 . S
C1038 H1062 0.950 . S
C1039 C1056 1.574 . S
C1039 C1058 1.368 . S
C1039 H1063 0.949 . S
H1040 C1044 0.949 . S
C1041 C1042 1.349 . S
C1041 C1043 1.327 . S
C1041 H1064 0.950 . S
C1042 C1041 1.349 . S
C1042 C1054 1.349 . S
C1043 C1041 1.327 . S
C1043 C1059 1.429 . S
C1043 H1065 0.950 . S
C1044 H1040 0.949 . S
C1044 C1052 1.574 . S
C1044 C1060 1.368 . S
H1045 C1053 0.950 . S
H1046 C1051 0.950 . S
H1047 C1052 0.949 . S
H1048 C1054 0.950 . S
H1049 C1055 0.950 . S
H1050 C1056 0.949 . S
C1051 H1046 0.950 . S
C1051 C1053 1.327 . S
C1051 C1057 1.429 . S
C1052 C1044 1.574 . S
C1052 H1047 0.949 . S
C1052 C1058 1.368 . S
C1053 C1037 1.349 . S
C1053 H1045 0.950 . S
C1053 C1051 1.327 . S
C1054 C1042 1.349 . S
C1054 H1048 0.950 . S
C1054 C1055 1.327 . S
C1055 H1049 0.950 . S
C1055 C1054 1.327 . S
C1055 C1059 1.429 . S
C1056 C1039 1.574 . S
C1056 H1050 0.949 . S
C1056 C1060 1.368 . S
C1057 C1038 1.429 . S
C1057 C1051 1.429 . S
C1057 C1058 1.523 . S
C1058 C1039 1.368 . S
C1058 C1052 1.368 . S
C1058 C1057 1.523 . S
C1059 C1043 1.429 . S
C1059 C1055 1.429 . S
C1059 C1060 1.523 . S
C1060 C1044 1.368 . S
C1060 C1056 1.368 . S
C1060 C1059 1.523 . S
H1061 C1036 0.950 . S
H1062 C1038 0.950 . S
H1063 C1039 0.949 . S
H1064 C1041 0.950 . S
H1065 C1043 0.950 . S
C1066 C1067 1.349 . S
C1066 C1068 1.327 . S
C1066 H1091 0.950 . S
C1067 C1066 1.349 . S
C1067 C1083 1.349 . S
C1068 C1066 1.327 . S
C1068 C1087 1.429 . S
C1068 H1092 0.950 . S
C1069 C1086 1.574 . S
C1069 C1088 1.368 . S
C1069 H1093 0.949 . S
H1070 C1074 0.949 . S
C1071 C1072 1.349 . S
C1071 C1073 1.327 . S
C1071 H1094 0.950 . S
C1072 C1071 1.349 . S
C1072 C1084 1.349 . S
C1073 C1071 1.327 . S
C1073 C1089 1.429 . S
C1073 H1095 0.950 . S
C1074 H1070 0.949 . S
C1074 C1082 1.574 . S
C1074 C1090 1.368 . S
H1075 C1083 0.950 . S
H1076 C1081 0.950 . S
H1077 C1082 0.949 . S
H1078 C1084 0.950 . S
H1079 C1085 0.950 . S
H1080 C1086 0.949 . S
C1081 H1076 0.950 . S
C1081 C1083 1.327 . S
C1081 C1087 1.429 . S
C1082 C1074 1.574 . S
C1082 H1077 0.949 . S
C1082 C1088 1.368 . S
C1083 C1067 1.349 . S
C1083 H1075 0.950 . S
C1083 C1081 1.327 . S
C1084 C1072 1.349 . S
C1084 H1078 0.950 . S
C1084 C1085 1.327 . S
C1085 H1079 0.950 . S
C1085 C1084 1.327 . S
C1085 C1089 1.429 . S
C1086 C1069 1.574 . S
C1086 H1080 0.949 . S
C1086 C1090 1.368 . S
C1087 C1068 1.429 . S
C1087 C1081 1.429 . S
C1087 C1088 1.523 . S
C1088 C1069 1.368 . S
C1088 C1082 1.368 . S
C1088 C1087 1.523 . S
C1089 C1073 1.429 . S
C1089 C1085 1.429 . S
C1089 C1090 1.523 . S
C1090 C1074 1.368 . S
C1090 C1086 1.368 . S
C1090 C1089 1.523 . S
H1091 C1066 0.950 . S
H1092 C1068 0.950 . S
H1093 C1069 0.949 . S
H1094 C1071 0.950 . S
H1095 C1073 0.950 . S
C1096 C1097 1.349 . S
C1096 C1098 1.327 . S
C1096 H1121 0.950 . S
C1097 C1096 1.349 . S
C1097 C1113 1.381 . S
C1098 C1096 1.327 . S
C1098 C1117 1.429 . S
C1098 H1122 0.950 . S
C1099 C1116 1.574 . S
C1099 C1118 1.368 . S
C1099 H1123 0.949 . S
H1100 C1104 0.949 . S
C1101 C1102 1.349 . S
C1101 C1103 1.327 . S
C1101 H1124 0.950 . S
C1102 C1101 1.349 . S
C1102 C1114 1.349 . S
C1103 C1101 1.327 . S
C1103 C1119 1.429 . S
C1103 H1125 0.950 . S
C1104 H1100 0.949 . S
C1104 C1112 1.574 . S
C1104 C1120 1.368 . S
H1105 C1113 0.911 1_655 S
H1106 C1111 0.950 1_655 S
H1107 C1112 0.949 . S
H1108 C1114 0.950 . S
H1109 C1115 0.950 . S
H1110 C1116 0.949 . S
C1111 H1106 0.950 1_455 S
C1111 C1113 1.334 . S
C1111 C1117 1.429 . S
C1112 C1104 1.574 . S
C1112 H1107 0.949 . S
C1112 C1118 1.368 . S
C1113 C1097 1.381 . S
C1113 H1105 0.911 1_455 S
C1113 C1111 1.334 . S
C1114 C1102 1.349 . S
C1114 H1108 0.950 . S
C1114 C1115 1.327 . S
C1115 H1109 0.950 . S
C1115 C1114 1.327 . S
C1115 C1119 1.429 . S
C1116 C1099 1.574 . S
C1116 H1110 0.949 . S
C1116 C1120 1.368 . S
C1117 C1098 1.429 . S
C1117 C1111 1.429 . S
C1117 C1118 1.523 . S
C1118 C1099 1.368 . S
C1118 C1112 1.368 . S
C1118 C1117 1.523 . S
C1119 C1103 1.429 . S
C1119 C1115 1.429 . S
C1119 C1120 1.523 . S
C1120 C1104 1.368 . S
C1120 C1116 1.368 . S
C1120 C1119 1.523 . S
H1121 C1096 0.950 . S
H1122 C1098 0.950 . S
H1123 C1099 0.949 . S
H1124 C1101 0.950 . S
H1125 C1103 0.950 . S
C1126 C1127 1.349 . S
C1126 C1128 1.327 . S
C1126 H1151 0.950 . S
C1127 C1126 1.349 . S
C1127 C1143 1.349 . S
C1128 C1126 1.327 . S
C1128 C1147 1.429 . S
C1128 H1152 0.950 . S
C1129 C1146 1.574 . S
C1129 C1148 1.368 . S
C1129 H1153 0.949 . S
H1130 C1134 0.949 . S
C1131 C1132 1.349 . S
C1131 C1133 1.327 . S
C1131 H1154 0.950 . S
C1132 C1131 1.349 . S
C1132 C1144 1.349 . S
C1133 C1131 1.327 . S
C1133 C1149 1.429 . S
C1133 H1155 0.950 . S
C1134 H1130 0.949 . S
C1134 C1142 1.574 . S
C1134 C1150 1.368 . S
H1135 C1143 0.950 . S
H1136 C1141 0.950 . S
H1137 C1142 0.949 . S
H1138 C1144 0.950 . S
H1139 C1145 0.950 . S
H1140 C1146 0.949 . S
C1141 H1136 0.950 . S
C1141 C1143 1.327 . S
C1141 C1147 1.429 . S
C1142 C1134 1.574 . S
C1142 H1137 0.949 . S
C1142 C1148 1.368 . S
C1143 C1127 1.349 . S
C1143 H1135 0.950 . S
C1143 C1141 1.327 . S
C1144 C1132 1.349 . S
C1144 H1138 0.950 . S
C1144 C1145 1.327 . S
C1145 H1139 0.950 . S
C1145 C1144 1.327 . S
C1145 C1149 1.429 . S
C1146 C1129 1.574 . S
C1146 H1140 0.949 . S
C1146 C1150 1.368 . S
C1147 C1128 1.429 . S
C1147 C1141 1.429 . S
C1147 C1148 1.523 . S
C1148 C1129 1.368 . S
C1148 C1142 1.368 . S
C1148 C1147 1.523 . S
C1149 C1133 1.429 . S
C1149 C1145 1.429 . S
C1149 C1150 1.523 . S
C1150 C1134 1.368 . S
C1150 C1146 1.368 . S
C1150 C1149 1.523 . S
H1151 C1126 0.950 . S
H1152 C1128 0.950 . S
H1153 C1129 0.949 . S
H1154 C1131 0.950 . S
H1155 C1133 0.950 . S
C1156 C1157 1.349 . S
C1156 C1158 1.327 . S
C1156 H1181 0.950 . S
C1157 C1156 1.349 . S
C1157 C1173 1.349 . S
C1158 C1156 1.327 . S
C1158 C1177 1.429 . S
C1158 H1182 0.950 . S
C1159 C1176 1.574 . S
C1159 C1178 1.368 . S
C1159 H1183 0.949 . S
H1160 C1164 0.949 . S
C1161 C1162 1.349 . S
C1161 C1163 1.327 . S
C1161 H1184 0.950 . S
C1162 C1161 1.349 . S
C1162 C1174 1.349 . S
C1163 C1161 1.327 . S
C1163 C1179 1.429 . S
C1163 H1185 0.950 . S
C1164 H1160 0.949 . S
C1164 C1172 1.574 . S
C1164 C1180 1.368 . S
H1165 C1173 0.950 . S
H1166 C1171 0.950 . S
H1167 C1172 0.949 . S
H1168 C1174 0.950 . S
H1169 C1175 0.950 . S
H1170 C1176 0.949 . S
C1171 H1166 0.950 . S
C1171 C1173 1.327 . S
C1171 C1177 1.429 . S
C1172 C1164 1.574 . S
C1172 H1167 0.949 . S
C1172 C1178 1.368 . S
C1173 C1157 1.349 . S
C1173 H1165 0.950 . S
C1173 C1171 1.327 . S
C1174 C1162 1.349 . S
C1174 H1168 0.950 . S
C1174 C1175 1.327 . S
C1175 H1169 0.950 . S
C1175 C1174 1.327 . S
C1175 C1179 1.429 . S
C1176 C1159 1.574 . S
C1176 H1170 0.949 . S
C1176 C1180 1.368 . S
C1177 C1158 1.429 . S
C1177 C1171 1.429 . S
C1177 C1178 1.523 . S
C1178 C1159 1.368 . S
C1178 C1172 1.368 . S
C1178 C1177 1.523 . S
C1179 C1163 1.429 . S
C1179 C1175 1.429 . S
C1179 C1180 1.523 . S
C1180 C1164 1.368 . S
C1180 C1176 1.368 . S
C1180 C1179 1.523 . S
H1181 C1156 0.950 . S
H1182 C1158 0.950 . S
H1183 C1159 0.949 . S
H1184 C1161 0.950 . S
H1185 C1163 0.950 . S
C1186 C1187 1.349 . S
C1186 C1188 1.327 . S
C1186 H1211 0.950 . S
C1187 C1186 1.349 . S
C1187 C1203 1.349 . S
C1188 C1186 1.327 . S
C1188 C1207 1.429 . S
C1188 H1212 0.950 . S
C1189 C1206 1.574 . S
C1189 C1208 1.368 . S
C1189 H1213 0.949 . S
H1190 C1194 0.949 . S
C1191 C1192 1.349 . S
C1191 C1193 1.327 . S
C1191 H1214 0.950 . S
C1192 C1191 1.349 . S
C1192 C1204 1.349 . S
C1193 C1191 1.327 . S
C1193 C1209 1.429 . S
C1193 H1215 0.950 . S
C1194 H1190 0.949 . S
C1194 C1202 1.574 . S
C1194 C1210 1.368 . S
H1195 C1203 0.950 . S
H1196 C1201 0.950 . S
H1197 C1202 0.949 . S
H1198 C1204 0.950 . S
H1199 C1205 0.950 . S
H1200 C1206 0.949 . S
C1201 H1196 0.950 . S
C1201 C1203 1.327 . S
C1201 C1207 1.429 . S
C1202 C1194 1.574 . S
C1202 H1197 0.949 . S
C1202 C1208 1.368 . S
C1203 C1187 1.349 . S
C1203 H1195 0.950 . S
C1203 C1201 1.327 . S
C1204 C1192 1.349 . S
C1204 H1198 0.950 . S
C1204 C1205 1.327 . S
C1205 H1199 0.950 . S
C1205 C1204 1.327 . S
C1205 C1209 1.429 . S
C1206 C1189 1.574 . S
C1206 H1200 0.949 . S
C1206 C1210 1.368 . S
C1207 C1188 1.429 . S
C1207 C1201 1.429 . S
C1207 C1208 1.523 . S
C1208 C1189 1.368 . S
C1208 C1202 1.368 . S
C1208 C1207 1.523 . S
C1209 C1193 1.429 . S
C1209 C1205 1.429 . S
C1209 C1210 1.523 . S
C1210 C1194 1.368 . S
C1210 C1206 1.368 . S
C1210 C1209 1.523 . S
H1211 C1186 0.950 . S
H1212 C1188 0.950 . S
H1213 C1189 0.949 . S
H1214 C1191 0.950 . S
H1215 C1193 0.950 . S
C1216 C1217 1.349 . S
C1216 C1218 1.327 . S
C1216 H1241 0.950 . S
C1217 C1216 1.349 . S
C1217 C1233 1.349 . S
C1218 C1216 1.327 . S
C1218 C1237 1.429 . S
C1218 H1242 0.950 . S
C1219 C1236 1.574 1_655 S
C1219 C1238 1.368 . S
C1219 H1243 0.949 . S
H1220 C1224 0.949 . S
C1221 C1222 1.349 . S
C1221 C1223 1.327 . S
C1221 H1244 0.950 . S
C1222 C1221 1.349 . S
C1222 C1234 1.349 . S
C1223 C1221 1.327 . S
C1223 C1239 1.429 . S
C1223 H1245 0.950 . S
C1224 H1220 0.949 . S
C1224 C1232 1.574 . S
C1224 C1240 1.368 . S
H1225 C1233 0.950 . S
H1226 C1231 0.950 . S
H1227 C1232 0.949 . S
H1228 C1234 0.950 . S
H1229 C1235 0.943 1_655 S
H1230 C1236 0.949 . S
C1231 H1226 0.950 . S
C1231 C1233 1.327 . S
C1231 C1237 1.429 . S
C1232 C1224 1.574 . S
C1232 H1227 0.949 . S
C1232 C1238 1.368 . S
C1233 C1217 1.349 . S
C1233 H1225 0.950 . S
C1233 C1231 1.327 . S
C1234 C1222 1.349 . S
C1234 H1228 0.950 . S
C1234 C1235 1.333 . S
C1235 H1229 0.943 1_455 S
C1235 C1234 1.333 . S
C1235 C1239 1.429 . S
C1236 C1219 1.574 1_455 S
C1236 H1230 0.949 . S
C1236 C1240 1.368 1_455 S
C1237 C1218 1.429 . S
C1237 C1231 1.429 . S
C1237 C1238 1.523 . S
C1238 C1219 1.368 . S
C1238 C1232 1.368 . S
C1238 C1237 1.523 . S
C1239 C1223 1.429 . S
C1239 C1235 1.429 . S
C1239 C1240 1.523 1_455 S
C1240 C1224 1.368 . S
C1240 C1236 1.368 1_655 S
C1240 C1239 1.523 1_655 S
H1241 C1216 0.950 . S
H1242 C1218 0.950 . S
H1243 C1219 0.949 . S
H1244 C1221 0.950 . S
H1245 C1223 0.950 . S
C1246 C1247 1.349 . S
C1246 C1248 1.327 . S
C1246 H1271 0.950 . S
C1247 C1246 1.349 . S
C1247 C1263 1.349 . S
C1248 C1246 1.327 . S
C1248 C1267 1.429 . S
C1248 H1272 0.950 . S
C1249 C1266 1.574 . S
C1249 C1268 1.368 . S
C1249 H1273 0.949 . S
H1250 C1254 0.949 . S
C1251 C1252 1.349 . S
C1251 C1253 1.327 . S
C1251 H1274 0.950 . S
C1252 C1251 1.349 . S
C1252 C1264 1.349 . S
C1253 C1251 1.327 . S
C1253 C1269 1.429 . S
C1253 H1275 0.950 . S
C1254 H1250 0.949 . S
C1254 C1262 1.574 . S
C1254 C1270 1.368 . S
H1255 C1263 0.950 . S
H1256 C1261 0.950 . S
H1257 C1262 0.949 . S
H1258 C1264 0.950 . S
H1259 C1265 0.950 . S
H1260 C1266 0.949 . S
C1261 H1256 0.950 . S
C1261 C1263 1.327 . S
C1261 C1267 1.429 . S
C1262 C1254 1.574 . S
C1262 H1257 0.949 . S
C1262 C1268 1.368 . S
C1263 C1247 1.349 . S
C1263 H1255 0.950 . S
C1263 C1261 1.327 . S
C1264 C1252 1.349 . S
C1264 H1258 0.950 . S
C1264 C1265 1.327 . S
C1265 H1259 0.950 . S
C1265 C1264 1.327 . S
C1265 C1269 1.429 . S
C1266 C1249 1.574 . S
C1266 H1260 0.949 . S
C1266 C1270 1.368 . S
C1267 C1248 1.429 . S
C1267 C1261 1.429 . S
C1267 C1268 1.523 . S
C1268 C1249 1.368 . S
C1268 C1262 1.368 . S
C1268 C1267 1.523 . S
C1269 C1253 1.429 . S
C1269 C1265 1.429 . S
C1269 C1270 1.523 . S
C1270 C1254 1.368 . S
C1270 C1266 1.368 . S
C1270 C1269 1.523 . S
H1271 C1246 0.950 . S
H1272 C1248 0.950 . S
H1273 C1249 0.949 . S
H1274 C1251 0.950 . S
H1275 C1253 0.950 . S
C1276 C1277 1.349 . S
C1276 C1278 1.327 . S
C1276 H1301 0.950 . S
C1277 C1276 1.349 . S
C1277 C1293 1.349 . S
C1278 C1276 1.327 . S
C1278 C1297 1.429 . S
C1278 H1302 0.950 . S
C1279 C1296 1.574 . S
C1279 C1298 1.368 . S
C1279 H1303 0.949 . S
H1280 C1284 0.949 . S
C1281 C1282 1.349 . S
C1281 C1283 1.327 . S
C1281 H1304 0.950 . S
C1282 C1281 1.349 . S
C1282 C1294 1.349 . S
C1283 C1281 1.327 . S
C1283 C1299 1.429 . S
C1283 H1305 0.950 . S
C1284 H1280 0.949 . S
C1284 C1292 1.574 . S
C1284 C1300 1.368 . S
H1285 C1293 0.950 . S
H1286 C1291 0.950 . S
H1287 C1292 0.949 . S
H1288 C1294 0.950 . S
H1289 C1295 0.950 . S
H1290 C1296 0.949 . S
C1291 H1286 0.950 . S
C1291 C1293 1.327 . S
C1291 C1297 1.429 . S
C1292 C1284 1.574 . S
C1292 H1287 0.949 . S
C1292 C1298 1.368 . S
C1293 C1277 1.349 . S
C1293 H1285 0.950 . S
C1293 C1291 1.327 . S
C1294 C1282 1.349 . S
C1294 H1288 0.950 . S
C1294 C1295 1.327 . S
C1295 H1289 0.950 . S
C1295 C1294 1.327 . S
C1295 C1299 1.429 . S
C1296 C1279 1.574 . S
C1296 H1290 0.949 . S
C1296 C1300 1.368 . S
C1297 C1278 1.429 . S
C1297 C1291 1.429 . S
C1297 C1298 1.523 . S
C1298 C1279 1.368 . S
C1298 C1292 1.368 . S
C1298 C1297 1.523 . S
C1299 C1283 1.429 . S
C1299 C1295 1.429 . S
C1299 C1300 1.523 . S
C1300 C1284 1.368 . S
C1300 C1296 1.368 . S
C1300 C1299 1.523 . S
H1301 C1276 0.950 . S
H1302 C1278 0.950 . S
H1303 C1279 0.949 . S
H1304 C1281 0.950 . S
H1305 C1283 0.950 . S
C1306 C1307 1.349 . S
C1306 C1308 1.327 . S
C1306 H1331 0.950 . S
C1307 C1306 1.349 . S
C1307 C1323 1.349 . S
C1308 C1306 1.327 . S
C1308 C1327 1.429 . S
C1308 H1332 0.950 . S
C1309 C1326 1.574 . S
C1309 C1328 1.368 . S
C1309 H1333 0.949 . S
H1310 C1314 0.949 . S
C1311 C1312 1.349 . S
C1311 C1313 1.327 . S
C1311 H1334 0.950 . S
C1312 C1311 1.349 . S
C1312 C1324 1.349 . S
C1313 C1311 1.327 . S
C1313 C1329 1.429 . S
C1313 H1335 0.950 . S
C1314 H1310 0.949 . S
C1314 C1322 1.574 . S
C1314 C1330 1.368 . S
H1315 C1323 0.950 . S
H1316 C1321 0.950 . S
H1317 C1322 0.949 . S
H1318 C1324 0.950 . S
H1319 C1325 0.950 . S
H1320 C1326 0.949 . S
C1321 H1316 0.950 . S
C1321 C1323 1.327 . S
C1321 C1327 1.429 . S
C1322 C1314 1.574 . S
C1322 H1317 0.949 . S
C1322 C1328 1.368 . S
C1323 C1307 1.349 . S
C1323 H1315 0.950 . S
C1323 C1321 1.327 . S
C1324 C1312 1.349 . S
C1324 H1318 0.950 . S
C1324 C1325 1.327 . S
C1325 H1319 0.950 . S
C1325 C1324 1.327 . S
C1325 C1329 1.429 . S
C1326 C1309 1.574 . S
C1326 H1320 0.949 . S
C1326 C1330 1.368 . S
C1327 C1308 1.429 . S
C1327 C1321 1.429 . S
C1327 C1328 1.523 . S
C1328 C1309 1.368 . S
C1328 C1322 1.368 . S
C1328 C1327 1.523 . S
C1329 C1313 1.429 . S
C1329 C1325 1.429 . S
C1329 C1330 1.523 . S
C1330 C1314 1.368 . S
C1330 C1326 1.368 . S
C1330 C1329 1.523 . S
H1331 C1306 0.950 . S
H1332 C1308 0.950 . S
H1333 C1309 0.949 . S
H1334 C1311 0.950 . S
H1335 C1313 0.950 . S
C1336 C1337 1.349 . S
C1336 C1338 1.327 . S
C1336 H1361 0.950 . S
C1337 C1336 1.349 . S
C1337 C1353 1.349 . S
C1338 C1336 1.327 . S
C1338 C1357 1.429 . S
C1338 H1362 0.950 . S
C1339 C1356 1.574 . S
C1339 C1358 1.368 . S
C1339 H1363 0.949 . S
H1340 C1344 0.949 . S
C1341 C1342 1.349 . S
C1341 C1343 1.327 . S
C1341 H1364 0.950 . S
C1342 C1341 1.349 . S
C1342 C1354 1.349 . S
C1343 C1341 1.327 . S
C1343 C1359 1.429 . S
C1343 H1365 0.950 1_455 S
C1344 H1340 0.949 . S
C1344 C1352 1.574 . S
C1344 C1360 1.368 . S
H1345 C1353 0.950 . S
H1346 C1351 0.950 . S
H1347 C1352 0.949 . S
H1348 C1354 0.950 . S
H1349 C1355 0.950 . S
H1350 C1356 0.949 . S
C1351 H1346 0.950 . S
C1351 C1353 1.327 . S
C1351 C1357 1.429 . S
C1352 C1344 1.574 . S
C1352 H1347 0.949 . S
C1352 C1358 1.368 1_455 S
C1353 C1337 1.349 . S
C1353 H1345 0.950 . S
C1353 C1351 1.327 . S
C1354 C1342 1.349 . S
C1354 H1348 0.950 . S
C1354 C1355 1.327 . S
C1355 H1349 0.950 . S
C1355 C1354 1.327 . S
C1355 C1359 1.429 . S
C1356 C1339 1.574 . S
C1356 H1350 0.949 . S
C1356 C1360 1.368 1_655 S
C1357 C1338 1.429 . S
C1357 C1351 1.429 . S
C1357 C1358 1.523 . S
C1358 C1339 1.368 . S
C1358 C1352 1.368 1_655 S
C1358 C1357 1.523 . S
C1359 C1343 1.429 . S
C1359 C1355 1.429 . S
C1359 C1360 1.523 . S
C1360 C1344 1.368 . S
C1360 C1356 1.368 1_455 S
C1360 C1359 1.523 . S
H1361 C1336 0.950 . S
H1362 C1338 0.950 . S
H1363 C1339 0.949 . S
H1364 C1341 0.950 . S
H1365 C1343 0.950 1_655 S
C1366 C1367 1.349 . S
C1366 C1368 1.327 . S
C1366 H1391 0.950 . S
C1367 C1366 1.349 . S
C1367 C1383 1.349 . S
C1368 C1366 1.327 . S
C1368 C1387 1.429 . S
C1368 H1392 0.950 . S
C1369 C1386 1.574 . S
C1369 C1388 1.368 . S
C1369 H1393 0.949 . S
H1370 C1374 0.949 . S
C1371 C1372 1.349 . S
C1371 C1373 1.327 . S
C1371 H1394 0.950 . S
C1372 C1371 1.349 . S
C1372 C1384 1.349 . S
C1373 C1371 1.327 . S
C1373 C1389 1.429 . S
C1373 H1395 0.950 . S
C1374 H1370 0.949 . S
C1374 C1382 1.574 . S
C1374 C1390 1.368 . S
H1375 C1383 0.950 . S
H1376 C1381 0.950 . S
H1377 C1382 0.949 . S
H1378 C1384 0.950 . S
H1379 C1385 0.950 . S
H1380 C1386 0.949 . S
C1381 H1376 0.950 . S
C1381 C1383 1.327 . S
C1381 C1387 1.429 . S
C1382 C1374 1.574 . S
C1382 H1377 0.949 . S
C1382 C1388 1.368 . S
C1383 C1367 1.349 . S
C1383 H1375 0.950 . S
C1383 C1381 1.327 . S
C1384 C1372 1.349 . S
C1384 H1378 0.950 . S
C1384 C1385 1.327 . S
C1385 H1379 0.950 . S
C1385 C1384 1.327 . S
C1385 C1389 1.429 . S
C1386 C1369 1.574 . S
C1386 H1380 0.949 . S
C1386 C1390 1.368 . S
C1387 C1368 1.429 . S
C1387 C1381 1.429 . S
C1387 C1388 1.523 . S
C1388 C1369 1.368 . S
C1388 C1382 1.368 . S
C1388 C1387 1.523 . S
C1389 C1373 1.429 . S
C1389 C1385 1.429 . S
C1389 C1390 1.523 . S
C1390 C1374 1.368 . S
C1390 C1386 1.368 . S
C1390 C1389 1.523 . S
H1391 C1366 0.950 . S
H1392 C1368 0.950 . S
H1393 C1369 0.949 . S
H1394 C1371 0.950 . S
H1395 C1373 0.950 . S
C1396 C1397 1.349 . S
C1396 C1398 1.327 . S
C1396 H1421 0.950 . S
C1397 C1396 1.349 . S
C1397 C1413 1.349 . S
C1398 C1396 1.327 . S
C1398 C1417 1.429 . S
C1398 H1422 0.950 . S
C1399 C1416 1.574 . S
C1399 C1418 1.368 . S
C1399 H1423 0.949 . S
H1400 C1404 0.949 . S
C1401 C1402 1.349 . S
C1401 C1403 1.327 . S
C1401 H1424 0.950 . S
C1402 C1401 1.349 . S
C1402 C1414 1.349 . S
C1403 C1401 1.327 . S
C1403 C1419 1.429 . S
C1403 H1425 0.950 . S
C1404 H1400 0.949 . S
C1404 C1412 1.574 . S
C1404 C1420 1.368 . S
H1405 C1413 0.950 . S
H1406 C1411 0.950 . S
H1407 C1412 0.949 . S
H1408 C1414 0.950 . S
H1409 C1415 0.950 . S
H1410 C1416 0.949 . S
C1411 H1406 0.950 . S
C1411 C1413 1.327 . S
C1411 C1417 1.429 . S
C1412 C1404 1.574 . S
C1412 H1407 0.949 . S
C1412 C1418 1.368 . S
C1413 C1397 1.349 . S
C1413 H1405 0.950 . S
C1413 C1411 1.327 . S
C1414 C1402 1.349 . S
C1414 H1408 0.950 . S
C1414 C1415 1.327 . S
C1415 H1409 0.950 . S
C1415 C1414 1.327 . S
C1415 C1419 1.429 . S
C1416 C1399 1.574 . S
C1416 H1410 0.949 . S
C1416 C1420 1.368 . S
C1417 C1398 1.429 . S
C1417 C1411 1.429 . S
C1417 C1418 1.523 . S
C1418 C1399 1.368 . S
C1418 C1412 1.368 . S
C1418 C1417 1.523 . S
C1419 C1403 1.429 . S
C1419 C1415 1.429 . S
C1419 C1420 1.523 . S
C1420 C1404 1.368 . S
C1420 C1416 1.368 . S
C1420 C1419 1.523 . S
H1421 C1396 0.950 . S
H1422 C1398 0.950 . S
H1423 C1399 0.949 . S
H1424 C1401 0.950 . S
H1425 C1403 0.950 . S
C1426 C1427 1.349 . S
C1426 C1428 1.327 . S
C1426 H1451 0.950 . S
C1427 C1426 1.349 . S
C1427 C1443 1.349 . S
C1428 C1426 1.327 . S
C1428 C1447 1.429 . S
C1428 H1452 0.950 . S
C1429 C1446 1.574 . S
C1429 C1448 1.368 . S
C1429 H1453 0.949 . S
H1430 C1434 0.949 . S
C1431 C1432 1.349 . S
C1431 C1433 1.327 . S
C1431 H1454 0.950 . S
C1432 C1431 1.349 . S
C1432 C1444 1.349 . S
C1433 C1431 1.327 . S
C1433 C1449 1.429 . S
C1433 H1455 0.950 . S
C1434 H1430 0.949 . S
C1434 C1442 1.574 . S
C1434 C1450 1.368 . S
H1435 C1443 0.950 . S
H1436 C1441 0.950 . S
H1437 C1442 0.949 . S
H1438 C1444 0.950 . S
H1439 C1445 0.950 . S
H1440 C1446 0.949 . S
C1441 H1436 0.950 . S
C1441 C1443 1.327 . S
C1441 C1447 1.429 . S
C1442 C1434 1.574 . S
C1442 H1437 0.949 . S
C1442 C1448 1.368 . S
C1443 C1427 1.349 . S
C1443 H1435 0.950 . S
C1443 C1441 1.327 . S
C1444 C1432 1.349 . S
C1444 H1438 0.950 . S
C1444 C1445 1.327 . S
C1445 H1439 0.950 . S
C1445 C1444 1.327 . S
C1445 C1449 1.429 . S
C1446 C1429 1.574 . S
C1446 H1440 0.949 . S
C1446 C1450 1.368 . S
C1447 C1428 1.429 . S
C1447 C1441 1.429 . S
C1447 C1448 1.523 . S
C1448 C1429 1.368 . S
C1448 C1442 1.368 . S
C1448 C1447 1.523 . S
C1449 C1433 1.429 . S
C1449 C1445 1.429 . S
C1449 C1450 1.523 . S
C1450 C1434 1.368 . S
C1450 C1446 1.368 . S
C1450 C1449 1.523 . S
H1451 C1426 0.950 . S
H1452 C1428 0.950 . S
H1453 C1429 0.949 . S
H1454 C1431 0.950 . S
H1455 C1433 0.950 . S
C1456 C1457 1.349 . S
C1456 C1458 1.327 . S
C1456 H1481 0.950 . S
C1457 C1456 1.349 . S
C1457 C1473 1.349 . S
C1458 C1456 1.327 . S
C1458 C1477 1.429 . S
C1458 H1482 0.950 . S
C1459 C1476 1.574 . S
C1459 C1478 1.368 . S
C1459 H1483 0.949 1_554 S
H1460 C1464 0.949 . S
C1461 C1462 1.349 . S
C1461 C1463 1.327 . S
C1461 H1484 0.950 . S
C1462 C1461 1.349 . S
C1462 C1474 1.349 1_545 S
C1463 C1461 1.327 . S
C1463 C1479 1.429 1_545 S
C1463 H1485 0.950 . S
C1464 H1460 0.949 . S
C1464 C1472 1.574 . S
C1464 C1480 1.368 . S
H1465 C1473 0.950 1_556 S
H1466 C1471 0.950 1_556 S
H1467 C1472 0.949 . S
H1468 C1474 0.950 . S
H1469 C1475 0.950 . S
H1470 C1476 0.922 1_545 S
C1471 H1466 0.950 1_554 S
C1471 C1473 1.327 . S
C1471 C1477 1.429 . S
C1472 C1464 1.574 . S
C1472 H1467 0.949 . S
C1472 C1478 1.368 . S
C1473 C1457 1.349 . S
C1473 H1465 0.950 1_554 S
C1473 C1471 1.327 . S
C1474 C1462 1.349 1_565 S
C1474 H1468 0.950 . S
C1474 C1475 1.327 . S
C1475 H1469 0.950 . S
C1475 C1474 1.327 . S
C1475 C1479 1.429 . S
C1476 C1459 1.574 . S
C1476 H1470 0.922 1_565 S
C1476 C1480 1.368 . S
C1477 C1458 1.429 . S
C1477 C1471 1.429 . S
C1477 C1478 1.523 . S
C1478 C1459 1.368 . S
C1478 C1472 1.368 . S
C1478 C1477 1.523 . S
C1479 C1463 1.429 1_565 S
C1479 C1475 1.429 . S
C1479 C1480 1.523 . S
C1480 C1464 1.368 . S
C1480 C1476 1.368 . S
C1480 C1479 1.523 . S
H1481 C1456 0.950 . S
H1482 C1458 0.950 . S
H1483 C1459 0.949 1_556 S
H1484 C1461 0.950 . S
H1485 C1463 0.950 . S
C1486 C1487 1.349 . S
C1486 C1488 1.327 . S
C1486 H1511 0.950 . S
C1487 C1486 1.349 . S
C1487 C1503 1.349 . S
C1488 C1486 1.327 . S
C1488 C1507 1.429 . S
C1488 H1512 0.950 . S
C1489 C1506 1.574 . S
C1489 C1508 1.368 . S
C1489 H1513 0.949 . S
H1490 C1494 0.949 . S
C1491 C1492 1.349 . S
C1491 C1493 1.327 . S
C1491 H1514 0.950 . S
C1492 C1491 1.349 . S
C1492 C1504 1.349 . S
C1493 C1491 1.327 . S
C1493 C1509 1.429 . S
C1493 H1515 0.950 . S
C1494 H1490 0.949 . S
C1494 C1502 1.574 . S
C1494 C1510 1.368 . S
H1495 C1503 0.950 . S
H1496 C1501 0.950 . S
H1497 C1502 0.949 . S
H1498 C1504 0.950 . S
H1499 C1505 0.950 . S
H1500 C1506 0.949 . S
C1501 H1496 0.950 . S
C1501 C1503 1.327 . S
C1501 C1507 1.429 . S
C1502 C1494 1.574 . S
C1502 H1497 0.949 . S
C1502 C1508 1.368 . S
C1503 C1487 1.349 . S
C1503 H1495 0.950 . S
C1503 C1501 1.327 . S
C1504 C1492 1.349 . S
C1504 H1498 0.950 . S
C1504 C1505 1.327 . S
C1505 H1499 0.950 . S
C1505 C1504 1.327 . S
C1505 C1509 1.429 . S
C1506 C1489 1.574 . S
C1506 H1500 0.949 . S
C1506 C1510 1.368 . S
C1507 C1488 1.429 . S
C1507 C1501 1.429 . S
C1507 C1508 1.523 . S
C1508 C1489 1.368 . S
C1508 C1502 1.368 . S
C1508 C1507 1.523 . S
C1509 C1493 1.429 . S
C1509 C1505 1.429 . S
C1509 C1510 1.523 . S
C1510 C1494 1.368 . S
C1510 C1506 1.368 . S
C1510 C1509 1.523 . S
H1511 C1486 0.950 . S
H1512 C1488 0.950 . S
H1513 C1489 0.949 . S
H1514 C1491 0.950 . S
H1515 C1493 0.950 . S
C1516 C1517 1.349 . S
C1516 C1518 1.327 . S
C1516 H1541 0.950 . S
C1517 C1516 1.349 . S
C1517 C1533 1.349 . S
C1518 C1516 1.327 . S
C1518 C1537 1.429 . S
C1518 H1542 0.950 . S
C1519 C1536 1.574 . S
C1519 C1538 1.368 . S
C1519 H1543 0.949 . S
H1520 C1524 0.949 . S
C1521 C1522 1.349 . S
C1521 C1523 1.327 . S
C1521 H1544 0.950 . S
C1522 C1521 1.349 . S
C1522 C1534 1.349 . S
C1523 C1521 1.327 . S
C1523 C1539 1.429 . S
C1523 H1545 0.950 . S
C1524 H1520 0.949 . S
C1524 C1532 1.574 . S
C1524 C1540 1.368 . S
H1525 C1533 0.950 . S
H1526 C1531 0.950 . S
H1527 C1532 0.949 . S
H1528 C1534 0.950 . S
H1529 C1535 0.950 . S
H1530 C1536 0.949 . S
C1531 H1526 0.950 . S
C1531 C1533 1.327 . S
C1531 C1537 1.429 . S
C1532 C1524 1.574 . S
C1532 H1527 0.949 . S
C1532 C1538 1.368 . S
C1533 C1517 1.349 . S
C1533 H1525 0.950 . S
C1533 C1531 1.327 . S
C1534 C1522 1.349 . S
C1534 H1528 0.950 . S
C1534 C1535 1.327 . S
C1535 H1529 0.950 . S
C1535 C1534 1.327 . S
C1535 C1539 1.429 . S
C1536 C1519 1.574 . S
C1536 H1530 0.949 . S
C1536 C1540 1.368 . S
C1537 C1518 1.429 . S
C1537 C1531 1.429 . S
C1537 C1538 1.523 . S
C1538 C1519 1.368 . S
C1538 C1532 1.368 . S
C1538 C1537 1.523 . S
C1539 C1523 1.429 . S
C1539 C1535 1.429 . S
C1539 C1540 1.523 . S
C1540 C1524 1.368 . S
C1540 C1536 1.368 . S
C1540 C1539 1.523 . S
H1541 C1516 0.950 . S
H1542 C1518 0.950 . S
H1543 C1519 0.949 . S
H1544 C1521 0.950 . S
H1545 C1523 0.950 . S
C1546 C1547 1.349 . S
C1546 C1548 1.327 . S
C1546 H1571 0.950 . S
C1547 C1546 1.349 . S
C1547 C1563 1.349 . S
C1548 C1546 1.327 . S
C1548 C1567 1.429 . S
C1548 H1572 0.950 . S
C1549 C1566 1.574 . S
C1549 C1568 1.368 . S
C1549 H1573 0.949 . S
H1550 C1554 0.949 . S
C1551 C1552 1.349 . S
C1551 C1553 1.327 . S
C1551 H1574 0.950 . S
C1552 C1551 1.349 . S
C1552 C1564 1.349 . S
C1553 C1551 1.327 . S
C1553 C1569 1.429 . S
C1553 H1575 0.950 . S
C1554 H1550 0.949 . S
C1554 C1562 1.574 . S
C1554 C1570 1.368 . S
H1555 C1563 0.950 . S
H1556 C1561 0.950 . S
H1557 C1562 0.949 . S
H1558 C1564 0.950 . S
H1559 C1565 0.950 . S
H1560 C1566 0.949 . S
C1561 H1556 0.950 . S
C1561 C1563 1.327 . S
C1561 C1567 1.429 . S
C1562 C1554 1.574 . S
C1562 H1557 0.949 . S
C1562 C1568 1.368 . S
C1563 C1547 1.349 . S
C1563 H1555 0.950 . S
C1563 C1561 1.327 . S
C1564 C1552 1.349 . S
C1564 H1558 0.950 . S
C1564 C1565 1.327 . S
C1565 H1559 0.950 . S
C1565 C1564 1.327 . S
C1565 C1569 1.429 . S
C1566 C1549 1.574 . S
C1566 H1560 0.949 . S
C1566 C1570 1.368 . S
C1567 C1548 1.429 . S
C1567 C1561 1.429 . S
C1567 C1568 1.523 . S
C1568 C1549 1.368 . S
C1568 C1562 1.368 . S
C1568 C1567 1.523 . S
C1569 C1553 1.429 . S
C1569 C1565 1.429 . S
C1569 C1570 1.523 . S
C1570 C1554 1.368 . S
C1570 C1566 1.368 . S
C1570 C1569 1.523 . S
H1571 C1546 0.950 . S
H1572 C1548 0.950 . S
H1573 C1549 0.949 . S
H1574 C1551 0.950 . S
H1575 C1553 0.950 . S
C1576 C1577 1.349 . S
C1576 C1578 1.327 . S
C1576 H1601 0.950 . S
C1577 C1576 1.349 . S
C1577 C1593 1.349 . S
C1578 C1576 1.327 . S
C1578 C1597 1.429 . S
C1578 H1602 0.950 . S
C1579 C1596 1.574 . S
C1579 C1598 1.368 . S
C1579 H1603 0.949 . S
H1580 C1584 0.949 . S
C1581 C1582 1.349 . S
C1581 C1583 1.327 . S
C1581 H1604 0.950 . S
C1582 C1581 1.349 . S
C1582 C1594 1.349 . S
C1583 C1581 1.327 . S
C1583 C1599 1.429 . S
C1583 H1605 0.950 . S
C1584 H1580 0.949 . S
C1584 C1592 1.574 . S
C1584 C1600 1.368 . S
H1585 C1593 0.950 . S
H1586 C1591 0.950 . S
H1587 C1592 0.949 . S
H1588 C1594 0.950 . S
H1589 C1595 0.950 . S
H1590 C1596 0.949 . S
C1591 H1586 0.950 . S
C1591 C1593 1.327 . S
C1591 C1597 1.429 . S
C1592 C1584 1.574 . S
C1592 H1587 0.949 . S
C1592 C1598 1.368 . S
C1593 C1577 1.349 . S
C1593 H1585 0.950 . S
C1593 C1591 1.327 . S
C1594 C1582 1.349 . S
C1594 H1588 0.950 . S
C1594 C1595 1.327 . S
C1595 H1589 0.950 . S
C1595 C1594 1.327 . S
C1595 C1599 1.429 . S
C1596 C1579 1.574 . S
C1596 H1590 0.949 . S
C1596 C1600 1.368 . S
C1597 C1578 1.429 . S
C1597 C1591 1.429 . S
C1597 C1598 1.523 . S
C1598 C1579 1.368 . S
C1598 C1592 1.368 . S
C1598 C1597 1.523 . S
C1599 C1583 1.429 . S
C1599 C1595 1.429 . S
C1599 C1600 1.523 . S
C1600 C1584 1.368 . S
C1600 C1596 1.368 . S
C1600 C1599 1.523 . S
H1601 C1576 0.950 . S
H1602 C1578 0.950 . S
H1603 C1579 0.949 . S
H1604 C1581 0.950 . S
H1605 C1583 0.950 . S
C1606 C1607 1.349 . S
C1606 C1608 1.327 . S
C1606 H1631 0.950 . S
C1607 C1606 1.349 . S
C1607 C1623 1.349 . S
C1608 C1606 1.327 . S
C1608 C1627 1.429 . S
C1608 H1632 0.950 . S
C1609 C1626 1.574 . S
C1609 C1628 1.368 . S
C1609 H1633 0.949 . S
H1610 C1614 0.949 . S
C1611 C1612 1.349 . S
C1611 C1613 1.327 . S
C1611 H1634 0.950 . S
C1612 C1611 1.349 . S
C1612 C1624 1.349 . S
C1613 C1611 1.327 . S
C1613 C1629 1.429 . S
C1613 H1635 0.950 . S
C1614 H1610 0.949 . S
C1614 C1622 1.574 . S
C1614 C1630 1.368 . S
H1615 C1623 0.950 . S
H1616 C1621 0.950 . S
H1617 C1622 0.949 . S
H1618 C1624 0.950 . S
H1619 C1625 0.950 . S
H1620 C1626 0.949 . S
C1621 H1616 0.950 . S
C1621 C1623 1.327 . S
C1621 C1627 1.429 . S
C1622 C1614 1.574 . S
C1622 H1617 0.949 . S
C1622 C1628 1.368 . S
C1623 C1607 1.349 . S
C1623 H1615 0.950 . S
C1623 C1621 1.327 . S
C1624 C1612 1.349 . S
C1624 H1618 0.950 . S
C1624 C1625 1.327 . S
C1625 H1619 0.950 . S
C1625 C1624 1.327 . S
C1625 C1629 1.429 . S
C1626 C1609 1.574 . S
C1626 H1620 0.949 . S
C1626 C1630 1.368 . S
C1627 C1608 1.429 . S
C1627 C1621 1.429 . S
C1627 C1628 1.523 . S
C1628 C1609 1.368 . S
C1628 C1622 1.368 . S
C1628 C1627 1.523 . S
C1629 C1613 1.429 . S
C1629 C1625 1.429 . S
C1629 C1630 1.523 . S
C1630 C1614 1.368 . S
C1630 C1626 1.368 . S
C1630 C1629 1.523 . S
H1631 C1606 0.950 . S
H1632 C1608 0.950 . S
H1633 C1609 0.949 . S
H1634 C1611 0.950 . S
H1635 C1613 0.950 . S
C1636 C1637 1.349 . S
C1636 C1638 1.327 . S
C1636 H1661 0.950 . S
C1637 C1636 1.349 . S
C1637 C1653 1.349 . S
C1638 C1636 1.327 . S
C1638 C1657 1.429 . S
C1638 H1662 0.950 . S
C1639 C1656 1.574 . S
C1639 C1658 1.368 . S
C1639 H1663 0.949 . S
H1640 C1644 0.949 . S
C1641 C1642 1.349 . S
C1641 C1643 1.327 . S
C1641 H1664 0.950 . S
C1642 C1641 1.349 . S
C1642 C1654 1.349 . S
C1643 C1641 1.327 . S
C1643 C1659 1.429 . S
C1643 H1665 0.950 . S
C1644 H1640 0.949 . S
C1644 C1652 1.574 . S
C1644 C1660 1.368 . S
H1645 C1653 0.950 . S
H1646 C1651 0.950 . S
H1647 C1652 0.949 . S
H1648 C1654 0.950 . S
H1649 C1655 0.950 . S
H1650 C1656 0.949 . S
C1651 H1646 0.950 . S
C1651 C1653 1.327 . S
C1651 C1657 1.429 . S
C1652 C1644 1.574 . S
C1652 H1647 0.949 . S
C1652 C1658 1.368 . S
C1653 C1637 1.349 . S
C1653 H1645 0.950 . S
C1653 C1651 1.327 . S
C1654 C1642 1.349 . S
C1654 H1648 0.950 . S
C1654 C1655 1.327 . S
C1655 H1649 0.950 . S
C1655 C1654 1.327 . S
C1655 C1659 1.429 . S
C1656 C1639 1.574 . S
C1656 H1650 0.949 . S
C1656 C1660 1.368 . S
C1657 C1638 1.429 . S
C1657 C1651 1.429 . S
C1657 C1658 1.523 . S
C1658 C1639 1.368 . S
C1658 C1652 1.368 . S
C1658 C1657 1.523 . S
C1659 C1643 1.429 . S
C1659 C1655 1.429 . S
C1659 C1660 1.523 . S
C1660 C1644 1.368 . S
C1660 C1656 1.368 . S
C1660 C1659 1.523 . S
H1661 C1636 0.950 . S
H1662 C1638 0.950 . S
H1663 C1639 0.949 . S
H1664 C1641 0.950 . S
H1665 C1643 0.950 . S
C1666 C1667 1.349 . S
C1666 C1668 1.327 . S
C1666 H1691 0.950 . S
C1667 C1666 1.349 . S
C1667 C1683 1.349 . S
C1668 C1666 1.327 . S
C1668 C1687 1.429 . S
C1668 H1692 0.950 . S
C1669 C1686 1.574 . S
C1669 C1688 1.368 . S
C1669 H1693 0.949 . S
H1670 C1674 0.949 . S
C1671 C1672 1.349 . S
C1671 C1673 1.327 . S
C1671 H1694 0.950 . S
C1672 C1671 1.349 . S
C1672 C1684 1.349 . S
C1673 C1671 1.327 . S
C1673 C1689 1.429 . S
C1673 H1695 0.950 . S
C1674 H1670 0.949 . S
C1674 C1682 1.574 . S
C1674 C1690 1.368 . S
H1675 C1683 0.950 . S
H1676 C1681 0.950 . S
H1677 C1682 0.949 . S
H1678 C1684 0.950 . S
H1679 C1685 0.950 . S
H1680 C1686 0.949 . S
C1681 H1676 0.950 . S
C1681 C1683 1.327 . S
C1681 C1687 1.429 . S
C1682 C1674 1.574 . S
C1682 H1677 0.949 . S
C1682 C1688 1.368 . S
C1683 C1667 1.349 . S
C1683 H1675 0.950 . S
C1683 C1681 1.327 . S
C1684 C1672 1.349 . S
C1684 H1678 0.950 . S
C1684 C1685 1.327 . S
C1685 H1679 0.950 . S
C1685 C1684 1.327 . S
C1685 C1689 1.429 . S
C1686 C1669 1.574 . S
C1686 H1680 0.949 . S
C1686 C1690 1.368 . S
C1687 C1668 1.429 . S
C1687 C1681 1.429 . S
C1687 C1688 1.523 . S
C1688 C1669 1.368 . S
C1688 C1682 1.368 . S
C1688 C1687 1.523 . S
C1689 C1673 1.429 . S
C1689 C1685 1.429 . S
C1689 C1690 1.523 . S
C1690 C1674 1.368 . S
C1690 C1686 1.368 . S
C1690 C1689 1.523 . S
H1691 C1666 0.950 . S
H1692 C1668 0.950 . S
H1693 C1669 0.949 . S
H1694 C1671 0.950 . S
H1695 C1673 0.950 . S
C1696 C1697 1.349 . S
C1696 C1698 1.327 . S
C1696 H1721 0.950 . S
C1697 C1696 1.349 . S
C1697 C1713 1.349 . S
C1698 C1696 1.327 . S
C1698 C1717 1.429 . S
C1698 H1722 0.950 . S
C1699 C1716 1.574 . S
C1699 C1718 1.368 . S
C1699 H1723 0.949 . S
H1700 C1704 0.949 . S
C1701 C1702 1.349 . S
C1701 C1703 1.327 . S
C1701 H1724 0.950 . S
C1702 C1701 1.349 . S
C1702 C1714 1.349 . S
C1703 C1701 1.327 . S
C1703 C1719 1.429 . S
C1703 H1725 0.950 . S
C1704 H1700 0.949 . S
C1704 C1712 1.574 . S
C1704 C1720 1.368 . S
H1705 C1713 0.950 . S
H1706 C1711 0.950 . S
H1707 C1712 0.949 . S
H1708 C1714 0.950 . S
H1709 C1715 0.950 . S
H1710 C1716 0.949 . S
C1711 H1706 0.950 . S
C1711 C1713 1.327 . S
C1711 C1717 1.429 . S
C1712 C1704 1.574 . S
C1712 H1707 0.949 . S
C1712 C1718 1.368 . S
C1713 C1697 1.349 . S
C1713 H1705 0.950 . S
C1713 C1711 1.327 . S
C1714 C1702 1.349 . S
C1714 H1708 0.950 . S
C1714 C1715 1.327 . S
C1715 H1709 0.950 . S
C1715 C1714 1.327 . S
C1715 C1719 1.429 . S
C1716 C1699 1.574 . S
C1716 H1710 0.949 . S
C1716 C1720 1.368 . S
C1717 C1698 1.429 . S
C1717 C1711 1.429 . S
C1717 C1718 1.523 . S
C1718 C1699 1.368 . S
C1718 C1712 1.368 . S
C1718 C1717 1.523 . S
C1719 C1703 1.429 . S
C1719 C1715 1.429 . S
C1719 C1720 1.523 . S
C1720 C1704 1.368 . S
C1720 C1716 1.368 . S
C1720 C1719 1.523 . S
H1721 C1696 0.950 . S
H1722 C1698 0.950 . S
H1723 C1699 0.949 . S
H1724 C1701 0.950 . S
H1725 C1703 0.950 . S
C1726 C1727 1.349 . S
C1726 C1728 1.327 . S
C1726 H1751 0.950 . S
C1727 C1726 1.349 . S
C1727 C1743 1.349 . S
C1728 C1726 1.327 . S
C1728 C1747 1.429 . S
C1728 H1752 0.950 . S
C1729 C1746 1.574 . S
C1729 C1748 1.368 . S
C1729 H1753 0.949 . S
H1730 C1734 0.949 . S
C1731 C1732 1.349 . S
C1731 C1733 1.327 . S
C1731 H1754 0.950 . S
C1732 C1731 1.349 . S
C1732 C1744 1.349 . S
C1733 C1731 1.327 . S
C1733 C1749 1.429 . S
C1733 H1755 0.950 . S
C1734 H1730 0.949 . S
C1734 C1742 1.574 . S
C1734 C1750 1.368 . S
H1735 C1743 0.950 . S
H1736 C1741 0.950 . S
H1737 C1742 0.949 . S
H1738 C1744 0.950 . S
H1739 C1745 0.950 . S
H1740 C1746 0.949 . S
C1741 H1736 0.950 . S
C1741 C1743 1.327 . S
C1741 C1747 1.429 . S
C1742 C1734 1.574 . S
C1742 H1737 0.949 . S
C1742 C1748 1.368 . S
C1743 C1727 1.349 . S
C1743 H1735 0.950 . S
C1743 C1741 1.327 . S
C1744 C1732 1.349 . S
C1744 H1738 0.950 . S
C1744 C1745 1.327 . S
C1745 H1739 0.950 . S
C1745 C1744 1.327 . S
C1745 C1749 1.429 . S
C1746 C1729 1.574 . S
C1746 H1740 0.949 . S
C1746 C1750 1.368 . S
C1747 C1728 1.429 . S
C1747 C1741 1.429 . S
C1747 C1748 1.523 . S
C1748 C1729 1.368 . S
C1748 C1742 1.368 . S
C1748 C1747 1.523 . S
C1749 C1733 1.429 . S
C1749 C1745 1.429 . S
C1749 C1750 1.523 . S
C1750 C1734 1.368 . S
C1750 C1746 1.368 . S
C1750 C1749 1.523 . S
H1751 C1726 0.950 . S
H1752 C1728 0.950 . S
H1753 C1729 0.949 . S
H1754 C1731 0.950 . S
H1755 C1733 0.950 . S
C1756 C1757 1.349 . S
C1756 C1758 1.327 . S
C1756 H1781 0.950 . S
C1757 C1756 1.349 . S
C1757 C1773 1.349 . S
C1758 C1756 1.327 . S
C1758 C1777 1.429 . S
C1758 H1782 0.950 . S
C1759 C1776 1.574 . S
C1759 C1778 1.368 . S
C1759 H1783 0.949 . S
H1760 C1764 0.949 . S
C1761 C1762 1.349 . S
C1761 C1763 1.327 . S
C1761 H1784 0.950 . S
C1762 C1761 1.349 . S
C1762 C1774 1.349 . S
C1763 C1761 1.327 . S
C1763 C1779 1.429 . S
C1763 H1785 0.950 . S
C1764 H1760 0.949 . S
C1764 C1772 1.574 . S
C1764 C1780 1.368 . S
H1765 C1773 0.950 . S
H1766 C1771 0.950 . S
H1767 C1772 0.949 . S
H1768 C1774 0.950 . S
H1769 C1775 0.950 . S
H1770 C1776 0.949 . S
C1771 H1766 0.950 . S
C1771 C1773 1.327 . S
C1771 C1777 1.429 . S
C1772 C1764 1.574 . S
C1772 H1767 0.949 . S
C1772 C1778 1.368 . S
C1773 C1757 1.349 . S
C1773 H1765 0.950 . S
C1773 C1771 1.327 . S
C1774 C1762 1.349 . S
C1774 H1768 0.950 . S
C1774 C1775 1.327 . S
C1775 H1769 0.950 . S
C1775 C1774 1.327 . S
C1775 C1779 1.429 . S
C1776 C1759 1.574 . S
C1776 H1770 0.949 . S
C1776 C1780 1.368 . S
C1777 C1758 1.429 . S
C1777 C1771 1.429 . S
C1777 C1778 1.523 . S
C1778 C1759 1.368 . S
C1778 C1772 1.368 . S
C1778 C1777 1.523 . S
C1779 C1763 1.429 . S
C1779 C1775 1.429 . S
C1779 C1780 1.523 . S
C1780 C1764 1.368 . S
C1780 C1776 1.368 . S
C1780 C1779 1.523 . S
H1781 C1756 0.950 . S
H1782 C1758 0.950 . S
H1783 C1759 0.949 . S
H1784 C1761 0.950 . S
H1785 C1763 0.950 . S
C1786 C1787 1.349 . S
C1786 C1788 1.327 . S
C1786 H1811 0.950 . S
C1787 C1786 1.349 . S
C1787 C1803 1.349 . S
C1788 C1786 1.327 . S
C1788 C1807 1.429 . S
C1788 H1812 0.950 . S
C1789 C1806 1.574 . S
C1789 C1808 1.368 . S
C1789 H1813 0.949 . S
H1790 C1794 0.949 . S
C1791 C1792 1.349 . S
C1791 C1793 1.327 . S
C1791 H1814 0.950 . S
C1792 C1791 1.349 . S
C1792 C1804 1.349 . S
C1793 C1791 1.327 . S
C1793 C1809 1.429 . S
C1793 H1815 0.950 . S
C1794 H1790 0.949 . S
C1794 C1802 1.574 . S
C1794 C1810 1.368 . S
H1795 C1803 0.950 . S
H1796 C1801 0.950 . S
H1797 C1802 0.949 . S
H1798 C1804 0.950 . S
H1799 C1805 0.950 . S
H1800 C1806 0.949 . S
C1801 H1796 0.950 . S
C1801 C1803 1.327 . S
C1801 C1807 1.429 . S
C1802 C1794 1.574 . S
C1802 H1797 0.949 . S
C1802 C1808 1.368 . S
C1803 C1787 1.349 . S
C1803 H1795 0.950 . S
C1803 C1801 1.327 . S
C1804 C1792 1.349 . S
C1804 H1798 0.950 . S
C1804 C1805 1.327 . S
C1805 H1799 0.950 . S
C1805 C1804 1.327 . S
C1805 C1809 1.429 . S
C1806 C1789 1.574 . S
C1806 H1800 0.949 . S
C1806 C1810 1.368 . S
C1807 C1788 1.429 . S
C1807 C1801 1.429 . S
C1807 C1808 1.523 . S
C1808 C1789 1.368 . S
C1808 C1802 1.368 . S
C1808 C1807 1.523 . S
C1809 C1793 1.429 . S
C1809 C1805 1.429 . S
C1809 C1810 1.523 . S
C1810 C1794 1.368 . S
C1810 C1806 1.368 . S
C1810 C1809 1.523 . S
H1811 C1786 0.950 . S
H1812 C1788 0.950 . S
H1813 C1789 0.949 . S
H1814 C1791 0.950 . S
H1815 C1793 0.950 . S
C1816 C1817 1.349 . S
C1816 C1818 1.327 . S
C1816 H1841 0.950 . S
C1817 C1816 1.349 . S
C1817 C1833 1.349 . S
C1818 C1816 1.327 . S
C1818 C1837 1.429 . S
C1818 H1842 0.950 . S
C1819 C1836 1.574 . S
C1819 C1838 1.368 . S
C1819 H1843 0.949 . S
H1820 C1824 0.949 . S
C1821 C1822 1.349 . S
C1821 C1823 1.327 . S
C1821 H1844 0.950 . S
C1822 C1821 1.349 . S
C1822 C1834 1.349 . S
C1823 C1821 1.327 . S
C1823 C1839 1.429 . S
C1823 H1845 0.950 . S
C1824 H1820 0.949 . S
C1824 C1832 1.574 . S
C1824 C1840 1.368 . S
H1825 C1833 0.950 . S
H1826 C1831 0.950 . S
H1827 C1832 0.949 . S
H1828 C1834 0.950 . S
H1829 C1835 0.950 . S
H1830 C1836 0.949 . S
C1831 H1826 0.950 . S
C1831 C1833 1.327 . S
C1831 C1837 1.429 . S
C1832 C1824 1.574 . S
C1832 H1827 0.949 . S
C1832 C1838 1.368 . S
C1833 C1817 1.349 . S
C1833 H1825 0.950 . S
C1833 C1831 1.327 . S
C1834 C1822 1.349 . S
C1834 H1828 0.950 . S
C1834 C1835 1.327 . S
C1835 H1829 0.950 . S
C1835 C1834 1.327 . S
C1835 C1839 1.429 . S
C1836 C1819 1.574 . S
C1836 H1830 0.949 . S
C1836 C1840 1.368 . S
C1837 C1818 1.429 . S
C1837 C1831 1.429 . S
C1837 C1838 1.523 . S
C1838 C1819 1.368 . S
C1838 C1832 1.368 . S
C1838 C1837 1.523 . S
C1839 C1823 1.429 . S
C1839 C1835 1.429 . S
C1839 C1840 1.523 . S
C1840 C1824 1.368 . S
C1840 C1836 1.368 . S
C1840 C1839 1.523 . S
H1841 C1816 0.950 . S
H1842 C1818 0.950 . S
H1843 C1819 0.949 . S
H1844 C1821 0.950 . S
H1845 C1823 0.950 . S
C1846 C1847 1.349 . S
C1846 C1848 1.327 . S
C1846 H1871 0.950 . S
C1847 C1846 1.349 . S
C1847 C1863 1.349 . S
C1848 C1846 1.327 . S
C1848 C1867 1.429 . S
C1848 H1872 0.950 . S
C1849 C1866 1.574 . S
C1849 C1868 1.368 . S
C1849 H1873 0.949 . S
H1850 C1854 0.949 . S
C1851 C1852 1.349 . S
C1851 C1853 1.327 . S
C1851 H1874 0.950 . S
C1852 C1851 1.349 . S
C1852 C1864 1.349 . S
C1853 C1851 1.327 . S
C1853 C1869 1.429 . S
C1853 H1875 0.950 . S
C1854 H1850 0.949 . S
C1854 C1862 1.574 . S
C1854 C1870 1.368 . S
H1855 C1863 0.950 . S
H1856 C1861 0.950 . S
H1857 C1862 0.949 . S
H1858 C1864 0.950 . S
H1859 C1865 0.950 . S
H1860 C1866 0.949 . S
C1861 H1856 0.950 . S
C1861 C1863 1.327 . S
C1861 C1867 1.429 . S
C1862 C1854 1.574 . S
C1862 H1857 0.949 . S
C1862 C1868 1.368 . S
C1863 C1847 1.349 . S
C1863 H1855 0.950 . S
C1863 C1861 1.327 . S
C1864 C1852 1.349 . S
C1864 H1858 0.950 . S
C1864 C1865 1.327 . S
C1865 H1859 0.950 . S
C1865 C1864 1.327 . S
C1865 C1869 1.429 . S
C1866 C1849 1.574 . S
C1866 H1860 0.949 . S
C1866 C1870 1.368 . S
C1867 C1848 1.429 . S
C1867 C1861 1.429 . S
C1867 C1868 1.523 . S
C1868 C1849 1.368 . S
C1868 C1862 1.368 . S
C1868 C1867 1.523 . S
C1869 C1853 1.429 . S
C1869 C1865 1.429 . S
C1869 C1870 1.523 . S
C1870 C1854 1.368 . S
C1870 C1866 1.368 . S
C1870 C1869 1.523 . S
H1871 C1846 0.950 . S
H1872 C1848 0.950 . S
H1873 C1849 0.949 . S
H1874 C1851 0.950 . S
H1875 C1853 0.950 . S
C1876 C1877 1.349 . S
C1876 C1878 1.327 . S
C1876 H1901 0.950 . S
C1877 C1876 1.349 . S
C1877 C1893 1.349 . S
C1878 C1876 1.327 . S
C1878 C1897 1.429 . S
C1878 H1902 0.950 . S
C1879 C1896 1.574 . S
C1879 C1898 1.368 . S
C1879 H1903 0.949 . S
H1880 C1884 0.949 . S
C1881 C1882 1.349 1_554 S
C1881 C1883 1.327 1_554 S
C1881 H1904 0.950 . S
C1882 C1881 1.349 1_556 S
C1882 C1894 1.349 . S
C1883 C1881 1.327 1_556 S
C1883 C1899 1.429 . S
C1883 H1905 0.950 1_556 S
C1884 H1880 0.949 . S
C1884 C1892 1.574 . S
C1884 C1900 1.368 . S
H1885 C1893 0.950 . S
H1886 C1891 0.950 . S
H1887 C1892 0.949 . S
H1888 C1894 0.950 . S
H1889 C1895 0.950 . S
H1890 C1896 0.949 . S
C1891 H1886 0.950 . S
C1891 C1893 1.327 . S
C1891 C1897 1.429 . S
C1892 C1884 1.574 . S
C1892 H1887 0.949 . S
C1892 C1898 1.368 . S
C1893 C1877 1.349 . S
C1893 H1885 0.950 . S
C1893 C1891 1.327 . S
C1894 C1882 1.349 . S
C1894 H1888 0.950 . S
C1894 C1895 1.327 . S
C1895 H1889 0.950 . S
C1895 C1894 1.327 . S
C1895 C1899 1.429 . S
C1896 C1879 1.574 . S
C1896 H1890 0.949 . S
C1896 C1900 1.368 . S
C1897 C1878 1.429 . S
C1897 C1891 1.429 . S
C1897 C1898 1.523 . S
C1898 C1879 1.368 . S
C1898 C1892 1.368 . S
C1898 C1897 1.523 . S
C1899 C1883 1.429 . S
C1899 C1895 1.429 . S
C1899 C1900 1.523 . S
C1900 C1884 1.368 . S
C1900 C1896 1.368 . S
C1900 C1899 1.523 . S
H1901 C1876 0.950 . S
H1902 C1878 0.950 . S
H1903 C1879 0.949 . S
H1904 C1881 0.950 . S
H1905 C1883 0.950 1_554 S
C1906 C1907 1.349 . S
C1906 C1908 1.327 . S
C1906 H1931 0.950 . S
C1907 C1906 1.349 . S
C1907 C1923 1.349 . S
C1908 C1906 1.327 . S
C1908 C1927 1.429 . S
C1908 H1932 0.950 . S
C1909 C1926 1.574 . S
C1909 C1928 1.368 . S
C1909 H1933 0.949 . S
H1910 C1914 0.949 . S
C1911 C1912 1.349 . S
C1911 C1913 1.327 . S
C1911 H1934 0.950 . S
C1912 C1911 1.349 . S
C1912 C1924 1.349 . S
C1913 C1911 1.327 . S
C1913 C1929 1.429 . S
C1913 H1935 0.950 . S
C1914 H1910 0.949 . S
C1914 C1922 1.574 . S
C1914 C1930 1.368 . S
H1915 C1923 0.950 . S
H1916 C1921 0.950 . S
H1917 C1922 0.949 . S
H1918 C1924 0.950 . S
H1919 C1925 0.950 . S
H1920 C1926 0.949 . S
C1921 H1916 0.950 . S
C1921 C1923 1.327 . S
C1921 C1927 1.429 . S
C1922 C1914 1.574 . S
C1922 H1917 0.949 . S
C1922 C1928 1.368 . S
C1923 C1907 1.349 . S
C1923 H1915 0.950 . S
C1923 C1921 1.327 . S
C1924 C1912 1.349 . S
C1924 H1918 0.950 . S
C1924 C1925 1.327 . S
C1925 H1919 0.950 . S
C1925 C1924 1.327 . S
C1925 C1929 1.429 . S
C1926 C1909 1.574 . S
C1926 H1920 0.949 . S
C1926 C1930 1.368 . S
C1927 C1908 1.429 . S
C1927 C1921 1.429 . S
C1927 C1928 1.523 . S
C1928 C1909 1.368 . S
C1928 C1922 1.368 . S
C1928 C1927 1.523 . S
C1929 C1913 1.429 . S
C1929 C1925 1.429 . S
C1929 C1930 1.523 . S
C1930 C1914 1.368 . S
C1930 C1926 1.368 . S
C1930 C1929 1.523 . S
H1931 C1906 0.950 . S
H1932 C1908 0.950 . S
H1933 C1909 0.949 . S
H1934 C1911 0.950 . S
H1935 C1913 0.950 . S
C1936 C1937 1.309 1_565 S
C1936 C1938 1.328 1_565 S
C1936 H1961 0.993 . S
C1937 C1936 1.309 1_545 S
C1937 C1953 1.349 . S
C1938 C1936 1.328 1_545 S
C1938 C1957 1.449 . S
C1938 H1962 0.929 1_545 S
C1939 C1956 1.574 . S
C1939 C1958 1.368 . S
C1939 H1963 0.949 . S
H1940 C1944 0.949 1_565 S
C1941 C1942 1.349 . S
C1941 C1943 1.327 . S
C1941 H1964 0.950 . S
C1942 C1941 1.349 . S
C1942 C1954 1.349 . S
C1943 C1941 1.327 . S
C1943 C1959 1.429 . S
C1943 H1965 0.950 . S
C1944 H1940 0.949 1_545 S
C1944 C1952 1.574 . S
C1944 C1960 1.368 . S
H1945 C1953 0.950 . S
H1946 C1951 0.950 . S
H1947 C1952 0.949 1_565 S
H1948 C1954 0.950 . S
H1949 C1955 0.956 . S
H1950 C1956 0.949 . S
C1951 H1946 0.950 . S
C1951 C1953 1.327 . S
C1951 C1957 1.429 . S
C1952 C1944 1.574 . S
C1952 H1947 0.949 1_545 S
C1952 C1958 1.368 . S
C1953 C1937 1.349 . S
C1953 H1945 0.950 . S
C1953 C1951 1.327 . S
C1954 C1942 1.349 . S
C1954 H1948 0.950 . S
C1954 C1955 1.327 . S
C1955 H1949 0.956 . S
C1955 C1954 1.327 . S
C1955 C1959 1.429 . S
C1956 C1939 1.574 . S
C1956 H1950 0.949 . S
C1956 C1960 1.368 . S
C1957 C1938 1.449 . S
C1957 C1951 1.429 . S
C1957 C1958 1.523 . S
C1958 C1939 1.368 . S
C1958 C1952 1.368 . S
C1958 C1957 1.523 . S
C1959 C1943 1.429 . S
C1959 C1955 1.429 . S
C1959 C1960 1.523 . S
C1960 C1944 1.368 . S
C1960 C1956 1.368 . S
C1960 C1959 1.523 . S
H1961 C1936 0.993 . S
H1962 C1938 0.929 1_565 S
H1963 C1939 0.949 . S
H1964 C1941 0.950 . S
H1965 C1943 0.950 . S
C1966 C1967 1.349 . S
C1966 C1968 1.327 . S
C1966 H1991 0.950 . S
C1967 C1966 1.349 . S
C1967 C1983 1.349 . S
C1968 C1966 1.327 . S
C1968 C1987 1.429 . S
C1968 H1992 0.950 . S
C1969 C1986 1.574 . S
C1969 C1988 1.368 . S
C1969 H1993 0.949 . S
H1970 C1974 0.949 . S
C1971 C1972 1.349 . S
C1971 C1973 1.327 . S
C1971 H1994 0.950 . S
C1972 C1971 1.349 . S
C1972 C1984 1.349 . S
C1973 C1971 1.327 . S
C1973 C1989 1.429 . S
C1973 H1995 0.950 . S
C1974 H1970 0.949 . S
C1974 C1982 1.574 . S
C1974 C1990 1.368 . S
H1975 C1983 0.950 . S
H1976 C1981 0.950 . S
H1977 C1982 0.949 . S
H1978 C1984 0.950 . S
H1979 C1985 0.950 . S
H1980 C1986 0.949 . S
C1981 H1976 0.950 . S
C1981 C1983 1.327 . S
C1981 C1987 1.429 . S
C1982 C1974 1.574 . S
C1982 H1977 0.949 . S
C1982 C1988 1.368 . S
C1983 C1967 1.349 . S
C1983 H1975 0.950 . S
C1983 C1981 1.327 . S
C1984 C1972 1.349 . S
C1984 H1978 0.950 . S
C1984 C1985 1.327 . S
C1985 H1979 0.950 . S
C1985 C1984 1.327 . S
C1985 C1989 1.429 . S
C1986 C1969 1.574 . S
C1986 H1980 0.949 . S
C1986 C1990 1.368 . S
C1987 C1968 1.429 . S
C1987 C1981 1.429 . S
C1987 C1988 1.523 . S
C1988 C1969 1.368 . S
C1988 C1982 1.368 . S
C1988 C1987 1.523 . S
C1989 C1973 1.429 . S
C1989 C1985 1.429 . S
C1989 C1990 1.523 . S
C1990 C1974 1.368 . S
C1990 C1986 1.368 . S
C1990 C1989 1.523 . S
H1991 C1966 0.950 . S
H1992 C1968 0.950 . S
H1993 C1969 0.949 . S
H1994 C1971 0.950 . S
H1995 C1973 0.950 . S
C1996 C1997 1.349 . S
C1996 C1998 1.327 . S
C1996 H2021 0.950 1_545 S
C1997 C1996 1.349 . S
C1997 C2013 1.349 . S
C1998 C1996 1.327 . S
C1998 C2017 1.429 . S
C1998 H2022 0.950 1_545 S
C1999 C2016 1.574 . S
C1999 C2018 1.368 . S
C1999 H2023 0.949 . S
H2000 C2004 0.984 . S
C2001 C2002 1.349 . S
C2001 C2003 1.327 . S
C2001 H2024 0.950 . S
C2002 C2001 1.349 . S
C2002 C2014 1.349 . S
C2003 C2001 1.327 . S
C2003 C2019 1.429 . S
C2003 H2025 0.950 . S
C2004 H2000 0.984 . S
C2004 C2012 1.574 . S
C2004 C2020 1.368 . S
H2005 C2013 0.950 . S
H2006 C2011 0.950 . S
H2007 C2012 0.949 1_565 S
H2008 C2014 0.950 . S
H2009 C2015 0.950 . S
H2010 C2016 0.949 . S
C2011 H2006 0.950 . S
C2011 C2013 1.327 . S
C2011 C2017 1.429 . S
C2012 C2004 1.574 . S
C2012 H2007 0.949 1_545 S
C2012 C2018 1.368 . S
C2013 C1997 1.349 . S
C2013 H2005 0.950 . S
C2013 C2011 1.327 . S
C2014 C2002 1.349 . S
C2014 H2008 0.950 . S
C2014 C2015 1.327 . S
C2015 H2009 0.950 . S
C2015 C2014 1.327 . S
C2015 C2019 1.429 . S
C2016 C1999 1.574 . S
C2016 H2010 0.949 . S
C2016 C2020 1.368 . S
C2017 C1998 1.429 . S
C2017 C2011 1.429 . S
C2017 C2018 1.523 . S
C2018 C1999 1.368 . S
C2018 C2012 1.368 . S
C2018 C2017 1.523 . S
C2019 C2003 1.429 . S
C2019 C2015 1.429 . S
C2019 C2020 1.523 . S
C2020 C2004 1.368 . S
C2020 C2016 1.368 . S
C2020 C2019 1.523 . S
H2021 C1996 0.950 1_565 S
H2022 C1998 0.950 1_565 S
H2023 C1999 0.949 . S
H2024 C2001 0.950 . S
H2025 C2003 0.950 . S
C2026 C2027 1.349 . S
C2026 C2028 1.327 . S
C2026 H2051 0.950 . S
C2027 C2026 1.349 . S
C2027 C2043 1.349 . S
C2028 C2026 1.327 . S
C2028 C2047 1.429 . S
C2028 H2052 0.950 . S
C2029 C2046 1.574 . S
C2029 C2048 1.368 . S
C2029 H2053 0.949 . S
H2030 C2034 0.949 . S
C2031 C2032 1.349 . S
C2031 C2033 1.327 . S
C2031 H2054 0.950 . S
C2032 C2031 1.349 . S
C2032 C2044 1.349 . S
C2033 C2031 1.327 . S
C2033 C2049 1.429 . S
C2033 H2055 0.950 . S
C2034 H2030 0.949 . S
C2034 C2042 1.574 . S
C2034 C2050 1.368 . S
H2035 C2043 0.950 . S
H2036 C2041 0.950 . S
H2037 C2042 0.949 . S
H2038 C2044 0.950 . S
H2039 C2045 0.950 . S
H2040 C2046 0.949 . S
C2041 H2036 0.950 . S
C2041 C2043 1.327 . S
C2041 C2047 1.429 . S
C2042 C2034 1.574 . S
C2042 H2037 0.949 . S
C2042 C2048 1.368 . S
C2043 C2027 1.349 . S
C2043 H2035 0.950 . S
C2043 C2041 1.327 . S
C2044 C2032 1.349 . S
C2044 H2038 0.950 . S
C2044 C2045 1.327 . S
C2045 H2039 0.950 . S
C2045 C2044 1.327 . S
C2045 C2049 1.429 . S
C2046 C2029 1.574 . S
C2046 H2040 0.949 . S
C2046 C2050 1.368 . S
C2047 C2028 1.429 . S
C2047 C2041 1.429 . S
C2047 C2048 1.523 . S
C2048 C2029 1.368 . S
C2048 C2042 1.368 . S
C2048 C2047 1.523 . S
C2049 C2033 1.429 . S
C2049 C2045 1.429 . S
C2049 C2050 1.523 . S
C2050 C2034 1.368 . S
C2050 C2046 1.368 . S
C2050 C2049 1.523 . S
H2051 C2026 0.950 . S
H2052 C2028 0.950 . S
H2053 C2029 0.949 . S
H2054 C2031 0.950 . S
H2055 C2033 0.950 . S
C2056 C2057 1.383 . S
C2056 C2058 1.327 . S
C2056 H2081 0.950 . S
C2057 C2056 1.383 . S
C2057 C2073 1.330 1_545 S
C2058 C2056 1.327 . S
C2058 C2077 1.429 . S
C2058 H2082 0.950 . S
C2059 C2076 1.574 . S
C2059 C2078 1.368 1_565 S
C2059 H2083 0.949 . S
H2060 C2064 0.949 . S
C2061 C2062 1.349 . S
C2061 C2063 1.327 . S
C2061 H2084 0.950 1_545 S
C2062 C2061 1.349 . S
C2062 C2074 1.349 . S
C2063 C2061 1.327 . S
C2063 C2079 1.429 . S
C2063 H2085 0.950 1_545 S
C2064 H2060 0.949 . S
C2064 C2072 1.574 . S
C2064 C2080 1.368 . S
H2065 C2073 0.950 . S
H2066 C2071 0.950 . S
H2067 C2072 0.949 . S
H2068 C2074 0.950 . S
H2069 C2075 0.950 . S
H2070 C2076 0.949 . S
C2071 H2066 0.950 . S
C2071 C2073 1.327 . S
C2071 C2077 1.429 1_565 S
C2072 C2064 1.574 . S
C2072 H2067 0.949 . S
C2072 C2078 1.368 . S
C2073 C2057 1.330 1_565 S
C2073 H2065 0.950 . S
C2073 C2071 1.327 . S
C2074 C2062 1.349 . S
C2074 H2068 0.950 . S
C2074 C2075 1.327 . S
C2075 H2069 0.950 . S
C2075 C2074 1.327 . S
C2075 C2079 1.429 . S
C2076 C2059 1.574 . S
C2076 H2070 0.949 . S
C2076 C2080 1.368 1_565 S
C2077 C2058 1.429 . S
C2077 C2071 1.429 1_545 S
C2077 C2078 1.523 . S
C2078 C2059 1.368 1_545 S
C2078 C2072 1.368 . S
C2078 C2077 1.523 . S
C2079 C2063 1.429 . S
C2079 C2075 1.429 . S
C2079 C2080 1.523 . S
C2080 C2064 1.368 . S
C2080 C2076 1.368 1_545 S
C2080 C2079 1.523 . S
H2081 C2056 0.950 . S
H2082 C2058 0.950 . S
H2083 C2059 0.949 . S
H2084 C2061 0.950 1_565 S
H2085 C2063 0.950 1_565 S
C2086 C2087 1.349 . S
C2086 C2088 1.327 . S
C2086 H2111 0.950 . S
C2087 C2086 1.349 . S
C2087 C2103 1.349 . S
C2088 C2086 1.327 . S
C2088 C2107 1.429 . S
C2088 H2112 0.950 . S
C2089 C2106 1.574 . S
C2089 C2108 1.368 . S
C2089 H2113 0.949 . S
H2090 C2094 0.949 . S
C2091 C2092 1.349 . S
C2091 C2093 1.327 . S
C2091 H2114 0.950 . S
C2092 C2091 1.349 . S
C2092 C2104 1.349 . S
C2093 C2091 1.327 . S
C2093 C2109 1.429 . S
C2093 H2115 0.950 . S
C2094 H2090 0.949 . S
C2094 C2102 1.574 . S
C2094 C2110 1.368 . S
H2095 C2103 0.950 . S
H2096 C2101 0.950 . S
H2097 C2102 0.949 . S
H2098 C2104 0.950 . S
H2099 C2105 0.950 . S
H2100 C2106 0.949 . S
C2101 H2096 0.950 . S
C2101 C2103 1.327 . S
C2101 C2107 1.429 . S
C2102 C2094 1.574 . S
C2102 H2097 0.949 . S
C2102 C2108 1.368 . S
C2103 C2087 1.349 . S
C2103 H2095 0.950 . S
C2103 C2101 1.327 . S
C2104 C2092 1.349 . S
C2104 H2098 0.950 . S
C2104 C2105 1.327 . S
C2105 H2099 0.950 . S
C2105 C2104 1.327 . S
C2105 C2109 1.429 . S
C2106 C2089 1.574 . S
C2106 H2100 0.949 . S
C2106 C2110 1.368 . S
C2107 C2088 1.429 . S
C2107 C2101 1.429 . S
C2107 C2108 1.523 . S
C2108 C2089 1.368 . S
C2108 C2102 1.368 . S
C2108 C2107 1.523 . S
C2109 C2093 1.429 . S
C2109 C2105 1.429 . S
C2109 C2110 1.523 . S
C2110 C2094 1.368 . S
C2110 C2106 1.368 . S
C2110 C2109 1.523 . S
H2111 C2086 0.950 . S
H2112 C2088 0.950 . S
H2113 C2089 0.949 . S
H2114 C2091 0.950 . S
H2115 C2093 0.950 . S
C2116 C2117 1.349 . S
C2116 C2118 1.327 . S
C2116 H2141 0.950 . S
C2117 C2116 1.349 . S
C2117 C2133 1.349 1_545 S
C2118 C2116 1.327 . S
C2118 C2137 1.429 . S
C2118 H2142 0.950 . S
C2119 C2136 1.574 . S
C2119 C2138 1.368 1_565 S
C2119 H2143 0.949 . S
H2120 C2124 0.949 . S
C2121 C2122 1.349 1_565 S
C2121 C2123 1.327 . S
C2121 H2144 0.950 . S
C2122 C2121 1.349 1_545 S
C2122 C2134 1.349 . S
C2123 C2121 1.327 . S
C2123 C2139 1.429 1_565 S
C2123 H2145 0.950 . S
C2124 H2120 0.949 . S
C2124 C2132 1.574 . S
C2124 C2140 1.368 . S
H2125 C2133 0.950 . S
H2126 C2131 0.950 . S
H2127 C2132 0.949 . S
H2128 C2134 0.950 . S
H2129 C2135 0.950 . S
H2130 C2136 0.949 . S
C2131 H2126 0.950 . S
C2131 C2133 1.327 . S
C2131 C2137 1.429 1_565 S
C2132 C2124 1.574 . S
C2132 H2127 0.949 . S
C2132 C2138 1.368 . S
C2133 C2117 1.349 1_565 S
C2133 H2125 0.950 . S
C2133 C2131 1.327 . S
C2134 C2122 1.349 . S
C2134 H2128 0.950 . S
C2134 C2135 1.327 . S
C2135 H2129 0.950 . S
C2135 C2134 1.327 . S
C2135 C2139 1.429 . S
C2136 C2119 1.574 . S
C2136 H2130 0.949 . S
C2136 C2140 1.368 1_565 S
C2137 C2118 1.429 . S
C2137 C2131 1.429 1_545 S
C2137 C2138 1.523 . S
C2138 C2119 1.368 1_545 S
C2138 C2132 1.368 . S
C2138 C2137 1.523 . S
C2139 C2123 1.429 1_545 S
C2139 C2135 1.429 . S
C2139 C2140 1.523 . S
C2140 C2124 1.368 . S
C2140 C2136 1.368 1_545 S
C2140 C2139 1.523 . S
H2141 C2116 0.950 . S
H2142 C2118 0.950 . S
H2143 C2119 0.949 . S
H2144 C2121 0.950 . S
H2145 C2123 0.950 . S
C2146 C2147 1.349 . S
C2146 C2148 1.327 . S
C2146 H2171 0.950 . S
C2147 C2146 1.349 . S
C2147 C2163 1.349 . S
C2148 C2146 1.327 . S
C2148 C2167 1.429 . S
C2148 H2172 0.950 . S
C2149 C2166 1.574 . S
C2149 C2168 1.368 . S
C2149 H2173 0.949 . S
H2150 C2154 0.949 . S
C2151 C2152 1.349 . S
C2151 C2153 1.327 . S
C2151 H2174 0.950 . S
C2152 C2151 1.349 . S
C2152 C2164 1.349 . S
C2153 C2151 1.327 . S
C2153 C2169 1.429 . S
C2153 H2175 0.950 . S
C2154 H2150 0.949 . S
C2154 C2162 1.574 . S
C2154 C2170 1.368 . S
H2155 C2163 0.950 . S
H2156 C2161 0.950 . S
H2157 C2162 0.949 . S
H2158 C2164 0.950 . S
H2159 C2165 0.950 . S
H2160 C2166 0.949 . S
C2161 H2156 0.950 . S
C2161 C2163 1.327 . S
C2161 C2167 1.429 . S
C2162 C2154 1.574 . S
C2162 H2157 0.949 . S
C2162 C2168 1.368 . S
C2163 C2147 1.349 . S
C2163 H2155 0.950 . S
C2163 C2161 1.327 . S
C2164 C2152 1.349 . S
C2164 H2158 0.950 . S
C2164 C2165 1.327 . S
C2165 H2159 0.950 . S
C2165 C2164 1.327 . S
C2165 C2169 1.429 . S
C2166 C2149 1.574 . S
C2166 H2160 0.949 . S
C2166 C2170 1.368 . S
C2167 C2148 1.429 . S
C2167 C2161 1.429 . S
C2167 C2168 1.523 . S
C2168 C2149 1.368 . S
C2168 C2162 1.368 . S
C2168 C2167 1.523 . S
C2169 C2153 1.429 . S
C2169 C2165 1.429 . S
C2169 C2170 1.523 . S
C2170 C2154 1.368 . S
C2170 C2166 1.368 . S
C2170 C2169 1.523 . S
H2171 C2146 0.950 . S
H2172 C2148 0.950 . S
H2173 C2149 0.949 . S
H2174 C2151 0.950 . S
H2175 C2153 0.950 . S
C2176 C2177 1.349 . S
C2176 C2178 1.327 . S
C2176 H2201 0.950 . S
C2177 C2176 1.349 . S
C2177 C2193 1.349 . S
C2178 C2176 1.327 . S
C2178 C2197 1.429 . S
C2178 H2202 0.950 . S
C2179 C2196 1.579 . S
C2179 C2198 1.368 . S
C2179 H2203 0.949 1_554 S
H2180 C2184 0.949 . S
C2181 C2182 1.349 1_556 S
C2181 C2183 1.327 . S
C2181 H2204 0.950 . S
C2182 C2181 1.349 1_554 S
C2182 C2194 1.349 . S
C2183 C2181 1.327 . S
C2183 C2199 1.429 1_556 S
C2183 H2205 0.950 . S
C2184 H2180 0.949 . S
C2184 C2192 1.574 . S
C2184 C2200 1.368 . S
H2185 C2193 0.950 . S
H2186 C2191 0.950 1_556 S
H2187 C2192 0.949 . S
H2188 C2194 0.950 . S
H2189 C2195 0.950 . S
H2190 C2196 0.913 1_556 S
C2191 H2186 0.950 1_554 S
C2191 C2193 1.327 . S
C2191 C2197 1.429 . S
C2192 C2184 1.574 . S
C2192 H2187 0.949 . S
C2192 C2198 1.368 . S
C2193 C2177 1.349 . S
C2193 H2185 0.950 . S
C2193 C2191 1.327 . S
C2194 C2182 1.349 . S
C2194 H2188 0.950 . S
C2194 C2195 1.327 . S
C2195 H2189 0.950 . S
C2195 C2194 1.327 . S
C2195 C2199 1.429 . S
C2196 C2179 1.579 . S
C2196 H2190 0.913 1_554 S
C2196 C2200 1.406 . S
C2197 C2178 1.429 . S
C2197 C2191 1.429 . S
C2197 C2198 1.523 . S
C2198 C2179 1.368 . S
C2198 C2192 1.368 . S
C2198 C2197 1.523 . S
C2199 C2183 1.429 1_554 S
C2199 C2195 1.429 . S
C2199 C2200 1.523 . S
C2200 C2184 1.368 . S
C2200 C2196 1.406 . S
C2200 C2199 1.523 . S
H2201 C2176 0.950 . S
H2202 C2178 0.950 . S
H2203 C2179 0.949 1_556 S
H2204 C2181 0.950 . S
H2205 C2183 0.950 . S
C2206 C2207 1.349 . S
C2206 C2208 1.327 . S
C2206 H2231 0.950 . S
C2207 C2206 1.349 . S
C2207 C2223 1.349 . S
C2208 C2206 1.327 . S
C2208 C2227 1.429 . S
C2208 H2232 0.950 . S
C2209 C2226 1.574 . S
C2209 C2228 1.368 . S
C2209 H2233 0.949 1_554 S
H2210 C2214 0.949 . S
C2211 C2212 1.349 . S
C2211 C2213 1.327 . S
C2211 H2234 0.950 1_554 S
C2212 C2211 1.349 . S
C2212 C2224 1.349 . S
C2213 C2211 1.327 . S
C2213 C2229 1.429 . S
C2213 H2235 0.950 1_554 S
C2214 H2210 0.949 . S
C2214 C2222 1.574 . S
C2214 C2230 1.368 . S
H2215 C2223 0.960 . S
H2216 C2221 0.950 1_556 S
H2217 C2222 0.949 . S
H2218 C2224 0.950 . S
H2219 C2225 0.950 . S
H2220 C2226 0.949 1_556 S
C2221 H2216 0.950 1_554 S
C2221 C2223 1.327 . S
C2221 C2227 1.429 . S
C2222 C2214 1.574 . S
C2222 H2217 0.949 . S
C2222 C2228 1.368 . S
C2223 C2207 1.349 . S
C2223 H2215 0.960 . S
C2223 C2221 1.327 . S
C2224 C2212 1.349 . S
C2224 H2218 0.950 . S
C2224 C2225 1.327 . S
C2225 H2219 0.950 . S
C2225 C2224 1.327 . S
C2225 C2229 1.429 . S
C2226 C2209 1.574 . S
C2226 H2220 0.949 1_554 S
C2226 C2230 1.368 . S
C2227 C2208 1.429 . S
C2227 C2221 1.429 . S
C2227 C2228 1.523 . S
C2228 C2209 1.368 . S
C2228 C2222 1.368 . S
C2228 C2227 1.523 . S
C2229 C2213 1.429 . S
C2229 C2225 1.429 . S
C2229 C2230 1.523 . S
C2230 C2214 1.368 . S
C2230 C2226 1.368 . S
C2230 C2229 1.523 . S
H2231 C2206 0.950 . S
H2232 C2208 0.950 . S
H2233 C2209 0.949 1_556 S
H2234 C2211 0.950 1_556 S
H2235 C2213 0.950 1_556 S
C2236 C2237 1.349 . S
C2236 C2238 1.327 . S
C2236 H2261 0.950 . S
C2237 C2236 1.349 . S
C2237 C2253 1.349 . S
C2238 C2236 1.327 . S
C2238 C2257 1.429 . S
C2238 H2262 0.950 . S
C2239 C2256 1.574 . S
C2239 C2258 1.368 . S
C2239 H2263 0.949 . S
H2240 C2244 0.949 . S
C2241 C2242 1.349 . S
C2241 C2243 1.327 . S
C2241 H2264 0.950 . S
C2242 C2241 1.349 . S
C2242 C2254 1.349 . S
C2243 C2241 1.327 . S
C2243 C2259 1.429 . S
C2243 H2265 0.950 . S
C2244 H2240 0.949 . S
C2244 C2252 1.574 . S
C2244 C2260 1.368 . S
H2245 C2253 0.950 . S
H2246 C2251 0.950 . S
H2247 C2252 0.949 . S
H2248 C2254 0.950 . S
H2249 C2255 0.950 . S
H2250 C2256 0.949 . S
C2251 H2246 0.950 . S
C2251 C2253 1.327 . S
C2251 C2257 1.429 . S
C2252 C2244 1.574 . S
C2252 H2247 0.949 . S
C2252 C2258 1.368 . S
C2253 C2237 1.349 . S
C2253 H2245 0.950 . S
C2253 C2251 1.327 . S
C2254 C2242 1.349 . S
C2254 H2248 0.950 . S
C2254 C2255 1.327 . S
C2255 H2249 0.950 . S
C2255 C2254 1.327 . S
C2255 C2259 1.429 . S
C2256 C2239 1.574 . S
C2256 H2250 0.949 . S
C2256 C2260 1.368 . S
C2257 C2238 1.429 . S
C2257 C2251 1.429 . S
C2257 C2258 1.523 . S
C2258 C2239 1.368 . S
C2258 C2252 1.368 . S
C2258 C2257 1.523 . S
C2259 C2243 1.429 . S
C2259 C2255 1.429 . S
C2259 C2260 1.523 . S
C2260 C2244 1.368 . S
C2260 C2256 1.368 . S
C2260 C2259 1.523 . S
H2261 C2236 0.950 . S
H2262 C2238 0.950 . S
H2263 C2239 0.949 . S
H2264 C2241 0.950 . S
H2265 C2243 0.950 . S
C2266 C2267 1.349 . S
C2266 C2268 1.327 . S
C2266 H2291 0.950 . S
C2267 C2266 1.349 . S
C2267 C2283 1.349 . S
C2268 C2266 1.327 . S
C2268 C2287 1.429 . S
C2268 H2292 0.950 . S
C2269 C2286 1.574 . S
C2269 C2288 1.368 . S
C2269 H2293 0.949 . S
H2270 C2274 0.949 . S
C2271 C2272 1.349 . S
C2271 C2273 1.327 . S
C2271 H2294 0.950 . S
C2272 C2271 1.349 . S
C2272 C2284 1.349 . S
C2273 C2271 1.327 . S
C2273 C2289 1.429 . S
C2273 H2295 0.950 . S
C2274 H2270 0.949 . S
C2274 C2282 1.574 . S
C2274 C2290 1.368 . S
H2275 C2283 0.950 . S
H2276 C2281 0.950 . S
H2277 C2282 0.949 . S
H2278 C2284 0.950 . S
H2279 C2285 0.950 . S
H2280 C2286 0.949 . S
C2281 H2276 0.950 . S
C2281 C2283 1.327 . S
C2281 C2287 1.429 . S
C2282 C2274 1.574 . S
C2282 H2277 0.949 . S
C2282 C2288 1.368 . S
C2283 C2267 1.349 . S
C2283 H2275 0.950 . S
C2283 C2281 1.327 . S
C2284 C2272 1.349 . S
C2284 H2278 0.950 . S
C2284 C2285 1.327 . S
C2285 H2279 0.950 . S
C2285 C2284 1.327 . S
C2285 C2289 1.429 . S
C2286 C2269 1.574 . S
C2286 H2280 0.949 . S
C2286 C2290 1.368 . S
C2287 C2268 1.429 . S
C2287 C2281 1.429 . S
C2287 C2288 1.523 . S
C2288 C2269 1.368 . S
C2288 C2282 1.368 . S
C2288 C2287 1.523 . S
C2289 C2273 1.429 . S
C2289 C2285 1.429 . S
C2289 C2290 1.523 . S
C2290 C2274 1.368 . S
C2290 C2286 1.368 . S
C2290 C2289 1.523 . S
H2291 C2266 0.950 . S
H2292 C2268 0.950 . S
H2293 C2269 0.949 . S
H2294 C2271 0.950 . S
H2295 C2273 0.950 . S
C2296 C2297 1.349 . S
C2296 C2298 1.327 . S
C2296 H2321 0.950 . S
C2297 C2296 1.349 . S
C2297 C2313 1.349 . S
C2298 C2296 1.327 . S
C2298 C2317 1.429 . S
C2298 H2322 0.950 . S
C2299 C2316 1.574 . S
C2299 C2318 1.368 . S
C2299 H2323 0.949 . S
H2300 C2304 0.949 . S
C2301 C2302 1.349 . S
C2301 C2303 1.327 . S
C2301 H2324 0.950 . S
C2302 C2301 1.349 . S
C2302 C2314 1.349 . S
C2303 C2301 1.327 . S
C2303 C2319 1.429 . S
C2303 H2325 0.950 . S
C2304 H2300 0.949 . S
C2304 C2312 1.574 . S
C2304 C2320 1.368 . S
H2305 C2313 0.975 . S
H2306 C2311 0.950 . S
H2307 C2312 0.949 . S
H2308 C2314 0.950 . S
H2309 C2315 0.950 . S
H2310 C2316 0.949 . S
C2311 H2306 0.950 . S
C2311 C2313 1.327 . S
C2311 C2317 1.429 . S
C2312 C2304 1.574 . S
C2312 H2307 0.949 . S
C2312 C2318 1.368 . S
C2313 C2297 1.349 . S
C2313 H2305 0.975 . S
C2313 C2311 1.327 . S
C2314 C2302 1.349 . S
C2314 H2308 0.950 . S
C2314 C2315 1.327 . S
C2315 H2309 0.950 . S
C2315 C2314 1.327 . S
C2315 C2319 1.429 . S
C2316 C2299 1.574 . S
C2316 H2310 0.949 . S
C2316 C2320 1.368 . S
C2317 C2298 1.429 . S
C2317 C2311 1.429 . S
C2317 C2318 1.523 . S
C2318 C2299 1.368 . S
C2318 C2312 1.368 . S
C2318 C2317 1.523 . S
C2319 C2303 1.429 . S
C2319 C2315 1.429 . S
C2319 C2320 1.523 . S
C2320 C2304 1.368 . S
C2320 C2316 1.368 . S
C2320 C2319 1.523 . S
H2321 C2296 0.950 . S
H2322 C2298 0.950 . S
H2323 C2299 0.949 . S
H2324 C2301 0.950 . S
H2325 C2303 0.950 . S
C2326 C2327 1.349 . S
C2326 C2328 1.327 . S
C2326 H2351 0.950 . S
C2327 C2326 1.349 . S
C2327 C2343 1.349 . S
C2328 C2326 1.327 . S
C2328 C2347 1.429 . S
C2328 H2352 0.950 . S
C2329 C2346 1.574 . S
C2329 C2348 1.368 . S
C2329 H2353 0.949 . S
H2330 C2334 0.949 . S
C2331 C2332 1.349 . S
C2331 C2333 1.327 . S
C2331 H2354 0.950 . S
C2332 C2331 1.349 . S
C2332 C2344 1.349 . S
C2333 C2331 1.327 . S
C2333 C2349 1.429 . S
C2333 H2355 0.950 . S
C2334 H2330 0.949 . S
C2334 C2342 1.574 . S
C2334 C2350 1.368 . S
H2335 C2343 0.950 . S
H2336 C2341 0.950 . S
H2337 C2342 0.949 . S
H2338 C2344 0.950 . S
H2339 C2345 0.950 . S
H2340 C2346 0.949 . S
C2341 H2336 0.950 . S
C2341 C2343 1.327 . S
C2341 C2347 1.429 . S
C2342 C2334 1.574 . S
C2342 H2337 0.949 . S
C2342 C2348 1.368 . S
C2343 C2327 1.349 . S
C2343 H2335 0.950 . S
C2343 C2341 1.327 . S
C2344 C2332 1.349 . S
C2344 H2338 0.950 . S
C2344 C2345 1.327 . S
C2345 H2339 0.950 . S
C2345 C2344 1.327 . S
C2345 C2349 1.429 . S
C2346 C2329 1.574 . S
C2346 H2340 0.949 . S
C2346 C2350 1.368 . S
C2347 C2328 1.429 . S
C2347 C2341 1.429 . S
C2347 C2348 1.523 . S
C2348 C2329 1.368 . S
C2348 C2342 1.368 . S
C2348 C2347 1.523 . S
C2349 C2333 1.429 . S
C2349 C2345 1.429 . S
C2349 C2350 1.523 . S
C2350 C2334 1.368 . S
C2350 C2346 1.368 . S
C2350 C2349 1.523 . S
H2351 C2326 0.950 . S
H2352 C2328 0.950 . S
H2353 C2329 0.949 . S
H2354 C2331 0.950 . S
H2355 C2333 0.950 . S
C2356 C2357 1.349 . S
C2356 C2358 1.327 . S
C2356 H2381 0.950 . S
C2357 C2356 1.349 . S
C2357 C2373 1.349 . S
C2358 C2356 1.327 . S
C2358 C2377 1.429 . S
C2358 H2382 0.950 . S
C2359 C2376 1.574 . S
C2359 C2378 1.368 . S
C2359 H2383 0.949 . S
H2360 C2364 0.949 . S
C2361 C2362 1.349 . S
C2361 C2363 1.327 . S
C2361 H2384 0.950 . S
C2362 C2361 1.349 . S
C2362 C2374 1.349 . S
C2363 C2361 1.327 . S
C2363 C2379 1.429 . S
C2363 H2385 0.950 . S
C2364 H2360 0.949 . S
C2364 C2372 1.574 . S
C2364 C2380 1.368 . S
H2365 C2373 0.950 . S
H2366 C2371 0.950 . S
H2367 C2372 0.949 . S
H2368 C2374 0.950 . S
H2369 C2375 0.950 . S
H2370 C2376 0.949 . S
C2371 H2366 0.950 . S
C2371 C2373 1.327 . S
C2371 C2377 1.429 . S
C2372 C2364 1.574 . S
C2372 H2367 0.949 . S
C2372 C2378 1.368 . S
C2373 C2357 1.349 . S
C2373 H2365 0.950 . S
C2373 C2371 1.327 . S
C2374 C2362 1.349 . S
C2374 H2368 0.950 . S
C2374 C2375 1.327 . S
C2375 H2369 0.950 . S
C2375 C2374 1.327 . S
C2375 C2379 1.429 . S
C2376 C2359 1.574 . S
C2376 H2370 0.949 . S
C2376 C2380 1.368 . S
C2377 C2358 1.429 . S
C2377 C2371 1.429 . S
C2377 C2378 1.523 . S
C2378 C2359 1.368 . S
C2378 C2372 1.368 . S
C2378 C2377 1.523 . S
C2379 C2363 1.429 . S
C2379 C2375 1.429 . S
C2379 C2380 1.523 . S
C2380 C2364 1.368 . S
C2380 C2376 1.368 . S
C2380 C2379 1.523 . S
H2381 C2356 0.950 . S
H2382 C2358 0.950 . S
H2383 C2359 0.949 . S
H2384 C2361 0.950 . S
H2385 C2363 0.950 . S
C2386 C2387 1.349 . S
C2386 C2388 1.327 . S
C2386 H2411 0.950 . S
C2387 C2386 1.349 . S
C2387 C2403 1.349 . S
C2388 C2386 1.327 . S
C2388 C2407 1.429 . S
C2388 H2412 0.950 . S
C2389 C2406 1.574 . S
C2389 C2408 1.368 . S
C2389 H2413 0.949 . S
H2390 C2394 0.949 . S
C2391 C2392 1.349 . S
C2391 C2393 1.327 . S
C2391 H2414 0.950 . S
C2392 C2391 1.349 . S
C2392 C2404 1.349 . S
C2393 C2391 1.327 . S
C2393 C2409 1.429 . S
C2393 H2415 0.950 . S
C2394 H2390 0.949 . S
C2394 C2402 1.574 . S
C2394 C2410 1.368 . S
H2395 C2403 0.950 . S
H2396 C2401 0.950 . S
H2397 C2402 0.949 . S
H2398 C2404 0.950 . S
H2399 C2405 0.950 . S
H2400 C2406 0.949 . S
C2401 H2396 0.950 . S
C2401 C2403 1.327 . S
C2401 C2407 1.429 . S
C2402 C2394 1.574 . S
C2402 H2397 0.949 . S
C2402 C2408 1.368 . S
C2403 C2387 1.349 . S
C2403 H2395 0.950 . S
C2403 C2401 1.327 . S
C2404 C2392 1.349 . S
C2404 H2398 0.950 . S
C2404 C2405 1.327 . S
C2405 H2399 0.950 . S
C2405 C2404 1.327 . S
C2405 C2409 1.429 . S
C2406 C2389 1.574 . S
C2406 H2400 0.949 . S
C2406 C2410 1.368 . S
C2407 C2388 1.429 . S
C2407 C2401 1.429 . S
C2407 C2408 1.523 . S
C2408 C2389 1.368 . S
C2408 C2402 1.368 . S
C2408 C2407 1.523 . S
C2409 C2393 1.429 . S
C2409 C2405 1.429 . S
C2409 C2410 1.523 . S
C2410 C2394 1.368 . S
C2410 C2406 1.368 . S
C2410 C2409 1.523 . S
H2411 C2386 0.950 . S
H2412 C2388 0.950 . S
H2413 C2389 0.949 . S
H2414 C2391 0.950 . S
H2415 C2393 0.950 . S
C2416 C2417 1.349 . S
C2416 C2418 1.327 . S
C2416 H2441 0.950 . S
C2417 C2416 1.349 . S
C2417 C2433 1.349 . S
C2418 C2416 1.327 . S
C2418 C2437 1.429 . S
C2418 H2442 0.950 . S
C2419 C2436 1.574 . S
C2419 C2438 1.368 . S
C2419 H2443 0.949 . S
H2420 C2424 0.949 . S
C2421 C2422 1.349 . S
C2421 C2423 1.327 . S
C2421 H2444 0.950 . S
C2422 C2421 1.349 . S
C2422 C2434 1.349 . S
C2423 C2421 1.327 . S
C2423 C2439 1.429 . S
C2423 H2445 0.950 . S
C2424 H2420 0.949 . S
C2424 C2432 1.574 . S
C2424 C2440 1.368 . S
H2425 C2433 0.950 . S
H2426 C2431 0.950 . S
H2427 C2432 0.949 . S
H2428 C2434 0.950 . S
H2429 C2435 0.950 . S
H2430 C2436 0.949 . S
C2431 H2426 0.950 . S
C2431 C2433 1.327 . S
C2431 C2437 1.429 . S
C2432 C2424 1.574 . S
C2432 H2427 0.949 . S
C2432 C2438 1.368 . S
C2433 C2417 1.349 . S
C2433 H2425 0.950 . S
C2433 C2431 1.327 . S
C2434 C2422 1.349 . S
C2434 H2428 0.950 . S
C2434 C2435 1.327 . S
C2435 H2429 0.950 . S
C2435 C2434 1.327 . S
C2435 C2439 1.429 . S
C2436 C2419 1.574 . S
C2436 H2430 0.949 . S
C2436 C2440 1.368 . S
C2437 C2418 1.429 . S
C2437 C2431 1.429 . S
C2437 C2438 1.523 . S
C2438 C2419 1.368 . S
C2438 C2432 1.368 . S
C2438 C2437 1.523 . S
C2439 C2423 1.429 . S
C2439 C2435 1.429 . S
C2439 C2440 1.523 . S
C2440 C2424 1.368 . S
C2440 C2436 1.368 . S
C2440 C2439 1.523 . S
H2441 C2416 0.950 . S
H2442 C2418 0.950 . S
H2443 C2419 0.949 . S
H2444 C2421 0.950 . S
H2445 C2423 0.950 . S
C2446 C2447 1.349 . S
C2446 C2448 1.327 . S
C2446 H2471 0.950 . S
C2447 C2446 1.349 . S
C2447 C2463 1.349 . S
C2448 C2446 1.327 . S
C2448 C2467 1.429 . S
C2448 H2472 0.950 . S
C2449 C2466 1.574 . S
C2449 C2468 1.368 . S
C2449 H2473 0.949 . S
H2450 C2454 0.949 . S
C2451 C2452 1.349 . S
C2451 C2453 1.327 . S
C2451 H2474 0.950 . S
C2452 C2451 1.349 . S
C2452 C2464 1.349 . S
C2453 C2451 1.327 . S
C2453 C2469 1.429 . S
C2453 H2475 0.950 . S
C2454 H2450 0.949 . S
C2454 C2462 1.574 . S
C2454 C2470 1.368 . S
H2455 C2463 0.950 . S
H2456 C2461 0.950 . S
H2457 C2462 0.949 . S
H2458 C2464 0.950 . S
H2459 C2465 0.950 . S
H2460 C2466 0.949 . S
C2461 H2456 0.950 . S
C2461 C2463 1.327 . S
C2461 C2467 1.429 . S
C2462 C2454 1.574 . S
C2462 H2457 0.949 . S
C2462 C2468 1.368 . S
C2463 C2447 1.349 . S
C2463 H2455 0.950 . S
C2463 C2461 1.327 . S
C2464 C2452 1.349 . S
C2464 H2458 0.950 . S
C2464 C2465 1.327 . S
C2465 H2459 0.950 . S
C2465 C2464 1.327 . S
C2465 C2469 1.429 . S
C2466 C2449 1.574 . S
C2466 H2460 0.949 . S
C2466 C2470 1.368 . S
C2467 C2448 1.429 . S
C2467 C2461 1.429 . S
C2467 C2468 1.523 . S
C2468 C2449 1.368 . S
C2468 C2462 1.368 . S
C2468 C2467 1.523 . S
C2469 C2453 1.429 . S
C2469 C2465 1.429 . S
C2469 C2470 1.523 . S
C2470 C2454 1.368 . S
C2470 C2466 1.368 . S
C2470 C2469 1.523 . S
H2471 C2446 0.950 . S
H2472 C2448 0.950 . S
H2473 C2449 0.949 . S
H2474 C2451 0.950 . S
H2475 C2453 0.950 . S
C2476 C2477 1.349 . S
C2476 C2478 1.327 . S
C2476 H2501 0.950 . S
C2477 C2476 1.349 . S
C2477 C2493 1.349 . S
C2478 C2476 1.327 . S
C2478 C2497 1.429 . S
C2478 H2502 0.950 . S
C2479 C2496 1.574 . S
C2479 C2498 1.368 . S
C2479 H2503 0.949 . S
H2480 C2484 0.949 1_554 S
C2481 C2482 1.349 . S
C2481 C2483 1.327 1_554 S
C2481 H2504 0.950 . S
C2482 C2481 1.349 . S
C2482 C2494 1.349 . S
C2483 C2481 1.327 1_556 S
C2483 C2499 1.435 . S
C2483 H2505 0.950 . S
C2484 H2480 0.949 1_556 S
C2484 C2492 1.574 . S
C2484 C2500 1.368 . S
H2485 C2493 0.950 . S
H2486 C2491 0.950 . S
H2487 C2492 0.949 . S
H2488 C2494 0.950 . S
H2489 C2495 0.950 . S
H2490 C2496 0.949 . S
C2491 H2486 0.950 . S
C2491 C2493 1.327 . S
C2491 C2497 1.429 . S
C2492 C2484 1.574 . S
C2492 H2487 0.949 . S
C2492 C2498 1.368 . S
C2493 C2477 1.349 . S
C2493 H2485 0.950 . S
C2493 C2491 1.327 . S
C2494 C2482 1.349 . S
C2494 H2488 0.950 . S
C2494 C2495 1.327 . S
C2495 H2489 0.950 . S
C2495 C2494 1.327 . S
C2495 C2499 1.409 1_554 S
C2496 C2479 1.574 . S
C2496 H2490 0.949 . S
C2496 C2500 1.368 . S
C2497 C2478 1.429 . S
C2497 C2491 1.429 . S
C2497 C2498 1.523 . S
C2498 C2479 1.368 . S
C2498 C2492 1.368 . S
C2498 C2497 1.523 . S
C2499 C2483 1.435 . S
C2499 C2495 1.409 1_556 S
C2499 C2500 1.535 . S
C2500 C2484 1.368 . S
C2500 C2496 1.368 . S
C2500 C2499 1.535 . S
H2501 C2476 0.950 . S
H2502 C2478 0.950 . S
H2503 C2479 0.949 . S
H2504 C2481 0.950 . S
H2505 C2483 0.950 . S
C2506 C2507 1.349 . S
C2506 C2508 1.327 1_455 S
C2506 H2531 0.950 . S
C2507 C2506 1.349 . S
C2507 C2523 1.349 . S
C2508 C2506 1.327 1_655 S
C2508 C2527 1.429 . S
C2508 H2532 0.950 . S
C2509 C2526 1.574 . S
C2509 C2528 1.368 . S
C2509 H2533 0.949 . S
H2510 C2514 0.949 . S
C2511 C2512 1.349 . S
C2511 C2513 1.327 . S
C2511 H2534 0.950 . S
C2512 C2511 1.349 . S
C2512 C2524 1.349 . S
C2513 C2511 1.327 . S
C2513 C2529 1.429 . S
C2513 H2535 0.950 . S
C2514 H2510 0.949 . S
C2514 C2522 1.574 . S
C2514 C2530 1.368 . S
H2515 C2523 0.950 . S
H2516 C2521 0.950 . S
H2517 C2522 0.949 . S
H2518 C2524 0.950 . S
H2519 C2525 0.950 . S
H2520 C2526 0.949 . S
C2521 H2516 0.950 . S
C2521 C2523 1.327 1_655 S
C2521 C2527 1.429 . S
C2522 C2514 1.574 . S
C2522 H2517 0.949 . S
C2522 C2528 1.368 . S
C2523 C2507 1.349 . S
C2523 H2515 0.950 . S
C2523 C2521 1.327 1_455 S
C2524 C2512 1.349 . S
C2524 H2518 0.950 . S
C2524 C2525 1.327 . S
C2525 H2519 0.950 . S
C2525 C2524 1.327 . S
C2525 C2529 1.429 . S
C2526 C2509 1.574 . S
C2526 H2520 0.949 . S
C2526 C2530 1.368 . S
C2527 C2508 1.429 . S
C2527 C2521 1.429 . S
C2527 C2528 1.523 . S
C2528 C2509 1.368 . S
C2528 C2522 1.368 . S
C2528 C2527 1.523 . S
C2529 C2513 1.429 . S
C2529 C2525 1.429 . S
C2529 C2530 1.523 . S
C2530 C2514 1.368 . S
C2530 C2526 1.368 . S
C2530 C2529 1.523 . S
H2531 C2506 0.950 . S
H2532 C2508 0.950 . S
H2533 C2509 0.949 . S
H2534 C2511 0.950 . S
H2535 C2513 0.950 . S
C2536 C2537 1.349 . S
C2536 C2538 1.327 . S
C2536 H2561 0.950 . S
C2537 C2536 1.349 . S
C2537 C2553 1.349 . S
C2538 C2536 1.327 . S
C2538 C2557 1.429 . S
C2538 H2562 0.950 . S
C2539 C2556 1.574 . S
C2539 C2558 1.368 . S
C2539 H2563 0.949 . S
H2540 C2544 0.949 . S
C2541 C2542 1.349 . S
C2541 C2543 1.327 . S
C2541 H2564 0.950 . S
C2542 C2541 1.349 . S
C2542 C2554 1.349 . S
C2543 C2541 1.327 . S
C2543 C2559 1.429 . S
C2543 H2565 0.950 . S
C2544 H2540 0.949 . S
C2544 C2552 1.574 . S
C2544 C2560 1.368 . S
H2545 C2553 0.950 . S
H2546 C2551 0.950 . S
H2547 C2552 0.949 . S
H2548 C2554 0.950 . S
H2549 C2555 0.950 . S
H2550 C2556 0.949 . S
C2551 H2546 0.950 . S
C2551 C2553 1.327 . S
C2551 C2557 1.429 . S
C2552 C2544 1.574 . S
C2552 H2547 0.949 . S
C2552 C2558 1.368 . S
C2553 C2537 1.349 . S
C2553 H2545 0.950 . S
C2553 C2551 1.327 . S
C2554 C2542 1.349 . S
C2554 H2548 0.950 . S
C2554 C2555 1.327 . S
C2555 H2549 0.950 . S
C2555 C2554 1.327 . S
C2555 C2559 1.429 . S
C2556 C2539 1.574 . S
C2556 H2550 0.949 . S
C2556 C2560 1.368 . S
C2557 C2538 1.429 . S
C2557 C2551 1.429 . S
C2557 C2558 1.523 . S
C2558 C2539 1.368 . S
C2558 C2552 1.368 . S
C2558 C2557 1.523 . S
C2559 C2543 1.429 . S
C2559 C2555 1.429 . S
C2559 C2560 1.523 . S
C2560 C2544 1.368 . S
C2560 C2556 1.368 . S
C2560 C2559 1.523 . S
H2561 C2536 0.950 . S
H2562 C2538 0.950 . S
H2563 C2539 0.949 . S
H2564 C2541 0.950 . S
H2565 C2543 0.950 . S
C2566 C2567 1.349 . S
C2566 C2568 1.327 . S
C2566 H2591 0.950 . S
C2567 C2566 1.349 . S
C2567 C2583 1.349 . S
C2568 C2566 1.327 . S
C2568 C2587 1.429 . S
C2568 H2592 0.948 1_455 S
C2569 C2586 1.574 . S
C2569 C2588 1.368 . S
C2569 H2593 0.949 1_655 S
H2570 C2574 0.949 . S
C2571 C2572 1.349 . S
C2571 C2573 1.327 . S
C2571 H2594 0.950 . S
C2572 C2571 1.349 . S
C2572 C2584 1.349 . S
C2573 C2571 1.327 . S
C2573 C2589 1.429 . S
C2573 H2595 0.950 . S
C2574 H2570 0.949 . S
C2574 C2582 1.574 . S
C2574 C2590 1.368 . S
H2575 C2583 0.950 . S
H2576 C2581 0.950 . S
H2577 C2582 0.949 . S
H2578 C2584 0.950 . S
H2579 C2585 0.950 . S
H2580 C2586 0.949 . S
C2581 H2576 0.950 . S
C2581 C2583 1.327 . S
C2581 C2587 1.429 . S
C2582 C2574 1.574 . S
C2582 H2577 0.949 . S
C2582 C2588 1.368 . S
C2583 C2567 1.349 . S
C2583 H2575 0.950 . S
C2583 C2581 1.327 . S
C2584 C2572 1.349 . S
C2584 H2578 0.950 . S
C2584 C2585 1.327 . S
C2585 H2579 0.950 . S
C2585 C2584 1.327 . S
C2585 C2589 1.429 . S
C2586 C2569 1.574 . S
C2586 H2580 0.949 . S
C2586 C2590 1.368 . S
C2587 C2568 1.429 . S
C2587 C2581 1.429 . S
C2587 C2588 1.523 1_455 S
C2588 C2569 1.368 . S
C2588 C2582 1.368 . S
C2588 C2587 1.523 1_655 S
C2589 C2573 1.429 . S
C2589 C2585 1.429 . S
C2589 C2590 1.523 . S
C2590 C2574 1.368 . S
C2590 C2586 1.368 . S
C2590 C2589 1.523 . S
H2591 C2566 0.950 . S
H2592 C2568 0.948 1_655 S
H2593 C2569 0.949 1_455 S
H2594 C2571 0.950 . S
H2595 C2573 0.950 . S
C2596 C2597 1.349 . S
C2596 C2598 1.327 . S
C2596 H2621 0.950 . S
C2597 C2596 1.349 . S
C2597 C2613 1.349 1_655 S
C2598 C2596 1.327 . S
C2598 C2617 1.429 1_655 S
C2598 H2622 0.950 . S
C2599 C2616 1.574 . S
C2599 C2618 1.368 . S
C2599 H2623 0.949 . S
H2600 C2604 0.949 . S
C2601 C2602 1.349 . S
C2601 C2603 1.327 . S
C2601 H2624 0.950 . S
C2602 C2601 1.349 . S
C2602 C2614 1.349 . S
C2603 C2601 1.327 . S
C2603 C2619 1.429 . S
C2603 H2625 0.950 . S
C2604 H2600 0.949 . S
C2604 C2612 1.574 . S
C2604 C2620 1.368 . S
H2605 C2613 0.950 . S
H2606 C2611 0.950 . S
H2607 C2612 0.963 . S
H2608 C2614 0.950 . S
H2609 C2615 0.950 . S
H2610 C2616 0.949 . S
C2611 H2606 0.950 . S
C2611 C2613 1.327 . S
C2611 C2617 1.429 . S
C2612 C2604 1.574 . S
C2612 H2607 0.963 . S
C2612 C2618 1.368 . S
C2613 C2597 1.349 1_455 S
C2613 H2605 0.950 . S
C2613 C2611 1.327 . S
C2614 C2602 1.349 . S
C2614 H2608 0.950 . S
C2614 C2615 1.327 . S
C2615 H2609 0.950 . S
C2615 C2614 1.327 . S
C2615 C2619 1.429 . S
C2616 C2599 1.574 . S
C2616 H2610 0.949 . S
C2616 C2620 1.368 . S
C2617 C2598 1.429 1_455 S
C2617 C2611 1.429 . S
C2617 C2618 1.523 . S
C2618 C2599 1.368 . S
C2618 C2612 1.368 . S
C2618 C2617 1.523 . S
C2619 C2603 1.429 . S
C2619 C2615 1.429 . S
C2619 C2620 1.523 . S
C2620 C2604 1.368 . S
C2620 C2616 1.368 . S
C2620 C2619 1.523 . S
H2621 C2596 0.950 . S
H2622 C2598 0.950 . S
H2623 C2599 0.949 . S
H2624 C2601 0.950 . S
H2625 C2603 0.950 . S
C2626 C2627 1.349 . S
C2626 C2628 1.327 . S
C2626 H2651 0.950 . S
C2627 C2626 1.349 . S
C2627 C2643 1.349 . S
C2628 C2626 1.327 . S
C2628 C2647 1.429 . S
C2628 H2652 0.950 . S
C2629 C2646 1.574 . S
C2629 C2648 1.368 . S
C2629 H2653 0.949 . S
H2630 C2634 0.949 . S
C2631 C2632 1.349 . S
C2631 C2633 1.327 . S
C2631 H2654 0.950 . S
C2632 C2631 1.349 . S
C2632 C2644 1.349 . S
C2633 C2631 1.327 . S
C2633 C2649 1.429 . S
C2633 H2655 0.950 . S
C2634 H2630 0.949 . S
C2634 C2642 1.574 . S
C2634 C2650 1.368 . S
H2635 C2643 0.950 . S
H2636 C2641 0.950 . S
H2637 C2642 0.949 . S
H2638 C2644 0.950 . S
H2639 C2645 0.950 . S
H2640 C2646 0.949 . S
C2641 H2636 0.950 . S
C2641 C2643 1.327 . S
C2641 C2647 1.429 . S
C2642 C2634 1.574 . S
C2642 H2637 0.949 . S
C2642 C2648 1.368 . S
C2643 C2627 1.349 . S
C2643 H2635 0.950 . S
C2643 C2641 1.327 . S
C2644 C2632 1.349 . S
C2644 H2638 0.950 . S
C2644 C2645 1.327 . S
C2645 H2639 0.950 . S
C2645 C2644 1.327 . S
C2645 C2649 1.429 . S
C2646 C2629 1.574 . S
C2646 H2640 0.949 . S
C2646 C2650 1.368 . S
C2647 C2628 1.429 . S
C2647 C2641 1.429 . S
C2647 C2648 1.523 . S
C2648 C2629 1.368 . S
C2648 C2642 1.368 . S
C2648 C2647 1.523 . S
C2649 C2633 1.429 . S
C2649 C2645 1.429 . S
C2649 C2650 1.523 . S
C2650 C2634 1.368 . S
C2650 C2646 1.368 . S
C2650 C2649 1.523 . S
H2651 C2626 0.950 . S
H2652 C2628 0.950 . S
H2653 C2629 0.949 . S
H2654 C2631 0.950 . S
H2655 C2633 0.950 . S
C2656 C2657 1.349 . S
C2656 C2658 1.327 . S
C2656 H2681 0.950 . S
C2657 C2656 1.349 . S
C2657 C2673 1.349 . S
C2658 C2656 1.327 . S
C2658 C2677 1.429 . S
C2658 H2682 0.950 . S
C2659 C2676 1.574 . S
C2659 C2678 1.368 . S
C2659 H2683 0.949 . S
H2660 C2664 0.949 . S
C2661 C2662 1.349 . S
C2661 C2663 1.327 . S
C2661 H2684 0.950 . S
C2662 C2661 1.349 . S
C2662 C2674 1.349 . S
C2663 C2661 1.327 . S
C2663 C2679 1.429 . S
C2663 H2685 0.950 . S
C2664 H2660 0.949 . S
C2664 C2672 1.574 . S
C2664 C2680 1.368 . S
H2665 C2673 0.950 . S
H2666 C2671 0.950 . S
H2667 C2672 0.949 . S
H2668 C2674 0.950 . S
H2669 C2675 0.950 . S
H2670 C2676 0.949 . S
C2671 H2666 0.950 . S
C2671 C2673 1.327 . S
C2671 C2677 1.429 . S
C2672 C2664 1.574 . S
C2672 H2667 0.949 . S
C2672 C2678 1.368 . S
C2673 C2657 1.349 . S
C2673 H2665 0.950 . S
C2673 C2671 1.327 . S
C2674 C2662 1.349 . S
C2674 H2668 0.950 . S
C2674 C2675 1.327 . S
C2675 H2669 0.950 . S
C2675 C2674 1.327 . S
C2675 C2679 1.429 . S
C2676 C2659 1.574 . S
C2676 H2670 0.949 . S
C2676 C2680 1.368 . S
C2677 C2658 1.429 . S
C2677 C2671 1.429 . S
C2677 C2678 1.523 . S
C2678 C2659 1.368 . S
C2678 C2672 1.368 . S
C2678 C2677 1.523 . S
C2679 C2663 1.429 . S
C2679 C2675 1.429 . S
C2679 C2680 1.523 . S
C2680 C2664 1.368 . S
C2680 C2676 1.368 . S
C2680 C2679 1.523 . S
H2681 C2656 0.950 . S
H2682 C2658 0.950 . S
H2683 C2659 0.949 . S
H2684 C2661 0.950 . S
H2685 C2663 0.950 . S
C2686 C2687 1.349 . S
C2686 C2688 1.327 . S
C2686 H2711 0.950 . S
C2687 C2686 1.349 . S
C2687 C2703 1.349 . S
C2688 C2686 1.327 . S
C2688 C2707 1.429 . S
C2688 H2712 0.950 . S
C2689 C2706 1.574 . S
C2689 C2708 1.368 . S
C2689 H2713 0.949 . S
H2690 C2694 0.949 . S
C2691 C2692 1.349 . S
C2691 C2693 1.327 . S
C2691 H2714 0.950 . S
C2692 C2691 1.349 . S
C2692 C2704 1.349 . S
C2693 C2691 1.327 . S
C2693 C2709 1.429 . S
C2693 H2715 0.950 . S
C2694 H2690 0.949 . S
C2694 C2702 1.574 . S
C2694 C2710 1.368 . S
H2695 C2703 0.950 . S
H2696 C2701 0.950 . S
H2697 C2702 0.949 . S
H2698 C2704 0.950 . S
H2699 C2705 0.950 . S
H2700 C2706 0.949 . S
C2701 H2696 0.950 . S
C2701 C2703 1.327 . S
C2701 C2707 1.429 . S
C2702 C2694 1.574 . S
C2702 H2697 0.949 . S
C2702 C2708 1.368 . S
C2703 C2687 1.349 . S
C2703 H2695 0.950 . S
C2703 C2701 1.327 . S
C2704 C2692 1.349 . S
C2704 H2698 0.950 . S
C2704 C2705 1.327 . S
C2705 H2699 0.950 . S
C2705 C2704 1.327 . S
C2705 C2709 1.429 . S
C2706 C2689 1.574 . S
C2706 H2700 0.949 . S
C2706 C2710 1.368 . S
C2707 C2688 1.429 . S
C2707 C2701 1.429 . S
C2707 C2708 1.523 . S
C2708 C2689 1.368 . S
C2708 C2702 1.368 . S
C2708 C2707 1.523 . S
C2709 C2693 1.429 . S
C2709 C2705 1.429 . S
C2709 C2710 1.523 . S
C2710 C2694 1.368 . S
C2710 C2706 1.368 . S
C2710 C2709 1.523 . S
H2711 C2686 0.950 . S
H2712 C2688 0.950 . S
H2713 C2689 0.949 . S
H2714 C2691 0.950 . S
H2715 C2693 0.950 . S
C2716 C2717 1.349 . S
C2716 C2718 1.327 . S
C2716 H2741 0.950 . S
C2717 C2716 1.349 . S
C2717 C2733 1.349 . S
C2718 C2716 1.327 . S
C2718 C2737 1.429 . S
C2718 H2742 0.950 . S
C2719 C2736 1.574 . S
C2719 C2738 1.368 . S
C2719 H2743 0.949 . S
H2720 C2724 0.949 . S
C2721 C2722 1.349 . S
C2721 C2723 1.327 . S
C2721 H2744 0.950 . S
C2722 C2721 1.349 . S
C2722 C2734 1.349 . S
C2723 C2721 1.327 . S
C2723 C2739 1.429 . S
C2723 H2745 0.950 . S
C2724 H2720 0.949 . S
C2724 C2732 1.574 . S
C2724 C2740 1.368 . S
H2725 C2733 0.950 . S
H2726 C2731 0.950 . S
H2727 C2732 0.949 . S
H2728 C2734 0.950 . S
H2729 C2735 0.950 . S
H2730 C2736 0.949 . S
C2731 H2726 0.950 . S
C2731 C2733 1.327 . S
C2731 C2737 1.429 . S
C2732 C2724 1.574 . S
C2732 H2727 0.949 . S
C2732 C2738 1.368 . S
C2733 C2717 1.349 . S
C2733 H2725 0.950 . S
C2733 C2731 1.327 . S
C2734 C2722 1.349 . S
C2734 H2728 0.950 . S
C2734 C2735 1.327 . S
C2735 H2729 0.950 . S
C2735 C2734 1.327 . S
C2735 C2739 1.429 . S
C2736 C2719 1.574 . S
C2736 H2730 0.949 . S
C2736 C2740 1.368 . S
C2737 C2718 1.429 . S
C2737 C2731 1.429 . S
C2737 C2738 1.523 . S
C2738 C2719 1.368 . S
C2738 C2732 1.368 . S
C2738 C2737 1.523 . S
C2739 C2723 1.429 . S
C2739 C2735 1.429 . S
C2739 C2740 1.523 . S
C2740 C2724 1.368 . S
C2740 C2736 1.368 . S
C2740 C2739 1.523 . S
H2741 C2716 0.950 . S
H2742 C2718 0.950 . S
H2743 C2719 0.949 . S
H2744 C2721 0.950 . S
H2745 C2723 0.950 . S
C2746 C2747 1.349 . S
C2746 C2748 1.327 . S
C2746 H2771 0.950 . S
C2747 C2746 1.349 . S
C2747 C2763 1.349 . S
C2748 C2746 1.327 . S
C2748 C2767 1.429 . S
C2748 H2772 0.950 . S
C2749 C2766 1.574 . S
C2749 C2768 1.368 . S
C2749 H2773 0.949 . S
H2750 C2754 0.949 . S
C2751 C2752 1.349 . S
C2751 C2753 1.327 . S
C2751 H2774 0.950 . S
C2752 C2751 1.349 . S
C2752 C2764 1.349 . S
C2753 C2751 1.327 . S
C2753 C2769 1.429 . S
C2753 H2775 0.950 . S
C2754 H2750 0.949 . S
C2754 C2762 1.574 . S
C2754 C2770 1.368 . S
H2755 C2763 0.950 . S
H2756 C2761 0.950 . S
H2757 C2762 0.949 . S
H2758 C2764 0.950 . S
H2759 C2765 0.950 . S
H2760 C2766 0.949 . S
C2761 H2756 0.950 . S
C2761 C2763 1.327 . S
C2761 C2767 1.429 . S
C2762 C2754 1.574 . S
C2762 H2757 0.949 . S
C2762 C2768 1.368 . S
C2763 C2747 1.349 . S
C2763 H2755 0.950 . S
C2763 C2761 1.327 . S
C2764 C2752 1.349 . S
C2764 H2758 0.950 . S
C2764 C2765 1.327 . S
C2765 H2759 0.950 . S
C2765 C2764 1.327 . S
C2765 C2769 1.429 . S
C2766 C2749 1.574 . S
C2766 H2760 0.949 . S
C2766 C2770 1.368 . S
C2767 C2748 1.429 . S
C2767 C2761 1.429 . S
C2767 C2768 1.523 . S
C2768 C2749 1.368 . S
C2768 C2762 1.368 . S
C2768 C2767 1.523 . S
C2769 C2753 1.429 . S
C2769 C2765 1.429 . S
C2769 C2770 1.523 . S
C2770 C2754 1.368 . S
C2770 C2766 1.368 . S
C2770 C2769 1.523 . S
H2771 C2746 0.950 . S
H2772 C2748 0.950 . S
H2773 C2749 0.949 . S
H2774 C2751 0.950 . S
H2775 C2753 0.950 . S
C2776 C2777 1.349 . S
C2776 C2778 1.327 . S
C2776 H2801 0.950 . S
C2777 C2776 1.349 . S
C2777 C2793 1.349 . S
C2778 C2776 1.327 . S
C2778 C2797 1.429 . S
C2778 H2802 0.950 . S
C2779 C2796 1.574 . S
C2779 C2798 1.368 . S
C2779 H2803 0.949 . S
H2780 C2784 0.949 . S
C2781 C2782 1.349 . S
C2781 C2783 1.327 . S
C2781 H2804 0.950 . S
C2782 C2781 1.349 . S
C2782 C2794 1.349 . S
C2783 C2781 1.327 . S
C2783 C2799 1.429 . S
C2783 H2805 0.950 . S
C2784 H2780 0.949 . S
C2784 C2792 1.574 . S
C2784 C2800 1.368 . S
H2785 C2793 0.950 . S
H2786 C2791 0.950 . S
H2787 C2792 0.949 . S
H2788 C2794 0.950 . S
H2789 C2795 0.950 . S
H2790 C2796 0.949 . S
C2791 H2786 0.950 . S
C2791 C2793 1.327 . S
C2791 C2797 1.429 . S
C2792 C2784 1.574 . S
C2792 H2787 0.949 . S
C2792 C2798 1.368 . S
C2793 C2777 1.349 . S
C2793 H2785 0.950 . S
C2793 C2791 1.327 . S
C2794 C2782 1.349 . S
C2794 H2788 0.950 . S
C2794 C2795 1.327 . S
C2795 H2789 0.950 . S
C2795 C2794 1.327 . S
C2795 C2799 1.429 . S
C2796 C2779 1.574 . S
C2796 H2790 0.949 . S
C2796 C2800 1.368 . S
C2797 C2778 1.429 . S
C2797 C2791 1.429 . S
C2797 C2798 1.523 . S
C2798 C2779 1.368 . S
C2798 C2792 1.368 . S
C2798 C2797 1.523 . S
C2799 C2783 1.429 . S
C2799 C2795 1.429 . S
C2799 C2800 1.523 . S
C2800 C2784 1.368 . S
C2800 C2796 1.368 . S
C2800 C2799 1.523 . S
H2801 C2776 0.950 . S
H2802 C2778 0.950 . S
H2803 C2779 0.949 . S
H2804 C2781 0.950 . S
H2805 C2783 0.950 . S
C2806 C2807 1.349 . S
C2806 C2808 1.327 . S
C2806 H2831 0.950 . S
C2807 C2806 1.349 . S
C2807 C2823 1.349 . S
C2808 C2806 1.327 . S
C2808 C2827 1.429 . S
C2808 H2832 0.950 . S
C2809 C2826 1.574 . S
C2809 C2828 1.368 . S
C2809 H2833 0.949 . S
H2810 C2814 0.949 . S
C2811 C2812 1.349 . S
C2811 C2813 1.327 . S
C2811 H2834 0.950 . S
C2812 C2811 1.349 . S
C2812 C2824 1.349 . S
C2813 C2811 1.327 . S
C2813 C2829 1.429 . S
C2813 H2835 0.950 . S
C2814 H2810 0.949 . S
C2814 C2822 1.574 . S
C2814 C2830 1.368 . S
H2815 C2823 0.950 . S
H2816 C2821 0.950 . S
H2817 C2822 0.949 . S
H2818 C2824 0.950 . S
H2819 C2825 0.950 . S
H2820 C2826 0.949 . S
C2821 H2816 0.950 . S
C2821 C2823 1.327 . S
C2821 C2827 1.429 . S
C2822 C2814 1.574 . S
C2822 H2817 0.949 . S
C2822 C2828 1.368 . S
C2823 C2807 1.349 . S
C2823 H2815 0.950 . S
C2823 C2821 1.327 . S
C2824 C2812 1.349 . S
C2824 H2818 0.950 . S
C2824 C2825 1.327 . S
C2825 H2819 0.950 . S
C2825 C2824 1.327 . S
C2825 C2829 1.429 . S
C2826 C2809 1.574 . S
C2826 H2820 0.949 . S
C2826 C2830 1.368 . S
C2827 C2808 1.429 . S
C2827 C2821 1.429 . S
C2827 C2828 1.523 . S
C2828 C2809 1.368 . S
C2828 C2822 1.368 . S
C2828 C2827 1.523 . S
C2829 C2813 1.429 . S
C2829 C2825 1.429 . S
C2829 C2830 1.523 . S
C2830 C2814 1.368 . S
C2830 C2826 1.368 . S
C2830 C2829 1.523 . S
H2831 C2806 0.950 . S
H2832 C2808 0.950 . S
H2833 C2809 0.949 . S
H2834 C2811 0.950 . S
H2835 C2813 0.950 . S
C2836 C2837 1.349 . S
C2836 C2838 1.327 . S
C2836 H2861 0.950 . S
C2837 C2836 1.349 . S
C2837 C2853 1.349 . S
C2838 C2836 1.327 . S
C2838 C2857 1.429 . S
C2838 H2862 0.950 . S
C2839 C2856 1.574 . S
C2839 C2858 1.368 . S
C2839 H2863 0.949 . S
H2840 C2844 0.949 . S
C2841 C2842 1.349 . S
C2841 C2843 1.327 . S
C2841 H2864 0.950 . S
C2842 C2841 1.349 . S
C2842 C2854 1.349 . S
C2843 C2841 1.327 . S
C2843 C2859 1.429 . S
C2843 H2865 0.950 . S
C2844 H2840 0.949 . S
C2844 C2852 1.574 . S
C2844 C2860 1.368 . S
H2845 C2853 0.950 . S
H2846 C2851 0.950 . S
H2847 C2852 0.949 . S
H2848 C2854 0.950 . S
H2849 C2855 0.950 . S
H2850 C2856 0.949 . S
C2851 H2846 0.950 . S
C2851 C2853 1.327 . S
C2851 C2857 1.429 . S
C2852 C2844 1.574 . S
C2852 H2847 0.949 . S
C2852 C2858 1.368 . S
C2853 C2837 1.349 . S
C2853 H2845 0.950 . S
C2853 C2851 1.327 . S
C2854 C2842 1.349 . S
C2854 H2848 0.950 . S
C2854 C2855 1.327 . S
C2855 H2849 0.950 . S
C2855 C2854 1.327 . S
C2855 C2859 1.429 . S
C2856 C2839 1.574 . S
C2856 H2850 0.949 . S
C2856 C2860 1.368 . S
C2857 C2838 1.429 . S
C2857 C2851 1.429 . S
C2857 C2858 1.523 . S
C2858 C2839 1.368 . S
C2858 C2852 1.368 . S
C2858 C2857 1.523 . S
C2859 C2843 1.429 . S
C2859 C2855 1.429 . S
C2859 C2860 1.523 . S
C2860 C2844 1.368 . S
C2860 C2856 1.368 . S
C2860 C2859 1.523 . S
H2861 C2836 0.950 . S
H2862 C2838 0.950 . S
H2863 C2839 0.949 . S
H2864 C2841 0.950 . S
H2865 C2843 0.950 . S
C2866 C2867 1.349 . S
C2866 C2868 1.327 . S
C2866 H2891 0.950 . S
C2867 C2866 1.349 . S
C2867 C2883 1.349 . S
C2868 C2866 1.327 . S
C2868 C2887 1.429 . S
C2868 H2892 0.950 . S
C2869 C2886 1.574 . S
C2869 C2888 1.368 . S
C2869 H2893 0.949 . S
H2870 C2874 0.949 . S
C2871 C2872 1.349 . S
C2871 C2873 1.327 . S
C2871 H2894 0.950 . S
C2872 C2871 1.349 . S
C2872 C2884 1.349 . S
C2873 C2871 1.327 . S
C2873 C2889 1.429 . S
C2873 H2895 0.950 . S
C2874 H2870 0.949 . S
C2874 C2882 1.574 . S
C2874 C2890 1.368 . S
H2875 C2883 0.950 . S
H2876 C2881 0.950 . S
H2877 C2882 0.949 . S
H2878 C2884 0.950 . S
H2879 C2885 0.950 . S
H2880 C2886 0.949 . S
C2881 H2876 0.950 . S
C2881 C2883 1.327 . S
C2881 C2887 1.429 . S
C2882 C2874 1.574 . S
C2882 H2877 0.949 . S
C2882 C2888 1.368 . S
C2883 C2867 1.349 . S
C2883 H2875 0.950 . S
C2883 C2881 1.327 . S
C2884 C2872 1.349 . S
C2884 H2878 0.950 . S
C2884 C2885 1.327 . S
C2885 H2879 0.950 . S
C2885 C2884 1.327 . S
C2885 C2889 1.429 . S
C2886 C2869 1.574 . S
C2886 H2880 0.949 . S
C2886 C2890 1.368 . S
C2887 C2868 1.429 . S
C2887 C2881 1.429 . S
C2887 C2888 1.523 . S
C2888 C2869 1.368 . S
C2888 C2882 1.368 . S
C2888 C2887 1.523 . S
C2889 C2873 1.429 . S
C2889 C2885 1.429 . S
C2889 C2890 1.523 . S
C2890 C2874 1.368 . S
C2890 C2886 1.368 . S
C2890 C2889 1.523 . S
H2891 C2866 0.950 . S
H2892 C2868 0.950 . S
H2893 C2869 0.949 . S
H2894 C2871 0.950 . S
H2895 C2873 0.950 . S
C2896 C2897 1.349 . S
C2896 C2898 1.327 . S
C2896 H2921 0.950 . S
C2897 C2896 1.349 . S
C2897 C2913 1.349 . S
C2898 C2896 1.327 . S
C2898 C2917 1.429 . S
C2898 H2922 0.950 . S
C2899 C2916 1.574 . S
C2899 C2918 1.368 . S
C2899 H2923 0.949 . S
H2900 C2904 0.949 . S
C2901 C2902 1.349 . S
C2901 C2903 1.327 . S
C2901 H2924 0.950 . S
C2902 C2901 1.349 . S
C2902 C2914 1.349 . S
C2903 C2901 1.327 . S
C2903 C2919 1.429 . S
C2903 H2925 0.950 . S
C2904 H2900 0.949 . S
C2904 C2912 1.574 . S
C2904 C2920 1.368 . S
H2905 C2913 0.950 . S
H2906 C2911 0.950 . S
H2907 C2912 0.949 . S
H2908 C2914 0.950 . S
H2909 C2915 0.950 . S
H2910 C2916 0.949 . S
C2911 H2906 0.950 . S
C2911 C2913 1.327 . S
C2911 C2917 1.429 . S
C2912 C2904 1.574 . S
C2912 H2907 0.949 . S
C2912 C2918 1.368 . S
C2913 C2897 1.349 . S
C2913 H2905 0.950 . S
C2913 C2911 1.327 . S
C2914 C2902 1.349 . S
C2914 H2908 0.950 . S
C2914 C2915 1.327 . S
C2915 H2909 0.950 . S
C2915 C2914 1.327 . S
C2915 C2919 1.429 . S
C2916 C2899 1.574 . S
C2916 H2910 0.949 . S
C2916 C2920 1.368 . S
C2917 C2898 1.429 . S
C2917 C2911 1.429 . S
C2917 C2918 1.523 . S
C2918 C2899 1.368 . S
C2918 C2912 1.368 . S
C2918 C2917 1.523 . S
C2919 C2903 1.429 . S
C2919 C2915 1.429 . S
C2919 C2920 1.523 . S
C2920 C2904 1.368 . S
C2920 C2916 1.368 . S
C2920 C2919 1.523 . S
H2921 C2896 0.950 . S
H2922 C2898 0.950 . S
H2923 C2899 0.949 . S
H2924 C2901 0.950 . S
H2925 C2903 0.950 . S
C2926 C2927 1.349 . S
C2926 C2928 1.327 . S
C2926 H2951 0.950 . S
C2927 C2926 1.349 . S
C2927 C2943 1.349 . S
C2928 C2926 1.327 . S
C2928 C2947 1.429 . S
C2928 H2952 0.950 . S
C2929 C2946 1.574 . S
C2929 C2948 1.368 . S
C2929 H2953 0.949 . S
H2930 C2934 0.949 . S
C2931 C2932 1.349 . S
C2931 C2933 1.327 . S
C2931 H2954 0.950 . S
C2932 C2931 1.349 . S
C2932 C2944 1.349 . S
C2933 C2931 1.327 . S
C2933 C2949 1.429 . S
C2933 H2955 0.950 . S
C2934 H2930 0.949 . S
C2934 C2942 1.574 . S
C2934 C2950 1.368 . S
H2935 C2943 0.950 . S
H2936 C2941 0.950 . S
H2937 C2942 0.949 . S
H2938 C2944 0.950 . S
H2939 C2945 0.950 . S
H2940 C2946 0.949 . S
C2941 H2936 0.950 . S
C2941 C2943 1.327 . S
C2941 C2947 1.429 . S
C2942 C2934 1.574 . S
C2942 H2937 0.949 . S
C2942 C2948 1.368 . S
C2943 C2927 1.349 . S
C2943 H2935 0.950 . S
C2943 C2941 1.327 . S
C2944 C2932 1.349 . S
C2944 H2938 0.950 . S
C2944 C2945 1.327 . S
C2945 H2939 0.950 . S
C2945 C2944 1.327 . S
C2945 C2949 1.429 . S
C2946 C2929 1.574 . S
C2946 H2940 0.949 . S
C2946 C2950 1.368 . S
C2947 C2928 1.429 . S
C2947 C2941 1.429 . S
C2947 C2948 1.523 . S
C2948 C2929 1.368 . S
C2948 C2942 1.368 . S
C2948 C2947 1.523 . S
C2949 C2933 1.429 . S
C2949 C2945 1.429 . S
C2949 C2950 1.523 . S
C2950 C2934 1.368 . S
C2950 C2946 1.368 . S
C2950 C2949 1.523 . S
H2951 C2926 0.950 . S
H2952 C2928 0.950 . S
H2953 C2929 0.949 . S
H2954 C2931 0.950 . S
H2955 C2933 0.950 . S
C2956 C2957 1.349 . S
C2956 C2958 1.327 . S
C2956 H2981 0.950 . S
C2957 C2956 1.349 . S
C2957 C2973 1.349 . S
C2958 C2956 1.327 . S
C2958 C2977 1.429 . S
C2958 H2982 0.950 . S
C2959 C2976 1.574 . S
C2959 C2978 1.368 . S
C2959 H2983 0.949 . S
H2960 C2964 0.949 . S
C2961 C2962 1.349 . S
C2961 C2963 1.327 . S
C2961 H2984 0.950 . S
C2962 C2961 1.349 . S
C2962 C2974 1.349 . S
C2963 C2961 1.327 . S
C2963 C2979 1.429 . S
C2963 H2985 0.950 . S
C2964 H2960 0.949 . S
C2964 C2972 1.574 . S
C2964 C2980 1.368 . S
H2965 C2973 0.950 . S
H2966 C2971 0.950 . S
H2967 C2972 0.949 . S
H2968 C2974 0.950 . S
H2969 C2975 0.950 . S
H2970 C2976 0.949 . S
C2971 H2966 0.950 . S
C2971 C2973 1.327 . S
C2971 C2977 1.429 . S
C2972 C2964 1.574 . S
C2972 H2967 0.949 . S
C2972 C2978 1.368 . S
C2973 C2957 1.349 . S
C2973 H2965 0.950 . S
C2973 C2971 1.327 . S
C2974 C2962 1.349 . S
C2974 H2968 0.950 . S
C2974 C2975 1.327 . S
C2975 H2969 0.950 . S
C2975 C2974 1.327 . S
C2975 C2979 1.429 . S
C2976 C2959 1.574 . S
C2976 H2970 0.949 . S
C2976 C2980 1.368 . S
C2977 C2958 1.429 . S
C2977 C2971 1.429 . S
C2977 C2978 1.523 . S
C2978 C2959 1.368 . S
C2978 C2972 1.368 . S
C2978 C2977 1.523 . S
C2979 C2963 1.429 . S
C2979 C2975 1.429 . S
C2979 C2980 1.523 . S
C2980 C2964 1.368 . S
C2980 C2976 1.368 . S
C2980 C2979 1.523 . S
H2981 C2956 0.950 . S
H2982 C2958 0.950 . S
H2983 C2959 0.949 . S
H2984 C2961 0.950 . S
H2985 C2963 0.950 . S
C2986 C2987 1.349 . S
C2986 C2988 1.327 . S
C2986 H3011 0.950 . S
C2987 C2986 1.349 . S
C2987 C3003 1.385 . S
C2988 C2986 1.327 . S
C2988 C3007 1.429 . S
C2988 H3012 0.950 . S
C2989 C3006 1.574 . S
C2989 C3008 1.368 . S
C2989 H3013 0.949 1_554 S
H2990 C2994 0.949 . S
C2991 C2992 1.349 . S
C2991 C2993 1.327 . S
C2991 H3014 0.999 . S
C2992 C2991 1.349 . S
C2992 C3004 1.349 1_545 S
C2993 C2991 1.327 . S
C2993 C3009 1.429 1_545 S
C2993 H3015 0.950 1_554 S
C2994 H2990 0.949 . S
C2994 C3002 1.574 . S
C2994 C3010 1.368 . S
H2995 C3003 0.919 1_556 S
H2996 C3001 0.950 1_556 S
H2997 C3002 0.949 . S
H2998 C3004 0.950 . S
H2999 C3005 0.950 . S
H3000 C3006 0.949 1_556 S
C3001 H2996 0.950 1_554 S
C3001 C3003 1.323 . S
C3001 C3007 1.429 . S
C3002 C2994 1.574 . S
C3002 H2997 0.949 . S
C3002 C3008 1.368 . S
C3003 C2987 1.385 . S
C3003 H2995 0.919 1_554 S
C3003 C3001 1.323 . S
C3004 C2992 1.349 1_565 S
C3004 H2998 0.950 . S
C3004 C3005 1.327 . S
C3005 H2999 0.950 . S
C3005 C3004 1.327 . S
C3005 C3009 1.429 . S
C3006 C2989 1.574 . S
C3006 H3000 0.949 1_554 S
C3006 C3010 1.368 . S
C3007 C2988 1.429 . S
C3007 C3001 1.429 . S
C3007 C3008 1.523 . S
C3008 C2989 1.368 . S
C3008 C3002 1.368 . S
C3008 C3007 1.523 . S
C3009 C2993 1.429 1_565 S
C3009 C3005 1.429 . S
C3009 C3010 1.523 . S
C3010 C2994 1.368 . S
C3010 C3006 1.368 . S
C3010 C3009 1.523 . S
H3011 C2986 0.950 . S
H3012 C2988 0.950 . S
H3013 C2989 0.949 1_556 S
H3014 C2991 0.999 . S
H3015 C2993 0.950 1_556 S
C3016 C3017 1.349 . S
C3016 C3018 1.327 . S
C3016 H3041 0.950 . S
C3017 C3016 1.349 . S
C3017 C3033 1.349 . S
C3018 C3016 1.327 . S
C3018 C3037 1.429 . S
C3018 H3042 0.950 . S
C3019 C3036 1.574 . S
C3019 C3038 1.368 . S
C3019 H3043 0.949 . S
H3020 C3024 0.949 . S
C3021 C3022 1.349 . S
C3021 C3023 1.327 . S
C3021 H3044 0.950 . S
C3022 C3021 1.349 . S
C3022 C3034 1.349 . S
C3023 C3021 1.327 . S
C3023 C3039 1.429 . S
C3023 H3045 0.950 . S
C3024 H3020 0.949 . S
C3024 C3032 1.574 . S
C3024 C3040 1.368 . S
H3025 C3033 0.950 . S
H3026 C3031 0.950 . S
H3027 C3032 0.949 . S
H3028 C3034 0.950 . S
H3029 C3035 0.950 . S
H3030 C3036 0.949 . S
C3031 H3026 0.950 . S
C3031 C3033 1.327 . S
C3031 C3037 1.429 . S
C3032 C3024 1.574 . S
C3032 H3027 0.949 . S
C3032 C3038 1.368 . S
C3033 C3017 1.349 . S
C3033 H3025 0.950 . S
C3033 C3031 1.327 . S
C3034 C3022 1.349 . S
C3034 H3028 0.950 . S
C3034 C3035 1.327 . S
C3035 H3029 0.950 . S
C3035 C3034 1.327 . S
C3035 C3039 1.429 . S
C3036 C3019 1.574 . S
C3036 H3030 0.949 . S
C3036 C3040 1.368 . S
C3037 C3018 1.429 . S
C3037 C3031 1.429 . S
C3037 C3038 1.523 . S
C3038 C3019 1.368 . S
C3038 C3032 1.368 . S
C3038 C3037 1.523 . S
C3039 C3023 1.429 . S
C3039 C3035 1.429 . S
C3039 C3040 1.523 . S
C3040 C3024 1.368 . S
C3040 C3036 1.368 . S
C3040 C3039 1.523 . S
H3041 C3016 0.950 . S
H3042 C3018 0.950 . S
H3043 C3019 0.949 . S
H3044 C3021 0.950 . S
H3045 C3023 0.950 . S
C3046 C3047 1.349 . S
C3046 C3048 1.327 . S
C3046 H3071 0.950 . S
C3047 C3046 1.349 . S
C3047 C3063 1.349 . S
C3048 C3046 1.327 . S
C3048 C3067 1.429 . S
C3048 H3072 0.950 . S
C3049 C3066 1.574 . S
C3049 C3068 1.368 . S
C3049 H3073 0.949 . S
H3050 C3054 0.949 . S
C3051 C3052 1.349 . S
C3051 C3053 1.327 . S
C3051 H3074 0.950 . S
C3052 C3051 1.349 . S
C3052 C3064 1.349 . S
C3053 C3051 1.327 . S
C3053 C3069 1.429 . S
C3053 H3075 0.950 . S
C3054 H3050 0.949 . S
C3054 C3062 1.574 . S
C3054 C3070 1.368 . S
H3055 C3063 0.950 1_556 S
H3056 C3061 0.950 . S
H3057 C3062 0.949 . S
H3058 C3064 0.950 . S
H3059 C3065 0.950 . S
H3060 C3066 0.949 . S
C3061 H3056 0.950 . S
C3061 C3063 1.327 . S
C3061 C3067 1.429 . S
C3062 C3054 1.574 . S
C3062 H3057 0.949 . S
C3062 C3068 1.368 . S
C3063 C3047 1.349 . S
C3063 H3055 0.950 1_554 S
C3063 C3061 1.327 . S
C3064 C3052 1.349 . S
C3064 H3058 0.950 . S
C3064 C3065 1.327 . S
C3065 H3059 0.950 . S
C3065 C3064 1.327 . S
C3065 C3069 1.429 . S
C3066 C3049 1.574 . S
C3066 H3060 0.949 . S
C3066 C3070 1.368 . S
C3067 C3048 1.429 . S
C3067 C3061 1.429 . S
C3067 C3068 1.523 . S
C3068 C3049 1.368 . S
C3068 C3062 1.368 . S
C3068 C3067 1.523 . S
C3069 C3053 1.429 . S
C3069 C3065 1.429 . S
C3069 C3070 1.523 . S
C3070 C3054 1.368 . S
C3070 C3066 1.368 . S
C3070 C3069 1.523 . S
H3071 C3046 0.950 . S
H3072 C3048 0.950 . S
H3073 C3049 0.949 . S
H3074 C3051 0.950 . S
H3075 C3053 0.950 . S
C3076 C3077 1.349 . S
C3076 C3078 1.327 . S
C3076 H3101 0.950 . S
C3077 C3076 1.349 . S
C3077 C3093 1.349 . S
C3078 C3076 1.327 . S
C3078 C3097 1.429 . S
C3078 H3102 0.950 . S
C3079 C3096 1.574 . S
C3079 C3098 1.368 . S
C3079 H3103 0.949 . S
H3080 C3084 0.949 . S
C3081 C3082 1.349 . S
C3081 C3083 1.327 . S
C3081 H3104 0.950 . S
C3082 C3081 1.349 . S
C3082 C3094 1.349 . S
C3083 C3081 1.327 . S
C3083 C3099 1.429 . S
C3083 H3105 0.950 . S
C3084 H3080 0.949 . S
C3084 C3092 1.574 . S
C3084 C3100 1.368 . S
H3085 C3093 0.950 . S
H3086 C3091 0.950 . S
H3087 C3092 0.949 . S
H3088 C3094 0.950 . S
H3089 C3095 0.950 . S
H3090 C3096 0.949 . S
C3091 H3086 0.950 . S
C3091 C3093 1.327 . S
C3091 C3097 1.429 . S
C3092 C3084 1.574 . S
C3092 H3087 0.949 . S
C3092 C3098 1.368 . S
C3093 C3077 1.349 . S
C3093 H3085 0.950 . S
C3093 C3091 1.327 . S
C3094 C3082 1.349 . S
C3094 H3088 0.950 . S
C3094 C3095 1.327 . S
C3095 H3089 0.950 . S
C3095 C3094 1.327 . S
C3095 C3099 1.429 . S
C3096 C3079 1.574 . S
C3096 H3090 0.949 . S
C3096 C3100 1.368 . S
C3097 C3078 1.429 . S
C3097 C3091 1.429 . S
C3097 C3098 1.523 . S
C3098 C3079 1.368 . S
C3098 C3092 1.368 . S
C3098 C3097 1.523 . S
C3099 C3083 1.429 . S
C3099 C3095 1.429 . S
C3099 C3100 1.523 . S
C3100 C3084 1.368 . S
C3100 C3096 1.368 . S
C3100 C3099 1.523 . S
H3101 C3076 0.950 . S
H3102 C3078 0.950 . S
H3103 C3079 0.949 . S
H3104 C3081 0.950 . S
H3105 C3083 0.950 . S
C3106 C3107 1.349 . S
C3106 C3108 1.327 . S
C3106 H3131 0.950 . S
C3107 C3106 1.349 . S
C3107 C3123 1.349 . S
C3108 C3106 1.327 . S
C3108 C3127 1.429 . S
C3108 H3132 0.950 . S
C3109 C3126 1.574 . S
C3109 C3128 1.368 . S
C3109 H3133 0.949 . S
H3110 C3114 0.949 . S
C3111 C3112 1.349 . S
C3111 C3113 1.327 . S
C3111 H3134 0.950 . S
C3112 C3111 1.349 . S
C3112 C3124 1.349 . S
C3113 C3111 1.327 . S
C3113 C3129 1.429 . S
C3113 H3135 0.950 . S
C3114 H3110 0.949 . S
C3114 C3122 1.574 . S
C3114 C3130 1.368 . S
H3115 C3123 0.950 . S
H3116 C3121 0.950 . S
H3117 C3122 0.949 . S
H3118 C3124 0.950 . S
H3119 C3125 0.950 . S
H3120 C3126 0.949 . S
C3121 H3116 0.950 . S
C3121 C3123 1.327 . S
C3121 C3127 1.429 . S
C3122 C3114 1.574 . S
C3122 H3117 0.949 . S
C3122 C3128 1.368 . S
C3123 C3107 1.349 . S
C3123 H3115 0.950 . S
C3123 C3121 1.327 . S
C3124 C3112 1.349 . S
C3124 H3118 0.950 . S
C3124 C3125 1.327 . S
C3125 H3119 0.950 . S
C3125 C3124 1.327 . S
C3125 C3129 1.429 . S
C3126 C3109 1.574 . S
C3126 H3120 0.949 . S
C3126 C3130 1.368 . S
C3127 C3108 1.429 . S
C3127 C3121 1.429 . S
C3127 C3128 1.523 . S
C3128 C3109 1.368 . S
C3128 C3122 1.368 . S
C3128 C3127 1.523 . S
C3129 C3113 1.429 . S
C3129 C3125 1.429 . S
C3129 C3130 1.523 . S
C3130 C3114 1.368 . S
C3130 C3126 1.368 . S
C3130 C3129 1.523 . S
H3131 C3106 0.950 . S
H3132 C3108 0.950 . S
H3133 C3109 0.949 . S
H3134 C3111 0.950 . S
H3135 C3113 0.950 . S
C3136 C3137 1.349 . S
C3136 C3138 1.327 . S
C3136 H3161 0.950 . S
C3137 C3136 1.349 . S
C3137 C3153 1.349 . S
C3138 C3136 1.327 . S
C3138 C3157 1.429 . S
C3138 H3162 0.950 . S
C3139 C3156 1.574 . S
C3139 C3158 1.368 . S
C3139 H3163 0.949 . S
H3140 C3144 0.949 . S
C3141 C3142 1.349 . S
C3141 C3143 1.327 . S
C3141 H3164 0.950 . S
C3142 C3141 1.349 . S
C3142 C3154 1.349 . S
C3143 C3141 1.327 . S
C3143 C3159 1.429 . S
C3143 H3165 0.950 . S
C3144 H3140 0.949 . S
C3144 C3152 1.574 . S
C3144 C3160 1.368 . S
H3145 C3153 0.950 . S
H3146 C3151 0.950 . S
H3147 C3152 0.949 . S
H3148 C3154 0.950 . S
H3149 C3155 0.950 . S
H3150 C3156 0.949 . S
C3151 H3146 0.950 . S
C3151 C3153 1.327 . S
C3151 C3157 1.429 . S
C3152 C3144 1.574 . S
C3152 H3147 0.949 . S
C3152 C3158 1.368 . S
C3153 C3137 1.349 . S
C3153 H3145 0.950 . S
C3153 C3151 1.327 . S
C3154 C3142 1.349 . S
C3154 H3148 0.950 . S
C3154 C3155 1.327 . S
C3155 H3149 0.950 . S
C3155 C3154 1.327 . S
C3155 C3159 1.429 . S
C3156 C3139 1.574 . S
C3156 H3150 0.949 . S
C3156 C3160 1.368 . S
C3157 C3138 1.429 . S
C3157 C3151 1.429 . S
C3157 C3158 1.523 . S
C3158 C3139 1.368 . S
C3158 C3152 1.368 . S
C3158 C3157 1.523 . S
C3159 C3143 1.429 . S
C3159 C3155 1.429 . S
C3159 C3160 1.523 . S
C3160 C3144 1.368 . S
C3160 C3156 1.368 . S
C3160 C3159 1.523 . S
H3161 C3136 0.950 . S
H3162 C3138 0.950 . S
H3163 C3139 0.949 . S
H3164 C3141 0.950 . S
H3165 C3143 0.950 . S
C3166 C3167 1.349 . S
C3166 C3168 1.327 . S
C3166 H3191 0.950 . S
C3167 C3166 1.349 . S
C3167 C3183 1.349 . S
C3168 C3166 1.327 . S
C3168 C3187 1.429 . S
C3168 H3192 0.950 . S
C3169 C3186 1.574 . S
C3169 C3188 1.368 . S
C3169 H3193 0.949 . S
H3170 C3174 0.949 . S
C3171 C3172 1.349 . S
C3171 C3173 1.327 . S
C3171 H3194 0.950 . S
C3172 C3171 1.349 . S
C3172 C3184 1.349 . S
C3173 C3171 1.327 . S
C3173 C3189 1.429 . S
C3173 H3195 0.950 . S
C3174 H3170 0.949 . S
C3174 C3182 1.574 . S
C3174 C3190 1.368 . S
H3175 C3183 0.950 . S
H3176 C3181 0.950 . S
H3177 C3182 0.949 . S
H3178 C3184 0.950 . S
H3179 C3185 0.950 . S
H3180 C3186 0.949 . S
C3181 H3176 0.950 . S
C3181 C3183 1.327 . S
C3181 C3187 1.429 . S
C3182 C3174 1.574 . S
C3182 H3177 0.949 . S
C3182 C3188 1.368 . S
C3183 C3167 1.349 . S
C3183 H3175 0.950 . S
C3183 C3181 1.327 . S
C3184 C3172 1.349 . S
C3184 H3178 0.950 . S
C3184 C3185 1.327 . S
C3185 H3179 0.950 . S
C3185 C3184 1.327 . S
C3185 C3189 1.429 . S
C3186 C3169 1.574 . S
C3186 H3180 0.949 . S
C3186 C3190 1.368 . S
C3187 C3168 1.429 . S
C3187 C3181 1.429 . S
C3187 C3188 1.523 . S
C3188 C3169 1.368 . S
C3188 C3182 1.368 . S
C3188 C3187 1.523 . S
C3189 C3173 1.429 . S
C3189 C3185 1.429 . S
C3189 C3190 1.523 . S
C3190 C3174 1.368 . S
C3190 C3186 1.368 . S
C3190 C3189 1.523 . S
H3191 C3166 0.950 . S
H3192 C3168 0.950 . S
H3193 C3169 0.949 . S
H3194 C3171 0.950 . S
H3195 C3173 0.950 . S
C3196 C3197 1.349 . S
C3196 C3198 1.327 . S
C3196 H3221 0.950 . S
C3197 C3196 1.349 . S
C3197 C3213 1.349 . S
C3198 C3196 1.327 . S
C3198 C3217 1.429 . S
C3198 H3222 0.950 . S
C3199 C3216 1.574 . S
C3199 C3218 1.368 . S
C3199 H3223 0.949 . S
H3200 C3204 0.949 . S
C3201 C3202 1.349 . S
C3201 C3203 1.327 . S
C3201 H3224 0.950 . S
C3202 C3201 1.349 . S
C3202 C3214 1.349 . S
C3203 C3201 1.327 . S
C3203 C3219 1.429 . S
C3203 H3225 0.950 . S
C3204 H3200 0.949 . S
C3204 C3212 1.574 . S
C3204 C3220 1.368 . S
H3205 C3213 0.950 . S
H3206 C3211 0.950 . S
H3207 C3212 0.949 . S
H3208 C3214 0.950 . S
H3209 C3215 0.950 . S
H3210 C3216 0.949 . S
C3211 H3206 0.950 . S
C3211 C3213 1.327 . S
C3211 C3217 1.429 . S
C3212 C3204 1.574 . S
C3212 H3207 0.949 . S
C3212 C3218 1.368 . S
C3213 C3197 1.349 . S
C3213 H3205 0.950 . S
C3213 C3211 1.327 . S
C3214 C3202 1.349 . S
C3214 H3208 0.950 . S
C3214 C3215 1.327 . S
C3215 H3209 0.950 . S
C3215 C3214 1.327 . S
C3215 C3219 1.429 . S
C3216 C3199 1.574 . S
C3216 H3210 0.949 . S
C3216 C3220 1.368 . S
C3217 C3198 1.429 . S
C3217 C3211 1.429 . S
C3217 C3218 1.523 . S
C3218 C3199 1.368 . S
C3218 C3212 1.368 . S
C3218 C3217 1.523 . S
C3219 C3203 1.429 . S
C3219 C3215 1.429 . S
C3219 C3220 1.523 . S
C3220 C3204 1.368 . S
C3220 C3216 1.368 . S
C3220 C3219 1.523 . S
H3221 C3196 0.950 . S
H3222 C3198 0.950 . S
H3223 C3199 0.949 . S
H3224 C3201 0.950 . S
H3225 C3203 0.950 . S
C3226 C3227 1.349 . S
C3226 C3228 1.327 . S
C3226 H3251 0.950 . S
C3227 C3226 1.349 . S
C3227 C3243 1.349 . S
C3228 C3226 1.327 . S
C3228 C3247 1.429 . S
C3228 H3252 0.950 . S
C3229 C3246 1.574 . S
C3229 C3248 1.368 . S
C3229 H3253 0.949 . S
H3230 C3234 0.949 . S
C3231 C3232 1.349 . S
C3231 C3233 1.327 . S
C3231 H3254 0.950 . S
C3232 C3231 1.349 . S
C3232 C3244 1.349 . S
C3233 C3231 1.327 . S
C3233 C3249 1.429 . S
C3233 H3255 0.950 . S
C3234 H3230 0.949 . S
C3234 C3242 1.574 . S
C3234 C3250 1.368 . S
H3235 C3243 0.950 . S
H3236 C3241 0.950 . S
H3237 C3242 0.949 . S
H3238 C3244 0.950 . S
H3239 C3245 0.950 . S
H3240 C3246 0.949 . S
C3241 H3236 0.950 . S
C3241 C3243 1.327 . S
C3241 C3247 1.429 . S
C3242 C3234 1.574 . S
C3242 H3237 0.949 . S
C3242 C3248 1.368 . S
C3243 C3227 1.349 . S
C3243 H3235 0.950 . S
C3243 C3241 1.327 . S
C3244 C3232 1.349 . S
C3244 H3238 0.950 . S
C3244 C3245 1.327 . S
C3245 H3239 0.950 . S
C3245 C3244 1.327 . S
C3245 C3249 1.429 . S
C3246 C3229 1.574 . S
C3246 H3240 0.949 . S
C3246 C3250 1.368 . S
C3247 C3228 1.429 . S
C3247 C3241 1.429 . S
C3247 C3248 1.523 . S
C3248 C3229 1.368 . S
C3248 C3242 1.368 . S
C3248 C3247 1.523 . S
C3249 C3233 1.429 . S
C3249 C3245 1.429 . S
C3249 C3250 1.523 . S
C3250 C3234 1.368 . S
C3250 C3246 1.368 . S
C3250 C3249 1.523 . S
H3251 C3226 0.950 . S
H3252 C3228 0.950 . S
H3253 C3229 0.949 . S
H3254 C3231 0.950 . S
H3255 C3233 0.950 . S
C3256 C3257 1.349 . S
C3256 C3258 1.327 . S
C3256 H3281 0.950 . S
C3257 C3256 1.349 . S
C3257 C3273 1.349 . S
C3258 C3256 1.327 . S
C3258 C3277 1.429 . S
C3258 H3282 0.950 . S
C3259 C3276 1.574 . S
C3259 C3278 1.368 . S
C3259 H3283 0.949 . S
H3260 C3264 0.949 . S
C3261 C3262 1.349 . S
C3261 C3263 1.327 . S
C3261 H3284 0.950 . S
C3262 C3261 1.349 . S
C3262 C3274 1.349 . S
C3263 C3261 1.327 . S
C3263 C3279 1.429 . S
C3263 H3285 0.950 . S
C3264 H3260 0.949 . S
C3264 C3272 1.574 . S
C3264 C3280 1.368 . S
H3265 C3273 0.950 . S
H3266 C3271 0.950 . S
H3267 C3272 0.949 . S
H3268 C3274 0.950 . S
H3269 C3275 0.950 . S
H3270 C3276 0.949 . S
C3271 H3266 0.950 . S
C3271 C3273 1.327 . S
C3271 C3277 1.429 . S
C3272 C3264 1.574 . S
C3272 H3267 0.949 . S
C3272 C3278 1.368 . S
C3273 C3257 1.349 . S
C3273 H3265 0.950 . S
C3273 C3271 1.327 . S
C3274 C3262 1.349 . S
C3274 H3268 0.950 . S
C3274 C3275 1.327 . S
C3275 H3269 0.950 . S
C3275 C3274 1.327 . S
C3275 C3279 1.429 . S
C3276 C3259 1.574 . S
C3276 H3270 0.949 . S
C3276 C3280 1.368 . S
C3277 C3258 1.429 . S
C3277 C3271 1.429 . S
C3277 C3278 1.523 . S
C3278 C3259 1.368 . S
C3278 C3272 1.368 . S
C3278 C3277 1.523 . S
C3279 C3263 1.429 . S
C3279 C3275 1.429 . S
C3279 C3280 1.523 . S
C3280 C3264 1.368 . S
C3280 C3276 1.368 . S
C3280 C3279 1.523 . S
H3281 C3256 0.950 . S
H3282 C3258 0.950 . S
H3283 C3259 0.949 . S
H3284 C3261 0.950 . S
H3285 C3263 0.950 . S
C3286 C3287 1.349 . S
C3286 C3288 1.327 . S
C3286 H3311 0.950 . S
C3287 C3286 1.349 . S
C3287 C3303 1.349 . S
C3288 C3286 1.327 . S
C3288 C3307 1.429 . S
C3288 H3312 0.950 . S
C3289 C3306 1.574 . S
C3289 C3308 1.368 . S
C3289 H3313 0.949 . S
H3290 C3294 0.949 . S
C3291 C3292 1.349 . S
C3291 C3293 1.327 . S
C3291 H3314 0.950 . S
C3292 C3291 1.349 . S
C3292 C3304 1.349 . S
C3293 C3291 1.327 . S
C3293 C3309 1.429 . S
C3293 H3315 0.950 . S
C3294 H3290 0.949 . S
C3294 C3302 1.574 . S
C3294 C3310 1.368 . S
H3295 C3303 0.950 . S
H3296 C3301 0.950 . S
H3297 C3302 0.949 . S
H3298 C3304 0.950 . S
H3299 C3305 0.950 . S
H3300 C3306 0.949 . S
C3301 H3296 0.950 . S
C3301 C3303 1.327 . S
C3301 C3307 1.429 . S
C3302 C3294 1.574 . S
C3302 H3297 0.949 . S
C3302 C3308 1.368 . S
C3303 C3287 1.349 . S
C3303 H3295 0.950 . S
C3303 C3301 1.327 . S
C3304 C3292 1.349 . S
C3304 H3298 0.950 . S
C3304 C3305 1.327 . S
C3305 H3299 0.950 . S
C3305 C3304 1.327 . S
C3305 C3309 1.429 . S
C3306 C3289 1.574 . S
C3306 H3300 0.949 . S
C3306 C3310 1.368 . S
C3307 C3288 1.429 . S
C3307 C3301 1.429 . S
C3307 C3308 1.523 . S
C3308 C3289 1.368 . S
C3308 C3302 1.368 . S
C3308 C3307 1.523 . S
C3309 C3293 1.429 . S
C3309 C3305 1.429 . S
C3309 C3310 1.523 . S
C3310 C3294 1.368 . S
C3310 C3306 1.368 . S
C3310 C3309 1.523 . S
H3311 C3286 0.950 . S
H3312 C3288 0.950 . S
H3313 C3289 0.949 . S
H3314 C3291 0.950 . S
H3315 C3293 0.950 . S
C3316 C3317 1.349 . S
C3316 C3318 1.327 . S
C3316 H3341 0.950 . S
C3317 C3316 1.349 . S
C3317 C3333 1.349 . S
C3318 C3316 1.327 . S
C3318 C3337 1.429 . S
C3318 H3342 0.950 . S
C3319 C3336 1.574 . S
C3319 C3338 1.368 . S
C3319 H3343 0.949 . S
H3320 C3324 0.949 . S
C3321 C3322 1.349 . S
C3321 C3323 1.327 . S
C3321 H3344 0.950 . S
C3322 C3321 1.349 . S
C3322 C3334 1.349 . S
C3323 C3321 1.327 . S
C3323 C3339 1.429 . S
C3323 H3345 0.950 . S
C3324 H3320 0.949 . S
C3324 C3332 1.574 . S
C3324 C3340 1.368 . S
H3325 C3333 0.950 . S
H3326 C3331 0.950 . S
H3327 C3332 0.949 . S
H3328 C3334 0.950 . S
H3329 C3335 0.950 . S
H3330 C3336 0.949 . S
C3331 H3326 0.950 . S
C3331 C3333 1.327 . S
C3331 C3337 1.429 . S
C3332 C3324 1.574 . S
C3332 H3327 0.949 . S
C3332 C3338 1.368 . S
C3333 C3317 1.349 . S
C3333 H3325 0.950 . S
C3333 C3331 1.327 . S
C3334 C3322 1.349 . S
C3334 H3328 0.950 . S
C3334 C3335 1.327 . S
C3335 H3329 0.950 . S
C3335 C3334 1.327 . S
C3335 C3339 1.429 . S
C3336 C3319 1.574 . S
C3336 H3330 0.949 . S
C3336 C3340 1.368 . S
C3337 C3318 1.429 . S
C3337 C3331 1.429 . S
C3337 C3338 1.523 . S
C3338 C3319 1.368 . S
C3338 C3332 1.368 . S
C3338 C3337 1.523 . S
C3339 C3323 1.429 . S
C3339 C3335 1.429 . S
C3339 C3340 1.523 . S
C3340 C3324 1.368 . S
C3340 C3336 1.368 . S
C3340 C3339 1.523 . S
H3341 C3316 0.950 . S
H3342 C3318 0.950 . S
H3343 C3319 0.949 . S
H3344 C3321 0.950 . S
H3345 C3323 0.950 . S
C3346 C3347 1.349 . S
C3346 C3348 1.327 . S
C3346 H3371 0.950 . S
C3347 C3346 1.349 . S
C3347 C3363 1.349 . S
C3348 C3346 1.327 . S
C3348 C3367 1.429 . S
C3348 H3372 0.950 . S
C3349 C3366 1.574 . S
C3349 C3368 1.368 . S
C3349 H3373 0.949 . S
H3350 C3354 0.949 . S
C3351 C3352 1.349 . S
C3351 C3353 1.327 . S
C3351 H3374 0.950 . S
C3352 C3351 1.349 . S
C3352 C3364 1.349 . S
C3353 C3351 1.327 . S
C3353 C3369 1.429 . S
C3353 H3375 0.950 . S
C3354 H3350 0.949 . S
C3354 C3362 1.574 . S
C3354 C3370 1.368 . S
H3355 C3363 0.950 . S
H3356 C3361 0.950 . S
H3357 C3362 0.949 . S
H3358 C3364 0.950 . S
H3359 C3365 0.950 . S
H3360 C3366 0.949 . S
C3361 H3356 0.950 . S
C3361 C3363 1.327 . S
C3361 C3367 1.429 . S
C3362 C3354 1.574 . S
C3362 H3357 0.949 . S
C3362 C3368 1.368 . S
C3363 C3347 1.349 . S
C3363 H3355 0.950 . S
C3363 C3361 1.327 . S
C3364 C3352 1.349 . S
C3364 H3358 0.950 . S
C3364 C3365 1.327 . S
C3365 H3359 0.950 . S
C3365 C3364 1.327 . S
C3365 C3369 1.429 . S
C3366 C3349 1.574 . S
C3366 H3360 0.949 . S
C3366 C3370 1.368 . S
C3367 C3348 1.429 . S
C3367 C3361 1.429 . S
C3367 C3368 1.523 . S
C3368 C3349 1.368 . S
C3368 C3362 1.368 . S
C3368 C3367 1.523 . S
C3369 C3353 1.429 . S
C3369 C3365 1.429 . S
C3369 C3370 1.523 . S
C3370 C3354 1.368 . S
C3370 C3366 1.368 . S
C3370 C3369 1.523 . S
H3371 C3346 0.950 . S
H3372 C3348 0.950 . S
H3373 C3349 0.949 . S
H3374 C3351 0.950 . S
H3375 C3353 0.950 . S
C3376 C3377 1.349 . S
C3376 C3378 1.327 . S
C3376 H3401 0.950 . S
C3377 C3376 1.349 . S
C3377 C3393 1.349 . S
C3378 C3376 1.327 . S
C3378 C3397 1.429 . S
C3378 H3402 0.950 . S
C3379 C3396 1.574 . S
C3379 C3398 1.368 . S
C3379 H3403 0.949 . S
H3380 C3384 0.949 . S
C3381 C3382 1.349 . S
C3381 C3383 1.327 . S
C3381 H3404 0.950 . S
C3382 C3381 1.349 . S
C3382 C3394 1.349 . S
C3383 C3381 1.327 . S
C3383 C3399 1.429 . S
C3383 H3405 0.950 . S
C3384 H3380 0.949 . S
C3384 C3392 1.574 . S
C3384 C3400 1.368 . S
H3385 C3393 0.950 . S
H3386 C3391 0.950 . S
H3387 C3392 0.949 . S
H3388 C3394 0.950 . S
H3389 C3395 0.950 . S
H3390 C3396 0.949 . S
C3391 H3386 0.950 . S
C3391 C3393 1.327 . S
C3391 C3397 1.429 . S
C3392 C3384 1.574 . S
C3392 H3387 0.949 . S
C3392 C3398 1.368 . S
C3393 C3377 1.349 . S
C3393 H3385 0.950 . S
C3393 C3391 1.327 . S
C3394 C3382 1.349 . S
C3394 H3388 0.950 . S
C3394 C3395 1.327 . S
C3395 H3389 0.950 . S
C3395 C3394 1.327 . S
C3395 C3399 1.429 . S
C3396 C3379 1.574 . S
C3396 H3390 0.949 . S
C3396 C3400 1.368 . S
C3397 C3378 1.429 . S
C3397 C3391 1.429 . S
C3397 C3398 1.523 . S
C3398 C3379 1.368 . S
C3398 C3392 1.368 . S
C3398 C3397 1.523 . S
C3399 C3383 1.429 . S
C3399 C3395 1.429 . S
C3399 C3400 1.523 . S
C3400 C3384 1.368 . S
C3400 C3396 1.368 . S
C3400 C3399 1.523 . S
H3401 C3376 0.950 . S
H3402 C3378 0.950 . S
H3403 C3379 0.949 . S
H3404 C3381 0.950 . S
H3405 C3383 0.950 . S
C3406 C3407 1.349 . S
C3406 C3408 1.327 . S
C3406 H3431 0.950 . S
C3407 C3406 1.349 . S
C3407 C3423 1.349 . S
C3408 C3406 1.327 . S
C3408 C3427 1.429 . S
C3408 H3432 0.950 . S
C3409 C3426 1.574 . S
C3409 C3428 1.368 . S
C3409 H3433 0.949 . S
H3410 C3414 0.949 . S
C3411 C3412 1.349 . S
C3411 C3413 1.327 . S
C3411 H3434 0.950 . S
C3412 C3411 1.349 . S
C3412 C3424 1.349 . S
C3413 C3411 1.327 . S
C3413 C3429 1.429 . S
C3413 H3435 0.950 . S
C3414 H3410 0.949 . S
C3414 C3422 1.574 . S
C3414 C3430 1.368 . S
H3415 C3423 0.950 . S
H3416 C3421 0.950 . S
H3417 C3422 0.949 . S
H3418 C3424 0.950 . S
H3419 C3425 0.950 . S
H3420 C3426 0.949 . S
C3421 H3416 0.950 . S
C3421 C3423 1.327 . S
C3421 C3427 1.429 . S
C3422 C3414 1.574 . S
C3422 H3417 0.949 . S
C3422 C3428 1.368 . S
C3423 C3407 1.349 . S
C3423 H3415 0.950 . S
C3423 C3421 1.327 . S
C3424 C3412 1.349 . S
C3424 H3418 0.950 . S
C3424 C3425 1.327 . S
C3425 H3419 0.950 . S
C3425 C3424 1.327 . S
C3425 C3429 1.429 . S
C3426 C3409 1.574 . S
C3426 H3420 0.949 . S
C3426 C3430 1.368 . S
C3427 C3408 1.429 . S
C3427 C3421 1.429 . S
C3427 C3428 1.523 . S
C3428 C3409 1.368 . S
C3428 C3422 1.368 . S
C3428 C3427 1.523 . S
C3429 C3413 1.429 . S
C3429 C3425 1.429 . S
C3429 C3430 1.523 . S
C3430 C3414 1.368 . S
C3430 C3426 1.368 . S
C3430 C3429 1.523 . S
H3431 C3406 0.950 . S
H3432 C3408 0.950 . S
H3433 C3409 0.949 . S
H3434 C3411 0.950 . S
H3435 C3413 0.950 . S
C3436 C3437 1.349 . S
C3436 C3438 1.327 . S
C3436 H3461 0.950 . S
C3437 C3436 1.349 . S
C3437 C3453 1.349 . S
C3438 C3436 1.327 . S
C3438 C3457 1.429 . S
C3438 H3462 0.950 . S
C3439 C3456 1.574 . S
C3439 C3458 1.368 . S
C3439 H3463 0.949 . S
H3440 C3444 0.949 . S
C3441 C3442 1.349 . S
C3441 C3443 1.327 . S
C3441 H3464 0.950 . S
C3442 C3441 1.349 . S
C3442 C3454 1.349 . S
C3443 C3441 1.327 . S
C3443 C3459 1.429 . S
C3443 H3465 0.950 . S
C3444 H3440 0.949 . S
C3444 C3452 1.574 . S
C3444 C3460 1.368 . S
H3445 C3453 0.950 . S
H3446 C3451 0.950 . S
H3447 C3452 0.949 . S
H3448 C3454 0.950 . S
H3449 C3455 0.921 1_655 S
H3450 C3456 0.949 1_455 S
C3451 H3446 0.950 . S
C3451 C3453 1.327 . S
C3451 C3457 1.429 . S
C3452 C3444 1.574 . S
C3452 H3447 0.949 . S
C3452 C3458 1.368 . S
C3453 C3437 1.349 . S
C3453 H3445 0.950 . S
C3453 C3451 1.327 . S
C3454 C3442 1.349 . S
C3454 H3448 0.950 . S
C3454 C3455 1.344 . S
C3455 H3449 0.921 1_455 S
C3455 C3454 1.344 . S
C3455 C3459 1.441 . S
C3456 C3439 1.574 . S
C3456 H3450 0.949 1_655 S
C3456 C3460 1.368 . S
C3457 C3438 1.429 . S
C3457 C3451 1.429 . S
C3457 C3458 1.523 . S
C3458 C3439 1.368 . S
C3458 C3452 1.368 . S
C3458 C3457 1.523 . S
C3459 C3443 1.429 . S
C3459 C3455 1.441 . S
C3459 C3460 1.523 1_455 S
C3460 C3444 1.368 . S
C3460 C3456 1.368 . S
C3460 C3459 1.523 1_655 S
H3461 C3436 0.950 . S
H3462 C3438 0.950 . S
H3463 C3439 0.949 . S
H3464 C3441 0.950 . S
H3465 C3443 0.950 . S
C3466 C3467 1.349 . S
C3466 C3468 1.327 . S
C3466 H3491 0.950 . S
C3467 C3466 1.349 . S
C3467 C3483 1.349 . S
C3468 C3466 1.327 . S
C3468 C3487 1.429 . S
C3468 H3492 0.950 . S
C3469 C3486 1.574 . S
C3469 C3488 1.368 . S
C3469 H3493 0.949 . S
H3470 C3474 0.949 . S
C3471 C3472 1.349 . S
C3471 C3473 1.327 . S
C3471 H3494 0.950 . S
C3472 C3471 1.349 . S
C3472 C3484 1.349 . S
C3473 C3471 1.327 . S
C3473 C3489 1.429 . S
C3473 H3495 0.950 . S
C3474 H3470 0.949 . S
C3474 C3482 1.574 . S
C3474 C3490 1.368 . S
H3475 C3483 0.950 . S
H3476 C3481 0.950 . S
H3477 C3482 0.949 . S
H3478 C3484 0.950 . S
H3479 C3485 0.950 . S
H3480 C3486 0.949 . S
C3481 H3476 0.950 . S
C3481 C3483 1.327 . S
C3481 C3487 1.429 . S
C3482 C3474 1.574 . S
C3482 H3477 0.949 . S
C3482 C3488 1.368 . S
C3483 C3467 1.349 . S
C3483 H3475 0.950 . S
C3483 C3481 1.327 . S
C3484 C3472 1.349 . S
C3484 H3478 0.950 . S
C3484 C3485 1.327 . S
C3485 H3479 0.950 . S
C3485 C3484 1.327 . S
C3485 C3489 1.429 . S
C3486 C3469 1.574 . S
C3486 H3480 0.949 . S
C3486 C3490 1.368 . S
C3487 C3468 1.429 . S
C3487 C3481 1.429 . S
C3487 C3488 1.523 . S
C3488 C3469 1.368 . S
C3488 C3482 1.368 . S
C3488 C3487 1.523 . S
C3489 C3473 1.429 . S
C3489 C3485 1.429 . S
C3489 C3490 1.523 . S
C3490 C3474 1.368 . S
C3490 C3486 1.368 . S
C3490 C3489 1.523 . S
H3491 C3466 0.950 . S
H3492 C3468 0.950 . S
H3493 C3469 0.949 . S
H3494 C3471 0.950 . S
H3495 C3473 0.950 . S
C3496 C3497 1.349 . S
C3496 C3498 1.327 . S
C3496 H3521 0.950 . S
C3497 C3496 1.349 . S
C3497 C3513 1.349 . S
C3498 C3496 1.327 . S
C3498 C3517 1.429 . S
C3498 H3522 0.950 . S
C3499 C3516 1.574 . S
C3499 C3518 1.368 . S
C3499 H3523 0.949 . S
H3500 C3504 0.949 . S
C3501 C3502 1.349 . S
C3501 C3503 1.327 . S
C3501 H3524 0.950 . S
C3502 C3501 1.349 . S
C3502 C3514 1.349 . S
C3503 C3501 1.327 . S
C3503 C3519 1.429 . S
C3503 H3525 0.950 . S
C3504 H3500 0.949 . S
C3504 C3512 1.574 . S
C3504 C3520 1.368 . S
H3505 C3513 0.950 . S
H3506 C3511 0.950 . S
H3507 C3512 0.949 . S
H3508 C3514 0.950 . S
H3509 C3515 0.950 . S
H3510 C3516 0.949 . S
C3511 H3506 0.950 . S
C3511 C3513 1.327 . S
C3511 C3517 1.429 . S
C3512 C3504 1.574 . S
C3512 H3507 0.949 . S
C3512 C3518 1.368 . S
C3513 C3497 1.349 . S
C3513 H3505 0.950 . S
C3513 C3511 1.327 . S
C3514 C3502 1.349 . S
C3514 H3508 0.950 . S
C3514 C3515 1.327 . S
C3515 H3509 0.950 . S
C3515 C3514 1.327 . S
C3515 C3519 1.429 . S
C3516 C3499 1.574 . S
C3516 H3510 0.949 . S
C3516 C3520 1.368 . S
C3517 C3498 1.429 . S
C3517 C3511 1.429 . S
C3517 C3518 1.523 . S
C3518 C3499 1.368 . S
C3518 C3512 1.368 . S
C3518 C3517 1.523 . S
C3519 C3503 1.429 . S
C3519 C3515 1.429 . S
C3519 C3520 1.523 . S
C3520 C3504 1.368 . S
C3520 C3516 1.368 . S
C3520 C3519 1.523 . S
H3521 C3496 0.950 . S
H3522 C3498 0.950 . S
H3523 C3499 0.949 . S
H3524 C3501 0.950 . S
H3525 C3503 0.950 . S
C3526 C3527 1.349 . S
C3526 C3528 1.327 . S
C3526 H3551 0.950 . S
C3527 C3526 1.349 . S
C3527 C3543 1.349 . S
C3528 C3526 1.327 . S
C3528 C3547 1.429 . S
C3528 H3552 0.950 . S
C3529 C3546 1.574 . S
C3529 C3548 1.368 . S
C3529 H3553 0.949 . S
H3530 C3534 0.949 . S
C3531 C3532 1.349 . S
C3531 C3533 1.327 . S
C3531 H3554 0.950 . S
C3532 C3531 1.349 . S
C3532 C3544 1.349 . S
C3533 C3531 1.327 . S
C3533 C3549 1.429 . S
C3533 H3555 0.950 . S
C3534 H3530 0.949 . S
C3534 C3542 1.574 . S
C3534 C3550 1.368 . S
H3535 C3543 0.950 . S
H3536 C3541 0.950 . S
H3537 C3542 0.949 . S
H3538 C3544 0.950 . S
H3539 C3545 0.950 . S
H3540 C3546 0.949 . S
C3541 H3536 0.950 . S
C3541 C3543 1.327 . S
C3541 C3547 1.429 . S
C3542 C3534 1.574 . S
C3542 H3537 0.949 . S
C3542 C3548 1.368 . S
C3543 C3527 1.349 . S
C3543 H3535 0.950 . S
C3543 C3541 1.327 . S
C3544 C3532 1.349 . S
C3544 H3538 0.950 . S
C3544 C3545 1.327 . S
C3545 H3539 0.950 . S
C3545 C3544 1.327 . S
C3545 C3549 1.429 . S
C3546 C3529 1.574 . S
C3546 H3540 0.949 . S
C3546 C3550 1.368 . S
C3547 C3528 1.429 . S
C3547 C3541 1.429 . S
C3547 C3548 1.523 . S
C3548 C3529 1.368 . S
C3548 C3542 1.368 . S
C3548 C3547 1.523 . S
C3549 C3533 1.429 . S
C3549 C3545 1.429 . S
C3549 C3550 1.523 . S
C3550 C3534 1.368 . S
C3550 C3546 1.368 . S
C3550 C3549 1.523 . S
H3551 C3526 0.950 . S
H3552 C3528 0.950 . S
H3553 C3529 0.949 . S
H3554 C3531 0.950 . S
H3555 C3533 0.950 . S
C3556 C3557 1.349 . S
C3556 C3558 1.327 . S
C3556 H3581 0.950 . S
C3557 C3556 1.349 . S
C3557 C3573 1.349 . S
C3558 C3556 1.327 . S
C3558 C3577 1.429 . S
C3558 H3582 0.950 . S
C3559 C3576 1.574 . S
C3559 C3578 1.368 . S
C3559 H3583 0.949 . S
H3560 C3564 0.949 . S
C3561 C3562 1.349 . S
C3561 C3563 1.327 . S
C3561 H3584 0.950 . S
C3562 C3561 1.349 . S
C3562 C3574 1.349 . S
C3563 C3561 1.327 . S
C3563 C3579 1.429 . S
C3563 H3585 0.950 . S
C3564 H3560 0.949 . S
C3564 C3572 1.574 . S
C3564 C3580 1.368 . S
H3565 C3573 0.950 . S
H3566 C3571 0.950 . S
H3567 C3572 0.949 . S
H3568 C3574 0.950 1_455 S
H3569 C3575 0.950 . S
H3570 C3576 0.949 . S
C3571 H3566 0.950 . S
C3571 C3573 1.327 . S
C3571 C3577 1.429 . S
C3572 C3564 1.574 . S
C3572 H3567 0.949 . S
C3572 C3578 1.368 . S
C3573 C3557 1.349 . S
C3573 H3565 0.950 . S
C3573 C3571 1.327 . S
C3574 C3562 1.349 . S
C3574 H3568 0.950 1_655 S
C3574 C3575 1.327 . S
C3575 H3569 0.950 . S
C3575 C3574 1.327 . S
C3575 C3579 1.429 . S
C3576 C3559 1.574 . S
C3576 H3570 0.949 . S
C3576 C3580 1.368 . S
C3577 C3558 1.429 . S
C3577 C3571 1.429 . S
C3577 C3578 1.523 . S
C3578 C3559 1.368 . S
C3578 C3572 1.368 . S
C3578 C3577 1.523 . S
C3579 C3563 1.429 . S
C3579 C3575 1.429 . S
C3579 C3580 1.523 . S
C3580 C3564 1.368 . S
C3580 C3576 1.368 . S
C3580 C3579 1.523 . S
H3581 C3556 0.950 . S
H3582 C3558 0.950 . S
H3583 C3559 0.949 . S
H3584 C3561 0.950 . S
H3585 C3563 0.950 . S
C3586 C3587 1.349 . S
C3586 C3588 1.327 . S
C3586 H3611 0.950 . S
C3587 C3586 1.349 . S
C3587 C3603 1.349 . S
C3588 C3586 1.327 . S
C3588 C3607 1.429 . S
C3588 H3612 0.950 . S
C3589 C3606 1.574 . S
C3589 C3608 1.368 . S
C3589 H3613 0.949 . S
H3590 C3594 0.949 . S
C3591 C3592 1.349 . S
C3591 C3593 1.327 . S
C3591 H3614 0.950 . S
C3592 C3591 1.349 . S
C3592 C3604 1.349 . S
C3593 C3591 1.327 . S
C3593 C3609 1.429 . S
C3593 H3615 0.950 . S
C3594 H3590 0.949 . S
C3594 C3602 1.574 . S
C3594 C3610 1.368 . S
H3595 C3603 0.950 . S
H3596 C3601 0.950 . S
H3597 C3602 0.949 . S
H3598 C3604 0.950 . S
H3599 C3605 0.950 . S
H3600 C3606 0.949 . S
C3601 H3596 0.950 . S
C3601 C3603 1.327 . S
C3601 C3607 1.429 . S
C3602 C3594 1.574 . S
C3602 H3597 0.949 . S
C3602 C3608 1.368 . S
C3603 C3587 1.349 . S
C3603 H3595 0.950 . S
C3603 C3601 1.327 . S
C3604 C3592 1.349 . S
C3604 H3598 0.950 . S
C3604 C3605 1.327 . S
C3605 H3599 0.950 . S
C3605 C3604 1.327 . S
C3605 C3609 1.429 . S
C3606 C3589 1.574 . S
C3606 H3600 0.949 . S
C3606 C3610 1.368 . S
C3607 C3588 1.429 . S
C3607 C3601 1.429 . S
C3607 C3608 1.523 . S
C3608 C3589 1.368 . S
C3608 C3602 1.368 . S
C3608 C3607 1.523 . S
C3609 C3593 1.429 . S
C3609 C3605 1.429 . S
C3609 C3610 1.523 . S
C3610 C3594 1.368 . S
C3610 C3606 1.368 . S
C3610 C3609 1.523 . S
H3611 C3586 0.950 . S
H3612 C3588 0.950 . S
H3613 C3589 0.949 . S
H3614 C3591 0.950 . S
H3615 C3593 0.950 . S
C3616 C3617 1.349 . S
C3616 C3618 1.327 . S
C3616 H3641 0.950 . S
C3617 C3616 1.349 . S
C3617 C3633 1.349 . S
C3618 C3616 1.327 . S
C3618 C3637 1.429 . S
C3618 H3642 0.950 . S
C3619 C3636 1.574 . S
C3619 C3638 1.368 . S
C3619 H3643 0.949 . S
H3620 C3624 0.949 . S
C3621 C3622 1.349 . S
C3621 C3623 1.327 . S
C3621 H3644 0.950 . S
C3622 C3621 1.349 . S
C3622 C3634 1.349 . S
C3623 C3621 1.327 . S
C3623 C3639 1.429 . S
C3623 H3645 0.950 . S
C3624 H3620 0.949 . S
C3624 C3632 1.574 . S
C3624 C3640 1.368 . S
H3625 C3633 0.950 . S
H3626 C3631 0.950 . S
H3627 C3632 0.949 . S
H3628 C3634 0.950 . S
H3629 C3635 0.950 . S
H3630 C3636 0.949 . S
C3631 H3626 0.950 . S
C3631 C3633 1.327 . S
C3631 C3637 1.429 . S
C3632 C3624 1.574 . S
C3632 H3627 0.949 . S
C3632 C3638 1.368 . S
C3633 C3617 1.349 . S
C3633 H3625 0.950 . S
C3633 C3631 1.327 . S
C3634 C3622 1.349 . S
C3634 H3628 0.950 . S
C3634 C3635 1.327 . S
C3635 H3629 0.950 . S
C3635 C3634 1.327 . S
C3635 C3639 1.429 . S
C3636 C3619 1.574 . S
C3636 H3630 0.949 . S
C3636 C3640 1.368 . S
C3637 C3618 1.429 . S
C3637 C3631 1.429 . S
C3637 C3638 1.523 . S
C3638 C3619 1.368 . S
C3638 C3632 1.368 . S
C3638 C3637 1.523 . S
C3639 C3623 1.429 . S
C3639 C3635 1.429 . S
C3639 C3640 1.523 . S
C3640 C3624 1.368 . S
C3640 C3636 1.368 . S
C3640 C3639 1.523 . S
H3641 C3616 0.950 . S
H3642 C3618 0.950 . S
H3643 C3619 0.949 . S
H3644 C3621 0.950 . S
H3645 C3623 0.950 . S
C3646 C3647 1.349 . S
C3646 C3648 1.327 . S
C3646 H3671 0.950 . S
C3647 C3646 1.349 . S
C3647 C3663 1.349 . S
C3648 C3646 1.327 . S
C3648 C3667 1.429 . S
C3648 H3672 0.950 . S
C3649 C3666 1.574 . S
C3649 C3668 1.368 . S
C3649 H3673 0.949 . S
H3650 C3654 0.949 . S
C3651 C3652 1.349 . S
C3651 C3653 1.327 . S
C3651 H3674 0.950 1_565 S
C3652 C3651 1.349 . S
C3652 C3664 1.349 . S
C3653 C3651 1.327 . S
C3653 C3669 1.429 . S
C3653 H3675 0.950 . S
C3654 H3650 0.949 . S
C3654 C3662 1.574 . S
C3654 C3670 1.368 . S
H3655 C3663 0.950 . S
H3656 C3661 0.950 . S
H3657 C3662 0.949 . S
H3658 C3664 0.950 . S
H3659 C3665 0.950 . S
H3660 C3666 0.949 . S
C3661 H3656 0.950 . S
C3661 C3663 1.327 . S
C3661 C3667 1.429 . S
C3662 C3654 1.574 . S
C3662 H3657 0.949 . S
C3662 C3668 1.368 . S
C3663 C3647 1.349 . S
C3663 H3655 0.950 . S
C3663 C3661 1.327 . S
C3664 C3652 1.349 . S
C3664 H3658 0.950 . S
C3664 C3665 1.327 . S
C3665 H3659 0.950 . S
C3665 C3664 1.327 . S
C3665 C3669 1.429 . S
C3666 C3649 1.574 . S
C3666 H3660 0.949 . S
C3666 C3670 1.368 . S
C3667 C3648 1.429 . S
C3667 C3661 1.429 . S
C3667 C3668 1.523 . S
C3668 C3649 1.368 . S
C3668 C3662 1.368 . S
C3668 C3667 1.523 . S
C3669 C3653 1.429 . S
C3669 C3665 1.429 . S
C3669 C3670 1.523 . S
C3670 C3654 1.368 . S
C3670 C3666 1.368 . S
C3670 C3669 1.523 . S
H3671 C3646 0.950 . S
H3672 C3648 0.950 . S
H3673 C3649 0.949 . S
H3674 C3651 0.950 1_545 S
H3675 C3653 0.950 . S
C3676 C3677 1.349 . S
C3676 C3678 1.327 . S
C3676 H3701 0.950 . S
C3677 C3676 1.349 . S
C3677 C3693 1.349 . S
C3678 C3676 1.327 . S
C3678 C3697 1.429 . S
C3678 H3702 0.950 . S
C3679 C3696 1.574 . S
C3679 C3698 1.368 . S
C3679 H3703 0.949 . S
H3680 C3684 0.949 . S
C3681 C3682 1.349 . S
C3681 C3683 1.327 . S
C3681 H3704 0.950 . S
C3682 C3681 1.349 . S
C3682 C3694 1.349 . S
C3683 C3681 1.327 . S
C3683 C3699 1.429 . S
C3683 H3705 0.950 . S
C3684 H3680 0.949 . S
C3684 C3692 1.574 . S
C3684 C3700 1.368 . S
H3685 C3693 0.950 . S
H3686 C3691 0.950 . S
H3687 C3692 0.949 . S
H3688 C3694 0.950 . S
H3689 C3695 0.950 . S
H3690 C3696 0.949 . S
C3691 H3686 0.950 . S
C3691 C3693 1.327 . S
C3691 C3697 1.429 . S
C3692 C3684 1.574 . S
C3692 H3687 0.949 . S
C3692 C3698 1.368 . S
C3693 C3677 1.349 . S
C3693 H3685 0.950 . S
C3693 C3691 1.327 . S
C3694 C3682 1.349 . S
C3694 H3688 0.950 . S
C3694 C3695 1.327 . S
C3695 H3689 0.950 . S
C3695 C3694 1.327 . S
C3695 C3699 1.429 . S
C3696 C3679 1.574 . S
C3696 H3690 0.949 . S
C3696 C3700 1.368 . S
C3697 C3678 1.429 . S
C3697 C3691 1.429 . S
C3697 C3698 1.523 . S
C3698 C3679 1.368 . S
C3698 C3692 1.368 . S
C3698 C3697 1.523 . S
C3699 C3683 1.429 . S
C3699 C3695 1.429 . S
C3699 C3700 1.523 . S
C3700 C3684 1.368 . S
C3700 C3696 1.368 . S
C3700 C3699 1.523 . S
H3701 C3676 0.950 . S
H3702 C3678 0.950 . S
H3703 C3679 0.949 . S
H3704 C3681 0.950 . S
H3705 C3683 0.950 . S
C3706 C3707 1.349 . S
C3706 C3708 1.327 . S
C3706 H3731 0.950 . S
C3707 C3706 1.349 . S
C3707 C3723 1.387 . S
C3708 C3706 1.327 . S
C3708 C3727 1.429 . S
C3708 H3732 0.950 . S
C3709 C3726 1.574 . S
C3709 C3728 1.368 . S
C3709 H3733 0.949 1_554 S
H3710 C3714 0.949 . S
C3711 C3712 1.349 . S
C3711 C3713 1.327 . S
C3711 H3734 0.950 1_554 S
C3712 C3711 1.349 . S
C3712 C3724 1.349 . S
C3713 C3711 1.327 . S
C3713 C3729 1.429 . S
C3713 H3735 0.950 1_554 S
C3714 H3710 0.949 . S
C3714 C3722 1.574 . S
C3714 C3730 1.368 . S
H3715 C3723 0.902 1_556 S
H3716 C3721 0.950 1_556 S
H3717 C3722 0.949 . S
H3718 C3724 0.950 . S
H3719 C3725 0.950 . S
H3720 C3726 0.949 1_556 S
C3721 H3716 0.950 1_554 S
C3721 C3723 1.340 . S
C3721 C3727 1.429 . S
C3722 C3714 1.574 . S
C3722 H3717 0.949 . S
C3722 C3728 1.368 . S
C3723 C3707 1.387 . S
C3723 H3715 0.902 1_554 S
C3723 C3721 1.340 . S
C3724 C3712 1.349 . S
C3724 H3718 0.950 . S
C3724 C3725 1.327 . S
C3725 H3719 0.950 . S
C3725 C3724 1.327 . S
C3725 C3729 1.429 . S
C3726 C3709 1.574 . S
C3726 H3720 0.949 1_554 S
C3726 C3730 1.368 . S
C3727 C3708 1.429 . S
C3727 C3721 1.429 . S
C3727 C3728 1.523 . S
C3728 C3709 1.368 . S
C3728 C3722 1.368 . S
C3728 C3727 1.523 . S
C3729 C3713 1.429 . S
C3729 C3725 1.429 . S
C3729 C3730 1.523 . S
C3730 C3714 1.368 . S
C3730 C3726 1.368 . S
C3730 C3729 1.523 . S
H3731 C3706 0.950 . S
H3732 C3708 0.950 . S
H3733 C3709 0.949 1_556 S
H3734 C3711 0.950 1_556 S
H3735 C3713 0.950 1_556 S
C3736 C3737 1.349 . S
C3736 C3738 1.327 . S
C3736 H3761 0.950 . S
C3737 C3736 1.349 . S
C3737 C3753 1.349 . S
C3738 C3736 1.327 . S
C3738 C3757 1.429 . S
C3738 H3762 0.950 . S
C3739 C3756 1.574 . S
C3739 C3758 1.368 . S
C3739 H3763 0.949 . S
H3740 C3744 0.949 . S
C3741 C3742 1.349 . S
C3741 C3743 1.327 . S
C3741 H3764 0.950 . S
C3742 C3741 1.349 . S
C3742 C3754 1.349 . S
C3743 C3741 1.327 . S
C3743 C3759 1.429 . S
C3743 H3765 0.950 . S
C3744 H3740 0.949 . S
C3744 C3752 1.574 . S
C3744 C3760 1.368 . S
H3745 C3753 0.950 . S
H3746 C3751 0.950 . S
H3747 C3752 0.949 . S
H3748 C3754 0.950 . S
H3749 C3755 0.950 . S
H3750 C3756 0.949 . S
C3751 H3746 0.950 . S
C3751 C3753 1.327 . S
C3751 C3757 1.429 . S
C3752 C3744 1.574 . S
C3752 H3747 0.949 . S
C3752 C3758 1.368 . S
C3753 C3737 1.349 . S
C3753 H3745 0.950 . S
C3753 C3751 1.327 . S
C3754 C3742 1.349 . S
C3754 H3748 0.950 . S
C3754 C3755 1.327 . S
C3755 H3749 0.950 . S
C3755 C3754 1.327 . S
C3755 C3759 1.429 . S
C3756 C3739 1.574 . S
C3756 H3750 0.949 . S
C3756 C3760 1.368 . S
C3757 C3738 1.429 . S
C3757 C3751 1.429 . S
C3757 C3758 1.523 . S
C3758 C3739 1.368 . S
C3758 C3752 1.368 . S
C3758 C3757 1.523 . S
C3759 C3743 1.429 . S
C3759 C3755 1.429 . S
C3759 C3760 1.523 . S
C3760 C3744 1.368 . S
C3760 C3756 1.368 . S
C3760 C3759 1.523 . S
H3761 C3736 0.950 . S
H3762 C3738 0.950 . S
H3763 C3739 0.949 . S
H3764 C3741 0.950 . S
H3765 C3743 0.950 . S
C3766 C3767 1.349 . S
C3766 C3768 1.327 . S
C3766 H3791 0.950 . S
C3767 C3766 1.349 . S
C3767 C3783 1.349 . S
C3768 C3766 1.327 . S
C3768 C3787 1.429 . S
C3768 H3792 0.947 1_554 S
C3769 C3786 1.574 . S
C3769 C3788 1.368 . S
C3769 H3793 0.949 . S
H3770 C3774 0.949 1_556 S
C3771 C3772 1.349 . S
C3771 C3773 1.327 . S
C3771 H3794 0.950 . S
C3772 C3771 1.349 . S
C3772 C3784 1.346 1_554 S
C3773 C3771 1.327 . S
C3773 C3789 1.429 . S
C3773 H3795 0.950 . S
C3774 H3770 0.949 1_554 S
C3774 C3782 1.574 . S
C3774 C3790 1.368 . S
H3775 C3783 0.950 . S
H3776 C3781 0.950 . S
H3777 C3782 0.949 1_556 S
H3778 C3784 0.954 . S
H3779 C3785 0.950 1_556 S
H3780 C3786 0.949 . S
C3781 H3776 0.950 . S
C3781 C3783 1.327 . S
C3781 C3787 1.429 . S
C3782 C3774 1.574 . S
C3782 H3777 0.949 1_554 S
C3782 C3788 1.368 . S
C3783 C3767 1.349 . S
C3783 H3775 0.950 . S
C3783 C3781 1.327 . S
C3784 C3772 1.346 1_556 S
C3784 H3778 0.954 . S
C3784 C3785 1.326 1_556 S
C3785 H3779 0.950 1_554 S
C3785 C3784 1.326 1_554 S
C3785 C3789 1.429 . S
C3786 C3769 1.574 . S
C3786 H3780 0.949 . S
C3786 C3790 1.368 . S
C3787 C3768 1.429 . S
C3787 C3781 1.429 . S
C3787 C3788 1.523 . S
C3788 C3769 1.368 . S
C3788 C3782 1.368 . S
C3788 C3787 1.523 . S
C3789 C3773 1.429 . S
C3789 C3785 1.429 . S
C3789 C3790 1.523 . S
C3790 C3774 1.368 . S
C3790 C3786 1.368 . S
C3790 C3789 1.523 . S
H3791 C3766 0.950 . S
H3792 C3768 0.947 1_556 S
H3793 C3769 0.949 . S
H3794 C3771 0.950 . S
H3795 C3773 0.950 . S
C3796 C3797 1.349 . S
C3796 C3798 1.327 . S
C3796 H3821 0.950 . S
C3797 C3796 1.349 . S
C3797 C3813 1.349 . S
C3798 C3796 1.327 . S
C3798 C3817 1.429 . S
C3798 H3822 0.950 . S
C3799 C3816 1.574 . S
C3799 C3818 1.368 . S
C3799 H3823 0.949 . S
H3800 C3804 0.949 . S
C3801 C3802 1.349 . S
C3801 C3803 1.327 . S
C3801 H3824 0.950 . S
C3802 C3801 1.349 . S
C3802 C3814 1.349 . S
C3803 C3801 1.327 . S
C3803 C3819 1.429 . S
C3803 H3825 0.950 . S
C3804 H3800 0.949 . S
C3804 C3812 1.574 . S
C3804 C3820 1.368 . S
H3805 C3813 0.950 . S
H3806 C3811 0.950 . S
H3807 C3812 0.949 . S
H3808 C3814 0.950 . S
H3809 C3815 0.950 . S
H3810 C3816 0.949 . S
C3811 H3806 0.950 . S
C3811 C3813 1.327 . S
C3811 C3817 1.429 . S
C3812 C3804 1.574 . S
C3812 H3807 0.949 . S
C3812 C3818 1.368 . S
C3813 C3797 1.349 . S
C3813 H3805 0.950 . S
C3813 C3811 1.327 . S
C3814 C3802 1.349 . S
C3814 H3808 0.950 . S
C3814 C3815 1.327 . S
C3815 H3809 0.950 . S
C3815 C3814 1.327 . S
C3815 C3819 1.429 . S
C3816 C3799 1.574 . S
C3816 H3810 0.949 . S
C3816 C3820 1.368 . S
C3817 C3798 1.429 . S
C3817 C3811 1.429 . S
C3817 C3818 1.523 . S
C3818 C3799 1.368 . S
C3818 C3812 1.368 . S
C3818 C3817 1.523 . S
C3819 C3803 1.429 . S
C3819 C3815 1.429 . S
C3819 C3820 1.523 . S
C3820 C3804 1.368 . S
C3820 C3816 1.368 . S
C3820 C3819 1.523 . S
H3821 C3796 0.950 . S
H3822 C3798 0.950 . S
H3823 C3799 0.949 . S
H3824 C3801 0.950 . S
H3825 C3803 0.950 . S
C3826 C3827 1.349 . S
C3826 C3828 1.327 . S
C3826 H3851 0.950 . S
C3827 C3826 1.349 . S
C3827 C3843 1.349 . S
C3828 C3826 1.327 . S
C3828 C3847 1.429 . S
C3828 H3852 0.950 . S
C3829 C3846 1.574 . S
C3829 C3848 1.368 . S
C3829 H3853 0.949 . S
H3830 C3834 0.949 . S
C3831 C3832 1.349 . S
C3831 C3833 1.327 . S
C3831 H3854 0.950 . S
C3832 C3831 1.349 . S
C3832 C3844 1.349 . S
C3833 C3831 1.327 . S
C3833 C3849 1.429 . S
C3833 H3855 0.950 . S
C3834 H3830 0.949 . S
C3834 C3842 1.574 . S
C3834 C3850 1.368 . S
H3835 C3843 0.950 . S
H3836 C3841 0.950 . S
H3837 C3842 0.949 . S
H3838 C3844 0.950 . S
H3839 C3845 0.950 . S
H3840 C3846 0.949 . S
C3841 H3836 0.950 . S
C3841 C3843 1.327 . S
C3841 C3847 1.429 . S
C3842 C3834 1.574 . S
C3842 H3837 0.949 . S
C3842 C3848 1.368 . S
C3843 C3827 1.349 . S
C3843 H3835 0.950 . S
C3843 C3841 1.327 . S
C3844 C3832 1.349 . S
C3844 H3838 0.950 . S
C3844 C3845 1.327 . S
C3845 H3839 0.950 . S
C3845 C3844 1.327 . S
C3845 C3849 1.429 . S
C3846 C3829 1.574 . S
C3846 H3840 0.949 . S
C3846 C3850 1.368 . S
C3847 C3828 1.429 . S
C3847 C3841 1.429 . S
C3847 C3848 1.523 . S
C3848 C3829 1.368 . S
C3848 C3842 1.368 . S
C3848 C3847 1.523 . S
C3849 C3833 1.429 . S
C3849 C3845 1.429 . S
C3849 C3850 1.523 . S
C3850 C3834 1.368 . S
C3850 C3846 1.368 . S
C3850 C3849 1.523 . S
H3851 C3826 0.950 . S
H3852 C3828 0.950 . S
H3853 C3829 0.949 . S
H3854 C3831 0.950 . S
H3855 C3833 0.950 . S
C977 C106 1.363 . S
C982 C344 1.387 . S
C1007 C65 1.333 . S
C1012 C378 1.331 . S
C1037 C79 0.995 . S
C1042 C447 0.986 . S
C1072 C485 0.619 . S
C1067 C90 0.625 . S
C1097 C21 1.060 . S
C1102 C525 1.075 . S
C1132 C544 0.235 . S
C1127 C35 0.407 . S
C1162 C578 1.123 . S
C1157 C50 1.129 . S
C1187 C6 1.641 . S
C1192 C647 1.698 . S
C1222 C353 2.709 . S
C1217 C232 2.725 . S
C1247 C245 0.862 . S
C1252 C405 0.881 . S
C1282 C418 1.477 . S
C1277 C274 1.478 . S
C1312 C487 1.232 . S
C1307 C175 1.218 . S
C1337 C231 1.550 . S
C1342 C527 1.599 . S
C1372 C553 1.808 . S
C1367 C246 1.851 . S
C1402 C605 0.181 . S
C1397 C273 0.298 . S
C1432 C618 2.312 . S
C1427 C176 2.297 . S
C1462 C348 2.432 . S
C1457 C160 2.416 . S
C1487 C289 1.989 . S
C1492 C658 1.989 . S
C1522 C708 2.757 . S
C1517 C328 2.708 . S
C1552 C767 1.630 1_655 S
C1547 C317 1.608 . S
C1577 C118 1.328 . S
C1582 C645 1.372 . S
C1607 C132 1.380 . S
C1612 C445 1.430 . S
C1637 C331 2.532 . S
C1642 C778 2.516 . S
C1672 C847 1.050 . S
C1667 C303 1.056 . S
C1702 C365 0.946 . S
C1697 C63 0.934 . S
C1732 C833 1.740 . S
C1727 C107 1.729 . S
C1757 C92 0.687 . S
C1762 C428 0.686 . S
C1787 C78 1.221 . S
C1792 C784 1.241 . S
C1822 C504 1.550 . S
C1817 C8 1.565 . S
C1847 C51 0.400 . S
C1852 C725 0.383 . S
C1882 C593 1.631 1_556 S
C1877 C37 1.581 . S
C1912 C868 1.540 . S
C1907 C20 1.523 . S
C1942 C338 2.393 . S
C1937 C147 2.383 . S
C1972 C824 1.016 . S
C1967 C316 1.032 . S
C1997 C119 1.348 . S
C2002 C433 1.383 . S
C2027 C288 1.379 . S
C2032 C788 1.407 . S
C2057 C148 1.980 1_545 S
C2062 C508 1.996 . S
C2092 C698 1.858 . S
C2087 C315 1.820 . S
C2117 C120 0.356 . S
C2122 C584 0.352 . S
C2147 C287 2.142 . S
C2152 C873 2.155 . S
C2177 C188 2.344 . S
C2182 C367 2.344 1_655 S
C2207 C177 2.337 . S
C2212 C673 2.360 . S
C2237 C258 2.873 . S
C2242 C567 2.931 . S
C2267 C247 1.667 . S
C2272 C748 1.695 . S
C2302 C864 1.161 . S
C2297 C272 1.155 1_565 S
C2327 C216 1.172 . S
C2332 C424 1.200 . S
C2362 C473 2.858 . S
C2357 C261 2.856 . S
C2392 C388 1.039 . S
C2387 C205 1.044 . S
C2417 C76 0.999 . S
C2422 C904 1.034 . S
C2452 C818 1.435 . S
C2447 C93 1.436 . S
C2477 C105 0.586 . S
C2482 C967 0.566 . S
C2507 C62 0.644 . S
C2512 C805 0.637 . S
C2537 C49 1.033 . S
C2542 C685 1.044 . S
C2572 C704 0.612 . S
C2567 C9 0.613 . S
C2602 C738 1.047 . S
C2597 C22 1.050 . S
C2632 C887 2.080 . S
C2627 C36 2.082 . S
C2662 C913 2.603 . S
C2657 C260 2.624 . S
C2687 C189 0.693 . S
C2692 C845 0.683 . S
C2722 C938 1.342 . S
C2717 C204 1.342 . S
C2752 C807 1.039 . S
C2747 C217 1.033 . S
C2782 C687 1.880 . S
C2777 C259 1.817 . S
C2807 C190 1.969 . S
C2812 C713 1.930 . S
C2842 C765 0.206 . S
C2837 C203 0.318 . S
C2867 C218 2.407 . S
C2872 C858 2.422 . S
C2902 C908 2.340 . S
C2897 C314 2.320 . S
C2927 C135 2.080 . S
C2932 C498 2.077 . S
C2962 C548 2.630 . S
C2957 C146 2.581 . S
C2992 C607 1.676 . S
C2987 C163 1.646 . S
C3022 C885 1.397 . S
C3017 C300 1.357 . S
C3047 C286 1.328 . S
C3052 C965 1.386 . S
C3082 C458 2.432 . S
C3077 C149 2.439 . S
C3112 C407 0.991 . S
C3107 C121 1.001 . S
C3137 C91 0.911 . S
C3142 C925 0.922 . S
C3172 C393 1.292 . S
C3167 C77 1.245 . S
C3197 C64 0.633 . S
C3202 C948 0.629 . S
C3227 C104 0.843 . S
C3232 C464 0.851 . S
C3257 C34 1.153 . S
C3262 C664 1.165 . S
C3292 C565 0.357 . S
C3287 C23 0.380 . S
C3317 C7 1.150 . S
C3322 C753 1.203 . S
C3347 C48 1.481 . S
C3352 C628 1.509 . S
C3382 C898 2.380 . S
C3377 C329 2.374 . S
C3407 C162 0.999 . S
C3412 C384 0.987 . S
C3442 C953 1.404 1_556 S
C3437 C301 1.375 . S
C3467 C134 1.398 . S
C3472 C468 1.427 . S
C3497 C330 1.953 . S
C3502 C668 1.960 . S
C3532 C538 1.870 . S
C3527 C161 1.838 . S
C3557 C302 0.377 . S
C3562 C744 0.362 . S
C3592 C633 2.133 . S
C3587 C133 2.124 . S
C3622 C927 2.646 . S
C3617 C244 2.638 . S
C3652 C513 2.305 1_665 S
C3647 C219 2.275 . S
C3677 C230 2.505 . S
C3682 C727 2.555 . S
C3712 C588 1.678 . S
C3707 C191 1.653 . S
C3737 C202 1.338 . S
C3742 C624 1.348 . S
C3767 C174 1.406 . S
C3772 C944 1.445 . S
C3802 C793 2.837 . S
C3797 C233 2.825 1_565 S
C3832 C828 1.017 . S
C3827 C275 1.026 . S
