# Generated by pormake.
# Topology ocu, (6,8)-cn, num edge types: 1
# Building blocks:
#     Node 0, Type 0, BuildingBlock: KUMBUR_clean_sbu_0, # of connection points: 6
#     Node 1, Type 0, BuildingBlock: KUMBUR_clean_sbu_0, # of connection points: 6
#     Node 2, Type 0, BuildingBlock: KUMBUR_clean_sbu_0, # of connection points: 6
#     Node 3, Type 0, BuildingBlock: KUMBUR_clean_sbu_0, # of connection points: 6
#     Node 4, Type 0, BuildingBlock: KUMBUR_clean_sbu_0, # of connection points: 6
#     Node 5, Type 0, BuildingBlock: KUMBUR_clean_sbu_0, # of connection points: 6
#     Node 6, Type 0, BuildingBlock: KUMBUR_clean_sbu_0, # of connection points: 6
#     Node 7, Type 0, BuildingBlock: KUMBUR_clean_sbu_0, # of connection points: 6
#     Node 8, Type 1, BuildingBlock: VETTIZ_charged_sbu_0, # of connection points: 8
#     Node 9, Type 1, BuildingBlock: VETTIZ_charged_sbu_0, # of connection points: 8
#     Node 10, Type 1, BuildingBlock: VETTIZ_charged_sbu_0, # of connection points: 8
#     Node 11, Type 1, BuildingBlock: VETTIZ_charged_sbu_0, # of connection points: 8
#     Node 12, Type 1, BuildingBlock: VETTIZ_charged_sbu_0, # of connection points: 8
#     Node 13, Type 1, BuildingBlock: VETTIZ_charged_sbu_0, # of connection points: 8
#     Edge 14, Type (0, 1), BuildingBlock: UVAHIK_clean_linker_0, # of connection points: 2
#     Edge 15, Type (0, 1), BuildingBlock: UVAHIK_clean_linker_0, # of connection points: 2
#     Edge 16, Type (0, 1), BuildingBlock: UVAHIK_clean_linker_0, # of connection points: 2
#     Edge 17, Type (0, 1), BuildingBlock: UVAHIK_clean_linker_0, # of connection points: 2
#     Edge 18, Type (0, 1), BuildingBlock: UVAHIK_clean_linker_0, # of connection points: 2
#     Edge 19, Type (0, 1), BuildingBlock: UVAHIK_clean_linker_0, # of connection points: 2
#     Edge 20, Type (0, 1), BuildingBlock: UVAHIK_clean_linker_0, # of connection points: 2
#     Edge 21, Type (0, 1), BuildingBlock: UVAHIK_clean_linker_0, # of connection points: 2
#     Edge 22, Type (0, 1), BuildingBlock: UVAHIK_clean_linker_0, # of connection points: 2
#     Edge 23, Type (0, 1), BuildingBlock: UVAHIK_clean_linker_0, # of connection points: 2
#     Edge 24, Type (0, 1), BuildingBlock: UVAHIK_clean_linker_0, # of connection points: 2
#     Edge 25, Type (0, 1), BuildingBlock: UVAHIK_clean_linker_0, # of connection points: 2
#     Edge 26, Type (0, 1), BuildingBlock: UVAHIK_clean_linker_0, # of connection points: 2
#     Edge 27, Type (0, 1), BuildingBlock: UVAHIK_clean_linker_0, # of connection points: 2
#     Edge 28, Type (0, 1), BuildingBlock: UVAHIK_clean_linker_0, # of connection points: 2
#     Edge 29, Type (0, 1), BuildingBlock: UVAHIK_clean_linker_0, # of connection points: 2
#     Edge 30, Type (0, 1), BuildingBlock: UVAHIK_clean_linker_0, # of connection points: 2
#     Edge 31, Type (0, 1), BuildingBlock: UVAHIK_clean_linker_0, # of connection points: 2
#     Edge 32, Type (0, 1), BuildingBlock: UVAHIK_clean_linker_0, # of connection points: 2
#     Edge 33, Type (0, 1), BuildingBlock: UVAHIK_clean_linker_0, # of connection points: 2
#     Edge 34, Type (0, 1), BuildingBlock: UVAHIK_clean_linker_0, # of connection points: 2
#     Edge 35, Type (0, 1), BuildingBlock: UVAHIK_clean_linker_0, # of connection points: 2
#     Edge 36, Type (0, 1), BuildingBlock: UVAHIK_clean_linker_0, # of connection points: 2
#     Edge 37, Type (0, 1), BuildingBlock: UVAHIK_clean_linker_0, # of connection points: 2
#     Edge 38, Type (0, 1), BuildingBlock: UVAHIK_clean_linker_0, # of connection points: 2
#     Edge 39, Type (0, 1), BuildingBlock: UVAHIK_clean_linker_0, # of connection points: 2
#     Edge 40, Type (0, 1), BuildingBlock: UVAHIK_clean_linker_0, # of connection points: 2
#     Edge 41, Type (0, 1), BuildingBlock: UVAHIK_clean_linker_0, # of connection points: 2
#     Edge 42, Type (0, 1), BuildingBlock: UVAHIK_clean_linker_0, # of connection points: 2
#     Edge 43, Type (0, 1), BuildingBlock: UVAHIK_clean_linker_0, # of connection points: 2
#     Edge 44, Type (0, 1), BuildingBlock: UVAHIK_clean_linker_0, # of connection points: 2
#     Edge 45, Type (0, 1), BuildingBlock: UVAHIK_clean_linker_0, # of connection points: 2
#     Edge 46, Type (0, 1), BuildingBlock: UVAHIK_clean_linker_0, # of connection points: 2
#     Edge 47, Type (0, 1), BuildingBlock: UVAHIK_clean_linker_0, # of connection points: 2
#     Edge 48, Type (0, 1), BuildingBlock: UVAHIK_clean_linker_0, # of connection points: 2
#     Edge 49, Type (0, 1), BuildingBlock: UVAHIK_clean_linker_0, # of connection points: 2
#     Edge 50, Type (0, 1), BuildingBlock: UVAHIK_clean_linker_0, # of connection points: 2
#     Edge 51, Type (0, 1), BuildingBlock: UVAHIK_clean_linker_0, # of connection points: 2
#     Edge 52, Type (0, 1), BuildingBlock: UVAHIK_clean_linker_0, # of connection points: 2
#     Edge 53, Type (0, 1), BuildingBlock: UVAHIK_clean_linker_0, # of connection points: 2
#     Edge 54, Type (0, 1), BuildingBlock: UVAHIK_clean_linker_0, # of connection points: 2
#     Edge 55, Type (0, 1), BuildingBlock: UVAHIK_clean_linker_0, # of connection points: 2
#     Edge 56, Type (0, 1), BuildingBlock: UVAHIK_clean_linker_0, # of connection points: 2
#     Edge 57, Type (0, 1), BuildingBlock: UVAHIK_clean_linker_0, # of connection points: 2
#     Edge 58, Type (0, 1), BuildingBlock: UVAHIK_clean_linker_0, # of connection points: 2
#     Edge 59, Type (0, 1), BuildingBlock: UVAHIK_clean_linker_0, # of connection points: 2
#     Edge 60, Type (0, 1), BuildingBlock: UVAHIK_clean_linker_0, # of connection points: 2
#     Edge 61, Type (0, 1), BuildingBlock: UVAHIK_clean_linker_0, # of connection points: 2
# Relax obj value: 0.106
# Max RMSD: 0.250
# Mean RMSD: 0.161
data_MOF--net-ocu--node1-KUMBUR_clean_sbu_0--node2-VETTIZ_charged_sbu_0--edge1-UVAHIK_clean_linker_0
_symmetry_space_group_name_H-M    P1
_symmetry_Int_Tables_number       1
_symmetry_cell_setting            triclinic
loop_
_symmetry_equiv_pos_as_xyz
'x, y, z'
_cell_length_a     47.875765
_cell_length_b     48.818927
_cell_length_c     52.121179
_cell_angle_alpha  80.234785
_cell_angle_beta   98.052308
_cell_angle_gamma 101.83662
loop_
_atom_site_label
_atom_site_type_symbol
_atom_site_fract_x
_atom_site_fract_y
_atom_site_fract_z
_atom_type_partial_charge
Tb0 Tb 0.26958 0.23631 0.24027 0.0
C1 C 0.36345 0.3215 0.29371 0.0
C2 C 0.378 0.29586 0.33564 0.0
C3 C 0.41215 0.33391 0.31446 0.0
C4 C 0.35721 0.30021 0.3141 0.0
C5 C 0.39069 0.33925 0.29395 0.0
C6 C 0.40581 0.31219 0.3353 0.0
C7 C 0.37227 0.36812 0.25555 0.0
N8 N 0.34195 0.32618 0.27463 0.0
C9 C 0.34562 0.34986 0.25621 0.0
C10 C 0.39508 0.36251 0.27423 0.0
Tb11 Tb 0.29913 0.29487 0.27686 0.0
N12 N 0.32993 0.28553 0.31388 0.0
C13 C 0.32129 0.2682 0.33599 0.0
C14 C 0.3698 0.2763 0.35739 0.0
C15 C 0.34114 0.26288 0.35778 0.0
H16 H 0.32831 0.35443 0.24153 0.0
H17 H 0.3343 0.24838 0.37483 0.0
H18 H 0.4222 0.30894 0.35151 0.0
H19 H 0.37523 0.38642 0.24055 0.0
H20 H 0.29925 0.2576 0.33673 0.0
H21 H 0.23241 0.2841 0.14337 0.0
H22 H 0.3851 0.27226 0.37433 0.0
H23 H 0.24108 0.17646 0.27596 0.0
H24 H 0.2678 0.27536 0.18117 0.0
H25 H 0.19482 0.14363 0.27684 0.0
H26 H 0.43334 0.34708 0.31487 0.0
H27 H 0.18221 0.25837 0.14365 0.0
H28 H 0.14607 0.22033 0.16616 0.0
H29 H 0.41567 0.37671 0.27372 0.0
H30 H 0.13583 0.1817 0.20259 0.0
N31 N 0.23817 0.24545 0.20358 0.0
C32 C 0.24617 0.26373 0.18177 0.0
C33 C 0.19774 0.25443 0.16043 0.0
C34 C 0.19014 0.23421 0.18192 0.0
C35 C 0.22605 0.26888 0.16016 0.0
C36 C 0.21119 0.23005 0.2033 0.0
H37 H 0.15416 0.15243 0.24362 0.0
N38 N 0.2271 0.20436 0.24267 0.0
C39 C 0.19744 0.16194 0.26183 0.0
C40 C 0.20543 0.20858 0.22362 0.0
C41 C 0.22376 0.18074 0.26121 0.0
C42 C 0.17451 0.16703 0.24312 0.0
C43 C 0.17847 0.19033 0.22341 0.0
O44 O 0.28445 0.19827 0.24162 0.0
O45 O 0.30164 0.25269 0.27063 0.0
O46 O 0.33122 0.2931 0.25134 0.0
O47 O 0.30116 0.26901 0.21984 0.0
O48 O 0.28445 0.21051 0.27606 0.0
O49 O 0.2881 0.23011 0.20779 0.0
O50 O 0.28345 0.33277 0.27375 0.0
O51 O 0.26689 0.27811 0.24703 0.0
O52 O 0.2369 0.2387 0.2652 0.0
O53 O 0.26685 0.26276 0.29686 0.0
O54 O 0.28387 0.32022 0.2408 0.0
O55 O 0.28238 0.30341 0.30932 0.0
C56 C 0.30262 0.22986 0.2863 0.0
C57 C 0.2835 0.18275 0.20087 0.0
C58 C 0.29643 0.15359 0.172 0.0
C59 C 0.30431 0.17483 0.1884 0.0
C60 C 0.26737 0.14035 0.16862 0.0
C61 C 0.25473 0.16938 0.1969 0.0
C62 C 0.24678 0.14827 0.18091 0.0
C63 C 0.32549 0.28549 0.22762 0.0
C64 C 0.29212 0.20484 0.21804 0.0
C65 C 0.15681 0.19528 0.20298 0.0
C66 C 0.16263 0.21726 0.18225 0.0
C67 C 0.26528 0.30064 0.23121 0.0
C68 C 0.28441 0.35146 0.3128 0.0
C69 C 0.26249 0.36247 0.32063 0.0
C70 C 0.26912 0.38577 0.33462 0.0
C71 C 0.29823 0.39776 0.34052 0.0
C72 C 0.31317 0.36362 0.31913 0.0
C73 C 0.31999 0.38668 0.3329 0.0
C74 C 0.24187 0.24781 0.28835 0.0
C75 C 0.27671 0.32766 0.29761 0.0
H76 H 0.32649 0.18547 0.19122 0.0
H77 H 0.26051 0.12357 0.15667 0.0
H78 H 0.23843 0.1751 0.20623 0.0
H79 H 0.22454 0.1379 0.17809 0.0
H80 H 0.24031 0.35264 0.31601 0.0
H81 H 0.30429 0.41599 0.35076 0.0
H82 H 0.3303 0.35542 0.31331 0.0
H83 H 0.34225 0.39614 0.33758 0.0
Tb84 Tb 0.80173 0.24419 0.25314 0.0
C85 C 0.74651 0.29052 0.33154 0.0
C86 C 0.70856 0.25351 0.34765 0.0
C87 C 0.73395 0.28781 0.37563 0.0
C88 C 0.72627 0.26672 0.32789 0.0
C89 C 0.75042 0.30167 0.35531 0.0
C90 C 0.71294 0.26381 0.37176 0.0
C91 C 0.7846 0.34065 0.33624 0.0
N92 N 0.76169 0.30336 0.31129 0.0
C93 C 0.77957 0.32899 0.3129 0.0
C94 C 0.77023 0.32676 0.35766 0.0
Tb95 Tb 0.75316 0.28178 0.27414 0.0
N96 N 0.72292 0.2574 0.30439 0.0
C97 C 0.70075 0.23586 0.29884 0.0
C98 C 0.68646 0.23097 0.34228 0.0
C99 C 0.6823 0.22237 0.31763 0.0
H100 H 0.79092 0.34004 0.29661 0.0
H101 H 0.66503 0.20517 0.31312 0.0
H102 H 0.6998 0.25374 0.38731 0.0
H103 H 0.79954 0.36038 0.33765 0.0
H104 H 0.69716 0.22876 0.27995 0.0
H105 H 0.9006 0.23691 0.31628 0.0
H106 H 0.67218 0.22043 0.35681 0.0
H107 H 0.79102 0.26277 0.18752 0.0
H108 H 0.84822 0.22808 0.30439 0.0
H109 H 0.81963 0.28478 0.15194 0.0
H110 H 0.73676 0.29589 0.39413 0.0
H111 H 0.93281 0.264 0.28386 0.0
H112 H 0.93852 0.28781 0.23775 0.0
H113 H 0.77401 0.33593 0.37565 0.0
H114 H 0.91645 0.30022 0.19284 0.0
N115 N 0.85038 0.25126 0.26591 0.0
C116 C 0.86198 0.24006 0.29006 0.0
C117 C 0.90978 0.26039 0.2786 0.0
C118 C 0.89798 0.26987 0.25337 0.0
C119 C 0.89168 0.24504 0.29692 0.0
C120 C 0.86784 0.26467 0.24753 0.0
H121 H 0.87223 0.29895 0.16064 0.0
N122 N 0.8264 0.26516 0.21769 0.0
C123 C 0.83002 0.28138 0.17174 0.0
C124 C 0.85543 0.27165 0.22246 0.0
C125 C 0.81371 0.26898 0.19241 0.0
C126 C 0.85968 0.28932 0.1767 0.0
C127 C 0.87283 0.28412 0.20224 0.0
O128 O 0.77988 0.2127 0.23042 0.0
O129 O 0.76586 0.24159 0.27517 0.0
O130 O 0.78861 0.27852 0.30491 0.0
O131 O 0.82443 0.27404 0.28043 0.0
O132 O 0.7957 0.21755 0.29124 0.0
O133 O 0.81778 0.20679 0.25582 0.0
O134 O 0.74282 0.32081 0.25566 0.0
O135 O 0.7832 0.28114 0.24674 0.0
O136 O 0.7655 0.25047 0.22286 0.0
O137 O 0.7303 0.251 0.24862 0.0
O138 O 0.78277 0.31939 0.2569 0.0
O139 O 0.70997 0.28398 0.26149 0.0
C140 C 0.77227 0.22428 0.29491 0.0
C141 C 0.78095 0.16658 0.25321 0.0
C142 C 0.78014 0.12538 0.28717 0.0
C143 C 0.79357 0.15221 0.27612 0.0
C144 C 0.75374 0.11265 0.27513 0.0
C145 C 0.75434 0.15373 0.24147 0.0
C146 C 0.74081 0.12694 0.25247 0.0
C147 C 0.8158 0.28072 0.30138 0.0
C148 C 0.79579 0.19466 0.24165 0.0
C149 C 0.90278 0.29046 0.20806 0.0
C150 C 0.91534 0.28342 0.23362 0.0
C151 C 0.79501 0.3068 0.24323 0.0
C152 C 0.70519 0.31384 0.22141 0.0
C153 C 0.67817 0.29872 0.21297 0.0
C154 C 0.66722 0.30178 0.18638 0.0
C155 C 0.68416 0.32029 0.16824 0.0
C156 C 0.72157 0.33218 0.20296 0.0
C157 C 0.71111 0.33518 0.17652 0.0
C158 C 0.73801 0.24702 0.22638 0.0
C159 C 0.71624 0.30956 0.24936 0.0
H160 H 0.8143 0.16159 0.28523 0.0
H161 H 0.74319 0.09181 0.28328 0.0
H162 H 0.74408 0.16432 0.22378 0.0
H163 H 0.72036 0.11714 0.24328 0.0
H164 H 0.66584 0.28438 0.22728 0.0
H165 H 0.67633 0.32414 0.1477 0.0
H166 H 0.74245 0.34419 0.20888 0.0
H167 H 0.72378 0.34944 0.1624 0.0
Tb168 Tb 0.75131 0.74339 0.28709 0.0
C169 C 0.81365 0.82451 0.20361 0.0
C170 C 0.77628 0.83069 0.16792 0.0
C171 C 0.8161 0.86943 0.17466 0.0
C172 C 0.78772 0.81397 0.19019 0.0
C173 C 0.82871 0.85191 0.19529 0.0
C174 C 0.78991 0.85881 0.16097 0.0
C175 C 0.86963 0.84081 0.22496 0.0
N176 N 0.82559 0.80675 0.2229 0.0
C177 C 0.854 0.81373 0.23219 0.0
C178 C 0.85668 0.86026 0.20689 0.0
Tb179 Tb 0.7971 0.76394 0.23517 0.0
N180 N 0.77527 0.78653 0.19735 0.0
C181 C 0.75355 0.77375 0.18071 0.0
C182 C 0.7523 0.81829 0.15252 0.0
C183 C 0.74139 0.78954 0.15858 0.0
H184 H 0.86425 0.79875 0.24601 0.0
H185 H 0.72359 0.77942 0.14614 0.0
H186 H 0.78107 0.87209 0.14428 0.0
H187 H 0.89169 0.84659 0.23322 0.0
H188 H 0.74475 0.75153 0.18402 0.0
H189 H 0.82694 0.72325 0.3726 0.0
H190 H 0.74286 0.83039 0.13532 0.0
H191 H 0.68495 0.70938 0.27361 0.0
H192 H 0.80551 0.75229 0.33498 0.0
H193 H 0.65603 0.662 0.28555 0.0
H194 H 0.82711 0.89071 0.1683 0.0
H195 H 0.80556 0.67271 0.38379 0.0
H196 H 0.765 0.63226 0.37547 0.0
H197 H 0.86895 0.88112 0.20106 0.0
H198 H 0.71804 0.61545 0.35168 0.0
N199 N 0.77239 0.71853 0.32373 0.0
C200 C 0.79561 0.73038 0.33937 0.0
C201 C 0.79597 0.6854 0.3671 0.0
C202 C 0.77092 0.67395 0.35235 0.0
C203 C 0.80801 0.71392 0.3609 0.0
C204 C 0.75943 0.6914 0.33074 0.0
H205 H 0.67683 0.62664 0.31841 0.0
N206 N 0.72225 0.70057 0.2985 0.0
C207 C 0.67784 0.66726 0.2946 0.0
C208 C 0.73329 0.68201 0.31754 0.0
C209 C 0.69429 0.69411 0.28789 0.0
C210 C 0.68968 0.64733 0.31306 0.0
C211 C 0.71753 0.65482 0.32527 0.0
O212 O 0.71337 0.7549 0.2946 0.0
O213 O 0.75982 0.77149 0.25047 0.0
O214 O 0.81044 0.7972 0.26041 0.0
O215 O 0.78547 0.77851 0.2968 0.0
O216 O 0.71795 0.75442 0.25619 0.0
O217 O 0.75345 0.76753 0.31737 0.0
O218 O 0.80753 0.72545 0.22969 0.0
O219 O 0.78928 0.73696 0.272 0.0
O220 O 0.743 0.70835 0.26399 0.0
O221 O 0.75983 0.73199 0.22464 0.0
O222 O 0.83055 0.75706 0.26731 0.0
O223 O 0.82421 0.76397 0.20645 0.0
C224 C 0.73407 0.77114 0.24023 0.0
C225 C 0.71161 0.7619 0.33821 0.0
C226 C 0.68985 0.77914 0.37081 0.0
C227 C 0.70296 0.78408 0.34738 0.0
C228 C 0.68544 0.75151 0.38471 0.0
C229 C 0.70707 0.73466 0.35251 0.0
C230 C 0.69399 0.72953 0.37559 0.0
C231 C 0.80454 0.79776 0.28437 0.0
C232 C 0.72608 0.76777 0.31416 0.0
C233 C 0.72962 0.63657 0.34563 0.0
C234 C 0.75634 0.64614 0.35917 0.0
C235 C 0.81492 0.73892 0.28288 0.0
C236 C 0.8529 0.72862 0.21541 0.0
C237 C 0.85882 0.71148 0.1984 0.0
C238 C 0.88564 0.70276 0.20152 0.0
C239 C 0.90603 0.71098 0.22237 0.0
C240 C 0.87409 0.73722 0.2354 0.0
C241 C 0.9003 0.72819 0.23899 0.0
C242 C 0.74504 0.71004 0.23866 0.0
C243 C 0.82457 0.73716 0.21208 0.0
H244 H 0.7069 0.80523 0.33648 0.0
H245 H 0.67501 0.74675 0.4025 0.0
H246 H 0.71368 0.7174 0.34591 0.0
H247 H 0.69045 0.7084 0.38648 0.0
H248 H 0.84274 0.7054 0.18256 0.0
H249 H 0.92649 0.70405 0.22596 0.0
H250 H 0.87068 0.75094 0.2483 0.0
H251 H 0.91632 0.73462 0.25474 0.0
Tb252 Tb 0.29878 0.73117 0.27148 0.0
C253 C 0.25369 0.82675 0.19453 0.0
C254 C 0.29513 0.86329 0.18608 0.0
C255 C 0.25432 0.85763 0.15272 0.0
C256 C 0.28089 0.84021 0.20251 0.0
C257 C 0.2397 0.83569 0.16981 0.0
C258 C 0.28202 0.87143 0.16086 0.0
C259 C 0.19697 0.80283 0.18197 0.0
N260 N 0.24021 0.80607 0.21183 0.0
C261 C 0.21173 0.79489 0.20635 0.0
C262 C 0.21113 0.82304 0.16346 0.0
Tb263 Tb 0.26624 0.79388 0.25109 0.0
N264 N 0.29255 0.83187 0.22713 0.0
C265 C 0.31772 0.84721 0.23716 0.0
C266 C 0.32164 0.87803 0.19581 0.0
C267 C 0.33277 0.8702 0.22161 0.0
H268 H 0.20057 0.77914 0.22041 0.0
H269 H 0.35303 0.88176 0.22951 0.0
H270 H 0.29276 0.88888 0.14781 0.0
H271 H 0.17469 0.79333 0.17748 0.0
H272 H 0.3268 0.84147 0.25698 0.0
H273 H 0.21359 0.64252 0.29547 0.0
H274 H 0.33335 0.89582 0.18381 0.0
H275 H 0.36429 0.74876 0.30204 0.0
H276 H 0.23904 0.68245 0.26703 0.0
H277 H 0.39039 0.73666 0.34534 0.0
H278 H 0.24407 0.86464 0.13353 0.0
H279 H 0.23383 0.63007 0.34132 0.0
H280 H 0.27453 0.63876 0.37692 0.0
H281 H 0.19961 0.82928 0.14465 0.0
H282 H 0.32281 0.66442 0.39054 0.0
N283 N 0.27342 0.69327 0.29633 0.0
C284 C 0.24838 0.6773 0.28683 0.0
C285 C 0.24521 0.64765 0.32884 0.0
C286 C 0.27159 0.66306 0.33807 0.0
C287 C 0.23377 0.65456 0.30297 0.0
C288 C 0.2854 0.68582 0.32103 0.0
H289 H 0.36641 0.70074 0.37874 0.0
N290 N 0.32542 0.72051 0.31085 0.0
C291 C 0.36842 0.72622 0.34091 0.0
C292 C 0.31244 0.69997 0.3286 0.0
C293 C 0.35354 0.73294 0.3163 0.0
C294 C 0.35479 0.706 0.35974 0.0
C295 C 0.32659 0.69223 0.35355 0.0
O296 O 0.33414 0.72046 0.25824 0.0
O297 O 0.29885 0.77118 0.24625 0.0
O298 O 0.25844 0.76993 0.21816 0.0
O299 O 0.26218 0.72492 0.24071 0.0
O300 O 0.33774 0.76051 0.25946 0.0
O301 O 0.2917 0.6959 0.25148 0.0
O302 O 0.23079 0.80345 0.26517 0.0
O303 O 0.26595 0.7537 0.27592 0.0
O304 O 0.3044 0.75432 0.30465 0.0
O305 O 0.30252 0.79968 0.28237 0.0
O306 O 0.22713 0.76465 0.26282 0.0
O307 O 0.27267 0.82937 0.27075 0.0
C308 C 0.32539 0.77945 0.24485 0.0
C309 C 0.33091 0.67204 0.25651 0.0
C310 C 0.35684 0.63836 0.24486 0.0
C311 C 0.34416 0.66267 0.23805 0.0
C312 C 0.35591 0.62368 0.27053 0.0
C313 C 0.33007 0.65687 0.28182 0.0
C314 C 0.3425 0.63284 0.28876 0.0
C315 C 0.25307 0.74198 0.21988 0.0
C316 C 0.31888 0.69811 0.24926 0.0
C317 C 0.31243 0.67054 0.37117 0.0
C318 C 0.28494 0.65594 0.36342 0.0
C319 C 0.23938 0.74551 0.27726 0.0
C320 C 0.23228 0.85162 0.26621 0.0
C321 C 0.21648 0.85896 0.28394 0.0
C322 C 0.20223 0.88213 0.2768 0.0
C323 C 0.20405 0.89784 0.25167 0.0
C324 C 0.23412 0.86782 0.24136 0.0
C325 C 0.22003 0.89076 0.23415 0.0
C326 C 0.3101 0.78216 0.30346 0.0
C327 C 0.24553 0.8263 0.27356 0.0
H328 H 0.34438 0.67426 0.21839 0.0
H329 H 0.36592 0.60532 0.27673 0.0
H330 H 0.31999 0.66361 0.29626 0.0
H331 H 0.34195 0.62138 0.30844 0.0
H332 H 0.21489 0.84637 0.30311 0.0
H333 H 0.19352 0.91591 0.24573 0.0
H334 H 0.2463 0.86274 0.22752 0.0
H335 H 0.22151 0.90312 0.21491 0.0
Tb336 Tb 0.31281 0.72537 0.76113 0.0
C337 C 0.21912 0.75795 0.80261 0.0
C338 C 0.17327 0.75472 0.77574 0.0
C339 C 0.17448 0.7437 0.82298 0.0
C340 C 0.2036 0.7599 0.77821 0.0
C341 C 0.20458 0.75046 0.82535 0.0
C342 C 0.15884 0.74585 0.79821 0.0
C343 C 0.25026 0.7589 0.85128 0.0
N344 N 0.24831 0.76439 0.80413 0.0
C345 C 0.26378 0.7661 0.82833 0.0
C346 C 0.22061 0.75052 0.84984 0.0
Tb347 Tb 0.26747 0.77418 0.76417 0.0
N348 N 0.21817 0.76866 0.75693 0.0
C349 C 0.20355 0.77527 0.73277 0.0
C350 C 0.15832 0.7595 0.75085 0.0
C351 C 0.17357 0.7703 0.72932 0.0
H352 H 0.28667 0.77227 0.83098 0.0
H353 H 0.16228 0.77478 0.71004 0.0
H354 H 0.13559 0.7414 0.79667 0.0
H355 H 0.26287 0.75964 0.87017 0.0
H356 H 0.2151 0.78336 0.71586 0.0
H357 H 0.41591 0.79732 0.75284 0.0
H358 H 0.13506 0.75577 0.74818 0.0
H359 H 0.2837 0.67546 0.7222 0.0
H360 H 0.37754 0.76852 0.77623 0.0
H361 H 0.28142 0.67063 0.67587 0.0
H362 H 0.16307 0.73751 0.84022 0.0
H363 H 0.4152 0.79786 0.70537 0.0
H364 H 0.391 0.77993 0.66434 0.0
H365 H 0.21027 0.74479 0.86771 0.0
H366 H 0.35307 0.74669 0.64281 0.0
N367 N 0.35198 0.75345 0.74224 0.0
C368 C 0.37525 0.7688 0.75542 0.0
C369 C 0.39755 0.78521 0.71549 0.0
C370 C 0.37484 0.7684 0.70227 0.0
C371 C 0.39794 0.78505 0.74223 0.0
C372 C 0.35238 0.75209 0.71639 0.0
H373 H 0.31201 0.70592 0.64684 0.0
N374 N 0.31094 0.71631 0.71873 0.0
C375 C 0.29485 0.68892 0.68329 0.0
C376 C 0.33082 0.73351 0.70414 0.0
C377 C 0.29564 0.69225 0.70949 0.0
C378 C 0.31219 0.7088 0.66703 0.0
C379 C 0.33151 0.73062 0.6777 0.0
O380 O 0.30781 0.68118 0.77294 0.0
O381 O 0.27602 0.73226 0.77729 0.0
O382 O 0.30543 0.78183 0.7927 0.0
O383 O 0.33518 0.74951 0.79175 0.0
O384 O 0.30373 0.71082 0.80204 0.0
O385 O 0.34909 0.70668 0.76586 0.0
O386 O 0.29553 0.81358 0.76426 0.0
O387 O 0.30364 0.76731 0.74697 0.0
O388 O 0.26998 0.70924 0.74268 0.0
O389 O 0.24364 0.74543 0.73689 0.0
O390 O 0.27107 0.78231 0.72221 0.0
O391 O 0.25023 0.81147 0.75811 0.0
C392 C 0.2797 0.71936 0.80022 0.0
C393 C 0.3478 0.67164 0.80259 0.0
C394 C 0.38084 0.68027 0.84175 0.0
C395 C 0.36752 0.69013 0.81726 0.0
C396 C 0.3727 0.65158 0.85225 0.0
C397 C 0.33994 0.64323 0.81328 0.0
C398 C 0.35216 0.63335 0.83819 0.0
C399 C 0.3291 0.77121 0.80053 0.0
C400 C 0.33546 0.68239 0.77628 0.0
C401 C 0.35259 0.7483 0.66322 0.0
C402 C 0.37428 0.76708 0.67551 0.0
C403 C 0.29649 0.77686 0.72324 0.0
C404 C 0.27889 0.84698 0.73107 0.0
C405 C 0.2577 0.84422 0.70972 0.0
C406 C 0.2627 0.85859 0.68467 0.0
C407 C 0.28925 0.87656 0.68111 0.0
C408 C 0.30508 0.86552 0.72737 0.0
C409 C 0.31016 0.88025 0.70248 0.0
C410 C 0.24742 0.72064 0.73247 0.0
C411 C 0.27515 0.82774 0.75596 0.0
H412 H 0.37299 0.71229 0.80935 0.0
H413 H 0.38286 0.6429 0.87088 0.0
H414 H 0.3245 0.62875 0.80238 0.0
H415 H 0.34622 0.61132 0.84638 0.0
H416 H 0.23751 0.82997 0.71229 0.0
H417 H 0.29365 0.88802 0.66198 0.0
H418 H 0.32193 0.86781 0.74348 0.0
H419 H 0.33057 0.89415 0.69966 0.0
Tb420 Tb 0.25862 0.2558 0.7863 0.0
C421 C 0.32212 0.33819 0.70383 0.0
C422 C 0.28379 0.34887 0.67045 0.0
C423 C 0.32643 0.38466 0.6773 0.0
C424 C 0.29506 0.33011 0.69114 0.0
C425 C 0.33852 0.36521 0.69639 0.0
C426 C 0.29909 0.37649 0.66433 0.0
C427 C 0.37895 0.35046 0.72439 0.0
N428 N 0.33336 0.31867 0.72181 0.0
C429 C 0.36197 0.32389 0.73093 0.0
C430 C 0.36702 0.37142 0.70746 0.0
Tb431 Tb 0.3025 0.27684 0.73289 0.0
N432 N 0.28096 0.30312 0.69745 0.0
C433 C 0.25729 0.29278 0.68144 0.0
C434 C 0.25817 0.33893 0.65569 0.0
C435 C 0.24528 0.31057 0.6608 0.0
H436 H 0.3715 0.30816 0.74433 0.0
H437 H 0.22594 0.30237 0.64893 0.0
H438 H 0.29049 0.3913 0.64885 0.0
H439 H 0.40123 0.35475 0.73246 0.0
H440 H 0.24658 0.2712 0.6847 0.0
H441 H 0.33025 0.23493 0.87438 0.0
H442 H 0.24878 0.35265 0.63971 0.0
H443 H 0.19313 0.22181 0.76881 0.0
H444 H 0.31145 0.26388 0.83515 0.0
H445 H 0.16292 0.17515 0.78056 0.0
H446 H 0.33852 0.40565 0.67163 0.0
H447 H 0.30706 0.18498 0.88582 0.0
H448 H 0.2664 0.14508 0.87639 0.0
H449 H 0.38029 0.39192 0.70227 0.0
H450 H 0.22062 0.12864 0.85066 0.0
N451 N 0.27816 0.23058 0.82338 0.0
C452 C 0.3009 0.24218 0.83964 0.0
C453 C 0.29867 0.1976 0.86842 0.0
C454 C 0.27429 0.18636 0.85272 0.0
C455 C 0.31174 0.2258 0.86207 0.0
C456 C 0.26432 0.20371 0.83024 0.0
H457 H 0.18146 0.13999 0.81523 0.0
N458 N 0.22895 0.21296 0.79594 0.0
C459 C 0.1843 0.18025 0.79057 0.0
C460 C 0.23877 0.19449 0.81589 0.0
C461 C 0.2015 0.20672 0.784 0.0
C462 C 0.19489 0.16041 0.81006 0.0
C463 C 0.2222 0.16763 0.82341 0.0
O464 O 0.22089 0.26856 0.79236 0.0
O465 O 0.26668 0.28482 0.75016 0.0
O466 O 0.31719 0.30969 0.75846 0.0
O467 O 0.29351 0.29069 0.79574 0.0
O468 O 0.22496 0.26765 0.75607 0.0
O469 O 0.2596 0.27743 0.81825 0.0
O470 O 0.31107 0.238 0.72614 0.0
O471 O 0.29631 0.25056 0.77023 0.0
O472 O 0.25232 0.22056 0.7635 0.0
O473 O 0.26321 0.24636 0.72323 0.0
O474 O 0.33768 0.26791 0.76273 0.0
O475 O 0.32447 0.27594 0.70065 0.0
C476 C 0.2409 0.28523 0.74051 0.0
C477 C 0.21558 0.27201 0.83593 0.0
C478 C 0.18752 0.28667 0.8652 0.0
C479 C 0.20517 0.29338 0.84467 0.0
C480 C 0.18079 0.25838 0.87704 0.0
C481 C 0.20881 0.244 0.84822 0.0
C482 C 0.19153 0.23726 0.86869 0.0
C483 C 0.31212 0.31009 0.78275 0.0
C484 C 0.23257 0.27919 0.81344 0.0
C485 C 0.23285 0.1495 0.84474 0.0
C486 C 0.2589 0.15886 0.8594 0.0
C487 C 0.3224 0.25167 0.77975 0.0
C488 C 0.35271 0.24036 0.70579 0.0
C489 C 0.35509 0.22118 0.68906 0.0
C490 C 0.38129 0.2119 0.68953 0.0
C491 C 0.40501 0.22249 0.70657 0.0
C492 C 0.3768 0.25047 0.72253 0.0
C493 C 0.40275 0.24165 0.72284 0.0
C494 C 0.25069 0.22317 0.73761 0.0
C495 C 0.32495 0.2491 0.70615 0.0
H496 H 0.21025 0.31505 0.83514 0.0
H497 H 0.16743 0.25265 0.89298 0.0
H498 H 0.21666 0.22732 0.84194 0.0
H499 H 0.18634 0.21557 0.87803 0.0
H500 H 0.33653 0.21307 0.67619 0.0
H501 H 0.42549 0.21608 0.70717 0.0
H502 H 0.37566 0.26511 0.73547 0.0
H503 H 0.4212 0.24964 0.73583 0.0
Tb504 Tb 0.80096 0.22791 0.76623 0.0
C505 C 0.75121 0.31919 0.69008 0.0
C506 C 0.79104 0.35795 0.68276 0.0
C507 C 0.75189 0.34984 0.64817 0.0
C508 C 0.77738 0.33423 0.69887 0.0
C509 C 0.73773 0.32718 0.66489 0.0
C510 C 0.77854 0.36521 0.6571 0.0
C511 C 0.6962 0.29173 0.67575 0.0
N512 N 0.73811 0.2978 0.70704 0.0
C513 C 0.71041 0.28477 0.70064 0.0
C514 C 0.71007 0.31277 0.65766 0.0
Tb515 Tb 0.76353 0.28712 0.74699 0.0
N516 N 0.78845 0.3267 0.72389 0.0
C517 C 0.81225 0.34342 0.73461 0.0
C518 C 0.81631 0.37416 0.69322 0.0
C519 C 0.82668 0.36712 0.71939 0.0
H520 H 0.69958 0.26835 0.71441 0.0
H521 H 0.84593 0.3798 0.72784 0.0
H522 H 0.78888 0.38316 0.6443 0.0
H523 H 0.6746 0.28084 0.67054 0.0
H524 H 0.82079 0.33819 0.7547 0.0
H525 H 0.71784 0.1362 0.787 0.0
H526 H 0.82755 0.39249 0.68148 0.0
H527 H 0.8666 0.24525 0.7965 0.0
H528 H 0.74206 0.17815 0.76004 0.0
H529 H 0.89387 0.23071 0.8385 0.0
H530 H 0.74206 0.35615 0.62862 0.0
H531 H 0.73914 0.12129 0.83195 0.0
H532 H 0.78045 0.12837 0.86725 0.0
H533 H 0.69896 0.31822 0.63846 0.0
H534 H 0.82853 0.15411 0.8813 0.0
N535 N 0.77677 0.18793 0.78948 0.0
C536 C 0.75187 0.17208 0.77951 0.0
C537 C 0.74997 0.13984 0.82017 0.0
C538 C 0.77627 0.1551 0.82972 0.0
C539 C 0.73793 0.14815 0.79479 0.0
C540 C 0.78935 0.17918 0.8136 0.0
H541 H 0.87124 0.19204 0.87051 0.0
N542 N 0.82834 0.21564 0.80467 0.0
C543 C 0.87195 0.22016 0.83403 0.0
C544 C 0.81615 0.19357 0.82151 0.0
C545 C 0.85636 0.22831 0.81015 0.0
C546 C 0.85909 0.19838 0.85208 0.0
C547 C 0.83099 0.18447 0.84576 0.0
O548 O 0.83691 0.22297 0.74972 0.0
O549 O 0.79874 0.26814 0.74206 0.0
O550 O 0.7601 0.2651 0.71329 0.0
O551 O 0.76519 0.22039 0.73504 0.0
O552 O 0.83853 0.26051 0.75629 0.0
O553 O 0.79727 0.19306 0.74619 0.0
O554 O 0.72599 0.29535 0.75848 0.0
O555 O 0.76587 0.24721 0.77167 0.0
O556 O 0.80673 0.24993 0.80019 0.0
O557 O 0.7982 0.29433 0.77937 0.0
O558 O 0.72599 0.25495 0.75797 0.0
O559 O 0.76712 0.32137 0.76771 0.0
C560 C 0.82506 0.27867 0.74172 0.0
C561 C 0.84053 0.17674 0.74588 0.0
C562 C 0.87194 0.15175 0.72943 0.0
C563 C 0.85389 0.17182 0.72523 0.0
C564 C 0.87625 0.13643 0.75458 0.0
C565 C 0.84475 0.16106 0.77079 0.0
C566 C 0.86252 0.14095 0.77506 0.0
C567 C 0.75698 0.23746 0.71395 0.0
C568 C 0.82392 0.19961 0.74123 0.0
C569 C 0.81762 0.16129 0.86247 0.0
C570 C 0.79026 0.14663 0.85447 0.0
C571 C 0.73955 0.23697 0.77271 0.0
C572 C 0.72647 0.34326 0.76075 0.0
C573 C 0.71413 0.3533 0.77938 0.0
C574 C 0.70085 0.3772 0.77228 0.0
C575 C 0.70024 0.39079 0.74618 0.0
C576 C 0.72579 0.35737 0.73499 0.0
C577 C 0.71274 0.38097 0.72776 0.0
C578 C 0.80861 0.27748 0.79973 0.0
C579 C 0.73949 0.31782 0.7684 0.0
H580 H 0.85085 0.18417 0.70602 0.0
H581 H 0.88998 0.12079 0.7583 0.0
H582 H 0.83461 0.16453 0.78691 0.0
H583 H 0.86583 0.12897 0.79435 0.0
H584 H 0.7151 0.3426 0.79939 0.0
H585 H 0.68973 0.40881 0.73983 0.0
H586 H 0.73515 0.35016 0.72041 0.0
H587 H 0.71214 0.39157 0.70774 0.0
Tb588 Tb 0.77479 0.7421 0.74052 0.0
C589 C 0.85526 0.80813 0.81998 0.0
C590 C 0.86281 0.77273 0.85731 0.0
C591 C 0.90062 0.81339 0.84786 0.0
C592 C 0.84563 0.78283 0.83485 0.0
C593 C 0.88247 0.82429 0.82673 0.0
C594 C 0.89078 0.78759 0.86316 0.0
C595 C 0.8699 0.86223 0.79381 0.0
N596 N 0.83671 0.81811 0.8003 0.0
C597 C 0.84301 0.84545 0.78815 0.0
C598 C 0.88995 0.85141 0.81287 0.0
Tb599 Tb 0.7939 0.78856 0.79063 0.0
N600 N 0.81827 0.76964 0.82874 0.0
C601 C 0.80589 0.74762 0.84604 0.0
C602 C 0.85087 0.74887 0.87385 0.0
C603 C 0.82207 0.73667 0.8685 0.0
H604 H 0.82765 0.85399 0.77338 0.0
H605 H 0.81232 0.7187 0.88159 0.0
H606 H 0.90448 0.77993 0.88007 0.0
H607 H 0.8751 0.88351 0.78351 0.0
H608 H 0.78376 0.73761 0.84249 0.0
H609 H 0.76092 0.81227 0.649 0.0
H610 H 0.86332 0.74037 0.89127 0.0
H611 H 0.73978 0.67684 0.75602 0.0
H612 H 0.78754 0.79297 0.68921 0.0
H613 H 0.69206 0.64829 0.74484 0.0
H614 H 0.92177 0.82527 0.85317 0.0
H615 H 0.70996 0.79155 0.63762 0.0
H616 H 0.66764 0.75291 0.64766 0.0
H617 H 0.91066 0.86453 0.81741 0.0
H618 H 0.64855 0.7079 0.67415 0.0
N619 N 0.75198 0.76161 0.7018 0.0
C620 C 0.7654 0.78336 0.68489 0.0
C621 C 0.72157 0.78286 0.65549 0.0
C622 C 0.70856 0.75929 0.67173 0.0
C623 C 0.75034 0.79452 0.66181 0.0
C624 C 0.72468 0.7489 0.69479 0.0
H625 H 0.65778 0.66826 0.71022 0.0
N626 N 0.73179 0.71339 0.72956 0.0
C627 C 0.69781 0.66965 0.73488 0.0
C628 C 0.71407 0.72381 0.70942 0.0
C629 C 0.72478 0.68593 0.74126 0.0
C630 C 0.6785 0.68102 0.7154 0.0
C631 C 0.68687 0.70812 0.70182 0.0
O632 O 0.78767 0.70429 0.73665 0.0
O633 O 0.80117 0.7517 0.77643 0.0
O634 O 0.83114 0.79581 0.76876 0.0
O635 O 0.81012 0.7774 0.73044 0.0
O636 O 0.78587 0.71003 0.77301 0.0
O637 O 0.80224 0.74309 0.7121 0.0
O638 O 0.78067 0.82595 0.79531 0.0
O639 O 0.76717 0.77888 0.75469 0.0
O640 O 0.73862 0.73268 0.76423 0.0
O641 O 0.75998 0.75262 0.80171 0.0
O642 O 0.78277 0.8205 0.7579 0.0
O643 O 0.7674 0.7869 0.82002 0.0
C644 C 0.80164 0.72676 0.78801 0.0
C645 C 0.7975 0.70097 0.6943 0.0
C646 C 0.81527 0.67326 0.66743 0.0
C647 C 0.81846 0.68635 0.69001 0.0
C648 C 0.79064 0.67462 0.64943 0.0
C649 C 0.77295 0.70186 0.67625 0.0
C650 C 0.76954 0.68867 0.65396 0.0
C651 C 0.83135 0.79262 0.74408 0.0
C652 C 0.80217 0.71608 0.71711 0.0
C653 C 0.66969 0.71939 0.68011 0.0
C654 C 0.68056 0.745 0.66504 0.0
C655 C 0.76692 0.80379 0.74294 0.0
C656 C 0.77348 0.82864 0.83868 0.0
C657 C 0.75257 0.84163 0.84572 0.0
C658 C 0.75769 0.85421 0.86878 0.0
C659 C 0.78411 0.85402 0.88439 0.0
C660 C 0.79973 0.82889 0.8545 0.0
C661 C 0.80502 0.84158 0.87717 0.0
C662 C 0.73928 0.7359 0.78908 0.0
C663 C 0.76728 0.8139 0.81551 0.0
H664 H 0.83757 0.6858 0.70384 0.0
H665 H 0.78764 0.66465 0.63195 0.0
H666 H 0.75661 0.71298 0.67921 0.0
H667 H 0.7506 0.68953 0.64004 0.0
H668 H 0.73214 0.84133 0.83369 0.0
H669 H 0.78864 0.8637 0.90212 0.0
H670 H 0.81603 0.81905 0.84953 0.0
H671 H 0.82533 0.84159 0.88928 0.0
Fe672 Fe 0.04565 0.04804 0.51082 0.0
O673 O 1.01562 1.00963 0.51319 0.0
Fe674 Fe 0.11088 0.02544 0.51375 0.0
Fe675 Fe 0.97199 1.00217 0.5094 0.0
O676 O 0.06942 0.02303 0.50279 0.0
O677 O 0.06724 0.01025 0.51715 0.0
O678 O 1.01565 1.00547 0.5084 0.0
Fe679 Fe 0.03781 0.97287 0.50871 0.0
C680 C 0.99319 0.0611 0.53112 0.0
O681 O 1.03065 0.05803 0.47137 0.0
O682 O 1.00706 0.02077 0.49038 0.0
O683 O 0.05919 0.98416 0.47396 0.0
O684 O 0.10691 1.00496 0.48163 0.0
O685 O 0.1092 0.064 0.49071 0.0
O686 O 0.07651 0.08384 0.50458 0.0
O687 O 0.96526 0.96863 0.48844 0.0
O688 O 1.00415 0.94956 0.48793 0.0
C689 C 0.09818 0.08543 0.49216 0.0
O690 O 0.07222 0.98509 0.53465 0.0
O691 O 0.1167 0.98777 0.53676 0.0
O692 O 1.01757 0.0699 0.52188 0.0
O693 O 0.97726 0.03665 0.52932 0.0
C694 C 1.00791 0.04028 0.46986 0.0
C695 C 0.97769 0.95084 0.48132 0.0
C696 C 0.99732 0.96008 0.55425 0.0
O697 O 0.97896 0.97561 0.54377 0.0
O698 O 1.01915 0.9577 0.54354 0.0
C699 C 0.08552 0.99132 0.46795 0.0
O700 O 0.11057 0.04396 0.54642 0.0
O701 O 0.06351 0.04234 0.55022 0.0
C702 C 0.0932 0.97231 0.5414 0.0
C703 C 0.09033 0.04606 0.5594 0.0
Fe704 Fe 0.53175 0.98252 0.01458 0.0
O705 O 0.552 0.01679 0.03045 0.0
Fe706 Fe 0.4668 1.00223 0.98645 0.0
Fe707 Fe 0.59411 0.02754 0.03556 0.0
O708 O 0.50884 0.00981 0.99256 0.0
O709 O 0.50881 0.01283 0.99194 0.0
O710 O 0.55193 0.01989 0.02988 0.0
Fe711 Fe 0.52914 0.0472 1.00757 0.0
C712 C 0.57882 0.96572 0.05997 0.0
O713 O 0.5596 0.99032 0.98648 0.0
O714 O 0.60131 1.00135 1.01074 0.0
O715 O 0.50162 0.07105 0.98118 0.0
O716 O 0.47172 0.03781 0.9582 0.0
O717 O 0.47484 0.97326 0.96523 0.0
O718 O 0.50729 0.95042 0.9936 0.0
O719 O 0.59882 0.06094 1.00515 0.0
O720 O 0.55756 0.05642 0.97923 0.0
C721 C 0.48882 0.95256 0.97267 0.0
O722 O 0.50074 0.04014 0.03555 0.0
O723 O 0.45957 0.02899 1.01058 0.0
O724 O 0.55959 0.9586 0.04055 0.0
O725 O 0.58963 0.99166 0.06359 0.0
C726 C 0.58669 0.99222 0.99051 0.0
C727 C 0.58459 0.06539 0.98277 0.0
C728 C 0.57214 0.077 0.04949 0.0
O729 O 0.58605 0.05625 0.0571 0.0
O730 O 0.55388 0.07927 0.02842 0.0
C731 C 0.48259 0.06378 0.96168 0.0
O732 O 0.46193 0.96916 0.01716 0.0
O733 O 0.50348 0.97267 0.04286 0.0
C734 C 0.47366 0.03858 0.0308 0.0
C735 C 0.47647 0.96372 0.03925 0.0
Fe736 Fe 0.0319 0.54235 1.00738 0.0
O737 O 1.00659 0.50885 0.99367 0.0
Fe738 Fe 0.09317 0.51532 0.03491 0.0
Fe739 Fe 0.96435 0.5033 0.99022 0.0
O740 O 0.05153 0.51279 0.02998 0.0
O741 O 0.05098 0.5097 0.03113 0.0
O742 O 1.00606 0.50569 0.9948 0.0
Fe743 Fe 1.02554 0.47613 0.01764 0.0
C744 C 0.97965 0.54124 0.03344 0.0
O745 O 1.0068 0.56888 0.98129 0.0
O746 O 0.97181 0.53728 0.96075 0.0
O747 O 0.05143 0.47789 0.98887 0.0
O748 O 0.09477 0.4856 0.0113 0.0
O749 O 0.10024 0.54674 1.00336 0.0
O750 O 0.05867 0.54719 0.97814 0.0
O751 O 0.96666 0.47135 0.96996 0.0
O752 O 0.99604 0.44521 0.99885 0.0
C753 C 0.08605 0.55349 0.98142 0.0
O754 O 0.05046 0.44965 0.04407 0.0
O755 O 0.08555 0.48139 0.06439 0.0
O756 O 1.00615 0.53987 0.03639 0.0
O757 O 0.96282 0.53285 0.01397 0.0
C758 C 0.98611 0.56265 0.96276 0.0
C759 C 0.97752 0.44867 0.97816 0.0
C760 C 0.97159 0.46609 0.04391 0.0
O761 O 0.95727 0.47184 0.02182 0.0
O762 O 0.99896 0.47211 0.04686 0.0
C763 C 0.07791 0.4763 0.9922 0.0
O764 O 0.09073 0.54741 0.05519 0.0
O765 O 0.06106 0.57318 0.02625 0.0
C766 C 0.07122 0.45598 0.06254 0.0
C767 C 0.07961 0.56994 0.04691 0.0
Fe768 Fe 0.54005 0.52031 0.98079 0.0
O769 O 0.5486 0.49048 1.01024 0.0
Fe770 Fe 0.47729 0.537 0.99622 0.0
Fe771 Fe 0.58791 0.48392 0.02188 0.0
O772 O 0.51701 0.53113 1.00536 0.0
O773 O 0.51677 0.53082 1.00776 0.0
O774 O 0.54846 0.49027 0.01265 0.0
Fe775 Fe 0.52538 0.50101 0.03716 0.0
C776 C 0.57594 0.48134 0.96363 0.0
O777 O 0.57495 0.548 0.99435 0.0
O778 O 0.60766 0.52084 1.00001 0.0
O779 O 0.50009 0.51665 0.05944 0.0
O780 O 0.48355 0.55314 0.03115 0.0
O781 O 0.49833 0.57217 0.9736 0.0
O782 O 0.52922 0.55405 0.95342 0.0
O783 O 0.5952 0.50427 0.05475 0.0
O784 O 0.5598 0.52849 0.05187 0.0
C785 C 0.51699 0.5743 0.95712 0.0
O786 O 0.49087 0.47333 0.02324 0.0
O787 O 0.45768 0.49985 0.01803 0.0
O788 O 0.56508 0.50438 0.95857 0.0
O789 O 0.58141 0.46778 0.98695 0.0
C790 C 0.60028 0.54491 0.99289 0.0
C791 C 0.58466 0.52381 0.06116 0.0
C792 C 0.54844 0.44704 0.06128 0.0
O793 O 0.56679 0.44879 0.04461 0.0
O794 O 0.53621 0.46742 0.06463 0.0
C795 C 0.48895 0.53953 0.05445 0.0
O796 O 0.47004 0.51677 0.96328 0.0
O797 O 0.50554 0.49274 0.96618 0.0
C798 C 0.46541 0.4759 0.02474 0.0
C799 C 0.4806 0.49721 0.95696 0.0
Fe800 Fe 0.04595 0.45124 0.51299 0.0
O801 O 0.04825 0.49224 0.51076 0.0
Fe802 Fe 1.02697 0.51398 0.47714 0.0
Fe803 Fe 0.03576 0.509 0.53871 0.0
O804 O 0.0477 0.49251 0.50782 0.0
O805 O 1.01384 0.53007 0.50518 0.0
O806 O 1.01454 0.5299 0.50813 0.0
Fe807 Fe 1.01544 0.57082 0.50377 0.0
C808 C 0.99995 0.45152 0.54881 0.0
O809 O 0.07934 0.45878 0.54195 0.0
O810 O 0.06107 0.48423 0.56703 0.0
O811 O 0.04271 0.58282 0.47448 0.0
O812 O 0.06278 0.54557 0.47461 0.0
O813 O 0.0451 0.49375 0.45229 0.0
O814 O 0.06893 0.46203 0.48089 0.0
O815 O 0.07159 0.54062 0.53749 0.0
O816 O 0.05032 0.57814 0.53123 0.0
C817 C 0.06314 0.47617 0.45791 0.0
O818 O 0.98279 0.56359 0.47416 0.0
O819 O 1.00193 0.53919 0.44875 0.0
O820 O 1.01949 0.44013 0.54301 0.0
O821 O 0.99989 0.47775 0.54204 0.0
C822 C 0.0792 0.46868 0.56354 0.0
C823 C 0.07186 0.5663 0.53952 0.0
C824 C 0.99852 0.54496 0.5582 0.0
O825 O 1.01841 0.52945 0.56374 0.0
O826 O 0.99154 0.55849 0.53523 0.0
C827 C 0.06252 0.57188 0.46852 0.0
O828 O 0.99094 0.4826 0.47745 0.0
O829 O 1.01037 0.4437 0.48643 0.0
C830 C 0.98348 0.55438 0.45236 0.0
C831 C 0.98958 0.45632 0.47727 0.0
Fe832 Fe 0.52972 0.97751 0.51714 0.0
O833 O 0.55082 0.01252 0.53123 0.0
Fe834 Fe 0.50605 1.0048 0.45307 0.0
Fe835 Fe 0.55523 0.01636 0.56857 0.0
O836 O 0.5107 1.0053 0.49108 0.0
O837 O 0.51038 1.00846 0.49045 0.0
O838 O 0.55043 0.0156 0.53067 0.0
Fe839 Fe 0.53169 0.04343 0.50448 0.0
C840 C 0.50024 0.9705 0.56578 0.0
O841 O 0.55383 0.95325 0.5472 0.0
O842 O 0.58139 0.98704 0.57089 0.0
O843 O 0.56417 0.04765 0.48101 0.0
O844 O 0.5385 0.03879 0.44332 0.0
O845 O 0.53484 0.9781 0.45507 0.0
O846 O 0.56165 0.9795 0.49357 0.0
O847 O 0.58416 0.05269 0.55742 0.0
O848 O 0.5578 0.07614 0.52306 0.0
C849 C 0.55736 0.97387 0.47017 0.0
O850 O 0.50818 0.06791 0.47448 0.0
O851 O 0.48017 0.03463 0.45062 0.0
O852 O 0.49738 0.97276 0.54088 0.0
O853 O 0.52319 0.982 0.57844 0.0
C854 C 0.57479 0.96152 0.56493 0.0
C855 C 0.57956 0.07498 0.54105 0.0
C856 C 0.50343 0.04651 0.55157 0.0
O857 O 0.52607 0.04262 0.56663 0.0
O858 O 0.49962 0.04176 0.52788 0.0
C859 C 0.56167 0.04954 0.45616 0.0
O860 O 0.47699 0.96854 0.46412 0.0
O861 O 0.50368 0.9449 0.49813 0.0
C862 C 0.48693 0.06002 0.45695 0.0
C863 C 0.482 0.94596 0.47994 0.0
C864 C 0.22275 0.25401 0.32873 0.0
C865 C 0.21976 0.23973 0.30694 0.0
C866 C 0.20455 0.24467 0.34832 0.0
C867 C 0.13934 0.19242 0.36789 0.0
H868 H 0.18226 0.19319 0.43671 0.0
C869 C 0.09151 0.1297 0.46151 0.0
C870 C 0.10976 0.11222 0.47621 0.0
C871 C 0.10209 0.15153 0.44214 0.0
C872 C 0.16987 0.19292 0.41767 0.0
H873 H 0.19297 0.20636 0.28738 0.0
H874 H 0.16245 0.18847 0.32254 0.0
H875 H 0.20473 0.21857 0.39865 0.0
H876 H 0.15347 0.10488 0.48357 0.0
H877 H 0.17189 0.14278 0.45033 0.0
H878 H 0.1052 0.16479 0.38719 0.0
C879 C 0.17876 0.20721 0.32436 0.0
C880 C 0.18264 0.2078 0.39573 0.0
C881 C 0.19662 0.21713 0.30431 0.0
C882 C 0.13896 0.11807 0.47251 0.0
C883 C 0.14953 0.13992 0.4535 0.0
C884 C 0.1266 0.17725 0.38994 0.0
C885 C 0.18319 0.22032 0.34708 0.0
C886 C 0.16785 0.20724 0.37044 0.0
C887 C 0.13111 0.1564 0.43756 0.0
C888 C 0.14211 0.17666 0.41497 0.0
H889 H 0.23965 0.27213 0.33113 0.0
H890 H 0.20793 0.25608 0.36492 0.0
H891 H 0.1271 0.19187 0.34881 0.0
H892 H 0.06882 0.12539 0.46382 0.0
H893 H 0.08744 0.16403 0.43026 0.0
C894 C 0.80539 0.12448 0.3323 0.0
C895 C 0.79519 0.11064 0.3104 0.0
C896 C 0.82518 0.11393 0.35174 0.0
C897 C 0.86154 0.05278 0.37656 0.0
H898 H 0.92487 0.11166 0.39618 0.0
C899 C 0.98611 0.06696 0.42942 0.0
C900 C 0.98264 0.046 0.45141 0.0
C901 C 0.96227 0.07328 0.41238 0.0
C902 C 0.90749 0.09494 0.39073 0.0
H903 H 0.796 0.07414 0.29226 0.0
H904 H 0.83095 0.0557 0.32615 0.0
H905 H 0.88339 0.12447 0.36774 0.0
H906 H 0.95113 0.01548 0.47254 0.0
H907 H 0.9099 0.02637 0.44314 0.0
H908 H 0.88621 0.02322 0.39904 0.0
C909 C 0.82347 0.07451 0.32852 0.0
C910 C 0.88346 0.10229 0.37477 0.0
C911 C 0.80344 0.08499 0.30914 0.0
C912 C 0.95487 0.03132 0.45575 0.0
C913 C 0.93106 0.03761 0.43876 0.0
C914 C 0.88565 0.0454 0.39256 0.0
C915 C 0.83538 0.0895 0.3495 0.0
C916 C 0.86019 0.08132 0.3675 0.0
C917 C 0.93444 0.05881 0.417 0.0
C918 C 0.90893 0.06643 0.39974 0.0
H919 H 0.7991 0.14424 0.33369 0.0
H920 H 0.83338 0.12556 0.36799 0.0
H921 H 0.84394 0.03614 0.37137 0.0
H922 H 1.00726 0.07858 0.42544 0.0
H923 H 0.96566 0.0895 0.39556 0.0
C924 C 0.8525 0.82546 0.29917 0.0
C925 C 0.82266 0.81867 0.30008 0.0
C926 C 0.87017 0.84119 0.31736 0.0
C927 C 0.87009 0.88882 0.36543 0.0
H928 H 0.93619 0.8583 0.40115 0.0
C929 C 0.93057 0.92877 0.45917 0.0
C930 C 0.96071 0.9325 0.46245 0.0
C931 C 0.91449 0.91461 0.43923 0.0
C932 C 0.91808 0.86738 0.39117 0.0
H933 H 0.78783 0.82363 0.32027 0.0
H934 H 0.81854 0.85147 0.35174 0.0
H935 H 0.90718 0.83633 0.36507 0.0
H936 H 0.9975 0.92354 0.44761 0.0
H937 H 0.96946 0.89918 0.41253 0.0
H938 H 0.88094 0.91997 0.39124 0.0
C939 C 0.82834 0.84476 0.33693 0.0
C940 C 0.90144 0.85477 0.37046 0.0
C941 C 0.81075 0.82879 0.31894 0.0
C942 C 0.97431 0.92083 0.44581 0.0
C943 C 0.95819 0.90685 0.42565 0.0
C944 C 0.88682 0.90155 0.38597 0.0
C945 C 0.85832 0.85062 0.33673 0.0
C946 C 0.87709 0.86518 0.35753 0.0
C947 C 0.92808 0.90403 0.42179 0.0
C948 C 0.91085 0.89081 0.39936 0.0
H949 H 0.86242 0.81726 0.28546 0.0
H950 H 0.89318 0.84548 0.31662 0.0
H951 H 0.85168 0.89755 0.35565 0.0
H952 H 0.91934 0.93726 0.47175 0.0
H953 H 0.89134 0.91221 0.43737 0.0
C954 C 0.15834 0.8966 0.28769 0.0
C955 C 0.18588 0.89026 0.2956 0.0
C956 C 0.14342 0.90527 0.3052 0.0
C957 C 0.144 0.90856 0.37645 0.0
H958 H 0.09985 0.96798 0.35111 0.0
C959 C 0.12157 0.9834 0.44092 0.0
C960 C 0.09257 0.98146 0.44454 0.0
C961 C 0.12901 0.97099 0.42131 0.0
C962 C 0.11176 0.95109 0.35831 0.0
H963 H 0.21947 0.88823 0.32794 0.0
H964 H 0.19404 0.90411 0.35823 0.0
H965 H 0.12103 0.94816 0.31998 0.0
H966 H 0.04863 0.96583 0.42929 0.0
H967 H 0.06199 0.94475 0.39417 0.0
H968 H 0.1361 0.91289 0.41491 0.0
C969 C 0.18339 0.9016 0.3388 0.0
C970 C 0.12387 0.93964 0.34055 0.0
C971 C 0.19812 0.8926 0.32141 0.0
C972 C 0.07115 0.96779 0.42709 0.0
C973 C 0.07872 0.95571 0.40704 0.0
C974 C 0.13231 0.92032 0.39415 0.0
C975 C 0.15583 0.90812 0.33096 0.0
C976 C 0.14066 0.91859 0.34945 0.0
C977 C 0.10775 0.95671 0.40448 0.0
C978 C 0.11651 0.94196 0.38527 0.0
H979 H 0.14826 0.8947 0.26797 0.0
H980 H 0.1221 0.90962 0.29853 0.0
H981 H 0.15607 0.8919 0.38406 0.0
H982 H 0.13879 0.9936 0.45387 0.0
H983 H 0.15153 0.97216 0.41954 0.0
C984 C 0.21123 0.8541 0.66646 0.0
C985 C 0.23979 0.85457 0.66265 0.0
C986 C 0.18934 0.85047 0.64609 0.0
C987 C 0.17902 0.86809 0.57599 0.0
H988 H 0.09982 0.84016 0.5896 0.0
C989 C 0.08381 0.92406 0.56578 0.0
C990 C 0.09034 0.94172 0.54251 0.0
C991 C 0.09252 0.89787 0.57162 0.0
C992 C 0.12177 0.84766 0.58516 0.0
H993 H 0.2677 0.85036 0.63478 0.0
H994 H 0.22923 0.84468 0.59861 0.0
H995 H 0.13835 0.82212 0.61914 0.0
H996 H 0.10627 0.94458 0.5051 0.0
H997 H 0.12042 0.89839 0.51474 0.0
H998 H 0.16309 0.89532 0.5435 0.0
C999 C 0.2239 0.84705 0.61754 0.0
C1000 C 0.14385 0.83739 0.6021 0.0
C1001 C 0.24592 0.85062 0.63809 0.0
C1002 C 0.10135 0.93125 0.52335 0.0
C1003 C 0.10956 0.90488 0.52895 0.0
C1004 C 0.15702 0.87828 0.55906 0.0
C1005 C 0.1954 0.84736 0.62124 0.0
C1006 C 0.17273 0.84925 0.59881 0.0
C1007 C 0.10778 0.8892 0.55411 0.0
C1008 C 0.12831 0.86989 0.5647 0.0
H1009 H 0.20584 0.85742 0.68507 0.0
H1010 H 0.16786 0.85167 0.64952 0.0
H1011 H 0.20099 0.87759 0.57273 0.0
H1012 H 0.07521 0.93183 0.58073 0.0
H1013 H 0.09053 0.88638 0.59115 0.0
C1014 C 0.21955 0.17448 0.73729 0.0
C1015 C 0.23208 0.20056 0.72368 0.0
C1016 C 0.20036 0.15438 0.7239 0.0
C1017 C 0.15251 0.14891 0.66176 0.0
H1018 H 0.15899 0.06982 0.67376 0.0
C1019 C 0.12661 0.05232 0.59843 0.0
C1020 C 0.09942 0.05559 0.58542 0.0
C1021 C 0.13821 0.06593 0.62008 0.0
C1022 C 0.15676 0.09182 0.67027 0.0
H1023 H 0.23585 0.2245 0.68482 0.0
H1024 H 0.20269 0.19007 0.66188 0.0
H1025 H 0.18913 0.10229 0.7018 0.0
H1026 H 0.06223 0.0741 0.58632 0.0
H1027 H 0.08253 0.09807 0.62427 0.0
H1028 H 0.12114 0.13889 0.6296 0.0
C1029 C 0.20681 0.18546 0.68299 0.0
C1030 C 0.17391 0.11038 0.68648 0.0
C1031 C 0.226 0.20532 0.69627 0.0
C1032 C 0.08325 0.07124 0.59579 0.0
C1033 C 0.095 0.08514 0.61742 0.0
C1034 C 0.1353 0.13039 0.64568 0.0
C1035 C 0.19335 0.15994 0.69661 0.0
C1036 C 0.17259 0.13932 0.6819 0.0
C1037 C 0.12301 0.08335 0.62933 0.0
C1038 C 0.13776 0.10174 0.64924 0.0
H1039 H 0.2245 0.16958 0.75826 0.0
H1040 H 0.19063 0.13474 0.73496 0.0
H1041 H 0.15062 0.17101 0.65796 0.0
H1042 H 0.13961 0.04022 0.59113 0.0
H1043 H 0.15986 0.06415 0.62854 0.0
C1044 C 0.87064 0.14197 0.68359 0.0
C1045 C 0.88645 0.14705 0.70764 0.0
C1046 C 0.88419 0.13713 0.66314 0.0
C1047 C 0.95154 0.11734 0.64988 0.0
H1048 H 0.9215 0.13792 0.57766 0.0
C1049 C 1.00268 0.09683 0.56221 0.0
C1050 C 0.9831 0.0793 0.54649 0.0
C1051 C 0.99291 0.10992 0.58028 0.0
C1052 C 0.93019 0.13223 0.59776 0.0
H1053 H 0.92889 0.15192 0.72901 0.0
H1054 H 0.95288 0.14462 0.69307 0.0
H1055 H 0.90096 0.15157 0.61281 0.0
H1056 H 0.93792 0.06347 0.53594 0.0
H1057 H 0.92091 0.08711 0.56674 0.0
H1058 H 0.98099 0.09829 0.63454 0.0
C1059 C 0.92984 0.14336 0.69012 0.0
C1060 C 0.91827 0.13976 0.61797 0.0
C1061 C 0.91616 0.14768 0.71073 0.0
C1062 C 0.95353 0.07673 0.54789 0.0
C1063 C 0.94378 0.09033 0.56545 0.0
C1064 C 0.96379 0.11028 0.62963 0.0
C1065 C 0.91403 0.13778 0.66606 0.0
C1066 C 0.92833 0.13188 0.64438 0.0
C1067 C 0.96337 0.10635 0.58235 0.0
C1068 C 0.95286 0.11716 0.60342 0.0
H1069 H 0.84764 0.14113 0.6808 0.0
H1070 H 0.87106 0.1323 0.64523 0.0
H1071 H 0.95967 0.11042 0.66987 0.0
H1072 H 1.02556 0.09923 0.56153 0.0
H1073 H 1.00843 0.12231 0.59303 0.0
C1074 C 0.87037 0.79261 0.71711 0.0
C1075 C 0.85616 0.80749 0.73029 0.0
C1076 C 0.89263 0.80698 0.70236 0.0
C1077 C 0.94055 0.87762 0.68845 0.0
H1078 H 0.94026 0.8541 0.62099 0.0
C1079 C 0.97656 0.95223 0.59677 0.0
C1080 C 0.99166 0.94277 0.57979 0.0
C1081 C 0.96712 0.9344 0.61899 0.0
C1082 C 0.94104 0.86062 0.63997 0.0
H1083 H 0.85303 0.84896 0.73756 0.0
H1084 H 0.89141 0.8742 0.71181 0.0
H1085 H 0.90948 0.82488 0.65248 0.0
H1086 H 1.01001 0.90771 0.57344 0.0
H1087 H 0.99275 0.87613 0.61217 0.0
H1088 H 0.97085 0.91434 0.67502 0.0
C1089 C 0.88647 0.85135 0.71362 0.0
C1090 C 0.92339 0.84385 0.6581 0.0
C1091 C 0.86447 0.8369 0.72855 0.0
C1092 C 0.99844 0.91556 0.58621 0.0
C1093 C 0.98847 0.89747 0.60825 0.0
C1094 C 0.95791 0.89456 0.67017 0.0
C1095 C 0.90072 0.83664 0.70011 0.0
C1096 C 0.92234 0.85249 0.68233 0.0
C1097 C 0.97218 0.90656 0.62451 0.0
C1098 C 0.9578 0.88655 0.64552 0.0
H1099 H 0.86414 0.76985 0.71811 0.0
H1100 H 0.90326 0.79487 0.69251 0.0
H1101 H 0.94087 0.88464 0.70713 0.0
H1102 H 0.9712 0.97316 0.5924 0.0
H1103 H 0.95444 0.94192 0.63104 0.0
C1104 C 0.31081 0.13853 0.13264 0.0
C1105 C 0.31806 0.14507 0.15829 0.0
C1106 C 0.33017 0.129 0.12008 0.0
C1107 C 0.39523 0.09607 0.13293 0.0
H1108 H 0.39528 0.11601 0.0577 0.0
C1109 C 0.47159 0.06069 0.071 0.0
C1110 C 0.45796 0.0504 0.04785 0.0
C1111 C 0.45669 0.07325 0.08585 0.0
C1112 C 0.39546 0.11014 0.07871 0.0
H1113 H 0.35192 0.14705 0.19061 0.0
H1114 H 0.3861 0.13111 0.16839 0.0
H1115 H 0.36616 0.13719 0.08063 0.0
H1116 H 0.41766 0.04498 0.02259 0.0
H1117 H 0.39215 0.06684 0.04817 0.0
H1118 H 0.42483 0.06905 0.13074 0.0
C1119 C 0.36511 0.13291 0.15816 0.0
C1120 C 0.37865 0.12222 0.0919 0.0
C1121 C 0.34562 0.14241 0.17081 0.0
C1122 C 0.42902 0.05264 0.04022 0.0
C1123 C 0.41434 0.06539 0.05482 0.0
C1124 C 0.41232 0.08414 0.1197 0.0
C1125 C 0.35759 0.12591 0.13263 0.0
C1126 C 0.37774 0.11491 0.11913 0.0
C1127 C 0.42801 0.07613 0.07765 0.0
C1128 C 0.41213 0.09058 0.09234 0.0
H1129 H 0.29 0.14069 0.12216 0.0
H1130 H 0.3233 0.1235 0.10062 0.0
H1131 H 0.39499 0.08972 0.15385 0.0
H1132 H 0.49384 0.05937 0.07749 0.0
H1133 H 0.46782 0.08136 0.10336 0.0
C1134 C 0.80322 0.3304 0.19788 0.0
C1135 C 0.81454 0.32172 0.22359 0.0
C1136 C 0.82111 0.34691 0.17968 0.0
C1137 C 0.89736 0.36731 0.16605 0.0
H1138 H 0.86999 0.42803 0.11761 0.0
C1139 C 0.96901 0.44289 0.09127 0.0
C1140 C 0.95525 0.4508 0.06619 0.0
C1141 C 0.95295 0.42813 0.11168 0.0
C1142 C 0.87794 0.41095 0.13074 0.0
H1143 H 0.85327 0.32389 0.25055 0.0
H1144 H 0.88457 0.35283 0.21905 0.0
H1145 H 0.8398 0.4003 0.15025 0.0
H1146 H 0.91354 0.44911 0.04323 0.0
H1147 H 0.88609 0.42335 0.07817 0.0
H1148 H 0.93535 0.37769 0.14623 0.0
C1149 C 0.86194 0.34669 0.21273 0.0
C1150 C 0.86055 0.39501 0.14954 0.0
C1151 C 0.84397 0.33031 0.23092 0.0
C1152 C 0.92509 0.4436 0.0622 0.0
C1153 C 0.90917 0.4289 0.08244 0.0
C1154 C 0.91473 0.38315 0.14709 0.0
C1155 C 0.85077 0.35527 0.18683 0.0
C1156 C 0.86985 0.37277 0.16731 0.0
C1157 C 0.92274 0.42096 0.10755 0.0
C1158 C 0.90515 0.40504 0.12893 0.0
H1159 H 0.7805 0.32438 0.19184 0.0
H1160 H 0.81172 0.35281 0.15988 0.0
H1161 H 0.90522 0.35027 0.1793 0.0
H1162 H 0.99217 0.44805 0.09514 0.0
H1163 H 0.96422 0.42262 0.13077 0.0
C1164 C 0.695 0.78193 0.20556 0.0
C1165 C 0.72165 0.79153 0.21932 0.0
C1166 C 0.68051 0.80056 0.18777 0.0
C1167 C 0.67804 0.87804 0.16748 0.0
H1168 H 0.62509 0.84895 0.11085 0.0
C1169 C 0.6007 0.94696 0.10459 0.0
C1170 C 0.59151 0.94328 0.07835 0.0
C1171 C 0.61615 0.92817 0.12127 0.0
C1172 C 0.63997 0.85783 0.12623 0.0
H1173 H 0.75324 0.82882 0.22622 0.0
H1174 H 0.72886 0.86148 0.19405 0.0
H1175 H 0.65452 0.81865 0.13874 0.0
H1176 H 0.59154 0.91668 0.04914 0.0
H1177 H 0.61937 0.88455 0.07763 0.0
H1178 H 0.66484 0.91774 0.15394 0.0
C1179 C 0.71883 0.83939 0.19707 0.0
C1180 C 0.65669 0.84004 0.1428 0.0
C1181 C 0.73323 0.82059 0.21523 0.0
C1182 C 0.59781 0.91989 0.06936 0.0
C1183 C 0.6139 0.90139 0.08589 0.0
C1184 C 0.66173 0.89601 0.15059 0.0
C1185 C 0.69208 0.8297 0.18299 0.0
C1186 C 0.67572 0.84959 0.16408 0.0
C1187 C 0.62373 0.90534 0.11215 0.0
C1188 C 0.64198 0.88619 0.12982 0.0
H1189 H 0.68505 0.75977 0.20886 0.0
H1190 H 0.65972 0.79197 0.17835 0.0
H1191 H 0.69207 0.88651 0.18356 0.0
H1192 H 0.59617 0.9647 0.11224 0.0
H1193 H 0.62221 0.9318 0.14137 0.0
C1194 C 0.22723 0.74501 0.17432 0.0
C1195 C 0.23338 0.72905 0.19887 0.0
C1196 C 0.20672 0.73313 0.1554 0.0
C1197 C 0.14397 0.67572 0.14962 0.0
H1198 H 0.16163 0.67756 0.07892 0.0
C1199 C 0.09685 0.58747 0.08937 0.0
C1200 C 0.08953 0.59352 0.06226 0.0
C1201 C 0.10925 0.60908 0.10398 0.0
C1202 C 0.15607 0.67743 0.09838 0.0
H1203 H 0.22357 0.68777 0.22229 0.0
H1204 H 0.18822 0.6672 0.18949 0.0
H1205 H 0.19478 0.7063 0.10848 0.0
H1206 H 0.0885 0.627 0.02921 0.0
H1207 H 0.11096 0.66518 0.05496 0.0
H1208 H 0.10597 0.646 0.14002 0.0
C1209 C 0.19876 0.68904 0.18502 0.0
C1210 C 0.17507 0.6938 0.11531 0.0
C1211 C 0.21929 0.70079 0.20376 0.0
C1212 C 0.09389 0.62183 0.05013 0.0
C1213 C 0.10683 0.64358 0.06478 0.0
C1214 C 0.12504 0.65946 0.13276 0.0
C1215 C 0.19194 0.70515 0.1608 0.0
C1216 C 0.16972 0.69217 0.1414 0.0
C1217 C 0.11495 0.63729 0.09181 0.0
C1218 C 0.13146 0.65926 0.10733 0.0
H1219 H 0.23806 0.76673 0.16981 0.0
H1220 H 0.20201 0.74595 0.1368 0.0
H1221 H 0.13902 0.67457 0.16948 0.0
H1222 H 0.09354 0.56584 0.09925 0.0
H1223 H 0.11558 0.6035 0.1247 0.0
C1224 C 0.35238 0.81397 0.8211 0.0
C1225 C 0.35033 0.78506 0.8201 0.0
C1226 C 0.37319 0.82775 0.8385 0.0
C1227 C 0.4135 0.82167 0.90096 0.0
H1228 H 0.46522 0.88792 0.87153 0.0
C1229 C 0.47155 0.93643 0.92946 0.0
C1230 C 0.48221 0.92989 0.95584 0.0
C1231 C 0.4618 0.91528 0.91374 0.0
C1232 C 0.45097 0.86949 0.88014 0.0
H1233 H 0.36803 0.74771 0.8371 0.0
H1234 H 0.40414 0.77189 0.86829 0.0
H1235 H 0.43452 0.85703 0.84261 0.0
H1236 H 0.49218 0.89591 0.98611 0.0
H1237 H 0.47503 0.85849 0.95835 0.0
H1238 H 0.42835 0.83524 0.93836 0.0
C1239 C 0.38978 0.78379 0.85519 0.0
C1240 C 0.43354 0.85175 0.86355 0.0
C1241 C 0.36925 0.77005 0.83732 0.0
C1242 C 0.48409 0.90161 0.96584 0.0
C1243 C 0.47408 0.8802 0.95001 0.0
C1244 C 0.43068 0.83972 0.91762 0.0
C1245 C 0.39209 0.81286 0.85565 0.0
C1246 C 0.41403 0.82822 0.87372 0.0
C1247 C 0.46241 0.8868 0.92383 0.0
C1248 C 0.44883 0.86447 0.90727 0.0
H1249 H 0.33829 0.82617 0.808 0.0
H1250 H 0.37448 0.85015 0.83864 0.0
H1251 H 0.3985 0.80364 0.9092 0.0
H1252 H 0.47001 0.95799 0.92098 0.0
H1253 H 0.45258 0.92126 0.8939 0.0
C1254 C 0.19396 0.33361 0.88119 0.0
C1255 C 0.17583 0.30886 0.87431 0.0
C1256 C 0.18312 0.35339 0.89169 0.0
C1257 C 0.12003 0.35941 0.9239 0.0
H1258 H 0.15219 0.43958 0.91283 0.0
C1259 C 0.06979 0.44192 0.9599 0.0
C1260 C 0.08889 0.46072 0.97481 0.0
C1261 C 0.08014 0.42498 0.94567 0.0
C1262 C 0.14307 0.41722 0.91614 0.0
H1263 H 0.13195 0.28603 0.87176 0.0
H1264 H 0.11275 0.32084 0.88896 0.0
H1265 H 0.17035 0.40715 0.89125 0.0
H1266 H 0.13389 0.47726 0.98546 0.0
H1267 H 0.15191 0.44801 0.96018 0.0
H1268 H 0.09243 0.36967 0.9484 0.0
C1269 C 0.13556 0.32468 0.88732 0.0
C1270 C 0.15356 0.39855 0.90388 0.0
C1271 C 0.1465 0.30475 0.87725 0.0
C1272 C 0.11859 0.46296 0.97427 0.0
C1273 C 0.12893 0.4463 0.9597 0.0
C1274 C 0.1093 0.37811 0.9358 0.0
C1275 C 0.15377 0.34906 0.89519 0.0
C1276 C 0.14227 0.36931 0.90767 0.0
C1277 C 0.10982 0.42672 0.94567 0.0
C1278 C 0.12076 0.4072 0.93216 0.0
H1279 H 0.21672 0.3372 0.87929 0.0
H1280 H 0.19797 0.37163 0.89777 0.0
H1281 H 0.11118 0.33706 0.92794 0.0
H1282 H 0.04679 0.43956 0.9599 0.0
H1283 H 0.0649 0.41027 0.93485 0.0
C1284 C 0.73929 0.21373 0.81995 0.0
C1285 C 0.72585 0.21684 0.79414 0.0
C1286 C 0.72479 0.19626 0.84017 0.0
C1287 C 0.66016 0.13932 0.85254 0.0
H1288 H 0.6713 0.16366 0.92084 0.0
C1289 C 0.58678 0.08658 0.93491 0.0
C1290 C 0.60035 0.08231 0.96067 0.0
C1291 C 0.60215 0.10236 0.91444 0.0
C1292 C 0.66808 0.15633 0.90198 0.0
H1293 H 0.68636 0.20504 0.76952 0.0
H1294 H 0.66094 0.17506 0.80457 0.0
H1295 H 0.69848 0.19153 0.88605 0.0
H1296 H 0.64106 0.09145 0.98473 0.0
H1297 H 0.66748 0.11867 0.94936 0.0
H1298 H 0.62943 0.10429 0.8685 0.0
C1299 C 0.68296 0.18521 0.80927 0.0
C1300 C 0.68383 0.17234 0.88195 0.0
C1301 C 0.69747 0.20257 0.78913 0.0
C1302 C 0.62968 0.09427 0.96527 0.0
C1303 C 0.64492 0.11012 0.94492 0.0
C1304 C 0.6443 0.12338 0.87256 0.0
C1305 C 0.69629 0.18184 0.83518 0.0
C1306 C 0.68012 0.16415 0.85687 0.0
C1307 C 0.63144 0.11448 0.91919 0.0
C1308 C 0.64802 0.13164 0.89759 0.0
H1309 H 0.76085 0.22503 0.8246 0.0
H1310 H 0.73598 0.19409 0.85974 0.0
H1311 H 0.65695 0.13194 0.83371 0.0
H1312 H 0.56428 0.07771 0.93053 0.0
H1313 H 0.59094 0.10543 0.89493 0.0
C1314 C 0.85259 0.72837 0.80996 0.0
C1315 C 0.82323 0.71618 0.80859 0.0
C1316 C 0.87284 0.71507 0.82727 0.0
C1317 C 0.88087 0.64337 0.86189 0.0
H1318 H 0.94823 0.68205 0.90066 0.0
C1319 C 0.96448 0.58022 0.918 0.0
C1320 C 0.97581 0.58568 0.9434 0.0
C1321 C 0.94942 0.59897 0.90101 0.0
C1322 C 0.92945 0.67088 0.89006 0.0
H1323 H 0.79212 0.68068 0.82406 0.0
H1324 H 0.82685 0.65804 0.85447 0.0
H1325 H 0.9144 0.70941 0.87331 0.0
H1326 H 0.98123 0.61605 0.97036 0.0
H1327 H 0.9544 0.64878 0.94077 0.0
H1328 H 0.89502 0.60494 0.87886 0.0
C1329 C 0.8346 0.67759 0.84218 0.0
C1330 C 0.91017 0.68663 0.87416 0.0
C1331 C 0.81457 0.6907 0.8249 0.0
C1332 C 0.97303 0.61132 0.95083 0.0
C1333 C 0.95755 0.63006 0.93384 0.0
C1334 C 0.89997 0.62775 0.87766 0.0
C1335 C 0.86415 0.68913 0.84327 0.0
C1336 C 0.88545 0.67303 0.85995 0.0
C1337 C 0.94467 0.62365 0.90895 0.0
C1338 C 0.92466 0.64114 0.89199 0.0
H1339 H 0.85995 0.74761 0.7971 0.0
H1340 H 0.89537 0.72454 0.82738 0.0
H1341 H 0.86244 0.63202 0.85101 0.0
H1342 H 0.96643 0.56081 0.91151 0.0
H1343 H 0.94076 0.59359 0.88179 0.0
C1344 C 0.21228 0.29717 0.21484 0.0
C1345 C 0.24135 0.30807 0.21158 0.0
C1346 C 0.19043 0.30878 0.19815 0.0
C1347 C 0.18061 0.37703 0.15833 0.0
H1348 H 0.10839 0.33691 0.12802 0.0
C1349 C 0.09454 0.43919 0.10684 0.0
C1350 C 0.08169 0.43306 0.08198 0.0
C1351 C 0.11005 0.42062 0.12352 0.0
C1352 C 0.12849 0.34841 0.13631 0.0
H1353 H 0.27023 0.33902 0.18814 0.0
H1354 H 0.23261 0.35882 0.15913 0.0
H1355 H 0.14354 0.31019 0.15443 0.0
H1356 H 0.07377 0.40152 0.0559 0.0
H1357 H 0.10116 0.3689 0.08514 0.0
H1358 H 0.16625 0.41508 0.14029 0.0
C1359 C 0.22642 0.34159 0.1745 0.0
C1360 C 0.14854 0.33309 0.15161 0.0
C1361 C 0.24803 0.3301 0.19103 0.0
C1362 C 0.08319 0.40682 0.07498 0.0
C1363 C 0.09899 0.38815 0.09174 0.0
C1364 C 0.16067 0.39221 0.14335 0.0
C1365 C 0.19733 0.33177 0.17823 0.0
C1366 C 0.17502 0.34727 0.16262 0.0
C1367 C 0.11353 0.39534 0.11585 0.0
C1368 C 0.13428 0.37826 0.13207 0.0
H1369 H 0.20652 0.28057 0.23085 0.0
H1370 H 0.16826 0.30073 0.20164 0.0
H1371 H 0.20053 0.38877 0.16672 0.0
H1372 H 0.0936 0.45904 0.11304 0.0
H1373 H 0.12019 0.4266 0.14218 0.0
C1374 C 0.22827 0.69622 0.80588 0.0
C1375 C 0.25678 0.7043 0.81674 0.0
C1376 C 0.20714 0.68123 0.82183 0.0
C1377 C 0.19287 0.6642 0.89189 0.0
H1378 H 0.13568 0.60195 0.8691 0.0
C1379 C 0.13241 0.58012 0.96535 0.0
C1380 C 0.10259 0.57086 0.96005 0.0
C1381 C 0.14848 0.59738 0.94633 0.0
C1382 C 0.15125 0.61952 0.87562 0.0
H1383 H 0.28592 0.70148 0.85232 0.0
H1384 H 0.24942 0.67531 0.88011 0.0
H1385 H 0.16902 0.63023 0.8388 0.0
H1386 H 0.06655 0.57237 0.92992 0.0
H1387 H 0.095 0.60251 0.89631 0.0
H1388 H 0.17569 0.65317 0.92882 0.0
C1389 C 0.24295 0.68126 0.8595 0.0
C1390 C 0.17039 0.63577 0.85825 0.0
C1391 C 0.26397 0.69611 0.84357 0.0
C1392 C 0.08942 0.57906 0.93476 0.0
C1393 C 0.10573 0.59628 0.91549 0.0
C1394 C 0.17392 0.64794 0.9092 0.0
C1395 C 0.21415 0.67376 0.84895 0.0
C1396 C 0.19192 0.65795 0.86636 0.0
C1397 C 0.13544 0.60596 0.92122 0.0
C1398 C 0.15326 0.62499 0.90154 0.0
H1399 H 0.22228 0.70161 0.78509 0.0
H1400 H 0.18525 0.67591 0.81297 0.0
H1401 H 0.20854 0.68157 0.89866 0.0
H1402 H 0.14356 0.5743 0.98443 0.0
H1403 H 0.17135 0.60392 0.95134 0.0
C1404 C 0.36253 0.24265 0.81379 0.0
C1405 C 0.3357 0.23221 0.80083 0.0
C1406 C 0.37763 0.22476 0.83184 0.0
C1407 C 0.38168 0.14804 0.85378 0.0
H1408 H 0.43469 0.17922 0.9094 0.0
C1409 C 0.46134 0.08222 0.91681 0.0
C1410 C 0.46998 0.08603 0.94309 0.0
C1411 C 0.44555 0.10055 0.89997 0.0
C1412 C 0.41981 0.16981 0.89428 0.0
H1413 H 0.30429 0.19431 0.79561 0.0
H1414 H 0.3298 0.16298 0.82822 0.0
H1415 H 0.4043 0.20843 0.88115 0.0
H1416 H 0.46878 0.1124 0.97218 0.0
H1417 H 0.44042 0.14382 0.9433 0.0
H1418 H 0.39593 0.10893 0.86788 0.0
C1419 C 0.33949 0.18512 0.82437 0.0
C1420 C 0.40253 0.18692 0.87757 0.0
C1421 C 0.32448 0.20313 0.80597 0.0
C1422 C 0.46293 0.10915 0.95193 0.0
C1423 C 0.44654 0.1272 0.93521 0.0
C1424 C 0.39858 0.13077 0.8708 0.0
C1425 C 0.36646 0.19563 0.83762 0.0
C1426 C 0.38346 0.17654 0.85668 0.0
C1427 C 0.43713 0.12299 0.90896 0.0
C1428 C 0.41833 0.14141 0.89118 0.0
H1429 H 0.37213 0.26483 0.80966 0.0
H1430 H 0.39855 0.23387 0.84066 0.0
H1431 H 0.36762 0.139 0.838 0.0
H1432 H 0.46646 0.06466 0.90932 0.0
H1433 H 0.4398 0.09683 0.87986 0.0
C1434 C 0.83113 0.32012 0.82088 0.0
C1435 C 0.82458 0.29055 0.82239 0.0
C1436 C 0.8473 0.33272 0.84161 0.0
C1437 C 0.90087 0.32156 0.89771 0.0
H1438 H 0.88045 0.38884 0.91447 0.0
C1439 C 0.96117 0.39677 0.97502 0.0
C1440 C 0.96641 0.4251 0.96293 0.0
C1441 C 0.94502 0.37564 0.96091 0.0
C1442 C 0.88628 0.36994 0.91014 0.0
H1443 H 0.82896 0.251 0.84748 0.0
H1444 H 0.85778 0.2732 0.88364 0.0
H1445 H 0.84761 0.36055 0.88476 0.0
H1446 H 0.96155 0.4531 0.92618 0.0
H1447 H 0.9336 0.41651 0.90188 0.0
H1448 H 0.94007 0.33175 0.92285 0.0
C1449 C 0.85057 0.28651 0.86618 0.0
C1450 C 0.86759 0.35384 0.89307 0.0
C1451 C 0.83414 0.27384 0.84543 0.0
C1452 C 0.95738 0.43154 0.93615 0.0
C1453 C 0.94139 0.41065 0.92222 0.0
C1454 C 0.91965 0.33773 0.91501 0.0
C1455 C 0.85731 0.3161 0.86443 0.0
C1456 C 0.87512 0.33009 0.8859 0.0
C1457 C 0.93409 0.3828 0.9347 0.0
C1458 C 0.91283 0.36257 0.92056 0.0
H1459 H 0.82417 0.33371 0.80353 0.0
H1460 H 0.85248 0.3556 0.83951 0.0
H1461 H 0.90722 0.30335 0.89249 0.0
H1462 H 0.96791 0.39129 0.99566 0.0
H1463 H 0.93967 0.35418 0.97082 0.0
C1464 C 0.72338 0.88825 0.86005 0.0
C1465 C 0.73564 0.86724 0.87705 0.0
C1466 C 0.7045 0.90219 0.86886 0.0
C1467 C 0.65584 0.89582 0.91919 0.0
H1468 H 0.67322 0.97783 0.9105 0.0
C1469 C 0.58597 0.96132 0.9564 0.0
C1470 C 0.60143 0.98104 0.97244 0.0
C1471 C 0.6003 0.94849 0.94147 0.0
C1472 C 0.66804 0.95494 0.91294 0.0
H1473 H 0.73698 0.84355 0.91616 0.0
H1474 H 0.7036 0.86741 0.93137 0.0
H1475 H 0.70134 0.95218 0.89043 0.0
H1476 H 0.64392 1.00368 0.98438 0.0
H1477 H 0.66882 0.98163 0.95796 0.0
H1478 H 0.62284 0.89849 0.94202 0.0
C1479 C 0.70871 0.87329 0.91134 0.0
C1480 C 0.68397 0.94029 0.90131 0.0
C1481 C 0.72791 0.85975 0.90269 0.0
C1482 C 0.63139 0.9885 0.97233 0.0
C1483 C 0.64565 0.97599 0.95709 0.0
C1484 C 0.63963 0.91047 0.93047 0.0
C1485 C 0.69711 0.89494 0.89466 0.0
C1486 C 0.67837 0.91055 0.90472 0.0
C1487 C 0.63033 0.95544 0.9419 0.0
C1488 C 0.64587 0.94016 0.92786 0.0
H1489 H 0.72912 0.89449 0.84023 0.0
H1490 H 0.69577 0.91872 0.85557 0.0
H1491 H 0.65096 0.87291 0.92203 0.0
H1492 H 0.56288 0.95503 0.95608 0.0
H1493 H 0.58792 0.93287 0.9298 0.0
C1494 C 0.92101 0.68982 0.17639 0.0
C1495 C 0.89283 0.68537 0.18325 0.0
C1496 C 0.92861 0.67256 0.16076 0.0
C1497 C 0.90116 0.62624 0.1113 0.0
H1498 H 0.97026 0.59532 0.13538 0.0
C1499 C 0.93873 0.55154 0.05337 0.0
C1500 C 0.96843 0.55474 0.05231 0.0
C1501 C 0.9282 0.56544 0.0703 0.0
C1502 C 0.95112 0.60404 0.12812 0.0
H1503 H 0.85034 0.65952 0.17812 0.0
H1504 H 0.86357 0.62986 0.15 0.0
H1505 H 0.95414 0.62408 0.16217 0.0
H1506 H 1.01036 0.5751 0.06831 0.0
H1507 H 0.99212 0.59991 0.09709 0.0
H1508 H 0.89861 0.60714 0.07679 0.0
C1509 C 0.87974 0.64667 0.15712 0.0
C1510 C 0.94182 0.62041 0.14359 0.0
C1511 C 0.87217 0.66376 0.17313 0.0
C1512 C 0.98736 0.57193 0.06877 0.0
C1513 C 0.97684 0.58608 0.08544 0.0
C1514 C 0.91068 0.61014 0.0956 0.0
C1515 C 0.90818 0.65063 0.15116 0.0
C1516 C 0.91691 0.63192 0.13524 0.0
C1517 C 0.94709 0.58316 0.08639 0.0
C1518 C 0.93599 0.59904 0.10367 0.0
H1519 H 0.93736 0.70673 0.18311 0.0
H1520 H 0.95055 0.67649 0.15604 0.0
H1521 H 0.88199 0.63502 0.1043 0.0
H1522 H 0.92357 0.53827 0.0411 0.0
H1523 H 0.90521 0.5622 0.07078 0.0
C1524 C 0.3267 0.80227 0.19778 0.0
C1525 C 0.33977 0.79912 0.22369 0.0
C1526 C 0.3413 0.82017 0.1779 0.0
C1527 C 0.40386 0.87951 0.16765 0.0
H1528 H 0.39433 0.85915 0.09783 0.0
C1529 C 0.47522 0.94 0.08636 0.0
C1530 C 0.4612 0.94535 0.06091 0.0
C1531 C 0.46053 0.92244 0.1064 0.0
C1532 C 0.39707 0.86531 0.11716 0.0
H1533 H 0.37897 0.81048 0.24882 0.0
H1534 H 0.40461 0.84141 0.21431 0.0
H1535 H 0.36836 0.82805 0.13193 0.0
H1536 H 0.42046 0.93623 0.03688 0.0
H1537 H 0.39517 0.90584 0.07158 0.0
H1538 H 0.43287 0.91664 0.15284 0.0
C1539 C 0.38274 0.83103 0.20932 0.0
C1540 C 0.38206 0.84747 0.13677 0.0
C1541 C 0.36813 0.81316 0.22912 0.0
C1542 C 0.43212 0.93267 0.05614 0.0
C1543 C 0.41756 0.91501 0.07606 0.0
C1544 C 0.41901 0.89727 0.14808 0.0
C1545 C 0.36951 0.83499 0.18342 0.0
C1546 C 0.38523 0.85426 0.16234 0.0
C1547 C 0.43153 0.90956 0.10146 0.0
C1548 C 0.41579 0.89045 0.12254 0.0
H1549 H 0.30519 0.79096 0.19287 0.0
H1550 H 0.33027 0.8227 0.15829 0.0
H1551 H 0.4065 0.88582 0.18692 0.0
H1552 H 0.49757 0.94935 0.09082 0.0
H1553 H 0.47205 0.91855 0.12568 0.0
C1554 C 0.6863 0.2325 0.20909 0.0
C1555 C 0.71559 0.23672 0.20571 0.0
C1556 C 0.6652 0.22167 0.19009 0.0
C1557 C 0.62819 0.17859 0.15798 0.0
H1558 H 0.63985 0.18979 0.08451 0.0
C1559 C 0.5868 0.0928 0.09311 0.0
C1560 C 0.57871 0.09972 0.06619 0.0
C1561 C 0.59706 0.11389 0.10884 0.0
C1562 C 0.63586 0.18678 0.10483 0.0
H1563 H 0.74552 0.23284 0.17949 0.0
H1564 H 0.70904 0.21315 0.14697 0.0
H1565 H 0.67058 0.22035 0.1137 0.0
H1566 H 0.57369 0.13425 0.03485 0.0
H1567 H 0.59195 0.17154 0.06254 0.0
H1568 H 0.59372 0.14484 0.14919 0.0
C1569 C 0.70218 0.21905 0.16386 0.0
C1570 C 0.65377 0.20406 0.12168 0.0
C1571 C 0.72323 0.23016 0.18271 0.0
C1572 C 0.57974 0.12831 0.05555 0.0
C1573 C 0.59038 0.14961 0.07136 0.0
C1574 C 0.61024 0.16144 0.14113 0.0
C1575 C 0.67288 0.21432 0.16742 0.0
C1576 C 0.65086 0.19949 0.14867 0.0
C1577 C 0.59968 0.1426 0.09811 0.0
C1578 C 0.61457 0.16457 0.11457 0.0
H1579 H 0.6796 0.2372 0.2266 0.0
H1580 H 0.64287 0.21869 0.19337 0.0
H1581 H 0.62525 0.1743 0.17859 0.0
H1582 H 0.58605 0.07094 0.10195 0.0
H1583 H 0.60433 0.10762 0.12922 0.0
C1584 C 0.71814 0.68755 0.80909 0.0
C1585 C 0.71866 0.71677 0.80548 0.0
C1586 C 0.70416 0.66975 0.82923 0.0
C1587 C 0.65099 0.66248 0.87535 0.0
H1588 H 0.69873 0.6147 0.92063 0.0
C1589 C 0.61204 0.59475 0.97018 0.0
C1590 C 0.61833 0.56733 0.97622 0.0
C1591 C 0.62525 0.61443 0.95066 0.0
C1592 C 0.68488 0.62755 0.90807 0.0
H1593 H 0.70491 0.7504 0.81979 0.0
H1594 H 0.6795 0.71907 0.8546 0.0
H1595 H 0.71719 0.64487 0.88219 0.0
H1596 H 0.64412 0.5394 0.96691 0.0
H1597 H 0.66667 0.57327 0.9327 0.0
H1598 H 0.6183 0.64463 0.90063 0.0
C1599 C 0.68973 0.70993 0.84172 0.0
C1600 C 0.69554 0.6449 0.88603 0.0
C1601 C 0.70411 0.7278 0.82178 0.0
C1602 C 0.63907 0.56045 0.96307 0.0
C1603 C 0.65203 0.57999 0.94335 0.0
C1604 C 0.64012 0.64478 0.89719 0.0
C1605 C 0.69037 0.68083 0.84612 0.0
C1606 C 0.67868 0.66243 0.86938 0.0
C1607 C 0.64488 0.60708 0.93646 0.0
C1608 C 0.65689 0.62696 0.91384 0.0
H1609 H 0.73031 0.67869 0.79771 0.0
H1610 H 0.70499 0.64741 0.83218 0.0
H1611 H 0.63753 0.67575 0.86278 0.0
H1612 H 0.59619 0.60074 0.97999 0.0
H1613 H 0.61963 0.63523 0.9464 0.0
C1614 C 0.41123 0.69528 0.8821 0.0
C1615 C 0.40534 0.69898 0.85475 0.0
C1616 C 0.43808 0.70685 0.89381 0.0
C1617 C 0.50818 0.71493 0.87258 0.0
H1618 H 0.52022 0.69685 0.94789 0.0
C1619 C 0.54033 0.62404 0.95904 0.0
C1620 C 0.52723 0.60277 0.9439 0.0
C1621 C 0.54543 0.65231 0.94754 0.0
C1622 C 0.51829 0.70254 0.92682 0.0
H1623 H 0.42132 0.72228 0.81861 0.0
H1624 H 0.46731 0.7433 0.83917 0.0
H1625 H 0.48663 0.7271 0.92844 0.0
H1626 H 0.51199 0.59331 0.90484 0.0
H1627 H 0.51893 0.64253 0.88473 0.0
H1628 H 0.53915 0.68958 0.87093 0.0
C1629 C 0.45177 0.73037 0.85155 0.0
C1630 C 0.49861 0.71984 0.91561 0.0
C1631 C 0.42511 0.71834 0.83976 0.0
C1632 C 0.52181 0.60959 0.9168 0.0
C1633 C 0.52625 0.63792 0.90533 0.0
C1634 C 0.52848 0.69833 0.88378 0.0
C1635 C 0.4596 0.72251 0.87838 0.0
C1636 C 0.49031 0.7225 0.8885 0.0
C1637 C 0.53649 0.65979 0.92086 0.0
C1638 C 0.53058 0.68872 0.91081 0.0
H1639 H 0.39599 0.68161 0.89436 0.0
H1640 H 0.44273 0.70057 0.91465 0.0
H1641 H 0.50367 0.71769 0.85147 0.0
H1642 H 0.54531 0.6189 0.98003 0.0
H1643 H 0.55418 0.66838 0.95997 0.0
C1644 C 0.31662 0.34385 0.81479 0.0
C1645 C 0.32937 0.33246 0.79734 0.0
C1646 C 0.33315 0.36337 0.83027 0.0
C1647 C 0.40593 0.38373 0.86139 0.0
H1648 H 0.38171 0.4528 0.86871 0.0
C1649 C 0.47702 0.46429 0.92398 0.0
C1650 C 0.4635 0.47933 0.93775 0.0
C1651 C 0.46101 0.44747 0.90583 0.0
C1652 C 0.38864 0.43341 0.86728 0.0
H1653 H 0.36952 0.33202 0.78297 0.0
H1654 H 0.3985 0.36606 0.81008 0.0
H1655 H 0.35304 0.42178 0.83884 0.0
H1656 H 0.42241 0.48812 0.94346 0.0
H1657 H 0.39434 0.458 0.91266 0.0
H1658 H 0.44086 0.39452 0.89043 0.0
C1659 C 0.37562 0.3602 0.81146 0.0
C1660 C 0.37224 0.41573 0.84998 0.0
C1661 C 0.35898 0.34102 0.79565 0.0
C1662 C 0.43354 0.47701 0.93302 0.0
C1663 C 0.41745 0.45983 0.91516 0.0
C1664 C 0.4221 0.40116 0.87898 0.0
C1665 C 0.36291 0.37147 0.82905 0.0
C1666 C 0.38072 0.39071 0.84684 0.0
C1667 C 0.43093 0.44481 0.90123 0.0
C1668 C 0.41373 0.4263 0.88223 0.0
H1669 H 0.29385 0.33746 0.81662 0.0
H1670 H 0.3228 0.37147 0.84381 0.0
H1671 H 0.41277 0.36436 0.85967 0.0
H1672 H 0.50011 0.46579 0.92695 0.0
H1673 H 0.47236 0.43681 0.8952 0.0
C1674 C 0.68898 0.41707 0.79114 0.0
C1675 C 0.6874 0.38784 0.7918 0.0
C1676 C 0.6756 0.4271 0.80887 0.0
C1677 C 0.6501 0.40815 0.87364 0.0
H1678 H 0.60343 0.46561 0.84917 0.0
C1679 C 0.58543 0.44157 0.94377 0.0
C1680 C 0.58446 0.47043 0.94168 0.0
C1681 C 0.59608 0.43137 0.9244 0.0
C1682 C 0.61667 0.44983 0.8564 0.0
H1683 H 0.67028 0.34629 0.8118 0.0
H1684 H 0.64761 0.3639 0.84319 0.0
H1685 H 0.62659 0.44828 0.81786 0.0
H1686 H 0.59326 0.51119 0.91734 0.0
H1687 H 0.61268 0.49355 0.88374 0.0
H1688 H 0.64101 0.41006 0.91217 0.0
C1689 C 0.65927 0.37899 0.82886 0.0
C1690 C 0.62986 0.43985 0.83844 0.0
C1691 C 0.67239 0.36893 0.81094 0.0
C1692 C 0.59356 0.48879 0.91937 0.0
C1693 C 0.60464 0.47863 0.9001 0.0
C1694 C 0.63721 0.41831 0.89162 0.0
C1695 C 0.66061 0.40817 0.82792 0.0
C1696 C 0.64662 0.41884 0.84689 0.0
C1697 C 0.6065 0.44985 0.90262 0.0
C1698 C 0.62018 0.43918 0.88325 0.0
H1699 H 0.70081 0.43231 0.77704 0.0
H1700 H 0.67736 0.44971 0.80795 0.0
H1701 H 0.66327 0.39227 0.88077 0.0
H1702 H 0.57819 0.42684 0.96057 0.0
H1703 H 0.59639 0.40897 0.92668 0.0
C1704 C 0.61536 0.2838 0.19422 0.0
C1705 C 0.6373 0.28807 0.1778 0.0
C1706 C 0.58656 0.2788 0.18389 0.0
C1707 C 0.5452 0.2918 0.11646 0.0
H1708 H 0.51755 0.341 0.15388 0.0
C1709 C 0.52564 0.39669 0.06184 0.0
C1710 C 0.53875 0.41903 0.07569 0.0
C1711 C 0.51829 0.36932 0.07509 0.0
C1712 C 0.52519 0.32752 0.143 0.0
H1713 H 0.64582 0.28332 0.13916 0.0
H1714 H 0.59675 0.27795 0.12061 0.0
H1715 H 0.54147 0.30464 0.17802 0.0
H1716 H 0.55271 0.43133 0.11397 0.0
H1717 H 0.54244 0.38355 0.13719 0.0
H1718 H 0.53209 0.31725 0.08137 0.0
C1719 C 0.60089 0.27867 0.1414 0.0
C1720 C 0.53877 0.30599 0.15696 0.0
C1721 C 0.6296 0.28243 0.15197 0.0
C1722 C 0.54291 0.41417 0.10301 0.0
C1723 C 0.53647 0.38668 0.11626 0.0
C1724 C 0.53275 0.31412 0.10247 0.0
C1725 C 0.57908 0.27982 0.15667 0.0
C1726 C 0.55225 0.29014 0.14377 0.0
C1727 C 0.52501 0.36362 0.10241 0.0
C1728 C 0.52548 0.33408 0.11574 0.0
H1729 H 0.62002 0.28679 0.21457 0.0
H1730 H 0.57056 0.27712 0.19707 0.0
H1731 H 0.55235 0.27821 0.10539 0.0
H1732 H 0.52153 0.40035 0.04067 0.0
H1733 H 0.50858 0.35254 0.06372 0.0
C1734 C 0.69955 0.67835 0.22422 0.0
C1735 C 0.72935 0.6869 0.22443 0.0
C1736 C 0.68438 0.65886 0.20804 0.0
C1737 C 0.69149 0.62914 0.14841 0.0
H1738 H 0.62237 0.57694 0.16743 0.0
C1739 C 0.63147 0.54281 0.08614 0.0
C1740 C 0.60162 0.5413 0.08069 0.0
C1741 C 0.64741 0.55953 0.10441 0.0
C1742 C 0.64159 0.59151 0.16184 0.0
H1743 H 0.76689 0.68164 0.20838 0.0
H1744 H 0.74085 0.64671 0.18106 0.0
H1745 H 0.6499 0.60692 0.19874 0.0
H1746 H 0.56509 0.5559 0.0905 0.0
H1747 H 0.59292 0.58469 0.12265 0.0
H1748 H 0.68332 0.61323 0.11167 0.0
C1749 C 0.72884 0.65544 0.19277 0.0
C1750 C 0.65735 0.6088 0.17973 0.0
C1751 C 0.74387 0.67523 0.20864 0.0
C1752 C 0.58806 0.55666 0.09414 0.0
C1753 C 0.60395 0.573 0.11269 0.0
C1754 C 0.67596 0.61157 0.1307 0.0
C1755 C 0.69877 0.64736 0.19182 0.0
C1756 C 0.68245 0.62804 0.17322 0.0
C1757 C 0.6338 0.57473 0.11793 0.0
C1758 C 0.65074 0.59271 0.13714 0.0
H1759 H 0.68773 0.68782 0.23543 0.0
H1760 H 0.66123 0.65372 0.20753 0.0
H1761 H 0.71027 0.64405 0.14232 0.0
H1762 H 0.64259 0.53131 0.07609 0.0
H1763 H 0.67038 0.56035 0.10817 0.0
C1764 C 0.38713 0.64784 0.20725 0.0
C1765 C 0.37127 0.62841 0.2255 0.0
C1766 C 0.40104 0.63841 0.18946 0.0
C1767 C 0.43106 0.57811 0.1792 0.0
H1768 H 0.42234 0.60996 0.10583 0.0
C1769 C 0.47045 0.53138 0.09842 0.0
C1770 C 0.47987 0.55005 0.0764 0.0
C1771 C 0.45875 0.54111 0.11759 0.0
C1772 C 0.42551 0.60114 0.1263 0.0
H1773 H 0.35727 0.58363 0.23875 0.0
H1774 H 0.38215 0.56736 0.20818 0.0
H1775 H 0.39903 0.62685 0.13707 0.0
H1776 H 0.486 0.59379 0.05794 0.0
H1777 H 0.46682 0.61095 0.0917 0.0
H1778 H 0.45793 0.55272 0.1686 0.0
C1779 C 0.38392 0.5899 0.20783 0.0
C1780 C 0.41198 0.61078 0.14418 0.0
C1781 C 0.36972 0.59929 0.2254 0.0
C1782 C 0.47857 0.57881 0.07453 0.0
C1783 C 0.46732 0.5886 0.09382 0.0
C1784 C 0.44491 0.56868 0.16135 0.0
C1785 C 0.39972 0.60935 0.18966 0.0
C1786 C 0.41452 0.59933 0.1708 0.0
C1787 C 0.45658 0.56981 0.11531 0.0
C1788 C 0.44229 0.58003 0.13461 0.0
H1789 H 0.38928 0.6704 0.20697 0.0
H1790 H 0.41329 0.6539 0.17583 0.0
H1791 H 0.43362 0.56909 0.19967 0.0
H1792 H 0.47096 0.50903 0.10028 0.0
H1793 H 0.45048 0.5259 0.13368 0.0
C1794 C 0.37042 0.31813 0.21329 0.0
C1795 C 0.3447 0.29946 0.20725 0.0
C1796 C 0.3856 0.33486 0.19327 0.0
C1797 C 0.39704 0.38164 0.14685 0.0
H1798 H 0.40631 0.35398 0.08362 0.0
C1799 C 0.42555 0.45802 0.05331 0.0
C1800 C 0.44763 0.45265 0.04082 0.0
C1801 C 0.413 0.43773 0.07279 0.0
C1802 C 0.404 0.36202 0.10119 0.0
H1803 H 0.31678 0.28134 0.17533 0.0
H1804 H 0.34306 0.31016 0.14082 0.0
H1805 H 0.38789 0.32061 0.12058 0.0
H1806 H 0.47254 0.42108 0.03783 0.0
H1807 H 0.45068 0.38581 0.0717 0.0
H1808 H 0.41318 0.42303 0.12752 0.0
C1809 C 0.35127 0.31242 0.16094 0.0
C1810 C 0.39333 0.34292 0.12231 0.0
C1811 C 0.33602 0.29599 0.18087 0.0
C1812 C 0.45561 0.42592 0.0471 0.0
C1813 C 0.44304 0.40565 0.0665 0.0
C1814 C 0.40756 0.40074 0.12569 0.0
C1815 C 0.37571 0.33268 0.16683 0.0
C1816 C 0.3895 0.35254 0.14531 0.0
C1817 C 0.42214 0.41161 0.08008 0.0
C1818 C 0.41092 0.39119 0.10252 0.0
H1819 H 0.37848 0.32036 0.23341 0.0
H1820 H 0.4048 0.34981 0.19845 0.0
H1821 H 0.39406 0.38977 0.16417 0.0
H1822 H 0.41899 0.47842 0.04907 0.0
H1823 H 0.39657 0.44276 0.08258 0.0
C1824 C 0.84742 0.63737 0.68081 0.0
C1825 C 0.83778 0.65876 0.66216 0.0
C1826 C 0.86762 0.62279 0.67509 0.0
C1827 C 0.92492 0.62843 0.6336 0.0
H1828 H 0.90467 0.54679 0.63779 0.0
C1829 C 0.9978 0.56443 0.59929 0.0
C1830 C 0.9832 0.54916 0.57937 0.0
C1831 C 0.98237 0.57471 0.61536 0.0
C1832 C 0.91077 0.56954 0.63685 0.0
H1833 H 0.84225 0.68231 0.62337 0.0
H1834 H 0.87803 0.65737 0.61362 0.0
H1835 H 0.8736 0.57258 0.65419 0.0
H1836 H 0.94145 0.53118 0.5614 0.0
H1837 H 0.91448 0.54817 0.59002 0.0
H1838 H 0.96166 0.62557 0.6157 0.0
C1839 C 0.86981 0.65168 0.63252 0.0
C1840 C 0.89307 0.58426 0.64629 0.0
C1841 C 0.84924 0.66581 0.63802 0.0
C1842 C 0.9531 0.54264 0.57688 0.0
C1843 C 0.93771 0.55236 0.59325 0.0
C1844 C 0.94285 0.61369 0.6246 0.0
C1845 C 0.879 0.62983 0.65087 0.0
C1846 C 0.8996 0.61392 0.64411 0.0
C1847 C 0.95215 0.56939 0.612 0.0
C1848 C 0.9356 0.58417 0.62552 0.0
H1849 H 0.83881 0.63149 0.69953 0.0
H1850 H 0.87439 0.60605 0.68957 0.0
H1851 H 0.93049 0.65128 0.6318 0.0
H1852 H 1.02102 0.57008 0.60122 0.0
H1853 H 0.99402 0.58774 0.6297 0.0
C1854 C 0.33949 0.8155 0.71746 0.0
C1855 C 0.3165 0.79676 0.70637 0.0
C1856 C 0.35781 0.83508 0.70157 0.0
C1857 C 0.36465 0.87153 0.63332 0.0
H1858 H 0.44603 0.88199 0.65718 0.0
C1859 C 0.45294 0.93608 0.56831 0.0
C1860 C 0.47701 0.9525 0.58084 0.0
C1861 C 0.43222 0.91782 0.58292 0.0
C1862 C 0.42337 0.87967 0.65029 0.0
H1863 H 0.29319 0.78531 0.66995 0.0
H1864 H 0.32562 0.81909 0.64199 0.0
H1865 H 0.41212 0.84927 0.68367 0.0
H1866 H 0.4974 0.96304 0.6187 0.0
H1867 H 0.4614 0.9317 0.6439 0.0
H1868 H 0.37608 0.90201 0.59984 0.0
C1869 C 0.3297 0.81856 0.66301 0.0
C1870 C 0.40384 0.8608 0.66555 0.0
C1871 C 0.31127 0.79902 0.67898 0.0
C1872 C 0.47937 0.95063 0.60828 0.0
C1873 C 0.45873 0.93243 0.62283 0.0
C1874 C 0.38425 0.89047 0.618 0.0
C1875 C 0.35351 0.8366 0.67412 0.0
C1876 C 0.37418 0.85655 0.6574 0.0
C1877 C 0.43504 0.91544 0.61044 0.0
C1878 C 0.41391 0.89495 0.62636 0.0
H1879 H 0.3433 0.8151 0.73849 0.0
H1880 H 0.37534 0.84913 0.71087 0.0
H1881 H 0.34197 0.86907 0.62651 0.0
H1882 H 0.45035 0.93686 0.54723 0.0
H1883 H 0.41442 0.90497 0.57266 0.0
C1884 C 0.20133 0.30131 0.70934 0.0
C1885 C 0.22881 0.30821 0.72274 0.0
C1886 C 0.18748 0.32229 0.69446 0.0
C1887 C 0.19887 0.39642 0.66096 0.0
H1888 H 0.11646 0.3862 0.66186 0.0
C1889 C 0.12585 0.4528 0.57992 0.0
C1890 C 0.10023 0.45927 0.58562 0.0
C1891 C 0.14355 0.43886 0.59923 0.0
C1892 C 0.1395 0.38977 0.66158 0.0
H1893 H 0.26299 0.34286 0.73179 0.0
H1894 H 0.23888 0.37993 0.70533 0.0
H1895 H 0.14327 0.35328 0.69021 0.0
H1896 H 0.07402 0.45722 0.61676 0.0
H1897 H 0.10516 0.433 0.65079 0.0
H1898 H 0.19503 0.43293 0.63225 0.0
C1899 C 0.22822 0.35804 0.70603 0.0
C1900 C 0.15491 0.37055 0.67765 0.0
C1901 C 0.24214 0.33685 0.72109 0.0
C1902 C 0.09363 0.45274 0.61168 0.0
C1903 C 0.11136 0.43851 0.63111 0.0
C1904 C 0.18342 0.41566 0.64482 0.0
C1905 C 0.20048 0.35104 0.69274 0.0
C1906 C 0.18473 0.3732 0.67722 0.0
C1907 C 0.13625 0.43072 0.625 0.0
C1908 C 0.15337 0.41234 0.6445 0.0
H1909 H 0.19039 0.27945 0.71047 0.0
H1910 H 0.16647 0.31588 0.6842 0.0
H1911 H 0.22175 0.39919 0.66001 0.0
H1912 H 0.13174 0.45755 0.5601 0.0
H1913 H 0.16223 0.43315 0.59349 0.0
C1914 C 0.73872 0.24226 0.66624 0.0
C1915 C 0.74273 0.22501 0.69048 0.0
C1916 C 0.72446 0.2305 0.64425 0.0
C1917 C 0.70242 0.16221 0.61857 0.0
H1918 H 0.64308 0.19764 0.57536 0.0
C1919 C 0.59131 0.12258 0.55473 0.0
C1920 C 0.59998 0.10109 0.54485 0.0
C1921 C 0.61186 0.14343 0.56562 0.0
C1922 C 0.65964 0.18753 0.58718 0.0
H1923 H 0.73538 0.18185 0.7105 0.0
H1924 H 0.71035 0.16143 0.67237 0.0
H1925 H 0.67327 0.2217 0.6097 0.0
H1926 H 0.63622 0.08567 0.53595 0.0
H1927 H 0.67222 0.12293 0.55356 0.0
H1928 H 0.68785 0.12728 0.59756 0.0
C1929 C 0.71849 0.184 0.6702 0.0
C1930 C 0.67712 0.20143 0.60669 0.0
C1931 C 0.7327 0.19574 0.69214 0.0
C1932 C 0.62921 0.10214 0.54359 0.0
C1933 C 0.64974 0.12328 0.55393 0.0
C1934 C 0.68491 0.14827 0.59927 0.0
C1935 C 0.71413 0.20123 0.64602 0.0
C1936 C 0.69813 0.1885 0.62309 0.0
C1937 C 0.64136 0.14318 0.56647 0.0
C1938 C 0.6628 0.16039 0.58374 0.0
H1939 H 0.74668 0.26485 0.6642 0.0
H1940 H 0.72171 0.24429 0.62584 0.0
H1941 H 0.7188 0.15193 0.63054 0.0
H1942 H 0.56878 0.12185 0.55611 0.0
H1943 H 0.60454 0.15824 0.57522 0.0
C1944 C 0.85126 0.32326 0.31103 0.0
C1945 C 0.83675 0.29607 0.31976 0.0
C1946 C 0.86641 0.3407 0.32891 0.0
C1947 C 0.87213 0.3493 0.39934 0.0
H1948 H 0.93936 0.40493 0.38111 0.0
C1949 C 0.95631 0.41102 0.47078 0.0
C1950 C 0.96466 0.44021 0.46282 0.0
C1951 C 0.93699 0.39433 0.45443 0.0
C1952 C 0.9204 0.3897 0.38629 0.0
H1953 H 0.82635 0.26551 0.35382 0.0
H1954 H 0.85444 0.29516 0.38531 0.0
H1955 H 0.91598 0.37238 0.35071 0.0
H1956 H 0.95842 0.47513 0.4322 0.0
H1957 H 0.92509 0.44568 0.40322 0.0
H1958 H 0.87788 0.36599 0.43569 0.0
C1959 C 0.8537 0.30347 0.36466 0.0
C1960 C 0.9069 0.37102 0.36887 0.0
C1961 C 0.83806 0.28624 0.34669 0.0
C1962 C 0.95213 0.45271 0.43888 0.0
C1963 C 0.93328 0.43589 0.42225 0.0
C1964 C 0.88607 0.36763 0.41703 0.0
C1965 C 0.86763 0.33121 0.35603 0.0
C1966 C 0.88249 0.35059 0.37506 0.0
C1967 C 0.92619 0.40647 0.42963 0.0
C1968 C 0.91022 0.38806 0.41057 0.0
H1969 H 0.84916 0.33191 0.29053 0.0
H1970 H 0.87598 0.36212 0.32139 0.0
H1971 H 0.85306 0.33435 0.40466 0.0
H1972 H 0.9657 0.4009 0.48916 0.0
H1973 H 0.93191 0.37168 0.46049 0.0
C1974 C 0.66697 0.82248 0.36355 0.0
C1975 C 0.68044 0.80242 0.38076 0.0
C1976 C 0.65655 0.84316 0.37314 0.0
C1977 C 0.66105 0.87904 0.43179 0.0
H1978 H 0.58627 0.89407 0.40088 0.0
C1979 C 0.59449 0.94241 0.47783 0.0
C1980 C 0.57726 0.95914 0.46052 0.0
C1981 C 0.60967 0.92523 0.46822 0.0
C1982 C 0.60738 0.89053 0.40954 0.0
H1983 H 0.69452 0.78932 0.42159 0.0
H1984 H 0.67599 0.82499 0.43829 0.0
H1985 H 0.60772 0.86095 0.38369 0.0
H1986 H 0.56411 0.97236 0.41951 0.0
H1987 H 0.59093 0.94321 0.40289 0.0
H1988 H 0.66048 0.90856 0.45781 0.0
C1989 C 0.67355 0.82485 0.41734 0.0
C1990 C 0.61972 0.87145 0.39963 0.0
C1991 C 0.6839 0.80414 0.40776 0.0
C1992 C 0.57684 0.95945 0.43344 0.0
C1993 C 0.59209 0.94252 0.42388 0.0
C1994 C 0.64869 0.89822 0.44171 0.0
C1995 C 0.65938 0.84444 0.40021 0.0
C1996 C 0.64672 0.8654 0.41057 0.0
C1997 C 0.60806 0.92453 0.44111 0.0
C1998 C 0.62168 0.90428 0.43068 0.0
H1999 H 0.66376 0.82176 0.34267 0.0
H2000 H 0.64612 0.85812 0.3593 0.0
H2001 H 0.682 0.87514 0.44057 0.0
H2002 H 0.59516 0.94154 0.49881 0.0
H2003 H 0.62165 0.91161 0.48212 0.0
C2004 C 0.19651 0.71136 0.29161 0.0
C2005 C 0.22467 0.7254 0.29789 0.0
C2006 C 0.18087 0.6942 0.31103 0.0
C2007 C 0.18703 0.65533 0.3785 0.0
H2008 H 0.10709 0.66161 0.37503 0.0
C2009 C 0.10505 0.57834 0.44286 0.0
C2010 C 0.08435 0.58995 0.45201 0.0
C2011 C 0.12394 0.595 0.42554 0.0
C2012 C 0.12942 0.65971 0.3765 0.0
H2013 H 0.25806 0.73378 0.32968 0.0
H2014 H 0.23082 0.70344 0.36379 0.0
H2015 H 0.13653 0.6901 0.34221 0.0
H2016 H 0.06826 0.62866 0.45073 0.0
H2017 H 0.10117 0.65755 0.4209 0.0
H2018 H 0.17978 0.62497 0.41303 0.0
C2019 C 0.22109 0.70512 0.34368 0.0
C2020 C 0.14626 0.67584 0.35743 0.0
C2021 C 0.23676 0.7224 0.32415 0.0
C2022 C 0.0837 0.61885 0.44401 0.0
C2023 C 0.10251 0.63544 0.42672 0.0
C2024 C 0.17007 0.63899 0.39757 0.0
C2025 C 0.19281 0.691 0.33737 0.0
C2026 C 0.17526 0.67385 0.3581 0.0
C2027 C 0.12257 0.62367 0.41688 0.0
C2028 C 0.14102 0.64102 0.39684 0.0
H2029 H 0.18655 0.71371 0.27157 0.0
H2030 H 0.1593 0.68346 0.30538 0.0
H2031 H 0.20923 0.65314 0.37951 0.0
H2032 H 0.10627 0.5562 0.44858 0.0
H2033 H 0.13896 0.58514 0.41826 0.0
C2034 C 0.3541 0.22881 0.30615 0.0
C2035 C 0.32439 0.22197 0.30814 0.0
C2036 C 0.37334 0.21506 0.32449 0.0
C2037 C 0.37171 0.14728 0.37101 0.0
H2038 H 0.45104 0.178 0.3929 0.0
C2039 C 0.44858 0.07319 0.42132 0.0
C2040 C 0.46961 0.08122 0.44184 0.0
C2041 C 0.43249 0.09236 0.40634 0.0
C2042 C 0.42884 0.16912 0.38721 0.0
H2043 H 0.29181 0.19631 0.33129 0.0
H2044 H 0.32486 0.17382 0.36365 0.0
H2045 H 0.42055 0.20876 0.3653 0.0
H2046 H 0.49001 0.11661 0.46216 0.0
H2047 H 0.46135 0.15016 0.43615 0.0
H2048 H 0.3794 0.10799 0.39306 0.0
C2049 C 0.33364 0.18893 0.34773 0.0
C2050 C 0.41139 0.18674 0.37107 0.0
C2051 C 0.31459 0.20218 0.32934 0.0
C2052 C 0.47401 0.10945 0.44669 0.0
C2053 C 0.45767 0.1288 0.43159 0.0
C2054 C 0.38897 0.12985 0.38707 0.0
C2055 C 0.36322 0.19414 0.34511 0.0
C2056 C 0.38246 0.17607 0.36267 0.0
C2057 C 0.43645 0.12045 0.41125 0.0
C2058 C 0.41795 0.14024 0.39527 0.0
H2059 H 0.36224 0.24351 0.28969 0.0
H2060 H 0.39589 0.21974 0.32165 0.0
H2061 H 0.34987 0.13779 0.36474 0.0
H2062 H 0.44452 0.05191 0.41649 0.0
H2063 H 0.41703 0.08505 0.39056 0.0
C2064 C 0.75553 0.83972 0.70508 0.0
C2065 C 0.74606 0.81454 0.72149 0.0
C2066 C 0.73638 0.85252 0.68636 0.0
C2067 C 0.66163 0.84267 0.65116 0.0
H2068 H 0.67786 0.9246 0.64198 0.0
C2069 C 0.59543 0.91575 0.57334 0.0
C2070 C 0.59171 0.9408 0.58142 0.0
C2071 C 0.61307 0.89804 0.58928 0.0
C2072 C 0.67269 0.90172 0.6443 0.0
H2073 H 0.70854 0.78363 0.73184 0.0
H2074 H 0.67462 0.80625 0.69923 0.0
H2075 H 0.70961 0.89845 0.67195 0.0
H2076 H 0.60235 0.96541 0.61367 0.0
H2077 H 0.63186 0.93498 0.64091 0.0
H2078 H 0.62388 0.84643 0.62385 0.0
C2079 C 0.69721 0.81565 0.70025 0.0
C2080 C 0.69133 0.88657 0.66137 0.0
C2081 C 0.71662 0.80261 0.71896 0.0
C2082 C 0.60511 0.94683 0.60621 0.0
C2083 C 0.62231 0.92927 0.622 0.0
C2084 C 0.64276 0.85799 0.63397 0.0
C2085 C 0.70676 0.8411 0.68386 0.0
C2086 C 0.68624 0.85677 0.66522 0.0
C2087 C 0.62725 0.9049 0.6137 0.0
C2088 C 0.64784 0.88783 0.63052 0.0
H2089 H 0.77802 0.84962 0.70674 0.0
H2090 H 0.74493 0.87163 0.67391 0.0
H2091 H 0.65701 0.81979 0.65329 0.0
H2092 H 0.5854 0.91027 0.55448 0.0
H2093 H 0.61622 0.87944 0.58215 0.0
C2094 C 0.75643 0.20778 0.33958 0.0
C2095 C 0.75255 0.20589 0.31273 0.0
C2096 C 0.73828 0.18944 0.3566 0.0
C2097 C 0.68421 0.12166 0.3613 0.0
H2098 H 0.65857 0.15274 0.41565 0.0
C2099 C 0.58507 0.065 0.41438 0.0
C2100 C 0.58592 0.06571 0.44138 0.0
C2101 C 0.6072 0.08083 0.40011 0.0
C2102 C 0.66575 0.14357 0.4008 0.0
H2103 H 0.72861 0.18207 0.28278 0.0
H2104 H 0.69645 0.15045 0.31209 0.0
H2105 H 0.69409 0.18214 0.3885 0.0
H2106 H 0.61123 0.08369 0.47448 0.0
H2107 H 0.64984 0.11134 0.44954 0.0
H2108 H 0.65553 0.0832 0.37343 0.0
C2109 C 0.71325 0.16604 0.32029 0.0
C2110 C 0.68621 0.16048 0.38515 0.0
C2111 C 0.73139 0.18439 0.30334 0.0
C2112 C 0.60977 0.08256 0.45375 0.0
C2113 C 0.63186 0.09859 0.43939 0.0
C2114 C 0.66369 0.1048 0.37688 0.0
C2115 C 0.71612 0.16849 0.34716 0.0
C2116 C 0.69553 0.14991 0.36493 0.0
C2117 C 0.63084 0.09801 0.41233 0.0
C2118 C 0.65392 0.11558 0.39669 0.0
H2119 H 0.77327 0.22367 0.34734 0.0
H2120 H 0.74168 0.19168 0.37717 0.0
H2121 H 0.69123 0.11242 0.34642 0.0
H2122 H 0.56714 0.05228 0.40412 0.0
H2123 H 0.60542 0.08006 0.3793 0.0
C2124 C 0.85558 0.72392 0.31358 0.0
C2125 C 0.82815 0.71634 0.30029 0.0
C2126 C 0.87045 0.70334 0.32786 0.0
C2127 C 0.86198 0.62768 0.35862 0.0
H2128 H 0.94474 0.64225 0.3587 0.0
C2129 C 0.93584 0.5681 0.43624 0.0
C2130 C 0.96244 0.56409 0.43038 0.0
C2131 C 0.91798 0.58281 0.41777 0.0
C2132 C 0.92163 0.63747 0.35869 0.0
H2133 H 0.79505 0.68089 0.29108 0.0
H2134 H 0.82091 0.64463 0.31629 0.0
H2135 H 0.9167 0.67523 0.33215 0.0
H2136 H 0.99037 0.57152 0.39971 0.0
H2137 H 0.95889 0.59694 0.36701 0.0
H2138 H 0.86692 0.58974 0.38498 0.0
C2139 C 0.8308 0.66669 0.31603 0.0
C2140 C 0.90547 0.65675 0.34369 0.0
C2141 C 0.81585 0.68745 0.30164 0.0
C2142 C 0.96995 0.57393 0.40485 0.0
C2143 C 0.95202 0.58891 0.38624 0.0
C2144 C 0.87816 0.60835 0.37362 0.0
C2145 C 0.85857 0.67432 0.32909 0.0
C2146 C 0.87542 0.65249 0.34376 0.0
C2147 C 0.92604 0.59422 0.39264 0.0
C2148 C 0.90835 0.61315 0.3743 0.0
H2149 H 0.86573 0.746 0.31274 0.0
H2150 H 0.89139 0.7103 0.33799 0.0
H2151 H 0.83898 0.62354 0.35933 0.0
H2152 H 0.92932 0.56088 0.45572 0.0
H2153 H 0.8985 0.58651 0.4238 0.0
C2154 C 0.32738 0.77772 0.35127 0.0
C2155 C 0.32707 0.794 0.32625 0.0
C2156 C 0.34433 0.78848 0.37271 0.0
C2157 C 0.36785 0.82825 0.41466 0.0
H2158 H 0.44753 0.86223 0.40727 0.0
C2159 C 0.43374 0.91895 0.46675 0.0
C2160 C 0.46312 0.91934 0.47431 0.0
C2161 C 0.41686 0.89659 0.45502 0.0
C2162 C 0.42549 0.85235 0.40986 0.0
H2163 H 0.34426 0.8342 0.30407 0.0
H2164 H 0.37417 0.85281 0.34149 0.0
H2165 H 0.41864 0.83776 0.37256 0.0
H2166 H 0.4976 0.896 0.47726 0.0
H2167 H 0.46807 0.85695 0.45612 0.0
H2168 H 0.37431 0.84429 0.45135 0.0
C2169 C 0.36123 0.83178 0.34444 0.0
C2170 C 0.40892 0.83864 0.3899 0.0
C2171 C 0.34394 0.82124 0.3231 0.0
C2172 C 0.47491 0.89601 0.47178 0.0
C2173 C 0.45811 0.87383 0.45955 0.0
C2174 C 0.38432 0.84241 0.43449 0.0
C2175 C 0.36161 0.81549 0.3694 0.0
C2176 C 0.37981 0.82704 0.39186 0.0
C2177 C 0.4292 0.87448 0.45021 0.0
C2178 C 0.41314 0.85507 0.432 0.0
H2179 H 0.31451 0.75666 0.35428 0.0
H2180 H 0.3443 0.77555 0.39178 0.0
H2181 H 0.34541 0.81949 0.41657 0.0
H2182 H 0.42422 0.93677 0.46851 0.0
H2183 H 0.39471 0.89776 0.44786 0.0
C2184 C 0.24987 0.40786 0.36727 0.0
C2185 C 0.24595 0.39761 0.34309 0.0
C2186 C 0.22847 0.41928 0.37516 0.0
C2187 C 0.15055 0.41792 0.36532 0.0
H2188 H 0.17079 0.48336 0.40187 0.0
C2189 C 0.07963 0.44219 0.43573 0.0
C2190 C 0.07798 0.47034 0.43691 0.0
C2191 C 0.09744 0.4359 0.41938 0.0
C2192 C 0.16468 0.46534 0.39135 0.0
H2193 H 0.21614 0.39178 0.30817 0.0
H2194 H 0.17862 0.41119 0.32223 0.0
H2195 H 0.20787 0.46765 0.38324 0.0
H2196 H 0.093 0.51405 0.42126 0.0
H2197 H 0.1248 0.50309 0.39265 0.0
H2198 H 0.10751 0.41522 0.37397 0.0
C2199 C 0.19833 0.41027 0.3351 0.0
C2200 C 0.186 0.45611 0.38095 0.0
C2201 C 0.21985 0.39901 0.3271 0.0
C2202 C 0.0937 0.49217 0.42053 0.0
C2203 C 0.11205 0.48587 0.40438 0.0
C2204 C 0.12929 0.42701 0.3759 0.0
C2205 C 0.2024 0.42062 0.35922 0.0
C2206 C 0.17932 0.43196 0.36824 0.0
C2207 C 0.11448 0.45763 0.404 0.0
C2208 C 0.13618 0.45051 0.3895 0.0
H2209 H 0.26935 0.40667 0.38042 0.0
H2210 H 0.23214 0.42652 0.39409 0.0
H2211 H 0.14462 0.3992 0.35577 0.0
H2212 H 0.0678 0.42495 0.44822 0.0
H2213 H 0.09897 0.41398 0.41985 0.0
C2214 C 0.39816 0.16822 0.68376 0.0
C2215 C 0.38451 0.19105 0.67276 0.0
C2216 C 0.40437 0.15024 0.66799 0.0
C2217 C 0.41856 0.14868 0.60067 0.0
H2218 H 0.41593 0.06892 0.62611 0.0
C2219 C 0.46423 0.07556 0.54581 0.0
C2220 C 0.48216 0.05875 0.56212 0.0
C2221 C 0.44699 0.08974 0.55667 0.0
C2222 C 0.41687 0.09116 0.61869 0.0
H2223 H 0.36589 0.2124 0.63654 0.0
H2224 H 0.37676 0.18084 0.60876 0.0
H2225 H 0.39513 0.09726 0.6499 0.0
H2226 H 0.49492 0.04267 0.60255 0.0
H2227 H 0.46505 0.06699 0.62127 0.0
H2228 H 0.44108 0.14265 0.56983 0.0
C2229 C 0.38279 0.17699 0.62969 0.0
C2230 C 0.40493 0.10745 0.63237 0.0
C2231 C 0.3763 0.19491 0.6456 0.0
C2232 C 0.48149 0.05552 0.58938 0.0
C2233 C 0.46414 0.06936 0.60015 0.0
C2234 C 0.43054 0.13234 0.58695 0.0
C2235 C 0.39723 0.15461 0.64068 0.0
C2236 C 0.40631 0.1366 0.62398 0.0
C2237 C 0.44698 0.08704 0.58404 0.0
C2238 C 0.43057 0.10353 0.59621 0.0
H2239 H 0.40461 0.16456 0.70464 0.0
H2240 H 0.41578 0.1335 0.67719 0.0
H2241 H 0.4202 0.17109 0.5937 0.0
H2242 H 0.46435 0.0786 0.52474 0.0
H2243 H 0.43388 0.10304 0.54368 0.0
C2244 C 0.8662 0.31495 0.72631 0.0
C2245 C 0.83895 0.29869 0.72048 0.0
C2246 C 0.88085 0.3326 0.70645 0.0
C2247 C 0.9004 0.37931 0.66235 0.0
H2248 H 0.90527 0.34912 0.59927 0.0
C2249 C 0.95978 0.44722 0.57668 0.0
C2250 C 0.97806 0.43425 0.56571 0.0
C2251 C 0.94062 0.43126 0.59404 0.0
C2252 C 0.90418 0.35788 0.61678 0.0
H2253 H 0.80642 0.28678 0.68902 0.0
H2254 H 0.83195 0.31774 0.65417 0.0
H2255 H 0.87598 0.32062 0.63258 0.0
H2256 H 0.98977 0.394 0.56407 0.0
H2257 H 0.95638 0.36626 0.59421 0.0
H2258 H 0.92902 0.41631 0.64687 0.0
C2259 C 0.84179 0.31722 0.67422 0.0
C2260 C 0.88713 0.34164 0.63577 0.0
C2261 C 0.82698 0.29974 0.6942 0.0
C2262 C 0.97609 0.40477 0.57209 0.0
C2263 C 0.95678 0.38879 0.58931 0.0
C2264 C 0.91726 0.39563 0.64329 0.0
C2265 C 0.86893 0.33392 0.68011 0.0
C2266 C 0.88533 0.35198 0.65898 0.0
C2267 C 0.93902 0.40186 0.60079 0.0
C2268 C 0.91969 0.38502 0.62037 0.0
H2269 H 0.87618 0.31401 0.74635 0.0
H2270 H 0.9019 0.34471 0.71168 0.0
H2271 H 0.89927 0.38807 0.67985 0.0
H2272 H 0.96062 0.46986 0.57229 0.0
H2273 H 0.92705 0.44202 0.60223 0.0
C2274 C 0.22264 0.67512 0.71747 0.0
C2275 C 0.226 0.70471 0.71457 0.0
C2276 C 0.20619 0.66009 0.69834 0.0
C2277 C 0.18004 0.66977 0.6281 0.0
H2278 H 0.13342 0.5956 0.64529 0.0
C2279 C 0.09962 0.61166 0.55291 0.0
C2280 C 0.09585 0.58203 0.55549 0.0
C2281 C 0.11808 0.6265 0.57116 0.0
C2282 C 0.14674 0.61609 0.64017 0.0
H2283 H 0.21357 0.74168 0.69005 0.0
H2284 H 0.18407 0.71531 0.65675 0.0
H2285 H 0.15751 0.62211 0.68033 0.0
H2286 H 0.10981 0.54487 0.57838 0.0
H2287 H 0.14235 0.57093 0.6103 0.0
H2288 H 0.16894 0.66382 0.5879 0.0
C2289 C 0.19472 0.70379 0.67361 0.0
C2290 C 0.16043 0.63136 0.66025 0.0
C2291 C 0.21125 0.71887 0.69284 0.0
C2292 C 0.11233 0.5677 0.57582 0.0
C2293 C 0.13069 0.58259 0.59425 0.0
C2294 C 0.16627 0.65452 0.608 0.0
C2295 C 0.19255 0.67429 0.67587 0.0
C2296 C 0.1772 0.65841 0.65447 0.0
C2297 C 0.13312 0.61206 0.59252 0.0
C2298 C 0.14941 0.62752 0.61381 0.0
H2299 H 0.23354 0.66362 0.7342 0.0
H2300 H 0.20514 0.63745 0.70068 0.0
H2301 H 0.19326 0.6903 0.62296 0.0
H2302 H 0.0873 0.62332 0.53739 0.0
H2303 H 0.11933 0.64915 0.56929 0.0
loop_
_geom_bond_atom_site_label_1
_geom_bond_atom_site_label_2
_geom_bond_distance
_geom_bond_site_symmetry_2
_ccdc_geom_bond_type
Tb0 N31 2.660 . S
Tb0 N38 2.600 . S
Tb0 O44 2.546 . S
Tb0 O45 2.610 . S
Tb0 O47 2.320 . S
Tb0 O48 2.552 . S
Tb0 O49 2.413 . S
Tb0 O51 2.362 . S
Tb0 O52 2.421 . S
Tb0 C64 2.833 . S
C1 C4 1.432 . S
C1 C5 1.414 . S
C1 N8 1.359 . S
C2 C4 1.417 . S
C2 C6 1.432 . S
C2 C14 1.410 . S
C3 C5 1.444 . S
C3 C6 1.317 . S
C3 H26 0.929 . S
C4 C1 1.432 . S
C4 C2 1.417 . S
C4 N12 1.360 . S
C5 C1 1.414 . S
C5 C3 1.444 . S
C5 C10 1.385 . S
C6 C2 1.432 . S
C6 C3 1.317 . S
C6 H18 0.930 . S
C7 C9 1.392 . S
C7 C10 1.370 . S
C7 H19 0.931 . S
N8 C1 1.359 . S
N8 C9 1.327 . S
N8 Tb11 2.600 . S
C9 C7 1.392 . S
C9 N8 1.327 . S
C9 H16 0.930 . S
C10 C5 1.385 . S
C10 C7 1.370 . S
C10 H29 0.930 . S
Tb11 N8 2.600 . S
Tb11 N12 2.660 . S
Tb11 O45 2.362 . S
Tb11 O46 2.421 . S
Tb11 O50 2.546 . S
Tb11 O51 2.610 . S
Tb11 O53 2.320 . S
Tb11 O54 2.552 . S
Tb11 O55 2.413 . S
Tb11 C75 2.833 . S
N12 C4 1.360 . S
N12 Tb11 2.660 . S
N12 C13 1.305 . S
C13 N12 1.305 . S
C13 C15 1.407 . S
C13 H20 0.930 . S
C14 C2 1.410 . S
C14 C15 1.345 . S
C14 H22 0.930 . S
C15 C13 1.407 . S
C15 C14 1.345 . S
C15 H17 0.930 . S
H16 C9 0.930 . S
H17 C15 0.930 . S
H18 C6 0.930 . S
H19 C7 0.931 . S
H20 C13 0.930 . S
H21 C35 0.930 . S
H22 C14 0.930 . S
H23 C41 0.930 . S
H24 C32 0.930 . S
H25 C39 0.931 . S
H26 C3 0.929 . S
H27 C33 0.930 . S
H28 C66 0.930 . S
H29 C10 0.930 . S
H30 C65 0.929 . S
N31 Tb0 2.660 . S
N31 C32 1.305 . S
N31 C36 1.360 . S
C32 H24 0.930 . S
C32 N31 1.305 . S
C32 C35 1.407 . S
C33 H27 0.930 . S
C33 C34 1.410 . S
C33 C35 1.345 . S
C34 C33 1.410 . S
C34 C36 1.417 . S
C34 C66 1.432 . S
C35 H21 0.930 . S
C35 C32 1.407 . S
C35 C33 1.345 . S
C36 N31 1.360 . S
C36 C34 1.417 . S
C36 C40 1.432 . S
H37 C42 0.930 . S
N38 Tb0 2.600 . S
N38 C40 1.359 . S
N38 C41 1.327 . S
C39 H25 0.931 . S
C39 C41 1.392 . S
C39 C42 1.370 . S
C40 C36 1.432 . S
C40 N38 1.359 . S
C40 C43 1.414 . S
C41 H23 0.930 . S
C41 N38 1.327 . S
C41 C39 1.392 . S
C42 H37 0.930 . S
C42 C39 1.370 . S
C42 C43 1.385 . S
C43 C40 1.414 . S
C43 C42 1.385 . S
C43 C65 1.444 . S
O44 Tb0 2.546 . S
O44 C64 1.251 . S
O45 Tb0 2.610 . S
O45 Tb11 2.362 . S
O45 C56 1.283 . S
O46 Tb11 2.421 . S
O46 C63 1.262 . S
O47 Tb0 2.320 . S
O47 C63 1.260 . S
O48 Tb0 2.552 . S
O48 C56 1.243 . S
O49 Tb0 2.413 . S
O49 C64 1.256 . S
O50 Tb11 2.546 . S
O50 C75 1.251 . S
O51 Tb0 2.362 . S
O51 Tb11 2.610 . S
O51 C67 1.283 . S
O52 Tb0 2.421 . S
O52 C74 1.262 . S
O53 Tb11 2.320 . S
O53 C74 1.260 . S
O54 Tb11 2.552 . S
O54 C67 1.243 . S
O55 Tb11 2.413 . S
O55 C75 1.256 . S
C56 O45 1.283 . S
C56 O48 1.243 . S
C57 C59 1.382 . S
C57 C61 1.393 . S
C57 C64 1.500 . S
C58 C59 1.400 . S
C58 C60 1.384 . S
C59 C57 1.382 . S
C59 C58 1.400 . S
C59 H76 0.930 . S
C60 C58 1.384 . S
C60 C62 1.392 . S
C60 H77 0.931 . S
C61 C57 1.393 . S
C61 C62 1.401 . S
C61 H78 0.930 . S
C62 C60 1.392 . S
C62 C61 1.401 . S
C62 H79 0.930 . S
C63 O46 1.262 . S
C63 O47 1.260 . S
C64 Tb0 2.833 . S
C64 O44 1.251 . S
C64 O49 1.256 . S
C64 C57 1.500 . S
C65 H30 0.929 . S
C65 C43 1.444 . S
C65 C66 1.317 . S
C66 H28 0.930 . S
C66 C34 1.432 . S
C66 C65 1.317 . S
C67 O51 1.283 . S
C67 O54 1.243 . S
C68 C69 1.382 . S
C68 C72 1.393 . S
C68 C75 1.500 . S
C69 C68 1.382 . S
C69 C70 1.400 . S
C69 H80 0.930 . S
C70 C69 1.400 . S
C70 C71 1.384 . S
C71 C70 1.384 . S
C71 C73 1.392 . S
C71 H81 0.931 . S
C72 C68 1.393 . S
C72 C73 1.401 . S
C72 H82 0.930 . S
C73 C71 1.392 . S
C73 C72 1.401 . S
C73 H83 0.930 . S
C74 O52 1.262 . S
C74 O53 1.260 . S
C75 Tb11 2.833 . S
C75 O50 1.251 . S
C75 O55 1.256 . S
C75 C68 1.500 . S
H76 C59 0.930 . S
H77 C60 0.931 . S
H78 C61 0.930 . S
H79 C62 0.930 . S
H80 C69 0.930 . S
H81 C71 0.931 . S
H82 C72 0.930 . S
H83 C73 0.930 . S
Tb84 N115 2.660 . S
Tb84 N122 2.600 . S
Tb84 O128 2.546 . S
Tb84 O129 2.610 . S
Tb84 O131 2.320 . S
Tb84 O132 2.552 . S
Tb84 O133 2.413 . S
Tb84 O135 2.362 . S
Tb84 O136 2.421 . S
Tb84 C148 2.833 . S
C85 C88 1.432 . S
C85 C89 1.414 . S
C85 N92 1.359 . S
C86 C88 1.417 . S
C86 C90 1.432 . S
C86 C98 1.410 . S
C87 C89 1.444 . S
C87 C90 1.317 . S
C87 H110 0.929 . S
C88 C85 1.432 . S
C88 C86 1.417 . S
C88 N96 1.360 . S
C89 C85 1.414 . S
C89 C87 1.444 . S
C89 C94 1.385 . S
C90 C86 1.432 . S
C90 C87 1.317 . S
C90 H102 0.930 . S
C91 C93 1.392 . S
C91 C94 1.370 . S
C91 H103 0.931 . S
N92 C85 1.359 . S
N92 C93 1.327 . S
N92 Tb95 2.600 . S
C93 C91 1.392 . S
C93 N92 1.327 . S
C93 H100 0.930 . S
C94 C89 1.385 . S
C94 C91 1.370 . S
C94 H113 0.930 . S
Tb95 N92 2.600 . S
Tb95 N96 2.660 . S
Tb95 O129 2.362 . S
Tb95 O130 2.421 . S
Tb95 O134 2.546 . S
Tb95 O135 2.610 . S
Tb95 O137 2.320 . S
Tb95 O138 2.552 . S
Tb95 O139 2.413 . S
Tb95 C159 2.833 . S
N96 C88 1.360 . S
N96 Tb95 2.660 . S
N96 C97 1.305 . S
C97 N96 1.305 . S
C97 C99 1.407 . S
C97 H104 0.930 . S
C98 C86 1.410 . S
C98 C99 1.345 . S
C98 H106 0.930 . S
C99 C97 1.407 . S
C99 C98 1.345 . S
C99 H101 0.930 . S
H100 C93 0.930 . S
H101 C99 0.930 . S
H102 C90 0.930 . S
H103 C91 0.931 . S
H104 C97 0.930 . S
H105 C119 0.930 . S
H106 C98 0.930 . S
H107 C125 0.930 . S
H108 C116 0.930 . S
H109 C123 0.931 . S
H110 C87 0.929 . S
H111 C117 0.930 . S
H112 C150 0.930 . S
H113 C94 0.930 . S
H114 C149 0.929 . S
N115 Tb84 2.660 . S
N115 C116 1.305 . S
N115 C120 1.360 . S
C116 H108 0.930 . S
C116 N115 1.305 . S
C116 C119 1.407 . S
C117 H111 0.930 . S
C117 C118 1.410 . S
C117 C119 1.345 . S
C118 C117 1.410 . S
C118 C120 1.417 . S
C118 C150 1.432 . S
C119 H105 0.930 . S
C119 C116 1.407 . S
C119 C117 1.345 . S
C120 N115 1.360 . S
C120 C118 1.417 . S
C120 C124 1.432 . S
H121 C126 0.930 . S
N122 Tb84 2.600 . S
N122 C124 1.359 . S
N122 C125 1.327 . S
C123 H109 0.931 . S
C123 C125 1.392 . S
C123 C126 1.370 . S
C124 C120 1.432 . S
C124 N122 1.359 . S
C124 C127 1.414 . S
C125 H107 0.930 . S
C125 N122 1.327 . S
C125 C123 1.392 . S
C126 H121 0.930 . S
C126 C123 1.370 . S
C126 C127 1.385 . S
C127 C124 1.414 . S
C127 C126 1.385 . S
C127 C149 1.444 . S
O128 Tb84 2.546 . S
O128 C148 1.251 . S
O129 Tb84 2.610 . S
O129 Tb95 2.362 . S
O129 C140 1.283 . S
O130 Tb95 2.421 . S
O130 C147 1.262 . S
O131 Tb84 2.320 . S
O131 C147 1.260 . S
O132 Tb84 2.552 . S
O132 C140 1.243 . S
O133 Tb84 2.413 . S
O133 C148 1.256 . S
O134 Tb95 2.546 . S
O134 C159 1.251 . S
O135 Tb84 2.362 . S
O135 Tb95 2.610 . S
O135 C151 1.283 . S
O136 Tb84 2.421 . S
O136 C158 1.262 . S
O137 Tb95 2.320 . S
O137 C158 1.260 . S
O138 Tb95 2.552 . S
O138 C151 1.243 . S
O139 Tb95 2.413 . S
O139 C159 1.256 . S
C140 O129 1.283 . S
C140 O132 1.243 . S
C141 C143 1.382 . S
C141 C145 1.393 . S
C141 C148 1.500 . S
C142 C143 1.400 . S
C142 C144 1.384 . S
C143 C141 1.382 . S
C143 C142 1.400 . S
C143 H160 0.930 . S
C144 C142 1.384 . S
C144 C146 1.392 . S
C144 H161 0.931 . S
C145 C141 1.393 . S
C145 C146 1.401 . S
C145 H162 0.930 . S
C146 C144 1.392 . S
C146 C145 1.401 . S
C146 H163 0.930 . S
C147 O130 1.262 . S
C147 O131 1.260 . S
C148 Tb84 2.833 . S
C148 O128 1.251 . S
C148 O133 1.256 . S
C148 C141 1.500 . S
C149 H114 0.929 . S
C149 C127 1.444 . S
C149 C150 1.317 . S
C150 H112 0.930 . S
C150 C118 1.432 . S
C150 C149 1.317 . S
C151 O135 1.283 . S
C151 O138 1.243 . S
C152 C153 1.382 . S
C152 C156 1.393 . S
C152 C159 1.500 . S
C153 C152 1.382 . S
C153 C154 1.400 . S
C153 H164 0.930 . S
C154 C153 1.400 . S
C154 C155 1.384 . S
C155 C154 1.384 . S
C155 C157 1.392 . S
C155 H165 0.931 . S
C156 C152 1.393 . S
C156 C157 1.401 . S
C156 H166 0.930 . S
C157 C155 1.392 . S
C157 C156 1.401 . S
C157 H167 0.930 . S
C158 O136 1.262 . S
C158 O137 1.260 . S
C159 Tb95 2.833 . S
C159 O134 1.251 . S
C159 O139 1.256 . S
C159 C152 1.500 . S
H160 C143 0.930 . S
H161 C144 0.931 . S
H162 C145 0.930 . S
H163 C146 0.930 . S
H164 C153 0.930 . S
H165 C155 0.931 . S
H166 C156 0.930 . S
H167 C157 0.930 . S
Tb168 N199 2.660 . S
Tb168 N206 2.600 . S
Tb168 O212 2.546 . S
Tb168 O213 2.610 . S
Tb168 O215 2.320 . S
Tb168 O216 2.552 . S
Tb168 O217 2.413 . S
Tb168 O219 2.362 . S
Tb168 O220 2.421 . S
Tb168 C232 2.833 . S
C169 C172 1.432 . S
C169 C173 1.414 . S
C169 N176 1.359 . S
C170 C172 1.417 . S
C170 C174 1.432 . S
C170 C182 1.410 . S
C171 C173 1.444 . S
C171 C174 1.317 . S
C171 H194 0.929 . S
C172 C169 1.432 . S
C172 C170 1.417 . S
C172 N180 1.360 . S
C173 C169 1.414 . S
C173 C171 1.444 . S
C173 C178 1.385 . S
C174 C170 1.432 . S
C174 C171 1.317 . S
C174 H186 0.930 . S
C175 C177 1.392 . S
C175 C178 1.370 . S
C175 H187 0.931 . S
N176 C169 1.359 . S
N176 C177 1.327 . S
N176 Tb179 2.600 . S
C177 C175 1.392 . S
C177 N176 1.327 . S
C177 H184 0.930 . S
C178 C173 1.385 . S
C178 C175 1.370 . S
C178 H197 0.930 . S
Tb179 N176 2.600 . S
Tb179 N180 2.660 . S
Tb179 O213 2.362 . S
Tb179 O214 2.421 . S
Tb179 O218 2.546 . S
Tb179 O219 2.610 . S
Tb179 O221 2.320 . S
Tb179 O222 2.552 . S
Tb179 O223 2.413 . S
Tb179 C243 2.833 . S
N180 C172 1.360 . S
N180 Tb179 2.660 . S
N180 C181 1.305 . S
C181 N180 1.305 . S
C181 C183 1.407 . S
C181 H188 0.930 . S
C182 C170 1.410 . S
C182 C183 1.345 . S
C182 H190 0.930 . S
C183 C181 1.407 . S
C183 C182 1.345 . S
C183 H185 0.930 . S
H184 C177 0.930 . S
H185 C183 0.930 . S
H186 C174 0.930 . S
H187 C175 0.931 . S
H188 C181 0.930 . S
H189 C203 0.930 . S
H190 C182 0.930 . S
H191 C209 0.930 . S
H192 C200 0.930 . S
H193 C207 0.931 . S
H194 C171 0.929 . S
H195 C201 0.930 . S
H196 C234 0.930 . S
H197 C178 0.930 . S
H198 C233 0.929 . S
N199 Tb168 2.660 . S
N199 C200 1.305 . S
N199 C204 1.360 . S
C200 H192 0.930 . S
C200 N199 1.305 . S
C200 C203 1.407 . S
C201 H195 0.930 . S
C201 C202 1.410 . S
C201 C203 1.345 . S
C202 C201 1.410 . S
C202 C204 1.417 . S
C202 C234 1.432 . S
C203 H189 0.930 . S
C203 C200 1.407 . S
C203 C201 1.345 . S
C204 N199 1.360 . S
C204 C202 1.417 . S
C204 C208 1.432 . S
H205 C210 0.930 . S
N206 Tb168 2.600 . S
N206 C208 1.359 . S
N206 C209 1.327 . S
C207 H193 0.931 . S
C207 C209 1.392 . S
C207 C210 1.370 . S
C208 C204 1.432 . S
C208 N206 1.359 . S
C208 C211 1.414 . S
C209 H191 0.930 . S
C209 N206 1.327 . S
C209 C207 1.392 . S
C210 H205 0.930 . S
C210 C207 1.370 . S
C210 C211 1.385 . S
C211 C208 1.414 . S
C211 C210 1.385 . S
C211 C233 1.444 . S
O212 Tb168 2.546 . S
O212 C232 1.251 . S
O213 Tb168 2.610 . S
O213 Tb179 2.362 . S
O213 C224 1.283 . S
O214 Tb179 2.421 . S
O214 C231 1.262 . S
O215 Tb168 2.320 . S
O215 C231 1.260 . S
O216 Tb168 2.552 . S
O216 C224 1.243 . S
O217 Tb168 2.413 . S
O217 C232 1.256 . S
O218 Tb179 2.546 . S
O218 C243 1.251 . S
O219 Tb168 2.362 . S
O219 Tb179 2.610 . S
O219 C235 1.283 . S
O220 Tb168 2.421 . S
O220 C242 1.262 . S
O221 Tb179 2.320 . S
O221 C242 1.260 . S
O222 Tb179 2.552 . S
O222 C235 1.243 . S
O223 Tb179 2.413 . S
O223 C243 1.256 . S
C224 O213 1.283 . S
C224 O216 1.243 . S
C225 C227 1.382 . S
C225 C229 1.393 . S
C225 C232 1.500 . S
C226 C227 1.400 . S
C226 C228 1.384 . S
C227 C225 1.382 . S
C227 C226 1.400 . S
C227 H244 0.930 . S
C228 C226 1.384 . S
C228 C230 1.392 . S
C228 H245 0.931 . S
C229 C225 1.393 . S
C229 C230 1.401 . S
C229 H246 0.930 . S
C230 C228 1.392 . S
C230 C229 1.401 . S
C230 H247 0.930 . S
C231 O214 1.262 . S
C231 O215 1.260 . S
C232 Tb168 2.833 . S
C232 O212 1.251 . S
C232 O217 1.256 . S
C232 C225 1.500 . S
C233 H198 0.929 . S
C233 C211 1.444 . S
C233 C234 1.317 . S
C234 H196 0.930 . S
C234 C202 1.432 . S
C234 C233 1.317 . S
C235 O219 1.283 . S
C235 O222 1.243 . S
C236 C237 1.382 . S
C236 C240 1.393 . S
C236 C243 1.500 . S
C237 C236 1.382 . S
C237 C238 1.400 . S
C237 H248 0.930 . S
C238 C237 1.400 . S
C238 C239 1.384 . S
C239 C238 1.384 . S
C239 C241 1.392 . S
C239 H249 0.931 . S
C240 C236 1.393 . S
C240 C241 1.401 . S
C240 H250 0.930 . S
C241 C239 1.392 . S
C241 C240 1.401 . S
C241 H251 0.930 . S
C242 O220 1.262 . S
C242 O221 1.260 . S
C243 Tb179 2.833 . S
C243 O218 1.251 . S
C243 O223 1.256 . S
C243 C236 1.500 . S
H244 C227 0.930 . S
H245 C228 0.931 . S
H246 C229 0.930 . S
H247 C230 0.930 . S
H248 C237 0.930 . S
H249 C239 0.931 . S
H250 C240 0.930 . S
H251 C241 0.930 . S
Tb252 N283 2.660 . S
Tb252 N290 2.600 . S
Tb252 O296 2.546 . S
Tb252 O297 2.610 . S
Tb252 O299 2.320 . S
Tb252 O300 2.552 . S
Tb252 O301 2.413 . S
Tb252 O303 2.362 . S
Tb252 O304 2.421 . S
Tb252 C316 2.833 . S
C253 C256 1.432 . S
C253 C257 1.414 . S
C253 N260 1.359 . S
C254 C256 1.417 . S
C254 C258 1.432 . S
C254 C266 1.410 . S
C255 C257 1.444 . S
C255 C258 1.317 . S
C255 H278 0.929 . S
C256 C253 1.432 . S
C256 C254 1.417 . S
C256 N264 1.360 . S
C257 C253 1.414 . S
C257 C255 1.444 . S
C257 C262 1.385 . S
C258 C254 1.432 . S
C258 C255 1.317 . S
C258 H270 0.930 . S
C259 C261 1.392 . S
C259 C262 1.370 . S
C259 H271 0.931 . S
N260 C253 1.359 . S
N260 C261 1.327 . S
N260 Tb263 2.600 . S
C261 C259 1.392 . S
C261 N260 1.327 . S
C261 H268 0.930 . S
C262 C257 1.385 . S
C262 C259 1.370 . S
C262 H281 0.930 . S
Tb263 N260 2.600 . S
Tb263 N264 2.660 . S
Tb263 O297 2.362 . S
Tb263 O298 2.421 . S
Tb263 O302 2.546 . S
Tb263 O303 2.610 . S
Tb263 O305 2.320 . S
Tb263 O306 2.552 . S
Tb263 O307 2.413 . S
Tb263 C327 2.833 . S
N264 C256 1.360 . S
N264 Tb263 2.660 . S
N264 C265 1.305 . S
C265 N264 1.305 . S
C265 C267 1.407 . S
C265 H272 0.930 . S
C266 C254 1.410 . S
C266 C267 1.345 . S
C266 H274 0.930 . S
C267 C265 1.407 . S
C267 C266 1.345 . S
C267 H269 0.930 . S
H268 C261 0.930 . S
H269 C267 0.930 . S
H270 C258 0.930 . S
H271 C259 0.931 . S
H272 C265 0.930 . S
H273 C287 0.930 . S
H274 C266 0.930 . S
H275 C293 0.930 . S
H276 C284 0.930 . S
H277 C291 0.931 . S
H278 C255 0.929 . S
H279 C285 0.930 . S
H280 C318 0.930 . S
H281 C262 0.930 . S
H282 C317 0.929 . S
N283 Tb252 2.660 . S
N283 C284 1.305 . S
N283 C288 1.360 . S
C284 H276 0.930 . S
C284 N283 1.305 . S
C284 C287 1.407 . S
C285 H279 0.930 . S
C285 C286 1.410 . S
C285 C287 1.345 . S
C286 C285 1.410 . S
C286 C288 1.417 . S
C286 C318 1.432 . S
C287 H273 0.930 . S
C287 C284 1.407 . S
C287 C285 1.345 . S
C288 N283 1.360 . S
C288 C286 1.417 . S
C288 C292 1.432 . S
H289 C294 0.930 . S
N290 Tb252 2.600 . S
N290 C292 1.359 . S
N290 C293 1.327 . S
C291 H277 0.931 . S
C291 C293 1.392 . S
C291 C294 1.370 . S
C292 C288 1.432 . S
C292 N290 1.359 . S
C292 C295 1.414 . S
C293 H275 0.930 . S
C293 N290 1.327 . S
C293 C291 1.392 . S
C294 H289 0.930 . S
C294 C291 1.370 . S
C294 C295 1.385 . S
C295 C292 1.414 . S
C295 C294 1.385 . S
C295 C317 1.444 . S
O296 Tb252 2.546 . S
O296 C316 1.251 . S
O297 Tb252 2.610 . S
O297 Tb263 2.362 . S
O297 C308 1.283 . S
O298 Tb263 2.421 . S
O298 C315 1.262 . S
O299 Tb252 2.320 . S
O299 C315 1.260 . S
O300 Tb252 2.552 . S
O300 C308 1.243 . S
O301 Tb252 2.413 . S
O301 C316 1.256 . S
O302 Tb263 2.546 . S
O302 C327 1.251 . S
O303 Tb252 2.362 . S
O303 Tb263 2.610 . S
O303 C319 1.283 . S
O304 Tb252 2.421 . S
O304 C326 1.262 . S
O305 Tb263 2.320 . S
O305 C326 1.260 . S
O306 Tb263 2.552 . S
O306 C319 1.243 . S
O307 Tb263 2.413 . S
O307 C327 1.256 . S
C308 O297 1.283 . S
C308 O300 1.243 . S
C309 C311 1.382 . S
C309 C313 1.393 . S
C309 C316 1.500 . S
C310 C311 1.400 . S
C310 C312 1.384 . S
C311 C309 1.382 . S
C311 C310 1.400 . S
C311 H328 0.930 . S
C312 C310 1.384 . S
C312 C314 1.392 . S
C312 H329 0.931 . S
C313 C309 1.393 . S
C313 C314 1.401 . S
C313 H330 0.930 . S
C314 C312 1.392 . S
C314 C313 1.401 . S
C314 H331 0.930 . S
C315 O298 1.262 . S
C315 O299 1.260 . S
C316 Tb252 2.833 . S
C316 O296 1.251 . S
C316 O301 1.256 . S
C316 C309 1.500 . S
C317 H282 0.929 . S
C317 C295 1.444 . S
C317 C318 1.317 . S
C318 H280 0.930 . S
C318 C286 1.432 . S
C318 C317 1.317 . S
C319 O303 1.283 . S
C319 O306 1.243 . S
C320 C321 1.382 . S
C320 C324 1.393 . S
C320 C327 1.500 . S
C321 C320 1.382 . S
C321 C322 1.400 . S
C321 H332 0.930 . S
C322 C321 1.400 . S
C322 C323 1.384 . S
C323 C322 1.384 . S
C323 C325 1.392 . S
C323 H333 0.931 . S
C324 C320 1.393 . S
C324 C325 1.401 . S
C324 H334 0.930 . S
C325 C323 1.392 . S
C325 C324 1.401 . S
C325 H335 0.930 . S
C326 O304 1.262 . S
C326 O305 1.260 . S
C327 Tb263 2.833 . S
C327 O302 1.251 . S
C327 O307 1.256 . S
C327 C320 1.500 . S
H328 C311 0.930 . S
H329 C312 0.931 . S
H330 C313 0.930 . S
H331 C314 0.930 . S
H332 C321 0.930 . S
H333 C323 0.931 . S
H334 C324 0.930 . S
H335 C325 0.930 . S
Tb336 N367 2.660 . S
Tb336 N374 2.600 . S
Tb336 O380 2.546 . S
Tb336 O381 2.610 . S
Tb336 O383 2.320 . S
Tb336 O384 2.552 . S
Tb336 O385 2.413 . S
Tb336 O387 2.362 . S
Tb336 O388 2.421 . S
Tb336 C400 2.833 . S
C337 C340 1.432 . S
C337 C341 1.414 . S
C337 N344 1.359 . S
C338 C340 1.417 . S
C338 C342 1.432 . S
C338 C350 1.410 . S
C339 C341 1.444 . S
C339 C342 1.317 . S
C339 H362 0.929 . S
C340 C337 1.432 . S
C340 C338 1.417 . S
C340 N348 1.360 . S
C341 C337 1.414 . S
C341 C339 1.444 . S
C341 C346 1.385 . S
C342 C338 1.432 . S
C342 C339 1.317 . S
C342 H354 0.930 . S
C343 C345 1.392 . S
C343 C346 1.370 . S
C343 H355 0.931 . S
N344 C337 1.359 . S
N344 C345 1.327 . S
N344 Tb347 2.600 . S
C345 C343 1.392 . S
C345 N344 1.327 . S
C345 H352 0.930 . S
C346 C341 1.385 . S
C346 C343 1.370 . S
C346 H365 0.930 . S
Tb347 N344 2.600 . S
Tb347 N348 2.660 . S
Tb347 O381 2.362 . S
Tb347 O382 2.421 . S
Tb347 O386 2.546 . S
Tb347 O387 2.610 . S
Tb347 O389 2.320 . S
Tb347 O390 2.552 . S
Tb347 O391 2.413 . S
Tb347 C411 2.833 . S
N348 C340 1.360 . S
N348 Tb347 2.660 . S
N348 C349 1.305 . S
C349 N348 1.305 . S
C349 C351 1.407 . S
C349 H356 0.930 . S
C350 C338 1.410 . S
C350 C351 1.345 . S
C350 H358 0.930 . S
C351 C349 1.407 . S
C351 C350 1.345 . S
C351 H353 0.930 . S
H352 C345 0.930 . S
H353 C351 0.930 . S
H354 C342 0.930 . S
H355 C343 0.931 . S
H356 C349 0.930 . S
H357 C371 0.930 . S
H358 C350 0.930 . S
H359 C377 0.930 . S
H360 C368 0.930 . S
H361 C375 0.931 . S
H362 C339 0.929 . S
H363 C369 0.930 . S
H364 C402 0.930 . S
H365 C346 0.930 . S
H366 C401 0.929 . S
N367 Tb336 2.660 . S
N367 C368 1.305 . S
N367 C372 1.360 . S
C368 H360 0.930 . S
C368 N367 1.305 . S
C368 C371 1.407 . S
C369 H363 0.930 . S
C369 C370 1.410 . S
C369 C371 1.345 . S
C370 C369 1.410 . S
C370 C372 1.417 . S
C370 C402 1.432 . S
C371 H357 0.930 . S
C371 C368 1.407 . S
C371 C369 1.345 . S
C372 N367 1.360 . S
C372 C370 1.417 . S
C372 C376 1.432 . S
H373 C378 0.930 . S
N374 Tb336 2.600 . S
N374 C376 1.359 . S
N374 C377 1.327 . S
C375 H361 0.931 . S
C375 C377 1.392 . S
C375 C378 1.370 . S
C376 C372 1.432 . S
C376 N374 1.359 . S
C376 C379 1.414 . S
C377 H359 0.930 . S
C377 N374 1.327 . S
C377 C375 1.392 . S
C378 H373 0.930 . S
C378 C375 1.370 . S
C378 C379 1.385 . S
C379 C376 1.414 . S
C379 C378 1.385 . S
C379 C401 1.444 . S
O380 Tb336 2.546 . S
O380 C400 1.251 . S
O381 Tb336 2.610 . S
O381 Tb347 2.362 . S
O381 C392 1.283 . S
O382 Tb347 2.421 . S
O382 C399 1.262 . S
O383 Tb336 2.320 . S
O383 C399 1.260 . S
O384 Tb336 2.552 . S
O384 C392 1.243 . S
O385 Tb336 2.413 . S
O385 C400 1.256 . S
O386 Tb347 2.546 . S
O386 C411 1.251 . S
O387 Tb336 2.362 . S
O387 Tb347 2.610 . S
O387 C403 1.283 . S
O388 Tb336 2.421 . S
O388 C410 1.262 . S
O389 Tb347 2.320 . S
O389 C410 1.260 . S
O390 Tb347 2.552 . S
O390 C403 1.243 . S
O391 Tb347 2.413 . S
O391 C411 1.256 . S
C392 O381 1.283 . S
C392 O384 1.243 . S
C393 C395 1.382 . S
C393 C397 1.393 . S
C393 C400 1.500 . S
C394 C395 1.400 . S
C394 C396 1.384 . S
C395 C393 1.382 . S
C395 C394 1.400 . S
C395 H412 0.930 . S
C396 C394 1.384 . S
C396 C398 1.392 . S
C396 H413 0.931 . S
C397 C393 1.393 . S
C397 C398 1.401 . S
C397 H414 0.930 . S
C398 C396 1.392 . S
C398 C397 1.401 . S
C398 H415 0.930 . S
C399 O382 1.262 . S
C399 O383 1.260 . S
C400 Tb336 2.833 . S
C400 O380 1.251 . S
C400 O385 1.256 . S
C400 C393 1.500 . S
C401 H366 0.929 . S
C401 C379 1.444 . S
C401 C402 1.317 . S
C402 H364 0.930 . S
C402 C370 1.432 . S
C402 C401 1.317 . S
C403 O387 1.283 . S
C403 O390 1.243 . S
C404 C405 1.382 . S
C404 C408 1.393 . S
C404 C411 1.500 . S
C405 C404 1.382 . S
C405 C406 1.400 . S
C405 H416 0.930 . S
C406 C405 1.400 . S
C406 C407 1.384 . S
C407 C406 1.384 . S
C407 C409 1.392 . S
C407 H417 0.931 . S
C408 C404 1.393 . S
C408 C409 1.401 . S
C408 H418 0.930 . S
C409 C407 1.392 . S
C409 C408 1.401 . S
C409 H419 0.930 . S
C410 O388 1.262 . S
C410 O389 1.260 . S
C411 Tb347 2.833 . S
C411 O386 1.251 . S
C411 O391 1.256 . S
C411 C404 1.500 . S
H412 C395 0.930 . S
H413 C396 0.931 . S
H414 C397 0.930 . S
H415 C398 0.930 . S
H416 C405 0.930 . S
H417 C407 0.931 . S
H418 C408 0.930 . S
H419 C409 0.930 . S
Tb420 N451 2.660 . S
Tb420 N458 2.600 . S
Tb420 O464 2.546 . S
Tb420 O465 2.610 . S
Tb420 O467 2.320 . S
Tb420 O468 2.552 . S
Tb420 O469 2.413 . S
Tb420 O471 2.362 . S
Tb420 O472 2.421 . S
Tb420 C484 2.833 . S
C421 C424 1.432 . S
C421 C425 1.414 . S
C421 N428 1.359 . S
C422 C424 1.417 . S
C422 C426 1.432 . S
C422 C434 1.410 . S
C423 C425 1.444 . S
C423 C426 1.317 . S
C423 H446 0.929 . S
C424 C421 1.432 . S
C424 C422 1.417 . S
C424 N432 1.360 . S
C425 C421 1.414 . S
C425 C423 1.444 . S
C425 C430 1.385 . S
C426 C422 1.432 . S
C426 C423 1.317 . S
C426 H438 0.930 . S
C427 C429 1.392 . S
C427 C430 1.370 . S
C427 H439 0.931 . S
N428 C421 1.359 . S
N428 C429 1.327 . S
N428 Tb431 2.600 . S
C429 C427 1.392 . S
C429 N428 1.327 . S
C429 H436 0.930 . S
C430 C425 1.385 . S
C430 C427 1.370 . S
C430 H449 0.930 . S
Tb431 N428 2.600 . S
Tb431 N432 2.660 . S
Tb431 O465 2.362 . S
Tb431 O466 2.421 . S
Tb431 O470 2.546 . S
Tb431 O471 2.610 . S
Tb431 O473 2.320 . S
Tb431 O474 2.552 . S
Tb431 O475 2.413 . S
Tb431 C495 2.833 . S
N432 C424 1.360 . S
N432 Tb431 2.660 . S
N432 C433 1.305 . S
C433 N432 1.305 . S
C433 C435 1.407 . S
C433 H440 0.930 . S
C434 C422 1.410 . S
C434 C435 1.345 . S
C434 H442 0.930 . S
C435 C433 1.407 . S
C435 C434 1.345 . S
C435 H437 0.930 . S
H436 C429 0.930 . S
H437 C435 0.930 . S
H438 C426 0.930 . S
H439 C427 0.931 . S
H440 C433 0.930 . S
H441 C455 0.930 . S
H442 C434 0.930 . S
H443 C461 0.930 . S
H444 C452 0.930 . S
H445 C459 0.931 . S
H446 C423 0.929 . S
H447 C453 0.930 . S
H448 C486 0.930 . S
H449 C430 0.930 . S
H450 C485 0.929 . S
N451 Tb420 2.660 . S
N451 C452 1.305 . S
N451 C456 1.360 . S
C452 H444 0.930 . S
C452 N451 1.305 . S
C452 C455 1.407 . S
C453 H447 0.930 . S
C453 C454 1.410 . S
C453 C455 1.345 . S
C454 C453 1.410 . S
C454 C456 1.417 . S
C454 C486 1.432 . S
C455 H441 0.930 . S
C455 C452 1.407 . S
C455 C453 1.345 . S
C456 N451 1.360 . S
C456 C454 1.417 . S
C456 C460 1.432 . S
H457 C462 0.930 . S
N458 Tb420 2.600 . S
N458 C460 1.359 . S
N458 C461 1.327 . S
C459 H445 0.931 . S
C459 C461 1.392 . S
C459 C462 1.370 . S
C460 C456 1.432 . S
C460 N458 1.359 . S
C460 C463 1.414 . S
C461 H443 0.930 . S
C461 N458 1.327 . S
C461 C459 1.392 . S
C462 H457 0.930 . S
C462 C459 1.370 . S
C462 C463 1.385 . S
C463 C460 1.414 . S
C463 C462 1.385 . S
C463 C485 1.444 . S
O464 Tb420 2.546 . S
O464 C484 1.251 . S
O465 Tb420 2.610 . S
O465 Tb431 2.362 . S
O465 C476 1.283 . S
O466 Tb431 2.421 . S
O466 C483 1.262 . S
O467 Tb420 2.320 . S
O467 C483 1.260 . S
O468 Tb420 2.552 . S
O468 C476 1.243 . S
O469 Tb420 2.413 . S
O469 C484 1.256 . S
O470 Tb431 2.546 . S
O470 C495 1.251 . S
O471 Tb420 2.362 . S
O471 Tb431 2.610 . S
O471 C487 1.283 . S
O472 Tb420 2.421 . S
O472 C494 1.262 . S
O473 Tb431 2.320 . S
O473 C494 1.260 . S
O474 Tb431 2.552 . S
O474 C487 1.243 . S
O475 Tb431 2.413 . S
O475 C495 1.256 . S
C476 O465 1.283 . S
C476 O468 1.243 . S
C477 C479 1.382 . S
C477 C481 1.393 . S
C477 C484 1.500 . S
C478 C479 1.400 . S
C478 C480 1.384 . S
C479 C477 1.382 . S
C479 C478 1.400 . S
C479 H496 0.930 . S
C480 C478 1.384 . S
C480 C482 1.392 . S
C480 H497 0.931 . S
C481 C477 1.393 . S
C481 C482 1.401 . S
C481 H498 0.930 . S
C482 C480 1.392 . S
C482 C481 1.401 . S
C482 H499 0.930 . S
C483 O466 1.262 . S
C483 O467 1.260 . S
C484 Tb420 2.833 . S
C484 O464 1.251 . S
C484 O469 1.256 . S
C484 C477 1.500 . S
C485 H450 0.929 . S
C485 C463 1.444 . S
C485 C486 1.317 . S
C486 H448 0.930 . S
C486 C454 1.432 . S
C486 C485 1.317 . S
C487 O471 1.283 . S
C487 O474 1.243 . S
C488 C489 1.382 . S
C488 C492 1.393 . S
C488 C495 1.500 . S
C489 C488 1.382 . S
C489 C490 1.400 . S
C489 H500 0.930 . S
C490 C489 1.400 . S
C490 C491 1.384 . S
C491 C490 1.384 . S
C491 C493 1.392 . S
C491 H501 0.931 . S
C492 C488 1.393 . S
C492 C493 1.401 . S
C492 H502 0.930 . S
C493 C491 1.392 . S
C493 C492 1.401 . S
C493 H503 0.930 . S
C494 O472 1.262 . S
C494 O473 1.260 . S
C495 Tb431 2.833 . S
C495 O470 1.251 . S
C495 O475 1.256 . S
C495 C488 1.500 . S
H496 C479 0.930 . S
H497 C480 0.931 . S
H498 C481 0.930 . S
H499 C482 0.930 . S
H500 C489 0.930 . S
H501 C491 0.931 . S
H502 C492 0.930 . S
H503 C493 0.930 . S
Tb504 N535 2.660 . S
Tb504 N542 2.600 . S
Tb504 O548 2.546 . S
Tb504 O549 2.610 . S
Tb504 O551 2.320 . S
Tb504 O552 2.552 . S
Tb504 O553 2.413 . S
Tb504 O555 2.362 . S
Tb504 O556 2.421 . S
Tb504 C568 2.833 . S
C505 C508 1.432 . S
C505 C509 1.414 . S
C505 N512 1.359 . S
C506 C508 1.417 . S
C506 C510 1.432 . S
C506 C518 1.410 . S
C507 C509 1.444 . S
C507 C510 1.317 . S
C507 H530 0.929 . S
C508 C505 1.432 . S
C508 C506 1.417 . S
C508 N516 1.360 . S
C509 C505 1.414 . S
C509 C507 1.444 . S
C509 C514 1.385 . S
C510 C506 1.432 . S
C510 C507 1.317 . S
C510 H522 0.930 . S
C511 C513 1.392 . S
C511 C514 1.370 . S
C511 H523 0.931 . S
N512 C505 1.359 . S
N512 C513 1.327 . S
N512 Tb515 2.600 . S
C513 C511 1.392 . S
C513 N512 1.327 . S
C513 H520 0.930 . S
C514 C509 1.385 . S
C514 C511 1.370 . S
C514 H533 0.930 . S
Tb515 N512 2.600 . S
Tb515 N516 2.660 . S
Tb515 O549 2.362 . S
Tb515 O550 2.421 . S
Tb515 O554 2.546 . S
Tb515 O555 2.610 . S
Tb515 O557 2.320 . S
Tb515 O558 2.552 . S
Tb515 O559 2.413 . S
Tb515 C579 2.833 . S
N516 C508 1.360 . S
N516 Tb515 2.660 . S
N516 C517 1.305 . S
C517 N516 1.305 . S
C517 C519 1.407 . S
C517 H524 0.930 . S
C518 C506 1.410 . S
C518 C519 1.345 . S
C518 H526 0.930 . S
C519 C517 1.407 . S
C519 C518 1.345 . S
C519 H521 0.930 . S
H520 C513 0.930 . S
H521 C519 0.930 . S
H522 C510 0.930 . S
H523 C511 0.931 . S
H524 C517 0.930 . S
H525 C539 0.930 . S
H526 C518 0.930 . S
H527 C545 0.930 . S
H528 C536 0.930 . S
H529 C543 0.931 . S
H530 C507 0.929 . S
H531 C537 0.930 . S
H532 C570 0.930 . S
H533 C514 0.930 . S
H534 C569 0.929 . S
N535 Tb504 2.660 . S
N535 C536 1.305 . S
N535 C540 1.360 . S
C536 H528 0.930 . S
C536 N535 1.305 . S
C536 C539 1.407 . S
C537 H531 0.930 . S
C537 C538 1.410 . S
C537 C539 1.345 . S
C538 C537 1.410 . S
C538 C540 1.417 . S
C538 C570 1.432 . S
C539 H525 0.930 . S
C539 C536 1.407 . S
C539 C537 1.345 . S
C540 N535 1.360 . S
C540 C538 1.417 . S
C540 C544 1.432 . S
H541 C546 0.930 . S
N542 Tb504 2.600 . S
N542 C544 1.359 . S
N542 C545 1.327 . S
C543 H529 0.931 . S
C543 C545 1.392 . S
C543 C546 1.370 . S
C544 C540 1.432 . S
C544 N542 1.359 . S
C544 C547 1.414 . S
C545 H527 0.930 . S
C545 N542 1.327 . S
C545 C543 1.392 . S
C546 H541 0.930 . S
C546 C543 1.370 . S
C546 C547 1.385 . S
C547 C544 1.414 . S
C547 C546 1.385 . S
C547 C569 1.444 . S
O548 Tb504 2.546 . S
O548 C568 1.251 . S
O549 Tb504 2.610 . S
O549 Tb515 2.362 . S
O549 C560 1.283 . S
O550 Tb515 2.421 . S
O550 C567 1.262 . S
O551 Tb504 2.320 . S
O551 C567 1.260 . S
O552 Tb504 2.552 . S
O552 C560 1.243 . S
O553 Tb504 2.413 . S
O553 C568 1.256 . S
O554 Tb515 2.546 . S
O554 C579 1.251 . S
O555 Tb504 2.362 . S
O555 Tb515 2.610 . S
O555 C571 1.283 . S
O556 Tb504 2.421 . S
O556 C578 1.262 . S
O557 Tb515 2.320 . S
O557 C578 1.260 . S
O558 Tb515 2.552 . S
O558 C571 1.243 . S
O559 Tb515 2.413 . S
O559 C579 1.256 . S
C560 O549 1.283 . S
C560 O552 1.243 . S
C561 C563 1.382 . S
C561 C565 1.393 . S
C561 C568 1.500 . S
C562 C563 1.400 . S
C562 C564 1.384 . S
C563 C561 1.382 . S
C563 C562 1.400 . S
C563 H580 0.930 . S
C564 C562 1.384 . S
C564 C566 1.392 . S
C564 H581 0.931 . S
C565 C561 1.393 . S
C565 C566 1.401 . S
C565 H582 0.930 . S
C566 C564 1.392 . S
C566 C565 1.401 . S
C566 H583 0.930 . S
C567 O550 1.262 . S
C567 O551 1.260 . S
C568 Tb504 2.833 . S
C568 O548 1.251 . S
C568 O553 1.256 . S
C568 C561 1.500 . S
C569 H534 0.929 . S
C569 C547 1.444 . S
C569 C570 1.317 . S
C570 H532 0.930 . S
C570 C538 1.432 . S
C570 C569 1.317 . S
C571 O555 1.283 . S
C571 O558 1.243 . S
C572 C573 1.382 . S
C572 C576 1.393 . S
C572 C579 1.500 . S
C573 C572 1.382 . S
C573 C574 1.400 . S
C573 H584 0.930 . S
C574 C573 1.400 . S
C574 C575 1.384 . S
C575 C574 1.384 . S
C575 C577 1.392 . S
C575 H585 0.931 . S
C576 C572 1.393 . S
C576 C577 1.401 . S
C576 H586 0.930 . S
C577 C575 1.392 . S
C577 C576 1.401 . S
C577 H587 0.930 . S
C578 O556 1.262 . S
C578 O557 1.260 . S
C579 Tb515 2.833 . S
C579 O554 1.251 . S
C579 O559 1.256 . S
C579 C572 1.500 . S
H580 C563 0.930 . S
H581 C564 0.931 . S
H582 C565 0.930 . S
H583 C566 0.930 . S
H584 C573 0.930 . S
H585 C575 0.931 . S
H586 C576 0.930 . S
H587 C577 0.930 . S
Tb588 N619 2.660 . S
Tb588 N626 2.600 . S
Tb588 O632 2.546 . S
Tb588 O633 2.610 . S
Tb588 O635 2.320 . S
Tb588 O636 2.552 . S
Tb588 O637 2.413 . S
Tb588 O639 2.362 . S
Tb588 O640 2.421 . S
Tb588 C652 2.833 . S
C589 C592 1.432 . S
C589 C593 1.414 . S
C589 N596 1.359 . S
C590 C592 1.417 . S
C590 C594 1.432 . S
C590 C602 1.410 . S
C591 C593 1.444 . S
C591 C594 1.317 . S
C591 H614 0.929 . S
C592 C589 1.432 . S
C592 C590 1.417 . S
C592 N600 1.360 . S
C593 C589 1.414 . S
C593 C591 1.444 . S
C593 C598 1.385 . S
C594 C590 1.432 . S
C594 C591 1.317 . S
C594 H606 0.930 . S
C595 C597 1.392 . S
C595 C598 1.370 . S
C595 H607 0.931 . S
N596 C589 1.359 . S
N596 C597 1.327 . S
N596 Tb599 2.600 . S
C597 C595 1.392 . S
C597 N596 1.327 . S
C597 H604 0.930 . S
C598 C593 1.385 . S
C598 C595 1.370 . S
C598 H617 0.930 . S
Tb599 N596 2.600 . S
Tb599 N600 2.660 . S
Tb599 O633 2.362 . S
Tb599 O634 2.421 . S
Tb599 O638 2.546 . S
Tb599 O639 2.610 . S
Tb599 O641 2.320 . S
Tb599 O642 2.552 . S
Tb599 O643 2.413 . S
Tb599 C663 2.833 . S
N600 C592 1.360 . S
N600 Tb599 2.660 . S
N600 C601 1.305 . S
C601 N600 1.305 . S
C601 C603 1.407 . S
C601 H608 0.930 . S
C602 C590 1.410 . S
C602 C603 1.345 . S
C602 H610 0.930 . S
C603 C601 1.407 . S
C603 C602 1.345 . S
C603 H605 0.930 . S
H604 C597 0.930 . S
H605 C603 0.930 . S
H606 C594 0.930 . S
H607 C595 0.931 . S
H608 C601 0.930 . S
H609 C623 0.930 . S
H610 C602 0.930 . S
H611 C629 0.930 . S
H612 C620 0.930 . S
H613 C627 0.931 . S
H614 C591 0.929 . S
H615 C621 0.930 . S
H616 C654 0.930 . S
H617 C598 0.930 . S
H618 C653 0.929 . S
N619 Tb588 2.660 . S
N619 C620 1.305 . S
N619 C624 1.360 . S
C620 H612 0.930 . S
C620 N619 1.305 . S
C620 C623 1.407 . S
C621 H615 0.930 . S
C621 C622 1.410 . S
C621 C623 1.345 . S
C622 C621 1.410 . S
C622 C624 1.417 . S
C622 C654 1.432 . S
C623 H609 0.930 . S
C623 C620 1.407 . S
C623 C621 1.345 . S
C624 N619 1.360 . S
C624 C622 1.417 . S
C624 C628 1.432 . S
H625 C630 0.930 . S
N626 Tb588 2.600 . S
N626 C628 1.359 . S
N626 C629 1.327 . S
C627 H613 0.931 . S
C627 C629 1.392 . S
C627 C630 1.370 . S
C628 C624 1.432 . S
C628 N626 1.359 . S
C628 C631 1.414 . S
C629 H611 0.930 . S
C629 N626 1.327 . S
C629 C627 1.392 . S
C630 H625 0.930 . S
C630 C627 1.370 . S
C630 C631 1.385 . S
C631 C628 1.414 . S
C631 C630 1.385 . S
C631 C653 1.444 . S
O632 Tb588 2.546 . S
O632 C652 1.251 . S
O633 Tb588 2.610 . S
O633 Tb599 2.362 . S
O633 C644 1.283 . S
O634 Tb599 2.421 . S
O634 C651 1.262 . S
O635 Tb588 2.320 . S
O635 C651 1.260 . S
O636 Tb588 2.552 . S
O636 C644 1.243 . S
O637 Tb588 2.413 . S
O637 C652 1.256 . S
O638 Tb599 2.546 . S
O638 C663 1.251 . S
O639 Tb588 2.362 . S
O639 Tb599 2.610 . S
O639 C655 1.283 . S
O640 Tb588 2.421 . S
O640 C662 1.262 . S
O641 Tb599 2.320 . S
O641 C662 1.260 . S
O642 Tb599 2.552 . S
O642 C655 1.243 . S
O643 Tb599 2.413 . S
O643 C663 1.256 . S
C644 O633 1.283 . S
C644 O636 1.243 . S
C645 C647 1.382 . S
C645 C649 1.393 . S
C645 C652 1.500 . S
C646 C647 1.400 . S
C646 C648 1.384 . S
C647 C645 1.382 . S
C647 C646 1.400 . S
C647 H664 0.930 . S
C648 C646 1.384 . S
C648 C650 1.392 . S
C648 H665 0.931 . S
C649 C645 1.393 . S
C649 C650 1.401 . S
C649 H666 0.930 . S
C650 C648 1.392 . S
C650 C649 1.401 . S
C650 H667 0.930 . S
C651 O634 1.262 . S
C651 O635 1.260 . S
C652 Tb588 2.833 . S
C652 O632 1.251 . S
C652 O637 1.256 . S
C652 C645 1.500 . S
C653 H618 0.929 . S
C653 C631 1.444 . S
C653 C654 1.317 . S
C654 H616 0.930 . S
C654 C622 1.432 . S
C654 C653 1.317 . S
C655 O639 1.283 . S
C655 O642 1.243 . S
C656 C657 1.382 . S
C656 C660 1.393 . S
C656 C663 1.500 . S
C657 C656 1.382 . S
C657 C658 1.400 . S
C657 H668 0.930 . S
C658 C657 1.400 . S
C658 C659 1.384 . S
C659 C658 1.384 . S
C659 C661 1.392 . S
C659 H669 0.931 . S
C660 C656 1.393 . S
C660 C661 1.401 . S
C660 H670 0.930 . S
C661 C659 1.392 . S
C661 C660 1.401 . S
C661 H671 0.930 . S
C662 O640 1.262 . S
C662 O641 1.260 . S
C663 Tb599 2.833 . S
C663 O638 1.251 . S
C663 O643 1.256 . S
C663 C656 1.500 . S
H664 C647 0.930 . S
H665 C648 0.931 . S
H666 C649 0.930 . S
H667 C650 0.930 . S
H668 C657 0.930 . S
H669 C659 0.931 . S
H670 C660 0.930 . S
H671 C661 0.930 . S
Fe672 O673 1.886 1_455 S
Fe672 O676 1.715 . S
Fe672 O681 2.077 1_455 S
Fe672 O686 1.935 . S
Fe672 O692 2.077 1_455 S
Fe672 O701 1.935 . S
O673 Fe672 1.886 1_655 S
O673 Fe675 1.715 1_545 S
Fe674 O676 1.886 . S
Fe674 O677 1.715 1_545 S
Fe674 O684 1.935 1_545 S
Fe674 O685 2.077 . S
Fe674 O691 1.935 1_545 S
Fe674 O700 2.077 . S
Fe675 O673 1.715 1_565 S
Fe675 O678 1.886 . S
Fe675 O682 1.935 1_565 S
Fe675 O687 2.077 . S
Fe675 O693 1.935 1_565 S
Fe675 O697 2.077 . S
O676 Fe672 1.715 . S
O676 Fe674 1.886 . S
O677 Fe674 1.715 1_565 S
O677 Fe679 1.886 1_455 S
O678 Fe675 1.886 . S
O678 Fe679 1.715 . S
Fe679 O677 1.886 1_655 S
Fe679 O678 1.715 . S
Fe679 O683 2.077 1_655 S
Fe679 O688 1.935 . S
Fe679 O690 2.077 1_655 S
Fe679 O698 1.935 . S
C680 O692 1.381 . S
C680 O693 1.421 . S
O681 Fe672 2.077 1_655 S
O681 C694 1.381 . S
O682 Fe675 1.935 1_545 S
O682 C694 1.421 . S
O683 Fe679 2.077 1_455 S
O683 C699 1.381 . S
O684 Fe674 1.935 1_565 S
O684 C699 1.421 . S
O685 Fe674 2.077 . S
O685 C689 1.381 . S
O686 Fe672 1.935 . S
O686 C689 1.421 . S
O687 Fe675 2.077 . S
O687 C695 1.381 . S
O688 Fe679 1.935 . S
O688 C695 1.421 . S
C689 O685 1.381 . S
C689 O686 1.421 . S
O690 Fe679 2.077 1_455 S
O690 C702 1.381 . S
O691 Fe674 1.935 1_565 S
O691 C702 1.421 . S
O692 Fe672 2.077 1_655 S
O692 C680 1.381 . S
O693 Fe675 1.935 1_545 S
O693 C680 1.421 . S
C694 O681 1.381 . S
C694 O682 1.421 . S
C695 O687 1.381 . S
C695 O688 1.421 . S
C696 O697 1.381 . S
C696 O698 1.421 . S
O697 Fe675 2.077 . S
O697 C696 1.381 . S
O698 Fe679 1.935 . S
O698 C696 1.421 . S
C699 O683 1.381 . S
C699 O684 1.421 . S
O700 Fe674 2.077 . S
O700 C703 1.381 . S
O701 Fe672 1.935 . S
O701 C703 1.421 . S
C702 O690 1.381 . S
C702 O691 1.421 . S
C703 O700 1.381 . S
C703 O701 1.421 . S
Fe704 O705 1.886 . S
Fe704 O708 1.715 . S
Fe704 O713 2.077 1_554 S
Fe704 O718 1.935 1_554 S
Fe704 O724 2.077 . S
Fe704 O733 1.935 . S
O705 Fe704 1.886 . S
O705 Fe707 1.715 1_565 S
Fe706 O708 1.886 1_556 S
Fe706 O709 1.715 1_565 S
Fe706 O716 1.935 1_565 S
Fe706 O717 2.077 . S
Fe706 O723 1.935 1_566 S
Fe706 O732 2.077 1_556 S
Fe707 O705 1.715 1_545 S
Fe707 O710 1.885 1_554 S
Fe707 O714 1.935 1_544 S
Fe707 O719 2.077 1_554 S
Fe707 O725 1.935 1_545 S
Fe707 O729 2.077 . S
O708 Fe704 1.715 . S
O708 Fe706 1.886 1_554 S
O709 Fe706 1.715 1_545 S
O709 Fe711 1.886 . S
O710 Fe707 1.885 1_556 S
O710 Fe711 1.715 . S
Fe711 O709 1.886 . S
Fe711 O710 1.715 . S
Fe711 O715 2.077 . S
Fe711 O720 1.935 . S
Fe711 O722 2.077 1_556 S
Fe711 O730 1.935 1_556 S
C712 O724 1.381 . S
C712 O725 1.421 . S
O713 Fe704 2.077 1_556 S
O713 C726 1.381 . S
O714 Fe707 1.935 1_566 S
O714 C726 1.421 . S
O715 Fe711 2.077 . S
O715 C731 1.381 . S
O716 Fe706 1.935 1_545 S
O716 C731 1.421 . S
O717 Fe706 2.077 . S
O717 C721 1.381 . S
O718 Fe704 1.935 1_556 S
O718 C721 1.421 . S
O719 Fe707 2.077 1_556 S
O719 C727 1.381 . S
O720 Fe711 1.935 . S
O720 C727 1.421 . S
C721 O717 1.381 . S
C721 O718 1.421 . S
O722 Fe711 2.077 1_554 S
O722 C734 1.381 . S
O723 Fe706 1.935 1_544 S
O723 C734 1.421 . S
O724 Fe704 2.077 . S
O724 C712 1.381 . S
O725 Fe707 1.935 1_565 S
O725 C712 1.421 . S
C726 O713 1.381 . S
C726 O714 1.421 . S
C727 O719 1.381 . S
C727 O720 1.421 . S
C728 O729 1.381 . S
C728 O730 1.421 . S
O729 Fe707 2.077 . S
O729 C728 1.381 . S
O730 Fe711 1.935 1_554 S
O730 C728 1.421 . S
C731 O715 1.381 . S
C731 O716 1.421 . S
O732 Fe706 2.077 1_554 S
O732 C735 1.381 . S
O733 Fe704 1.935 . S
O733 C735 1.421 . S
C734 O722 1.381 . S
C734 O723 1.421 . S
C735 O732 1.381 . S
C735 O733 1.421 . S
Fe736 O737 1.886 1_455 S
Fe736 O740 1.716 . S
Fe736 O745 2.077 1_455 S
Fe736 O750 1.935 . S
Fe736 O756 2.077 1_456 S
Fe736 O765 1.935 1_556 S
O737 Fe736 1.886 1_655 S
O737 Fe739 1.715 . S
Fe738 O740 1.885 1_554 S
Fe738 O741 1.715 . S
Fe738 O748 1.935 1_554 S
Fe738 O749 2.077 1_554 S
Fe738 O755 1.935 . S
Fe738 O764 2.077 . S
Fe739 O737 1.715 . S
Fe739 O742 1.886 1_556 S
Fe739 O746 1.935 . S
Fe739 O751 2.077 . S
Fe739 O757 1.935 1_556 S
Fe739 O761 2.077 1_556 S
O740 Fe736 1.716 . S
O740 Fe738 1.885 1_556 S
O741 Fe738 1.715 . S
O741 Fe743 1.886 1_455 S
O742 Fe739 1.886 1_554 S
O742 Fe743 1.715 . S
Fe743 O741 1.886 1_655 S
Fe743 O742 1.715 . S
Fe743 O747 2.077 1_654 S
Fe743 O752 1.935 1_554 S
Fe743 O754 2.077 1_655 S
Fe743 O762 1.935 . S
C744 O756 1.381 . S
C744 O757 1.421 . S
O745 Fe736 2.077 1_655 S
O745 C758 1.381 . S
O746 Fe739 1.935 . S
O746 C758 1.421 . S
O747 Fe743 2.077 1_456 S
O747 C763 1.381 . S
O748 Fe738 1.935 1_556 S
O748 C763 1.421 . S
O749 Fe738 2.077 1_556 S
O749 C753 1.381 . S
O750 Fe736 1.935 . S
O750 C753 1.421 . S
O751 Fe739 2.077 . S
O751 C759 1.381 . S
O752 Fe743 1.935 1_556 S
O752 C759 1.421 . S
C753 O749 1.381 . S
C753 O750 1.421 . S
O754 Fe743 2.077 1_455 S
O754 C766 1.381 . S
O755 Fe738 1.935 . S
O755 C766 1.421 . S
O756 Fe736 2.077 1_654 S
O756 C744 1.381 . S
O757 Fe739 1.935 1_554 S
O757 C744 1.421 . S
C758 O745 1.381 . S
C758 O746 1.421 . S
C759 O751 1.381 . S
C759 O752 1.421 . S
C760 O761 1.381 . S
C760 O762 1.421 . S
O761 Fe739 2.077 1_554 S
O761 C760 1.381 . S
O762 Fe743 1.935 . S
O762 C760 1.421 . S
C763 O747 1.381 . S
C763 O748 1.421 . S
O764 Fe738 2.077 . S
O764 C767 1.381 . S
O765 Fe736 1.935 1_554 S
O765 C767 1.421 . S
C766 O754 1.381 . S
C766 O755 1.421 . S
C767 O764 1.381 . S
C767 O765 1.421 . S
Fe768 O769 1.886 . S
Fe768 O772 1.715 . S
Fe768 O777 2.077 . S
Fe768 O782 1.935 . S
Fe768 O788 2.077 . S
Fe768 O797 1.935 . S
O769 Fe768 1.886 . S
O769 Fe771 1.715 1_556 S
Fe770 O772 1.886 . S
Fe770 O773 1.715 1_556 S
Fe770 O780 1.935 1_556 S
Fe770 O781 2.077 . S
Fe770 O787 1.935 1_556 S
Fe770 O796 2.077 . S
Fe771 O769 1.715 1_554 S
Fe771 O774 1.886 . S
Fe771 O778 1.935 1_554 S
Fe771 O783 2.077 . S
Fe771 O789 1.935 1_554 S
Fe771 O793 2.077 . S
O772 Fe768 1.715 . S
O772 Fe770 1.886 . S
O773 Fe770 1.715 1_554 S
O773 Fe775 1.886 . S
O774 Fe771 1.886 . S
O774 Fe775 1.715 . S
Fe775 O773 1.886 . S
Fe775 O774 1.715 . S
Fe775 O779 2.077 . S
Fe775 O784 1.935 . S
Fe775 O786 2.077 . S
Fe775 O794 1.935 . S
C776 O788 1.381 . S
C776 O789 1.421 . S
O777 Fe768 2.077 . S
O777 C790 1.381 . S
O778 Fe771 1.935 1_556 S
O778 C790 1.421 . S
O779 Fe775 2.077 . S
O779 C795 1.381 . S
O780 Fe770 1.935 1_554 S
O780 C795 1.421 . S
O781 Fe770 2.077 . S
O781 C785 1.381 . S
O782 Fe768 1.935 . S
O782 C785 1.421 . S
O783 Fe771 2.077 . S
O783 C791 1.381 . S
O784 Fe775 1.935 . S
O784 C791 1.421 . S
C785 O781 1.381 . S
C785 O782 1.421 . S
O786 Fe775 2.077 . S
O786 C798 1.381 . S
O787 Fe770 1.935 1_554 S
O787 C798 1.421 . S
O788 Fe768 2.077 . S
O788 C776 1.381 . S
O789 Fe771 1.935 1_556 S
O789 C776 1.421 . S
C790 O777 1.381 . S
C790 O778 1.421 . S
C791 O783 1.381 . S
C791 O784 1.421 . S
C792 O793 1.381 . S
C792 O794 1.421 . S
O793 Fe771 2.077 . S
O793 C792 1.381 . S
O794 Fe775 1.935 . S
O794 C792 1.421 . S
C795 O779 1.381 . S
C795 O780 1.421 . S
O796 Fe770 2.077 . S
O796 C799 1.381 . S
O797 Fe768 1.935 . S
O797 C799 1.421 . S
C798 O786 1.381 . S
C798 O787 1.421 . S
C799 O796 1.381 . S
C799 O797 1.421 . S
Fe800 O801 1.886 . S
Fe800 O804 1.715 . S
Fe800 O809 2.077 1_655 S
Fe800 O814 1.935 1_655 S
Fe800 O820 2.077 . S
Fe800 O829 1.935 . S
O801 Fe800 1.886 . S
O801 Fe803 1.715 1_655 S
Fe802 O804 1.886 . S
Fe802 O805 1.715 1_655 S
Fe802 O812 1.935 1_655 S
Fe802 O813 2.077 1_655 S
Fe802 O819 1.935 . S
Fe802 O828 2.077 . S
Fe803 O801 1.715 1_455 S
Fe803 O806 1.886 . S
Fe803 O810 1.935 . S
Fe803 O815 2.077 . S
Fe803 O821 1.935 1_455 S
Fe803 O825 2.077 1_455 S
O804 Fe800 1.715 . S
O804 Fe802 1.886 . S
O805 Fe802 1.715 1_455 S
O805 Fe807 1.886 . S
O806 Fe803 1.886 . S
O806 Fe807 1.715 . S
Fe807 O805 1.886 . S
Fe807 O806 1.715 . S
Fe807 O811 2.077 . S
Fe807 O816 1.935 . S
Fe807 O818 2.077 1_455 S
Fe807 O826 1.935 1_455 S
C808 O820 1.381 . S
C808 O821 1.421 . S
O809 Fe800 2.077 1_455 S
O809 C822 1.381 . S
O810 Fe803 1.935 . S
O810 C822 1.421 . S
O811 Fe807 2.077 . S
O811 C827 1.381 . S
O812 Fe802 1.935 1_455 S
O812 C827 1.421 . S
O813 Fe802 2.077 1_455 S
O813 C817 1.381 . S
O814 Fe800 1.935 1_455 S
O814 C817 1.421 . S
O815 Fe803 2.077 . S
O815 C823 1.381 . S
O816 Fe807 1.935 . S
O816 C823 1.421 . S
C817 O813 1.381 . S
C817 O814 1.421 . S
O818 Fe807 2.077 1_655 S
O818 C830 1.381 . S
O819 Fe802 1.935 . S
O819 C830 1.421 . S
O820 Fe800 2.077 . S
O820 C808 1.381 . S
O821 Fe803 1.935 1_655 S
O821 C808 1.421 . S
C822 O809 1.381 . S
C822 O810 1.421 . S
C823 O815 1.381 . S
C823 O816 1.421 . S
C824 O825 1.381 . S
C824 O826 1.421 . S
O825 Fe803 2.077 1_655 S
O825 C824 1.381 . S
O826 Fe807 1.935 1_655 S
O826 C824 1.421 . S
C827 O811 1.381 . S
C827 O812 1.421 . S
O828 Fe802 2.077 . S
O828 C831 1.381 . S
O829 Fe800 1.935 . S
O829 C831 1.421 . S
C830 O818 1.381 . S
C830 O819 1.421 . S
C831 O828 1.381 . S
C831 O829 1.421 . S
Fe832 O833 1.886 . S
Fe832 O836 1.715 . S
Fe832 O841 2.077 . S
Fe832 O846 1.935 . S
Fe832 O852 2.077 . S
Fe832 O861 1.935 . S
O833 Fe832 1.886 . S
O833 Fe835 1.715 . S
Fe834 O836 1.886 1_545 S
Fe834 O837 1.715 . S
Fe834 O844 1.935 . S
Fe834 O845 2.077 1_545 S
Fe834 O851 1.935 . S
Fe834 O860 2.077 1_545 S
Fe835 O833 1.715 . S
Fe835 O838 1.886 1_565 S
Fe835 O842 1.935 . S
Fe835 O847 2.077 1_565 S
Fe835 O853 1.935 . S
Fe835 O857 2.077 1_565 S
O836 Fe832 1.715 . S
O836 Fe834 1.886 1_565 S
O837 Fe834 1.715 . S
O837 Fe839 1.886 . S
O838 Fe835 1.886 1_545 S
O838 Fe839 1.715 . S
Fe839 O837 1.886 . S
Fe839 O838 1.715 . S
Fe839 O843 2.077 . S
Fe839 O848 1.935 . S
Fe839 O850 2.077 . S
Fe839 O858 1.935 . S
C840 O852 1.381 . S
C840 O853 1.421 . S
O841 Fe832 2.077 . S
O841 C854 1.381 . S
O842 Fe835 1.935 . S
O842 C854 1.421 . S
O843 Fe839 2.077 . S
O843 C859 1.381 . S
O844 Fe834 1.935 . S
O844 C859 1.421 . S
O845 Fe834 2.077 1_565 S
O845 C849 1.381 . S
O846 Fe832 1.935 . S
O846 C849 1.421 . S
O847 Fe835 2.077 1_545 S
O847 C855 1.381 . S
O848 Fe839 1.935 . S
O848 C855 1.421 . S
C849 O845 1.381 . S
C849 O846 1.421 . S
O850 Fe839 2.077 . S
O850 C862 1.381 . S
O851 Fe834 1.935 . S
O851 C862 1.421 . S
O852 Fe832 2.077 . S
O852 C840 1.381 . S
O853 Fe835 1.935 . S
O853 C840 1.421 . S
C854 O841 1.381 . S
C854 O842 1.421 . S
C855 O847 1.381 . S
C855 O848 1.421 . S
C856 O857 1.381 . S
C856 O858 1.421 . S
O857 Fe835 2.077 1_545 S
O857 C856 1.381 . S
O858 Fe839 1.935 . S
O858 C856 1.421 . S
C859 O843 1.381 . S
C859 O844 1.421 . S
O860 Fe834 2.077 1_565 S
O860 C863 1.381 . S
O861 Fe832 1.935 . S
O861 C863 1.421 . S
C862 O850 1.381 . S
C862 O851 1.421 . S
C863 O860 1.381 . S
C863 O861 1.421 . S
C864 C865 1.349 . S
C864 C866 1.327 . S
C864 H889 0.950 . S
C865 C864 1.349 . S
C865 C881 1.349 . S
C866 C864 1.327 . S
C866 C885 1.429 . S
C866 H890 0.950 . S
C867 C884 1.574 . S
C867 C886 1.368 . S
C867 H891 0.949 . S
H868 C872 0.949 . S
C869 C870 1.349 . S
C869 C871 1.327 . S
C869 H892 0.950 . S
C870 C869 1.349 . S
C870 C882 1.349 . S
C871 C869 1.327 . S
C871 C887 1.429 . S
C871 H893 0.950 . S
C872 H868 0.949 . S
C872 C880 1.574 . S
C872 C888 1.368 . S
H873 C881 0.950 . S
H874 C879 0.950 . S
H875 C880 0.949 . S
H876 C882 0.950 . S
H877 C883 0.950 . S
H878 C884 0.949 . S
C879 H874 0.950 . S
C879 C881 1.327 . S
C879 C885 1.429 . S
C880 C872 1.574 . S
C880 H875 0.949 . S
C880 C886 1.368 . S
C881 C865 1.349 . S
C881 H873 0.950 . S
C881 C879 1.327 . S
C882 C870 1.349 . S
C882 H876 0.950 . S
C882 C883 1.327 . S
C883 H877 0.950 . S
C883 C882 1.327 . S
C883 C887 1.429 . S
C884 C867 1.574 . S
C884 H878 0.949 . S
C884 C888 1.368 . S
C885 C866 1.429 . S
C885 C879 1.429 . S
C885 C886 1.523 . S
C886 C867 1.368 . S
C886 C880 1.368 . S
C886 C885 1.523 . S
C887 C871 1.429 . S
C887 C883 1.429 . S
C887 C888 1.523 . S
C888 C872 1.368 . S
C888 C884 1.368 . S
C888 C887 1.523 . S
H889 C864 0.950 . S
H890 C866 0.950 . S
H891 C867 0.949 . S
H892 C869 0.950 . S
H893 C871 0.950 . S
C894 C895 1.349 . S
C894 C896 1.327 . S
C894 H919 0.950 . S
C895 C894 1.349 . S
C895 C911 1.349 . S
C896 C894 1.327 . S
C896 C915 1.429 . S
C896 H920 0.950 . S
C897 C914 1.574 . S
C897 C916 1.368 . S
C897 H921 0.949 . S
H898 C902 0.949 . S
C899 C900 1.349 . S
C899 C901 1.327 . S
C899 H922 0.950 . S
C900 C899 1.349 . S
C900 C912 1.349 . S
C901 C899 1.327 . S
C901 C917 1.429 . S
C901 H923 0.950 . S
C902 H898 0.949 . S
C902 C910 1.574 . S
C902 C918 1.368 . S
H903 C911 0.950 . S
H904 C909 0.950 . S
H905 C910 0.949 . S
H906 C912 0.950 . S
H907 C913 0.950 . S
H908 C914 0.949 . S
C909 H904 0.950 . S
C909 C911 1.327 . S
C909 C915 1.429 . S
C910 C902 1.574 . S
C910 H905 0.949 . S
C910 C916 1.368 . S
C911 C895 1.349 . S
C911 H903 0.950 . S
C911 C909 1.327 . S
C912 C900 1.349 . S
C912 H906 0.950 . S
C912 C913 1.327 . S
C913 H907 0.950 . S
C913 C912 1.327 . S
C913 C917 1.429 . S
C914 C897 1.574 . S
C914 H908 0.949 . S
C914 C918 1.368 . S
C915 C896 1.429 . S
C915 C909 1.429 . S
C915 C916 1.523 . S
C916 C897 1.368 . S
C916 C910 1.368 . S
C916 C915 1.523 . S
C917 C901 1.429 . S
C917 C913 1.429 . S
C917 C918 1.523 . S
C918 C902 1.368 . S
C918 C914 1.368 . S
C918 C917 1.523 . S
H919 C894 0.950 . S
H920 C896 0.950 . S
H921 C897 0.949 . S
H922 C899 0.950 . S
H923 C901 0.950 . S
C924 C925 1.349 . S
C924 C926 1.327 . S
C924 H949 0.950 . S
C925 C924 1.349 . S
C925 C941 1.349 . S
C926 C924 1.327 . S
C926 C945 1.429 . S
C926 H950 0.950 . S
C927 C944 1.574 . S
C927 C946 1.368 . S
C927 H951 0.949 . S
H928 C932 0.949 . S
C929 C930 1.349 . S
C929 C931 1.327 . S
C929 H952 0.950 . S
C930 C929 1.349 . S
C930 C942 1.349 . S
C931 C929 1.327 . S
C931 C947 1.429 . S
C931 H953 0.950 . S
C932 H928 0.949 . S
C932 C940 1.574 . S
C932 C948 1.368 . S
H933 C941 0.950 . S
H934 C939 0.950 . S
H935 C940 0.949 . S
H936 C942 0.950 . S
H937 C943 0.950 . S
H938 C944 0.949 . S
C939 H934 0.950 . S
C939 C941 1.327 . S
C939 C945 1.429 . S
C940 C932 1.574 . S
C940 H935 0.949 . S
C940 C946 1.368 . S
C941 C925 1.349 . S
C941 H933 0.950 . S
C941 C939 1.327 . S
C942 C930 1.349 . S
C942 H936 0.950 . S
C942 C943 1.327 . S
C943 H937 0.950 . S
C943 C942 1.327 . S
C943 C947 1.429 . S
C944 C927 1.574 . S
C944 H938 0.949 . S
C944 C948 1.368 . S
C945 C926 1.429 . S
C945 C939 1.429 . S
C945 C946 1.523 . S
C946 C927 1.368 . S
C946 C940 1.368 . S
C946 C945 1.523 . S
C947 C931 1.429 . S
C947 C943 1.429 . S
C947 C948 1.523 . S
C948 C932 1.368 . S
C948 C944 1.368 . S
C948 C947 1.523 . S
H949 C924 0.950 . S
H950 C926 0.950 . S
H951 C927 0.949 . S
H952 C929 0.950 . S
H953 C931 0.950 . S
C954 C955 1.349 . S
C954 C956 1.327 . S
C954 H979 0.950 . S
C955 C954 1.349 . S
C955 C971 1.349 . S
C956 C954 1.327 . S
C956 C975 1.429 . S
C956 H980 0.950 . S
C957 C974 1.574 . S
C957 C976 1.368 . S
C957 H981 0.949 . S
H958 C962 0.949 . S
C959 C960 1.349 . S
C959 C961 1.327 . S
C959 H982 0.950 . S
C960 C959 1.349 . S
C960 C972 1.349 . S
C961 C959 1.327 . S
C961 C977 1.429 . S
C961 H983 0.950 . S
C962 H958 0.949 . S
C962 C970 1.574 . S
C962 C978 1.368 . S
H963 C971 0.950 . S
H964 C969 0.950 . S
H965 C970 0.949 . S
H966 C972 0.950 . S
H967 C973 0.950 . S
H968 C974 0.949 . S
C969 H964 0.950 . S
C969 C971 1.327 . S
C969 C975 1.429 . S
C970 C962 1.574 . S
C970 H965 0.949 . S
C970 C976 1.368 . S
C971 C955 1.349 . S
C971 H963 0.950 . S
C971 C969 1.327 . S
C972 C960 1.349 . S
C972 H966 0.950 . S
C972 C973 1.327 . S
C973 H967 0.950 . S
C973 C972 1.327 . S
C973 C977 1.429 . S
C974 C957 1.574 . S
C974 H968 0.949 . S
C974 C978 1.368 . S
C975 C956 1.429 . S
C975 C969 1.429 . S
C975 C976 1.523 . S
C976 C957 1.368 . S
C976 C970 1.368 . S
C976 C975 1.523 . S
C977 C961 1.429 . S
C977 C973 1.429 . S
C977 C978 1.523 . S
C978 C962 1.368 . S
C978 C974 1.368 . S
C978 C977 1.523 . S
H979 C954 0.950 . S
H980 C956 0.950 . S
H981 C957 0.949 . S
H982 C959 0.950 . S
H983 C961 0.950 . S
C984 C985 1.349 . S
C984 C986 1.327 . S
C984 H1009 0.950 . S
C985 C984 1.349 . S
C985 C1001 1.349 . S
C986 C984 1.327 . S
C986 C1005 1.429 . S
C986 H1010 0.950 . S
C987 C1004 1.574 . S
C987 C1006 1.368 . S
C987 H1011 0.949 . S
H988 C992 0.949 . S
C989 C990 1.349 . S
C989 C991 1.327 . S
C989 H1012 0.950 . S
C990 C989 1.349 . S
C990 C1002 1.349 . S
C991 C989 1.327 . S
C991 C1007 1.429 . S
C991 H1013 0.950 . S
C992 H988 0.949 . S
C992 C1000 1.574 . S
C992 C1008 1.368 . S
H993 C1001 0.950 . S
H994 C999 0.950 . S
H995 C1000 0.949 . S
H996 C1002 0.950 . S
H997 C1003 0.950 . S
H998 C1004 0.949 . S
C999 H994 0.950 . S
C999 C1001 1.327 . S
C999 C1005 1.429 . S
C1000 C992 1.574 . S
C1000 H995 0.949 . S
C1000 C1006 1.368 . S
C1001 C985 1.349 . S
C1001 H993 0.950 . S
C1001 C999 1.327 . S
C1002 C990 1.349 . S
C1002 H996 0.950 . S
C1002 C1003 1.327 . S
C1003 H997 0.950 . S
C1003 C1002 1.327 . S
C1003 C1007 1.429 . S
C1004 C987 1.574 . S
C1004 H998 0.949 . S
C1004 C1008 1.368 . S
C1005 C986 1.429 . S
C1005 C999 1.429 . S
C1005 C1006 1.523 . S
C1006 C987 1.368 . S
C1006 C1000 1.368 . S
C1006 C1005 1.523 . S
C1007 C991 1.429 . S
C1007 C1003 1.429 . S
C1007 C1008 1.523 . S
C1008 C992 1.368 . S
C1008 C1004 1.368 . S
C1008 C1007 1.523 . S
H1009 C984 0.950 . S
H1010 C986 0.950 . S
H1011 C987 0.949 . S
H1012 C989 0.950 . S
H1013 C991 0.950 . S
C1014 C1015 1.349 . S
C1014 C1016 1.327 . S
C1014 H1039 0.950 . S
C1015 C1014 1.349 . S
C1015 C1031 1.349 . S
C1016 C1014 1.327 . S
C1016 C1035 1.429 . S
C1016 H1040 0.950 . S
C1017 C1034 1.574 . S
C1017 C1036 1.368 . S
C1017 H1041 0.949 . S
H1018 C1022 0.949 . S
C1019 C1020 1.349 . S
C1019 C1021 1.327 . S
C1019 H1042 0.950 . S
C1020 C1019 1.349 . S
C1020 C1032 1.349 . S
C1021 C1019 1.327 . S
C1021 C1037 1.429 . S
C1021 H1043 0.950 . S
C1022 H1018 0.949 . S
C1022 C1030 1.574 . S
C1022 C1038 1.368 . S
H1023 C1031 0.950 . S
H1024 C1029 0.950 . S
H1025 C1030 0.949 . S
H1026 C1032 0.950 . S
H1027 C1033 0.950 . S
H1028 C1034 0.949 . S
C1029 H1024 0.950 . S
C1029 C1031 1.327 . S
C1029 C1035 1.429 . S
C1030 C1022 1.574 . S
C1030 H1025 0.949 . S
C1030 C1036 1.368 . S
C1031 C1015 1.349 . S
C1031 H1023 0.950 . S
C1031 C1029 1.327 . S
C1032 C1020 1.349 . S
C1032 H1026 0.950 . S
C1032 C1033 1.327 . S
C1033 H1027 0.950 . S
C1033 C1032 1.327 . S
C1033 C1037 1.429 . S
C1034 C1017 1.574 . S
C1034 H1028 0.949 . S
C1034 C1038 1.368 . S
C1035 C1016 1.429 . S
C1035 C1029 1.429 . S
C1035 C1036 1.523 . S
C1036 C1017 1.368 . S
C1036 C1030 1.368 . S
C1036 C1035 1.523 . S
C1037 C1021 1.429 . S
C1037 C1033 1.429 . S
C1037 C1038 1.523 . S
C1038 C1022 1.368 . S
C1038 C1034 1.368 . S
C1038 C1037 1.523 . S
H1039 C1014 0.950 . S
H1040 C1016 0.950 . S
H1041 C1017 0.949 . S
H1042 C1019 0.950 . S
H1043 C1021 0.950 . S
C1044 C1045 1.349 . S
C1044 C1046 1.327 . S
C1044 H1069 0.950 . S
C1045 C1044 1.349 . S
C1045 C1061 1.349 . S
C1046 C1044 1.327 . S
C1046 C1065 1.429 . S
C1046 H1070 0.950 . S
C1047 C1064 1.574 . S
C1047 C1066 1.368 . S
C1047 H1071 0.949 . S
H1048 C1052 0.949 . S
C1049 C1050 1.349 . S
C1049 C1051 1.327 . S
C1049 H1072 0.950 . S
C1050 C1049 1.349 . S
C1050 C1062 1.349 . S
C1051 C1049 1.327 . S
C1051 C1067 1.429 . S
C1051 H1073 0.950 . S
C1052 H1048 0.949 . S
C1052 C1060 1.574 . S
C1052 C1068 1.368 . S
H1053 C1061 0.950 . S
H1054 C1059 0.950 . S
H1055 C1060 0.949 . S
H1056 C1062 0.950 . S
H1057 C1063 0.950 . S
H1058 C1064 0.949 . S
C1059 H1054 0.950 . S
C1059 C1061 1.327 . S
C1059 C1065 1.429 . S
C1060 C1052 1.574 . S
C1060 H1055 0.949 . S
C1060 C1066 1.368 . S
C1061 C1045 1.349 . S
C1061 H1053 0.950 . S
C1061 C1059 1.327 . S
C1062 C1050 1.349 . S
C1062 H1056 0.950 . S
C1062 C1063 1.327 . S
C1063 H1057 0.950 . S
C1063 C1062 1.327 . S
C1063 C1067 1.429 . S
C1064 C1047 1.574 . S
C1064 H1058 0.949 . S
C1064 C1068 1.368 . S
C1065 C1046 1.429 . S
C1065 C1059 1.429 . S
C1065 C1066 1.523 . S
C1066 C1047 1.368 . S
C1066 C1060 1.368 . S
C1066 C1065 1.523 . S
C1067 C1051 1.429 . S
C1067 C1063 1.429 . S
C1067 C1068 1.523 . S
C1068 C1052 1.368 . S
C1068 C1064 1.368 . S
C1068 C1067 1.523 . S
H1069 C1044 0.950 . S
H1070 C1046 0.950 . S
H1071 C1047 0.949 . S
H1072 C1049 0.950 . S
H1073 C1051 0.950 . S
C1074 C1075 1.349 . S
C1074 C1076 1.327 . S
C1074 H1099 0.950 . S
C1075 C1074 1.349 . S
C1075 C1091 1.349 . S
C1076 C1074 1.327 . S
C1076 C1095 1.429 . S
C1076 H1100 0.950 . S
C1077 C1094 1.574 . S
C1077 C1096 1.368 . S
C1077 H1101 0.949 . S
H1078 C1082 0.949 . S
C1079 C1080 1.349 . S
C1079 C1081 1.327 . S
C1079 H1102 0.950 . S
C1080 C1079 1.349 . S
C1080 C1092 1.349 . S
C1081 C1079 1.327 . S
C1081 C1097 1.429 . S
C1081 H1103 0.950 . S
C1082 H1078 0.949 . S
C1082 C1090 1.574 . S
C1082 C1098 1.368 . S
H1083 C1091 0.950 . S
H1084 C1089 0.950 . S
H1085 C1090 0.949 . S
H1086 C1092 0.950 . S
H1087 C1093 0.950 . S
H1088 C1094 0.949 . S
C1089 H1084 0.950 . S
C1089 C1091 1.327 . S
C1089 C1095 1.429 . S
C1090 C1082 1.574 . S
C1090 H1085 0.949 . S
C1090 C1096 1.368 . S
C1091 C1075 1.349 . S
C1091 H1083 0.950 . S
C1091 C1089 1.327 . S
C1092 C1080 1.349 . S
C1092 H1086 0.950 . S
C1092 C1093 1.327 . S
C1093 H1087 0.950 . S
C1093 C1092 1.327 . S
C1093 C1097 1.429 . S
C1094 C1077 1.574 . S
C1094 H1088 0.949 . S
C1094 C1098 1.368 . S
C1095 C1076 1.429 . S
C1095 C1089 1.429 . S
C1095 C1096 1.523 . S
C1096 C1077 1.368 . S
C1096 C1090 1.368 . S
C1096 C1095 1.523 . S
C1097 C1081 1.429 . S
C1097 C1093 1.429 . S
C1097 C1098 1.523 . S
C1098 C1082 1.368 . S
C1098 C1094 1.368 . S
C1098 C1097 1.523 . S
H1099 C1074 0.950 . S
H1100 C1076 0.950 . S
H1101 C1077 0.949 . S
H1102 C1079 0.950 . S
H1103 C1081 0.950 . S
C1104 C1105 1.349 . S
C1104 C1106 1.327 . S
C1104 H1129 0.950 . S
C1105 C1104 1.349 . S
C1105 C1121 1.349 . S
C1106 C1104 1.327 . S
C1106 C1125 1.429 . S
C1106 H1130 0.950 . S
C1107 C1124 1.574 . S
C1107 C1126 1.368 . S
C1107 H1131 0.949 . S
H1108 C1112 0.949 . S
C1109 C1110 1.349 . S
C1109 C1111 1.327 . S
C1109 H1132 0.950 . S
C1110 C1109 1.349 . S
C1110 C1122 1.349 . S
C1111 C1109 1.327 . S
C1111 C1127 1.429 . S
C1111 H1133 0.950 . S
C1112 H1108 0.949 . S
C1112 C1120 1.574 . S
C1112 C1128 1.368 . S
H1113 C1121 0.950 . S
H1114 C1119 0.950 . S
H1115 C1120 0.949 . S
H1116 C1122 0.950 . S
H1117 C1123 0.950 . S
H1118 C1124 0.949 . S
C1119 H1114 0.950 . S
C1119 C1121 1.327 . S
C1119 C1125 1.429 . S
C1120 C1112 1.574 . S
C1120 H1115 0.949 . S
C1120 C1126 1.368 . S
C1121 C1105 1.349 . S
C1121 H1113 0.950 . S
C1121 C1119 1.327 . S
C1122 C1110 1.349 . S
C1122 H1116 0.950 . S
C1122 C1123 1.327 . S
C1123 H1117 0.950 . S
C1123 C1122 1.327 . S
C1123 C1127 1.429 . S
C1124 C1107 1.574 . S
C1124 H1118 0.949 . S
C1124 C1128 1.368 . S
C1125 C1106 1.429 . S
C1125 C1119 1.429 . S
C1125 C1126 1.523 . S
C1126 C1107 1.368 . S
C1126 C1120 1.368 . S
C1126 C1125 1.523 . S
C1127 C1111 1.429 . S
C1127 C1123 1.429 . S
C1127 C1128 1.523 . S
C1128 C1112 1.368 . S
C1128 C1124 1.368 . S
C1128 C1127 1.523 . S
H1129 C1104 0.950 . S
H1130 C1106 0.950 . S
H1131 C1107 0.949 . S
H1132 C1109 0.950 . S
H1133 C1111 0.950 . S
C1134 C1135 1.349 . S
C1134 C1136 1.327 . S
C1134 H1159 0.950 . S
C1135 C1134 1.349 . S
C1135 C1151 1.349 . S
C1136 C1134 1.327 . S
C1136 C1155 1.429 . S
C1136 H1160 0.950 . S
C1137 C1154 1.574 . S
C1137 C1156 1.368 . S
C1137 H1161 0.949 . S
H1138 C1142 0.949 . S
C1139 C1140 1.349 . S
C1139 C1141 1.327 . S
C1139 H1162 0.950 . S
C1140 C1139 1.349 . S
C1140 C1152 1.349 . S
C1141 C1139 1.327 . S
C1141 C1157 1.429 . S
C1141 H1163 0.950 . S
C1142 H1138 0.949 . S
C1142 C1150 1.574 . S
C1142 C1158 1.368 . S
H1143 C1151 0.950 . S
H1144 C1149 0.950 . S
H1145 C1150 0.949 . S
H1146 C1152 0.950 . S
H1147 C1153 0.950 . S
H1148 C1154 0.949 . S
C1149 H1144 0.950 . S
C1149 C1151 1.327 . S
C1149 C1155 1.429 . S
C1150 C1142 1.574 . S
C1150 H1145 0.949 . S
C1150 C1156 1.368 . S
C1151 C1135 1.349 . S
C1151 H1143 0.950 . S
C1151 C1149 1.327 . S
C1152 C1140 1.349 . S
C1152 H1146 0.950 . S
C1152 C1153 1.327 . S
C1153 H1147 0.950 . S
C1153 C1152 1.327 . S
C1153 C1157 1.429 . S
C1154 C1137 1.574 . S
C1154 H1148 0.949 . S
C1154 C1158 1.368 . S
C1155 C1136 1.429 . S
C1155 C1149 1.429 . S
C1155 C1156 1.523 . S
C1156 C1137 1.368 . S
C1156 C1150 1.368 . S
C1156 C1155 1.523 . S
C1157 C1141 1.429 . S
C1157 C1153 1.429 . S
C1157 C1158 1.523 . S
C1158 C1142 1.368 . S
C1158 C1154 1.368 . S
C1158 C1157 1.523 . S
H1159 C1134 0.950 . S
H1160 C1136 0.950 . S
H1161 C1137 0.949 . S
H1162 C1139 0.950 . S
H1163 C1141 0.950 . S
C1164 C1165 1.349 . S
C1164 C1166 1.327 . S
C1164 H1189 0.950 . S
C1165 C1164 1.349 . S
C1165 C1181 1.349 . S
C1166 C1164 1.327 . S
C1166 C1185 1.429 . S
C1166 H1190 0.950 . S
C1167 C1184 1.574 . S
C1167 C1186 1.368 . S
C1167 H1191 0.949 . S
H1168 C1172 0.949 . S
C1169 C1170 1.349 . S
C1169 C1171 1.327 . S
C1169 H1192 0.950 . S
C1170 C1169 1.349 . S
C1170 C1182 1.349 . S
C1171 C1169 1.327 . S
C1171 C1187 1.429 . S
C1171 H1193 0.950 . S
C1172 H1168 0.949 . S
C1172 C1180 1.574 . S
C1172 C1188 1.368 . S
H1173 C1181 0.950 . S
H1174 C1179 0.950 . S
H1175 C1180 0.949 . S
H1176 C1182 0.950 . S
H1177 C1183 0.950 . S
H1178 C1184 0.949 . S
C1179 H1174 0.950 . S
C1179 C1181 1.327 . S
C1179 C1185 1.429 . S
C1180 C1172 1.574 . S
C1180 H1175 0.949 . S
C1180 C1186 1.368 . S
C1181 C1165 1.349 . S
C1181 H1173 0.950 . S
C1181 C1179 1.327 . S
C1182 C1170 1.349 . S
C1182 H1176 0.950 . S
C1182 C1183 1.327 . S
C1183 H1177 0.950 . S
C1183 C1182 1.327 . S
C1183 C1187 1.429 . S
C1184 C1167 1.574 . S
C1184 H1178 0.949 . S
C1184 C1188 1.368 . S
C1185 C1166 1.429 . S
C1185 C1179 1.429 . S
C1185 C1186 1.523 . S
C1186 C1167 1.368 . S
C1186 C1180 1.368 . S
C1186 C1185 1.523 . S
C1187 C1171 1.429 . S
C1187 C1183 1.429 . S
C1187 C1188 1.523 . S
C1188 C1172 1.368 . S
C1188 C1184 1.368 . S
C1188 C1187 1.523 . S
H1189 C1164 0.950 . S
H1190 C1166 0.950 . S
H1191 C1167 0.949 . S
H1192 C1169 0.950 . S
H1193 C1171 0.950 . S
C1194 C1195 1.349 . S
C1194 C1196 1.327 . S
C1194 H1219 0.950 . S
C1195 C1194 1.349 . S
C1195 C1211 1.349 . S
C1196 C1194 1.327 . S
C1196 C1215 1.429 . S
C1196 H1220 0.950 . S
C1197 C1214 1.574 . S
C1197 C1216 1.368 . S
C1197 H1221 0.949 . S
H1198 C1202 0.949 . S
C1199 C1200 1.349 . S
C1199 C1201 1.327 . S
C1199 H1222 0.950 . S
C1200 C1199 1.349 . S
C1200 C1212 1.349 . S
C1201 C1199 1.327 . S
C1201 C1217 1.429 . S
C1201 H1223 0.950 . S
C1202 H1198 0.949 . S
C1202 C1210 1.574 . S
C1202 C1218 1.368 . S
H1203 C1211 0.950 . S
H1204 C1209 0.950 . S
H1205 C1210 0.949 . S
H1206 C1212 0.950 . S
H1207 C1213 0.950 . S
H1208 C1214 0.949 . S
C1209 H1204 0.950 . S
C1209 C1211 1.327 . S
C1209 C1215 1.429 . S
C1210 C1202 1.574 . S
C1210 H1205 0.949 . S
C1210 C1216 1.368 . S
C1211 C1195 1.349 . S
C1211 H1203 0.950 . S
C1211 C1209 1.327 . S
C1212 C1200 1.349 . S
C1212 H1206 0.950 . S
C1212 C1213 1.327 . S
C1213 H1207 0.950 . S
C1213 C1212 1.327 . S
C1213 C1217 1.429 . S
C1214 C1197 1.574 . S
C1214 H1208 0.949 . S
C1214 C1218 1.368 . S
C1215 C1196 1.429 . S
C1215 C1209 1.429 . S
C1215 C1216 1.523 . S
C1216 C1197 1.368 . S
C1216 C1210 1.368 . S
C1216 C1215 1.523 . S
C1217 C1201 1.429 . S
C1217 C1213 1.429 . S
C1217 C1218 1.523 . S
C1218 C1202 1.368 . S
C1218 C1214 1.368 . S
C1218 C1217 1.523 . S
H1219 C1194 0.950 . S
H1220 C1196 0.950 . S
H1221 C1197 0.949 . S
H1222 C1199 0.950 . S
H1223 C1201 0.950 . S
C1224 C1225 1.349 . S
C1224 C1226 1.327 . S
C1224 H1249 0.950 . S
C1225 C1224 1.349 . S
C1225 C1241 1.349 . S
C1226 C1224 1.327 . S
C1226 C1245 1.429 . S
C1226 H1250 0.950 . S
C1227 C1244 1.574 . S
C1227 C1246 1.368 . S
C1227 H1251 0.949 . S
H1228 C1232 0.949 . S
C1229 C1230 1.349 . S
C1229 C1231 1.327 . S
C1229 H1252 0.950 . S
C1230 C1229 1.349 . S
C1230 C1242 1.349 . S
C1231 C1229 1.327 . S
C1231 C1247 1.429 . S
C1231 H1253 0.950 . S
C1232 H1228 0.949 . S
C1232 C1240 1.574 . S
C1232 C1248 1.368 . S
H1233 C1241 0.950 . S
H1234 C1239 0.950 . S
H1235 C1240 0.949 . S
H1236 C1242 0.950 . S
H1237 C1243 0.950 . S
H1238 C1244 0.949 . S
C1239 H1234 0.950 . S
C1239 C1241 1.327 . S
C1239 C1245 1.429 . S
C1240 C1232 1.574 . S
C1240 H1235 0.949 . S
C1240 C1246 1.368 . S
C1241 C1225 1.349 . S
C1241 H1233 0.950 . S
C1241 C1239 1.327 . S
C1242 C1230 1.349 . S
C1242 H1236 0.950 . S
C1242 C1243 1.327 . S
C1243 H1237 0.950 . S
C1243 C1242 1.327 . S
C1243 C1247 1.429 . S
C1244 C1227 1.574 . S
C1244 H1238 0.949 . S
C1244 C1248 1.368 . S
C1245 C1226 1.429 . S
C1245 C1239 1.429 . S
C1245 C1246 1.523 . S
C1246 C1227 1.368 . S
C1246 C1240 1.368 . S
C1246 C1245 1.523 . S
C1247 C1231 1.429 . S
C1247 C1243 1.429 . S
C1247 C1248 1.523 . S
C1248 C1232 1.368 . S
C1248 C1244 1.368 . S
C1248 C1247 1.523 . S
H1249 C1224 0.950 . S
H1250 C1226 0.950 . S
H1251 C1227 0.949 . S
H1252 C1229 0.950 . S
H1253 C1231 0.950 . S
C1254 C1255 1.349 . S
C1254 C1256 1.327 . S
C1254 H1279 0.950 . S
C1255 C1254 1.349 . S
C1255 C1271 1.349 . S
C1256 C1254 1.327 . S
C1256 C1275 1.429 . S
C1256 H1280 0.950 . S
C1257 C1274 1.574 . S
C1257 C1276 1.368 . S
C1257 H1281 0.949 . S
H1258 C1262 0.949 . S
C1259 C1260 1.349 . S
C1259 C1261 1.327 . S
C1259 H1282 0.950 . S
C1260 C1259 1.349 . S
C1260 C1272 1.349 . S
C1261 C1259 1.327 . S
C1261 C1277 1.429 . S
C1261 H1283 0.950 . S
C1262 H1258 0.949 . S
C1262 C1270 1.574 . S
C1262 C1278 1.368 . S
H1263 C1271 0.950 . S
H1264 C1269 0.950 . S
H1265 C1270 0.949 . S
H1266 C1272 0.950 . S
H1267 C1273 0.950 . S
H1268 C1274 0.949 . S
C1269 H1264 0.950 . S
C1269 C1271 1.327 . S
C1269 C1275 1.429 . S
C1270 C1262 1.574 . S
C1270 H1265 0.949 . S
C1270 C1276 1.368 . S
C1271 C1255 1.349 . S
C1271 H1263 0.950 . S
C1271 C1269 1.327 . S
C1272 C1260 1.349 . S
C1272 H1266 0.950 . S
C1272 C1273 1.327 . S
C1273 H1267 0.950 . S
C1273 C1272 1.327 . S
C1273 C1277 1.429 . S
C1274 C1257 1.574 . S
C1274 H1268 0.949 . S
C1274 C1278 1.368 . S
C1275 C1256 1.429 . S
C1275 C1269 1.429 . S
C1275 C1276 1.523 . S
C1276 C1257 1.368 . S
C1276 C1270 1.368 . S
C1276 C1275 1.523 . S
C1277 C1261 1.429 . S
C1277 C1273 1.429 . S
C1277 C1278 1.523 . S
C1278 C1262 1.368 . S
C1278 C1274 1.368 . S
C1278 C1277 1.523 . S
H1279 C1254 0.950 . S
H1280 C1256 0.950 . S
H1281 C1257 0.949 . S
H1282 C1259 0.950 . S
H1283 C1261 0.950 . S
C1284 C1285 1.349 . S
C1284 C1286 1.327 . S
C1284 H1309 0.950 . S
C1285 C1284 1.349 . S
C1285 C1301 1.349 . S
C1286 C1284 1.327 . S
C1286 C1305 1.429 . S
C1286 H1310 0.950 . S
C1287 C1304 1.574 . S
C1287 C1306 1.368 . S
C1287 H1311 0.949 . S
H1288 C1292 0.949 . S
C1289 C1290 1.349 . S
C1289 C1291 1.327 . S
C1289 H1312 0.950 . S
C1290 C1289 1.349 . S
C1290 C1302 1.349 . S
C1291 C1289 1.327 . S
C1291 C1307 1.429 . S
C1291 H1313 0.950 . S
C1292 H1288 0.949 . S
C1292 C1300 1.574 . S
C1292 C1308 1.368 . S
H1293 C1301 0.950 . S
H1294 C1299 0.950 . S
H1295 C1300 0.949 . S
H1296 C1302 0.950 . S
H1297 C1303 0.950 . S
H1298 C1304 0.949 . S
C1299 H1294 0.950 . S
C1299 C1301 1.327 . S
C1299 C1305 1.429 . S
C1300 C1292 1.574 . S
C1300 H1295 0.949 . S
C1300 C1306 1.368 . S
C1301 C1285 1.349 . S
C1301 H1293 0.950 . S
C1301 C1299 1.327 . S
C1302 C1290 1.349 . S
C1302 H1296 0.950 . S
C1302 C1303 1.327 . S
C1303 H1297 0.950 . S
C1303 C1302 1.327 . S
C1303 C1307 1.429 . S
C1304 C1287 1.574 . S
C1304 H1298 0.949 . S
C1304 C1308 1.368 . S
C1305 C1286 1.429 . S
C1305 C1299 1.429 . S
C1305 C1306 1.523 . S
C1306 C1287 1.368 . S
C1306 C1300 1.368 . S
C1306 C1305 1.523 . S
C1307 C1291 1.429 . S
C1307 C1303 1.429 . S
C1307 C1308 1.523 . S
C1308 C1292 1.368 . S
C1308 C1304 1.368 . S
C1308 C1307 1.523 . S
H1309 C1284 0.950 . S
H1310 C1286 0.950 . S
H1311 C1287 0.949 . S
H1312 C1289 0.950 . S
H1313 C1291 0.950 . S
C1314 C1315 1.349 . S
C1314 C1316 1.327 . S
C1314 H1339 0.950 . S
C1315 C1314 1.349 . S
C1315 C1331 1.349 . S
C1316 C1314 1.327 . S
C1316 C1335 1.429 . S
C1316 H1340 0.950 . S
C1317 C1334 1.574 . S
C1317 C1336 1.368 . S
C1317 H1341 0.949 . S
H1318 C1322 0.949 . S
C1319 C1320 1.349 . S
C1319 C1321 1.327 . S
C1319 H1342 0.950 . S
C1320 C1319 1.349 . S
C1320 C1332 1.349 . S
C1321 C1319 1.327 . S
C1321 C1337 1.429 . S
C1321 H1343 0.950 . S
C1322 H1318 0.949 . S
C1322 C1330 1.574 . S
C1322 C1338 1.368 . S
H1323 C1331 0.950 . S
H1324 C1329 0.950 . S
H1325 C1330 0.949 . S
H1326 C1332 0.950 . S
H1327 C1333 0.950 . S
H1328 C1334 0.949 . S
C1329 H1324 0.950 . S
C1329 C1331 1.327 . S
C1329 C1335 1.429 . S
C1330 C1322 1.574 . S
C1330 H1325 0.949 . S
C1330 C1336 1.368 . S
C1331 C1315 1.349 . S
C1331 H1323 0.950 . S
C1331 C1329 1.327 . S
C1332 C1320 1.349 . S
C1332 H1326 0.950 . S
C1332 C1333 1.327 . S
C1333 H1327 0.950 . S
C1333 C1332 1.327 . S
C1333 C1337 1.429 . S
C1334 C1317 1.574 . S
C1334 H1328 0.949 . S
C1334 C1338 1.368 . S
C1335 C1316 1.429 . S
C1335 C1329 1.429 . S
C1335 C1336 1.523 . S
C1336 C1317 1.368 . S
C1336 C1330 1.368 . S
C1336 C1335 1.523 . S
C1337 C1321 1.429 . S
C1337 C1333 1.429 . S
C1337 C1338 1.523 . S
C1338 C1322 1.368 . S
C1338 C1334 1.368 . S
C1338 C1337 1.523 . S
H1339 C1314 0.950 . S
H1340 C1316 0.950 . S
H1341 C1317 0.949 . S
H1342 C1319 0.950 . S
H1343 C1321 0.950 . S
C1344 C1345 1.349 . S
C1344 C1346 1.327 . S
C1344 H1369 0.950 . S
C1345 C1344 1.349 . S
C1345 C1361 1.349 . S
C1346 C1344 1.327 . S
C1346 C1365 1.429 . S
C1346 H1370 0.950 . S
C1347 C1364 1.574 . S
C1347 C1366 1.368 . S
C1347 H1371 0.949 . S
H1348 C1352 0.949 . S
C1349 C1350 1.349 . S
C1349 C1351 1.327 . S
C1349 H1372 0.950 . S
C1350 C1349 1.349 . S
C1350 C1362 1.349 . S
C1351 C1349 1.327 . S
C1351 C1367 1.429 . S
C1351 H1373 0.950 . S
C1352 H1348 0.949 . S
C1352 C1360 1.574 . S
C1352 C1368 1.368 . S
H1353 C1361 0.950 . S
H1354 C1359 0.950 . S
H1355 C1360 0.949 . S
H1356 C1362 0.950 . S
H1357 C1363 0.950 . S
H1358 C1364 0.949 . S
C1359 H1354 0.950 . S
C1359 C1361 1.327 . S
C1359 C1365 1.429 . S
C1360 C1352 1.574 . S
C1360 H1355 0.949 . S
C1360 C1366 1.368 . S
C1361 C1345 1.349 . S
C1361 H1353 0.950 . S
C1361 C1359 1.327 . S
C1362 C1350 1.349 . S
C1362 H1356 0.950 . S
C1362 C1363 1.327 . S
C1363 H1357 0.950 . S
C1363 C1362 1.327 . S
C1363 C1367 1.429 . S
C1364 C1347 1.574 . S
C1364 H1358 0.949 . S
C1364 C1368 1.368 . S
C1365 C1346 1.429 . S
C1365 C1359 1.429 . S
C1365 C1366 1.523 . S
C1366 C1347 1.368 . S
C1366 C1360 1.368 . S
C1366 C1365 1.523 . S
C1367 C1351 1.429 . S
C1367 C1363 1.429 . S
C1367 C1368 1.523 . S
C1368 C1352 1.368 . S
C1368 C1364 1.368 . S
C1368 C1367 1.523 . S
H1369 C1344 0.950 . S
H1370 C1346 0.950 . S
H1371 C1347 0.949 . S
H1372 C1349 0.950 . S
H1373 C1351 0.950 . S
C1374 C1375 1.349 . S
C1374 C1376 1.327 . S
C1374 H1399 0.950 . S
C1375 C1374 1.349 . S
C1375 C1391 1.349 . S
C1376 C1374 1.327 . S
C1376 C1395 1.429 . S
C1376 H1400 0.950 . S
C1377 C1394 1.574 . S
C1377 C1396 1.368 . S
C1377 H1401 0.949 . S
H1378 C1382 0.949 . S
C1379 C1380 1.349 . S
C1379 C1381 1.327 . S
C1379 H1402 0.950 . S
C1380 C1379 1.349 . S
C1380 C1392 1.349 . S
C1381 C1379 1.327 . S
C1381 C1397 1.429 . S
C1381 H1403 0.950 . S
C1382 H1378 0.949 . S
C1382 C1390 1.574 . S
C1382 C1398 1.368 . S
H1383 C1391 0.950 . S
H1384 C1389 0.950 . S
H1385 C1390 0.949 . S
H1386 C1392 0.950 . S
H1387 C1393 0.950 . S
H1388 C1394 0.949 . S
C1389 H1384 0.950 . S
C1389 C1391 1.327 . S
C1389 C1395 1.429 . S
C1390 C1382 1.574 . S
C1390 H1385 0.949 . S
C1390 C1396 1.368 . S
C1391 C1375 1.349 . S
C1391 H1383 0.950 . S
C1391 C1389 1.327 . S
C1392 C1380 1.349 . S
C1392 H1386 0.950 . S
C1392 C1393 1.327 . S
C1393 H1387 0.950 . S
C1393 C1392 1.327 . S
C1393 C1397 1.429 . S
C1394 C1377 1.574 . S
C1394 H1388 0.949 . S
C1394 C1398 1.368 . S
C1395 C1376 1.429 . S
C1395 C1389 1.429 . S
C1395 C1396 1.523 . S
C1396 C1377 1.368 . S
C1396 C1390 1.368 . S
C1396 C1395 1.523 . S
C1397 C1381 1.429 . S
C1397 C1393 1.429 . S
C1397 C1398 1.523 . S
C1398 C1382 1.368 . S
C1398 C1394 1.368 . S
C1398 C1397 1.523 . S
H1399 C1374 0.950 . S
H1400 C1376 0.950 . S
H1401 C1377 0.949 . S
H1402 C1379 0.950 . S
H1403 C1381 0.950 . S
C1404 C1405 1.349 . S
C1404 C1406 1.327 . S
C1404 H1429 0.950 . S
C1405 C1404 1.349 . S
C1405 C1421 1.349 . S
C1406 C1404 1.327 . S
C1406 C1425 1.429 . S
C1406 H1430 0.950 . S
C1407 C1424 1.574 . S
C1407 C1426 1.368 . S
C1407 H1431 0.949 . S
H1408 C1412 0.949 . S
C1409 C1410 1.349 . S
C1409 C1411 1.327 . S
C1409 H1432 0.950 . S
C1410 C1409 1.349 . S
C1410 C1422 1.349 . S
C1411 C1409 1.327 . S
C1411 C1427 1.429 . S
C1411 H1433 0.950 . S
C1412 H1408 0.949 . S
C1412 C1420 1.574 . S
C1412 C1428 1.368 . S
H1413 C1421 0.950 . S
H1414 C1419 0.950 . S
H1415 C1420 0.949 . S
H1416 C1422 0.950 . S
H1417 C1423 0.950 . S
H1418 C1424 0.949 . S
C1419 H1414 0.950 . S
C1419 C1421 1.327 . S
C1419 C1425 1.429 . S
C1420 C1412 1.574 . S
C1420 H1415 0.949 . S
C1420 C1426 1.368 . S
C1421 C1405 1.349 . S
C1421 H1413 0.950 . S
C1421 C1419 1.327 . S
C1422 C1410 1.349 . S
C1422 H1416 0.950 . S
C1422 C1423 1.327 . S
C1423 H1417 0.950 . S
C1423 C1422 1.327 . S
C1423 C1427 1.429 . S
C1424 C1407 1.574 . S
C1424 H1418 0.949 . S
C1424 C1428 1.368 . S
C1425 C1406 1.429 . S
C1425 C1419 1.429 . S
C1425 C1426 1.523 . S
C1426 C1407 1.368 . S
C1426 C1420 1.368 . S
C1426 C1425 1.523 . S
C1427 C1411 1.429 . S
C1427 C1423 1.429 . S
C1427 C1428 1.523 . S
C1428 C1412 1.368 . S
C1428 C1424 1.368 . S
C1428 C1427 1.523 . S
H1429 C1404 0.950 . S
H1430 C1406 0.950 . S
H1431 C1407 0.949 . S
H1432 C1409 0.950 . S
H1433 C1411 0.950 . S
C1434 C1435 1.349 . S
C1434 C1436 1.327 . S
C1434 H1459 0.950 . S
C1435 C1434 1.349 . S
C1435 C1451 1.349 . S
C1436 C1434 1.327 . S
C1436 C1455 1.429 . S
C1436 H1460 0.950 . S
C1437 C1454 1.574 . S
C1437 C1456 1.368 . S
C1437 H1461 0.949 . S
H1438 C1442 0.949 . S
C1439 C1440 1.349 . S
C1439 C1441 1.327 . S
C1439 H1462 0.950 . S
C1440 C1439 1.349 . S
C1440 C1452 1.349 . S
C1441 C1439 1.327 . S
C1441 C1457 1.429 . S
C1441 H1463 0.950 . S
C1442 H1438 0.949 . S
C1442 C1450 1.574 . S
C1442 C1458 1.368 . S
H1443 C1451 0.950 . S
H1444 C1449 0.950 . S
H1445 C1450 0.949 . S
H1446 C1452 0.950 . S
H1447 C1453 0.950 . S
H1448 C1454 0.949 . S
C1449 H1444 0.950 . S
C1449 C1451 1.327 . S
C1449 C1455 1.429 . S
C1450 C1442 1.574 . S
C1450 H1445 0.949 . S
C1450 C1456 1.368 . S
C1451 C1435 1.349 . S
C1451 H1443 0.950 . S
C1451 C1449 1.327 . S
C1452 C1440 1.349 . S
C1452 H1446 0.950 . S
C1452 C1453 1.327 . S
C1453 H1447 0.950 . S
C1453 C1452 1.327 . S
C1453 C1457 1.429 . S
C1454 C1437 1.574 . S
C1454 H1448 0.949 . S
C1454 C1458 1.368 . S
C1455 C1436 1.429 . S
C1455 C1449 1.429 . S
C1455 C1456 1.523 . S
C1456 C1437 1.368 . S
C1456 C1450 1.368 . S
C1456 C1455 1.523 . S
C1457 C1441 1.429 . S
C1457 C1453 1.429 . S
C1457 C1458 1.523 . S
C1458 C1442 1.368 . S
C1458 C1454 1.368 . S
C1458 C1457 1.523 . S
H1459 C1434 0.950 . S
H1460 C1436 0.950 . S
H1461 C1437 0.949 . S
H1462 C1439 0.950 . S
H1463 C1441 0.950 . S
C1464 C1465 1.349 . S
C1464 C1466 1.327 . S
C1464 H1489 0.950 . S
C1465 C1464 1.349 . S
C1465 C1481 1.349 . S
C1466 C1464 1.327 . S
C1466 C1485 1.429 . S
C1466 H1490 0.950 . S
C1467 C1484 1.574 . S
C1467 C1486 1.368 . S
C1467 H1491 0.949 . S
H1468 C1472 0.949 . S
C1469 C1470 1.349 . S
C1469 C1471 1.327 . S
C1469 H1492 0.950 . S
C1470 C1469 1.349 . S
C1470 C1482 1.349 . S
C1471 C1469 1.327 . S
C1471 C1487 1.429 . S
C1471 H1493 0.950 . S
C1472 H1468 0.949 . S
C1472 C1480 1.574 . S
C1472 C1488 1.368 . S
H1473 C1481 0.950 . S
H1474 C1479 0.950 . S
H1475 C1480 0.949 . S
H1476 C1482 0.950 . S
H1477 C1483 0.950 . S
H1478 C1484 0.949 . S
C1479 H1474 0.950 . S
C1479 C1481 1.327 . S
C1479 C1485 1.429 . S
C1480 C1472 1.574 . S
C1480 H1475 0.949 . S
C1480 C1486 1.368 . S
C1481 C1465 1.349 . S
C1481 H1473 0.950 . S
C1481 C1479 1.327 . S
C1482 C1470 1.349 . S
C1482 H1476 0.950 . S
C1482 C1483 1.327 . S
C1483 H1477 0.950 . S
C1483 C1482 1.327 . S
C1483 C1487 1.429 . S
C1484 C1467 1.574 . S
C1484 H1478 0.949 . S
C1484 C1488 1.368 . S
C1485 C1466 1.429 . S
C1485 C1479 1.429 . S
C1485 C1486 1.523 . S
C1486 C1467 1.368 . S
C1486 C1480 1.368 . S
C1486 C1485 1.523 . S
C1487 C1471 1.429 . S
C1487 C1483 1.429 . S
C1487 C1488 1.523 . S
C1488 C1472 1.368 . S
C1488 C1484 1.368 . S
C1488 C1487 1.523 . S
H1489 C1464 0.950 . S
H1490 C1466 0.950 . S
H1491 C1467 0.949 . S
H1492 C1469 0.950 . S
H1493 C1471 0.950 . S
C1494 C1495 1.349 . S
C1494 C1496 1.327 . S
C1494 H1519 0.950 . S
C1495 C1494 1.349 . S
C1495 C1511 1.349 . S
C1496 C1494 1.327 . S
C1496 C1515 1.429 . S
C1496 H1520 0.950 . S
C1497 C1514 1.574 . S
C1497 C1516 1.368 . S
C1497 H1521 0.949 . S
H1498 C1502 0.949 . S
C1499 C1500 1.349 . S
C1499 C1501 1.327 . S
C1499 H1522 0.950 . S
C1500 C1499 1.349 . S
C1500 C1512 1.349 . S
C1501 C1499 1.327 . S
C1501 C1517 1.429 . S
C1501 H1523 0.950 . S
C1502 H1498 0.949 . S
C1502 C1510 1.574 . S
C1502 C1518 1.368 . S
H1503 C1511 0.950 . S
H1504 C1509 0.950 . S
H1505 C1510 0.949 . S
H1506 C1512 0.950 . S
H1507 C1513 0.950 . S
H1508 C1514 0.949 . S
C1509 H1504 0.950 . S
C1509 C1511 1.327 . S
C1509 C1515 1.429 . S
C1510 C1502 1.574 . S
C1510 H1505 0.949 . S
C1510 C1516 1.368 . S
C1511 C1495 1.349 . S
C1511 H1503 0.950 . S
C1511 C1509 1.327 . S
C1512 C1500 1.349 . S
C1512 H1506 0.950 . S
C1512 C1513 1.327 . S
C1513 H1507 0.950 . S
C1513 C1512 1.327 . S
C1513 C1517 1.429 . S
C1514 C1497 1.574 . S
C1514 H1508 0.949 . S
C1514 C1518 1.368 . S
C1515 C1496 1.429 . S
C1515 C1509 1.429 . S
C1515 C1516 1.523 . S
C1516 C1497 1.368 . S
C1516 C1510 1.368 . S
C1516 C1515 1.523 . S
C1517 C1501 1.429 . S
C1517 C1513 1.429 . S
C1517 C1518 1.523 . S
C1518 C1502 1.368 . S
C1518 C1514 1.368 . S
C1518 C1517 1.523 . S
H1519 C1494 0.950 . S
H1520 C1496 0.950 . S
H1521 C1497 0.949 . S
H1522 C1499 0.950 . S
H1523 C1501 0.950 . S
C1524 C1525 1.349 . S
C1524 C1526 1.327 . S
C1524 H1549 0.950 . S
C1525 C1524 1.349 . S
C1525 C1541 1.349 . S
C1526 C1524 1.327 . S
C1526 C1545 1.429 . S
C1526 H1550 0.950 . S
C1527 C1544 1.574 . S
C1527 C1546 1.368 . S
C1527 H1551 0.949 . S
H1528 C1532 0.949 . S
C1529 C1530 1.349 . S
C1529 C1531 1.327 . S
C1529 H1552 0.950 . S
C1530 C1529 1.349 . S
C1530 C1542 1.349 . S
C1531 C1529 1.327 . S
C1531 C1547 1.429 . S
C1531 H1553 0.950 . S
C1532 H1528 0.949 . S
C1532 C1540 1.574 . S
C1532 C1548 1.368 . S
H1533 C1541 0.950 . S
H1534 C1539 0.950 . S
H1535 C1540 0.949 . S
H1536 C1542 0.950 . S
H1537 C1543 0.950 . S
H1538 C1544 0.949 . S
C1539 H1534 0.950 . S
C1539 C1541 1.327 . S
C1539 C1545 1.429 . S
C1540 C1532 1.574 . S
C1540 H1535 0.949 . S
C1540 C1546 1.368 . S
C1541 C1525 1.349 . S
C1541 H1533 0.950 . S
C1541 C1539 1.327 . S
C1542 C1530 1.349 . S
C1542 H1536 0.950 . S
C1542 C1543 1.327 . S
C1543 H1537 0.950 . S
C1543 C1542 1.327 . S
C1543 C1547 1.429 . S
C1544 C1527 1.574 . S
C1544 H1538 0.949 . S
C1544 C1548 1.368 . S
C1545 C1526 1.429 . S
C1545 C1539 1.429 . S
C1545 C1546 1.523 . S
C1546 C1527 1.368 . S
C1546 C1540 1.368 . S
C1546 C1545 1.523 . S
C1547 C1531 1.429 . S
C1547 C1543 1.429 . S
C1547 C1548 1.523 . S
C1548 C1532 1.368 . S
C1548 C1544 1.368 . S
C1548 C1547 1.523 . S
H1549 C1524 0.950 . S
H1550 C1526 0.950 . S
H1551 C1527 0.949 . S
H1552 C1529 0.950 . S
H1553 C1531 0.950 . S
C1554 C1555 1.349 . S
C1554 C1556 1.327 . S
C1554 H1579 0.950 . S
C1555 C1554 1.349 . S
C1555 C1571 1.349 . S
C1556 C1554 1.327 . S
C1556 C1575 1.429 . S
C1556 H1580 0.950 . S
C1557 C1574 1.574 . S
C1557 C1576 1.368 . S
C1557 H1581 0.949 . S
H1558 C1562 0.949 . S
C1559 C1560 1.349 . S
C1559 C1561 1.327 . S
C1559 H1582 0.950 . S
C1560 C1559 1.349 . S
C1560 C1572 1.349 . S
C1561 C1559 1.327 . S
C1561 C1577 1.429 . S
C1561 H1583 0.950 . S
C1562 H1558 0.949 . S
C1562 C1570 1.574 . S
C1562 C1578 1.368 . S
H1563 C1571 0.950 . S
H1564 C1569 0.950 . S
H1565 C1570 0.949 . S
H1566 C1572 0.950 . S
H1567 C1573 0.950 . S
H1568 C1574 0.949 . S
C1569 H1564 0.950 . S
C1569 C1571 1.327 . S
C1569 C1575 1.429 . S
C1570 C1562 1.574 . S
C1570 H1565 0.949 . S
C1570 C1576 1.368 . S
C1571 C1555 1.349 . S
C1571 H1563 0.950 . S
C1571 C1569 1.327 . S
C1572 C1560 1.349 . S
C1572 H1566 0.950 . S
C1572 C1573 1.327 . S
C1573 H1567 0.950 . S
C1573 C1572 1.327 . S
C1573 C1577 1.429 . S
C1574 C1557 1.574 . S
C1574 H1568 0.949 . S
C1574 C1578 1.368 . S
C1575 C1556 1.429 . S
C1575 C1569 1.429 . S
C1575 C1576 1.523 . S
C1576 C1557 1.368 . S
C1576 C1570 1.368 . S
C1576 C1575 1.523 . S
C1577 C1561 1.429 . S
C1577 C1573 1.429 . S
C1577 C1578 1.523 . S
C1578 C1562 1.368 . S
C1578 C1574 1.368 . S
C1578 C1577 1.523 . S
H1579 C1554 0.950 . S
H1580 C1556 0.950 . S
H1581 C1557 0.949 . S
H1582 C1559 0.950 . S
H1583 C1561 0.950 . S
C1584 C1585 1.349 . S
C1584 C1586 1.327 . S
C1584 H1609 0.950 . S
C1585 C1584 1.349 . S
C1585 C1601 1.349 . S
C1586 C1584 1.327 . S
C1586 C1605 1.429 . S
C1586 H1610 0.950 . S
C1587 C1604 1.574 . S
C1587 C1606 1.368 . S
C1587 H1611 0.949 . S
H1588 C1592 0.949 . S
C1589 C1590 1.349 . S
C1589 C1591 1.327 . S
C1589 H1612 0.950 . S
C1590 C1589 1.349 . S
C1590 C1602 1.349 . S
C1591 C1589 1.327 . S
C1591 C1607 1.429 . S
C1591 H1613 0.950 . S
C1592 H1588 0.949 . S
C1592 C1600 1.574 . S
C1592 C1608 1.368 . S
H1593 C1601 0.950 . S
H1594 C1599 0.950 . S
H1595 C1600 0.949 . S
H1596 C1602 0.950 . S
H1597 C1603 0.950 . S
H1598 C1604 0.949 . S
C1599 H1594 0.950 . S
C1599 C1601 1.327 . S
C1599 C1605 1.429 . S
C1600 C1592 1.574 . S
C1600 H1595 0.949 . S
C1600 C1606 1.368 . S
C1601 C1585 1.349 . S
C1601 H1593 0.950 . S
C1601 C1599 1.327 . S
C1602 C1590 1.349 . S
C1602 H1596 0.950 . S
C1602 C1603 1.327 . S
C1603 H1597 0.950 . S
C1603 C1602 1.327 . S
C1603 C1607 1.429 . S
C1604 C1587 1.574 . S
C1604 H1598 0.949 . S
C1604 C1608 1.368 . S
C1605 C1586 1.429 . S
C1605 C1599 1.429 . S
C1605 C1606 1.523 . S
C1606 C1587 1.368 . S
C1606 C1600 1.368 . S
C1606 C1605 1.523 . S
C1607 C1591 1.429 . S
C1607 C1603 1.429 . S
C1607 C1608 1.523 . S
C1608 C1592 1.368 . S
C1608 C1604 1.368 . S
C1608 C1607 1.523 . S
H1609 C1584 0.950 . S
H1610 C1586 0.950 . S
H1611 C1587 0.949 . S
H1612 C1589 0.950 . S
H1613 C1591 0.950 . S
C1614 C1615 1.349 . S
C1614 C1616 1.327 . S
C1614 H1639 0.950 . S
C1615 C1614 1.349 . S
C1615 C1631 1.349 . S
C1616 C1614 1.327 . S
C1616 C1635 1.429 . S
C1616 H1640 0.950 . S
C1617 C1634 1.574 . S
C1617 C1636 1.368 . S
C1617 H1641 0.949 . S
H1618 C1622 0.949 . S
C1619 C1620 1.349 . S
C1619 C1621 1.327 . S
C1619 H1642 0.950 . S
C1620 C1619 1.349 . S
C1620 C1632 1.349 . S
C1621 C1619 1.327 . S
C1621 C1637 1.429 . S
C1621 H1643 0.950 . S
C1622 H1618 0.949 . S
C1622 C1630 1.574 . S
C1622 C1638 1.368 . S
H1623 C1631 0.950 . S
H1624 C1629 0.950 . S
H1625 C1630 0.949 . S
H1626 C1632 0.950 . S
H1627 C1633 0.950 . S
H1628 C1634 0.949 . S
C1629 H1624 0.950 . S
C1629 C1631 1.327 . S
C1629 C1635 1.429 . S
C1630 C1622 1.574 . S
C1630 H1625 0.949 . S
C1630 C1636 1.368 . S
C1631 C1615 1.349 . S
C1631 H1623 0.950 . S
C1631 C1629 1.327 . S
C1632 C1620 1.349 . S
C1632 H1626 0.950 . S
C1632 C1633 1.327 . S
C1633 H1627 0.950 . S
C1633 C1632 1.327 . S
C1633 C1637 1.429 . S
C1634 C1617 1.574 . S
C1634 H1628 0.949 . S
C1634 C1638 1.368 . S
C1635 C1616 1.429 . S
C1635 C1629 1.429 . S
C1635 C1636 1.523 . S
C1636 C1617 1.368 . S
C1636 C1630 1.368 . S
C1636 C1635 1.523 . S
C1637 C1621 1.429 . S
C1637 C1633 1.429 . S
C1637 C1638 1.523 . S
C1638 C1622 1.368 . S
C1638 C1634 1.368 . S
C1638 C1637 1.523 . S
H1639 C1614 0.950 . S
H1640 C1616 0.950 . S
H1641 C1617 0.949 . S
H1642 C1619 0.950 . S
H1643 C1621 0.950 . S
C1644 C1645 1.349 . S
C1644 C1646 1.327 . S
C1644 H1669 0.950 . S
C1645 C1644 1.349 . S
C1645 C1661 1.349 . S
C1646 C1644 1.327 . S
C1646 C1665 1.429 . S
C1646 H1670 0.950 . S
C1647 C1664 1.574 . S
C1647 C1666 1.368 . S
C1647 H1671 0.949 . S
H1648 C1652 0.949 . S
C1649 C1650 1.349 . S
C1649 C1651 1.327 . S
C1649 H1672 0.950 . S
C1650 C1649 1.349 . S
C1650 C1662 1.349 . S
C1651 C1649 1.327 . S
C1651 C1667 1.429 . S
C1651 H1673 0.950 . S
C1652 H1648 0.949 . S
C1652 C1660 1.574 . S
C1652 C1668 1.368 . S
H1653 C1661 0.950 . S
H1654 C1659 0.950 . S
H1655 C1660 0.949 . S
H1656 C1662 0.950 . S
H1657 C1663 0.950 . S
H1658 C1664 0.949 . S
C1659 H1654 0.950 . S
C1659 C1661 1.327 . S
C1659 C1665 1.429 . S
C1660 C1652 1.574 . S
C1660 H1655 0.949 . S
C1660 C1666 1.368 . S
C1661 C1645 1.349 . S
C1661 H1653 0.950 . S
C1661 C1659 1.327 . S
C1662 C1650 1.349 . S
C1662 H1656 0.950 . S
C1662 C1663 1.327 . S
C1663 H1657 0.950 . S
C1663 C1662 1.327 . S
C1663 C1667 1.429 . S
C1664 C1647 1.574 . S
C1664 H1658 0.949 . S
C1664 C1668 1.368 . S
C1665 C1646 1.429 . S
C1665 C1659 1.429 . S
C1665 C1666 1.523 . S
C1666 C1647 1.368 . S
C1666 C1660 1.368 . S
C1666 C1665 1.523 . S
C1667 C1651 1.429 . S
C1667 C1663 1.429 . S
C1667 C1668 1.523 . S
C1668 C1652 1.368 . S
C1668 C1664 1.368 . S
C1668 C1667 1.523 . S
H1669 C1644 0.950 . S
H1670 C1646 0.950 . S
H1671 C1647 0.949 . S
H1672 C1649 0.950 . S
H1673 C1651 0.950 . S
C1674 C1675 1.349 . S
C1674 C1676 1.327 . S
C1674 H1699 0.950 . S
C1675 C1674 1.349 . S
C1675 C1691 1.349 . S
C1676 C1674 1.327 . S
C1676 C1695 1.429 . S
C1676 H1700 0.950 . S
C1677 C1694 1.574 . S
C1677 C1696 1.368 . S
C1677 H1701 0.949 . S
H1678 C1682 0.949 . S
C1679 C1680 1.349 . S
C1679 C1681 1.327 . S
C1679 H1702 0.950 . S
C1680 C1679 1.349 . S
C1680 C1692 1.349 . S
C1681 C1679 1.327 . S
C1681 C1697 1.429 . S
C1681 H1703 0.950 . S
C1682 H1678 0.949 . S
C1682 C1690 1.574 . S
C1682 C1698 1.368 . S
H1683 C1691 0.950 . S
H1684 C1689 0.950 . S
H1685 C1690 0.949 . S
H1686 C1692 0.950 . S
H1687 C1693 0.950 . S
H1688 C1694 0.949 . S
C1689 H1684 0.950 . S
C1689 C1691 1.327 . S
C1689 C1695 1.429 . S
C1690 C1682 1.574 . S
C1690 H1685 0.949 . S
C1690 C1696 1.368 . S
C1691 C1675 1.349 . S
C1691 H1683 0.950 . S
C1691 C1689 1.327 . S
C1692 C1680 1.349 . S
C1692 H1686 0.950 . S
C1692 C1693 1.327 . S
C1693 H1687 0.950 . S
C1693 C1692 1.327 . S
C1693 C1697 1.429 . S
C1694 C1677 1.574 . S
C1694 H1688 0.949 . S
C1694 C1698 1.368 . S
C1695 C1676 1.429 . S
C1695 C1689 1.429 . S
C1695 C1696 1.523 . S
C1696 C1677 1.368 . S
C1696 C1690 1.368 . S
C1696 C1695 1.523 . S
C1697 C1681 1.429 . S
C1697 C1693 1.429 . S
C1697 C1698 1.523 . S
C1698 C1682 1.368 . S
C1698 C1694 1.368 . S
C1698 C1697 1.523 . S
H1699 C1674 0.950 . S
H1700 C1676 0.950 . S
H1701 C1677 0.949 . S
H1702 C1679 0.950 . S
H1703 C1681 0.950 . S
C1704 C1705 1.349 . S
C1704 C1706 1.327 . S
C1704 H1729 0.950 . S
C1705 C1704 1.349 . S
C1705 C1721 1.349 . S
C1706 C1704 1.327 . S
C1706 C1725 1.429 . S
C1706 H1730 0.950 . S
C1707 C1724 1.574 . S
C1707 C1726 1.368 . S
C1707 H1731 0.949 . S
H1708 C1712 0.949 . S
C1709 C1710 1.349 . S
C1709 C1711 1.327 . S
C1709 H1732 0.950 . S
C1710 C1709 1.349 . S
C1710 C1722 1.349 . S
C1711 C1709 1.327 . S
C1711 C1727 1.429 . S
C1711 H1733 0.950 . S
C1712 H1708 0.949 . S
C1712 C1720 1.574 . S
C1712 C1728 1.368 . S
H1713 C1721 0.950 . S
H1714 C1719 0.950 . S
H1715 C1720 0.949 . S
H1716 C1722 0.950 . S
H1717 C1723 0.950 . S
H1718 C1724 0.949 . S
C1719 H1714 0.950 . S
C1719 C1721 1.327 . S
C1719 C1725 1.429 . S
C1720 C1712 1.574 . S
C1720 H1715 0.949 . S
C1720 C1726 1.368 . S
C1721 C1705 1.349 . S
C1721 H1713 0.950 . S
C1721 C1719 1.327 . S
C1722 C1710 1.349 . S
C1722 H1716 0.950 . S
C1722 C1723 1.327 . S
C1723 H1717 0.950 . S
C1723 C1722 1.327 . S
C1723 C1727 1.429 . S
C1724 C1707 1.574 . S
C1724 H1718 0.949 . S
C1724 C1728 1.368 . S
C1725 C1706 1.429 . S
C1725 C1719 1.429 . S
C1725 C1726 1.523 . S
C1726 C1707 1.368 . S
C1726 C1720 1.368 . S
C1726 C1725 1.523 . S
C1727 C1711 1.429 . S
C1727 C1723 1.429 . S
C1727 C1728 1.523 . S
C1728 C1712 1.368 . S
C1728 C1724 1.368 . S
C1728 C1727 1.523 . S
H1729 C1704 0.950 . S
H1730 C1706 0.950 . S
H1731 C1707 0.949 . S
H1732 C1709 0.950 . S
H1733 C1711 0.950 . S
C1734 C1735 1.349 . S
C1734 C1736 1.327 . S
C1734 H1759 0.950 . S
C1735 C1734 1.349 . S
C1735 C1751 1.349 . S
C1736 C1734 1.327 . S
C1736 C1755 1.429 . S
C1736 H1760 0.950 . S
C1737 C1754 1.574 . S
C1737 C1756 1.368 . S
C1737 H1761 0.949 . S
H1738 C1742 0.949 . S
C1739 C1740 1.349 . S
C1739 C1741 1.327 . S
C1739 H1762 0.950 . S
C1740 C1739 1.349 . S
C1740 C1752 1.349 . S
C1741 C1739 1.327 . S
C1741 C1757 1.429 . S
C1741 H1763 0.950 . S
C1742 H1738 0.949 . S
C1742 C1750 1.574 . S
C1742 C1758 1.368 . S
H1743 C1751 0.950 . S
H1744 C1749 0.950 . S
H1745 C1750 0.949 . S
H1746 C1752 0.950 . S
H1747 C1753 0.950 . S
H1748 C1754 0.949 . S
C1749 H1744 0.950 . S
C1749 C1751 1.327 . S
C1749 C1755 1.429 . S
C1750 C1742 1.574 . S
C1750 H1745 0.949 . S
C1750 C1756 1.368 . S
C1751 C1735 1.349 . S
C1751 H1743 0.950 . S
C1751 C1749 1.327 . S
C1752 C1740 1.349 . S
C1752 H1746 0.950 . S
C1752 C1753 1.327 . S
C1753 H1747 0.950 . S
C1753 C1752 1.327 . S
C1753 C1757 1.429 . S
C1754 C1737 1.574 . S
C1754 H1748 0.949 . S
C1754 C1758 1.368 . S
C1755 C1736 1.429 . S
C1755 C1749 1.429 . S
C1755 C1756 1.523 . S
C1756 C1737 1.368 . S
C1756 C1750 1.368 . S
C1756 C1755 1.523 . S
C1757 C1741 1.429 . S
C1757 C1753 1.429 . S
C1757 C1758 1.523 . S
C1758 C1742 1.368 . S
C1758 C1754 1.368 . S
C1758 C1757 1.523 . S
H1759 C1734 0.950 . S
H1760 C1736 0.950 . S
H1761 C1737 0.949 . S
H1762 C1739 0.950 . S
H1763 C1741 0.950 . S
C1764 C1765 1.349 . S
C1764 C1766 1.327 . S
C1764 H1789 0.950 . S
C1765 C1764 1.349 . S
C1765 C1781 1.349 . S
C1766 C1764 1.327 . S
C1766 C1785 1.429 . S
C1766 H1790 0.950 . S
C1767 C1784 1.574 . S
C1767 C1786 1.368 . S
C1767 H1791 0.949 . S
H1768 C1772 0.949 . S
C1769 C1770 1.349 . S
C1769 C1771 1.327 . S
C1769 H1792 0.950 . S
C1770 C1769 1.349 . S
C1770 C1782 1.349 . S
C1771 C1769 1.327 . S
C1771 C1787 1.429 . S
C1771 H1793 0.950 . S
C1772 H1768 0.949 . S
C1772 C1780 1.574 . S
C1772 C1788 1.368 . S
H1773 C1781 0.950 . S
H1774 C1779 0.950 . S
H1775 C1780 0.949 . S
H1776 C1782 0.950 . S
H1777 C1783 0.950 . S
H1778 C1784 0.949 . S
C1779 H1774 0.950 . S
C1779 C1781 1.327 . S
C1779 C1785 1.429 . S
C1780 C1772 1.574 . S
C1780 H1775 0.949 . S
C1780 C1786 1.368 . S
C1781 C1765 1.349 . S
C1781 H1773 0.950 . S
C1781 C1779 1.327 . S
C1782 C1770 1.349 . S
C1782 H1776 0.950 . S
C1782 C1783 1.327 . S
C1783 H1777 0.950 . S
C1783 C1782 1.327 . S
C1783 C1787 1.429 . S
C1784 C1767 1.574 . S
C1784 H1778 0.949 . S
C1784 C1788 1.368 . S
C1785 C1766 1.429 . S
C1785 C1779 1.429 . S
C1785 C1786 1.523 . S
C1786 C1767 1.368 . S
C1786 C1780 1.368 . S
C1786 C1785 1.523 . S
C1787 C1771 1.429 . S
C1787 C1783 1.429 . S
C1787 C1788 1.523 . S
C1788 C1772 1.368 . S
C1788 C1784 1.368 . S
C1788 C1787 1.523 . S
H1789 C1764 0.950 . S
H1790 C1766 0.950 . S
H1791 C1767 0.949 . S
H1792 C1769 0.950 . S
H1793 C1771 0.950 . S
C1794 C1795 1.349 . S
C1794 C1796 1.327 . S
C1794 H1819 0.950 . S
C1795 C1794 1.349 . S
C1795 C1811 1.349 . S
C1796 C1794 1.327 . S
C1796 C1815 1.429 . S
C1796 H1820 0.950 . S
C1797 C1814 1.574 . S
C1797 C1816 1.368 . S
C1797 H1821 0.949 . S
H1798 C1802 0.949 . S
C1799 C1800 1.349 . S
C1799 C1801 1.327 . S
C1799 H1822 0.950 . S
C1800 C1799 1.349 . S
C1800 C1812 1.349 . S
C1801 C1799 1.327 . S
C1801 C1817 1.429 . S
C1801 H1823 0.950 . S
C1802 H1798 0.949 . S
C1802 C1810 1.574 . S
C1802 C1818 1.368 . S
H1803 C1811 0.950 . S
H1804 C1809 0.950 . S
H1805 C1810 0.949 . S
H1806 C1812 0.950 . S
H1807 C1813 0.950 . S
H1808 C1814 0.949 . S
C1809 H1804 0.950 . S
C1809 C1811 1.327 . S
C1809 C1815 1.429 . S
C1810 C1802 1.574 . S
C1810 H1805 0.949 . S
C1810 C1816 1.368 . S
C1811 C1795 1.349 . S
C1811 H1803 0.950 . S
C1811 C1809 1.327 . S
C1812 C1800 1.349 . S
C1812 H1806 0.950 . S
C1812 C1813 1.327 . S
C1813 H1807 0.950 . S
C1813 C1812 1.327 . S
C1813 C1817 1.429 . S
C1814 C1797 1.574 . S
C1814 H1808 0.949 . S
C1814 C1818 1.368 . S
C1815 C1796 1.429 . S
C1815 C1809 1.429 . S
C1815 C1816 1.523 . S
C1816 C1797 1.368 . S
C1816 C1810 1.368 . S
C1816 C1815 1.523 . S
C1817 C1801 1.429 . S
C1817 C1813 1.429 . S
C1817 C1818 1.523 . S
C1818 C1802 1.368 . S
C1818 C1814 1.368 . S
C1818 C1817 1.523 . S
H1819 C1794 0.950 . S
H1820 C1796 0.950 . S
H1821 C1797 0.949 . S
H1822 C1799 0.950 . S
H1823 C1801 0.950 . S
C1824 C1825 1.349 . S
C1824 C1826 1.327 . S
C1824 H1849 0.950 . S
C1825 C1824 1.349 . S
C1825 C1841 1.349 . S
C1826 C1824 1.327 . S
C1826 C1845 1.429 . S
C1826 H1850 0.950 . S
C1827 C1844 1.574 . S
C1827 C1846 1.368 . S
C1827 H1851 0.949 . S
H1828 C1832 0.949 . S
C1829 C1830 1.349 . S
C1829 C1831 1.327 . S
C1829 H1852 0.950 . S
C1830 C1829 1.349 . S
C1830 C1842 1.349 . S
C1831 C1829 1.327 . S
C1831 C1847 1.429 . S
C1831 H1853 0.950 . S
C1832 H1828 0.949 . S
C1832 C1840 1.574 . S
C1832 C1848 1.368 . S
H1833 C1841 0.950 . S
H1834 C1839 0.950 . S
H1835 C1840 0.949 . S
H1836 C1842 0.950 . S
H1837 C1843 0.950 . S
H1838 C1844 0.949 . S
C1839 H1834 0.950 . S
C1839 C1841 1.327 . S
C1839 C1845 1.429 . S
C1840 C1832 1.574 . S
C1840 H1835 0.949 . S
C1840 C1846 1.368 . S
C1841 C1825 1.349 . S
C1841 H1833 0.950 . S
C1841 C1839 1.327 . S
C1842 C1830 1.349 . S
C1842 H1836 0.950 . S
C1842 C1843 1.327 . S
C1843 H1837 0.950 . S
C1843 C1842 1.327 . S
C1843 C1847 1.429 . S
C1844 C1827 1.574 . S
C1844 H1838 0.949 . S
C1844 C1848 1.368 . S
C1845 C1826 1.429 . S
C1845 C1839 1.429 . S
C1845 C1846 1.523 . S
C1846 C1827 1.368 . S
C1846 C1840 1.368 . S
C1846 C1845 1.523 . S
C1847 C1831 1.429 . S
C1847 C1843 1.429 . S
C1847 C1848 1.523 . S
C1848 C1832 1.368 . S
C1848 C1844 1.368 . S
C1848 C1847 1.523 . S
H1849 C1824 0.950 . S
H1850 C1826 0.950 . S
H1851 C1827 0.949 . S
H1852 C1829 0.950 . S
H1853 C1831 0.950 . S
C1854 C1855 1.349 . S
C1854 C1856 1.327 . S
C1854 H1879 0.950 . S
C1855 C1854 1.349 . S
C1855 C1871 1.349 . S
C1856 C1854 1.327 . S
C1856 C1875 1.429 . S
C1856 H1880 0.950 . S
C1857 C1874 1.574 . S
C1857 C1876 1.368 . S
C1857 H1881 0.949 . S
H1858 C1862 0.949 . S
C1859 C1860 1.349 . S
C1859 C1861 1.327 . S
C1859 H1882 0.950 . S
C1860 C1859 1.349 . S
C1860 C1872 1.349 . S
C1861 C1859 1.327 . S
C1861 C1877 1.429 . S
C1861 H1883 0.950 . S
C1862 H1858 0.949 . S
C1862 C1870 1.574 . S
C1862 C1878 1.368 . S
H1863 C1871 0.950 . S
H1864 C1869 0.950 . S
H1865 C1870 0.949 . S
H1866 C1872 0.950 . S
H1867 C1873 0.950 . S
H1868 C1874 0.949 . S
C1869 H1864 0.950 . S
C1869 C1871 1.327 . S
C1869 C1875 1.429 . S
C1870 C1862 1.574 . S
C1870 H1865 0.949 . S
C1870 C1876 1.368 . S
C1871 C1855 1.349 . S
C1871 H1863 0.950 . S
C1871 C1869 1.327 . S
C1872 C1860 1.349 . S
C1872 H1866 0.950 . S
C1872 C1873 1.327 . S
C1873 H1867 0.950 . S
C1873 C1872 1.327 . S
C1873 C1877 1.429 . S
C1874 C1857 1.574 . S
C1874 H1868 0.949 . S
C1874 C1878 1.368 . S
C1875 C1856 1.429 . S
C1875 C1869 1.429 . S
C1875 C1876 1.523 . S
C1876 C1857 1.368 . S
C1876 C1870 1.368 . S
C1876 C1875 1.523 . S
C1877 C1861 1.429 . S
C1877 C1873 1.429 . S
C1877 C1878 1.523 . S
C1878 C1862 1.368 . S
C1878 C1874 1.368 . S
C1878 C1877 1.523 . S
H1879 C1854 0.950 . S
H1880 C1856 0.950 . S
H1881 C1857 0.949 . S
H1882 C1859 0.950 . S
H1883 C1861 0.950 . S
C1884 C1885 1.349 . S
C1884 C1886 1.327 . S
C1884 H1909 0.950 . S
C1885 C1884 1.349 . S
C1885 C1901 1.349 . S
C1886 C1884 1.327 . S
C1886 C1905 1.429 . S
C1886 H1910 0.950 . S
C1887 C1904 1.574 . S
C1887 C1906 1.368 . S
C1887 H1911 0.949 . S
H1888 C1892 0.949 . S
C1889 C1890 1.349 . S
C1889 C1891 1.327 . S
C1889 H1912 0.950 . S
C1890 C1889 1.349 . S
C1890 C1902 1.349 . S
C1891 C1889 1.327 . S
C1891 C1907 1.429 . S
C1891 H1913 0.950 . S
C1892 H1888 0.949 . S
C1892 C1900 1.574 . S
C1892 C1908 1.368 . S
H1893 C1901 0.950 . S
H1894 C1899 0.950 . S
H1895 C1900 0.949 . S
H1896 C1902 0.950 . S
H1897 C1903 0.950 . S
H1898 C1904 0.949 . S
C1899 H1894 0.950 . S
C1899 C1901 1.327 . S
C1899 C1905 1.429 . S
C1900 C1892 1.574 . S
C1900 H1895 0.949 . S
C1900 C1906 1.368 . S
C1901 C1885 1.349 . S
C1901 H1893 0.950 . S
C1901 C1899 1.327 . S
C1902 C1890 1.349 . S
C1902 H1896 0.950 . S
C1902 C1903 1.327 . S
C1903 H1897 0.950 . S
C1903 C1902 1.327 . S
C1903 C1907 1.429 . S
C1904 C1887 1.574 . S
C1904 H1898 0.949 . S
C1904 C1908 1.368 . S
C1905 C1886 1.429 . S
C1905 C1899 1.429 . S
C1905 C1906 1.523 . S
C1906 C1887 1.368 . S
C1906 C1900 1.368 . S
C1906 C1905 1.523 . S
C1907 C1891 1.429 . S
C1907 C1903 1.429 . S
C1907 C1908 1.523 . S
C1908 C1892 1.368 . S
C1908 C1904 1.368 . S
C1908 C1907 1.523 . S
H1909 C1884 0.950 . S
H1910 C1886 0.950 . S
H1911 C1887 0.949 . S
H1912 C1889 0.950 . S
H1913 C1891 0.950 . S
C1914 C1915 1.349 . S
C1914 C1916 1.327 . S
C1914 H1939 0.950 . S
C1915 C1914 1.349 . S
C1915 C1931 1.349 . S
C1916 C1914 1.327 . S
C1916 C1935 1.429 . S
C1916 H1940 0.950 . S
C1917 C1934 1.574 . S
C1917 C1936 1.368 . S
C1917 H1941 0.949 . S
H1918 C1922 0.949 . S
C1919 C1920 1.349 . S
C1919 C1921 1.327 . S
C1919 H1942 0.950 . S
C1920 C1919 1.349 . S
C1920 C1932 1.349 . S
C1921 C1919 1.327 . S
C1921 C1937 1.429 . S
C1921 H1943 0.950 . S
C1922 H1918 0.949 . S
C1922 C1930 1.574 . S
C1922 C1938 1.368 . S
H1923 C1931 0.950 . S
H1924 C1929 0.950 . S
H1925 C1930 0.949 . S
H1926 C1932 0.950 . S
H1927 C1933 0.950 . S
H1928 C1934 0.949 . S
C1929 H1924 0.950 . S
C1929 C1931 1.327 . S
C1929 C1935 1.429 . S
C1930 C1922 1.574 . S
C1930 H1925 0.949 . S
C1930 C1936 1.368 . S
C1931 C1915 1.349 . S
C1931 H1923 0.950 . S
C1931 C1929 1.327 . S
C1932 C1920 1.349 . S
C1932 H1926 0.950 . S
C1932 C1933 1.327 . S
C1933 H1927 0.950 . S
C1933 C1932 1.327 . S
C1933 C1937 1.429 . S
C1934 C1917 1.574 . S
C1934 H1928 0.949 . S
C1934 C1938 1.368 . S
C1935 C1916 1.429 . S
C1935 C1929 1.429 . S
C1935 C1936 1.523 . S
C1936 C1917 1.368 . S
C1936 C1930 1.368 . S
C1936 C1935 1.523 . S
C1937 C1921 1.429 . S
C1937 C1933 1.429 . S
C1937 C1938 1.523 . S
C1938 C1922 1.368 . S
C1938 C1934 1.368 . S
C1938 C1937 1.523 . S
H1939 C1914 0.950 . S
H1940 C1916 0.950 . S
H1941 C1917 0.949 . S
H1942 C1919 0.950 . S
H1943 C1921 0.950 . S
C1944 C1945 1.349 . S
C1944 C1946 1.327 . S
C1944 H1969 0.950 . S
C1945 C1944 1.349 . S
C1945 C1961 1.349 . S
C1946 C1944 1.327 . S
C1946 C1965 1.429 . S
C1946 H1970 0.950 . S
C1947 C1964 1.574 . S
C1947 C1966 1.368 . S
C1947 H1971 0.949 . S
H1948 C1952 0.949 . S
C1949 C1950 1.349 . S
C1949 C1951 1.327 . S
C1949 H1972 0.950 . S
C1950 C1949 1.349 . S
C1950 C1962 1.349 . S
C1951 C1949 1.327 . S
C1951 C1967 1.429 . S
C1951 H1973 0.950 . S
C1952 H1948 0.949 . S
C1952 C1960 1.574 . S
C1952 C1968 1.368 . S
H1953 C1961 0.950 . S
H1954 C1959 0.950 . S
H1955 C1960 0.949 . S
H1956 C1962 0.950 . S
H1957 C1963 0.950 . S
H1958 C1964 0.949 . S
C1959 H1954 0.950 . S
C1959 C1961 1.327 . S
C1959 C1965 1.429 . S
C1960 C1952 1.574 . S
C1960 H1955 0.949 . S
C1960 C1966 1.368 . S
C1961 C1945 1.349 . S
C1961 H1953 0.950 . S
C1961 C1959 1.327 . S
C1962 C1950 1.349 . S
C1962 H1956 0.950 . S
C1962 C1963 1.327 . S
C1963 H1957 0.950 . S
C1963 C1962 1.327 . S
C1963 C1967 1.429 . S
C1964 C1947 1.574 . S
C1964 H1958 0.949 . S
C1964 C1968 1.368 . S
C1965 C1946 1.429 . S
C1965 C1959 1.429 . S
C1965 C1966 1.523 . S
C1966 C1947 1.368 . S
C1966 C1960 1.368 . S
C1966 C1965 1.523 . S
C1967 C1951 1.429 . S
C1967 C1963 1.429 . S
C1967 C1968 1.523 . S
C1968 C1952 1.368 . S
C1968 C1964 1.368 . S
C1968 C1967 1.523 . S
H1969 C1944 0.950 . S
H1970 C1946 0.950 . S
H1971 C1947 0.949 . S
H1972 C1949 0.950 . S
H1973 C1951 0.950 . S
C1974 C1975 1.349 . S
C1974 C1976 1.327 . S
C1974 H1999 0.950 . S
C1975 C1974 1.349 . S
C1975 C1991 1.349 . S
C1976 C1974 1.327 . S
C1976 C1995 1.429 . S
C1976 H2000 0.950 . S
C1977 C1994 1.574 . S
C1977 C1996 1.368 . S
C1977 H2001 0.949 . S
H1978 C1982 0.949 . S
C1979 C1980 1.349 . S
C1979 C1981 1.327 . S
C1979 H2002 0.950 . S
C1980 C1979 1.349 . S
C1980 C1992 1.349 . S
C1981 C1979 1.327 . S
C1981 C1997 1.429 . S
C1981 H2003 0.950 . S
C1982 H1978 0.949 . S
C1982 C1990 1.574 . S
C1982 C1998 1.368 . S
H1983 C1991 0.950 . S
H1984 C1989 0.950 . S
H1985 C1990 0.949 . S
H1986 C1992 0.950 . S
H1987 C1993 0.950 . S
H1988 C1994 0.949 . S
C1989 H1984 0.950 . S
C1989 C1991 1.327 . S
C1989 C1995 1.429 . S
C1990 C1982 1.574 . S
C1990 H1985 0.949 . S
C1990 C1996 1.368 . S
C1991 C1975 1.349 . S
C1991 H1983 0.950 . S
C1991 C1989 1.327 . S
C1992 C1980 1.349 . S
C1992 H1986 0.950 . S
C1992 C1993 1.327 . S
C1993 H1987 0.950 . S
C1993 C1992 1.327 . S
C1993 C1997 1.429 . S
C1994 C1977 1.574 . S
C1994 H1988 0.949 . S
C1994 C1998 1.368 . S
C1995 C1976 1.429 . S
C1995 C1989 1.429 . S
C1995 C1996 1.523 . S
C1996 C1977 1.368 . S
C1996 C1990 1.368 . S
C1996 C1995 1.523 . S
C1997 C1981 1.429 . S
C1997 C1993 1.429 . S
C1997 C1998 1.523 . S
C1998 C1982 1.368 . S
C1998 C1994 1.368 . S
C1998 C1997 1.523 . S
H1999 C1974 0.950 . S
H2000 C1976 0.950 . S
H2001 C1977 0.949 . S
H2002 C1979 0.950 . S
H2003 C1981 0.950 . S
C2004 C2005 1.349 . S
C2004 C2006 1.327 . S
C2004 H2029 0.950 . S
C2005 C2004 1.349 . S
C2005 C2021 1.349 . S
C2006 C2004 1.327 . S
C2006 C2025 1.429 . S
C2006 H2030 0.950 . S
C2007 C2024 1.574 . S
C2007 C2026 1.368 . S
C2007 H2031 0.949 . S
H2008 C2012 0.949 . S
C2009 C2010 1.349 . S
C2009 C2011 1.327 . S
C2009 H2032 0.950 . S
C2010 C2009 1.349 . S
C2010 C2022 1.349 . S
C2011 C2009 1.327 . S
C2011 C2027 1.429 . S
C2011 H2033 0.950 . S
C2012 H2008 0.949 . S
C2012 C2020 1.574 . S
C2012 C2028 1.368 . S
H2013 C2021 0.950 . S
H2014 C2019 0.950 . S
H2015 C2020 0.949 . S
H2016 C2022 0.950 . S
H2017 C2023 0.950 . S
H2018 C2024 0.949 . S
C2019 H2014 0.950 . S
C2019 C2021 1.327 . S
C2019 C2025 1.429 . S
C2020 C2012 1.574 . S
C2020 H2015 0.949 . S
C2020 C2026 1.368 . S
C2021 C2005 1.349 . S
C2021 H2013 0.950 . S
C2021 C2019 1.327 . S
C2022 C2010 1.349 . S
C2022 H2016 0.950 . S
C2022 C2023 1.327 . S
C2023 H2017 0.950 . S
C2023 C2022 1.327 . S
C2023 C2027 1.429 . S
C2024 C2007 1.574 . S
C2024 H2018 0.949 . S
C2024 C2028 1.368 . S
C2025 C2006 1.429 . S
C2025 C2019 1.429 . S
C2025 C2026 1.523 . S
C2026 C2007 1.368 . S
C2026 C2020 1.368 . S
C2026 C2025 1.523 . S
C2027 C2011 1.429 . S
C2027 C2023 1.429 . S
C2027 C2028 1.523 . S
C2028 C2012 1.368 . S
C2028 C2024 1.368 . S
C2028 C2027 1.523 . S
H2029 C2004 0.950 . S
H2030 C2006 0.950 . S
H2031 C2007 0.949 . S
H2032 C2009 0.950 . S
H2033 C2011 0.950 . S
C2034 C2035 1.349 . S
C2034 C2036 1.327 . S
C2034 H2059 0.950 . S
C2035 C2034 1.349 . S
C2035 C2051 1.349 . S
C2036 C2034 1.327 . S
C2036 C2055 1.429 . S
C2036 H2060 0.950 . S
C2037 C2054 1.574 . S
C2037 C2056 1.368 . S
C2037 H2061 0.949 . S
H2038 C2042 0.949 . S
C2039 C2040 1.349 . S
C2039 C2041 1.327 . S
C2039 H2062 0.950 . S
C2040 C2039 1.349 . S
C2040 C2052 1.349 . S
C2041 C2039 1.327 . S
C2041 C2057 1.429 . S
C2041 H2063 0.950 . S
C2042 H2038 0.949 . S
C2042 C2050 1.574 . S
C2042 C2058 1.368 . S
H2043 C2051 0.950 . S
H2044 C2049 0.950 . S
H2045 C2050 0.949 . S
H2046 C2052 0.950 . S
H2047 C2053 0.950 . S
H2048 C2054 0.949 . S
C2049 H2044 0.950 . S
C2049 C2051 1.327 . S
C2049 C2055 1.429 . S
C2050 C2042 1.574 . S
C2050 H2045 0.949 . S
C2050 C2056 1.368 . S
C2051 C2035 1.349 . S
C2051 H2043 0.950 . S
C2051 C2049 1.327 . S
C2052 C2040 1.349 . S
C2052 H2046 0.950 . S
C2052 C2053 1.327 . S
C2053 H2047 0.950 . S
C2053 C2052 1.327 . S
C2053 C2057 1.429 . S
C2054 C2037 1.574 . S
C2054 H2048 0.949 . S
C2054 C2058 1.368 . S
C2055 C2036 1.429 . S
C2055 C2049 1.429 . S
C2055 C2056 1.523 . S
C2056 C2037 1.368 . S
C2056 C2050 1.368 . S
C2056 C2055 1.523 . S
C2057 C2041 1.429 . S
C2057 C2053 1.429 . S
C2057 C2058 1.523 . S
C2058 C2042 1.368 . S
C2058 C2054 1.368 . S
C2058 C2057 1.523 . S
H2059 C2034 0.950 . S
H2060 C2036 0.950 . S
H2061 C2037 0.949 . S
H2062 C2039 0.950 . S
H2063 C2041 0.950 . S
C2064 C2065 1.349 . S
C2064 C2066 1.327 . S
C2064 H2089 0.950 . S
C2065 C2064 1.349 . S
C2065 C2081 1.349 . S
C2066 C2064 1.327 . S
C2066 C2085 1.429 . S
C2066 H2090 0.950 . S
C2067 C2084 1.574 . S
C2067 C2086 1.368 . S
C2067 H2091 0.949 . S
H2068 C2072 0.949 . S
C2069 C2070 1.349 . S
C2069 C2071 1.327 . S
C2069 H2092 0.950 . S
C2070 C2069 1.349 . S
C2070 C2082 1.349 . S
C2071 C2069 1.327 . S
C2071 C2087 1.429 . S
C2071 H2093 0.950 . S
C2072 H2068 0.949 . S
C2072 C2080 1.574 . S
C2072 C2088 1.368 . S
H2073 C2081 0.950 . S
H2074 C2079 0.950 . S
H2075 C2080 0.949 . S
H2076 C2082 0.950 . S
H2077 C2083 0.950 . S
H2078 C2084 0.949 . S
C2079 H2074 0.950 . S
C2079 C2081 1.327 . S
C2079 C2085 1.429 . S
C2080 C2072 1.574 . S
C2080 H2075 0.949 . S
C2080 C2086 1.368 . S
C2081 C2065 1.349 . S
C2081 H2073 0.950 . S
C2081 C2079 1.327 . S
C2082 C2070 1.349 . S
C2082 H2076 0.950 . S
C2082 C2083 1.327 . S
C2083 H2077 0.950 . S
C2083 C2082 1.327 . S
C2083 C2087 1.429 . S
C2084 C2067 1.574 . S
C2084 H2078 0.949 . S
C2084 C2088 1.368 . S
C2085 C2066 1.429 . S
C2085 C2079 1.429 . S
C2085 C2086 1.523 . S
C2086 C2067 1.368 . S
C2086 C2080 1.368 . S
C2086 C2085 1.523 . S
C2087 C2071 1.429 . S
C2087 C2083 1.429 . S
C2087 C2088 1.523 . S
C2088 C2072 1.368 . S
C2088 C2084 1.368 . S
C2088 C2087 1.523 . S
H2089 C2064 0.950 . S
H2090 C2066 0.950 . S
H2091 C2067 0.949 . S
H2092 C2069 0.950 . S
H2093 C2071 0.950 . S
C2094 C2095 1.349 . S
C2094 C2096 1.327 . S
C2094 H2119 0.950 . S
C2095 C2094 1.349 . S
C2095 C2111 1.349 . S
C2096 C2094 1.327 . S
C2096 C2115 1.429 . S
C2096 H2120 0.950 . S
C2097 C2114 1.574 . S
C2097 C2116 1.368 . S
C2097 H2121 0.949 . S
H2098 C2102 0.949 . S
C2099 C2100 1.349 . S
C2099 C2101 1.327 . S
C2099 H2122 0.950 . S
C2100 C2099 1.349 . S
C2100 C2112 1.349 . S
C2101 C2099 1.327 . S
C2101 C2117 1.429 . S
C2101 H2123 0.950 . S
C2102 H2098 0.949 . S
C2102 C2110 1.574 . S
C2102 C2118 1.368 . S
H2103 C2111 0.950 . S
H2104 C2109 0.950 . S
H2105 C2110 0.949 . S
H2106 C2112 0.950 . S
H2107 C2113 0.950 . S
H2108 C2114 0.949 . S
C2109 H2104 0.950 . S
C2109 C2111 1.327 . S
C2109 C2115 1.429 . S
C2110 C2102 1.574 . S
C2110 H2105 0.949 . S
C2110 C2116 1.368 . S
C2111 C2095 1.349 . S
C2111 H2103 0.950 . S
C2111 C2109 1.327 . S
C2112 C2100 1.349 . S
C2112 H2106 0.950 . S
C2112 C2113 1.327 . S
C2113 H2107 0.950 . S
C2113 C2112 1.327 . S
C2113 C2117 1.429 . S
C2114 C2097 1.574 . S
C2114 H2108 0.949 . S
C2114 C2118 1.368 . S
C2115 C2096 1.429 . S
C2115 C2109 1.429 . S
C2115 C2116 1.523 . S
C2116 C2097 1.368 . S
C2116 C2110 1.368 . S
C2116 C2115 1.523 . S
C2117 C2101 1.429 . S
C2117 C2113 1.429 . S
C2117 C2118 1.523 . S
C2118 C2102 1.368 . S
C2118 C2114 1.368 . S
C2118 C2117 1.523 . S
H2119 C2094 0.950 . S
H2120 C2096 0.950 . S
H2121 C2097 0.949 . S
H2122 C2099 0.950 . S
H2123 C2101 0.950 . S
C2124 C2125 1.349 . S
C2124 C2126 1.327 . S
C2124 H2149 0.950 . S
C2125 C2124 1.349 . S
C2125 C2141 1.349 . S
C2126 C2124 1.327 . S
C2126 C2145 1.429 . S
C2126 H2150 0.950 . S
C2127 C2144 1.574 . S
C2127 C2146 1.368 . S
C2127 H2151 0.949 . S
H2128 C2132 0.949 . S
C2129 C2130 1.349 . S
C2129 C2131 1.327 . S
C2129 H2152 0.950 . S
C2130 C2129 1.349 . S
C2130 C2142 1.349 . S
C2131 C2129 1.327 . S
C2131 C2147 1.429 . S
C2131 H2153 0.950 . S
C2132 H2128 0.949 . S
C2132 C2140 1.574 . S
C2132 C2148 1.368 . S
H2133 C2141 0.950 . S
H2134 C2139 0.950 . S
H2135 C2140 0.949 . S
H2136 C2142 0.950 . S
H2137 C2143 0.950 . S
H2138 C2144 0.949 . S
C2139 H2134 0.950 . S
C2139 C2141 1.327 . S
C2139 C2145 1.429 . S
C2140 C2132 1.574 . S
C2140 H2135 0.949 . S
C2140 C2146 1.368 . S
C2141 C2125 1.349 . S
C2141 H2133 0.950 . S
C2141 C2139 1.327 . S
C2142 C2130 1.349 . S
C2142 H2136 0.950 . S
C2142 C2143 1.327 . S
C2143 H2137 0.950 . S
C2143 C2142 1.327 . S
C2143 C2147 1.429 . S
C2144 C2127 1.574 . S
C2144 H2138 0.949 . S
C2144 C2148 1.368 . S
C2145 C2126 1.429 . S
C2145 C2139 1.429 . S
C2145 C2146 1.523 . S
C2146 C2127 1.368 . S
C2146 C2140 1.368 . S
C2146 C2145 1.523 . S
C2147 C2131 1.429 . S
C2147 C2143 1.429 . S
C2147 C2148 1.523 . S
C2148 C2132 1.368 . S
C2148 C2144 1.368 . S
C2148 C2147 1.523 . S
H2149 C2124 0.950 . S
H2150 C2126 0.950 . S
H2151 C2127 0.949 . S
H2152 C2129 0.950 . S
H2153 C2131 0.950 . S
C2154 C2155 1.349 . S
C2154 C2156 1.327 . S
C2154 H2179 0.950 . S
C2155 C2154 1.349 . S
C2155 C2171 1.349 . S
C2156 C2154 1.327 . S
C2156 C2175 1.429 . S
C2156 H2180 0.950 . S
C2157 C2174 1.574 . S
C2157 C2176 1.368 . S
C2157 H2181 0.949 . S
H2158 C2162 0.949 . S
C2159 C2160 1.349 . S
C2159 C2161 1.327 . S
C2159 H2182 0.950 . S
C2160 C2159 1.349 . S
C2160 C2172 1.349 . S
C2161 C2159 1.327 . S
C2161 C2177 1.429 . S
C2161 H2183 0.950 . S
C2162 H2158 0.949 . S
C2162 C2170 1.574 . S
C2162 C2178 1.368 . S
H2163 C2171 0.950 . S
H2164 C2169 0.950 . S
H2165 C2170 0.949 . S
H2166 C2172 0.950 . S
H2167 C2173 0.950 . S
H2168 C2174 0.949 . S
C2169 H2164 0.950 . S
C2169 C2171 1.327 . S
C2169 C2175 1.429 . S
C2170 C2162 1.574 . S
C2170 H2165 0.949 . S
C2170 C2176 1.368 . S
C2171 C2155 1.349 . S
C2171 H2163 0.950 . S
C2171 C2169 1.327 . S
C2172 C2160 1.349 . S
C2172 H2166 0.950 . S
C2172 C2173 1.327 . S
C2173 H2167 0.950 . S
C2173 C2172 1.327 . S
C2173 C2177 1.429 . S
C2174 C2157 1.574 . S
C2174 H2168 0.949 . S
C2174 C2178 1.368 . S
C2175 C2156 1.429 . S
C2175 C2169 1.429 . S
C2175 C2176 1.523 . S
C2176 C2157 1.368 . S
C2176 C2170 1.368 . S
C2176 C2175 1.523 . S
C2177 C2161 1.429 . S
C2177 C2173 1.429 . S
C2177 C2178 1.523 . S
C2178 C2162 1.368 . S
C2178 C2174 1.368 . S
C2178 C2177 1.523 . S
H2179 C2154 0.950 . S
H2180 C2156 0.950 . S
H2181 C2157 0.949 . S
H2182 C2159 0.950 . S
H2183 C2161 0.950 . S
C2184 C2185 1.349 . S
C2184 C2186 1.327 . S
C2184 H2209 0.950 . S
C2185 C2184 1.349 . S
C2185 C2201 1.349 . S
C2186 C2184 1.327 . S
C2186 C2205 1.429 . S
C2186 H2210 0.950 . S
C2187 C2204 1.574 . S
C2187 C2206 1.368 . S
C2187 H2211 0.949 . S
H2188 C2192 0.949 . S
C2189 C2190 1.349 . S
C2189 C2191 1.327 . S
C2189 H2212 0.950 . S
C2190 C2189 1.349 . S
C2190 C2202 1.349 . S
C2191 C2189 1.327 . S
C2191 C2207 1.429 . S
C2191 H2213 0.950 . S
C2192 H2188 0.949 . S
C2192 C2200 1.574 . S
C2192 C2208 1.368 . S
H2193 C2201 0.950 . S
H2194 C2199 0.950 . S
H2195 C2200 0.949 . S
H2196 C2202 0.950 . S
H2197 C2203 0.950 . S
H2198 C2204 0.949 . S
C2199 H2194 0.950 . S
C2199 C2201 1.327 . S
C2199 C2205 1.429 . S
C2200 C2192 1.574 . S
C2200 H2195 0.949 . S
C2200 C2206 1.368 . S
C2201 C2185 1.349 . S
C2201 H2193 0.950 . S
C2201 C2199 1.327 . S
C2202 C2190 1.349 . S
C2202 H2196 0.950 . S
C2202 C2203 1.327 . S
C2203 H2197 0.950 . S
C2203 C2202 1.327 . S
C2203 C2207 1.429 . S
C2204 C2187 1.574 . S
C2204 H2198 0.949 . S
C2204 C2208 1.368 . S
C2205 C2186 1.429 . S
C2205 C2199 1.429 . S
C2205 C2206 1.523 . S
C2206 C2187 1.368 . S
C2206 C2200 1.368 . S
C2206 C2205 1.523 . S
C2207 C2191 1.429 . S
C2207 C2203 1.429 . S
C2207 C2208 1.523 . S
C2208 C2192 1.368 . S
C2208 C2204 1.368 . S
C2208 C2207 1.523 . S
H2209 C2184 0.950 . S
H2210 C2186 0.950 . S
H2211 C2187 0.949 . S
H2212 C2189 0.950 . S
H2213 C2191 0.950 . S
C2214 C2215 1.349 . S
C2214 C2216 1.327 . S
C2214 H2239 0.950 . S
C2215 C2214 1.349 . S
C2215 C2231 1.349 . S
C2216 C2214 1.327 . S
C2216 C2235 1.429 . S
C2216 H2240 0.950 . S
C2217 C2234 1.574 . S
C2217 C2236 1.368 . S
C2217 H2241 0.949 . S
H2218 C2222 0.949 . S
C2219 C2220 1.349 . S
C2219 C2221 1.327 . S
C2219 H2242 0.950 . S
C2220 C2219 1.349 . S
C2220 C2232 1.349 . S
C2221 C2219 1.327 . S
C2221 C2237 1.429 . S
C2221 H2243 0.950 . S
C2222 H2218 0.949 . S
C2222 C2230 1.574 . S
C2222 C2238 1.368 . S
H2223 C2231 0.950 . S
H2224 C2229 0.950 . S
H2225 C2230 0.949 . S
H2226 C2232 0.950 . S
H2227 C2233 0.950 . S
H2228 C2234 0.949 . S
C2229 H2224 0.950 . S
C2229 C2231 1.327 . S
C2229 C2235 1.429 . S
C2230 C2222 1.574 . S
C2230 H2225 0.949 . S
C2230 C2236 1.368 . S
C2231 C2215 1.349 . S
C2231 H2223 0.950 . S
C2231 C2229 1.327 . S
C2232 C2220 1.349 . S
C2232 H2226 0.950 . S
C2232 C2233 1.327 . S
C2233 H2227 0.950 . S
C2233 C2232 1.327 . S
C2233 C2237 1.429 . S
C2234 C2217 1.574 . S
C2234 H2228 0.949 . S
C2234 C2238 1.368 . S
C2235 C2216 1.429 . S
C2235 C2229 1.429 . S
C2235 C2236 1.523 . S
C2236 C2217 1.368 . S
C2236 C2230 1.368 . S
C2236 C2235 1.523 . S
C2237 C2221 1.429 . S
C2237 C2233 1.429 . S
C2237 C2238 1.523 . S
C2238 C2222 1.368 . S
C2238 C2234 1.368 . S
C2238 C2237 1.523 . S
H2239 C2214 0.950 . S
H2240 C2216 0.950 . S
H2241 C2217 0.949 . S
H2242 C2219 0.950 . S
H2243 C2221 0.950 . S
C2244 C2245 1.349 . S
C2244 C2246 1.327 . S
C2244 H2269 0.950 . S
C2245 C2244 1.349 . S
C2245 C2261 1.349 . S
C2246 C2244 1.327 . S
C2246 C2265 1.429 . S
C2246 H2270 0.950 . S
C2247 C2264 1.574 . S
C2247 C2266 1.368 . S
C2247 H2271 0.949 . S
H2248 C2252 0.949 . S
C2249 C2250 1.349 . S
C2249 C2251 1.327 . S
C2249 H2272 0.950 . S
C2250 C2249 1.349 . S
C2250 C2262 1.349 . S
C2251 C2249 1.327 . S
C2251 C2267 1.429 . S
C2251 H2273 0.950 . S
C2252 H2248 0.949 . S
C2252 C2260 1.574 . S
C2252 C2268 1.368 . S
H2253 C2261 0.950 . S
H2254 C2259 0.950 . S
H2255 C2260 0.949 . S
H2256 C2262 0.950 . S
H2257 C2263 0.950 . S
H2258 C2264 0.949 . S
C2259 H2254 0.950 . S
C2259 C2261 1.327 . S
C2259 C2265 1.429 . S
C2260 C2252 1.574 . S
C2260 H2255 0.949 . S
C2260 C2266 1.368 . S
C2261 C2245 1.349 . S
C2261 H2253 0.950 . S
C2261 C2259 1.327 . S
C2262 C2250 1.349 . S
C2262 H2256 0.950 . S
C2262 C2263 1.327 . S
C2263 H2257 0.950 . S
C2263 C2262 1.327 . S
C2263 C2267 1.429 . S
C2264 C2247 1.574 . S
C2264 H2258 0.949 . S
C2264 C2268 1.368 . S
C2265 C2246 1.429 . S
C2265 C2259 1.429 . S
C2265 C2266 1.523 . S
C2266 C2247 1.368 . S
C2266 C2260 1.368 . S
C2266 C2265 1.523 . S
C2267 C2251 1.429 . S
C2267 C2263 1.429 . S
C2267 C2268 1.523 . S
C2268 C2252 1.368 . S
C2268 C2264 1.368 . S
C2268 C2267 1.523 . S
H2269 C2244 0.950 . S
H2270 C2246 0.950 . S
H2271 C2247 0.949 . S
H2272 C2249 0.950 . S
H2273 C2251 0.950 . S
C2274 C2275 1.349 . S
C2274 C2276 1.327 . S
C2274 H2299 0.950 . S
C2275 C2274 1.349 . S
C2275 C2291 1.349 . S
C2276 C2274 1.327 . S
C2276 C2295 1.429 . S
C2276 H2300 0.950 . S
C2277 C2294 1.574 . S
C2277 C2296 1.368 . S
C2277 H2301 0.949 . S
H2278 C2282 0.949 . S
C2279 C2280 1.349 . S
C2279 C2281 1.327 . S
C2279 H2302 0.950 . S
C2280 C2279 1.349 . S
C2280 C2292 1.349 . S
C2281 C2279 1.327 . S
C2281 C2297 1.429 . S
C2281 H2303 0.950 . S
C2282 H2278 0.949 . S
C2282 C2290 1.574 . S
C2282 C2298 1.368 . S
H2283 C2291 0.950 . S
H2284 C2289 0.950 . S
H2285 C2290 0.949 . S
H2286 C2292 0.950 . S
H2287 C2293 0.950 . S
H2288 C2294 0.949 . S
C2289 H2284 0.950 . S
C2289 C2291 1.327 . S
C2289 C2295 1.429 . S
C2290 C2282 1.574 . S
C2290 H2285 0.949 . S
C2290 C2296 1.368 . S
C2291 C2275 1.349 . S
C2291 H2283 0.950 . S
C2291 C2289 1.327 . S
C2292 C2280 1.349 . S
C2292 H2286 0.950 . S
C2292 C2293 1.327 . S
C2293 H2287 0.950 . S
C2293 C2292 1.327 . S
C2293 C2297 1.429 . S
C2294 C2277 1.574 . S
C2294 H2288 0.949 . S
C2294 C2298 1.368 . S
C2295 C2276 1.429 . S
C2295 C2289 1.429 . S
C2295 C2296 1.523 . S
C2296 C2277 1.368 . S
C2296 C2290 1.368 . S
C2296 C2295 1.523 . S
C2297 C2281 1.429 . S
C2297 C2293 1.429 . S
C2297 C2298 1.523 . S
C2298 C2282 1.368 . S
C2298 C2294 1.368 . S
C2298 C2297 1.523 . S
H2299 C2274 0.950 . S
H2300 C2276 0.950 . S
H2301 C2277 0.949 . S
H2302 C2279 0.950 . S
H2303 C2281 0.950 . S
C870 C689 1.413 . S
C865 C74 1.331 . S
C900 C694 0.598 . S
C895 C142 0.941 . S
C930 C695 1.409 . S
C925 C231 1.336 . S
C955 C322 1.338 . S
C960 C699 1.448 . S
C985 C406 0.940 . S
C990 C702 0.599 . S
C1020 C703 1.410 . S
C1015 C494 1.330 . S
C1045 C562 1.339 . S
C1050 C680 1.448 . S
C1075 C651 1.334 . S
C1080 C696 1.416 . S
C1110 C734 1.433 . S
C1105 C58 1.346 . S
C1135 C151 1.394 . S
C1140 C760 1.422 . S
C1170 C712 2.404 . S
C1165 C224 2.336 . S
C1200 C767 1.313 . S
C1195 C315 1.282 . S
C1225 C399 1.298 . S
C1230 C721 1.333 . S
C1260 C763 1.426 . S
C1255 C478 1.339 . S
C1285 C571 1.384 . S
C1290 C727 1.441 . S
C1315 C644 2.320 . S
C1320 C758 2.399 . S
C1345 C67 2.320 . S
C1350 C766 2.391 . S
C1375 C392 1.394 . S
C1380 C753 1.425 . S
C1410 C731 2.404 . S
C1405 C487 2.336 . S
C1440 C759 1.313 . S
C1435 C578 1.290 . S
C1465 C658 1.349 . S
C1470 C726 1.439 . S
C1495 C238 1.338 . S
C1500 C744 1.425 . S
C1530 C735 1.439 . S
C1525 C308 1.384 . S
C1555 C158 1.298 . S
C1560 C728 1.324 . S
C1585 C662 1.309 . S
C1590 C790 1.346 . S
C1615 C394 0.962 . S
C1620 C785 0.437 . S
C1650 C799 1.326 . S
C1645 C483 1.302 . S
C1680 C776 1.413 . S
C1675 C574 1.311 . S
C1705 C154 0.963 . S
C1710 C792 0.442 . S
C1740 C791 1.326 . S
C1735 C242 1.298 . S
C1765 C310 1.308 . S
C1770 C795 1.412 . S
C1795 C63 1.310 . S
C1800 C798 1.342 . S
C1825 C646 1.355 . S
C1830 C824 1.455 . S
C1860 C840 1.436 . S
C1855 C403 1.417 . S
C1885 C476 2.341 . S
C1890 C822 2.445 . S
C1915 C567 1.299 . S
C1920 C855 1.300 . S
C1950 C831 1.287 . S
C1945 C147 1.282 . S
C1975 C226 1.363 . S
C1980 C849 1.446 . S
C2010 C827 1.408 . S
C2005 C319 1.364 . S
C2040 C862 2.440 . S
C2035 C56 2.355 . S
C2070 C854 2.439 . S
C2065 C655 2.359 . S
C2095 C140 1.416 . S
C2100 C859 1.434 . S
C2125 C235 2.341 . S
C2130 C830 2.450 . S
C2160 C863 1.301 . S
C2155 C326 1.300 . S
C2185 C70 1.355 . S
C2190 C817 1.449 . S
C2215 C490 1.364 . S
C2220 C856 1.442 . S
C2250 C808 1.408 . S
C2245 C560 1.366 . S
C2280 C823 1.287 . S
C2275 C410 1.280 . S
