# Generated by pormake.
# Topology gar, (4,6)-cn, num edge types: 1
# Building blocks:
#     Node 0, Type 0, BuildingBlock: UXUYUI_clean_sbu_0, # of connection points: 4
#     Node 1, Type 0, BuildingBlock: UXUYUI_clean_sbu_0, # of connection points: 4
#     Node 2, Type 0, BuildingBlock: UXUYUI_clean_sbu_0, # of connection points: 4
#     Node 3, Type 0, BuildingBlock: UXUYUI_clean_sbu_0, # of connection points: 4
#     Node 4, Type 0, BuildingBlock: UXUYUI_clean_sbu_0, # of connection points: 4
#     Node 5, Type 0, BuildingBlock: UXUYUI_clean_sbu_0, # of connection points: 4
#     Node 6, Type 0, BuildingBlock: UXUYUI_clean_sbu_0, # of connection points: 4
#     Node 7, Type 0, BuildingBlock: UXUYUI_clean_sbu_0, # of connection points: 4
#     Node 8, Type 0, BuildingBlock: UXUYUI_clean_sbu_0, # of connection points: 4
#     Node 9, Type 0, BuildingBlock: UXUYUI_clean_sbu_0, # of connection points: 4
#     Node 10, Type 0, BuildingBlock: UXUYUI_clean_sbu_0, # of connection points: 4
#     Node 11, Type 0, BuildingBlock: UXUYUI_clean_sbu_0, # of connection points: 4
#     Node 12, Type 0, BuildingBlock: UXUYUI_clean_sbu_0, # of connection points: 4
#     Node 13, Type 0, BuildingBlock: UXUYUI_clean_sbu_0, # of connection points: 4
#     Node 14, Type 0, BuildingBlock: UXUYUI_clean_sbu_0, # of connection points: 4
#     Node 15, Type 0, BuildingBlock: UXUYUI_clean_sbu_0, # of connection points: 4
#     Node 16, Type 0, BuildingBlock: UXUYUI_clean_sbu_0, # of connection points: 4
#     Node 17, Type 0, BuildingBlock: UXUYUI_clean_sbu_0, # of connection points: 4
#     Node 18, Type 0, BuildingBlock: UXUYUI_clean_sbu_0, # of connection points: 4
#     Node 19, Type 0, BuildingBlock: UXUYUI_clean_sbu_0, # of connection points: 4
#     Node 20, Type 0, BuildingBlock: UXUYUI_clean_sbu_0, # of connection points: 4
#     Node 21, Type 0, BuildingBlock: UXUYUI_clean_sbu_0, # of connection points: 4
#     Node 22, Type 0, BuildingBlock: UXUYUI_clean_sbu_0, # of connection points: 4
#     Node 23, Type 0, BuildingBlock: UXUYUI_clean_sbu_0, # of connection points: 4
#     Node 24, Type 1, BuildingBlock: INOVEN_clean_sbu_0, # of connection points: 6
#     Node 25, Type 1, BuildingBlock: INOVEN_clean_sbu_0, # of connection points: 6
#     Node 26, Type 1, BuildingBlock: INOVEN_clean_sbu_0, # of connection points: 6
#     Node 27, Type 1, BuildingBlock: INOVEN_clean_sbu_0, # of connection points: 6
#     Node 28, Type 1, BuildingBlock: INOVEN_clean_sbu_0, # of connection points: 6
#     Node 29, Type 1, BuildingBlock: INOVEN_clean_sbu_0, # of connection points: 6
#     Node 30, Type 1, BuildingBlock: INOVEN_clean_sbu_0, # of connection points: 6
#     Node 31, Type 1, BuildingBlock: INOVEN_clean_sbu_0, # of connection points: 6
#     Node 32, Type 1, BuildingBlock: INOVEN_clean_sbu_0, # of connection points: 6
#     Node 33, Type 1, BuildingBlock: INOVEN_clean_sbu_0, # of connection points: 6
#     Node 34, Type 1, BuildingBlock: INOVEN_clean_sbu_0, # of connection points: 6
#     Node 35, Type 1, BuildingBlock: INOVEN_clean_sbu_0, # of connection points: 6
#     Node 36, Type 1, BuildingBlock: INOVEN_clean_sbu_0, # of connection points: 6
#     Node 37, Type 1, BuildingBlock: INOVEN_clean_sbu_0, # of connection points: 6
#     Node 38, Type 1, BuildingBlock: INOVEN_clean_sbu_0, # of connection points: 6
#     Node 39, Type 1, BuildingBlock: INOVEN_clean_sbu_0, # of connection points: 6
#     Edge 40, Type (0, 1), BuildingBlock: XIVTED_clean_linker_0, # of connection points: 2
#     Edge 41, Type (0, 1), BuildingBlock: XIVTED_clean_linker_0, # of connection points: 2
#     Edge 42, Type (0, 1), BuildingBlock: XIVTED_clean_linker_0, # of connection points: 2
#     Edge 43, Type (0, 1), BuildingBlock: XIVTED_clean_linker_0, # of connection points: 2
#     Edge 44, Type (0, 1), BuildingBlock: XIVTED_clean_linker_0, # of connection points: 2
#     Edge 45, Type (0, 1), BuildingBlock: XIVTED_clean_linker_0, # of connection points: 2
#     Edge 46, Type (0, 1), BuildingBlock: XIVTED_clean_linker_0, # of connection points: 2
#     Edge 47, Type (0, 1), BuildingBlock: XIVTED_clean_linker_0, # of connection points: 2
#     Edge 48, Type (0, 1), BuildingBlock: XIVTED_clean_linker_0, # of connection points: 2
#     Edge 49, Type (0, 1), BuildingBlock: XIVTED_clean_linker_0, # of connection points: 2
#     Edge 50, Type (0, 1), BuildingBlock: XIVTED_clean_linker_0, # of connection points: 2
#     Edge 51, Type (0, 1), BuildingBlock: XIVTED_clean_linker_0, # of connection points: 2
#     Edge 52, Type (0, 1), BuildingBlock: XIVTED_clean_linker_0, # of connection points: 2
#     Edge 53, Type (0, 1), BuildingBlock: XIVTED_clean_linker_0, # of connection points: 2
#     Edge 54, Type (0, 1), BuildingBlock: XIVTED_clean_linker_0, # of connection points: 2
#     Edge 55, Type (0, 1), BuildingBlock: XIVTED_clean_linker_0, # of connection points: 2
#     Edge 56, Type (0, 1), BuildingBlock: XIVTED_clean_linker_0, # of connection points: 2
#     Edge 57, Type (0, 1), BuildingBlock: XIVTED_clean_linker_0, # of connection points: 2
#     Edge 58, Type (0, 1), BuildingBlock: XIVTED_clean_linker_0, # of connection points: 2
#     Edge 59, Type (0, 1), BuildingBlock: XIVTED_clean_linker_0, # of connection points: 2
#     Edge 60, Type (0, 1), BuildingBlock: XIVTED_clean_linker_0, # of connection points: 2
#     Edge 61, Type (0, 1), BuildingBlock: XIVTED_clean_linker_0, # of connection points: 2
#     Edge 62, Type (0, 1), BuildingBlock: XIVTED_clean_linker_0, # of connection points: 2
#     Edge 63, Type (0, 1), BuildingBlock: XIVTED_clean_linker_0, # of connection points: 2
#     Edge 64, Type (0, 1), BuildingBlock: XIVTED_clean_linker_0, # of connection points: 2
#     Edge 65, Type (0, 1), BuildingBlock: XIVTED_clean_linker_0, # of connection points: 2
#     Edge 66, Type (0, 1), BuildingBlock: XIVTED_clean_linker_0, # of connection points: 2
#     Edge 67, Type (0, 1), BuildingBlock: XIVTED_clean_linker_0, # of connection points: 2
#     Edge 68, Type (0, 1), BuildingBlock: XIVTED_clean_linker_0, # of connection points: 2
#     Edge 69, Type (0, 1), BuildingBlock: XIVTED_clean_linker_0, # of connection points: 2
#     Edge 70, Type (0, 1), BuildingBlock: XIVTED_clean_linker_0, # of connection points: 2
#     Edge 71, Type (0, 1), BuildingBlock: XIVTED_clean_linker_0, # of connection points: 2
#     Edge 72, Type (0, 1), BuildingBlock: XIVTED_clean_linker_0, # of connection points: 2
#     Edge 73, Type (0, 1), BuildingBlock: XIVTED_clean_linker_0, # of connection points: 2
#     Edge 74, Type (0, 1), BuildingBlock: XIVTED_clean_linker_0, # of connection points: 2
#     Edge 75, Type (0, 1), BuildingBlock: XIVTED_clean_linker_0, # of connection points: 2
#     Edge 76, Type (0, 1), BuildingBlock: XIVTED_clean_linker_0, # of connection points: 2
#     Edge 77, Type (0, 1), BuildingBlock: XIVTED_clean_linker_0, # of connection points: 2
#     Edge 78, Type (0, 1), BuildingBlock: XIVTED_clean_linker_0, # of connection points: 2
#     Edge 79, Type (0, 1), BuildingBlock: XIVTED_clean_linker_0, # of connection points: 2
#     Edge 80, Type (0, 1), BuildingBlock: XIVTED_clean_linker_0, # of connection points: 2
#     Edge 81, Type (0, 1), BuildingBlock: XIVTED_clean_linker_0, # of connection points: 2
#     Edge 82, Type (0, 1), BuildingBlock: XIVTED_clean_linker_0, # of connection points: 2
#     Edge 83, Type (0, 1), BuildingBlock: XIVTED_clean_linker_0, # of connection points: 2
#     Edge 84, Type (0, 1), BuildingBlock: XIVTED_clean_linker_0, # of connection points: 2
#     Edge 85, Type (0, 1), BuildingBlock: XIVTED_clean_linker_0, # of connection points: 2
#     Edge 86, Type (0, 1), BuildingBlock: XIVTED_clean_linker_0, # of connection points: 2
#     Edge 87, Type (0, 1), BuildingBlock: XIVTED_clean_linker_0, # of connection points: 2
#     Edge 88, Type (0, 1), BuildingBlock: XIVTED_clean_linker_0, # of connection points: 2
#     Edge 89, Type (0, 1), BuildingBlock: XIVTED_clean_linker_0, # of connection points: 2
#     Edge 90, Type (0, 1), BuildingBlock: XIVTED_clean_linker_0, # of connection points: 2
#     Edge 91, Type (0, 1), BuildingBlock: XIVTED_clean_linker_0, # of connection points: 2
#     Edge 92, Type (0, 1), BuildingBlock: XIVTED_clean_linker_0, # of connection points: 2
#     Edge 93, Type (0, 1), BuildingBlock: XIVTED_clean_linker_0, # of connection points: 2
#     Edge 94, Type (0, 1), BuildingBlock: XIVTED_clean_linker_0, # of connection points: 2
#     Edge 95, Type (0, 1), BuildingBlock: XIVTED_clean_linker_0, # of connection points: 2
#     Edge 96, Type (0, 1), BuildingBlock: XIVTED_clean_linker_0, # of connection points: 2
#     Edge 97, Type (0, 1), BuildingBlock: XIVTED_clean_linker_0, # of connection points: 2
#     Edge 98, Type (0, 1), BuildingBlock: XIVTED_clean_linker_0, # of connection points: 2
#     Edge 99, Type (0, 1), BuildingBlock: XIVTED_clean_linker_0, # of connection points: 2
#     Edge 100, Type (0, 1), BuildingBlock: XIVTED_clean_linker_0, # of connection points: 2
#     Edge 101, Type (0, 1), BuildingBlock: XIVTED_clean_linker_0, # of connection points: 2
#     Edge 102, Type (0, 1), BuildingBlock: XIVTED_clean_linker_0, # of connection points: 2
#     Edge 103, Type (0, 1), BuildingBlock: XIVTED_clean_linker_0, # of connection points: 2
#     Edge 104, Type (0, 1), BuildingBlock: XIVTED_clean_linker_0, # of connection points: 2
#     Edge 105, Type (0, 1), BuildingBlock: XIVTED_clean_linker_0, # of connection points: 2
#     Edge 106, Type (0, 1), BuildingBlock: XIVTED_clean_linker_0, # of connection points: 2
#     Edge 107, Type (0, 1), BuildingBlock: XIVTED_clean_linker_0, # of connection points: 2
#     Edge 108, Type (0, 1), BuildingBlock: XIVTED_clean_linker_0, # of connection points: 2
#     Edge 109, Type (0, 1), BuildingBlock: XIVTED_clean_linker_0, # of connection points: 2
#     Edge 110, Type (0, 1), BuildingBlock: XIVTED_clean_linker_0, # of connection points: 2
#     Edge 111, Type (0, 1), BuildingBlock: XIVTED_clean_linker_0, # of connection points: 2
#     Edge 112, Type (0, 1), BuildingBlock: XIVTED_clean_linker_0, # of connection points: 2
#     Edge 113, Type (0, 1), BuildingBlock: XIVTED_clean_linker_0, # of connection points: 2
#     Edge 114, Type (0, 1), BuildingBlock: XIVTED_clean_linker_0, # of connection points: 2
#     Edge 115, Type (0, 1), BuildingBlock: XIVTED_clean_linker_0, # of connection points: 2
#     Edge 116, Type (0, 1), BuildingBlock: XIVTED_clean_linker_0, # of connection points: 2
#     Edge 117, Type (0, 1), BuildingBlock: XIVTED_clean_linker_0, # of connection points: 2
#     Edge 118, Type (0, 1), BuildingBlock: XIVTED_clean_linker_0, # of connection points: 2
#     Edge 119, Type (0, 1), BuildingBlock: XIVTED_clean_linker_0, # of connection points: 2
#     Edge 120, Type (0, 1), BuildingBlock: XIVTED_clean_linker_0, # of connection points: 2
#     Edge 121, Type (0, 1), BuildingBlock: XIVTED_clean_linker_0, # of connection points: 2
#     Edge 122, Type (0, 1), BuildingBlock: XIVTED_clean_linker_0, # of connection points: 2
#     Edge 123, Type (0, 1), BuildingBlock: XIVTED_clean_linker_0, # of connection points: 2
#     Edge 124, Type (0, 1), BuildingBlock: XIVTED_clean_linker_0, # of connection points: 2
#     Edge 125, Type (0, 1), BuildingBlock: XIVTED_clean_linker_0, # of connection points: 2
#     Edge 126, Type (0, 1), BuildingBlock: XIVTED_clean_linker_0, # of connection points: 2
#     Edge 127, Type (0, 1), BuildingBlock: XIVTED_clean_linker_0, # of connection points: 2
#     Edge 128, Type (0, 1), BuildingBlock: XIVTED_clean_linker_0, # of connection points: 2
#     Edge 129, Type (0, 1), BuildingBlock: XIVTED_clean_linker_0, # of connection points: 2
#     Edge 130, Type (0, 1), BuildingBlock: XIVTED_clean_linker_0, # of connection points: 2
#     Edge 131, Type (0, 1), BuildingBlock: XIVTED_clean_linker_0, # of connection points: 2
#     Edge 132, Type (0, 1), BuildingBlock: XIVTED_clean_linker_0, # of connection points: 2
#     Edge 133, Type (0, 1), BuildingBlock: XIVTED_clean_linker_0, # of connection points: 2
#     Edge 134, Type (0, 1), BuildingBlock: XIVTED_clean_linker_0, # of connection points: 2
#     Edge 135, Type (0, 1), BuildingBlock: XIVTED_clean_linker_0, # of connection points: 2
# Relax obj value: 0.188
# Max RMSD: 0.287
# Mean RMSD: 0.196
data_MOF--net-gar--node1-UXUYUI_clean_sbu_0--node2-INOVEN_clean_sbu_0--edge1-XIVTED_clean_linker_0
_symmetry_space_group_name_H-M    P1
_symmetry_Int_Tables_number       1
_symmetry_cell_setting            triclinic
loop_
_symmetry_equiv_pos_as_xyz
'x, y, z'
_cell_length_a     74.968111
_cell_length_b     70.151687
_cell_length_c     70.34086
_cell_angle_alpha  98.988471
_cell_angle_beta   95.080258
_cell_angle_gamma 102.90227
loop_
_atom_site_label
_atom_site_type_symbol
_atom_site_fract_x
_atom_site_fract_y
_atom_site_fract_z
_atom_type_partial_charge
Li0 Li 0.07572 0.31491 0.36489 0.0
Li1 Li 0.0933 0.33813 0.39366 0.0
Li2 Li 0.10829 0.31902 0.37 0.0
Li3 Li 0.08836 0.30238 0.3921 0.0
C4 C 0.09474 0.35337 0.35486 0.0
N5 N 0.09423 0.382 0.33213 0.0
C6 C 0.08764 0.36972 0.36118 0.0
C7 C 0.10155 0.35154 0.33697 0.0
C8 C 0.08753 0.38406 0.34949 0.0
C9 C 0.10114 0.36617 0.32568 0.0
C10 C 0.05665 0.31803 0.40353 0.0
C11 C 0.04717 0.31786 0.43535 0.0
N12 N 0.03004 0.31892 0.42814 0.0
C13 C 0.03897 0.31916 0.39643 0.0
C14 C 0.06086 0.31746 0.42314 0.0
C15 C 0.02571 0.31959 0.40911 0.0
C16 C 0.04122 0.29382 0.34808 0.0
N17 N 0.05537 0.30903 0.34624 0.0
C18 C 0.03834 0.31618 0.31932 0.0
C19 C 0.0545 0.31973 0.33187 0.0
C20 C 0.02301 0.30161 0.32182 0.0
C21 C 0.02469 0.2898 0.33589 0.0
H22 H 0.04256 0.28545 0.35959 0.0
H23 H 0.06603 0.33138 0.33043 0.0
C24 C 0.11217 0.37509 0.41638 0.0
N25 N 0.09545 0.36236 0.40985 0.0
C26 C 0.11319 0.39325 0.42835 0.0
C27 C 0.07984 0.38456 0.42635 0.0
C28 C 0.07946 0.36689 0.41424 0.0
C29 C 0.09683 0.3978 0.43354 0.0
H30 H 0.12462 0.37114 0.41226 0.0
H31 H 0.06638 0.35698 0.4081 0.0
C32 C 0.08219 0.27905 0.34886 0.0
N33 N 0.06861 0.24877 0.31738 0.0
C34 C 0.07575 0.25955 0.35168 0.0
C35 C 0.08189 0.28317 0.33005 0.0
C36 C 0.06898 0.24443 0.33557 0.0
C37 C 0.07481 0.26766 0.31431 0.0
C38 C 0.12615 0.32724 0.41328 0.0
C39 C 0.14367 0.32555 0.40913 0.0
C40 C 0.12334 0.33349 0.43239 0.0
C41 C 0.15819 0.33017 0.42425 0.0
C42 C 0.13823 0.33803 0.4471 0.0
N43 N 0.15519 0.33628 0.44276 0.0
C44 C 0.13881 0.3364 0.35418 0.0
C45 C 0.12969 0.30106 0.34784 0.0
C46 C 0.152 0.33614 0.34156 0.0
N47 N 0.12796 0.319 0.35675 0.0
C48 C 0.1427 0.30008 0.33519 0.0
C49 C 0.15391 0.31778 0.33187 0.0
H50 H 0.13678 0.35037 0.36145 0.0
H51 H 0.12081 0.28755 0.35039 0.0
C52 C 0.06569 0.27132 0.40333 0.0
N53 N 0.08351 0.28186 0.4057 0.0
C54 C 0.06071 0.25536 0.41276 0.0
C55 C 0.09268 0.26131 0.42659 0.0
C56 C 0.09702 0.27726 0.41692 0.0
C57 C 0.0743 0.25022 0.42456 0.0
H58 H 0.05539 0.27535 0.39404 0.0
H59 H 0.11111 0.28586 0.41822 0.0
O60 O 0.09527 0.33938 0.36627 0.0
O61 O 0.06981 0.31791 0.3913 0.0
O62 O 0.08944 0.29386 0.36447 0.0
O63 O 0.11191 0.32297 0.39859 0.0
H64 H 0.08223 0.37132 0.37493 0.0
H65 H 0.10679 0.33879 0.33171 0.0
H66 H 0.08211 0.39682 0.35422 0.0
H67 H 0.10628 0.3649 0.31176 0.0
H68 H 0.05018 0.31737 0.45056 0.0
H69 H 0.03561 0.31994 0.38134 0.0
H70 H 0.07453 0.31673 0.42885 0.0
H71 H 0.01198 0.32052 0.40383 0.0
H72 H 0.03754 0.32538 0.3084 0.0
H73 H 0.01305 0.27854 0.3383 0.0
H74 H 0.12646 0.40343 0.43368 0.0
H75 H 0.06699 0.38799 0.42991 0.0
H76 H 0.07623 0.25609 0.36614 0.0
H77 H 0.08701 0.29819 0.32765 0.0
H78 H 0.06407 0.22923 0.33753 0.0
H79 H 0.07434 0.27063 0.29967 0.0
H80 H 0.14604 0.32071 0.39439 0.0
H81 H 0.10984 0.33492 0.43578 0.0
H82 H 0.17183 0.32892 0.42126 0.0
H83 H 0.13631 0.34297 0.46197 0.0
H84 H 0.16047 0.35007 0.33927 0.0
H85 H 0.14416 0.28565 0.32835 0.0
H86 H 0.04637 0.24731 0.41103 0.0
H87 H 0.10357 0.25757 0.43535 0.0
Li88 Li 1.00129 0.77086 0.63572 0.0
Li89 Li 0.01322 0.75761 0.66301 0.0
Li90 Li 0.995 0.7352 0.63394 0.0
Li91 Li 0.98047 0.75407 0.65733 0.0
C92 C 0.03226 0.75346 0.62465 0.0
N93 N 0.05918 0.75065 0.60075 0.0
C94 C 0.05077 0.75771 0.63258 0.0
C95 C 0.02739 0.74784 0.60459 0.0
C96 C 0.06419 0.75625 0.62024 0.0
C97 C 0.04123 0.74644 0.59275 0.0
C98 C 0.00584 0.79398 0.67919 0.0
C99 C 0.00898 0.80611 0.71361 0.0
N100 N 0.01851 0.82419 0.71091 0.0
C101 C 0.0155 0.81273 0.67671 0.0
C102 C 1.00237 0.79066 0.69773 0.0
C103 C 0.02185 0.8278 0.69294 0.0
C104 C 0.99295 0.79839 0.61421 0.0
N105 N 0.0068 0.79158 0.62244 0.0
C106 C 0.02968 0.81628 0.61282 0.0
C107 C 0.02487 0.8001 0.62203 0.0
C108 C 0.01568 0.82351 0.60415 0.0
C109 C 0.99715 0.81451 0.60476 0.0
H110 H 0.97875 0.79135 0.61514 0.0
H111 H 0.0355 0.79451 0.6291 0.0
C112 C 0.03789 0.74415 0.68507 0.0
N113 N 0.03363 0.76108 0.68126 0.0
C114 C 0.05396 0.74512 0.69684 0.0
C115 C 0.06137 0.78099 0.70011 0.0
C116 C 0.04488 0.77932 0.68853 0.0
C117 C 0.06622 0.76365 0.70383 0.0
H118 H 0.02935 0.72983 0.67812 0.0
H119 H 0.04174 0.79246 0.68437 0.0
C120 C 0.96306 0.74213 0.61422 0.0
N121 N 0.93442 0.72384 0.58512 0.0
C122 C 0.94637 0.73149 0.61877 0.0
C123 C 0.96519 0.74358 0.59494 0.0
C124 C 0.93206 0.72231 0.60383 0.0
C125 C 0.95054 0.73419 0.58041 0.0
C126 C 0.99278 0.72063 0.67383 0.0
C127 C 0.98984 0.70025 0.66691 0.0
C128 C 0.99563 0.7278 0.69382 0.0
C129 C 0.98995 0.68735 0.68012 0.0
C130 C 0.99569 0.71442 0.70657 0.0
N131 N 0.99288 0.69465 0.69952 0.0
C132 C 0.00982 0.70485 0.62088 0.0
C133 C 0.97884 0.69932 0.60644 0.0
C134 C 0.01131 0.68686 0.61062 0.0
N135 N 0.9939 0.71082 0.6184 0.0
C136 C 0.97967 0.68107 0.59594 0.0
C137 C 0.9961 0.67473 0.59796 0.0
H138 H 0.02135 0.7141 0.63095 0.0
H139 H 0.96616 0.70407 0.60516 0.0
C140 C 0.95442 0.77145 0.67222 0.0
N141 N 0.96054 0.75458 0.67045 0.0
C142 C 0.94138 0.77403 0.68458 0.0
C143 C 0.94127 0.74168 0.69275 0.0
C144 C 0.95398 0.73957 0.67991 0.0
C145 C 0.93502 0.75921 0.69538 0.0
H146 H 0.96011 0.78308 0.66447 0.0
H147 H 0.959 0.72624 0.67796 0.0
O148 O 0.01898 0.75436 0.63662 0.0
O149 O 0.99988 0.77899 0.6635 0.0
O150 O 0.97703 0.75167 0.62864 0.0
O151 O 0.99327 0.73347 0.66103 0.0
H152 H 0.05472 0.76204 0.64811 0.0
H153 H 0.01309 0.74441 0.59829 0.0
H154 H 0.07858 0.7595 0.62617 0.0
H155 H 0.03769 0.74198 0.57719 0.0
H156 H 0.00652 0.80373 0.72807 0.0
H157 H 0.01822 0.81554 0.66242 0.0
H158 H 0.99471 0.7763 0.69983 0.0
H159 H 0.02946 0.84235 0.69127 0.0
H160 H 0.0441 0.82302 0.6124 0.0
H161 H 0.98615 0.82001 0.59817 0.0
H162 H 0.05737 0.73142 0.69933 0.0
H163 H 0.0708 0.79547 0.70482 0.0
H164 H 0.94451 0.73031 0.63366 0.0
H165 H 0.97802 0.7519 0.59126 0.0
H166 H 0.91906 0.71399 0.6071 0.0
H167 H 0.95198 0.73516 0.56541 0.0
H168 H 0.98749 0.69444 0.65149 0.0
H169 H 0.99804 0.74353 0.6994 0.0
H170 H 0.98772 0.67155 0.67496 0.0
H171 H 0.99804 0.71976 0.72208 0.0
H172 H 0.02433 0.68267 0.61242 0.0
H173 H 0.96756 0.67195 0.58653 0.0
H174 H 0.93653 0.78755 0.68584 0.0
H175 H 0.93682 0.72998 0.7009 0.0
Li176 Li 0.57531 0.81592 0.8668 0.0
Li177 Li 0.59512 0.83718 0.89572 0.0
Li178 Li 0.60794 0.81779 0.87032 0.0
Li179 Li 0.58839 0.80134 0.89274 0.0
C180 C 0.5932 0.85219 0.85604 0.0
N181 N 0.58738 0.87776 0.83134 0.0
C182 C 0.58845 0.86987 0.86318 0.0
C183 C 0.59513 0.84755 0.8364 0.0
C184 C 0.58554 0.8826 0.85044 0.0
C185 C 0.59208 0.86065 0.82413 0.0
C186 C 0.55627 0.8156 0.90408 0.0
C187 C 0.54343 0.80993 0.93351 0.0
N188 N 0.5269 0.81184 0.92542 0.0
C189 C 0.53917 0.8175 0.89605 0.0
C190 C 0.55849 0.81187 0.92298 0.0
C191 C 0.52449 0.81556 0.90708 0.0
C192 C 0.54426 0.79235 0.84386 0.0
N193 N 0.55416 0.81151 0.84911 0.0
C194 C 0.5322 0.82271 0.82999 0.0
C195 C 0.54843 0.82666 0.84264 0.0
C196 C 0.52179 0.80302 0.82417 0.0
C197 C 0.52802 0.78769 0.83114 0.0
H198 H 0.54877 0.78071 0.84987 0.0
H199 H 0.55604 0.84182 0.84775 0.0
C200 C 0.61358 0.8765 0.91328 0.0
N201 N 0.5985 0.86133 0.91261 0.0
C202 C 0.61385 0.89555 0.92297 0.0
C203 C 0.58352 0.88246 0.93161 0.0
C204 C 0.58388 0.86386 0.92191 0.0
C205 C 0.59834 0.8986 0.9316 0.0
H206 H 0.62487 0.87401 0.90543 0.0
H207 H 0.57203 0.85176 0.921 0.0
C208 C 0.58481 0.77933 0.84863 0.0
N209 N 0.57846 0.74968 0.81628 0.0
C210 C 0.58221 0.75946 0.85075 0.0
C211 C 0.58422 0.78416 0.8301 0.0
C212 C 0.57903 0.74468 0.83421 0.0
C213 C 0.58097 0.76894 0.81391 0.0
C214 C 0.62718 0.82716 0.91334 0.0
C215 C 0.64522 0.82818 0.90922 0.0
C216 C 0.62388 0.8326 0.93243 0.0
C217 C 0.65976 0.83458 0.92436 0.0
C218 C 0.63881 0.83908 0.94715 0.0
N219 N 0.65628 0.83987 0.94285 0.0
C220 C 0.63626 0.83401 0.85073 0.0
C221 C 0.63112 0.79929 0.85044 0.0
C222 C 0.64962 0.83325 0.83834 0.0
N223 N 0.62726 0.81711 0.85619 0.0
C224 C 0.64434 0.79782 0.83806 0.0
C225 C 0.6536 0.81492 0.83174 0.0
H226 H 0.63278 0.84795 0.85569 0.0
H227 H 0.62375 0.78621 0.8553 0.0
C228 C 0.56597 0.76834 0.90146 0.0
N229 N 0.58332 0.78016 0.90548 0.0
C230 C 0.56101 0.75224 0.91075 0.0
C231 C 0.5921 0.76071 0.92776 0.0
C232 C 0.59641 0.77673 0.91819 0.0
C233 C 0.57417 0.74834 0.92411 0.0
H234 H 0.55599 0.77159 0.89115 0.0
H235 H 0.61013 0.78642 0.92086 0.0
O236 O 0.59622 0.83966 0.86833 0.0
O237 O 0.57099 0.81846 0.8938 0.0
O238 O 0.58745 0.79385 0.86471 0.0
O239 O 0.61282 0.82015 0.89876 0.0
H240 H 0.58687 0.87366 0.87834 0.0
H241 H 0.59897 0.83402 0.83071 0.0
H242 H 0.58178 0.89631 0.85573 0.0
H243 H 0.59347 0.85724 0.80888 0.0
H244 H 0.54492 0.80705 0.94815 0.0
H245 H 0.53732 0.82076 0.88159 0.0
H246 H 0.57174 0.8107 0.92951 0.0
H247 H 0.5112 0.81712 0.90109 0.0
H248 H 0.52751 0.83501 0.82543 0.0
H249 H 0.52028 0.77235 0.82706 0.0
H250 H 0.62545 0.90786 0.92278 0.0
H251 H 0.57144 0.88438 0.93836 0.0
H252 H 0.58259 0.75552 0.86503 0.0
H253 H 0.58605 0.79946 0.82825 0.0
H254 H 0.57697 0.72923 0.83562 0.0
H255 H 0.58038 0.77243 0.79946 0.0
H256 H 0.64794 0.82381 0.89451 0.0
H257 H 0.60995 0.83178 0.93581 0.0
H258 H 0.67379 0.83528 0.92141 0.0
H259 H 0.63652 0.8434 0.96201 0.0
H260 H 0.65649 0.84672 0.8337 0.0
H261 H 0.64738 0.78351 0.83361 0.0
H262 H 0.547 0.74318 0.90777 0.0
H263 H 0.60266 0.75797 0.93778 0.0
Li264 Li 0.50214 0.27125 0.13598 0.0
Li265 Li 0.51382 0.25766 0.16324 0.0
Li266 Li 0.49528 0.2356 0.13408 0.0
Li267 Li 0.48147 0.25459 0.15756 0.0
C268 C 0.53267 0.2537 0.12465 0.0
N269 N 0.55939 0.25126 0.10043 0.0
C270 C 0.55126 0.2583 0.13239 0.0
C271 C 0.52762 0.24793 0.10463 0.0
C272 C 0.56457 0.25702 0.11988 0.0
C273 C 0.54136 0.24672 0.09262 0.0
C274 C 0.50652 0.29449 0.17941 0.0
C275 C 0.50925 0.30681 0.21377 0.0
N276 N 0.51821 0.32508 0.21096 0.0
C277 C 0.5156 0.31342 0.17683 0.0
C278 C 0.50315 0.29117 0.19798 0.0
C279 C 0.52145 0.32868 0.19297 0.0
C280 C 0.49384 0.29847 0.11428 0.0
N281 N 0.50777 0.29192 0.12265 0.0
C282 C 0.53045 0.31656 0.11268 0.0
C283 C 0.52578 0.30058 0.12221 0.0
C284 C 0.51639 0.32369 0.10383 0.0
C285 C 0.49787 0.31452 0.10472 0.0
H286 H 0.47967 0.29133 0.11523 0.0
H287 H 0.53649 0.29518 0.12939 0.0
C288 C 0.53836 0.24384 0.18503 0.0
N289 N 0.53394 0.26081 0.18157 0.0
C290 C 0.55441 0.24483 0.19687 0.0
C291 C 0.56107 0.28079 0.20137 0.0
C292 C 0.54479 0.27909 0.18947 0.0
C293 C 0.5662 0.26347 0.20459 0.0
H294 H 0.52995 0.22955 0.17775 0.0
H295 H 0.54151 0.29228 0.18562 0.0
C296 C 0.46355 0.24278 0.1147 0.0
N297 N 0.43462 0.2242 0.08599 0.0
C298 C 0.44703 0.232 0.11951 0.0
C299 C 0.46535 0.24421 0.09535 0.0
C300 C 0.43257 0.2227 0.10476 0.0
C301 C 0.45057 0.23466 0.08103 0.0
C302 C 0.49264 0.221 0.17408 0.0
C303 C 0.48958 0.20057 0.16739 0.0
C304 C 0.49523 0.22838 0.19401 0.0
C305 C 0.48933 0.18782 0.18081 0.0
C306 C 0.49493 0.21516 0.20697 0.0
N307 N 0.49202 0.19532 0.20015 0.0
C308 C 0.5097 0.20535 0.12148 0.0
C309 C 0.47947 0.20048 0.10518 0.0
C310 C 0.51185 0.18806 0.11048 0.0
N311 N 0.49393 0.21142 0.11832 0.0
C312 C 0.48102 0.18298 0.09377 0.0
C313 C 0.49755 0.17693 0.09616 0.0
H314 H 0.52068 0.21412 0.13251 0.0
H315 H 0.46686 0.20528 0.10335 0.0
C316 C 0.45819 0.27338 0.1747 0.0
N317 N 0.46185 0.25526 0.17058 0.0
C318 C 0.44459 0.27597 0.18615 0.0
C319 C 0.43861 0.24098 0.18846 0.0
C320 C 0.45254 0.23913 0.17706 0.0
C321 C 0.43457 0.2596 0.19301 0.0
H322 H 0.46611 0.28583 0.16934 0.0
H323 H 0.45596 0.22494 0.17342 0.0
O324 O 0.51951 0.25438 0.13679 0.0
O325 O 0.50102 0.27935 0.16378 0.0
O326 O 0.47768 0.25242 0.12892 0.0
O327 O 0.49373 0.23367 0.16109 0.0
H328 H 0.55534 0.26275 0.14789 0.0
H329 H 0.51325 0.24424 0.09849 0.0
H330 H 0.57902 0.26053 0.12565 0.0
H331 H 0.53768 0.24213 0.07709 0.0
H332 H 0.50685 0.30443 0.22825 0.0
H333 H 0.51824 0.31624 0.16252 0.0
H334 H 0.49592 0.2767 0.20018 0.0
H335 H 0.52858 0.34338 0.19121 0.0
H336 H 0.54488 0.32312 0.11213 0.0
H337 H 0.48666 0.31984 0.09834 0.0
H338 H 0.55822 0.23119 0.19888 0.0
H339 H 0.57021 0.29535 0.20664 0.0
H340 H 0.44541 0.23081 0.13443 0.0
H341 H 0.47804 0.25259 0.09146 0.0
H342 H 0.4197 0.21429 0.10824 0.0
H343 H 0.45176 0.23558 0.06597 0.0
H344 H 0.4875 0.1946 0.15201 0.0
H345 H 0.49779 0.24415 0.19941 0.0
H346 H 0.48704 0.17198 0.17583 0.0
H347 H 0.49709 0.22067 0.22244 0.0
H348 H 0.52462 0.18351 0.11305 0.0
H349 H 0.46969 0.1746 0.0829 0.0
H350 H 0.44203 0.29063 0.18972 0.0
H351 H 0.43099 0.22806 0.19343 0.0
Li352 Li 0.07725 0.82226 0.10188 0.0
Li353 Li 0.09666 0.80597 0.12616 0.0
Li354 Li 0.07468 0.78619 0.09661 0.0
Li355 Li 0.06065 0.80064 0.12446 0.0
C356 C 0.1073 0.8025 0.08333 0.0
N357 N 0.12681 0.79077 0.05399 0.0
C358 C 0.12505 0.79997 0.0878 0.0
C359 C 0.09948 0.79921 0.06397 0.0
C360 C 0.13472 0.79407 0.07275 0.0
C361 C 0.10953 0.79315 0.04933 0.0
C362 C 0.08192 0.84185 0.1456 0.0
C363 C 0.0786 0.85556 0.1783 0.0
N364 N 0.08359 0.87419 0.17418 0.0
C365 C 0.08703 0.8611 0.14166 0.0
C366 C 0.07769 0.83899 0.16404 0.0
C367 C 0.0878 0.87727 0.15632 0.0
C368 C 0.05781 0.84788 0.08638 0.0
N369 N 0.07507 0.84485 0.08955 0.0
C370 C 0.08736 0.87295 0.07503 0.0
C371 C 0.08975 0.85694 0.08392 0.0
C372 C 0.06968 0.87657 0.07172 0.0
C373 C 0.05478 0.86357 0.07741 0.0
H374 H 0.0463 0.83812 0.09094 0.0
H375 H 0.10333 0.85422 0.08639 0.0
C376 C 0.12233 0.78689 0.14367 0.0
N377 N 0.1201 0.80542 0.14229 0.0
C378 C 0.13798 0.7842 0.15453 0.0
C379 C 0.14969 0.8197 0.16192 0.0
C380 C 0.13356 0.82174 0.15111 0.0
C381 C 0.15207 0.80068 0.16399 0.0
H382 H 0.11192 0.77398 0.13622 0.0
H383 H 0.13187 0.83642 0.14981 0.0
C384 C 0.04016 0.79388 0.08207 0.0
N385 N 0.01099 0.77985 0.05264 0.0
C386 C 0.02325 0.78288 0.08579 0.0
C387 C 0.04218 0.79791 0.06342 0.0
C388 C 0.00867 0.77591 0.07071 0.0
C389 C 0.02729 0.7906 0.04872 0.0
C390 C 0.07218 0.76593 0.13299 0.0
C391 C 0.06273 0.74709 0.12288 0.0
C392 C 0.07708 0.76891 0.15304 0.0
C393 C 0.05843 0.73144 0.13305 0.0
C394 C 0.07254 0.75288 0.16268 0.0
N395 N 0.06341 0.73463 0.15257 0.0
C396 C 0.08685 0.75376 0.07908 0.0
C397 C 0.05605 0.75247 0.06692 0.0
C398 C 0.08553 0.73477 0.06863 0.0
N399 N 0.07217 0.76214 0.07826 0.0
C400 C 0.05412 0.73349 0.05621 0.0
C401 C 0.06882 0.72417 0.05739 0.0
H402 H 0.09932 0.76142 0.08867 0.0
H403 H 0.04431 0.75888 0.06676 0.0
C404 C 0.03128 0.81286 0.14277 0.0
N405 N 0.03893 0.79711 0.13836 0.0
C406 C 0.0148 0.81067 0.15118 0.0
C407 C 0.01413 0.77603 0.15027 0.0
C408 C 0.03056 0.77887 0.14183 0.0
C409 C 0.00592 0.79203 0.1551 0.0
H410 H 0.03784 0.82714 0.13951 0.0
H411 H 0.0363 0.7663 0.13761 0.0
O412 O 0.09775 0.80839 0.0979 0.0
O413 O 0.08076 0.82589 0.13133 0.0
O414 O 0.05463 0.80061 0.09661 0.0
O415 O 0.07673 0.78138 0.12332 0.0
H416 H 0.13131 0.8026 0.10274 0.0
H417 H 0.08576 0.80112 0.06031 0.0
H418 H 0.1485 0.79211 0.07598 0.0
H419 H 0.10361 0.79037 0.03428 0.0
H420 H 0.0753 0.85361 0.19265 0.0
H421 H 0.09038 0.86352 0.12745 0.0
H422 H 0.07365 0.82413 0.16722 0.0
H423 H 0.09173 0.89227 0.15349 0.0
H424 H 0.09928 0.88231 0.07068 0.0
H425 H 0.04094 0.86576 0.07543 0.0
H426 H 0.13913 0.76921 0.15523 0.0
H427 H 0.16002 0.83293 0.1689 0.0
H428 H 0.02144 0.77963 0.10013 0.0
H429 H 0.05513 0.80648 0.06032 0.0
H430 H 0.99553 0.76733 0.07337 0.0
H431 H 0.02869 0.79348 0.03419 0.0
H432 H 0.05865 0.74457 0.10739 0.0
H433 H 0.08435 0.78346 0.16103 0.0
H434 H 0.05114 0.71677 0.12542 0.0
H435 H 0.0763 0.75493 0.17819 0.0
H436 H 0.09712 0.72807 0.07028 0.0
H437 H 0.04102 0.72595 0.04762 0.0
H438 H 0.00917 0.82353 0.15472 0.0
H439 H 0.00771 0.76127 0.15254 0.0
Li440 Li 0.51654 0.78671 0.4311 0.0
Li441 Li 0.49431 0.76688 0.4015 0.0
Li442 Li 0.51318 0.75034 0.42628 0.0
Li443 Li 0.53011 0.77086 0.40346 0.0
C444 C 0.48251 0.76821 0.44416 0.0
N445 N 0.46141 0.77612 0.47329 0.0
C446 C 0.46599 0.7737 0.43991 0.0
C447 C 0.48816 0.76639 0.46312 0.0
C448 C 0.45556 0.77772 0.45487 0.0
C449 C 0.47733 0.77056 0.47768 0.0
C450 C 0.51889 0.80689 0.39518 0.0
C451 C 0.52811 0.82144 0.36767 0.0
N452 N 0.52644 0.83935 0.37696 0.0
C453 C 0.51707 0.82538 0.40438 0.0
C454 C 0.52429 0.80482 0.37661 0.0
C455 C 0.52103 0.84164 0.39496 0.0
C456 C 0.53763 0.82403 0.45189 0.0
N457 N 0.52067 0.8112 0.44921 0.0
C458 C 0.50821 0.83579 0.46721 0.0
C459 C 0.50617 0.8167 0.45686 0.0
C460 C 0.52527 0.84959 0.46942 0.0
C461 C 0.5403 0.8434 0.46216 0.0
H462 H 0.54883 0.81963 0.44512 0.0
H463 H 0.49269 0.80683 0.45403 0.0
C464 C 0.45457 0.75357 0.38383 0.0
N465 N 0.47094 0.76729 0.38507 0.0
C466 C 0.4384 0.75544 0.37297 0.0
C467 C 0.45597 0.78549 0.36487 0.0
C468 C 0.47167 0.78307 0.3758 0.0
C469 C 0.43887 0.77159 0.36312 0.0
H470 H 0.45393 0.7412 0.39141 0.0
H471 H 0.48445 0.7941 0.377 0.0
C472 C 0.55035 0.77967 0.44619 0.0
N473 N 0.57916 0.79496 0.47587 0.0
C474 C 0.5686 0.78327 0.44213 0.0
C475 C 0.54676 0.78366 0.46539 0.0
C476 C 0.58297 0.79101 0.45732 0.0
C477 C 0.56152 0.79149 0.48018 0.0
C478 C 0.51133 0.73121 0.38262 0.0
C479 C 0.51908 0.71604 0.38764 0.0
C480 C 0.50582 0.73131 0.36316 0.0
C481 C 0.52126 0.70116 0.37298 0.0
C482 C 0.50828 0.71618 0.34892 0.0
N483 N 0.51587 0.70154 0.35409 0.0
C484 C 0.50068 0.71113 0.43655 0.0
C485 C 0.53085 0.72906 0.45022 0.0
C486 C 0.50291 0.69483 0.44504 0.0
N487 N 0.51463 0.72783 0.43914 0.0
C488 C 0.53363 0.71323 0.45901 0.0
C489 C 0.51966 0.69563 0.45635 0.0
H490 H 0.48793 0.71032 0.42762 0.0
H491 H 0.54197 0.74215 0.45189 0.0
C492 C 0.56352 0.79294 0.39249 0.0
N493 N 0.55193 0.77448 0.38969 0.0
C494 C 0.58016 0.79604 0.38437 0.0
C495 C 0.57274 0.76115 0.37046 0.0
C496 C 0.55634 0.75872 0.37891 0.0
C497 C 0.58511 0.77998 0.37322 0.0
H498 H 0.56007 0.80524 0.4015 0.0
H499 H 0.54732 0.74409 0.37704 0.0
O500 O 0.49321 0.76501 0.42984 0.0
O501 O 0.51511 0.79079 0.40413 0.0
O502 O 0.53615 0.77175 0.43146 0.0
O503 O 0.50896 0.74579 0.39673 0.0
H504 H 0.46149 0.77523 0.4253 0.0
H505 H 0.50083 0.76199 0.46657 0.0
H506 H 0.44285 0.78221 0.45185 0.0
H507 H 0.48159 0.76941 0.49247 0.0
H508 H 0.53238 0.82009 0.35333 0.0
H509 H 0.51245 0.82716 0.41852 0.0
H510 H 0.52548 0.79051 0.3692 0.0
H511 H 0.51972 0.85605 0.40193 0.0
H512 H 0.4963 0.83998 0.47268 0.0
H513 H 0.55363 0.85372 0.46334 0.0
H514 H 0.42573 0.74417 0.37214 0.0
H515 H 0.45728 0.79849 0.35811 0.0
H516 H 0.57168 0.77985 0.42743 0.0
H517 H 0.53274 0.78085 0.46881 0.0
H518 H 0.59715 0.79382 0.45437 0.0
H519 H 0.55894 0.79477 0.49509 0.0
H520 H 0.52347 0.71583 0.40265 0.0
H521 H 0.49978 0.74299 0.35912 0.0
H522 H 0.52727 0.68933 0.37662 0.0
H523 H 0.50413 0.71606 0.33377 0.0
H524 H 0.4916 0.68171 0.44271 0.0
H525 H 0.54689 0.71457 0.46726 0.0
H526 H 0.58924 0.8108 0.38728 0.0
H527 H 0.57562 0.74829 0.36178 0.0
Li528 Li 0.5766 0.32247 0.60143 0.0
Li529 Li 0.59601 0.30657 0.62572 0.0
Li530 Li 0.57439 0.28656 0.59631 0.0
Li531 Li 0.56005 0.30071 0.62402 0.0
C532 C 0.60666 0.30248 0.58301 0.0
N533 N 0.6258 0.28961 0.55378 0.0
C534 C 0.62439 0.29988 0.58751 0.0
C535 C 0.5987 0.29872 0.56366 0.0
C536 C 0.63386 0.29339 0.57252 0.0
C537 C 0.60856 0.29208 0.54909 0.0
C538 C 0.58158 0.34208 0.6453 0.0
C539 C 0.57876 0.35572 0.67818 0.0
N540 N 0.58446 0.37438 0.67432 0.0
C541 C 0.58743 0.36135 0.64162 0.0
C542 C 0.57721 0.33917 0.66368 0.0
C543 C 0.5888 0.3775 0.6565 0.0
C544 C 0.55722 0.34807 0.58587 0.0
N545 N 0.57446 0.34505 0.58921 0.0
C546 C 0.587 0.37332 0.57506 0.0
C547 C 0.58925 0.35723 0.58386 0.0
C548 C 0.56934 0.37692 0.57155 0.0
C549 C 0.55432 0.36384 0.57697 0.0
H550 H 0.54564 0.33824 0.59023 0.0
H551 H 0.60281 0.3545 0.5865 0.0
C552 C 0.6241 0.28852 0.63894 0.0
N553 N 0.61926 0.30626 0.64191 0.0
C554 C 0.63993 0.2858 0.64942 0.0
C555 C 0.64605 0.31974 0.66598 0.0
C556 C 0.62998 0.32181 0.65515 0.0
C557 C 0.65128 0.30145 0.66336 0.0
H558 H 0.6156 0.27631 0.62831 0.0
H559 H 0.62605 0.33585 0.65746 0.0
C560 C 0.53961 0.29353 0.58165 0.0
N561 N 0.51033 0.27897 0.55242 0.0
C562 C 0.52312 0.28164 0.58534 0.0
C563 C 0.54118 0.29813 0.56314 0.0
C564 C 0.50847 0.27443 0.57037 0.0
C565 C 0.52623 0.29055 0.54853 0.0
C566 C 0.57272 0.26604 0.63223 0.0
C567 C 0.56185 0.24774 0.62228 0.0
C568 C 0.57983 0.26807 0.65166 0.0
C569 C 0.55838 0.23165 0.63199 0.0
C570 C 0.576 0.25164 0.66087 0.0
N571 N 0.56546 0.23392 0.65092 0.0
C572 C 0.58653 0.25365 0.58041 0.0
C573 C 0.55686 0.25326 0.56546 0.0
C574 C 0.58548 0.23469 0.57008 0.0
N575 N 0.57224 0.26245 0.57818 0.0
C576 C 0.55523 0.23432 0.55479 0.0
C577 C 0.56946 0.22456 0.55739 0.0
H578 H 0.59843 0.26104 0.59093 0.0
H579 H 0.54546 0.26009 0.564 0.0
C580 C 0.52845 0.31118 0.63784 0.0
N581 N 0.5384 0.29716 0.63789 0.0
C582 C 0.51192 0.3091 0.64609 0.0
C583 C 0.51598 0.27814 0.65439 0.0
C584 C 0.5324 0.28078 0.64589 0.0
C585 C 0.50538 0.2924 0.65462 0.0
H586 H 0.53321 0.32387 0.63103 0.0
H587 H 0.54019 0.26957 0.64559 0.0
O588 O 0.59731 0.30895 0.59752 0.0
O589 O 0.57983 0.32615 0.63082 0.0
O590 O 0.5541 0.30065 0.59612 0.0
O591 O 0.57645 0.28193 0.62303 0.0
H592 H 0.63081 0.30297 0.60241 0.0
H593 H 0.585 0.30071 0.55997 0.0
H594 H 0.64761 0.29136 0.57578 0.0
H595 H 0.60252 0.28893 0.53405 0.0
H596 H 0.57539 0.35374 0.69249 0.0
H597 H 0.59086 0.36379 0.62744 0.0
H598 H 0.5726 0.32429 0.66665 0.0
H599 H 0.59329 0.39252 0.65388 0.0
H600 H 0.59899 0.38275 0.57092 0.0
H601 H 0.54049 0.36603 0.57483 0.0
H602 H 0.64328 0.2715 0.64638 0.0
H603 H 0.65407 0.33228 0.67658 0.0
H604 H 0.52169 0.27794 0.59959 0.0
H605 H 0.55383 0.30732 0.56006 0.0
H606 H 0.49564 0.26519 0.573 0.0
H607 H 0.52728 0.29386 0.53411 0.0
H608 H 0.55607 0.246 0.60729 0.0
H609 H 0.58817 0.28222 0.65954 0.0
H610 H 0.55003 0.21737 0.62448 0.0
H611 H 0.58139 0.25298 0.67592 0.0
H612 H 0.59669 0.22767 0.57283 0.0
H613 H 0.54271 0.2272 0.54501 0.0
H614 H 0.5042 0.32035 0.64544 0.0
H615 H 0.51177 0.2651 0.66087 0.0
Li616 Li 0.0166 0.2866 0.9314 0.0
Li617 Li 0.99428 0.2671 0.90189 0.0
Li618 Li 0.01323 0.2502 0.92634 0.0
Li619 Li 0.02994 0.27089 0.90352 0.0
C620 C 0.98256 0.26828 0.94442 0.0
N621 N 0.96138 0.27662 0.97335 0.0
C622 C 0.96596 0.27352 0.93994 0.0
C623 C 0.98823 0.26689 0.96351 0.0
C624 C 0.95549 0.27778 0.9548 0.0
C625 C 0.97736 0.27127 0.97796 0.0
C626 C 0.01801 0.30649 0.89485 0.0
C627 C 0.02521 0.31977 0.86612 0.0
N628 N 0.02453 0.33809 0.87537 0.0
C629 C 0.01728 0.32541 0.90405 0.0
C630 C 0.02187 0.30357 0.87571 0.0
C631 C 0.02063 0.3412 0.89396 0.0
C632 C 0.03774 0.32376 0.95281 0.0
N633 N 0.02069 0.31105 0.94944 0.0
C634 C 0.00764 0.33598 0.96591 0.0
C635 C 0.00584 0.31677 0.95602 0.0
C636 C 0.02481 0.34961 0.96877 0.0
C637 C 0.04017 0.34323 0.96271 0.0
H638 H 0.04922 0.31922 0.94675 0.0
H639 H 0.99232 0.30705 0.95247 0.0
C640 C 0.95702 0.25174 0.87823 0.0
N641 N 0.97083 0.26811 0.886 0.0
C642 C 0.94064 0.25356 0.86778 0.0
C643 C 0.95275 0.28897 0.87332 0.0
C644 C 0.96877 0.2865 0.88374 0.0
C645 C 0.93815 0.27242 0.86507 0.0
H646 H 0.95856 0.2372 0.88026 0.0
H647 H 0.97957 0.29947 0.89015 0.0
C648 C 0.05042 0.27935 0.94617 0.0
N649 N 0.07929 0.29453 0.9758 0.0
C650 C 0.06864 0.28335 0.94201 0.0
C651 C 0.0469 0.28289 0.96544 0.0
C652 C 0.08304 0.29101 0.95719 0.0
C653 C 0.06168 0.29068 0.9802 0.0
C654 C 0.01131 0.23142 0.8826 0.0
C655 C 0.01898 0.21618 0.8876 0.0
C656 C 0.00599 0.23167 0.86314 0.0
C657 C 0.02129 0.2014 0.87292 0.0
C658 C 0.00855 0.21662 0.84888 0.0
N659 N 0.01608 0.20193 0.85402 0.0
C660 C 1.00044 0.21147 0.93762 0.0
C661 C 0.03144 0.22823 0.94907 0.0
C662 C 1.00261 0.19513 0.94609 0.0
N663 N 0.01481 0.2276 0.93912 0.0
C664 C 0.0342 0.21232 0.9578 0.0
C665 C 0.01976 0.19528 0.95625 0.0
H666 H 0.98734 0.21113 0.9296 0.0
H667 H 0.04286 0.24088 0.94989 0.0
C668 C 0.06272 0.29337 0.89176 0.0
N669 N 0.05168 0.27468 0.88967 0.0
C670 C 0.07938 0.29664 0.8837 0.0
C671 C 0.07312 0.26147 0.87133 0.0
C672 C 0.05667 0.25886 0.87971 0.0
C673 C 0.08493 0.28055 0.87334 0.0
H674 H 0.05884 0.30573 0.90019 0.0
H675 H 0.04811 0.24408 0.87848 0.0
O676 O 0.99332 0.26492 0.93019 0.0
O677 O 0.01504 0.29092 0.90456 0.0
O678 O 0.03619 0.2716 0.93146 0.0
O679 O 0.00875 0.24584 0.89675 0.0
H680 H 0.96141 0.27466 0.92521 0.0
H681 H 1.00095 0.26264 0.96713 0.0
H682 H 0.94274 0.28211 0.95161 0.0
H683 H 0.98165 0.27045 0.99284 0.0
H684 H 0.02834 0.31778 0.85133 0.0
H685 H 0.01399 0.32789 0.91873 0.0
H686 H 0.02241 0.28897 0.8684 0.0
H687 H 0.02011 0.35592 0.90091 0.0
H688 H 0.99548 0.34045 0.97036 0.0
H689 H 0.05359 0.35352 0.96442 0.0
H690 H 0.92991 0.24023 0.86218 0.0
H691 H 0.95201 0.30385 0.87165 0.0
H692 H 0.07165 0.28036 0.92725 0.0
H693 H 0.03291 0.27983 0.96893 0.0
H694 H 0.0972 0.29412 0.95416 0.0
H695 H 0.05916 0.29365 0.99515 0.0
H696 H 0.02321 0.21584 0.90262 0.0
H697 H 0.99998 0.24337 0.85912 0.0
H698 H 0.02725 0.18953 0.87655 0.0
H699 H 1.00454 0.21661 0.83372 0.0
H700 H 0.99094 0.1825 0.94465 0.0
H701 H 0.04776 0.21318 0.96512 0.0
H702 H 0.08803 0.3116 0.88604 0.0
H703 H 0.07649 0.24855 0.86331 0.0
Li704 Li 0.43362 0.02761 0.30218 0.0
Li705 Li 0.40973 0.00723 0.27774 0.0
Li706 Li 0.43677 0.02693 0.2688 0.0
Li707 Li 0.41333 0.0418 0.28217 0.0
C708 C 0.44529 0.99232 0.28572 0.0
N709 N 0.46647 0.96518 0.28879 0.0
C710 C 0.43691 0.97268 0.28677 0.0
C711 C 0.46444 0.99822 0.28636 0.0
C712 C 0.44786 0.95917 0.28831 0.0
C713 C 0.47491 0.98425 0.28789 0.0
C714 C 0.39304 0.01713 0.31171 0.0
C715 C 0.3615 0.01166 0.31846 0.0
N716 N 0.36576 1.00228 0.33315 0.0
C717 C 0.39709 0.00744 0.32686 0.0
C718 C 0.37512 0.01935 0.30749 0.0
C719 C 0.38312 1.00004 0.33754 0.0
C720 C 0.45662 0.04792 0.33485 0.0
N721 N 0.44707 0.02964 0.32541 0.0
C722 C 0.45981 0.01375 0.34868 0.0
C723 C 0.44829 0.01272 0.3319 0.0
C724 C 0.46999 0.0324 0.35866 0.0
C725 C 0.4683 0.04968 0.35178 0.0
H726 H 0.45535 0.06101 0.32903 0.0
H727 H 0.44035 0.99846 0.32402 0.0
C728 C 0.39967 0.97311 0.25218 0.0
N729 N 0.39461 0.98267 0.26844 0.0
C730 C 0.39024 0.95382 0.24403 0.0
C731 C 0.37031 0.95507 0.26935 0.0
C732 C 0.38018 0.97422 0.27704 0.0
C733 C 0.37559 0.9448 0.25288 0.0
H734 H 0.41129 0.9804 0.24583 0.0
H735 H 0.37659 0.98199 0.29001 0.0
C736 C 0.45526 0.0644 0.28561 0.0
N737 N 0.48514 0.09177 0.27791 0.0
C738 C 0.4526 0.08091 0.27794 0.0
C739 C 0.4731 0.0619 0.28959 0.0
C740 C 0.46789 0.09457 0.27411 0.0
C741 C 0.48803 0.07587 0.28551 0.0
C742 C 0.39776 0.01601 0.24287 0.0
C743 C 0.40211 0.01055 0.2242 0.0
C744 C 0.37929 0.01298 0.24611 0.0
C745 C 0.38786 1.00195 0.20905 0.0
C746 C 0.36544 1.00422 0.23059 0.0
N747 N 0.36998 0.99894 0.21253 0.0
C748 C 0.45006 1.00534 0.24215 0.0
C749 C 0.45965 0.03973 0.24092 0.0
C750 C 0.45758 1.00025 0.22552 0.0
N751 N 0.45128 0.02472 0.24951 0.0
C752 C 0.46744 0.0353 0.22409 0.0
C753 C 0.46605 0.0153 0.2162 0.0
H754 H 0.44244 0.9937 0.24862 0.0
H755 H 0.45949 0.05491 0.24647 0.0
C756 C 0.39221 0.06762 0.29465 0.0
N757 N 0.40086 0.06044 0.28003 0.0
C758 C 0.38154 0.08089 0.29155 0.0
C759 C 0.3892 0.07879 0.25855 0.0
C760 C 0.39966 0.06562 0.26229 0.0
C761 C 0.38007 0.08651 0.27331 0.0
H762 H 0.39349 0.06287 0.3085 0.0
H763 H 0.40686 0.05947 0.25112 0.0
O764 O 0.43463 1.00534 0.28289 0.0
O765 O 0.40671 0.0251 0.30158 0.0
O766 O 0.44048 0.05102 0.28961 0.0
O767 O 0.41159 0.02411 0.2579 0.0
H768 H 0.42211 0.96788 0.28631 0.0
H769 H 0.47108 0.01332 0.28531 0.0
H770 H 0.44155 0.94389 0.28904 0.0
H771 H 0.48973 0.98854 0.28823 0.0
H772 H 0.34756 0.01319 0.31532 0.0
H773 H 0.41085 1.00571 0.33043 0.0
H774 H 0.37174 0.02683 0.29582 0.0
H775 H 0.38609 0.99256 0.34935 0.0
H776 H 0.46065 1.00018 0.35386 0.0
H777 H 0.47615 0.06426 0.35918 0.0
H778 H 0.39457 0.94593 0.23145 0.0
H779 H 0.35908 0.94801 0.27654 0.0
H780 H 0.43888 0.08314 0.27498 0.0
H781 H 0.47536 0.0493 0.29574 0.0
H782 H 0.46604 0.10739 0.26811 0.0
H783 H 0.50192 0.07409 0.2884 0.0
H784 H 0.41634 0.01289 0.22145 0.0
H785 H 0.37573 0.01711 0.2605 0.0
H786 H 0.39103 0.99763 0.19452 0.0
H787 H 0.35109 1.00159 0.23289 0.0
H788 H 0.45632 0.98469 0.21971 0.0
H789 H 0.47367 0.04719 0.21686 0.0
H790 H 0.37452 0.08664 0.30316 0.0
H791 H 0.38858 0.08318 0.24445 0.0
Li792 Li 0.28872 0.20713 0.51766 0.0
Li793 Li 0.30131 0.17971 0.50179 0.0
Li794 Li 0.28728 0.20183 0.48159 0.0
Li795 Li 0.26594 0.17597 0.49848 0.0
C796 C 0.32473 0.22389 0.50803 0.0
N797 N 0.35561 0.25466 0.5212 0.0
C798 C 0.34048 0.22027 0.51759 0.0
C799 C 0.32477 0.24311 0.50498 0.0
C800 C 0.35593 0.23603 0.52416 0.0
C801 C 0.34048 0.25849 0.51183 0.0
C802 C 0.28493 0.16849 0.53598 0.0
C803 C 0.27924 0.1368 0.54636 0.0
N804 N 0.28681 0.14609 0.56469 0.0
C805 C 0.29264 0.17775 0.55489 0.0
C806 C 0.27819 0.14788 0.53162 0.0
C807 C 0.29349 0.16616 0.56921 0.0
C808 C 0.27527 0.22634 0.54949 0.0
N809 N 0.29115 0.22525 0.54187 0.0
C810 C 0.3091 0.24362 0.57164 0.0
C811 C 0.30791 0.23391 0.55247 0.0
C812 C 0.29289 0.24436 0.58007 0.0
C813 C 0.27582 0.23603 0.56853 0.0
H814 H 0.26212 0.2187 0.54115 0.0
H815 H 0.32037 0.23232 0.54655 0.0
C816 C 0.33067 0.16323 0.48888 0.0
N817 N 0.32125 0.16631 0.50428 0.0
C818 C 0.34587 0.15476 0.49044 0.0
C819 C 0.34152 0.15274 0.52369 0.0
C820 C 0.32657 0.16147 0.52155 0.0
C821 C 0.35149 0.14922 0.50802 0.0
H822 H 0.32655 0.16764 0.47541 0.0
H823 H 0.31944 0.16458 0.53386 0.0
C824 C 0.25747 0.21886 0.5011 0.0
N825 N 0.23814 0.24771 0.50887 0.0
C826 C 0.23845 0.21339 0.50155 0.0
C827 C 0.2667 0.23893 0.50453 0.0
C828 C 0.2289 0.22822 0.50545 0.0
C829 C 0.25668 0.25331 0.50854 0.0
C830 C 0.28056 0.15693 0.46236 0.0
C831 C 0.27556 0.16004 0.44369 0.0
C832 C 0.28395 0.13869 0.46501 0.0
C833 C 0.27409 0.14479 0.42788 0.0
C834 C 0.28235 0.12379 0.44881 0.0
N835 N 0.2775 0.12713 0.43074 0.0
C836 C 0.30592 0.21955 0.45247 0.0
C837 C 0.27361 0.21593 0.44801 0.0
C838 C 0.30771 0.22752 0.43546 0.0
N839 N 0.28905 0.21384 0.45839 0.0
C840 C 0.27476 0.22371 0.43081 0.0
C841 C 0.29199 0.2296 0.42421 0.0
H842 H 0.31803 0.21771 0.46087 0.0
H843 H 0.26033 0.21131 0.45296 0.0
C844 C 0.23523 0.15701 0.51618 0.0
N845 N 0.24121 0.15856 0.49862 0.0
C846 C 0.21761 0.14545 0.51753 0.0
C847 C 0.21217 0.13743 0.48264 0.0
C848 C 0.23 0.14901 0.48198 0.0
C849 C 0.20557 0.13538 0.50062 0.0
H850 H 0.24416 0.16486 0.5293 0.0
H851 H 0.23478 0.15056 0.4681 0.0
O852 O 0.30954 0.2086 0.50133 0.0
O853 O 0.28404 0.17956 0.52177 0.0
O854 O 0.26699 0.20452 0.49753 0.0
O855 O 0.2826 0.1719 0.47791 0.0
H856 H 0.34073 0.20547 0.51999 0.0
H857 H 0.3128 0.24611 0.49737 0.0
H858 H 0.36819 0.23346 0.53164 0.0
H859 H 0.34068 0.27345 0.50965 0.0
H860 H 0.27406 0.12082 0.54323 0.0
H861 H 0.29803 0.19368 0.55848 0.0
H862 H 0.27223 0.14054 0.517 0.0
H863 H 0.29947 0.1731 0.58391 0.0
H864 H 0.32256 0.24985 0.57999 0.0
H865 H 0.26298 0.23587 0.57451 0.0
H866 H 0.35329 0.15289 0.47803 0.0
H867 H 0.34505 0.14866 0.5375 0.0
H868 H 0.23117 0.19787 0.4989 0.0
H869 H 0.28145 0.24331 0.50437 0.0
H870 H 0.21415 0.22424 0.50579 0.0
H871 H 0.26363 0.26893 0.51139 0.0
H872 H 0.27288 0.17408 0.44142 0.0
H873 H 0.28791 0.13613 0.4794 0.0
H874 H 0.27027 0.147 0.41333 0.0
H875 H 0.28499 0.1096 0.45059 0.0
H876 H 0.32129 0.23161 0.43096 0.0
H877 H 0.26227 0.22525 0.42287 0.0
H878 H 0.21362 0.14434 0.5318 0.0
H879 H 0.20356 0.13048 0.46908 0.0
Li880 Li 0.17693 0.03359 0.7721 0.0
Li881 Li 0.14956 0.01085 0.78951 0.0
Li882 Li 0.17343 0.99167 0.76863 0.0
Li883 Li 0.14858 0.00808 0.75047 0.0
C884 C 0.19097 0.0199 0.80884 0.0
N885 N 0.21651 0.02881 0.84162 0.0
C886 C 0.18642 0.02798 0.82666 0.0
C887 C 0.20849 0.01643 0.8076 0.0
C888 C 0.19953 0.03237 0.84309 0.0
C889 C 0.22122 0.02102 0.82436 0.0
C890 C 0.13685 0.0423 0.76932 0.0
C891 C 0.10543 0.04389 0.76093 0.0
N892 N 0.11106 0.06405 0.7635 0.0
C893 C 0.14236 0.06299 0.77183 0.0
C894 C 0.11827 0.03262 0.76385 0.0
C895 C 0.12909 0.07374 0.76887 0.0
C896 C 0.19307 0.06977 0.75475 0.0
N897 N 0.1928 0.06291 0.77196 0.0
C898 C 0.211 0.09595 0.78791 0.0
C899 C 0.2017 0.07592 0.7884 0.0
C900 C 0.21161 0.10361 0.77033 0.0
C901 C 0.20228 0.08962 0.75361 0.0
H902 H 0.18591 0.05984 0.74162 0.0
H903 H 0.20141 0.07096 0.80221 0.0
C904 C 0.13263 0.99718 0.82571 0.0
N905 N 0.13537 0.01226 0.81518 0.0
C906 C 0.1239 0.99841 0.84305 0.0
C907 C 0.12044 0.03059 0.83911 0.0
C908 C 0.12921 0.02877 0.82185 0.0
C909 C 0.11752 0.01538 0.85051 0.0
H910 H 0.13731 0.98395 0.82082 0.0
H911 H 0.13122 0.04095 0.81391 0.0
C912 C 0.18376 0.00985 0.73243 0.0
N913 N 0.19931 0.00747 0.69828 0.0
C914 C 0.17405 0.99695 0.71573 0.0
C915 C 0.2014 0.02141 0.73186 0.0
C916 C 0.18211 0.99606 0.69855 0.0
C917 C 0.20906 0.01996 0.71446 0.0
C918 C 0.13006 0.97029 0.75961 0.0
C919 C 0.13293 0.9532 0.74843 0.0
C920 C 0.11217 0.97132 0.76297 0.0
C921 C 0.1178 0.93736 0.74078 0.0
C922 C 0.09739 0.95521 0.75496 0.0
N923 N 0.10049 0.93869 0.74416 0.0
C924 C 0.19576 0.96257 0.78379 0.0
C925 C 0.18855 0.95526 0.75001 0.0
C926 C 0.20491 0.94657 0.78331 0.0
N927 N 0.18765 0.96707 0.7673 0.0
C928 C 0.19742 0.939 0.74895 0.0
C929 C 0.20607 0.93406 0.76572 0.0
H930 H 0.19519 0.97136 0.7977 0.0
H931 H 0.18231 0.95828 0.73669 0.0
C932 C 0.13562 0.02669 0.71845 0.0
N933 N 0.13321 0.00856 0.72402 0.0
C934 C 0.12683 0.02916 0.7006 0.0
C935 C 0.11294 0.99424 0.69361 0.0
C936 C 0.12188 0.99244 0.71179 0.0
C937 C 0.11526 0.01285 0.68735 0.0
H938 H 0.1446 0.03954 0.7279 0.0
H939 H 0.11992 0.97794 0.71587 0.0
O940 O 0.17816 0.01494 0.79276 0.0
O941 O 0.14965 0.03155 0.77202 0.0
O942 O 0.17602 0.01129 0.74928 0.0
O943 O 0.14474 0.98576 0.76756 0.0
H944 H 0.17288 0.03075 0.8278 0.0
H945 H 0.21215 0.01013 0.79385 0.0
H946 H 0.19619 0.03856 0.85702 0.0
H947 H 0.23484 0.01835 0.82367 0.0
H948 H 0.091 0.03661 0.75659 0.0
H949 H 0.15672 0.07065 0.77608 0.0
H950 H 0.11386 0.01658 0.76169 0.0
H951 H 0.13313 0.08978 0.77082 0.0
H952 H 0.21737 0.10535 0.80156 0.0
H953 H 0.202 0.09374 0.73944 0.0
H954 H 0.12211 0.98583 0.85042 0.0
H955 H 0.11631 0.04425 0.84355 0.0
H956 H 0.16045 0.98775 0.71602 0.0
H957 H 0.2091 0.03138 0.74475 0.0
H958 H 0.17472 0.98627 0.68545 0.0
H959 H 0.22272 0.02879 0.71379 0.0
H960 H 0.14671 0.95215 0.74579 0.0
H961 H 0.10974 0.98436 0.77178 0.0
H962 H 0.11982 0.924 0.73218 0.0
H963 H 0.08346 0.9558 0.75742 0.0
H964 H 0.2108 0.94391 0.79696 0.0
H965 H 0.19766 0.93051 0.73478 0.0
H966 H 0.12918 0.04404 0.69745 0.0
H967 H 0.10454 0.98086 0.68445 0.0
Li968 Li 0.29437 0.93548 0.00801 0.0
Li969 Li 0.31001 0.91266 0.02146 0.0
Li970 Li 0.32753 0.94209 0.01147 0.0
Li971 Li 0.31014 0.91305 0.98761 0.0
C972 C 0.31628 0.95455 0.04823 0.0
N973 N 0.32895 0.98362 0.0809 0.0
C974 C 0.32025 0.94927 0.06622 0.0
C975 C 0.31841 0.97459 0.04691 0.0
C976 C 0.32669 0.96419 0.08256 0.0
C977 C 0.32496 0.98908 0.06359 0.0
C978 C 0.27513 0.89004 1.00365 0.0
C979 C 0.26345 0.85465 1.00056 0.0
N980 N 0.24793 0.8578 0.00785 0.0
C981 C 0.25906 0.89296 0.01105 0.0
C982 C 0.27734 0.87076 0.99826 0.0
C983 C 0.24546 0.87645 0.01308 0.0
C984 C 0.26477 0.94946 0.99391 0.0
N985 N 0.27494 0.94718 0.00997 0.0
C986 C 0.25723 0.96286 0.03092 0.0
C987 C 0.27142 0.95343 0.02821 0.0
C988 C 0.24649 0.9653 0.01465 0.0
C989 C 0.25014 0.95851 0.99595 0.0
H990 H 0.26802 0.94419 0.97965 0.0
H991 H 0.27951 0.95094 0.04063 0.0
C992 C 0.32908 0.8993 0.04754 0.0
N993 N 0.31132 0.89743 0.04018 0.0
C994 C 0.33303 0.88932 0.06213 0.0
C995 C 0.30019 0.87674 0.06241 0.0
C996 C 0.29685 0.88664 0.04729 0.0
C997 C 0.31849 0.87806 0.0697 0.0
H998 H 0.34017 0.90916 0.04257 0.0
H999 H 0.28287 0.88625 0.04177 0.0
C1000 C 0.31711 0.95519 0.97691 0.0
N1001 N 0.33157 0.98314 0.95527 0.0
C1002 C 0.32411 0.94938 0.95974 0.0
C1003 C 0.31718 0.97514 0.98294 0.0
C1004 C 0.33142 0.96375 0.94904 0.0
C1005 C 0.32465 0.98907 0.97183 0.0
C1006 C 0.34333 0.90363 0.0051 0.0
C1007 C 0.36219 0.9122 0.00624 0.0
C1008 C 0.33708 0.88303 1.00309 0.0
C1009 C 0.37455 0.89995 0.00536 0.0
C1010 C 0.34989 0.87129 1.00235 0.0
N1011 N 0.36819 0.87992 1.00349 0.0
C1012 C 0.3574 0.96662 0.03704 0.0
C1013 C 0.35823 0.97016 1.0042 0.0
C1014 C 0.37369 0.98118 0.04272 0.0
N1015 N 0.34969 0.96187 0.01817 0.0
C1016 C 0.37488 0.98427 0.00908 0.0
C1017 C 0.38296 0.98982 0.02857 0.0
H1018 H 0.35135 0.95863 0.04768 0.0
H1019 H 0.35275 0.96511 0.98916 0.0
C1020 C 0.29344 0.8853 0.9548 0.0
N1021 N 0.30983 0.89666 0.96427 0.0
C1022 C 0.29303 0.87207 0.93775 0.0
C1023 C 0.32637 0.88273 0.94067 0.0
C1024 C 0.32613 0.89565 0.95769 0.0
C1025 C 0.30966 0.87082 0.93056 0.0
H1026 H 0.28074 0.88652 0.96053 0.0
H1027 H 0.33891 0.90499 0.96559 0.0
O1028 O 0.31096 0.94016 0.03193 0.0
O1029 O 0.28831 0.90599 1.00108 0.0
O1030 O 0.31017 0.94137 0.98768 0.0
O1031 O 0.33121 0.91555 0.00686 0.0
H1032 H 0.31859 0.93383 0.06752 0.0
H1033 H 0.31547 0.97889 0.03307 0.0
H1034 H 0.32997 0.96033 0.09653 0.0
H1035 H 0.32697 1.00466 0.06275 0.0
H1036 H 0.26497 0.83963 0.99648 0.0
H1037 H 0.25709 0.9078 0.01514 0.0
H1038 H 0.28962 0.86828 0.99231 0.0
H1039 H 0.23294 0.87846 0.01879 0.0
H1040 H 0.25447 0.96791 0.04548 0.0
H1041 H 0.24185 0.96026 0.98322 0.0
H1042 H 0.34727 0.89125 0.06816 0.0
H1043 H 0.28877 0.8686 0.06861 0.0
H1044 H 0.32401 0.93399 0.95479 0.0
H1045 H 0.31172 0.9798 0.99617 0.0
H1046 H 0.33701 0.95948 0.93579 0.0
H1047 H 0.32496 1.00461 0.97639 0.0
H1048 H 0.36723 0.92816 0.00794 0.0
H1049 H 0.32254 0.87623 1.00244 0.0
H1050 H 0.38919 0.90637 0.00626 0.0
H1051 H 0.34528 0.85533 1.00096 0.0
H1052 H 0.37948 0.98473 0.05786 0.0
H1053 H 0.38188 0.98963 0.99744 0.0
H1054 H 0.27989 0.86322 0.9301 0.0
H1055 H 0.33943 0.88202 0.93548 0.0
Li1056 Li 0.2897 0.39323 0.02831 0.0
Li1057 Li 0.30352 0.37072 0.04733 0.0
Li1058 Li 0.32484 0.39677 0.03005 0.0
Li1059 Li 0.30192 0.36571 0.01092 0.0
C1060 C 0.30765 0.41546 0.06617 0.0
N1061 N 0.30442 0.44501 0.09561 0.0
C1062 C 0.29794 0.41057 0.08149 0.0
C1063 C 0.31574 0.43534 0.06578 0.0
C1064 C 0.29648 0.42573 0.09626 0.0
C1065 C 0.31391 0.45008 0.0808 0.0
C1066 C 0.26597 0.34905 0.02273 0.0
C1067 C 0.25122 0.31441 0.0111 0.0
N1068 N 0.23445 0.31857 0.01248 0.0
C1069 C 0.2486 0.35296 0.02411 0.0
C1070 C 0.26733 0.32962 0.01627 0.0
C1071 C 0.23283 0.33736 0.01885 0.0
C1072 C 0.25765 0.4002 0.00875 0.0
N1073 N 0.26968 0.40647 0.02543 0.0
C1074 C 0.25263 0.43009 0.03695 0.0
C1075 C 0.26733 0.42108 0.03947 0.0
C1076 C 0.24001 0.42393 0.01989 0.0
C1077 C 0.24259 0.40865 0.00572 0.0
H1078 H 0.25972 0.38851 0.99779 0.0
H1079 H 0.27677 0.4258 0.0527 0.0
C1080 C 0.31703 0.35561 0.08032 0.0
N1081 N 0.30161 0.3583 0.07043 0.0
C1082 C 0.31607 0.34779 0.09751 0.0
C1083 C 0.28332 0.34543 0.09411 0.0
C1084 C 0.28489 0.35314 0.07689 0.0
C1085 C 0.29907 0.34276 0.10484 0.0
H1086 H 0.3302 0.35983 0.07501 0.0
H1087 H 0.27276 0.35536 0.06885 0.0
C1088 C 0.30597 0.40461 0.99329 0.0
N1089 N 0.30485 0.42645 0.96401 0.0
C1090 C 0.30891 0.39682 0.97463 0.0
C1091 C 0.3027 0.42357 0.99717 0.0
C1092 C 0.30821 0.40807 0.95999 0.0
C1093 C 0.30214 0.43437 0.98214 0.0
C1094 C 0.33338 0.35393 0.0265 0.0
C1095 C 0.35017 0.35895 0.01915 0.0
C1096 C 0.32633 0.33445 0.02904 0.0
C1097 C 0.35961 0.34421 0.01421 0.0
C1098 C 0.33617 0.32013 0.02387 0.0
N1099 N 0.35246 0.32526 0.01661 0.0
C1100 C 0.3602 0.42454 0.04648 0.0
C1101 C 0.35576 0.41589 0.01229 0.0
C1102 C 0.3779 0.43655 0.04607 0.0
N1103 N 0.34945 0.41445 0.02973 0.0
C1104 C 0.37336 0.42771 0.01122 0.0
C1105 C 0.38488 0.43835 0.02826 0.0
H1106 H 0.35513 0.42316 0.06025 0.0
H1107 H 0.34715 0.4077 0.99909 0.0
C1108 C 0.283 0.34893 0.97366 0.0
N1109 N 0.29775 0.34807 0.986 0.0
C1110 C 0.2811 0.34047 0.95397 0.0
C1111 C 0.30866 0.32888 0.96028 0.0
C1112 C 0.31026 0.33791 0.97973 0.0
C1113 C 0.29429 0.3307 0.94707 0.0
H1114 H 0.27339 0.35734 0.97885 0.0
H1115 H 0.32208 0.33763 0.9894 0.0
O1116 O 0.30945 0.40084 0.05176 0.0
O1117 O 0.2815 0.36427 0.02741 0.0
O1118 O 0.30588 0.39352 0.00761 0.0
O1119 O 0.32381 0.36804 0.031 0.0
H1120 H 0.29158 0.39525 0.08196 0.0
H1121 H 0.32328 0.43931 0.05397 0.0
H1122 H 0.28903 0.42217 0.10823 0.0
H1123 H 0.32005 0.46555 0.0807 0.0
H1124 H 0.25205 0.29931 0.00597 0.0
H1125 H 0.2473 0.36788 0.02929 0.0
H1126 H 0.28068 0.32635 0.0151 0.0
H1127 H 0.2193 0.34018 0.01983 0.0
H1128 H 0.25104 0.44164 0.04837 0.0
H1129 H 0.23327 0.40352 0.99231 0.0
H1130 H 0.32864 0.34622 0.10525 0.0
H1131 H 0.26987 0.34153 0.09892 0.0
H1132 H 0.31178 0.3823 0.97146 0.0
H1133 H 0.3005 0.42981 0.0116 0.0
H1134 H 0.31036 0.40218 0.94544 0.0
H1135 H 0.29951 0.44904 0.98488 0.0
H1136 H 0.35576 0.374 0.01713 0.0
H1137 H 0.31332 0.33042 0.03473 0.0
H1138 H 0.37259 0.34781 0.0084 0.0
H1139 H 0.33085 0.30492 0.02558 0.0
H1140 H 0.38615 0.44406 0.0597 0.0
H1141 H 0.37777 0.42863 0.99708 0.0
H1142 H 0.26987 0.3422 0.94411 0.0
H1143 H 0.31922 0.32168 0.95539 0.0
Li1144 Li 0.77991 0.1597 0.04245 0.0
Li1145 Li 0.79598 0.13814 0.02126 0.0
Li1146 Li 0.78139 0.16231 0.00968 0.0
Li1147 Li 0.76266 0.1317 0.01629 0.0
C1148 C 0.81511 0.18301 0.0259 0.0
N1149 N 0.84058 0.21469 0.01766 0.0
C1150 C 0.83197 0.18043 0.02033 0.0
C1151 C 0.81129 0.20176 0.02756 0.0
C1152 C 0.84466 0.19662 0.0162 0.0
C1153 C 0.8243 0.21757 0.02319 0.0
C1154 C 0.77506 0.117 0.05156 0.0
C1155 C 0.76644 0.08288 0.05574 0.0
N1156 N 0.76658 0.08911 0.07508 0.0
C1157 C 0.77526 0.12308 0.07147 0.0
C1158 C 0.77083 0.09676 0.0436 0.0
C1159 C 0.77092 0.10876 0.08313 0.0
C1160 C 0.76395 0.17203 0.07496 0.0
N1161 N 0.77959 0.17476 0.06631 0.0
C1162 C 0.79455 0.20267 0.09062 0.0
C1163 C 0.79473 0.18962 0.07367 0.0
C1164 C 0.77869 0.20007 0.09995 0.0
C1165 C 0.76325 0.18458 0.09212 0.0
H1166 H 0.75205 0.16025 0.06838 0.0
H1167 H 0.80687 0.1914 0.06629 0.0
C1168 C 0.82247 0.12686 1.00175 0.0
N1169 N 0.81494 0.12575 0.0185 0.0
C1170 C 0.83681 0.11789 0.99801 0.0
C1171 C 0.83497 0.1064 0.02871 0.0
C1172 C 0.82067 0.11571 0.0319 0.0
C1173 C 0.84325 0.10764 0.01166 0.0
H1174 H 0.81736 0.13488 0.99138 0.0
H1175 H 0.81418 0.11504 0.04499 0.0
C1176 C 0.74526 0.16794 0.02297 0.0
N1177 N 0.71652 0.18664 0.02306 0.0
C1178 C 0.72844 0.15874 0.01149 0.0
C1179 C 0.74746 0.18663 0.03454 0.0
C1180 C 0.71406 0.16843 0.01175 0.0
C1181 C 0.73278 0.19586 0.03434 0.0
C1182 C 0.77619 0.12097 0.98064 0.0
C1183 C 0.77028 0.1256 0.96286 0.0
C1184 C 0.77704 0.10146 0.98171 0.0
C1185 C 0.76511 0.11056 0.94648 0.0
C1186 C 0.77174 0.08684 0.96498 0.0
N1187 N 0.76591 0.09164 0.94788 0.0
C1188 C 0.79333 0.1761 0.97788 0.0
C1189 C 0.77179 0.19213 0.99232 0.0
C1190 C 0.79122 0.1844 0.96144 0.0
N1191 N 0.7829 0.17932 0.99231 0.0
C1192 C 0.7692 0.2007 0.97621 0.0
C1193 C 0.7783 0.19597 0.96025 0.0
H1194 H 0.80206 0.16578 0.97851 0.0
H1195 H 0.76415 0.19483 1.00425 0.0
C1196 C 0.73224 0.10407 0.02315 0.0
N1197 N 0.74103 0.11146 0.00889 0.0
C1198 C 0.71586 0.08947 0.01847 0.0
C1199 C 0.71811 0.09004 0.98447 0.0
C1200 C 0.73413 0.10502 0.98987 0.0
C1201 C 0.70843 0.0825 0.99888 0.0
H1202 H 0.73754 0.11012 0.03819 0.0
H1203 H 0.74047 0.11203 0.97883 0.0
O1204 O 0.80277 0.16744 0.03052 0.0
O1205 O 0.77872 0.13091 0.03996 0.0
O1206 O 0.75939 0.15853 0.02308 0.0
O1207 O 0.78025 0.1353 0.99703 0.0
H1208 H 0.83538 0.16618 0.01952 0.0
H1209 H 0.79838 0.20404 0.03209 0.0
H1210 H 0.85779 0.19483 0.01193 0.0
H1211 H 0.82148 0.23213 0.02425 0.0
H1212 H 0.76289 0.06714 0.04978 0.0
H1213 H 0.77879 0.13869 0.07789 0.0
H1214 H 0.77061 0.09185 0.02819 0.0
H1215 H 0.77099 0.11327 0.09857 0.0
H1216 H 0.80672 0.21438 0.09659 0.0
H1217 H 0.75087 0.18231 0.09918 0.0
H1218 H 0.84271 0.11885 0.98458 0.0
H1219 H 0.8397 0.09863 0.03956 0.0
H1220 H 0.72649 0.14428 1.00247 0.0
H1221 H 0.76048 0.19409 0.0433 0.0
H1222 H 0.70095 0.16148 1.00296 0.0
H1223 H 0.73433 0.21038 0.04311 0.0
H1224 H 0.76906 0.14048 0.96183 0.0
H1225 H 0.78142 0.0976 0.99539 0.0
H1226 H 0.76028 0.11389 0.93271 0.0
H1227 H 0.77214 0.07163 0.96562 0.0
H1228 H 0.7984 0.18051 0.94925 0.0
H1229 H 0.75941 0.20993 0.97573 0.0
H1230 H 0.70854 0.08476 0.03018 0.0
H1231 H 0.71281 0.0853 0.96922 0.0
Li1232 Li 0.17793 0.56659 0.25607 0.0
Li1233 Li 0.15073 0.54445 0.26278 0.0
Li1234 Li 0.17526 0.53193 0.24893 0.0
Li1235 Li 0.15476 0.54608 0.22994 0.0
C1236 C 0.19086 0.55426 0.28876 0.0
N1237 N 0.22054 0.56807 0.31759 0.0
C1238 C 0.18798 0.55979 0.30799 0.0
C1239 C 0.2088 0.5555 0.2842 0.0
C1240 C 0.20317 0.56681 0.32235 0.0
C1241 C 0.22364 0.56257 0.29899 0.0
C1242 C 0.14181 0.58049 0.24828 0.0
C1243 C 0.1119 0.58752 0.24318 0.0
N1244 N 0.12 0.60733 0.2471 0.0
C1245 C 0.14984 0.60092 0.25218 0.0
C1246 C 0.12269 0.57371 0.24373 0.0
C1247 C 0.13859 0.61425 0.25153 0.0
C1248 C 0.20023 0.59968 0.2499 0.0
N1249 N 0.19281 0.59105 0.2642 0.0
C1250 C 0.20488 0.62039 0.28779 0.0
C1251 C 0.19452 0.60088 0.28278 0.0
C1252 C 0.21264 0.6295 0.27321 0.0
C1253 C 0.21038 0.61908 0.25413 0.0
H1254 H 0.19776 0.59165 0.23515 0.0
H1255 H 0.18748 0.59379 0.29349 0.0
C1256 C 0.12604 0.52839 0.28825 0.0
N1257 N 0.1349 0.54426 0.28105 0.0
C1258 C 0.11745 0.53159 0.30487 0.0
C1259 C 0.12663 0.56706 0.30516 0.0
C1260 C 0.13542 0.56324 0.28918 0.0
C1261 C 0.11805 0.5512 0.31351 0.0
H1262 H 0.12665 0.51352 0.28191 0.0
H1263 H 0.14389 0.57554 0.28422 0.0
C1264 C 0.19451 0.55156 0.21896 0.0
N1265 N 0.22005 0.55357 0.19287 0.0
C1266 C 0.18869 0.54554 0.19906 0.0
C1267 C 0.21335 0.5586 0.22559 0.0
C1268 C 0.2018 0.54672 0.1861 0.0
C1269 C 0.22604 0.55943 0.21217 0.0
C1270 C 0.13332 0.50688 0.24101 0.0
C1271 C 0.13541 0.48791 0.24275 0.0
C1272 C 0.11567 0.51024 0.23849 0.0
C1273 C 0.11972 0.47258 0.24205 0.0
C1274 C 0.10032 0.49457 0.23806 0.0
N1275 N 0.10265 0.47621 0.23979 0.0
C1276 C 0.18612 0.50472 0.26591 0.0
C1277 C 0.20027 0.50957 0.2375 0.0
C1278 C 0.1966 0.4916 0.26987 0.0
N1279 N 0.18827 0.51336 0.25007 0.0
C1280 C 0.2112 0.49666 0.24098 0.0
C1281 C 0.20937 0.48764 0.25738 0.0
H1282 H 0.17638 0.50828 0.27553 0.0
H1283 H 0.20153 0.5167 0.225 0.0
C1284 C 0.14167 0.56241 0.20055 0.0
N1285 N 0.14241 0.54514 0.20657 0.0
C1286 C 0.13128 0.56191 0.18312 0.0
C1287 C 0.1234 0.52583 0.1784 0.0
C1288 C 0.13377 0.52707 0.19601 0.0
C1289 C 0.12199 0.54342 0.17195 0.0
H1290 H 0.14898 0.57648 0.2094 0.0
H1291 H 0.13497 0.51369 0.20131 0.0
O1292 O 0.17614 0.54811 0.27448 0.0
O1293 O 0.15258 0.5673 0.25004 0.0
O1294 O 0.18176 0.5514 0.23174 0.0
O1295 O 0.14853 0.52183 0.24109 0.0
H1296 H 0.17414 0.55895 0.3117 0.0
H1297 H 0.21124 0.55118 0.26942 0.0
H1298 H 0.20116 0.57132 0.33727 0.0
H1299 H 0.23762 0.56373 0.29567 0.0
H1300 H 0.09707 0.58248 0.23975 0.0
H1301 H 0.16456 0.60652 0.25589 0.0
H1302 H 0.11623 0.55801 0.24087 0.0
H1303 H 0.14463 0.63009 0.25464 0.0
H1304 H 0.2066 0.6283 0.30259 0.0
H1305 H 0.21652 0.62588 0.24268 0.0
H1306 H 0.11136 0.51914 0.31147 0.0
H1307 H 0.12809 0.58238 0.31201 0.0
H1308 H 0.1742 0.54015 0.19362 0.0
H1309 H 0.21812 0.56357 0.24091 0.0
H1310 H 0.19746 0.54223 0.17065 0.0
H1311 H 0.24065 0.56486 0.2171 0.0
H1312 H 0.149 0.48501 0.24438 0.0
H1313 H 0.11383 0.52474 0.23688 0.0
H1314 H 0.12112 0.45778 0.24326 0.0
H1315 H 0.08657 0.49699 0.23625 0.0
H1316 H 0.19463 0.48453 0.28242 0.0
H1317 H 0.22103 0.49391 0.23113 0.0
H1318 H 0.13034 0.57574 0.17856 0.0
H1319 H 0.1167 0.51133 0.16989 0.0
Li1320 Li 0.78971 0.89385 0.52827 0.0
Li1321 Li 0.8036 0.87145 0.54707 0.0
Li1322 Li 0.82502 0.89785 0.53027 0.0
Li1323 Li 0.80218 0.86663 0.5109 0.0
C1324 C 0.80747 0.91586 0.56647 0.0
N1325 N 0.80405 0.9448 0.5964 0.0
C1326 C 0.79777 0.91054 0.58167 0.0
C1327 C 0.81546 0.93584 0.56646 0.0
C1328 C 0.79621 0.9254 0.59669 0.0
C1329 C 0.81353 0.95028 0.58172 0.0
C1330 C 0.76613 0.84951 0.52273 0.0
C1331 C 0.75155 0.81471 0.51182 0.0
N1332 N 0.73473 0.8188 0.51298 0.0
C1333 C 0.74871 0.85335 0.52389 0.0
C1334 C 0.7676 0.83003 0.51675 0.0
C1335 C 0.733 0.83764 0.51888 0.0
C1336 C 0.75778 0.90105 0.50862 0.0
N1337 N 0.76961 0.90699 0.52546 0.0
C1338 C 0.75221 0.9301 0.53736 0.0
C1339 C 0.76697 0.92116 0.53978 0.0
C1340 C 0.73983 0.92434 0.52012 0.0
C1341 C 0.74269 0.90947 0.50568 0.0
H1342 H 0.76005 0.88967 0.49746 0.0
H1343 H 0.77623 0.92557 0.55315 0.0
C1344 C 0.81731 0.85606 0.57955 0.0
N1345 N 0.8018 0.8586 0.56971 0.0
C1346 C 0.81638 0.84775 0.59644 0.0
C1347 C 0.7835 0.8446 0.59278 0.0
C1348 C 0.78505 0.85281 0.57587 0.0
C1349 C 0.79933 0.84208 0.60354 0.0
H1350 H 0.83048 0.86065 0.57437 0.0
H1351 H 0.77288 0.85501 0.56789 0.0
C1352 C 0.80508 0.90515 0.49314 0.0
N1353 N 0.80277 0.92665 0.46374 0.0
C1354 C 0.80675 0.89692 0.47417 0.0
C1355 C 0.80236 0.92434 0.49723 0.0
C1356 C 0.80554 0.90802 0.45949 0.0
C1357 C 0.80117 0.93496 0.48213 0.0
C1358 C 0.83375 0.85502 0.52747 0.0
C1359 C 0.85144 0.86022 0.5221 0.0
C1360 C 0.82593 0.83532 0.52878 0.0
C1361 C 0.86096 0.84544 0.51775 0.0
C1362 C 0.83592 0.82098 0.52435 0.0
N1363 N 0.85306 0.82629 0.51893 0.0
C1364 C 0.86261 0.92115 0.54606 0.0
C1365 C 0.85412 0.92081 0.51285 0.0
C1366 C 0.88045 0.93268 0.54525 0.0
N1367 N 0.84977 0.91541 0.52998 0.0
C1368 C 0.8717 0.93241 0.51144 0.0
C1369 C 0.88534 0.93856 0.52774 0.0
H1370 H 0.85909 0.91665 0.55955 0.0
H1371 H 0.84401 0.91588 0.50008 0.0
C1372 C 0.78279 0.84468 0.47439 0.0
N1373 N 0.79903 0.84897 0.48633 0.0
C1374 C 0.78162 0.83553 0.45497 0.0
C1375 C 0.8136 0.83455 0.4608 0.0
C1376 C 0.81419 0.84383 0.47992 0.0
C1377 C 0.79739 0.83091 0.44783 0.0
H1378 H 0.77104 0.84943 0.47961 0.0
H1379 H 0.82713 0.84798 0.48917 0.0
O1380 O 0.8094 0.90154 0.55183 0.0
O1381 O 0.7816 0.86484 0.5271 0.0
O1382 O 0.8061 0.89445 0.50765 0.0
O1383 O 0.824 0.86914 0.531 0.0
H1384 H 0.7915 0.89514 0.58185 0.0
H1385 H 0.82302 0.94013 0.55476 0.0
H1386 H 0.78878 0.92152 0.60858 0.0
H1387 H 0.81958 0.96583 0.5819 0.0
H1388 H 0.75246 0.79958 0.50704 0.0
H1389 H 0.74732 0.86831 0.52868 0.0
H1390 H 0.78097 0.82681 0.51568 0.0
H1391 H 0.71943 0.84041 0.51969 0.0
H1392 H 0.75041 0.9413 0.54901 0.0
H1393 H 0.73356 0.90465 0.49211 0.0
H1394 H 0.82896 0.84579 0.60381 0.0
H1395 H 0.77006 0.84081 0.5976 0.0
H1396 H 0.80913 0.8822 0.47079 0.0
H1397 H 0.80114 0.93092 0.51189 0.0
H1398 H 0.80682 0.90184 0.44473 0.0
H1399 H 0.79899 0.94981 0.48504 0.0
H1400 H 0.8576 0.87545 0.52098 0.0
H1401 H 0.81227 0.83116 0.53302 0.0
H1402 H 0.8746 0.84918 0.51337 0.0
H1403 H 0.83003 0.80563 0.52516 0.0
H1404 H 0.89026 0.9371 0.55832 0.0
H1405 H 0.87467 0.93614 0.4975 0.0
H1406 H 0.76887 0.83317 0.44542 0.0
H1407 H 0.82601 0.831 0.45605 0.0
Li1408 Li 0.94267 0.06367 0.27856 0.0
Li1409 Li 0.91383 0.03852 0.25721 0.0
Li1410 Li 0.94071 0.06119 0.23915 0.0
Li1411 Li 0.91725 0.0801 0.25973 0.0
C1412 C 0.95392 0.02941 0.2579 0.0
N1413 N 0.98009 0.00774 0.26194 0.0
C1414 C 0.94871 0.00992 0.26117 0.0
C1415 C 0.97236 0.03782 0.2564 0.0
C1416 C 0.96217 0.99923 0.26325 0.0
C1417 C 0.98541 0.02663 0.25855 0.0
C1418 C 0.90589 0.0605 0.29571 0.0
C1419 C 0.8811 0.06764 0.31298 0.0
N1420 N 0.88748 0.05983 0.32799 0.0
C1421 C 0.91214 0.05243 0.31123 0.0
C1422 C 0.89025 0.06815 0.29655 0.0
C1423 C 0.90268 0.0523 0.32745 0.0
C1424 C 0.96426 0.08003 0.3197 0.0
N1425 N 0.95848 0.06382 0.30505 0.0
C1426 C 0.97065 0.04415 0.32639 0.0
C1427 C 0.96171 0.04611 0.30843 0.0
C1428 C 0.9766 0.06046 0.34194 0.0
C1429 C 0.97324 0.07868 0.33803 0.0
H1430 H 0.96162 0.09411 0.31744 0.0
H1431 H 0.95672 0.033 0.29741 0.0
C1432 C 0.89084 0.99581 0.24058 0.0
N1433 N 0.89795 0.00929 0.2573 0.0
C1434 C 0.88155 0.97575 0.2409 0.0
C1435 C 0.88678 0.98299 0.27556 0.0
C1436 C 0.89593 1.0029 0.27461 0.0
C1437 C 0.87927 0.96864 0.25857 0.0
H1438 H 0.8926 1.00041 0.22675 0.0
H1439 H 0.9017 0.01317 0.28797 0.0
C1440 C 0.96049 0.10216 0.26574 0.0
N1441 N 0.98984 0.13519 0.27481 0.0
C1442 C 0.9577 0.12102 0.26468 0.0
C1443 C 0.97818 0.10008 0.27151 0.0
C1444 C 0.97273 0.13754 0.2693 0.0
C1445 C 0.99285 0.11697 0.27601 0.0
C1446 C 0.89995 0.0554 0.22023 0.0
C1447 C 0.90624 0.06295 0.20416 0.0
C1448 C 0.88122 0.04683 0.21997 0.0
C1449 C 0.8936 0.0617 0.18794 0.0
C1450 C 0.869 0.04593 0.20348 0.0
N1451 N 0.87539 0.0533 0.18794 0.0
C1452 C 0.95092 0.04226 0.20008 0.0
C1453 C 0.96693 0.07568 0.20925 0.0
C1454 C 0.95937 0.04056 0.18261 0.0
N1455 N 0.95457 0.05967 0.21332 0.0
C1456 C 0.9757 0.07458 0.19195 0.0
C1457 C 0.97213 0.05683 0.17785 0.0
H1458 H 0.94129 0.02937 0.20293 0.0
H1459 H 0.97006 0.08963 0.21939 0.0
C1460 C 0.90428 0.11807 0.27801 0.0
N1461 N 0.90319 0.10481 0.26108 0.0
C1462 C 0.89548 0.13439 0.27916 0.0
C1463 C 0.88413 0.12402 0.24557 0.0
C1464 C 0.89317 0.10792 0.24501 0.0
C1465 C 0.88495 0.138 0.26283 0.0
H1466 H 0.91205 0.11616 0.29099 0.0
H1467 H 0.89208 0.09791 0.23138 0.0
O1468 O 0.94107 0.04032 0.25648 0.0
O1469 O 0.91525 0.06139 0.27996 0.0
O1470 O 0.94587 0.08589 0.26154 0.0
O1471 O 0.91214 0.05626 0.23608 0.0
H1472 H 0.93447 1.00324 0.26237 0.0
H1473 H 0.97653 0.05283 0.25367 0.0
H1474 H 0.95838 0.98419 0.26597 0.0
H1475 H 0.99976 0.03297 0.25755 0.0
H1476 H 0.86895 0.0735 0.31384 0.0
H1477 H 0.92408 0.04625 0.31073 0.0
H1478 H 0.88526 0.07445 0.28463 0.0
H1479 H 0.90741 0.04618 0.33961 0.0
H1480 H 0.97224 0.02955 0.32814 0.0
H1481 H 0.97751 0.092 0.34902 0.0
H1482 H 0.87657 0.96579 0.22717 0.0
H1483 H 0.88556 0.97901 0.28972 0.0
H1484 H 0.94405 0.12287 0.26035 0.0
H1485 H 0.98052 0.08562 0.27268 0.0
H1486 H 0.97078 0.15224 0.26852 0.0
H1487 H 0.00662 0.11561 0.28051 0.0
H1488 H 0.92072 0.06967 0.20423 0.0
H1489 H 0.8762 0.04093 0.23235 0.0
H1490 H 0.89826 0.06742 0.17535 0.0
H1491 H 0.85443 0.03935 0.20304 0.0
H1492 H 0.95593 0.02629 0.17299 0.0
H1493 H 0.98505 0.08792 0.18962 0.0
H1494 H 0.89686 0.14398 0.29309 0.0
H1495 H 0.87671 0.12551 0.2322 0.0
Li1496 Li 0.2788 0.66029 0.54045 0.0
Li1497 Li 0.29531 0.63811 0.52056 0.0
Li1498 Li 0.28135 0.6621 0.50732 0.0
Li1499 Li 0.26208 0.63192 0.51456 0.0
C1500 C 0.31467 0.68338 0.52549 0.0
N1501 N 0.34081 0.71586 0.51978 0.0
C1502 C 0.3322 0.68139 0.52167 0.0
C1503 C 0.31047 0.70192 0.52663 0.0
C1504 C 0.34524 0.69799 0.51884 0.0
C1505 C 0.32384 0.71813 0.52354 0.0
C1506 C 0.27453 0.61796 0.55082 0.0
C1507 C 0.26854 0.58411 0.55602 0.0
N1508 N 0.26787 0.59061 0.57515 0.0
C1509 C 0.27383 0.62433 0.57052 0.0
C1510 C 0.27199 0.59773 0.54348 0.0
C1511 C 0.27048 0.61027 0.58259 0.0
C1512 C 0.2629 0.67748 0.57171 0.0
N1513 N 0.27879 0.67571 0.56448 0.0
C1514 C 0.29697 0.69867 0.59141 0.0
C1515 C 0.29561 0.68592 0.57386 0.0
C1516 C 0.28083 0.70102 0.5991 0.0
C1517 C 0.2636 0.69043 0.58909 0.0
H1518 H 0.24974 0.669 0.56389 0.0
H1519 H 0.30796 0.68414 0.56766 0.0
C1520 C 0.3227 0.62733 0.50244 0.0
N1521 N 0.31427 0.6256 0.51858 0.0
C1522 C 0.33695 0.6181 0.49904 0.0
C1523 C 0.33305 0.60501 0.52873 0.0
C1524 C 0.31896 0.6147 0.53164 0.0
C1525 C 0.34232 0.60685 0.51234 0.0
H1526 H 0.31841 0.63608 0.49232 0.0
H1527 H 0.31178 0.61352 0.54422 0.0
C1528 C 0.24527 0.66917 0.52142 0.0
N1529 N 0.21803 0.68995 0.52322 0.0
C1530 C 0.2272 0.65986 0.51301 0.0
C1531 C 0.24945 0.689 0.5309 0.0
C1532 C 0.21363 0.67063 0.51406 0.0
C1533 C 0.2355 0.69926 0.5316 0.0
C1534 C 0.27595 0.62039 0.47955 0.0
C1535 C 0.27075 0.62518 0.46163 0.0
C1536 C 0.27601 0.60072 0.48079 0.0
C1537 C 0.26549 0.61014 0.44526 0.0
C1538 C 0.27062 0.58609 0.46407 0.0
N1539 N 0.2655 0.59106 0.44681 0.0
C1540 C 0.29544 0.67601 0.47572 0.0
C1541 C 0.27171 0.69006 0.48778 0.0
C1542 C 0.29431 0.68465 0.45927 0.0
N1543 N 0.2837 0.67833 0.48908 0.0
C1544 C 0.27029 0.69913 0.47188 0.0
C1545 C 0.28125 0.69589 0.4572 0.0
H1546 H 0.30469 0.66636 0.47722 0.0
H1547 H 0.26251 0.69152 0.49841 0.0
C1548 C 0.23247 0.60221 0.51996 0.0
N1549 N 0.24069 0.61171 0.50651 0.0
C1550 C 0.21601 0.58785 0.51451 0.0
C1551 C 0.21713 0.59289 0.48134 0.0
C1552 C 0.23334 0.60746 0.48754 0.0
C1553 C 0.20788 0.58346 0.49505 0.0
H1554 H 0.23809 0.60655 0.53507 0.0
H1555 H 0.23948 0.61606 0.47736 0.0
O1556 O 0.30199 0.66743 0.52892 0.0
O1557 O 0.27734 0.63156 0.5388 0.0
O1558 O 0.25879 0.65897 0.52003 0.0
O1559 O 0.2803 0.6348 0.49586 0.0
H1560 H 0.33582 0.66726 0.52122 0.0
H1561 H 0.29701 0.70371 0.52978 0.0
H1562 H 0.35889 0.69668 0.51597 0.0
H1563 H 0.32075 0.73255 0.52423 0.0
H1564 H 0.26635 0.56837 0.55053 0.0
H1565 H 0.27584 0.63995 0.57642 0.0
H1566 H 0.27242 0.59261 0.52823 0.0
H1567 H 0.2699 0.61498 0.59788 0.0
H1568 H 0.31045 0.70666 0.5989 0.0
H1569 H 0.25093 0.69181 0.59488 0.0
H1570 H 0.34391 0.62011 0.48639 0.0
H1571 H 0.33663 0.59619 0.53915 0.0
H1572 H 0.22373 0.64454 0.50561 0.0
H1573 H 0.26341 0.69648 0.53729 0.0
H1574 H 0.1996 0.66364 0.50753 0.0
H1575 H 0.23858 0.71465 0.53872 0.0
H1576 H 0.27026 0.64024 0.46045 0.0
H1577 H 0.27991 0.59677 0.49456 0.0
H1578 H 0.26124 0.61361 0.43136 0.0
H1579 H 0.27043 0.57077 0.46482 0.0
H1580 H 0.30281 0.68185 0.44797 0.0
H1581 H 0.25979 0.70741 0.47043 0.0
H1582 H 0.20905 0.58156 0.52576 0.0
H1583 H 0.2112 0.59013 0.46626 0.0
Li1584 Li 0.41373 0.53845 0.75686 0.0
Li1585 Li 0.44266 0.56376 0.77825 0.0
Li1586 Li 0.41715 0.58012 0.75948 0.0
Li1587 Li 0.44057 0.56123 0.73879 0.0
C1588 C 0.40624 0.56049 0.79569 0.0
N1589 N 0.38846 0.55955 0.82836 0.0
C1590 C 0.41258 0.55194 0.81079 0.0
C1591 C 0.39086 0.56852 0.79713 0.0
C1592 C 0.40343 0.55168 0.82724 0.0
C1593 C 0.38201 0.56785 0.81376 0.0
C1594 C 0.45349 0.52904 0.757 0.0
C1595 C 0.48447 0.52506 0.75563 0.0
N1596 N 0.47915 0.50662 0.7601 0.0
C1597 C 0.44827 0.51001 0.76142 0.0
C1598 C 0.47168 0.53664 0.75396 0.0
C1599 C 0.46147 0.49892 0.76298 0.0
C1600 C 0.3954 0.49399 0.7412 0.0
N1601 N 0.39779 0.50909 0.75685 0.0
C1602 C 0.38179 0.48459 0.7747 0.0
C1603 C 0.39103 0.50437 0.77343 0.0
C1604 C 0.37906 0.46857 0.75882 0.0
C1605 C 0.3862 0.47396 0.74187 0.0
H1606 H 0.40088 0.4973 0.72805 0.0
H1607 H 0.39304 0.5159 0.78608 0.0
C1608 C 0.46086 0.57906 0.82075 0.0
N1609 N 0.45863 0.56427 0.80487 0.0
C1610 C 0.46979 0.57776 0.83912 0.0
C1611 C 0.47457 0.5463 0.82504 0.0
C1612 C 0.46557 0.54816 0.80706 0.0
C1613 C 0.47671 0.56101 0.84183 0.0
H1614 H 0.45524 0.5918 0.81945 0.0
H1615 H 0.46386 0.5362 0.79498 0.0
C1616 C 0.39974 0.55539 0.71999 0.0
N1617 N 0.37503 0.55327 0.68782 0.0
C1618 C 0.40595 0.56283 0.70385 0.0
C1619 C 0.381 0.54691 0.71986 0.0
C1620 C 0.39324 0.56157 0.68768 0.0
C1621 C 0.36871 0.54601 0.70344 0.0
C1622 C 0.46052 0.60208 0.76539 0.0
C1623 C 0.45793 0.62105 0.76446 0.0
C1624 C 0.47813 0.59975 0.77106 0.0
C1625 C 0.47307 0.63744 0.7692 0.0
C1626 C 0.49293 0.61653 0.77568 0.0
N1627 N 0.49011 0.63486 0.77467 0.0
C1628 C 0.40807 0.62113 0.77561 0.0
C1629 C 0.38897 0.6047 0.74695 0.0
C1630 C 0.39926 0.63744 0.77658 0.0
N1631 N 0.40306 0.60479 0.7609 0.0
C1632 C 0.37976 0.62064 0.74748 0.0
C1633 C 0.3846 0.63777 0.76244 0.0
H1634 H 0.41911 0.62177 0.78688 0.0
H1635 H 0.38469 0.59219 0.73508 0.0
C1636 C 0.4543 0.54157 0.70218 0.0
N1637 N 0.45444 0.5597 0.71296 0.0
C1638 C 0.46272 0.5397 0.68471 0.0
C1639 C 0.47183 0.57507 0.68897 0.0
C1640 C 0.46326 0.5763 0.7064 0.0
C1641 C 0.47177 0.55653 0.67732 0.0
H1642 H 0.44753 0.52822 0.70703 0.0
H1643 H 0.4636 0.59081 0.71457 0.0
O1644 O 0.41521 0.56136 0.77966 0.0
O1645 O 0.44097 0.54039 0.75612 0.0
O1646 O 0.412 0.55627 0.73579 0.0
O1647 O 0.44577 0.58595 0.76118 0.0
H1648 H 0.42433 0.54545 0.80978 0.0
H1649 H 0.38582 0.57519 0.78552 0.0
H1650 H 0.40821 0.54517 0.83908 0.0
H1651 H 0.37006 0.57396 0.81508 0.0
H1652 H 0.49863 0.53076 0.75342 0.0
H1653 H 0.43426 0.50403 0.76396 0.0
H1654 H 0.47588 0.55136 0.7505 0.0
H1655 H 0.45769 0.48423 0.76657 0.0
H1656 H 0.37719 0.48196 0.78841 0.0
H1657 H 0.38467 0.46282 0.72895 0.0
H1658 H 0.47069 0.58966 0.85124 0.0
H1659 H 0.47977 0.53318 0.82558 0.0
H1660 H 0.42043 0.56947 0.7038 0.0
H1661 H 0.37605 0.54111 0.73232 0.0
H1662 H 0.39784 0.5672 0.67503 0.0
H1663 H 0.35414 0.53952 0.7031 0.0
H1664 H 0.44436 0.62307 0.76011 0.0
H1665 H 0.48032 0.58518 0.77202 0.0
H1666 H 0.47127 0.65221 0.76855 0.0
H1667 H 0.50664 0.61498 0.78013 0.0
H1668 H 0.40392 0.64966 0.78871 0.0
H1669 H 0.36896 0.61947 0.7358 0.0
H1670 H 0.46215 0.52487 0.67719 0.0
H1671 H 0.4782 0.58884 0.6846 0.0
Li1672 Li 0.64994 0.04416 0.76367 0.0
Li1673 Li 0.67694 0.06662 0.75615 0.0
Li1674 Li 0.65375 0.04486 0.73069 0.0
Li1675 Li 0.67474 0.0314 0.75069 0.0
C1676 C 0.64124 0.0804 0.74859 0.0
N1677 N 0.62012 0.10788 0.74758 0.0
C1678 C 0.64874 0.10031 0.75706 0.0
C1679 C 0.62298 0.07441 0.7397 0.0
C1680 C 0.63785 0.11399 0.75635 0.0
C1681 C 0.61253 0.08855 0.73931 0.0
C1682 C 0.68991 0.05434 0.79018 0.0
C1683 C 0.7224 0.06101 0.80142 0.0
N1684 N 0.71898 0.06722 0.81975 0.0
C1685 C 0.68668 0.06061 0.80913 0.0
C1686 C 0.70788 0.0544 0.78625 0.0
C1687 C 0.70158 0.06713 0.82389 0.0
C1688 C 0.63183 0.02732 0.79222 0.0
N1689 N 0.63363 0.04218 0.78173 0.0
C1690 C 0.61846 0.06062 0.80322 0.0
C1691 C 0.62674 0.0583 0.78659 0.0
C1692 C 0.61765 0.04641 0.8152 0.0
C1693 C 0.62373 0.02914 0.80929 0.0
H1694 H 0.63795 0.01494 0.78816 0.0
H1695 H 0.62905 0.07027 0.77868 0.0
C1696 C 0.69565 0.09933 0.74521 0.0
N1697 N 0.69308 0.09113 0.76127 0.0
C1698 C 0.71015 0.11565 0.7459 0.0
C1699 C 0.71794 0.1157 0.78011 0.0
C1700 C 0.70311 0.0995 0.77877 0.0
C1701 C 0.72197 0.12336 0.76331 0.0
H1702 H 0.68698 0.09248 0.73166 0.0
H1703 H 0.70019 0.09323 0.7915 0.0
C1704 C 0.63259 1.00659 0.74317 0.0
N1705 N 0.60144 0.97691 0.7432 0.0
C1706 C 0.63422 0.98752 0.74513 0.0
C1707 C 0.61516 0.01059 0.74116 0.0
C1708 C 0.61829 0.97269 0.74506 0.0
C1709 C 0.59957 0.9954 0.74131 0.0
C1710 C 0.69378 0.05289 0.72054 0.0
C1711 C 0.68889 0.04741 0.70046 0.0
C1712 C 0.71214 0.06192 0.7281 0.0
C1713 C 0.70243 0.05124 0.68823 0.0
C1714 C 0.72527 0.06558 0.71537 0.0
N1715 N 0.72019 0.06022 0.69587 0.0
C1716 C 0.64165 0.06036 0.70036 0.0
C1717 C 0.63327 0.02507 0.69649 0.0
C1718 C 0.63154 0.05968 0.68272 0.0
N1719 N 0.64191 0.04323 0.70687 0.0
C1720 C 0.62326 0.02364 0.67861 0.0
C1721 C 0.62212 0.04112 0.67177 0.0
H1722 H 0.649 0.07449 0.7091 0.0
H1723 H 0.6341 0.0118 0.70219 0.0
C1724 C 0.68566 1.00315 0.76688 0.0
N1725 N 0.68818 0.01304 0.75189 0.0
C1726 C 0.69617 0.98979 0.77005 0.0
C1727 C 0.71165 0.99733 0.74228 0.0
C1728 C 0.7007 0.01044 0.73956 0.0
C1729 C 0.70939 0.98691 0.75771 0.0
H1730 H 0.67557 1.00586 0.77639 0.0
H1731 H 0.70233 0.01866 0.72783 0.0
O1732 O 0.65141 0.06667 0.75015 0.0
O1733 O 0.67553 0.0488 0.77554 0.0
O1734 O 0.64803 0.02102 0.74258 0.0
O1735 O 0.68054 0.04971 0.73264 0.0
H1736 H 0.66269 0.10513 0.76442 0.0
H1737 H 0.6169 0.05899 0.73335 0.0
H1738 H 0.64346 0.12944 0.76291 0.0
H1739 H 0.59836 0.08414 0.73253 0.0
H1740 H 0.73641 0.06131 0.7986 0.0
H1741 H 0.67284 0.06072 0.81234 0.0
H1742 H 0.71062 0.04969 0.77164 0.0
H1743 H 0.69931 0.07219 0.8386 0.0
H1744 H 0.61449 0.07444 0.80759 0.0
H1745 H 0.62341 0.018 0.81841 0.0
H1746 H 0.71245 0.12173 0.73283 0.0
H1747 H 0.72663 0.12148 0.79387 0.0
H1748 H 0.64763 0.98415 0.74644 0.0
H1749 H 0.6137 0.02527 0.73954 0.0
H1750 H 0.61933 0.95782 0.74644 0.0
H1751 H 0.58597 0.99828 0.73985 0.0
H1752 H 0.67479 0.04026 0.69435 0.0
H1753 H 0.71617 0.06626 0.7436 0.0
H1754 H 0.69883 0.04712 0.67265 0.0
H1755 H 0.7395 0.07273 0.721 0.0
H1756 H 0.63081 0.07346 0.67794 0.0
H1757 H 0.61647 0.00908 0.67029 0.0
H1758 H 0.69387 0.98171 0.78189 0.0
H1759 H 0.72188 0.99555 0.73262 0.0
Li1760 Li 0.78867 0.70646 0.0179 0.0
Li1761 Li 0.80153 0.6794 1.00185 0.0
Li1762 Li 0.78756 0.70167 0.98196 0.0
Li1763 Li 0.76614 0.67538 0.99813 0.0
C1764 C 0.82469 0.72372 0.00932 0.0
N1765 N 0.85533 0.75444 0.0237 0.0
C1766 C 0.84004 0.72004 0.01958 0.0
C1767 C 0.82501 0.74297 0.00617 0.0
C1768 C 0.85539 0.73578 0.02677 0.0
C1769 C 0.8406 0.75832 0.01365 0.0
C1770 C 0.78473 0.66737 0.03558 0.0
C1771 C 0.77852 0.63543 0.04544 0.0
N1772 N 0.78617 0.64437 0.06384 0.0
C1773 C 0.79251 0.67627 0.05456 0.0
C1774 C 0.77769 0.64681 0.03092 0.0
C1775 C 0.79314 0.66438 0.06865 0.0
C1776 C 0.7743 0.72645 0.04821 0.0
N1777 N 0.79053 0.72426 0.04209 0.0
C1778 C 0.80688 0.74078 0.07322 0.0
C1779 C 0.80674 0.73155 0.05404 0.0
C1780 C 0.79017 0.74262 0.08013 0.0
C1781 C 0.77384 0.73592 0.06705 0.0
H1782 H 0.7615 0.71994 0.03879 0.0
H1783 H 0.81942 0.72902 0.04923 0.0
C1784 C 0.83168 0.66459 0.98908 0.0
N1785 N 0.82152 0.66613 1.0041 0.0
C1786 C 0.84699 0.65628 0.99045 0.0
C1787 C 0.84119 0.65122 0.0227 0.0
C1788 C 0.82616 0.65983 0.02079 0.0
C1789 C 0.85193 0.64931 0.00743 0.0
H1790 H 0.82804 0.67012 0.97611 0.0
H1791 H 0.8184 0.66164 0.03282 0.0
C1792 C 0.75756 0.71837 0.99973 0.0
N1793 N 0.73817 0.74749 0.00468 0.0
C1794 C 0.73845 0.71311 0.99958 0.0
C1795 C 0.76685 0.73838 1.00235 0.0
C1796 C 0.72887 0.72807 1.00207 0.0
C1797 C 0.75679 0.75291 0.00489 0.0
C1798 C 0.78078 0.65707 0.962 0.0
C1799 C 0.77558 0.66058 0.94354 0.0
C1800 C 0.7841 0.63867 0.96416 0.0
C1801 C 0.77381 0.64554 0.92745 0.0
C1802 C 0.78217 0.62401 0.9477 0.0
N1803 N 0.77712 0.62772 0.92984 0.0
C1804 C 0.8056 0.71678 0.95129 0.0
C1805 C 0.77472 0.71962 0.95094 0.0
C1806 C 0.80725 0.72498 0.93438 0.0
N1807 N 0.78947 0.71412 0.95915 0.0
C1808 C 0.77578 0.72792 0.93405 0.0
C1809 C 0.79217 0.73057 0.92534 0.0
H1810 H 0.81715 0.71227 0.95801 0.0
H1811 H 0.76203 0.7174 0.9574 0.0
C1812 C 0.73523 0.65608 0.0153 0.0
N1813 N 0.7414 0.65782 0.99785 0.0
C1814 C 0.7176 0.64437 0.01638 0.0
C1815 C 0.71252 0.63666 0.98148 0.0
C1816 C 0.73036 0.64837 0.98107 0.0
C1817 C 0.70574 0.63437 0.99933 0.0
H1818 H 0.74401 0.66387 0.02853 0.0
H1819 H 0.73529 0.65009 0.96729 0.0
O1820 O 0.8097 0.70843 1.00186 0.0
O1821 O 0.78402 0.67874 0.0216 0.0
O1822 O 0.76711 0.70393 0.99773 0.0
O1823 O 0.78311 0.6718 0.9778 0.0
H1824 H 0.84009 0.70521 0.02204 0.0
H1825 H 0.8134 0.746 0.99796 0.0
H1826 H 0.86734 0.73316 0.03477 0.0
H1827 H 0.84101 0.77331 0.01138 0.0
H1828 H 0.77311 0.61948 0.04208 0.0
H1829 H 0.79812 0.69213 0.05838 0.0
H1830 H 0.77168 0.63974 0.01624 0.0
H1831 H 0.79917 0.67105 0.0834 0.0
H1832 H 0.81982 0.74535 0.08275 0.0
H1833 H 0.76065 0.73732 0.07144 0.0
H1834 H 0.855 0.65564 0.97841 0.0
H1835 H 0.8442 0.64596 0.03601 0.0
H1836 H 0.73112 0.69764 0.99762 0.0
H1837 H 0.78166 0.74262 1.00265 0.0
H1838 H 0.71406 0.72424 1.00198 0.0
H1839 H 0.76379 0.76848 0.00706 0.0
H1840 H 0.77297 0.67477 0.94165 0.0
H1841 H 0.78823 0.63582 0.97839 0.0
H1842 H 0.76982 0.64805 0.91306 0.0
H1843 H 0.78474 0.60969 0.94912 0.0
H1844 H 0.82011 0.72642 0.92822 0.0
H1845 H 0.76385 0.73226 0.92796 0.0
H1846 H 0.71347 0.64309 0.03057 0.0
H1847 H 0.70406 0.62978 0.96782 0.0
Li1848 Li 0.90856 0.50859 0.7779 0.0
Li1849 Li 0.93254 0.52896 0.80269 0.0
Li1850 Li 0.91262 0.54329 0.78208 0.0
Li1851 Li 0.9358 0.52759 0.76895 0.0
C1852 C 0.8926 0.51816 0.81211 0.0
N1853 N 0.86664 0.50171 0.83419 0.0
C1854 C 0.89751 0.50775 0.82634 0.0
C1855 C 0.87452 0.52025 0.80912 0.0
C1856 C 0.88419 0.49956 0.83736 0.0
C1857 C 0.86157 0.51178 0.82041 0.0
C1858 C 0.94396 0.49317 0.78557 0.0
C1859 C 0.97353 0.48498 0.78656 0.0
N1860 N 0.9651 0.46573 0.78677 0.0
C1861 C 0.93559 0.47334 0.78593 0.0
C1862 C 0.96309 0.49911 0.78602 0.0
C1863 C 0.94652 0.45969 0.78652 0.0
C1864 C 0.89822 0.47444 0.75213 0.0
N1865 N 0.89366 0.48369 0.76886 0.0
C1866 C 0.87217 0.45454 0.77201 0.0
C1867 C 0.88076 0.47432 0.77874 0.0
C1868 C 0.87712 0.44463 0.75512 0.0
C1869 C 0.88994 0.45464 0.7448 0.0
H1870 H 0.90868 0.48231 0.74476 0.0
H1871 H 0.87753 0.48184 0.79205 0.0
C1872 C 0.95333 0.54989 0.83663 0.0
N1873 N 0.94599 0.53135 0.82623 0.0
C1874 C 0.96523 0.55236 0.85358 0.0
C1875 C 0.96174 0.51662 0.84841 0.0
C1876 C 0.94963 0.51482 0.83185 0.0
C1877 C 0.96964 0.53556 0.85924 0.0
H1878 H 0.95016 0.56267 0.83151 0.0
H1879 H 0.94322 0.50028 0.82347 0.0
C1880 C 0.89705 0.51704 0.7427 0.0
N1881 N 0.86963 0.49885 0.71229 0.0
C1882 C 0.90162 0.51169 0.7241 0.0
C1883 C 0.87853 0.51342 0.74581 0.0
C1884 C 0.88756 0.50249 0.70892 0.0
C1885 C 0.86487 0.50408 0.73025 0.0
C1886 C 0.95479 0.56499 0.78545 0.0
C1887 C 0.95233 0.58095 0.77672 0.0
C1888 C 0.97257 0.56274 0.79036 0.0
C1889 C 0.96777 0.59432 0.77279 0.0
C1890 C 0.98766 0.57639 0.78612 0.0
N1891 N 0.98497 0.59176 0.7775 0.0
C1892 C 0.89308 0.57091 0.795 0.0
C1893 C 0.89961 0.56776 0.76229 0.0
C1894 C 0.88354 0.58528 0.79221 0.0
N1895 N 0.90081 0.56268 0.78007 0.0
C1896 C 0.8903 0.58202 0.75887 0.0
C1897 C 0.88227 0.59092 0.77398 0.0
H1898 H 0.8943 0.56621 0.80889 0.0
H1899 H 0.90593 0.56069 0.75082 0.0
C1900 C 0.94811 0.5046 0.74286 0.0
N1901 N 0.95058 0.52426 0.74992 0.0
C1902 C 0.95657 0.49832 0.72733 0.0
C1903 C 0.96959 0.53287 0.72587 0.0
C1904 C 0.96098 0.5385 0.74181 0.0
C1905 C 0.96712 0.51252 0.71846 0.0
H1906 H 0.93907 0.49365 0.74889 0.0
H1907 H 0.96199 0.55403 0.74711 0.0
O1908 O 0.90556 0.52684 0.80162 0.0
O1909 O 0.9333 0.50643 0.78377 0.0
O1910 O 0.91073 0.52536 0.75783 0.0
O1911 O 0.93986 0.5519 0.78957 0.0
H1912 H 0.91141 0.50599 0.82884 0.0
H1913 H 0.87054 0.52832 0.79818 0.0
H1914 H 0.8878 0.49149 0.84844 0.0
H1915 H 0.84751 0.51323 0.81824 0.0
H1916 H 0.98833 0.4893 0.78669 0.0
H1917 H 0.92082 0.46852 0.78572 0.0
H1918 H 0.96973 0.51437 0.78558 0.0
H1919 H 0.94022 0.44428 0.78672 0.0
H1920 H 0.86209 0.44685 0.7801 0.0
H1921 H 0.8938 0.44715 0.7317 0.0
H1922 H 0.97122 0.56712 0.86194 0.0
H1923 H 0.96483 0.50345 0.85279 0.0
H1924 H 0.9159 0.51447 0.72146 0.0
H1925 H 0.8748 0.51744 0.76016 0.0
H1926 H 0.8909 0.49817 0.69447 0.0
H1927 H 0.85048 0.50093 0.73247 0.0
H1928 H 0.93865 0.58299 0.77303 0.0
H1929 H 0.97467 0.55056 0.79732 0.0
H1930 H 0.96608 0.60672 0.76599 0.0
H1931 H 1.00152 0.57479 0.78971 0.0
H1932 H 0.87738 0.59202 0.80406 0.0
H1933 H 0.88921 0.58591 0.74456 0.0
H1934 H 0.95441 0.48253 0.72198 0.0
H1935 H 0.97737 0.54419 0.71893 0.0
Li1936 Li 0.81154 0.41443 0.52136 0.0
Li1937 Li 0.79408 0.43586 0.50772 0.0
Li1938 Li 0.81133 0.41511 0.48746 0.0
Li1939 Li 0.82651 0.44439 0.51165 0.0
C1940 C 0.77622 0.3906 0.50207 0.0
N1941 N 0.74833 0.35819 0.5044 0.0
C1942 C 0.76066 0.39335 0.51069 0.0
C1943 C 0.77753 0.37141 0.49446 0.0
C1944 C 0.74671 0.37676 0.51174 0.0
C1945 C 0.76331 0.3552 0.49586 0.0
C1946 C 0.81885 0.4556 0.54801 0.0
C1947 C 0.83046 0.49007 0.56301 0.0
N1948 N 0.83639 0.48439 0.5796 0.0
C1949 C 0.82475 0.45014 0.56534 0.0
C1950 C 0.82131 0.47574 0.54698 0.0
C1951 C 0.83365 0.46489 0.58111 0.0
C1952 C 0.83109 0.40229 0.54866 0.0
N1953 N 0.81369 0.39851 0.53939 0.0
C1954 C 0.80296 0.37335 0.55747 0.0
C1955 C 0.79963 0.38448 0.54348 0.0
C1956 C 0.82082 0.37711 0.56734 0.0
C1957 C 0.83503 0.39167 0.56276 0.0
H1958 H 0.84179 0.41404 0.54546 0.0
H1959 H 0.78584 0.38214 0.53631 0.0
C1960 C 0.76396 0.44892 0.49335 0.0
N1961 N 0.77405 0.44646 0.50936 0.0
C1962 C 0.74927 0.45785 0.49544 0.0
C1963 C 0.75605 0.46153 0.53038 0.0
C1964 C 0.77049 0.4525 0.5276 0.0
C1965 C 0.74527 0.46422 0.51417 0.0
H1966 H 0.76745 0.44407 0.47908 0.0
H1967 H 0.77885 0.45024 0.53998 0.0
C1968 C 0.84405 0.40591 0.50625 0.0
N1969 N 0.86704 0.38015 0.5062 0.0
C1970 C 0.86313 0.41315 0.50738 0.0
C1971 C 0.83663 0.38553 0.50483 0.0
C1972 C 0.87453 0.3999 0.50735 0.0
C1973 C 0.8485 0.37277 0.50496 0.0
C1974 C 0.81638 0.45435 0.47477 0.0
C1975 C 0.82944 0.44898 0.4634 0.0
C1976 C 0.80961 0.4709 0.47222 0.0
C1977 C 0.83547 0.46029 0.44949 0.0
C1978 C 0.81614 0.48195 0.45833 0.0
N1979 N 0.82877 0.47642 0.44729 0.0
C1980 C 0.79433 0.39177 0.45246 0.0
C1981 C 0.82623 0.39287 0.45892 0.0
C1982 C 0.79279 0.37826 0.43531 0.0
N1983 N 0.81087 0.3987 0.46379 0.0
C1984 C 0.82522 0.37905 0.44216 0.0
C1985 C 0.80835 0.37172 0.43027 0.0
H1986 H 0.78238 0.39667 0.45686 0.0
H1987 H 0.8393 0.39897 0.46791 0.0
C1988 C 0.86038 0.4621 0.53095 0.0
N1989 N 0.84711 0.4655 0.51845 0.0
C1990 C 0.87748 0.47543 0.53526 0.0
C1991 C 0.86618 0.49656 0.51536 0.0
C1992 C 0.84925 0.48272 0.51143 0.0
C1993 C 0.8808 0.49238 0.52655 0.0
H1994 H 0.85794 0.44845 0.5367 0.0
H1995 H 0.83812 0.4854 0.50224 0.0
O1996 O 0.78992 0.40666 0.50081 0.0
O1997 O 0.81013 0.44129 0.5324 0.0
O1998 O 0.83281 0.41884 0.50682 0.0
O1999 O 0.80961 0.44309 0.48785 0.0
H2000 H 0.75941 0.40812 0.51658 0.0
H2001 H 0.78943 0.36907 0.48762 0.0
H2002 H 0.73461 0.37865 0.51841 0.0
H2003 H 0.76418 0.34025 0.49015 0.0
H2004 H 0.8328 0.5057 0.56229 0.0
H2005 H 0.8222 0.43471 0.56677 0.0
H2006 H 0.81646 0.48023 0.53381 0.0
H2007 H 0.8383 0.46083 0.59458 0.0
H2008 H 0.79167 0.36231 0.56086 0.0
H2009 H 0.84882 0.39545 0.57057 0.0
H2010 H 0.74128 0.45991 0.48266 0.0
H2011 H 0.75317 0.46604 0.54501 0.0
H2012 H 0.86909 0.42884 0.5082 0.0
H2013 H 0.82189 0.37968 0.50386 0.0
H2014 H 0.88932 0.40531 0.50824 0.0
H2015 H 0.84298 0.35699 0.50408 0.0
H2016 H 0.83482 0.43621 0.46524 0.0
H2017 H 0.79947 0.47518 0.48096 0.0
H2018 H 0.84547 0.45624 0.44045 0.0
H2019 H 0.8111 0.49487 0.45626 0.0
H2020 H 0.77966 0.37293 0.42611 0.0
H2021 H 0.8375 0.37447 0.43828 0.0
H2022 H 0.88838 0.4715 0.54382 0.0
H2023 H 0.86821 0.50963 0.50865 0.0
Li2024 Li 0.64984 0.51106 0.28947 0.0
Li2025 Li 0.67709 0.53377 0.27203 0.0
Li2026 Li 0.6487 0.50826 0.25041 0.0
Li2027 Li 0.67362 0.49184 0.26851 0.0
C2028 C 0.63687 0.54238 0.26971 0.0
N2029 N 0.61081 0.56396 0.26449 0.0
C2030 C 0.64221 0.5631 0.27258 0.0
C2031 C 0.61832 0.53259 0.26422 0.0
C2032 C 0.62881 0.57376 0.26989 0.0
C2033 C 0.60534 0.54377 0.2616 0.0
C2034 C 0.69122 0.51988 0.30872 0.0
C2035 C 0.72136 0.52053 0.32421 0.0
N2036 N 0.71674 0.52842 0.34148 0.0
C2037 C 0.68676 0.52806 0.32656 0.0
C2038 C 0.70862 0.5161 0.30745 0.0
C2039 C 0.69986 0.53225 0.34298 0.0
C2040 C 0.63075 0.49637 0.32405 0.0
N2041 N 0.63577 0.5125 0.31519 0.0
C2042 C 0.62334 0.53161 0.34095 0.0
C2043 C 0.63196 0.52994 0.32358 0.0
C2044 C 0.61809 0.51526 0.35058 0.0
C2045 C 0.62204 0.4974 0.34138 0.0
H2046 H 0.63362 0.48243 0.31782 0.0
H2047 H 0.6357 0.54291 0.3169 0.0
C2048 C 0.68999 0.57159 0.25599 0.0
N2049 N 0.69286 0.56312 0.27196 0.0
C2050 C 0.69914 0.59156 0.25517 0.0
C2051 C 0.71448 0.59453 0.28713 0.0
C2052 C 0.70499 0.57452 0.28741 0.0
C2053 C 0.71181 0.60378 0.27087 0.0
H2054 H 0.68034 0.56289 0.24369 0.0
H2055 H 0.70728 0.56826 0.30027 0.0
C2056 C 0.6303 0.47042 0.25964 0.0
N2057 N 0.60084 0.43866 0.24433 0.0
C2058 C 0.63324 0.45337 0.24844 0.0
C2059 C 0.61241 0.47132 0.26309 0.0
C2060 C 0.61816 0.43745 0.24086 0.0
C2061 C 0.59769 0.45514 0.25516 0.0
C2062 C 0.6839 0.51 0.23234 0.0
C2063 C 0.67426 0.49696 0.21569 0.0
C2064 C 0.70152 0.52161 0.23175 0.0
C2065 C 0.68237 0.49594 0.19855 0.0
C2066 C 0.70924 0.52 0.21438 0.0
N2067 N 0.69956 0.50736 0.19826 0.0
C2068 C 0.63514 0.52717 0.21901 0.0
C2069 C 0.62257 0.49271 0.21129 0.0
C2070 C 0.62636 0.52985 0.20124 0.0
N2071 N 0.63331 0.50883 0.22401 0.0
C2072 C 0.61369 0.49472 0.19315 0.0
C2073 C 0.61546 0.51356 0.18747 0.0
H2074 H 0.64366 0.54004 0.22883 0.0
H2075 H 0.62107 0.47805 0.21492 0.0
C2076 C 0.69418 0.46146 0.28382 0.0
N2077 N 0.68783 0.4672 0.2672 0.0
C2078 C 0.70326 0.44543 0.28351 0.0
C2079 C 0.69939 0.44037 0.24899 0.0
C2080 C 0.69046 0.4566 0.24992 0.0
C2081 C 0.70625 0.43417 0.26593 0.0
H2082 H 0.69222 0.46929 0.29771 0.0
H2083 H 0.68561 0.4606 0.23649 0.0
O2084 O 0.64982 0.53172 0.27199 0.0
O2085 O 0.67841 0.51511 0.29264 0.0
O2086 O 0.64494 0.48596 0.26752 0.0
O2087 O 0.67615 0.51149 0.24917 0.0
H2088 H 0.65653 0.57086 0.27689 0.0
H2089 H 0.61404 0.51653 0.26177 0.0
H2090 H 0.63273 0.58983 0.27209 0.0
H2091 H 0.59094 0.53641 0.25724 0.0
H2092 H 0.73489 0.51765 0.32349 0.0
H2093 H 0.67331 0.53104 0.32772 0.0
H2094 H 0.71219 0.5097 0.2937 0.0
H2095 H 0.6966 0.5385 0.35692 0.0
H2096 H 0.62067 0.5458 0.34663 0.0
H2097 H 0.61878 0.48413 0.34768 0.0
H2098 H 0.69633 0.59724 0.24207 0.0
H2099 H 0.72364 0.60277 0.29995 0.0
H2100 H 0.64703 0.45242 0.24573 0.0
H2101 H 0.60995 0.48433 0.27192 0.0
H2102 H 0.62022 0.42411 0.23224 0.0
H2103 H 0.58376 0.45563 0.25768 0.0
H2104 H 0.66068 0.48773 0.21601 0.0
H2105 H 0.70915 0.53171 0.24459 0.0
H2106 H 0.67503 0.48602 0.18549 0.0
H2107 H 0.7229 0.52884 0.2137 0.0
H2108 H 0.62823 0.54488 0.19858 0.0
H2109 H 0.60579 0.48136 0.18355 0.0
H2110 H 0.70766 0.44176 0.29726 0.0
H2111 H 0.70109 0.43291 0.23484 0.0
Gd2112 Gd 0.02711 0.02599 1.00277 0.0
Gd2113 Gd 0.06342 0.04673 0.02599 0.0
C2114 C 0.04126 0.07397 0.0066 0.0
C2115 C 0.99197 0.01429 0.99246 0.0
C2116 C 0.97688 0.0243 0.99389 0.0
C2117 C 0.96082 0.01692 0.98067 0.0
C2118 C 0.9789 0.04197 0.00727 0.0
C2119 C 0.94837 0.04419 0.99473 0.0
C2120 C 0.96469 0.05189 0.0077 0.0
C2121 C 0.94664 0.02678 0.9811 0.0
C2122 C 0.05274 0.02474 0.97652 0.0
C2123 C 0.04938 0.99858 0.02175 0.0
C2124 C 0.09849 0.05838 0.03652 0.0
C2125 C 0.11349 0.04832 0.03491 0.0
C2126 C 0.1291 0.05473 0.04882 0.0
C2127 C 0.11161 0.03126 0.02077 0.0
C2128 C 0.14142 0.02765 0.03401 0.0
C2129 C 0.12555 0.02102 0.02028 0.0
C2130 C 0.14298 0.04445 0.04841 0.0
C2131 C 0.0382 0.0484 0.05247 0.0
O2132 O 0.02744 0.05803 1.00208 0.0
O2133 O 0.05729 0.07347 0.01554 0.0
O2134 O 1.00363 0.02074 0.98088 0.0
O2135 O 1.0 0.0115 0.00875 0.0
O2136 O 0.03525 0.0167 0.97284 0.0
O2137 O 0.05605 0.03254 0.99467 0.0
O2138 O 0.06315 0.01459 0.02639 0.0
O2139 O 0.03332 0.99916 0.01293 0.0
O2140 O 0.08676 0.05161 0.04791 0.0
O2141 O 0.09054 0.06154 0.02035 0.0
O2142 O 0.05561 0.05687 0.0555 0.0
O2143 O 0.03434 0.0403 0.03434 0.0
H2144 H 0.9593 1.00357 0.96996 0.0
H2145 H 0.99142 0.04807 0.01735 0.0
H2146 H 0.96627 0.06526 0.01839 0.0
H2147 H 0.93429 0.02078 0.97076 0.0
H2148 H 0.13046 0.06756 0.06013 0.0
H2149 H 0.09939 0.02586 0.01018 0.0
H2150 H 0.12407 0.00818 0.00895 0.0
H2151 H 0.15492 0.04963 0.05938 0.0
Gd2152 Gd 0.30422 0.78598 0.24347 0.0
Gd2153 Gd 0.28645 0.78463 0.28272 0.0
C2154 C 0.29955 0.82566 0.26973 0.0
C2155 C 0.31066 0.78876 0.20899 0.0
C2156 C 0.3224 0.80529 0.20218 0.0
C2157 C 0.34087 0.80548 0.19992 0.0
C2158 C 0.31539 0.82154 0.19876 0.0
C2159 C 0.34426 0.83662 0.18828 0.0
C2160 C 0.32623 0.83709 0.19199 0.0
C2161 C 0.35177 0.82113 0.19309 0.0
C2162 C 0.33157 0.79122 0.27419 0.0
C2163 C 0.29358 0.74537 0.25758 0.0
C2164 C 0.27867 0.78218 0.31682 0.0
C2165 C 0.26467 0.76742 0.32338 0.0
C2166 C 0.25027 0.77318 0.33231 0.0
C2167 C 0.26577 0.7475 0.3211 0.0
C2168 C 0.24185 0.74093 0.34179 0.0
C2169 C 0.25446 0.73434 0.33025 0.0
C2170 C 0.2386 0.75982 0.3411 0.0
C2171 C 0.25922 0.77955 0.25181 0.0
O2172 O 0.30065 0.81645 0.25219 0.0
O2173 O 0.29796 0.81689 0.28489 0.0
O2174 O 0.31922 0.77891 0.21955 0.0
O2175 O 0.29577 0.79239 0.21569 0.0
O2176 O 0.33436 0.79221 0.25643 0.0
O2177 O 0.31439 0.78909 0.27458 0.0
O2178 O 0.29148 0.75463 0.27477 0.0
O2179 O 0.29466 0.75366 0.24211 0.0
O2180 O 0.27242 0.79406 0.30675 0.0
O2181 O 0.29236 0.77575 0.30996 0.0
O2182 O 0.25625 0.77836 0.26946 0.0
O2183 O 0.2764 0.78171 0.25172 0.0
H2184 H 0.34672 0.79329 0.20285 0.0
H2185 H 0.3013 0.82201 0.20064 0.0
H2186 H 0.31981 0.84856 0.18807 0.0
H2187 H 0.36563 0.82047 0.19031 0.0
H2188 H 0.24872 0.78829 0.33348 0.0
H2189 H 0.27623 0.74235 0.31345 0.0
H2190 H 0.2573 0.71986 0.33008 0.0
H2191 H 0.22846 0.76503 0.34922 0.0
Gd2192 Gd 0.5671 0.03801 0.51429 0.0
Gd2193 Gd 0.52494 0.03545 0.51546 0.0
C2194 C 0.53713 0.99497 0.50953 0.0
C2195 C 0.60053 0.03365 0.51887 0.0
C2196 C 0.6114 0.01852 0.5147 0.0
C2197 C 0.62436 0.02105 0.50147 0.0
C2198 C 0.6103 1.00261 0.52486 0.0
C2199 C 0.63607 0.99334 0.50996 0.0
C2200 C 0.62248 0.99011 0.52245 0.0
C2201 C 0.63653 0.00863 0.49912 0.0
C2202 C 0.54741 0.03724 0.4809 0.0
C2203 C 0.55458 0.0784 0.51934 0.0
C2204 C 0.49137 0.0395 0.512 0.0
C2205 C 0.48062 0.05494 0.51429 0.0
C2206 C 0.46968 0.05611 0.52948 0.0
C2207 C 0.47973 0.06727 0.50047 0.0
C2208 C 0.45587 0.08019 0.51593 0.0
C2209 C 0.46754 0.07976 0.50132 0.0
C2210 C 0.45749 0.06865 0.53035 0.0
C2211 C 0.54514 0.03634 0.54878 0.0
O2212 O 0.55436 1.00562 0.51466 0.0
O2213 O 0.5232 1.00317 0.50603 0.0
O2214 O 0.59373 0.04005 0.50398 0.0
O2215 O 0.58943 0.03179 0.53223 0.0
O2216 O 0.56452 0.04689 0.48511 0.0
O2217 O 0.54204 0.02723 0.49343 0.0
O2218 O 0.53746 0.06752 0.51413 0.0
O2219 O 0.56862 0.07044 0.52326 0.0
O2220 O 0.49958 0.03605 0.52787 0.0
O2221 O 0.50115 0.03858 0.49745 0.0
O2222 O 0.5283 0.0258 0.54426 0.0
O2223 O 0.55002 0.04644 0.53615 0.0
H2224 H 0.62552 0.03312 0.49339 0.0
H2225 H 0.60048 1.0002 0.53516 0.0
H2226 H 0.62183 0.97852 0.53108 0.0
H2227 H 0.64665 0.01132 0.48916 0.0
H2228 H 0.47001 0.04675 0.54032 0.0
H2229 H 0.48801 0.06685 0.48863 0.0
H2230 H 0.46694 0.08875 0.4902 0.0
H2231 H 0.44869 0.06852 0.54176 0.0
Gd2232 Gd 0.27563 0.29196 0.76395 0.0
Gd2233 Gd 0.31484 0.28021 0.76489 0.0
C2234 C 0.30012 0.29362 0.80515 0.0
C2235 C 0.24098 0.29087 0.76631 0.0
C2236 C 0.22753 0.29163 0.78056 0.0
C2237 C 0.21478 0.30331 0.77851 0.0
C2238 C 0.22661 0.2805 0.79558 0.0
C2239 C 0.19961 0.29194 0.8055 0.0
C2240 C 0.21285 0.28069 0.80792 0.0
C2241 C 0.20101 0.30344 0.79073 0.0
C2242 C 0.30375 0.32572 0.76367 0.0
C2243 C 0.29044 0.27832 0.72353 0.0
C2244 C 0.34929 0.28087 0.76179 0.0
C2245 C 0.36259 0.28054 0.74732 0.0
C2246 C 0.37352 0.26665 0.74694 0.0
C2247 C 0.36539 0.29433 0.73471 0.0
C2248 C 0.39072 0.28111 0.7226 0.0
C2249 C 0.37928 0.2946 0.7225 0.0
C2250 C 0.38736 0.2669 0.73477 0.0
C2251 C 0.28661 0.24678 0.76603 0.0
O2252 O 0.28388 0.29295 0.79565 0.0
O2253 O 0.31469 0.29099 0.79666 0.0
O2254 O 0.25351 0.30722 0.76668 0.0
O2255 O 0.24737 0.27493 0.76287 0.0
O2256 O 0.28635 0.32515 0.76387 0.0
O2257 O 0.30508 0.30782 0.76388 0.0
O2258 O 0.30626 0.27804 0.73328 0.0
O2259 O 0.27619 0.28235 0.7319 0.0
O2260 O 0.33655 0.26456 0.76094 0.0
O2261 O 0.34323 0.29694 0.7662 0.0
O2262 O 0.30413 0.24747 0.76749 0.0
O2263 O 0.28549 0.26453 0.76488 0.0
H2264 H 0.21519 0.31204 0.76707 0.0
H2265 H 0.23638 0.27149 0.79766 0.0
H2266 H 0.21259 0.27194 0.81932 0.0
H2267 H 0.19108 0.3121 0.78806 0.0
H2268 H 0.37167 0.25586 0.75651 0.0
H2269 H 0.3571 0.30514 0.73452 0.0
H2270 H 0.38114 0.30552 0.71308 0.0
H2271 H 0.3959 0.25639 0.73549 0.0
Gd2272 Gd 0.0433 0.05628 0.52292 0.0
Gd2273 Gd 0.04968 0.01689 0.50567 0.0
C2274 C 0.03188 0.04009 0.47559 0.0
C2275 C 0.04838 0.09422 0.53067 0.0
C2276 C 0.04681 0.10845 0.51785 0.0
C2277 C 0.03784 0.12354 0.5233 0.0
C2278 C 0.05401 0.10693 0.50001 0.0
C2279 C 0.04489 0.13666 0.49426 0.0
C2280 C 0.05305 0.121 0.48828 0.0
C2281 C 0.03696 0.13767 0.51159 0.0
C2282 C 0.01116 0.02825 0.5225 0.0
C2283 C 0.05841 0.03209 0.55375 0.0
C2284 C 0.05136 0.98041 0.49849 0.0
C2285 C 0.0498 0.96543 0.51084 0.0
C2286 C 0.05908 0.9503 0.50732 0.0
C2287 C 0.03978 0.96672 0.52674 0.0
C2288 C 0.04727 0.93685 0.53471 0.0
C2289 C 0.03846 0.95246 0.53859 0.0
C2290 C 0.05784 0.93607 0.5192 0.0
C2291 C 0.07722 0.0484 0.5026 0.0
O2292 O 0.03623 0.05547 0.49024 0.0
O2293 O 0.0343 0.0225 0.47836 0.0
O2294 O 0.03293 0.08216 0.53265 0.0
O2295 O 0.06187 0.08539 0.52852 0.0
O2296 O 0.01364 0.04703 0.52927 0.0
O2297 O 0.02597 0.02538 0.51667 0.0
O2298 O 0.05594 0.01731 0.5386 0.0
O2299 O 0.05497 0.04938 0.55136 0.0
O2300 O 0.06604 0.99511 0.50341 0.0
O2301 O 0.03624 0.98615 0.49425 0.0
O2302 O 0.07075 0.03293 0.48905 0.0
O2303 O 0.06874 0.04623 0.51725 0.0
H2304 H 0.0319 0.12465 0.5368 0.0
H2305 H 0.06074 0.09517 0.49532 0.0
H2306 H 0.05942 0.12018 0.47502 0.0
H2307 H 0.03057 0.14971 0.5163 0.0
H2308 H 0.06719 0.94945 0.49535 0.0
H2309 H 0.03281 0.9786 0.52986 0.0
H2310 H 0.03012 0.9533 0.55036 0.0
H2311 H 0.06499 0.92434 0.51615 0.0
Gd2312 Gd 0.31336 0.8024 0.76638 0.0
Gd2313 Gd 0.2793 0.7713 0.76368 0.0
C2314 C 0.31655 0.75476 0.76647 0.0
C2315 C 0.34559 0.82528 0.77751 0.0
C2316 C 0.36401 0.82128 0.77865 0.0
C2317 C 0.37308 0.81937 0.76206 0.0
C2318 C 0.37199 0.81773 0.79617 0.0
C2319 C 0.39718 0.80922 0.78023 0.0
C2320 C 0.38839 0.81164 0.79692 0.0
C2321 C 0.38958 0.81338 0.76286 0.0
C2322 C 0.29876 0.7845 0.73012 0.0
C2323 C 0.276 0.81871 0.76349 0.0
C2324 C 0.24695 0.74905 0.75315 0.0
C2325 C 0.22941 0.75479 0.75046 0.0
C2326 C 0.21827 0.75529 0.76551 0.0
C2327 C 0.2243 0.76119 0.73328 0.0
C2328 C 0.19661 0.76696 0.7456 0.0
C2329 C 0.20806 0.76733 0.73094 0.0
C2330 C 0.20193 0.76142 0.7631 0.0
C2331 C 0.29402 0.78846 0.79987 0.0
O2332 O 0.32509 0.77424 0.76998 0.0
O2333 O 0.29828 0.74966 0.76221 0.0
O2334 O 0.3369 0.8234 0.76006 0.0
O2335 O 0.33497 0.81751 0.78953 0.0
O2336 O 0.30607 0.80348 0.73465 0.0
O2337 O 0.3003 0.77634 0.74457 0.0
O2338 O 0.26762 0.79923 0.7591 0.0
O2339 O 0.29417 0.82382 0.76865 0.0
O2340 O 0.25495 0.75244 0.77108 0.0
O2341 O 0.25844 0.75395 0.74072 0.0
O2342 O 0.28659 0.76953 0.79498 0.0
O2343 O 0.29251 0.79715 0.78574 0.0
H2344 H 0.36728 0.82207 0.74837 0.0
H2345 H 0.36538 0.81926 0.80923 0.0
H2346 H 0.39427 0.80898 0.81061 0.0
H2347 H 0.39622 0.81167 0.74985 0.0
H2348 H 0.22203 0.75065 0.77898 0.0
H2349 H 0.23267 0.76123 0.7215 0.0
H2350 H 0.20396 0.77143 0.71727 0.0
H2351 H 0.19298 0.76077 0.77439 0.0
Gd2352 Gd 0.55127 0.03573 0.03186 0.0
Gd2353 Gd 0.53868 0.03656 0.991 0.0
C2354 C 0.51072 0.00979 0.00998 0.0
C2355 C 0.55003 0.03197 0.06687 0.0
C2356 C 0.53507 0.01831 0.07344 0.0
C2357 C 0.53797 1.00048 0.07824 0.0
C2358 C 0.51735 0.02196 0.07333 0.0
C2359 C 0.50768 0.99342 0.08836 0.0
C2360 C 0.5036 0.00936 0.08057 0.0
C2361 C 0.5241 0.98778 0.0852 0.0
C2362 C 0.56381 0.01159 0.00637 0.0
C2363 C 0.57951 0.0617 0.01257 0.0
C2364 C 0.53956 0.04088 0.95597 0.0
C2365 C 0.55525 0.05338 0.94915 0.0
C2366 C 0.55693 0.07396 0.95062 0.0
C2367 C 0.56989 0.04531 0.94356 0.0
C2368 C 0.58664 0.07767 0.93877 0.0
C2369 C 0.58544 0.05732 0.93854 0.0
C2370 C 0.57255 0.08602 0.94559 0.0
C2371 C 0.52705 0.06115 0.0172 0.0
O2372 O 0.52137 0.01928 0.02616 0.0
O2373 O 0.51587 0.01143 0.99286 0.0
O2374 O 0.56029 0.02328 0.05605 0.0
O2375 O 0.54576 0.04718 0.06049 0.0
O2376 O 0.57359 0.02161 0.02237 0.0
O2377 O 0.54758 0.01391 0.00498 0.0
O2378 O 0.56887 0.05202 0.99643 0.0
O2379 O 0.57407 0.06078 0.02969 0.0
O2380 O 0.53047 0.05048 0.96752 0.0
O2381 O 0.54264 0.02493 0.96183 0.0
O2382 O 0.51654 0.05069 1.00177 0.0
O2383 O 0.5431 0.05854 0.01775 0.0
H2384 H 0.55125 0.99688 0.07762 0.0
H2385 H 0.51435 0.03505 0.06868 0.0
H2386 H 0.49087 0.0138 0.08277 0.0
H2387 H 0.52738 0.97544 0.09117 0.0
H2388 H 0.54609 0.08075 0.95544 0.0
H2389 H 0.56926 0.02962 0.94277 0.0
H2390 H 0.59585 0.05021 0.93305 0.0
H2391 H 0.57313 0.10164 0.94591 0.0
Gd2392 Gd 0.30507 0.31066 0.27364 0.0
Gd2393 Gd 0.28588 0.26369 0.2565 0.0
C2394 C 0.26073 0.29298 0.26978 0.0
C2395 C 0.31471 0.34839 0.27743 0.0
C2396 C 0.3027 0.36189 0.27691 0.0
C2397 C 0.30776 0.38062 0.28885 0.0
C2398 C 0.2851 0.35507 0.26623 0.0
C2399 C 0.27828 0.38644 0.27794 0.0
C2400 C 0.2729 0.36723 0.26685 0.0
C2401 C 0.29559 0.39296 0.28931 0.0
C2402 C 0.30338 0.28839 0.30227 0.0
C2403 C 0.33046 0.28204 0.26059 0.0
C2404 C 0.27587 0.2259 0.25289 0.0
C2405 C 0.28789 0.2123 0.25254 0.0
C2406 C 0.28202 0.19308 0.24165 0.0
C2407 C 0.30612 0.21941 0.26156 0.0
C2408 C 0.31233 0.18769 0.25001 0.0
C2409 C 0.31836 0.20735 0.25997 0.0
C2410 C 0.29418 0.18068 0.24054 0.0
C2411 C 0.28896 0.28594 0.22778 0.0
O2412 O 0.27495 0.30847 0.27168 0.0
O2413 O 0.26144 0.27424 0.26494 0.0
O2414 O 0.31347 0.33932 0.29232 0.0
O2415 O 0.31459 0.33659 0.26094 0.0
O2416 O 0.31121 0.30719 0.30491 0.0
O2417 O 0.2977 0.28274 0.2844 0.0
O2418 O 0.31653 0.26614 0.25875 0.0
O2419 O 0.32903 0.30053 0.26463 0.0
O2420 O 0.2761 0.23492 0.23798 0.0
O2421 O 0.27709 0.23784 0.26952 0.0
O2422 O 0.28237 0.26686 0.22475 0.0
O2423 O 0.29299 0.2916 0.24588 0.0
H2424 H 0.32111 0.3857 0.29765 0.0
H2425 H 0.2808 0.3404 0.2573 0.0
H2426 H 0.25947 0.36187 0.25821 0.0
H2427 H 0.29996 0.40782 0.2979 0.0
H2428 H 0.26807 0.18765 0.23425 0.0
H2429 H 0.3109 0.23422 0.27005 0.0
H2430 H 0.33238 0.2132 0.26709 0.0
H2431 H 0.28919 0.16547 0.23292 0.0
Gd2432 Gd 0.54245 0.55477 0.02285 0.0
Gd2433 Gd 0.54848 0.51831 0.00628 0.0
C2434 C 0.53248 0.54064 0.97523 0.0
C2435 C 0.54118 0.59151 0.03027 0.0
C2436 C 0.5419 0.6063 0.01772 0.0
C2437 C 0.53253 0.62131 0.02164 0.0
C2438 C 0.55158 0.60523 1.0015 0.0
C2439 C 0.54348 0.63495 0.99405 0.0
C2440 C 0.55232 0.61948 0.98969 0.0
C2441 C 0.5334 0.63567 0.00991 0.0
C2442 C 0.51358 0.52423 0.02566 0.0
C2443 C 0.5581 0.53219 0.05382 0.0
C2444 C 0.55038 0.4818 0.99901 0.0
C2445 C 0.54861 0.46676 0.0114 0.0
C2446 C 0.56085 0.4543 0.01101 0.0
C2447 C 0.53527 0.46533 0.0243 0.0
C2448 C 0.54561 0.43819 0.03518 0.0
C2449 C 0.53368 0.45095 0.03601 0.0
C2450 C 0.55937 0.44004 0.0229 0.0
C2451 C 0.57717 0.54897 1.00343 0.0
O2452 O 0.53722 0.55573 0.99012 0.0
O2453 O 0.53415 0.52293 0.97812 0.0
O2454 O 0.52642 0.57692 0.0266 0.0
O2455 O 0.55634 0.58559 0.0333 0.0
O2456 O 0.5208 0.53936 0.03939 0.0
O2457 O 0.52198 0.52595 0.01094 0.0
O2458 O 0.55269 0.51703 0.03904 0.0
O2459 O 0.55712 0.55006 0.05082 0.0
O2460 O 0.56497 0.49653 1.00398 0.0
O2461 O 0.53539 0.48754 0.99443 0.0
O2462 O 0.56987 0.53398 0.98962 0.0
O2463 O 0.56892 0.54705 0.01822 0.0
H2464 H 0.52478 0.62208 0.03391 0.0
H2465 H 0.55879 0.59359 0.99816 0.0
H2466 H 0.56031 0.61885 0.9776 0.0
H2467 H 0.52643 0.6475 0.01336 0.0
H2468 H 0.5714 0.4555 1.00138 0.0
H2469 H 0.52595 0.47515 0.02518 0.0
H2470 H 0.52297 0.44953 0.04545 0.0
H2471 H 0.56856 0.43009 0.02213 0.0
Gd2472 Gd 0.81251 0.30177 0.26651 0.0
Gd2473 Gd 0.77854 0.27056 0.26422 0.0
C2474 C 0.81584 0.25416 0.26654 0.0
C2475 C 0.84473 0.32422 0.27763 0.0
C2476 C 0.86265 0.31913 0.2789 0.0
C2477 C 0.87279 0.31943 0.26304 0.0
C2478 C 0.86917 0.31259 0.2955 0.0
C2479 C 0.89576 0.30732 0.28055 0.0
C2480 C 0.88562 0.30662 0.29626 0.0
C2481 C 0.88932 0.31359 0.26391 0.0
C2482 C 0.79771 0.2841 0.23039 0.0
C2483 C 0.77511 0.31783 0.26317 0.0
C2484 C 0.74623 0.24796 0.2547 0.0
C2485 C 0.72885 0.25363 0.25088 0.0
C2486 C 0.7156 0.25073 0.2637 0.0
C2487 C 0.72607 0.2636 0.23544 0.0
C2488 C 0.6964 0.26617 0.24473 0.0
C2489 C 0.70996 0.26985 0.23243 0.0
C2490 C 0.69943 0.25704 0.26067 0.0
C2491 C 0.79375 0.28849 0.30018 0.0
O2492 O 0.82433 0.27365 0.27025 0.0
O2493 O 0.79758 0.24903 0.26228 0.0
O2494 O 0.83627 0.32231 0.26006 0.0
O2495 O 0.83377 0.31736 0.2898 0.0
O2496 O 0.80529 0.30303 0.23492 0.0
O2497 O 0.79924 0.27576 0.24475 0.0
O2498 O 0.76688 0.29828 0.25866 0.0
O2499 O 0.79323 0.3231 0.26867 0.0
O2500 O 0.754 0.25309 0.27274 0.0
O2501 O 0.75786 0.25136 0.24207 0.0
O2502 O 0.78672 0.26946 0.29571 0.0
O2503 O 0.79174 0.29665 0.2858 0.0
H2504 H 0.86805 0.3243 0.25004 0.0
H2505 H 0.86165 0.3122 0.30796 0.0
H2506 H 0.89082 0.30227 0.30939 0.0
H2507 H 0.89737 0.31453 0.25188 0.0
H2508 H 0.7177 0.24345 0.27593 0.0
H2509 H 0.73623 0.26654 0.22557 0.0
H2510 H 0.70781 0.27696 0.22009 0.0
H2511 H 0.68896 0.25394 0.27019 0.0
Gd2512 Gd 0.05075 0.53719 0.53275 0.0
Gd2513 Gd 0.04021 0.53719 0.49111 0.0
C2514 C 0.0107 0.51132 0.50948 0.0
C2515 C 0.04806 0.53397 0.56776 0.0
C2516 C 0.03325 0.52 0.5742 0.0
C2517 C 0.03634 0.50212 0.57871 0.0
C2518 C 0.0156 0.52368 0.57475 0.0
C2519 C 0.00659 0.49518 0.58999 0.0
C2520 C 1.00216 0.51104 0.58233 0.0
C2521 C 0.02281 0.48946 0.58613 0.0
C2522 C 0.06394 0.51245 0.50849 0.0
C2523 C 0.08013 0.56331 0.51458 0.0
C2524 C 0.04365 0.53928 0.45595 0.0
C2525 C 0.05944 0.5521 0.44966 0.0
C2526 C 0.06214 0.57293 0.45331 0.0
C2527 C 0.07318 0.54369 0.44216 0.0
C2528 C 0.09085 0.57642 0.43947 0.0
C2529 C 0.08879 0.55571 0.43726 0.0
C2530 C 0.07775 0.58499 0.44824 0.0
C2531 C 0.02775 0.56278 0.51538 0.0
O2532 O 0.02078 0.5209 0.52597 0.0
O2533 O 0.01665 0.51266 0.49265 0.0
O2534 O 0.05918 0.52572 0.55785 0.0
O2535 O 0.04331 0.54848 0.5605 0.0
O2536 O 0.07311 0.52237 0.5248 0.0
O2537 O 0.04778 0.5148 0.50638 0.0
O2538 O 0.07002 0.55382 0.49808 0.0
O2539 O 0.07441 0.56175 0.53148 0.0
O2540 O 0.03278 0.54841 0.46541 0.0
O2541 O 0.04748 0.52464 0.46373 0.0
O2542 O 0.01816 0.55268 0.49926 0.0
O2543 O 0.04362 0.55967 0.51738 0.0
H2544 H 0.04957 0.49851 0.57765 0.0
H2545 H 0.01246 0.53686 0.57043 0.0
H2546 H 0.98955 0.51552 0.5851 0.0
H2547 H 0.02634 0.47716 0.59196 0.0
H2548 H 0.05209 0.57995 0.45975 0.0
H2549 H 0.07171 0.52774 0.43978 0.0
H2550 H 0.09845 0.5485 0.43024 0.0
H2551 H 0.07902 0.60088 0.45006 0.0
Gd2552 Gd 0.77591 0.79216 0.2637 0.0
Gd2553 Gd 0.81495 0.78081 0.26503 0.0
C2554 C 0.79979 0.79287 0.30493 0.0
C2555 C 0.74199 0.79389 0.26686 0.0
C2556 C 0.7273 0.79198 0.27971 0.0
C2557 C 0.71431 0.80342 0.27801 0.0
C2558 C 0.72629 0.77996 0.29398 0.0
C2559 C 0.69904 0.79065 0.3043 0.0
C2560 C 0.71227 0.77927 0.30613 0.0
C2561 C 0.70038 0.80275 0.29004 0.0
C2562 C 0.80386 0.82581 0.2621 0.0
C2563 C 0.79096 0.77998 0.22367 0.0
C2564 C 0.84912 0.78017 0.26171 0.0
C2565 C 0.86291 0.7808 0.24766 0.0
C2566 C 0.87016 0.76409 0.24293 0.0
C2567 C 0.86979 0.79779 0.23975 0.0
C2568 C 0.89158 0.78154 0.22354 0.0
C2569 C 0.88393 0.79814 0.22781 0.0
C2570 C 0.88419 0.7644 0.23102 0.0
C2571 C 0.78723 0.74696 0.26661 0.0
O2572 O 0.78349 0.79092 0.29496 0.0
O2573 O 0.81486 0.79192 0.2967 0.0
O2574 O 0.75623 0.80892 0.27266 0.0
O2575 O 0.74644 0.77787 0.25839 0.0
O2576 O 0.78632 0.82473 0.26055 0.0
O2577 O 0.80528 0.80824 0.26353 0.0
O2578 O 0.80711 0.78113 0.2336 0.0
O2579 O 0.77601 0.78149 0.23193 0.0
O2580 O 0.83549 0.76433 0.25856 0.0
O2581 O 0.84406 0.7964 0.26844 0.0
O2582 O 0.80481 0.74826 0.26778 0.0
O2583 O 0.78544 0.76451 0.26534 0.0
H2584 H 0.71491 0.81295 0.26723 0.0
H2585 H 0.73634 0.77123 0.2958 0.0
H2586 H 0.71196 0.76999 0.31709 0.0
H2587 H 0.69042 0.81149 0.28781 0.0
H2588 H 0.86517 0.75076 0.24877 0.0
H2589 H 0.86453 0.81095 0.24308 0.0
H2590 H 0.88927 0.81167 0.22246 0.0
H2591 H 0.88931 0.75115 0.2278 0.0
Gd2592 Gd 0.80541 0.28919 0.7478 0.0
Gd2593 Gd 0.7827 0.28773 0.78396 0.0
C2594 C 0.7976 0.32873 0.77138 0.0
C2595 C 0.81717 0.291 0.71513 0.0
C2596 C 0.83165 0.30572 0.70945 0.0
C2597 C 0.84117 0.2999 0.69426 0.0
C2598 C 0.83439 0.32596 0.71746 0.0
C2599 C 0.85009 0.33416 0.69034 0.0
C2600 C 0.84373 0.34025 0.7079 0.0
C2601 C 0.85071 0.31422 0.68484 0.0
C2602 C 0.82919 0.29413 0.78156 0.0
C2603 C 0.79106 0.2484 0.76075 0.0
C2604 C 0.77065 0.28603 0.81652 0.0
C2605 C 0.75737 0.27 0.82195 0.0
C2606 C 0.74829 0.27382 0.83808 0.0
C2607 C 0.75566 0.25035 0.81257 0.0
C2608 C 0.74191 0.23886 0.83957 0.0
C2609 C 0.74792 0.23471 0.82144 0.0
C2610 C 0.74022 0.2581 0.84677 0.0
C2611 C 0.75906 0.28223 0.75014 0.0
O2612 O 0.80116 0.31957 0.7548 0.0
O2613 O 0.79381 0.32008 0.78628 0.0
O2614 O 0.82274 0.28017 0.72686 0.0
O2615 O 0.8026 0.29726 0.71968 0.0
O2616 O 0.83412 0.29429 0.76445 0.0
O2617 O 0.81191 0.29249 0.77952 0.0
O2618 O 0.78778 0.25757 0.77745 0.0
O2619 O 0.79389 0.25694 0.74558 0.0
O2620 O 0.76396 0.29529 0.8039 0.0
O2621 O 0.78631 0.28173 0.81289 0.0
O2622 O 0.75388 0.281 0.76701 0.0
O2623 O 0.77638 0.28468 0.75224 0.0
H2624 H 0.83963 0.2843 0.68843 0.0
H2625 H 0.82762 0.33067 0.72972 0.0
H2626 H 0.84333 0.35563 0.71241 0.0
H2627 H 0.85576 0.30928 0.67142 0.0
H2628 H 0.74912 0.28895 0.84506 0.0
H2629 H 0.76216 0.24719 0.79969 0.0
H2630 H 0.74936 0.21991 0.8158 0.0
H2631 H 0.73555 0.26144 0.86078 0.0
Gd2632 Gd 0.80367 0.80752 0.77364 0.0
Gd2633 Gd 0.78703 0.76731 0.75647 0.0
C2634 C 0.75967 0.79254 0.76757 0.0
C2635 C 0.81224 0.84538 0.78493 0.0
C2636 C 0.80125 0.85966 0.78282 0.0
C2637 C 0.8047 0.87731 0.79632 0.0
C2638 C 0.78637 0.85497 0.76797 0.0
C2639 C 0.77883 0.88601 0.77965 0.0
C2640 C 0.77511 0.86798 0.76651 0.0
C2641 C 0.79357 0.89055 0.79469 0.0
C2642 C 0.8038 0.78296 0.79981 0.0
C2643 C 0.83132 0.78307 0.76201 0.0
C2644 C 0.77805 0.72936 0.74559 0.0
C2645 C 0.78903 0.71483 0.74603 0.0
C2646 C 0.78413 0.6971 0.7325 0.0
C2647 C 0.80511 0.71918 0.75932 0.0
C2648 C 0.81097 0.68771 0.74605 0.0
C2649 C 0.81609 0.70571 0.75926 0.0
C2650 C 0.79503 0.68347 0.73258 0.0
C2651 C 0.78698 0.79166 0.73013 0.0
O2652 O 0.77379 0.80743 0.76738 0.0
O2653 O 0.7616 0.77431 0.76589 0.0
O2654 O 0.80622 0.83298 0.79626 0.0
O2655 O 0.81657 0.83675 0.76874 0.0
O2656 O 0.81766 0.79713 0.79826 0.0
O2657 O 0.79043 0.78213 0.78716 0.0
O2658 O 0.81731 0.76778 0.76162 0.0
O2659 O 0.82907 0.80117 0.76412 0.0
O2660 O 0.78263 0.7416 0.7337 0.0
O2661 O 0.77552 0.73819 0.76257 0.0
O2662 O 0.77311 0.7775 0.73171 0.0
O2663 O 0.80032 0.79264 0.7429 0.0
H2664 H 0.81601 0.88087 0.808 0.0
H2665 H 0.78347 0.84128 0.75748 0.0
H2666 H 0.76361 0.86402 0.755 0.0
H2667 H 0.79676 0.90449 0.80488 0.0
H2668 H 0.77188 0.6938 0.722 0.0
H2669 H 0.80906 0.73285 0.76989 0.0
H2670 H 0.82822 0.70906 0.76995 0.0
H2671 H 0.79098 0.66959 0.72228 0.0
Gd2672 Gd 0.52683 0.52565 0.5022 0.0
Gd2673 Gd 0.56262 0.54699 0.52527 0.0
C2674 C 0.54055 0.57364 0.5053 0.0
C2675 C 0.4917 0.51417 0.4917 0.0
C2676 C 0.47692 0.52447 0.49424 0.0
C2677 C 0.46042 0.51789 0.4816 0.0
C2678 C 0.47984 0.54192 0.5081 0.0
C2679 C 0.44949 0.54584 0.49702 0.0
C2680 C 0.46621 0.55254 0.50949 0.0
C2681 C 0.44675 0.52847 0.483 0.0
C2682 C 0.55221 0.52397 0.47588 0.0
C2683 C 0.54907 0.49886 0.52176 0.0
C2684 C 0.59763 0.55869 0.53606 0.0
C2685 C 0.61277 0.54871 0.53439 0.0
C2686 C 0.62466 0.54945 0.55115 0.0
C2687 C 0.61445 0.53695 0.51688 0.0
C2688 C 0.6402 0.52726 0.53289 0.0
C2689 C 0.62817 0.52642 0.5161 0.0
C2690 C 0.63819 0.53872 0.55045 0.0
C2691 C 0.53738 0.54874 0.55168 0.0
O2692 O 0.52695 0.55751 0.50075 0.0
O2693 O 0.55653 0.57352 0.51454 0.0
O2694 O 0.5034 0.52144 0.48049 0.0
O2695 O 0.49974 0.51025 0.50744 0.0
O2696 O 0.53494 0.51484 0.47285 0.0
O2697 O 0.55587 0.53231 0.49391 0.0
O2698 O 0.56275 0.51497 0.5261 0.0
O2699 O 0.53294 0.49921 0.51302 0.0
O2700 O 0.58583 0.5517 0.54731 0.0
O2701 O 0.58976 0.56236 0.52009 0.0
O2702 O 0.55468 0.55763 0.55461 0.0
O2703 O 0.53355 0.54033 0.53366 0.0
H2704 H 0.45815 0.50464 0.47059 0.0
H2705 H 0.49273 0.54745 0.5177 0.0
H2706 H 0.46883 0.56606 0.52021 0.0
H2707 H 0.43394 0.52283 0.47332 0.0
H2708 H 0.62325 0.55806 0.56488 0.0
H2709 H 0.60514 0.53579 0.50383 0.0
H2710 H 0.6295 0.51789 0.5023 0.0
H2711 H 0.64699 0.53932 0.56371 0.0
Gd2712 Gd 0.06701 0.53755 0.01354 0.0
Gd2713 Gd 0.02497 0.5354 0.01521 0.0
C2714 C 0.03669 0.49477 0.00879 0.0
C2715 C 0.10033 0.53285 0.01851 0.0
C2716 C 0.11124 0.51775 0.01432 0.0
C2717 C 0.12414 0.52024 1.00103 0.0
C2718 C 0.11031 0.50199 0.02465 0.0
C2719 C 0.1361 0.49276 0.00975 0.0
C2720 C 0.12258 0.48959 0.02234 0.0
C2721 C 0.13639 0.5079 0.99875 0.0
C2722 C 0.04734 0.53661 0.97985 0.0
C2723 C 0.05465 0.57804 0.01886 0.0
C2724 C 0.99151 0.53988 0.01399 0.0
C2725 C 0.98091 0.5554 0.01628 0.0
C2726 C 0.9697 0.55633 0.03123 0.0
C2727 C 0.98046 0.5681 1.00274 0.0
C2728 C 0.95643 0.58091 0.01793 0.0
C2729 C 0.96838 0.58071 1.00359 0.0
C2730 C 0.95762 0.56898 0.0321 0.0
C2731 C 0.0454 0.53528 0.04805 0.0
O2732 O 0.05398 0.50527 0.01383 0.0
O2733 O 0.02282 0.50308 0.00534 0.0
O2734 O 0.0939 0.53973 1.00376 0.0
O2735 O 0.08889 0.53063 0.03152 0.0
O2736 O 0.06462 0.54574 0.98407 0.0
O2737 O 0.04178 0.52709 0.99274 0.0
O2738 O 0.03755 0.56723 0.01334 0.0
O2739 O 0.06865 0.57001 0.02268 0.0
O2740 O 1.00088 0.53746 0.02964 0.0
O2741 O 1.00011 0.53793 0.99864 0.0
O2742 O 0.02863 0.52466 0.04335 0.0
O2743 O 0.05022 0.54585 0.03574 0.0
H2744 H 0.1252 0.53222 0.99284 0.0
H2745 H 0.10056 0.49963 0.03503 0.0
H2746 H 0.12204 0.47813 0.03111 0.0
H2747 H 0.14642 0.51054 0.9887 0.0
H2748 H 0.96974 0.54669 0.04185 0.0
H2749 H 0.98901 0.56788 0.99112 0.0
H2750 H 0.96813 0.59 0.99269 0.0
H2751 H 0.94859 0.56866 0.0433 0.0
H2752 H 1.00501 0.15567 0.94124 0.0
H2753 H 0.06019 0.11294 0.02118 0.0
H2754 H 0.04187 0.1941 0.98968 0.0
H2755 H 0.01645 0.07727 0.97746 0.0
H2756 H 0.05516 0.14297 0.00963 0.0
H2757 H 0.01039 0.12695 0.95406 0.0
C2758 C 0.01408 0.15817 0.9547 0.0
C2759 C 0.02283 0.17754 0.96438 0.0
C2760 C 0.04668 0.12855 1.00262 0.0
C2761 C 0.02945 0.14428 0.97907 0.0
C2762 C 0.04956 0.11142 0.00918 0.0
C2763 C 0.03863 0.09256 1.00038 0.0
C2764 C 0.03299 0.12672 0.98694 0.0
C2765 C 0.02506 0.09147 0.98489 0.0
C2766 C 0.01729 0.14165 0.96197 0.0
C2767 C 0.0349 0.17954 0.98153 0.0
N2768 N 0.02272 0.10822 0.97866 0.0
N2769 N 0.03786 0.16316 0.98831 0.0
H2770 H 0.18912 0.82087 0.16731 0.0
H2771 H 0.2225 0.76459 0.24987 0.0
H2772 H 0.15344 0.77386 0.18858 0.0
H2773 H 0.26176 0.79865 0.21941 0.0
H2774 H 0.19736 0.76969 0.22833 0.0
H2775 H 0.21576 0.81514 0.1869 0.0
C2776 C 0.1868 0.80941 0.1761 0.0
C2777 C 0.16878 0.79782 0.17608 0.0
C2778 C 0.21142 0.77589 0.22607 0.0
C2779 C 0.19949 0.79119 0.19874 0.0
C2780 C 0.22589 0.7729 0.23839 0.0
C2781 C 0.24445 0.78082 0.23637 0.0
C2782 C 0.21519 0.7873 0.21151 0.0
C2783 C 0.24777 0.79181 0.22132 0.0
C2784 C 0.2021 0.80605 0.1872 0.0
C2785 C 0.16691 0.78307 0.18776 0.0
N2786 N 0.23333 0.79485 0.20961 0.0
N2787 N 0.1819 0.78032 0.19856 0.0
H2788 H 0.5529 0.87575 0.49528 0.0
H2789 H 0.50706 0.9676 0.48897 0.0
H2790 H 0.50098 0.87157 0.46107 0.0
H2791 H 0.55998 0.9729 0.5218 0.0
H2792 H 0.5035 0.93174 0.48073 0.0
H2793 H 0.55495 0.91106 0.50701 0.0
C2794 C 0.54193 0.88226 0.49031 0.0
C2795 C 0.52668 0.87073 0.47734 0.0
C2796 C 0.51583 0.94073 0.48987 0.0
C2797 C 0.52891 0.9109 0.49058 0.0
C2798 C 0.51782 0.96118 0.49464 0.0
C2799 C 0.53389 0.9732 0.50596 0.0
C2800 C 0.52998 0.93229 0.49653 0.0
C2801 C 0.54745 0.96416 0.51284 0.0
C2802 C 0.54306 0.90235 0.49703 0.0
C2803 C 0.51281 0.87983 0.47137 0.0
N2804 N 0.54522 0.94422 0.50794 0.0
N2805 N 0.51428 0.89938 0.47799 0.0
H2806 H 0.47932 0.25782 0.6561 0.0
H2807 H 0.41384 0.31476 0.71513 0.0
H2808 H 0.49102 0.32154 0.67428 0.0
H2809 H 0.40448 0.2508 0.7037 0.0
H2810 H 0.44078 0.3171 0.69783 0.0
H2811 H 0.45112 0.25463 0.67167 0.0
C2812 C 0.4761 0.27117 0.66339 0.0
C2813 C 0.48781 0.29003 0.66377 0.0
C2814 C 0.43284 0.30253 0.69905 0.0
C2815 C 0.45511 0.2864 0.68144 0.0
C2816 C 0.41726 0.30115 0.70881 0.0
C2817 C 0.4067 0.28254 0.71099 0.0
C2818 C 0.43809 0.2852 0.69128 0.0
C2819 C 0.41225 0.26551 0.70269 0.0
C2820 C 0.45986 0.26931 0.6722 0.0
C2821 C 0.48247 0.3067 0.67321 0.0
N2822 N 0.42752 0.26725 0.69326 0.0
N2823 N 0.46662 0.30448 0.6816 0.0
H2824 H 0.01073 0.82255 0.56558 0.0
H2825 H 0.04764 0.93955 0.57405 0.0
H2826 H 0.03171 0.86187 0.6203 0.0
H2827 H 0.03966 0.89729 0.52049 0.0
H2828 H 0.04031 0.91182 0.59159 0.0
H2829 H 0.01963 0.85054 0.54876 0.0
C2830 C 0.01714 0.8372 0.57395 0.0
C2831 C 0.0205 0.84023 0.59415 0.0
C2832 C 0.04036 0.90869 0.57603 0.0
C2833 C 0.03064 0.87205 0.57535 0.0
C2834 C 0.04445 0.92444 0.56604 0.0
C2835 C 0.04428 0.92061 0.54585 0.0
C2836 C 0.03593 0.88912 0.56563 0.0
C2837 C 0.04019 0.90086 0.5361 0.0
C2838 C 0.0223 0.85309 0.56445 0.0
C2839 C 0.02896 0.85924 0.60461 0.0
N2840 N 0.03608 0.88583 0.5461 0.0
N2841 N 0.0337 0.87459 0.59506 0.0
H2842 H 0.51263 0.81889 0.79269 0.0
H2843 H 0.40549 0.77932 0.79703 0.0
H2844 H 0.48983 0.77785 0.8291 0.0
H2845 H 0.42848 0.82555 0.766 0.0
H2846 H 0.436 0.77291 0.80297 0.0
H2847 H 0.48155 0.81583 0.77687 0.0
C2848 C 0.50109 0.80905 0.79715 0.0
C2849 C 0.50371 0.79884 0.81237 0.0
C2850 C 0.43431 0.78424 0.7946 0.0
C2851 C 0.46831 0.79519 0.7944 0.0
C2852 C 0.41697 0.78794 0.7913 0.0
C2853 C 0.41468 0.80319 0.78132 0.0
C2854 C 0.44937 0.79597 0.78795 0.0
C2855 C 0.42977 0.81368 0.77379 0.0
C2856 C 0.4834 0.80723 0.78809 0.0
C2857 C 0.48841 0.78595 0.81739 0.0
N2858 N 0.4466 0.81007 0.77751 0.0
N2859 N 0.47129 0.7847 0.80858 0.0
H2860 H 0.47369 0.14025 0.08487 0.0
H2861 H 0.55059 0.09294 0.04001 0.0
H2862 H 0.52777 0.17428 0.07858 0.0
H2863 H 0.49267 0.06541 0.02282 0.0
H2864 H 0.54248 0.12115 0.05901 0.0
H2865 H 0.48021 0.11086 0.06553 0.0
C2866 C 0.48682 0.14153 0.07927 0.0
C2867 C 0.50036 0.15949 0.08348 0.0
C2868 C 0.53154 0.10892 0.05112 0.0
C2869 C 0.50787 0.12633 0.06192 0.0
C2870 C 0.53615 0.09282 0.04043 0.0
C2871 C 0.5222 0.07712 0.02983 0.0
C2872 C 0.51289 0.10906 0.05137 0.0
C2873 C 0.50372 0.0775 0.03074 0.0
C2874 C 0.49053 0.12484 0.06837 0.0
C2875 C 0.51717 0.16052 0.07602 0.0
N2876 N 0.49952 0.09335 0.04143 0.0
N2877 N 0.52052 0.14408 0.0657 0.0
H2878 H 0.18912 0.33981 0.33931 0.0
H2879 H 0.22488 0.27263 0.25658 0.0
H2880 H 0.15197 0.29341 0.29697 0.0
H2881 H 0.25875 0.32283 0.29748 0.0
H2882 H 0.1973 0.28064 0.26917 0.0
H2883 H 0.21441 0.3352 0.32155 0.0
C2884 C 0.18625 0.32892 0.326 0.0
C2885 C 0.16855 0.31689 0.31961 0.0
C2886 C 0.21082 0.28994 0.27516 0.0
C2887 C 0.19748 0.31103 0.29949 0.0
C2888 C 0.22642 0.28535 0.26807 0.0
C2889 C 0.24388 0.2973 0.27589 0.0
C2890 C 0.21304 0.3063 0.29027 0.0
C2891 C 0.24544 0.31352 0.29077 0.0
C2892 C 0.20071 0.32612 0.31593 0.0
C2893 C 0.16559 0.30272 0.30248 0.0
N2894 N 0.2302 0.31746 0.29754 0.0
N2895 N 0.18005 0.29997 0.29305 0.0
H2896 H 1.00544 0.07988 0.1691 0.0
H2897 H 1.00183 0.02621 0.05633 0.0
H2898 H 0.96088 0.03018 0.14168 0.0
H2899 H 0.04737 0.07195 0.08844 0.0
H2900 H 0.98575 0.02769 0.08584 0.0
H2901 H 0.01968 0.07757 0.1391 0.0
C2902 C 0.99837 0.06849 0.15693 0.0
C2903 C 0.98148 0.05532 0.15874 0.0
C2904 C 0.99924 0.03749 0.0864 0.0
C2905 C 0.99853 0.05245 0.12302 0.0
C2906 C 0.00846 0.03671 0.06934 0.0
C2907 C 0.02621 0.04906 0.06934 0.0
C2908 C 0.00757 0.0508 0.10391 0.0
C2909 C 0.03381 0.06208 0.0872 0.0
C2910 C 0.00676 0.0671 0.13953 0.0
C2911 C 0.97382 0.04076 0.14175 0.0
N2912 N 0.02464 0.06259 0.10331 0.0
N2913 N 0.98222 0.0398 0.12497 0.0
H2914 H 0.27085 0.67221 0.42187 0.0
H2915 H 0.2406 0.75941 0.3786 0.0
H2916 H 0.27985 0.73275 0.45182 0.0
H2917 H 0.2343 0.70098 0.34416 0.0
H2918 H 0.24863 0.74694 0.40717 0.0
H2919 H 0.25483 0.68085 0.39372 0.0
C2920 C 0.26991 0.68745 0.4222 0.0
C2921 C 0.27669 0.70194 0.43889 0.0
C2922 C 0.24521 0.7367 0.39342 0.0
C2923 C 0.25782 0.71155 0.4076 0.0
C2924 C 0.24014 0.74371 0.37698 0.0
C2925 C 0.23752 0.73142 0.35866 0.0
C2926 C 0.2478 0.71737 0.39153 0.0
C2927 C 0.23704 0.71118 0.3579 0.0
C2928 C 0.26046 0.69224 0.4064 0.0
C2929 C 0.27484 0.72131 0.43904 0.0
N2930 N 0.24284 0.70487 0.37409 0.0
N2931 N 0.26542 0.72553 0.42363 0.0
H2932 H 0.58839 0.01648 0.65824 0.0
H2933 H 0.57838 0.06156 0.56208 0.0
H2934 H 0.63031 0.06323 0.64371 0.0
H2935 H 0.53892 0.01142 0.57447 0.0
H2936 H 0.59784 0.06239 0.59196 0.0
H2937 H 0.57009 0.01436 0.62739 0.0
C2938 C 0.59378 0.0262 0.64846 0.0
C2939 C 0.61089 0.03996 0.65337 0.0
C2940 C 0.58497 0.05116 0.58811 0.0
C2941 C 0.58996 0.0379 0.6184 0.0
C2942 C 0.57391 0.05068 0.57112 0.0
C2943 C 0.55708 0.03649 0.56614 0.0
C2944 C 0.57904 0.03733 0.6 0.0
C2945 C 0.55177 0.02269 0.5781 0.0
C2946 C 0.5833 0.02506 0.63094 0.0
C2947 C 0.61708 0.05254 0.64048 0.0
N2948 N 0.56277 0.02348 0.59463 0.0
N2949 N 0.60655 0.05123 0.6235 0.0
H2950 H 0.29665 0.35416 0.91974 0.0
H2951 H 0.28794 0.26792 0.82892 0.0
H2952 H 0.293 0.29354 0.92682 0.0
H2953 H 0.31472 0.32901 0.82904 0.0
H2954 H 0.28659 0.27634 0.86398 0.0
H2955 H 0.29952 0.34471 0.8853 0.0
C2956 C 0.29621 0.33879 0.91392 0.0
C2957 C 0.29446 0.32455 0.92599 0.0
C2958 C 0.29299 0.28783 0.85639 0.0
C2959 C 0.29778 0.31365 0.88674 0.0
C2960 C 0.29383 0.28302 0.8365 0.0
C2961 C 0.30172 0.29779 0.82638 0.0
C2962 C 0.29966 0.30764 0.86599 0.0
C2963 C 0.30881 0.31722 0.83654 0.0
C2964 C 0.29802 0.33345 0.89436 0.0
C2965 C 0.29428 0.3049 0.91789 0.0
N2966 N 0.30746 0.32165 0.8558 0.0
N2967 N 0.29578 0.29997 0.89869 0.0
H2968 H 0.97788 0.08283 0.37916 0.0
H2969 H 0.0285 0.01579 0.4393 0.0
H2970 H 0.99644 0.03276 0.35134 0.0
H2971 H 0.01765 0.07105 0.46564 0.0
H2972 H 0.0161 0.02101 0.40739 0.0
H2973 H 0.99155 0.07826 0.41056 0.0
C2974 C 0.98486 0.07093 0.37936 0.0
C2975 C 0.98563 0.05819 0.36187 0.0
C2976 C 0.01637 0.032 0.42012 0.0
C2977 C 1.00141 0.05259 0.3989 0.0
C2978 C 0.02347 0.029 0.43851 0.0
C2979 C 0.02423 0.04292 0.45559 0.0
C2980 C 0.00958 0.04899 0.41844 0.0
C2981 C 0.0175 0.0598 0.45315 0.0
C2982 C 0.99265 0.06825 0.39759 0.0
C2983 C 0.99487 0.04289 0.36397 0.0
N2984 N 0.01046 0.06224 0.4352 0.0
N2985 N 1.0022 0.04055 0.38186 0.0
H2986 H 0.29915 0.69734 0.63247 0.0
H2987 H 0.29145 0.79749 0.69599 0.0
H2988 H 0.26577 0.73282 0.6087 0.0
H2989 H 0.29518 0.7451 0.71966 0.0
H2990 H 0.28537 0.77705 0.66311 0.0
H2991 H 0.30215 0.71822 0.6643 0.0
C2992 C 0.29247 0.70959 0.63406 0.0
C2993 C 0.2822 0.71348 0.61818 0.0
C2994 C 0.2874 0.77016 0.67562 0.0
C2995 C 0.2856 0.73739 0.65427 0.0
C2996 C 0.29092 0.78175 0.69423 0.0
C2997 C 0.29396 0.77295 0.71039 0.0
C2998 C 0.28738 0.74992 0.67343 0.0
C2999 C 0.29299 0.7525 0.70755 0.0
C3000 C 0.29409 0.72141 0.65215 0.0
C3001 C 0.27371 0.72943 0.6208 0.0
N3002 N 0.29002 0.74173 0.6894 0.0
N3003 N 0.27571 0.74103 0.63862 0.0
H3004 H 0.63855 0.04465 0.8481 0.0
H3005 H 0.57868 0.10015 0.91253 0.0
H3006 H 0.59003 0.06263 0.82735 0.0
H3007 H 0.62328 0.07798 0.93666 0.0
H3008 H 0.59016 0.09684 0.88155 0.0
H3009 H 0.63752 0.06235 0.88061 0.0
C3010 C 0.62742 0.05191 0.85054 0.0
C3011 C 0.61425 0.05213 0.83519 0.0
C3012 C 0.5978 0.09321 0.89373 0.0
C3013 C 0.61365 0.07322 0.8718 0.0
C3014 C 0.59149 0.09554 0.91167 0.0
C3015 C 0.59936 0.08796 0.92679 0.0
C3016 C 0.61197 0.08332 0.89121 0.0
C3017 C 0.61625 0.08287 0.92489 0.0
C3018 C 0.62714 0.06243 0.86892 0.0
C3019 C 0.6004 0.06214 0.8389 0.0
N3020 N 0.62157 0.07961 0.907 0.0
N3021 N 0.60052 0.0724 0.85685 0.0
H3022 H 0.27785 0.351 0.13389 0.0
H3023 H 0.30495 0.27403 0.19675 0.0
H3024 H 0.31754 0.31694 0.11891 0.0
H3025 H 0.28213 0.32192 0.22168 0.0
H3026 H 0.30786 0.28831 0.16731 0.0
H3027 H 0.27673 0.3388 0.16472 0.0
C3028 C 0.28629 0.34092 0.13698 0.0
C3029 C 0.29789 0.33512 0.12363 0.0
C3030 C 0.30245 0.29592 0.17926 0.0
C3031 C 0.29671 0.32118 0.15918 0.0
C3032 C 0.30087 0.28783 0.19613 0.0
C3033 C 0.2936 0.29701 0.21182 0.0
C3034 C 0.29625 0.31313 0.17769 0.0
C3035 C 0.28819 0.31463 0.21009 0.0
C3036 C 0.28576 0.33412 0.15472 0.0
C3037 C 0.30859 0.32212 0.12872 0.0
N3038 N 0.28941 0.32201 0.19321 0.0
N3039 N 0.30766 0.31556 0.14594 0.0
H3040 H 0.24836 1.00449 0.02423 0.0
H3041 H 0.13963 0.98767 0.02657 0.0
H3042 H 0.21055 0.9467 0.01207 0.0
H3043 H 0.17809 0.04528 0.03841 0.0
H3044 H 0.16544 0.97205 0.02248 0.0
H3045 H 0.22261 0.01973 0.03052 0.0
C3046 C 0.23451 0.99513 0.02281 0.0
C3047 C 0.23121 0.97453 0.01742 0.0
C3048 C 0.16821 0.9881 0.02608 0.0
C3049 C 0.20201 0.99146 0.02482 0.0
C3050 C 0.1535 0.997 0.02833 0.0
C3051 C 0.15677 0.01777 0.03274 0.0
C3052 C 0.1862 1.00013 0.02818 0.0
C3053 C 0.17499 0.0292 0.0352 0.0
C3054 C 0.21989 1.00372 0.02646 0.0
C3055 C 0.21331 0.96273 0.01593 0.0
N3056 N 0.18902 0.02021 0.03278 0.0
N3057 N 0.19926 0.9714 0.01963 0.0
H3058 H 0.68529 0.60108 0.97332 0.0
H3059 H 0.59792 0.57916 0.03254 0.0
H3060 H 0.68191 0.63829 0.02729 0.0
H3061 H 0.59923 0.54931 0.97447 0.0
H3062 H 0.62901 0.60002 0.03201 0.0
H3063 H 0.6544 0.5813 0.97454 0.0
C3064 C 0.67814 0.60533 0.9854 0.0
C3065 C 0.6866 0.62174 1.00014 0.0
C3066 C 0.62247 0.58894 0.01937 0.0
C3067 C 0.65072 0.59838 1.00181 0.0
C3068 C 0.60468 0.57701 0.01966 0.0
C3069 C 0.59583 0.5624 1.00351 0.0
C3070 C 0.63161 0.58621 1.00284 0.0
C3071 C 0.6054 0.56034 0.98727 0.0
C3072 C 0.66039 0.5938 0.98614 0.0
C3073 C 0.67638 0.62577 0.01562 0.0
N3074 N 0.62264 0.57197 0.98738 0.0
N3075 N 0.65913 0.61424 0.01604 0.0
H3076 H 0.73203 0.42658 0.29407 0.0
H3077 H 0.74203 0.31832 0.24036 0.0
H3078 H 0.7043 0.40037 0.23654 0.0
H3079 H 0.78268 0.35599 0.2857 0.0
H3080 H 0.72584 0.34554 0.24035 0.0
H3081 H 0.74765 0.39924 0.29311 0.0
C3082 C 0.72894 0.41519 0.28117 0.0
C3083 C 0.71634 0.4166 0.26539 0.0
C3084 C 0.73827 0.34792 0.25039 0.0
C3085 C 0.73496 0.38389 0.26427 0.0
C3086 C 0.74761 0.33216 0.25045 0.0
C3087 C 0.76411 0.33433 0.26302 0.0
C3088 C 0.74485 0.36633 0.2634 0.0
C3089 C 0.77025 0.35314 0.27557 0.0
C3090 C 0.73816 0.39937 0.28062 0.0
C3091 C 0.71374 0.40073 0.2492 0.0
N3092 N 0.76071 0.36793 0.27555 0.0
N3093 N 0.72267 0.38536 0.24918 0.0
H3094 H 0.89516 0.5029 0.49452 0.0
H3095 H 0.99431 0.49773 0.53915 0.0
H3096 H 0.9102 0.50337 0.55536 0.0
H3097 H 0.98268 0.50976 0.48159 0.0
H3098 H 0.96261 0.49754 0.54453 0.0
H3099 H 0.92728 0.50702 0.48958 0.0
C3100 C 0.9053 0.50462 0.50702 0.0
C3101 C 0.89999 0.50234 0.52533 0.0
C3102 C 0.96695 0.50007 0.53066 0.0
C3103 C 0.93655 0.50608 0.51953 0.0
C3104 C 0.9849 0.49985 0.52751 0.0
C3105 C 0.99104 0.50403 0.51006 0.0
C3106 C 0.95518 0.50438 0.51617 0.0
C3107 C 0.97841 0.50644 0.49526 0.0
C3108 C 0.92362 0.50659 0.50409 0.0
C3109 C 0.91373 0.50456 0.54092 0.0
N3110 N 0.96103 0.50685 0.49876 0.0
N3111 N 0.93142 0.50586 0.53758 0.0
H3112 H 0.38187 0.12124 0.29707 0.0
H3113 H 0.31717 0.15797 0.2221 0.0
H3114 H 0.35606 0.08551 0.24165 0.0
H3115 H 0.33404 0.18604 0.28224 0.0
H3116 H 0.33454 0.13312 0.22719 0.0
H3117 H 0.36688 0.14716 0.29026 0.0
C3118 C 0.37282 0.11882 0.28358 0.0
C3119 C 0.37001 0.10136 0.26991 0.0
C3120 C 0.33451 0.14489 0.23914 0.0
C3121 C 0.35325 0.13086 0.26184 0.0
C3122 C 0.32464 0.15898 0.23626 0.0
C3123 C 0.32422 0.17399 0.25176 0.0
C3124 C 0.3439 0.14605 0.2576 0.0
C3125 C 0.33426 0.17491 0.26978 0.0
C3126 C 0.36443 0.13363 0.2796 0.0
C3127 C 0.35856 0.09895 0.25244 0.0
N3128 N 0.34364 0.16103 0.27222 0.0
N3129 N 0.35052 0.11366 0.24885 0.0
H3130 H 0.37674 0.15235 0.54038 0.0
H3131 H 0.43403 0.08321 0.48389 0.0
H3132 H 0.36286 0.12408 0.48008 0.0
H3133 H 0.44364 0.10218 0.5461 0.0
H3134 H 0.40937 0.10049 0.48236 0.0
H3135 H 0.40218 0.13593 0.54294 0.0
C3136 C 0.37889 0.14267 0.52767 0.0
C3137 C 0.36743 0.13971 0.50993 0.0
C3138 C 0.41686 0.10096 0.49638 0.0
C3139 C 0.39697 0.12117 0.51278 0.0
C3140 C 0.43112 0.09122 0.49725 0.0
C3141 C 0.44112 0.09135 0.51513 0.0
C3142 C 0.4124 0.11101 0.5135 0.0
C3143 C 0.43628 0.10159 0.53199 0.0
C3144 C 0.39356 0.1334 0.52916 0.0
C3145 C 0.37136 0.12725 0.49397 0.0
N3146 N 0.42229 0.11106 0.53076 0.0
N3147 N 0.38574 0.11854 0.49579 0.0
H3148 H 0.746 0.62651 0.29062 0.0
H3149 H 0.74891 0.73073 0.25169 0.0
H3150 H 0.70189 0.63214 0.24983 0.0
H3151 H 0.79433 0.7173 0.28446 0.0
H3152 H 0.73015 0.69672 0.25227 0.0
H3153 H 0.7621 0.66069 0.28999 0.0
C3154 C 0.73942 0.63475 0.28158 0.0
C3155 C 0.72212 0.6256 0.27035 0.0
C3156 C 0.74419 0.7013 0.25949 0.0
C3157 C 0.74133 0.66623 0.26946 0.0
C3158 C 0.75493 0.72096 0.25931 0.0
C3159 C 0.77348 0.72747 0.26823 0.0
C3160 C 0.7518 0.68781 0.26881 0.0
C3161 C 0.78024 0.71344 0.27743 0.0
C3162 C 0.74888 0.65458 0.28114 0.0
C3163 C 0.71511 0.63788 0.25873 0.0
N3164 N 0.76962 0.69477 0.2775 0.0
N3165 N 0.72455 0.65723 0.25866 0.0
H3166 H 0.84789 0.42794 0.728 0.0
H3167 H 0.82116 0.35394 0.80017 0.0
H3168 H 0.88646 0.41499 0.77033 0.0
H3169 H 0.7858 0.35103 0.74751 0.0
H3170 H 0.84306 0.38187 0.79215 0.0
H3171 H 0.82413 0.40025 0.73395 0.0
C3172 C 0.85155 0.41848 0.73773 0.0
C3173 C 0.86872 0.4237 0.74912 0.0
C3174 C 0.83031 0.37537 0.78254 0.0
C3175 C 0.84189 0.39351 0.75685 0.0
C3176 C 0.81755 0.35998 0.78748 0.0
C3177 C 0.80222 0.35006 0.77402 0.0
C3178 C 0.8272 0.38067 0.76432 0.0
C3179 C 0.79788 0.35832 0.7579 0.0
C3180 C 0.83794 0.40313 0.74154 0.0
C3181 C 0.87311 0.41129 0.76155 0.0
N3182 N 0.81074 0.37286 0.75301 0.0
N3183 N 0.85947 0.39703 0.76569 0.0
H3184 H 0.09271 0.91399 0.07737 0.0
H3185 H 0.02608 0.96086 0.01259 0.0
H3186 H 0.04021 0.87958 0.0465 0.0
H3187 H 0.0789 0.99328 0.0442 0.0
H3188 H 0.03089 0.93063 0.02369 0.0
H3189 H 0.08786 0.94271 0.06411 0.0
C3190 C 0.08022 0.91234 0.06764 0.0
C3191 C 0.06691 0.89414 0.0631 0.0
C3192 C 0.04142 0.94438 0.02813 0.0
C3193 C 0.06106 0.92747 0.04797 0.0
C3194 C 0.03869 0.96165 0.02179 0.0
C3195 C 0.05211 0.97973 0.02741 0.0
C3196 C 0.05763 0.9452 0.04029 0.0
C3197 C 0.06817 0.97977 0.03936 0.0
C3198 C 0.07738 0.92888 0.06016 0.0
C3199 C 0.0508 0.89328 0.05068 0.0
N3200 N 0.07042 0.96288 0.0454 0.0
N3201 N 0.04833 0.90967 0.04358 0.0
H3202 H 0.91446 0.2462 0.83456 0.0
H3203 H 0.84686 0.31835 0.81614 0.0
H3204 H 0.9213 0.30433 0.86948 0.0
H3205 H 0.84098 0.2603 0.782 0.0
H3206 H 0.87266 0.31288 0.83729 0.0
H3207 H 0.88666 0.25054 0.81663 0.0
C3208 C 0.91019 0.25985 0.83869 0.0
C3209 C 0.92067 0.27486 0.85383 0.0
C3210 C 0.86551 0.30116 0.8254 0.0
C3211 C 0.88833 0.28008 0.83271 0.0
C3212 C 0.85054 0.30418 0.81349 0.0
C3213 C 0.84126 0.28952 0.79757 0.0
C3214 C 0.87149 0.28341 0.8213 0.0
C3215 C 0.84734 0.27182 0.79437 0.0
C3216 C 0.89421 0.26237 0.82824 0.0
C3217 C 0.91416 0.29233 0.85786 0.0
N3218 N 0.86196 0.26931 0.80598 0.0
N3219 N 0.89859 0.29442 0.84745 0.0
H3220 H 0.53784 0.19484 0.55175 0.0
H3221 H 0.58729 0.10697 0.52435 0.0
H3222 H 0.5953 0.20573 0.54294 0.0
H3223 H 0.52822 0.09935 0.52106 0.0
H3224 H 0.59101 0.14316 0.53081 0.0
H3225 H 0.53435 0.1597 0.53981 0.0
C3226 C 0.54969 0.18994 0.54699 0.0
C3227 C 0.56692 0.20336 0.5484 0.0
C3228 C 0.57726 0.13349 0.52852 0.0
C3229 C 0.56309 0.16281 0.53517 0.0
C3230 C 0.57514 0.11289 0.52492 0.0
C3231 C 0.55744 0.10016 0.52228 0.0
C3232 C 0.56158 0.14125 0.52972 0.0
C3233 C 0.54215 0.10856 0.523 0.0
C3234 C 0.5477 0.16977 0.54029 0.0
C3235 C 0.58183 0.1959 0.54241 0.0
N3236 N 0.5446 0.12855 0.52681 0.0
N3237 N 0.57962 0.17607 0.53621 0.0
H3238 H 0.60401 0.81248 0.35918 0.0
H3239 H 0.68007 0.75845 0.3185 0.0
H3240 H 0.60751 0.75372 0.36771 0.0
H3241 H 0.68242 0.82053 0.31851 0.0
H3242 H 0.65366 0.75663 0.33669 0.0
H3243 H 0.63263 0.81588 0.34442 0.0
C3244 C 0.61077 0.80031 0.35812 0.0
C3245 C 0.603 0.78267 0.36464 0.0
C3246 C 0.65999 0.77068 0.33277 0.0
C3247 C 0.63588 0.78643 0.34732 0.0
C3248 C 0.67524 0.77179 0.32245 0.0
C3249 C 0.68359 0.78963 0.31667 0.0
C3250 C 0.65282 0.78748 0.33734 0.0
C3251 C 0.67631 0.80628 0.32213 0.0
C3252 C 0.62713 0.80226 0.34956 0.0
C3253 C 0.61252 0.76742 0.36254 0.0
N3254 N 0.66134 0.80475 0.33199 0.0
N3255 N 0.6283 0.76962 0.35402 0.0
H3256 H 0.08667 0.24865 0.4617 0.0
H3257 H 0.03307 0.1358 0.45618 0.0
H3258 H 0.05034 0.21401 0.41098 0.0
H3259 H 0.06185 0.17484 0.50871 0.0
H3260 H 0.0392 0.1639 0.43881 0.0
H3261 H 0.07829 0.22098 0.4787 0.0
C3262 C 0.07699 0.23516 0.45412 0.0
C3263 C 0.06925 0.23354 0.43491 0.0
C3264 C 0.04403 0.16631 0.45417 0.0
C3265 C 0.05933 0.20198 0.45434 0.0
C3266 C 0.04053 0.15036 0.464 0.0
C3267 C 0.04687 0.15329 0.4838 0.0
C3268 C 0.05423 0.18501 0.46427 0.0
C3269 C 0.05654 0.17222 0.49346 0.0
C3270 C 0.07207 0.21944 0.46388 0.0
C3271 C 0.0565 0.21588 0.42587 0.0
N3272 N 0.06006 0.18738 0.48354 0.0
N3273 N 0.05195 0.2007 0.43568 0.0
H3274 H 0.58655 0.28683 0.23784 0.0
H3275 H 0.6766 0.25282 0.20966 0.0
H3276 H 0.58905 0.24351 0.1879 0.0
H3277 H 0.67464 0.28455 0.26691 0.0
H3278 H 0.64506 0.25378 0.20031 0.0
H3279 H 0.61947 0.28981 0.2482 0.0
C3280 C 0.59401 0.27785 0.22926 0.0
C3281 C 0.5852 0.26463 0.21229 0.0
C3282 C 0.65148 0.26069 0.2149 0.0
C3283 C 0.62227 0.26823 0.22357 0.0
C3284 C 0.66953 0.26034 0.22015 0.0
C3285 C 0.67807 0.26875 0.23898 0.0
C3286 C 0.64185 0.26942 0.22863 0.0
C3287 C 0.6683 0.27788 0.25224 0.0
C3288 C 0.61265 0.27957 0.23509 0.0
C3289 C 0.59528 0.25347 0.20138 0.0
N3290 N 0.65049 0.27795 0.24681 0.0
N3291 N 0.6133 0.25557 0.20721 0.0
H3292 H 0.62149 0.92673 0.95971 0.0
H3293 H 0.54466 0.98764 0.9734 0.0
H3294 H 0.57079 0.91522 0.92107 0.0
H3295 H 0.59784 1.00436 0.00853 0.0
H3296 H 0.55538 0.96283 0.95213 0.0
H3297 H 0.61482 0.9575 0.9759 0.0
C3298 C 0.60918 0.93098 0.95444 0.0
C3299 C 0.59651 0.91855 0.93934 0.0
C3300 C 0.56479 0.97206 0.96437 0.0
C3301 C 0.58871 0.95313 0.95761 0.0
C3302 C 0.55865 0.98615 0.97648 0.0
C3303 C 0.57037 0.99774 0.99272 0.0
C3304 C 0.5827 0.96955 0.96871 0.0
C3305 C 0.58837 0.99543 0.99617 0.0
C3306 C 0.60532 0.9484 0.96367 0.0
C3307 C 0.58071 0.92443 0.93293 0.0
N3308 N 0.59397 0.98138 0.98434 0.0
N3309 N 0.57713 0.94122 0.94226 0.0
H3310 H 0.90613 0.73136 0.70318 0.0
H3311 H 0.86228 0.81107 0.75967 0.0
H3312 H 0.9344 0.7935 0.71955 0.0
H3313 H 0.84131 0.74778 0.7558 0.0
H3314 H 0.89026 0.80498 0.74771 0.0
H3315 H 0.8837 0.73685 0.72498 0.0
C3316 C 0.90777 0.74611 0.71155 0.0
C3317 C 0.92199 0.76207 0.70935 0.0
C3318 C 0.87971 0.79245 0.74986 0.0
C3319 C 0.89619 0.7685 0.73399 0.0
C3320 C 0.86371 0.7959 0.75666 0.0
C3321 C 0.84936 0.77982 0.75835 0.0
C3322 C 0.88122 0.77282 0.74464 0.0
C3323 C 0.85196 0.76054 0.75441 0.0
C3324 C 0.89493 0.74924 0.72397 0.0
C3325 C 0.92333 0.78091 0.7204 0.0
N3326 N 0.86754 0.75753 0.74741 0.0
N3327 N 0.9104 0.78367 0.73209 0.0
H3328 H 0.09477 0.04066 0.86413 0.0
H3329 H 0.07919 1.00325 0.96708 0.0
H3330 H 0.11819 0.99448 0.88209 0.0
H3331 H 0.05352 0.0466 0.94687 0.0
H3332 H 0.09448 1.00076 0.93729 0.0
H3333 H 0.08093 0.04377 0.89437 0.0
C3334 C 0.09729 0.03113 0.87423 0.0
C3335 C 0.1082 0.01726 0.86968 0.0
C3336 C 0.08579 0.01113 0.93944 0.0
C3337 C 0.0915 0.02085 0.90566 0.0
C3338 C 0.07716 0.01276 0.95676 0.0
C3339 C 0.06539 0.02578 0.96032 0.0
C3340 C 0.08278 0.02249 0.92499 0.0
C3341 C 0.06281 0.0368 0.94544 0.0
C3342 C 0.0891 0.03292 0.89177 0.0
C3343 C 0.11004 1.00536 0.8841 0.0
N3344 N 0.07134 0.035 0.92884 0.0
N3345 N 0.10198 0.00746 0.90103 0.0
H3346 H 0.85059 0.36264 0.57692 0.0
H3347 H 0.81966 0.34554 0.67919 0.0
H3348 H 0.79928 0.37145 0.59589 0.0
H3349 H 0.87432 0.34488 0.66475 0.0
H3350 H 0.81175 0.35411 0.64811 0.0
H3351 H 0.85886 0.35361 0.60808 0.0
C3352 C 0.84099 0.36238 0.58758 0.0
C3353 C 0.82433 0.36789 0.58403 0.0
C3354 C 0.82565 0.35263 0.65186 0.0
C3355 C 0.83367 0.35785 0.61938 0.0
C3356 C 0.8303 0.34813 0.66976 0.0
C3357 C 0.84787 0.34508 0.67463 0.0
C3358 C 0.83867 0.35414 0.63876 0.0
C3359 C 0.8608 0.34755 0.66153 0.0
C3360 C 0.84574 0.35735 0.60531 0.0
C3361 C 0.81219 0.36711 0.59803 0.0
N3362 N 0.8559 0.35191 0.64401 0.0
N3363 N 0.8172 0.36233 0.61523 0.0
H3364 H 0.4946 0.01017 0.36439 0.0
H3365 H 0.52776 0.06377 0.47423 0.0
H3366 H 0.47279 0.05753 0.39286 0.0
H3367 H 0.54144 0.00983 0.44847 0.0
H3368 H 0.50857 0.063 0.44396 0.0
H3369 H 0.51359 0.01126 0.39466 0.0
C3370 C 0.49385 0.02077 0.37709 0.0
C3371 C 0.48217 0.03372 0.37637 0.0
C3372 C 0.51578 0.05135 0.4449 0.0
C3373 C 0.50369 0.03513 0.41073 0.0
C3374 C 0.52668 0.05185 0.46204 0.0
C3375 C 0.53607 0.03695 0.4633 0.0
C3376 C 0.51463 0.03592 0.42916 0.0
C3377 C 0.53434 0.02159 0.44761 0.0
C3378 C 0.50465 0.02141 0.39429 0.0
C3379 C 0.4818 0.04743 0.39295 0.0
N3380 N 0.52381 0.02149 0.43098 0.0
N3381 N 0.49243 0.04776 0.4096 0.0
H3382 H 0.76277 0.73043 0.10223 0.0
H3383 H 0.81938 0.78957 0.20272 0.0
H3384 H 0.81612 0.77119 0.10631 0.0
H3385 H 0.76079 0.76357 0.19607 0.0
H3386 H 0.81875 0.78227 0.16761 0.0
H3387 H 0.76204 0.7417 0.13653 0.0
C3388 C 0.77424 0.74199 0.11017 0.0
C3389 C 0.78948 0.74997 0.10109 0.0
C3390 C 0.806 0.77829 0.17378 0.0
C3391 C 0.78889 0.76248 0.14084 0.0
C3392 C 0.80634 0.78237 0.19384 0.0
C3393 C 0.79011 0.77699 0.20233 0.0
C3394 C 0.78936 0.76849 0.16207 0.0
C3395 C 0.7736 0.76795 0.19011 0.0
C3396 C 0.77383 0.74831 0.12988 0.0
C3397 C 0.80416 0.7644 0.11257 0.0
N3398 N 0.77368 0.76376 0.17057 0.0
N3399 N 0.80354 0.77009 0.13185 0.0
H3400 H 0.08477 0.98763 0.66188 0.0
H3401 H 0.07952 0.06044 0.58419 0.0
H3402 H 0.1242 0.04385 0.66599 0.0
H3403 H 0.05495 0.99755 0.5696 0.0
H3404 H 0.09281 0.05576 0.61591 0.0
H3405 H 0.07106 0.99195 0.63037 0.0
C3406 C 0.09079 1.00088 0.65645 0.0
C3407 C 0.10607 0.0153 0.66747 0.0
C3408 C 0.08445 0.04295 0.60586 0.0
C3409 C 0.08954 0.02055 0.63053 0.0
C3410 C 0.07672 0.04563 0.58763 0.0
C3411 C 0.06597 0.0294 0.57383 0.0
C3412 C 0.08122 0.0239 0.61094 0.0
C3413 C 0.06315 0.01058 0.57948 0.0
C3414 C 0.08272 1.00335 0.63822 0.0
C3415 C 0.11242 0.03224 0.65892 0.0
N3416 N 0.07052 0.00841 0.59745 0.0
N3417 N 0.10419 0.03434 0.64135 0.0
H3418 H 0.80865 0.3325 0.42411 0.0
H3419 H 0.80632 0.32826 0.31002 0.0
H3420 H 0.80626 0.38171 0.395 0.0
H3421 H 0.79289 0.27504 0.33477 0.0
H3422 H 0.81182 0.34821 0.34228 0.0
H3423 H 0.80733 0.31116 0.39241 0.0
C3424 C 0.80786 0.33869 0.41097 0.0
C3425 C 0.80741 0.35863 0.4118 0.0
C3426 C 0.80777 0.33218 0.34074 0.0
C3427 C 0.80625 0.33486 0.37612 0.0
C3428 C 0.80473 0.32075 0.32233 0.0
C3429 C 0.79903 0.30001 0.31983 0.0
C3430 C 0.80501 0.3228 0.35679 0.0
C3431 C 0.7972 0.29104 0.33622 0.0
C3432 C 0.80712 0.32663 0.39303 0.0
C3433 C 0.80646 0.36628 0.3947 0.0
N3434 N 0.80005 0.30257 0.35416 0.0
N3435 N 0.80595 0.35436 0.37749 0.0
H3436 H 0.49906 0.03105 0.20554 0.0
H3437 H 0.47405 0.97303 0.09651 0.0
H3438 H 0.44765 0.98737 0.1854 0.0
H3439 H 0.52715 0.0108 0.12203 0.0
H3440 H 0.4639 0.9758 0.12907 0.0
H3441 H 0.50964 0.02233 0.17449 0.0
C3442 C 0.49006 0.01962 0.19447 0.0
C3443 C 0.47257 0.00994 0.19775 0.0
C3444 C 0.47786 0.98313 0.12745 0.0
C3445 C 0.4844 0.99969 0.16244 0.0
C3446 C 0.48358 0.98143 0.10904 0.0
C3447 C 0.50147 0.99131 0.10701 0.0
C3448 C 0.49011 0.99518 0.14333 0.0
C3449 C 0.51339 1.00251 0.1233 0.0
C3450 C 0.49608 0.01449 0.17684 0.0
C3451 C 0.46135 0.99502 0.18323 0.0
N3452 N 0.50743 1.00427 0.14076 0.0
N3453 N 0.46744 0.99037 0.166 0.0
H3454 H 0.76498 0.72496 0.89438 0.0
H3455 H 0.83012 0.78908 0.83087 0.0
H3456 H 0.82214 0.7547 0.91364 0.0
H3457 H 0.77358 0.75821 0.81023 0.0
H3458 H 0.82713 0.77694 0.8614 0.0
H3459 H 0.76744 0.73769 0.86408 0.0
C3460 C 0.77803 0.73427 0.89239 0.0
C3461 C 0.79338 0.73864 0.9068 0.0
C3462 C 0.81536 0.77272 0.85021 0.0
C3463 C 0.79634 0.75305 0.87166 0.0
C3464 C 0.81707 0.77962 0.83271 0.0
C3465 C 0.8021 0.77459 0.8179 0.0
C3466 C 0.79852 0.76062 0.85306 0.0
C3467 C 0.78551 0.76238 0.82121 0.0
C3468 C 0.77945 0.74141 0.87493 0.0
C3469 C 0.80997 0.75056 0.90299 0.0
N3470 N 0.78416 0.75582 0.83843 0.0
N3471 N 0.81099 0.75728 0.88587 0.0
H3472 H 0.87547 0.12394 0.99885 0.0
H3473 H 0.91254 0.02586 0.99505 0.0
H3474 H 0.846 0.07059 0.01638 0.0
H3475 H 0.94872 0.0837 0.99749 0.0
H3476 H 0.88659 0.04128 0.99787 0.0
H3477 H 0.90121 0.10846 0.99338 0.0
C3478 C 0.87443 0.10894 1.00146 0.0
C3479 C 0.85872 0.09848 0.00815 0.0
C3480 C 0.9002 0.0506 0.99778 0.0
C3481 C 0.88791 0.08089 1.00203 0.0
C3482 C 0.91496 0.04182 0.99604 0.0
C3483 C 0.93272 0.05357 0.99604 0.0
C3484 C 0.90322 0.07126 0.99942 0.0
C3485 C 0.93521 0.0742 0.9976 0.0
C3486 C 0.88911 0.10021 0.99846 0.0
C3487 C 0.85801 0.07919 0.01146 0.0
N3488 N 0.92054 0.08245 0.9992 0.0
N3489 N 0.87244 0.07097 0.00833 0.0
H3490 H 0.40347 0.47366 0.05234 0.0
H3491 H 0.49518 0.49067 0.99892 0.0
H3492 H 0.41014 0.43275 1.00241 0.0
H3493 H 0.48891 0.52753 0.05175 0.0
H3494 H 0.46404 0.46972 0.99903 0.0
H3495 H 0.43434 0.49383 0.05143 0.0
C3496 C 0.41139 0.46873 0.04123 0.0
C3497 C 0.4039 0.45118 0.02753 0.0
C3498 C 0.46947 0.4824 0.01059 0.0
C3499 C 0.43975 0.47479 0.02624 0.0
C3500 C 0.48728 0.49438 0.01053 0.0
C3501 C 0.4948 0.51093 0.02538 0.0
C3502 C 0.45892 0.48704 0.02552 0.0
C3503 C 0.48384 0.51493 0.04004 0.0
C3504 C 0.4291 0.48043 0.04065 0.0
C3505 C 0.41501 0.44615 0.01323 0.0
N3506 N 0.46658 0.5032 0.03969 0.0
N3507 N 0.43225 0.4578 0.013 0.0
H3508 H 0.34889 0.63844 0.74582 0.0
H3509 H 0.35417 0.75687 0.77893 0.0
H3510 H 0.39655 0.67856 0.78095 0.0
H3511 H 0.30411 0.71358 0.75365 0.0
H3512 H 0.37037 0.72967 0.77842 0.0
H3513 H 0.33349 0.66591 0.74695 0.0
C3514 C 0.35641 0.6529 0.75373 0.0
C3515 C 0.37455 0.65537 0.76322 0.0
C3516 C 0.35583 0.72602 0.77296 0.0
C3517 C 0.3561 0.68819 0.76463 0.0
C3518 C 0.34644 0.74176 0.77323 0.0
C3519 C 0.32737 0.73809 0.76639 0.0
C3520 C 0.34647 0.70594 0.76552 0.0
C3521 C 0.31863 0.71771 0.75922 0.0
C3522 C 0.34733 0.66883 0.75445 0.0
C3523 C 0.3827 0.67512 0.77339 0.0
N3524 N 0.32807 0.70283 0.75892 0.0
N3525 N 0.37364 0.69038 0.7737 0.0
H3526 H 0.18875 0.551 0.50829 0.0
H3527 H 0.09549 0.58514 0.48936 0.0
H3528 H 0.18183 0.59389 0.47204 0.0
H3529 H 0.10804 0.55496 0.5359 0.0
H3530 H 0.1257 0.5848 0.47915 0.0
H3531 H 0.15608 0.54554 0.51237 0.0
C3532 C 0.18025 0.55877 0.5007 0.0
C3533 C 0.18814 0.57353 0.49053 0.0
C3534 C 0.12196 0.57852 0.49178 0.0
C3535 C 0.15125 0.5676 0.49528 0.0
C3536 C 0.10498 0.57915 0.49782 0.0
C3537 C 0.0996 0.57034 0.51356 0.0
C3538 C 0.1334 0.56883 0.50151 0.0
C3539 C 0.11199 0.56228 0.52392 0.0
C3540 C 0.16172 0.55583 0.50321 0.0
C3541 C 0.17647 0.58266 0.48037 0.0
N3542 N 0.12834 0.56147 0.51753 0.0
N3543 N 0.15863 0.57991 0.48342 0.0
H3544 H 0.71826 0.96008 0.73017 0.0
H3545 H 0.76576 0.90917 0.80735 0.0
H3546 H 0.72547 0.98152 0.79206 0.0
H3547 H 0.76773 0.89595 0.74557 0.0
H3548 H 0.7492 0.93455 0.80213 0.0
H3549 H 0.73529 0.93531 0.7356 0.0
C3550 C 0.72361 0.95967 0.74488 0.0
C3551 C 0.72046 0.9727 0.76072 0.0
C3552 C 0.75325 0.92604 0.78974 0.0
C3553 C 0.7395 0.94433 0.76704 0.0
C3554 C 0.76269 0.91164 0.79272 0.0
C3555 C 0.76805 0.90056 0.77685 0.0
C3556 C 0.74919 0.92917 0.7708 0.0
C3557 C 0.76358 0.90402 0.75815 0.0
C3558 C 0.73319 0.94547 0.74799 0.0
C3559 C 0.72739 0.97144 0.77951 0.0
N3560 N 0.75437 0.91809 0.75563 0.0
N3561 N 0.73657 0.95736 0.78219 0.0
H3562 H 0.74092 0.96395 0.52873 0.0
H3563 H 0.63251 0.953 0.50784 0.0
H3564 H 0.70349 0.90724 0.50489 0.0
H3565 H 0.67313 0.00813 0.51128 0.0
H3566 H 0.65752 0.93551 0.50891 0.0
H3567 H 0.71548 0.98007 0.52496 0.0
C3568 C 0.72732 0.95486 0.52274 0.0
C3569 C 0.72435 0.93418 0.51723 0.0
C3570 C 0.66089 0.95141 0.50927 0.0
C3571 C 0.69503 0.95263 0.51281 0.0
C3572 C 0.64666 0.9614 0.50876 0.0
C3573 C 0.65072 0.98207 0.50945 0.0
C3574 C 0.67933 0.96225 0.51088 0.0
C3575 C 0.6693 0.99219 0.51051 0.0
C3576 C 0.71281 0.9641 0.52046 0.0
C3577 C 0.70643 0.92323 0.50926 0.0
N3578 N 0.68286 0.98223 0.51136 0.0
N3579 N 0.69239 0.93256 0.50744 0.0
H3580 H 0.35312 0.45469 0.7832 0.0
H3581 H 0.33597 0.33528 0.74475 0.0
H3582 H 0.38119 0.43149 0.73728 0.0
H3583 H 0.30376 0.36228 0.78366 0.0
H3584 H 0.35463 0.36906 0.74342 0.0
H3585 H 0.3374 0.42072 0.7851 0.0
C3586 C 0.35627 0.44267 0.77351 0.0
C3587 C 0.36895 0.44685 0.76003 0.0
C3588 C 0.34363 0.36759 0.75246 0.0
C3589 C 0.35008 0.40643 0.76214 0.0
C3590 C 0.33302 0.34812 0.75341 0.0
C3591 C 0.31816 0.34545 0.76461 0.0
C3592 C 0.33966 0.38486 0.76291 0.0
C3593 C 0.315 0.36317 0.77493 0.0
C3594 C 0.347 0.42294 0.77456 0.0
C3595 C 0.3716 0.42973 0.74785 0.0
N3596 N 0.32547 0.38166 0.77388 0.0
N3597 N 0.36243 0.41065 0.74922 0.0
H3598 H 0.20664 0.66125 0.25916 0.0
H3599 H 0.30664 0.72504 0.28289 0.0
H3600 H 0.24581 0.64134 0.29511 0.0
H3601 H 0.27313 0.71789 0.22798 0.0
H3602 H 0.28681 0.69467 0.28918 0.0
H3603 H 0.23175 0.68683 0.25218 0.0
C3604 C 0.22049 0.66298 0.26626 0.0
C3605 C 0.2245 0.6493 0.27741 0.0
C3606 C 0.28429 0.69931 0.27541 0.0
C3607 C 0.25296 0.67733 0.26889 0.0
C3608 C 0.29572 0.71636 0.27168 0.0
C3609 C 0.29074 0.72411 0.25538 0.0
C3610 C 0.26819 0.69045 0.2626 0.0
C3611 C 0.2769 0.71249 0.24101 0.0
C3612 C 0.23481 0.67702 0.26182 0.0
C3613 C 0.24247 0.65177 0.28635 0.0
N3614 N 0.26545 0.69643 0.24531 0.0
N3615 N 0.25633 0.66545 0.28161 0.0
H3616 H 0.53962 0.69491 0.49125 0.0
H3617 H 0.51732 0.57601 0.47443 0.0
H3618 H 0.50741 0.656 0.44017 0.0
H3619 H 0.55755 0.6129 0.52091 0.0
H3620 H 0.51259 0.60569 0.46297 0.0
H3621 H 0.54545 0.66575 0.50354 0.0
C3622 C 0.53378 0.68031 0.48256 0.0
C3623 C 0.52289 0.67805 0.46458 0.0
C3624 C 0.52242 0.60741 0.47573 0.0
C3625 C 0.52942 0.64453 0.47878 0.0
C3626 C 0.52507 0.59042 0.48235 0.0
C3627 C 0.53775 0.59196 0.49875 0.0
C3628 C 0.53232 0.62627 0.48566 0.0
C3629 C 0.54763 0.61105 0.5082 0.0
C3630 C 0.5371 0.66365 0.48966 0.0
C3631 C 0.51556 0.65863 0.45422 0.0
N3632 N 0.54462 0.62751 0.5016 0.0
N3633 N 0.51894 0.64274 0.46146 0.0
H3634 H 0.65614 0.26758 0.67657 0.0
H3635 H 0.76071 0.31272 0.72909 0.0
H3636 H 0.6852 0.32825 0.67747 0.0
H3637 H 0.72683 0.25605 0.73435 0.0
H3638 H 0.73506 0.31784 0.70737 0.0
H3639 H 0.68326 0.26242 0.6949 0.0
C3640 C 0.66823 0.27986 0.68041 0.0
C3641 C 0.66811 0.2984 0.67513 0.0
C3642 C 0.73338 0.30409 0.71294 0.0
C3643 C 0.69974 0.2925 0.69674 0.0
C3644 C 0.74816 0.30102 0.7251 0.0
C3645 C 0.74616 0.28363 0.73315 0.0
C3646 C 0.71645 0.28962 0.70868 0.0
C3647 C 0.72919 0.26946 0.72817 0.0
C3648 C 0.6838 0.27689 0.69109 0.0
C3649 C 0.68435 0.31371 0.6812 0.0
N3650 N 0.71516 0.27272 0.71634 0.0
N3651 N 0.69941 0.31042 0.69156 0.0
H3652 H 1.00282 0.37173 0.95551 0.0
H3653 H 0.0579 0.47293 0.02425 0.0
H3654 H 0.04962 0.37558 0.99753 0.0
H3655 H 0.00827 0.46741 0.98555 0.0
H3656 H 0.05447 0.43714 0.01578 0.0
H3657 H 1.00437 0.40674 0.96688 0.0
C3658 C 0.01331 0.37997 0.96732 0.0
C3659 C 0.02598 0.3708 0.9758 0.0
C3660 C 0.04426 0.44371 0.00923 0.0
C3661 C 0.02793 0.41087 0.98882 0.0
C3662 C 0.04621 0.46412 0.01404 0.0
C3663 C 0.03342 0.47306 0.00543 0.0
C3664 C 0.02953 0.43225 0.99554 0.0
C3665 C 0.01841 0.46103 0.99251 0.0
C3666 C 0.01422 0.39995 0.97377 0.0
C3667 C 0.0396 0.38219 0.99067 0.0
N3668 N 0.01698 0.4412 0.98779 0.0
N3669 N 0.04021 0.4017 0.99677 0.0
H3670 H 0.99484 0.76836 0.18181 0.0
H3671 H 0.89908 0.80016 0.19216 0.0
H3672 H 0.97656 0.80928 0.14922 0.0
H3673 H 0.92105 0.76456 0.22868 0.0
H3674 H 0.92607 0.80185 0.17463 0.0
H3675 H 0.96652 0.76462 0.197 0.0
C3676 C 0.98486 0.77649 0.1777 0.0
C3677 C 0.98833 0.78929 0.16421 0.0
C3678 C 0.92493 0.79362 0.18645 0.0
C3679 C 0.95567 0.78519 0.18191 0.0
C3680 C 0.90954 0.79273 0.19658 0.0
C3681 C 0.90764 0.78224 0.21207 0.0
C3682 C 0.93865 0.78397 0.19179 0.0
C3683 C 0.92162 0.77262 0.21674 0.0
C3684 C 0.96868 0.77442 0.18652 0.0
C3685 C 0.97478 0.79954 0.15977 0.0
N3686 N 0.93644 0.77376 0.20672 0.0
N3687 N 0.95914 0.79729 0.16858 0.0
H3688 H 0.49927 0.32799 0.06953 0.0
H3689 H 0.56452 0.43483 0.06887 0.0
H3690 H 0.54405 0.35761 0.11484 0.0
H3691 H 0.51921 0.40438 0.02471 0.0
H3692 H 0.55782 0.40661 0.08608 0.0
H3693 H 0.50676 0.35604 0.05289 0.0
C3694 C 0.51062 0.34047 0.07602 0.0
C3695 C 0.521 0.34055 0.0936 0.0
C3696 C 0.5494 0.40608 0.07259 0.0
C3697 C 0.52988 0.37255 0.07451 0.0
C3698 C 0.55324 0.42208 0.06286 0.0
C3699 C 0.54233 0.42159 0.04554 0.0
C3700 C 0.53464 0.38969 0.06473 0.0
C3701 C 0.52782 0.40507 0.03813 0.0
C3702 C 0.51499 0.35643 0.06646 0.0
C3703 C 0.53582 0.3569 0.10119 0.0
N3704 N 0.52438 0.3897 0.04778 0.0
N3705 N 0.53982 0.37232 0.09158 0.0
H3706 H 0.99544 0.26895 0.30479 0.0
H3707 H 0.92579 0.33712 0.28716 0.0
H3708 H 0.00905 0.33317 0.31766 0.0
H3709 H 0.90782 0.27336 0.2804 0.0
H3710 H 0.9575 0.33506 0.29439 0.0
H3711 H 0.96401 0.26928 0.29183 0.0
C3712 C 0.99185 0.28306 0.30465 0.0
C3713 C 1.00479 0.30105 0.31204 0.0
C3714 C 0.94674 0.32142 0.2911 0.0
C3715 C 0.96934 0.30154 0.29755 0.0
C3716 C 0.92874 0.32265 0.28691 0.0
C3717 C 0.91459 0.30537 0.2831 0.0
C3718 C 0.95051 0.30276 0.29148 0.0
C3719 C 0.91868 0.28691 0.28325 0.0
C3720 C 0.97402 0.28324 0.2973 0.0
C3721 C 0.99961 0.31896 0.31166 0.0
N3722 N 0.93646 0.28604 0.28745 0.0
N3723 N 0.98225 0.31873 0.30461 0.0
H3724 H 0.98226 0.65888 0.56009 0.0
H3725 H 0.04548 0.58351 0.55037 0.0
H3726 H 0.01375 0.64776 0.60994 0.0
H3727 H 0.99643 0.57555 0.51 0.0
H3728 H 0.03534 0.60872 0.57183 0.0
H3729 H 0.98806 0.62942 0.54066 0.0
C3730 C 0.99012 0.65007 0.56703 0.0
C3731 C 0.99773 0.65587 0.58659 0.0
C3732 C 0.02671 0.60128 0.55837 0.0
C3733 C 1.00469 0.62262 0.56442 0.0
C3734 C 0.03248 0.58694 0.54616 0.0
C3735 C 0.02165 0.57747 0.52856 0.0
C3736 C 0.01027 0.60638 0.55262 0.0
C3737 C 1.00509 0.58259 0.52354 0.0
C3738 C 0.99348 0.63335 0.55592 0.0
C3739 C 0.00802 0.64408 0.59477 0.0
N3740 N 0.99995 0.59694 0.53547 0.0
N3741 N 0.01142 0.62811 0.58356 0.0
H3742 H 0.68716 0.84056 0.83393 0.0
H3743 H 0.72609 0.76621 0.76344 0.0
H3744 H 0.65209 0.78622 0.80021 0.0
H3745 H 0.75355 0.82838 0.78168 0.0
H3746 H 0.69829 0.77312 0.77577 0.0
H3747 H 0.71151 0.8365 0.81411 0.0
C3748 C 0.68449 0.82796 0.82212 0.0
C3749 C 0.66771 0.81361 0.81875 0.0
C3750 C 0.71031 0.78528 0.77671 0.0
C3751 C 0.69548 0.80872 0.79628 0.0
C3752 C 0.72614 0.78135 0.76973 0.0
C3753 C 0.74208 0.79675 0.77172 0.0
C3754 C 0.71071 0.80463 0.78595 0.0
C3755 C 0.74152 0.81609 0.77987 0.0
C3756 C 0.69838 0.82562 0.81084 0.0
C3757 C 0.66503 0.79739 0.80347 0.0
N3758 N 0.72612 0.81944 0.78699 0.0
N3759 N 0.6789 0.79524 0.79289 0.0
H3760 H 0.46617 0.52428 0.6456 0.0
H3761 H 0.54236 0.57821 0.58342 0.0
H3762 H 0.49869 0.58458 0.66336 0.0
H3763 H 0.50529 0.52151 0.55966 0.0
H3764 H 0.52676 0.57985 0.61253 0.0
H3765 H 0.48044 0.52204 0.6155 0.0
C3766 C 0.47628 0.53717 0.64354 0.0
C3767 C 0.48078 0.55477 0.65796 0.0
C3768 C 0.5218 0.56704 0.60102 0.0
C3769 C 0.49757 0.55211 0.62202 0.0
C3770 C 0.53074 0.56608 0.58408 0.0
C3771 C 0.52523 0.54984 0.56836 0.0
C3772 C 0.50702 0.55144 0.60315 0.0
C3773 C 0.51007 0.53462 0.57085 0.0
C3774 C 0.48443 0.53582 0.62592 0.0
C3775 C 0.49412 0.57066 0.65326 0.0
N3776 N 0.50172 0.53574 0.58773 0.0
N3777 N 0.50184 0.5689 0.63612 0.0
H3778 H 0.74334 0.18939 0.94278 0.0
H3779 H 0.77568 0.23708 0.85271 0.0
H3780 H 0.80021 0.21271 0.93558 0.0
H3781 H 0.71844 0.21667 0.85999 0.0
H3782 H 0.78473 0.22476 0.88147 0.0
H3783 H 0.73369 0.19645 0.91114 0.0
C3784 C 0.75374 0.19622 0.93454 0.0
C3785 C 0.77254 0.20086 0.9417 0.0
C3786 C 0.77017 0.22246 0.8766 0.0
C3787 C 0.76173 0.2085 0.90567 0.0
C3788 C 0.76501 0.22925 0.86008 0.0
C3789 C 0.7463 0.22734 0.85397 0.0
C3790 C 0.75649 0.21375 0.88704 0.0
C3791 C 0.73295 0.21799 0.86428 0.0
C3792 C 0.74826 0.20004 0.91649 0.0
C3793 C 0.78559 0.20908 0.93045 0.0
N3794 N 0.73834 0.21151 0.88051 0.0
N3795 N 0.7799 0.21276 0.91292 0.0
H3796 H 0.13088 0.56543 0.14408 0.0
H3797 H 0.03893 0.50983 0.07322 0.0
H3798 H 0.08829 0.519 0.15803 0.0
H3799 H 0.07871 0.56017 0.06165 0.0
H3800 H 0.05829 0.51111 0.10336 0.0
H3801 H 0.11273 0.56266 0.11288 0.0
C3802 C 0.11765 0.55475 0.14057 0.0
C3803 C 0.11102 0.54237 0.15347 0.0
C3804 C 0.06279 0.52186 0.09421 0.0
C3805 C 0.09051 0.53883 0.11794 0.0
C3806 C 0.05178 0.52111 0.0771 0.0
C3807 C 0.05727 0.53507 0.06532 0.0
C3808 C 0.07923 0.53674 0.0994 0.0
C3809 C 0.07405 0.54925 0.07058 0.0
C3810 C 0.1074 0.55305 0.12276 0.0
C3811 C 0.09397 0.52858 0.14827 0.0
N3812 N 0.08447 0.54982 0.08742 0.0
N3813 N 0.08426 0.52715 0.1308 0.0
H3814 H 0.77045 0.8038 0.42167 0.0
H3815 H 0.82913 0.81333 0.33205 0.0
H3816 H 0.82478 0.84251 0.42591 0.0
H3817 H 0.77229 0.78064 0.32618 0.0
H3818 H 0.82881 0.82168 0.36718 0.0
H3819 H 0.77158 0.79304 0.38701 0.0
C3820 C 0.7826 0.81003 0.41534 0.0
C3821 C 0.79761 0.82393 0.42679 0.0
C3822 C 0.81646 0.81254 0.35821 0.0
C3823 C 0.79906 0.81163 0.38723 0.0
C3824 C 0.8167 0.80768 0.3382 0.0
C3825 C 0.80071 0.79638 0.32625 0.0
C3826 C 0.80016 0.80586 0.36625 0.0
C3827 C 0.78487 0.78958 0.3349 0.0
C3828 C 0.78328 0.80383 0.39559 0.0
C3829 C 0.81304 0.83142 0.4178 0.0
N3830 N 0.78499 0.79444 0.35436 0.0
N3831 N 0.81336 0.82519 0.3986 0.0
H3832 H 0.4953 0.58997 0.87411 0.0
H3833 H 0.51805 0.5125 0.94176 0.0
H3834 H 0.47893 0.52622 0.85604 0.0
H3835 H 0.52967 0.57568 0.96242 0.0
H3836 H 0.50525 0.51749 0.91001 0.0
H3837 H 0.50895 0.58532 0.90558 0.0
C3838 C 0.49439 0.57495 0.87654 0.0
C3839 C 0.48565 0.55855 0.86171 0.0
C3840 C 0.51061 0.53032 0.92143 0.0
C3841 C 0.50189 0.55309 0.8986 0.0
C3842 C 0.51803 0.52748 0.93972 0.0
C3843 C 0.52506 0.54363 0.95521 0.0
C3844 C 0.51014 0.54956 0.91814 0.0
C3845 C 0.52444 0.56264 0.95121 0.0
C3846 C 0.50239 0.57233 0.89472 0.0
C3847 C 0.48558 0.53956 0.86638 0.0
N3848 N 0.51721 0.56502 0.9333 0.0
N3849 N 0.49343 0.53744 0.88411 0.0
H3850 H 0.77579 0.18806 0.13423 0.0
H3851 H 0.79651 0.29805 0.19607 0.0
H3852 H 0.78266 0.24019 0.10773 0.0
H3853 H 0.78687 0.2442 0.2201 0.0
H3854 H 0.7898 0.2777 0.16332 0.0
H3855 H 0.77852 0.20898 0.16594 0.0
C3856 C 0.77756 0.20396 0.1352 0.0
C3857 C 0.77888 0.21257 0.11863 0.0
C3858 C 0.78904 0.27042 0.17582 0.0
C3859 C 0.78207 0.23662 0.15459 0.0
C3860 C 0.79284 0.282 0.19441 0.0
C3861 C 0.79231 0.27273 0.21066 0.0
C3862 C 0.78481 0.24958 0.17372 0.0
C3863 C 0.78745 0.25194 0.20792 0.0
C3864 C 0.77919 0.21592 0.15323 0.0
C3865 C 0.78157 0.2332 0.1204 0.0
N3866 N 0.78401 0.24108 0.1898 0.0
N3867 N 0.7831 0.24463 0.13818 0.0
H3868 H 0.13151 0.53937 0.3453 0.0
H3869 H 0.0822 0.60067 0.4155 0.0
H3870 H 0.09653 0.57566 0.32613 0.0
H3871 H 0.12696 0.57622 0.43514 0.0
H3872 H 0.09206 0.59852 0.38368 0.0
H3873 H 0.13178 0.55522 0.37878 0.0
C3874 C 0.12344 0.55028 0.34828 0.0
C3875 C 0.11371 0.55608 0.33319 0.0
C3876 C 0.10018 0.59424 0.39507 0.0
C3877 C 0.11478 0.57498 0.37105 0.0
C3878 C 0.09477 0.59587 0.41348 0.0
C3879 C 0.10311 0.58734 0.42754 0.0
C3880 C 0.11395 0.58414 0.39106 0.0
C3881 C 0.11963 0.58195 0.42423 0.0
C3882 C 0.12405 0.55974 0.36727 0.0
C3883 C 0.10395 0.57069 0.33757 0.0
N3884 N 0.12405 0.57944 0.40591 0.0
N3885 N 0.10474 0.57971 0.35618 0.0
H3886 H 0.82515 0.85136 0.63633 0.0
H3887 H 0.76127 0.78391 0.69824 0.0
H3888 H 0.77076 0.81461 0.61384 0.0
H3889 H 0.81699 0.81697 0.71994 0.0
H3890 H 0.76456 0.79538 0.66743 0.0
H3891 H 0.82265 0.83891 0.66672 0.0
C3892 C 0.81272 0.84056 0.63759 0.0
C3893 C 0.79814 0.83416 0.62221 0.0
C3894 C 0.77608 0.80021 0.6789 0.0
C3895 C 0.79506 0.82012 0.65757 0.0
C3896 C 0.77419 0.79371 0.69657 0.0
C3897 C 0.78884 0.79957 0.71179 0.0
C3898 C 0.79275 0.81281 0.67629 0.0
C3899 C 0.8053 0.81217 0.70866 0.0
C3900 C 0.81126 0.83358 0.65513 0.0
C3901 C 0.78228 0.82039 0.6252 0.0
N3902 N 0.80679 0.81838 0.69129 0.0
N3903 N 0.78117 0.81394 0.64246 0.0
H3904 H 0.71059 0.45158 0.49462 0.0
H3905 H 0.67542 0.54044 0.55156 0.0
H3906 H 0.74447 0.497 0.54022 0.0
H3907 H 0.63943 0.49056 0.51198 0.0
H3908 H 0.70074 0.52433 0.54811 0.0
H3909 H 0.68433 0.46594 0.50039 0.0
C3910 C 0.71248 0.46467 0.50574 0.0
C3911 C 0.72961 0.4732 0.51695 0.0
C3912 C 0.68729 0.51687 0.54024 0.0
C3913 C 0.69978 0.48944 0.52383 0.0
C3914 C 0.67276 0.52598 0.54232 0.0
C3915 C 0.65529 0.51691 0.53191 0.0
C3916 C 0.68437 0.49866 0.5275 0.0
C3917 C 0.65277 0.4983 0.51993 0.0
C3918 C 0.6975 0.47273 0.50917 0.0
C3919 C 0.73138 0.48993 0.5314 0.0
N3920 N 0.66722 0.48984 0.51793 0.0
N3921 N 0.7166 0.49755 0.53441 0.0
H3922 H 0.18209 0.13983 0.52884 0.0
H3923 H 0.09897 0.04919 0.4736 0.0
H3924 H 0.1847 0.10203 0.47497 0.0
H3925 H 0.09798 0.07899 0.53178 0.0
H3926 H 0.12967 0.07009 0.47357 0.0
H3927 H 0.15129 0.11933 0.53007 0.0
C3928 C 0.1764 0.12723 0.51728 0.0
C3929 C 0.18642 0.12294 0.5017 0.0
C3930 C 0.12281 0.0722 0.48637 0.0
C3931 C 0.15048 0.09941 0.50293 0.0
C3932 C 0.10515 0.06024 0.48639 0.0
C3933 C 0.09569 0.06225 0.5027 0.0
C3934 C 0.13136 0.0866 0.50276 0.0
C3935 C 0.10462 0.0769 0.51883 0.0
C3936 C 0.15862 0.11556 0.51798 0.0
C3937 C 0.17772 0.10646 0.48711 0.0
N3938 N 0.12189 0.08851 0.51844 0.0
N3939 N 0.16042 0.09548 0.48808 0.0
H3940 H 0.20058 0.89826 0.73814 0.0
H3941 H 0.28607 0.85807 0.78315 0.0
H3942 H 0.23508 0.92832 0.7914 0.0
H3943 H 0.24076 0.81844 0.74429 0.0
H3944 H 0.26947 0.88469 0.78374 0.0
H3945 H 0.21641 0.87094 0.73744 0.0
C3946 C 0.21146 0.89944 0.74975 0.0
C3947 C 0.21603 0.9164 0.76492 0.0
C3948 C 0.26305 0.87024 0.775 0.0
C3949 C 0.23493 0.88395 0.76401 0.0
C3950 C 0.27265 0.85478 0.7746 0.0
C3951 C 0.26516 0.83538 0.76366 0.0
C3952 C 0.24557 0.86707 0.76401 0.0
C3953 C 0.24744 0.83278 0.75308 0.0
C3954 C 0.22055 0.88347 0.74934 0.0
C3955 C 0.23047 0.916 0.77937 0.0
N3956 N 0.23855 0.84821 0.75338 0.0
N3957 N 0.23924 0.90051 0.77844 0.0
H3958 H 0.40931 0.98405 0.05524 0.0
H3959 H 0.48261 0.0149 0.98613 0.0
H3960 H 0.40166 0.02021 0.01212 0.0
H3961 H 0.49521 0.99268 0.0383 0.0
H3962 H 0.45254 0.01675 0.99565 0.0
H3963 H 0.44182 0.99108 0.05249 0.0
C3964 C 0.41444 0.99405 0.04563 0.0
C3965 C 0.40251 1.0007 0.03308 0.0
C3966 C 0.46183 0.01135 0.00497 0.0
C3967 C 0.43962 0.0078 0.0292 0.0
C3968 C 0.47873 0.00971 0.99925 0.0
C3969 C 0.49122 1.00356 0.01151 0.0
C3970 C 0.45744 1.00652 0.02288 0.0
C3971 C 0.48581 0.99748 0.02855 0.0
C3972 C 0.4331 0.99778 0.04386 0.0
C3973 C 0.41026 0.01387 0.02127 0.0
N3974 N 0.46927 0.99923 0.03385 0.0
N3975 N 0.42833 0.01642 0.01904 0.0
H3976 H 0.89469 0.62323 0.75805 0.0
H3977 H 0.79725 0.64934 0.74861 0.0
H3978 H 0.84765 0.59204 0.78145 0.0
H3979 H 0.84811 0.69251 0.74784 0.0
H3980 H 0.81498 0.62533 0.75523 0.0
H3981 H 0.87708 0.64674 0.74951 0.0
C3982 C 0.88066 0.6215 0.76145 0.0
C3983 C 0.87245 0.6059 0.7704 0.0
C3984 C 0.82222 0.64003 0.75351 0.0
C3985 C 0.85246 0.63227 0.76068 0.0
C3986 C 0.81215 0.65357 0.74951 0.0
C3987 C 0.82137 0.67271 0.74766 0.0
C3988 C 0.84151 0.6458 0.7555 0.0
C3989 C 0.84065 0.67779 0.74926 0.0
C3990 C 0.8707 0.63483 0.75664 0.0
C3991 C 0.85437 0.60409 0.77468 0.0
N3992 N 0.85018 0.66432 0.75314 0.0
N3993 N 0.84484 0.61715 0.76964 0.0
H3994 H 0.86461 0.62648 0.97862 0.0
H3995 H 0.94382 0.60214 0.04825 0.0
H3996 H 0.87603 0.65046 0.04007 0.0
H3997 H 0.93544 0.58524 0.98582 0.0
H3998 H 0.91877 0.61934 0.04612 0.0
H3999 H 0.89049 0.61112 0.98149 0.0
C4000 C 0.8726 0.62872 0.99272 0.0
C4001 C 0.86797 0.63994 0.00909 0.0
C4002 C 0.92252 0.61196 0.03291 0.0
C4003 C 0.89765 0.62177 0.01256 0.0
C4004 C 0.93677 0.60207 0.03411 0.0
C4005 C 0.94188 0.5923 0.01717 0.0
C4006 C 0.91322 0.61196 0.01465 0.0
C4007 C 0.9323 0.59285 0.99925 0.0
C4008 C 0.88737 0.61976 0.99437 0.0
C4009 C 0.87877 0.64174 0.02704 0.0
N4010 N 0.91846 0.60242 0.99849 0.0
N4011 N 0.89304 0.63272 0.0283 0.0
H4012 H 0.20976 0.12633 0.74026 0.0
H4013 H 0.28517 0.22598 0.79599 0.0
H4014 H 0.23714 0.13288 0.79838 0.0
H4015 H 0.25632 0.22286 0.73959 0.0
H4016 H 0.26688 0.1925 0.79703 0.0
H4017 H 0.22587 0.16057 0.73942 0.0
C4018 C 0.21907 0.13456 0.75295 0.0
C4019 C 0.22161 0.12558 0.76948 0.0
C4020 C 0.26423 0.19909 0.78447 0.0
C4021 C 0.2405 0.16644 0.76851 0.0
C4022 C 0.27463 0.21852 0.78395 0.0
C4023 C 0.27212 0.22806 0.76799 0.0
C4024 C 0.25114 0.18817 0.76864 0.0
C4025 C 0.25852 0.2168 0.75259 0.0
C4026 C 0.2283 0.15455 0.75241 0.0
C4027 C 0.23404 0.13828 0.78522 0.0
N4028 N 0.24878 0.1977 0.75327 0.0
N4029 N 0.24279 0.15757 0.78428 0.0
H4030 H 0.34426 0.9291 0.22832 0.0
H4031 H 0.32449 0.85069 0.29764 0.0
H4032 H 0.38585 0.91468 0.26599 0.0
H4033 H 0.28642 0.84828 0.24713 0.0
H4034 H 0.34454 0.88024 0.29008 0.0
H4035 H 0.32147 0.90098 0.2351 0.0
C4036 C 0.34871 0.91926 0.23715 0.0
C4037 C 0.36661 0.92403 0.24689 0.0
C4038 C 0.33158 0.87347 0.2809 0.0
C4039 C 0.34093 0.89337 0.2557 0.0
C4040 C 0.31992 0.85706 0.28556 0.0
C4041 C 0.30431 0.84701 0.27252 0.0
C4042 C 0.32719 0.87953 0.26333 0.0
C4043 C 0.29873 0.85568 0.25716 0.0
C4044 C 0.3357 0.90368 0.24147 0.0
C4045 C 0.372 0.91124 0.25836 0.0
N4046 N 0.31056 0.87126 0.25251 0.0
N4047 N 0.35897 0.89671 0.26303 0.0
H4048 H 0.59227 0.41442 0.57779 0.0
H4049 H 0.52616 0.46107 0.51227 0.0
H4050 H 0.54025 0.37991 0.54589 0.0
H4051 H 0.5785 0.49392 0.54466 0.0
H4052 H 0.53108 0.43091 0.52333 0.0
H4053 H 0.58755 0.44324 0.56461 0.0
C4054 C 0.57992 0.41277 0.56786 0.0
C4055 C 0.56669 0.39453 0.563 0.0
C4056 C 0.54148 0.44473 0.52797 0.0
C4057 C 0.561 0.42793 0.54797 0.0
C4058 C 0.5387 0.46197 0.52165 0.0
C4059 C 0.55195 0.48013 0.52751 0.0
C4060 C 0.55758 0.44567 0.54033 0.0
C4061 C 0.56792 0.48031 0.53966 0.0
C4062 C 0.57715 0.42937 0.56042 0.0
C4063 C 0.55076 0.39365 0.55031 0.0
N4064 N 0.57023 0.46343 0.54568 0.0
N4065 N 0.54836 0.41008 0.54327 0.0
H4066 H 0.40153 0.7617 0.36849 0.0
H4067 H 0.36812 0.7993 0.27195 0.0
H4068 H 0.43727 0.78701 0.32937 0.0
H4069 H 0.32954 0.77895 0.31061 0.0
H4070 H 0.39304 0.7943 0.29356 0.0
H4071 H 0.37493 0.76679 0.34838 0.0
C4072 C 0.4039 0.76825 0.35572 0.0
C4073 C 0.42201 0.77403 0.35092 0.0
C4074 C 0.37922 0.79103 0.29758 0.0
C4075 C 0.39128 0.78006 0.32774 0.0
C4076 C 0.36483 0.79397 0.28517 0.0
C4077 C 0.34651 0.78976 0.28936 0.0
C4078 C 0.37563 0.78365 0.31466 0.0
C4079 C 0.34339 0.78266 0.30678 0.0
C4080 C 0.38862 0.77128 0.34428 0.0
C4081 C 0.42388 0.78261 0.33415 0.0
N4082 N 0.35775 0.77977 0.31873 0.0
N4083 N 0.40889 0.78529 0.32335 0.0
H4084 H 0.03813 0.69404 0.05557 0.0
H4085 H 0.08631 0.6069 0.01887 0.0
H4086 H 0.09345 0.70562 0.03988 0.0
H4087 H 0.02896 0.59842 0.02754 0.0
H4088 H 0.08965 0.6431 0.02583 0.0
H4089 H 0.03466 0.65884 0.04413 0.0
C4090 C 0.04948 0.68925 0.04939 0.0
C4091 C 0.06613 0.70289 0.0487 0.0
C4092 C 0.07635 0.63324 0.0261 0.0
C4093 C 0.06241 0.66227 0.03603 0.0
C4094 C 0.07448 0.61266 0.02223 0.0
C4095 C 0.05734 0.59974 0.02258 0.0
C4096 C 0.06103 0.64073 0.03064 0.0
C4097 C 0.04239 0.60785 0.0269 0.0
C4098 C 0.04754 0.66905 0.04301 0.0
C4099 C 0.08047 0.6956 0.04095 0.0
N4100 N 0.04462 0.62779 0.03087 0.0
N4101 N 0.07833 0.67574 0.03503 0.0
H4102 H 0.10276 0.31249 0.8578 0.0
H4103 H 0.18125 0.26028 0.82087 0.0
H4104 H 0.1085 0.2554 0.86955 0.0
H4105 H 0.18176 0.32143 0.81787 0.0
H4106 H 0.15473 0.25846 0.83878 0.0
H4107 H 0.13149 0.31622 0.8432 0.0
C4108 C 0.11004 0.30076 0.85748 0.0
C4109 C 0.10287 0.28347 0.86485 0.0
C4110 C 0.16068 0.27231 0.83426 0.0
C4111 C 0.13588 0.2876 0.84774 0.0
C4112 C 0.17602 0.27345 0.82411 0.0
C4113 C 0.18395 0.29103 0.81761 0.0
C4114 C 0.15292 0.28879 0.83791 0.0
C4115 C 0.17604 0.30738 0.8221 0.0
C4116 C 0.12646 0.30289 0.84901 0.0
C4117 C 0.11305 0.26879 0.8637 0.0
N4118 N 0.16097 0.30582 0.83181 0.0
N4119 N 0.12887 0.27114 0.85526 0.0
H4120 H 0.58357 0.74796 0.96231 0.0
H4121 H 0.537 0.63284 0.95487 0.0
H4122 H 0.55316 0.71086 0.90936 0.0
H4123 H 0.55672 0.67395 0.00886 0.0
H4124 H 0.54369 0.66073 0.93732 0.0
H4125 H 0.57523 0.72016 0.9792 0.0
C4126 C 0.5752 0.73391 0.95423 0.0
C4127 C 0.56911 0.73163 0.93443 0.0
C4128 C 0.54643 0.66362 0.95301 0.0
C4129 C 0.55926 0.69991 0.95367 0.0
C4130 C 0.54265 0.64779 0.96295 0.0
C4131 C 0.54626 0.65133 0.98322 0.0
C4132 C 0.55415 0.6829 0.96354 0.0
C4133 C 0.55357 0.67079 0.9932 0.0
C4134 C 0.5703 0.71811 0.9639 0.0
C4135 C 0.558 0.71324 0.9247 0.0
N4136 N 0.5574 0.68588 0.98323 0.0
N4137 N 0.55346 0.698 0.93444 0.0
H4138 H 0.08756 0.74043 0.6891 0.0
H4139 H 0.1778 0.7923 0.76408 0.0
H4140 H 0.08814 0.78921 0.73518 0.0
H4141 H 0.17264 0.74349 0.71665 0.0
H4142 H 0.14522 0.79228 0.7549 0.0
H4143 H 0.11911 0.74183 0.70029 0.0
C4144 C 0.09431 0.75125 0.70188 0.0
C4145 C 0.08518 0.7644 0.71156 0.0
C4146 C 0.15133 0.78166 0.74656 0.0
C4147 C 0.12173 0.76661 0.7242 0.0
C4148 C 0.16975 0.78169 0.75176 0.0
C4149 C 0.17765 0.76807 0.74083 0.0
C4150 C 0.14111 0.76772 0.7306 0.0
C4151 C 0.16699 0.75446 0.72514 0.0
C4152 C 0.11245 0.75222 0.70817 0.0
C4153 C 0.0948 0.7787 0.72751 0.0
N4154 N 0.14926 0.75464 0.72052 0.0
N4155 N 0.11272 0.77944 0.73344 0.0
H4156 H 0.10552 0.43529 0.42592 0.0
H4157 H 0.0587 0.47558 0.51629 0.0
H4158 H 0.0872 0.40134 0.46959 0.0
H4159 H 0.08218 0.51278 0.4771 0.0
H4160 H 0.06988 0.44827 0.49942 0.0
H4161 H 0.09886 0.46467 0.44508 0.0
C4162 C 0.10061 0.4343 0.43984 0.0
C4163 C 0.09694 0.4162 0.44644 0.0
C4164 C 0.07264 0.46238 0.49446 0.0
C4165 C 0.08895 0.44908 0.46797 0.0
C4166 C 0.06615 0.47779 0.50398 0.0
C4167 C 0.0695 0.496 0.49773 0.0
C4168 C 0.0825 0.4654 0.47866 0.0
C4169 C 0.0793 0.49863 0.48199 0.0
C4170 C 0.09666 0.4509 0.45065 0.0
C4171 C 0.09022 0.41523 0.46424 0.0
N4172 N 0.08549 0.48336 0.47285 0.0
N4173 N 0.08629 0.43146 0.47437 0.0
H4174 H 0.40892 0.28005 0.18594 0.0
H4175 H 0.34462 0.24942 0.26163 0.0
H4176 H 0.42632 0.2446 0.22572 0.0
H4177 H 0.35642 0.30856 0.24788 0.0
H4178 H 0.37214 0.24376 0.24725 0.0
H4179 H 0.3855 0.28639 0.2061 0.0
C4180 C 0.40786 0.27372 0.19902 0.0
C4181 C 0.41968 0.26212 0.20446 0.0
C4182 C 0.36875 0.25804 0.24783 0.0
C4183 C 0.3929 0.26901 0.22724 0.0
C4184 C 0.35313 0.26122 0.25587 0.0
C4185 C 0.3482 0.27928 0.25557 0.0
C4186 C 0.3789 0.27291 0.23921 0.0
C4187 C 0.3597 0.29435 0.2483 0.0
C4188 C 0.39455 0.27734 0.21046 0.0
C4189 C 0.41736 0.25363 0.22113 0.0
N4190 N 0.37438 0.29066 0.24003 0.0
N4191 N 0.40407 0.25723 0.23207 0.0
H4192 H 0.59484 0.4855 0.36603 0.0
H4193 H 0.58212 0.55309 0.46732 0.0
H4194 H 0.6194 0.5485 0.38005 0.0
H4195 H 0.54991 0.49355 0.44531 0.0
H4196 H 0.59789 0.55161 0.43767 0.0
H4197 H 0.5807 0.48797 0.39614 0.0
C4198 C 0.59753 0.49993 0.37529 0.0
C4199 C 0.60879 0.51674 0.36971 0.0
C4200 C 0.58753 0.53874 0.4394 0.0
C4201 C 0.59192 0.5197 0.40553 0.0
C4202 C 0.57859 0.53952 0.45661 0.0
C4203 C 0.56464 0.52329 0.45946 0.0
C4204 C 0.58289 0.52149 0.42465 0.0
C4205 C 0.56057 0.50645 0.44428 0.0
C4206 C 0.58919 0.50133 0.39273 0.0
C4207 C 0.61094 0.53492 0.383 0.0
N4208 N 0.56954 0.50599 0.428 0.0
N4209 N 0.60282 0.53583 0.39996 0.0
H4210 H 0.3388 0.85124 0.07317 0.0
H4211 H 0.34631 0.8761 0.18801 0.0
H4212 H 0.30986 0.8895 0.1053 0.0
H4213 H 0.35978 0.82422 0.15668 0.0
H4214 H 0.3426 0.88821 0.15756 0.0
H4215 H 0.35331 0.84585 0.1038 0.0
C4216 C 0.33521 0.85803 0.08677 0.0
C4217 C 0.32302 0.87048 0.08704 0.0
C4218 C 0.34695 0.87449 0.15753 0.0
C4219 C 0.34006 0.86539 0.12163 0.0
C4220 C 0.34937 0.86776 0.17489 0.0
C4221 C 0.35246 0.84873 0.17461 0.0
C4222 C 0.34812 0.86221 0.14017 0.0
C4223 C 0.35687 0.83874 0.15746 0.0
C4224 C 0.3437 0.85531 0.10411 0.0
C4225 C 0.31896 0.87946 0.10475 0.0
N4226 N 0.35395 0.8453 0.14068 0.0
N4227 N 0.32759 0.87681 0.12149 0.0
H4228 H 1.00365 0.52854 0.86153 0.0
H4229 H 0.01061 0.52064 0.97025 0.0
H4230 H 0.96336 0.54636 0.89598 0.0
H4231 H 0.05898 0.55096 0.94835 0.0
H4232 H 0.99166 0.52265 0.94083 0.0
H4233 H 0.02361 0.52944 0.89153 0.0
C4234 C 0.99922 0.53283 0.87548 0.0
C4235 C 0.98216 0.53756 0.8767 0.0
C4236 C 0.00642 0.52893 0.94264 0.0
C4237 C 1.00419 0.5381 0.91026 0.0
C4238 C 0.01714 0.52799 0.95938 0.0
C4239 C 0.03613 0.53639 0.96188 0.0
C4240 C 0.01505 0.53744 0.92811 0.0
C4241 C 0.04425 0.54469 0.94697 0.0
C4242 C 0.01047 0.53335 0.89239 0.0
C4243 C 0.9766 0.54283 0.8948 0.0
N4244 N 0.03361 0.54485 0.93045 0.0
N4245 N 0.98758 0.54273 0.91107 0.0
H4246 H 0.3157 0.2382 0.60981 0.0
H4247 H 0.27019 0.29144 0.69565 0.0
H4248 H 0.27155 0.26688 0.5986 0.0
H4249 H 0.30835 0.25451 0.70289 0.0
H4250 H 0.27138 0.28495 0.66034 0.0
H4251 H 0.31492 0.24737 0.64445 0.0
C4252 C 0.30601 0.24672 0.61462 0.0
C4253 C 0.29365 0.25175 0.60121 0.0
C4254 C 0.27938 0.27822 0.66973 0.0
C4255 C 0.29236 0.26195 0.6411 0.0
C4256 C 0.2786 0.28181 0.6898 0.0
C4257 C 0.28923 0.27355 0.70218 0.0
C4258 C 0.29078 0.26624 0.66215 0.0
C4259 C 0.30008 0.26137 0.69393 0.0
C4260 C 0.30542 0.25177 0.63447 0.0
C4261 C 0.28117 0.26249 0.60843 0.0
N4262 N 0.30058 0.25813 0.67452 0.0
N4263 N 0.28079 0.26719 0.6279 0.0
H4264 H 0.62405 0.5455 0.1673 0.0
H4265 H 0.55347 0.49742 0.06928 0.0
H4266 H 0.58592 0.48807 0.1608 0.0
H4267 H 0.58004 0.55983 0.08444 0.0
H4268 H 0.56636 0.49278 0.10126 0.0
H4269 H 0.60962 0.54992 0.13647 0.0
C4270 C 0.61258 0.53374 0.15979 0.0
C4271 C 0.60646 0.51632 0.16763 0.0
C4272 C 0.5694 0.50751 0.09765 0.0
C4273 C 0.58978 0.52137 0.13069 0.0
C4274 C 0.56201 0.5102 0.07925 0.0
C4275 C 0.56553 0.5291 0.07379 0.0
C4276 C 0.58088 0.52372 0.11093 0.0
C4277 C 0.57675 0.54496 0.08772 0.0
C4278 C 0.60434 0.53634 0.14177 0.0
C4279 C 0.59166 0.50174 0.15592 0.0
N4280 N 0.58405 0.54189 0.10531 0.0
N4281 N 0.58403 0.50456 0.13831 0.0
H4282 H 0.32725 0.88069 0.90019 0.0
H4283 H 0.28945 0.77368 0.83327 0.0
H4284 H 0.29164 0.83177 0.91907 0.0
H4285 H 0.30927 0.82777 0.81152 0.0
H4286 H 0.29514 0.79313 0.86632 0.0
H4287 H 0.32582 0.85955 0.8688 0.0
C4288 C 0.3193 0.86539 0.89773 0.0
C4289 C 0.30952 0.85785 0.91206 0.0
C4290 C 0.29839 0.80063 0.85427 0.0
C4291 C 0.30775 0.83375 0.87639 0.0
C4292 C 0.29524 0.78958 0.83552 0.0
C4293 C 0.29894 0.79922 0.81982 0.0
C4294 C 0.30544 0.8213 0.85713 0.0
C4295 C 0.30631 0.8198 0.82332 0.0
C4296 C 0.31841 0.8534 0.87985 0.0
C4297 C 0.29923 0.83807 0.90821 0.0
N4298 N 0.3093 0.8302 0.84165 0.0
N4299 N 0.29858 0.82662 0.89064 0.0
H4300 H 0.94907 0.48381 0.68802 0.0
H4301 H 0.02486 0.51817 0.6221 0.0
H4302 H 1.00113 0.5263 0.70859 0.0
H4303 H 0.97735 0.46947 0.60098 0.0
H4304 H 0.01727 0.51866 0.65472 0.0
H4305 H 0.96024 0.47504 0.65717 0.0
C4306 C 0.96298 0.49104 0.68611 0.0
C4307 C 0.97422 0.50597 0.70063 0.0
C4308 C 0.00857 0.50758 0.64316 0.0
C4309 C 0.98679 0.49629 0.66557 0.0
C4310 C 0.01289 0.50736 0.62458 0.0
C4311 C 1.00165 0.49369 0.6092 0.0
C4312 C 0.99274 0.4942 0.64634 0.0
C4313 C 0.9862 0.48014 0.61273 0.0
C4314 C 0.96929 0.48605 0.66853 0.0
C4315 C 0.99198 0.51502 0.69753 0.0
N4316 N 0.98202 0.48082 0.63117 0.0
N4317 N 0.99768 0.51014 0.68018 0.0
H4318 H 0.31922 0.25985 0.41654 0.0
H4319 H 0.27822 0.25341 0.30538 0.0
H4320 H 0.26851 0.21815 0.38959 0.0
H4321 H 0.32469 0.29855 0.33678 0.0
H4322 H 0.27526 0.23828 0.33473 0.0
H4323 H 0.32215 0.27249 0.38633 0.0
C4324 C 0.30872 0.25322 0.40426 0.0
C4325 C 0.29362 0.23778 0.40576 0.0
C4326 C 0.28621 0.25139 0.33507 0.0
C4327 C 0.29685 0.25244 0.37078 0.0
C4328 C 0.28805 0.25984 0.31822 0.0
C4329 C 0.30194 0.27704 0.31847 0.0
C4330 C 0.29836 0.26027 0.35221 0.0
C4331 C 0.31385 0.2852 0.33581 0.0
C4332 C 0.31035 0.26056 0.38696 0.0
C4333 C 0.28031 0.23017 0.38927 0.0
N4334 N 0.3118 0.2768 0.35186 0.0
N4335 N 0.28226 0.23752 0.3725 0.0
H4336 H 0.35109 0.58845 0.47832 0.0
H4337 H 0.4389 0.56229 0.53064 0.0
H4338 H 0.36946 0.60502 0.53991 0.0
H4339 H 0.42612 0.5533 0.4683 0.0
H4340 H 0.41324 0.57789 0.5341 0.0
H4341 H 0.3781 0.57491 0.4741 0.0
C4342 C 0.36082 0.58926 0.49094 0.0
C4343 C 0.35804 0.59781 0.50952 0.0
C4344 C 0.41608 0.5726 0.51965 0.0
C4345 C 0.38872 0.58225 0.50481 0.0
C4346 C 0.43083 0.56381 0.51766 0.0
C4347 C 0.43462 0.55642 0.49915 0.0
C4348 C 0.40495 0.5739 0.50302 0.0
C4349 C 0.42348 0.5585 0.48285 0.0
C4350 C 0.37618 0.58151 0.48852 0.0
C4351 C 0.37089 0.59825 0.52539 0.0
N4352 N 0.40904 0.56698 0.48517 0.0
N4353 N 0.38568 0.59055 0.52266 0.0
H4354 H 0.91937 0.93715 0.5459 0.0
H4355 H 0.97724 0.03221 0.50943 0.0
H4356 H 0.89517 0.96848 0.50647 0.0
H4357 H 1.00371 0.99091 0.53282 0.0
H4358 H 0.94708 0.00983 0.50972 0.0
H4359 H 0.95001 0.95755 0.54342 0.0
C4360 C 0.92039 0.94832 0.53677 0.0
C4361 C 0.90438 0.95093 0.5264 0.0
C4362 C 0.95943 1.00552 0.5147 0.0
C4363 C 0.93981 0.97449 0.52345 0.0
C4364 C 0.9767 0.01831 0.51451 0.0
C4365 C 0.99308 0.01339 0.52095 0.0
C4366 C 0.95831 0.98777 0.52196 0.0
C4367 C 0.99148 0.99518 0.52746 0.0
C4368 C 0.938 0.95988 0.53524 0.0
C4369 C 0.90692 0.9656 0.51462 0.0
N4370 N 0.97444 0.98318 0.52804 0.0
N4371 N 0.92413 0.9768 0.51359 0.0
H4372 H 0.89172 0.1746 0.28966 0.0
H4373 H 0.80572 0.21514 0.24612 0.0
H4374 H 0.85489 0.14341 0.2382 0.0
H4375 H 0.85099 0.25398 0.28564 0.0
H4376 H 0.82211 0.18832 0.24511 0.0
H4377 H 0.87605 0.20198 0.29066 0.0
C4378 C 0.88037 0.17314 0.2785 0.0
C4379 C 0.87511 0.1558 0.26374 0.0
C4380 C 0.82857 0.20263 0.25409 0.0
C4381 C 0.85645 0.18849 0.26496 0.0
C4382 C 0.81908 0.2182 0.25474 0.0
C4383 C 0.82663 0.23744 0.266 0.0
C4384 C 0.84597 0.20552 0.26515 0.0
C4385 C 0.84428 0.23977 0.27661 0.0
C4386 C 0.87138 0.18919 0.27907 0.0
C4387 C 0.86009 0.15598 0.24987 0.0
N4388 N 0.85305 0.22424 0.27606 0.0
N4389 N 0.85149 0.17161 0.25092 0.0
H4390 H 0.68262 0.08649 0.97068 0.0
H4391 H 0.6068 0.05617 0.03725 0.0
H4392 H 0.68971 0.0529 0.0162 0.0
H4393 H 0.59595 0.07707 0.98384 0.0
H4394 H 0.63718 0.0539 0.02899 0.0
H4395 H 0.64981 0.07841 0.97184 0.0
C4396 C 0.67731 0.0768 0.98049 0.0
C4397 C 0.68907 0.07114 0.99406 0.0
C4398 C 0.62822 0.05914 0.01914 0.0
C4399 C 0.65158 0.06283 0.99609 0.0
C4400 C 0.61113 0.061 0.02412 0.0
C4401 C 0.59911 0.06709 0.01126 0.0
C4402 C 0.63331 0.06374 1.00137 0.0
C4403 C 0.60504 0.07254 0.99416 0.0
C4404 C 0.65848 0.07246 0.98133 0.0
C4405 C 0.68117 0.05841 0.00617 0.0
N4406 N 0.6218 0.0707 0.98966 0.0
N4407 N 0.66286 0.05522 0.00741 0.0
H4408 H 0.22675 0.4845 0.29203 0.0
H4409 H 0.26255 0.39222 0.24411 0.0
H4410 H 0.21615 0.45853 0.23102 0.0
H4411 H 0.26893 0.41265 0.30609 0.0
H4412 H 0.2457 0.41706 0.23937 0.0
H4413 H 0.24302 0.45903 0.29788 0.0
C4414 C 0.2279 0.47342 0.27991 0.0
C4415 C 0.22017 0.47345 0.26104 0.0
C4416 C 0.25062 0.41608 0.25405 0.0
C4417 C 0.23863 0.44471 0.26753 0.0
C4418 C 0.26008 0.40178 0.25675 0.0
C4419 C 0.2669 0.40041 0.27552 0.0
C4420 C 0.24807 0.42913 0.27023 0.0
C4421 C 0.26385 0.41343 0.29141 0.0
C4422 C 0.23716 0.45899 0.28324 0.0
C4423 C 0.22215 0.45911 0.24573 0.0
N4424 N 0.25459 0.42741 0.2884 0.0
N4425 N 0.23121 0.44524 0.24934 0.0
H4426 H 0.24134 0.46365 0.02699 0.0
H4427 H 0.13273 0.45261 0.00897 0.0
H4428 H 0.20342 0.40661 0.006 0.0
H4429 H 0.17308 0.50734 0.00973 0.0
H4430 H 0.15776 0.43519 0.01006 0.0
H4431 H 0.21588 0.47974 0.02318 0.0
C4432 C 0.22763 0.45449 0.02162 0.0
C4433 C 0.22452 0.43374 0.01692 0.0
C4434 C 0.16106 0.45098 0.00982 0.0
C4435 C 0.19517 0.45212 0.01249 0.0
C4436 C 0.14681 0.46094 0.0093 0.0
C4437 C 0.15078 0.48149 0.00924 0.0
C4438 C 0.17943 0.46171 0.01063 0.0
C4439 C 0.16929 0.49149 0.00954 0.0
C4440 C 0.2131 0.46371 0.01932 0.0
C4441 C 0.20646 0.42266 0.00973 0.0
N4442 N 0.18288 0.48156 0.01039 0.0
N4443 N 0.19241 0.43197 0.00789 0.0
H4444 H 0.88337 0.94495 0.28702 0.0
H4445 H 0.80081 0.85007 0.23593 0.0
H4446 H 0.85181 0.94111 0.23167 0.0
H4447 H 0.83825 0.84653 0.28449 0.0
H4448 H 0.81923 0.8834 0.23506 0.0
H4449 H 0.86714 0.91045 0.28758 0.0
C4450 C 0.87305 0.93713 0.27493 0.0
C4451 C 0.86931 0.94677 0.25923 0.0
C4452 C 0.82371 0.8754 0.24582 0.0
C4453 C 0.85027 0.90604 0.25984 0.0
C4454 C 0.81317 0.85607 0.24624 0.0
C4455 C 0.81796 0.84474 0.25995 0.0
C4456 C 0.83934 0.88445 0.25958 0.0
C4457 C 0.83406 0.85409 0.27321 0.0
C4458 C 0.86379 0.9171 0.27525 0.0
C4459 C 0.85572 0.93493 0.2441 0.0
N4460 N 0.84393 0.87322 0.27279 0.0
N4461 N 0.84685 0.91565 0.24488 0.0
H4462 H 0.73659 0.15558 0.79177 0.0
H4463 H 0.7804 0.2194 0.72858 0.0
H4464 H 0.74549 0.12614 0.73591 0.0
H4465 H 0.80202 0.2305 0.78927 0.0
H4466 H 0.77169 0.18385 0.72927 0.0
H4467 H 0.76319 0.18233 0.7911 0.0
C4468 C 0.7444 0.15455 0.77956 0.0
C4469 C 0.73874 0.13887 0.76374 0.0
C4470 C 0.77907 0.19401 0.74221 0.0
C4471 C 0.76898 0.16936 0.76279 0.0
C4472 C 0.78388 0.21422 0.74183 0.0
C4473 C 0.79096 0.22758 0.75916 0.0
C4474 C 0.78121 0.18767 0.76007 0.0
C4475 C 0.79568 0.22044 0.77589 0.0
C4476 C 0.75966 0.16972 0.77924 0.0
C4477 C 0.74916 0.13837 0.74813 0.0
N4478 N 0.79021 0.20083 0.77612 0.0
N4479 N 0.76363 0.15373 0.7478 0.0
loop_
_geom_bond_atom_site_label_1
_geom_bond_atom_site_label_2
_geom_bond_distance
_geom_bond_site_symmetry_2
_ccdc_geom_bond_type
Li0 N17 1.990 . S
Li0 O60 1.956 . S
Li0 O61 1.970 . S
Li0 O62 1.961 . S
Li1 N25 1.990 . S
Li1 O60 1.970 . S
Li1 O61 1.956 . S
Li1 O63 1.961 . S
Li2 N47 1.990 . S
Li2 O60 1.961 . S
Li2 O62 1.956 . S
Li2 O63 1.970 . S
Li3 N53 1.990 . S
Li3 O61 1.961 . S
Li3 O62 1.970 . S
Li3 O63 1.956 . S
C4 C6 1.348 . S
C4 C7 1.356 . S
C4 O60 1.325 . S
N5 C8 1.314 . S
N5 C9 1.279 . S
C6 C4 1.348 . S
C6 C8 1.353 . S
C6 H64 0.929 . S
C7 C4 1.356 . S
C7 C9 1.358 . S
C7 H65 0.930 . S
C8 N5 1.314 . S
C8 C6 1.353 . S
C8 H66 0.930 . S
C9 N5 1.279 . S
C9 C7 1.358 . S
C9 H67 0.930 . S
C10 C13 1.348 . S
C10 C14 1.356 . S
C10 O61 1.325 . S
C11 N12 1.279 . S
C11 C14 1.358 . S
C11 H68 0.930 . S
N12 C11 1.279 . S
N12 C15 1.314 . S
C13 C10 1.348 . S
C13 C15 1.353 . S
C13 H69 0.929 . S
C14 C10 1.356 . S
C14 C11 1.358 . S
C14 H70 0.930 . S
C15 N12 1.314 . S
C15 C13 1.353 . S
C15 H71 0.930 . S
C16 N17 1.314 . S
C16 C21 1.353 . S
C16 H22 0.930 . S
N17 Li0 1.990 . S
N17 C16 1.314 . S
N17 C19 1.279 . S
C18 C19 1.358 . S
C18 C20 1.356 . S
C18 H72 0.930 . S
C19 N17 1.279 . S
C19 C18 1.358 . S
C19 H23 0.930 . S
C20 C18 1.356 . S
C20 C21 1.348 . S
C21 C16 1.353 . S
C21 C20 1.348 . S
C21 H73 0.929 . S
H22 C16 0.930 . S
H23 C19 0.930 . S
C24 N25 1.314 . S
C24 C26 1.353 . S
C24 H30 0.930 . S
N25 Li1 1.990 . S
N25 C24 1.314 . S
N25 C28 1.279 . S
C26 C24 1.353 . S
C26 C29 1.348 . S
C26 H74 0.929 . S
C27 C28 1.358 . S
C27 C29 1.356 . S
C27 H75 0.930 . S
C28 N25 1.279 . S
C28 C27 1.358 . S
C28 H31 0.930 . S
C29 C26 1.348 . S
C29 C27 1.356 . S
H30 C24 0.930 . S
H31 C28 0.930 . S
C32 C34 1.348 . S
C32 C35 1.356 . S
C32 O62 1.325 . S
N33 C36 1.314 . S
N33 C37 1.279 . S
C34 C32 1.348 . S
C34 C36 1.353 . S
C34 H76 0.929 . S
C35 C32 1.356 . S
C35 C37 1.358 . S
C35 H77 0.930 . S
C36 N33 1.314 . S
C36 C34 1.353 . S
C36 H78 0.930 . S
C37 N33 1.279 . S
C37 C35 1.358 . S
C37 H79 0.930 . S
C38 C39 1.348 . S
C38 C40 1.356 . S
C38 O63 1.325 . S
C39 C38 1.348 . S
C39 C41 1.353 . S
C39 H80 0.929 . S
C40 C38 1.356 . S
C40 C42 1.358 . S
C40 H81 0.930 . S
C41 C39 1.353 . S
C41 N43 1.314 . S
C41 H82 0.930 . S
C42 C40 1.358 . S
C42 N43 1.279 . S
C42 H83 0.930 . S
N43 C41 1.314 . S
N43 C42 1.279 . S
C44 C46 1.353 . S
C44 N47 1.314 . S
C44 H50 0.930 . S
C45 N47 1.279 . S
C45 C48 1.358 . S
C45 H51 0.930 . S
C46 C44 1.353 . S
C46 C49 1.348 . S
C46 H84 0.929 . S
N47 Li2 1.990 . S
N47 C44 1.314 . S
N47 C45 1.279 . S
C48 C45 1.358 . S
C48 C49 1.356 . S
C48 H85 0.930 . S
C49 C46 1.348 . S
C49 C48 1.356 . S
H50 C44 0.930 . S
H51 C45 0.930 . S
C52 N53 1.314 . S
C52 C54 1.353 . S
C52 H58 0.930 . S
N53 Li3 1.990 . S
N53 C52 1.314 . S
N53 C56 1.279 . S
C54 C52 1.353 . S
C54 C57 1.348 . S
C54 H86 0.929 . S
C55 C56 1.358 . S
C55 C57 1.356 . S
C55 H87 0.930 . S
C56 N53 1.279 . S
C56 C55 1.358 . S
C56 H59 0.930 . S
C57 C54 1.348 . S
C57 C55 1.356 . S
H58 C52 0.930 . S
H59 C56 0.930 . S
O60 Li0 1.956 . S
O60 Li1 1.970 . S
O60 Li2 1.961 . S
O60 C4 1.325 . S
O61 Li0 1.970 . S
O61 Li1 1.956 . S
O61 Li3 1.961 . S
O61 C10 1.325 . S
O62 Li0 1.961 . S
O62 Li2 1.956 . S
O62 Li3 1.970 . S
O62 C32 1.325 . S
O63 Li1 1.961 . S
O63 Li2 1.970 . S
O63 Li3 1.956 . S
O63 C38 1.325 . S
H64 C6 0.929 . S
H65 C7 0.930 . S
H66 C8 0.930 . S
H67 C9 0.930 . S
H68 C11 0.930 . S
H69 C13 0.929 . S
H70 C14 0.930 . S
H71 C15 0.930 . S
H72 C18 0.930 . S
H73 C21 0.929 . S
H74 C26 0.929 . S
H75 C27 0.930 . S
H76 C34 0.929 . S
H77 C35 0.930 . S
H78 C36 0.930 . S
H79 C37 0.930 . S
H80 C39 0.929 . S
H81 C40 0.930 . S
H82 C41 0.930 . S
H83 C42 0.930 . S
H84 C46 0.929 . S
H85 C48 0.930 . S
H86 C54 0.929 . S
H87 C55 0.930 . S
Li88 N105 1.990 . S
Li88 O148 1.956 . S
Li88 O149 1.970 . S
Li88 O150 1.961 1_455 S
Li89 N113 1.990 . S
Li89 O148 1.970 . S
Li89 O149 1.956 . S
Li89 O151 1.930 1_455 S
Li90 N135 1.990 . S
Li90 O148 1.961 1_655 S
Li90 O150 1.956 . S
Li90 O151 1.972 . S
Li91 N141 1.990 . S
Li91 O149 1.961 1_655 S
Li91 O150 1.970 . S
Li91 O151 2.000 . S
C92 C94 1.348 . S
C92 C95 1.356 . S
C92 O148 1.325 . S
N93 C96 1.314 . S
N93 C97 1.279 . S
C94 C92 1.348 . S
C94 C96 1.353 . S
C94 H152 0.929 . S
C95 C92 1.356 . S
C95 C97 1.358 . S
C95 H153 0.930 . S
C96 N93 1.314 . S
C96 C94 1.353 . S
C96 H154 0.930 . S
C97 N93 1.279 . S
C97 C95 1.358 . S
C97 H155 0.930 . S
C98 C101 1.348 . S
C98 C102 1.356 . S
C98 O149 1.325 . S
C99 N100 1.279 . S
C99 C102 1.358 . S
C99 H156 0.930 . S
N100 C99 1.279 . S
N100 C103 1.314 . S
C101 C98 1.348 . S
C101 C103 1.353 . S
C101 H157 0.929 . S
C102 C98 1.356 . S
C102 C99 1.358 . S
C102 H158 0.936 . S
C103 N100 1.314 . S
C103 C101 1.353 . S
C103 H159 0.930 . S
C104 N105 1.314 1_655 S
C104 C109 1.353 . S
C104 H110 0.930 . S
N105 Li88 1.990 . S
N105 C104 1.314 1_455 S
N105 C107 1.279 . S
C106 C107 1.358 . S
C106 C108 1.356 . S
C106 H160 0.930 . S
C107 N105 1.279 . S
C107 C106 1.358 . S
C107 H111 0.930 . S
C108 C106 1.356 . S
C108 C109 1.348 1_455 S
C109 C104 1.353 . S
C109 C108 1.348 1_655 S
C109 H161 0.929 . S
H110 C104 0.930 . S
H111 C107 0.930 . S
C112 N113 1.314 . S
C112 C114 1.353 . S
C112 H118 0.930 . S
N113 Li89 1.990 . S
N113 C112 1.314 . S
N113 C116 1.279 . S
C114 C112 1.353 . S
C114 C117 1.348 . S
C114 H162 0.929 . S
C115 C116 1.358 . S
C115 C117 1.356 . S
C115 H163 0.930 . S
C116 N113 1.279 . S
C116 C115 1.358 . S
C116 H119 0.930 . S
C117 C114 1.348 . S
C117 C115 1.356 . S
H118 C112 0.930 . S
H119 C116 0.930 . S
C120 C122 1.348 . S
C120 C123 1.356 . S
C120 O150 1.325 . S
N121 C124 1.314 . S
N121 C125 1.279 . S
C122 C120 1.348 . S
C122 C124 1.353 . S
C122 H164 0.929 . S
C123 C120 1.356 . S
C123 C125 1.358 . S
C123 H165 0.930 . S
C124 N121 1.314 . S
C124 C122 1.353 . S
C124 H166 0.930 . S
C125 N121 1.279 . S
C125 C123 1.358 . S
C125 H167 0.930 . S
C126 C127 1.348 . S
C126 C128 1.356 1_655 S
C126 O151 1.323 . S
C127 C126 1.348 . S
C127 C129 1.353 . S
C127 H168 0.929 . S
C128 C126 1.356 1_455 S
C128 C130 1.357 . S
C128 H169 0.930 . S
C129 C127 1.353 . S
C129 N131 1.314 . S
C129 H170 0.930 . S
C130 C128 1.357 . S
C130 N131 1.274 1_455 S
C130 H171 0.942 . S
N131 C129 1.314 . S
N131 C130 1.274 1_655 S
C132 C134 1.353 . S
C132 N135 1.314 1_455 S
C132 H138 0.930 . S
C133 N135 1.279 . S
C133 C136 1.358 . S
C133 H139 0.930 . S
C134 C132 1.353 . S
C134 C137 1.348 1_455 S
C134 H172 0.929 . S
N135 Li90 1.990 . S
N135 C132 1.314 1_655 S
N135 C133 1.279 . S
C136 C133 1.358 . S
C136 C137 1.356 . S
C136 H173 0.930 . S
C137 C134 1.348 1_655 S
C137 C136 1.356 . S
H138 C132 0.930 . S
H139 C133 0.930 . S
C140 N141 1.314 . S
C140 C142 1.353 . S
C140 H146 0.930 . S
N141 Li91 1.990 . S
N141 C140 1.314 . S
N141 C144 1.279 . S
C142 C140 1.353 . S
C142 C145 1.348 . S
C142 H174 0.929 . S
C143 C144 1.358 . S
C143 C145 1.356 . S
C143 H175 0.930 . S
C144 N141 1.279 . S
C144 C143 1.358 . S
C144 H147 0.930 . S
C145 C142 1.348 . S
C145 C143 1.356 . S
H146 C140 0.930 . S
H147 C144 0.930 . S
O148 Li88 1.956 . S
O148 Li89 1.970 . S
O148 Li90 1.961 1_455 S
O148 C92 1.325 . S
O149 Li88 1.970 . S
O149 Li89 1.956 . S
O149 Li91 1.961 1_455 S
O149 C98 1.325 . S
O150 Li88 1.961 1_655 S
O150 Li90 1.956 . S
O150 Li91 1.970 . S
O150 C120 1.325 . S
O151 Li89 1.930 1_655 S
O151 Li90 1.972 . S
O151 Li91 2.000 . S
O151 C126 1.323 . S
H152 C94 0.929 . S
H153 C95 0.930 . S
H154 C96 0.930 . S
H155 C97 0.930 . S
H156 C99 0.930 . S
H157 C101 0.929 . S
H158 C102 0.936 . S
H159 C103 0.930 . S
H160 C106 0.930 . S
H161 C109 0.929 . S
H162 C114 0.929 . S
H163 C115 0.930 . S
H164 C122 0.929 . S
H165 C123 0.930 . S
H166 C124 0.930 . S
H167 C125 0.930 . S
H168 C127 0.929 . S
H169 C128 0.930 . S
H170 C129 0.930 . S
H171 C130 0.942 . S
H172 C134 0.929 . S
H173 C136 0.930 . S
H174 C142 0.929 . S
H175 C143 0.930 . S
Li176 N193 1.990 . S
Li176 O236 1.956 . S
Li176 O237 1.970 . S
Li176 O238 1.961 . S
Li177 N201 1.990 . S
Li177 O236 1.970 . S
Li177 O237 1.956 . S
Li177 O239 1.961 . S
Li178 N223 1.990 . S
Li178 O236 1.961 . S
Li178 O238 1.956 . S
Li178 O239 1.970 . S
Li179 N229 1.990 . S
Li179 O237 1.961 . S
Li179 O238 1.970 . S
Li179 O239 1.956 . S
C180 C182 1.348 . S
C180 C183 1.356 . S
C180 O236 1.325 . S
N181 C184 1.314 . S
N181 C185 1.279 . S
C182 C180 1.348 . S
C182 C184 1.353 . S
C182 H240 0.929 . S
C183 C180 1.356 . S
C183 C185 1.358 . S
C183 H241 0.930 . S
C184 N181 1.314 . S
C184 C182 1.353 . S
C184 H242 0.930 . S
C185 N181 1.279 . S
C185 C183 1.358 . S
C185 H243 0.930 . S
C186 C189 1.348 . S
C186 C190 1.356 . S
C186 O237 1.325 . S
C187 N188 1.279 . S
C187 C190 1.358 . S
C187 H244 0.930 . S
N188 C187 1.279 . S
N188 C191 1.314 . S
C189 C186 1.348 . S
C189 C191 1.353 . S
C189 H245 0.929 . S
C190 C186 1.356 . S
C190 C187 1.358 . S
C190 H246 0.930 . S
C191 N188 1.314 . S
C191 C189 1.353 . S
C191 H247 0.930 . S
C192 N193 1.314 . S
C192 C197 1.353 . S
C192 H198 0.930 . S
N193 Li176 1.990 . S
N193 C192 1.314 . S
N193 C195 1.279 . S
C194 C195 1.358 . S
C194 C196 1.356 . S
C194 H248 0.930 . S
C195 N193 1.279 . S
C195 C194 1.358 . S
C195 H199 0.930 . S
C196 C194 1.356 . S
C196 C197 1.348 . S
C197 C192 1.353 . S
C197 C196 1.348 . S
C197 H249 0.929 . S
H198 C192 0.930 . S
H199 C195 0.930 . S
C200 N201 1.314 . S
C200 C202 1.353 . S
C200 H206 0.930 . S
N201 Li177 1.990 . S
N201 C200 1.314 . S
N201 C204 1.279 . S
C202 C200 1.353 . S
C202 C205 1.348 . S
C202 H250 0.929 . S
C203 C204 1.358 . S
C203 C205 1.356 . S
C203 H251 0.930 . S
C204 N201 1.279 . S
C204 C203 1.358 . S
C204 H207 0.930 . S
C205 C202 1.348 . S
C205 C203 1.356 . S
H206 C200 0.930 . S
H207 C204 0.930 . S
C208 C210 1.348 . S
C208 C211 1.356 . S
C208 O238 1.325 . S
N209 C212 1.314 . S
N209 C213 1.279 . S
C210 C208 1.348 . S
C210 C212 1.353 . S
C210 H252 0.929 . S
C211 C208 1.356 . S
C211 C213 1.358 . S
C211 H253 0.930 . S
C212 N209 1.314 . S
C212 C210 1.353 . S
C212 H254 0.930 . S
C213 N209 1.279 . S
C213 C211 1.358 . S
C213 H255 0.930 . S
C214 C215 1.348 . S
C214 C216 1.356 . S
C214 O239 1.325 . S
C215 C214 1.348 . S
C215 C217 1.353 . S
C215 H256 0.929 . S
C216 C214 1.356 . S
C216 C218 1.358 . S
C216 H257 0.930 . S
C217 C215 1.353 . S
C217 N219 1.314 . S
C217 H258 0.930 . S
C218 C216 1.358 . S
C218 N219 1.279 . S
C218 H259 0.930 . S
N219 C217 1.314 . S
N219 C218 1.279 . S
C220 C222 1.353 . S
C220 N223 1.314 . S
C220 H226 0.930 . S
C221 N223 1.279 . S
C221 C224 1.358 . S
C221 H227 0.930 . S
C222 C220 1.353 . S
C222 C225 1.348 . S
C222 H260 0.929 . S
N223 Li178 1.990 . S
N223 C220 1.314 . S
N223 C221 1.279 . S
C224 C221 1.358 . S
C224 C225 1.356 . S
C224 H261 0.930 . S
C225 C222 1.348 . S
C225 C224 1.356 . S
H226 C220 0.930 . S
H227 C221 0.930 . S
C228 N229 1.314 . S
C228 C230 1.353 . S
C228 H234 0.930 . S
N229 Li179 1.990 . S
N229 C228 1.314 . S
N229 C232 1.279 . S
C230 C228 1.353 . S
C230 C233 1.348 . S
C230 H262 0.929 . S
C231 C232 1.358 . S
C231 C233 1.356 . S
C231 H263 0.930 . S
C232 N229 1.279 . S
C232 C231 1.358 . S
C232 H235 0.930 . S
C233 C230 1.348 . S
C233 C231 1.356 . S
H234 C228 0.930 . S
H235 C232 0.930 . S
O236 Li176 1.956 . S
O236 Li177 1.970 . S
O236 Li178 1.961 . S
O236 C180 1.325 . S
O237 Li176 1.970 . S
O237 Li177 1.956 . S
O237 Li179 1.961 . S
O237 C186 1.325 . S
O238 Li176 1.961 . S
O238 Li178 1.956 . S
O238 Li179 1.970 . S
O238 C208 1.325 . S
O239 Li177 1.961 . S
O239 Li178 1.970 . S
O239 Li179 1.956 . S
O239 C214 1.325 . S
H240 C182 0.929 . S
H241 C183 0.930 . S
H242 C184 0.930 . S
H243 C185 0.930 . S
H244 C187 0.930 . S
H245 C189 0.929 . S
H246 C190 0.930 . S
H247 C191 0.930 . S
H248 C194 0.930 . S
H249 C197 0.929 . S
H250 C202 0.929 . S
H251 C203 0.930 . S
H252 C210 0.929 . S
H253 C211 0.930 . S
H254 C212 0.930 . S
H255 C213 0.930 . S
H256 C215 0.929 . S
H257 C216 0.930 . S
H258 C217 0.930 . S
H259 C218 0.930 . S
H260 C222 0.929 . S
H261 C224 0.930 . S
H262 C230 0.929 . S
H263 C231 0.930 . S
Li264 N281 1.990 . S
Li264 O324 1.956 . S
Li264 O325 1.970 . S
Li264 O326 1.961 . S
Li265 N289 1.990 . S
Li265 O324 1.970 . S
Li265 O325 1.956 . S
Li265 O327 1.961 . S
Li266 N311 1.990 . S
Li266 O324 1.961 . S
Li266 O326 1.956 . S
Li266 O327 1.970 . S
Li267 N317 1.990 . S
Li267 O325 1.961 . S
Li267 O326 1.970 . S
Li267 O327 1.956 . S
C268 C270 1.348 . S
C268 C271 1.356 . S
C268 O324 1.325 . S
N269 C272 1.314 . S
N269 C273 1.279 . S
C270 C268 1.348 . S
C270 C272 1.353 . S
C270 H328 0.929 . S
C271 C268 1.356 . S
C271 C273 1.358 . S
C271 H329 0.930 . S
C272 N269 1.314 . S
C272 C270 1.353 . S
C272 H330 0.930 . S
C273 N269 1.279 . S
C273 C271 1.358 . S
C273 H331 0.930 . S
C274 C277 1.348 . S
C274 C278 1.356 . S
C274 O325 1.325 . S
C275 N276 1.279 . S
C275 C278 1.358 . S
C275 H332 0.930 . S
N276 C275 1.279 . S
N276 C279 1.314 . S
C277 C274 1.348 . S
C277 C279 1.353 . S
C277 H333 0.929 . S
C278 C274 1.356 . S
C278 C275 1.358 . S
C278 H334 0.930 . S
C279 N276 1.314 . S
C279 C277 1.353 . S
C279 H335 0.930 . S
C280 N281 1.314 . S
C280 C285 1.353 . S
C280 H286 0.930 . S
N281 Li264 1.990 . S
N281 C280 1.314 . S
N281 C283 1.279 . S
C282 C283 1.358 . S
C282 C284 1.356 . S
C282 H336 0.930 . S
C283 N281 1.279 . S
C283 C282 1.358 . S
C283 H287 0.930 . S
C284 C282 1.356 . S
C284 C285 1.348 . S
C285 C280 1.353 . S
C285 C284 1.348 . S
C285 H337 0.929 . S
H286 C280 0.930 . S
H287 C283 0.930 . S
C288 N289 1.314 . S
C288 C290 1.353 . S
C288 H294 0.930 . S
N289 Li265 1.990 . S
N289 C288 1.314 . S
N289 C292 1.279 . S
C290 C288 1.353 . S
C290 C293 1.348 . S
C290 H338 0.929 . S
C291 C292 1.358 . S
C291 C293 1.356 . S
C291 H339 0.930 . S
C292 N289 1.279 . S
C292 C291 1.358 . S
C292 H295 0.930 . S
C293 C290 1.348 . S
C293 C291 1.356 . S
H294 C288 0.930 . S
H295 C292 0.930 . S
C296 C298 1.348 . S
C296 C299 1.356 . S
C296 O326 1.325 . S
N297 C300 1.314 . S
N297 C301 1.279 . S
C298 C296 1.348 . S
C298 C300 1.353 . S
C298 H340 0.929 . S
C299 C296 1.356 . S
C299 C301 1.358 . S
C299 H341 0.930 . S
C300 N297 1.314 . S
C300 C298 1.353 . S
C300 H342 0.930 . S
C301 N297 1.279 . S
C301 C299 1.358 . S
C301 H343 0.930 . S
C302 C303 1.348 . S
C302 C304 1.356 . S
C302 O327 1.325 . S
C303 C302 1.348 . S
C303 C305 1.353 . S
C303 H344 0.929 . S
C304 C302 1.356 . S
C304 C306 1.358 . S
C304 H345 0.930 . S
C305 C303 1.353 . S
C305 N307 1.314 . S
C305 H346 0.930 . S
C306 C304 1.358 . S
C306 N307 1.279 . S
C306 H347 0.930 . S
N307 C305 1.314 . S
N307 C306 1.279 . S
C308 C310 1.353 . S
C308 N311 1.314 . S
C308 H314 0.930 . S
C309 N311 1.279 . S
C309 C312 1.358 . S
C309 H315 0.930 . S
C310 C308 1.353 . S
C310 C313 1.348 . S
C310 H348 0.929 . S
N311 Li266 1.990 . S
N311 C308 1.314 . S
N311 C309 1.279 . S
C312 C309 1.358 . S
C312 C313 1.356 . S
C312 H349 0.930 . S
C313 C310 1.348 . S
C313 C312 1.356 . S
H314 C308 0.930 . S
H315 C309 0.930 . S
C316 N317 1.314 . S
C316 C318 1.353 . S
C316 H322 0.930 . S
N317 Li267 1.990 . S
N317 C316 1.314 . S
N317 C320 1.279 . S
C318 C316 1.353 . S
C318 C321 1.348 . S
C318 H350 0.929 . S
C319 C320 1.358 . S
C319 C321 1.356 . S
C319 H351 0.930 . S
C320 N317 1.279 . S
C320 C319 1.358 . S
C320 H323 0.930 . S
C321 C318 1.348 . S
C321 C319 1.356 . S
H322 C316 0.930 . S
H323 C320 0.930 . S
O324 Li264 1.956 . S
O324 Li265 1.970 . S
O324 Li266 1.961 . S
O324 C268 1.325 . S
O325 Li264 1.970 . S
O325 Li265 1.956 . S
O325 Li267 1.961 . S
O325 C274 1.325 . S
O326 Li264 1.961 . S
O326 Li266 1.956 . S
O326 Li267 1.970 . S
O326 C296 1.325 . S
O327 Li265 1.961 . S
O327 Li266 1.970 . S
O327 Li267 1.956 . S
O327 C302 1.325 . S
H328 C270 0.929 . S
H329 C271 0.930 . S
H330 C272 0.930 . S
H331 C273 0.930 . S
H332 C275 0.930 . S
H333 C277 0.929 . S
H334 C278 0.930 . S
H335 C279 0.930 . S
H336 C282 0.930 . S
H337 C285 0.929 . S
H338 C290 0.929 . S
H339 C291 0.930 . S
H340 C298 0.929 . S
H341 C299 0.930 . S
H342 C300 0.930 . S
H343 C301 0.930 . S
H344 C303 0.929 . S
H345 C304 0.930 . S
H346 C305 0.930 . S
H347 C306 0.930 . S
H348 C310 0.929 . S
H349 C312 0.930 . S
H350 C318 0.929 . S
H351 C319 0.930 . S
Li352 N369 1.990 . S
Li352 O412 1.956 . S
Li352 O413 1.970 . S
Li352 O414 1.961 . S
Li353 N377 1.990 . S
Li353 O412 1.970 . S
Li353 O413 1.956 . S
Li353 O415 1.961 . S
Li354 N399 1.990 . S
Li354 O412 1.961 . S
Li354 O414 1.956 . S
Li354 O415 1.970 . S
Li355 N405 1.990 . S
Li355 O413 1.961 . S
Li355 O414 1.970 . S
Li355 O415 1.956 . S
C356 C358 1.348 . S
C356 C359 1.356 . S
C356 O412 1.325 . S
N357 C360 1.314 . S
N357 C361 1.279 . S
C358 C356 1.348 . S
C358 C360 1.353 . S
C358 H416 0.929 . S
C359 C356 1.356 . S
C359 C361 1.358 . S
C359 H417 0.930 . S
C360 N357 1.314 . S
C360 C358 1.353 . S
C360 H418 0.930 . S
C361 N357 1.279 . S
C361 C359 1.358 . S
C361 H419 0.930 . S
C362 C365 1.348 . S
C362 C366 1.356 . S
C362 O413 1.325 . S
C363 N364 1.279 . S
C363 C366 1.358 . S
C363 H420 0.930 . S
N364 C363 1.279 . S
N364 C367 1.314 . S
C365 C362 1.348 . S
C365 C367 1.353 . S
C365 H421 0.929 . S
C366 C362 1.356 . S
C366 C363 1.358 . S
C366 H422 0.930 . S
C367 N364 1.314 . S
C367 C365 1.353 . S
C367 H423 0.930 . S
C368 N369 1.314 . S
C368 C373 1.353 . S
C368 H374 0.930 . S
N369 Li352 1.990 . S
N369 C368 1.314 . S
N369 C371 1.279 . S
C370 C371 1.358 . S
C370 C372 1.356 . S
C370 H424 0.930 . S
C371 N369 1.279 . S
C371 C370 1.358 . S
C371 H375 0.930 . S
C372 C370 1.356 . S
C372 C373 1.348 . S
C373 C368 1.353 . S
C373 C372 1.348 . S
C373 H425 0.929 . S
H374 C368 0.930 . S
H375 C371 0.930 . S
C376 N377 1.314 . S
C376 C378 1.353 . S
C376 H382 0.930 . S
N377 Li353 1.990 . S
N377 C376 1.314 . S
N377 C380 1.279 . S
C378 C376 1.353 . S
C378 C381 1.348 . S
C378 H426 0.929 . S
C379 C380 1.358 . S
C379 C381 1.356 . S
C379 H427 0.930 . S
C380 N377 1.279 . S
C380 C379 1.358 . S
C380 H383 0.930 . S
C381 C378 1.348 . S
C381 C379 1.356 . S
H382 C376 0.930 . S
H383 C380 0.930 . S
C384 C386 1.348 . S
C384 C387 1.356 . S
C384 O414 1.325 . S
N385 C388 1.314 . S
N385 C389 1.279 1_655 S
C386 C384 1.348 . S
C386 C388 1.353 1_455 S
C386 H428 0.929 . S
C387 C384 1.356 . S
C387 C389 1.358 . S
C387 H429 0.930 . S
C388 N385 1.314 . S
C388 C386 1.353 1_655 S
C388 H430 0.930 . S
C389 N385 1.279 1_455 S
C389 C387 1.358 . S
C389 H431 0.930 . S
C390 C391 1.348 . S
C390 C392 1.356 . S
C390 O415 1.325 . S
C391 C390 1.348 . S
C391 C393 1.353 . S
C391 H432 0.929 . S
C392 C390 1.356 . S
C392 C394 1.358 . S
C392 H433 0.930 . S
C393 C391 1.353 . S
C393 N395 1.314 . S
C393 H434 0.930 . S
C394 C392 1.358 . S
C394 N395 1.279 . S
C394 H435 0.930 . S
N395 C393 1.314 . S
N395 C394 1.279 . S
C396 C398 1.353 . S
C396 N399 1.314 . S
C396 H402 0.930 . S
C397 N399 1.279 . S
C397 C400 1.358 . S
C397 H403 0.930 . S
C398 C396 1.353 . S
C398 C401 1.348 . S
C398 H436 0.929 . S
N399 Li354 1.990 . S
N399 C396 1.314 . S
N399 C397 1.279 . S
C400 C397 1.358 . S
C400 C401 1.356 . S
C400 H437 0.930 . S
C401 C398 1.348 . S
C401 C400 1.356 . S
H402 C396 0.930 . S
H403 C397 0.930 . S
C404 N405 1.314 . S
C404 C406 1.353 . S
C404 H410 0.930 . S
N405 Li355 1.990 . S
N405 C404 1.314 . S
N405 C408 1.279 . S
C406 C404 1.353 . S
C406 C409 1.348 1_455 S
C406 H438 0.957 . S
C407 C408 1.358 . S
C407 C409 1.356 1_455 S
C407 H439 0.930 . S
C408 N405 1.279 . S
C408 C407 1.358 . S
C408 H411 0.930 . S
C409 C406 1.348 1_655 S
C409 C407 1.356 1_655 S
H410 C404 0.930 . S
H411 C408 0.930 . S
O412 Li352 1.956 . S
O412 Li353 1.970 . S
O412 Li354 1.961 . S
O412 C356 1.325 . S
O413 Li352 1.970 . S
O413 Li353 1.956 . S
O413 Li355 1.961 . S
O413 C362 1.325 . S
O414 Li352 1.961 . S
O414 Li354 1.956 . S
O414 Li355 1.970 . S
O414 C384 1.325 . S
O415 Li353 1.961 . S
O415 Li354 1.970 . S
O415 Li355 1.956 . S
O415 C390 1.325 . S
H416 C358 0.929 . S
H417 C359 0.930 . S
H418 C360 0.930 . S
H419 C361 0.930 . S
H420 C363 0.930 . S
H421 C365 0.929 . S
H422 C366 0.930 . S
H423 C367 0.930 . S
H424 C370 0.930 . S
H425 C373 0.929 . S
H426 C378 0.929 . S
H427 C379 0.930 . S
H428 C386 0.929 . S
H429 C387 0.930 . S
H430 C388 0.930 . S
H431 C389 0.930 . S
H432 C391 0.929 . S
H433 C392 0.930 . S
H434 C393 0.930 . S
H435 C394 0.930 . S
H436 C398 0.929 . S
H437 C400 0.930 . S
H438 C406 0.957 . S
H439 C407 0.930 . S
Li440 N457 1.990 . S
Li440 O500 1.956 . S
Li440 O501 1.970 . S
Li440 O502 1.961 . S
Li441 N465 1.990 . S
Li441 O500 1.970 . S
Li441 O501 1.956 . S
Li441 O503 1.961 . S
Li442 N487 1.990 . S
Li442 O500 1.961 . S
Li442 O502 1.956 . S
Li442 O503 1.970 . S
Li443 N493 1.990 . S
Li443 O501 1.961 . S
Li443 O502 1.970 . S
Li443 O503 1.956 . S
C444 C446 1.348 . S
C444 C447 1.356 . S
C444 O500 1.325 . S
N445 C448 1.314 . S
N445 C449 1.279 . S
C446 C444 1.348 . S
C446 C448 1.353 . S
C446 H504 0.929 . S
C447 C444 1.356 . S
C447 C449 1.358 . S
C447 H505 0.930 . S
C448 N445 1.314 . S
C448 C446 1.353 . S
C448 H506 0.930 . S
C449 N445 1.279 . S
C449 C447 1.358 . S
C449 H507 0.930 . S
C450 C453 1.348 . S
C450 C454 1.356 . S
C450 O501 1.325 . S
C451 N452 1.279 . S
C451 C454 1.358 . S
C451 H508 0.930 . S
N452 C451 1.279 . S
N452 C455 1.314 . S
C453 C450 1.348 . S
C453 C455 1.353 . S
C453 H509 0.929 . S
C454 C450 1.356 . S
C454 C451 1.358 . S
C454 H510 0.930 . S
C455 N452 1.314 . S
C455 C453 1.353 . S
C455 H511 0.930 . S
C456 N457 1.314 . S
C456 C461 1.353 . S
C456 H462 0.930 . S
N457 Li440 1.990 . S
N457 C456 1.314 . S
N457 C459 1.279 . S
C458 C459 1.358 . S
C458 C460 1.356 . S
C458 H512 0.930 . S
C459 N457 1.279 . S
C459 C458 1.358 . S
C459 H463 0.930 . S
C460 C458 1.356 . S
C460 C461 1.348 . S
C461 C456 1.353 . S
C461 C460 1.348 . S
C461 H513 0.929 . S
H462 C456 0.930 . S
H463 C459 0.930 . S
C464 N465 1.314 . S
C464 C466 1.353 . S
C464 H470 0.930 . S
N465 Li441 1.990 . S
N465 C464 1.314 . S
N465 C468 1.279 . S
C466 C464 1.353 . S
C466 C469 1.348 . S
C466 H514 0.929 . S
C467 C468 1.358 . S
C467 C469 1.356 . S
C467 H515 0.930 . S
C468 N465 1.279 . S
C468 C467 1.358 . S
C468 H471 0.930 . S
C469 C466 1.348 . S
C469 C467 1.356 . S
H470 C464 0.930 . S
H471 C468 0.930 . S
C472 C474 1.348 . S
C472 C475 1.356 . S
C472 O502 1.325 . S
N473 C476 1.314 . S
N473 C477 1.279 . S
C474 C472 1.348 . S
C474 C476 1.353 . S
C474 H516 0.929 . S
C475 C472 1.356 . S
C475 C477 1.358 . S
C475 H517 0.930 . S
C476 N473 1.314 . S
C476 C474 1.353 . S
C476 H518 0.930 . S
C477 N473 1.279 . S
C477 C475 1.358 . S
C477 H519 0.930 . S
C478 C479 1.348 . S
C478 C480 1.356 . S
C478 O503 1.325 . S
C479 C478 1.348 . S
C479 C481 1.353 . S
C479 H520 0.929 . S
C480 C478 1.356 . S
C480 C482 1.358 . S
C480 H521 0.930 . S
C481 C479 1.353 . S
C481 N483 1.314 . S
C481 H522 0.930 . S
C482 C480 1.358 . S
C482 N483 1.279 . S
C482 H523 0.930 . S
N483 C481 1.314 . S
N483 C482 1.279 . S
C484 C486 1.353 . S
C484 N487 1.314 . S
C484 H490 0.930 . S
C485 N487 1.279 . S
C485 C488 1.358 . S
C485 H491 0.930 . S
C486 C484 1.353 . S
C486 C489 1.348 . S
C486 H524 0.929 . S
N487 Li442 1.990 . S
N487 C484 1.314 . S
N487 C485 1.279 . S
C488 C485 1.358 . S
C488 C489 1.356 . S
C488 H525 0.930 . S
C489 C486 1.348 . S
C489 C488 1.356 . S
H490 C484 0.930 . S
H491 C485 0.930 . S
C492 N493 1.314 . S
C492 C494 1.353 . S
C492 H498 0.930 . S
N493 Li443 1.990 . S
N493 C492 1.314 . S
N493 C496 1.279 . S
C494 C492 1.353 . S
C494 C497 1.348 . S
C494 H526 0.929 . S
C495 C496 1.358 . S
C495 C497 1.356 . S
C495 H527 0.930 . S
C496 N493 1.279 . S
C496 C495 1.358 . S
C496 H499 0.930 . S
C497 C494 1.348 . S
C497 C495 1.356 . S
H498 C492 0.930 . S
H499 C496 0.930 . S
O500 Li440 1.956 . S
O500 Li441 1.970 . S
O500 Li442 1.961 . S
O500 C444 1.325 . S
O501 Li440 1.970 . S
O501 Li441 1.956 . S
O501 Li443 1.961 . S
O501 C450 1.325 . S
O502 Li440 1.961 . S
O502 Li442 1.956 . S
O502 Li443 1.970 . S
O502 C472 1.325 . S
O503 Li441 1.961 . S
O503 Li442 1.970 . S
O503 Li443 1.956 . S
O503 C478 1.325 . S
H504 C446 0.929 . S
H505 C447 0.930 . S
H506 C448 0.930 . S
H507 C449 0.930 . S
H508 C451 0.930 . S
H509 C453 0.929 . S
H510 C454 0.930 . S
H511 C455 0.930 . S
H512 C458 0.930 . S
H513 C461 0.929 . S
H514 C466 0.929 . S
H515 C467 0.930 . S
H516 C474 0.929 . S
H517 C475 0.930 . S
H518 C476 0.930 . S
H519 C477 0.930 . S
H520 C479 0.929 . S
H521 C480 0.930 . S
H522 C481 0.930 . S
H523 C482 0.930 . S
H524 C486 0.929 . S
H525 C488 0.930 . S
H526 C494 0.929 . S
H527 C495 0.930 . S
Li528 N545 1.990 . S
Li528 O588 1.956 . S
Li528 O589 1.970 . S
Li528 O590 1.961 . S
Li529 N553 1.990 . S
Li529 O588 1.970 . S
Li529 O589 1.956 . S
Li529 O591 1.961 . S
Li530 N575 1.990 . S
Li530 O588 1.961 . S
Li530 O590 1.956 . S
Li530 O591 1.970 . S
Li531 N581 1.990 . S
Li531 O589 1.961 . S
Li531 O590 1.970 . S
Li531 O591 1.956 . S
C532 C534 1.348 . S
C532 C535 1.356 . S
C532 O588 1.325 . S
N533 C536 1.314 . S
N533 C537 1.279 . S
C534 C532 1.348 . S
C534 C536 1.353 . S
C534 H592 0.929 . S
C535 C532 1.356 . S
C535 C537 1.358 . S
C535 H593 0.930 . S
C536 N533 1.314 . S
C536 C534 1.353 . S
C536 H594 0.930 . S
C537 N533 1.279 . S
C537 C535 1.358 . S
C537 H595 0.930 . S
C538 C541 1.348 . S
C538 C542 1.356 . S
C538 O589 1.325 . S
C539 N540 1.279 . S
C539 C542 1.358 . S
C539 H596 0.930 . S
N540 C539 1.279 . S
N540 C543 1.314 . S
C541 C538 1.348 . S
C541 C543 1.353 . S
C541 H597 0.929 . S
C542 C538 1.356 . S
C542 C539 1.358 . S
C542 H598 0.930 . S
C543 N540 1.314 . S
C543 C541 1.353 . S
C543 H599 0.930 . S
C544 N545 1.314 . S
C544 C549 1.353 . S
C544 H550 0.930 . S
N545 Li528 1.990 . S
N545 C544 1.314 . S
N545 C547 1.279 . S
C546 C547 1.358 . S
C546 C548 1.356 . S
C546 H600 0.930 . S
C547 N545 1.279 . S
C547 C546 1.358 . S
C547 H551 0.930 . S
C548 C546 1.356 . S
C548 C549 1.348 . S
C549 C544 1.353 . S
C549 C548 1.348 . S
C549 H601 0.929 . S
H550 C544 0.930 . S
H551 C547 0.930 . S
C552 N553 1.314 . S
C552 C554 1.353 . S
C552 H558 0.930 . S
N553 Li529 1.990 . S
N553 C552 1.314 . S
N553 C556 1.279 . S
C554 C552 1.353 . S
C554 C557 1.348 . S
C554 H602 0.929 . S
C555 C556 1.358 . S
C555 C557 1.356 . S
C555 H603 0.930 . S
C556 N553 1.279 . S
C556 C555 1.358 . S
C556 H559 0.930 . S
C557 C554 1.348 . S
C557 C555 1.356 . S
H558 C552 0.930 . S
H559 C556 0.930 . S
C560 C562 1.348 . S
C560 C563 1.356 . S
C560 O590 1.325 . S
N561 C564 1.314 . S
N561 C565 1.279 . S
C562 C560 1.348 . S
C562 C564 1.353 . S
C562 H604 0.929 . S
C563 C560 1.356 . S
C563 C565 1.358 . S
C563 H605 0.930 . S
C564 N561 1.314 . S
C564 C562 1.353 . S
C564 H606 0.930 . S
C565 N561 1.279 . S
C565 C563 1.358 . S
C565 H607 0.930 . S
C566 C567 1.348 . S
C566 C568 1.356 . S
C566 O591 1.325 . S
C567 C566 1.348 . S
C567 C569 1.353 . S
C567 H608 0.929 . S
C568 C566 1.356 . S
C568 C570 1.358 . S
C568 H609 0.930 . S
C569 C567 1.353 . S
C569 N571 1.314 . S
C569 H610 0.930 . S
C570 C568 1.358 . S
C570 N571 1.279 . S
C570 H611 0.930 . S
N571 C569 1.314 . S
N571 C570 1.279 . S
C572 C574 1.353 . S
C572 N575 1.314 . S
C572 H578 0.930 . S
C573 N575 1.279 . S
C573 C576 1.358 . S
C573 H579 0.930 . S
C574 C572 1.353 . S
C574 C577 1.348 . S
C574 H612 0.929 . S
N575 Li530 1.990 . S
N575 C572 1.314 . S
N575 C573 1.279 . S
C576 C573 1.358 . S
C576 C577 1.356 . S
C576 H613 0.930 . S
C577 C574 1.348 . S
C577 C576 1.356 . S
H578 C572 0.930 . S
H579 C573 0.930 . S
C580 N581 1.314 . S
C580 C582 1.353 . S
C580 H586 0.930 . S
N581 Li531 1.990 . S
N581 C580 1.314 . S
N581 C584 1.279 . S
C582 C580 1.353 . S
C582 C585 1.348 . S
C582 H614 0.929 . S
C583 C584 1.358 . S
C583 C585 1.356 . S
C583 H615 0.930 . S
C584 N581 1.279 . S
C584 C583 1.358 . S
C584 H587 0.930 . S
C585 C582 1.348 . S
C585 C583 1.356 . S
H586 C580 0.930 . S
H587 C584 0.930 . S
O588 Li528 1.956 . S
O588 Li529 1.970 . S
O588 Li530 1.961 . S
O588 C532 1.325 . S
O589 Li528 1.970 . S
O589 Li529 1.956 . S
O589 Li531 1.961 . S
O589 C538 1.325 . S
O590 Li528 1.961 . S
O590 Li530 1.956 . S
O590 Li531 1.970 . S
O590 C560 1.325 . S
O591 Li529 1.961 . S
O591 Li530 1.970 . S
O591 Li531 1.956 . S
O591 C566 1.325 . S
H592 C534 0.929 . S
H593 C535 0.930 . S
H594 C536 0.930 . S
H595 C537 0.930 . S
H596 C539 0.930 . S
H597 C541 0.929 . S
H598 C542 0.930 . S
H599 C543 0.930 . S
H600 C546 0.930 . S
H601 C549 0.929 . S
H602 C554 0.929 . S
H603 C555 0.930 . S
H604 C562 0.929 . S
H605 C563 0.930 . S
H606 C564 0.930 . S
H607 C565 0.930 . S
H608 C567 0.929 . S
H609 C568 0.930 . S
H610 C569 0.930 . S
H611 C570 0.930 . S
H612 C574 0.929 . S
H613 C576 0.930 . S
H614 C582 0.929 . S
H615 C583 0.930 . S
Li616 N633 1.990 . S
Li616 O676 1.956 1_455 S
Li616 O677 1.970 . S
Li616 O678 1.961 . S
Li617 N641 1.990 . S
Li617 O676 1.970 . S
Li617 O677 1.956 1_655 S
Li617 O679 1.961 1_655 S
Li618 N663 1.990 . S
Li618 O676 1.961 1_455 S
Li618 O678 1.956 . S
Li618 O679 1.970 . S
Li619 N669 1.990 . S
Li619 O677 1.961 . S
Li619 O678 1.970 . S
Li619 O679 1.956 . S
C620 C622 1.348 . S
C620 C623 1.356 . S
C620 O676 1.325 . S
N621 C624 1.314 . S
N621 C625 1.279 . S
C622 C620 1.348 . S
C622 C624 1.353 . S
C622 H680 0.929 . S
C623 C620 1.356 . S
C623 C625 1.358 . S
C623 H681 0.930 . S
C624 N621 1.314 . S
C624 C622 1.353 . S
C624 H682 0.930 . S
C625 N621 1.279 . S
C625 C623 1.358 . S
C625 H683 0.930 . S
C626 C629 1.348 . S
C626 C630 1.356 . S
C626 O677 1.325 . S
C627 N628 1.279 . S
C627 C630 1.358 . S
C627 H684 0.930 . S
N628 C627 1.279 . S
N628 C631 1.314 . S
C629 C626 1.348 . S
C629 C631 1.353 . S
C629 H685 0.929 . S
C630 C626 1.356 . S
C630 C627 1.358 . S
C630 H686 0.930 . S
C631 N628 1.314 . S
C631 C629 1.353 . S
C631 H687 0.930 . S
C632 N633 1.314 . S
C632 C637 1.353 . S
C632 H638 0.930 . S
N633 Li616 1.990 . S
N633 C632 1.314 . S
N633 C635 1.279 . S
C634 C635 1.358 . S
C634 C636 1.356 . S
C634 H688 0.930 . S
C635 N633 1.279 . S
C635 C634 1.358 . S
C635 H639 0.930 1_455 S
C636 C634 1.356 . S
C636 C637 1.348 . S
C637 C632 1.353 . S
C637 C636 1.348 . S
C637 H689 0.929 . S
H638 C632 0.930 . S
H639 C635 0.930 1_655 S
C640 N641 1.314 . S
C640 C642 1.353 . S
C640 H646 0.930 . S
N641 Li617 1.990 . S
N641 C640 1.314 . S
N641 C644 1.279 . S
C642 C640 1.353 . S
C642 C645 1.348 . S
C642 H690 0.929 . S
C643 C644 1.358 . S
C643 C645 1.356 . S
C643 H691 0.930 . S
C644 N641 1.279 . S
C644 C643 1.358 . S
C644 H647 0.930 . S
C645 C642 1.348 . S
C645 C643 1.356 . S
H646 C640 0.930 . S
H647 C644 0.930 . S
C648 C650 1.348 . S
C648 C651 1.356 . S
C648 O678 1.325 . S
N649 C652 1.314 . S
N649 C653 1.279 . S
C650 C648 1.348 . S
C650 C652 1.353 . S
C650 H692 0.929 . S
C651 C648 1.356 . S
C651 C653 1.358 . S
C651 H693 0.930 . S
C652 N649 1.314 . S
C652 C650 1.353 . S
C652 H694 0.930 . S
C653 N649 1.279 . S
C653 C651 1.358 . S
C653 H695 0.930 . S
C654 C655 1.348 . S
C654 C656 1.356 . S
C654 O679 1.325 . S
C655 C654 1.348 . S
C655 C657 1.353 . S
C655 H696 0.929 . S
C656 C654 1.356 . S
C656 C658 1.358 . S
C656 H697 0.930 . S
C657 C655 1.353 . S
C657 N659 1.314 . S
C657 H698 0.930 . S
C658 C656 1.358 . S
C658 N659 1.279 . S
C658 H699 0.930 1_455 S
N659 C657 1.314 . S
N659 C658 1.279 . S
C660 C662 1.353 . S
C660 N663 1.314 1_655 S
C660 H666 0.930 . S
C661 N663 1.279 . S
C661 C664 1.358 . S
C661 H667 0.930 . S
C662 C660 1.353 . S
C662 C665 1.348 1_655 S
C662 H700 0.929 . S
N663 Li618 1.990 . S
N663 C660 1.314 1_455 S
N663 C661 1.279 . S
C664 C661 1.358 . S
C664 C665 1.356 . S
C664 H701 0.930 . S
C665 C662 1.348 1_455 S
C665 C664 1.356 . S
H666 C660 0.930 . S
H667 C661 0.930 . S
C668 N669 1.314 . S
C668 C670 1.353 . S
C668 H674 0.930 . S
N669 Li619 1.990 . S
N669 C668 1.314 . S
N669 C672 1.279 . S
C670 C668 1.353 . S
C670 C673 1.348 . S
C670 H702 0.929 . S
C671 C672 1.358 . S
C671 C673 1.356 . S
C671 H703 0.930 . S
C672 N669 1.279 . S
C672 C671 1.358 . S
C672 H675 0.930 . S
C673 C670 1.348 . S
C673 C671 1.356 . S
H674 C668 0.930 . S
H675 C672 0.930 . S
O676 Li616 1.956 1_655 S
O676 Li617 1.970 . S
O676 Li618 1.961 1_655 S
O676 C620 1.325 . S
O677 Li616 1.970 . S
O677 Li617 1.956 1_455 S
O677 Li619 1.961 . S
O677 C626 1.325 . S
O678 Li616 1.961 . S
O678 Li618 1.956 . S
O678 Li619 1.970 . S
O678 C648 1.325 . S
O679 Li617 1.961 1_455 S
O679 Li618 1.970 . S
O679 Li619 1.956 . S
O679 C654 1.325 . S
H680 C622 0.929 . S
H681 C623 0.930 . S
H682 C624 0.930 . S
H683 C625 0.930 . S
H684 C627 0.930 . S
H685 C629 0.929 . S
H686 C630 0.930 . S
H687 C631 0.930 . S
H688 C634 0.930 . S
H689 C637 0.929 . S
H690 C642 0.929 . S
H691 C643 0.930 . S
H692 C650 0.929 . S
H693 C651 0.930 . S
H694 C652 0.930 . S
H695 C653 0.930 . S
H696 C655 0.929 . S
H697 C656 0.930 . S
H698 C657 0.930 . S
H699 C658 0.930 1_655 S
H700 C662 0.929 . S
H701 C664 0.930 . S
H702 C670 0.929 . S
H703 C671 0.930 . S
Li704 N721 1.990 . S
Li704 O764 1.956 1_545 S
Li704 O765 1.970 . S
Li704 O766 1.961 . S
Li705 N729 1.990 . S
Li705 O764 1.970 . S
Li705 O765 1.956 1_565 S
Li705 O767 1.961 1_565 S
Li706 N751 1.990 . S
Li706 O764 1.961 1_545 S
Li706 O766 1.956 . S
Li706 O767 1.970 . S
Li707 N757 1.990 . S
Li707 O765 1.961 . S
Li707 O766 1.970 . S
Li707 O767 1.956 . S
C708 C710 1.348 . S
C708 C711 1.356 . S
C708 O764 1.325 . S
N709 C712 1.314 . S
N709 C713 1.279 . S
C710 C708 1.348 . S
C710 C712 1.353 . S
C710 H768 0.929 . S
C711 C708 1.356 . S
C711 C713 1.358 . S
C711 H769 0.930 . S
C712 N709 1.314 . S
C712 C710 1.353 . S
C712 H770 0.930 . S
C713 N709 1.279 . S
C713 C711 1.358 . S
C713 H771 0.930 . S
C714 C717 1.348 . S
C714 C718 1.356 . S
C714 O765 1.325 . S
C715 N716 1.279 . S
C715 C718 1.358 . S
C715 H772 0.930 . S
N716 C715 1.279 . S
N716 C719 1.314 . S
C717 C714 1.348 . S
C717 C719 1.353 . S
C717 H773 0.946 . S
C718 C714 1.356 . S
C718 C715 1.358 . S
C718 H774 0.930 . S
C719 N716 1.314 . S
C719 C717 1.353 . S
C719 H775 0.937 . S
C720 N721 1.314 . S
C720 C725 1.353 . S
C720 H726 0.930 . S
N721 Li704 1.990 . S
N721 C720 1.314 . S
N721 C723 1.279 . S
C722 C723 1.358 . S
C722 C724 1.356 . S
C722 H776 0.930 1_545 S
C723 N721 1.279 . S
C723 C722 1.358 . S
C723 H727 0.930 1_545 S
C724 C722 1.356 . S
C724 C725 1.348 . S
C725 C720 1.353 . S
C725 C724 1.348 . S
C725 H777 0.929 . S
H726 C720 0.930 . S
H727 C723 0.930 1_565 S
C728 N729 1.314 . S
C728 C730 1.353 . S
C728 H734 0.930 . S
N729 Li705 1.990 . S
N729 C728 1.314 . S
N729 C732 1.279 . S
C730 C728 1.353 . S
C730 C733 1.348 . S
C730 H778 0.929 . S
C731 C732 1.358 . S
C731 C733 1.356 . S
C731 H779 0.930 . S
C732 N729 1.279 . S
C732 C731 1.358 . S
C732 H735 0.930 . S
C733 C730 1.348 . S
C733 C731 1.356 . S
H734 C728 0.930 . S
H735 C732 0.930 . S
C736 C738 1.348 . S
C736 C739 1.356 . S
C736 O766 1.325 . S
N737 C740 1.314 . S
N737 C741 1.279 . S
C738 C736 1.348 . S
C738 C740 1.353 . S
C738 H780 0.929 . S
C739 C736 1.356 . S
C739 C741 1.358 . S
C739 H781 0.930 . S
C740 N737 1.314 . S
C740 C738 1.353 . S
C740 H782 0.930 . S
C741 N737 1.279 . S
C741 C739 1.358 . S
C741 H783 0.930 . S
C742 C743 1.348 1_565 S
C742 C744 1.356 . S
C742 O767 1.325 1_565 S
C743 C742 1.348 1_545 S
C743 C745 1.353 . S
C743 H784 0.929 . S
C744 C742 1.356 . S
C744 C746 1.358 . S
C744 H785 0.930 . S
C745 C743 1.353 . S
C745 N747 1.314 1_545 S
C745 H786 0.930 . S
C746 C744 1.358 . S
C746 N747 1.279 . S
C746 H787 0.930 . S
N747 C745 1.314 1_565 S
N747 C746 1.279 . S
C748 C750 1.353 . S
C748 N751 1.314 1_565 S
C748 H754 0.930 . S
C749 N751 1.279 . S
C749 C752 1.358 . S
C749 H755 0.930 . S
C750 C748 1.353 . S
C750 C753 1.348 1_565 S
C750 H788 0.929 . S
N751 Li706 1.990 . S
N751 C748 1.314 1_545 S
N751 C749 1.279 . S
C752 C749 1.358 . S
C752 C753 1.356 . S
C752 H789 0.930 . S
C753 C750 1.348 1_545 S
C753 C752 1.356 . S
H754 C748 0.930 . S
H755 C749 0.930 . S
C756 N757 1.314 . S
C756 C758 1.353 . S
C756 H762 0.930 . S
N757 Li707 1.990 . S
N757 C756 1.314 . S
N757 C760 1.279 . S
C758 C756 1.353 . S
C758 C761 1.348 . S
C758 H790 0.929 . S
C759 C760 1.358 . S
C759 C761 1.356 . S
C759 H791 0.930 . S
C760 N757 1.279 . S
C760 C759 1.358 . S
C760 H763 0.930 . S
C761 C758 1.348 . S
C761 C759 1.356 . S
H762 C756 0.930 . S
H763 C760 0.930 . S
O764 Li704 1.956 1_565 S
O764 Li705 1.970 . S
O764 Li706 1.961 1_565 S
O764 C708 1.325 . S
O765 Li704 1.970 . S
O765 Li705 1.956 1_545 S
O765 Li707 1.961 . S
O765 C714 1.325 . S
O766 Li704 1.961 . S
O766 Li706 1.956 . S
O766 Li707 1.970 . S
O766 C736 1.325 . S
O767 Li705 1.961 1_545 S
O767 Li706 1.970 . S
O767 Li707 1.956 . S
O767 C742 1.325 1_545 S
H768 C710 0.929 . S
H769 C711 0.930 . S
H770 C712 0.930 . S
H771 C713 0.930 . S
H772 C715 0.930 . S
H773 C717 0.946 . S
H774 C718 0.930 . S
H775 C719 0.937 . S
H776 C722 0.930 1_565 S
H777 C725 0.929 . S
H778 C730 0.929 . S
H779 C731 0.930 . S
H780 C738 0.929 . S
H781 C739 0.930 . S
H782 C740 0.930 . S
H783 C741 0.930 . S
H784 C743 0.929 . S
H785 C744 0.930 . S
H786 C745 0.930 . S
H787 C746 0.930 . S
H788 C750 0.929 . S
H789 C752 0.930 . S
H790 C758 0.929 . S
H791 C759 0.930 . S
Li792 N809 1.990 . S
Li792 O852 1.956 . S
Li792 O853 1.970 . S
Li792 O854 1.961 . S
Li793 N817 1.990 . S
Li793 O852 1.970 . S
Li793 O853 1.956 . S
Li793 O855 1.961 . S
Li794 N839 1.990 . S
Li794 O852 1.961 . S
Li794 O854 1.956 . S
Li794 O855 1.970 . S
Li795 N845 1.990 . S
Li795 O853 1.961 . S
Li795 O854 1.970 . S
Li795 O855 1.956 . S
C796 C798 1.348 . S
C796 C799 1.356 . S
C796 O852 1.325 . S
N797 C800 1.314 . S
N797 C801 1.279 . S
C798 C796 1.348 . S
C798 C800 1.353 . S
C798 H856 0.929 . S
C799 C796 1.356 . S
C799 C801 1.358 . S
C799 H857 0.930 . S
C800 N797 1.314 . S
C800 C798 1.353 . S
C800 H858 0.930 . S
C801 N797 1.279 . S
C801 C799 1.358 . S
C801 H859 0.930 . S
C802 C805 1.348 . S
C802 C806 1.356 . S
C802 O853 1.325 . S
C803 N804 1.279 . S
C803 C806 1.358 . S
C803 H860 0.930 . S
N804 C803 1.279 . S
N804 C807 1.314 . S
C805 C802 1.348 . S
C805 C807 1.353 . S
C805 H861 0.929 . S
C806 C802 1.356 . S
C806 C803 1.358 . S
C806 H862 0.930 . S
C807 N804 1.314 . S
C807 C805 1.353 . S
C807 H863 0.930 . S
C808 N809 1.314 . S
C808 C813 1.353 . S
C808 H814 0.930 . S
N809 Li792 1.990 . S
N809 C808 1.314 . S
N809 C811 1.279 . S
C810 C811 1.358 . S
C810 C812 1.356 . S
C810 H864 0.930 . S
C811 N809 1.279 . S
C811 C810 1.358 . S
C811 H815 0.930 . S
C812 C810 1.356 . S
C812 C813 1.348 . S
C813 C808 1.353 . S
C813 C812 1.348 . S
C813 H865 0.929 . S
H814 C808 0.930 . S
H815 C811 0.930 . S
C816 N817 1.314 . S
C816 C818 1.353 . S
C816 H822 0.930 . S
N817 Li793 1.990 . S
N817 C816 1.314 . S
N817 C820 1.279 . S
C818 C816 1.353 . S
C818 C821 1.348 . S
C818 H866 0.929 . S
C819 C820 1.358 . S
C819 C821 1.356 . S
C819 H867 0.930 . S
C820 N817 1.279 . S
C820 C819 1.358 . S
C820 H823 0.930 . S
C821 C818 1.348 . S
C821 C819 1.356 . S
H822 C816 0.930 . S
H823 C820 0.930 . S
C824 C826 1.348 . S
C824 C827 1.356 . S
C824 O854 1.325 . S
N825 C828 1.314 . S
N825 C829 1.279 . S
C826 C824 1.348 . S
C826 C828 1.353 . S
C826 H868 0.929 . S
C827 C824 1.356 . S
C827 C829 1.358 . S
C827 H869 0.930 . S
C828 N825 1.314 . S
C828 C826 1.353 . S
C828 H870 0.930 . S
C829 N825 1.279 . S
C829 C827 1.358 . S
C829 H871 0.930 . S
C830 C831 1.348 . S
C830 C832 1.356 . S
C830 O855 1.325 . S
C831 C830 1.348 . S
C831 C833 1.353 . S
C831 H872 0.929 . S
C832 C830 1.356 . S
C832 C834 1.358 . S
C832 H873 0.930 . S
C833 C831 1.353 . S
C833 N835 1.314 . S
C833 H874 0.930 . S
C834 C832 1.358 . S
C834 N835 1.279 . S
C834 H875 0.930 . S
N835 C833 1.314 . S
N835 C834 1.279 . S
C836 C838 1.353 . S
C836 N839 1.314 . S
C836 H842 0.930 . S
C837 N839 1.279 . S
C837 C840 1.358 . S
C837 H843 0.930 . S
C838 C836 1.353 . S
C838 C841 1.348 . S
C838 H876 0.929 . S
N839 Li794 1.990 . S
N839 C836 1.314 . S
N839 C837 1.279 . S
C840 C837 1.358 . S
C840 C841 1.356 . S
C840 H877 0.930 . S
C841 C838 1.348 . S
C841 C840 1.356 . S
H842 C836 0.930 . S
H843 C837 0.930 . S
C844 N845 1.314 . S
C844 C846 1.353 . S
C844 H850 0.930 . S
N845 Li795 1.990 . S
N845 C844 1.314 . S
N845 C848 1.279 . S
C846 C844 1.353 . S
C846 C849 1.348 . S
C846 H878 0.929 . S
C847 C848 1.358 . S
C847 C849 1.356 . S
C847 H879 0.930 . S
C848 N845 1.279 . S
C848 C847 1.358 . S
C848 H851 0.930 . S
C849 C846 1.348 . S
C849 C847 1.356 . S
H850 C844 0.930 . S
H851 C848 0.930 . S
O852 Li792 1.956 . S
O852 Li793 1.970 . S
O852 Li794 1.961 . S
O852 C796 1.325 . S
O853 Li792 1.970 . S
O853 Li793 1.956 . S
O853 Li795 1.961 . S
O853 C802 1.325 . S
O854 Li792 1.961 . S
O854 Li794 1.956 . S
O854 Li795 1.970 . S
O854 C824 1.325 . S
O855 Li793 1.961 . S
O855 Li794 1.970 . S
O855 Li795 1.956 . S
O855 C830 1.325 . S
H856 C798 0.929 . S
H857 C799 0.930 . S
H858 C800 0.930 . S
H859 C801 0.930 . S
H860 C803 0.930 . S
H861 C805 0.929 . S
H862 C806 0.930 . S
H863 C807 0.930 . S
H864 C810 0.930 . S
H865 C813 0.929 . S
H866 C818 0.929 . S
H867 C819 0.930 . S
H868 C826 0.929 . S
H869 C827 0.930 . S
H870 C828 0.930 . S
H871 C829 0.930 . S
H872 C831 0.929 . S
H873 C832 0.930 . S
H874 C833 0.930 . S
H875 C834 0.930 . S
H876 C838 0.929 . S
H877 C840 0.930 . S
H878 C846 0.929 . S
H879 C847 0.930 . S
Li880 N897 1.990 . S
Li880 O940 1.956 . S
Li880 O941 1.970 . S
Li880 O942 1.994 . S
Li881 N905 1.990 1_545 S
Li881 O940 1.969 . S
Li881 O941 1.961 . S
Li881 O943 1.956 1_545 S
Li882 N927 1.990 . S
Li882 O940 1.961 1_565 S
Li882 O942 1.914 1_565 S
Li882 O943 1.970 . S
Li883 N933 1.990 . S
Li883 O941 1.961 1_565 S
Li883 O942 1.974 1_565 S
Li883 O943 1.956 . S
C884 C886 1.348 . S
C884 C887 1.356 . S
C884 O940 1.325 . S
N885 C888 1.314 . S
N885 C889 1.279 . S
C886 C884 1.348 . S
C886 C888 1.353 . S
C886 H944 0.929 . S
C887 C884 1.356 . S
C887 C889 1.358 . S
C887 H945 0.930 . S
C888 N885 1.314 . S
C888 C886 1.353 . S
C888 H946 0.930 . S
C889 N885 1.279 . S
C889 C887 1.358 . S
C889 H947 0.930 . S
C890 C893 1.348 . S
C890 C894 1.356 . S
C890 O941 1.325 . S
C891 N892 1.279 . S
C891 C894 1.358 . S
C891 H948 0.930 . S
N892 C891 1.279 . S
N892 C895 1.314 . S
C893 C890 1.348 . S
C893 C895 1.353 . S
C893 H949 0.929 . S
C894 C890 1.356 . S
C894 C891 1.358 . S
C894 H950 0.930 . S
C895 N892 1.314 . S
C895 C893 1.353 . S
C895 H951 0.930 . S
C896 N897 1.314 . S
C896 C901 1.353 . S
C896 H902 0.930 . S
N897 Li880 1.990 . S
N897 C896 1.314 . S
N897 C899 1.279 . S
C898 C899 1.358 . S
C898 C900 1.356 . S
C898 H952 0.930 . S
C899 N897 1.279 . S
C899 C898 1.358 . S
C899 H903 0.930 . S
C900 C898 1.356 . S
C900 C901 1.348 . S
C901 C896 1.353 . S
C901 C900 1.348 . S
C901 H953 0.929 . S
H902 C896 0.930 . S
H903 C899 0.930 . S
C904 N905 1.318 . S
C904 C906 1.353 . S
C904 H910 0.930 . S
N905 Li881 1.990 1_565 S
N905 C904 1.318 . S
N905 C908 1.276 1_565 S
C906 C904 1.353 . S
C906 C909 1.348 . S
C906 H954 0.929 . S
C907 C908 1.358 . S
C907 C909 1.356 1_545 S
C907 H955 0.930 . S
C908 N905 1.276 1_545 S
C908 C907 1.358 . S
C908 H911 0.930 . S
C909 C906 1.348 . S
C909 C907 1.356 1_565 S
H910 C904 0.930 . S
H911 C908 0.930 . S
C912 C914 1.340 1_545 S
C912 C915 1.361 . S
C912 O942 1.325 . S
N913 C916 1.314 1_545 S
N913 C917 1.280 . S
C914 C912 1.340 1_565 S
C914 C916 1.353 . S
C914 H956 0.929 . S
C915 C912 1.361 . S
C915 C917 1.358 . S
C915 H957 0.930 . S
C916 N913 1.314 1_565 S
C916 C914 1.353 . S
C916 H958 0.930 . S
C917 N913 1.280 . S
C917 C915 1.358 . S
C917 H959 0.930 . S
C918 C919 1.348 . S
C918 C920 1.356 . S
C918 O943 1.325 . S
C919 C918 1.348 . S
C919 C921 1.353 . S
C919 H960 0.929 . S
C920 C918 1.356 . S
C920 C922 1.358 . S
C920 H961 0.930 . S
C921 C919 1.353 . S
C921 N923 1.314 . S
C921 H962 0.930 . S
C922 C920 1.358 . S
C922 N923 1.279 . S
C922 H963 0.930 . S
N923 C921 1.314 . S
N923 C922 1.279 . S
C924 C926 1.353 . S
C924 N927 1.314 . S
C924 H930 0.930 . S
C925 N927 1.279 . S
C925 C928 1.358 . S
C925 H931 0.930 . S
C926 C924 1.353 . S
C926 C929 1.348 . S
C926 H964 0.929 . S
N927 Li882 1.990 . S
N927 C924 1.314 . S
N927 C925 1.279 . S
C928 C925 1.358 . S
C928 C929 1.356 . S
C928 H965 0.930 . S
C929 C926 1.348 . S
C929 C928 1.356 . S
H930 C924 0.930 . S
H931 C925 0.930 . S
C932 N933 1.314 1_545 S
C932 C934 1.353 . S
C932 H938 0.930 . S
N933 Li883 1.990 . S
N933 C932 1.314 1_565 S
N933 C936 1.279 . S
C934 C932 1.353 . S
C934 C937 1.348 1_545 S
C934 H966 0.929 . S
C935 C936 1.358 . S
C935 C937 1.356 . S
C935 H967 0.930 . S
C936 N933 1.279 . S
C936 C935 1.358 . S
C936 H939 0.930 . S
C937 C934 1.348 1_565 S
C937 C935 1.356 . S
H938 C932 0.930 . S
H939 C936 0.930 . S
O940 Li880 1.956 . S
O940 Li881 1.969 . S
O940 Li882 1.961 1_545 S
O940 C884 1.325 . S
O941 Li880 1.970 . S
O941 Li881 1.961 . S
O941 Li883 1.961 1_545 S
O941 C890 1.325 . S
O942 Li880 1.994 . S
O942 Li882 1.914 1_545 S
O942 Li883 1.974 1_545 S
O942 C912 1.325 . S
O943 Li881 1.956 1_565 S
O943 Li882 1.970 . S
O943 Li883 1.956 . S
O943 C918 1.325 . S
H944 C886 0.929 . S
H945 C887 0.930 . S
H946 C888 0.930 . S
H947 C889 0.930 . S
H948 C891 0.930 . S
H949 C893 0.929 . S
H950 C894 0.930 . S
H951 C895 0.930 . S
H952 C898 0.930 . S
H953 C901 0.929 . S
H954 C906 0.929 . S
H955 C907 0.930 . S
H956 C914 0.929 . S
H957 C915 0.930 . S
H958 C916 0.930 . S
H959 C917 0.930 . S
H960 C919 0.929 . S
H961 C920 0.930 . S
H962 C921 0.930 . S
H963 C922 0.930 . S
H964 C926 0.929 . S
H965 C928 0.930 . S
H966 C934 0.929 . S
H967 C935 0.930 . S
Li968 N985 1.990 . S
Li968 O1028 1.956 . S
Li968 O1029 1.970 . S
Li968 O1030 1.961 1_554 S
Li969 N993 1.990 . S
Li969 O1028 1.970 . S
Li969 O1029 1.956 . S
Li969 O1031 1.961 . S
Li970 N1015 1.990 . S
Li970 O1028 1.961 . S
Li970 O1030 1.956 1_554 S
Li970 O1031 1.970 . S
Li971 N1021 1.990 . S
Li971 O1029 1.961 1_556 S
Li971 O1030 1.970 . S
Li971 O1031 1.956 1_556 S
C972 C974 1.348 . S
C972 C975 1.356 . S
C972 O1028 1.325 . S
N973 C976 1.314 . S
N973 C977 1.279 . S
C974 C972 1.348 . S
C974 C976 1.353 . S
C974 H1032 0.929 . S
C975 C972 1.356 . S
C975 C977 1.358 . S
C975 H1033 0.930 . S
C976 N973 1.314 . S
C976 C974 1.353 . S
C976 H1034 0.930 . S
C977 N973 1.279 . S
C977 C975 1.358 . S
C977 H1035 0.930 . S
C978 C981 1.348 . S
C978 C982 1.356 1_554 S
C978 O1029 1.325 . S
C979 N980 1.279 1_556 S
C979 C982 1.358 . S
C979 H1036 0.930 . S
N980 C979 1.279 1_554 S
N980 C983 1.314 . S
C981 C978 1.348 . S
C981 C983 1.353 . S
C981 H1037 0.929 . S
C982 C978 1.356 1_556 S
C982 C979 1.358 . S
C982 H1038 0.930 . S
C983 N980 1.314 . S
C983 C981 1.353 . S
C983 H1039 0.930 . S
C984 N985 1.314 1_556 S
C984 C989 1.353 . S
C984 H990 0.930 . S
N985 Li968 1.990 . S
N985 C984 1.314 1_554 S
N985 C987 1.279 . S
C986 C987 1.358 . S
C986 C988 1.356 . S
C986 H1040 0.930 . S
C987 N985 1.279 . S
C987 C986 1.358 . S
C987 H991 0.930 . S
C988 C986 1.356 . S
C988 C989 1.348 1_554 S
C989 C984 1.353 . S
C989 C988 1.348 1_556 S
C989 H1041 0.929 . S
H990 C984 0.930 . S
H991 C987 0.930 . S
C992 N993 1.314 . S
C992 C994 1.353 . S
C992 H998 0.930 . S
N993 Li969 1.990 . S
N993 C992 1.314 . S
N993 C996 1.279 . S
C994 C992 1.353 . S
C994 C997 1.348 . S
C994 H1042 0.929 . S
C995 C996 1.358 . S
C995 C997 1.356 . S
C995 H1043 0.930 . S
C996 N993 1.279 . S
C996 C995 1.358 . S
C996 H999 0.930 . S
C997 C994 1.348 . S
C997 C995 1.356 . S
H998 C992 0.930 . S
H999 C996 0.930 . S
C1000 C1002 1.348 . S
C1000 C1003 1.356 . S
C1000 O1030 1.325 . S
N1001 C1004 1.314 . S
N1001 C1005 1.279 . S
C1002 C1000 1.348 . S
C1002 C1004 1.353 . S
C1002 H1044 0.929 . S
C1003 C1000 1.356 . S
C1003 C1005 1.358 . S
C1003 H1045 0.930 . S
C1004 N1001 1.314 . S
C1004 C1002 1.353 . S
C1004 H1046 0.930 . S
C1005 N1001 1.279 . S
C1005 C1003 1.358 . S
C1005 H1047 0.930 . S
C1006 C1007 1.348 . S
C1006 C1008 1.356 . S
C1006 O1031 1.325 . S
C1007 C1006 1.348 . S
C1007 C1009 1.353 . S
C1007 H1048 0.929 . S
C1008 C1006 1.356 . S
C1008 C1010 1.358 . S
C1008 H1049 0.930 . S
C1009 C1007 1.353 . S
C1009 N1011 1.314 . S
C1009 H1050 0.930 . S
C1010 C1008 1.358 . S
C1010 N1011 1.279 . S
C1010 H1051 0.930 . S
N1011 C1009 1.314 . S
N1011 C1010 1.279 . S
C1012 C1014 1.353 . S
C1012 N1015 1.314 . S
C1012 H1018 0.930 . S
C1013 N1015 1.279 . S
C1013 C1016 1.358 . S
C1013 H1019 0.930 1_554 S
C1014 C1012 1.353 . S
C1014 C1017 1.348 . S
C1014 H1052 0.929 . S
N1015 Li970 1.990 . S
N1015 C1012 1.314 . S
N1015 C1013 1.279 . S
C1016 C1013 1.358 . S
C1016 C1017 1.356 . S
C1016 H1053 0.930 1_554 S
C1017 C1014 1.348 . S
C1017 C1016 1.356 . S
H1018 C1012 0.930 . S
H1019 C1013 0.930 1_556 S
C1020 N1021 1.314 . S
C1020 C1022 1.353 . S
C1020 H1026 0.930 . S
N1021 Li971 1.990 . S
N1021 C1020 1.314 . S
N1021 C1024 1.279 . S
C1022 C1020 1.353 . S
C1022 C1025 1.348 . S
C1022 H1054 0.929 . S
C1023 C1024 1.358 . S
C1023 C1025 1.356 . S
C1023 H1055 0.930 . S
C1024 N1021 1.279 . S
C1024 C1023 1.358 . S
C1024 H1027 0.930 . S
C1025 C1022 1.348 . S
C1025 C1023 1.356 . S
H1026 C1020 0.930 . S
H1027 C1024 0.930 . S
O1028 Li968 1.956 . S
O1028 Li969 1.970 . S
O1028 Li970 1.961 . S
O1028 C972 1.325 . S
O1029 Li968 1.970 . S
O1029 Li969 1.956 . S
O1029 Li971 1.961 1_554 S
O1029 C978 1.325 . S
O1030 Li968 1.961 1_556 S
O1030 Li970 1.956 1_556 S
O1030 Li971 1.970 . S
O1030 C1000 1.325 . S
O1031 Li969 1.961 . S
O1031 Li970 1.970 . S
O1031 Li971 1.956 1_554 S
O1031 C1006 1.325 . S
H1032 C974 0.929 . S
H1033 C975 0.930 . S
H1034 C976 0.930 . S
H1035 C977 0.930 . S
H1036 C979 0.930 . S
H1037 C981 0.929 . S
H1038 C982 0.930 . S
H1039 C983 0.930 . S
H1040 C986 0.930 . S
H1041 C989 0.929 . S
H1042 C994 0.929 . S
H1043 C995 0.930 . S
H1044 C1002 0.929 . S
H1045 C1003 0.930 . S
H1046 C1004 0.930 . S
H1047 C1005 0.930 . S
H1048 C1007 0.929 . S
H1049 C1008 0.930 . S
H1050 C1009 0.930 . S
H1051 C1010 0.930 . S
H1052 C1014 0.929 . S
H1053 C1016 0.930 1_556 S
H1054 C1022 0.929 . S
H1055 C1023 0.930 . S
Li1056 N1073 1.990 . S
Li1056 O1116 1.956 . S
Li1056 O1117 1.970 . S
Li1056 O1118 1.961 1_554 S
Li1057 N1081 1.990 . S
Li1057 O1116 1.970 . S
Li1057 O1117 1.956 . S
Li1057 O1119 1.961 . S
Li1058 N1103 1.990 . S
Li1058 O1116 1.961 . S
Li1058 O1118 1.956 1_554 S
Li1058 O1119 1.970 . S
Li1059 N1109 1.990 . S
Li1059 O1117 1.961 1_556 S
Li1059 O1118 1.970 . S
Li1059 O1119 1.956 1_556 S
C1060 C1062 1.348 . S
C1060 C1063 1.356 . S
C1060 O1116 1.325 . S
N1061 C1064 1.314 . S
N1061 C1065 1.279 . S
C1062 C1060 1.348 . S
C1062 C1064 1.353 . S
C1062 H1120 0.929 . S
C1063 C1060 1.356 . S
C1063 C1065 1.358 . S
C1063 H1121 0.930 . S
C1064 N1061 1.314 . S
C1064 C1062 1.353 . S
C1064 H1122 0.930 . S
C1065 N1061 1.279 . S
C1065 C1063 1.358 . S
C1065 H1123 0.930 . S
C1066 C1069 1.348 . S
C1066 C1070 1.356 . S
C1066 O1117 1.325 . S
C1067 N1068 1.279 . S
C1067 C1070 1.358 . S
C1067 H1124 0.930 1_554 S
N1068 C1067 1.279 . S
N1068 C1071 1.314 . S
C1069 C1066 1.348 . S
C1069 C1071 1.353 . S
C1069 H1125 0.929 . S
C1070 C1066 1.356 . S
C1070 C1067 1.358 . S
C1070 H1126 0.930 . S
C1071 N1068 1.314 . S
C1071 C1069 1.353 . S
C1071 H1127 0.930 . S
C1072 N1073 1.314 . S
C1072 C1077 1.353 . S
C1072 H1078 0.930 1_554 S
N1073 Li1056 1.990 . S
N1073 C1072 1.314 . S
N1073 C1075 1.279 . S
C1074 C1075 1.358 . S
C1074 C1076 1.356 . S
C1074 H1128 0.930 . S
C1075 N1073 1.279 . S
C1075 C1074 1.358 . S
C1075 H1079 0.930 . S
C1076 C1074 1.356 . S
C1076 C1077 1.348 . S
C1077 C1072 1.353 . S
C1077 C1076 1.348 . S
C1077 H1129 0.929 1_554 S
H1078 C1072 0.930 1_556 S
H1079 C1075 0.930 . S
C1080 N1081 1.314 . S
C1080 C1082 1.353 . S
C1080 H1086 0.930 . S
N1081 Li1057 1.990 . S
N1081 C1080 1.314 . S
N1081 C1084 1.279 . S
C1082 C1080 1.353 . S
C1082 C1085 1.348 . S
C1082 H1130 0.929 . S
C1083 C1084 1.358 . S
C1083 C1085 1.356 . S
C1083 H1131 0.930 . S
C1084 N1081 1.279 . S
C1084 C1083 1.358 . S
C1084 H1087 0.930 . S
C1085 C1082 1.348 . S
C1085 C1083 1.356 . S
H1086 C1080 0.930 . S
H1087 C1084 0.930 . S
C1088 C1090 1.348 . S
C1088 C1091 1.356 . S
C1088 O1118 1.325 . S
N1089 C1092 1.314 . S
N1089 C1093 1.279 . S
C1090 C1088 1.348 . S
C1090 C1092 1.353 . S
C1090 H1132 0.929 . S
C1091 C1088 1.356 . S
C1091 C1093 1.358 . S
C1091 H1133 0.930 . S
C1092 N1089 1.314 . S
C1092 C1090 1.353 . S
C1092 H1134 0.930 . S
C1093 N1089 1.279 . S
C1093 C1091 1.358 . S
C1093 H1135 0.930 . S
C1094 C1095 1.348 . S
C1094 C1096 1.356 . S
C1094 O1119 1.325 . S
C1095 C1094 1.348 . S
C1095 C1097 1.353 . S
C1095 H1136 0.929 . S
C1096 C1094 1.356 . S
C1096 C1098 1.358 . S
C1096 H1137 0.930 . S
C1097 C1095 1.353 . S
C1097 N1099 1.314 . S
C1097 H1138 0.930 . S
C1098 C1096 1.358 . S
C1098 N1099 1.279 . S
C1098 H1139 0.930 . S
N1099 C1097 1.314 . S
N1099 C1098 1.279 . S
C1100 C1102 1.353 . S
C1100 N1103 1.314 . S
C1100 H1106 0.930 . S
C1101 N1103 1.279 . S
C1101 C1104 1.358 . S
C1101 H1107 0.930 1_554 S
C1102 C1100 1.353 . S
C1102 C1105 1.348 . S
C1102 H1140 0.929 . S
N1103 Li1058 1.990 . S
N1103 C1100 1.314 . S
N1103 C1101 1.279 . S
C1104 C1101 1.358 . S
C1104 C1105 1.356 . S
C1104 H1141 0.903 1_554 S
C1105 C1102 1.348 . S
C1105 C1104 1.356 . S
H1106 C1100 0.930 . S
H1107 C1101 0.930 1_556 S
C1108 N1109 1.314 . S
C1108 C1110 1.353 . S
C1108 H1114 0.930 . S
N1109 Li1059 1.990 . S
N1109 C1108 1.314 . S
N1109 C1112 1.279 . S
C1110 C1108 1.353 . S
C1110 C1113 1.348 . S
C1110 H1142 0.929 . S
C1111 C1112 1.358 . S
C1111 C1113 1.356 . S
C1111 H1143 0.930 . S
C1112 N1109 1.279 . S
C1112 C1111 1.358 . S
C1112 H1115 0.930 . S
C1113 C1110 1.348 . S
C1113 C1111 1.356 . S
H1114 C1108 0.930 . S
H1115 C1112 0.930 . S
O1116 Li1056 1.956 . S
O1116 Li1057 1.970 . S
O1116 Li1058 1.961 . S
O1116 C1060 1.325 . S
O1117 Li1056 1.970 . S
O1117 Li1057 1.956 . S
O1117 Li1059 1.961 1_554 S
O1117 C1066 1.325 . S
O1118 Li1056 1.961 1_556 S
O1118 Li1058 1.956 1_556 S
O1118 Li1059 1.970 . S
O1118 C1088 1.325 . S
O1119 Li1057 1.961 . S
O1119 Li1058 1.970 . S
O1119 Li1059 1.956 1_554 S
O1119 C1094 1.325 . S
H1120 C1062 0.929 . S
H1121 C1063 0.930 . S
H1122 C1064 0.930 . S
H1123 C1065 0.930 . S
H1124 C1067 0.930 1_556 S
H1125 C1069 0.929 . S
H1126 C1070 0.930 . S
H1127 C1071 0.930 . S
H1128 C1074 0.930 . S
H1129 C1077 0.929 1_556 S
H1130 C1082 0.929 . S
H1131 C1083 0.930 . S
H1132 C1090 0.929 . S
H1133 C1091 0.930 . S
H1134 C1092 0.930 . S
H1135 C1093 0.930 . S
H1136 C1095 0.929 . S
H1137 C1096 0.930 . S
H1138 C1097 0.930 . S
H1139 C1098 0.930 . S
H1140 C1102 0.929 . S
H1141 C1104 0.903 1_556 S
H1142 C1110 0.929 . S
H1143 C1111 0.930 . S
Li1144 N1161 1.990 . S
Li1144 O1204 1.956 . S
Li1144 O1205 1.970 . S
Li1144 O1206 1.961 . S
Li1145 N1169 1.990 . S
Li1145 O1204 1.970 . S
Li1145 O1205 1.956 . S
Li1145 O1207 1.961 1_554 S
Li1146 N1191 1.990 . S
Li1146 O1204 1.961 1_556 S
Li1146 O1206 1.956 1_556 S
Li1146 O1207 1.970 . S
Li1147 N1197 1.990 . S
Li1147 O1205 1.961 . S
Li1147 O1206 1.970 . S
Li1147 O1207 1.956 1_554 S
C1148 C1150 1.348 . S
C1148 C1151 1.356 . S
C1148 O1204 1.325 . S
N1149 C1152 1.314 . S
N1149 C1153 1.279 . S
C1150 C1148 1.348 . S
C1150 C1152 1.353 . S
C1150 H1208 0.929 . S
C1151 C1148 1.356 . S
C1151 C1153 1.358 . S
C1151 H1209 0.930 . S
C1152 N1149 1.314 . S
C1152 C1150 1.353 . S
C1152 H1210 0.930 . S
C1153 N1149 1.279 . S
C1153 C1151 1.358 . S
C1153 H1211 0.930 . S
C1154 C1157 1.348 . S
C1154 C1158 1.356 . S
C1154 O1205 1.325 . S
C1155 N1156 1.279 . S
C1155 C1158 1.358 . S
C1155 H1212 0.930 . S
N1156 C1155 1.279 . S
N1156 C1159 1.314 . S
C1157 C1154 1.348 . S
C1157 C1159 1.353 . S
C1157 H1213 0.929 . S
C1158 C1154 1.356 . S
C1158 C1155 1.358 . S
C1158 H1214 0.930 . S
C1159 N1156 1.314 . S
C1159 C1157 1.353 . S
C1159 H1215 0.930 . S
C1160 N1161 1.314 . S
C1160 C1165 1.353 . S
C1160 H1166 0.930 . S
N1161 Li1144 1.990 . S
N1161 C1160 1.314 . S
N1161 C1163 1.279 . S
C1162 C1163 1.358 . S
C1162 C1164 1.356 . S
C1162 H1216 0.930 . S
C1163 N1161 1.279 . S
C1163 C1162 1.358 . S
C1163 H1167 0.930 . S
C1164 C1162 1.356 . S
C1164 C1165 1.348 . S
C1165 C1160 1.353 . S
C1165 C1164 1.348 . S
C1165 H1217 0.929 . S
H1166 C1160 0.930 . S
H1167 C1163 0.930 . S
C1168 N1169 1.314 1_556 S
C1168 C1170 1.353 . S
C1168 H1174 0.930 . S
N1169 Li1145 1.990 . S
N1169 C1168 1.314 1_554 S
N1169 C1172 1.279 . S
C1170 C1168 1.353 . S
C1170 C1173 1.348 1_556 S
C1170 H1218 0.929 . S
C1171 C1172 1.358 . S
C1171 C1173 1.356 . S
C1171 H1219 0.930 . S
C1172 N1169 1.279 . S
C1172 C1171 1.358 . S
C1172 H1175 0.930 . S
C1173 C1170 1.348 1_554 S
C1173 C1171 1.356 . S
H1174 C1168 0.930 . S
H1175 C1172 0.930 . S
C1176 C1178 1.348 . S
C1176 C1179 1.356 . S
C1176 O1206 1.325 . S
N1177 C1180 1.314 . S
N1177 C1181 1.279 . S
C1178 C1176 1.348 . S
C1178 C1180 1.353 . S
C1178 H1220 0.929 1_554 S
C1179 C1176 1.356 . S
C1179 C1181 1.358 . S
C1179 H1221 0.930 . S
C1180 N1177 1.314 . S
C1180 C1178 1.353 . S
C1180 H1222 0.924 1_554 S
C1181 N1177 1.279 . S
C1181 C1179 1.358 . S
C1181 H1223 0.930 . S
C1182 C1183 1.348 . S
C1182 C1184 1.356 . S
C1182 O1207 1.325 . S
C1183 C1182 1.348 . S
C1183 C1185 1.353 . S
C1183 H1224 0.929 . S
C1184 C1182 1.356 . S
C1184 C1186 1.358 . S
C1184 H1225 0.930 . S
C1185 C1183 1.353 . S
C1185 N1187 1.314 . S
C1185 H1226 0.930 . S
C1186 C1184 1.358 . S
C1186 N1187 1.279 . S
C1186 H1227 0.930 . S
N1187 C1185 1.314 . S
N1187 C1186 1.279 . S
C1188 C1190 1.353 . S
C1188 N1191 1.314 . S
C1188 H1194 0.930 . S
C1189 N1191 1.279 . S
C1189 C1192 1.358 . S
C1189 H1195 0.930 . S
C1190 C1188 1.353 . S
C1190 C1193 1.348 . S
C1190 H1228 0.929 . S
N1191 Li1146 1.990 . S
N1191 C1188 1.314 . S
N1191 C1189 1.279 . S
C1192 C1189 1.358 . S
C1192 C1193 1.356 . S
C1192 H1229 0.930 . S
C1193 C1190 1.348 . S
C1193 C1192 1.356 . S
H1194 C1188 0.930 . S
H1195 C1189 0.930 . S
C1196 N1197 1.314 . S
C1196 C1198 1.353 . S
C1196 H1202 0.930 . S
N1197 Li1147 1.990 . S
N1197 C1196 1.314 . S
N1197 C1200 1.279 1_554 S
C1198 C1196 1.353 . S
C1198 C1201 1.348 1_554 S
C1198 H1230 0.929 . S
C1199 C1200 1.358 . S
C1199 C1201 1.356 . S
C1199 H1231 0.930 . S
C1200 N1197 1.279 1_556 S
C1200 C1199 1.358 . S
C1200 H1203 0.930 . S
C1201 C1198 1.348 1_556 S
C1201 C1199 1.356 . S
H1202 C1196 0.930 . S
H1203 C1200 0.930 . S
O1204 Li1144 1.956 . S
O1204 Li1145 1.970 . S
O1204 Li1146 1.961 1_554 S
O1204 C1148 1.325 . S
O1205 Li1144 1.970 . S
O1205 Li1145 1.956 . S
O1205 Li1147 1.961 . S
O1205 C1154 1.325 . S
O1206 Li1144 1.961 . S
O1206 Li1146 1.956 1_554 S
O1206 Li1147 1.970 . S
O1206 C1176 1.325 . S
O1207 Li1145 1.961 1_556 S
O1207 Li1146 1.970 . S
O1207 Li1147 1.956 1_556 S
O1207 C1182 1.325 . S
H1208 C1150 0.929 . S
H1209 C1151 0.930 . S
H1210 C1152 0.930 . S
H1211 C1153 0.930 . S
H1212 C1155 0.930 . S
H1213 C1157 0.929 . S
H1214 C1158 0.930 . S
H1215 C1159 0.930 . S
H1216 C1162 0.930 . S
H1217 C1165 0.929 . S
H1218 C1170 0.929 . S
H1219 C1171 0.930 . S
H1220 C1178 0.929 1_556 S
H1221 C1179 0.930 . S
H1222 C1180 0.924 1_556 S
H1223 C1181 0.930 . S
H1224 C1183 0.929 . S
H1225 C1184 0.930 . S
H1226 C1185 0.930 . S
H1227 C1186 0.930 . S
H1228 C1190 0.929 . S
H1229 C1192 0.930 . S
H1230 C1198 0.929 . S
H1231 C1199 0.930 . S
Li1232 N1249 1.990 . S
Li1232 O1292 1.956 . S
Li1232 O1293 1.970 . S
Li1232 O1294 1.961 . S
Li1233 N1257 1.990 . S
Li1233 O1292 1.970 . S
Li1233 O1293 1.956 . S
Li1233 O1295 1.961 . S
Li1234 N1279 1.990 . S
Li1234 O1292 1.961 . S
Li1234 O1294 1.956 . S
Li1234 O1295 1.970 . S
Li1235 N1285 1.990 . S
Li1235 O1293 1.961 . S
Li1235 O1294 1.970 . S
Li1235 O1295 1.956 . S
C1236 C1238 1.348 . S
C1236 C1239 1.356 . S
C1236 O1292 1.325 . S
N1237 C1240 1.314 . S
N1237 C1241 1.279 . S
C1238 C1236 1.348 . S
C1238 C1240 1.353 . S
C1238 H1296 0.929 . S
C1239 C1236 1.356 . S
C1239 C1241 1.358 . S
C1239 H1297 0.930 . S
C1240 N1237 1.314 . S
C1240 C1238 1.353 . S
C1240 H1298 0.930 . S
C1241 N1237 1.279 . S
C1241 C1239 1.358 . S
C1241 H1299 0.930 . S
C1242 C1245 1.348 . S
C1242 C1246 1.356 . S
C1242 O1293 1.325 . S
C1243 N1244 1.279 . S
C1243 C1246 1.358 . S
C1243 H1300 0.930 . S
N1244 C1243 1.279 . S
N1244 C1247 1.314 . S
C1245 C1242 1.348 . S
C1245 C1247 1.353 . S
C1245 H1301 0.929 . S
C1246 C1242 1.356 . S
C1246 C1243 1.358 . S
C1246 H1302 0.930 . S
C1247 N1244 1.314 . S
C1247 C1245 1.353 . S
C1247 H1303 0.930 . S
C1248 N1249 1.314 . S
C1248 C1253 1.353 . S
C1248 H1254 0.930 . S
N1249 Li1232 1.990 . S
N1249 C1248 1.314 . S
N1249 C1251 1.279 . S
C1250 C1251 1.358 . S
C1250 C1252 1.356 . S
C1250 H1304 0.930 . S
C1251 N1249 1.279 . S
C1251 C1250 1.358 . S
C1251 H1255 0.930 . S
C1252 C1250 1.356 . S
C1252 C1253 1.348 . S
C1253 C1248 1.353 . S
C1253 C1252 1.348 . S
C1253 H1305 0.929 . S
H1254 C1248 0.930 . S
H1255 C1251 0.930 . S
C1256 N1257 1.314 . S
C1256 C1258 1.353 . S
C1256 H1262 0.930 . S
N1257 Li1233 1.990 . S
N1257 C1256 1.314 . S
N1257 C1260 1.279 . S
C1258 C1256 1.353 . S
C1258 C1261 1.348 . S
C1258 H1306 0.929 . S
C1259 C1260 1.358 . S
C1259 C1261 1.356 . S
C1259 H1307 0.930 . S
C1260 N1257 1.279 . S
C1260 C1259 1.358 . S
C1260 H1263 0.930 . S
C1261 C1258 1.348 . S
C1261 C1259 1.356 . S
H1262 C1256 0.930 . S
H1263 C1260 0.930 . S
C1264 C1266 1.348 . S
C1264 C1267 1.356 . S
C1264 O1294 1.325 . S
N1265 C1268 1.314 . S
N1265 C1269 1.279 . S
C1266 C1264 1.348 . S
C1266 C1268 1.353 . S
C1266 H1308 0.929 . S
C1267 C1264 1.356 . S
C1267 C1269 1.358 . S
C1267 H1309 0.930 . S
C1268 N1265 1.314 . S
C1268 C1266 1.353 . S
C1268 H1310 0.930 . S
C1269 N1265 1.279 . S
C1269 C1267 1.358 . S
C1269 H1311 0.930 . S
C1270 C1271 1.348 . S
C1270 C1272 1.356 . S
C1270 O1295 1.325 . S
C1271 C1270 1.348 . S
C1271 C1273 1.353 . S
C1271 H1312 0.929 . S
C1272 C1270 1.356 . S
C1272 C1274 1.358 . S
C1272 H1313 0.930 . S
C1273 C1271 1.353 . S
C1273 N1275 1.314 . S
C1273 H1314 0.930 . S
C1274 C1272 1.358 . S
C1274 N1275 1.279 . S
C1274 H1315 0.930 . S
N1275 C1273 1.314 . S
N1275 C1274 1.279 . S
C1276 C1278 1.353 . S
C1276 N1279 1.314 . S
C1276 H1282 0.930 . S
C1277 N1279 1.279 . S
C1277 C1280 1.358 . S
C1277 H1283 0.930 . S
C1278 C1276 1.353 . S
C1278 C1281 1.348 . S
C1278 H1316 0.929 . S
N1279 Li1234 1.990 . S
N1279 C1276 1.314 . S
N1279 C1277 1.279 . S
C1280 C1277 1.358 . S
C1280 C1281 1.356 . S
C1280 H1317 0.930 . S
C1281 C1278 1.348 . S
C1281 C1280 1.356 . S
H1282 C1276 0.930 . S
H1283 C1277 0.930 . S
C1284 N1285 1.314 . S
C1284 C1286 1.353 . S
C1284 H1290 0.930 . S
N1285 Li1235 1.990 . S
N1285 C1284 1.314 . S
N1285 C1288 1.279 . S
C1286 C1284 1.353 . S
C1286 C1289 1.348 . S
C1286 H1318 0.929 . S
C1287 C1288 1.358 . S
C1287 C1289 1.356 . S
C1287 H1319 0.930 . S
C1288 N1285 1.279 . S
C1288 C1287 1.358 . S
C1288 H1291 0.930 . S
C1289 C1286 1.348 . S
C1289 C1287 1.356 . S
H1290 C1284 0.930 . S
H1291 C1288 0.930 . S
O1292 Li1232 1.956 . S
O1292 Li1233 1.970 . S
O1292 Li1234 1.961 . S
O1292 C1236 1.325 . S
O1293 Li1232 1.970 . S
O1293 Li1233 1.956 . S
O1293 Li1235 1.961 . S
O1293 C1242 1.325 . S
O1294 Li1232 1.961 . S
O1294 Li1234 1.956 . S
O1294 Li1235 1.970 . S
O1294 C1264 1.325 . S
O1295 Li1233 1.961 . S
O1295 Li1234 1.970 . S
O1295 Li1235 1.956 . S
O1295 C1270 1.325 . S
H1296 C1238 0.929 . S
H1297 C1239 0.930 . S
H1298 C1240 0.930 . S
H1299 C1241 0.930 . S
H1300 C1243 0.930 . S
H1301 C1245 0.929 . S
H1302 C1246 0.930 . S
H1303 C1247 0.930 . S
H1304 C1250 0.930 . S
H1305 C1253 0.929 . S
H1306 C1258 0.929 . S
H1307 C1259 0.930 . S
H1308 C1266 0.929 . S
H1309 C1267 0.930 . S
H1310 C1268 0.930 . S
H1311 C1269 0.930 . S
H1312 C1271 0.929 . S
H1313 C1272 0.930 . S
H1314 C1273 0.930 . S
H1315 C1274 0.930 . S
H1316 C1278 0.929 . S
H1317 C1280 0.930 . S
H1318 C1286 0.929 . S
H1319 C1287 0.930 . S
Li1320 N1337 1.990 . S
Li1320 O1380 1.956 . S
Li1320 O1381 1.970 . S
Li1320 O1382 1.961 . S
Li1321 N1345 1.990 . S
Li1321 O1380 1.970 . S
Li1321 O1381 1.956 . S
Li1321 O1383 1.961 . S
Li1322 N1367 1.990 . S
Li1322 O1380 1.961 . S
Li1322 O1382 1.956 . S
Li1322 O1383 1.970 . S
Li1323 N1373 1.990 . S
Li1323 O1381 1.961 . S
Li1323 O1382 1.970 . S
Li1323 O1383 1.956 . S
C1324 C1326 1.348 . S
C1324 C1327 1.356 . S
C1324 O1380 1.325 . S
N1325 C1328 1.314 . S
N1325 C1329 1.279 . S
C1326 C1324 1.348 . S
C1326 C1328 1.353 . S
C1326 H1384 0.929 . S
C1327 C1324 1.356 . S
C1327 C1329 1.358 . S
C1327 H1385 0.930 . S
C1328 N1325 1.314 . S
C1328 C1326 1.353 . S
C1328 H1386 0.930 . S
C1329 N1325 1.279 . S
C1329 C1327 1.358 . S
C1329 H1387 0.930 . S
C1330 C1333 1.348 . S
C1330 C1334 1.356 . S
C1330 O1381 1.325 . S
C1331 N1332 1.279 . S
C1331 C1334 1.358 . S
C1331 H1388 0.930 . S
N1332 C1331 1.279 . S
N1332 C1335 1.314 . S
C1333 C1330 1.348 . S
C1333 C1335 1.353 . S
C1333 H1389 0.929 . S
C1334 C1330 1.356 . S
C1334 C1331 1.358 . S
C1334 H1390 0.930 . S
C1335 N1332 1.314 . S
C1335 C1333 1.353 . S
C1335 H1391 0.930 . S
C1336 N1337 1.314 . S
C1336 C1341 1.353 . S
C1336 H1342 0.930 . S
N1337 Li1320 1.990 . S
N1337 C1336 1.314 . S
N1337 C1339 1.279 . S
C1338 C1339 1.358 . S
C1338 C1340 1.356 . S
C1338 H1392 0.930 . S
C1339 N1337 1.279 . S
C1339 C1338 1.358 . S
C1339 H1343 0.930 . S
C1340 C1338 1.356 . S
C1340 C1341 1.348 . S
C1341 C1336 1.353 . S
C1341 C1340 1.348 . S
C1341 H1393 0.929 . S
H1342 C1336 0.930 . S
H1343 C1339 0.930 . S
C1344 N1345 1.314 . S
C1344 C1346 1.353 . S
C1344 H1350 0.930 . S
N1345 Li1321 1.990 . S
N1345 C1344 1.314 . S
N1345 C1348 1.279 . S
C1346 C1344 1.353 . S
C1346 C1349 1.348 . S
C1346 H1394 0.929 . S
C1347 C1348 1.358 . S
C1347 C1349 1.356 . S
C1347 H1395 0.930 . S
C1348 N1345 1.279 . S
C1348 C1347 1.358 . S
C1348 H1351 0.930 . S
C1349 C1346 1.348 . S
C1349 C1347 1.356 . S
H1350 C1344 0.930 . S
H1351 C1348 0.930 . S
C1352 C1354 1.348 . S
C1352 C1355 1.356 . S
C1352 O1382 1.325 . S
N1353 C1356 1.314 . S
N1353 C1357 1.279 . S
C1354 C1352 1.348 . S
C1354 C1356 1.353 . S
C1354 H1396 0.929 . S
C1355 C1352 1.356 . S
C1355 C1357 1.358 . S
C1355 H1397 0.930 . S
C1356 N1353 1.314 . S
C1356 C1354 1.353 . S
C1356 H1398 0.930 . S
C1357 N1353 1.279 . S
C1357 C1355 1.358 . S
C1357 H1399 0.930 . S
C1358 C1359 1.348 . S
C1358 C1360 1.356 . S
C1358 O1383 1.325 . S
C1359 C1358 1.348 . S
C1359 C1361 1.353 . S
C1359 H1400 0.929 . S
C1360 C1358 1.356 . S
C1360 C1362 1.358 . S
C1360 H1401 0.930 . S
C1361 C1359 1.353 . S
C1361 N1363 1.314 . S
C1361 H1402 0.930 . S
C1362 C1360 1.358 . S
C1362 N1363 1.279 . S
C1362 H1403 0.930 . S
N1363 C1361 1.314 . S
N1363 C1362 1.279 . S
C1364 C1366 1.353 . S
C1364 N1367 1.314 . S
C1364 H1370 0.930 . S
C1365 N1367 1.279 . S
C1365 C1368 1.358 . S
C1365 H1371 0.930 . S
C1366 C1364 1.353 . S
C1366 C1369 1.348 . S
C1366 H1404 0.929 . S
N1367 Li1322 1.990 . S
N1367 C1364 1.314 . S
N1367 C1365 1.279 . S
C1368 C1365 1.358 . S
C1368 C1369 1.356 . S
C1368 H1405 0.930 . S
C1369 C1366 1.348 . S
C1369 C1368 1.356 . S
H1370 C1364 0.930 . S
H1371 C1365 0.930 . S
C1372 N1373 1.314 . S
C1372 C1374 1.353 . S
C1372 H1378 0.930 . S
N1373 Li1323 1.990 . S
N1373 C1372 1.314 . S
N1373 C1376 1.279 . S
C1374 C1372 1.353 . S
C1374 C1377 1.348 . S
C1374 H1406 0.929 . S
C1375 C1376 1.358 . S
C1375 C1377 1.356 . S
C1375 H1407 0.930 . S
C1376 N1373 1.279 . S
C1376 C1375 1.358 . S
C1376 H1379 0.930 . S
C1377 C1374 1.348 . S
C1377 C1375 1.356 . S
H1378 C1372 0.930 . S
H1379 C1376 0.930 . S
O1380 Li1320 1.956 . S
O1380 Li1321 1.970 . S
O1380 Li1322 1.961 . S
O1380 C1324 1.325 . S
O1381 Li1320 1.970 . S
O1381 Li1321 1.956 . S
O1381 Li1323 1.961 . S
O1381 C1330 1.325 . S
O1382 Li1320 1.961 . S
O1382 Li1322 1.956 . S
O1382 Li1323 1.970 . S
O1382 C1352 1.325 . S
O1383 Li1321 1.961 . S
O1383 Li1322 1.970 . S
O1383 Li1323 1.956 . S
O1383 C1358 1.325 . S
H1384 C1326 0.929 . S
H1385 C1327 0.930 . S
H1386 C1328 0.930 . S
H1387 C1329 0.930 . S
H1388 C1331 0.930 . S
H1389 C1333 0.929 . S
H1390 C1334 0.930 . S
H1391 C1335 0.930 . S
H1392 C1338 0.930 . S
H1393 C1341 0.929 . S
H1394 C1346 0.929 . S
H1395 C1347 0.930 . S
H1396 C1354 0.929 . S
H1397 C1355 0.930 . S
H1398 C1356 0.930 . S
H1399 C1357 0.930 . S
H1400 C1359 0.929 . S
H1401 C1360 0.930 . S
H1402 C1361 0.930 . S
H1403 C1362 0.930 . S
H1404 C1366 0.929 . S
H1405 C1368 0.930 . S
H1406 C1374 0.929 . S
H1407 C1375 0.930 . S
Li1408 N1425 1.990 . S
Li1408 O1468 1.956 . S
Li1408 O1469 1.970 . S
Li1408 O1470 1.961 . S
Li1409 N1433 1.990 . S
Li1409 O1468 1.970 . S
Li1409 O1469 1.956 . S
Li1409 O1471 1.961 . S
Li1410 N1455 1.990 . S
Li1410 O1468 1.961 . S
Li1410 O1470 1.956 . S
Li1410 O1471 1.970 . S
Li1411 N1461 1.990 . S
Li1411 O1469 1.961 . S
Li1411 O1470 1.970 . S
Li1411 O1471 1.956 . S
C1412 C1414 1.348 . S
C1412 C1415 1.356 . S
C1412 O1468 1.325 . S
N1413 C1416 1.314 . S
N1413 C1417 1.279 1_565 S
C1414 C1412 1.348 . S
C1414 C1416 1.353 1_545 S
C1414 H1472 0.929 . S
C1415 C1412 1.356 . S
C1415 C1417 1.358 . S
C1415 H1473 0.930 . S
C1416 N1413 1.314 . S
C1416 C1414 1.353 1_565 S
C1416 H1474 0.930 . S
C1417 N1413 1.279 1_545 S
C1417 C1415 1.358 . S
C1417 H1475 0.930 . S
C1418 C1421 1.348 . S
C1418 C1422 1.356 . S
C1418 O1469 1.325 . S
C1419 N1420 1.279 . S
C1419 C1422 1.358 . S
C1419 H1476 0.930 . S
N1420 C1419 1.279 . S
N1420 C1423 1.314 . S
C1421 C1418 1.348 . S
C1421 C1423 1.353 . S
C1421 H1477 0.929 . S
C1422 C1418 1.356 . S
C1422 C1419 1.358 . S
C1422 H1478 0.930 . S
C1423 N1420 1.314 . S
C1423 C1421 1.353 . S
C1423 H1479 0.930 . S
C1424 N1425 1.314 . S
C1424 C1429 1.353 . S
C1424 H1430 0.930 . S
N1425 Li1408 1.990 . S
N1425 C1424 1.314 . S
N1425 C1427 1.279 . S
C1426 C1427 1.358 . S
C1426 C1428 1.356 . S
C1426 H1480 0.930 . S
C1427 N1425 1.279 . S
C1427 C1426 1.358 . S
C1427 H1431 0.930 . S
C1428 C1426 1.356 . S
C1428 C1429 1.348 . S
C1429 C1424 1.353 . S
C1429 C1428 1.348 . S
C1429 H1481 0.929 . S
H1430 C1424 0.930 . S
H1431 C1427 0.930 . S
C1432 N1433 1.318 . S
C1432 C1434 1.346 1_545 S
C1432 H1438 0.932 . S
N1433 Li1409 1.990 . S
N1433 C1432 1.318 . S
N1433 C1436 1.279 . S
C1434 C1432 1.346 1_565 S
C1434 C1437 1.348 . S
C1434 H1482 0.929 . S
C1435 C1436 1.358 1_565 S
C1435 C1437 1.356 . S
C1435 H1483 0.930 . S
C1436 N1433 1.279 . S
C1436 C1435 1.358 1_545 S
C1436 H1439 0.930 . S
C1437 C1434 1.348 . S
C1437 C1435 1.356 . S
H1438 C1432 0.932 . S
H1439 C1436 0.930 . S
C1440 C1442 1.348 . S
C1440 C1443 1.356 . S
C1440 O1470 1.325 . S
N1441 C1444 1.314 . S
N1441 C1445 1.279 . S
C1442 C1440 1.348 . S
C1442 C1444 1.353 . S
C1442 H1484 0.929 . S
C1443 C1440 1.356 . S
C1443 C1445 1.358 . S
C1443 H1485 0.930 . S
C1444 N1441 1.314 . S
C1444 C1442 1.353 . S
C1444 H1486 0.930 . S
C1445 N1441 1.279 . S
C1445 C1443 1.358 . S
C1445 H1487 0.930 1_655 S
C1446 C1447 1.348 . S
C1446 C1448 1.356 . S
C1446 O1471 1.325 . S
C1447 C1446 1.348 . S
C1447 C1449 1.353 . S
C1447 H1488 0.929 . S
C1448 C1446 1.356 . S
C1448 C1450 1.358 . S
C1448 H1489 0.930 . S
C1449 C1447 1.353 . S
C1449 N1451 1.314 . S
C1449 H1490 0.930 . S
C1450 C1448 1.358 . S
C1450 N1451 1.279 . S
C1450 H1491 0.930 . S
N1451 C1449 1.314 . S
N1451 C1450 1.279 . S
C1452 C1454 1.353 . S
C1452 N1455 1.314 . S
C1452 H1458 0.930 . S
C1453 N1455 1.279 . S
C1453 C1456 1.358 . S
C1453 H1459 0.930 . S
C1454 C1452 1.353 . S
C1454 C1457 1.348 . S
C1454 H1492 0.929 . S
N1455 Li1410 1.990 . S
N1455 C1452 1.314 . S
N1455 C1453 1.279 . S
C1456 C1453 1.358 . S
C1456 C1457 1.356 . S
C1456 H1493 0.930 . S
C1457 C1454 1.348 . S
C1457 C1456 1.356 . S
H1458 C1452 0.930 . S
H1459 C1453 0.930 . S
C1460 N1461 1.314 . S
C1460 C1462 1.353 . S
C1460 H1466 0.930 . S
N1461 Li1411 1.990 . S
N1461 C1460 1.314 . S
N1461 C1464 1.279 . S
C1462 C1460 1.353 . S
C1462 C1465 1.348 . S
C1462 H1494 0.929 . S
C1463 C1464 1.358 . S
C1463 C1465 1.356 . S
C1463 H1495 0.930 . S
C1464 N1461 1.279 . S
C1464 C1463 1.358 . S
C1464 H1467 0.930 . S
C1465 C1462 1.348 . S
C1465 C1463 1.356 . S
H1466 C1460 0.930 . S
H1467 C1464 0.930 . S
O1468 Li1408 1.956 . S
O1468 Li1409 1.970 . S
O1468 Li1410 1.961 . S
O1468 C1412 1.325 . S
O1469 Li1408 1.970 . S
O1469 Li1409 1.956 . S
O1469 Li1411 1.961 . S
O1469 C1418 1.325 . S
O1470 Li1408 1.961 . S
O1470 Li1410 1.956 . S
O1470 Li1411 1.970 . S
O1470 C1440 1.325 . S
O1471 Li1409 1.961 . S
O1471 Li1410 1.970 . S
O1471 Li1411 1.956 . S
O1471 C1446 1.325 . S
H1472 C1414 0.929 . S
H1473 C1415 0.930 . S
H1474 C1416 0.930 . S
H1475 C1417 0.930 . S
H1476 C1419 0.930 . S
H1477 C1421 0.929 . S
H1478 C1422 0.930 . S
H1479 C1423 0.930 . S
H1480 C1426 0.930 . S
H1481 C1429 0.929 . S
H1482 C1434 0.929 . S
H1483 C1435 0.930 . S
H1484 C1442 0.929 . S
H1485 C1443 0.930 . S
H1486 C1444 0.930 . S
H1487 C1445 0.930 1_455 S
H1488 C1447 0.929 . S
H1489 C1448 0.930 . S
H1490 C1449 0.930 . S
H1491 C1450 0.930 . S
H1492 C1454 0.929 . S
H1493 C1456 0.930 . S
H1494 C1462 0.929 . S
H1495 C1463 0.930 . S
Li1496 N1513 1.990 . S
Li1496 O1556 1.956 . S
Li1496 O1557 1.970 . S
Li1496 O1558 1.961 . S
Li1497 N1521 1.990 . S
Li1497 O1556 1.970 . S
Li1497 O1557 1.956 . S
Li1497 O1559 1.961 . S
Li1498 N1543 1.990 . S
Li1498 O1556 1.961 . S
Li1498 O1558 1.956 . S
Li1498 O1559 1.970 . S
Li1499 N1549 1.990 . S
Li1499 O1557 1.961 . S
Li1499 O1558 1.970 . S
Li1499 O1559 1.956 . S
C1500 C1502 1.348 . S
C1500 C1503 1.356 . S
C1500 O1556 1.325 . S
N1501 C1504 1.314 . S
N1501 C1505 1.279 . S
C1502 C1500 1.348 . S
C1502 C1504 1.353 . S
C1502 H1560 0.929 . S
C1503 C1500 1.356 . S
C1503 C1505 1.358 . S
C1503 H1561 0.930 . S
C1504 N1501 1.314 . S
C1504 C1502 1.353 . S
C1504 H1562 0.930 . S
C1505 N1501 1.279 . S
C1505 C1503 1.358 . S
C1505 H1563 0.930 . S
C1506 C1509 1.348 . S
C1506 C1510 1.356 . S
C1506 O1557 1.325 . S
C1507 N1508 1.279 . S
C1507 C1510 1.358 . S
C1507 H1564 0.930 . S
N1508 C1507 1.279 . S
N1508 C1511 1.314 . S
C1509 C1506 1.348 . S
C1509 C1511 1.353 . S
C1509 H1565 0.929 . S
C1510 C1506 1.356 . S
C1510 C1507 1.358 . S
C1510 H1566 0.930 . S
C1511 N1508 1.314 . S
C1511 C1509 1.353 . S
C1511 H1567 0.930 . S
C1512 N1513 1.314 . S
C1512 C1517 1.353 . S
C1512 H1518 0.930 . S
N1513 Li1496 1.990 . S
N1513 C1512 1.314 . S
N1513 C1515 1.279 . S
C1514 C1515 1.358 . S
C1514 C1516 1.356 . S
C1514 H1568 0.930 . S
C1515 N1513 1.279 . S
C1515 C1514 1.358 . S
C1515 H1519 0.930 . S
C1516 C1514 1.356 . S
C1516 C1517 1.348 . S
C1517 C1512 1.353 . S
C1517 C1516 1.348 . S
C1517 H1569 0.929 . S
H1518 C1512 0.930 . S
H1519 C1515 0.930 . S
C1520 N1521 1.314 . S
C1520 C1522 1.353 . S
C1520 H1526 0.930 . S
N1521 Li1497 1.990 . S
N1521 C1520 1.314 . S
N1521 C1524 1.279 . S
C1522 C1520 1.353 . S
C1522 C1525 1.348 . S
C1522 H1570 0.929 . S
C1523 C1524 1.358 . S
C1523 C1525 1.356 . S
C1523 H1571 0.930 . S
C1524 N1521 1.279 . S
C1524 C1523 1.358 . S
C1524 H1527 0.930 . S
C1525 C1522 1.348 . S
C1525 C1523 1.356 . S
H1526 C1520 0.930 . S
H1527 C1524 0.930 . S
C1528 C1530 1.348 . S
C1528 C1531 1.356 . S
C1528 O1558 1.325 . S
N1529 C1532 1.314 . S
N1529 C1533 1.279 . S
C1530 C1528 1.348 . S
C1530 C1532 1.353 . S
C1530 H1572 0.929 . S
C1531 C1528 1.356 . S
C1531 C1533 1.358 . S
C1531 H1573 0.930 . S
C1532 N1529 1.314 . S
C1532 C1530 1.353 . S
C1532 H1574 0.930 . S
C1533 N1529 1.279 . S
C1533 C1531 1.358 . S
C1533 H1575 0.930 . S
C1534 C1535 1.348 . S
C1534 C1536 1.356 . S
C1534 O1559 1.325 . S
C1535 C1534 1.348 . S
C1535 C1537 1.353 . S
C1535 H1576 0.929 . S
C1536 C1534 1.356 . S
C1536 C1538 1.358 . S
C1536 H1577 0.930 . S
C1537 C1535 1.353 . S
C1537 N1539 1.314 . S
C1537 H1578 0.930 . S
C1538 C1536 1.358 . S
C1538 N1539 1.279 . S
C1538 H1579 0.930 . S
N1539 C1537 1.314 . S
N1539 C1538 1.279 . S
C1540 C1542 1.353 . S
C1540 N1543 1.314 . S
C1540 H1546 0.930 . S
C1541 N1543 1.279 . S
C1541 C1544 1.358 . S
C1541 H1547 0.930 . S
C1542 C1540 1.353 . S
C1542 C1545 1.348 . S
C1542 H1580 0.929 . S
N1543 Li1498 1.990 . S
N1543 C1540 1.314 . S
N1543 C1541 1.279 . S
C1544 C1541 1.358 . S
C1544 C1545 1.356 . S
C1544 H1581 0.930 . S
C1545 C1542 1.348 . S
C1545 C1544 1.356 . S
H1546 C1540 0.930 . S
H1547 C1541 0.930 . S
C1548 N1549 1.314 . S
C1548 C1550 1.353 . S
C1548 H1554 0.930 . S
N1549 Li1499 1.990 . S
N1549 C1548 1.314 . S
N1549 C1552 1.279 . S
C1550 C1548 1.353 . S
C1550 C1553 1.348 . S
C1550 H1582 0.929 . S
C1551 C1552 1.358 . S
C1551 C1553 1.356 . S
C1551 H1583 0.930 . S
C1552 N1549 1.279 . S
C1552 C1551 1.358 . S
C1552 H1555 0.930 . S
C1553 C1550 1.348 . S
C1553 C1551 1.356 . S
H1554 C1548 0.930 . S
H1555 C1552 0.930 . S
O1556 Li1496 1.956 . S
O1556 Li1497 1.970 . S
O1556 Li1498 1.961 . S
O1556 C1500 1.325 . S
O1557 Li1496 1.970 . S
O1557 Li1497 1.956 . S
O1557 Li1499 1.961 . S
O1557 C1506 1.325 . S
O1558 Li1496 1.961 . S
O1558 Li1498 1.956 . S
O1558 Li1499 1.970 . S
O1558 C1528 1.325 . S
O1559 Li1497 1.961 . S
O1559 Li1498 1.970 . S
O1559 Li1499 1.956 . S
O1559 C1534 1.325 . S
H1560 C1502 0.929 . S
H1561 C1503 0.930 . S
H1562 C1504 0.930 . S
H1563 C1505 0.930 . S
H1564 C1507 0.930 . S
H1565 C1509 0.929 . S
H1566 C1510 0.930 . S
H1567 C1511 0.930 . S
H1568 C1514 0.930 . S
H1569 C1517 0.929 . S
H1570 C1522 0.929 . S
H1571 C1523 0.930 . S
H1572 C1530 0.929 . S
H1573 C1531 0.930 . S
H1574 C1532 0.930 . S
H1575 C1533 0.930 . S
H1576 C1535 0.929 . S
H1577 C1536 0.930 . S
H1578 C1537 0.930 . S
H1579 C1538 0.930 . S
H1580 C1542 0.929 . S
H1581 C1544 0.930 . S
H1582 C1550 0.929 . S
H1583 C1551 0.930 . S
Li1584 N1601 1.990 . S
Li1584 O1644 1.956 . S
Li1584 O1645 1.970 . S
Li1584 O1646 1.961 . S
Li1585 N1609 1.990 . S
Li1585 O1644 1.970 . S
Li1585 O1645 1.956 . S
Li1585 O1647 1.961 . S
Li1586 N1631 1.990 . S
Li1586 O1644 1.961 . S
Li1586 O1646 1.956 . S
Li1586 O1647 1.970 . S
Li1587 N1637 1.990 . S
Li1587 O1645 1.961 . S
Li1587 O1646 1.970 . S
Li1587 O1647 1.956 . S
C1588 C1590 1.348 . S
C1588 C1591 1.356 . S
C1588 O1644 1.325 . S
N1589 C1592 1.314 . S
N1589 C1593 1.279 . S
C1590 C1588 1.348 . S
C1590 C1592 1.353 . S
C1590 H1648 0.929 . S
C1591 C1588 1.356 . S
C1591 C1593 1.358 . S
C1591 H1649 0.930 . S
C1592 N1589 1.314 . S
C1592 C1590 1.353 . S
C1592 H1650 0.930 . S
C1593 N1589 1.279 . S
C1593 C1591 1.358 . S
C1593 H1651 0.930 . S
C1594 C1597 1.348 . S
C1594 C1598 1.356 . S
C1594 O1645 1.325 . S
C1595 N1596 1.279 . S
C1595 C1598 1.358 . S
C1595 H1652 0.930 . S
N1596 C1595 1.279 . S
N1596 C1599 1.314 . S
C1597 C1594 1.348 . S
C1597 C1599 1.353 . S
C1597 H1653 0.929 . S
C1598 C1594 1.356 . S
C1598 C1595 1.358 . S
C1598 H1654 0.930 . S
C1599 N1596 1.314 . S
C1599 C1597 1.353 . S
C1599 H1655 0.930 . S
C1600 N1601 1.314 . S
C1600 C1605 1.353 . S
C1600 H1606 0.930 . S
N1601 Li1584 1.990 . S
N1601 C1600 1.314 . S
N1601 C1603 1.279 . S
C1602 C1603 1.358 . S
C1602 C1604 1.356 . S
C1602 H1656 0.930 . S
C1603 N1601 1.279 . S
C1603 C1602 1.358 . S
C1603 H1607 0.930 . S
C1604 C1602 1.356 . S
C1604 C1605 1.348 . S
C1605 C1600 1.353 . S
C1605 C1604 1.348 . S
C1605 H1657 0.929 . S
H1606 C1600 0.930 . S
H1607 C1603 0.930 . S
C1608 N1609 1.314 . S
C1608 C1610 1.353 . S
C1608 H1614 0.930 . S
N1609 Li1585 1.990 . S
N1609 C1608 1.314 . S
N1609 C1612 1.279 . S
C1610 C1608 1.353 . S
C1610 C1613 1.348 . S
C1610 H1658 0.929 . S
C1611 C1612 1.358 . S
C1611 C1613 1.356 . S
C1611 H1659 0.930 . S
C1612 N1609 1.279 . S
C1612 C1611 1.358 . S
C1612 H1615 0.930 . S
C1613 C1610 1.348 . S
C1613 C1611 1.356 . S
H1614 C1608 0.930 . S
H1615 C1612 0.930 . S
C1616 C1618 1.348 . S
C1616 C1619 1.356 . S
C1616 O1646 1.325 . S
N1617 C1620 1.314 . S
N1617 C1621 1.279 . S
C1618 C1616 1.348 . S
C1618 C1620 1.353 . S
C1618 H1660 0.929 . S
C1619 C1616 1.356 . S
C1619 C1621 1.358 . S
C1619 H1661 0.930 . S
C1620 N1617 1.314 . S
C1620 C1618 1.353 . S
C1620 H1662 0.930 . S
C1621 N1617 1.279 . S
C1621 C1619 1.358 . S
C1621 H1663 0.930 . S
C1622 C1623 1.348 . S
C1622 C1624 1.356 . S
C1622 O1647 1.325 . S
C1623 C1622 1.348 . S
C1623 C1625 1.353 . S
C1623 H1664 0.929 . S
C1624 C1622 1.356 . S
C1624 C1626 1.358 . S
C1624 H1665 0.930 . S
C1625 C1623 1.353 . S
C1625 N1627 1.314 . S
C1625 H1666 0.930 . S
C1626 C1624 1.358 . S
C1626 N1627 1.279 . S
C1626 H1667 0.930 . S
N1627 C1625 1.314 . S
N1627 C1626 1.279 . S
C1628 C1630 1.353 . S
C1628 N1631 1.314 . S
C1628 H1634 0.930 . S
C1629 N1631 1.279 . S
C1629 C1632 1.358 . S
C1629 H1635 0.930 . S
C1630 C1628 1.353 . S
C1630 C1633 1.348 . S
C1630 H1668 0.929 . S
N1631 Li1586 1.990 . S
N1631 C1628 1.314 . S
N1631 C1629 1.279 . S
C1632 C1629 1.358 . S
C1632 C1633 1.356 . S
C1632 H1669 0.930 . S
C1633 C1630 1.348 . S
C1633 C1632 1.356 . S
H1634 C1628 0.930 . S
H1635 C1629 0.930 . S
C1636 N1637 1.314 . S
C1636 C1638 1.353 . S
C1636 H1642 0.930 . S
N1637 Li1587 1.990 . S
N1637 C1636 1.314 . S
N1637 C1640 1.279 . S
C1638 C1636 1.353 . S
C1638 C1641 1.348 . S
C1638 H1670 0.929 . S
C1639 C1640 1.358 . S
C1639 C1641 1.356 . S
C1639 H1671 0.930 . S
C1640 N1637 1.279 . S
C1640 C1639 1.358 . S
C1640 H1643 0.930 . S
C1641 C1638 1.348 . S
C1641 C1639 1.356 . S
H1642 C1636 0.930 . S
H1643 C1640 0.930 . S
O1644 Li1584 1.956 . S
O1644 Li1585 1.970 . S
O1644 Li1586 1.961 . S
O1644 C1588 1.325 . S
O1645 Li1584 1.970 . S
O1645 Li1585 1.956 . S
O1645 Li1587 1.961 . S
O1645 C1594 1.325 . S
O1646 Li1584 1.961 . S
O1646 Li1586 1.956 . S
O1646 Li1587 1.970 . S
O1646 C1616 1.325 . S
O1647 Li1585 1.961 . S
O1647 Li1586 1.970 . S
O1647 Li1587 1.956 . S
O1647 C1622 1.325 . S
H1648 C1590 0.929 . S
H1649 C1591 0.930 . S
H1650 C1592 0.930 . S
H1651 C1593 0.930 . S
H1652 C1595 0.930 . S
H1653 C1597 0.929 . S
H1654 C1598 0.930 . S
H1655 C1599 0.930 . S
H1656 C1602 0.930 . S
H1657 C1605 0.929 . S
H1658 C1610 0.929 . S
H1659 C1611 0.930 . S
H1660 C1618 0.929 . S
H1661 C1619 0.930 . S
H1662 C1620 0.930 . S
H1663 C1621 0.930 . S
H1664 C1623 0.929 . S
H1665 C1624 0.930 . S
H1666 C1625 0.930 . S
H1667 C1626 0.930 . S
H1668 C1630 0.929 . S
H1669 C1632 0.930 . S
H1670 C1638 0.929 . S
H1671 C1639 0.930 . S
Li1672 N1689 1.990 . S
Li1672 O1732 1.956 . S
Li1672 O1733 1.970 . S
Li1672 O1734 1.961 . S
Li1673 N1697 1.990 . S
Li1673 O1732 1.970 . S
Li1673 O1733 1.956 . S
Li1673 O1735 1.961 . S
Li1674 N1719 1.990 . S
Li1674 O1732 1.961 . S
Li1674 O1734 1.956 . S
Li1674 O1735 1.970 . S
Li1675 N1725 1.990 . S
Li1675 O1733 1.961 . S
Li1675 O1734 1.970 . S
Li1675 O1735 1.956 . S
C1676 C1678 1.348 . S
C1676 C1679 1.356 . S
C1676 O1732 1.325 . S
N1677 C1680 1.314 . S
N1677 C1681 1.279 . S
C1678 C1676 1.348 . S
C1678 C1680 1.353 . S
C1678 H1736 0.929 . S
C1679 C1676 1.356 . S
C1679 C1681 1.358 . S
C1679 H1737 0.930 . S
C1680 N1677 1.314 . S
C1680 C1678 1.353 . S
C1680 H1738 0.930 . S
C1681 N1677 1.279 . S
C1681 C1679 1.358 . S
C1681 H1739 0.930 . S
C1682 C1685 1.348 . S
C1682 C1686 1.356 . S
C1682 O1733 1.325 . S
C1683 N1684 1.279 . S
C1683 C1686 1.358 . S
C1683 H1740 0.930 . S
N1684 C1683 1.279 . S
N1684 C1687 1.314 . S
C1685 C1682 1.348 . S
C1685 C1687 1.353 . S
C1685 H1741 0.929 . S
C1686 C1682 1.356 . S
C1686 C1683 1.358 . S
C1686 H1742 0.930 . S
C1687 N1684 1.314 . S
C1687 C1685 1.353 . S
C1687 H1743 0.930 . S
C1688 N1689 1.314 . S
C1688 C1693 1.353 . S
C1688 H1694 0.930 . S
N1689 Li1672 1.990 . S
N1689 C1688 1.314 . S
N1689 C1691 1.279 . S
C1690 C1691 1.358 . S
C1690 C1692 1.356 . S
C1690 H1744 0.930 . S
C1691 N1689 1.279 . S
C1691 C1690 1.358 . S
C1691 H1695 0.930 . S
C1692 C1690 1.356 . S
C1692 C1693 1.348 . S
C1693 C1688 1.353 . S
C1693 C1692 1.348 . S
C1693 H1745 0.929 . S
H1694 C1688 0.930 . S
H1695 C1691 0.930 . S
C1696 N1697 1.314 . S
C1696 C1698 1.353 . S
C1696 H1702 0.930 . S
N1697 Li1673 1.990 . S
N1697 C1696 1.314 . S
N1697 C1700 1.279 . S
C1698 C1696 1.353 . S
C1698 C1701 1.348 . S
C1698 H1746 0.929 . S
C1699 C1700 1.358 . S
C1699 C1701 1.356 . S
C1699 H1747 0.930 . S
C1700 N1697 1.279 . S
C1700 C1699 1.358 . S
C1700 H1703 0.930 . S
C1701 C1698 1.348 . S
C1701 C1699 1.356 . S
H1702 C1696 0.930 . S
H1703 C1700 0.930 . S
C1704 C1706 1.348 1_545 S
C1704 C1707 1.356 . S
C1704 O1734 1.325 . S
N1705 C1708 1.314 . S
N1705 C1709 1.279 . S
C1706 C1704 1.348 1_565 S
C1706 C1708 1.353 . S
C1706 H1748 0.929 . S
C1707 C1704 1.356 . S
C1707 C1709 1.358 1_545 S
C1707 H1749 0.930 . S
C1708 N1705 1.314 . S
C1708 C1706 1.353 . S
C1708 H1750 0.930 . S
C1709 N1705 1.279 . S
C1709 C1707 1.358 1_565 S
C1709 H1751 0.930 . S
C1710 C1711 1.348 . S
C1710 C1712 1.356 . S
C1710 O1735 1.325 . S
C1711 C1710 1.348 . S
C1711 C1713 1.353 . S
C1711 H1752 0.929 . S
C1712 C1710 1.356 . S
C1712 C1714 1.358 . S
C1712 H1753 0.930 . S
C1713 C1711 1.353 . S
C1713 N1715 1.314 . S
C1713 H1754 0.930 . S
C1714 C1712 1.358 . S
C1714 N1715 1.279 . S
C1714 H1755 0.930 . S
N1715 C1713 1.314 . S
N1715 C1714 1.279 . S
C1716 C1718 1.353 . S
C1716 N1719 1.314 . S
C1716 H1722 0.930 . S
C1717 N1719 1.279 . S
C1717 C1720 1.358 . S
C1717 H1723 0.930 . S
C1718 C1716 1.353 . S
C1718 C1721 1.348 . S
C1718 H1756 0.929 . S
N1719 Li1674 1.990 . S
N1719 C1716 1.314 . S
N1719 C1717 1.279 . S
C1720 C1717 1.358 . S
C1720 C1721 1.356 . S
C1720 H1757 0.930 . S
C1721 C1718 1.348 . S
C1721 C1720 1.356 . S
H1722 C1716 0.930 . S
H1723 C1717 0.930 . S
C1724 N1725 1.314 . S
C1724 C1726 1.353 1_545 S
C1724 H1730 0.930 . S
N1725 Li1675 1.990 . S
N1725 C1724 1.314 . S
N1725 C1728 1.279 . S
C1726 C1724 1.353 1_565 S
C1726 C1729 1.348 . S
C1726 H1758 0.929 . S
C1727 C1728 1.358 1_565 S
C1727 C1729 1.356 . S
C1727 H1759 0.930 . S
C1728 N1725 1.279 . S
C1728 C1727 1.358 1_545 S
C1728 H1731 0.930 . S
C1729 C1726 1.348 . S
C1729 C1727 1.356 . S
H1730 C1724 0.930 . S
H1731 C1728 0.930 . S
O1732 Li1672 1.956 . S
O1732 Li1673 1.970 . S
O1732 Li1674 1.961 . S
O1732 C1676 1.325 . S
O1733 Li1672 1.970 . S
O1733 Li1673 1.956 . S
O1733 Li1675 1.961 . S
O1733 C1682 1.325 . S
O1734 Li1672 1.961 . S
O1734 Li1674 1.956 . S
O1734 Li1675 1.970 . S
O1734 C1704 1.325 . S
O1735 Li1673 1.961 . S
O1735 Li1674 1.970 . S
O1735 Li1675 1.956 . S
O1735 C1710 1.325 . S
H1736 C1678 0.929 . S
H1737 C1679 0.930 . S
H1738 C1680 0.930 . S
H1739 C1681 0.930 . S
H1740 C1683 0.930 . S
H1741 C1685 0.929 . S
H1742 C1686 0.930 . S
H1743 C1687 0.930 . S
H1744 C1690 0.930 . S
H1745 C1693 0.929 . S
H1746 C1698 0.929 . S
H1747 C1699 0.930 . S
H1748 C1706 0.929 . S
H1749 C1707 0.930 . S
H1750 C1708 0.930 . S
H1751 C1709 0.930 . S
H1752 C1711 0.929 . S
H1753 C1712 0.930 . S
H1754 C1713 0.930 . S
H1755 C1714 0.930 . S
H1756 C1718 0.929 . S
H1757 C1720 0.930 . S
H1758 C1726 0.929 . S
H1759 C1727 0.930 . S
Li1760 N1777 1.990 . S
Li1760 O1820 1.956 . S
Li1760 O1821 1.970 . S
Li1760 O1822 1.961 . S
Li1761 N1785 1.990 . S
Li1761 O1820 1.970 . S
Li1761 O1821 1.956 . S
Li1761 O1823 1.961 1_554 S
Li1762 N1807 1.990 . S
Li1762 O1820 1.961 1_556 S
Li1762 O1822 1.956 1_556 S
Li1762 O1823 1.970 . S
Li1763 N1813 1.991 1_554 S
Li1763 O1821 1.974 . S
Li1763 O1822 1.970 . S
Li1763 O1823 1.943 1_554 S
C1764 C1766 1.348 . S
C1764 C1767 1.356 . S
C1764 O1820 1.325 . S
N1765 C1768 1.314 . S
N1765 C1769 1.279 . S
C1766 C1764 1.348 . S
C1766 C1768 1.353 . S
C1766 H1824 0.929 . S
C1767 C1764 1.356 . S
C1767 C1769 1.358 . S
C1767 H1825 0.930 . S
C1768 N1765 1.314 . S
C1768 C1766 1.353 . S
C1768 H1826 0.930 . S
C1769 N1765 1.279 . S
C1769 C1767 1.358 . S
C1769 H1827 0.930 . S
C1770 C1773 1.348 . S
C1770 C1774 1.356 . S
C1770 O1821 1.325 . S
C1771 N1772 1.279 . S
C1771 C1774 1.358 . S
C1771 H1828 0.930 . S
N1772 C1771 1.279 . S
N1772 C1775 1.314 . S
C1773 C1770 1.348 . S
C1773 C1775 1.353 . S
C1773 H1829 0.929 . S
C1774 C1770 1.356 . S
C1774 C1771 1.358 . S
C1774 H1830 0.930 . S
C1775 N1772 1.314 . S
C1775 C1773 1.353 . S
C1775 H1831 0.930 . S
C1776 N1777 1.314 . S
C1776 C1781 1.353 . S
C1776 H1782 0.930 . S
N1777 Li1760 1.990 . S
N1777 C1776 1.314 . S
N1777 C1779 1.279 . S
C1778 C1779 1.358 . S
C1778 C1780 1.356 . S
C1778 H1832 0.930 . S
C1779 N1777 1.279 . S
C1779 C1778 1.358 . S
C1779 H1783 0.930 . S
C1780 C1778 1.356 . S
C1780 C1781 1.348 . S
C1781 C1776 1.353 . S
C1781 C1780 1.348 . S
C1781 H1833 0.929 . S
H1782 C1776 0.930 . S
H1783 C1779 0.930 . S
C1784 N1785 1.314 1_556 S
C1784 C1786 1.353 . S
C1784 H1790 0.930 . S
N1785 Li1761 1.990 . S
N1785 C1784 1.314 1_554 S
N1785 C1788 1.279 . S
C1786 C1784 1.353 . S
C1786 C1789 1.348 1_556 S
C1786 H1834 0.929 . S
C1787 C1788 1.358 . S
C1787 C1789 1.356 . S
C1787 H1835 0.930 . S
C1788 N1785 1.279 . S
C1788 C1787 1.358 . S
C1788 H1791 0.930 . S
C1789 C1786 1.348 1_554 S
C1789 C1787 1.356 . S
H1790 C1784 0.930 . S
H1791 C1788 0.930 . S
C1792 C1794 1.348 1_554 S
C1792 C1795 1.356 . S
C1792 O1822 1.325 . S
N1793 C1796 1.314 1_554 S
N1793 C1797 1.279 . S
C1794 C1792 1.348 1_556 S
C1794 C1796 1.353 . S
C1794 H1836 0.929 . S
C1795 C1792 1.356 . S
C1795 C1797 1.358 . S
C1795 H1837 0.930 . S
C1796 N1793 1.314 1_556 S
C1796 C1794 1.353 . S
C1796 H1838 0.930 . S
C1797 N1793 1.279 . S
C1797 C1795 1.358 . S
C1797 H1839 0.930 . S
C1798 C1799 1.348 . S
C1798 C1800 1.356 . S
C1798 O1823 1.325 . S
C1799 C1798 1.348 . S
C1799 C1801 1.353 . S
C1799 H1840 0.929 . S
C1800 C1798 1.356 . S
C1800 C1802 1.358 . S
C1800 H1841 0.930 . S
C1801 C1799 1.353 . S
C1801 N1803 1.314 . S
C1801 H1842 0.930 . S
C1802 C1800 1.358 . S
C1802 N1803 1.279 . S
C1802 H1843 0.930 . S
N1803 C1801 1.314 . S
N1803 C1802 1.279 . S
C1804 C1806 1.353 . S
C1804 N1807 1.314 . S
C1804 H1810 0.930 . S
C1805 N1807 1.279 . S
C1805 C1808 1.358 . S
C1805 H1811 0.930 . S
C1806 C1804 1.353 . S
C1806 C1809 1.348 . S
C1806 H1844 0.929 . S
N1807 Li1762 1.990 . S
N1807 C1804 1.314 . S
N1807 C1805 1.279 . S
C1808 C1805 1.358 . S
C1808 C1809 1.356 . S
C1808 H1845 0.930 . S
C1809 C1806 1.348 . S
C1809 C1808 1.356 . S
H1810 C1804 0.930 . S
H1811 C1805 0.930 . S
C1812 N1813 1.314 1_554 S
C1812 C1814 1.353 . S
C1812 H1818 0.930 . S
N1813 Li1763 1.991 1_556 S
N1813 C1812 1.314 1_556 S
N1813 C1816 1.279 . S
C1814 C1812 1.353 . S
C1814 C1817 1.348 1_554 S
C1814 H1846 0.929 . S
C1815 C1816 1.358 . S
C1815 C1817 1.356 . S
C1815 H1847 0.930 . S
C1816 N1813 1.279 . S
C1816 C1815 1.358 . S
C1816 H1819 0.930 . S
C1817 C1814 1.348 1_556 S
C1817 C1815 1.356 . S
H1818 C1812 0.930 . S
H1819 C1816 0.930 . S
O1820 Li1760 1.956 . S
O1820 Li1761 1.970 . S
O1820 Li1762 1.961 1_554 S
O1820 C1764 1.325 . S
O1821 Li1760 1.970 . S
O1821 Li1761 1.956 . S
O1821 Li1763 1.974 . S
O1821 C1770 1.325 . S
O1822 Li1760 1.961 . S
O1822 Li1762 1.956 1_554 S
O1822 Li1763 1.970 . S
O1822 C1792 1.325 . S
O1823 Li1761 1.961 1_556 S
O1823 Li1762 1.970 . S
O1823 Li1763 1.943 1_556 S
O1823 C1798 1.325 . S
H1824 C1766 0.929 . S
H1825 C1767 0.930 . S
H1826 C1768 0.930 . S
H1827 C1769 0.930 . S
H1828 C1771 0.930 . S
H1829 C1773 0.929 . S
H1830 C1774 0.930 . S
H1831 C1775 0.930 . S
H1832 C1778 0.930 . S
H1833 C1781 0.929 . S
H1834 C1786 0.929 . S
H1835 C1787 0.930 . S
H1836 C1794 0.929 . S
H1837 C1795 0.930 . S
H1838 C1796 0.930 . S
H1839 C1797 0.930 . S
H1840 C1799 0.929 . S
H1841 C1800 0.930 . S
H1842 C1801 0.930 . S
H1843 C1802 0.930 . S
H1844 C1806 0.929 . S
H1845 C1808 0.930 . S
H1846 C1814 0.929 . S
H1847 C1815 0.930 . S
Li1848 N1865 1.990 . S
Li1848 O1908 1.956 . S
Li1848 O1909 1.970 . S
Li1848 O1910 1.961 . S
Li1849 N1873 1.990 . S
Li1849 O1908 1.970 . S
Li1849 O1909 1.956 . S
Li1849 O1911 1.961 . S
Li1850 N1895 1.990 . S
Li1850 O1908 1.961 . S
Li1850 O1910 1.956 . S
Li1850 O1911 1.970 . S
Li1851 N1901 1.990 . S
Li1851 O1909 1.961 . S
Li1851 O1910 1.970 . S
Li1851 O1911 1.956 . S
C1852 C1854 1.348 . S
C1852 C1855 1.356 . S
C1852 O1908 1.325 . S
N1853 C1856 1.314 . S
N1853 C1857 1.279 . S
C1854 C1852 1.348 . S
C1854 C1856 1.353 . S
C1854 H1912 0.929 . S
C1855 C1852 1.356 . S
C1855 C1857 1.358 . S
C1855 H1913 0.930 . S
C1856 N1853 1.314 . S
C1856 C1854 1.353 . S
C1856 H1914 0.930 . S
C1857 N1853 1.279 . S
C1857 C1855 1.358 . S
C1857 H1915 0.930 . S
C1858 C1861 1.348 . S
C1858 C1862 1.356 . S
C1858 O1909 1.325 . S
C1859 N1860 1.279 . S
C1859 C1862 1.358 . S
C1859 H1916 0.930 . S
N1860 C1859 1.279 . S
N1860 C1863 1.314 . S
C1861 C1858 1.348 . S
C1861 C1863 1.353 . S
C1861 H1917 0.929 . S
C1862 C1858 1.356 . S
C1862 C1859 1.358 . S
C1862 H1918 0.930 . S
C1863 N1860 1.314 . S
C1863 C1861 1.353 . S
C1863 H1919 0.930 . S
C1864 N1865 1.314 . S
C1864 C1869 1.353 . S
C1864 H1870 0.930 . S
N1865 Li1848 1.990 . S
N1865 C1864 1.314 . S
N1865 C1867 1.279 . S
C1866 C1867 1.358 . S
C1866 C1868 1.356 . S
C1866 H1920 0.930 . S
C1867 N1865 1.279 . S
C1867 C1866 1.358 . S
C1867 H1871 0.930 . S
C1868 C1866 1.356 . S
C1868 C1869 1.348 . S
C1869 C1864 1.353 . S
C1869 C1868 1.348 . S
C1869 H1921 0.929 . S
H1870 C1864 0.930 . S
H1871 C1867 0.930 . S
C1872 N1873 1.314 . S
C1872 C1874 1.353 . S
C1872 H1878 0.930 . S
N1873 Li1849 1.990 . S
N1873 C1872 1.314 . S
N1873 C1876 1.279 . S
C1874 C1872 1.353 . S
C1874 C1877 1.348 . S
C1874 H1922 0.929 . S
C1875 C1876 1.358 . S
C1875 C1877 1.356 . S
C1875 H1923 0.930 . S
C1876 N1873 1.279 . S
C1876 C1875 1.358 . S
C1876 H1879 0.930 . S
C1877 C1874 1.348 . S
C1877 C1875 1.356 . S
H1878 C1872 0.930 . S
H1879 C1876 0.930 . S
C1880 C1882 1.348 . S
C1880 C1883 1.356 . S
C1880 O1910 1.325 . S
N1881 C1884 1.314 . S
N1881 C1885 1.279 . S
C1882 C1880 1.348 . S
C1882 C1884 1.353 . S
C1882 H1924 0.929 . S
C1883 C1880 1.356 . S
C1883 C1885 1.358 . S
C1883 H1925 0.930 . S
C1884 N1881 1.314 . S
C1884 C1882 1.353 . S
C1884 H1926 0.930 . S
C1885 N1881 1.279 . S
C1885 C1883 1.358 . S
C1885 H1927 0.930 . S
C1886 C1887 1.348 . S
C1886 C1888 1.356 . S
C1886 O1911 1.325 . S
C1887 C1886 1.348 . S
C1887 C1889 1.353 . S
C1887 H1928 0.929 . S
C1888 C1886 1.356 . S
C1888 C1890 1.358 . S
C1888 H1929 0.930 . S
C1889 C1887 1.353 . S
C1889 N1891 1.314 . S
C1889 H1930 0.930 . S
C1890 C1888 1.358 . S
C1890 N1891 1.279 . S
C1890 H1931 0.930 . S
N1891 C1889 1.314 . S
N1891 C1890 1.279 . S
C1892 C1894 1.353 . S
C1892 N1895 1.314 . S
C1892 H1898 0.930 . S
C1893 N1895 1.279 . S
C1893 C1896 1.358 . S
C1893 H1899 0.930 . S
C1894 C1892 1.353 . S
C1894 C1897 1.348 . S
C1894 H1932 0.929 . S
N1895 Li1850 1.990 . S
N1895 C1892 1.314 . S
N1895 C1893 1.279 . S
C1896 C1893 1.358 . S
C1896 C1897 1.356 . S
C1896 H1933 0.930 . S
C1897 C1894 1.348 . S
C1897 C1896 1.356 . S
H1898 C1892 0.930 . S
H1899 C1893 0.930 . S
C1900 N1901 1.314 . S
C1900 C1902 1.353 . S
C1900 H1906 0.930 . S
N1901 Li1851 1.990 . S
N1901 C1900 1.314 . S
N1901 C1904 1.279 . S
C1902 C1900 1.353 . S
C1902 C1905 1.348 . S
C1902 H1934 0.929 . S
C1903 C1904 1.358 . S
C1903 C1905 1.356 . S
C1903 H1935 0.930 . S
C1904 N1901 1.279 . S
C1904 C1903 1.358 . S
C1904 H1907 0.930 . S
C1905 C1902 1.348 . S
C1905 C1903 1.356 . S
H1906 C1900 0.930 . S
H1907 C1904 0.930 . S
O1908 Li1848 1.956 . S
O1908 Li1849 1.970 . S
O1908 Li1850 1.961 . S
O1908 C1852 1.325 . S
O1909 Li1848 1.970 . S
O1909 Li1849 1.956 . S
O1909 Li1851 1.961 . S
O1909 C1858 1.325 . S
O1910 Li1848 1.961 . S
O1910 Li1850 1.956 . S
O1910 Li1851 1.970 . S
O1910 C1880 1.325 . S
O1911 Li1849 1.961 . S
O1911 Li1850 1.970 . S
O1911 Li1851 1.956 . S
O1911 C1886 1.325 . S
H1912 C1854 0.929 . S
H1913 C1855 0.930 . S
H1914 C1856 0.930 . S
H1915 C1857 0.930 . S
H1916 C1859 0.930 . S
H1917 C1861 0.929 . S
H1918 C1862 0.930 . S
H1919 C1863 0.930 . S
H1920 C1866 0.930 . S
H1921 C1869 0.929 . S
H1922 C1874 0.929 . S
H1923 C1875 0.930 . S
H1924 C1882 0.929 . S
H1925 C1883 0.930 . S
H1926 C1884 0.930 . S
H1927 C1885 0.930 . S
H1928 C1887 0.929 . S
H1929 C1888 0.930 . S
H1930 C1889 0.930 . S
H1931 C1890 0.930 . S
H1932 C1894 0.929 . S
H1933 C1896 0.930 . S
H1934 C1902 0.929 . S
H1935 C1903 0.930 . S
Li1936 N1953 1.990 . S
Li1936 O1996 1.956 . S
Li1936 O1997 1.970 . S
Li1936 O1998 1.961 . S
Li1937 N1961 1.990 . S
Li1937 O1996 1.970 . S
Li1937 O1997 1.956 . S
Li1937 O1999 1.961 . S
Li1938 N1983 1.990 . S
Li1938 O1996 1.961 . S
Li1938 O1998 1.956 . S
Li1938 O1999 1.970 . S
Li1939 N1989 1.990 . S
Li1939 O1997 1.961 . S
Li1939 O1998 1.970 . S
Li1939 O1999 1.956 . S
C1940 C1942 1.348 . S
C1940 C1943 1.356 . S
C1940 O1996 1.325 . S
N1941 C1944 1.314 . S
N1941 C1945 1.279 . S
C1942 C1940 1.348 . S
C1942 C1944 1.353 . S
C1942 H2000 0.929 . S
C1943 C1940 1.356 . S
C1943 C1945 1.358 . S
C1943 H2001 0.930 . S
C1944 N1941 1.314 . S
C1944 C1942 1.353 . S
C1944 H2002 0.930 . S
C1945 N1941 1.279 . S
C1945 C1943 1.358 . S
C1945 H2003 0.930 . S
C1946 C1949 1.348 . S
C1946 C1950 1.356 . S
C1946 O1997 1.325 . S
C1947 N1948 1.279 . S
C1947 C1950 1.358 . S
C1947 H2004 0.930 . S
N1948 C1947 1.279 . S
N1948 C1951 1.314 . S
C1949 C1946 1.348 . S
C1949 C1951 1.353 . S
C1949 H2005 0.929 . S
C1950 C1946 1.356 . S
C1950 C1947 1.358 . S
C1950 H2006 0.930 . S
C1951 N1948 1.314 . S
C1951 C1949 1.353 . S
C1951 H2007 0.930 . S
C1952 N1953 1.314 . S
C1952 C1957 1.353 . S
C1952 H1958 0.930 . S
N1953 Li1936 1.990 . S
N1953 C1952 1.314 . S
N1953 C1955 1.279 . S
C1954 C1955 1.358 . S
C1954 C1956 1.356 . S
C1954 H2008 0.930 . S
C1955 N1953 1.279 . S
C1955 C1954 1.358 . S
C1955 H1959 0.930 . S
C1956 C1954 1.356 . S
C1956 C1957 1.348 . S
C1957 C1952 1.353 . S
C1957 C1956 1.348 . S
C1957 H2009 0.929 . S
H1958 C1952 0.930 . S
H1959 C1955 0.930 . S
C1960 N1961 1.314 . S
C1960 C1962 1.353 . S
C1960 H1966 0.930 . S
N1961 Li1937 1.990 . S
N1961 C1960 1.314 . S
N1961 C1964 1.279 . S
C1962 C1960 1.353 . S
C1962 C1965 1.348 . S
C1962 H2010 0.929 . S
C1963 C1964 1.358 . S
C1963 C1965 1.356 . S
C1963 H2011 0.930 . S
C1964 N1961 1.279 . S
C1964 C1963 1.358 . S
C1964 H1967 0.930 . S
C1965 C1962 1.348 . S
C1965 C1963 1.356 . S
H1966 C1960 0.930 . S
H1967 C1964 0.930 . S
C1968 C1970 1.348 . S
C1968 C1971 1.356 . S
C1968 O1998 1.325 . S
N1969 C1972 1.314 . S
N1969 C1973 1.279 . S
C1970 C1968 1.348 . S
C1970 C1972 1.353 . S
C1970 H2012 0.929 . S
C1971 C1968 1.356 . S
C1971 C1973 1.358 . S
C1971 H2013 0.930 . S
C1972 N1969 1.314 . S
C1972 C1970 1.353 . S
C1972 H2014 0.930 . S
C1973 N1969 1.279 . S
C1973 C1971 1.358 . S
C1973 H2015 0.930 . S
C1974 C1975 1.348 . S
C1974 C1976 1.356 . S
C1974 O1999 1.325 . S
C1975 C1974 1.348 . S
C1975 C1977 1.353 . S
C1975 H2016 0.929 . S
C1976 C1974 1.356 . S
C1976 C1978 1.358 . S
C1976 H2017 0.930 . S
C1977 C1975 1.353 . S
C1977 N1979 1.314 . S
C1977 H2018 0.930 . S
C1978 C1976 1.358 . S
C1978 N1979 1.279 . S
C1978 H2019 0.930 . S
N1979 C1977 1.314 . S
N1979 C1978 1.279 . S
C1980 C1982 1.353 . S
C1980 N1983 1.314 . S
C1980 H1986 0.930 . S
C1981 N1983 1.279 . S
C1981 C1984 1.358 . S
C1981 H1987 0.930 . S
C1982 C1980 1.353 . S
C1982 C1985 1.348 . S
C1982 H2020 0.929 . S
N1983 Li1938 1.990 . S
N1983 C1980 1.314 . S
N1983 C1981 1.279 . S
C1984 C1981 1.358 . S
C1984 C1985 1.356 . S
C1984 H2021 0.930 . S
C1985 C1982 1.348 . S
C1985 C1984 1.356 . S
H1986 C1980 0.930 . S
H1987 C1981 0.930 . S
C1988 N1989 1.314 . S
C1988 C1990 1.353 . S
C1988 H1994 0.930 . S
N1989 Li1939 1.990 . S
N1989 C1988 1.314 . S
N1989 C1992 1.279 . S
C1990 C1988 1.353 . S
C1990 C1993 1.348 . S
C1990 H2022 0.929 . S
C1991 C1992 1.358 . S
C1991 C1993 1.356 . S
C1991 H2023 0.930 . S
C1992 N1989 1.279 . S
C1992 C1991 1.358 . S
C1992 H1995 0.930 . S
C1993 C1990 1.348 . S
C1993 C1991 1.356 . S
H1994 C1988 0.930 . S
H1995 C1992 0.930 . S
O1996 Li1936 1.956 . S
O1996 Li1937 1.970 . S
O1996 Li1938 1.961 . S
O1996 C1940 1.325 . S
O1997 Li1936 1.970 . S
O1997 Li1937 1.956 . S
O1997 Li1939 1.961 . S
O1997 C1946 1.325 . S
O1998 Li1936 1.961 . S
O1998 Li1938 1.956 . S
O1998 Li1939 1.970 . S
O1998 C1968 1.325 . S
O1999 Li1937 1.961 . S
O1999 Li1938 1.970 . S
O1999 Li1939 1.956 . S
O1999 C1974 1.325 . S
H2000 C1942 0.929 . S
H2001 C1943 0.930 . S
H2002 C1944 0.930 . S
H2003 C1945 0.930 . S
H2004 C1947 0.930 . S
H2005 C1949 0.929 . S
H2006 C1950 0.930 . S
H2007 C1951 0.930 . S
H2008 C1954 0.930 . S
H2009 C1957 0.929 . S
H2010 C1962 0.929 . S
H2011 C1963 0.930 . S
H2012 C1970 0.929 . S
H2013 C1971 0.930 . S
H2014 C1972 0.930 . S
H2015 C1973 0.930 . S
H2016 C1975 0.929 . S
H2017 C1976 0.930 . S
H2018 C1977 0.930 . S
H2019 C1978 0.930 . S
H2020 C1982 0.929 . S
H2021 C1984 0.930 . S
H2022 C1990 0.929 . S
H2023 C1991 0.930 . S
Li2024 N2041 1.990 . S
Li2024 O2084 1.956 . S
Li2024 O2085 1.970 . S
Li2024 O2086 1.961 . S
Li2025 N2049 1.990 . S
Li2025 O2084 1.970 . S
Li2025 O2085 1.956 . S
Li2025 O2087 1.961 . S
Li2026 N2071 1.990 . S
Li2026 O2084 1.961 . S
Li2026 O2086 1.956 . S
Li2026 O2087 1.970 . S
Li2027 N2077 1.990 . S
Li2027 O2085 1.961 . S
Li2027 O2086 1.970 . S
Li2027 O2087 1.956 . S
C2028 C2030 1.348 . S
C2028 C2031 1.356 . S
C2028 O2084 1.325 . S
N2029 C2032 1.314 . S
N2029 C2033 1.279 . S
C2030 C2028 1.348 . S
C2030 C2032 1.353 . S
C2030 H2088 0.929 . S
C2031 C2028 1.356 . S
C2031 C2033 1.358 . S
C2031 H2089 0.930 . S
C2032 N2029 1.314 . S
C2032 C2030 1.353 . S
C2032 H2090 0.930 . S
C2033 N2029 1.279 . S
C2033 C2031 1.358 . S
C2033 H2091 0.930 . S
C2034 C2037 1.348 . S
C2034 C2038 1.356 . S
C2034 O2085 1.325 . S
C2035 N2036 1.279 . S
C2035 C2038 1.358 . S
C2035 H2092 0.930 . S
N2036 C2035 1.279 . S
N2036 C2039 1.314 . S
C2037 C2034 1.348 . S
C2037 C2039 1.353 . S
C2037 H2093 0.929 . S
C2038 C2034 1.356 . S
C2038 C2035 1.358 . S
C2038 H2094 0.930 . S
C2039 N2036 1.314 . S
C2039 C2037 1.353 . S
C2039 H2095 0.930 . S
C2040 N2041 1.314 . S
C2040 C2045 1.353 . S
C2040 H2046 0.930 . S
N2041 Li2024 1.990 . S
N2041 C2040 1.314 . S
N2041 C2043 1.279 . S
C2042 C2043 1.358 . S
C2042 C2044 1.356 . S
C2042 H2096 0.930 . S
C2043 N2041 1.279 . S
C2043 C2042 1.358 . S
C2043 H2047 0.930 . S
C2044 C2042 1.356 . S
C2044 C2045 1.348 . S
C2045 C2040 1.353 . S
C2045 C2044 1.348 . S
C2045 H2097 0.929 . S
H2046 C2040 0.930 . S
H2047 C2043 0.930 . S
C2048 N2049 1.314 . S
C2048 C2050 1.353 . S
C2048 H2054 0.930 . S
N2049 Li2025 1.990 . S
N2049 C2048 1.314 . S
N2049 C2052 1.279 . S
C2050 C2048 1.353 . S
C2050 C2053 1.348 . S
C2050 H2098 0.929 . S
C2051 C2052 1.358 . S
C2051 C2053 1.356 . S
C2051 H2099 0.930 . S
C2052 N2049 1.279 . S
C2052 C2051 1.358 . S
C2052 H2055 0.930 . S
C2053 C2050 1.348 . S
C2053 C2051 1.356 . S
H2054 C2048 0.930 . S
H2055 C2052 0.930 . S
C2056 C2058 1.348 . S
C2056 C2059 1.356 . S
C2056 O2086 1.325 . S
N2057 C2060 1.314 . S
N2057 C2061 1.279 . S
C2058 C2056 1.348 . S
C2058 C2060 1.353 . S
C2058 H2100 0.929 . S
C2059 C2056 1.356 . S
C2059 C2061 1.358 . S
C2059 H2101 0.930 . S
C2060 N2057 1.314 . S
C2060 C2058 1.353 . S
C2060 H2102 0.930 . S
C2061 N2057 1.279 . S
C2061 C2059 1.358 . S
C2061 H2103 0.930 . S
C2062 C2063 1.348 . S
C2062 C2064 1.356 . S
C2062 O2087 1.325 . S
C2063 C2062 1.348 . S
C2063 C2065 1.353 . S
C2063 H2104 0.929 . S
C2064 C2062 1.356 . S
C2064 C2066 1.358 . S
C2064 H2105 0.930 . S
C2065 C2063 1.353 . S
C2065 N2067 1.314 . S
C2065 H2106 0.930 . S
C2066 C2064 1.358 . S
C2066 N2067 1.279 . S
C2066 H2107 0.930 . S
N2067 C2065 1.314 . S
N2067 C2066 1.279 . S
C2068 C2070 1.353 . S
C2068 N2071 1.314 . S
C2068 H2074 0.930 . S
C2069 N2071 1.279 . S
C2069 C2072 1.358 . S
C2069 H2075 0.930 . S
C2070 C2068 1.353 . S
C2070 C2073 1.348 . S
C2070 H2108 0.929 . S
N2071 Li2026 1.990 . S
N2071 C2068 1.314 . S
N2071 C2069 1.279 . S
C2072 C2069 1.358 . S
C2072 C2073 1.356 . S
C2072 H2109 0.930 . S
C2073 C2070 1.348 . S
C2073 C2072 1.356 . S
H2074 C2068 0.930 . S
H2075 C2069 0.930 . S
C2076 N2077 1.314 . S
C2076 C2078 1.353 . S
C2076 H2082 0.930 . S
N2077 Li2027 1.990 . S
N2077 C2076 1.314 . S
N2077 C2080 1.279 . S
C2078 C2076 1.353 . S
C2078 C2081 1.348 . S
C2078 H2110 0.929 . S
C2079 C2080 1.358 . S
C2079 C2081 1.356 . S
C2079 H2111 0.930 . S
C2080 N2077 1.279 . S
C2080 C2079 1.358 . S
C2080 H2083 0.930 . S
C2081 C2078 1.348 . S
C2081 C2079 1.356 . S
H2082 C2076 0.930 . S
H2083 C2080 0.930 . S
O2084 Li2024 1.956 . S
O2084 Li2025 1.970 . S
O2084 Li2026 1.961 . S
O2084 C2028 1.325 . S
O2085 Li2024 1.970 . S
O2085 Li2025 1.956 . S
O2085 Li2027 1.961 . S
O2085 C2034 1.325 . S
O2086 Li2024 1.961 . S
O2086 Li2026 1.956 . S
O2086 Li2027 1.970 . S
O2086 C2056 1.325 . S
O2087 Li2025 1.961 . S
O2087 Li2026 1.970 . S
O2087 Li2027 1.956 . S
O2087 C2062 1.325 . S
H2088 C2030 0.929 . S
H2089 C2031 0.930 . S
H2090 C2032 0.930 . S
H2091 C2033 0.930 . S
H2092 C2035 0.930 . S
H2093 C2037 0.929 . S
H2094 C2038 0.930 . S
H2095 C2039 0.930 . S
H2096 C2042 0.930 . S
H2097 C2045 0.929 . S
H2098 C2050 0.929 . S
H2099 C2051 0.930 . S
H2100 C2058 0.929 . S
H2101 C2059 0.930 . S
H2102 C2060 0.930 . S
H2103 C2061 0.930 . S
H2104 C2063 0.929 . S
H2105 C2064 0.930 . S
H2106 C2065 0.930 . S
H2107 C2066 0.930 . S
H2108 C2070 0.929 . S
H2109 C2072 0.930 . S
H2110 C2078 0.929 . S
H2111 C2079 0.930 . S
Gd2112 C2115 2.818 1_455 S
Gd2112 O2132 2.377 . S
Gd2112 O2134 2.448 1_455 S
Gd2112 O2135 2.506 1_456 S
Gd2112 O2136 2.435 . S
Gd2112 O2137 2.717 . S
Gd2112 O2139 2.395 1_546 S
Gd2112 O2143 2.327 1_556 S
Gd2113 C2124 2.818 . S
Gd2113 O2133 2.395 . S
Gd2113 O2137 2.327 1_554 S
Gd2113 O2138 2.377 . S
Gd2113 O2140 2.448 . S
Gd2113 O2141 2.506 . S
Gd2113 O2142 2.435 . S
Gd2113 O2143 2.717 . S
C2114 O2132 1.240 1_554 S
C2114 O2133 1.240 . S
C2115 Gd2112 2.818 1_655 S
C2115 C2116 1.510 . S
C2115 O2134 1.249 . S
C2115 O2135 1.252 1_556 S
C2116 C2115 1.510 . S
C2116 C2117 1.404 . S
C2116 C2118 1.352 1_556 S
C2117 C2116 1.404 . S
C2117 C2121 1.389 . S
C2117 H2144 0.930 . S
C2118 C2116 1.352 1_554 S
C2118 C2120 1.374 1_554 S
C2118 H2145 0.931 . S
C2119 C2120 1.359 . S
C2119 C2121 1.364 . S
C2120 C2118 1.374 1_556 S
C2120 C2119 1.359 . S
C2120 H2146 0.931 1_556 S
C2121 C2117 1.389 . S
C2121 C2119 1.364 . S
C2121 H2147 0.931 . S
C2122 O2136 1.256 . S
C2122 O2137 1.257 . S
C2123 O2138 1.240 1_565 S
C2123 O2139 1.240 . S
C2124 Gd2113 2.818 . S
C2124 C2125 1.510 . S
C2124 O2140 1.249 . S
C2124 O2141 1.252 . S
C2125 C2124 1.510 . S
C2125 C2126 1.404 . S
C2125 C2127 1.352 . S
C2126 C2125 1.404 . S
C2126 C2130 1.389 . S
C2126 H2148 0.930 . S
C2127 C2125 1.352 . S
C2127 C2129 1.374 1_545 S
C2127 H2149 0.932 1_545 S
C2128 C2129 1.359 1_545 S
C2128 C2130 1.376 . S
C2129 C2127 1.374 1_565 S
C2129 C2128 1.359 1_565 S
C2129 H2150 0.931 . S
C2130 C2126 1.389 . S
C2130 C2128 1.376 . S
C2130 H2151 0.931 . S
C2131 O2142 1.256 . S
C2131 O2143 1.257 . S
O2132 Gd2112 2.377 . S
O2132 C2114 1.240 1_556 S
O2133 Gd2113 2.395 . S
O2133 C2114 1.240 . S
O2134 Gd2112 2.448 1_655 S
O2134 C2115 1.249 . S
O2135 Gd2112 2.506 1_654 S
O2135 C2115 1.252 1_554 S
O2136 Gd2112 2.435 . S
O2136 C2122 1.256 . S
O2137 Gd2112 2.717 . S
O2137 Gd2113 2.327 1_556 S
O2137 C2122 1.257 . S
O2138 Gd2113 2.377 . S
O2138 C2123 1.240 1_545 S
O2139 Gd2112 2.395 1_564 S
O2139 C2123 1.240 . S
O2140 Gd2113 2.448 . S
O2140 C2124 1.249 . S
O2141 Gd2113 2.506 . S
O2141 C2124 1.252 . S
O2142 Gd2113 2.435 . S
O2142 C2131 1.256 . S
O2143 Gd2112 2.327 1_554 S
O2143 Gd2113 2.717 . S
O2143 C2131 1.257 . S
H2144 C2117 0.930 . S
H2145 C2118 0.931 . S
H2146 C2120 0.931 1_554 S
H2147 C2121 0.931 . S
H2148 C2126 0.930 . S
H2149 C2127 0.932 1_565 S
H2150 C2129 0.931 . S
H2151 C2130 0.931 . S
Gd2152 C2155 2.818 . S
Gd2152 O2172 2.377 . S
Gd2152 O2174 2.448 . S
Gd2152 O2175 2.506 . S
Gd2152 O2176 2.435 . S
Gd2152 O2177 2.717 . S
Gd2152 O2179 2.395 . S
Gd2152 O2183 2.327 . S
Gd2153 C2164 2.818 . S
Gd2153 O2173 2.395 . S
Gd2153 O2177 2.327 . S
Gd2153 O2178 2.377 . S
Gd2153 O2180 2.448 . S
Gd2153 O2181 2.506 . S
Gd2153 O2182 2.435 . S
Gd2153 O2183 2.717 . S
C2154 O2172 1.240 . S
C2154 O2173 1.240 . S
C2155 Gd2152 2.818 . S
C2155 C2156 1.510 . S
C2155 O2174 1.249 . S
C2155 O2175 1.252 . S
C2156 C2155 1.510 . S
C2156 C2157 1.404 . S
C2156 C2158 1.352 . S
C2157 C2156 1.404 . S
C2157 C2161 1.389 . S
C2157 H2184 0.930 . S
C2158 C2156 1.352 . S
C2158 C2160 1.374 . S
C2158 H2185 0.931 . S
C2159 C2160 1.359 . S
C2159 C2161 1.364 . S
C2160 C2158 1.374 . S
C2160 C2159 1.359 . S
C2160 H2186 0.931 . S
C2161 C2157 1.389 . S
C2161 C2159 1.364 . S
C2161 H2187 0.931 . S
C2162 O2176 1.256 . S
C2162 O2177 1.257 . S
C2163 O2178 1.240 . S
C2163 O2179 1.240 . S
C2164 Gd2153 2.818 . S
C2164 C2165 1.510 . S
C2164 O2180 1.249 . S
C2164 O2181 1.252 . S
C2165 C2164 1.510 . S
C2165 C2166 1.404 . S
C2165 C2167 1.352 . S
C2166 C2165 1.404 . S
C2166 C2170 1.389 . S
C2166 H2188 0.930 . S
C2167 C2165 1.352 . S
C2167 C2169 1.374 . S
C2167 H2189 0.931 . S
C2168 C2169 1.359 . S
C2168 C2170 1.364 . S
C2169 C2167 1.374 . S
C2169 C2168 1.359 . S
C2169 H2190 0.931 . S
C2170 C2166 1.389 . S
C2170 C2168 1.364 . S
C2170 H2191 0.931 . S
C2171 O2182 1.256 . S
C2171 O2183 1.257 . S
O2172 Gd2152 2.377 . S
O2172 C2154 1.240 . S
O2173 Gd2153 2.395 . S
O2173 C2154 1.240 . S
O2174 Gd2152 2.448 . S
O2174 C2155 1.249 . S
O2175 Gd2152 2.506 . S
O2175 C2155 1.252 . S
O2176 Gd2152 2.435 . S
O2176 C2162 1.256 . S
O2177 Gd2152 2.717 . S
O2177 Gd2153 2.327 . S
O2177 C2162 1.257 . S
O2178 Gd2153 2.377 . S
O2178 C2163 1.240 . S
O2179 Gd2152 2.395 . S
O2179 C2163 1.240 . S
O2180 Gd2153 2.448 . S
O2180 C2164 1.249 . S
O2181 Gd2153 2.506 . S
O2181 C2164 1.252 . S
O2182 Gd2153 2.435 . S
O2182 C2171 1.256 . S
O2183 Gd2152 2.327 . S
O2183 Gd2153 2.717 . S
O2183 C2171 1.257 . S
H2184 C2157 0.930 . S
H2185 C2158 0.931 . S
H2186 C2160 0.931 . S
H2187 C2161 0.931 . S
H2188 C2166 0.930 . S
H2189 C2167 0.931 . S
H2190 C2169 0.931 . S
H2191 C2170 0.931 . S
Gd2192 C2195 2.818 . S
Gd2192 O2212 2.413 . S
Gd2192 O2214 2.448 . S
Gd2192 O2215 2.506 . S
Gd2192 O2216 2.435 . S
Gd2192 O2217 2.717 . S
Gd2192 O2219 2.395 . S
Gd2192 O2223 2.327 . S
Gd2193 C2204 2.818 . S
Gd2193 O2213 2.395 1_545 S
Gd2193 O2217 2.327 . S
Gd2193 O2218 2.377 . S
Gd2193 O2220 2.448 . S
Gd2193 O2221 2.506 . S
Gd2193 O2222 2.435 . S
Gd2193 O2223 2.717 . S
C2194 O2212 1.219 1_565 S
C2194 O2213 1.240 . S
C2195 Gd2192 2.818 . S
C2195 C2196 1.510 1_545 S
C2195 O2214 1.249 . S
C2195 O2215 1.252 . S
C2196 C2195 1.510 1_565 S
C2196 C2197 1.404 . S
C2196 C2198 1.352 . S
C2197 C2196 1.404 . S
C2197 C2201 1.389 . S
C2197 H2224 0.930 1_565 S
C2198 C2196 1.352 . S
C2198 C2200 1.374 . S
C2198 H2225 0.931 . S
C2199 C2200 1.359 . S
C2199 C2201 1.364 . S
C2200 C2198 1.374 . S
C2200 C2199 1.359 . S
C2200 H2226 0.931 . S
C2201 C2197 1.389 . S
C2201 C2199 1.364 . S
C2201 H2227 0.931 . S
C2202 O2216 1.256 . S
C2202 O2217 1.257 . S
C2203 O2218 1.240 . S
C2203 O2219 1.240 . S
C2204 Gd2193 2.818 . S
C2204 C2205 1.510 . S
C2204 O2220 1.249 . S
C2204 O2221 1.252 . S
C2205 C2204 1.510 . S
C2205 C2206 1.404 . S
C2205 C2207 1.352 . S
C2206 C2205 1.404 . S
C2206 C2210 1.389 . S
C2206 H2228 0.930 . S
C2207 C2205 1.352 . S
C2207 C2209 1.374 . S
C2207 H2229 0.931 . S
C2208 C2209 1.359 . S
C2208 C2210 1.364 . S
C2209 C2207 1.374 . S
C2209 C2208 1.359 . S
C2209 H2230 0.931 . S
C2210 C2206 1.389 . S
C2210 C2208 1.364 . S
C2210 H2231 0.931 . S
C2211 O2222 1.256 . S
C2211 O2223 1.257 . S
O2212 Gd2192 2.413 . S
O2212 C2194 1.219 1_545 S
O2213 Gd2193 2.395 1_565 S
O2213 C2194 1.240 . S
O2214 Gd2192 2.448 . S
O2214 C2195 1.249 . S
O2215 Gd2192 2.506 . S
O2215 C2195 1.252 . S
O2216 Gd2192 2.435 . S
O2216 C2202 1.256 . S
O2217 Gd2192 2.717 . S
O2217 Gd2193 2.327 . S
O2217 C2202 1.257 . S
O2218 Gd2193 2.377 . S
O2218 C2203 1.240 . S
O2219 Gd2192 2.395 . S
O2219 C2203 1.240 . S
O2220 Gd2193 2.448 . S
O2220 C2204 1.249 . S
O2221 Gd2193 2.506 . S
O2221 C2204 1.252 . S
O2222 Gd2193 2.435 . S
O2222 C2211 1.256 . S
O2223 Gd2192 2.327 . S
O2223 Gd2193 2.717 . S
O2223 C2211 1.257 . S
H2224 C2197 0.930 1_545 S
H2225 C2198 0.931 . S
H2226 C2200 0.931 . S
H2227 C2201 0.931 . S
H2228 C2206 0.930 . S
H2229 C2207 0.931 . S
H2230 C2209 0.931 . S
H2231 C2210 0.931 . S
Gd2232 C2235 2.818 . S
Gd2232 O2252 2.377 . S
Gd2232 O2254 2.448 . S
Gd2232 O2255 2.506 . S
Gd2232 O2256 2.435 . S
Gd2232 O2257 2.717 . S
Gd2232 O2259 2.395 . S
Gd2232 O2263 2.327 . S
Gd2233 C2244 2.818 . S
Gd2233 O2253 2.395 . S
Gd2233 O2257 2.327 . S
Gd2233 O2258 2.377 . S
Gd2233 O2260 2.448 . S
Gd2233 O2261 2.506 . S
Gd2233 O2262 2.435 . S
Gd2233 O2263 2.717 . S
C2234 O2252 1.240 . S
C2234 O2253 1.240 . S
C2235 Gd2232 2.818 . S
C2235 C2236 1.510 . S
C2235 O2254 1.249 . S
C2235 O2255 1.252 . S
C2236 C2235 1.510 . S
C2236 C2237 1.404 . S
C2236 C2238 1.352 . S
C2237 C2236 1.404 . S
C2237 C2241 1.389 . S
C2237 H2264 0.930 . S
C2238 C2236 1.352 . S
C2238 C2240 1.374 . S
C2238 H2265 0.931 . S
C2239 C2240 1.359 . S
C2239 C2241 1.364 . S
C2240 C2238 1.374 . S
C2240 C2239 1.359 . S
C2240 H2266 0.931 . S
C2241 C2237 1.389 . S
C2241 C2239 1.364 . S
C2241 H2267 0.931 . S
C2242 O2256 1.256 . S
C2242 O2257 1.257 . S
C2243 O2258 1.240 . S
C2243 O2259 1.240 . S
C2244 Gd2233 2.818 . S
C2244 C2245 1.510 . S
C2244 O2260 1.249 . S
C2244 O2261 1.252 . S
C2245 C2244 1.510 . S
C2245 C2246 1.404 . S
C2245 C2247 1.352 . S
C2246 C2245 1.404 . S
C2246 C2250 1.389 . S
C2246 H2268 0.930 . S
C2247 C2245 1.352 . S
C2247 C2249 1.374 . S
C2247 H2269 0.931 . S
C2248 C2249 1.359 . S
C2248 C2250 1.364 . S
C2249 C2247 1.374 . S
C2249 C2248 1.359 . S
C2249 H2270 0.931 . S
C2250 C2246 1.389 . S
C2250 C2248 1.364 . S
C2250 H2271 0.931 . S
C2251 O2262 1.256 . S
C2251 O2263 1.257 . S
O2252 Gd2232 2.377 . S
O2252 C2234 1.240 . S
O2253 Gd2233 2.395 . S
O2253 C2234 1.240 . S
O2254 Gd2232 2.448 . S
O2254 C2235 1.249 . S
O2255 Gd2232 2.506 . S
O2255 C2235 1.252 . S
O2256 Gd2232 2.435 . S
O2256 C2242 1.256 . S
O2257 Gd2232 2.717 . S
O2257 Gd2233 2.327 . S
O2257 C2242 1.257 . S
O2258 Gd2233 2.377 . S
O2258 C2243 1.240 . S
O2259 Gd2232 2.395 . S
O2259 C2243 1.240 . S
O2260 Gd2233 2.448 . S
O2260 C2244 1.249 . S
O2261 Gd2233 2.506 . S
O2261 C2244 1.252 . S
O2262 Gd2233 2.435 . S
O2262 C2251 1.256 . S
O2263 Gd2232 2.327 . S
O2263 Gd2233 2.717 . S
O2263 C2251 1.257 . S
H2264 C2237 0.930 . S
H2265 C2238 0.931 . S
H2266 C2240 0.931 . S
H2267 C2241 0.931 . S
H2268 C2246 0.930 . S
H2269 C2247 0.931 . S
H2270 C2249 0.931 . S
H2271 C2250 0.931 . S
Gd2272 C2275 2.818 . S
Gd2272 O2292 2.377 . S
Gd2272 O2294 2.448 . S
Gd2272 O2295 2.506 . S
Gd2272 O2296 2.435 . S
Gd2272 O2297 2.717 . S
Gd2272 O2299 2.395 . S
Gd2272 O2303 2.327 . S
Gd2273 C2284 2.818 1_545 S
Gd2273 O2293 2.395 . S
Gd2273 O2297 2.327 . S
Gd2273 O2298 2.377 . S
Gd2273 O2300 2.448 1_545 S
Gd2273 O2301 2.506 1_545 S
Gd2273 O2302 2.435 . S
Gd2273 O2303 2.717 . S
C2274 O2292 1.240 . S
C2274 O2293 1.240 . S
C2275 Gd2272 2.818 . S
C2275 C2276 1.510 . S
C2275 O2294 1.249 . S
C2275 O2295 1.252 . S
C2276 C2275 1.510 . S
C2276 C2277 1.404 . S
C2276 C2278 1.352 . S
C2277 C2276 1.404 . S
C2277 C2281 1.389 . S
C2277 H2304 0.930 . S
C2278 C2276 1.352 . S
C2278 C2280 1.374 . S
C2278 H2305 0.931 . S
C2279 C2280 1.359 . S
C2279 C2281 1.364 . S
C2280 C2278 1.374 . S
C2280 C2279 1.359 . S
C2280 H2306 0.931 . S
C2281 C2277 1.389 . S
C2281 C2279 1.364 . S
C2281 H2307 0.931 . S
C2282 O2296 1.256 . S
C2282 O2297 1.257 . S
C2283 O2298 1.240 . S
C2283 O2299 1.240 . S
C2284 Gd2273 2.818 1_565 S
C2284 C2285 1.510 . S
C2284 O2300 1.249 . S
C2284 O2301 1.252 . S
C2285 C2284 1.510 . S
C2285 C2286 1.404 . S
C2285 C2287 1.352 . S
C2286 C2285 1.404 . S
C2286 C2290 1.389 . S
C2286 H2308 0.930 . S
C2287 C2285 1.352 . S
C2287 C2289 1.374 . S
C2287 H2309 0.931 . S
C2288 C2289 1.359 . S
C2288 C2290 1.364 . S
C2289 C2287 1.374 . S
C2289 C2288 1.359 . S
C2289 H2310 0.931 . S
C2290 C2286 1.389 . S
C2290 C2288 1.364 . S
C2290 H2311 0.931 . S
C2291 O2302 1.256 . S
C2291 O2303 1.257 . S
O2292 Gd2272 2.377 . S
O2292 C2274 1.240 . S
O2293 Gd2273 2.395 . S
O2293 C2274 1.240 . S
O2294 Gd2272 2.448 . S
O2294 C2275 1.249 . S
O2295 Gd2272 2.506 . S
O2295 C2275 1.252 . S
O2296 Gd2272 2.435 . S
O2296 C2282 1.256 . S
O2297 Gd2272 2.717 . S
O2297 Gd2273 2.327 . S
O2297 C2282 1.257 . S
O2298 Gd2273 2.377 . S
O2298 C2283 1.240 . S
O2299 Gd2272 2.395 . S
O2299 C2283 1.240 . S
O2300 Gd2273 2.448 1_565 S
O2300 C2284 1.249 . S
O2301 Gd2273 2.506 1_565 S
O2301 C2284 1.252 . S
O2302 Gd2273 2.435 . S
O2302 C2291 1.256 . S
O2303 Gd2272 2.327 . S
O2303 Gd2273 2.717 . S
O2303 C2291 1.257 . S
H2304 C2277 0.930 . S
H2305 C2278 0.931 . S
H2306 C2280 0.931 . S
H2307 C2281 0.931 . S
H2308 C2286 0.930 . S
H2309 C2287 0.931 . S
H2310 C2289 0.931 . S
H2311 C2290 0.931 . S
Gd2312 C2315 2.818 . S
Gd2312 O2332 2.377 . S
Gd2312 O2334 2.448 . S
Gd2312 O2335 2.506 . S
Gd2312 O2336 2.435 . S
Gd2312 O2337 2.717 . S
Gd2312 O2339 2.395 . S
Gd2312 O2343 2.327 . S
Gd2313 C2324 2.818 . S
Gd2313 O2333 2.395 . S
Gd2313 O2337 2.327 . S
Gd2313 O2338 2.377 . S
Gd2313 O2340 2.448 . S
Gd2313 O2341 2.506 . S
Gd2313 O2342 2.435 . S
Gd2313 O2343 2.717 . S
C2314 O2332 1.240 . S
C2314 O2333 1.240 . S
C2315 Gd2312 2.818 . S
C2315 C2316 1.510 . S
C2315 O2334 1.249 . S
C2315 O2335 1.252 . S
C2316 C2315 1.510 . S
C2316 C2317 1.404 . S
C2316 C2318 1.352 . S
C2317 C2316 1.404 . S
C2317 C2321 1.389 . S
C2317 H2344 0.930 . S
C2318 C2316 1.352 . S
C2318 C2320 1.374 . S
C2318 H2345 0.931 . S
C2319 C2320 1.359 . S
C2319 C2321 1.364 . S
C2320 C2318 1.374 . S
C2320 C2319 1.359 . S
C2320 H2346 0.931 . S
C2321 C2317 1.389 . S
C2321 C2319 1.364 . S
C2321 H2347 0.931 . S
C2322 O2336 1.256 . S
C2322 O2337 1.257 . S
C2323 O2338 1.240 . S
C2323 O2339 1.240 . S
C2324 Gd2313 2.818 . S
C2324 C2325 1.510 . S
C2324 O2340 1.249 . S
C2324 O2341 1.252 . S
C2325 C2324 1.510 . S
C2325 C2326 1.404 . S
C2325 C2327 1.352 . S
C2326 C2325 1.404 . S
C2326 C2330 1.389 . S
C2326 H2348 0.930 . S
C2327 C2325 1.352 . S
C2327 C2329 1.374 . S
C2327 H2349 0.931 . S
C2328 C2329 1.359 . S
C2328 C2330 1.364 . S
C2329 C2327 1.374 . S
C2329 C2328 1.359 . S
C2329 H2350 0.931 . S
C2330 C2326 1.389 . S
C2330 C2328 1.364 . S
C2330 H2351 0.931 . S
C2331 O2342 1.256 . S
C2331 O2343 1.257 . S
O2332 Gd2312 2.377 . S
O2332 C2314 1.240 . S
O2333 Gd2313 2.395 . S
O2333 C2314 1.240 . S
O2334 Gd2312 2.448 . S
O2334 C2315 1.249 . S
O2335 Gd2312 2.506 . S
O2335 C2315 1.252 . S
O2336 Gd2312 2.435 . S
O2336 C2322 1.256 . S
O2337 Gd2312 2.717 . S
O2337 Gd2313 2.327 . S
O2337 C2322 1.257 . S
O2338 Gd2313 2.377 . S
O2338 C2323 1.240 . S
O2339 Gd2312 2.395 . S
O2339 C2323 1.240 . S
O2340 Gd2313 2.448 . S
O2340 C2324 1.249 . S
O2341 Gd2313 2.506 . S
O2341 C2324 1.252 . S
O2342 Gd2313 2.435 . S
O2342 C2331 1.256 . S
O2343 Gd2312 2.327 . S
O2343 Gd2313 2.717 . S
O2343 C2331 1.257 . S
H2344 C2317 0.930 . S
H2345 C2318 0.931 . S
H2346 C2320 0.931 . S
H2347 C2321 0.931 . S
H2348 C2326 0.930 . S
H2349 C2327 0.931 . S
H2350 C2329 0.931 . S
H2351 C2330 0.931 . S
Gd2352 C2355 2.818 . S
Gd2352 O2372 2.377 . S
Gd2352 O2374 2.448 . S
Gd2352 O2375 2.506 . S
Gd2352 O2376 2.435 1_545 S
Gd2352 O2377 2.717 1_554 S
Gd2352 O2379 2.395 . S
Gd2352 O2383 2.327 . S
Gd2353 C2364 2.818 . S
Gd2353 O2373 2.395 . S
Gd2353 O2377 2.327 . S
Gd2353 O2378 2.377 . S
Gd2353 O2380 2.448 . S
Gd2353 O2381 2.506 . S
Gd2353 O2382 2.435 1_556 S
Gd2353 O2383 2.717 1_556 S
C2354 O2372 1.240 . S
C2354 O2373 1.240 1_554 S
C2355 Gd2352 2.818 . S
C2355 C2356 1.510 . S
C2355 O2374 1.249 . S
C2355 O2375 1.252 . S
C2356 C2355 1.510 . S
C2356 C2357 1.404 1_545 S
C2356 C2358 1.352 . S
C2357 C2356 1.404 1_565 S
C2357 C2361 1.389 . S
C2357 H2384 0.930 . S
C2358 C2356 1.352 . S
C2358 C2360 1.374 . S
C2358 H2385 0.931 . S
C2359 C2360 1.359 1_565 S
C2359 C2361 1.364 . S
C2360 C2358 1.374 . S
C2360 C2359 1.359 1_545 S
C2360 H2386 0.931 . S
C2361 C2357 1.389 . S
C2361 C2359 1.364 . S
C2361 H2387 0.931 . S
C2362 O2376 1.255 . S
C2362 O2377 1.258 1_564 S
C2363 O2378 1.240 1_554 S
C2363 O2379 1.240 . S
C2364 Gd2353 2.818 . S
C2364 C2365 1.510 . S
C2364 O2380 1.249 . S
C2364 O2381 1.252 . S
C2365 C2364 1.510 . S
C2365 C2366 1.404 . S
C2365 C2367 1.352 . S
C2366 C2365 1.404 . S
C2366 C2370 1.389 . S
C2366 H2388 0.930 . S
C2367 C2365 1.352 . S
C2367 C2369 1.374 . S
C2367 H2389 0.931 . S
C2368 C2369 1.359 . S
C2368 C2370 1.364 . S
C2369 C2367 1.374 . S
C2369 C2368 1.359 . S
C2369 H2390 0.931 . S
C2370 C2366 1.389 . S
C2370 C2368 1.364 . S
C2370 H2391 0.931 . S
C2371 O2382 1.256 . S
C2371 O2383 1.257 . S
O2372 Gd2352 2.377 . S
O2372 C2354 1.240 . S
O2373 Gd2353 2.395 . S
O2373 C2354 1.240 1_556 S
O2374 Gd2352 2.448 . S
O2374 C2355 1.249 . S
O2375 Gd2352 2.506 . S
O2375 C2355 1.252 . S
O2376 Gd2352 2.435 1_565 S
O2376 C2362 1.255 . S
O2377 Gd2352 2.717 1_556 S
O2377 Gd2353 2.327 . S
O2377 C2362 1.258 1_546 S
O2378 Gd2353 2.377 . S
O2378 C2363 1.240 1_556 S
O2379 Gd2352 2.395 . S
O2379 C2363 1.240 . S
O2380 Gd2353 2.448 . S
O2380 C2364 1.249 . S
O2381 Gd2353 2.506 . S
O2381 C2364 1.252 . S
O2382 Gd2353 2.435 1_554 S
O2382 C2371 1.256 . S
O2383 Gd2352 2.327 . S
O2383 Gd2353 2.717 1_554 S
O2383 C2371 1.257 . S
H2384 C2357 0.930 . S
H2385 C2358 0.931 . S
H2386 C2360 0.931 . S
H2387 C2361 0.931 . S
H2388 C2366 0.930 . S
H2389 C2367 0.931 . S
H2390 C2369 0.931 . S
H2391 C2370 0.931 . S
Gd2392 C2395 2.818 . S
Gd2392 O2412 2.377 . S
Gd2392 O2414 2.448 . S
Gd2392 O2415 2.506 . S
Gd2392 O2416 2.435 . S
Gd2392 O2417 2.717 . S
Gd2392 O2419 2.395 . S
Gd2392 O2423 2.327 . S
Gd2393 C2404 2.818 . S
Gd2393 O2413 2.395 . S
Gd2393 O2417 2.327 . S
Gd2393 O2418 2.377 . S
Gd2393 O2420 2.448 . S
Gd2393 O2421 2.506 . S
Gd2393 O2422 2.435 . S
Gd2393 O2423 2.717 . S
C2394 O2412 1.240 . S
C2394 O2413 1.240 . S
C2395 Gd2392 2.818 . S
C2395 C2396 1.510 . S
C2395 O2414 1.249 . S
C2395 O2415 1.252 . S
C2396 C2395 1.510 . S
C2396 C2397 1.404 . S
C2396 C2398 1.352 . S
C2397 C2396 1.404 . S
C2397 C2401 1.389 . S
C2397 H2424 0.930 . S
C2398 C2396 1.352 . S
C2398 C2400 1.374 . S
C2398 H2425 0.931 . S
C2399 C2400 1.359 . S
C2399 C2401 1.364 . S
C2400 C2398 1.374 . S
C2400 C2399 1.359 . S
C2400 H2426 0.931 . S
C2401 C2397 1.389 . S
C2401 C2399 1.364 . S
C2401 H2427 0.931 . S
C2402 O2416 1.256 . S
C2402 O2417 1.257 . S
C2403 O2418 1.240 . S
C2403 O2419 1.240 . S
C2404 Gd2393 2.818 . S
C2404 C2405 1.510 . S
C2404 O2420 1.249 . S
C2404 O2421 1.252 . S
C2405 C2404 1.510 . S
C2405 C2406 1.404 . S
C2405 C2407 1.352 . S
C2406 C2405 1.404 . S
C2406 C2410 1.389 . S
C2406 H2428 0.930 . S
C2407 C2405 1.352 . S
C2407 C2409 1.374 . S
C2407 H2429 0.931 . S
C2408 C2409 1.359 . S
C2408 C2410 1.364 . S
C2409 C2407 1.374 . S
C2409 C2408 1.359 . S
C2409 H2430 0.931 . S
C2410 C2406 1.389 . S
C2410 C2408 1.364 . S
C2410 H2431 0.931 . S
C2411 O2422 1.256 . S
C2411 O2423 1.257 . S
O2412 Gd2392 2.377 . S
O2412 C2394 1.240 . S
O2413 Gd2393 2.395 . S
O2413 C2394 1.240 . S
O2414 Gd2392 2.448 . S
O2414 C2395 1.249 . S
O2415 Gd2392 2.506 . S
O2415 C2395 1.252 . S
O2416 Gd2392 2.435 . S
O2416 C2402 1.256 . S
O2417 Gd2392 2.717 . S
O2417 Gd2393 2.327 . S
O2417 C2402 1.257 . S
O2418 Gd2393 2.377 . S
O2418 C2403 1.240 . S
O2419 Gd2392 2.395 . S
O2419 C2403 1.240 . S
O2420 Gd2393 2.448 . S
O2420 C2404 1.249 . S
O2421 Gd2393 2.506 . S
O2421 C2404 1.252 . S
O2422 Gd2393 2.435 . S
O2422 C2411 1.256 . S
O2423 Gd2392 2.327 . S
O2423 Gd2393 2.717 . S
O2423 C2411 1.257 . S
H2424 C2397 0.930 . S
H2425 C2398 0.931 . S
H2426 C2400 0.931 . S
H2427 C2401 0.931 . S
H2428 C2406 0.930 . S
H2429 C2407 0.931 . S
H2430 C2409 0.931 . S
H2431 C2410 0.931 . S
Gd2432 C2435 2.830 . S
Gd2432 O2452 2.377 1_554 S
Gd2432 O2454 2.448 . S
Gd2432 O2455 2.507 1_554 S
Gd2432 O2456 2.435 . S
Gd2432 O2457 2.717 . S
Gd2432 O2459 2.395 . S
Gd2432 O2463 2.327 . S
Gd2433 C2444 2.847 . S
Gd2433 O2453 2.354 1_554 S
Gd2433 O2457 2.345 . S
Gd2433 O2458 2.421 . S
Gd2433 O2460 2.466 . S
Gd2433 O2461 2.539 . S
Gd2433 O2462 2.428 . S
Gd2433 O2463 2.715 . S
C2434 O2452 1.240 . S
C2434 O2453 1.240 . S
C2435 Gd2432 2.830 . S
C2435 C2436 1.499 1_554 S
C2435 O2454 1.261 . S
C2435 O2455 1.251 1_554 S
C2436 C2435 1.499 1_556 S
C2436 C2437 1.404 . S
C2436 C2438 1.352 . S
C2437 C2436 1.404 . S
C2437 C2441 1.389 . S
C2437 H2464 0.905 1_556 S
C2438 C2436 1.352 . S
C2438 C2440 1.374 . S
C2438 H2465 0.931 . S
C2439 C2440 1.359 . S
C2439 C2441 1.364 . S
C2440 C2438 1.374 . S
C2440 C2439 1.359 . S
C2440 H2466 0.931 . S
C2441 C2437 1.389 . S
C2441 C2439 1.364 . S
C2441 H2467 0.931 . S
C2442 O2456 1.256 . S
C2442 O2457 1.257 . S
C2443 O2458 1.240 . S
C2443 O2459 1.240 . S
C2444 Gd2433 2.847 . S
C2444 C2445 1.510 . S
C2444 O2460 1.249 . S
C2444 O2461 1.252 . S
C2445 C2444 1.510 . S
C2445 C2446 1.404 . S
C2445 C2447 1.352 . S
C2446 C2445 1.404 . S
C2446 C2450 1.389 . S
C2446 H2468 0.930 . S
C2447 C2445 1.352 . S
C2447 C2449 1.374 . S
C2447 H2469 0.931 . S
C2448 C2449 1.359 . S
C2448 C2450 1.364 . S
C2449 C2447 1.374 . S
C2449 C2448 1.359 . S
C2449 H2470 0.931 . S
C2450 C2446 1.389 . S
C2450 C2448 1.364 . S
C2450 H2471 0.931 . S
C2451 O2462 1.256 . S
C2451 O2463 1.257 . S
O2452 Gd2432 2.377 1_556 S
O2452 C2434 1.240 . S
O2453 Gd2433 2.354 1_556 S
O2453 C2434 1.240 . S
O2454 Gd2432 2.448 . S
O2454 C2435 1.261 . S
O2455 Gd2432 2.507 1_556 S
O2455 C2435 1.251 1_556 S
O2456 Gd2432 2.435 . S
O2456 C2442 1.256 . S
O2457 Gd2432 2.717 . S
O2457 Gd2433 2.345 . S
O2457 C2442 1.257 . S
O2458 Gd2433 2.421 . S
O2458 C2443 1.240 . S
O2459 Gd2432 2.395 . S
O2459 C2443 1.240 . S
O2460 Gd2433 2.466 . S
O2460 C2444 1.249 . S
O2461 Gd2433 2.539 . S
O2461 C2444 1.252 . S
O2462 Gd2433 2.428 . S
O2462 C2451 1.256 . S
O2463 Gd2432 2.327 . S
O2463 Gd2433 2.715 . S
O2463 C2451 1.257 . S
H2464 C2437 0.905 1_554 S
H2465 C2438 0.931 . S
H2466 C2440 0.931 . S
H2467 C2441 0.931 . S
H2468 C2446 0.930 . S
H2469 C2447 0.931 . S
H2470 C2449 0.931 . S
H2471 C2450 0.931 . S
Gd2472 C2475 2.818 . S
Gd2472 O2492 2.377 . S
Gd2472 O2494 2.448 . S
Gd2472 O2495 2.506 . S
Gd2472 O2496 2.435 . S
Gd2472 O2497 2.717 . S
Gd2472 O2499 2.395 . S
Gd2472 O2503 2.327 . S
Gd2473 C2484 2.818 . S
Gd2473 O2493 2.395 . S
Gd2473 O2497 2.327 . S
Gd2473 O2498 2.377 . S
Gd2473 O2500 2.448 . S
Gd2473 O2501 2.506 . S
Gd2473 O2502 2.435 . S
Gd2473 O2503 2.717 . S
C2474 O2492 1.240 . S
C2474 O2493 1.240 . S
C2475 Gd2472 2.818 . S
C2475 C2476 1.510 . S
C2475 O2494 1.249 . S
C2475 O2495 1.252 . S
C2476 C2475 1.510 . S
C2476 C2477 1.404 . S
C2476 C2478 1.352 . S
C2477 C2476 1.404 . S
C2477 C2481 1.389 . S
C2477 H2504 0.930 . S
C2478 C2476 1.352 . S
C2478 C2480 1.374 . S
C2478 H2505 0.931 . S
C2479 C2480 1.359 . S
C2479 C2481 1.364 . S
C2480 C2478 1.374 . S
C2480 C2479 1.359 . S
C2480 H2506 0.931 . S
C2481 C2477 1.389 . S
C2481 C2479 1.364 . S
C2481 H2507 0.931 . S
C2482 O2496 1.256 . S
C2482 O2497 1.257 . S
C2483 O2498 1.240 . S
C2483 O2499 1.240 . S
C2484 Gd2473 2.818 . S
C2484 C2485 1.510 . S
C2484 O2500 1.249 . S
C2484 O2501 1.252 . S
C2485 C2484 1.510 . S
C2485 C2486 1.404 . S
C2485 C2487 1.352 . S
C2486 C2485 1.404 . S
C2486 C2490 1.389 . S
C2486 H2508 0.930 . S
C2487 C2485 1.352 . S
C2487 C2489 1.374 . S
C2487 H2509 0.931 . S
C2488 C2489 1.359 . S
C2488 C2490 1.364 . S
C2489 C2487 1.374 . S
C2489 C2488 1.359 . S
C2489 H2510 0.931 . S
C2490 C2486 1.389 . S
C2490 C2488 1.364 . S
C2490 H2511 0.931 . S
C2491 O2502 1.256 . S
C2491 O2503 1.257 . S
O2492 Gd2472 2.377 . S
O2492 C2474 1.240 . S
O2493 Gd2473 2.395 . S
O2493 C2474 1.240 . S
O2494 Gd2472 2.448 . S
O2494 C2475 1.249 . S
O2495 Gd2472 2.506 . S
O2495 C2475 1.252 . S
O2496 Gd2472 2.435 . S
O2496 C2482 1.256 . S
O2497 Gd2472 2.717 . S
O2497 Gd2473 2.327 . S
O2497 C2482 1.257 . S
O2498 Gd2473 2.377 . S
O2498 C2483 1.240 . S
O2499 Gd2472 2.395 . S
O2499 C2483 1.240 . S
O2500 Gd2473 2.448 . S
O2500 C2484 1.249 . S
O2501 Gd2473 2.506 . S
O2501 C2484 1.252 . S
O2502 Gd2473 2.435 . S
O2502 C2491 1.256 . S
O2503 Gd2472 2.327 . S
O2503 Gd2473 2.717 . S
O2503 C2491 1.257 . S
H2504 C2477 0.930 . S
H2505 C2478 0.931 . S
H2506 C2480 0.931 . S
H2507 C2481 0.931 . S
H2508 C2486 0.930 . S
H2509 C2487 0.931 . S
H2510 C2489 0.931 . S
H2511 C2490 0.931 . S
Gd2512 C2515 2.818 . S
Gd2512 O2532 2.377 . S
Gd2512 O2534 2.448 . S
Gd2512 O2535 2.506 . S
Gd2512 O2536 2.435 . S
Gd2512 O2537 2.717 . S
Gd2512 O2539 2.395 . S
Gd2512 O2543 2.327 . S
Gd2513 C2524 2.818 . S
Gd2513 O2533 2.395 . S
Gd2513 O2537 2.327 . S
Gd2513 O2538 2.377 . S
Gd2513 O2540 2.448 . S
Gd2513 O2541 2.506 . S
Gd2513 O2542 2.435 . S
Gd2513 O2543 2.717 . S
C2514 O2532 1.240 . S
C2514 O2533 1.240 . S
C2515 Gd2512 2.818 . S
C2515 C2516 1.510 . S
C2515 O2534 1.249 . S
C2515 O2535 1.252 . S
C2516 C2515 1.510 . S
C2516 C2517 1.404 . S
C2516 C2518 1.352 . S
C2517 C2516 1.404 . S
C2517 C2521 1.389 . S
C2517 H2544 0.930 . S
C2518 C2516 1.352 . S
C2518 C2520 1.374 1_455 S
C2518 H2545 0.931 . S
C2519 C2520 1.359 . S
C2519 C2521 1.364 1_655 S
C2520 C2518 1.374 1_655 S
C2520 C2519 1.359 . S
C2520 H2546 0.931 . S
C2521 C2517 1.389 . S
C2521 C2519 1.364 1_455 S
C2521 H2547 0.931 . S
C2522 O2536 1.256 . S
C2522 O2537 1.257 . S
C2523 O2538 1.240 . S
C2523 O2539 1.240 . S
C2524 Gd2513 2.818 . S
C2524 C2525 1.510 . S
C2524 O2540 1.249 . S
C2524 O2541 1.252 . S
C2525 C2524 1.510 . S
C2525 C2526 1.404 . S
C2525 C2527 1.352 . S
C2526 C2525 1.404 . S
C2526 C2530 1.389 . S
C2526 H2548 0.930 . S
C2527 C2525 1.352 . S
C2527 C2529 1.374 . S
C2527 H2549 0.931 . S
C2528 C2529 1.359 . S
C2528 C2530 1.364 . S
C2529 C2527 1.374 . S
C2529 C2528 1.359 . S
C2529 H2550 0.931 . S
C2530 C2526 1.389 . S
C2530 C2528 1.364 . S
C2530 H2551 0.931 . S
C2531 O2542 1.256 . S
C2531 O2543 1.257 . S
O2532 Gd2512 2.377 . S
O2532 C2514 1.240 . S
O2533 Gd2513 2.395 . S
O2533 C2514 1.240 . S
O2534 Gd2512 2.448 . S
O2534 C2515 1.249 . S
O2535 Gd2512 2.506 . S
O2535 C2515 1.252 . S
O2536 Gd2512 2.435 . S
O2536 C2522 1.256 . S
O2537 Gd2512 2.717 . S
O2537 Gd2513 2.327 . S
O2537 C2522 1.257 . S
O2538 Gd2513 2.377 . S
O2538 C2523 1.240 . S
O2539 Gd2512 2.395 . S
O2539 C2523 1.240 . S
O2540 Gd2513 2.448 . S
O2540 C2524 1.249 . S
O2541 Gd2513 2.506 . S
O2541 C2524 1.252 . S
O2542 Gd2513 2.435 . S
O2542 C2531 1.256 . S
O2543 Gd2512 2.327 . S
O2543 Gd2513 2.717 . S
O2543 C2531 1.257 . S
H2544 C2517 0.930 . S
H2545 C2518 0.931 . S
H2546 C2520 0.931 . S
H2547 C2521 0.931 . S
H2548 C2526 0.930 . S
H2549 C2527 0.931 . S
H2550 C2529 0.931 . S
H2551 C2530 0.931 . S
Gd2552 C2555 2.818 . S
Gd2552 O2572 2.377 . S
Gd2552 O2574 2.448 . S
Gd2552 O2575 2.506 . S
Gd2552 O2576 2.435 . S
Gd2552 O2577 2.717 . S
Gd2552 O2579 2.395 . S
Gd2552 O2583 2.327 . S
Gd2553 C2564 2.818 . S
Gd2553 O2573 2.395 . S
Gd2553 O2577 2.327 . S
Gd2553 O2578 2.377 . S
Gd2553 O2580 2.448 . S
Gd2553 O2581 2.506 . S
Gd2553 O2582 2.435 . S
Gd2553 O2583 2.717 . S
C2554 O2572 1.240 . S
C2554 O2573 1.240 . S
C2555 Gd2552 2.818 . S
C2555 C2556 1.510 . S
C2555 O2574 1.249 . S
C2555 O2575 1.252 . S
C2556 C2555 1.510 . S
C2556 C2557 1.404 . S
C2556 C2558 1.352 . S
C2557 C2556 1.404 . S
C2557 C2561 1.389 . S
C2557 H2584 0.930 . S
C2558 C2556 1.352 . S
C2558 C2560 1.374 . S
C2558 H2585 0.931 . S
C2559 C2560 1.359 . S
C2559 C2561 1.364 . S
C2560 C2558 1.374 . S
C2560 C2559 1.359 . S
C2560 H2586 0.931 . S
C2561 C2557 1.389 . S
C2561 C2559 1.364 . S
C2561 H2587 0.931 . S
C2562 O2576 1.256 . S
C2562 O2577 1.257 . S
C2563 O2578 1.240 . S
C2563 O2579 1.240 . S
C2564 Gd2553 2.818 . S
C2564 C2565 1.510 . S
C2564 O2580 1.249 . S
C2564 O2581 1.252 . S
C2565 C2564 1.510 . S
C2565 C2566 1.404 . S
C2565 C2567 1.352 . S
C2566 C2565 1.404 . S
C2566 C2570 1.389 . S
C2566 H2588 0.930 . S
C2567 C2565 1.352 . S
C2567 C2569 1.374 . S
C2567 H2589 0.931 . S
C2568 C2569 1.359 . S
C2568 C2570 1.364 . S
C2569 C2567 1.374 . S
C2569 C2568 1.359 . S
C2569 H2590 0.931 . S
C2570 C2566 1.389 . S
C2570 C2568 1.364 . S
C2570 H2591 0.931 . S
C2571 O2582 1.256 . S
C2571 O2583 1.257 . S
O2572 Gd2552 2.377 . S
O2572 C2554 1.240 . S
O2573 Gd2553 2.395 . S
O2573 C2554 1.240 . S
O2574 Gd2552 2.448 . S
O2574 C2555 1.249 . S
O2575 Gd2552 2.506 . S
O2575 C2555 1.252 . S
O2576 Gd2552 2.435 . S
O2576 C2562 1.256 . S
O2577 Gd2552 2.717 . S
O2577 Gd2553 2.327 . S
O2577 C2562 1.257 . S
O2578 Gd2553 2.377 . S
O2578 C2563 1.240 . S
O2579 Gd2552 2.395 . S
O2579 C2563 1.240 . S
O2580 Gd2553 2.448 . S
O2580 C2564 1.249 . S
O2581 Gd2553 2.506 . S
O2581 C2564 1.252 . S
O2582 Gd2553 2.435 . S
O2582 C2571 1.256 . S
O2583 Gd2552 2.327 . S
O2583 Gd2553 2.717 . S
O2583 C2571 1.257 . S
H2584 C2557 0.930 . S
H2585 C2558 0.931 . S
H2586 C2560 0.931 . S
H2587 C2561 0.931 . S
H2588 C2566 0.930 . S
H2589 C2567 0.931 . S
H2590 C2569 0.931 . S
H2591 C2570 0.931 . S
Gd2592 C2595 2.818 . S
Gd2592 O2612 2.377 . S
Gd2592 O2614 2.448 . S
Gd2592 O2615 2.506 . S
Gd2592 O2616 2.435 . S
Gd2592 O2617 2.717 . S
Gd2592 O2619 2.395 . S
Gd2592 O2623 2.327 . S
Gd2593 C2604 2.818 . S
Gd2593 O2613 2.395 . S
Gd2593 O2617 2.327 . S
Gd2593 O2618 2.377 . S
Gd2593 O2620 2.448 . S
Gd2593 O2621 2.506 . S
Gd2593 O2622 2.435 . S
Gd2593 O2623 2.717 . S
C2594 O2612 1.240 . S
C2594 O2613 1.240 . S
C2595 Gd2592 2.818 . S
C2595 C2596 1.510 . S
C2595 O2614 1.249 . S
C2595 O2615 1.252 . S
C2596 C2595 1.510 . S
C2596 C2597 1.404 . S
C2596 C2598 1.352 . S
C2597 C2596 1.404 . S
C2597 C2601 1.389 . S
C2597 H2624 0.930 . S
C2598 C2596 1.352 . S
C2598 C2600 1.374 . S
C2598 H2625 0.931 . S
C2599 C2600 1.359 . S
C2599 C2601 1.364 . S
C2600 C2598 1.374 . S
C2600 C2599 1.359 . S
C2600 H2626 0.931 . S
C2601 C2597 1.389 . S
C2601 C2599 1.364 . S
C2601 H2627 0.931 . S
C2602 O2616 1.256 . S
C2602 O2617 1.257 . S
C2603 O2618 1.240 . S
C2603 O2619 1.240 . S
C2604 Gd2593 2.818 . S
C2604 C2605 1.510 . S
C2604 O2620 1.249 . S
C2604 O2621 1.252 . S
C2605 C2604 1.510 . S
C2605 C2606 1.404 . S
C2605 C2607 1.352 . S
C2606 C2605 1.404 . S
C2606 C2610 1.389 . S
C2606 H2628 0.930 . S
C2607 C2605 1.352 . S
C2607 C2609 1.374 . S
C2607 H2629 0.931 . S
C2608 C2609 1.359 . S
C2608 C2610 1.364 . S
C2609 C2607 1.374 . S
C2609 C2608 1.359 . S
C2609 H2630 0.931 . S
C2610 C2606 1.389 . S
C2610 C2608 1.364 . S
C2610 H2631 0.931 . S
C2611 O2622 1.256 . S
C2611 O2623 1.257 . S
O2612 Gd2592 2.377 . S
O2612 C2594 1.240 . S
O2613 Gd2593 2.395 . S
O2613 C2594 1.240 . S
O2614 Gd2592 2.448 . S
O2614 C2595 1.249 . S
O2615 Gd2592 2.506 . S
O2615 C2595 1.252 . S
O2616 Gd2592 2.435 . S
O2616 C2602 1.256 . S
O2617 Gd2592 2.717 . S
O2617 Gd2593 2.327 . S
O2617 C2602 1.257 . S
O2618 Gd2593 2.377 . S
O2618 C2603 1.240 . S
O2619 Gd2592 2.395 . S
O2619 C2603 1.240 . S
O2620 Gd2593 2.448 . S
O2620 C2604 1.249 . S
O2621 Gd2593 2.506 . S
O2621 C2604 1.252 . S
O2622 Gd2593 2.435 . S
O2622 C2611 1.256 . S
O2623 Gd2592 2.327 . S
O2623 Gd2593 2.717 . S
O2623 C2611 1.257 . S
H2624 C2597 0.930 . S
H2625 C2598 0.931 . S
H2626 C2600 0.931 . S
H2627 C2601 0.931 . S
H2628 C2606 0.930 . S
H2629 C2607 0.931 . S
H2630 C2609 0.931 . S
H2631 C2610 0.931 . S
Gd2632 C2635 2.818 . S
Gd2632 O2652 2.377 . S
Gd2632 O2654 2.448 . S
Gd2632 O2655 2.506 . S
Gd2632 O2656 2.435 . S
Gd2632 O2657 2.717 . S
Gd2632 O2659 2.395 . S
Gd2632 O2663 2.327 . S
Gd2633 C2644 2.818 . S
Gd2633 O2653 2.395 . S
Gd2633 O2657 2.327 . S
Gd2633 O2658 2.377 . S
Gd2633 O2660 2.448 . S
Gd2633 O2661 2.506 . S
Gd2633 O2662 2.435 . S
Gd2633 O2663 2.717 . S
C2634 O2652 1.240 . S
C2634 O2653 1.240 . S
C2635 Gd2632 2.818 . S
C2635 C2636 1.510 . S
C2635 O2654 1.249 . S
C2635 O2655 1.252 . S
C2636 C2635 1.510 . S
C2636 C2637 1.404 . S
C2636 C2638 1.352 . S
C2637 C2636 1.404 . S
C2637 C2641 1.389 . S
C2637 H2664 0.930 . S
C2638 C2636 1.352 . S
C2638 C2640 1.374 . S
C2638 H2665 0.931 . S
C2639 C2640 1.359 . S
C2639 C2641 1.364 . S
C2640 C2638 1.374 . S
C2640 C2639 1.359 . S
C2640 H2666 0.931 . S
C2641 C2637 1.389 . S
C2641 C2639 1.364 . S
C2641 H2667 0.931 . S
C2642 O2656 1.256 . S
C2642 O2657 1.257 . S
C2643 O2658 1.240 . S
C2643 O2659 1.240 . S
C2644 Gd2633 2.818 . S
C2644 C2645 1.510 . S
C2644 O2660 1.249 . S
C2644 O2661 1.252 . S
C2645 C2644 1.510 . S
C2645 C2646 1.404 . S
C2645 C2647 1.352 . S
C2646 C2645 1.404 . S
C2646 C2650 1.389 . S
C2646 H2668 0.930 . S
C2647 C2645 1.352 . S
C2647 C2649 1.374 . S
C2647 H2669 0.931 . S
C2648 C2649 1.359 . S
C2648 C2650 1.364 . S
C2649 C2647 1.374 . S
C2649 C2648 1.359 . S
C2649 H2670 0.931 . S
C2650 C2646 1.389 . S
C2650 C2648 1.364 . S
C2650 H2671 0.931 . S
C2651 O2662 1.256 . S
C2651 O2663 1.257 . S
O2652 Gd2632 2.377 . S
O2652 C2634 1.240 . S
O2653 Gd2633 2.395 . S
O2653 C2634 1.240 . S
O2654 Gd2632 2.448 . S
O2654 C2635 1.249 . S
O2655 Gd2632 2.506 . S
O2655 C2635 1.252 . S
O2656 Gd2632 2.435 . S
O2656 C2642 1.256 . S
O2657 Gd2632 2.717 . S
O2657 Gd2633 2.327 . S
O2657 C2642 1.257 . S
O2658 Gd2633 2.377 . S
O2658 C2643 1.240 . S
O2659 Gd2632 2.395 . S
O2659 C2643 1.240 . S
O2660 Gd2633 2.448 . S
O2660 C2644 1.249 . S
O2661 Gd2633 2.506 . S
O2661 C2644 1.252 . S
O2662 Gd2633 2.435 . S
O2662 C2651 1.256 . S
O2663 Gd2632 2.327 . S
O2663 Gd2633 2.717 . S
O2663 C2651 1.257 . S
H2664 C2637 0.930 . S
H2665 C2638 0.931 . S
H2666 C2640 0.931 . S
H2667 C2641 0.931 . S
H2668 C2646 0.930 . S
H2669 C2647 0.931 . S
H2670 C2649 0.931 . S
H2671 C2650 0.931 . S
Gd2672 C2675 2.818 . S
Gd2672 O2692 2.377 . S
Gd2672 O2694 2.448 . S
Gd2672 O2695 2.506 . S
Gd2672 O2696 2.435 . S
Gd2672 O2697 2.717 . S
Gd2672 O2699 2.395 . S
Gd2672 O2703 2.327 . S
Gd2673 C2684 2.818 . S
Gd2673 O2693 2.395 . S
Gd2673 O2697 2.327 . S
Gd2673 O2698 2.377 . S
Gd2673 O2700 2.448 . S
Gd2673 O2701 2.506 . S
Gd2673 O2702 2.435 . S
Gd2673 O2703 2.717 . S
C2674 O2692 1.240 . S
C2674 O2693 1.240 . S
C2675 Gd2672 2.818 . S
C2675 C2676 1.510 . S
C2675 O2694 1.249 . S
C2675 O2695 1.252 . S
C2676 C2675 1.510 . S
C2676 C2677 1.404 . S
C2676 C2678 1.352 . S
C2677 C2676 1.404 . S
C2677 C2681 1.389 . S
C2677 H2704 0.930 . S
C2678 C2676 1.352 . S
C2678 C2680 1.374 . S
C2678 H2705 0.931 . S
C2679 C2680 1.359 . S
C2679 C2681 1.364 . S
C2680 C2678 1.374 . S
C2680 C2679 1.359 . S
C2680 H2706 0.931 . S
C2681 C2677 1.389 . S
C2681 C2679 1.364 . S
C2681 H2707 0.931 . S
C2682 O2696 1.256 . S
C2682 O2697 1.257 . S
C2683 O2698 1.240 . S
C2683 O2699 1.240 . S
C2684 Gd2673 2.818 . S
C2684 C2685 1.510 . S
C2684 O2700 1.249 . S
C2684 O2701 1.252 . S
C2685 C2684 1.510 . S
C2685 C2686 1.404 . S
C2685 C2687 1.352 . S
C2686 C2685 1.404 . S
C2686 C2690 1.389 . S
C2686 H2708 0.930 . S
C2687 C2685 1.352 . S
C2687 C2689 1.374 . S
C2687 H2709 0.931 . S
C2688 C2689 1.359 . S
C2688 C2690 1.364 . S
C2689 C2687 1.374 . S
C2689 C2688 1.359 . S
C2689 H2710 0.931 . S
C2690 C2686 1.389 . S
C2690 C2688 1.364 . S
C2690 H2711 0.931 . S
C2691 O2702 1.256 . S
C2691 O2703 1.257 . S
O2692 Gd2672 2.377 . S
O2692 C2674 1.240 . S
O2693 Gd2673 2.395 . S
O2693 C2674 1.240 . S
O2694 Gd2672 2.448 . S
O2694 C2675 1.249 . S
O2695 Gd2672 2.506 . S
O2695 C2675 1.252 . S
O2696 Gd2672 2.435 . S
O2696 C2682 1.256 . S
O2697 Gd2672 2.717 . S
O2697 Gd2673 2.327 . S
O2697 C2682 1.257 . S
O2698 Gd2673 2.377 . S
O2698 C2683 1.240 . S
O2699 Gd2672 2.395 . S
O2699 C2683 1.240 . S
O2700 Gd2673 2.448 . S
O2700 C2684 1.249 . S
O2701 Gd2673 2.506 . S
O2701 C2684 1.252 . S
O2702 Gd2673 2.435 . S
O2702 C2691 1.256 . S
O2703 Gd2672 2.327 . S
O2703 Gd2673 2.717 . S
O2703 C2691 1.257 . S
H2704 C2677 0.930 . S
H2705 C2678 0.931 . S
H2706 C2680 0.931 . S
H2707 C2681 0.931 . S
H2708 C2686 0.930 . S
H2709 C2687 0.931 . S
H2710 C2689 0.931 . S
H2711 C2690 0.931 . S
Gd2712 C2715 2.818 1_554 S
Gd2712 O2732 2.377 1_554 S
Gd2712 O2734 2.448 1_554 S
Gd2712 O2735 2.506 . S
Gd2712 O2736 2.435 1_554 S
Gd2712 O2737 2.717 1_554 S
Gd2712 O2739 2.395 . S
Gd2712 O2743 2.327 . S
Gd2713 C2724 2.818 1_455 S
Gd2713 O2733 2.395 . S
Gd2713 O2737 2.327 1_554 S
Gd2713 O2738 2.377 . S
Gd2713 O2740 2.448 1_455 S
Gd2713 O2741 2.506 1_455 S
Gd2713 O2742 2.435 . S
Gd2713 O2743 2.717 . S
C2714 O2732 1.240 1_554 S
C2714 O2733 1.240 . S
C2715 Gd2712 2.818 1_556 S
C2715 C2716 1.510 . S
C2715 O2734 1.249 . S
C2715 O2735 1.252 1_556 S
C2716 C2715 1.510 . S
C2716 C2717 1.404 . S
C2716 C2718 1.352 1_556 S
C2717 C2716 1.404 . S
C2717 C2721 1.389 . S
C2717 H2744 0.930 . S
C2718 C2716 1.352 1_554 S
C2718 C2720 1.374 . S
C2718 H2745 0.931 . S
C2719 C2720 1.359 1_556 S
C2719 C2721 1.364 . S
C2720 C2718 1.374 . S
C2720 C2719 1.359 1_554 S
C2720 H2746 0.931 . S
C2721 C2717 1.389 . S
C2721 C2719 1.364 . S
C2721 H2747 0.931 . S
C2722 O2736 1.256 . S
C2722 O2737 1.257 . S
C2723 O2738 1.240 . S
C2723 O2739 1.240 . S
C2724 Gd2713 2.818 1_655 S
C2724 C2725 1.510 . S
C2724 O2740 1.249 . S
C2724 O2741 1.252 . S
C2725 C2724 1.510 . S
C2725 C2726 1.404 . S
C2725 C2727 1.352 . S
C2726 C2725 1.404 . S
C2726 C2730 1.389 . S
C2726 H2748 0.930 . S
C2727 C2725 1.352 . S
C2727 C2729 1.374 . S
C2727 H2749 0.931 . S
C2728 C2729 1.359 . S
C2728 C2730 1.364 . S
C2729 C2727 1.374 . S
C2729 C2728 1.359 . S
C2729 H2750 0.931 . S
C2730 C2726 1.389 . S
C2730 C2728 1.364 . S
C2730 H2751 0.931 . S
C2731 O2742 1.256 . S
C2731 O2743 1.257 . S
O2732 Gd2712 2.377 1_556 S
O2732 C2714 1.240 1_556 S
O2733 Gd2713 2.395 . S
O2733 C2714 1.240 . S
O2734 Gd2712 2.448 1_556 S
O2734 C2715 1.249 . S
O2735 Gd2712 2.506 . S
O2735 C2715 1.252 1_554 S
O2736 Gd2712 2.435 1_556 S
O2736 C2722 1.256 . S
O2737 Gd2712 2.717 1_556 S
O2737 Gd2713 2.327 1_556 S
O2737 C2722 1.257 . S
O2738 Gd2713 2.377 . S
O2738 C2723 1.240 . S
O2739 Gd2712 2.395 . S
O2739 C2723 1.240 . S
O2740 Gd2713 2.448 1_655 S
O2740 C2724 1.249 . S
O2741 Gd2713 2.506 1_655 S
O2741 C2724 1.252 . S
O2742 Gd2713 2.435 . S
O2742 C2731 1.256 . S
O2743 Gd2712 2.327 . S
O2743 Gd2713 2.717 . S
O2743 C2731 1.257 . S
H2744 C2717 0.930 . S
H2745 C2718 0.931 . S
H2746 C2720 0.931 . S
H2747 C2721 0.931 . S
H2748 C2726 0.930 . S
H2749 C2727 0.931 . S
H2750 C2729 0.931 . S
H2751 C2730 0.931 . S
H2752 C2758 0.930 . S
H2753 C2762 0.930 . S
H2754 C2767 0.929 1_554 S
H2755 C2765 0.929 . S
H2756 C2760 0.929 . S
H2757 C2766 0.929 . S
C2758 H2752 0.930 . S
C2758 C2759 1.367 . S
C2758 C2766 1.378 . S
C2759 C2758 1.367 . S
C2759 C2767 1.433 . S
C2760 H2756 0.929 . S
C2760 C2762 1.378 . S
C2760 C2764 1.350 1_554 S
C2761 C2764 1.463 . S
C2761 C2766 1.350 . S
C2761 N2769 1.406 1_556 S
C2762 H2753 0.930 . S
C2762 C2760 1.378 . S
C2762 C2763 1.367 1_554 S
C2763 C2762 1.367 1_556 S
C2763 C2765 1.432 . S
C2764 C2760 1.350 1_556 S
C2764 C2761 1.463 . S
C2764 N2768 1.427 . S
C2765 H2755 0.929 . S
C2765 C2763 1.432 . S
C2765 N2768 1.384 . S
C2766 H2757 0.929 . S
C2766 C2758 1.378 . S
C2766 C2761 1.350 . S
C2767 H2754 0.929 1_556 S
C2767 C2759 1.433 . S
C2767 N2769 1.372 1_556 S
N2768 C2764 1.427 . S
N2768 C2765 1.384 . S
N2769 C2761 1.406 1_554 S
N2769 C2767 1.372 1_554 S
H2770 C2776 0.930 . S
H2771 C2780 0.930 . S
H2772 C2785 0.929 . S
H2773 C2783 0.929 . S
H2774 C2778 0.929 . S
H2775 C2784 0.929 . S
C2776 H2770 0.930 . S
C2776 C2777 1.367 . S
C2776 C2784 1.378 . S
C2777 C2776 1.367 . S
C2777 C2785 1.433 . S
C2778 H2774 0.929 . S
C2778 C2780 1.378 . S
C2778 C2782 1.350 . S
C2779 C2782 1.463 . S
C2779 C2784 1.350 . S
C2779 N2787 1.427 . S
C2780 H2771 0.930 . S
C2780 C2778 1.378 . S
C2780 C2781 1.367 . S
C2781 C2780 1.367 . S
C2781 C2783 1.433 . S
C2782 C2778 1.350 . S
C2782 C2779 1.463 . S
C2782 N2786 1.427 . S
C2783 H2773 0.929 . S
C2783 C2781 1.433 . S
C2783 N2786 1.384 . S
C2784 H2775 0.929 . S
C2784 C2776 1.378 . S
C2784 C2779 1.350 . S
C2785 H2772 0.929 . S
C2785 C2777 1.433 . S
C2785 N2787 1.384 . S
N2786 C2782 1.427 . S
N2786 C2783 1.384 . S
N2787 C2779 1.427 . S
N2787 C2785 1.384 . S
H2788 C2794 0.930 . S
H2789 C2798 0.930 . S
H2790 C2803 0.929 . S
H2791 C2801 0.929 . S
H2792 C2796 0.929 . S
H2793 C2802 0.929 . S
C2794 H2788 0.930 . S
C2794 C2795 1.367 . S
C2794 C2802 1.378 . S
C2795 C2794 1.367 . S
C2795 C2803 1.433 . S
C2796 H2792 0.929 . S
C2796 C2798 1.378 . S
C2796 C2800 1.350 . S
C2797 C2800 1.463 . S
C2797 C2802 1.350 . S
C2797 N2805 1.427 . S
C2798 H2789 0.930 . S
C2798 C2796 1.378 . S
C2798 C2799 1.367 . S
C2799 C2798 1.367 . S
C2799 C2801 1.433 . S
C2800 C2796 1.350 . S
C2800 C2797 1.463 . S
C2800 N2804 1.427 . S
C2801 H2791 0.929 . S
C2801 C2799 1.433 . S
C2801 N2804 1.384 . S
C2802 H2793 0.929 . S
C2802 C2794 1.378 . S
C2802 C2797 1.350 . S
C2803 H2790 0.929 . S
C2803 C2795 1.433 . S
C2803 N2805 1.384 . S
N2804 C2800 1.427 . S
N2804 C2801 1.384 . S
N2805 C2797 1.427 . S
N2805 C2803 1.384 . S
H2806 C2812 0.930 . S
H2807 C2816 0.930 . S
H2808 C2821 0.929 . S
H2809 C2819 0.929 . S
H2810 C2814 0.929 . S
H2811 C2820 0.929 . S
C2812 H2806 0.930 . S
C2812 C2813 1.367 . S
C2812 C2820 1.378 . S
C2813 C2812 1.367 . S
C2813 C2821 1.433 . S
C2814 H2810 0.929 . S
C2814 C2816 1.378 . S
C2814 C2818 1.350 . S
C2815 C2818 1.463 . S
C2815 C2820 1.350 . S
C2815 N2823 1.427 . S
C2816 H2807 0.930 . S
C2816 C2814 1.378 . S
C2816 C2817 1.367 . S
C2817 C2816 1.367 . S
C2817 C2819 1.433 . S
C2818 C2814 1.350 . S
C2818 C2815 1.463 . S
C2818 N2822 1.427 . S
C2819 H2809 0.929 . S
C2819 C2817 1.433 . S
C2819 N2822 1.384 . S
C2820 H2811 0.929 . S
C2820 C2812 1.378 . S
C2820 C2815 1.350 . S
C2821 H2808 0.929 . S
C2821 C2813 1.433 . S
C2821 N2823 1.384 . S
N2822 C2818 1.427 . S
N2822 C2819 1.384 . S
N2823 C2815 1.427 . S
N2823 C2821 1.384 . S
H2824 C2830 0.930 . S
H2825 C2834 0.930 . S
H2826 C2839 0.929 . S
H2827 C2837 0.929 . S
H2828 C2832 0.929 . S
H2829 C2838 0.929 . S
C2830 H2824 0.930 . S
C2830 C2831 1.367 . S
C2830 C2838 1.378 . S
C2831 C2830 1.367 . S
C2831 C2839 1.433 . S
C2832 H2828 0.929 . S
C2832 C2834 1.378 . S
C2832 C2836 1.350 . S
C2833 C2836 1.463 . S
C2833 C2838 1.350 . S
C2833 N2841 1.427 . S
C2834 H2825 0.930 . S
C2834 C2832 1.378 . S
C2834 C2835 1.367 . S
C2835 C2834 1.367 . S
C2835 C2837 1.433 . S
C2836 C2832 1.350 . S
C2836 C2833 1.463 . S
C2836 N2840 1.427 . S
C2837 H2827 0.929 . S
C2837 C2835 1.433 . S
C2837 N2840 1.384 . S
C2838 H2829 0.929 . S
C2838 C2830 1.378 . S
C2838 C2833 1.350 . S
C2839 H2826 0.929 . S
C2839 C2831 1.433 . S
C2839 N2841 1.384 . S
N2840 C2836 1.427 . S
N2840 C2837 1.384 . S
N2841 C2833 1.427 . S
N2841 C2839 1.384 . S
H2842 C2848 0.930 . S
H2843 C2852 0.930 . S
H2844 C2857 0.929 . S
H2845 C2855 0.929 . S
H2846 C2850 0.929 . S
H2847 C2856 0.929 . S
C2848 H2842 0.930 . S
C2848 C2849 1.367 . S
C2848 C2856 1.378 . S
C2849 C2848 1.367 . S
C2849 C2857 1.433 . S
C2850 H2846 0.929 . S
C2850 C2852 1.378 . S
C2850 C2854 1.350 . S
C2851 C2854 1.463 . S
C2851 C2856 1.350 . S
C2851 N2859 1.427 . S
C2852 H2843 0.930 . S
C2852 C2850 1.378 . S
C2852 C2853 1.367 . S
C2853 C2852 1.367 . S
C2853 C2855 1.433 . S
C2854 C2850 1.350 . S
C2854 C2851 1.463 . S
C2854 N2858 1.427 . S
C2855 H2845 0.929 . S
C2855 C2853 1.433 . S
C2855 N2858 1.384 . S
C2856 H2847 0.929 . S
C2856 C2848 1.378 . S
C2856 C2851 1.350 . S
C2857 H2844 0.929 . S
C2857 C2849 1.433 . S
C2857 N2859 1.384 . S
N2858 C2854 1.427 . S
N2858 C2855 1.384 . S
N2859 C2851 1.427 . S
N2859 C2857 1.384 . S
H2860 C2866 0.930 . S
H2861 C2870 0.930 . S
H2862 C2875 0.929 . S
H2863 C2873 0.929 . S
H2864 C2868 0.929 . S
H2865 C2874 0.929 . S
C2866 H2860 0.930 . S
C2866 C2867 1.367 . S
C2866 C2874 1.378 . S
C2867 C2866 1.367 . S
C2867 C2875 1.433 . S
C2868 H2864 0.929 . S
C2868 C2870 1.378 . S
C2868 C2872 1.350 . S
C2869 C2872 1.463 . S
C2869 C2874 1.350 . S
C2869 N2877 1.427 . S
C2870 H2861 0.930 . S
C2870 C2868 1.378 . S
C2870 C2871 1.367 . S
C2871 C2870 1.367 . S
C2871 C2873 1.433 . S
C2872 C2868 1.350 . S
C2872 C2869 1.463 . S
C2872 N2876 1.427 . S
C2873 H2863 0.929 . S
C2873 C2871 1.433 . S
C2873 N2876 1.384 . S
C2874 H2865 0.929 . S
C2874 C2866 1.378 . S
C2874 C2869 1.350 . S
C2875 H2862 0.929 . S
C2875 C2867 1.433 . S
C2875 N2877 1.384 . S
N2876 C2872 1.427 . S
N2876 C2873 1.384 . S
N2877 C2869 1.427 . S
N2877 C2875 1.384 . S
H2878 C2884 0.930 . S
H2879 C2888 0.930 . S
H2880 C2893 0.929 . S
H2881 C2891 0.929 . S
H2882 C2886 0.929 . S
H2883 C2892 0.929 . S
C2884 H2878 0.930 . S
C2884 C2885 1.367 . S
C2884 C2892 1.378 . S
C2885 C2884 1.367 . S
C2885 C2893 1.433 . S
C2886 H2882 0.929 . S
C2886 C2888 1.378 . S
C2886 C2890 1.350 . S
C2887 C2890 1.463 . S
C2887 C2892 1.350 . S
C2887 N2895 1.427 . S
C2888 H2879 0.930 . S
C2888 C2886 1.378 . S
C2888 C2889 1.367 . S
C2889 C2888 1.367 . S
C2889 C2891 1.433 . S
C2890 C2886 1.350 . S
C2890 C2887 1.463 . S
C2890 N2894 1.427 . S
C2891 H2881 0.929 . S
C2891 C2889 1.433 . S
C2891 N2894 1.384 . S
C2892 H2883 0.929 . S
C2892 C2884 1.378 . S
C2892 C2887 1.350 . S
C2893 H2880 0.929 . S
C2893 C2885 1.433 . S
C2893 N2895 1.384 . S
N2894 C2890 1.427 . S
N2894 C2891 1.384 . S
N2895 C2887 1.427 . S
N2895 C2893 1.384 . S
H2896 C2902 0.930 . S
H2897 C2906 0.931 . S
H2898 C2911 0.929 . S
H2899 C2909 0.929 . S
H2900 C2904 0.902 1_655 S
H2901 C2910 0.929 . S
C2902 H2896 0.930 . S
C2902 C2903 1.367 1_455 S
C2902 C2910 1.378 . S
C2903 C2902 1.367 1_655 S
C2903 C2911 1.433 . S
C2904 H2900 0.902 1_455 S
C2904 C2906 1.395 . S
C2904 C2908 1.361 . S
C2905 C2908 1.463 . S
C2905 C2910 1.350 . S
C2905 N2913 1.427 1_455 S
C2906 H2897 0.931 . S
C2906 C2904 1.395 . S
C2906 C2907 1.367 . S
C2907 C2906 1.367 . S
C2907 C2909 1.433 . S
C2908 C2904 1.361 . S
C2908 C2905 1.463 . S
C2908 N2912 1.427 . S
C2909 H2899 0.929 . S
C2909 C2907 1.433 . S
C2909 N2912 1.384 . S
C2910 H2901 0.929 . S
C2910 C2902 1.378 . S
C2910 C2905 1.350 . S
C2911 H2898 0.929 . S
C2911 C2903 1.433 . S
C2911 N2913 1.384 . S
N2912 C2908 1.427 . S
N2912 C2909 1.384 . S
N2913 C2905 1.427 1_655 S
N2913 C2911 1.384 . S
H2914 C2920 0.930 . S
H2915 C2924 0.930 . S
H2916 C2929 0.929 . S
H2917 C2927 0.929 . S
H2918 C2922 0.929 . S
H2919 C2928 0.929 . S
C2920 H2914 0.930 . S
C2920 C2921 1.367 . S
C2920 C2928 1.378 . S
C2921 C2920 1.367 . S
C2921 C2929 1.433 . S
C2922 H2918 0.929 . S
C2922 C2924 1.378 . S
C2922 C2926 1.350 . S
C2923 C2926 1.463 . S
C2923 C2928 1.350 . S
C2923 N2931 1.427 . S
C2924 H2915 0.930 . S
C2924 C2922 1.378 . S
C2924 C2925 1.367 . S
C2925 C2924 1.367 . S
C2925 C2927 1.433 . S
C2926 C2922 1.350 . S
C2926 C2923 1.463 . S
C2926 N2930 1.427 . S
C2927 H2917 0.929 . S
C2927 C2925 1.433 . S
C2927 N2930 1.384 . S
C2928 H2919 0.929 . S
C2928 C2920 1.378 . S
C2928 C2923 1.350 . S
C2929 H2916 0.929 . S
C2929 C2921 1.433 . S
C2929 N2931 1.384 . S
N2930 C2926 1.427 . S
N2930 C2927 1.384 . S
N2931 C2923 1.427 . S
N2931 C2929 1.384 . S
H2932 C2938 0.930 . S
H2933 C2942 0.930 . S
H2934 C2947 0.929 . S
H2935 C2945 0.941 . S
H2936 C2940 0.929 . S
H2937 C2946 0.929 . S
C2938 H2932 0.930 . S
C2938 C2939 1.367 . S
C2938 C2946 1.378 . S
C2939 C2938 1.367 . S
C2939 C2947 1.433 . S
C2940 H2936 0.929 . S
C2940 C2942 1.378 . S
C2940 C2944 1.350 . S
C2941 C2944 1.463 . S
C2941 C2946 1.350 . S
C2941 N2949 1.427 . S
C2942 H2933 0.930 . S
C2942 C2940 1.378 . S
C2942 C2943 1.367 . S
C2943 C2942 1.367 . S
C2943 C2945 1.433 . S
C2944 C2940 1.350 . S
C2944 C2941 1.463 . S
C2944 N2948 1.427 . S
C2945 H2935 0.941 . S
C2945 C2943 1.433 . S
C2945 N2948 1.384 . S
C2946 H2937 0.929 . S
C2946 C2938 1.378 . S
C2946 C2941 1.350 . S
C2947 H2934 0.929 . S
C2947 C2939 1.433 . S
C2947 N2949 1.384 . S
N2948 C2944 1.427 . S
N2948 C2945 1.384 . S
N2949 C2941 1.427 . S
N2949 C2947 1.384 . S
H2950 C2956 0.930 . S
H2951 C2960 0.930 . S
H2952 C2965 0.929 . S
H2953 C2963 0.929 . S
H2954 C2958 0.929 . S
H2955 C2964 0.929 . S
C2956 H2950 0.930 . S
C2956 C2957 1.367 . S
C2956 C2964 1.378 . S
C2957 C2956 1.367 . S
C2957 C2965 1.433 . S
C2958 H2954 0.929 . S
C2958 C2960 1.378 . S
C2958 C2962 1.350 . S
C2959 C2962 1.463 . S
C2959 C2964 1.350 . S
C2959 N2967 1.427 . S
C2960 H2951 0.930 . S
C2960 C2958 1.378 . S
C2960 C2961 1.367 . S
C2961 C2960 1.367 . S
C2961 C2963 1.433 . S
C2962 C2958 1.350 . S
C2962 C2959 1.463 . S
C2962 N2966 1.427 . S
C2963 H2953 0.929 . S
C2963 C2961 1.433 . S
C2963 N2966 1.384 . S
C2964 H2955 0.929 . S
C2964 C2956 1.378 . S
C2964 C2959 1.350 . S
C2965 H2952 0.929 . S
C2965 C2957 1.433 . S
C2965 N2967 1.384 . S
N2966 C2962 1.427 . S
N2966 C2963 1.384 . S
N2967 C2959 1.427 . S
N2967 C2965 1.384 . S
H2968 C2974 0.930 . S
H2969 C2978 0.930 . S
H2970 C2983 0.929 . S
H2971 C2981 0.929 . S
H2972 C2976 0.929 . S
H2973 C2982 0.929 . S
C2974 H2968 0.930 . S
C2974 C2975 1.367 . S
C2974 C2982 1.378 . S
C2975 C2974 1.367 . S
C2975 C2983 1.433 1_655 S
C2976 H2972 0.929 . S
C2976 C2978 1.378 . S
C2976 C2980 1.350 . S
C2977 C2980 1.463 . S
C2977 C2982 1.350 1_455 S
C2977 N2985 1.427 . S
C2978 H2969 0.930 . S
C2978 C2976 1.378 . S
C2978 C2979 1.367 . S
C2979 C2978 1.367 . S
C2979 C2981 1.433 . S
C2980 C2976 1.350 . S
C2980 C2977 1.463 . S
C2980 N2984 1.427 . S
C2981 H2971 0.929 . S
C2981 C2979 1.433 . S
C2981 N2984 1.384 . S
C2982 H2973 0.929 . S
C2982 C2974 1.378 . S
C2982 C2977 1.350 1_655 S
C2983 H2970 0.929 . S
C2983 C2975 1.433 1_455 S
C2983 N2985 1.384 . S
N2984 C2980 1.427 . S
N2984 C2981 1.384 . S
N2985 C2977 1.427 . S
N2985 C2983 1.384 . S
H2986 C2992 0.930 . S
H2987 C2996 0.930 . S
H2988 C3001 0.929 . S
H2989 C2999 0.929 . S
H2990 C2994 0.929 . S
H2991 C3000 0.929 . S
C2992 H2986 0.930 . S
C2992 C2993 1.367 . S
C2992 C3000 1.378 . S
C2993 C2992 1.367 . S
C2993 C3001 1.433 . S
C2994 H2990 0.929 . S
C2994 C2996 1.378 . S
C2994 C2998 1.350 . S
C2995 C2998 1.463 . S
C2995 C3000 1.350 . S
C2995 N3003 1.427 . S
C2996 H2987 0.930 . S
C2996 C2994 1.378 . S
C2996 C2997 1.367 . S
C2997 C2996 1.367 . S
C2997 C2999 1.433 . S
C2998 C2994 1.350 . S
C2998 C2995 1.463 . S
C2998 N3002 1.427 . S
C2999 H2989 0.929 . S
C2999 C2997 1.433 . S
C2999 N3002 1.384 . S
C3000 H2991 0.929 . S
C3000 C2992 1.378 . S
C3000 C2995 1.350 . S
C3001 H2988 0.929 . S
C3001 C2993 1.433 . S
C3001 N3003 1.384 . S
N3002 C2998 1.427 . S
N3002 C2999 1.384 . S
N3003 C2995 1.427 . S
N3003 C3001 1.384 . S
H3004 C3010 0.930 . S
H3005 C3014 0.930 . S
H3006 C3019 0.929 . S
H3007 C3017 0.929 . S
H3008 C3012 0.929 . S
H3009 C3018 0.929 . S
C3010 H3004 0.930 . S
C3010 C3011 1.367 . S
C3010 C3018 1.378 . S
C3011 C3010 1.367 . S
C3011 C3019 1.433 . S
C3012 H3008 0.929 . S
C3012 C3014 1.378 . S
C3012 C3016 1.350 . S
C3013 C3016 1.463 . S
C3013 C3018 1.350 . S
C3013 N3021 1.427 . S
C3014 H3005 0.930 . S
C3014 C3012 1.378 . S
C3014 C3015 1.367 . S
C3015 C3014 1.367 . S
C3015 C3017 1.433 . S
C3016 C3012 1.350 . S
C3016 C3013 1.463 . S
C3016 N3020 1.427 . S
C3017 H3007 0.929 . S
C3017 C3015 1.433 . S
C3017 N3020 1.384 . S
C3018 H3009 0.929 . S
C3018 C3010 1.378 . S
C3018 C3013 1.350 . S
C3019 H3006 0.929 . S
C3019 C3011 1.433 . S
C3019 N3021 1.384 . S
N3020 C3016 1.427 . S
N3020 C3017 1.384 . S
N3021 C3013 1.427 . S
N3021 C3019 1.384 . S
H3022 C3028 0.930 . S
H3023 C3032 0.930 . S
H3024 C3037 0.929 . S
H3025 C3035 0.929 . S
H3026 C3030 0.929 . S
H3027 C3036 0.929 . S
C3028 H3022 0.930 . S
C3028 C3029 1.367 . S
C3028 C3036 1.378 . S
C3029 C3028 1.367 . S
C3029 C3037 1.433 . S
C3030 H3026 0.929 . S
C3030 C3032 1.378 . S
C3030 C3034 1.350 . S
C3031 C3034 1.463 . S
C3031 C3036 1.350 . S
C3031 N3039 1.427 . S
C3032 H3023 0.930 . S
C3032 C3030 1.378 . S
C3032 C3033 1.367 . S
C3033 C3032 1.367 . S
C3033 C3035 1.433 . S
C3034 C3030 1.350 . S
C3034 C3031 1.463 . S
C3034 N3038 1.427 . S
C3035 H3025 0.929 . S
C3035 C3033 1.433 . S
C3035 N3038 1.384 . S
C3036 H3027 0.929 . S
C3036 C3028 1.378 . S
C3036 C3031 1.350 . S
C3037 H3024 0.929 . S
C3037 C3029 1.433 . S
C3037 N3039 1.384 . S
N3038 C3034 1.427 . S
N3038 C3035 1.384 . S
N3039 C3031 1.427 . S
N3039 C3037 1.384 . S
H3040 C3046 0.930 1_545 S
H3041 C3050 0.930 . S
H3042 C3055 0.929 . S
H3043 C3053 0.929 . S
H3044 C3048 0.929 . S
H3045 C3054 0.929 1_545 S
C3046 H3040 0.930 1_565 S
C3046 C3047 1.367 . S
C3046 C3054 1.378 . S
C3047 C3046 1.367 . S
C3047 C3055 1.433 . S
C3048 H3044 0.929 . S
C3048 C3050 1.378 . S
C3048 C3052 1.350 . S
C3049 C3052 1.463 . S
C3049 C3054 1.350 . S
C3049 N3057 1.427 . S
C3050 H3041 0.930 . S
C3050 C3048 1.378 . S
C3050 C3051 1.367 . S
C3051 C3050 1.367 . S
C3051 C3053 1.433 1_565 S
C3052 C3048 1.350 . S
C3052 C3049 1.463 . S
C3052 N3056 1.427 1_565 S
C3053 H3043 0.929 . S
C3053 C3051 1.433 1_545 S
C3053 N3056 1.384 . S
C3054 H3045 0.929 1_565 S
C3054 C3046 1.378 . S
C3054 C3049 1.350 . S
C3055 H3042 0.929 . S
C3055 C3047 1.433 . S
C3055 N3057 1.384 . S
N3056 C3052 1.427 1_545 S
N3056 C3053 1.384 . S
N3057 C3049 1.427 . S
N3057 C3055 1.384 . S
H3058 C3064 0.930 . S
H3059 C3068 0.930 . S
H3060 C3073 0.929 . S
H3061 C3071 0.929 . S
H3062 C3066 0.929 . S
H3063 C3072 0.929 . S
C3064 H3058 0.930 . S
C3064 C3065 1.367 . S
C3064 C3072 1.378 . S
C3065 C3064 1.367 . S
C3065 C3073 1.433 1_556 S
C3066 H3062 0.929 . S
C3066 C3068 1.378 . S
C3066 C3070 1.302 1_554 S
C3067 C3070 1.480 . S
C3067 C3072 1.350 . S
C3067 N3075 1.427 1_556 S
C3068 H3059 0.930 . S
C3068 C3066 1.378 . S
C3068 C3069 1.367 . S
C3069 C3068 1.367 . S
C3069 C3071 1.433 1_554 S
C3070 C3066 1.302 1_556 S
C3070 C3067 1.480 . S
C3070 N3074 1.463 . S
C3071 H3061 0.929 . S
C3071 C3069 1.433 1_556 S
C3071 N3074 1.384 . S
C3072 H3063 0.929 . S
C3072 C3064 1.378 . S
C3072 C3067 1.350 . S
C3073 H3060 0.929 . S
C3073 C3065 1.433 1_554 S
C3073 N3075 1.384 . S
N3074 C3070 1.463 . S
N3074 C3071 1.384 . S
N3075 C3067 1.427 1_554 S
N3075 C3073 1.384 . S
H3076 C3082 0.930 . S
H3077 C3086 0.930 . S
H3078 C3091 0.929 . S
H3079 C3089 0.929 . S
H3080 C3084 0.929 . S
H3081 C3090 0.929 . S
C3082 H3076 0.930 . S
C3082 C3083 1.367 . S
C3082 C3090 1.378 . S
C3083 C3082 1.367 . S
C3083 C3091 1.433 . S
C3084 H3080 0.929 . S
C3084 C3086 1.378 . S
C3084 C3088 1.350 . S
C3085 C3088 1.463 . S
C3085 C3090 1.350 . S
C3085 N3093 1.427 . S
C3086 H3077 0.930 . S
C3086 C3084 1.378 . S
C3086 C3087 1.367 . S
C3087 C3086 1.367 . S
C3087 C3089 1.433 . S
C3088 C3084 1.350 . S
C3088 C3085 1.463 . S
C3088 N3092 1.427 . S
C3089 H3079 0.929 . S
C3089 C3087 1.433 . S
C3089 N3092 1.384 . S
C3090 H3081 0.929 . S
C3090 C3082 1.378 . S
C3090 C3085 1.350 . S
C3091 H3078 0.929 . S
C3091 C3083 1.433 . S
C3091 N3093 1.384 . S
N3092 C3088 1.427 . S
N3092 C3089 1.384 . S
N3093 C3085 1.427 . S
N3093 C3091 1.384 . S
H3094 C3100 0.930 . S
H3095 C3104 0.928 1_455 S
H3096 C3109 0.929 . S
H3097 C3107 0.929 . S
H3098 C3102 0.929 . S
H3099 C3108 0.929 . S
C3100 H3094 0.930 . S
C3100 C3101 1.367 . S
C3100 C3108 1.378 . S
C3101 C3100 1.367 . S
C3101 C3109 1.433 . S
C3102 H3098 0.929 . S
C3102 C3104 1.378 . S
C3102 C3106 1.350 . S
C3103 C3106 1.463 . S
C3103 C3108 1.350 . S
C3103 N3111 1.427 . S
C3104 H3095 0.928 1_655 S
C3104 C3102 1.378 . S
C3104 C3105 1.367 . S
C3105 C3104 1.367 . S
C3105 C3107 1.433 . S
C3106 C3102 1.350 . S
C3106 C3103 1.463 . S
C3106 N3110 1.427 . S
C3107 H3097 0.929 . S
C3107 C3105 1.433 . S
C3107 N3110 1.384 . S
C3108 H3099 0.929 . S
C3108 C3100 1.378 . S
C3108 C3103 1.350 . S
C3109 H3096 0.929 . S
C3109 C3101 1.433 . S
C3109 N3111 1.384 . S
N3110 C3106 1.427 . S
N3110 C3107 1.384 . S
N3111 C3103 1.427 . S
N3111 C3109 1.384 . S
H3112 C3118 0.930 . S
H3113 C3122 0.930 . S
H3114 C3127 0.929 . S
H3115 C3125 0.929 . S
H3116 C3120 0.929 . S
H3117 C3126 0.929 . S
C3118 H3112 0.930 . S
C3118 C3119 1.367 . S
C3118 C3126 1.378 . S
C3119 C3118 1.367 . S
C3119 C3127 1.433 . S
C3120 H3116 0.929 . S
C3120 C3122 1.378 . S
C3120 C3124 1.350 . S
C3121 C3124 1.463 . S
C3121 C3126 1.350 . S
C3121 N3129 1.427 . S
C3122 H3113 0.930 . S
C3122 C3120 1.378 . S
C3122 C3123 1.367 . S
C3123 C3122 1.367 . S
C3123 C3125 1.433 . S
C3124 C3120 1.350 . S
C3124 C3121 1.463 . S
C3124 N3128 1.427 . S
C3125 H3115 0.929 . S
C3125 C3123 1.433 . S
C3125 N3128 1.384 . S
C3126 H3117 0.929 . S
C3126 C3118 1.378 . S
C3126 C3121 1.350 . S
C3127 H3114 0.929 . S
C3127 C3119 1.433 . S
C3127 N3129 1.384 . S
N3128 C3124 1.427 . S
N3128 C3125 1.384 . S
N3129 C3121 1.427 . S
N3129 C3127 1.384 . S
H3130 C3136 0.930 . S
H3131 C3140 0.930 . S
H3132 C3145 0.929 . S
H3133 C3143 0.929 . S
H3134 C3138 0.929 . S
H3135 C3144 0.929 . S
C3136 H3130 0.930 . S
C3136 C3137 1.367 . S
C3136 C3144 1.378 . S
C3137 C3136 1.367 . S
C3137 C3145 1.433 . S
C3138 H3134 0.929 . S
C3138 C3140 1.378 . S
C3138 C3142 1.350 . S
C3139 C3142 1.463 . S
C3139 C3144 1.350 . S
C3139 N3147 1.427 . S
C3140 H3131 0.930 . S
C3140 C3138 1.378 . S
C3140 C3141 1.367 . S
C3141 C3140 1.367 . S
C3141 C3143 1.433 . S
C3142 C3138 1.350 . S
C3142 C3139 1.463 . S
C3142 N3146 1.427 . S
C3143 H3133 0.929 . S
C3143 C3141 1.433 . S
C3143 N3146 1.384 . S
C3144 H3135 0.929 . S
C3144 C3136 1.378 . S
C3144 C3139 1.350 . S
C3145 H3132 0.929 . S
C3145 C3137 1.433 . S
C3145 N3147 1.384 . S
N3146 C3142 1.427 . S
N3146 C3143 1.384 . S
N3147 C3139 1.427 . S
N3147 C3145 1.384 . S
H3148 C3154 0.930 . S
H3149 C3158 0.930 . S
H3150 C3163 0.929 . S
H3151 C3161 0.929 . S
H3152 C3156 0.929 . S
H3153 C3162 0.929 . S
C3154 H3148 0.930 . S
C3154 C3155 1.367 . S
C3154 C3162 1.378 . S
C3155 C3154 1.367 . S
C3155 C3163 1.433 . S
C3156 H3152 0.929 . S
C3156 C3158 1.378 . S
C3156 C3160 1.350 . S
C3157 C3160 1.463 . S
C3157 C3162 1.350 . S
C3157 N3165 1.427 . S
C3158 H3149 0.930 . S
C3158 C3156 1.378 . S
C3158 C3159 1.367 . S
C3159 C3158 1.367 . S
C3159 C3161 1.433 . S
C3160 C3156 1.350 . S
C3160 C3157 1.463 . S
C3160 N3164 1.427 . S
C3161 H3151 0.929 . S
C3161 C3159 1.433 . S
C3161 N3164 1.384 . S
C3162 H3153 0.929 . S
C3162 C3154 1.378 . S
C3162 C3157 1.350 . S
C3163 H3150 0.929 . S
C3163 C3155 1.433 . S
C3163 N3165 1.384 . S
N3164 C3160 1.427 . S
N3164 C3161 1.384 . S
N3165 C3157 1.427 . S
N3165 C3163 1.384 . S
H3166 C3172 0.930 . S
H3167 C3176 0.930 . S
H3168 C3181 0.929 . S
H3169 C3179 0.929 . S
H3170 C3174 0.929 . S
H3171 C3180 0.929 . S
C3172 H3166 0.930 . S
C3172 C3173 1.367 . S
C3172 C3180 1.378 . S
C3173 C3172 1.367 . S
C3173 C3181 1.433 . S
C3174 H3170 0.929 . S
C3174 C3176 1.378 . S
C3174 C3178 1.350 . S
C3175 C3178 1.463 . S
C3175 C3180 1.350 . S
C3175 N3183 1.427 . S
C3176 H3167 0.930 . S
C3176 C3174 1.378 . S
C3176 C3177 1.367 . S
C3177 C3176 1.367 . S
C3177 C3179 1.433 . S
C3178 C3174 1.350 . S
C3178 C3175 1.463 . S
C3178 N3182 1.427 . S
C3179 H3169 0.929 . S
C3179 C3177 1.433 . S
C3179 N3182 1.384 . S
C3180 H3171 0.929 . S
C3180 C3172 1.378 . S
C3180 C3175 1.350 . S
C3181 H3168 0.929 . S
C3181 C3173 1.433 . S
C3181 N3183 1.384 . S
N3182 C3178 1.427 . S
N3182 C3179 1.384 . S
N3183 C3175 1.427 . S
N3183 C3181 1.384 . S
H3184 C3190 0.930 . S
H3185 C3194 0.930 1_556 S
H3186 C3199 0.929 . S
H3187 C3197 0.929 . S
H3188 C3192 0.929 . S
H3189 C3198 0.929 . S
C3190 H3184 0.930 . S
C3190 C3191 1.367 . S
C3190 C3198 1.378 . S
C3191 C3190 1.367 . S
C3191 C3199 1.433 . S
C3192 H3188 0.929 . S
C3192 C3194 1.378 . S
C3192 C3196 1.350 . S
C3193 C3196 1.463 . S
C3193 C3198 1.350 . S
C3193 N3201 1.427 . S
C3194 H3185 0.930 1_554 S
C3194 C3192 1.378 . S
C3194 C3195 1.367 . S
C3195 C3194 1.367 . S
C3195 C3197 1.433 . S
C3196 C3192 1.350 . S
C3196 C3193 1.463 . S
C3196 N3200 1.427 . S
C3197 H3187 0.929 . S
C3197 C3195 1.433 . S
C3197 N3200 1.384 . S
C3198 H3189 0.929 . S
C3198 C3190 1.378 . S
C3198 C3193 1.350 . S
C3199 H3186 0.929 . S
C3199 C3191 1.433 . S
C3199 N3201 1.384 . S
N3200 C3196 1.427 . S
N3200 C3197 1.384 . S
N3201 C3193 1.427 . S
N3201 C3199 1.384 . S
H3202 C3208 0.930 . S
H3203 C3212 0.930 . S
H3204 C3217 0.929 . S
H3205 C3215 0.929 . S
H3206 C3210 0.929 . S
H3207 C3216 0.929 . S
C3208 H3202 0.930 . S
C3208 C3209 1.367 . S
C3208 C3216 1.378 . S
C3209 C3208 1.367 . S
C3209 C3217 1.433 . S
C3210 H3206 0.929 . S
C3210 C3212 1.378 . S
C3210 C3214 1.350 . S
C3211 C3214 1.463 . S
C3211 C3216 1.350 . S
C3211 N3219 1.427 . S
C3212 H3203 0.930 . S
C3212 C3210 1.378 . S
C3212 C3213 1.367 . S
C3213 C3212 1.367 . S
C3213 C3215 1.433 . S
C3214 C3210 1.350 . S
C3214 C3211 1.463 . S
C3214 N3218 1.427 . S
C3215 H3205 0.929 . S
C3215 C3213 1.433 . S
C3215 N3218 1.384 . S
C3216 H3207 0.929 . S
C3216 C3208 1.378 . S
C3216 C3211 1.350 . S
C3217 H3204 0.929 . S
C3217 C3209 1.433 . S
C3217 N3219 1.384 . S
N3218 C3214 1.427 . S
N3218 C3215 1.384 . S
N3219 C3211 1.427 . S
N3219 C3217 1.384 . S
H3220 C3226 0.930 . S
H3221 C3230 0.930 . S
H3222 C3235 0.929 . S
H3223 C3233 0.929 . S
H3224 C3228 0.929 . S
H3225 C3234 0.929 . S
C3226 H3220 0.930 . S
C3226 C3227 1.367 . S
C3226 C3234 1.378 . S
C3227 C3226 1.367 . S
C3227 C3235 1.433 . S
C3228 H3224 0.929 . S
C3228 C3230 1.378 . S
C3228 C3232 1.350 . S
C3229 C3232 1.463 . S
C3229 C3234 1.350 . S
C3229 N3237 1.427 . S
C3230 H3221 0.930 . S
C3230 C3228 1.378 . S
C3230 C3231 1.367 . S
C3231 C3230 1.367 . S
C3231 C3233 1.433 . S
C3232 C3228 1.350 . S
C3232 C3229 1.463 . S
C3232 N3236 1.427 . S
C3233 H3223 0.929 . S
C3233 C3231 1.433 . S
C3233 N3236 1.384 . S
C3234 H3225 0.929 . S
C3234 C3226 1.378 . S
C3234 C3229 1.350 . S
C3235 H3222 0.929 . S
C3235 C3227 1.433 . S
C3235 N3237 1.384 . S
N3236 C3232 1.427 . S
N3236 C3233 1.384 . S
N3237 C3229 1.427 . S
N3237 C3235 1.384 . S
H3238 C3244 0.930 . S
H3239 C3248 0.930 . S
H3240 C3253 0.929 . S
H3241 C3251 0.929 . S
H3242 C3246 0.929 . S
H3243 C3252 0.929 . S
C3244 H3238 0.930 . S
C3244 C3245 1.367 . S
C3244 C3252 1.378 . S
C3245 C3244 1.367 . S
C3245 C3253 1.433 . S
C3246 H3242 0.929 . S
C3246 C3248 1.378 . S
C3246 C3250 1.350 . S
C3247 C3250 1.463 . S
C3247 C3252 1.350 . S
C3247 N3255 1.427 . S
C3248 H3239 0.930 . S
C3248 C3246 1.378 . S
C3248 C3249 1.367 . S
C3249 C3248 1.367 . S
C3249 C3251 1.433 . S
C3250 C3246 1.350 . S
C3250 C3247 1.463 . S
C3250 N3254 1.427 . S
C3251 H3241 0.929 . S
C3251 C3249 1.433 . S
C3251 N3254 1.384 . S
C3252 H3243 0.929 . S
C3252 C3244 1.378 . S
C3252 C3247 1.350 . S
C3253 H3240 0.929 . S
C3253 C3245 1.433 . S
C3253 N3255 1.384 . S
N3254 C3250 1.427 . S
N3254 C3251 1.384 . S
N3255 C3247 1.427 . S
N3255 C3253 1.384 . S
H3256 C3262 0.930 . S
H3257 C3266 0.930 . S
H3258 C3271 0.929 . S
H3259 C3269 0.929 . S
H3260 C3264 0.929 . S
H3261 C3270 0.929 . S
C3262 H3256 0.930 . S
C3262 C3263 1.367 . S
C3262 C3270 1.378 . S
C3263 C3262 1.367 . S
C3263 C3271 1.433 . S
C3264 H3260 0.929 . S
C3264 C3266 1.378 . S
C3264 C3268 1.350 . S
C3265 C3268 1.463 . S
C3265 C3270 1.350 . S
C3265 N3273 1.427 . S
C3266 H3257 0.930 . S
C3266 C3264 1.378 . S
C3266 C3267 1.367 . S
C3267 C3266 1.367 . S
C3267 C3269 1.433 . S
C3268 C3264 1.350 . S
C3268 C3265 1.463 . S
C3268 N3272 1.427 . S
C3269 H3259 0.929 . S
C3269 C3267 1.433 . S
C3269 N3272 1.384 . S
C3270 H3261 0.929 . S
C3270 C3262 1.378 . S
C3270 C3265 1.350 . S
C3271 H3258 0.929 . S
C3271 C3263 1.433 . S
C3271 N3273 1.384 . S
N3272 C3268 1.427 . S
N3272 C3269 1.384 . S
N3273 C3265 1.427 . S
N3273 C3271 1.384 . S
H3274 C3280 0.930 . S
H3275 C3284 0.930 . S
H3276 C3289 0.929 . S
H3277 C3287 0.929 . S
H3278 C3282 0.929 . S
H3279 C3288 0.929 . S
C3280 H3274 0.930 . S
C3280 C3281 1.367 . S
C3280 C3288 1.378 . S
C3281 C3280 1.367 . S
C3281 C3289 1.433 . S
C3282 H3278 0.929 . S
C3282 C3284 1.378 . S
C3282 C3286 1.350 . S
C3283 C3286 1.463 . S
C3283 C3288 1.350 . S
C3283 N3291 1.427 . S
C3284 H3275 0.930 . S
C3284 C3282 1.378 . S
C3284 C3285 1.367 . S
C3285 C3284 1.367 . S
C3285 C3287 1.433 . S
C3286 C3282 1.350 . S
C3286 C3283 1.463 . S
C3286 N3290 1.427 . S
C3287 H3277 0.929 . S
C3287 C3285 1.433 . S
C3287 N3290 1.384 . S
C3288 H3279 0.929 . S
C3288 C3280 1.378 . S
C3288 C3283 1.350 . S
C3289 H3276 0.929 . S
C3289 C3281 1.433 . S
C3289 N3291 1.384 . S
N3290 C3286 1.427 . S
N3290 C3287 1.384 . S
N3291 C3283 1.427 . S
N3291 C3289 1.384 . S
H3292 C3298 0.930 . S
H3293 C3302 0.930 . S
H3294 C3307 0.929 . S
H3295 C3305 0.929 1_554 S
H3296 C3300 0.929 . S
H3297 C3306 0.929 . S
C3298 H3292 0.930 . S
C3298 C3299 1.367 . S
C3298 C3306 1.378 . S
C3299 C3298 1.367 . S
C3299 C3307 1.433 . S
C3300 H3296 0.929 . S
C3300 C3302 1.378 . S
C3300 C3304 1.350 . S
C3301 C3304 1.463 . S
C3301 C3306 1.350 . S
C3301 N3309 1.427 . S
C3302 H3293 0.930 . S
C3302 C3300 1.378 . S
C3302 C3303 1.367 . S
C3303 C3302 1.367 . S
C3303 C3305 1.433 . S
C3304 C3300 1.350 . S
C3304 C3301 1.463 . S
C3304 N3308 1.427 . S
C3305 H3295 0.929 1_556 S
C3305 C3303 1.433 . S
C3305 N3308 1.384 . S
C3306 H3297 0.929 . S
C3306 C3298 1.378 . S
C3306 C3301 1.350 . S
C3307 H3294 0.929 . S
C3307 C3299 1.433 . S
C3307 N3309 1.384 . S
N3308 C3304 1.427 . S
N3308 C3305 1.384 . S
N3309 C3301 1.427 . S
N3309 C3307 1.384 . S
H3310 C3316 0.930 . S
H3311 C3320 0.930 . S
H3312 C3325 0.929 . S
H3313 C3323 0.929 . S
H3314 C3318 0.929 . S
H3315 C3324 0.929 . S
C3316 H3310 0.930 . S
C3316 C3317 1.367 . S
C3316 C3324 1.378 . S
C3317 C3316 1.367 . S
C3317 C3325 1.433 . S
C3318 H3314 0.929 . S
C3318 C3320 1.378 . S
C3318 C3322 1.350 . S
C3319 C3322 1.463 . S
C3319 C3324 1.350 . S
C3319 N3327 1.427 . S
C3320 H3311 0.930 . S
C3320 C3318 1.378 . S
C3320 C3321 1.367 . S
C3321 C3320 1.367 . S
C3321 C3323 1.433 . S
C3322 C3318 1.350 . S
C3322 C3319 1.463 . S
C3322 N3326 1.427 . S
C3323 H3313 0.929 . S
C3323 C3321 1.433 . S
C3323 N3326 1.384 . S
C3324 H3315 0.929 . S
C3324 C3316 1.378 . S
C3324 C3319 1.350 . S
C3325 H3312 0.929 . S
C3325 C3317 1.433 . S
C3325 N3327 1.384 . S
N3326 C3322 1.427 . S
N3326 C3323 1.384 . S
N3327 C3319 1.427 . S
N3327 C3325 1.384 . S
H3328 C3334 0.930 . S
H3329 C3338 0.930 . S
H3330 C3343 0.929 . S
H3331 C3341 0.929 . S
H3332 C3336 0.929 . S
H3333 C3342 0.929 . S
C3334 H3328 0.930 . S
C3334 C3335 1.367 . S
C3334 C3342 1.378 . S
C3335 C3334 1.367 . S
C3335 C3343 1.433 1_545 S
C3336 H3332 0.929 . S
C3336 C3338 1.378 . S
C3336 C3340 1.350 1_565 S
C3337 C3340 1.463 . S
C3337 C3342 1.350 . S
C3337 N3345 1.427 1_545 S
C3338 H3329 0.930 . S
C3338 C3336 1.378 . S
C3338 C3339 1.367 1_565 S
C3339 C3338 1.367 1_545 S
C3339 C3341 1.433 . S
C3340 C3336 1.350 1_545 S
C3340 C3337 1.463 . S
C3340 N3344 1.427 . S
C3341 H3331 0.929 . S
C3341 C3339 1.433 . S
C3341 N3344 1.384 . S
C3342 H3333 0.929 . S
C3342 C3334 1.378 . S
C3342 C3337 1.350 . S
C3343 H3330 0.929 . S
C3343 C3335 1.433 1_565 S
C3343 N3345 1.384 . S
N3344 C3340 1.427 . S
N3344 C3341 1.384 . S
N3345 C3337 1.427 1_565 S
N3345 C3343 1.384 . S
H3346 C3352 0.930 . S
H3347 C3356 0.930 . S
H3348 C3361 0.929 . S
H3349 C3359 0.929 . S
H3350 C3354 0.929 . S
H3351 C3360 0.929 . S
C3352 H3346 0.930 . S
C3352 C3353 1.367 . S
C3352 C3360 1.378 . S
C3353 C3352 1.367 . S
C3353 C3361 1.433 . S
C3354 H3350 0.929 . S
C3354 C3356 1.378 . S
C3354 C3358 1.350 . S
C3355 C3358 1.463 . S
C3355 C3360 1.350 . S
C3355 N3363 1.427 . S
C3356 H3347 0.930 . S
C3356 C3354 1.378 . S
C3356 C3357 1.367 . S
C3357 C3356 1.367 . S
C3357 C3359 1.433 . S
C3358 C3354 1.350 . S
C3358 C3355 1.463 . S
C3358 N3362 1.427 . S
C3359 H3349 0.929 . S
C3359 C3357 1.433 . S
C3359 N3362 1.384 . S
C3360 H3351 0.929 . S
C3360 C3352 1.378 . S
C3360 C3355 1.350 . S
C3361 H3348 0.929 . S
C3361 C3353 1.433 . S
C3361 N3363 1.384 . S
N3362 C3358 1.427 . S
N3362 C3359 1.384 . S
N3363 C3355 1.427 . S
N3363 C3361 1.384 . S
H3364 C3370 0.950 . S
H3365 C3374 0.930 . S
H3366 C3379 0.929 . S
H3367 C3377 0.929 . S
H3368 C3372 0.929 . S
H3369 C3378 0.929 . S
C3370 H3364 0.950 . S
C3370 C3371 1.367 . S
C3370 C3378 1.378 . S
C3371 C3370 1.367 . S
C3371 C3379 1.433 . S
C3372 H3368 0.929 . S
C3372 C3374 1.378 . S
C3372 C3376 1.350 . S
C3373 C3376 1.463 . S
C3373 C3378 1.350 . S
C3373 N3381 1.427 . S
C3374 H3365 0.930 . S
C3374 C3372 1.378 . S
C3374 C3375 1.367 . S
C3375 C3374 1.367 . S
C3375 C3377 1.433 . S
C3376 C3372 1.350 . S
C3376 C3373 1.463 . S
C3376 N3380 1.427 . S
C3377 H3367 0.929 . S
C3377 C3375 1.433 . S
C3377 N3380 1.384 . S
C3378 H3369 0.929 . S
C3378 C3370 1.378 . S
C3378 C3373 1.350 . S
C3379 H3366 0.929 . S
C3379 C3371 1.433 . S
C3379 N3381 1.384 . S
N3380 C3376 1.427 . S
N3380 C3377 1.384 . S
N3381 C3373 1.427 . S
N3381 C3379 1.384 . S
H3382 C3388 0.930 . S
H3383 C3392 0.930 . S
H3384 C3397 0.929 . S
H3385 C3395 0.929 . S
H3386 C3390 0.929 . S
H3387 C3396 0.929 . S
C3388 H3382 0.930 . S
C3388 C3389 1.367 . S
C3388 C3396 1.378 . S
C3389 C3388 1.367 . S
C3389 C3397 1.433 . S
C3390 H3386 0.929 . S
C3390 C3392 1.378 . S
C3390 C3394 1.350 . S
C3391 C3394 1.463 . S
C3391 C3396 1.350 . S
C3391 N3399 1.427 . S
C3392 H3383 0.930 . S
C3392 C3390 1.378 . S
C3392 C3393 1.367 . S
C3393 C3392 1.367 . S
C3393 C3395 1.433 . S
C3394 C3390 1.350 . S
C3394 C3391 1.463 . S
C3394 N3398 1.427 . S
C3395 H3385 0.929 . S
C3395 C3393 1.433 . S
C3395 N3398 1.384 . S
C3396 H3387 0.929 . S
C3396 C3388 1.378 . S
C3396 C3391 1.350 . S
C3397 H3384 0.929 . S
C3397 C3389 1.433 . S
C3397 N3399 1.384 . S
N3398 C3394 1.427 . S
N3398 C3395 1.384 . S
N3399 C3391 1.427 . S
N3399 C3397 1.384 . S
H3400 C3406 0.930 . S
H3401 C3410 0.930 . S
H3402 C3415 0.929 . S
H3403 C3413 0.929 1_565 S
H3404 C3408 0.929 . S
H3405 C3414 0.929 . S
C3406 H3400 0.930 . S
C3406 C3407 1.367 . S
C3406 C3414 1.378 . S
C3407 C3406 1.367 . S
C3407 C3415 1.433 1_565 S
C3408 H3404 0.929 . S
C3408 C3410 1.378 . S
C3408 C3412 1.350 . S
C3409 C3412 1.470 . S
C3409 C3414 1.341 1_545 S
C3409 N3417 1.430 . S
C3410 H3401 0.930 . S
C3410 C3408 1.378 . S
C3410 C3411 1.367 . S
C3411 C3410 1.367 . S
C3411 C3413 1.433 . S
C3412 C3408 1.350 . S
C3412 C3409 1.470 . S
C3412 N3416 1.427 1_545 S
C3413 H3403 0.929 1_545 S
C3413 C3411 1.433 . S
C3413 N3416 1.384 1_545 S
C3414 H3405 0.929 . S
C3414 C3406 1.378 . S
C3414 C3409 1.341 1_565 S
C3415 H3402 0.929 . S
C3415 C3407 1.433 1_545 S
C3415 N3417 1.384 . S
N3416 C3412 1.427 1_565 S
N3416 C3413 1.384 1_565 S
N3417 C3409 1.430 . S
N3417 C3415 1.384 . S
H3418 C3424 0.930 . S
H3419 C3428 0.930 . S
H3420 C3433 0.929 . S
H3421 C3431 0.929 . S
H3422 C3426 0.929 . S
H3423 C3432 0.929 . S
C3424 H3418 0.930 . S
C3424 C3425 1.367 . S
C3424 C3432 1.378 . S
C3425 C3424 1.367 . S
C3425 C3433 1.433 . S
C3426 H3422 0.929 . S
C3426 C3428 1.378 . S
C3426 C3430 1.350 . S
C3427 C3430 1.463 . S
C3427 C3432 1.350 . S
C3427 N3435 1.427 . S
C3428 H3419 0.930 . S
C3428 C3426 1.378 . S
C3428 C3429 1.367 . S
C3429 C3428 1.367 . S
C3429 C3431 1.433 . S
C3430 C3426 1.350 . S
C3430 C3427 1.463 . S
C3430 N3434 1.427 . S
C3431 H3421 0.929 . S
C3431 C3429 1.433 . S
C3431 N3434 1.384 . S
C3432 H3423 0.929 . S
C3432 C3424 1.378 . S
C3432 C3427 1.350 . S
C3433 H3420 0.929 . S
C3433 C3425 1.433 . S
C3433 N3435 1.384 . S
N3434 C3430 1.427 . S
N3434 C3431 1.384 . S
N3435 C3427 1.427 . S
N3435 C3433 1.384 . S
H3436 C3442 0.930 . S
H3437 C3446 0.930 . S
H3438 C3451 0.929 . S
H3439 C3449 0.929 . S
H3440 C3444 0.929 . S
H3441 C3450 0.929 . S
C3442 H3436 0.930 . S
C3442 C3443 1.367 . S
C3442 C3450 1.378 . S
C3443 C3442 1.367 . S
C3443 C3451 1.433 1_545 S
C3444 H3440 0.929 . S
C3444 C3446 1.378 . S
C3444 C3448 1.350 . S
C3445 C3448 1.463 1_545 S
C3445 C3450 1.350 . S
C3445 N3453 1.427 1_545 S
C3446 H3437 0.930 . S
C3446 C3444 1.378 . S
C3446 C3447 1.367 . S
C3447 C3446 1.367 . S
C3447 C3449 1.433 1_565 S
C3448 C3444 1.350 . S
C3448 C3445 1.463 1_565 S
C3448 N3452 1.427 1_565 S
C3449 H3439 0.929 . S
C3449 C3447 1.433 1_545 S
C3449 N3452 1.384 . S
C3450 H3441 0.929 . S
C3450 C3442 1.378 . S
C3450 C3445 1.350 . S
C3451 H3438 0.929 . S
C3451 C3443 1.433 1_565 S
C3451 N3453 1.384 . S
N3452 C3448 1.427 1_545 S
N3452 C3449 1.384 . S
N3453 C3445 1.427 1_565 S
N3453 C3451 1.384 . S
H3454 C3460 0.930 . S
H3455 C3464 0.930 . S
H3456 C3469 0.929 . S
H3457 C3467 0.929 . S
H3458 C3462 0.929 . S
H3459 C3468 0.929 . S
C3460 H3454 0.930 . S
C3460 C3461 1.367 . S
C3460 C3468 1.378 . S
C3461 C3460 1.367 . S
C3461 C3469 1.433 . S
C3462 H3458 0.929 . S
C3462 C3464 1.378 . S
C3462 C3466 1.350 . S
C3463 C3466 1.463 . S
C3463 C3468 1.350 . S
C3463 N3471 1.427 . S
C3464 H3455 0.930 . S
C3464 C3462 1.378 . S
C3464 C3465 1.367 . S
C3465 C3464 1.367 . S
C3465 C3467 1.433 . S
C3466 C3462 1.350 . S
C3466 C3463 1.463 . S
C3466 N3470 1.427 . S
C3467 H3457 0.929 . S
C3467 C3465 1.433 . S
C3467 N3470 1.384 . S
C3468 H3459 0.929 . S
C3468 C3460 1.378 . S
C3468 C3463 1.350 . S
C3469 H3456 0.929 . S
C3469 C3461 1.433 . S
C3469 N3471 1.384 . S
N3470 C3466 1.427 . S
N3470 C3467 1.384 . S
N3471 C3463 1.427 . S
N3471 C3469 1.384 . S
H3472 C3478 0.930 . S
H3473 C3482 0.930 . S
H3474 C3487 0.929 . S
H3475 C3485 0.929 . S
H3476 C3480 0.929 . S
H3477 C3486 0.929 . S
C3478 H3472 0.930 . S
C3478 C3479 1.367 1_556 S
C3478 C3486 1.378 . S
C3479 C3478 1.367 1_554 S
C3479 C3487 1.433 . S
C3480 H3476 0.929 . S
C3480 C3482 1.378 . S
C3480 C3484 1.350 . S
C3481 C3484 1.463 . S
C3481 C3486 1.350 . S
C3481 N3489 1.427 1_556 S
C3482 H3473 0.930 . S
C3482 C3480 1.378 . S
C3482 C3483 1.367 . S
C3483 C3482 1.367 . S
C3483 C3485 1.433 . S
C3484 C3480 1.350 . S
C3484 C3481 1.463 . S
C3484 N3488 1.427 . S
C3485 H3475 0.929 . S
C3485 C3483 1.433 . S
C3485 N3488 1.384 . S
C3486 H3477 0.929 . S
C3486 C3478 1.378 . S
C3486 C3481 1.350 . S
C3487 H3474 0.929 . S
C3487 C3479 1.433 . S
C3487 N3489 1.384 . S
N3488 C3484 1.427 . S
N3488 C3485 1.384 . S
N3489 C3481 1.427 1_554 S
N3489 C3487 1.384 . S
H3490 C3496 0.930 . S
H3491 C3500 0.930 . S
H3492 C3505 0.929 . S
H3493 C3503 0.929 . S
H3494 C3498 0.929 . S
H3495 C3504 0.929 . S
C3496 H3490 0.930 . S
C3496 C3497 1.367 . S
C3496 C3504 1.378 . S
C3497 C3496 1.367 . S
C3497 C3505 1.433 . S
C3498 H3494 0.929 . S
C3498 C3500 1.378 . S
C3498 C3502 1.350 . S
C3499 C3502 1.463 . S
C3499 C3504 1.350 . S
C3499 N3507 1.427 . S
C3500 H3491 0.930 . S
C3500 C3498 1.378 . S
C3500 C3501 1.367 . S
C3501 C3500 1.367 . S
C3501 C3503 1.433 . S
C3502 C3498 1.350 . S
C3502 C3499 1.463 . S
C3502 N3506 1.427 . S
C3503 H3493 0.929 . S
C3503 C3501 1.433 . S
C3503 N3506 1.384 . S
C3504 H3495 0.929 . S
C3504 C3496 1.378 . S
C3504 C3499 1.350 . S
C3505 H3492 0.929 . S
C3505 C3497 1.433 . S
C3505 N3507 1.384 . S
N3506 C3502 1.427 . S
N3506 C3503 1.384 . S
N3507 C3499 1.427 . S
N3507 C3505 1.384 . S
H3508 C3514 0.930 . S
H3509 C3518 0.930 . S
H3510 C3523 0.929 . S
H3511 C3521 0.929 . S
H3512 C3516 0.929 . S
H3513 C3522 0.929 . S
C3514 H3508 0.930 . S
C3514 C3515 1.367 . S
C3514 C3522 1.378 . S
C3515 C3514 1.367 . S
C3515 C3523 1.433 . S
C3516 H3512 0.929 . S
C3516 C3518 1.378 . S
C3516 C3520 1.350 . S
C3517 C3520 1.463 . S
C3517 C3522 1.350 . S
C3517 N3525 1.427 . S
C3518 H3509 0.930 . S
C3518 C3516 1.378 . S
C3518 C3519 1.367 . S
C3519 C3518 1.367 . S
C3519 C3521 1.433 . S
C3520 C3516 1.350 . S
C3520 C3517 1.463 . S
C3520 N3524 1.427 . S
C3521 H3511 0.929 . S
C3521 C3519 1.433 . S
C3521 N3524 1.384 . S
C3522 H3513 0.929 . S
C3522 C3514 1.378 . S
C3522 C3517 1.350 . S
C3523 H3510 0.929 . S
C3523 C3515 1.433 . S
C3523 N3525 1.384 . S
N3524 C3520 1.427 . S
N3524 C3521 1.384 . S
N3525 C3517 1.427 . S
N3525 C3523 1.384 . S
H3526 C3532 0.930 . S
H3527 C3536 0.930 . S
H3528 C3541 0.929 . S
H3529 C3539 0.929 . S
H3530 C3534 0.929 . S
H3531 C3540 0.929 . S
C3532 H3526 0.930 . S
C3532 C3533 1.367 . S
C3532 C3540 1.378 . S
C3533 C3532 1.367 . S
C3533 C3541 1.433 . S
C3534 H3530 0.929 . S
C3534 C3536 1.378 . S
C3534 C3538 1.350 . S
C3535 C3538 1.463 . S
C3535 C3540 1.350 . S
C3535 N3543 1.427 . S
C3536 H3527 0.930 . S
C3536 C3534 1.378 . S
C3536 C3537 1.367 . S
C3537 C3536 1.367 . S
C3537 C3539 1.433 . S
C3538 C3534 1.350 . S
C3538 C3535 1.463 . S
C3538 N3542 1.427 . S
C3539 H3529 0.929 . S
C3539 C3537 1.433 . S
C3539 N3542 1.384 . S
C3540 H3531 0.929 . S
C3540 C3532 1.378 . S
C3540 C3535 1.350 . S
C3541 H3528 0.929 . S
C3541 C3533 1.433 . S
C3541 N3543 1.384 . S
N3542 C3538 1.427 . S
N3542 C3539 1.384 . S
N3543 C3535 1.427 . S
N3543 C3541 1.384 . S
H3544 C3550 0.930 . S
H3545 C3554 0.930 . S
H3546 C3559 0.929 . S
H3547 C3557 0.929 . S
H3548 C3552 0.929 . S
H3549 C3558 0.929 . S
C3550 H3544 0.930 . S
C3550 C3551 1.367 . S
C3550 C3558 1.378 . S
C3551 C3550 1.367 . S
C3551 C3559 1.433 . S
C3552 H3548 0.929 . S
C3552 C3554 1.378 . S
C3552 C3556 1.350 . S
C3553 C3556 1.463 . S
C3553 C3558 1.350 . S
C3553 N3561 1.427 . S
C3554 H3545 0.930 . S
C3554 C3552 1.378 . S
C3554 C3555 1.367 . S
C3555 C3554 1.367 . S
C3555 C3557 1.433 . S
C3556 C3552 1.350 . S
C3556 C3553 1.463 . S
C3556 N3560 1.427 . S
C3557 H3547 0.929 . S
C3557 C3555 1.433 . S
C3557 N3560 1.384 . S
C3558 H3549 0.929 . S
C3558 C3550 1.378 . S
C3558 C3553 1.350 . S
C3559 H3546 0.929 . S
C3559 C3551 1.433 . S
C3559 N3561 1.384 . S
N3560 C3556 1.427 . S
N3560 C3557 1.384 . S
N3561 C3553 1.427 . S
N3561 C3559 1.384 . S
H3562 C3568 0.930 . S
H3563 C3572 0.930 . S
H3564 C3577 0.929 . S
H3565 C3575 0.929 . S
H3566 C3570 0.929 . S
H3567 C3576 0.929 . S
C3568 H3562 0.930 . S
C3568 C3569 1.367 . S
C3568 C3576 1.378 . S
C3569 C3568 1.367 . S
C3569 C3577 1.433 . S
C3570 H3566 0.929 . S
C3570 C3572 1.378 . S
C3570 C3574 1.350 . S
C3571 C3574 1.463 . S
C3571 C3576 1.350 . S
C3571 N3579 1.427 . S
C3572 H3563 0.930 . S
C3572 C3570 1.378 . S
C3572 C3573 1.367 . S
C3573 C3572 1.367 . S
C3573 C3575 1.433 . S
C3574 C3570 1.350 . S
C3574 C3571 1.463 . S
C3574 N3578 1.427 . S
C3575 H3565 0.929 . S
C3575 C3573 1.433 . S
C3575 N3578 1.384 . S
C3576 H3567 0.929 . S
C3576 C3568 1.378 . S
C3576 C3571 1.350 . S
C3577 H3564 0.929 . S
C3577 C3569 1.433 . S
C3577 N3579 1.384 . S
N3578 C3574 1.427 . S
N3578 C3575 1.384 . S
N3579 C3571 1.427 . S
N3579 C3577 1.384 . S
H3580 C3586 0.930 . S
H3581 C3590 0.930 . S
H3582 C3595 0.929 . S
H3583 C3593 0.929 . S
H3584 C3588 0.929 . S
H3585 C3594 0.929 . S
C3586 H3580 0.930 . S
C3586 C3587 1.367 . S
C3586 C3594 1.378 . S
C3587 C3586 1.367 . S
C3587 C3595 1.433 . S
C3588 H3584 0.929 . S
C3588 C3590 1.378 . S
C3588 C3592 1.350 . S
C3589 C3592 1.463 . S
C3589 C3594 1.350 . S
C3589 N3597 1.427 . S
C3590 H3581 0.930 . S
C3590 C3588 1.378 . S
C3590 C3591 1.367 . S
C3591 C3590 1.367 . S
C3591 C3593 1.433 . S
C3592 C3588 1.350 . S
C3592 C3589 1.463 . S
C3592 N3596 1.427 . S
C3593 H3583 0.929 . S
C3593 C3591 1.433 . S
C3593 N3596 1.384 . S
C3594 H3585 0.929 . S
C3594 C3586 1.378 . S
C3594 C3589 1.350 . S
C3595 H3582 0.929 . S
C3595 C3587 1.433 . S
C3595 N3597 1.384 . S
N3596 C3592 1.427 . S
N3596 C3593 1.384 . S
N3597 C3589 1.427 . S
N3597 C3595 1.384 . S
H3598 C3604 0.930 . S
H3599 C3608 0.930 . S
H3600 C3613 0.929 . S
H3601 C3611 0.929 . S
H3602 C3606 0.929 . S
H3603 C3612 0.929 . S
C3604 H3598 0.930 . S
C3604 C3605 1.367 . S
C3604 C3612 1.378 . S
C3605 C3604 1.367 . S
C3605 C3613 1.433 . S
C3606 H3602 0.929 . S
C3606 C3608 1.378 . S
C3606 C3610 1.350 . S
C3607 C3610 1.463 . S
C3607 C3612 1.350 . S
C3607 N3615 1.427 . S
C3608 H3599 0.930 . S
C3608 C3606 1.378 . S
C3608 C3609 1.367 . S
C3609 C3608 1.367 . S
C3609 C3611 1.433 . S
C3610 C3606 1.350 . S
C3610 C3607 1.463 . S
C3610 N3614 1.427 . S
C3611 H3601 0.929 . S
C3611 C3609 1.433 . S
C3611 N3614 1.384 . S
C3612 H3603 0.929 . S
C3612 C3604 1.378 . S
C3612 C3607 1.350 . S
C3613 H3600 0.929 . S
C3613 C3605 1.433 . S
C3613 N3615 1.384 . S
N3614 C3610 1.427 . S
N3614 C3611 1.384 . S
N3615 C3607 1.427 . S
N3615 C3613 1.384 . S
H3616 C3622 0.930 . S
H3617 C3626 0.930 . S
H3618 C3631 0.929 . S
H3619 C3629 0.929 . S
H3620 C3624 0.929 . S
H3621 C3630 0.929 . S
C3622 H3616 0.930 . S
C3622 C3623 1.367 . S
C3622 C3630 1.378 . S
C3623 C3622 1.367 . S
C3623 C3631 1.433 . S
C3624 H3620 0.929 . S
C3624 C3626 1.378 . S
C3624 C3628 1.350 . S
C3625 C3628 1.463 . S
C3625 C3630 1.350 . S
C3625 N3633 1.427 . S
C3626 H3617 0.930 . S
C3626 C3624 1.378 . S
C3626 C3627 1.367 . S
C3627 C3626 1.367 . S
C3627 C3629 1.433 . S
C3628 C3624 1.350 . S
C3628 C3625 1.463 . S
C3628 N3632 1.427 . S
C3629 H3619 0.929 . S
C3629 C3627 1.433 . S
C3629 N3632 1.384 . S
C3630 H3621 0.929 . S
C3630 C3622 1.378 . S
C3630 C3625 1.350 . S
C3631 H3618 0.929 . S
C3631 C3623 1.433 . S
C3631 N3633 1.384 . S
N3632 C3628 1.427 . S
N3632 C3629 1.384 . S
N3633 C3625 1.427 . S
N3633 C3631 1.384 . S
H3634 C3640 0.930 . S
H3635 C3644 0.930 . S
H3636 C3649 0.929 . S
H3637 C3647 0.929 . S
H3638 C3642 0.929 . S
H3639 C3648 0.929 . S
C3640 H3634 0.930 . S
C3640 C3641 1.367 . S
C3640 C3648 1.378 . S
C3641 C3640 1.367 . S
C3641 C3649 1.433 . S
C3642 H3638 0.929 . S
C3642 C3644 1.378 . S
C3642 C3646 1.350 . S
C3643 C3646 1.463 . S
C3643 C3648 1.350 . S
C3643 N3651 1.427 . S
C3644 H3635 0.930 . S
C3644 C3642 1.378 . S
C3644 C3645 1.367 . S
C3645 C3644 1.367 . S
C3645 C3647 1.433 . S
C3646 C3642 1.350 . S
C3646 C3643 1.463 . S
C3646 N3650 1.427 . S
C3647 H3637 0.929 . S
C3647 C3645 1.433 . S
C3647 N3650 1.384 . S
C3648 H3639 0.929 . S
C3648 C3640 1.378 . S
C3648 C3643 1.350 . S
C3649 H3636 0.929 . S
C3649 C3641 1.433 . S
C3649 N3651 1.384 . S
N3650 C3646 1.427 . S
N3650 C3647 1.384 . S
N3651 C3643 1.427 . S
N3651 C3649 1.384 . S
H3652 C3658 0.930 . S
H3653 C3662 0.930 . S
H3654 C3667 0.929 . S
H3655 C3665 0.929 . S
H3656 C3660 0.929 . S
H3657 C3666 0.929 . S
C3658 H3652 0.930 . S
C3658 C3659 1.367 . S
C3658 C3666 1.378 . S
C3659 C3658 1.367 . S
C3659 C3667 1.433 1_556 S
C3660 H3656 0.929 . S
C3660 C3662 1.378 . S
C3660 C3664 1.350 1_554 S
C3661 C3664 1.463 . S
C3661 C3666 1.350 . S
C3661 N3669 1.427 1_556 S
C3662 H3653 0.930 . S
C3662 C3660 1.378 . S
C3662 C3663 1.398 . S
C3663 C3662 1.398 . S
C3663 C3665 1.403 1_554 S
C3664 C3660 1.350 1_556 S
C3664 C3661 1.463 . S
C3664 N3668 1.427 . S
C3665 H3655 0.929 . S
C3665 C3663 1.403 1_556 S
C3665 N3668 1.384 . S
C3666 H3657 0.929 . S
C3666 C3658 1.378 . S
C3666 C3661 1.350 . S
C3667 H3654 0.929 . S
C3667 C3659 1.433 1_554 S
C3667 N3669 1.384 . S
N3668 C3664 1.427 . S
N3668 C3665 1.384 . S
N3669 C3661 1.427 1_554 S
N3669 C3667 1.384 . S
H3670 C3676 0.930 . S
H3671 C3680 0.930 . S
H3672 C3685 0.929 . S
H3673 C3683 0.929 . S
H3674 C3678 0.929 . S
H3675 C3684 0.929 . S
C3676 H3670 0.930 . S
C3676 C3677 1.367 . S
C3676 C3684 1.378 . S
C3677 C3676 1.367 . S
C3677 C3685 1.433 . S
C3678 H3674 0.929 . S
C3678 C3680 1.378 . S
C3678 C3682 1.350 . S
C3679 C3682 1.463 . S
C3679 C3684 1.350 . S
C3679 N3687 1.427 . S
C3680 H3671 0.930 . S
C3680 C3678 1.378 . S
C3680 C3681 1.367 . S
C3681 C3680 1.367 . S
C3681 C3683 1.433 . S
C3682 C3678 1.350 . S
C3682 C3679 1.463 . S
C3682 N3686 1.427 . S
C3683 H3673 0.929 . S
C3683 C3681 1.433 . S
C3683 N3686 1.384 . S
C3684 H3675 0.929 . S
C3684 C3676 1.378 . S
C3684 C3679 1.350 . S
C3685 H3672 0.929 . S
C3685 C3677 1.433 . S
C3685 N3687 1.384 . S
N3686 C3682 1.427 . S
N3686 C3683 1.384 . S
N3687 C3679 1.427 . S
N3687 C3685 1.384 . S
H3688 C3694 0.930 . S
H3689 C3698 0.930 . S
H3690 C3703 0.929 . S
H3691 C3701 0.929 . S
H3692 C3696 0.929 . S
H3693 C3702 0.929 . S
C3694 H3688 0.930 . S
C3694 C3695 1.367 . S
C3694 C3702 1.378 . S
C3695 C3694 1.367 . S
C3695 C3703 1.433 . S
C3696 H3692 0.929 . S
C3696 C3698 1.378 . S
C3696 C3700 1.350 . S
C3697 C3700 1.463 . S
C3697 C3702 1.350 . S
C3697 N3705 1.427 . S
C3698 H3689 0.930 . S
C3698 C3696 1.378 . S
C3698 C3699 1.367 . S
C3699 C3698 1.367 . S
C3699 C3701 1.433 . S
C3700 C3696 1.350 . S
C3700 C3697 1.463 . S
C3700 N3704 1.427 . S
C3701 H3691 0.929 . S
C3701 C3699 1.433 . S
C3701 N3704 1.384 . S
C3702 H3693 0.929 . S
C3702 C3694 1.378 . S
C3702 C3697 1.350 . S
C3703 H3690 0.929 . S
C3703 C3695 1.433 . S
C3703 N3705 1.384 . S
N3704 C3700 1.427 . S
N3704 C3701 1.384 . S
N3705 C3697 1.427 . S
N3705 C3703 1.384 . S
H3706 C3712 0.930 . S
H3707 C3716 0.930 . S
H3708 C3721 0.929 1_455 S
H3709 C3719 0.929 . S
H3710 C3714 0.929 . S
H3711 C3720 0.929 . S
C3712 H3706 0.930 . S
C3712 C3713 1.345 1_655 S
C3712 C3720 1.378 . S
C3713 C3712 1.345 1_455 S
C3713 C3721 1.411 1_455 S
C3714 H3710 0.929 . S
C3714 C3716 1.378 . S
C3714 C3718 1.350 . S
C3715 C3718 1.463 . S
C3715 C3720 1.350 . S
C3715 N3723 1.427 . S
C3716 H3707 0.930 . S
C3716 C3714 1.378 . S
C3716 C3717 1.367 . S
C3717 C3716 1.367 . S
C3717 C3719 1.433 . S
C3718 C3714 1.350 . S
C3718 C3715 1.463 . S
C3718 N3722 1.427 . S
C3719 H3709 0.929 . S
C3719 C3717 1.433 . S
C3719 N3722 1.384 . S
C3720 H3711 0.929 . S
C3720 C3712 1.378 . S
C3720 C3715 1.350 . S
C3721 H3708 0.929 1_655 S
C3721 C3713 1.411 1_655 S
C3721 N3723 1.384 . S
N3722 C3718 1.427 . S
N3722 C3719 1.384 . S
N3723 C3715 1.427 . S
N3723 C3721 1.384 . S
H3724 C3730 0.930 . S
H3725 C3734 0.930 . S
H3726 C3739 0.932 . S
H3727 C3737 0.929 . S
H3728 C3732 0.929 . S
H3729 C3738 0.929 . S
C3730 H3724 0.930 . S
C3730 C3731 1.367 . S
C3730 C3738 1.378 . S
C3731 C3730 1.367 . S
C3731 C3739 1.401 1_655 S
C3732 H3728 0.929 . S
C3732 C3734 1.378 . S
C3732 C3736 1.350 . S
C3733 C3736 1.463 . S
C3733 C3738 1.350 1_455 S
C3733 N3741 1.427 . S
C3734 H3725 0.930 . S
C3734 C3732 1.378 . S
C3734 C3735 1.367 . S
C3735 C3734 1.367 . S
C3735 C3737 1.433 . S
C3736 C3732 1.350 . S
C3736 C3733 1.463 . S
C3736 N3740 1.427 . S
C3737 H3727 0.929 . S
C3737 C3735 1.433 . S
C3737 N3740 1.384 . S
C3738 H3729 0.929 . S
C3738 C3730 1.378 . S
C3738 C3733 1.350 1_655 S
C3739 H3726 0.932 . S
C3739 C3731 1.401 1_455 S
C3739 N3741 1.416 . S
N3740 C3736 1.427 . S
N3740 C3737 1.384 . S
N3741 C3733 1.427 . S
N3741 C3739 1.416 . S
H3742 C3748 0.930 . S
H3743 C3752 0.930 . S
H3744 C3757 0.929 . S
H3745 C3755 0.929 . S
H3746 C3750 0.929 . S
H3747 C3756 0.929 . S
C3748 H3742 0.930 . S
C3748 C3749 1.367 . S
C3748 C3756 1.378 . S
C3749 C3748 1.367 . S
C3749 C3757 1.433 . S
C3750 H3746 0.929 . S
C3750 C3752 1.378 . S
C3750 C3754 1.350 . S
C3751 C3754 1.463 . S
C3751 C3756 1.350 . S
C3751 N3759 1.427 . S
C3752 H3743 0.930 . S
C3752 C3750 1.378 . S
C3752 C3753 1.367 . S
C3753 C3752 1.367 . S
C3753 C3755 1.433 . S
C3754 C3750 1.350 . S
C3754 C3751 1.463 . S
C3754 N3758 1.427 . S
C3755 H3745 0.929 . S
C3755 C3753 1.433 . S
C3755 N3758 1.384 . S
C3756 H3747 0.929 . S
C3756 C3748 1.378 . S
C3756 C3751 1.350 . S
C3757 H3744 0.929 . S
C3757 C3749 1.433 . S
C3757 N3759 1.384 . S
N3758 C3754 1.427 . S
N3758 C3755 1.384 . S
N3759 C3751 1.427 . S
N3759 C3757 1.384 . S
H3760 C3766 0.930 . S
H3761 C3770 0.930 . S
H3762 C3775 0.929 . S
H3763 C3773 0.929 . S
H3764 C3768 0.929 . S
H3765 C3774 0.929 . S
C3766 H3760 0.930 . S
C3766 C3767 1.367 . S
C3766 C3774 1.378 . S
C3767 C3766 1.367 . S
C3767 C3775 1.433 . S
C3768 H3764 0.929 . S
C3768 C3770 1.378 . S
C3768 C3772 1.350 . S
C3769 C3772 1.463 . S
C3769 C3774 1.350 . S
C3769 N3777 1.427 . S
C3770 H3761 0.930 . S
C3770 C3768 1.378 . S
C3770 C3771 1.367 . S
C3771 C3770 1.367 . S
C3771 C3773 1.433 . S
C3772 C3768 1.350 . S
C3772 C3769 1.463 . S
C3772 N3776 1.427 . S
C3773 H3763 0.929 . S
C3773 C3771 1.433 . S
C3773 N3776 1.384 . S
C3774 H3765 0.929 . S
C3774 C3766 1.378 . S
C3774 C3769 1.350 . S
C3775 H3762 0.929 . S
C3775 C3767 1.433 . S
C3775 N3777 1.384 . S
N3776 C3772 1.427 . S
N3776 C3773 1.384 . S
N3777 C3769 1.427 . S
N3777 C3775 1.384 . S
H3778 C3784 0.930 . S
H3779 C3788 0.930 . S
H3780 C3793 0.929 . S
H3781 C3791 0.929 . S
H3782 C3786 0.929 . S
H3783 C3792 0.929 . S
C3784 H3778 0.930 . S
C3784 C3785 1.367 . S
C3784 C3792 1.378 . S
C3785 C3784 1.367 . S
C3785 C3793 1.433 . S
C3786 H3782 0.929 . S
C3786 C3788 1.378 . S
C3786 C3790 1.350 . S
C3787 C3790 1.463 . S
C3787 C3792 1.350 . S
C3787 N3795 1.427 . S
C3788 H3779 0.930 . S
C3788 C3786 1.378 . S
C3788 C3789 1.367 . S
C3789 C3788 1.367 . S
C3789 C3791 1.433 . S
C3790 C3786 1.350 . S
C3790 C3787 1.463 . S
C3790 N3794 1.427 . S
C3791 H3781 0.929 . S
C3791 C3789 1.433 . S
C3791 N3794 1.384 . S
C3792 H3783 0.929 . S
C3792 C3784 1.378 . S
C3792 C3787 1.350 . S
C3793 H3780 0.929 . S
C3793 C3785 1.433 . S
C3793 N3795 1.384 . S
N3794 C3790 1.427 . S
N3794 C3791 1.384 . S
N3795 C3787 1.427 . S
N3795 C3793 1.384 . S
H3796 C3802 0.930 . S
H3797 C3806 0.930 . S
H3798 C3811 0.929 . S
H3799 C3809 0.929 . S
H3800 C3804 0.929 . S
H3801 C3810 0.929 . S
C3802 H3796 0.930 . S
C3802 C3803 1.367 . S
C3802 C3810 1.378 . S
C3803 C3802 1.367 . S
C3803 C3811 1.433 . S
C3804 H3800 0.929 . S
C3804 C3806 1.378 . S
C3804 C3808 1.350 . S
C3805 C3808 1.463 . S
C3805 C3810 1.350 . S
C3805 N3813 1.427 . S
C3806 H3797 0.930 . S
C3806 C3804 1.378 . S
C3806 C3807 1.367 . S
C3807 C3806 1.367 . S
C3807 C3809 1.433 . S
C3808 C3804 1.350 . S
C3808 C3805 1.463 . S
C3808 N3812 1.427 . S
C3809 H3799 0.929 . S
C3809 C3807 1.433 . S
C3809 N3812 1.384 . S
C3810 H3801 0.929 . S
C3810 C3802 1.378 . S
C3810 C3805 1.350 . S
C3811 H3798 0.929 . S
C3811 C3803 1.433 . S
C3811 N3813 1.384 . S
N3812 C3808 1.427 . S
N3812 C3809 1.384 . S
N3813 C3805 1.427 . S
N3813 C3811 1.384 . S
H3814 C3820 0.930 . S
H3815 C3824 0.930 . S
H3816 C3829 0.929 . S
H3817 C3827 0.929 . S
H3818 C3822 0.929 . S
H3819 C3828 0.929 . S
C3820 H3814 0.930 . S
C3820 C3821 1.367 . S
C3820 C3828 1.378 . S
C3821 C3820 1.367 . S
C3821 C3829 1.433 . S
C3822 H3818 0.929 . S
C3822 C3824 1.378 . S
C3822 C3826 1.350 . S
C3823 C3826 1.463 . S
C3823 C3828 1.350 . S
C3823 N3831 1.427 . S
C3824 H3815 0.930 . S
C3824 C3822 1.378 . S
C3824 C3825 1.367 . S
C3825 C3824 1.367 . S
C3825 C3827 1.433 . S
C3826 C3822 1.350 . S
C3826 C3823 1.463 . S
C3826 N3830 1.427 . S
C3827 H3817 0.929 . S
C3827 C3825 1.433 . S
C3827 N3830 1.384 . S
C3828 H3819 0.929 . S
C3828 C3820 1.378 . S
C3828 C3823 1.350 . S
C3829 H3816 0.929 . S
C3829 C3821 1.433 . S
C3829 N3831 1.384 . S
N3830 C3826 1.427 . S
N3830 C3827 1.384 . S
N3831 C3823 1.427 . S
N3831 C3829 1.384 . S
H3832 C3838 0.930 . S
H3833 C3842 0.930 . S
H3834 C3847 0.929 . S
H3835 C3845 0.929 . S
H3836 C3840 0.929 . S
H3837 C3846 0.929 . S
C3838 H3832 0.930 . S
C3838 C3839 1.367 . S
C3838 C3846 1.378 . S
C3839 C3838 1.367 . S
C3839 C3847 1.433 . S
C3840 H3836 0.929 . S
C3840 C3842 1.378 . S
C3840 C3844 1.350 . S
C3841 C3844 1.463 . S
C3841 C3846 1.350 . S
C3841 N3849 1.427 . S
C3842 H3833 0.930 . S
C3842 C3840 1.378 . S
C3842 C3843 1.367 . S
C3843 C3842 1.367 . S
C3843 C3845 1.433 . S
C3844 C3840 1.350 . S
C3844 C3841 1.463 . S
C3844 N3848 1.427 . S
C3845 H3835 0.929 . S
C3845 C3843 1.433 . S
C3845 N3848 1.384 . S
C3846 H3837 0.929 . S
C3846 C3838 1.378 . S
C3846 C3841 1.350 . S
C3847 H3834 0.929 . S
C3847 C3839 1.433 . S
C3847 N3849 1.384 . S
N3848 C3844 1.427 . S
N3848 C3845 1.384 . S
N3849 C3841 1.427 . S
N3849 C3847 1.384 . S
H3850 C3856 0.930 . S
H3851 C3860 0.930 . S
H3852 C3865 0.929 . S
H3853 C3863 0.929 . S
H3854 C3858 0.929 . S
H3855 C3864 0.929 . S
C3856 H3850 0.930 . S
C3856 C3857 1.367 . S
C3856 C3864 1.378 . S
C3857 C3856 1.367 . S
C3857 C3865 1.433 . S
C3858 H3854 0.929 . S
C3858 C3860 1.378 . S
C3858 C3862 1.350 . S
C3859 C3862 1.463 . S
C3859 C3864 1.350 . S
C3859 N3867 1.427 . S
C3860 H3851 0.930 . S
C3860 C3858 1.378 . S
C3860 C3861 1.367 . S
C3861 C3860 1.367 . S
C3861 C3863 1.433 . S
C3862 C3858 1.350 . S
C3862 C3859 1.463 . S
C3862 N3866 1.427 . S
C3863 H3853 0.929 . S
C3863 C3861 1.433 . S
C3863 N3866 1.384 . S
C3864 H3855 0.929 . S
C3864 C3856 1.378 . S
C3864 C3859 1.350 . S
C3865 H3852 0.929 . S
C3865 C3857 1.433 . S
C3865 N3867 1.384 . S
N3866 C3862 1.427 . S
N3866 C3863 1.384 . S
N3867 C3859 1.427 . S
N3867 C3865 1.384 . S
H3868 C3874 0.930 . S
H3869 C3878 0.930 . S
H3870 C3883 0.929 . S
H3871 C3881 0.929 . S
H3872 C3876 0.929 . S
H3873 C3882 0.929 . S
C3874 H3868 0.930 . S
C3874 C3875 1.367 . S
C3874 C3882 1.378 . S
C3875 C3874 1.367 . S
C3875 C3883 1.433 . S
C3876 H3872 0.929 . S
C3876 C3878 1.378 . S
C3876 C3880 1.350 . S
C3877 C3880 1.463 . S
C3877 C3882 1.350 . S
C3877 N3885 1.427 . S
C3878 H3869 0.930 . S
C3878 C3876 1.378 . S
C3878 C3879 1.367 . S
C3879 C3878 1.367 . S
C3879 C3881 1.433 . S
C3880 C3876 1.350 . S
C3880 C3877 1.463 . S
C3880 N3884 1.427 . S
C3881 H3871 0.929 . S
C3881 C3879 1.433 . S
C3881 N3884 1.384 . S
C3882 H3873 0.929 . S
C3882 C3874 1.378 . S
C3882 C3877 1.350 . S
C3883 H3870 0.929 . S
C3883 C3875 1.433 . S
C3883 N3885 1.384 . S
N3884 C3880 1.427 . S
N3884 C3881 1.384 . S
N3885 C3877 1.427 . S
N3885 C3883 1.384 . S
H3886 C3892 0.930 . S
H3887 C3896 0.930 . S
H3888 C3901 0.929 . S
H3889 C3899 0.929 . S
H3890 C3894 0.929 . S
H3891 C3900 0.929 . S
C3892 H3886 0.930 . S
C3892 C3893 1.367 . S
C3892 C3900 1.378 . S
C3893 C3892 1.367 . S
C3893 C3901 1.433 . S
C3894 H3890 0.929 . S
C3894 C3896 1.378 . S
C3894 C3898 1.350 . S
C3895 C3898 1.463 . S
C3895 C3900 1.350 . S
C3895 N3903 1.427 . S
C3896 H3887 0.930 . S
C3896 C3894 1.378 . S
C3896 C3897 1.367 . S
C3897 C3896 1.367 . S
C3897 C3899 1.433 . S
C3898 C3894 1.350 . S
C3898 C3895 1.463 . S
C3898 N3902 1.427 . S
C3899 H3889 0.929 . S
C3899 C3897 1.433 . S
C3899 N3902 1.384 . S
C3900 H3891 0.929 . S
C3900 C3892 1.378 . S
C3900 C3895 1.350 . S
C3901 H3888 0.929 . S
C3901 C3893 1.433 . S
C3901 N3903 1.384 . S
N3902 C3898 1.427 . S
N3902 C3899 1.384 . S
N3903 C3895 1.427 . S
N3903 C3901 1.384 . S
H3904 C3910 0.930 . S
H3905 C3914 0.930 . S
H3906 C3919 0.929 . S
H3907 C3917 0.929 . S
H3908 C3912 0.929 . S
H3909 C3918 0.929 . S
C3910 H3904 0.930 . S
C3910 C3911 1.367 . S
C3910 C3918 1.378 . S
C3911 C3910 1.367 . S
C3911 C3919 1.433 . S
C3912 H3908 0.929 . S
C3912 C3914 1.378 . S
C3912 C3916 1.350 . S
C3913 C3916 1.463 . S
C3913 C3918 1.350 . S
C3913 N3921 1.427 . S
C3914 H3905 0.930 . S
C3914 C3912 1.378 . S
C3914 C3915 1.367 . S
C3915 C3914 1.367 . S
C3915 C3917 1.433 . S
C3916 C3912 1.350 . S
C3916 C3913 1.463 . S
C3916 N3920 1.427 . S
C3917 H3907 0.929 . S
C3917 C3915 1.433 . S
C3917 N3920 1.384 . S
C3918 H3909 0.929 . S
C3918 C3910 1.378 . S
C3918 C3913 1.350 . S
C3919 H3906 0.929 . S
C3919 C3911 1.433 . S
C3919 N3921 1.384 . S
N3920 C3916 1.427 . S
N3920 C3917 1.384 . S
N3921 C3913 1.427 . S
N3921 C3919 1.384 . S
H3922 C3928 0.930 . S
H3923 C3932 0.930 . S
H3924 C3937 0.929 . S
H3925 C3935 0.929 . S
H3926 C3930 0.929 . S
H3927 C3936 0.929 . S
C3928 H3922 0.930 . S
C3928 C3929 1.367 . S
C3928 C3936 1.378 . S
C3929 C3928 1.367 . S
C3929 C3937 1.433 . S
C3930 H3926 0.929 . S
C3930 C3932 1.378 . S
C3930 C3934 1.350 . S
C3931 C3934 1.463 . S
C3931 C3936 1.350 . S
C3931 N3939 1.427 . S
C3932 H3923 0.930 . S
C3932 C3930 1.378 . S
C3932 C3933 1.367 . S
C3933 C3932 1.367 . S
C3933 C3935 1.433 . S
C3934 C3930 1.350 . S
C3934 C3931 1.463 . S
C3934 N3938 1.427 . S
C3935 H3925 0.929 . S
C3935 C3933 1.433 . S
C3935 N3938 1.384 . S
C3936 H3927 0.929 . S
C3936 C3928 1.378 . S
C3936 C3931 1.350 . S
C3937 H3924 0.929 . S
C3937 C3929 1.433 . S
C3937 N3939 1.384 . S
N3938 C3934 1.427 . S
N3938 C3935 1.384 . S
N3939 C3931 1.427 . S
N3939 C3937 1.384 . S
H3940 C3946 0.930 . S
H3941 C3950 0.930 . S
H3942 C3955 0.929 . S
H3943 C3953 0.929 . S
H3944 C3948 0.929 . S
H3945 C3954 0.929 . S
C3946 H3940 0.930 . S
C3946 C3947 1.367 . S
C3946 C3954 1.378 . S
C3947 C3946 1.367 . S
C3947 C3955 1.433 . S
C3948 H3944 0.929 . S
C3948 C3950 1.378 . S
C3948 C3952 1.350 . S
C3949 C3952 1.463 . S
C3949 C3954 1.350 . S
C3949 N3957 1.427 . S
C3950 H3941 0.930 . S
C3950 C3948 1.378 . S
C3950 C3951 1.367 . S
C3951 C3950 1.367 . S
C3951 C3953 1.433 . S
C3952 C3948 1.350 . S
C3952 C3949 1.463 . S
C3952 N3956 1.427 . S
C3953 H3943 0.929 . S
C3953 C3951 1.433 . S
C3953 N3956 1.384 . S
C3954 H3945 0.929 . S
C3954 C3946 1.378 . S
C3954 C3949 1.350 . S
C3955 H3942 0.929 . S
C3955 C3947 1.433 . S
C3955 N3957 1.384 . S
N3956 C3952 1.427 . S
N3956 C3953 1.384 . S
N3957 C3949 1.427 . S
N3957 C3955 1.384 . S
H3958 C3964 0.930 . S
H3959 C3968 0.930 . S
H3960 C3973 0.929 1_556 S
H3961 C3971 0.929 . S
H3962 C3966 0.929 . S
H3963 C3972 0.929 . S
C3964 H3958 0.930 . S
C3964 C3965 1.367 . S
C3964 C3972 1.378 . S
C3965 C3964 1.367 . S
C3965 C3973 1.433 . S
C3966 H3962 0.929 . S
C3966 C3968 1.378 . S
C3966 C3970 1.350 1_556 S
C3967 C3970 1.463 1_565 S
C3967 C3972 1.350 . S
C3967 N3975 1.427 . S
C3968 H3959 0.930 . S
C3968 C3966 1.378 . S
C3968 C3969 1.367 1_556 S
C3969 C3968 1.367 1_554 S
C3969 C3971 1.433 . S
C3970 C3966 1.350 1_554 S
C3970 C3967 1.463 1_545 S
C3970 N3974 1.427 . S
C3971 H3961 0.929 . S
C3971 C3969 1.433 . S
C3971 N3974 1.384 . S
C3972 H3963 0.929 . S
C3972 C3964 1.378 . S
C3972 C3967 1.350 . S
C3973 H3960 0.929 1_554 S
C3973 C3965 1.433 . S
C3973 N3975 1.384 . S
N3974 C3970 1.427 . S
N3974 C3971 1.384 . S
N3975 C3967 1.427 . S
N3975 C3973 1.384 . S
H3976 C3982 0.930 . S
H3977 C3986 0.930 . S
H3978 C3991 0.929 . S
H3979 C3989 0.929 . S
H3980 C3984 0.929 . S
H3981 C3990 0.929 . S
C3982 H3976 0.930 . S
C3982 C3983 1.367 . S
C3982 C3990 1.378 . S
C3983 C3982 1.367 . S
C3983 C3991 1.433 . S
C3984 H3980 0.929 . S
C3984 C3986 1.378 . S
C3984 C3988 1.350 . S
C3985 C3988 1.463 . S
C3985 C3990 1.350 . S
C3985 N3993 1.427 . S
C3986 H3977 0.930 . S
C3986 C3984 1.378 . S
C3986 C3987 1.367 . S
C3987 C3986 1.367 . S
C3987 C3989 1.433 . S
C3988 C3984 1.350 . S
C3988 C3985 1.463 . S
C3988 N3992 1.427 . S
C3989 H3979 0.929 . S
C3989 C3987 1.433 . S
C3989 N3992 1.384 . S
C3990 H3981 0.929 . S
C3990 C3982 1.378 . S
C3990 C3985 1.350 . S
C3991 H3978 0.929 . S
C3991 C3983 1.433 . S
C3991 N3993 1.384 . S
N3992 C3988 1.427 . S
N3992 C3989 1.384 . S
N3993 C3985 1.427 . S
N3993 C3991 1.384 . S
H3994 C4000 0.930 . S
H3995 C4004 0.930 . S
H3996 C4009 0.929 . S
H3997 C4007 0.929 . S
H3998 C4002 0.929 . S
H3999 C4008 0.929 . S
C4000 H3994 0.930 . S
C4000 C4001 1.367 1_556 S
C4000 C4008 1.378 . S
C4001 C4000 1.367 1_554 S
C4001 C4009 1.433 . S
C4002 H3998 0.929 . S
C4002 C4004 1.378 . S
C4002 C4006 1.350 . S
C4003 C4006 1.463 . S
C4003 C4008 1.350 1_554 S
C4003 N4011 1.427 . S
C4004 H3995 0.930 . S
C4004 C4002 1.378 . S
C4004 C4005 1.367 . S
C4005 C4004 1.367 . S
C4005 C4007 1.433 . S
C4006 C4002 1.350 . S
C4006 C4003 1.463 . S
C4006 N4010 1.427 . S
C4007 H3997 0.929 . S
C4007 C4005 1.433 . S
C4007 N4010 1.384 . S
C4008 H3999 0.929 . S
C4008 C4000 1.378 . S
C4008 C4003 1.350 1_556 S
C4009 H3996 0.929 . S
C4009 C4001 1.433 . S
C4009 N4011 1.384 . S
N4010 C4006 1.427 . S
N4010 C4007 1.384 . S
N4011 C4003 1.427 . S
N4011 C4009 1.384 . S
H4012 C4018 0.930 . S
H4013 C4022 0.930 . S
H4014 C4027 0.929 . S
H4015 C4025 0.929 . S
H4016 C4020 0.929 . S
H4017 C4026 0.929 . S
C4018 H4012 0.930 . S
C4018 C4019 1.367 . S
C4018 C4026 1.378 . S
C4019 C4018 1.367 . S
C4019 C4027 1.433 . S
C4020 H4016 0.929 . S
C4020 C4022 1.378 . S
C4020 C4024 1.350 . S
C4021 C4024 1.463 . S
C4021 C4026 1.350 . S
C4021 N4029 1.427 . S
C4022 H4013 0.930 . S
C4022 C4020 1.378 . S
C4022 C4023 1.367 . S
C4023 C4022 1.367 . S
C4023 C4025 1.433 . S
C4024 C4020 1.350 . S
C4024 C4021 1.463 . S
C4024 N4028 1.427 . S
C4025 H4015 0.929 . S
C4025 C4023 1.433 . S
C4025 N4028 1.384 . S
C4026 H4017 0.929 . S
C4026 C4018 1.378 . S
C4026 C4021 1.350 . S
C4027 H4014 0.929 . S
C4027 C4019 1.433 . S
C4027 N4029 1.384 . S
N4028 C4024 1.427 . S
N4028 C4025 1.384 . S
N4029 C4021 1.427 . S
N4029 C4027 1.384 . S
H4030 C4036 0.930 . S
H4031 C4040 0.930 . S
H4032 C4045 0.929 . S
H4033 C4043 0.929 . S
H4034 C4038 0.929 . S
H4035 C4044 0.929 . S
C4036 H4030 0.930 . S
C4036 C4037 1.367 . S
C4036 C4044 1.378 . S
C4037 C4036 1.367 . S
C4037 C4045 1.433 . S
C4038 H4034 0.929 . S
C4038 C4040 1.378 . S
C4038 C4042 1.350 . S
C4039 C4042 1.463 . S
C4039 C4044 1.350 . S
C4039 N4047 1.427 . S
C4040 H4031 0.930 . S
C4040 C4038 1.378 . S
C4040 C4041 1.367 . S
C4041 C4040 1.367 . S
C4041 C4043 1.433 . S
C4042 C4038 1.350 . S
C4042 C4039 1.463 . S
C4042 N4046 1.427 . S
C4043 H4033 0.929 . S
C4043 C4041 1.433 . S
C4043 N4046 1.384 . S
C4044 H4035 0.929 . S
C4044 C4036 1.378 . S
C4044 C4039 1.350 . S
C4045 H4032 0.929 . S
C4045 C4037 1.433 . S
C4045 N4047 1.384 . S
N4046 C4042 1.427 . S
N4046 C4043 1.384 . S
N4047 C4039 1.427 . S
N4047 C4045 1.384 . S
H4048 C4054 0.930 . S
H4049 C4058 0.930 . S
H4050 C4063 0.929 . S
H4051 C4061 0.929 . S
H4052 C4056 0.929 . S
H4053 C4062 0.929 . S
C4054 H4048 0.930 . S
C4054 C4055 1.367 . S
C4054 C4062 1.378 . S
C4055 C4054 1.367 . S
C4055 C4063 1.433 . S
C4056 H4052 0.929 . S
C4056 C4058 1.378 . S
C4056 C4060 1.350 . S
C4057 C4060 1.463 . S
C4057 C4062 1.350 . S
C4057 N4065 1.427 . S
C4058 H4049 0.930 . S
C4058 C4056 1.378 . S
C4058 C4059 1.367 . S
C4059 C4058 1.367 . S
C4059 C4061 1.433 . S
C4060 C4056 1.350 . S
C4060 C4057 1.463 . S
C4060 N4064 1.427 . S
C4061 H4051 0.929 . S
C4061 C4059 1.433 . S
C4061 N4064 1.384 . S
C4062 H4053 0.929 . S
C4062 C4054 1.378 . S
C4062 C4057 1.350 . S
C4063 H4050 0.929 . S
C4063 C4055 1.433 . S
C4063 N4065 1.384 . S
N4064 C4060 1.427 . S
N4064 C4061 1.384 . S
N4065 C4057 1.427 . S
N4065 C4063 1.384 . S
H4066 C4072 0.930 . S
H4067 C4076 0.930 . S
H4068 C4081 0.929 . S
H4069 C4079 0.929 . S
H4070 C4074 0.929 . S
H4071 C4080 0.929 . S
C4072 H4066 0.930 . S
C4072 C4073 1.367 . S
C4072 C4080 1.378 . S
C4073 C4072 1.367 . S
C4073 C4081 1.433 . S
C4074 H4070 0.929 . S
C4074 C4076 1.378 . S
C4074 C4078 1.350 . S
C4075 C4078 1.463 . S
C4075 C4080 1.350 . S
C4075 N4083 1.427 . S
C4076 H4067 0.930 . S
C4076 C4074 1.378 . S
C4076 C4077 1.367 . S
C4077 C4076 1.367 . S
C4077 C4079 1.433 . S
C4078 C4074 1.350 . S
C4078 C4075 1.463 . S
C4078 N4082 1.427 . S
C4079 H4069 0.929 . S
C4079 C4077 1.433 . S
C4079 N4082 1.384 . S
C4080 H4071 0.929 . S
C4080 C4072 1.378 . S
C4080 C4075 1.350 . S
C4081 H4068 0.929 . S
C4081 C4073 1.433 . S
C4081 N4083 1.384 . S
N4082 C4078 1.427 . S
N4082 C4079 1.384 . S
N4083 C4075 1.427 . S
N4083 C4081 1.384 . S
H4084 C4090 0.930 . S
H4085 C4094 0.930 . S
H4086 C4099 0.929 . S
H4087 C4097 0.929 . S
H4088 C4092 0.929 . S
H4089 C4098 0.929 . S
C4090 H4084 0.930 . S
C4090 C4091 1.367 . S
C4090 C4098 1.378 . S
C4091 C4090 1.367 . S
C4091 C4099 1.433 . S
C4092 H4088 0.929 . S
C4092 C4094 1.378 . S
C4092 C4096 1.350 . S
C4093 C4096 1.463 . S
C4093 C4098 1.350 . S
C4093 N4101 1.427 . S
C4094 H4085 0.930 . S
C4094 C4092 1.378 . S
C4094 C4095 1.367 . S
C4095 C4094 1.367 . S
C4095 C4097 1.433 . S
C4096 C4092 1.350 . S
C4096 C4093 1.463 . S
C4096 N4100 1.427 . S
C4097 H4087 0.929 . S
C4097 C4095 1.433 . S
C4097 N4100 1.384 . S
C4098 H4089 0.929 . S
C4098 C4090 1.378 . S
C4098 C4093 1.350 . S
C4099 H4086 0.929 . S
C4099 C4091 1.433 . S
C4099 N4101 1.384 . S
N4100 C4096 1.427 . S
N4100 C4097 1.384 . S
N4101 C4093 1.427 . S
N4101 C4099 1.384 . S
H4102 C4108 0.930 . S
H4103 C4112 0.930 . S
H4104 C4117 0.929 . S
H4105 C4115 0.929 . S
H4106 C4110 0.929 . S
H4107 C4116 0.929 . S
C4108 H4102 0.930 . S
C4108 C4109 1.367 . S
C4108 C4116 1.378 . S
C4109 C4108 1.367 . S
C4109 C4117 1.433 . S
C4110 H4106 0.929 . S
C4110 C4112 1.378 . S
C4110 C4114 1.350 . S
C4111 C4114 1.463 . S
C4111 C4116 1.350 . S
C4111 N4119 1.427 . S
C4112 H4103 0.930 . S
C4112 C4110 1.378 . S
C4112 C4113 1.367 . S
C4113 C4112 1.367 . S
C4113 C4115 1.433 . S
C4114 C4110 1.350 . S
C4114 C4111 1.463 . S
C4114 N4118 1.427 . S
C4115 H4105 0.929 . S
C4115 C4113 1.433 . S
C4115 N4118 1.384 . S
C4116 H4107 0.929 . S
C4116 C4108 1.378 . S
C4116 C4111 1.350 . S
C4117 H4104 0.929 . S
C4117 C4109 1.433 . S
C4117 N4119 1.384 . S
N4118 C4114 1.427 . S
N4118 C4115 1.384 . S
N4119 C4111 1.427 . S
N4119 C4117 1.384 . S
H4120 C4126 0.930 . S
H4121 C4130 0.930 . S
H4122 C4135 0.929 . S
H4123 C4133 0.929 . S
H4124 C4128 0.929 . S
H4125 C4134 0.929 . S
C4126 H4120 0.930 . S
C4126 C4127 1.367 . S
C4126 C4134 1.378 . S
C4127 C4126 1.367 . S
C4127 C4135 1.433 . S
C4128 H4124 0.929 . S
C4128 C4130 1.378 . S
C4128 C4132 1.350 . S
C4129 C4132 1.463 . S
C4129 C4134 1.350 . S
C4129 N4137 1.427 . S
C4130 H4121 0.930 . S
C4130 C4128 1.378 . S
C4130 C4131 1.367 . S
C4131 C4130 1.367 . S
C4131 C4133 1.433 . S
C4132 C4128 1.350 . S
C4132 C4129 1.463 . S
C4132 N4136 1.427 . S
C4133 H4123 0.929 . S
C4133 C4131 1.433 . S
C4133 N4136 1.384 . S
C4134 H4125 0.929 . S
C4134 C4126 1.378 . S
C4134 C4129 1.350 . S
C4135 H4122 0.929 . S
C4135 C4127 1.433 . S
C4135 N4137 1.384 . S
N4136 C4132 1.427 . S
N4136 C4133 1.384 . S
N4137 C4129 1.427 . S
N4137 C4135 1.384 . S
H4138 C4144 0.930 . S
H4139 C4148 0.930 . S
H4140 C4153 0.929 . S
H4141 C4151 0.929 . S
H4142 C4146 0.929 . S
H4143 C4152 0.929 . S
C4144 H4138 0.930 . S
C4144 C4145 1.367 . S
C4144 C4152 1.378 . S
C4145 C4144 1.367 . S
C4145 C4153 1.433 . S
C4146 H4142 0.929 . S
C4146 C4148 1.378 . S
C4146 C4150 1.350 . S
C4147 C4150 1.463 . S
C4147 C4152 1.350 . S
C4147 N4155 1.427 . S
C4148 H4139 0.930 . S
C4148 C4146 1.378 . S
C4148 C4149 1.367 . S
C4149 C4148 1.367 . S
C4149 C4151 1.433 . S
C4150 C4146 1.350 . S
C4150 C4147 1.463 . S
C4150 N4154 1.427 . S
C4151 H4141 0.929 . S
C4151 C4149 1.433 . S
C4151 N4154 1.384 . S
C4152 H4143 0.929 . S
C4152 C4144 1.378 . S
C4152 C4147 1.350 . S
C4153 H4140 0.929 . S
C4153 C4145 1.433 . S
C4153 N4155 1.384 . S
N4154 C4150 1.427 . S
N4154 C4151 1.384 . S
N4155 C4147 1.427 . S
N4155 C4153 1.384 . S
H4156 C4162 0.930 . S
H4157 C4166 0.930 . S
H4158 C4171 0.929 . S
H4159 C4169 0.929 . S
H4160 C4164 0.929 . S
H4161 C4170 0.929 . S
C4162 H4156 0.930 . S
C4162 C4163 1.367 . S
C4162 C4170 1.378 . S
C4163 C4162 1.367 . S
C4163 C4171 1.433 . S
C4164 H4160 0.929 . S
C4164 C4166 1.378 . S
C4164 C4168 1.350 . S
C4165 C4168 1.463 . S
C4165 C4170 1.350 . S
C4165 N4173 1.427 . S
C4166 H4157 0.930 . S
C4166 C4164 1.378 . S
C4166 C4167 1.367 . S
C4167 C4166 1.367 . S
C4167 C4169 1.433 . S
C4168 C4164 1.350 . S
C4168 C4165 1.463 . S
C4168 N4172 1.427 . S
C4169 H4159 0.929 . S
C4169 C4167 1.433 . S
C4169 N4172 1.384 . S
C4170 H4161 0.929 . S
C4170 C4162 1.378 . S
C4170 C4165 1.350 . S
C4171 H4158 0.929 . S
C4171 C4163 1.433 . S
C4171 N4173 1.384 . S
N4172 C4168 1.427 . S
N4172 C4169 1.384 . S
N4173 C4165 1.427 . S
N4173 C4171 1.384 . S
H4174 C4180 0.930 . S
H4175 C4184 0.930 . S
H4176 C4189 0.929 . S
H4177 C4187 0.929 . S
H4178 C4182 0.929 . S
H4179 C4188 0.929 . S
C4180 H4174 0.930 . S
C4180 C4181 1.367 . S
C4180 C4188 1.378 . S
C4181 C4180 1.367 . S
C4181 C4189 1.433 . S
C4182 H4178 0.929 . S
C4182 C4184 1.378 . S
C4182 C4186 1.350 . S
C4183 C4186 1.463 . S
C4183 C4188 1.350 . S
C4183 N4191 1.427 . S
C4184 H4175 0.930 . S
C4184 C4182 1.378 . S
C4184 C4185 1.367 . S
C4185 C4184 1.367 . S
C4185 C4187 1.433 . S
C4186 C4182 1.350 . S
C4186 C4183 1.463 . S
C4186 N4190 1.427 . S
C4187 H4177 0.929 . S
C4187 C4185 1.433 . S
C4187 N4190 1.384 . S
C4188 H4179 0.929 . S
C4188 C4180 1.378 . S
C4188 C4183 1.350 . S
C4189 H4176 0.929 . S
C4189 C4181 1.433 . S
C4189 N4191 1.384 . S
N4190 C4186 1.427 . S
N4190 C4187 1.384 . S
N4191 C4183 1.427 . S
N4191 C4189 1.384 . S
H4192 C4198 0.930 . S
H4193 C4202 0.930 . S
H4194 C4207 0.929 . S
H4195 C4205 0.929 . S
H4196 C4200 0.929 . S
H4197 C4206 0.929 . S
C4198 H4192 0.930 . S
C4198 C4199 1.367 . S
C4198 C4206 1.378 . S
C4199 C4198 1.367 . S
C4199 C4207 1.433 . S
C4200 H4196 0.929 . S
C4200 C4202 1.378 . S
C4200 C4204 1.350 . S
C4201 C4204 1.463 . S
C4201 C4206 1.350 . S
C4201 N4209 1.427 . S
C4202 H4193 0.930 . S
C4202 C4200 1.378 . S
C4202 C4203 1.367 . S
C4203 C4202 1.367 . S
C4203 C4205 1.433 . S
C4204 C4200 1.350 . S
C4204 C4201 1.463 . S
C4204 N4208 1.427 . S
C4205 H4195 0.929 . S
C4205 C4203 1.433 . S
C4205 N4208 1.384 . S
C4206 H4197 0.929 . S
C4206 C4198 1.378 . S
C4206 C4201 1.350 . S
C4207 H4194 0.929 . S
C4207 C4199 1.433 . S
C4207 N4209 1.384 . S
N4208 C4204 1.427 . S
N4208 C4205 1.384 . S
N4209 C4201 1.427 . S
N4209 C4207 1.384 . S
H4210 C4216 0.930 . S
H4211 C4220 0.930 . S
H4212 C4225 0.929 . S
H4213 C4223 0.929 . S
H4214 C4218 0.929 . S
H4215 C4224 0.929 . S
C4216 H4210 0.930 . S
C4216 C4217 1.367 . S
C4216 C4224 1.378 . S
C4217 C4216 1.367 . S
C4217 C4225 1.433 . S
C4218 H4214 0.929 . S
C4218 C4220 1.378 . S
C4218 C4222 1.350 . S
C4219 C4222 1.463 . S
C4219 C4224 1.350 . S
C4219 N4227 1.427 . S
C4220 H4211 0.930 . S
C4220 C4218 1.378 . S
C4220 C4221 1.367 . S
C4221 C4220 1.367 . S
C4221 C4223 1.433 . S
C4222 C4218 1.350 . S
C4222 C4219 1.463 . S
C4222 N4226 1.427 . S
C4223 H4213 0.929 . S
C4223 C4221 1.433 . S
C4223 N4226 1.384 . S
C4224 H4215 0.929 . S
C4224 C4216 1.378 . S
C4224 C4219 1.350 . S
C4225 H4212 0.929 . S
C4225 C4217 1.433 . S
C4225 N4227 1.384 . S
N4226 C4222 1.427 . S
N4226 C4223 1.384 . S
N4227 C4219 1.427 . S
N4227 C4225 1.384 . S
H4228 C4234 0.930 1_455 S
H4229 C4238 0.930 1_655 S
H4230 C4243 0.929 . S
H4231 C4241 0.929 . S
H4232 C4236 0.929 . S
H4233 C4242 0.929 . S
C4234 H4228 0.930 1_655 S
C4234 C4235 1.367 . S
C4234 C4242 1.378 1_655 S
C4235 C4234 1.367 . S
C4235 C4243 1.433 . S
C4236 H4232 0.929 . S
C4236 C4238 1.378 1_655 S
C4236 C4240 1.350 1_655 S
C4237 C4240 1.463 1_655 S
C4237 C4242 1.350 1_655 S
C4237 N4245 1.427 . S
C4238 H4229 0.930 1_455 S
C4238 C4236 1.378 1_455 S
C4238 C4239 1.367 . S
C4239 C4238 1.367 . S
C4239 C4241 1.433 . S
C4240 C4236 1.350 1_455 S
C4240 C4237 1.463 1_455 S
C4240 N4244 1.427 . S
C4241 H4231 0.929 . S
C4241 C4239 1.433 . S
C4241 N4244 1.384 . S
C4242 H4233 0.929 . S
C4242 C4234 1.378 1_455 S
C4242 C4237 1.350 1_455 S
C4243 H4230 0.929 . S
C4243 C4235 1.433 . S
C4243 N4245 1.384 . S
N4244 C4240 1.427 . S
N4244 C4241 1.384 . S
N4245 C4237 1.427 . S
N4245 C4243 1.384 . S
H4246 C4252 0.930 . S
H4247 C4256 0.930 . S
H4248 C4261 0.929 . S
H4249 C4259 0.929 . S
H4250 C4254 0.929 . S
H4251 C4260 0.929 . S
C4252 H4246 0.930 . S
C4252 C4253 1.367 . S
C4252 C4260 1.378 . S
C4253 C4252 1.367 . S
C4253 C4261 1.433 . S
C4254 H4250 0.929 . S
C4254 C4256 1.378 . S
C4254 C4258 1.350 . S
C4255 C4258 1.463 . S
C4255 C4260 1.350 . S
C4255 N4263 1.427 . S
C4256 H4247 0.930 . S
C4256 C4254 1.378 . S
C4256 C4257 1.367 . S
C4257 C4256 1.367 . S
C4257 C4259 1.433 . S
C4258 C4254 1.350 . S
C4258 C4255 1.463 . S
C4258 N4262 1.427 . S
C4259 H4249 0.929 . S
C4259 C4257 1.433 . S
C4259 N4262 1.384 . S
C4260 H4251 0.929 . S
C4260 C4252 1.378 . S
C4260 C4255 1.350 . S
C4261 H4248 0.929 . S
C4261 C4253 1.433 . S
C4261 N4263 1.384 . S
N4262 C4258 1.427 . S
N4262 C4259 1.384 . S
N4263 C4255 1.427 . S
N4263 C4261 1.384 . S
H4264 C4270 0.930 . S
H4265 C4274 0.930 . S
H4266 C4279 0.929 . S
H4267 C4277 0.929 . S
H4268 C4272 0.929 . S
H4269 C4278 0.929 . S
C4270 H4264 0.930 . S
C4270 C4271 1.367 . S
C4270 C4278 1.378 . S
C4271 C4270 1.367 . S
C4271 C4279 1.433 . S
C4272 H4268 0.929 . S
C4272 C4274 1.378 . S
C4272 C4276 1.350 . S
C4273 C4276 1.463 . S
C4273 C4278 1.350 . S
C4273 N4281 1.427 . S
C4274 H4265 0.930 . S
C4274 C4272 1.378 . S
C4274 C4275 1.367 . S
C4275 C4274 1.367 . S
C4275 C4277 1.433 . S
C4276 C4272 1.350 . S
C4276 C4273 1.463 . S
C4276 N4280 1.427 . S
C4277 H4267 0.929 . S
C4277 C4275 1.433 . S
C4277 N4280 1.384 . S
C4278 H4269 0.929 . S
C4278 C4270 1.378 . S
C4278 C4273 1.350 . S
C4279 H4266 0.929 . S
C4279 C4271 1.433 . S
C4279 N4281 1.384 . S
N4280 C4276 1.427 . S
N4280 C4277 1.384 . S
N4281 C4273 1.427 . S
N4281 C4279 1.384 . S
H4282 C4288 0.930 . S
H4283 C4292 0.930 . S
H4284 C4297 0.929 . S
H4285 C4295 0.929 . S
H4286 C4290 0.929 . S
H4287 C4296 0.929 . S
C4288 H4282 0.930 . S
C4288 C4289 1.367 . S
C4288 C4296 1.378 . S
C4289 C4288 1.367 . S
C4289 C4297 1.433 . S
C4290 H4286 0.929 . S
C4290 C4292 1.378 . S
C4290 C4294 1.350 . S
C4291 C4294 1.463 . S
C4291 C4296 1.350 . S
C4291 N4299 1.427 . S
C4292 H4283 0.930 . S
C4292 C4290 1.378 . S
C4292 C4293 1.367 . S
C4293 C4292 1.367 . S
C4293 C4295 1.433 . S
C4294 C4290 1.350 . S
C4294 C4291 1.463 . S
C4294 N4298 1.427 . S
C4295 H4285 0.929 . S
C4295 C4293 1.433 . S
C4295 N4298 1.384 . S
C4296 H4287 0.929 . S
C4296 C4288 1.378 . S
C4296 C4291 1.350 . S
C4297 H4284 0.929 . S
C4297 C4289 1.433 . S
C4297 N4299 1.384 . S
N4298 C4294 1.427 . S
N4298 C4295 1.384 . S
N4299 C4291 1.427 . S
N4299 C4297 1.384 . S
H4300 C4306 0.930 . S
H4301 C4310 0.930 1_455 S
H4302 C4315 0.929 . S
H4303 C4313 0.929 . S
H4304 C4308 0.929 . S
H4305 C4314 0.929 . S
C4306 H4300 0.930 . S
C4306 C4307 1.367 . S
C4306 C4314 1.378 . S
C4307 C4306 1.367 . S
C4307 C4315 1.433 . S
C4308 H4304 0.929 . S
C4308 C4310 1.378 . S
C4308 C4312 1.350 . S
C4309 C4312 1.463 . S
C4309 C4314 1.350 . S
C4309 N4317 1.427 . S
C4310 H4301 0.930 1_655 S
C4310 C4308 1.378 . S
C4310 C4311 1.367 . S
C4311 C4310 1.367 . S
C4311 C4313 1.433 . S
C4312 C4308 1.350 . S
C4312 C4309 1.463 . S
C4312 N4316 1.427 . S
C4313 H4303 0.929 . S
C4313 C4311 1.433 . S
C4313 N4316 1.384 . S
C4314 H4305 0.929 . S
C4314 C4306 1.378 . S
C4314 C4309 1.350 . S
C4315 H4302 0.929 . S
C4315 C4307 1.433 . S
C4315 N4317 1.384 . S
N4316 C4312 1.427 . S
N4316 C4313 1.384 . S
N4317 C4309 1.427 . S
N4317 C4315 1.384 . S
H4318 C4324 0.930 . S
H4319 C4328 0.930 . S
H4320 C4333 0.929 . S
H4321 C4331 0.929 . S
H4322 C4326 0.929 . S
H4323 C4332 0.929 . S
C4324 H4318 0.930 . S
C4324 C4325 1.367 . S
C4324 C4332 1.378 . S
C4325 C4324 1.367 . S
C4325 C4333 1.433 . S
C4326 H4322 0.929 . S
C4326 C4328 1.378 . S
C4326 C4330 1.350 . S
C4327 C4330 1.463 . S
C4327 C4332 1.350 . S
C4327 N4335 1.427 . S
C4328 H4319 0.930 . S
C4328 C4326 1.378 . S
C4328 C4329 1.367 . S
C4329 C4328 1.367 . S
C4329 C4331 1.433 . S
C4330 C4326 1.350 . S
C4330 C4327 1.463 . S
C4330 N4334 1.427 . S
C4331 H4321 0.929 . S
C4331 C4329 1.433 . S
C4331 N4334 1.384 . S
C4332 H4323 0.929 . S
C4332 C4324 1.378 . S
C4332 C4327 1.350 . S
C4333 H4320 0.929 . S
C4333 C4325 1.433 . S
C4333 N4335 1.384 . S
N4334 C4330 1.427 . S
N4334 C4331 1.384 . S
N4335 C4327 1.427 . S
N4335 C4333 1.384 . S
H4336 C4342 0.930 . S
H4337 C4346 0.930 . S
H4338 C4351 0.929 . S
H4339 C4349 0.929 . S
H4340 C4344 0.929 . S
H4341 C4350 0.929 . S
C4342 H4336 0.930 . S
C4342 C4343 1.367 . S
C4342 C4350 1.378 . S
C4343 C4342 1.367 . S
C4343 C4351 1.433 . S
C4344 H4340 0.929 . S
C4344 C4346 1.378 . S
C4344 C4348 1.350 . S
C4345 C4348 1.463 . S
C4345 C4350 1.350 . S
C4345 N4353 1.427 . S
C4346 H4337 0.930 . S
C4346 C4344 1.378 . S
C4346 C4347 1.367 . S
C4347 C4346 1.367 . S
C4347 C4349 1.433 . S
C4348 C4344 1.350 . S
C4348 C4345 1.463 . S
C4348 N4352 1.427 . S
C4349 H4339 0.929 . S
C4349 C4347 1.433 . S
C4349 N4352 1.384 . S
C4350 H4341 0.929 . S
C4350 C4342 1.378 . S
C4350 C4345 1.350 . S
C4351 H4338 0.929 . S
C4351 C4343 1.433 . S
C4351 N4353 1.384 . S
N4352 C4348 1.427 . S
N4352 C4349 1.384 . S
N4353 C4345 1.427 . S
N4353 C4351 1.384 . S
H4354 C4360 0.930 . S
H4355 C4364 0.930 . S
H4356 C4369 0.929 . S
H4357 C4367 0.929 . S
H4358 C4362 0.929 . S
H4359 C4368 0.929 . S
C4360 H4354 0.930 . S
C4360 C4361 1.367 . S
C4360 C4368 1.378 . S
C4361 C4360 1.367 . S
C4361 C4369 1.433 . S
C4362 H4358 0.929 . S
C4362 C4364 1.378 1_565 S
C4362 C4366 1.350 . S
C4363 C4366 1.463 . S
C4363 C4368 1.350 . S
C4363 N4371 1.427 . S
C4364 H4355 0.930 . S
C4364 C4362 1.378 1_545 S
C4364 C4365 1.367 . S
C4365 C4364 1.367 . S
C4365 C4367 1.433 1_545 S
C4366 C4362 1.350 . S
C4366 C4363 1.463 . S
C4366 N4370 1.427 . S
C4367 H4357 0.929 . S
C4367 C4365 1.433 1_565 S
C4367 N4370 1.384 . S
C4368 H4359 0.929 . S
C4368 C4360 1.378 . S
C4368 C4363 1.350 . S
C4369 H4356 0.929 . S
C4369 C4361 1.433 . S
C4369 N4371 1.384 . S
N4370 C4366 1.427 . S
N4370 C4367 1.384 . S
N4371 C4363 1.427 . S
N4371 C4369 1.384 . S
H4372 C4378 0.930 . S
H4373 C4382 0.930 . S
H4374 C4387 0.929 . S
H4375 C4385 0.929 . S
H4376 C4380 0.929 . S
H4377 C4386 0.929 . S
C4378 H4372 0.930 . S
C4378 C4379 1.367 . S
C4378 C4386 1.378 . S
C4379 C4378 1.367 . S
C4379 C4387 1.433 . S
C4380 H4376 0.929 . S
C4380 C4382 1.378 . S
C4380 C4384 1.350 . S
C4381 C4384 1.463 . S
C4381 C4386 1.350 . S
C4381 N4389 1.427 . S
C4382 H4373 0.930 . S
C4382 C4380 1.378 . S
C4382 C4383 1.367 . S
C4383 C4382 1.367 . S
C4383 C4385 1.433 . S
C4384 C4380 1.350 . S
C4384 C4381 1.463 . S
C4384 N4388 1.427 . S
C4385 H4375 0.929 . S
C4385 C4383 1.433 . S
C4385 N4388 1.384 . S
C4386 H4377 0.929 . S
C4386 C4378 1.378 . S
C4386 C4381 1.350 . S
C4387 H4374 0.929 . S
C4387 C4379 1.433 . S
C4387 N4389 1.384 . S
N4388 C4384 1.427 . S
N4388 C4385 1.384 . S
N4389 C4381 1.427 . S
N4389 C4387 1.384 . S
H4390 C4396 0.930 . S
H4391 C4400 0.930 . S
H4392 C4405 0.929 . S
H4393 C4403 0.929 . S
H4394 C4398 0.929 . S
H4395 C4404 0.929 . S
C4396 H4390 0.930 . S
C4396 C4397 1.367 . S
C4396 C4404 1.378 . S
C4397 C4396 1.367 . S
C4397 C4405 1.433 1_556 S
C4398 H4394 0.929 . S
C4398 C4400 1.378 . S
C4398 C4402 1.350 . S
C4399 C4402 1.463 . S
C4399 C4404 1.350 1_554 S
C4399 N4407 1.427 . S
C4400 H4391 0.930 . S
C4400 C4398 1.378 . S
C4400 C4401 1.367 . S
C4401 C4400 1.367 . S
C4401 C4403 1.433 1_554 S
C4402 C4398 1.350 . S
C4402 C4399 1.463 . S
C4402 N4406 1.427 1_554 S
C4403 H4393 0.929 . S
C4403 C4401 1.433 1_556 S
C4403 N4406 1.384 . S
C4404 H4395 0.929 . S
C4404 C4396 1.378 . S
C4404 C4399 1.350 1_556 S
C4405 H4392 0.929 . S
C4405 C4397 1.433 1_554 S
C4405 N4407 1.384 . S
N4406 C4402 1.427 1_556 S
N4406 C4403 1.384 . S
N4407 C4399 1.427 . S
N4407 C4405 1.384 . S
H4408 C4414 0.930 . S
H4409 C4418 0.930 . S
H4410 C4423 0.929 . S
H4411 C4421 0.929 . S
H4412 C4416 0.929 . S
H4413 C4422 0.929 . S
C4414 H4408 0.930 . S
C4414 C4415 1.367 . S
C4414 C4422 1.378 . S
C4415 C4414 1.367 . S
C4415 C4423 1.433 . S
C4416 H4412 0.929 . S
C4416 C4418 1.378 . S
C4416 C4420 1.350 . S
C4417 C4420 1.463 . S
C4417 C4422 1.350 . S
C4417 N4425 1.427 . S
C4418 H4409 0.930 . S
C4418 C4416 1.378 . S
C4418 C4419 1.367 . S
C4419 C4418 1.367 . S
C4419 C4421 1.433 . S
C4420 C4416 1.350 . S
C4420 C4417 1.463 . S
C4420 N4424 1.427 . S
C4421 H4411 0.929 . S
C4421 C4419 1.433 . S
C4421 N4424 1.384 . S
C4422 H4413 0.929 . S
C4422 C4414 1.378 . S
C4422 C4417 1.350 . S
C4423 H4410 0.929 . S
C4423 C4415 1.433 . S
C4423 N4425 1.384 . S
N4424 C4420 1.427 . S
N4424 C4421 1.384 . S
N4425 C4417 1.427 . S
N4425 C4423 1.384 . S
H4426 C4432 0.930 . S
H4427 C4436 0.930 . S
H4428 C4441 0.929 . S
H4429 C4439 0.929 . S
H4430 C4434 0.929 . S
H4431 C4440 0.929 . S
C4432 H4426 0.930 . S
C4432 C4433 1.367 . S
C4432 C4440 1.378 . S
C4433 C4432 1.367 . S
C4433 C4441 1.433 . S
C4434 H4430 0.929 . S
C4434 C4436 1.378 . S
C4434 C4438 1.350 . S
C4435 C4438 1.463 1_554 S
C4435 C4440 1.350 . S
C4435 N4443 1.427 . S
C4436 H4427 0.930 . S
C4436 C4434 1.378 . S
C4436 C4437 1.367 . S
C4437 C4436 1.367 . S
C4437 C4439 1.433 . S
C4438 C4434 1.350 . S
C4438 C4435 1.463 1_556 S
C4438 N4442 1.427 . S
C4439 H4429 0.929 . S
C4439 C4437 1.433 . S
C4439 N4442 1.384 . S
C4440 H4431 0.929 . S
C4440 C4432 1.378 . S
C4440 C4435 1.350 . S
C4441 H4428 0.929 . S
C4441 C4433 1.433 . S
C4441 N4443 1.384 . S
N4442 C4438 1.427 . S
N4442 C4439 1.384 . S
N4443 C4435 1.427 . S
N4443 C4441 1.384 . S
H4444 C4450 0.930 . S
H4445 C4454 0.930 . S
H4446 C4459 0.929 . S
H4447 C4457 0.929 . S
H4448 C4452 0.929 . S
H4449 C4458 0.929 . S
C4450 H4444 0.930 . S
C4450 C4451 1.367 . S
C4450 C4458 1.378 . S
C4451 C4450 1.367 . S
C4451 C4459 1.433 . S
C4452 H4448 0.929 . S
C4452 C4454 1.378 . S
C4452 C4456 1.350 . S
C4453 C4456 1.463 . S
C4453 C4458 1.350 . S
C4453 N4461 1.427 . S
C4454 H4445 0.930 . S
C4454 C4452 1.378 . S
C4454 C4455 1.367 . S
C4455 C4454 1.367 . S
C4455 C4457 1.433 . S
C4456 C4452 1.350 . S
C4456 C4453 1.463 . S
C4456 N4460 1.427 . S
C4457 H4447 0.929 . S
C4457 C4455 1.433 . S
C4457 N4460 1.384 . S
C4458 H4449 0.929 . S
C4458 C4450 1.378 . S
C4458 C4453 1.350 . S
C4459 H4446 0.929 . S
C4459 C4451 1.433 . S
C4459 N4461 1.384 . S
N4460 C4456 1.427 . S
N4460 C4457 1.384 . S
N4461 C4453 1.427 . S
N4461 C4459 1.384 . S
H4462 C4468 0.930 . S
H4463 C4472 0.930 . S
H4464 C4477 0.929 . S
H4465 C4475 0.929 . S
H4466 C4470 0.929 . S
H4467 C4476 0.929 . S
C4468 H4462 0.930 . S
C4468 C4469 1.367 . S
C4468 C4476 1.378 . S
C4469 C4468 1.367 . S
C4469 C4477 1.433 . S
C4470 H4466 0.929 . S
C4470 C4472 1.378 . S
C4470 C4474 1.350 . S
C4471 C4474 1.463 . S
C4471 C4476 1.350 . S
C4471 N4479 1.427 . S
C4472 H4463 0.930 . S
C4472 C4470 1.378 . S
C4472 C4473 1.367 . S
C4473 C4472 1.367 . S
C4473 C4475 1.433 . S
C4474 C4470 1.350 . S
C4474 C4471 1.463 . S
C4474 N4478 1.427 . S
C4475 H4465 0.929 . S
C4475 C4473 1.433 . S
C4475 N4478 1.384 . S
C4476 H4467 0.929 . S
C4476 C4468 1.378 . S
C4476 C4471 1.350 . S
C4477 H4464 0.929 . S
C4477 C4469 1.433 . S
C4477 N4479 1.384 . S
N4478 C4474 1.427 . S
N4478 C4475 1.384 . S
N4479 C4471 1.427 . S
N4479 C4477 1.384 . S
C2759 C665 2.170 . S
C2763 C2114 2.202 1_556 S
C2777 C381 2.066 . S
C2781 C2171 2.066 . S
C2795 C460 1.158 . S
C2799 C2194 1.179 . S
C2817 C2248 1.392 . S
C2813 C585 1.414 . S
C2831 C108 1.291 . S
C2835 C2288 1.250 . S
C2853 C2319 0.309 . S
C2849 C196 0.379 . S
C2871 C2371 1.269 . S
C2867 C313 1.252 . S
C2885 C49 1.677 . S
C2889 C2394 1.668 . S
C2907 C2131 2.389 . S
C2903 C1457 2.411 . S
C2921 C1545 0.286 . S
C2925 C2168 0.433 . S
C2943 C2211 1.315 . S
C2939 C1721 1.334 . S
C2961 C2234 1.432 . S
C2957 C1113 1.372 . S
C2975 C1428 1.886 . S
C2979 C2274 1.934 . S
C2997 C2322 1.420 . S
C2993 C1516 1.442 . S
C3015 C2368 0.388 . S
C3011 C1692 0.229 . S
C3033 C2411 1.968 . S
C3029 C1085 1.998 . S
C3051 C2128 1.448 1_565 S
C3047 C988 1.488 . S
C3065 C1817 1.972 . S
C3069 C2451 1.962 . S
C3087 C2483 2.521 . S
C3083 C2081 2.565 . S
C3105 C2514 0.549 1_655 S
C3101 C1993 0.567 . S
C3119 C761 1.332 . S
C3123 C2408 1.298 . S
C3137 C821 1.502 . S
C3141 C2208 1.466 . S
C3155 C2053 2.315 . S
C3159 C2571 2.286 . S
C3177 C2594 0.363 . S
C3173 C1868 0.349 . S
C3195 C2123 2.197 . S
C3191 C372 2.172 . S
C3213 C2602 2.066 . S
C3209 C645 2.060 . S
C3227 C577 1.146 . S
C3231 C2203 1.174 . S
C3245 C497 1.413 . S
C3249 C2559 1.389 . S
C3267 C2279 1.252 . S
C3263 C57 1.295 . S
C3281 C293 0.388 . S
C3285 C2488 0.308 . S
C3303 C2362 1.268 1_556 S
C3299 C205 1.244 . S
C3321 C2643 1.660 . S
C3317 C145 1.688 . S
C3339 C2122 2.386 . S
C3335 C909 2.404 1_545 S
C3357 C2599 0.417 . S
C3353 C1956 0.271 . S
C3371 C724 1.328 . S
C3375 C2202 1.316 . S
C3389 C1780 1.371 . S
C3393 C2563 1.427 . S
C3407 C937 1.890 . S
C3411 C2283 1.922 . S
C3429 C2491 1.416 . S
C3425 C1985 1.444 . S
C3443 C753 0.245 . S
C3447 C2359 0.407 . S
C3461 C1809 1.997 . S
C3465 C2642 1.969 . S
C3479 C1173 1.478 . S
C3483 C2119 1.447 . S
C3497 C1105 1.966 . S
C3501 C2442 1.960 . S
C3515 C1633 2.562 . S
C3519 C2314 2.517 . S
C3533 C1553 0.576 . S
C3537 C2523 0.538 . S
C3555 C2639 1.297 . S
C3551 C1729 1.336 . S
C3569 C1340 1.508 . S
C3573 C2199 1.473 . S
C3591 C2242 2.282 . S
C3587 C1604 2.307 . S
C3609 C2163 0.378 . S
C3605 C1252 0.321 . S
C3623 C489 2.175 . S
C3627 C2674 2.197 . S
C3645 C2611 2.067 . S
C3641 C557 2.062 . S
C3659 C636 1.143 . S
C3663 C2714 1.180 . S
C3677 C409 1.416 . S
C3681 C2568 1.394 . S
C3695 C284 1.294 . S
C3699 C2448 1.254 . S
C3717 C2479 0.318 . S
C3713 C20 0.412 . S
C3735 C2531 1.272 . S
C3731 C137 1.246 . S
C3753 C2634 1.667 . S
C3749 C225 1.679 . S
C3771 C2691 2.386 . S
C3767 C1641 2.408 . S
C3785 C1193 0.282 . S
C3789 C2608 0.417 . S
C3807 C2731 1.314 . S
C3803 C1289 1.330 . S
C3825 C2554 1.431 . S
C3821 C1377 1.388 . S
C3843 C2434 1.933 . S
C3839 C1613 1.889 . S
C3857 C1164 1.442 . S
C3861 C2482 1.418 . S
C3879 C2528 0.401 . S
C3875 C1261 0.244 . S
C3893 C1349 2.000 . S
C3897 C2651 1.973 . S
C3915 C2688 1.459 . S
C3911 C1965 1.484 . S
C3929 C849 1.967 . S
C3933 C2291 1.959 . S
C3951 C2323 2.516 . S
C3947 C929 2.573 . S
C3969 C2354 0.545 . S
C3965 C1017 0.577 . S
C3987 C2648 1.285 . S
C3983 C1897 1.322 . S
C4001 C1789 1.510 . S
C4005 C2728 1.480 . S
C4023 C2251 2.280 . S
C4019 C900 2.304 . S
C4041 C2154 0.361 . S
C4037 C733 0.350 . S
C4055 C548 2.171 . S
C4059 C2683 2.197 . S
C4077 C2162 2.062 . S
C4073 C469 2.059 . S
C4091 C401 1.143 . S
C4095 C2723 1.174 . S
C4109 C673 1.414 . S
C4113 C2239 1.390 . S
C4127 C233 1.294 . S
C4131 C2439 1.250 . S
C4149 C2328 0.311 . S
C4145 C117 0.348 . S
C4163 C29 1.237 . S
C4167 C2522 1.259 . S
C4181 C321 1.674 . S
C4185 C2403 1.663 . S
C4203 C2682 2.385 . S
C4199 C2044 2.406 . S
C4217 C997 0.280 . S
C4221 C2159 0.425 . S
C4239 C2722 1.317 . S
C4235 C1877 1.330 . S
C4253 C812 1.371 . S
C4257 C2243 1.426 . S
C4271 C2073 1.880 . S
C4275 C2443 1.927 . S
C4293 C2331 1.411 . S
C4289 C1025 1.438 . S
C4307 C1905 0.205 . S
C4311 C2519 0.351 . S
C4329 C2402 1.971 . S
C4325 C841 2.000 . S
C4347 C2679 1.444 . S
C4343 C1525 1.480 . S
C4365 C2282 1.957 1_655 S
C4361 C1369 1.966 . S
C4379 C1465 2.563 . S
C4383 C2474 2.512 . S
C4401 C2363 0.536 . S
C4397 C1201 0.557 . S
C4415 C1281 1.322 . S
C4419 C2399 1.277 . S
C4433 C1076 1.508 . S
C4437 C2719 1.472 . S
C4455 C2562 2.278 . S
C4451 C1437 2.306 . S
C4473 C2603 0.364 . S
C4469 C1701 0.338 . S
