# Generated by pormake.
# Topology the, (3,8)-cn, num edge types: 1
# Building blocks:
#     Node 0, Type 0, BuildingBlock: WUSLED_clean_sbu_0, # of connection points: 3
#     Node 1, Type 0, BuildingBlock: WUSLED_clean_sbu_0, # of connection points: 3
#     Node 2, Type 0, BuildingBlock: WUSLED_clean_sbu_0, # of connection points: 3
#     Node 3, Type 0, BuildingBlock: WUSLED_clean_sbu_0, # of connection points: 3
#     Node 4, Type 0, BuildingBlock: WUSLED_clean_sbu_0, # of connection points: 3
#     Node 5, Type 0, BuildingBlock: WUSLED_clean_sbu_0, # of connection points: 3
#     Node 6, Type 0, BuildingBlock: WUSLED_clean_sbu_0, # of connection points: 3
#     Node 7, Type 0, BuildingBlock: WUSLED_clean_sbu_0, # of connection points: 3
#     Node 8, Type 1, BuildingBlock: GIZVER_clean_sbu_0, # of connection points: 8
#     Node 9, Type 1, BuildingBlock: GIZVER_clean_sbu_0, # of connection points: 8
#     Node 10, Type 1, BuildingBlock: GIZVER_clean_sbu_0, # of connection points: 8
#     Edge 11, Type (0, 1), BuildingBlock: EZIPEK_clean_linker_0, # of connection points: 2
#     Edge 12, Type (0, 1), BuildingBlock: EZIPEK_clean_linker_0, # of connection points: 2
#     Edge 13, Type (0, 1), BuildingBlock: EZIPEK_clean_linker_0, # of connection points: 2
#     Edge 14, Type (0, 1), BuildingBlock: EZIPEK_clean_linker_0, # of connection points: 2
#     Edge 15, Type (0, 1), BuildingBlock: EZIPEK_clean_linker_0, # of connection points: 2
#     Edge 16, Type (0, 1), BuildingBlock: EZIPEK_clean_linker_0, # of connection points: 2
#     Edge 17, Type (0, 1), BuildingBlock: EZIPEK_clean_linker_0, # of connection points: 2
#     Edge 18, Type (0, 1), BuildingBlock: EZIPEK_clean_linker_0, # of connection points: 2
#     Edge 19, Type (0, 1), BuildingBlock: EZIPEK_clean_linker_0, # of connection points: 2
#     Edge 20, Type (0, 1), BuildingBlock: EZIPEK_clean_linker_0, # of connection points: 2
#     Edge 21, Type (0, 1), BuildingBlock: EZIPEK_clean_linker_0, # of connection points: 2
#     Edge 22, Type (0, 1), BuildingBlock: EZIPEK_clean_linker_0, # of connection points: 2
#     Edge 23, Type (0, 1), BuildingBlock: EZIPEK_clean_linker_0, # of connection points: 2
#     Edge 24, Type (0, 1), BuildingBlock: EZIPEK_clean_linker_0, # of connection points: 2
#     Edge 25, Type (0, 1), BuildingBlock: EZIPEK_clean_linker_0, # of connection points: 2
#     Edge 26, Type (0, 1), BuildingBlock: EZIPEK_clean_linker_0, # of connection points: 2
#     Edge 27, Type (0, 1), BuildingBlock: EZIPEK_clean_linker_0, # of connection points: 2
#     Edge 28, Type (0, 1), BuildingBlock: EZIPEK_clean_linker_0, # of connection points: 2
#     Edge 29, Type (0, 1), BuildingBlock: EZIPEK_clean_linker_0, # of connection points: 2
#     Edge 30, Type (0, 1), BuildingBlock: EZIPEK_clean_linker_0, # of connection points: 2
#     Edge 31, Type (0, 1), BuildingBlock: EZIPEK_clean_linker_0, # of connection points: 2
#     Edge 32, Type (0, 1), BuildingBlock: EZIPEK_clean_linker_0, # of connection points: 2
#     Edge 33, Type (0, 1), BuildingBlock: EZIPEK_clean_linker_0, # of connection points: 2
#     Edge 34, Type (0, 1), BuildingBlock: EZIPEK_clean_linker_0, # of connection points: 2
# Relax obj value: 0.045
# Max RMSD: 0.138
# Mean RMSD: 0.067
data_MOF--net-the--node1-WUSLED_clean_sbu_0--node2-GIZVER_clean_sbu_0--edge1-EZIPEK_clean_linker_0
_symmetry_space_group_name_H-M    P1
_symmetry_Int_Tables_number       1
_symmetry_cell_setting            triclinic
loop_
_symmetry_equiv_pos_as_xyz
'x, y, z'
_cell_length_a     41.880113
_cell_length_b     39.250301
_cell_length_c     35.916033
_cell_angle_alpha  86.839896
_cell_angle_beta   95.310818
_cell_angle_gamma 103.45132
loop_
_atom_site_label
_atom_site_type_symbol
_atom_site_fract_x
_atom_site_fract_y
_atom_site_fract_z
_atom_type_partial_charge
C0 C 0.33808 0.27171 0.47761 0.0
C1 C 0.36358 0.26746 0.4569 0.0
C2 C 0.37265 0.21971 0.49898 0.0
C3 C 0.38072 0.24164 0.46751 0.0
C4 C 0.34719 0.22389 0.51993 0.0
C5 C 0.32987 0.24987 0.50919 0.0
U6 U 0.3312 0.34489 0.40974 0.0
O7 O 0.28869 0.35984 0.37817 0.0
O8 O 0.32285 0.39747 0.41479 0.0
C9 C 0.29481 0.39042 0.39384 0.0
C10 C 0.32045 0.29903 0.46548 0.0
C11 C 0.26676 0.39884 0.40973 0.0
C12 C 0.23738 0.40496 0.46313 0.0
C13 C 0.26375 0.39574 0.44846 0.0
C14 C 0.21612 0.41909 0.40046 0.0
C15 C 0.21354 0.41684 0.43922 0.0
C16 C 0.24271 0.41027 0.3858 0.0
C17 C 0.39173 0.36807 0.33555 0.0
C18 C 0.3855 0.38599 0.26987 0.0
C19 C 0.43293 0.41528 0.30939 0.0
C20 C 0.42141 0.39364 0.33977 0.0
C21 C 0.41513 0.41136 0.27427 0.0
C22 C 0.37384 0.36452 0.30026 0.0
C23 C 0.37947 0.34592 0.36816 0.0
O24 O 0.33807 0.33122 0.46971 0.0
O25 O 0.30421 0.29431 0.43236 0.0
O26 O 0.35032 0.3245 0.3628 0.0
O27 O 0.38367 0.36203 0.40001 0.0
H28 H 0.37022 0.28417 0.43247 0.0
H29 H 0.40039 0.23876 0.45119 0.0
H30 H 0.34087 0.20717 0.54442 0.0
H31 H 0.31023 0.25294 0.52542 0.0
H32 H 0.23557 0.40293 0.49305 0.0
H33 H 0.28191 0.38654 0.46734 0.0
H34 H 0.19782 0.42818 0.38169 0.0
H35 H 0.24463 0.41259 0.35584 0.0
H36 H 0.37171 0.3825 0.24276 0.0
H37 H 0.45604 0.43458 0.31303 0.0
H38 H 0.43573 0.39687 0.36658 0.0
H39 H 0.35089 0.34511 0.29597 0.0
C40 C 0.66128 0.36724 0.24852 0.0
C41 C 0.68241 0.39304 0.22789 0.0
C42 C 0.63507 0.40659 0.19026 0.0
C43 C 0.66935 0.41258 0.19883 0.0
C44 C 0.6142 0.38041 0.21051 0.0
C45 C 0.62719 0.3609 0.23927 0.0
U46 U 0.72291 0.34926 0.33167 0.0
O47 O 0.71032 0.32594 0.38707 0.0
O48 O 0.7345 0.29878 0.35036 0.0
C49 C 0.72052 0.29748 0.38186 0.0
C50 C 0.67346 0.34668 0.28014 0.0
C51 C 0.69783 0.26402 0.39136 0.0
C52 C 0.64639 0.22048 0.38081 0.0
C53 C 0.6675 0.25237 0.3709 0.0
C54 C 0.68512 0.2124 0.43255 0.0
C55 C 0.65564 0.19825 0.41039 0.0
C56 C 0.70611 0.24419 0.42266 0.0
C57 C 0.80454 0.41393 0.36002 0.0
C58 C 0.84664 0.40062 0.4064 0.0
C59 C 0.84861 0.46078 0.3856 0.0
C60 C 0.82019 0.4496 0.36162 0.0
C61 C 0.86195 0.43646 0.40842 0.0
C62 C 0.81804 0.38943 0.3825 0.0
C63 C 0.77392 0.4031 0.33537 0.0
O64 O 0.69935 0.33419 0.27565 0.0
O65 O 0.67399 0.3589 0.31357 0.0
O66 O 0.74642 0.40238 0.35063 0.0
O67 O 0.77197 0.37595 0.31469 0.0
H68 H 0.70881 0.39841 0.23463 0.0
H69 H 0.68581 0.43299 0.18379 0.0
H70 H 0.58772 0.37564 0.20459 0.0
H71 H 0.61047 0.34113 0.25478 0.0
H72 H 0.6225 0.21445 0.36555 0.0
H73 H 0.65986 0.26825 0.34765 0.0
H74 H 0.69214 0.19991 0.45851 0.0
H75 H 0.72873 0.25359 0.44 0.0
H76 H 0.8565 0.38145 0.42384 0.0
H77 H 0.85996 0.48852 0.38679 0.0
H78 H 0.81018 0.46891 0.34458 0.0
H79 H 0.80629 0.36177 0.38183 0.0
C80 C 0.67571 0.72683 0.27292 0.0
C81 C 0.69602 0.71642 0.24877 0.0
C82 C 0.64775 0.68195 0.21387 0.0
C83 C 0.68209 0.69427 0.21929 0.0
C84 C 0.62757 0.69238 0.23801 0.0
C85 C 0.64144 0.71465 0.26722 0.0
U86 U 0.73937 0.75839 0.35547 0.0
O87 O 0.76044 0.81157 0.37542 0.0
O88 O 0.73047 0.77242 0.4116 0.0
C89 C 0.74527 0.80553 0.40642 0.0
C90 C 0.68932 0.75007 0.30434 0.0
C91 C 0.72623 0.83117 0.41459 0.0
C92 C 0.69091 0.87098 0.39392 0.0
C93 C 0.70942 0.84733 0.38567 0.0
C94 C 0.70547 0.86258 0.46011 0.0
C95 C 0.6886 0.87858 0.43121 0.0
C96 C 0.7242 0.83908 0.45185 0.0
C97 C 0.81069 0.71064 0.37719 0.0
C98 C 0.84638 0.7126 0.43487 0.0
C99 C 0.85294 0.67702 0.38428 0.0
C100 C 0.82747 0.68802 0.36264 0.0
C101 C 0.86204 0.6885 0.42086 0.0
C102 C 0.82072 0.72353 0.41316 0.0
C103 C 0.78129 0.71785 0.35539 0.0
O104 O 0.68751 0.73487 0.33784 0.0
O105 O 0.71751 0.77267 0.30037 0.0
O106 O 0.78493 0.74816 0.33689 0.0
O107 O 0.75371 0.70898 0.37198 0.0
H108 H 0.72256 0.72533 0.25269 0.0
H109 H 0.69803 0.68654 0.20086 0.0
H110 H 0.60104 0.68321 0.23424 0.0
H111 H 0.62533 0.72231 0.28549 0.0
H112 H 0.67788 0.88293 0.37128 0.0
H113 H 0.71036 0.84144 0.35673 0.0
H114 H 0.70384 0.86805 0.48898 0.0
H115 H 0.73684 0.82681 0.47459 0.0
H116 H 0.85301 0.72161 0.46311 0.0
H117 H 0.86462 0.65836 0.37307 0.0
H118 H 0.82004 0.67779 0.33496 0.0
H119 H 0.808 0.741 0.42486 0.0
C120 C 0.24185 0.65465 0.38015 0.0
C121 C 0.21749 0.67405 0.37214 0.0
C122 C 0.17935 0.6319 0.4087 0.0
C123 C 0.1865 0.66272 0.38627 0.0
C124 C 0.20378 0.61293 0.4174 0.0
C125 C 0.23467 0.62413 0.40318 0.0
U126 U 0.32808 0.71361 0.36393 0.0
O127 O 0.37441 0.69809 0.35734 0.0
O128 O 0.35242 0.72656 0.31142 0.0
C129 C 0.376 0.71043 0.32262 0.0
C130 C 0.27364 0.66391 0.3625 0.0
C131 C 0.38433 0.68766 0.29541 0.0
C132 C 0.37679 0.63142 0.26621 0.0
C133 C 0.36691 0.65269 0.29104 0.0
C134 C 0.42107 0.68 0.24949 0.0
C135 C 0.40424 0.64487 0.2456 0.0
C136 C 0.41121 0.70117 0.27417 0.0
C137 C 0.35996 0.79937 0.4177 0.0
C138 C 0.41649 0.83009 0.43537 0.0
C139 C 0.37212 0.85994 0.43685 0.0
C140 C 0.34942 0.82975 0.42445 0.0
C141 C 0.40577 0.86019 0.44293 0.0
C142 C 0.39379 0.79993 0.42276 0.0
C143 C 0.33505 0.76712 0.4074 0.0
O144 O 0.27823 0.69097 0.3387 0.0
O145 O 0.30025 0.66225 0.38438 0.0
O146 O 0.34223 0.73719 0.41888 0.0
O147 O 0.32105 0.76648 0.37307 0.0
H148 H 0.22203 0.69754 0.35431 0.0
H149 H 0.16786 0.67756 0.37907 0.0
H150 H 0.19864 0.58895 0.43446 0.0
H151 H 0.25273 0.60841 0.40948 0.0
H152 H 0.36348 0.60437 0.26355 0.0
H153 H 0.34605 0.64179 0.30716 0.0
H154 H 0.44227 0.69087 0.23388 0.0
H155 H 0.42495 0.72805 0.27711 0.0
H156 H 0.44237 0.82981 0.4398 0.0
H157 H 0.36338 0.88291 0.44243 0.0
H158 H 0.32349 0.82992 0.42078 0.0
H159 H 0.4026 0.7769 0.41763 0.0
C160 C 0.26734 0.6643 0.72308 0.0
C161 C 0.25407 0.68757 0.69858 0.0
C162 C 0.20916 0.6395 0.67686 0.0
C163 C 0.22508 0.67524 0.67568 0.0
C164 C 0.22223 0.61644 0.70174 0.0
C165 C 0.25106 0.62877 0.72469 0.0
U166 U 0.34864 0.73102 0.74998 0.0
O167 O 0.37479 0.74311 0.80546 0.0
O168 O 0.39821 0.7212 0.76321 0.0
C169 C 0.39993 0.73052 0.79807 0.0
C170 C 0.29873 0.67598 0.74604 0.0
C171 C 0.41258 0.70734 0.82702 0.0
C172 C 0.4115 0.67739 0.88849 0.0
C173 C 0.39701 0.69643 0.8602 0.0
C174 C 0.45688 0.67921 0.85071 0.0
C175 C 0.4417 0.66892 0.88403 0.0
C176 C 0.44251 0.69825 0.82256 0.0
C177 C 0.37134 0.81932 0.69512 0.0
C178 C 0.41961 0.86596 0.71084 0.0
C179 C 0.39195 0.86444 0.64844 0.0
C180 C 0.36887 0.83436 0.65891 0.0
C181 C 0.41781 0.88012 0.6741 0.0
C182 C 0.39658 0.83564 0.72127 0.0
C183 C 0.34861 0.78558 0.70395 0.0
O184 O 0.32546 0.67882 0.72855 0.0
O185 O 0.30061 0.70209 0.7682 0.0
O186 O 0.33635 0.78223 0.73672 0.0
O187 O 0.35791 0.75753 0.69511 0.0
H188 H 0.26638 0.71506 0.69678 0.0
H189 H 0.21545 0.69338 0.65647 0.0
H190 H 0.21041 0.58879 0.7029 0.0
H191 H 0.26098 0.6104 0.7433 0.0
H192 H 0.39952 0.66984 0.91412 0.0
H193 H 0.37406 0.70318 0.86467 0.0
H194 H 0.48026 0.6731 0.84683 0.0
H195 H 0.45524 0.70661 0.79754 0.0
H196 H 0.43973 0.87736 0.73082 0.0
H197 H 0.39045 0.87467 0.61985 0.0
H198 H 0.34968 0.82212 0.6383 0.0
H199 H 0.39909 0.82433 0.74929 0.0
C200 C 0.26204 0.33114 0.67886 0.0
C201 C 0.26546 0.366 0.68885 0.0
C202 C 0.21483 0.36893 0.65101 0.0
C203 C 0.24206 0.3848 0.67489 0.0
C204 C 0.21089 0.33379 0.64192 0.0
C205 C 0.23439 0.31505 0.65572 0.0
U206 U 0.33619 0.31755 0.74385 0.0
O207 O 0.35057 0.2691 0.76516 0.0
O208 O 0.38292 0.3068 0.72978 0.0
C209 C 0.37712 0.27563 0.74661 0.0
C210 C 0.28786 0.31193 0.6907 0.0
C211 C 0.38328 0.24665 0.72548 0.0
C212 C 0.36773 0.18682 0.70347 0.0
C213 C 0.35996 0.21457 0.72108 0.0
C214 C 0.42183 0.2229 0.69369 0.0
C215 C 0.39882 0.19076 0.68987 0.0
C216 C 0.41416 0.25051 0.71137 0.0
C217 C 0.36668 0.38154 0.82473 0.0
C218 C 0.41995 0.3901 0.86065 0.0
C219 C 0.38075 0.42344 0.87445 0.0
C220 C 0.35829 0.40635 0.84637 0.0
C221 C 0.41196 0.4159 0.88133 0.0
C222 C 0.39744 0.373 0.83247 0.0
C223 C 0.34392 0.367 0.79269 0.0
O224 O 0.31819 0.32937 0.68631 0.0
O225 O 0.28492 0.29429 0.72287 0.0
O226 O 0.3255 0.33532 0.79762 0.0
O227 O 0.35613 0.37209 0.7599 0.0
H228 H 0.28659 0.37889 0.70674 0.0
H229 H 0.24551 0.41193 0.68209 0.0
H230 H 0.19009 0.32122 0.62341 0.0
H231 H 0.23135 0.2882 0.64769 0.0
H232 H 0.34973 0.16213 0.70097 0.0
H233 H 0.33598 0.21066 0.73176 0.0
H234 H 0.446 0.22639 0.68356 0.0
H235 H 0.43268 0.27478 0.71464 0.0
H236 H 0.44404 0.38419 0.86539 0.0
H237 H 0.37428 0.44345 0.88991 0.0
H238 H 0.33471 0.41334 0.84073 0.0
H239 H 0.40437 0.35397 0.816 0.0
C240 C 0.68062 0.26732 0.72112 0.0
C241 C 0.70029 0.24915 0.70404 0.0
C242 C 0.6511 0.209 0.67726 0.0
C243 C 0.6856 0.22005 0.68234 0.0
C244 C 0.6316 0.22703 0.69462 0.0
C245 C 0.64623 0.2559 0.71636 0.0
U246 U 0.75029 0.34693 0.74939 0.0
O247 O 0.7474 0.4002 0.76212 0.0
O248 O 0.76755 0.36761 0.80549 0.0
C249 C 0.75821 0.39708 0.79742 0.0
C250 C 0.69511 0.29835 0.7437 0.0
C251 C 0.73948 0.4087 0.82532 0.0
C252 C 0.68866 0.41937 0.84506 0.0
C253 C 0.70529 0.40568 0.81946 0.0
C254 C 0.7399 0.43828 0.88331 0.0
C255 C 0.70592 0.43615 0.87694 0.0
C256 C 0.75653 0.42476 0.85764 0.0
C257 C 0.8305 0.36523 0.69868 0.0
C258 C 0.88008 0.41017 0.71396 0.0
C259 C 0.87664 0.37507 0.66015 0.0
C260 C 0.84474 0.35737 0.66755 0.0
C261 C 0.89626 0.40024 0.68467 0.0
C262 C 0.84802 0.39235 0.72138 0.0
C263 C 0.79716 0.34519 0.70605 0.0
O264 O 0.72027 0.296 0.76767 0.0
O265 O 0.69908 0.32882 0.7255 0.0
O266 O 0.77297 0.36077 0.69602 0.0
O267 O 0.79425 0.32847 0.73873 0.0
H268 H 0.7269 0.25759 0.70726 0.0
H269 H 0.70103 0.20653 0.66902 0.0
H270 H 0.60498 0.21896 0.69094 0.0
H271 H 0.63063 0.26954 0.72927 0.0
H272 H 0.66241 0.41735 0.83975 0.0
H273 H 0.69154 0.3933 0.79483 0.0
H274 H 0.75361 0.45099 0.90779 0.0
H275 H 0.78289 0.42739 0.8627 0.0
H276 H 0.89131 0.43225 0.73099 0.0
H277 H 0.88511 0.36909 0.63435 0.0
H278 H 0.83101 0.33761 0.64858 0.0
H279 H 0.83678 0.40002 0.74461 0.0
C280 C 0.73424 0.80855 0.60312 0.0
C281 C 0.71078 0.8051 0.57206 0.0
C282 C 0.69882 0.86059 0.585 0.0
C283 C 0.69304 0.83092 0.56315 0.0
C284 C 0.72368 0.86526 0.61436 0.0
C285 C 0.74135 0.83953 0.62331 0.0
U286 U 0.73773 0.73169 0.67036 0.0
O287 O 0.74584 0.67936 0.66269 0.0
O288 O 0.77984 0.71539 0.70109 0.0
C289 C 0.77365 0.68548 0.68411 0.0
C290 C 0.74932 0.779 0.61598 0.0
C291 C 0.80199 0.67732 0.66861 0.0
C292 C 0.83197 0.67019 0.61597 0.0
C293 C 0.8053 0.67961 0.6299 0.0
C294 C 0.85284 0.65773 0.67937 0.0
C295 C 0.85564 0.65892 0.6407 0.0
C296 C 0.82609 0.66679 0.69322 0.0
C297 C 0.68173 0.7059 0.74607 0.0
C298 C 0.69033 0.65574 0.78497 0.0
C299 C 0.65074 0.68805 0.8004 0.0
C300 C 0.65814 0.71068 0.7693 0.0
C301 C 0.66693 0.6606 0.80836 0.0
C302 C 0.6977 0.67827 0.75402 0.0
C303 C 0.69085 0.72997 0.71415 0.0
O304 O 0.76595 0.78208 0.64901 0.0
O305 O 0.73039 0.74748 0.611 0.0
O306 O 0.68555 0.71503 0.68157 0.0
O307 O 0.72013 0.75115 0.71907 0.0
H308 H 0.70516 0.78179 0.55565 0.0
H309 H 0.67388 0.82711 0.54033 0.0
H310 H 0.72842 0.88817 0.63132 0.0
H311 H 0.75963 0.84338 0.64701 0.0
H312 H 0.83384 0.67099 0.58603 0.0
H313 H 0.78707 0.68808 0.61049 0.0
H314 H 0.87092 0.64887 0.69868 0.0
H315 H 0.82395 0.6651 0.72315 0.0
H316 H 0.70303 0.6347 0.7909 0.0
H317 H 0.63265 0.69205 0.8184 0.0
H318 H 0.64574 0.73198 0.76357 0.0
H319 H 0.7161 0.67436 0.73642 0.0
Co320 Co 0.1017 0.49339 0.5674 0.0
Co321 Co 0.06815 0.48597 0.50254 0.0
Co322 Co 0.03553 0.53065 0.5501 0.0
O323 O 0.05673 0.49033 0.54973 0.0
H324 H 0.0427 0.4685 0.55769 0.0
O325 O 1.01443 0.57167 0.55096 0.0
Co326 Co 0.97154 0.57131 0.52651 0.0
Co327 Co 0.99495 0.57284 0.59475 0.0
H328 H 1.02996 0.59369 0.54692 0.0
O329 O 0.07588 0.44536 0.48622 0.0
O330 O 0.11265 0.48976 0.51521 0.0
O331 O 0.06362 0.52248 0.46615 0.0
O332 O 0.06225 0.55954 0.50968 0.0
O333 O 1.00072 0.50676 0.51114 0.0
O334 O 0.93322 0.57429 0.50253 0.0
O335 O 0.97746 0.61811 0.51595 0.0
O336 O 0.95963 0.52276 0.53395 0.0
O337 O 1.00989 0.50095 0.59057 0.0
O338 O 0.98622 0.53112 0.62538 0.0
O339 O 0.95436 0.57711 0.57471 0.0
O340 O 0.99096 0.61441 0.61278 0.0
C341 C 0.12921 0.45825 0.58752 0.0
C342 C 0.10077 0.56229 0.5828 0.0
C343 C 0.06758 0.55368 0.47631 0.0
C344 C 0.10606 0.46134 0.496 0.0
C345 C 0.94725 0.6075 0.50111 0.0
C346 C 0.96978 0.5041 0.5121 0.0
C347 C 0.99276 0.50253 0.61778 0.0
C348 C 0.96166 0.60405 0.59615 0.0
O349 O 0.14243 0.49166 0.58543 0.0
O350 O 0.09822 0.44687 0.5759 0.0
O351 O 0.07029 0.55438 0.58857 0.0
O352 O 0.11169 0.54294 0.56221 0.0
Co353 Co 0.57301 0.97784 0.51389 0.0
Co354 Co 0.58578 0.99468 0.58379 0.0
Co355 Co 0.53616 0.03926 0.54341 0.0
O356 O 0.57531 1.01906 0.54075 0.0
H357 H 0.59456 0.03697 0.53528 0.0
O358 O 0.49677 0.05987 0.54558 0.0
Co359 Co 0.49468 0.09372 0.58178 0.0
Co360 Co 0.49465 0.09668 0.51243 0.0
H361 H 0.47651 0.04203 0.54312 0.0
O362 O 0.62816 0.98939 0.59672 0.0
O363 O 0.5883 0.9547 0.56013 0.0
O364 O 0.55247 0.98113 0.6182 0.0
O365 O 0.51525 1.00438 0.5835 0.0
O366 O 0.56369 0.07147 0.58234 0.0
O367 O 0.48965 0.12247 0.61585 0.0
O368 O 0.45166 0.07723 0.59136 0.0
O369 O 0.53885 0.11588 0.57733 0.0
O370 O 0.55721 0.07257 0.5023 0.0
O371 O 0.53342 0.11734 0.48784 0.0
O372 O 0.48231 0.12668 0.54227 0.0
O373 O 0.45497 0.10108 0.48985 0.0
C374 C 0.60396 0.95989 0.48202 0.0
C375 C 0.50601 0.97337 0.50776 0.0
C376 C 0.52314 0.9844 0.6106 0.0
C377 C 0.61774 0.96147 0.57725 0.0
C378 C 0.45978 0.10333 0.61414 0.0
C379 C 0.56373 0.10348 0.5875 0.0
C380 C 0.55645 0.10189 0.4851 0.0
C381 C 0.45769 0.12292 0.51655 0.0
O382 O 0.57466 0.94141 0.48783 0.0
O383 O 0.61441 0.98951 0.49903 0.0
O384 O 0.50919 1.00657 0.50492 0.0
O385 O 0.52869 0.96023 0.5243 0.0
Co386 Co 0.50403 0.5586 0.11995 0.0
Co387 Co 0.49296 0.49578 0.09521 0.0
Co388 Co 0.54202 0.54458 0.04298 0.0
O389 O 0.50224 0.53941 0.07162 0.0
H390 H 0.48317 0.54262 0.05574 0.0
O391 O 0.58232 0.54968 1.01502 0.0
Co392 Co 0.58742 0.51844 0.97757 0.0
Co393 Co 0.58669 0.5819 0.97662 0.0
H394 H 0.60193 0.5549 1.03208 0.0
O395 O 0.45199 0.47479 0.11004 0.0
O396 O 0.49398 0.51025 0.14378 0.0
O397 O 0.52473 0.46702 0.09454 0.0
O398 O 0.56394 0.51254 0.07836 0.0
O399 O 0.51621 0.50412 1.01236 0.0
O400 O 0.59552 0.48937 0.94544 0.0
O401 O 0.63106 0.52013 0.98904 0.0
O402 O 0.5429 0.51148 0.96063 0.0
O403 O 0.52009 0.57749 1.00894 0.0
O404 O 0.54992 0.6016 0.9619 0.0
O405 O 0.59785 0.55808 0.93938 0.0
O406 O 0.62725 0.60722 0.9669 0.0
C407 C 0.47163 0.57478 0.15088 0.0
C408 C 0.56937 0.58446 0.10888 0.0
C409 C 0.55488 0.48165 0.09291 0.0
C410 C 0.46594 0.48703 0.14188 0.0
C411 C 0.62505 0.49799 0.96194 0.0
C412 C 0.51703 0.49977 0.97744 0.0
C413 C 0.52413 0.59697 0.97913 0.0
C414 C 0.62289 0.5852 0.94007 0.0
O415 O 0.50218 0.57737 0.16347 0.0
O416 O 0.46099 0.56021 0.1188 0.0
O417 O 0.56678 0.58527 0.07322 0.0
O418 O 0.54977 0.56145 0.12717 0.0
C419 C 0.18501 0.46384 0.45154 0.0
C420 C 0.1863 0.42803 0.45477 0.0
C421 C 0.13654 0.41449 0.48861 0.0
C422 C 0.13326 0.44948 0.48146 0.0
N423 N 0.15025 0.50527 0.44837 0.0
N424 N 0.16052 0.36797 0.47072 0.0
C425 C 0.15635 0.47362 0.46077 0.0
C426 C 0.16131 0.40292 0.47179 0.0
N427 N 0.21152 0.48866 0.44066 0.0
N428 N 0.11694 0.39269 0.51254 0.0
H429 H 0.17805 0.35838 0.45829 0.0
H430 H 0.14091 0.34838 0.47918 0.0
H431 H 0.0984 0.40004 0.52543 0.0
H432 H 0.12099 0.36841 0.52222 0.0
H433 H 0.21305 0.51549 0.44157 0.0
H434 H 0.23332 0.48261 0.43431 0.0
H435 H 0.16477 0.52224 0.43001 0.0
H436 H 0.12879 0.51299 0.45298 0.0
C437 C 0.64199 0.14242 0.45237 0.0
C438 C 0.63316 0.16315 0.42136 0.0
C439 C 0.57587 0.13035 0.42377 0.0
C440 C 0.58354 0.11882 0.46117 0.0
N441 N 0.62606 0.11345 0.51071 0.0
N442 N 0.59795 0.1516 0.36468 0.0
C443 C 0.61725 0.12401 0.47516 0.0
C444 C 0.60161 0.15025 0.40282 0.0
N445 N 0.67294 0.13649 0.457 0.0
N446 N 0.5442 0.12213 0.40804 0.0
H447 H 0.61826 0.16001 0.34892 0.0
H448 H 0.57634 0.13988 0.3491 0.0
H449 H 0.52527 0.10451 0.42064 0.0
H450 H 0.53671 0.13365 0.38291 0.0
H451 H 0.67981 0.11885 0.47721 0.0
H452 H 0.69 0.14573 0.43722 0.0
H453 H 0.65027 0.12018 0.52262 0.0
H454 H 0.60926 0.10093 0.52944 0.0
C455 C 0.91923 0.67969 0.43904 0.0
C456 C 0.88533 0.67198 0.44542 0.0
C457 C 0.89484 0.62888 0.49465 0.0
C458 C 0.92753 0.63254 0.48433 0.0
N459 N 0.96959 0.65885 0.44296 0.0
N460 N 0.83969 0.63578 0.47598 0.0
C461 C 0.93963 0.65763 0.45586 0.0
C462 C 0.87287 0.64589 0.47259 0.0
N463 N 0.93189 0.7082 0.41696 0.0
N464 N 0.88473 0.60953 0.52599 0.0
H465 H 0.82248 0.64732 0.46044 0.0
H466 H 0.82889 0.61387 0.49193 0.0
H467 H 0.89952 0.59589 0.54269 0.0
H468 H 0.86281 0.6097 0.53745 0.0
H469 H 0.957 0.71733 0.41416 0.0
H470 H 0.91748 0.72466 0.40419 0.0
H471 H 0.978 0.67385 0.41949 0.0
H472 H 0.98496 0.64259 0.45349 0.0
C473 C 0.42968 0.89986 0.49641 0.0
C474 C 0.42971 0.89162 0.45838 0.0
C475 C 0.47827 0.93995 0.4514 0.0
C476 C 0.47723 0.94905 0.4889 0.0
N477 N 0.44753 0.94339 0.54393 0.0
N478 N 0.44964 0.90791 0.39756 0.0
C479 C 0.45148 0.93077 0.5104 0.0
C480 C 0.4527 0.91296 0.4352 0.0
N481 N 0.40992 0.87736 0.51967 0.0
N482 N 0.50431 0.95629 0.43169 0.0
H483 H 0.43121 0.88844 0.38479 0.0
H484 H 0.4635 0.92477 0.3786 0.0
H485 H 0.52275 0.97708 0.4421 0.0
H486 H 0.5087 0.94795 0.40602 0.0
H487 H 0.41156 0.87992 0.54854 0.0
H488 H 0.39379 0.85429 0.51068 0.0
H489 H 0.42769 0.93295 0.55975 0.0
H490 H 0.46229 0.96678 0.55389 0.0
C491 C 0.14767 0.61828 0.66296 0.0
C492 C 0.17987 0.62563 0.65051 0.0
C493 C 0.15679 0.60381 0.58875 0.0
C494 C 0.12538 0.5913 0.60289 0.0
N495 N 0.08876 0.60309 0.64632 0.0
N496 N 0.21572 0.62427 0.60206 0.0
C497 C 0.11998 0.60327 0.63801 0.0
C498 C 0.18454 0.61862 0.61333 0.0
N499 N 0.14368 0.62476 0.69905 0.0
N500 N 0.15958 0.6035 0.55118 0.0
H501 H 0.23675 0.6356 0.61889 0.0
H502 H 0.22103 0.61537 0.57708 0.0
H503 H 0.13919 0.59563 0.53214 0.0
H504 H 0.18098 0.61507 0.5384 0.0
H505 H 0.12169 0.61576 0.71159 0.0
H506 H 0.16306 0.63741 0.71738 0.0
H507 H 0.08341 0.61342 0.67045 0.0
H508 H 0.06851 0.59794 0.62672 0.0
C509 C 0.43125 0.14405 0.69411 0.0
C510 C 0.4084 0.16089 0.67335 0.0
C511 C 0.40775 0.12366 0.6205 0.0
C512 C 0.43606 0.11345 0.63766 0.0
N513 N 0.47203 0.10908 0.693 0.0
N514 N 0.37523 0.16752 0.61596 0.0
C515 C 0.44666 0.12185 0.67544 0.0
C516 C 0.3963 0.15052 0.63649 0.0
N517 N 0.43791 0.14917 0.73163 0.0
N518 N 0.39132 0.10719 0.5896 0.0
H519 H 0.36616 0.18725 0.62664 0.0
H520 H 0.36872 0.16379 0.58752 0.0
H521 H 0.39789 0.08591 0.5789 0.0
H522 H 0.36885 0.11151 0.57784 0.0
H523 H 0.45224 0.13558 0.74916 0.0
H524 H 0.42679 0.16509 0.74599 0.0
H525 H 0.48405 0.11748 0.71867 0.0
H526 H 0.48158 0.09029 0.68106 0.0
C527 C 0.95084 0.44664 0.69759 0.0
C528 C 0.93142 0.41868 0.6765 0.0
C529 C 0.96657 0.43628 0.62497 0.0
C530 C 0.97838 0.47016 0.64067 0.0
N531 N 0.99045 0.50258 0.69769 0.0
N532 N 0.94468 0.37503 0.64034 0.0
C533 C 0.97339 0.4737 0.679 0.0
C534 C 0.94632 0.40948 0.64601 0.0
N535 N 0.95176 0.44414 0.73567 0.0
N536 N 0.97286 0.42922 0.58993 0.0
H537 H 0.93348 0.3553 0.65881 0.0
H538 H 0.95792 0.36675 0.62077 0.0
H539 H 0.98802 0.44634 0.5726 0.0
H540 H 0.96085 0.40608 0.57688 0.0
H541 H 0.96735 0.46219 0.75323 0.0
H542 H 0.94003 0.42119 0.74952 0.0
H543 H 0.98451 0.50913 0.72349 0.0
H544 H 1.01064 0.52002 0.68711 0.0
C545 C 0.68828 0.91873 0.56255 0.0
C546 C 0.67689 0.88534 0.57988 0.0
C547 C 0.62606 0.90118 0.59358 0.0
C548 C 0.63813 0.9353 0.57792 0.0
N549 N 0.68142 0.97818 0.55032 0.0
N550 N 0.63748 0.84545 0.61591 0.0
C551 C 0.66952 0.94458 0.56324 0.0
C552 C 0.64626 0.87655 0.59607 0.0
N553 N 0.71689 0.92533 0.54509 0.0
N554 N 0.59555 0.89255 0.60695 0.0
H555 H 0.65133 0.82643 0.61814 0.0
H556 H 0.6176 0.83911 0.63235 0.0
H557 H 0.5819 0.91091 0.61087 0.0
H558 H 0.58314 0.86697 0.61322 0.0
H559 H 0.72605 0.94829 0.52996 0.0
H560 H 0.73096 0.90675 0.54392 0.0
H561 H 0.70536 0.9879 0.54293 0.0
H562 H 0.66776 0.99734 0.5483 0.0
C563 C 0.42474 0.20448 0.5251 0.0
C564 C 0.39194 0.19307 0.50969 0.0
C565 C 0.40048 0.1339 0.50525 0.0
C566 C 0.43477 0.14682 0.51503 0.0
N567 N 0.48024 0.19756 0.52427 0.0
N568 N 0.34887 0.14793 0.48123 0.0
C569 C 0.44717 0.1829 0.52271 0.0
C570 C 0.37978 0.15799 0.49879 0.0
N571 N 0.4346 0.23627 0.54139 0.0
N572 N 0.38736 0.09864 0.50356 0.0
H573 H 0.33262 0.16455 0.47711 0.0
H574 H 0.34021 0.12394 0.46851 0.0
H575 H 0.40111 0.07986 0.51026 0.0
H576 H 0.36214 0.08784 0.5 0.0
H577 H 0.45751 0.24442 0.55618 0.0
H578 H 0.41861 0.25279 0.5434 0.0
H579 H 0.48998 0.22439 0.5266 0.0
H580 H 0.4977 0.1841 0.51815 0.0
C581 C 0.88713 0.44884 0.4743 0.0
C582 C 0.89113 0.44913 0.4355 0.0
C583 C 0.94786 0.48399 0.44646 0.0
C584 C 0.94465 0.48186 0.48574 0.0
N585 N 0.91319 0.45517 0.53725 0.0
N586 N 0.92754 0.45937 0.38593 0.0
C587 C 0.91491 0.46193 0.49966 0.0
C588 C 0.92231 0.46414 0.42207 0.0
N589 N 0.85644 0.43787 0.48689 0.0
N590 N 0.97383 0.50696 0.43184 0.0
H591 H 0.90934 0.44504 0.36738 0.0
H592 H 0.95069 0.46661 0.3756 0.0
H593 H 0.99227 0.52364 0.44792 0.0
H594 H 0.97534 0.51216 0.40322 0.0
H595 H 0.85143 0.44111 0.51418 0.0
H596 H 0.83533 0.42824 0.4694 0.0
H597 H 0.89363 0.43752 0.54865 0.0
H598 H 0.93262 0.46464 0.55695 0.0
C599 C 0.63249 0.88968 0.4357 0.0
C600 C 0.66716 0.90208 0.43988 0.0
C601 C 0.66016 0.9591 0.45903 0.0
C602 C 0.62571 0.94467 0.45953 0.0
N603 N 0.5801 0.90584 0.42638 0.0
N604 N 0.71472 0.94909 0.45276 0.0
C605 C 0.61205 0.91273 0.44132 0.0
C606 C 0.68124 0.9371 0.45058 0.0
N607 N 0.61889 0.85542 0.42778 0.0
N608 N 0.67215 0.9943 0.46291 0.0
H609 H 0.73055 0.93429 0.44495 0.0
H610 H 0.72715 0.97295 0.46379 0.0
H611 H 0.65681 1.01178 0.46212 0.0
H612 H 0.69675 1.00707 0.46175 0.0
H613 H 0.59382 0.84422 0.42865 0.0
H614 H 0.63288 0.83738 0.42363 0.0
H615 H 0.56956 0.88421 0.41021 0.0
H616 H 0.56586 0.9245 0.42521 0.0
C617 C 0.12355 0.59065 0.40116 0.0
C618 C 0.14561 0.61795 0.42114 0.0
C619 C 0.10512 0.61426 0.46741 0.0
C620 C 0.08699 0.58228 0.45211 0.0
N621 N 0.06875 0.55242 0.39477 0.0
N622 N 0.15713 0.65753 0.47223 0.0
C623 C 0.09304 0.57432 0.41577 0.0
C624 C 0.13603 0.63077 0.45361 0.0
N625 N 0.13239 0.57937 0.36912 0.0
N626 N 0.09191 0.62971 0.49343 0.0
H627 H 0.17962 0.6706 0.46253 0.0
H628 H 0.15329 0.66538 0.49835 0.0
H629 H 0.06764 0.62033 0.50006 0.0
H630 H 0.10295 0.65409 0.50428 0.0
H631 H 0.11943 0.55674 0.3559 0.0
H632 H 0.15377 0.59181 0.35661 0.0
H633 H 0.0703 0.54727 0.36696 0.0
H634 H 0.04535 0.54276 0.40412 0.0
C635 C 0.47135 0.897 0.64492 0.0
C636 C 0.44559 0.90768 0.66052 0.0
C637 C 0.47227 0.9695 0.64712 0.0
C638 C 0.49644 0.95846 0.62852 0.0
N639 N 0.5135 0.91085 0.60172 0.0
N640 N 0.419 0.95344 0.67332 0.0
C641 C 0.49461 0.92199 0.62543 0.0
C642 C 0.44531 0.94381 0.66074 0.0
N643 N 0.4738 0.8628 0.6488 0.0
N644 N 0.47564 1.00437 0.65269 0.0
H645 H 0.39955 0.93536 0.68453 0.0
H646 H 0.41539 0.97884 0.67059 0.0
H647 H 0.49511 1.02365 0.64324 0.0
H648 H 0.46069 1.01406 0.669 0.0
H649 H 0.49438 0.85446 0.64213 0.0
H650 H 0.45667 0.84316 0.66168 0.0
H651 H 0.51013 0.88475 0.5948 0.0
H652 H 0.53027 0.92775 0.58577 0.0
C653 C 0.19922 0.40985 0.60016 0.0
C654 C 0.19162 0.38996 0.63364 0.0
C655 C 0.14103 0.41149 0.63452 0.0
C656 C 0.14991 0.43353 0.60249 0.0
N657 N 0.18925 0.45639 0.55678 0.0
N658 N 0.1574 0.37336 0.68484 0.0
C659 C 0.17953 0.43346 0.58588 0.0
C660 C 0.16293 0.39097 0.65125 0.0
N661 N 0.22501 0.40554 0.58155 0.0
N662 N 0.11193 0.4106 0.64941 0.0
H663 H 0.1724 0.35739 0.69729 0.0
H664 H 0.13925 0.37603 0.70166 0.0
H665 H 0.09675 0.4276 0.64073 0.0
H666 H 0.10189 0.39199 0.66943 0.0
H667 H 0.22995 0.41628 0.55503 0.0
H668 H 0.24039 0.38902 0.59143 0.0
H669 H 0.21242 0.46099 0.54669 0.0
H670 H 0.17488 0.47255 0.54358 0.0
C671 C 0.62834 0.18648 0.61379 0.0
C672 C 0.63472 0.17954 0.65254 0.0
C673 C 0.60056 0.11962 0.64677 0.0
C674 C 0.59213 0.12722 0.60833 0.0
N675 N 0.59724 0.16801 0.55518 0.0
N676 N 0.63446 0.13791 0.70415 0.0
C677 C 0.60633 0.16054 0.59171 0.0
C678 C 0.62323 0.1455 0.6684 0.0
N679 N 0.64375 0.2179 0.59813 0.0
N680 N 0.58472 0.08896 0.66352 0.0
H681 H 0.65071 0.15646 0.72071 0.0
H682 H 0.63013 0.11277 0.71636 0.0
H683 H 0.56783 0.06928 0.64922 0.0
H684 H 0.58644 0.08375 0.69226 0.0
H685 H 0.64327 0.22376 0.56953 0.0
H686 H 0.65924 0.23777 0.61368 0.0
H687 H 0.60302 0.19274 0.54219 0.0
H688 H 0.58243 0.14943 0.5377 0.0
C689 C 0.90968 0.66856 0.61207 0.0
C690 C 0.88198 0.64528 0.62641 0.0
C691 C 0.90823 0.5962 0.6243 0.0
C692 C 0.93479 0.61877 0.6071 0.0
N693 N 0.95852 0.67497 0.57859 0.0
N694 N 0.85123 0.58608 0.63766 0.0
C695 C 0.93494 0.65461 0.59925 0.0
C696 C 0.88012 0.60879 0.62985 0.0
N697 N 0.91237 0.70394 0.61191 0.0
N698 N 0.91043 0.56324 0.63695 0.0
H699 H 0.82986 0.59435 0.64151 0.0
H700 H 0.84755 0.55896 0.6366 0.0
H701 H 0.93115 0.55329 0.63479 0.0
H702 H 0.89314 0.54711 0.6531 0.0
H703 H 0.93364 0.72231 0.60564 0.0
H704 H 0.89414 0.71506 0.62073 0.0
H705 H 0.95767 0.7001 0.56833 0.0
H706 H 0.97763 0.66572 0.56912 0.0
C707 C 0.45565 0.42333 0.22567 0.0
C708 C 0.42877 0.4319 0.24124 0.0
C709 C 0.42458 0.47499 0.19008 0.0
C710 C 0.45339 0.46878 0.17652 0.0
N711 N 0.49873 0.43981 0.1835 0.0
N712 N 0.39098 0.4696 0.24254 0.0
C713 C 0.46976 0.44396 0.19513 0.0
C714 C 0.41413 0.45882 0.22465 0.0
N715 N 0.46661 0.39431 0.23878 0.0
N716 N 0.40703 0.49598 0.16976 0.0
H717 H 0.38281 0.45828 0.26794 0.0
H718 H 0.382 0.49163 0.23399 0.0
H719 H 0.41428 0.5087 0.14464 0.0
H720 H 0.38409 0.49876 0.17632 0.0
H721 H 0.48346 0.3843 0.2257 0.0
H722 H 0.45679 0.37818 0.26094 0.0
H723 H 0.51407 0.42586 0.19895 0.0
H724 H 0.50857 0.45209 0.15943 0.0
C725 C 0.48657 0.67082 0.93588 0.0
C726 C 0.45877 0.65101 0.9148 0.0
C727 C 0.46733 0.59723 0.94852 0.0
C728 C 0.49856 0.61603 0.96378 0.0
N729 N 0.53697 0.67117 0.97537 0.0
N730 N 0.42279 0.59517 0.8998 0.0
C731 C 0.5077 0.65309 0.95871 0.0
C732 C 0.44883 0.61421 0.92124 0.0
N733 N 0.49239 0.70661 0.93433 0.0
N734 N 0.45529 0.56327 0.95998 0.0
H735 H 0.40835 0.60668 0.88001 0.0
H736 H 0.41691 0.56789 0.89975 0.0
H737 H 0.46812 0.54981 0.97955 0.0
H738 H 0.43139 0.54934 0.95255 0.0
H739 H 0.51043 0.72275 0.95141 0.0
H740 H 0.47725 0.72027 0.91798 0.0
H741 H 0.54741 0.69737 0.96912 0.0
H742 H 0.55144 0.65946 0.99497 0.0
C743 C 0.44438 0.42552 0.94422 0.0
C744 C 0.43748 0.43781 0.90717 0.0
C745 C 0.47809 0.49292 0.91918 0.0
C746 C 0.48775 0.4792 0.95494 0.0
N747 N 0.48399 0.42924 0.99829 0.0
N748 N 0.45086 0.48099 0.85723 0.0
C749 C 0.47175 0.44473 0.96685 0.0
C750 C 0.45516 0.47094 0.89409 0.0
N751 N 0.42462 0.39557 0.95789 0.0
N752 N 0.49017 0.52737 0.9094 0.0
H753 H 0.43391 0.46602 0.83797 0.0
H754 H 0.46598 0.50275 0.84492 0.0
H755 H 0.50685 0.54465 0.92676 0.0
H756 H 0.48111 0.53987 0.8858 0.0
H757 H 0.4261 0.3873 0.98593 0.0
H758 H 0.40488 0.38051 0.9418 0.0
H759 H 0.47549 0.40294 1.00599 0.0
H760 H 0.5048 0.44145 1.01486 0.0
C761 C 0.69346 0.48921 0.90394 0.0
C762 C 0.68843 0.45219 0.90321 0.0
C763 C 0.64576 0.44545 0.94734 0.0
C764 C 0.65103 0.48253 0.94832 0.0
N765 N 0.68659 0.53915 0.93639 0.0
N766 N 0.66559 0.39533 0.93056 0.0
C767 C 0.67717 0.50423 0.92961 0.0
C768 C 0.66635 0.43036 0.92695 0.0
N769 N 0.71243 0.51005 0.87872 0.0
N770 N 0.62059 0.42463 0.96543 0.0
H771 H 0.68038 0.38353 0.91608 0.0
H772 H 0.65249 0.37849 0.95012 0.0
H773 H 0.60669 0.43463 0.98291 0.0
H774 H 0.61257 0.39775 0.96196 0.0
H775 H 0.71376 0.53682 0.87484 0.0
H776 H 0.72464 0.50019 0.85928 0.0
H777 H 0.70729 0.55575 0.92604 0.0
H778 H 0.67596 0.55077 0.95581 0.0
C779 C 0.63619 0.60502 0.83842 0.0
C780 C 0.66 0.63716 0.84175 0.0
C781 C 0.66982 0.6249 0.90887 0.0
C782 C 0.64207 0.59615 0.90643 0.0
N783 N 0.61342 0.54864 0.86747 0.0
N784 N 0.70112 0.67755 0.87911 0.0
C785 C 0.62945 0.58295 0.87074 0.0
C786 C 0.67775 0.64678 0.87662 0.0
N787 N 0.61916 0.5962 0.80467 0.0
N788 N 0.68949 0.62985 0.94156 0.0
H789 H 0.70834 0.69363 0.85583 0.0
H790 H 0.71211 0.68823 0.90433 0.0
H791 H 0.68552 0.61236 0.96452 0.0
H792 H 0.71163 0.64851 0.94467 0.0
H793 H 0.59872 0.57529 0.80153 0.0
H794 H 0.62401 0.61126 0.78011 0.0
H795 H 0.60562 0.53685 0.84192 0.0
H796 H 0.61274 0.53069 0.88992 0.0
C797 C 0.63399 0.62241 0.18527 0.0
C798 C 0.63235 0.6582 0.18291 0.0
C799 C 0.59224 0.64677 0.12813 0.0
C800 C 0.59437 0.61112 0.13013 0.0
N801 N 0.62373 0.56745 0.1535 0.0
N802 N 0.61683 0.70625 0.14682 0.0
C803 C 0.61739 0.59976 0.15649 0.0
C804 C 0.61373 0.67096 0.15251 0.0
N805 N 0.64998 0.6096 0.21587 0.0
N806 N 0.56843 0.65719 0.10463 0.0
H807 H 0.63247 0.72463 0.16411 0.0
H808 H 0.60642 0.71738 0.12311 0.0
H809 H 0.55223 0.64049 0.08621 0.0
H810 H 0.56312 0.68178 0.1053 0.0
H811 H 0.64874 0.58298 0.22115 0.0
H812 H 0.66247 0.62526 0.23757 0.0
H813 H 0.64224 0.55864 0.16988 0.0
H814 H 0.61268 0.55091 0.13187 0.0
C815 C 0.43534 0.59845 0.23664 0.0
C816 C 0.41662 0.6223 0.22083 0.0
C817 C 0.43173 0.61323 0.15821 0.0
C818 C 0.44956 0.58835 0.1738 0.0
N819 N 0.46166 0.55133 0.22668 0.0
N820 N 0.3904 0.64596 0.16624 0.0
C821 C 0.4492 0.57908 0.21266 0.0
C822 C 0.41261 0.62746 0.18144 0.0
N823 N 0.44136 0.59559 0.27462 0.0
N824 N 0.43488 0.62534 0.122 0.0
H825 H 0.37616 0.65679 0.18255 0.0
H826 H 0.38384 0.64766 0.13762 0.0
H827 H 0.44937 0.61674 0.10415 0.0
H828 H 0.42552 0.64633 0.11056 0.0
H829 H 0.45819 0.58203 0.28763 0.0
H830 H 0.43144 0.60895 0.29325 0.0
H831 H 0.45865 0.54076 0.25372 0.0
H832 H 0.47225 0.53659 0.21025 0.0
C833 C 0.61019 0.45836 0.17657 0.0
C834 C 0.62013 0.42966 0.16291 0.0
C835 C 0.59337 0.44027 0.10068 0.0
C836 C 0.57948 0.46556 0.11598 0.0
N837 N 0.57086 0.49479 0.17039 0.0
N838 N 0.62085 0.39197 0.11253 0.0
C839 C 0.58714 0.47381 0.15435 0.0
C840 C 0.61187 0.4204 0.12495 0.0
N841 N 0.6227 0.47081 0.21099 0.0
N842 N 0.58892 0.43538 0.06303 0.0
H843 H 0.63542 0.37791 0.12921 0.0
H844 H 0.61262 0.38125 0.08654 0.0
H845 H 0.57528 0.44932 0.04483 0.0
H846 H 0.60065 0.41956 0.04949 0.0
H847 H 0.6193 0.49414 0.22071 0.0
H848 H 0.63915 0.45969 0.22844 0.0
H849 H 0.57246 0.49848 0.19906 0.0
H850 H 0.55313 0.50575 0.15548 0.0
loop_
_geom_bond_atom_site_label_1
_geom_bond_atom_site_label_2
_geom_bond_distance
_geom_bond_site_symmetry_2
_ccdc_geom_bond_type
C0 C1 1.264 . S
C0 C5 1.479 . S
C0 C10 1.465 . S
C1 C0 1.264 . S
C1 C3 1.339 . S
C1 H28 0.931 . S
C2 C3 1.395 . S
C2 C4 1.320 . S
C3 C1 1.339 . S
C3 C2 1.395 . S
C3 H29 0.929 . S
C4 C2 1.320 . S
C4 C5 1.405 . S
C4 H30 0.930 . S
C5 C0 1.479 . S
C5 C4 1.405 . S
C5 H31 0.931 . S
U6 O7 2.454 . S
U6 O8 2.458 . S
U6 C9 2.984 . S
U6 C10 2.847 . S
U6 C23 2.882 . S
U6 O24 2.441 . S
U6 O25 2.420 . S
U6 O26 2.455 . S
U6 O27 2.449 . S
O7 U6 2.454 . S
O7 C9 1.353 . S
O8 U6 2.458 . S
O8 C9 1.286 . S
C9 U6 2.984 . S
C9 O7 1.353 . S
C9 O8 1.286 . S
C9 C11 1.363 . S
C10 C0 1.465 . S
C10 U6 2.847 . S
C10 O24 1.249 . S
C10 O25 1.202 . S
C11 C9 1.363 . S
C11 C13 1.408 . S
C11 C16 1.342 . S
C12 C13 1.310 . S
C12 C15 1.461 . S
C12 H32 0.932 . S
C13 C11 1.408 . S
C13 C12 1.310 . S
C13 H33 0.930 . S
C14 C15 1.474 . S
C14 C16 1.285 . S
C14 H34 0.929 . S
C15 C12 1.461 . S
C15 C14 1.474 . S
C16 C11 1.342 . S
C16 C14 1.285 . S
C16 H35 0.930 . S
C17 C20 1.424 . S
C17 C22 1.245 . S
C17 C23 1.428 . S
C18 C21 1.260 . S
C18 C22 1.477 . S
C18 H36 0.932 . S
C19 C20 1.384 . S
C19 C21 1.479 . S
C19 H37 0.929 . S
C20 C17 1.424 . S
C20 C19 1.384 . S
C20 H38 0.928 . S
C21 C18 1.260 . S
C21 C19 1.479 . S
C22 C17 1.245 . S
C22 C18 1.477 . S
C22 H39 0.932 . S
C23 U6 2.882 . S
C23 C17 1.428 . S
C23 O26 1.301 . S
C23 O27 1.282 . S
O24 U6 2.441 . S
O24 C10 1.249 . S
O25 U6 2.420 . S
O25 C10 1.202 . S
O26 U6 2.455 . S
O26 C23 1.301 . S
O27 U6 2.449 . S
O27 C23 1.282 . S
H28 C1 0.931 . S
H29 C3 0.929 . S
H30 C4 0.930 . S
H31 C5 0.931 . S
H32 C12 0.932 . S
H33 C13 0.930 . S
H34 C14 0.929 . S
H35 C16 0.930 . S
H36 C18 0.932 . S
H37 C19 0.929 . S
H38 C20 0.928 . S
H39 C22 0.932 . S
C40 C41 1.264 . S
C40 C45 1.479 . S
C40 C50 1.465 . S
C41 C40 1.264 . S
C41 C43 1.339 . S
C41 H68 0.931 . S
C42 C43 1.395 . S
C42 C44 1.320 . S
C43 C41 1.339 . S
C43 C42 1.395 . S
C43 H69 0.929 . S
C44 C42 1.320 . S
C44 C45 1.405 . S
C44 H70 0.930 . S
C45 C40 1.479 . S
C45 C44 1.405 . S
C45 H71 0.931 . S
U46 O47 2.454 . S
U46 O48 2.458 . S
U46 C49 2.984 . S
U46 C50 2.847 . S
U46 C63 2.882 . S
U46 O64 2.441 . S
U46 O65 2.420 . S
U46 O66 2.455 . S
U46 O67 2.449 . S
O47 U46 2.454 . S
O47 C49 1.353 . S
O48 U46 2.458 . S
O48 C49 1.286 . S
C49 U46 2.984 . S
C49 O47 1.353 . S
C49 O48 1.286 . S
C49 C51 1.363 . S
C50 C40 1.465 . S
C50 U46 2.847 . S
C50 O64 1.249 . S
C50 O65 1.202 . S
C51 C49 1.363 . S
C51 C53 1.408 . S
C51 C56 1.342 . S
C52 C53 1.310 . S
C52 C55 1.461 . S
C52 H72 0.932 . S
C53 C51 1.408 . S
C53 C52 1.310 . S
C53 H73 0.930 . S
C54 C55 1.474 . S
C54 C56 1.285 . S
C54 H74 0.929 . S
C55 C52 1.461 . S
C55 C54 1.474 . S
C56 C51 1.342 . S
C56 C54 1.285 . S
C56 H75 0.930 . S
C57 C60 1.424 . S
C57 C62 1.245 . S
C57 C63 1.428 . S
C58 C61 1.260 . S
C58 C62 1.477 . S
C58 H76 0.932 . S
C59 C60 1.384 . S
C59 C61 1.479 . S
C59 H77 0.929 . S
C60 C57 1.424 . S
C60 C59 1.384 . S
C60 H78 0.928 . S
C61 C58 1.260 . S
C61 C59 1.479 . S
C62 C57 1.245 . S
C62 C58 1.477 . S
C62 H79 0.932 . S
C63 U46 2.882 . S
C63 C57 1.428 . S
C63 O66 1.301 . S
C63 O67 1.282 . S
O64 U46 2.441 . S
O64 C50 1.249 . S
O65 U46 2.420 . S
O65 C50 1.202 . S
O66 U46 2.455 . S
O66 C63 1.301 . S
O67 U46 2.449 . S
O67 C63 1.282 . S
H68 C41 0.931 . S
H69 C43 0.929 . S
H70 C44 0.930 . S
H71 C45 0.931 . S
H72 C52 0.932 . S
H73 C53 0.930 . S
H74 C54 0.929 . S
H75 C56 0.930 . S
H76 C58 0.932 . S
H77 C59 0.929 . S
H78 C60 0.928 . S
H79 C62 0.932 . S
C80 C81 1.264 . S
C80 C85 1.479 . S
C80 C90 1.465 . S
C81 C80 1.264 . S
C81 C83 1.339 . S
C81 H108 0.931 . S
C82 C83 1.395 . S
C82 C84 1.320 . S
C83 C81 1.339 . S
C83 C82 1.395 . S
C83 H109 0.929 . S
C84 C82 1.320 . S
C84 C85 1.405 . S
C84 H110 0.930 . S
C85 C80 1.479 . S
C85 C84 1.405 . S
C85 H111 0.931 . S
U86 O87 2.454 . S
U86 O88 2.458 . S
U86 C89 2.984 . S
U86 C90 2.847 . S
U86 C103 2.882 . S
U86 O104 2.441 . S
U86 O105 2.420 . S
U86 O106 2.455 . S
U86 O107 2.449 . S
O87 U86 2.454 . S
O87 C89 1.353 . S
O88 U86 2.458 . S
O88 C89 1.286 . S
C89 U86 2.984 . S
C89 O87 1.353 . S
C89 O88 1.286 . S
C89 C91 1.363 . S
C90 C80 1.465 . S
C90 U86 2.847 . S
C90 O104 1.249 . S
C90 O105 1.202 . S
C91 C89 1.363 . S
C91 C93 1.408 . S
C91 C96 1.342 . S
C92 C93 1.310 . S
C92 C95 1.461 . S
C92 H112 0.932 . S
C93 C91 1.408 . S
C93 C92 1.310 . S
C93 H113 0.930 . S
C94 C95 1.474 . S
C94 C96 1.285 . S
C94 H114 0.929 . S
C95 C92 1.461 . S
C95 C94 1.474 . S
C96 C91 1.342 . S
C96 C94 1.285 . S
C96 H115 0.930 . S
C97 C100 1.424 . S
C97 C102 1.245 . S
C97 C103 1.428 . S
C98 C101 1.260 . S
C98 C102 1.477 . S
C98 H116 0.932 . S
C99 C100 1.384 . S
C99 C101 1.479 . S
C99 H117 0.929 . S
C100 C97 1.424 . S
C100 C99 1.384 . S
C100 H118 0.928 . S
C101 C98 1.260 . S
C101 C99 1.479 . S
C102 C97 1.245 . S
C102 C98 1.477 . S
C102 H119 0.932 . S
C103 U86 2.882 . S
C103 C97 1.428 . S
C103 O106 1.301 . S
C103 O107 1.282 . S
O104 U86 2.441 . S
O104 C90 1.249 . S
O105 U86 2.420 . S
O105 C90 1.202 . S
O106 U86 2.455 . S
O106 C103 1.301 . S
O107 U86 2.449 . S
O107 C103 1.282 . S
H108 C81 0.931 . S
H109 C83 0.929 . S
H110 C84 0.930 . S
H111 C85 0.931 . S
H112 C92 0.932 . S
H113 C93 0.930 . S
H114 C94 0.929 . S
H115 C96 0.930 . S
H116 C98 0.932 . S
H117 C99 0.929 . S
H118 C100 0.928 . S
H119 C102 0.932 . S
C120 C121 1.264 . S
C120 C125 1.479 . S
C120 C130 1.465 . S
C121 C120 1.264 . S
C121 C123 1.339 . S
C121 H148 0.931 . S
C122 C123 1.395 . S
C122 C124 1.320 . S
C123 C121 1.339 . S
C123 C122 1.395 . S
C123 H149 0.929 . S
C124 C122 1.320 . S
C124 C125 1.405 . S
C124 H150 0.930 . S
C125 C120 1.479 . S
C125 C124 1.405 . S
C125 H151 0.931 . S
U126 O127 2.454 . S
U126 O128 2.458 . S
U126 C129 2.984 . S
U126 C130 2.847 . S
U126 C143 2.882 . S
U126 O144 2.441 . S
U126 O145 2.420 . S
U126 O146 2.455 . S
U126 O147 2.449 . S
O127 U126 2.454 . S
O127 C129 1.353 . S
O128 U126 2.458 . S
O128 C129 1.286 . S
C129 U126 2.984 . S
C129 O127 1.353 . S
C129 O128 1.286 . S
C129 C131 1.363 . S
C130 C120 1.465 . S
C130 U126 2.847 . S
C130 O144 1.249 . S
C130 O145 1.202 . S
C131 C129 1.363 . S
C131 C133 1.408 . S
C131 C136 1.342 . S
C132 C133 1.310 . S
C132 C135 1.461 . S
C132 H152 0.932 . S
C133 C131 1.408 . S
C133 C132 1.310 . S
C133 H153 0.930 . S
C134 C135 1.474 . S
C134 C136 1.285 . S
C134 H154 0.929 . S
C135 C132 1.461 . S
C135 C134 1.474 . S
C136 C131 1.342 . S
C136 C134 1.285 . S
C136 H155 0.930 . S
C137 C140 1.424 . S
C137 C142 1.245 . S
C137 C143 1.428 . S
C138 C141 1.260 . S
C138 C142 1.477 . S
C138 H156 0.932 . S
C139 C140 1.384 . S
C139 C141 1.479 . S
C139 H157 0.929 . S
C140 C137 1.424 . S
C140 C139 1.384 . S
C140 H158 0.928 . S
C141 C138 1.260 . S
C141 C139 1.479 . S
C142 C137 1.245 . S
C142 C138 1.477 . S
C142 H159 0.932 . S
C143 U126 2.882 . S
C143 C137 1.428 . S
C143 O146 1.301 . S
C143 O147 1.282 . S
O144 U126 2.441 . S
O144 C130 1.249 . S
O145 U126 2.420 . S
O145 C130 1.202 . S
O146 U126 2.455 . S
O146 C143 1.301 . S
O147 U126 2.449 . S
O147 C143 1.282 . S
H148 C121 0.931 . S
H149 C123 0.929 . S
H150 C124 0.930 . S
H151 C125 0.931 . S
H152 C132 0.932 . S
H153 C133 0.930 . S
H154 C134 0.929 . S
H155 C136 0.930 . S
H156 C138 0.932 . S
H157 C139 0.929 . S
H158 C140 0.928 . S
H159 C142 0.932 . S
C160 C161 1.264 . S
C160 C165 1.479 . S
C160 C170 1.465 . S
C161 C160 1.264 . S
C161 C163 1.339 . S
C161 H188 0.931 . S
C162 C163 1.395 . S
C162 C164 1.320 . S
C163 C161 1.339 . S
C163 C162 1.395 . S
C163 H189 0.929 . S
C164 C162 1.320 . S
C164 C165 1.405 . S
C164 H190 0.930 . S
C165 C160 1.479 . S
C165 C164 1.405 . S
C165 H191 0.931 . S
U166 O167 2.454 . S
U166 O168 2.458 . S
U166 C169 2.984 . S
U166 C170 2.847 . S
U166 C183 2.882 . S
U166 O184 2.441 . S
U166 O185 2.420 . S
U166 O186 2.455 . S
U166 O187 2.449 . S
O167 U166 2.454 . S
O167 C169 1.353 . S
O168 U166 2.458 . S
O168 C169 1.286 . S
C169 U166 2.984 . S
C169 O167 1.353 . S
C169 O168 1.286 . S
C169 C171 1.363 . S
C170 C160 1.465 . S
C170 U166 2.847 . S
C170 O184 1.249 . S
C170 O185 1.202 . S
C171 C169 1.363 . S
C171 C173 1.408 . S
C171 C176 1.342 . S
C172 C173 1.310 . S
C172 C175 1.461 . S
C172 H192 0.932 . S
C173 C171 1.408 . S
C173 C172 1.310 . S
C173 H193 0.930 . S
C174 C175 1.474 . S
C174 C176 1.285 . S
C174 H194 0.929 . S
C175 C172 1.461 . S
C175 C174 1.474 . S
C176 C171 1.342 . S
C176 C174 1.285 . S
C176 H195 0.930 . S
C177 C180 1.424 . S
C177 C182 1.245 . S
C177 C183 1.428 . S
C178 C181 1.260 . S
C178 C182 1.477 . S
C178 H196 0.932 . S
C179 C180 1.384 . S
C179 C181 1.479 . S
C179 H197 0.929 . S
C180 C177 1.424 . S
C180 C179 1.384 . S
C180 H198 0.928 . S
C181 C178 1.260 . S
C181 C179 1.479 . S
C182 C177 1.245 . S
C182 C178 1.477 . S
C182 H199 0.932 . S
C183 U166 2.882 . S
C183 C177 1.428 . S
C183 O186 1.301 . S
C183 O187 1.282 . S
O184 U166 2.441 . S
O184 C170 1.249 . S
O185 U166 2.420 . S
O185 C170 1.202 . S
O186 U166 2.455 . S
O186 C183 1.301 . S
O187 U166 2.449 . S
O187 C183 1.282 . S
H188 C161 0.931 . S
H189 C163 0.929 . S
H190 C164 0.930 . S
H191 C165 0.931 . S
H192 C172 0.932 . S
H193 C173 0.930 . S
H194 C174 0.929 . S
H195 C176 0.930 . S
H196 C178 0.932 . S
H197 C179 0.929 . S
H198 C180 0.928 . S
H199 C182 0.932 . S
C200 C201 1.264 . S
C200 C205 1.479 . S
C200 C210 1.465 . S
C201 C200 1.264 . S
C201 C203 1.339 . S
C201 H228 0.931 . S
C202 C203 1.395 . S
C202 C204 1.320 . S
C203 C201 1.339 . S
C203 C202 1.395 . S
C203 H229 0.929 . S
C204 C202 1.320 . S
C204 C205 1.405 . S
C204 H230 0.930 . S
C205 C200 1.479 . S
C205 C204 1.405 . S
C205 H231 0.931 . S
U206 O207 2.454 . S
U206 O208 2.458 . S
U206 C209 2.984 . S
U206 C210 2.847 . S
U206 C223 2.882 . S
U206 O224 2.441 . S
U206 O225 2.420 . S
U206 O226 2.455 . S
U206 O227 2.449 . S
O207 U206 2.454 . S
O207 C209 1.353 . S
O208 U206 2.458 . S
O208 C209 1.286 . S
C209 U206 2.984 . S
C209 O207 1.353 . S
C209 O208 1.286 . S
C209 C211 1.363 . S
C210 C200 1.465 . S
C210 U206 2.847 . S
C210 O224 1.249 . S
C210 O225 1.202 . S
C211 C209 1.363 . S
C211 C213 1.408 . S
C211 C216 1.342 . S
C212 C213 1.310 . S
C212 C215 1.461 . S
C212 H232 0.932 . S
C213 C211 1.408 . S
C213 C212 1.310 . S
C213 H233 0.930 . S
C214 C215 1.474 . S
C214 C216 1.285 . S
C214 H234 0.929 . S
C215 C212 1.461 . S
C215 C214 1.474 . S
C216 C211 1.342 . S
C216 C214 1.285 . S
C216 H235 0.930 . S
C217 C220 1.424 . S
C217 C222 1.245 . S
C217 C223 1.428 . S
C218 C221 1.260 . S
C218 C222 1.477 . S
C218 H236 0.932 . S
C219 C220 1.384 . S
C219 C221 1.479 . S
C219 H237 0.929 . S
C220 C217 1.424 . S
C220 C219 1.384 . S
C220 H238 0.928 . S
C221 C218 1.260 . S
C221 C219 1.479 . S
C222 C217 1.245 . S
C222 C218 1.477 . S
C222 H239 0.932 . S
C223 U206 2.882 . S
C223 C217 1.428 . S
C223 O226 1.301 . S
C223 O227 1.282 . S
O224 U206 2.441 . S
O224 C210 1.249 . S
O225 U206 2.420 . S
O225 C210 1.202 . S
O226 U206 2.455 . S
O226 C223 1.301 . S
O227 U206 2.449 . S
O227 C223 1.282 . S
H228 C201 0.931 . S
H229 C203 0.929 . S
H230 C204 0.930 . S
H231 C205 0.931 . S
H232 C212 0.932 . S
H233 C213 0.930 . S
H234 C214 0.929 . S
H235 C216 0.930 . S
H236 C218 0.932 . S
H237 C219 0.929 . S
H238 C220 0.928 . S
H239 C222 0.932 . S
C240 C241 1.264 . S
C240 C245 1.479 . S
C240 C250 1.465 . S
C241 C240 1.264 . S
C241 C243 1.339 . S
C241 H268 0.931 . S
C242 C243 1.395 . S
C242 C244 1.320 . S
C243 C241 1.339 . S
C243 C242 1.395 . S
C243 H269 0.929 . S
C244 C242 1.320 . S
C244 C245 1.405 . S
C244 H270 0.930 . S
C245 C240 1.479 . S
C245 C244 1.405 . S
C245 H271 0.931 . S
U246 O247 2.454 . S
U246 O248 2.458 . S
U246 C249 2.984 . S
U246 C250 2.847 . S
U246 C263 2.882 . S
U246 O264 2.441 . S
U246 O265 2.420 . S
U246 O266 2.455 . S
U246 O267 2.449 . S
O247 U246 2.454 . S
O247 C249 1.353 . S
O248 U246 2.458 . S
O248 C249 1.286 . S
C249 U246 2.984 . S
C249 O247 1.353 . S
C249 O248 1.286 . S
C249 C251 1.363 . S
C250 C240 1.465 . S
C250 U246 2.847 . S
C250 O264 1.249 . S
C250 O265 1.202 . S
C251 C249 1.363 . S
C251 C253 1.408 . S
C251 C256 1.342 . S
C252 C253 1.310 . S
C252 C255 1.461 . S
C252 H272 0.932 . S
C253 C251 1.408 . S
C253 C252 1.310 . S
C253 H273 0.930 . S
C254 C255 1.474 . S
C254 C256 1.285 . S
C254 H274 0.929 . S
C255 C252 1.461 . S
C255 C254 1.474 . S
C256 C251 1.342 . S
C256 C254 1.285 . S
C256 H275 0.930 . S
C257 C260 1.424 . S
C257 C262 1.245 . S
C257 C263 1.428 . S
C258 C261 1.260 . S
C258 C262 1.477 . S
C258 H276 0.932 . S
C259 C260 1.384 . S
C259 C261 1.479 . S
C259 H277 0.929 . S
C260 C257 1.424 . S
C260 C259 1.384 . S
C260 H278 0.928 . S
C261 C258 1.260 . S
C261 C259 1.479 . S
C262 C257 1.245 . S
C262 C258 1.477 . S
C262 H279 0.932 . S
C263 U246 2.882 . S
C263 C257 1.428 . S
C263 O266 1.301 . S
C263 O267 1.282 . S
O264 U246 2.441 . S
O264 C250 1.249 . S
O265 U246 2.420 . S
O265 C250 1.202 . S
O266 U246 2.455 . S
O266 C263 1.301 . S
O267 U246 2.449 . S
O267 C263 1.282 . S
H268 C241 0.931 . S
H269 C243 0.929 . S
H270 C244 0.930 . S
H271 C245 0.931 . S
H272 C252 0.932 . S
H273 C253 0.930 . S
H274 C254 0.929 . S
H275 C256 0.930 . S
H276 C258 0.932 . S
H277 C259 0.929 . S
H278 C260 0.928 . S
H279 C262 0.932 . S
C280 C281 1.264 . S
C280 C285 1.479 . S
C280 C290 1.465 . S
C281 C280 1.264 . S
C281 C283 1.339 . S
C281 H308 0.931 . S
C282 C283 1.395 . S
C282 C284 1.320 . S
C283 C281 1.339 . S
C283 C282 1.395 . S
C283 H309 0.929 . S
C284 C282 1.320 . S
C284 C285 1.405 . S
C284 H310 0.930 . S
C285 C280 1.479 . S
C285 C284 1.405 . S
C285 H311 0.931 . S
U286 O287 2.454 . S
U286 O288 2.458 . S
U286 C289 2.984 . S
U286 C290 2.847 . S
U286 C303 2.882 . S
U286 O304 2.441 . S
U286 O305 2.420 . S
U286 O306 2.455 . S
U286 O307 2.449 . S
O287 U286 2.454 . S
O287 C289 1.353 . S
O288 U286 2.458 . S
O288 C289 1.286 . S
C289 U286 2.984 . S
C289 O287 1.353 . S
C289 O288 1.286 . S
C289 C291 1.363 . S
C290 C280 1.465 . S
C290 U286 2.847 . S
C290 O304 1.249 . S
C290 O305 1.202 . S
C291 C289 1.363 . S
C291 C293 1.408 . S
C291 C296 1.342 . S
C292 C293 1.310 . S
C292 C295 1.461 . S
C292 H312 0.932 . S
C293 C291 1.408 . S
C293 C292 1.310 . S
C293 H313 0.930 . S
C294 C295 1.474 . S
C294 C296 1.285 . S
C294 H314 0.929 . S
C295 C292 1.461 . S
C295 C294 1.474 . S
C296 C291 1.342 . S
C296 C294 1.285 . S
C296 H315 0.930 . S
C297 C300 1.424 . S
C297 C302 1.245 . S
C297 C303 1.428 . S
C298 C301 1.260 . S
C298 C302 1.477 . S
C298 H316 0.932 . S
C299 C300 1.384 . S
C299 C301 1.479 . S
C299 H317 0.929 . S
C300 C297 1.424 . S
C300 C299 1.384 . S
C300 H318 0.928 . S
C301 C298 1.260 . S
C301 C299 1.479 . S
C302 C297 1.245 . S
C302 C298 1.477 . S
C302 H319 0.932 . S
C303 U286 2.882 . S
C303 C297 1.428 . S
C303 O306 1.301 . S
C303 O307 1.282 . S
O304 U286 2.441 . S
O304 C290 1.249 . S
O305 U286 2.420 . S
O305 C290 1.202 . S
O306 U286 2.455 . S
O306 C303 1.301 . S
O307 U286 2.449 . S
O307 C303 1.282 . S
H308 C281 0.931 . S
H309 C283 0.929 . S
H310 C284 0.930 . S
H311 C285 0.931 . S
H312 C292 0.932 . S
H313 C293 0.930 . S
H314 C294 0.929 . S
H315 C296 0.930 . S
H316 C298 0.932 . S
H317 C299 0.929 . S
H318 C300 0.928 . S
H319 C302 0.932 . S
Co320 O323 2.042 . S
Co320 O330 2.264 . S
Co320 O349 2.286 . S
Co320 O350 2.069 . S
Co320 O352 2.015 . S
Co321 O323 2.122 . S
Co321 O329 2.073 . S
Co321 O330 2.327 . S
Co321 O331 1.976 . S
Co322 O323 2.087 . S
Co322 O325 2.087 1_455 S
Co322 O332 2.111 . S
Co322 O333 2.143 1_455 S
Co322 O337 2.111 1_455 S
Co322 O351 2.143 . S
O323 Co320 2.042 . S
O323 Co321 2.122 . S
O323 Co322 2.087 . S
O323 H324 0.980 . S
H324 O323 0.980 . S
O325 Co322 2.087 1_655 S
O325 Co326 2.042 . S
O325 Co327 2.122 . S
O325 H328 0.980 . S
Co326 O325 2.042 . S
Co326 O334 2.286 . S
Co326 O335 2.069 . S
Co326 O336 2.015 . S
Co326 O339 2.264 . S
Co327 O325 2.122 . S
Co327 O338 1.976 . S
Co327 O339 2.327 . S
Co327 O340 2.073 . S
H328 O325 0.980 . S
O329 Co321 2.073 . S
O329 C344 1.245 . S
O330 Co320 2.264 . S
O330 Co321 2.327 . S
O330 C344 1.257 . S
O331 Co321 1.976 . S
O331 C343 1.251 . S
O332 Co322 2.111 . S
O332 C343 1.274 . S
O333 Co322 2.143 1_655 S
O333 C346 1.246 . S
O334 Co326 2.286 . S
O334 C345 1.259 . S
O335 Co326 2.069 . S
O335 C345 1.289 . S
O336 Co326 2.015 . S
O336 C346 1.257 . S
O337 Co322 2.111 1_655 S
O337 C347 1.274 . S
O338 Co327 1.976 . S
O338 C347 1.251 . S
O339 Co326 2.264 . S
O339 Co327 2.327 . S
O339 C348 1.257 . S
O340 Co327 2.073 . S
O340 C348 1.245 . S
C341 O349 1.259 . S
C341 O350 1.289 . S
C342 O351 1.246 . S
C342 O352 1.257 . S
C343 O331 1.251 . S
C343 O332 1.274 . S
C344 O329 1.245 . S
C344 O330 1.257 . S
C345 O334 1.259 . S
C345 O335 1.289 . S
C346 O333 1.246 . S
C346 O336 1.257 . S
C347 O337 1.274 . S
C347 O338 1.251 . S
C348 O339 1.257 . S
C348 O340 1.245 . S
O349 Co320 2.286 . S
O349 C341 1.259 . S
O350 Co320 2.069 . S
O350 C341 1.289 . S
O351 Co322 2.143 . S
O351 C342 1.246 . S
O352 Co320 2.015 . S
O352 C342 1.257 . S
Co353 O356 2.042 . S
Co353 O363 2.264 . S
Co353 O382 2.286 . S
Co353 O383 2.069 . S
Co353 O385 2.015 . S
Co354 O356 2.122 . S
Co354 O362 2.073 . S
Co354 O363 2.327 . S
Co354 O364 1.976 . S
Co355 O356 2.087 1_545 S
Co355 O358 2.087 . S
Co355 O365 2.111 1_545 S
Co355 O366 2.143 . S
Co355 O370 2.111 . S
Co355 O384 2.143 1_545 S
O356 Co353 2.042 . S
O356 Co354 2.122 . S
O356 Co355 2.087 1_565 S
O356 H357 0.980 . S
H357 O356 0.980 . S
O358 Co355 2.087 . S
O358 Co359 2.042 . S
O358 Co360 2.122 . S
O358 H361 0.980 . S
Co359 O358 2.042 . S
Co359 O367 2.286 . S
Co359 O368 2.069 . S
Co359 O369 2.015 . S
Co359 O372 2.264 . S
Co360 O358 2.122 . S
Co360 O371 1.976 . S
Co360 O372 2.327 . S
Co360 O373 2.073 . S
H361 O358 0.980 . S
O362 Co354 2.073 . S
O362 C377 1.245 . S
O363 Co353 2.264 . S
O363 Co354 2.327 . S
O363 C377 1.257 . S
O364 Co354 1.976 . S
O364 C376 1.251 . S
O365 Co355 2.111 1_565 S
O365 C376 1.274 . S
O366 Co355 2.143 . S
O366 C379 1.246 . S
O367 Co359 2.286 . S
O367 C378 1.259 . S
O368 Co359 2.069 . S
O368 C378 1.289 . S
O369 Co359 2.015 . S
O369 C379 1.257 . S
O370 Co355 2.111 . S
O370 C380 1.274 . S
O371 Co360 1.976 . S
O371 C380 1.251 . S
O372 Co359 2.264 . S
O372 Co360 2.327 . S
O372 C381 1.257 . S
O373 Co360 2.073 . S
O373 C381 1.245 . S
C374 O382 1.259 . S
C374 O383 1.289 . S
C375 O384 1.246 . S
C375 O385 1.257 . S
C376 O364 1.251 . S
C376 O365 1.274 . S
C377 O362 1.245 . S
C377 O363 1.257 . S
C378 O367 1.259 . S
C378 O368 1.289 . S
C379 O366 1.246 . S
C379 O369 1.257 . S
C380 O370 1.274 . S
C380 O371 1.251 . S
C381 O372 1.257 . S
C381 O373 1.245 . S
O382 Co353 2.286 . S
O382 C374 1.259 . S
O383 Co353 2.069 . S
O383 C374 1.289 . S
O384 Co355 2.143 1_565 S
O384 C375 1.246 . S
O385 Co353 2.015 . S
O385 C375 1.257 . S
Co386 O389 2.042 . S
Co386 O396 2.264 . S
Co386 O415 2.286 . S
Co386 O416 2.069 . S
Co386 O418 2.015 . S
Co387 O389 2.122 . S
Co387 O395 2.073 . S
Co387 O396 2.327 . S
Co387 O397 1.976 . S
Co388 O389 2.087 . S
Co388 O391 2.087 1_554 S
Co388 O398 2.111 . S
Co388 O399 2.143 1_554 S
Co388 O403 2.111 1_554 S
Co388 O417 2.143 . S
O389 Co386 2.042 . S
O389 Co387 2.122 . S
O389 Co388 2.087 . S
O389 H390 0.980 . S
H390 O389 0.980 . S
O391 Co388 2.087 1_556 S
O391 Co392 2.042 . S
O391 Co393 2.122 . S
O391 H394 0.980 . S
Co392 O391 2.042 . S
Co392 O400 2.286 . S
Co392 O401 2.069 . S
Co392 O402 2.015 . S
Co392 O405 2.264 . S
Co393 O391 2.122 . S
Co393 O404 1.976 . S
Co393 O405 2.327 . S
Co393 O406 2.073 . S
H394 O391 0.980 . S
O395 Co387 2.073 . S
O395 C410 1.245 . S
O396 Co386 2.264 . S
O396 Co387 2.327 . S
O396 C410 1.257 . S
O397 Co387 1.976 . S
O397 C409 1.251 . S
O398 Co388 2.111 . S
O398 C409 1.274 . S
O399 Co388 2.143 1_556 S
O399 C412 1.246 . S
O400 Co392 2.286 . S
O400 C411 1.259 . S
O401 Co392 2.069 . S
O401 C411 1.289 . S
O402 Co392 2.015 . S
O402 C412 1.257 . S
O403 Co388 2.111 1_556 S
O403 C413 1.274 . S
O404 Co393 1.976 . S
O404 C413 1.251 . S
O405 Co392 2.264 . S
O405 Co393 2.327 . S
O405 C414 1.257 . S
O406 Co393 2.073 . S
O406 C414 1.245 . S
C407 O415 1.259 . S
C407 O416 1.289 . S
C408 O417 1.246 . S
C408 O418 1.257 . S
C409 O397 1.251 . S
C409 O398 1.274 . S
C410 O395 1.245 . S
C410 O396 1.257 . S
C411 O400 1.259 . S
C411 O401 1.289 . S
C412 O399 1.246 . S
C412 O402 1.257 . S
C413 O403 1.274 . S
C413 O404 1.251 . S
C414 O405 1.257 . S
C414 O406 1.245 . S
O415 Co386 2.286 . S
O415 C407 1.259 . S
O416 Co386 2.069 . S
O416 C407 1.289 . S
O417 Co388 2.143 . S
O417 C408 1.246 . S
O418 Co386 2.015 . S
O418 C408 1.257 . S
C419 C420 1.363 . S
C419 C425 1.379 . S
C419 N427 1.356 . S
C420 C419 1.363 . S
C420 C426 1.363 . S
C421 C422 1.363 . S
C421 C426 1.379 . S
C421 N428 1.356 . S
C422 C421 1.363 . S
C422 C425 1.363 . S
N423 C425 1.356 . S
N423 H435 0.984 . S
N423 H436 0.985 . S
N424 C426 1.356 . S
N424 H429 0.984 . S
N424 H430 0.985 . S
C425 C419 1.379 . S
C425 C422 1.363 . S
C425 N423 1.356 . S
C426 C420 1.363 . S
C426 C421 1.379 . S
C426 N424 1.356 . S
N427 C419 1.356 . S
N427 H433 0.984 . S
N427 H434 0.984 . S
N428 C421 1.356 . S
N428 H431 0.984 . S
N428 H432 0.985 . S
H429 N424 0.984 . S
H430 N424 0.985 . S
H431 N428 0.984 . S
H432 N428 0.985 . S
H433 N427 0.984 . S
H434 N427 0.984 . S
H435 N423 0.984 . S
H436 N423 0.985 . S
C437 C438 1.363 . S
C437 C443 1.379 . S
C437 N445 1.356 . S
C438 C437 1.363 . S
C438 C444 1.363 . S
C439 C440 1.363 . S
C439 C444 1.379 . S
C439 N446 1.356 . S
C440 C439 1.363 . S
C440 C443 1.363 . S
N441 C443 1.356 . S
N441 H453 0.984 . S
N441 H454 0.985 . S
N442 C444 1.356 . S
N442 H447 0.984 . S
N442 H448 0.985 . S
C443 C437 1.379 . S
C443 C440 1.363 . S
C443 N441 1.356 . S
C444 C438 1.363 . S
C444 C439 1.379 . S
C444 N442 1.356 . S
N445 C437 1.356 . S
N445 H451 0.984 . S
N445 H452 0.984 . S
N446 C439 1.356 . S
N446 H449 0.984 . S
N446 H450 0.985 . S
H447 N442 0.984 . S
H448 N442 0.985 . S
H449 N446 0.984 . S
H450 N446 0.985 . S
H451 N445 0.984 . S
H452 N445 0.984 . S
H453 N441 0.984 . S
H454 N441 0.985 . S
C455 C456 1.363 . S
C455 C461 1.379 . S
C455 N463 1.356 . S
C456 C455 1.363 . S
C456 C462 1.363 . S
C457 C458 1.363 . S
C457 C462 1.379 . S
C457 N464 1.356 . S
C458 C457 1.363 . S
C458 C461 1.363 . S
N459 C461 1.356 . S
N459 H471 0.984 . S
N459 H472 0.985 . S
N460 C462 1.356 . S
N460 H465 0.984 . S
N460 H466 0.985 . S
C461 C455 1.379 . S
C461 C458 1.363 . S
C461 N459 1.356 . S
C462 C456 1.363 . S
C462 C457 1.379 . S
C462 N460 1.356 . S
N463 C455 1.356 . S
N463 H469 0.984 . S
N463 H470 0.984 . S
N464 C457 1.356 . S
N464 H467 0.984 . S
N464 H468 0.985 . S
H465 N460 0.984 . S
H466 N460 0.985 . S
H467 N464 0.984 . S
H468 N464 0.985 . S
H469 N463 0.984 . S
H470 N463 0.984 . S
H471 N459 0.984 . S
H472 N459 0.985 . S
C473 C474 1.363 . S
C473 C479 1.379 . S
C473 N481 1.356 . S
C474 C473 1.363 . S
C474 C480 1.363 . S
C475 C476 1.363 . S
C475 C480 1.379 . S
C475 N482 1.356 . S
C476 C475 1.363 . S
C476 C479 1.363 . S
N477 C479 1.356 . S
N477 H489 0.984 . S
N477 H490 0.985 . S
N478 C480 1.356 . S
N478 H483 0.984 . S
N478 H484 0.985 . S
C479 C473 1.379 . S
C479 C476 1.363 . S
C479 N477 1.356 . S
C480 C474 1.363 . S
C480 C475 1.379 . S
C480 N478 1.356 . S
N481 C473 1.356 . S
N481 H487 0.984 . S
N481 H488 0.984 . S
N482 C475 1.356 . S
N482 H485 0.984 . S
N482 H486 0.985 . S
H483 N478 0.984 . S
H484 N478 0.985 . S
H485 N482 0.984 . S
H486 N482 0.985 . S
H487 N481 0.984 . S
H488 N481 0.984 . S
H489 N477 0.984 . S
H490 N477 0.985 . S
C491 C492 1.363 . S
C491 C497 1.379 . S
C491 N499 1.356 . S
C492 C491 1.363 . S
C492 C498 1.363 . S
C493 C494 1.363 . S
C493 C498 1.379 . S
C493 N500 1.356 . S
C494 C493 1.363 . S
C494 C497 1.363 . S
N495 C497 1.356 . S
N495 H507 0.984 . S
N495 H508 0.985 . S
N496 C498 1.356 . S
N496 H501 0.984 . S
N496 H502 0.985 . S
C497 C491 1.379 . S
C497 C494 1.363 . S
C497 N495 1.356 . S
C498 C492 1.363 . S
C498 C493 1.379 . S
C498 N496 1.356 . S
N499 C491 1.356 . S
N499 H505 0.984 . S
N499 H506 0.984 . S
N500 C493 1.356 . S
N500 H503 0.984 . S
N500 H504 0.985 . S
H501 N496 0.984 . S
H502 N496 0.985 . S
H503 N500 0.984 . S
H504 N500 0.985 . S
H505 N499 0.984 . S
H506 N499 0.984 . S
H507 N495 0.984 . S
H508 N495 0.985 . S
C509 C510 1.363 . S
C509 C515 1.379 . S
C509 N517 1.356 . S
C510 C509 1.363 . S
C510 C516 1.363 . S
C511 C512 1.363 . S
C511 C516 1.379 . S
C511 N518 1.356 . S
C512 C511 1.363 . S
C512 C515 1.363 . S
N513 C515 1.356 . S
N513 H525 0.984 . S
N513 H526 0.985 . S
N514 C516 1.356 . S
N514 H519 0.984 . S
N514 H520 0.985 . S
C515 C509 1.379 . S
C515 C512 1.363 . S
C515 N513 1.356 . S
C516 C510 1.363 . S
C516 C511 1.379 . S
C516 N514 1.356 . S
N517 C509 1.356 . S
N517 H523 0.984 . S
N517 H524 0.984 . S
N518 C511 1.356 . S
N518 H521 0.984 . S
N518 H522 0.985 . S
H519 N514 0.984 . S
H520 N514 0.985 . S
H521 N518 0.984 . S
H522 N518 0.985 . S
H523 N517 0.984 . S
H524 N517 0.984 . S
H525 N513 0.984 . S
H526 N513 0.985 . S
C527 C528 1.363 . S
C527 C533 1.379 . S
C527 N535 1.356 . S
C528 C527 1.363 . S
C528 C534 1.363 . S
C529 C530 1.363 . S
C529 C534 1.379 . S
C529 N536 1.356 . S
C530 C529 1.363 . S
C530 C533 1.363 . S
N531 C533 1.356 . S
N531 H543 0.984 . S
N531 H544 0.985 . S
N532 C534 1.356 . S
N532 H537 0.984 . S
N532 H538 0.985 . S
C533 C527 1.379 . S
C533 C530 1.363 . S
C533 N531 1.356 . S
C534 C528 1.363 . S
C534 C529 1.379 . S
C534 N532 1.356 . S
N535 C527 1.356 . S
N535 H541 0.984 . S
N535 H542 0.984 . S
N536 C529 1.356 . S
N536 H539 0.984 . S
N536 H540 0.985 . S
H537 N532 0.984 . S
H538 N532 0.985 . S
H539 N536 0.984 . S
H540 N536 0.985 . S
H541 N535 0.984 . S
H542 N535 0.984 . S
H543 N531 0.984 . S
H544 N531 0.985 . S
C545 C546 1.363 . S
C545 C551 1.379 . S
C545 N553 1.356 . S
C546 C545 1.363 . S
C546 C552 1.363 . S
C547 C548 1.363 . S
C547 C552 1.379 . S
C547 N554 1.356 . S
C548 C547 1.363 . S
C548 C551 1.363 . S
N549 C551 1.356 . S
N549 H561 0.984 . S
N549 H562 0.985 . S
N550 C552 1.356 . S
N550 H555 0.984 . S
N550 H556 0.985 . S
C551 C545 1.379 . S
C551 C548 1.363 . S
C551 N549 1.356 . S
C552 C546 1.363 . S
C552 C547 1.379 . S
C552 N550 1.356 . S
N553 C545 1.356 . S
N553 H559 0.984 . S
N553 H560 0.984 . S
N554 C547 1.356 . S
N554 H557 0.984 . S
N554 H558 0.985 . S
H555 N550 0.984 . S
H556 N550 0.985 . S
H557 N554 0.984 . S
H558 N554 0.985 . S
H559 N553 0.984 . S
H560 N553 0.984 . S
H561 N549 0.984 . S
H562 N549 0.985 . S
C563 C564 1.363 . S
C563 C569 1.379 . S
C563 N571 1.356 . S
C564 C563 1.363 . S
C564 C570 1.363 . S
C565 C566 1.363 . S
C565 C570 1.379 . S
C565 N572 1.356 . S
C566 C565 1.363 . S
C566 C569 1.363 . S
N567 C569 1.356 . S
N567 H579 0.984 . S
N567 H580 0.985 . S
N568 C570 1.356 . S
N568 H573 0.984 . S
N568 H574 0.985 . S
C569 C563 1.379 . S
C569 C566 1.363 . S
C569 N567 1.356 . S
C570 C564 1.363 . S
C570 C565 1.379 . S
C570 N568 1.356 . S
N571 C563 1.356 . S
N571 H577 0.984 . S
N571 H578 0.984 . S
N572 C565 1.356 . S
N572 H575 0.984 . S
N572 H576 0.985 . S
H573 N568 0.984 . S
H574 N568 0.985 . S
H575 N572 0.984 . S
H576 N572 0.985 . S
H577 N571 0.984 . S
H578 N571 0.984 . S
H579 N567 0.984 . S
H580 N567 0.985 . S
C581 C582 1.363 . S
C581 C587 1.379 . S
C581 N589 1.356 . S
C582 C581 1.363 . S
C582 C588 1.363 . S
C583 C584 1.363 . S
C583 C588 1.379 . S
C583 N590 1.356 . S
C584 C583 1.363 . S
C584 C587 1.363 . S
N585 C587 1.356 . S
N585 H597 0.984 . S
N585 H598 0.985 . S
N586 C588 1.356 . S
N586 H591 0.984 . S
N586 H592 0.985 . S
C587 C581 1.379 . S
C587 C584 1.363 . S
C587 N585 1.356 . S
C588 C582 1.363 . S
C588 C583 1.379 . S
C588 N586 1.356 . S
N589 C581 1.356 . S
N589 H595 0.984 . S
N589 H596 0.984 . S
N590 C583 1.356 . S
N590 H593 0.984 . S
N590 H594 0.985 . S
H591 N586 0.984 . S
H592 N586 0.985 . S
H593 N590 0.984 . S
H594 N590 0.985 . S
H595 N589 0.984 . S
H596 N589 0.984 . S
H597 N585 0.984 . S
H598 N585 0.985 . S
C599 C600 1.363 . S
C599 C605 1.379 . S
C599 N607 1.356 . S
C600 C599 1.363 . S
C600 C606 1.363 . S
C601 C602 1.363 . S
C601 C606 1.379 . S
C601 N608 1.356 . S
C602 C601 1.363 . S
C602 C605 1.363 . S
N603 C605 1.356 . S
N603 H615 0.984 . S
N603 H616 0.985 . S
N604 C606 1.356 . S
N604 H609 0.984 . S
N604 H610 0.985 . S
C605 C599 1.379 . S
C605 C602 1.363 . S
C605 N603 1.356 . S
C606 C600 1.363 . S
C606 C601 1.379 . S
C606 N604 1.356 . S
N607 C599 1.356 . S
N607 H613 0.984 . S
N607 H614 0.984 . S
N608 C601 1.356 . S
N608 H611 0.984 . S
N608 H612 0.985 . S
H609 N604 0.984 . S
H610 N604 0.985 . S
H611 N608 0.984 . S
H612 N608 0.985 . S
H613 N607 0.984 . S
H614 N607 0.984 . S
H615 N603 0.984 . S
H616 N603 0.985 . S
C617 C618 1.363 . S
C617 C623 1.379 . S
C617 N625 1.356 . S
C618 C617 1.363 . S
C618 C624 1.363 . S
C619 C620 1.363 . S
C619 C624 1.379 . S
C619 N626 1.356 . S
C620 C619 1.363 . S
C620 C623 1.363 . S
N621 C623 1.356 . S
N621 H633 0.984 . S
N621 H634 0.985 . S
N622 C624 1.356 . S
N622 H627 0.984 . S
N622 H628 0.985 . S
C623 C617 1.379 . S
C623 C620 1.363 . S
C623 N621 1.356 . S
C624 C618 1.363 . S
C624 C619 1.379 . S
C624 N622 1.356 . S
N625 C617 1.356 . S
N625 H631 0.984 . S
N625 H632 0.984 . S
N626 C619 1.356 . S
N626 H629 0.984 . S
N626 H630 0.985 . S
H627 N622 0.984 . S
H628 N622 0.985 . S
H629 N626 0.984 . S
H630 N626 0.985 . S
H631 N625 0.984 . S
H632 N625 0.984 . S
H633 N621 0.984 . S
H634 N621 0.985 . S
C635 C636 1.363 . S
C635 C641 1.379 . S
C635 N643 1.356 . S
C636 C635 1.363 . S
C636 C642 1.363 . S
C637 C638 1.363 . S
C637 C642 1.379 . S
C637 N644 1.356 . S
C638 C637 1.363 . S
C638 C641 1.363 . S
N639 C641 1.356 . S
N639 H651 0.984 . S
N639 H652 0.985 . S
N640 C642 1.356 . S
N640 H645 0.984 . S
N640 H646 0.985 . S
C641 C635 1.379 . S
C641 C638 1.363 . S
C641 N639 1.356 . S
C642 C636 1.363 . S
C642 C637 1.379 . S
C642 N640 1.356 . S
N643 C635 1.356 . S
N643 H649 0.984 . S
N643 H650 0.984 . S
N644 C637 1.356 . S
N644 H647 0.984 . S
N644 H648 0.985 . S
H645 N640 0.984 . S
H646 N640 0.985 . S
H647 N644 0.984 . S
H648 N644 0.985 . S
H649 N643 0.984 . S
H650 N643 0.984 . S
H651 N639 0.984 . S
H652 N639 0.985 . S
C653 C654 1.363 . S
C653 C659 1.379 . S
C653 N661 1.356 . S
C654 C653 1.363 . S
C654 C660 1.363 . S
C655 C656 1.363 . S
C655 C660 1.379 . S
C655 N662 1.356 . S
C656 C655 1.363 . S
C656 C659 1.363 . S
N657 C659 1.356 . S
N657 H669 0.984 . S
N657 H670 0.985 . S
N658 C660 1.356 . S
N658 H663 0.984 . S
N658 H664 0.985 . S
C659 C653 1.379 . S
C659 C656 1.363 . S
C659 N657 1.356 . S
C660 C654 1.363 . S
C660 C655 1.379 . S
C660 N658 1.356 . S
N661 C653 1.356 . S
N661 H667 0.984 . S
N661 H668 0.984 . S
N662 C655 1.356 . S
N662 H665 0.984 . S
N662 H666 0.985 . S
H663 N658 0.984 . S
H664 N658 0.985 . S
H665 N662 0.984 . S
H666 N662 0.985 . S
H667 N661 0.984 . S
H668 N661 0.984 . S
H669 N657 0.984 . S
H670 N657 0.985 . S
C671 C672 1.363 . S
C671 C677 1.379 . S
C671 N679 1.356 . S
C672 C671 1.363 . S
C672 C678 1.363 . S
C673 C674 1.363 . S
C673 C678 1.379 . S
C673 N680 1.356 . S
C674 C673 1.363 . S
C674 C677 1.363 . S
N675 C677 1.356 . S
N675 H687 0.984 . S
N675 H688 0.985 . S
N676 C678 1.356 . S
N676 H681 0.984 . S
N676 H682 0.985 . S
C677 C671 1.379 . S
C677 C674 1.363 . S
C677 N675 1.356 . S
C678 C672 1.363 . S
C678 C673 1.379 . S
C678 N676 1.356 . S
N679 C671 1.356 . S
N679 H685 0.984 . S
N679 H686 0.984 . S
N680 C673 1.356 . S
N680 H683 0.984 . S
N680 H684 0.985 . S
H681 N676 0.984 . S
H682 N676 0.985 . S
H683 N680 0.984 . S
H684 N680 0.985 . S
H685 N679 0.984 . S
H686 N679 0.984 . S
H687 N675 0.984 . S
H688 N675 0.985 . S
C689 C690 1.363 . S
C689 C695 1.379 . S
C689 N697 1.356 . S
C690 C689 1.363 . S
C690 C696 1.363 . S
C691 C692 1.363 . S
C691 C696 1.379 . S
C691 N698 1.356 . S
C692 C691 1.363 . S
C692 C695 1.363 . S
N693 C695 1.356 . S
N693 H705 0.984 . S
N693 H706 0.985 . S
N694 C696 1.356 . S
N694 H699 0.984 . S
N694 H700 0.985 . S
C695 C689 1.379 . S
C695 C692 1.363 . S
C695 N693 1.356 . S
C696 C690 1.363 . S
C696 C691 1.379 . S
C696 N694 1.356 . S
N697 C689 1.356 . S
N697 H703 0.984 . S
N697 H704 0.984 . S
N698 C691 1.356 . S
N698 H701 0.984 . S
N698 H702 0.985 . S
H699 N694 0.984 . S
H700 N694 0.985 . S
H701 N698 0.984 . S
H702 N698 0.985 . S
H703 N697 0.984 . S
H704 N697 0.984 . S
H705 N693 0.984 . S
H706 N693 0.985 . S
C707 C708 1.363 . S
C707 C713 1.379 . S
C707 N715 1.356 . S
C708 C707 1.363 . S
C708 C714 1.363 . S
C709 C710 1.363 . S
C709 C714 1.379 . S
C709 N716 1.356 . S
C710 C709 1.363 . S
C710 C713 1.363 . S
N711 C713 1.356 . S
N711 H723 0.984 . S
N711 H724 0.985 . S
N712 C714 1.356 . S
N712 H717 0.984 . S
N712 H718 0.985 . S
C713 C707 1.379 . S
C713 C710 1.363 . S
C713 N711 1.356 . S
C714 C708 1.363 . S
C714 C709 1.379 . S
C714 N712 1.356 . S
N715 C707 1.356 . S
N715 H721 0.984 . S
N715 H722 0.984 . S
N716 C709 1.356 . S
N716 H719 0.984 . S
N716 H720 0.985 . S
H717 N712 0.984 . S
H718 N712 0.985 . S
H719 N716 0.984 . S
H720 N716 0.985 . S
H721 N715 0.984 . S
H722 N715 0.984 . S
H723 N711 0.984 . S
H724 N711 0.985 . S
C725 C726 1.363 . S
C725 C731 1.379 . S
C725 N733 1.356 . S
C726 C725 1.363 . S
C726 C732 1.363 . S
C727 C728 1.363 . S
C727 C732 1.379 . S
C727 N734 1.356 . S
C728 C727 1.363 . S
C728 C731 1.363 . S
N729 C731 1.356 . S
N729 H741 0.984 . S
N729 H742 0.985 . S
N730 C732 1.356 . S
N730 H735 0.984 . S
N730 H736 0.985 . S
C731 C725 1.379 . S
C731 C728 1.363 . S
C731 N729 1.356 . S
C732 C726 1.363 . S
C732 C727 1.379 . S
C732 N730 1.356 . S
N733 C725 1.356 . S
N733 H739 0.984 . S
N733 H740 0.984 . S
N734 C727 1.356 . S
N734 H737 0.984 . S
N734 H738 0.985 . S
H735 N730 0.984 . S
H736 N730 0.985 . S
H737 N734 0.984 . S
H738 N734 0.985 . S
H739 N733 0.984 . S
H740 N733 0.984 . S
H741 N729 0.984 . S
H742 N729 0.985 . S
C743 C744 1.363 . S
C743 C749 1.379 . S
C743 N751 1.356 . S
C744 C743 1.363 . S
C744 C750 1.363 . S
C745 C746 1.363 . S
C745 C750 1.379 . S
C745 N752 1.356 . S
C746 C745 1.363 . S
C746 C749 1.363 . S
N747 C749 1.356 . S
N747 H759 0.984 1_556 S
N747 H760 0.985 . S
N748 C750 1.356 . S
N748 H753 0.984 . S
N748 H754 0.985 . S
C749 C743 1.379 . S
C749 C746 1.363 . S
C749 N747 1.356 . S
C750 C744 1.363 . S
C750 C745 1.379 . S
C750 N748 1.356 . S
N751 C743 1.356 . S
N751 H757 0.984 . S
N751 H758 0.984 . S
N752 C745 1.356 . S
N752 H755 0.984 . S
N752 H756 0.985 . S
H753 N748 0.984 . S
H754 N748 0.985 . S
H755 N752 0.984 . S
H756 N752 0.985 . S
H757 N751 0.984 . S
H758 N751 0.984 . S
H759 N747 0.984 1_554 S
H760 N747 0.985 . S
C761 C762 1.363 . S
C761 C767 1.379 . S
C761 N769 1.356 . S
C762 C761 1.363 . S
C762 C768 1.363 . S
C763 C764 1.363 . S
C763 C768 1.379 . S
C763 N770 1.356 . S
C764 C763 1.363 . S
C764 C767 1.363 . S
N765 C767 1.356 . S
N765 H777 0.984 . S
N765 H778 0.985 . S
N766 C768 1.356 . S
N766 H771 0.984 . S
N766 H772 0.985 . S
C767 C761 1.379 . S
C767 C764 1.363 . S
C767 N765 1.356 . S
C768 C762 1.363 . S
C768 C763 1.379 . S
C768 N766 1.356 . S
N769 C761 1.356 . S
N769 H775 0.984 . S
N769 H776 0.984 . S
N770 C763 1.356 . S
N770 H773 0.984 . S
N770 H774 0.985 . S
H771 N766 0.984 . S
H772 N766 0.985 . S
H773 N770 0.984 . S
H774 N770 0.985 . S
H775 N769 0.984 . S
H776 N769 0.984 . S
H777 N765 0.984 . S
H778 N765 0.985 . S
C779 C780 1.363 . S
C779 C785 1.379 . S
C779 N787 1.356 . S
C780 C779 1.363 . S
C780 C786 1.363 . S
C781 C782 1.363 . S
C781 C786 1.379 . S
C781 N788 1.356 . S
C782 C781 1.363 . S
C782 C785 1.363 . S
N783 C785 1.356 . S
N783 H795 0.984 . S
N783 H796 0.985 . S
N784 C786 1.356 . S
N784 H789 0.984 . S
N784 H790 0.985 . S
C785 C779 1.379 . S
C785 C782 1.363 . S
C785 N783 1.356 . S
C786 C780 1.363 . S
C786 C781 1.379 . S
C786 N784 1.356 . S
N787 C779 1.356 . S
N787 H793 0.984 . S
N787 H794 0.984 . S
N788 C781 1.356 . S
N788 H791 0.984 . S
N788 H792 0.985 . S
H789 N784 0.984 . S
H790 N784 0.985 . S
H791 N788 0.984 . S
H792 N788 0.985 . S
H793 N787 0.984 . S
H794 N787 0.984 . S
H795 N783 0.984 . S
H796 N783 0.985 . S
C797 C798 1.363 . S
C797 C803 1.379 . S
C797 N805 1.356 . S
C798 C797 1.363 . S
C798 C804 1.363 . S
C799 C800 1.363 . S
C799 C804 1.379 . S
C799 N806 1.356 . S
C800 C799 1.363 . S
C800 C803 1.363 . S
N801 C803 1.356 . S
N801 H813 0.984 . S
N801 H814 0.985 . S
N802 C804 1.356 . S
N802 H807 0.984 . S
N802 H808 0.985 . S
C803 C797 1.379 . S
C803 C800 1.363 . S
C803 N801 1.356 . S
C804 C798 1.363 . S
C804 C799 1.379 . S
C804 N802 1.356 . S
N805 C797 1.356 . S
N805 H811 0.984 . S
N805 H812 0.984 . S
N806 C799 1.356 . S
N806 H809 0.984 . S
N806 H810 0.985 . S
H807 N802 0.984 . S
H808 N802 0.985 . S
H809 N806 0.984 . S
H810 N806 0.985 . S
H811 N805 0.984 . S
H812 N805 0.984 . S
H813 N801 0.984 . S
H814 N801 0.985 . S
C815 C816 1.363 . S
C815 C821 1.379 . S
C815 N823 1.356 . S
C816 C815 1.363 . S
C816 C822 1.363 . S
C817 C818 1.363 . S
C817 C822 1.379 . S
C817 N824 1.356 . S
C818 C817 1.363 . S
C818 C821 1.363 . S
N819 C821 1.356 . S
N819 H831 0.984 . S
N819 H832 0.985 . S
N820 C822 1.356 . S
N820 H825 0.984 . S
N820 H826 0.985 . S
C821 C815 1.379 . S
C821 C818 1.363 . S
C821 N819 1.356 . S
C822 C816 1.363 . S
C822 C817 1.379 . S
C822 N820 1.356 . S
N823 C815 1.356 . S
N823 H829 0.984 . S
N823 H830 0.984 . S
N824 C817 1.356 . S
N824 H827 0.984 . S
N824 H828 0.985 . S
H825 N820 0.984 . S
H826 N820 0.985 . S
H827 N824 0.984 . S
H828 N824 0.985 . S
H829 N823 0.984 . S
H830 N823 0.984 . S
H831 N819 0.984 . S
H832 N819 0.985 . S
C833 C834 1.363 . S
C833 C839 1.379 . S
C833 N841 1.356 . S
C834 C833 1.363 . S
C834 C840 1.363 . S
C835 C836 1.363 . S
C835 C840 1.379 . S
C835 N842 1.356 . S
C836 C835 1.363 . S
C836 C839 1.363 . S
N837 C839 1.356 . S
N837 H849 0.984 . S
N837 H850 0.985 . S
N838 C840 1.356 . S
N838 H843 0.984 . S
N838 H844 0.985 . S
C839 C833 1.379 . S
C839 C836 1.363 . S
C839 N837 1.356 . S
C840 C834 1.363 . S
C840 C835 1.379 . S
C840 N838 1.356 . S
N841 C833 1.356 . S
N841 H847 0.984 . S
N841 H848 0.984 . S
N842 C835 1.356 . S
N842 H845 0.984 . S
N842 H846 0.985 . S
H843 N838 0.984 . S
H844 N838 0.985 . S
H845 N842 0.984 . S
H846 N842 0.985 . S
H847 N841 0.984 . S
H848 N841 0.984 . S
H849 N837 0.984 . S
H850 N837 0.985 . S
C422 C344 1.202 . S
C420 C15 1.242 . S
C440 C380 1.661 . S
C438 C55 1.730 . S
C458 C345 1.528 . S
C456 C101 1.525 . S
C476 C375 1.649 . S
C474 C141 1.589 . S
C494 C342 1.540 . S
C492 C162 1.596 . S
C510 C215 1.760 . S
C512 C378 1.803 . S
C528 C261 1.277 . S
C530 C347 1.214 . S
C548 C377 1.568 . S
C546 C282 1.524 . S
C566 C381 1.600 . S
C564 C2 1.597 . S
C584 C346 1.574 . S
C582 C61 1.542 . S
C602 C374 1.812 . S
C600 C95 1.760 . S
C620 C343 1.183 . S
C618 C122 1.245 . S
C638 C376 1.702 . S
C636 C181 1.812 . S
C654 C202 1.528 . S
C656 C341 1.527 . S
C672 C242 1.549 . S
C674 C379 1.631 . S
C692 C348 1.152 . S
C690 C295 1.188 . S
C710 C410 1.677 . S
C708 C21 1.795 . S
C726 C175 1.991 . S
C728 C413 1.891 . S
C746 C412 1.865 . S
C744 C221 1.912 . S
C762 C255 2.050 . S
C764 C411 2.066 . S
C782 C414 1.641 . S
C780 C301 1.713 . S
C798 C82 1.823 . S
C800 C408 1.783 . S
C818 C407 2.083 . S
C816 C135 2.072 . S
C834 C42 1.950 . S
C836 C409 1.939 . S
