# Generated by pormake.
# Topology nia, (6,6)-cn, num edge types: 1
# Building blocks:
#     Node 0, Type 0, BuildingBlock: KUMBOL_clean_sbu_1, # of connection points: 6
#     Node 1, Type 0, BuildingBlock: KUMBOL_clean_sbu_1, # of connection points: 6
#     Node 2, Type 1, BuildingBlock: MIDCAF_clean_sbu_0, # of connection points: 6
#     Node 3, Type 1, BuildingBlock: MIDCAF_clean_sbu_0, # of connection points: 6
#     Edge 4, Type (0, 1), BuildingBlock: OJICUG_clean_linker_0, # of connection points: 2
#     Edge 5, Type (0, 1), BuildingBlock: OJICUG_clean_linker_0, # of connection points: 2
#     Edge 6, Type (0, 1), BuildingBlock: OJICUG_clean_linker_0, # of connection points: 2
#     Edge 7, Type (0, 1), BuildingBlock: OJICUG_clean_linker_0, # of connection points: 2
#     Edge 8, Type (0, 1), BuildingBlock: OJICUG_clean_linker_0, # of connection points: 2
#     Edge 9, Type (0, 1), BuildingBlock: OJICUG_clean_linker_0, # of connection points: 2
#     Edge 10, Type (0, 1), BuildingBlock: OJICUG_clean_linker_0, # of connection points: 2
#     Edge 11, Type (0, 1), BuildingBlock: OJICUG_clean_linker_0, # of connection points: 2
#     Edge 12, Type (0, 1), BuildingBlock: OJICUG_clean_linker_0, # of connection points: 2
#     Edge 13, Type (0, 1), BuildingBlock: OJICUG_clean_linker_0, # of connection points: 2
#     Edge 14, Type (0, 1), BuildingBlock: OJICUG_clean_linker_0, # of connection points: 2
#     Edge 15, Type (0, 1), BuildingBlock: OJICUG_clean_linker_0, # of connection points: 2
# Relax obj value: 0.180
# Max RMSD: 0.290
# Mean RMSD: 0.207
data_MOF--net-nia--node1-KUMBOL_clean_sbu_1--node2-MIDCAF_clean_sbu_0--edge1-OJICUG_clean_linker_0
_symmetry_space_group_name_H-M    P1
_symmetry_Int_Tables_number       1
_symmetry_cell_setting            triclinic
loop_
_symmetry_equiv_pos_as_xyz
'x, y, z'
_cell_length_a     22.137409
_cell_length_b     22.131761
_cell_length_c     23.884208
_cell_angle_alpha  89.674499
_cell_angle_beta   89.920898
_cell_angle_gamma 138.48675
loop_
_atom_site_label
_atom_site_type_symbol
_atom_site_fract_x
_atom_site_fract_y
_atom_site_fract_z
_atom_type_partial_charge
C0 C 0.9178 0.98241 0.82257 0.0
C1 C 0.75216 0.86827 0.82028 0.0
C2 C 0.83487 0.93175 0.85011 0.0
C3 C 0.7492 0.85539 0.76269 0.0
C4 C 0.91485 0.96087 0.75331 0.0
C5 C 0.82529 0.89875 0.73002 0.0
N6 N 0.00622 0.04035 0.85867 0.0
C7 C 0.10541 0.08925 0.84679 0.0
C8 C 0.07685 0.03861 0.72451 0.0
C9 C 0.14769 0.09324 0.78164 0.0
Gd10 Gd 0.01183 0.95029 0.06637 0.0
Gd11 Gd 0.97614 0.05836 0.94796 0.0
N12 N 0.83344 0.9386 0.90702 0.0
C13 C 0.66996 0.81394 0.84981 0.0
C14 C 0.75315 0.88638 0.93531 0.0
C15 C 0.67046 0.82258 0.90736 0.0
H16 H 0.75149 0.89529 0.97903 0.0
H17 H 0.60704 0.78116 0.93013 0.0
H18 H 0.22269 0.06728 0.03158 0.0
H19 H 0.13322 0.09459 0.81358 0.0
H20 H 0.37145 0.16555 0.07486 0.0
H21 H 0.60504 0.76411 0.82848 0.0
H22 H 0.68345 0.80487 0.74234 0.0
H23 H 0.84593 0.87619 0.1554 0.0
H24 H 0.10232 0.03631 0.68679 0.0
H25 H 0.22025 0.12729 0.76996 0.0
H26 H 0.32475 0.1706 0.26555 0.0
H27 H 0.80807 0.87389 0.68797 0.0
H28 H 0.93094 -0.00314 0.33662 0.0
H29 H 0.80726 0.90297 0.25057 0.0
N30 N -0.00486 0.96453 0.16219 0.0
C31 C 0.08597 0.01752 0.19372 0.0
C32 C 0.90274 0.92622 0.18112 0.0
C33 C 0.9497 0.98991 0.29714 0.0
C34 C 0.87485 0.93538 0.24386 0.0
C35 C 0.10132 0.04788 0.26223 0.0
H36 H 0.21474 0.1297 0.32299 0.0
N37 N 0.15597 0.04631 0.1063 0.0
C38 C 0.16215 0.05654 0.16304 0.0
C39 C 0.32251 0.15088 0.15725 0.0
C40 C 0.24683 0.11098 0.18979 0.0
C41 C 0.22915 0.08232 0.07526 0.0
C42 C 0.31355 0.13627 0.09996 0.0
O43 O 0.95322 0.94395 0.92254 0.0
O44 O 0.89963 0.85985 1.00312 0.0
O45 O 0.0524 0.88437 0.05693 0.0
O46 O 0.94287 0.83062 0.11329 0.0
O47 O 0.89516 0.00882 0.02717 0.0
O48 O 0.87449 0.89476 0.05765 0.0
O49 O 0.09117 0.09554 0.08264 0.0
O50 O 0.02217 0.12416 0.03418 0.0
O51 O 0.91126 0.09102 0.91547 0.0
O52 O 0.05794 0.19222 0.91318 0.0
O53 O 0.09487 0.01421 0.98528 0.0
O54 O 0.11805 0.13289 0.96592 0.0
C55 C 0.91233 0.86869 0.94885 0.0
C56 C 0.855 0.93844 0.05938 0.0
C57 C 0.97519 0.74878 0.1151 0.0
C58 C 0.02806 0.68885 0.14501 0.0
C59 C 0.87117 0.60135 0.16218 0.0
C60 C 0.88817 0.66977 0.1368 0.0
C61 C 0.94052 0.61067 0.16628 0.0
C62 C 0.04552 0.75831 0.11938 0.0
C63 C -0.00591 0.82521 0.09604 0.0
C64 C 0.25827 0.12855 0.24727 0.0
C65 C 0.19063 0.10093 0.28221 0.0
H66 H 0.38869 0.1934 0.17606 0.0
C67 C 0.07735 0.14325 0.07284 0.0
C68 C 0.14649 0.09786 0.96675 0.0
C69 C -0.00413 0.24456 0.89595 0.0
C70 C 0.92708 0.29196 0.87914 0.0
C71 C 0.09162 0.40517 0.88545 0.0
C72 C 0.08257 0.33639 0.8943 0.0
C73 C 0.01454 0.38331 0.87816 0.0
C74 C 0.91795 0.2225 0.88737 0.0
C75 C 0.98778 0.17213 0.89887 0.0
H76 H 0.8042 0.54122 0.17921 0.0
H77 H 0.83341 0.66154 0.13515 0.0
H78 H 0.92599 0.55684 0.18648 0.0
H79 H 0.11338 0.81965 0.1039 0.0
H80 H 0.15871 0.47571 0.88394 0.0
H81 H 0.14368 0.35516 0.89875 0.0
H82 H 0.02317 0.43791 0.87141 0.0
H83 H 0.85061 0.15189 0.88716 0.0
C84 C 0.02329 0.09347 0.69636 0.0
C85 C 0.12033 0.25573 0.69809 0.0
C86 C 0.06588 0.17362 0.66835 0.0
C87 C 0.13105 0.26015 0.75617 0.0
C88 C 0.04699 0.10068 0.76575 0.0
C89 C 0.09803 0.18792 0.7889 0.0
N90 N 0.97555 0.00763 0.66051 0.0
C91 C 0.94125 0.91516 0.67273 0.0
C92 C -0.00719 0.94994 0.79527 0.0
C93 C 0.94569 0.87944 0.73817 0.0
Gd94 Gd 0.06013 -0.0031 0.45381 0.0
Gd95 Gd 0.94777 0.02951 0.57114 0.0
N96 N 0.05985 0.17363 0.61126 0.0
C97 C 0.16723 0.33594 0.6681 0.0
C98 C 0.10557 0.25194 0.58234 0.0
C99 C 0.16068 0.33421 0.61018 0.0
H100 H 0.09703 0.25152 0.53815 0.0
H101 H 0.19653 0.39603 0.58702 0.0
H102 H 0.93615 0.78323 0.48753 0.0
H103 H 0.94108 0.89107 0.70611 0.0
H104 H 0.83182 0.63388 0.44384 0.0
H105 H 0.20999 0.4004 0.68934 0.0
H106 H 0.17228 0.32473 0.77698 0.0
H107 H 0.1458 0.16806 0.36623 0.0
H108 H -0.00031 0.9288 0.83368 0.0
H109 H 0.92245 0.81218 0.75006 0.0
H110 H 0.82787 0.68517 0.25369 0.0
H111 H 0.1224 0.20743 0.83093 0.0
H112 H 0.02573 0.0906 0.18433 0.0
H113 H 0.1247 0.21304 0.27068 0.0
N114 N 0.05076 0.01716 0.35786 0.0
C115 C -0.00706 0.9254 0.32601 0.0
C116 C 0.09503 0.11261 0.33951 0.0
C117 C 0.03054 0.06953 0.2236 0.0
C118 C 0.08866 0.1439 0.27706 0.0
C119 C 0.96269 0.91251 0.25768 0.0
H120 H 0.8743 0.79897 0.19696 0.0
N121 N 0.96038 0.85264 0.4132 0.0
C122 C 0.95016 0.84747 0.35642 0.0
C123 C 0.84856 0.68517 0.36174 0.0
C124 C 0.89178 0.76238 0.32946 0.0
C125 C 0.9212 0.77788 0.44392 0.0
C126 C 0.86368 0.69305 0.41897 0.0
O127 O 0.06717 0.06083 0.59653 0.0
O128 O 0.15054 0.1109 0.51583 0.0
O129 O 0.12352 0.95349 0.46224 0.0
O130 O 0.18267 0.06888 0.40977 0.0
O131 O -0.00469 0.10745 0.4906 0.0
O132 O 0.11272 0.13238 0.46368 0.0
O133 O 0.9195 0.92464 0.43072 0.0
O134 O 0.86968 0.96558 0.48987 0.0
O135 O 0.90592 0.0898 0.59295 0.0
O136 O 0.81719 0.9466 0.61214 0.0
O137 O -0.00332 0.91434 0.5352 0.0
O138 O 0.87651 0.88902 0.55301 0.0
C139 C 0.14199 0.10091 0.57029 0.0
C140 C 0.06672 0.14893 0.45938 0.0
C141 C 0.26222 0.03399 0.40687 0.0
C142 C 0.32273 0.98159 0.37764 0.0
C143 C 0.41154 0.13942 0.36237 0.0
C144 C 0.34231 0.12178 0.38666 0.0
C145 C 0.40199 0.06996 0.35788 0.0
C146 C 0.2524 0.96349 0.40209 0.0
C147 C 0.18556 0.01497 0.42521 0.0
C148 C 0.87337 0.75216 0.2721 0.0
C149 C 0.90446 0.822 0.23753 0.0
H150 H 0.80302 0.61863 0.34278 0.0
C151 C 0.86274 0.92564 0.44526 0.0
C152 C 0.91324 0.86244 0.5542 0.0
C153 C 0.76468 0.00644 0.64273 0.0
C154 C 0.71752 0.07246 0.67066 0.0
C155 C 0.62697 0.91724 0.69817 0.0
C156 C 0.68698 0.92446 0.66946 0.0
C157 C 0.642 0.9906 0.69885 0.0
C158 C 0.78007 0.08091 0.6436 0.0
C159 C 0.83123 0.01491 0.61671 0.0
H160 H 0.47253 0.20702 0.34652 0.0
H161 H 0.35089 0.17676 0.38868 0.0
H162 H 0.45652 0.08508 0.33851 0.0
H163 H 0.19027 0.89508 0.41641 0.0
H164 H 0.56808 0.85423 0.71951 0.0
H165 H 0.67281 0.86593 0.66844 0.0
H166 H 0.5938 0.98306 0.7209 0.0
H167 H 0.83904 0.14425 0.62242 0.0
Zn168 Zn 0.37726 0.65634 0.16465 0.0
Zn169 Zn 0.35061 0.62876 0.35618 0.0
Zn170 Zn 0.36474 0.64145 0.26023 0.0
C171 C 0.51852 0.70743 0.3388 0.0
C172 C 0.21778 0.45777 0.33203 0.0
O173 O 0.30544 0.68561 0.23174 0.0
O174 O 0.27931 0.63878 0.14477 0.0
C175 C 0.54815 0.78817 0.18817 0.0
O176 O 0.50274 0.72399 0.29263 0.0
O177 O 0.45371 0.64979 0.37292 0.0
O178 O 0.22463 0.50491 0.36693 0.0
O179 O 0.27112 0.49742 0.28887 0.0
O180 O 0.5011 0.78231 0.15372 0.0
O181 O 0.50853 0.73431 0.23116 0.0
O182 O 0.28032 0.50313 0.22708 0.0
O183 O 0.35541 0.55287 0.14723 0.0
C184 C 0.2967 0.48754 0.18084 0.0
O185 O 0.32249 0.70225 0.28957 0.0
O186 O 0.36895 0.727 0.37663 0.0
C187 C 0.26969 0.66954 0.18344 0.0
C188 C 0.33877 0.7376 0.33802 0.0
Zn189 Zn 0.64109 0.37738 0.85659 0.0
Zn190 Zn 0.63215 0.36551 0.66281 0.0
Zn191 Zn 0.63143 0.37626 0.76117 0.0
C192 C 0.71788 0.53716 0.67947 0.0
C193 C 0.45304 0.24218 0.6861 0.0
O194 O 0.67789 0.31919 0.79119 0.0
O195 O 0.62845 0.28253 0.87835 0.0
C196 C 0.77191 0.55422 0.83661 0.0
O197 O 0.7197 0.51688 0.7296 0.0
O198 O 0.6724 0.47708 0.64225 0.0
O199 O 0.50182 0.25165 0.65054 0.0
O200 O 0.48924 0.28759 0.73203 0.0
O201 O 0.76168 0.50312 0.87039 0.0
O202 O 0.72482 0.51964 0.79116 0.0
O203 O 0.49185 0.29076 0.79423 0.0
O204 O 0.53884 0.35292 0.87777 0.0
C205 C 0.47544 0.30096 0.84292 0.0
O206 O 0.68334 0.3249 0.73238 0.0
O207 O 0.7164 0.36288 0.64294 0.0
C208 C 0.66556 0.28234 0.83848 0.0
C209 C 0.71743 0.33055 0.68591 0.0
C210 C 0.17726 0.76089 0.1816 0.0
C211 C 0.09846 0.69405 0.14928 0.0
H212 H 0.29561 0.8067 0.21708 0.0
C213 C 0.08041 0.6238 0.12613 0.0
H214 H 0.19251 0.81584 0.19982 0.0
C215 C 0.13708 0.61735 0.13726 0.0
C216 C 0.21292 0.68064 0.17215 0.0
H217 H 0.02049 0.572 0.10073 0.0
H218 H 0.11995 0.56098 0.11968 0.0
C219 C 0.23468 0.75448 0.19262 0.0
C220 C 0.26231 0.20303 0.64304 0.0
C221 C 0.21807 0.13384 0.60337 0.0
H222 H 0.37091 0.29019 0.70262 0.0
C223 C 0.2431 0.09187 0.59782 0.0
H224 H 0.24274 0.23517 0.64847 0.0
C225 C 0.3142 0.12135 0.62962 0.0
C226 C 0.36205 0.19379 0.66736 0.0
H227 H 0.20823 0.03682 0.56848 0.0
H228 H 0.3349 0.09048 0.62268 0.0
C229 C 0.33405 0.233 0.67481 0.0
C230 C 0.09202 0.2423 0.13819 0.0
C231 C 0.1329 0.22815 0.10485 0.0
H232 H 0.11287 0.33397 0.19227 0.0
C233 C 0.22826 0.29657 0.10152 0.0
H234 H 0.01847 0.1901 0.14153 0.0
C235 C 0.28184 0.37951 0.12887 0.0
C236 C 0.24123 0.39428 0.16192 0.0
H237 H 0.2612 0.28732 0.0758 0.0
H238 H 0.35513 0.43321 0.12296 0.0
C239 C 0.14589 0.32386 0.16772 0.0
C240 C 0.80524 0.23521 0.68468 0.0
C241 C 0.72592 0.14537 0.6676 0.0
H242 H 0.86469 0.36591 0.70556 0.0
C243 C 0.64945 0.12192 0.65172 0.0
H244 H 0.86521 0.2549 0.69689 0.0
C245 C 0.64945 0.18441 0.65645 0.0
C246 C 0.72569 0.2716 0.67731 0.0
H247 H 0.5883 0.0539 0.63721 0.0
H248 H 0.5884 0.16354 0.6455 0.0
C249 C 0.80491 0.29823 0.68994 0.0
C250 C 0.77695 0.95879 0.11739 0.0
C251 C 0.77658 0.90053 0.0936 0.0
H252 H 0.70468 0.96868 0.16853 0.0
C253 C 0.70459 0.80694 0.10658 0.0
H254 H 0.832 0.03132 0.10838 0.0
C255 C 0.63567 0.77268 0.1437 0.0
C256 C 0.63512 0.83046 0.16662 0.0
H257 H 0.70248 0.76054 0.08865 0.0
H258 H 0.57943 0.69983 0.1516 0.0
C259 C 0.70594 0.92371 0.15304 0.0
C260 C 0.91048 0.76359 0.61034 0.0
C261 C 0.86462 0.77982 0.58839 0.0
H262 H 0.89993 0.67492 0.66033 0.0
C263 C 0.77334 0.7215 0.60443 0.0
H264 H 0.98123 0.80819 0.59969 0.0
C265 C 0.7282 0.64732 0.64004 0.0
C266 C 0.77326 0.63002 0.66085 0.0
H267 H 0.73603 0.73229 0.5888 0.0
H268 H 0.6564 0.60045 0.64894 0.0
C269 C 0.86505 0.68926 0.64642 0.0
C270 C 0.24901 0.83159 0.34128 0.0
C271 C 0.31714 0.9109 0.37291 0.0
H272 H 0.20141 0.71234 0.306 0.0
C273 C 0.38778 0.92875 0.39519 0.0
H274 H 0.19367 0.81635 0.32378 0.0
C275 C 0.39335 0.87148 0.38379 0.0
C276 C 0.32874 0.79516 0.34952 0.0
H277 H 0.44047 0.98889 0.42019 0.0
H278 H 0.44999 0.88844 0.4007 0.0
C279 C 0.25455 0.77357 0.32998 0.0
C280 C 0.2455 0.10358 0.9083 0.0
C281 C 0.23125 0.1488 0.93477 0.0
H282 H 0.33293 0.11665 0.85462 0.0
C283 C 0.29341 0.24261 0.92468 0.0
H284 H 0.19782 0.03102 0.91445 0.0
C285 C 0.36888 0.29052 0.88987 0.0
C286 C 0.38353 0.24576 0.86375 0.0
H287 H 0.28414 0.27938 0.94414 0.0
H288 H 0.41807 0.36361 0.8851 0.0
C289 C 0.32092 0.15175 0.87272 0.0
C290 C 0.04635 0.22609 0.39972 0.0
C291 C 0.10459 0.22735 0.42504 0.0
H292 H 0.03686 0.29859 0.34804 0.0
C293 C 0.19881 0.30154 0.41456 0.0
H294 H 0.97346 0.16972 0.40718 0.0
C295 C 0.23371 0.37132 0.37797 0.0
C296 C 0.17585 0.37077 0.35331 0.0
H297 H 0.24532 0.30472 0.43402 0.0
H298 H 0.30687 0.42894 0.37179 0.0
C299 C 0.08199 0.29812 0.36473 0.0
C300 C 0.7865 0.22158 0.82815 0.0
C301 C 0.8469 0.27193 0.87334 0.0
H302 H 0.67848 0.18343 0.78164 0.0
C303 C 0.83715 0.31307 0.91035 0.0
H304 H 0.79189 0.18782 0.79973 0.0
C305 C 0.77313 0.3101 0.90028 0.0
C306 C 0.71833 0.26723 0.85243 0.0
H307 H 0.88209 0.35118 0.94586 0.0
H308 H 0.77069 0.34664 0.92825 0.0
C309 C 0.72274 0.21986 0.81747 0.0
C310 C 0.70896 0.77472 0.41822 0.0
C311 C 0.77912 0.8698 0.41212 0.0
H312 H 0.57062 0.64835 0.39941 0.0
C313 C 0.76612 0.91048 0.37711 0.0
H314 H 0.71729 0.74219 0.44565 0.0
C315 C 0.68379 0.85661 0.34855 0.0
C316 C 0.61175 0.76171 0.35692 0.0
H317 H 0.81913 0.98396 0.37249 0.0
H318 H 0.67443 0.88962 0.32291 0.0
C319 C 0.62553 0.72124 0.39154 0.0
C320 C 0.90702 0.75345 0.93409 0.0
C321 C 0.88219 0.793 0.91661 0.0
H322 H 0.89606 0.65029 0.92036 0.0
C323 C 0.82965 0.76028 0.868 0.0
H324 H 0.94824 0.77786 0.97098 0.0
C325 C 0.79973 0.68709 0.83845 0.0
C326 C 0.82185 0.64525 0.85719 0.0
H327 H 0.80925 0.78931 0.85376 0.0
H328 H 0.75547 0.66038 0.80284 0.0
C329 C 0.878 0.68109 0.90449 0.0
loop_
_geom_bond_atom_site_label_1
_geom_bond_atom_site_label_2
_geom_bond_distance
_geom_bond_site_symmetry_2
_ccdc_geom_bond_type
C0 C2 1.422 . S
C0 C4 1.415 . S
C0 N6 1.369 1_565 S
C1 C2 1.421 . S
C1 C3 1.417 . S
C1 C13 1.422 . S
C2 C0 1.422 . S
C2 C1 1.421 . S
C2 N12 1.359 . S
C3 C1 1.417 . S
C3 C5 1.329 . S
C3 H22 0.930 . S
C4 C0 1.415 . S
C4 C5 1.437 . S
C4 C8 1.413 1_665 S
C5 C3 1.329 . S
C5 C4 1.437 . S
C5 H27 0.929 . S
N6 C0 1.369 1_545 S
N6 C7 1.338 1_655 S
N6 Gd11 2.622 . S
C7 N6 1.338 1_455 S
C7 C9 1.378 . S
C7 H19 0.929 . S
C8 C4 1.413 1_445 S
C8 C9 1.348 . S
C8 H24 0.931 . S
C9 C7 1.378 . S
C9 C8 1.348 . S
C9 H25 0.930 . S
Gd10 N30 2.622 . S
Gd10 N37 2.570 1_565 S
Gd10 O44 2.353 1_454 S
Gd10 O45 2.468 . S
Gd10 O46 2.427 1_455 S
Gd10 O48 2.388 1_455 S
Gd10 O49 2.386 1_565 S
Gd10 O53 2.307 1_564 S
Gd10 C63 2.805 . S
Gd11 N6 2.622 . S
Gd11 N12 2.570 1_545 S
Gd11 O43 2.386 1_545 S
Gd11 O47 2.307 1_546 S
Gd11 O50 2.353 1_656 S
Gd11 O51 2.468 . S
Gd11 O52 2.427 1_655 S
Gd11 O54 2.388 1_655 S
Gd11 C75 2.805 . S
N12 C2 1.359 . S
N12 Gd11 2.570 1_565 S
N12 C14 1.343 . S
C13 C1 1.422 . S
C13 C15 1.321 . S
C13 H21 0.931 . S
C14 N12 1.343 . S
C14 C15 1.390 . S
C14 H16 0.931 . S
C15 C13 1.321 . S
C15 C14 1.390 . S
C15 H17 0.930 . S
H16 C14 0.931 . S
H17 C15 0.930 . S
H18 C41 0.931 . S
H19 C7 0.929 . S
H20 C42 0.930 . S
H21 C13 0.931 . S
H22 C3 0.930 . S
H23 C32 0.929 . S
H24 C8 0.931 . S
H25 C9 0.930 . S
H26 C64 0.930 . S
H27 C5 0.929 . S
H28 C33 0.929 1_545 S
H29 C34 0.930 . S
N30 Gd10 2.622 . S
N30 C31 1.369 1_565 S
N30 C32 1.338 1_455 S
C31 N30 1.369 1_545 S
C31 C35 1.415 . S
C31 C38 1.422 . S
C32 H23 0.929 . S
C32 N30 1.338 1_655 S
C32 C34 1.378 . S
C33 H28 0.929 1_565 S
C33 C34 1.349 . S
C33 C35 1.414 1_665 S
C34 H29 0.930 . S
C34 C32 1.378 . S
C34 C33 1.349 . S
C35 C31 1.415 . S
C35 C33 1.414 1_445 S
C35 C65 1.437 . S
H36 C65 0.929 . S
N37 Gd10 2.570 1_545 S
N37 C38 1.359 . S
N37 C41 1.343 . S
C38 C31 1.422 . S
C38 N37 1.359 . S
C38 C40 1.421 . S
C39 C40 1.422 . S
C39 C42 1.321 . S
C39 H66 0.931 . S
C40 C38 1.421 . S
C40 C39 1.422 . S
C40 C64 1.417 . S
C41 H18 0.931 . S
C41 N37 1.343 . S
C41 C42 1.390 . S
C42 H20 0.930 . S
C42 C39 1.321 . S
C42 C41 1.390 . S
O43 Gd11 2.386 1_565 S
O43 C55 1.265 . S
O44 Gd10 2.353 1_656 S
O44 C55 1.242 . S
O45 Gd10 2.468 . S
O45 C63 1.263 . S
O46 Gd10 2.427 1_655 S
O46 C63 1.252 1_655 S
O47 Gd11 2.307 1_564 S
O47 C56 1.261 . S
O48 Gd10 2.388 1_655 S
O48 C56 1.252 . S
O49 Gd10 2.386 1_545 S
O49 C67 1.265 . S
O50 Gd11 2.353 1_454 S
O50 C67 1.242 . S
O51 Gd11 2.468 . S
O51 C75 1.263 . S
O52 Gd11 2.427 1_455 S
O52 C75 1.252 1_455 S
O53 Gd10 2.307 1_546 S
O53 C68 1.261 . S
O54 Gd11 2.388 1_455 S
O54 C68 1.252 . S
C55 O43 1.265 . S
C55 O44 1.242 . S
C56 O47 1.261 . S
C56 O48 1.252 . S
C57 C60 1.394 . S
C57 C62 1.370 . S
C57 C63 1.500 . S
C58 C61 1.383 . S
C58 C62 1.395 . S
C59 C60 1.396 . S
C59 C61 1.365 . S
C59 H76 0.929 1_455 S
C60 C57 1.394 . S
C60 C59 1.396 . S
C60 H77 0.930 1_455 S
C61 C58 1.383 . S
C61 C59 1.365 . S
C61 H78 0.931 . S
C62 C57 1.370 . S
C62 C58 1.395 . S
C62 H79 0.930 . S
C63 Gd10 2.805 . S
C63 O45 1.263 . S
C63 O46 1.252 1_455 S
C63 C57 1.500 . S
C64 H26 0.930 . S
C64 C40 1.417 . S
C64 C65 1.329 . S
C65 C35 1.437 . S
C65 H36 0.929 . S
C65 C64 1.329 . S
H66 C39 0.931 . S
C67 O49 1.265 . S
C67 O50 1.242 . S
C68 O53 1.261 . S
C68 O54 1.252 . S
C69 C72 1.394 . S
C69 C74 1.370 . S
C69 C75 1.500 . S
C70 C73 1.383 . S
C70 C74 1.395 . S
C71 C72 1.396 . S
C71 C73 1.365 . S
C71 H80 0.929 1_655 S
C72 C69 1.394 . S
C72 C71 1.396 . S
C72 H81 0.930 1_655 S
C73 C70 1.383 . S
C73 C71 1.365 . S
C73 H82 0.931 . S
C74 C69 1.370 . S
C74 C70 1.395 . S
C74 H83 0.930 . S
C75 Gd11 2.805 . S
C75 O51 1.263 . S
C75 O52 1.252 1_655 S
C75 C69 1.500 . S
H76 C59 0.929 1_655 S
H77 C60 0.930 1_655 S
H78 C61 0.931 . S
H79 C62 0.930 . S
H80 C71 0.929 1_455 S
H81 C72 0.930 1_455 S
H82 C73 0.931 . S
H83 C74 0.930 . S
C84 C86 1.422 . S
C84 C88 1.415 . S
C84 N90 1.369 1_455 S
C85 C86 1.421 . S
C85 C87 1.417 . S
C85 C97 1.422 . S
C86 C84 1.422 . S
C86 C85 1.421 . S
C86 N96 1.359 . S
C87 C85 1.417 . S
C87 C89 1.329 . S
C87 H106 0.930 . S
C88 C84 1.415 . S
C88 C89 1.437 . S
C88 C92 1.413 . S
C89 C87 1.329 . S
C89 C88 1.437 . S
C89 H111 0.929 . S
N90 C84 1.369 1_655 S
N90 C91 1.338 1_545 S
N90 Gd95 2.622 . S
C91 N90 1.338 1_565 S
C91 C93 1.378 . S
C91 H103 0.929 . S
C92 C88 1.413 . S
C92 C93 1.348 1_445 S
C92 H108 0.931 . S
C93 C91 1.378 . S
C93 C92 1.348 1_665 S
C93 H109 0.930 . S
Gd94 N114 2.622 1_565 S
Gd94 N121 2.570 1_455 S
Gd94 O128 2.353 1_565 S
Gd94 O129 2.468 . S
Gd94 O130 2.427 1_565 S
Gd94 O132 2.388 1_565 S
Gd94 O133 2.386 1_455 S
Gd94 O137 2.307 1_455 S
Gd94 C147 2.805 . S
Gd95 N90 2.622 . S
Gd95 N96 2.570 1_655 S
Gd95 O127 2.386 1_655 S
Gd95 O131 2.307 1_655 S
Gd95 O134 2.353 1_545 S
Gd95 O135 2.468 . S
Gd95 O136 2.427 . S
Gd95 O138 2.388 1_545 S
Gd95 C159 2.805 . S
N96 C86 1.359 . S
N96 Gd95 2.570 1_455 S
N96 C98 1.343 . S
C97 C85 1.422 . S
C97 C99 1.321 . S
C97 H105 0.931 . S
C98 N96 1.343 . S
C98 C99 1.390 . S
C98 H100 0.931 . S
C99 C97 1.321 . S
C99 C98 1.390 . S
C99 H101 0.930 . S
H100 C98 0.931 . S
H101 C99 0.930 . S
H102 C125 0.931 . S
H103 C91 0.929 . S
H104 C126 0.930 . S
H105 C97 0.931 . S
H106 C87 0.930 . S
H107 C116 0.929 . S
H108 C92 0.931 . S
H109 C93 0.930 . S
H110 C148 0.930 . S
H111 C89 0.929 . S
H112 C117 0.931 . S
H113 C118 0.930 . S
N114 Gd94 2.622 1_545 S
N114 C115 1.369 1_445 S
N114 C116 1.338 . S
C115 N114 1.369 1_665 S
C115 C119 1.415 . S
C115 C122 1.422 . S
C116 H107 0.929 . S
C116 N114 1.338 . S
C116 C118 1.378 . S
C117 H112 0.931 . S
C117 C118 1.348 . S
C117 C119 1.413 1_445 S
C118 H113 0.930 . S
C118 C116 1.378 . S
C118 C117 1.348 . S
C119 C115 1.415 . S
C119 C117 1.413 1_665 S
C119 C149 1.437 . S
H120 C149 0.929 . S
N121 Gd94 2.570 1_655 S
N121 C122 1.359 . S
N121 C125 1.343 . S
C122 C115 1.422 . S
C122 N121 1.359 . S
C122 C124 1.421 . S
C123 C124 1.422 . S
C123 C126 1.321 . S
C123 H150 0.931 . S
C124 C122 1.421 . S
C124 C123 1.422 . S
C124 C148 1.417 . S
C125 H102 0.931 . S
C125 N121 1.343 . S
C125 C126 1.390 . S
C126 H104 0.930 . S
C126 C123 1.321 . S
C126 C125 1.390 . S
O127 Gd95 2.386 1_455 S
O127 C139 1.265 . S
O128 Gd94 2.353 1_545 S
O128 C139 1.242 . S
O129 Gd94 2.468 . S
O129 C147 1.263 . S
O130 Gd94 2.427 1_545 S
O130 C147 1.252 1_545 S
O131 Gd95 2.307 1_455 S
O131 C140 1.261 . S
O132 Gd94 2.388 1_545 S
O132 C140 1.252 . S
O133 Gd94 2.386 1_655 S
O133 C151 1.265 . S
O134 Gd95 2.353 1_565 S
O134 C151 1.242 . S
O135 Gd95 2.468 . S
O135 C159 1.263 . S
O136 Gd95 2.427 . S
O136 C159 1.252 . S
O137 Gd94 2.307 1_655 S
O137 C152 1.261 . S
O138 Gd95 2.388 1_565 S
O138 C152 1.252 . S
C139 O127 1.265 . S
C139 O128 1.242 . S
C140 O131 1.261 . S
C140 O132 1.252 . S
C141 C144 1.394 1_565 S
C141 C146 1.370 . S
C141 C147 1.500 . S
C142 C145 1.383 . S
C142 C146 1.395 . S
C143 C144 1.396 1_565 S
C143 C145 1.365 . S
C143 H160 0.929 1_565 S
C144 C141 1.394 1_545 S
C144 C143 1.396 1_545 S
C144 H161 0.930 . S
C145 C142 1.383 . S
C145 C143 1.365 . S
C145 H162 0.931 . S
C146 C141 1.370 . S
C146 C142 1.395 . S
C146 H163 0.930 . S
C147 Gd94 2.805 . S
C147 O129 1.263 . S
C147 O130 1.252 1_565 S
C147 C141 1.500 . S
C148 H110 0.930 . S
C148 C124 1.417 . S
C148 C149 1.329 . S
C149 C119 1.437 . S
C149 H120 0.929 . S
C149 C148 1.329 . S
H150 C123 0.931 . S
C151 O133 1.265 . S
C151 O134 1.242 . S
C152 O137 1.261 . S
C152 O138 1.252 . S
C153 C156 1.394 . S
C153 C158 1.370 . S
C153 C159 1.500 . S
C154 C157 1.383 . S
C154 C158 1.395 . S
C155 C156 1.396 . S
C155 C157 1.365 . S
C155 H164 0.929 . S
C156 C153 1.394 . S
C156 C155 1.396 . S
C156 H165 0.930 1_545 S
C157 C154 1.383 . S
C157 C155 1.365 . S
C157 H166 0.931 . S
C158 C153 1.370 . S
C158 C154 1.395 . S
C158 H167 0.930 . S
C159 Gd95 2.805 . S
C159 O135 1.263 . S
C159 O136 1.252 . S
C159 C153 1.500 . S
H160 C143 0.929 1_545 S
H161 C144 0.930 . S
H162 C145 0.931 . S
H163 C146 0.930 . S
H164 C155 0.929 . S
H165 C156 0.930 1_565 S
H166 C157 0.931 . S
H167 C158 0.930 . S
Zn168 O174 1.920 . S
Zn168 O180 1.898 . S
Zn168 O183 1.905 . S
Zn169 O177 1.905 . S
Zn169 O178 1.898 . S
Zn169 O186 1.920 . S
Zn170 O173 2.080 . S
Zn170 O176 2.114 . S
Zn170 O179 2.120 . S
Zn170 O181 2.120 . S
Zn170 O182 2.114 . S
Zn170 O185 2.080 . S
C171 O176 1.166 . S
C171 O177 1.182 . S
C172 O178 1.167 . S
C172 O179 1.299 . S
O173 Zn170 2.080 . S
O173 C187 1.305 . S
O174 Zn168 1.920 . S
O174 C187 1.234 . S
C175 O180 1.167 . S
C175 O181 1.299 . S
O176 Zn170 2.114 . S
O176 C171 1.166 . S
O177 Zn169 1.905 . S
O177 C171 1.182 . S
O178 Zn169 1.898 . S
O178 C172 1.167 . S
O179 Zn170 2.120 . S
O179 C172 1.299 . S
O180 Zn168 1.898 . S
O180 C175 1.167 . S
O181 Zn170 2.120 . S
O181 C175 1.299 . S
O182 Zn170 2.114 . S
O182 C184 1.166 . S
O183 Zn168 1.905 . S
O183 C184 1.182 . S
C184 O182 1.166 . S
C184 O183 1.182 . S
O185 Zn170 2.080 . S
O185 C188 1.305 . S
O186 Zn169 1.920 . S
O186 C188 1.234 . S
C187 O173 1.305 . S
C187 O174 1.234 . S
C188 O185 1.305 . S
C188 O186 1.234 . S
Zn189 O195 1.920 . S
Zn189 O201 1.898 . S
Zn189 O204 1.905 . S
Zn190 O198 1.905 . S
Zn190 O199 1.898 . S
Zn190 O207 1.920 . S
Zn191 O194 2.080 . S
Zn191 O197 2.114 . S
Zn191 O200 2.120 . S
Zn191 O202 2.120 . S
Zn191 O203 2.114 . S
Zn191 O206 2.080 . S
C192 O197 1.166 . S
C192 O198 1.182 . S
C193 O199 1.167 . S
C193 O200 1.299 . S
O194 Zn191 2.080 . S
O194 C208 1.305 . S
O195 Zn189 1.920 . S
O195 C208 1.234 . S
C196 O201 1.167 . S
C196 O202 1.299 . S
O197 Zn191 2.114 . S
O197 C192 1.166 . S
O198 Zn190 1.905 . S
O198 C192 1.182 . S
O199 Zn190 1.898 . S
O199 C193 1.167 . S
O200 Zn191 2.120 . S
O200 C193 1.299 . S
O201 Zn189 1.898 . S
O201 C196 1.167 . S
O202 Zn191 2.120 . S
O202 C196 1.299 . S
O203 Zn191 2.114 . S
O203 C205 1.166 . S
O204 Zn189 1.905 . S
O204 C205 1.182 . S
C205 O203 1.166 . S
C205 O204 1.182 . S
O206 Zn191 2.080 . S
O206 C209 1.305 . S
O207 Zn190 1.920 . S
O207 C209 1.234 . S
C208 O194 1.305 . S
C208 O195 1.234 . S
C209 O206 1.305 . S
C209 O207 1.234 . S
C210 C211 1.387 . S
C210 H214 0.950 . S
C210 C219 1.390 . S
C211 C210 1.387 . S
C211 C213 1.387 . S
H212 C219 0.950 . S
C213 C211 1.387 . S
C213 C215 1.390 . S
C213 H217 0.950 . S
H214 C210 0.950 . S
C215 C213 1.390 . S
C215 C216 1.387 . S
C215 H218 0.950 . S
C216 C215 1.387 . S
C216 C219 1.387 . S
H217 C213 0.950 . S
H218 C215 0.950 . S
C219 C210 1.390 . S
C219 H212 0.950 . S
C219 C216 1.387 . S
C220 C221 1.387 . S
C220 H224 0.950 . S
C220 C229 1.390 . S
C221 C220 1.387 . S
C221 C223 1.387 . S
H222 C229 0.950 . S
C223 C221 1.387 . S
C223 C225 1.390 . S
C223 H227 0.950 . S
H224 C220 0.950 . S
C225 C223 1.390 . S
C225 C226 1.387 . S
C225 H228 0.950 . S
C226 C225 1.387 . S
C226 C229 1.387 . S
H227 C223 0.950 . S
H228 C225 0.950 . S
C229 C220 1.390 . S
C229 H222 0.950 . S
C229 C226 1.387 . S
C230 C231 1.387 . S
C230 H234 0.950 . S
C230 C239 1.390 . S
C231 C230 1.387 . S
C231 C233 1.387 . S
H232 C239 0.950 . S
C233 C231 1.387 . S
C233 C235 1.390 . S
C233 H237 0.950 . S
H234 C230 0.950 . S
C235 C233 1.390 . S
C235 C236 1.387 . S
C235 H238 0.950 . S
C236 C235 1.387 . S
C236 C239 1.387 . S
H237 C233 0.950 . S
H238 C235 0.950 . S
C239 C230 1.390 . S
C239 H232 0.950 . S
C239 C236 1.387 . S
C240 C241 1.387 . S
C240 H244 0.950 . S
C240 C249 1.390 . S
C241 C240 1.387 . S
C241 C243 1.387 . S
H242 C249 0.950 . S
C243 C241 1.387 . S
C243 C245 1.390 . S
C243 H247 0.950 . S
H244 C240 0.950 . S
C245 C243 1.390 . S
C245 C246 1.387 . S
C245 H248 0.950 . S
C246 C245 1.387 . S
C246 C249 1.387 . S
H247 C243 0.950 . S
H248 C245 0.950 . S
C249 C240 1.390 . S
C249 H242 0.950 . S
C249 C246 1.387 . S
C250 C251 1.387 . S
C250 H254 0.950 1_565 S
C250 C259 1.390 . S
C251 C250 1.387 . S
C251 C253 1.387 . S
H252 C259 0.950 . S
C253 C251 1.387 . S
C253 C255 1.390 . S
C253 H257 0.950 . S
H254 C250 0.950 1_545 S
C255 C253 1.390 . S
C255 C256 1.387 . S
C255 H258 0.950 . S
C256 C255 1.387 . S
C256 C259 1.387 . S
H257 C253 0.950 . S
H258 C255 0.950 . S
C259 C250 1.390 . S
C259 H252 0.950 . S
C259 C256 1.387 . S
C260 C261 1.387 . S
C260 H264 0.950 . S
C260 C269 1.390 . S
C261 C260 1.387 . S
C261 C263 1.387 . S
H262 C269 0.950 . S
C263 C261 1.387 . S
C263 C265 1.390 . S
C263 H267 0.950 . S
H264 C260 0.950 . S
C265 C263 1.390 . S
C265 C266 1.387 . S
C265 H268 0.950 . S
C266 C265 1.387 . S
C266 C269 1.387 . S
H267 C263 0.950 . S
H268 C265 0.950 . S
C269 C260 1.390 . S
C269 H262 0.950 . S
C269 C266 1.387 . S
C270 C271 1.387 . S
C270 H274 0.950 . S
C270 C279 1.390 . S
C271 C270 1.387 . S
C271 C273 1.387 . S
H272 C279 0.950 . S
C273 C271 1.387 . S
C273 C275 1.390 . S
C273 H277 0.950 . S
H274 C270 0.950 . S
C275 C273 1.390 . S
C275 C276 1.387 . S
C275 H278 0.950 . S
C276 C275 1.387 . S
C276 C279 1.387 . S
H277 C273 0.950 . S
H278 C275 0.950 . S
C279 C270 1.390 . S
C279 H272 0.950 . S
C279 C276 1.387 . S
C280 C281 1.387 . S
C280 H284 0.950 . S
C280 C289 1.390 . S
C281 C280 1.387 . S
C281 C283 1.387 . S
H282 C289 0.950 . S
C283 C281 1.387 . S
C283 C285 1.390 . S
C283 H287 0.950 . S
H284 C280 0.950 . S
C285 C283 1.390 . S
C285 C286 1.387 . S
C285 H288 0.950 . S
C286 C285 1.387 . S
C286 C289 1.387 . S
H287 C283 0.950 . S
H288 C285 0.950 . S
C289 C280 1.390 . S
C289 H282 0.950 . S
C289 C286 1.387 . S
C290 C291 1.387 . S
C290 H294 0.950 . S
C290 C299 1.390 . S
C291 C290 1.387 . S
C291 C293 1.387 . S
H292 C299 0.950 . S
C293 C291 1.387 . S
C293 C295 1.390 . S
C293 H297 0.950 . S
H294 C290 0.950 . S
C295 C293 1.390 . S
C295 C296 1.387 . S
C295 H298 0.950 . S
C296 C295 1.387 . S
C296 C299 1.387 . S
H297 C293 0.950 . S
H298 C295 0.950 . S
C299 C290 1.390 . S
C299 H292 0.950 . S
C299 C296 1.387 . S
C300 C301 1.387 . S
C300 H304 0.950 . S
C300 C309 1.390 . S
C301 C300 1.387 . S
C301 C303 1.387 . S
H302 C309 0.950 . S
C303 C301 1.387 . S
C303 C305 1.390 . S
C303 H307 0.950 . S
H304 C300 0.950 . S
C305 C303 1.390 . S
C305 C306 1.387 . S
C305 H308 0.950 . S
C306 C305 1.387 . S
C306 C309 1.387 . S
H307 C303 0.950 . S
H308 C305 0.950 . S
C309 C300 1.390 . S
C309 H302 0.950 . S
C309 C306 1.387 . S
C310 C311 1.387 . S
C310 H314 0.950 . S
C310 C319 1.390 . S
C311 C310 1.387 . S
C311 C313 1.387 . S
H312 C319 0.950 . S
C313 C311 1.387 . S
C313 C315 1.390 . S
C313 H317 0.950 . S
H314 C310 0.950 . S
C315 C313 1.390 . S
C315 C316 1.387 . S
C315 H318 0.950 . S
C316 C315 1.387 . S
C316 C319 1.387 . S
H317 C313 0.950 . S
H318 C315 0.950 . S
C319 C310 1.390 . S
C319 H312 0.950 . S
C319 C316 1.387 . S
C320 C321 1.387 . S
C320 H324 0.950 . S
C320 C329 1.390 . S
C321 C320 1.387 . S
C321 C323 1.387 . S
H322 C329 0.950 . S
C323 C321 1.387 . S
C323 C325 1.390 . S
C323 H327 0.950 . S
H324 C320 0.950 . S
C325 C323 1.390 . S
C325 C326 1.387 . S
C325 H328 0.950 . S
C326 C325 1.387 . S
C326 C329 1.387 . S
H327 C323 0.950 . S
H328 C325 0.950 . S
C329 C320 1.390 . S
C329 H322 0.950 . S
C329 C326 1.387 . S
C211 C58 1.183 . S
C216 C187 1.297 . S
C221 C139 1.589 . S
C226 C193 1.421 . S
C231 C67 1.661 . S
C236 C184 1.500 . S
C241 C154 1.272 . S
C246 C209 1.303 . S
C251 C56 1.656 . S
C256 C175 1.465 . S
C266 C192 1.541 . S
C261 C152 1.648 . S
C271 C142 1.183 . S
C276 C188 1.297 . S
C286 C205 1.540 . S
C281 C68 1.649 . S
C296 C172 1.465 . S
C291 C140 1.656 . S
C306 C208 1.304 . S
C301 C70 1.270 . S
C316 C171 1.497 . S
C311 C151 1.660 . S
C326 C196 1.417 . S
C321 C55 1.588 . S
