# Generated by pormake.
# Topology ocu, (6,8)-cn, num edge types: 1
# Building blocks:
#     Node 0, Type 0, BuildingBlock: PAMTOO_clean_sbu_0, # of connection points: 6
#     Node 1, Type 0, BuildingBlock: PAMTOO_clean_sbu_0, # of connection points: 6
#     Node 2, Type 0, BuildingBlock: PAMTOO_clean_sbu_0, # of connection points: 6
#     Node 3, Type 0, BuildingBlock: PAMTOO_clean_sbu_0, # of connection points: 6
#     Node 4, Type 0, BuildingBlock: PAMTOO_clean_sbu_0, # of connection points: 6
#     Node 5, Type 0, BuildingBlock: PAMTOO_clean_sbu_0, # of connection points: 6
#     Node 6, Type 0, BuildingBlock: PAMTOO_clean_sbu_0, # of connection points: 6
#     Node 7, Type 0, BuildingBlock: PAMTOO_clean_sbu_0, # of connection points: 6
#     Node 8, Type 1, BuildingBlock: TAGTUT_clean_sbu_1, # of connection points: 8
#     Node 9, Type 1, BuildingBlock: TAGTUT_clean_sbu_1, # of connection points: 8
#     Node 10, Type 1, BuildingBlock: TAGTUT_clean_sbu_1, # of connection points: 8
#     Node 11, Type 1, BuildingBlock: TAGTUT_clean_sbu_1, # of connection points: 8
#     Node 12, Type 1, BuildingBlock: TAGTUT_clean_sbu_1, # of connection points: 8
#     Node 13, Type 1, BuildingBlock: TAGTUT_clean_sbu_1, # of connection points: 8
#     Edge 14, Type (0, 1), BuildingBlock: OJICUG_clean_linker_0, # of connection points: 2
#     Edge 15, Type (0, 1), BuildingBlock: OJICUG_clean_linker_0, # of connection points: 2
#     Edge 16, Type (0, 1), BuildingBlock: OJICUG_clean_linker_0, # of connection points: 2
#     Edge 17, Type (0, 1), BuildingBlock: OJICUG_clean_linker_0, # of connection points: 2
#     Edge 18, Type (0, 1), BuildingBlock: OJICUG_clean_linker_0, # of connection points: 2
#     Edge 19, Type (0, 1), BuildingBlock: OJICUG_clean_linker_0, # of connection points: 2
#     Edge 20, Type (0, 1), BuildingBlock: OJICUG_clean_linker_0, # of connection points: 2
#     Edge 21, Type (0, 1), BuildingBlock: OJICUG_clean_linker_0, # of connection points: 2
#     Edge 22, Type (0, 1), BuildingBlock: OJICUG_clean_linker_0, # of connection points: 2
#     Edge 23, Type (0, 1), BuildingBlock: OJICUG_clean_linker_0, # of connection points: 2
#     Edge 24, Type (0, 1), BuildingBlock: OJICUG_clean_linker_0, # of connection points: 2
#     Edge 25, Type (0, 1), BuildingBlock: OJICUG_clean_linker_0, # of connection points: 2
#     Edge 26, Type (0, 1), BuildingBlock: OJICUG_clean_linker_0, # of connection points: 2
#     Edge 27, Type (0, 1), BuildingBlock: OJICUG_clean_linker_0, # of connection points: 2
#     Edge 28, Type (0, 1), BuildingBlock: OJICUG_clean_linker_0, # of connection points: 2
#     Edge 29, Type (0, 1), BuildingBlock: OJICUG_clean_linker_0, # of connection points: 2
#     Edge 30, Type (0, 1), BuildingBlock: OJICUG_clean_linker_0, # of connection points: 2
#     Edge 31, Type (0, 1), BuildingBlock: OJICUG_clean_linker_0, # of connection points: 2
#     Edge 32, Type (0, 1), BuildingBlock: OJICUG_clean_linker_0, # of connection points: 2
#     Edge 33, Type (0, 1), BuildingBlock: OJICUG_clean_linker_0, # of connection points: 2
#     Edge 34, Type (0, 1), BuildingBlock: OJICUG_clean_linker_0, # of connection points: 2
#     Edge 35, Type (0, 1), BuildingBlock: OJICUG_clean_linker_0, # of connection points: 2
#     Edge 36, Type (0, 1), BuildingBlock: OJICUG_clean_linker_0, # of connection points: 2
#     Edge 37, Type (0, 1), BuildingBlock: OJICUG_clean_linker_0, # of connection points: 2
#     Edge 38, Type (0, 1), BuildingBlock: OJICUG_clean_linker_0, # of connection points: 2
#     Edge 39, Type (0, 1), BuildingBlock: OJICUG_clean_linker_0, # of connection points: 2
#     Edge 40, Type (0, 1), BuildingBlock: OJICUG_clean_linker_0, # of connection points: 2
#     Edge 41, Type (0, 1), BuildingBlock: OJICUG_clean_linker_0, # of connection points: 2
#     Edge 42, Type (0, 1), BuildingBlock: OJICUG_clean_linker_0, # of connection points: 2
#     Edge 43, Type (0, 1), BuildingBlock: OJICUG_clean_linker_0, # of connection points: 2
#     Edge 44, Type (0, 1), BuildingBlock: OJICUG_clean_linker_0, # of connection points: 2
#     Edge 45, Type (0, 1), BuildingBlock: OJICUG_clean_linker_0, # of connection points: 2
#     Edge 46, Type (0, 1), BuildingBlock: OJICUG_clean_linker_0, # of connection points: 2
#     Edge 47, Type (0, 1), BuildingBlock: OJICUG_clean_linker_0, # of connection points: 2
#     Edge 48, Type (0, 1), BuildingBlock: OJICUG_clean_linker_0, # of connection points: 2
#     Edge 49, Type (0, 1), BuildingBlock: OJICUG_clean_linker_0, # of connection points: 2
#     Edge 50, Type (0, 1), BuildingBlock: OJICUG_clean_linker_0, # of connection points: 2
#     Edge 51, Type (0, 1), BuildingBlock: OJICUG_clean_linker_0, # of connection points: 2
#     Edge 52, Type (0, 1), BuildingBlock: OJICUG_clean_linker_0, # of connection points: 2
#     Edge 53, Type (0, 1), BuildingBlock: OJICUG_clean_linker_0, # of connection points: 2
#     Edge 54, Type (0, 1), BuildingBlock: OJICUG_clean_linker_0, # of connection points: 2
#     Edge 55, Type (0, 1), BuildingBlock: OJICUG_clean_linker_0, # of connection points: 2
#     Edge 56, Type (0, 1), BuildingBlock: OJICUG_clean_linker_0, # of connection points: 2
#     Edge 57, Type (0, 1), BuildingBlock: OJICUG_clean_linker_0, # of connection points: 2
#     Edge 58, Type (0, 1), BuildingBlock: OJICUG_clean_linker_0, # of connection points: 2
#     Edge 59, Type (0, 1), BuildingBlock: OJICUG_clean_linker_0, # of connection points: 2
#     Edge 60, Type (0, 1), BuildingBlock: OJICUG_clean_linker_0, # of connection points: 2
#     Edge 61, Type (0, 1), BuildingBlock: OJICUG_clean_linker_0, # of connection points: 2
# Relax obj value: 0.305
# Max RMSD: 0.322
# Mean RMSD: 0.144
data_MOF--net-ocu--node1-PAMTOO_clean_sbu_0--node2-TAGTUT_clean_sbu_1--edge1-OJICUG_clean_linker_0
_symmetry_space_group_name_H-M    P1
_symmetry_Int_Tables_number       1
_symmetry_cell_setting            triclinic
loop_
_symmetry_equiv_pos_as_xyz
'x, y, z'
_cell_length_a     29.386357
_cell_length_b     29.804421
_cell_length_c     30.300314
_cell_angle_alpha  92.535861
_cell_angle_beta   93.625145
_cell_angle_gamma 111.13434
loop_
_atom_site_label
_atom_site_type_symbol
_atom_site_fract_x
_atom_site_fract_y
_atom_site_fract_z
_atom_type_partial_charge
Dy0 Dy 0.35769 0.35681 0.33803 0.0
Dy1 Dy 0.25951 0.31363 0.27275 0.0
C2 C 0.35049 0.27596 0.25784 0.0
O3 O 0.38119 0.39612 0.27705 0.0
O4 O 0.30701 0.37897 0.23815 0.0
O5 O 0.43194 0.40715 0.35259 0.0
O6 O 0.39344 0.36431 0.40359 0.0
O7 O 0.24019 0.3525 0.33082 0.0
O8 O 0.31638 0.40481 0.35477 0.0
O9 O 0.23825 0.26664 0.3303 0.0
O10 O 0.30861 0.29692 0.37681 0.0
O11 O 0.19653 0.25414 0.24227 0.0
O12 O 0.20841 0.32758 0.22661 0.0
C13 C 0.35495 0.40252 0.24299 0.0
O14 O 0.37363 0.30018 0.29541 0.0
O15 O 0.30735 0.27664 0.24343 0.0
C16 C 0.47436 0.37429 0.4008 0.0
C17 C 0.52651 0.31682 0.4251 0.0
C18 C 0.50647 0.31268 0.38142 0.0
C19 C 0.48064 0.34161 0.36919 0.0
C20 C 0.49728 0.38068 0.44372 0.0
C21 C 0.52374 0.35207 0.45582 0.0
C22 C 0.43545 0.39251 0.39198 0.0
C23 C 0.26887 0.38985 0.35687 0.0
C24 C 0.26266 0.2673 0.36846 0.0
C25 C 0.12868 0.27883 0.23608 0.0
C26 C 1.05424 0.31187 0.25728 0.0
C27 C 0.08455 0.30381 0.29126 0.0
C28 C 0.12161 0.28723 0.28068 0.0
C29 C 0.09401 0.27981 0.20274 0.0
C30 C 1.05656 0.29574 0.21333 0.0
C31 C 0.17755 0.28309 0.22426 0.0
H32 H 0.50913 0.28585 0.35742 0.0
H33 H 0.46288 0.33617 0.33595 0.0
H34 H 0.49203 0.40535 0.46846 0.0
H35 H 0.53967 0.35553 0.48963 0.0
H36 H 0.08347 0.31583 0.32533 0.0
H37 H 0.14805 0.28644 0.30692 0.0
H38 H 0.09905 0.27363 0.16818 0.0
H39 H 1.03399 0.30177 0.18628 0.0
Dy40 Dy 0.86039 0.37589 0.32043 0.0
Dy41 Dy 0.75471 0.31581 0.34999 0.0
C42 C 0.83166 0.39704 0.41337 0.0
O43 O 0.8698 0.31093 0.35055 0.0
O44 O 0.79687 0.27337 0.38086 0.0
O45 O 0.93236 0.41001 0.35494 0.0
O46 O 0.92112 0.4181 0.28493 0.0
O47 O 0.75718 0.27165 0.28915 0.0
O48 O 0.8241 0.32469 0.25873 0.0
O49 O 0.74479 0.36598 0.29834 0.0
O50 O 0.82091 0.41728 0.28485 0.0
O51 O 0.68843 0.32849 0.36305 0.0
O52 O 0.69206 0.25748 0.36829 0.0
C53 C 0.8426 0.27803 0.37553 0.0
O54 O 0.83828 0.41504 0.37493 0.0
O55 O 0.80043 0.353 0.41303 0.0
C56 C 0.96652 0.4877 0.33042 0.0
C57 C 0.96998 0.57661 0.30463 0.0
C58 C 0.93624 0.55335 0.33446 0.0
C59 C 0.93362 0.50787 0.34616 0.0
C60 C 1.00877 0.51811 0.31303 0.0
C61 C 1.01145 0.56387 0.30163 0.0
C62 C 0.94967 0.43498 0.32151 0.0
C63 C 0.784 0.28483 0.2555 0.0
C64 C 0.77312 0.40323 0.27849 0.0
C65 C 0.62392 0.26082 0.32757 0.0
C66 C 0.5929 0.1707 0.28658 0.0
C67 C 0.61957 0.20935 0.2622 0.0
C68 C 0.638 0.25539 0.28457 0.0
C69 C 0.57984 0.22662 0.33862 0.0
C70 C 0.56094 0.182 0.31408 0.0
C71 C 0.66361 0.28225 0.36302 0.0
H72 H 0.9053 0.56406 0.33948 0.0
H73 H 0.90188 0.48634 0.36143 0.0
H74 H 1.03653 0.50493 0.30339 0.0
H75 H 1.04008 0.58328 0.28113 0.0
H76 H 0.63769 0.20282 0.23392 0.0
H77 H 0.66945 0.28269 0.27272 0.0
H78 H 0.56496 0.23065 0.36939 0.0
H79 H 0.5309 0.15371 0.32671 0.0
Dy80 Dy 0.87243 0.81688 0.26537 0.0
Dy81 Dy 0.91865 0.91387 0.21232 0.0
C82 C 0.95382 0.90634 0.31177 0.0
O83 O 0.83725 0.86693 0.28994 0.0
O84 O 0.84988 0.91935 0.23421 0.0
O85 O 0.84413 0.781 0.32327 0.0
O86 O 0.85413 0.74 0.2663 0.0
O87 O 0.85664 0.86039 0.16724 0.0
O88 O 0.81132 0.81247 0.21846 0.0
O89 O 0.96818 0.87261 0.20872 0.0
O90 O 0.90492 0.80107 0.20504 0.0
O91 O 0.95231 0.94528 0.15379 0.0
O92 O 0.94411 0.99111 0.20756 0.0
C93 C 0.82836 0.90128 0.26946 0.0
O94 O 0.94465 0.86112 0.29959 0.0
O95 O 0.94275 0.93411 0.28411 0.0
C96 C 0.87978 0.72424 0.33734 0.0
C97 C 0.95434 0.7162 0.39485 0.0
C98 C 0.9548 0.70802 0.34904 0.0
C99 C 0.9179 0.71241 0.32033 0.0
C100 C 0.87769 0.72878 0.38331 0.0
C101 C 0.9149 0.72522 0.41183 0.0
C102 C 0.84793 0.74081 0.30854 0.0
C103 C 0.81605 0.82764 0.17871 0.0
C104 C 0.94837 0.82731 0.19412 0.0
C105 C 0.90726 0.99478 0.13804 0.0
C106 C 0.80636 0.97762 0.13289 0.0
C107 C 0.82416 0.94647 0.10938 0.0
C108 C 0.87416 0.95597 0.11058 0.0
C109 C 0.89082 1.03051 0.15439 0.0
C110 C 0.84075 1.02206 0.15172 0.0
C111 C 0.9462 0.98551 0.16483 0.0
H112 H 0.9844 0.69979 0.33554 0.0
H113 H 0.92048 0.70862 0.28495 0.0
H114 H 0.84862 0.73769 0.39715 0.0
H115 H 0.91304 0.72985 0.44726 0.0
H116 H 0.80019 0.91267 0.09275 0.0
H117 H 0.88569 0.92853 0.09566 0.0
H118 H 0.91569 0.06171 0.17452 0.0
H119 H 0.82931 0.04933 0.16693 0.0
Dy120 Dy 0.29947 0.85583 0.33085 0.0
Dy121 Dy 0.37723 0.80831 0.3484 0.0
C122 C 0.38847 0.90254 0.40353 0.0
O123 O 0.34547 0.87152 0.27271 0.0
O124 O 0.41613 0.87274 0.30779 0.0
O125 O 0.26224 0.88473 0.28255 0.0
O126 O 0.24755 0.88623 0.35168 0.0
O127 O 0.33196 0.76521 0.28796 0.0
O128 O 0.26274 0.78064 0.29966 0.0
O129 O 0.30871 0.75758 0.37555 0.0
O130 O 0.27115 0.81096 0.38906 0.0
O131 O 0.40706 0.76992 0.39368 0.0
O132 O 0.44107 0.79313 0.33321 0.0
C133 C 0.39342 0.88596 0.27462 0.0
O134 O 0.3652 0.91271 0.36931 0.0
O135 O 0.38465 0.85805 0.40721 0.0
C136 C 0.25152 0.95313 0.31387 0.0
C137 C 0.26457 1.04313 0.35476 0.0
C138 C 0.21832 1.01315 0.33408 0.0
C139 C 0.21187 0.96813 0.31421 0.0
C140 C 0.29905 0.98633 0.32594 0.0
C141 C 0.30565 1.03162 0.34587 0.0
C142 C 0.24205 0.90166 0.31282 0.0
C143 C 0.28461 0.75453 0.28044 0.0
C144 C 0.27561 0.76927 0.39573 0.0
C145 C 0.42942 0.71535 0.35068 0.0
C146 C 0.4146 0.64148 0.2851 0.0
C147 C 0.46222 0.6687 0.30465 0.0
C148 C 0.46948 0.70546 0.33725 0.0
C149 C 0.38169 0.68327 0.33701 0.0
C150 C 0.3743 0.6462 0.3045 0.0
C151 C 0.43681 0.76483 0.36555 0.0
H152 H 0.18538 1.02041 0.33871 0.0
H153 H 0.17507 0.94301 0.30428 0.0
H154 H 0.33032 0.97533 0.32479 0.0
H155 H 0.34205 0.0547 0.3593 0.0
H156 H 0.4946 0.6665 0.29111 0.0
H157 H 0.50647 0.72992 0.34749 0.0
H158 H 0.35011 0.69028 0.34735 0.0
H159 H 0.33724 0.62493 0.29127 0.0
Dy160 Dy 0.37744 0.88237 0.80075 0.0
Dy161 Dy 0.26919 0.80665 0.80757 0.0
C162 C 0.3178 0.89538 0.8774 0.0
O163 O 0.38631 0.83603 0.85539 0.0
O164 O 0.31846 0.76886 0.83554 0.0
O165 O 0.43467 0.92592 0.76322 0.0
O166 O 0.44549 0.93034 0.83524 0.0
O167 O 0.29415 0.80838 0.73979 0.0
O168 O 0.37027 0.81445 0.76051 0.0
O169 O 0.25393 0.86966 0.7814 0.0
O170 O 0.32859 0.9072 0.75387 0.0
O171 O 0.21321 0.74646 0.77077 0.0
O172 O 0.20094 0.76984 0.83619 0.0
C173 C 0.36124 0.78981 0.85861 0.0
O174 O 0.3378 0.91635 0.84287 0.0
O175 O 0.29372 0.84857 0.87384 0.0
C176 C 0.51444 0.94294 0.79462 0.0
C177 C 0.60073 0.94824 0.75723 0.0
C178 C 0.59693 0.9896 0.77864 0.0
C179 C 0.55377 0.98692 0.79687 0.0
C180 C 0.52113 0.9004 0.78074 0.0
C181 C 0.56455 0.90298 0.76269 0.0
C182 C 0.46532 0.94358 0.79835 0.0
C183 C 0.33138 0.79613 0.73274 0.0
C184 C 0.28171 0.90102 0.75562 0.0
C185 C 0.17973 0.68703 0.81903 0.0
C186 C 0.17847 0.60996 0.86865 0.0
C187 C 0.13675 0.62265 0.86381 0.0
C188 C 0.13747 0.66121 0.839 0.0
C189 C 0.21883 0.67036 0.8194 0.0
C190 C 0.21825 0.63204 0.84415 0.0
C191 C 0.18716 0.73517 0.80459 0.0
H192 H 0.62401 1.02518 0.77596 0.0
H193 H 0.54935 1.01997 0.8083 0.0
H194 H 0.49117 0.86589 0.77974 0.0
H195 H 0.56705 0.87026 0.74794 0.0
H196 H 0.1057 0.60615 0.88282 0.0
H197 H 0.1068 0.67319 0.83826 0.0
H198 H 0.25154 0.68934 0.80358 0.0
H199 H 0.2505 0.6225 0.84737 0.0
Dy200 Dy 0.36991 0.33096 0.78403 0.0
Dy201 Dy 0.27083 0.28259 0.83775 0.0
C202 C 0.27406 0.24784 0.74064 0.0
O203 O 0.3239 0.37721 0.76967 0.0
O204 O 0.24852 0.32357 0.78454 0.0
O205 O 0.40978 0.32174 0.72974 0.0
O206 O 0.43856 0.38767 0.77283 0.0
O207 O 0.31398 0.35095 0.87796 0.0
O208 O 0.38954 0.36211 0.8531 0.0
O209 O 0.329 0.26308 0.8755 0.0
O210 O 0.38441 0.27281 0.82299 0.0
O211 O 0.22642 0.22375 0.87412 0.0
O212 O 0.20093 0.2808 0.85673 0.0
C213 C 0.2753 0.36258 0.76589 0.0
O214 O 0.30921 0.28826 0.73473 0.0
O215 O 0.2677 0.23248 0.78034 0.0
C216 C 0.49448 0.35631 0.74198 0.0
C217 C 0.56946 0.32083 0.72747 0.0
C218 C 0.54295 0.30914 0.76512 0.0
C219 C 0.50559 0.32666 0.77225 0.0
C220 C 0.52408 0.37202 0.70713 0.0
C221 C 0.56141 0.35459 0.69997 0.0
C222 C 0.44678 0.36187 0.74044 0.0
C223 C 0.36192 0.36982 0.8825 0.0
C224 C 0.36844 0.25758 0.86162 0.0
C225 C 0.18184 0.24915 0.92514 0.0
C226 C 0.14972 0.2724 1.00553 0.0
C227 C 0.19599 0.30075 0.99256 0.0
C228 C 0.21195 0.28906 0.95284 0.0
C229 C 0.13777 0.21833 0.93949 0.0
C230 C 0.122 0.22959 0.97967 0.0
C231 C 0.19372 0.24314 0.87955 0.0
H232 H 0.54878 0.28385 0.78732 0.0
H233 H 0.48295 0.31406 0.79934 0.0
H234 H 0.51574 0.39457 0.68325 0.0
H235 H 0.58076 0.36418 0.67049 0.0
H236 H 0.21837 0.33421 1.01103 0.0
H237 H 0.24634 0.31306 0.94232 0.0
H238 H 0.11439 0.18701 0.91862 0.0
H239 H 0.08677 0.20628 0.98909 0.0
Dy240 Dy 0.7767 0.33324 0.78449 0.0
Dy241 Dy 0.83704 0.2699 0.82111 0.0
C242 C 0.85263 0.37119 0.87153 0.0
O243 O 0.85536 0.37681 0.77716 0.0
O244 O 0.88806 0.31741 0.77523 0.0
O245 O 0.76742 0.38781 0.74389 0.0
O246 O 0.71157 0.35054 0.78647 0.0
O247 O 0.79294 0.22861 0.75884 0.0
O248 O 0.7828 0.29099 0.72397 0.0
O249 O 0.78001 0.27081 0.86612 0.0
O250 O 0.7234 0.26704 0.81149 0.0
O251 O 0.828 0.21202 0.86406 0.0
O252 O 0.8935 0.2394 0.82947 0.0
C253 C 0.89061 0.36147 0.76772 0.0
O254 O 0.81003 0.368 0.85222 0.0
O255 O 0.87376 0.34049 0.86083 0.0
C256 C 0.73417 0.43374 0.78779 0.0
C257 C 0.73809 0.50213 0.85647 0.0
C258 C 0.69363 0.47595 0.83108 0.0
C259 C 0.69176 0.44208 0.79702 0.0
C260 C 0.77933 0.46285 0.81021 0.0
C261 C 0.7813 0.49695 0.84411 0.0
C262 C 0.72955 0.38822 0.76384 0.0
C263 C 0.78575 0.24806 0.72229 0.0
C264 C 0.734 0.25791 0.85188 0.0
C265 C 0.85548 0.15555 0.83069 0.0
C266 C 0.85432 0.08315 0.76809 0.0
C267 C 0.81552 0.10028 0.76687 0.0
C268 C 0.81608 0.13614 0.79815 0.0
C269 C 0.88855 0.13207 0.83728 0.0
C270 C 0.8867 0.09453 0.80699 0.0
C271 C 0.86606 0.20415 0.85126 0.0
H272 H 0.65939 0.47831 0.83988 0.0
H273 H 0.65653 0.41949 0.78058 0.0
H274 H 0.81261 0.45671 0.804 0.0
H275 H 0.81616 0.51696 0.86249 0.0
H276 H 0.78839 0.09135 0.73886 0.0
H277 H 0.78846 0.15204 0.79397 0.0
H278 H 0.91814 0.14531 0.86334 0.0
H279 H 0.91491 0.07928 0.81095 0.0
Dy280 Dy 0.87398 0.85614 0.85161 0.0
Dy281 Dy 0.77852 0.80485 0.78641 0.0
C282 C 0.87421 0.77407 0.77454 0.0
O283 O 0.8932 0.89631 0.78873 0.0
O284 O 0.82104 0.86516 0.74476 0.0
O285 O 0.94484 0.91276 0.86931 0.0
O286 O 0.91817 0.85258 0.90996 0.0
O287 O 0.75425 0.85132 0.8364 0.0
O288 O 0.82733 0.89981 0.87315 0.0
O289 O 0.76696 0.755 0.84098 0.0
O290 O 0.81963 0.80639 0.89506 0.0
O291 O 0.71252 0.80329 0.75022 0.0
O292 O 0.72888 0.73808 0.75258 0.0
C293 C 0.86705 0.8951 0.7512 0.0
O294 O 0.89083 0.79558 0.81459 0.0
O295 O 0.83422 0.7779 0.75538 0.0
C296 C 1.00027 0.87684 0.89656 0.0
C297 C 1.062 0.82348 0.89252 0.0
C298 C 1.0406 0.83351 0.85338 0.0
C299 C 1.00972 0.85989 0.85534 0.0
C300 C 1.02611 0.8715 0.93518 0.0
C301 C 1.0569 0.84513 0.93318 0.0
C302 C 0.95612 0.8888 0.90046 0.0
C303 C 0.77917 0.88794 0.8658 0.0
C304 C 0.78208 0.76629 0.88291 0.0
C305 C 0.7012 0.75718 0.68434 0.0
C306 C 0.72597 0.81297 0.61272 0.0
C307 C 0.75772 0.79119 0.62927 0.0
C308 C 0.74501 0.76262 0.66493 0.0
C309 C 0.66545 0.77012 0.6615 0.0
C310 C 0.67796 0.79832 0.6256 0.0
C311 C 0.70281 0.75968 0.73262 0.0
H312 H 1.04474 0.81771 0.82172 0.0
H313 H 0.99006 0.86341 0.82502 0.0
H314 H 1.01903 0.88382 0.9673 0.0
H315 H 0.07269 0.83758 0.96394 0.0
H316 H 0.79463 0.80165 0.61915 0.0
H317 H 0.77279 0.75188 0.68149 0.0
H318 H 0.6313 0.76575 0.67572 0.0
H319 H 0.65269 0.81425 0.61219 0.0
C320 C 0.92383 0.09782 0.5978 0.0
C321 C 0.93647 0.16635 0.47881 0.0
C322 C 1.01568 0.97634 0.49336 0.0
Mg323 Mg 1.01119 0.16899 0.55604 0.0
O324 O 1.01786 0.11361 0.52805 0.0
Mg325 Mg 0.95663 0.05959 0.50021 0.0
Mg326 Mg 1.06007 0.07853 0.55478 0.0
O327 O 0.10343 0.04456 0.58209 0.0
Mg328 Mg 0.11594 0.99303 0.55412 0.0
Mg329 Mg 0.16271 0.09976 0.61192 0.0
C330 C 0.11359 0.18483 0.60914 0.0
C331 C 0.159 0.14561 0.5085 0.0
O332 O 0.91984 0.06519 0.56684 0.0
O333 O 0.95601 0.14006 0.59892 0.0
O334 O 0.92025 0.11956 0.47949 0.0
O335 O 0.9758 0.19322 0.50198 0.0
O336 O 0.08225 0.20367 0.59648 0.0
O337 O 0.10903 0.14177 0.59747 0.0
C338 C 0.96176 1.01482 0.6052 0.0
O339 O 1.00776 1.04021 0.60955 0.0
O340 O 0.93591 1.01808 0.56978 0.0
O341 O 0.20537 0.09885 0.54784 0.0
O342 O 0.17463 1.02419 0.51484 0.0
O343 O 0.20111 1.04353 0.6349 0.0
C344 C 0.20578 0.06695 0.51789 0.0
O345 O 0.14951 0.96915 0.60978 0.0
O346 O 1.04967 0.9617 0.50813 0.0
C347 C 0.18679 0.99696 0.63499 0.0
O348 O 1.01042 1.0144 0.51039 0.0
O349 O 0.11354 0.11836 0.50158 0.0
O350 O 0.18378 0.14225 0.54442 0.0
C351 C 0.44864 0.18255 0.13794 0.0
C352 C 0.46984 0.17941 0.99547 0.0
C353 C 0.46463 0.99443 1.00677 0.0
Mg354 Mg 0.54047 0.19244 0.08249 0.0
O355 O 0.51988 0.12497 0.0874 0.0
Mg356 Mg 0.44876 0.08739 0.0662 0.0
Mg357 Mg 0.55567 0.08415 0.05949 0.0
O358 O 0.5909 0.04496 1.02782 0.0
Mg359 Mg 0.56964 0.9774 1.01917 0.0
Mg360 Mg 0.66131 0.08083 0.04869 0.0
C361 C 0.64686 0.17737 0.10937 0.0
C362 C 0.62613 0.14772 0.98345 0.0
O363 O 0.42611 0.14052 0.11706 0.0
O364 O 0.49336 0.20754 0.13136 0.0
O365 O 0.44554 0.13828 1.00952 0.0
O366 O 0.51118 0.20612 1.0159 0.0
O367 O 0.61894 0.2024 0.10406 0.0
O368 O 0.63107 0.13113 0.09763 0.0
C369 C 0.48188 1.0186 0.13566 0.0
O370 O 0.52446 1.02975 0.11972 0.0
O371 O 0.45121 1.037 0.12067 0.0
O372 O 0.68762 1.02727 0.99621 0.0
O373 O 0.62086 0.96308 0.97291 0.0
O374 O 0.65561 1.02638 0.10009 0.0
C375 C 0.66727 0.98651 0.9721 0.0
O376 O 0.59116 0.95798 0.08258 0.0
O377 O 0.49169 0.96859 1.00374 0.0
C378 C 0.62897 0.98343 0.108 0.0
O379 O 0.48191 1.03922 1.02171 0.0
O380 O 0.58468 0.13614 1.00091 0.0
O381 O 0.65927 0.13165 0.99648 0.0
C382 C 1.02955 0.72734 0.07614 0.0
C383 C 0.08465 0.67085 0.96823 0.0
C384 C 0.95911 0.4929 1.02042 0.0
Mg385 Mg 0.10892 0.68252 0.06882 0.0
O386 O 1.05436 0.62782 0.07527 0.0
Mg387 Mg 0.99459 0.61225 0.03366 0.0
Mg388 Mg 1.05774 0.56371 0.08156 0.0
O389 O 1.06108 0.4992 0.08748 0.0
Mg390 Mg 1.00423 0.4493 0.09942 0.0
Mg391 Mg 0.12056 0.51591 0.13022 0.0
C392 C 0.15765 0.635 0.14147 0.0
C393 C 0.15107 0.55812 0.03555 0.0
O394 O 0.99876 0.68959 0.05402 0.0
O395 O 0.07412 0.73215 0.08644 0.0
O396 O 1.04087 0.64342 0.97479 0.0
O397 O 0.11878 0.68488 0.99968 0.0
O398 O 0.15984 0.67031 0.11779 0.0
O399 O 0.12055 0.59481 0.13752 0.0
C400 C 0.96387 0.56973 0.12758 0.0
O401 O 1.00004 0.55544 0.12972 0.0
O402 O 0.95309 0.58932 0.09402 0.0
O403 O 0.11353 0.43637 0.11589 0.0
O404 O 1.03465 0.39366 0.09253 0.0
O405 O 0.07388 0.48843 0.18921 0.0
C406 C 0.07895 0.39659 0.10153 0.0
O407 O 0.99407 0.45845 0.16779 0.0
O408 O 0.95548 0.45887 0.04623 0.0
C409 C 1.02927 0.46699 0.19768 0.0
O410 O 0.99595 0.53329 1.0247 0.0
O411 O 0.11488 0.57229 0.03428 0.0
O412 O 0.16222 0.5374 0.06833 0.0
C413 C 0.44334 0.62714 0.10549 0.0
C414 C 0.4483 0.68361 0.97773 0.0
C415 C 0.49872 0.47932 1.02154 0.0
Mg416 Mg 0.52625 0.68617 0.05393 0.0
O417 O 0.52712 0.62672 1.03007 0.0
Mg418 Mg 0.462 0.57612 1.00595 0.0
Mg419 Mg 0.56495 0.58928 0.06203 0.0
O420 O 0.6023 0.5521 0.09437 0.0
Mg421 Mg 0.60234 0.49133 0.07426 0.0
Mg422 Mg 0.66657 0.60274 0.1193 0.0
C423 C 0.63349 0.70102 0.09759 0.0
C424 C 0.6683 0.64151 1.01415 0.0
O425 O 0.43332 0.59293 0.07468 0.0
O426 O 0.47884 0.6669 0.1045 0.0
O427 O 0.43037 0.63706 0.97948 0.0
O428 O 0.48823 0.7093 1.00072 0.0
O429 O 0.6028 0.71866 0.08068 0.0
O430 O 0.62218 0.65519 0.10082 0.0
C431 C 0.46191 0.5306 0.1088 0.0
O432 O 0.50848 0.55404 0.11495 0.0
O433 O 0.43789 0.53726 0.07393 0.0
O434 O 0.69932 0.58329 0.05333 0.0
O435 O 0.6545 0.50743 1.02733 0.0
O436 O 0.69724 0.5426 0.14764 0.0
C437 C 0.6906 0.54655 1.02542 0.0
O438 O 0.6379 0.46999 0.13117 0.0
O439 O 0.52825 0.46095 0.03982 0.0
C440 C 0.67867 0.49667 0.15254 0.0
O441 O 0.50835 0.52506 1.02312 0.0
O442 O 0.62139 0.62116 1.00823 0.0
O443 O 0.69138 0.63471 0.04949 0.0
C444 C 0.98804 0.67237 0.67785 0.0
C445 C 1.04263 0.67168 0.54384 0.0
C446 C 1.00006 0.4806 0.54309 0.0
Mg447 Mg 0.08799 0.67556 0.63888 0.0
O448 O 1.06229 0.60781 0.63043 0.0
Mg449 Mg 0.99277 0.57762 0.60327 0.0
Mg450 Mg 0.09465 0.56691 0.59654 0.0
O451 O 0.12651 0.52447 0.56595 0.0
Mg452 Mg 0.10158 0.45631 0.56426 0.0
Mg453 Mg 0.19862 0.55736 0.58527 0.0
C454 C 0.18923 0.6504 0.65024 0.0
C455 C 0.17044 0.63261 0.52251 0.0
O456 O 0.96748 0.63302 0.65214 0.0
O457 O 1.03512 0.69331 0.68104 0.0
O458 O 1.0098 0.63148 0.55098 0.0
O459 O 0.07695 0.69611 0.57297 0.0
O460 O 0.16398 0.6779 0.6544 0.0
O461 O 0.17015 0.60565 0.63524 0.0
C462 C 1.01693 0.50286 0.66686 0.0
O463 O 1.05873 0.51142 0.65046 0.0
O464 O 0.98761 0.52417 0.65492 0.0
O465 O 0.2144 0.50684 0.52742 0.0
O466 O 0.14359 0.44432 0.51041 0.0
O467 O 0.20057 0.50092 0.63661 0.0
C468 C 0.18826 0.46806 0.50306 0.0
O469 O 0.13373 0.43425 0.62552 0.0
O470 O 1.0239 0.45144 0.54552 0.0
C471 C 0.17571 0.45808 0.6466 0.0
O472 O 1.02032 0.52587 0.55714 0.0
O473 O 0.12903 0.62414 0.53982 0.0
O474 O 0.19897 0.61117 0.5352 0.0
C475 C 0.64851 0.2039 0.62756 0.0
C476 C 0.61489 0.18899 0.48988 0.0
C477 C 0.57439 1.00553 0.48207 0.0
Mg478 Mg 0.70531 0.19534 0.54651 0.0
O479 O 0.67718 0.1298 0.56051 0.0
Mg480 Mg 0.60414 0.10094 0.55903 0.0
Mg481 Mg 0.68704 0.08267 0.51658 0.0
O482 O 0.69745 1.04008 0.47007 0.0
Mg483 Mg 0.66414 0.97489 0.45857 0.0
Mg484 Mg 0.7689 0.07132 0.46771 0.0
C485 C 0.78441 0.16493 0.54428 0.0
C486 C 0.70847 0.13146 0.42415 0.0
O487 O 0.6162 0.16182 0.61514 0.0
O488 O 0.68711 0.2235 0.60708 0.0
O489 O 0.58932 0.15275 0.51003 0.0
O490 O 0.66109 0.20684 0.49596 0.0
O491 O 0.76905 0.18931 0.51816 0.0
O492 O 0.77125 0.11954 0.53369 0.0
C493 C 0.65408 1.0291 0.60396 0.0
O494 O 0.68259 1.03422 0.57289 0.0
O495 O 0.6229 0.05013 0.60564 0.0
O496 O 0.76254 1.02156 0.40521 0.0
O497 O 0.68849 0.96225 0.39571 0.0
O498 O 0.77998 1.01377 0.51104 0.0
C499 C 0.73086 0.98482 0.38286 0.0
O500 O 0.70559 0.9536 0.50698 0.0
O501 O 0.59023 0.97443 0.46472 0.0
C502 C 0.75074 0.97273 0.52145 0.0
O503 O 0.60367 0.04561 0.50194 0.0
O504 O 0.68657 0.12779 0.45954 0.0
O505 O 0.74535 0.11876 0.4213 0.0
C506 C 0.18571 0.20773 0.39818 0.0
C507 C 0.23648 0.23531 0.40403 0.0
H508 H 0.12182 0.15909 0.42549 0.0
C509 C 0.26102 0.23356 0.44517 0.0
H510 H 0.16493 0.20801 0.3675 0.0
C511 C 0.23605 0.20535 0.47881 0.0
C512 C 0.18531 0.17761 0.47288 0.0
H513 H 0.29987 0.25421 0.4516 0.0
H514 H 0.25678 0.20505 0.5095 0.0
C515 C 0.1607 0.17969 0.43188 0.0
C516 C 0.83869 0.21121 0.42716 0.0
C517 C 0.86548 0.24677 0.39975 0.0
H518 H 0.83886 0.15646 0.47163 0.0
C519 C 0.91549 0.254 0.39781 0.0
H520 H 0.80092 0.20601 0.43111 0.0
C521 C 0.93776 0.22733 0.42272 0.0
C522 C 0.91072 0.19125 0.44954 0.0
H523 H 0.93804 0.28128 0.37781 0.0
H524 H 0.97657 0.23516 0.42111 0.0
C525 C 0.8606 0.18313 0.45081 0.0
C526 C 0.96541 0.96752 0.37489 0.0
C527 C 0.96721 0.92316 0.35908 0.0
H528 H 0.97745 1.0184 0.43041 0.0
C529 C 0.97803 0.89343 0.38949 0.0
H530 H 0.95604 0.99079 0.35249 0.0
C531 C 0.9895 0.90895 0.43435 0.0
C532 C 0.99007 0.95438 0.44982 0.0
H533 H 0.9786 0.85854 0.37859 0.0
H534 H 1.00005 0.88626 0.45662 0.0
C535 C 0.9765 0.98287 0.41982 0.0
C536 C 0.29445 0.07203 0.434 0.0
C537 C 0.266 0.07412 0.39521 0.0
H538 H 0.29758 0.06948 0.50488 0.0
C539 C 0.22696 0.08997 0.39993 0.0
H540 H 0.32541 0.0607 0.43232 0.0
C541 C 0.20826 0.08922 0.4409 0.0
C542 C 0.23328 0.08185 0.47911 0.0
H543 H 0.20551 0.09431 0.37117 0.0
H544 H 0.17159 0.08926 0.44165 0.0
C545 C 0.27822 0.07633 0.47588 0.0
C546 C 0.20792 0.90649 0.71199 0.0
C547 C 0.25829 0.92718 0.72566 0.0
H548 H 0.14675 0.91136 0.67272 0.0
C549 C 0.28532 0.97192 0.70944 0.0
H550 H 0.18575 0.87205 0.72333 0.0
C551 C 0.26241 0.99533 0.68087 0.0
C552 C 0.21215 0.97391 0.66655 0.0
H553 H 0.32414 0.98908 0.71913 0.0
H554 H 0.28428 1.02972 0.66927 0.0
C555 C 0.18548 0.92905 0.68259 0.0
C556 C 0.18484 0.21152 0.7186 0.0
C557 C 0.23299 0.23059 0.70628 0.0
H558 H 0.10853 0.18476 0.69668 0.0
C559 C 0.24104 0.23998 0.6618 0.0
H560 H 0.17754 0.2051 0.75282 0.0
C561 C 0.20147 0.22895 0.62993 0.0
C562 C 0.15356 0.20977 0.64245 0.0
H563 H 0.27789 0.2554 0.65166 0.0
H564 H 0.20822 0.23376 0.59538 0.0
C565 C 0.14543 0.20137 0.68689 0.0
C566 C 0.92076 0.08769 0.71965 0.0
C567 C 0.87031 0.06989 0.72522 0.0
H568 H 0.97615 0.11121 0.67496 0.0
C569 C 0.83711 0.05217 0.68696 0.0
H570 H 0.94823 0.10145 0.74733 0.0
C571 C 0.85387 0.05886 0.64446 0.0
C572 C 0.90382 0.0829 0.64014 0.0
H573 H 0.79808 1.03641 0.68973 0.0
H574 H 0.82784 0.04815 0.61547 0.0
C575 C 0.93709 0.09454 0.67779 0.0
C576 C 0.94059 0.95824 0.71906 0.0
C577 C 0.89075 0.92736 0.71447 0.0
H578 H 1.00149 1.00904 0.6897 0.0
C579 C 0.86446 0.92664 0.6735 0.0
H580 H 0.96271 0.96035 0.74962 0.0
C581 C 0.88691 0.95502 0.63878 0.0
C582 C 0.93694 0.98538 0.64316 0.0
H583 H 0.82633 0.90352 0.66802 0.0
H584 H 0.86495 0.95268 0.60807 0.0
C585 C 0.96314 0.98641 0.68428 0.0
C586 C 0.42618 0.26105 0.23342 0.0
C587 C 0.37494 0.24913 0.22926 0.0
H588 H 0.48902 0.25066 0.20851 0.0
C589 C 0.34798 0.21336 0.19546 0.0
H590 H 0.44873 0.28842 0.25847 0.0
C591 C 0.37125 0.19074 0.16703 0.0
C592 C 0.42266 0.20381 0.17035 0.0
H593 H 0.30859 0.2029 0.19071 0.0
H594 H 0.34892 0.16388 0.14149 0.0
C595 C 0.44952 0.23935 0.20434 0.0
C596 C 0.91625 0.54352 0.23669 0.0
C597 C 0.94928 0.58486 0.26168 0.0
H598 H 0.89568 0.50558 0.17257 0.0
C599 C 0.97452 0.62581 0.23991 0.0
H600 H 0.89714 0.51098 0.25266 0.0
C601 C 0.97244 0.6228 0.19371 0.0
C602 C 0.9462 0.57857 0.16955 0.0
H603 H 1.00051 0.65764 0.25841 0.0
H604 H 0.99664 0.65285 0.17742 0.0
C605 C 0.91556 0.54 0.19076 0.0
C606 C 0.71724 0.93026 0.10773 0.0
C607 C 0.75284 0.96418 0.13794 0.0
H608 H 0.64347 0.90369 0.07983 0.0
C609 C 0.73633 0.987 0.17188 0.0
H610 H 0.72679 0.91028 0.08165 0.0
C611 C 0.68785 0.98451 0.16927 0.0
C612 C 0.65545 0.95843 0.13321 0.0
H613 H 0.76132 1.01008 0.19839 0.0
H614 H 0.67814 1.00892 0.19098 0.0
C615 C 0.66834 0.92555 0.10714 0.0
C616 C 0.20572 0.6873 0.25554 0.0
C617 C 0.25504 0.71322 0.24912 0.0
H618 H 0.13613 0.63843 0.22639 0.0
C619 C 0.27409 0.70244 0.2104 0.0
H620 H 0.1903 0.6944 0.28542 0.0
C621 C 0.24286 0.67079 0.17636 0.0
C622 C 0.19256 0.64821 0.18122 0.0
H623 H 0.31205 0.72166 0.20475 0.0
H624 H 0.25713 0.66728 0.14481 0.0
C625 C 0.1749 0.65451 0.22211 0.0
C626 C 0.35179 0.89666 0.95485 0.0
C627 C 0.33845 0.92133 0.92103 0.0
H628 H 0.40316 0.90147 1.00983 0.0
C629 C 0.35774 0.97212 0.92443 0.0
H630 H 0.33767 0.85759 0.95316 0.0
C631 C 0.39501 0.9974 0.95731 0.0
C632 C 0.41379 0.97201 0.98666 0.0
H633 H 0.34784 0.99204 0.89885 0.0
H634 H 0.41298 1.03604 0.95615 0.0
C635 C 0.38955 0.92183 0.98723 0.0
C636 C 0.15675 0.32393 0.07571 0.0
C637 C 0.12736 0.29253 0.04032 0.0
H638 H 0.16434 0.38186 0.12347 0.0
C639 C 0.07808 0.28812 0.03337 0.0
H640 H 0.19433 0.327 0.08316 0.0
C641 C 1.06062 0.31876 0.05714 0.0
C642 C 0.09226 0.35499 0.08784 0.0
H643 H 1.05403 0.26444 1.00662 0.0
H644 H 1.02371 0.31699 0.0482 0.0
C645 C 0.1395 0.35524 0.099 0.0
C646 C 0.65478 0.19446 0.87092 0.0
C647 C 0.69632 0.23616 0.88317 0.0
H648 H 0.59838 0.1331 0.89397 0.0
C649 C 0.70646 0.25306 0.92811 0.0
H650 H 0.6464 0.18032 0.83661 0.0
C651 C 0.6785 0.22689 0.96052 0.0
C652 C 0.63982 0.18287 0.94899 0.0
H653 H 0.73814 0.28512 0.9386 0.0
H654 H 0.68996 0.2389 0.99511 0.0
C655 C 0.62702 0.16767 0.90371 0.0
C656 C 1.04379 0.73558 0.88194 0.0
C657 C 0.07855 0.7821 0.89321 0.0
H658 H 1.01925 0.66137 0.89615 0.0
C659 C 0.12324 0.78697 0.91607 0.0
H660 H 1.00915 0.7308 0.86387 0.0
C661 C 0.12976 0.74681 0.93348 0.0
C662 C 0.09055 0.70186 0.93025 0.0
H663 H 0.15089 0.82244 0.92456 0.0
H664 H 0.1626 0.75285 0.95499 0.0
C665 C 1.04964 0.69564 0.90048 0.0
C666 C 0.98971 0.34629 0.24088 0.0
C667 C 1.03407 0.35032 0.26394 0.0
H668 H 0.9516 0.38242 0.20312 0.0
C669 C 0.06713 0.3964 0.27959 0.0
H670 H 0.9632 0.31114 0.22915 0.0
C671 C 1.06136 0.43736 0.26368 0.0
C672 C 1.0217 0.43281 0.23306 0.0
H673 H 0.10151 0.4008 0.29795 0.0
H674 H 0.09142 0.47166 0.27038 0.0
C675 C 0.98332 0.38745 0.22583 0.0
C676 C 0.14864 0.5409 0.91548 0.0
C677 C 0.18504 0.58459 0.90747 0.0
H678 H 0.11113 0.4966 0.9651 0.0
C679 C 0.22011 0.61092 0.94203 0.0
H680 H 0.1213 0.52033 0.88924 0.0
C681 C 0.21378 0.59792 0.98549 0.0
C682 C 0.17315 0.55799 0.99404 0.0
H683 H 0.24836 0.64501 0.93641 0.0
H684 H 0.23675 0.62224 1.01248 0.0
C685 C 0.14306 0.52735 0.95874 0.0
C686 C 0.44757 0.25281 0.89887 0.0
C687 C 0.39588 0.23502 0.89206 0.0
H688 H 0.51162 0.25069 0.93688 0.0
C689 C 0.36987 0.19782 0.91819 0.0
H690 H 0.46907 0.28194 0.88003 0.0
C691 C 0.39419 0.17912 0.94985 0.0
C692 C 0.44573 0.19777 0.95804 0.0
H693 H 0.33021 0.18323 0.91442 0.0
H694 H 0.37209 0.15084 0.9692 0.0
C695 C 0.47207 0.23502 0.93179 0.0
C696 C 0.92819 0.43695 0.90529 0.0
C697 C 0.87786 0.4107 0.9058 0.0
H698 H 0.99321 0.48721 0.94088 0.0
C699 C 0.85275 0.42076 0.94054 0.0
H700 H 0.94814 0.43028 0.87845 0.0
C701 C 0.87869 0.45278 0.97666 0.0
C702 C 0.9297 0.47664 0.97756 0.0
H703 H 0.81382 0.40115 0.94141 0.0
H704 H 0.85954 0.45621 1.00527 0.0
C705 C 0.95376 0.47026 0.94054 0.0
C706 C 0.69962 0.89974 0.88817 0.0
C707 C 0.75148 0.91519 0.8921 0.0
H708 H 0.63392 0.90843 0.90848 0.0
C709 C 0.77552 0.95618 0.92239 0.0
H710 H 0.67856 0.86875 0.86588 0.0
C711 C 0.7493 0.97985 0.94718 0.0
C712 C 0.69729 0.96379 0.94357 0.0
H713 H 0.8151 0.9701 0.9273 0.0
H714 H 0.77008 1.0105 0.96994 0.0
C715 C 0.67352 0.923 0.91312 0.0
C716 C 1.02115 0.82318 0.15765 0.0
C717 C 0.97029 0.80743 0.15966 0.0
H718 H 0.08038 0.81038 0.12869 0.0
C719 C 0.93951 0.771 0.12874 0.0
H720 H 1.04554 0.85173 0.18079 0.0
C721 C 0.95912 0.74826 0.09833 0.0
C722 C 1.01005 0.76072 0.09877 0.0
H723 H 0.90003 0.75908 0.12877 0.0
H724 H 0.93408 0.71871 0.07651 0.0
C725 C 1.04096 0.79972 0.12759 0.0
C726 C 0.47122 0.93988 0.23789 0.0
C727 C 0.41962 0.91768 0.2386 0.0
H728 H 0.53219 0.98838 0.20548 0.0
C729 C 0.39104 0.92734 0.20383 0.0
H730 H 0.49499 0.93374 0.26377 0.0
C731 C 0.4121 0.95826 0.17093 0.0
C732 C 0.46327 0.98173 0.1703 0.0
H733 H 0.35146 0.91137 0.20205 0.0
H734 H 0.38743 0.96416 0.14573 0.0
C735 C 0.49273 0.97127 0.20417 0.0
C736 C 0.74298 0.20572 0.20845 0.0
C737 C 0.7624 0.25671 0.21163 0.0
H738 H 0.69266 0.14026 0.17335 0.0
C739 C 0.75025 0.27997 0.17588 0.0
H740 H 0.75155 0.18641 0.23521 0.0
C741 C 0.71642 0.25347 0.14031 0.0
C742 C 0.69375 0.20262 0.13882 0.0
H743 H 0.76351 0.31901 0.17724 0.0
H744 H 0.70533 0.27327 0.11535 0.0
C745 C 0.70942 0.17905 0.17256 0.0
C746 C 0.77409 0.73416 0.96001 0.0
C747 C 0.75384 0.73364 0.91655 0.0
H748 H 0.76384 0.7053 1.02398 0.0
C749 C 0.70511 0.70165 0.90529 0.0
H750 H 0.81125 0.75812 0.97018 0.0
C751 C 0.67739 0.67191 0.93646 0.0
C752 C 0.69778 0.67197 0.97978 0.0
H753 H 0.6878 0.70019 0.87235 0.0
H754 H 0.63993 0.64864 0.92647 0.0
C755 C 0.74675 0.70351 0.99089 0.0
C756 C 0.35923 0.71121 0.89219 0.0
C757 C 0.3821 0.76153 0.88916 0.0
H758 H 0.36115 0.64709 0.92172 0.0
C759 C 0.42594 0.7852 0.91615 0.0
H760 H 0.32549 0.69142 0.87218 0.0
C761 C 0.4463 0.75992 0.94461 0.0
C762 C 0.42399 0.70956 0.94754 0.0
H763 H 0.44494 0.82374 0.91539 0.0
H764 H 0.48019 0.7803 0.96427 0.0
C765 C 0.37982 0.68564 0.92077 0.0
C766 C 0.38406 0.43533 0.9428 0.0
C767 C 0.38702 0.39247 0.92518 0.0
H768 H 0.41661 0.49633 0.98902 0.0
C769 C 0.42039 0.3742 0.94508 0.0
H770 H 0.35799 0.4495 0.92797 0.0
C771 C 0.454 0.40084 0.97944 0.0
C772 C 0.45521 0.44663 0.99404 0.0
H773 H 0.42254 0.3406 0.93214 0.0
H774 H 0.48134 0.38703 0.99202 0.0
C775 C 0.41812 0.46235 0.97726 0.0
C776 C 0.7032 0.55027 0.90418 0.0
C777 C 0.73738 0.52785 0.89946 0.0
H778 H 0.66006 0.57146 0.94849 0.0
C779 C 0.76404 0.52211 0.93782 0.0
H780 H 0.68246 0.55579 0.87547 0.0
C781 C 0.75294 0.53395 0.98 0.0
C782 C 0.71516 0.55159 0.98433 0.0
H783 H 0.79019 0.50434 0.9356 0.0
H784 H 0.77066 0.52514 1.00902 0.0
C785 C 0.69129 0.5607 0.94617 0.0
C786 C 0.70143 0.40397 0.22721 0.0
C787 C 0.74963 0.42804 0.24656 0.0
H788 H 0.64217 0.40566 0.18293 0.0
C789 C 0.77456 0.47538 0.23445 0.0
H790 H 0.68076 0.36752 0.23517 0.0
C791 C 0.75203 0.4978 0.20436 0.0
C792 C 0.70386 0.47345 0.18474 0.0
H793 H 0.81135 0.49552 0.24882 0.0
H794 H 0.77255 0.53426 0.19635 0.0
C795 C 0.67921 0.42601 0.19679 0.0
C796 C 0.76765 0.75102 0.13903 0.0
C797 C 0.77629 0.80019 0.14604 0.0
H798 H 0.71584 0.68127 0.1214 0.0
C799 C 0.73926 0.81751 0.13418 0.0
H800 H 0.79549 0.73687 0.14954 0.0
C801 C 0.69326 0.7854 0.11671 0.0
C802 C 0.68336 0.73533 0.11255 0.0
H803 H 0.74469 0.85501 0.14161 0.0
H804 H 0.66479 0.79959 0.10893 0.0
C805 C 0.7215 0.7189 0.12325 0.0
C806 C 0.44564 0.60383 0.22524 0.0
C807 C 0.40894 0.61933 0.23925 0.0
H808 H 0.48983 0.60276 0.17322 0.0
C809 C 0.37597 0.62663 0.20678 0.0
H810 H 0.47078 0.59647 0.24895 0.0
C811 C 0.38375 0.62426 0.16171 0.0
C812 C 0.4251 0.61589 0.14907 0.0
H813 H 0.34727 0.63899 0.2161 0.0
H814 H 0.36039 0.63346 0.13752 0.0
C815 C 0.45574 0.60577 0.18125 0.0
C816 C 0.35666 0.44555 0.17092 0.0
C817 C 0.38141 0.43679 0.2091 0.0
H818 H 0.36174 0.4814 0.11016 0.0
C819 C 0.43293 0.46047 0.21418 0.0
H820 H 0.31726 0.42835 0.16534 0.0
C821 C 0.45864 0.49093 0.18237 0.0
C822 C 0.43404 0.49936 0.14399 0.0
H823 H 0.4539 0.45512 0.24282 0.0
H824 H 0.49808 0.50766 0.18779 0.0
C825 C 0.38245 0.4762 0.13906 0.0
C826 C 0.94847 0.74725 0.76723 0.0
C827 C 0.90187 0.74581 0.75031 0.0
H828 H 1.01156 0.72751 0.75882 0.0
C829 C 0.88308 0.71757 0.70964 0.0
H830 H 0.96432 0.76708 0.79853 0.0
C831 C 0.90962 0.69272 0.68724 0.0
C832 C 0.95709 0.69573 0.70356 0.0
H833 H 0.84752 0.71461 0.6948 0.0
H834 H 0.89331 0.6721 0.65619 0.0
C835 C 0.97566 0.72382 0.74424 0.0
C836 C 0.60731 0.93035 0.67762 0.0
C837 C 0.63065 0.95485 0.71851 0.0
H838 H 0.59694 0.93613 0.60785 0.0
C839 C 0.67357 0.99605 0.71807 0.0
H840 H 0.57466 0.89812 0.67612 0.0
C841 C 0.68572 1.01814 0.67851 0.0
C842 C 0.6562 0.99802 0.63921 0.0
H843 H 0.69348 1.01487 0.74883 0.0
H844 H 0.71447 0.05342 0.67955 0.0
C845 C 0.61971 0.95224 0.63819 0.0
C846 C 0.19893 0.36572 0.72246 0.0
C847 C 0.24917 0.38824 0.73736 0.0
H848 H 0.13661 0.36894 0.68286 0.0
C849 C 0.27387 0.43466 0.72343 0.0
H850 H 0.17829 0.32985 0.73186 0.0
C851 C 0.24954 0.45746 0.69569 0.0
C852 C 0.19955 0.43463 0.67998 0.0
H853 H 0.31231 0.45351 0.73383 0.0
H854 H 0.2706 0.49291 0.68565 0.0
C855 C 0.17474 0.38826 0.69413 0.0
C856 C 0.77368 0.17406 0.67012 0.0
C857 C 0.78674 0.22439 0.67803 0.0
H858 H 0.76258 0.1148 0.62167 0.0
C859 C 0.8034 0.25368 0.64301 0.0
H860 H 0.76132 0.15053 0.69662 0.0
C861 C 0.80542 0.23366 0.60107 0.0
C862 C 0.78966 0.18337 0.59192 0.0
H863 H 0.81512 0.29256 0.64793 0.0
H864 H 0.81787 0.2579 0.57502 0.0
C865 C 0.77481 0.15363 0.62731 0.0
C866 C 0.89427 0.47037 0.45773 0.0
C867 C 0.86838 0.42007 0.45247 0.0
H868 H 0.95499 0.5293 0.49115 0.0
C869 C 0.88231 0.39122 0.48199 0.0
H870 H 0.88431 0.4939 0.43611 0.0
C871 C 0.92295 0.41148 0.51344 0.0
C872 C 0.95063 0.46146 0.51714 0.0
H873 H 0.86367 0.35241 0.47902 0.0
H874 H 0.93406 0.38752 0.53366 0.0
C875 C 0.93457 0.49083 0.48979 0.0
C876 C 0.80774 0.9723 0.29209 0.0
C877 C 0.79559 0.92217 0.28914 0.0
H878 H 0.79637 1.03202 0.32506 0.0
C879 C 0.75596 0.89277 0.31077 0.0
H880 H 0.83818 0.99556 0.27549 0.0
C881 C 0.73128 0.91342 0.33803 0.0
C882 C 0.74693 0.96377 0.34494 0.0
H883 H 0.74579 0.85394 0.3085 0.0
H884 H 0.70287 0.89003 0.35661 0.0
C885 C 0.78396 0.99307 0.32041 0.0
C886 C 0.2123 0.74568 0.45455 0.0
C887 C 0.24292 0.73381 0.42545 0.0
H888 H 0.16447 0.72355 0.50774 0.0
C889 C 0.24353 0.68685 0.42577 0.0
H890 H 0.21042 0.78132 0.45537 0.0
C891 C 0.21695 0.65398 0.45507 0.0
C892 C 0.18835 0.66613 0.48585 0.0
H893 H 0.26566 0.67546 0.40385 0.0
H894 H 0.2203 0.61892 0.45461 0.0
C895 C 0.18542 0.71232 0.48442 0.0
C896 C 0.59922 0.2982 0.44583 0.0
C897 C 0.5485 0.28286 0.4391 0.0
H898 H 0.66018 0.27957 0.46514 0.0
C899 C 0.51894 0.23509 0.44523 0.0
H900 H 0.62218 0.33498 0.44076 0.0
C901 C 0.54041 0.20286 0.45943 0.0
C902 C 0.5915 0.21838 0.46708 0.0
H903 H 0.47944 0.22313 0.43976 0.0
H904 H 0.51718 0.16655 0.46558 0.0
C905 C 0.62065 0.2661 0.45926 0.0
C906 C 0.74252 0.90012 0.61483 0.0
C907 C 0.74615 0.85914 0.59296 0.0
H908 H 0.74533 0.97212 0.60896 0.0
C909 C 0.76704 0.86275 0.55244 0.0
H910 H 0.72801 0.89824 0.647 0.0
C911 C 0.77779 0.90544 0.53112 0.0
C912 C 0.768 0.94424 0.55066 0.0
H913 H 0.77102 0.83163 0.53578 0.0
H914 H 0.78798 0.90607 0.49732 0.0
C915 C 0.75375 0.9427 0.59382 0.0
C916 C 0.60068 0.11294 0.34198 0.0
C917 C 0.62196 0.14437 0.3094 0.0
H918 H 0.61137 0.08801 0.40529 0.0
C919 C 0.67378 0.16198 0.30996 0.0
H920 H 0.56134 0.0955 0.34162 0.0
C921 C 0.70278 0.15714 0.34659 0.0
C922 C 0.6804 0.13428 0.38303 0.0
H923 H 0.69231 0.18408 0.28465 0.0
H924 H 0.74227 0.17392 0.34762 0.0
C925 C 0.6294 0.10938 0.37903 0.0
C926 C 1.00074 0.66861 0.42564 0.0
C927 C 0.99266 0.7121 0.42591 0.0
H928 H 1.0245 0.62178 0.4644 0.0
C929 C 1.01358 0.74734 0.4612 0.0
H930 H 0.98507 0.64116 0.39861 0.0
C931 C 1.03656 0.73648 0.49863 0.0
C932 C 1.03796 0.69021 0.50083 0.0
H933 H 1.00812 0.78142 0.46148 0.0
H934 H 1.04797 0.76204 0.52744 0.0
C935 C 1.02312 0.65757 0.46319 0.0
C936 C 0.45586 0.98421 0.41724 0.0
C937 C 0.42738 0.93997 0.43297 0.0
H938 H 0.52611 1.04184 0.42257 0.0
C939 C 0.44353 0.92668 0.47336 0.0
H940 H 0.44461 0.99537 0.38618 0.0
C941 C 0.49006 0.95317 0.49404 0.0
C942 C 0.52111 0.99393 0.47521 0.0
H943 H 0.42225 0.89302 0.48662 0.0
H944 H 0.50372 0.93878 0.52197 0.0
C945 C 0.50252 1.01101 0.43828 0.0
C946 C 0.27806 0.45206 0.42114 0.0
C947 C 0.24786 0.41257 0.39214 0.0
H948 H 0.28379 0.50051 0.47804 0.0
C949 C 0.19788 0.39267 0.39965 0.0
H950 H 0.31677 0.46848 0.41693 0.0
C951 C 0.17905 0.4108 0.43513 0.0
C952 C 0.20927 0.44982 0.46462 0.0
H953 H 0.1732 0.3622 0.37859 0.0
H954 H 0.14045 0.39375 0.43955 0.0
C955 C 0.2591 0.47046 0.45655 0.0
C956 C 0.57856 0.24129 0.71292 0.0
C957 C 0.59812 0.29182 0.71203 0.0
H958 H 0.57949 0.17367 0.68719 0.0
C959 C 0.64028 0.31294 0.68959 0.0
H960 H 0.5459 0.22365 0.72956 0.0
C961 C 0.65982 0.28413 0.66543 0.0
C962 C 0.63691 0.23357 0.66247 0.0
H963 H 0.65648 0.35174 0.68856 0.0
H964 H 0.69049 0.30165 0.64633 0.0
C965 C 0.59763 0.21249 0.68828 0.0
C966 C 0.9477 0.44555 0.76145 0.0
C967 C 0.93374 0.39622 0.74873 0.0
H968 H 0.98687 0.51803 0.74609 0.0
C969 C 0.9565 0.38231 0.71389 0.0
H970 H 0.93126 0.45743 0.78843 0.0
C971 C 0.98894 0.41749 0.68951 0.0
C972 C 0.99918 0.46683 0.70004 0.0
H973 H 0.94619 0.34453 0.70322 0.0
H974 H 1.00241 0.40609 0.66024 0.0
C975 C 0.97996 0.48032 0.73745 0.0
C976 C 0.30479 0.75454 0.65905 0.0
C977 C 0.32078 0.75247 0.70324 0.0
H978 H 0.24962 0.72081 0.60603 0.0
C979 C 0.30401 0.70787 0.72236 0.0
H980 H 0.31686 0.78856 0.64367 0.0
C981 C 0.26426 0.66918 0.70125 0.0
C982 C 0.24246 0.67465 0.6603 0.0
H983 H 0.31603 0.70544 0.75639 0.0
H984 H 0.24661 0.63804 0.71958 0.0
C985 C 0.26591 0.71574 0.63762 0.0
loop_
_geom_bond_atom_site_label_1
_geom_bond_atom_site_label_2
_geom_bond_distance
_geom_bond_site_symmetry_2
_ccdc_geom_bond_type
Dy0 O3 2.307 . S
Dy0 O5 2.395 . S
Dy0 O6 2.379 . S
Dy0 O8 2.339 . S
Dy0 O10 2.298 . S
Dy0 O14 2.275 . S
Dy0 C22 2.738 . S
Dy1 O4 2.298 . S
Dy1 O7 2.275 . S
Dy1 O9 2.307 . S
Dy1 O11 2.395 . S
Dy1 O12 2.379 . S
Dy1 O15 2.339 . S
Dy1 C31 2.738 . S
C2 O14 1.254 . S
C2 O15 1.257 . S
O3 Dy0 2.307 . S
O3 C13 1.266 . S
O4 Dy1 2.298 . S
O4 C13 1.236 . S
O5 Dy0 2.395 . S
O5 C22 1.255 . S
O6 Dy0 2.379 . S
O6 C22 1.249 . S
O7 Dy1 2.275 . S
O7 C23 1.254 . S
O8 Dy0 2.339 . S
O8 C23 1.257 . S
O9 Dy1 2.307 . S
O9 C24 1.266 . S
O10 Dy0 2.298 . S
O10 C24 1.236 . S
O11 Dy1 2.395 . S
O11 C31 1.255 . S
O12 Dy1 2.379 . S
O12 C31 1.249 . S
C13 O3 1.266 . S
C13 O4 1.236 . S
O14 Dy0 2.275 . S
O14 C2 1.254 . S
O15 Dy1 2.339 . S
O15 C2 1.257 . S
C16 C19 1.344 . S
C16 C20 1.328 . S
C16 C22 1.516 . S
C17 C18 1.304 . S
C17 C21 1.323 . S
C18 C17 1.304 . S
C18 C19 1.371 . S
C18 H32 0.930 . S
C19 C16 1.344 . S
C19 C18 1.371 . S
C19 H33 0.931 . S
C20 C16 1.328 . S
C20 C21 1.433 . S
C20 H34 0.931 . S
C21 C17 1.323 . S
C21 C20 1.433 . S
C21 H35 0.933 . S
C22 Dy0 2.738 . S
C22 O5 1.255 . S
C22 O6 1.249 . S
C22 C16 1.516 . S
C23 O7 1.254 . S
C23 O8 1.257 . S
C24 O9 1.266 . S
C24 O10 1.236 . S
C25 C28 1.344 . S
C25 C29 1.328 . S
C25 C31 1.516 . S
C26 C27 1.304 . S
C26 C30 1.323 . S
C27 C26 1.304 . S
C27 C28 1.371 . S
C27 H36 0.930 . S
C28 C25 1.344 . S
C28 C27 1.371 . S
C28 H37 0.931 . S
C29 C25 1.328 . S
C29 C30 1.433 . S
C29 H38 0.931 . S
C30 C26 1.323 . S
C30 C29 1.433 . S
C30 H39 0.933 . S
C31 Dy1 2.738 . S
C31 O11 1.255 . S
C31 O12 1.249 . S
C31 C25 1.516 . S
H32 C18 0.930 . S
H33 C19 0.931 . S
H34 C20 0.931 . S
H35 C21 0.933 . S
H36 C27 0.930 . S
H37 C28 0.931 . S
H38 C29 0.931 . S
H39 C30 0.933 . S
Dy40 O43 2.307 . S
Dy40 O45 2.395 . S
Dy40 O46 2.379 . S
Dy40 O48 2.339 . S
Dy40 O50 2.298 . S
Dy40 O54 2.275 . S
Dy40 C62 2.738 . S
Dy41 O44 2.298 . S
Dy41 O47 2.275 . S
Dy41 O49 2.307 . S
Dy41 O51 2.395 . S
Dy41 O52 2.379 . S
Dy41 O55 2.339 . S
Dy41 C71 2.738 . S
C42 O54 1.254 . S
C42 O55 1.257 . S
O43 Dy40 2.307 . S
O43 C53 1.266 . S
O44 Dy41 2.298 . S
O44 C53 1.236 . S
O45 Dy40 2.395 . S
O45 C62 1.255 . S
O46 Dy40 2.379 . S
O46 C62 1.249 . S
O47 Dy41 2.275 . S
O47 C63 1.254 . S
O48 Dy40 2.339 . S
O48 C63 1.257 . S
O49 Dy41 2.307 . S
O49 C64 1.266 . S
O50 Dy40 2.298 . S
O50 C64 1.236 . S
O51 Dy41 2.395 . S
O51 C71 1.255 . S
O52 Dy41 2.379 . S
O52 C71 1.249 . S
C53 O43 1.266 . S
C53 O44 1.236 . S
O54 Dy40 2.275 . S
O54 C42 1.254 . S
O55 Dy41 2.339 . S
O55 C42 1.257 . S
C56 C59 1.344 . S
C56 C60 1.328 . S
C56 C62 1.516 . S
C57 C58 1.304 . S
C57 C61 1.323 . S
C58 C57 1.304 . S
C58 C59 1.371 . S
C58 H72 0.930 . S
C59 C56 1.344 . S
C59 C58 1.371 . S
C59 H73 0.931 . S
C60 C56 1.328 . S
C60 C61 1.433 . S
C60 H74 0.931 . S
C61 C57 1.323 . S
C61 C60 1.433 . S
C61 H75 0.933 . S
C62 Dy40 2.738 . S
C62 O45 1.255 . S
C62 O46 1.249 . S
C62 C56 1.516 . S
C63 O47 1.254 . S
C63 O48 1.257 . S
C64 O49 1.266 . S
C64 O50 1.236 . S
C65 C68 1.344 . S
C65 C69 1.328 . S
C65 C71 1.516 . S
C66 C67 1.304 . S
C66 C70 1.323 . S
C67 C66 1.304 . S
C67 C68 1.371 . S
C67 H76 0.930 . S
C68 C65 1.344 . S
C68 C67 1.371 . S
C68 H77 0.931 . S
C69 C65 1.328 . S
C69 C70 1.433 . S
C69 H78 0.931 . S
C70 C66 1.323 . S
C70 C69 1.433 . S
C70 H79 0.933 . S
C71 Dy41 2.738 . S
C71 O51 1.255 . S
C71 O52 1.249 . S
C71 C65 1.516 . S
H72 C58 0.930 . S
H73 C59 0.931 . S
H74 C60 0.931 . S
H75 C61 0.933 . S
H76 C67 0.930 . S
H77 C68 0.931 . S
H78 C69 0.931 . S
H79 C70 0.933 . S
Dy80 O83 2.307 . S
Dy80 O85 2.395 . S
Dy80 O86 2.379 . S
Dy80 O88 2.339 . S
Dy80 O90 2.298 . S
Dy80 O94 2.275 . S
Dy80 C102 2.738 . S
Dy81 O84 2.298 . S
Dy81 O87 2.275 . S
Dy81 O89 2.307 . S
Dy81 O91 2.395 . S
Dy81 O92 2.379 . S
Dy81 O95 2.339 . S
Dy81 C111 2.738 . S
C82 O94 1.254 . S
C82 O95 1.257 . S
O83 Dy80 2.307 . S
O83 C93 1.266 . S
O84 Dy81 2.298 . S
O84 C93 1.236 . S
O85 Dy80 2.395 . S
O85 C102 1.255 . S
O86 Dy80 2.379 . S
O86 C102 1.249 . S
O87 Dy81 2.275 . S
O87 C103 1.254 . S
O88 Dy80 2.339 . S
O88 C103 1.257 . S
O89 Dy81 2.307 . S
O89 C104 1.266 . S
O90 Dy80 2.298 . S
O90 C104 1.236 . S
O91 Dy81 2.395 . S
O91 C111 1.255 . S
O92 Dy81 2.379 . S
O92 C111 1.249 . S
C93 O83 1.266 . S
C93 O84 1.236 . S
O94 Dy80 2.275 . S
O94 C82 1.254 . S
O95 Dy81 2.339 . S
O95 C82 1.257 . S
C96 C99 1.344 . S
C96 C100 1.328 . S
C96 C102 1.516 . S
C97 C98 1.304 . S
C97 C101 1.323 . S
C98 C97 1.304 . S
C98 C99 1.371 . S
C98 H112 0.930 . S
C99 C96 1.344 . S
C99 C98 1.371 . S
C99 H113 0.931 . S
C100 C96 1.328 . S
C100 C101 1.433 . S
C100 H114 0.931 . S
C101 C97 1.323 . S
C101 C100 1.433 . S
C101 H115 0.933 . S
C102 Dy80 2.738 . S
C102 O85 1.255 . S
C102 O86 1.249 . S
C102 C96 1.516 . S
C103 O87 1.254 . S
C103 O88 1.257 . S
C104 O89 1.266 . S
C104 O90 1.236 . S
C105 C108 1.344 . S
C105 C109 1.328 . S
C105 C111 1.516 . S
C106 C107 1.304 . S
C106 C110 1.323 . S
C107 C106 1.304 . S
C107 C108 1.371 . S
C107 H116 0.930 . S
C108 C105 1.344 . S
C108 C107 1.371 . S
C108 H117 0.931 . S
C109 C105 1.328 . S
C109 C110 1.433 . S
C109 H118 0.931 . S
C110 C106 1.323 . S
C110 C109 1.433 . S
C110 H119 0.935 1_565 S
C111 Dy81 2.738 . S
C111 O91 1.255 . S
C111 O92 1.249 . S
C111 C105 1.516 . S
H112 C98 0.930 . S
H113 C99 0.931 . S
H114 C100 0.931 . S
H115 C101 0.933 . S
H116 C107 0.930 . S
H117 C108 0.931 . S
H118 C109 0.931 . S
H119 C110 0.935 1_545 S
Dy120 O123 2.307 . S
Dy120 O125 2.395 . S
Dy120 O126 2.379 . S
Dy120 O128 2.339 . S
Dy120 O130 2.298 . S
Dy120 O134 2.275 . S
Dy120 C142 2.738 . S
Dy121 O124 2.298 . S
Dy121 O127 2.275 . S
Dy121 O129 2.307 . S
Dy121 O131 2.395 . S
Dy121 O132 2.379 . S
Dy121 O135 2.339 . S
Dy121 C151 2.738 . S
C122 O134 1.254 . S
C122 O135 1.257 . S
O123 Dy120 2.307 . S
O123 C133 1.266 . S
O124 Dy121 2.298 . S
O124 C133 1.236 . S
O125 Dy120 2.395 . S
O125 C142 1.255 . S
O126 Dy120 2.379 . S
O126 C142 1.249 . S
O127 Dy121 2.275 . S
O127 C143 1.254 . S
O128 Dy120 2.339 . S
O128 C143 1.257 . S
O129 Dy121 2.307 . S
O129 C144 1.266 . S
O130 Dy120 2.298 . S
O130 C144 1.236 . S
O131 Dy121 2.395 . S
O131 C151 1.255 . S
O132 Dy121 2.379 . S
O132 C151 1.249 . S
C133 O123 1.266 . S
C133 O124 1.236 . S
O134 Dy120 2.275 . S
O134 C122 1.254 . S
O135 Dy121 2.339 . S
O135 C122 1.257 . S
C136 C139 1.344 . S
C136 C140 1.328 . S
C136 C142 1.516 . S
C137 C138 1.304 . S
C137 C141 1.323 . S
C138 C137 1.304 . S
C138 C139 1.371 . S
C138 H152 0.930 . S
C139 C136 1.344 . S
C139 C138 1.371 . S
C139 H153 0.931 . S
C140 C136 1.328 . S
C140 C141 1.433 . S
C140 H154 0.931 . S
C141 C137 1.323 . S
C141 C140 1.433 . S
C141 H155 0.933 . S
C142 Dy120 2.738 . S
C142 O125 1.255 . S
C142 O126 1.249 . S
C142 C136 1.516 . S
C143 O127 1.254 . S
C143 O128 1.257 . S
C144 O129 1.266 . S
C144 O130 1.236 . S
C145 C148 1.344 . S
C145 C149 1.328 . S
C145 C151 1.516 . S
C146 C147 1.304 . S
C146 C150 1.323 . S
C147 C146 1.304 . S
C147 C148 1.371 . S
C147 H156 0.930 . S
C148 C145 1.344 . S
C148 C147 1.371 . S
C148 H157 0.931 . S
C149 C145 1.328 . S
C149 C150 1.433 . S
C149 H158 0.931 . S
C150 C146 1.323 . S
C150 C149 1.433 . S
C150 H159 0.933 . S
C151 Dy121 2.738 . S
C151 O131 1.255 . S
C151 O132 1.249 . S
C151 C145 1.516 . S
H152 C138 0.930 . S
H153 C139 0.931 . S
H154 C140 0.931 . S
H155 C141 0.933 . S
H156 C147 0.930 . S
H157 C148 0.931 . S
H158 C149 0.931 . S
H159 C150 0.933 . S
Dy160 O163 2.307 . S
Dy160 O165 2.395 . S
Dy160 O166 2.379 . S
Dy160 O168 2.339 . S
Dy160 O170 2.298 . S
Dy160 O174 2.275 . S
Dy160 C182 2.738 . S
Dy161 O164 2.298 . S
Dy161 O167 2.275 . S
Dy161 O169 2.307 . S
Dy161 O171 2.395 . S
Dy161 O172 2.379 . S
Dy161 O175 2.339 . S
Dy161 C191 2.738 . S
C162 O174 1.254 . S
C162 O175 1.257 . S
O163 Dy160 2.307 . S
O163 C173 1.266 . S
O164 Dy161 2.298 . S
O164 C173 1.236 . S
O165 Dy160 2.395 . S
O165 C182 1.255 . S
O166 Dy160 2.379 . S
O166 C182 1.249 . S
O167 Dy161 2.275 . S
O167 C183 1.254 . S
O168 Dy160 2.339 . S
O168 C183 1.257 . S
O169 Dy161 2.307 . S
O169 C184 1.266 . S
O170 Dy160 2.298 . S
O170 C184 1.236 . S
O171 Dy161 2.395 . S
O171 C191 1.255 . S
O172 Dy161 2.379 . S
O172 C191 1.249 . S
C173 O163 1.266 . S
C173 O164 1.236 . S
O174 Dy160 2.275 . S
O174 C162 1.254 . S
O175 Dy161 2.339 . S
O175 C162 1.257 . S
C176 C179 1.344 . S
C176 C180 1.328 . S
C176 C182 1.516 . S
C177 C178 1.304 . S
C177 C181 1.323 . S
C178 C177 1.304 . S
C178 C179 1.371 . S
C178 H192 0.930 . S
C179 C176 1.344 . S
C179 C178 1.371 . S
C179 H193 0.931 . S
C180 C176 1.328 . S
C180 C181 1.433 . S
C180 H194 0.931 . S
C181 C177 1.323 . S
C181 C180 1.433 . S
C181 H195 0.933 . S
C182 Dy160 2.738 . S
C182 O165 1.255 . S
C182 O166 1.249 . S
C182 C176 1.516 . S
C183 O167 1.254 . S
C183 O168 1.257 . S
C184 O169 1.266 . S
C184 O170 1.236 . S
C185 C188 1.344 . S
C185 C189 1.328 . S
C185 C191 1.516 . S
C186 C187 1.304 . S
C186 C190 1.323 . S
C187 C186 1.304 . S
C187 C188 1.371 . S
C187 H196 0.930 . S
C188 C185 1.344 . S
C188 C187 1.371 . S
C188 H197 0.931 . S
C189 C185 1.328 . S
C189 C190 1.433 . S
C189 H198 0.931 . S
C190 C186 1.323 . S
C190 C189 1.433 . S
C190 H199 0.933 . S
C191 Dy161 2.738 . S
C191 O171 1.255 . S
C191 O172 1.249 . S
C191 C185 1.516 . S
H192 C178 0.930 . S
H193 C179 0.931 . S
H194 C180 0.931 . S
H195 C181 0.933 . S
H196 C187 0.930 . S
H197 C188 0.931 . S
H198 C189 0.931 . S
H199 C190 0.933 . S
Dy200 O203 2.307 . S
Dy200 O205 2.395 . S
Dy200 O206 2.379 . S
Dy200 O208 2.339 . S
Dy200 O210 2.298 . S
Dy200 O214 2.275 . S
Dy200 C222 2.738 . S
Dy201 O204 2.298 . S
Dy201 O207 2.275 . S
Dy201 O209 2.307 . S
Dy201 O211 2.395 . S
Dy201 O212 2.379 . S
Dy201 O215 2.339 . S
Dy201 C231 2.738 . S
C202 O214 1.254 . S
C202 O215 1.257 . S
O203 Dy200 2.307 . S
O203 C213 1.266 . S
O204 Dy201 2.298 . S
O204 C213 1.236 . S
O205 Dy200 2.395 . S
O205 C222 1.255 . S
O206 Dy200 2.379 . S
O206 C222 1.249 . S
O207 Dy201 2.275 . S
O207 C223 1.254 . S
O208 Dy200 2.339 . S
O208 C223 1.257 . S
O209 Dy201 2.307 . S
O209 C224 1.266 . S
O210 Dy200 2.298 . S
O210 C224 1.236 . S
O211 Dy201 2.395 . S
O211 C231 1.255 . S
O212 Dy201 2.379 . S
O212 C231 1.249 . S
C213 O203 1.266 . S
C213 O204 1.236 . S
O214 Dy200 2.275 . S
O214 C202 1.254 . S
O215 Dy201 2.339 . S
O215 C202 1.257 . S
C216 C219 1.344 . S
C216 C220 1.328 . S
C216 C222 1.516 . S
C217 C218 1.304 . S
C217 C221 1.323 . S
C218 C217 1.304 . S
C218 C219 1.371 . S
C218 H232 0.930 . S
C219 C216 1.344 . S
C219 C218 1.371 . S
C219 H233 0.931 . S
C220 C216 1.328 . S
C220 C221 1.433 . S
C220 H234 0.931 . S
C221 C217 1.323 . S
C221 C220 1.433 . S
C221 H235 0.933 . S
C222 Dy200 2.738 . S
C222 O205 1.255 . S
C222 O206 1.249 . S
C222 C216 1.516 . S
C223 O207 1.254 . S
C223 O208 1.257 . S
C224 O209 1.266 . S
C224 O210 1.236 . S
C225 C228 1.344 . S
C225 C229 1.328 . S
C225 C231 1.516 . S
C226 C227 1.304 . S
C226 C230 1.323 . S
C227 C226 1.304 . S
C227 C228 1.371 . S
C227 H236 0.930 . S
C228 C225 1.344 . S
C228 C227 1.371 . S
C228 H237 0.931 . S
C229 C225 1.328 . S
C229 C230 1.433 . S
C229 H238 0.931 . S
C230 C226 1.323 . S
C230 C229 1.433 . S
C230 H239 0.933 . S
C231 Dy201 2.738 . S
C231 O211 1.255 . S
C231 O212 1.249 . S
C231 C225 1.516 . S
H232 C218 0.930 . S
H233 C219 0.931 . S
H234 C220 0.931 . S
H235 C221 0.933 . S
H236 C227 0.930 . S
H237 C228 0.931 . S
H238 C229 0.931 . S
H239 C230 0.933 . S
Dy240 O243 2.307 . S
Dy240 O245 2.395 . S
Dy240 O246 2.379 . S
Dy240 O248 2.339 . S
Dy240 O250 2.298 . S
Dy240 O254 2.275 . S
Dy240 C262 2.738 . S
Dy241 O244 2.298 . S
Dy241 O247 2.275 . S
Dy241 O249 2.307 . S
Dy241 O251 2.395 . S
Dy241 O252 2.379 . S
Dy241 O255 2.339 . S
Dy241 C271 2.738 . S
C242 O254 1.254 . S
C242 O255 1.257 . S
O243 Dy240 2.307 . S
O243 C253 1.266 . S
O244 Dy241 2.298 . S
O244 C253 1.236 . S
O245 Dy240 2.395 . S
O245 C262 1.255 . S
O246 Dy240 2.379 . S
O246 C262 1.249 . S
O247 Dy241 2.275 . S
O247 C263 1.254 . S
O248 Dy240 2.339 . S
O248 C263 1.257 . S
O249 Dy241 2.307 . S
O249 C264 1.266 . S
O250 Dy240 2.298 . S
O250 C264 1.236 . S
O251 Dy241 2.395 . S
O251 C271 1.255 . S
O252 Dy241 2.379 . S
O252 C271 1.249 . S
C253 O243 1.266 . S
C253 O244 1.236 . S
O254 Dy240 2.275 . S
O254 C242 1.254 . S
O255 Dy241 2.339 . S
O255 C242 1.257 . S
C256 C259 1.344 . S
C256 C260 1.328 . S
C256 C262 1.516 . S
C257 C258 1.304 . S
C257 C261 1.323 . S
C258 C257 1.304 . S
C258 C259 1.371 . S
C258 H272 0.930 . S
C259 C256 1.344 . S
C259 C258 1.371 . S
C259 H273 0.931 . S
C260 C256 1.328 . S
C260 C261 1.433 . S
C260 H274 0.931 . S
C261 C257 1.323 . S
C261 C260 1.433 . S
C261 H275 0.933 . S
C262 Dy240 2.738 . S
C262 O245 1.255 . S
C262 O246 1.249 . S
C262 C256 1.516 . S
C263 O247 1.254 . S
C263 O248 1.257 . S
C264 O249 1.266 . S
C264 O250 1.236 . S
C265 C268 1.344 . S
C265 C269 1.328 . S
C265 C271 1.516 . S
C266 C267 1.304 . S
C266 C270 1.323 . S
C267 C266 1.304 . S
C267 C268 1.371 . S
C267 H276 0.930 . S
C268 C265 1.344 . S
C268 C267 1.371 . S
C268 H277 0.931 . S
C269 C265 1.328 . S
C269 C270 1.433 . S
C269 H278 0.931 . S
C270 C266 1.323 . S
C270 C269 1.433 . S
C270 H279 0.933 . S
C271 Dy241 2.738 . S
C271 O251 1.255 . S
C271 O252 1.249 . S
C271 C265 1.516 . S
H272 C258 0.930 . S
H273 C259 0.931 . S
H274 C260 0.931 . S
H275 C261 0.933 . S
H276 C267 0.930 . S
H277 C268 0.931 . S
H278 C269 0.931 . S
H279 C270 0.933 . S
Dy280 O283 2.307 . S
Dy280 O285 2.395 . S
Dy280 O286 2.379 . S
Dy280 O288 2.339 . S
Dy280 O290 2.298 . S
Dy280 O294 2.275 . S
Dy280 C302 2.738 . S
Dy281 O284 2.298 . S
Dy281 O287 2.275 . S
Dy281 O289 2.307 . S
Dy281 O291 2.395 . S
Dy281 O292 2.379 . S
Dy281 O295 2.339 . S
Dy281 C311 2.738 . S
C282 O294 1.254 . S
C282 O295 1.257 . S
O283 Dy280 2.307 . S
O283 C293 1.266 . S
O284 Dy281 2.298 . S
O284 C293 1.236 . S
O285 Dy280 2.395 . S
O285 C302 1.255 . S
O286 Dy280 2.379 . S
O286 C302 1.249 . S
O287 Dy281 2.275 . S
O287 C303 1.254 . S
O288 Dy280 2.339 . S
O288 C303 1.257 . S
O289 Dy281 2.307 . S
O289 C304 1.266 . S
O290 Dy280 2.298 . S
O290 C304 1.236 . S
O291 Dy281 2.395 . S
O291 C311 1.255 . S
O292 Dy281 2.379 . S
O292 C311 1.249 . S
C293 O283 1.266 . S
C293 O284 1.236 . S
O294 Dy280 2.275 . S
O294 C282 1.254 . S
O295 Dy281 2.339 . S
O295 C282 1.257 . S
C296 C299 1.344 . S
C296 C300 1.328 . S
C296 C302 1.516 . S
C297 C298 1.304 . S
C297 C301 1.323 . S
C298 C297 1.304 . S
C298 C299 1.371 . S
C298 H312 0.930 . S
C299 C296 1.344 . S
C299 C298 1.371 . S
C299 H313 0.931 . S
C300 C296 1.328 . S
C300 C301 1.433 . S
C300 H314 0.931 . S
C301 C297 1.323 . S
C301 C300 1.433 . S
C301 H315 0.933 1_556 S
C302 Dy280 2.738 . S
C302 O285 1.255 . S
C302 O286 1.249 . S
C302 C296 1.516 . S
C303 O287 1.254 . S
C303 O288 1.257 . S
C304 O289 1.266 . S
C304 O290 1.236 . S
C305 C308 1.344 . S
C305 C309 1.328 . S
C305 C311 1.516 . S
C306 C307 1.304 . S
C306 C310 1.323 . S
C307 C306 1.304 . S
C307 C308 1.371 . S
C307 H316 0.930 . S
C308 C305 1.344 . S
C308 C307 1.371 . S
C308 H317 0.931 . S
C309 C305 1.328 . S
C309 C310 1.433 . S
C309 H318 0.931 . S
C310 C306 1.323 . S
C310 C309 1.433 . S
C310 H319 0.933 . S
C311 Dy281 2.738 . S
C311 O291 1.255 . S
C311 O292 1.249 . S
C311 C305 1.516 . S
H312 C298 0.930 . S
H313 C299 0.931 . S
H314 C300 0.931 . S
H315 C301 0.933 1_554 S
H316 C307 0.930 . S
H317 C308 0.931 . S
H318 C309 0.931 . S
H319 C310 0.933 . S
C320 O332 1.241 . S
C320 O333 1.280 . S
C321 O334 1.277 . S
C321 O335 1.245 . S
C322 O346 1.247 . S
C322 O348 1.289 . S
Mg323 O324 1.926 1_455 S
Mg323 O333 1.984 1_455 S
Mg323 O335 1.988 1_455 S
Mg323 O336 2.061 . S
O324 Mg323 1.926 1_655 S
O324 Mg325 1.986 . S
O324 Mg326 1.917 1_655 S
Mg325 O324 1.986 . S
Mg325 O332 2.042 . S
Mg325 O334 2.041 . S
Mg325 O340 2.038 1_545 S
Mg325 O348 2.238 1_545 S
Mg326 O324 1.917 1_455 S
Mg326 O327 1.917 1_545 S
Mg326 O337 2.106 . S
Mg326 O339 2.079 1_445 S
Mg326 O348 2.106 1_445 S
Mg326 O349 2.079 . S
O327 Mg326 1.917 1_565 S
O327 Mg328 1.926 . S
O327 Mg329 1.986 1_565 S
Mg328 O327 1.926 . S
Mg328 O342 1.984 . S
Mg328 O345 1.988 . S
Mg328 O346 2.061 1_455 S
Mg329 O327 1.986 1_545 S
Mg329 O337 2.238 . S
Mg329 O341 2.042 1_545 S
Mg329 O343 2.041 1_545 S
Mg329 O350 2.038 . S
C330 O336 1.247 . S
C330 O337 1.289 . S
C331 O349 1.245 . S
C331 O350 1.274 . S
O332 C320 1.241 . S
O332 Mg325 2.042 . S
O333 C320 1.280 . S
O333 Mg323 1.984 1_655 S
O334 C321 1.277 . S
O334 Mg325 2.041 . S
O335 C321 1.245 . S
O335 Mg323 1.988 1_655 S
O336 Mg323 2.061 . S
O336 C330 1.247 . S
O337 Mg326 2.106 . S
O337 Mg329 2.238 . S
O337 C330 1.289 . S
C338 O339 1.245 . S
C338 O340 1.274 . S
O339 Mg326 2.079 1_665 S
O339 C338 1.245 . S
O340 Mg325 2.038 1_565 S
O340 C338 1.274 . S
O341 Mg329 2.042 1_565 S
O341 C344 1.241 . S
O342 Mg328 1.984 . S
O342 C344 1.280 . S
O343 Mg329 2.041 1_565 S
O343 C347 1.277 . S
C344 O341 1.241 . S
C344 O342 1.280 . S
O345 Mg328 1.988 . S
O345 C347 1.245 . S
O346 C322 1.247 . S
O346 Mg328 2.061 1_655 S
C347 O343 1.277 . S
C347 O345 1.245 . S
O348 C322 1.289 . S
O348 Mg325 2.238 1_565 S
O348 Mg326 2.106 1_665 S
O349 Mg326 2.079 . S
O349 C331 1.245 . S
O350 Mg329 2.038 . S
O350 C331 1.274 . S
C351 O363 1.241 . S
C351 O364 1.280 . S
C352 O365 1.277 . S
C352 O366 1.245 . S
C353 O377 1.247 . S
C353 O379 1.289 1_565 S
Mg354 O355 1.926 . S
Mg354 O364 1.984 . S
Mg354 O366 1.988 1_554 S
Mg354 O367 2.061 . S
O355 Mg354 1.926 . S
O355 Mg356 1.986 1_554 S
O355 Mg357 1.922 . S
Mg356 O355 1.986 1_556 S
Mg356 O363 2.042 1_556 S
Mg356 O365 2.041 . S
Mg356 O371 2.038 1_556 S
Mg356 O379 2.238 . S
Mg357 O355 1.922 . S
Mg357 O358 1.912 1_554 S
Mg357 O368 2.115 . S
Mg357 O370 2.095 . S
Mg357 O379 2.098 1_554 S
Mg357 O380 2.063 1_554 S
O358 Mg357 1.912 1_556 S
O358 Mg359 1.926 1_545 S
O358 Mg360 1.986 1_556 S
Mg359 O358 1.926 1_565 S
Mg359 O373 1.984 . S
Mg359 O376 1.988 1_556 S
Mg359 O377 2.061 . S
Mg360 O358 1.986 1_554 S
Mg360 O368 2.238 . S
Mg360 O372 2.042 1_554 S
Mg360 O374 2.041 . S
Mg360 O381 2.038 1_554 S
C361 O367 1.247 . S
C361 O368 1.289 . S
C362 O380 1.245 . S
C362 O381 1.274 . S
O363 C351 1.241 . S
O363 Mg356 2.042 1_554 S
O364 C351 1.280 . S
O364 Mg354 1.984 . S
O365 C352 1.277 . S
O365 Mg356 2.041 . S
O366 C352 1.245 . S
O366 Mg354 1.988 1_556 S
O367 Mg354 2.061 . S
O367 C361 1.247 . S
O368 Mg357 2.115 . S
O368 Mg360 2.238 . S
O368 C361 1.289 . S
C369 O370 1.245 1_565 S
C369 O371 1.274 1_565 S
O370 Mg357 2.095 . S
O370 C369 1.245 1_545 S
O371 Mg356 2.038 1_554 S
O371 C369 1.274 1_545 S
O372 Mg360 2.042 1_556 S
O372 C375 1.241 1_545 S
O373 Mg359 1.984 . S
O373 C375 1.280 . S
O374 Mg360 2.041 . S
O374 C378 1.277 1_545 S
C375 O372 1.241 1_565 S
C375 O373 1.280 . S
O376 Mg359 1.988 1_554 S
O376 C378 1.245 . S
O377 C353 1.247 . S
O377 Mg359 2.061 . S
C378 O374 1.277 1_565 S
C378 O376 1.245 . S
O379 C353 1.289 1_545 S
O379 Mg356 2.238 . S
O379 Mg357 2.098 1_556 S
O380 Mg357 2.063 1_556 S
O380 C362 1.245 . S
O381 Mg360 2.038 1_556 S
O381 C362 1.274 . S
C382 O394 1.241 . S
C382 O395 1.280 . S
C383 O396 1.277 . S
C383 O397 1.245 . S
C384 O408 1.247 1_556 S
C384 O410 1.289 1_556 S
Mg385 O386 1.926 1_455 S
Mg385 O395 1.984 1_455 S
Mg385 O397 1.988 1_455 S
Mg385 O398 2.061 . S
O386 Mg385 1.926 1_655 S
O386 Mg387 1.986 . S
O386 Mg388 1.917 1_655 S
Mg387 O386 1.986 . S
Mg387 O394 2.042 . S
Mg387 O396 2.041 . S
Mg387 O402 2.038 . S
Mg387 O410 2.238 . S
Mg388 O386 1.917 1_455 S
Mg388 O389 1.917 . S
Mg388 O399 2.106 . S
Mg388 O401 2.079 1_455 S
Mg388 O410 2.106 1_455 S
Mg388 O411 2.079 . S
O389 Mg388 1.917 . S
O389 Mg390 1.926 . S
O389 Mg391 1.986 . S
Mg390 O389 1.926 . S
Mg390 O404 1.999 . S
Mg390 O407 1.988 . S
Mg390 O408 2.061 1_455 S
Mg391 O389 1.986 . S
Mg391 O399 2.238 . S
Mg391 O403 2.042 . S
Mg391 O405 2.041 . S
Mg391 O412 2.038 . S
C392 O398 1.247 . S
C392 O399 1.289 . S
C393 O411 1.245 . S
C393 O412 1.274 . S
O394 C382 1.241 . S
O394 Mg387 2.042 . S
O395 C382 1.280 . S
O395 Mg385 1.984 1_655 S
O396 C383 1.277 . S
O396 Mg387 2.041 . S
O397 C383 1.245 . S
O397 Mg385 1.988 1_655 S
O398 Mg385 2.061 . S
O398 C392 1.247 . S
O399 Mg388 2.106 . S
O399 Mg391 2.238 . S
O399 C392 1.289 . S
C400 O401 1.245 . S
C400 O402 1.274 . S
O401 Mg388 2.079 1_655 S
O401 C400 1.245 . S
O402 Mg387 2.038 . S
O402 C400 1.274 . S
O403 Mg391 2.042 . S
O403 C406 1.248 . S
O404 Mg390 1.999 . S
O404 C406 1.278 . S
O405 Mg391 2.041 . S
O405 C409 1.277 . S
C406 O403 1.248 . S
C406 O404 1.278 . S
O407 Mg390 1.988 . S
O407 C409 1.245 . S
O408 C384 1.247 1_554 S
O408 Mg390 2.061 1_655 S
C409 O405 1.277 . S
C409 O407 1.245 . S
O410 C384 1.289 1_554 S
O410 Mg387 2.238 . S
O410 Mg388 2.106 1_655 S
O411 Mg388 2.079 . S
O411 C393 1.245 . S
O412 Mg391 2.038 . S
O412 C393 1.274 . S
C413 O425 1.241 . S
C413 O426 1.280 . S
C414 O427 1.277 . S
C414 O428 1.245 . S
C415 O439 1.247 . S
C415 O441 1.289 . S
Mg416 O417 1.926 . S
Mg416 O426 1.984 . S
Mg416 O428 1.988 1_554 S
Mg416 O429 2.061 . S
O417 Mg416 1.926 . S
O417 Mg418 1.986 . S
O417 Mg419 1.917 . S
Mg418 O417 1.986 . S
Mg418 O425 2.042 . S
Mg418 O427 2.041 1_554 S
Mg418 O433 2.038 . S
Mg418 O441 2.238 1_554 S
Mg419 O417 1.917 . S
Mg419 O420 1.917 . S
Mg419 O430 2.106 . S
Mg419 O432 2.079 . S
Mg419 O441 2.106 1_554 S
Mg419 O442 2.079 1_554 S
O420 Mg419 1.917 . S
O420 Mg421 1.926 . S
O420 Mg422 1.986 . S
Mg421 O420 1.926 . S
Mg421 O435 1.984 1_554 S
Mg421 O438 1.988 . S
Mg421 O439 2.061 1_554 S
Mg422 O420 1.986 . S
Mg422 O430 2.238 . S
Mg422 O434 2.042 1_554 S
Mg422 O436 2.041 . S
Mg422 O443 2.038 1_554 S
C423 O429 1.247 . S
C423 O430 1.289 . S
C424 O442 1.245 . S
C424 O443 1.274 . S
O425 C413 1.241 . S
O425 Mg418 2.042 . S
O426 C413 1.280 . S
O426 Mg416 1.984 . S
O427 C414 1.277 . S
O427 Mg418 2.041 1_556 S
O428 C414 1.245 . S
O428 Mg416 1.988 1_556 S
O429 Mg416 2.061 . S
O429 C423 1.247 . S
O430 Mg419 2.106 . S
O430 Mg422 2.238 . S
O430 C423 1.289 . S
C431 O432 1.245 . S
C431 O433 1.274 . S
O432 Mg419 2.079 . S
O432 C431 1.245 . S
O433 Mg418 2.038 . S
O433 C431 1.274 . S
O434 Mg422 2.042 1_556 S
O434 C437 1.241 . S
O435 Mg421 1.984 1_556 S
O435 C437 1.280 . S
O436 Mg422 2.041 . S
O436 C440 1.277 . S
C437 O434 1.241 . S
C437 O435 1.280 . S
O438 Mg421 1.988 . S
O438 C440 1.245 . S
O439 C415 1.247 . S
O439 Mg421 2.061 1_556 S
C440 O436 1.277 . S
C440 O438 1.245 . S
O441 C415 1.289 . S
O441 Mg418 2.238 1_556 S
O441 Mg419 2.106 1_556 S
O442 Mg419 2.079 1_556 S
O442 C424 1.245 . S
O443 Mg422 2.038 1_556 S
O443 C424 1.274 . S
C444 O456 1.241 . S
C444 O457 1.280 . S
C445 O458 1.277 . S
C445 O459 1.245 1_655 S
C446 O470 1.247 . S
C446 O472 1.289 . S
Mg447 O448 1.926 . S
Mg447 O457 1.984 1_455 S
Mg447 O459 1.988 . S
Mg447 O460 2.061 . S
O448 Mg447 1.926 . S
O448 Mg449 1.986 1_455 S
O448 Mg450 1.917 . S
Mg449 O448 1.986 1_655 S
Mg449 O456 2.042 . S
Mg449 O458 2.041 . S
Mg449 O464 2.038 . S
Mg449 O472 2.238 . S
Mg450 O448 1.917 . S
Mg450 O451 1.917 . S
Mg450 O461 2.106 . S
Mg450 O463 2.079 . S
Mg450 O472 2.106 1_455 S
Mg450 O473 2.079 . S
O451 Mg450 1.917 . S
O451 Mg452 1.926 . S
O451 Mg453 1.986 . S
Mg452 O451 1.926 . S
Mg452 O466 1.984 . S
Mg452 O469 1.988 . S
Mg452 O470 2.061 1_455 S
Mg453 O451 1.986 . S
Mg453 O461 2.238 . S
Mg453 O465 2.042 . S
Mg453 O467 2.041 . S
Mg453 O474 2.038 . S
C454 O460 1.247 . S
C454 O461 1.289 . S
C455 O473 1.245 . S
C455 O474 1.274 . S
O456 C444 1.241 . S
O456 Mg449 2.042 . S
O457 C444 1.280 . S
O457 Mg447 1.984 1_655 S
O458 C445 1.277 . S
O458 Mg449 2.041 . S
O459 C445 1.245 1_455 S
O459 Mg447 1.988 . S
O460 Mg447 2.061 . S
O460 C454 1.247 . S
O461 Mg450 2.106 . S
O461 Mg453 2.238 . S
O461 C454 1.289 . S
C462 O463 1.245 1_655 S
C462 O464 1.274 . S
O463 Mg450 2.079 . S
O463 C462 1.245 1_455 S
O464 Mg449 2.038 . S
O464 C462 1.274 . S
O465 Mg453 2.042 . S
O465 C468 1.241 . S
O466 Mg452 1.984 . S
O466 C468 1.280 . S
O467 Mg453 2.041 . S
O467 C471 1.277 . S
C468 O465 1.241 . S
C468 O466 1.280 . S
O469 Mg452 1.988 . S
O469 C471 1.245 . S
O470 C446 1.247 . S
O470 Mg452 2.061 1_655 S
C471 O467 1.277 . S
C471 O469 1.245 . S
O472 C446 1.289 . S
O472 Mg449 2.238 . S
O472 Mg450 2.106 1_655 S
O473 Mg450 2.079 . S
O473 C455 1.245 . S
O474 Mg453 2.038 . S
O474 C455 1.274 . S
C475 O487 1.241 . S
C475 O488 1.280 . S
C476 O489 1.277 . S
C476 O490 1.245 . S
C477 O501 1.247 . S
C477 O503 1.289 . S
Mg478 O479 1.926 . S
Mg478 O488 1.984 . S
Mg478 O490 1.988 . S
Mg478 O491 2.061 . S
O479 Mg478 1.926 . S
O479 Mg480 1.986 1_545 S
O479 Mg481 1.917 . S
Mg480 O479 1.986 1_565 S
Mg480 O487 2.042 1_565 S
Mg480 O489 2.041 1_565 S
Mg480 O495 2.038 . S
Mg480 O503 2.238 . S
Mg481 O479 1.917 . S
Mg481 O482 1.917 1_545 S
Mg481 O492 2.106 . S
Mg481 O494 2.079 1_545 S
Mg481 O503 2.106 1_545 S
Mg481 O504 2.079 . S
O482 Mg481 1.917 1_565 S
O482 Mg483 1.926 . S
O482 Mg484 1.986 1_565 S
Mg483 O482 1.926 . S
Mg483 O497 1.984 . S
Mg483 O500 1.988 . S
Mg483 O501 2.061 . S
Mg484 O482 1.986 1_545 S
Mg484 O492 2.238 . S
Mg484 O496 2.042 1_545 S
Mg484 O498 2.041 1_545 S
Mg484 O505 2.038 . S
C485 O491 1.247 . S
C485 O492 1.289 . S
C486 O504 1.245 . S
C486 O505 1.274 . S
O487 C475 1.241 . S
O487 Mg480 2.042 1_545 S
O488 C475 1.280 . S
O488 Mg478 1.984 . S
O489 C476 1.277 . S
O489 Mg480 2.041 1_545 S
O490 C476 1.245 . S
O490 Mg478 1.988 . S
O491 Mg478 2.061 . S
O491 C485 1.247 . S
O492 Mg481 2.106 . S
O492 Mg484 2.238 . S
O492 C485 1.289 . S
C493 O494 1.245 . S
C493 O495 1.274 . S
O494 Mg481 2.079 1_565 S
O494 C493 1.245 . S
O495 Mg480 2.038 . S
O495 C493 1.274 . S
O496 Mg484 2.042 1_565 S
O496 C499 1.241 . S
O497 Mg483 1.984 . S
O497 C499 1.280 . S
O498 Mg484 2.041 1_565 S
O498 C502 1.277 . S
C499 O496 1.241 . S
C499 O497 1.280 . S
O500 Mg483 1.988 . S
O500 C502 1.245 . S
O501 C477 1.247 . S
O501 Mg483 2.061 . S
C502 O498 1.277 . S
C502 O500 1.245 . S
O503 C477 1.289 . S
O503 Mg480 2.238 . S
O503 Mg481 2.106 1_565 S
O504 Mg481 2.079 . S
O504 C486 1.245 . S
O505 Mg484 2.038 . S
O505 C486 1.274 . S
C506 C507 1.387 . S
C506 H510 0.950 . S
C506 C515 1.390 . S
C507 C506 1.387 . S
C507 C509 1.387 . S
H508 C515 0.950 . S
C509 C507 1.387 . S
C509 C511 1.390 . S
C509 H513 0.950 . S
H510 C506 0.950 . S
C511 C509 1.390 . S
C511 C512 1.387 . S
C511 H514 0.950 . S
C512 C511 1.387 . S
C512 C515 1.387 . S
H513 C509 0.950 . S
H514 C511 0.950 . S
C515 C506 1.390 . S
C515 H508 0.950 . S
C515 C512 1.387 . S
C516 C517 1.387 . S
C516 H520 0.950 . S
C516 C525 1.390 . S
C517 C516 1.387 . S
C517 C519 1.387 . S
H518 C525 0.950 . S
C519 C517 1.387 . S
C519 C521 1.390 . S
C519 H523 0.950 . S
H520 C516 0.950 . S
C521 C519 1.390 . S
C521 C522 1.387 . S
C521 H524 0.950 . S
C522 C521 1.387 . S
C522 C525 1.387 . S
H523 C519 0.950 . S
H524 C521 0.950 . S
C525 C516 1.390 . S
C525 H518 0.950 . S
C525 C522 1.387 . S
C526 C527 1.387 . S
C526 H530 0.950 . S
C526 C535 1.390 . S
C527 C526 1.387 . S
C527 C529 1.387 . S
H528 C535 0.950 . S
C529 C527 1.387 . S
C529 C531 1.390 . S
C529 H533 0.950 . S
H530 C526 0.950 . S
C531 C529 1.390 . S
C531 C532 1.387 . S
C531 H534 0.950 . S
C532 C531 1.387 . S
C532 C535 1.387 . S
H533 C529 0.950 . S
H534 C531 0.950 . S
C535 C526 1.390 . S
C535 H528 0.950 . S
C535 C532 1.387 . S
C536 C537 1.387 . S
C536 H540 0.950 . S
C536 C545 1.390 . S
C537 C536 1.387 . S
C537 C539 1.387 . S
H538 C545 0.950 . S
C539 C537 1.387 . S
C539 C541 1.390 . S
C539 H543 0.950 . S
H540 C536 0.950 . S
C541 C539 1.390 . S
C541 C542 1.387 . S
C541 H544 0.950 . S
C542 C541 1.387 . S
C542 C545 1.387 . S
H543 C539 0.950 . S
H544 C541 0.950 . S
C545 C536 1.390 . S
C545 H538 0.950 . S
C545 C542 1.387 . S
C546 C547 1.387 . S
C546 H550 0.950 . S
C546 C555 1.390 . S
C547 C546 1.387 . S
C547 C549 1.387 . S
H548 C555 0.950 . S
C549 C547 1.387 . S
C549 C551 1.390 . S
C549 H553 0.950 . S
H550 C546 0.950 . S
C551 C549 1.390 . S
C551 C552 1.387 . S
C551 H554 0.950 . S
C552 C551 1.387 . S
C552 C555 1.387 . S
H553 C549 0.950 . S
H554 C551 0.950 . S
C555 C546 1.390 . S
C555 H548 0.950 . S
C555 C552 1.387 . S
C556 C557 1.387 . S
C556 H560 0.950 . S
C556 C565 1.390 . S
C557 C556 1.387 . S
C557 C559 1.387 . S
H558 C565 0.950 . S
C559 C557 1.387 . S
C559 C561 1.390 . S
C559 H563 0.950 . S
H560 C556 0.950 . S
C561 C559 1.390 . S
C561 C562 1.387 . S
C561 H564 0.950 . S
C562 C561 1.387 . S
C562 C565 1.387 . S
H563 C559 0.950 . S
H564 C561 0.950 . S
C565 C556 1.390 . S
C565 H558 0.950 . S
C565 C562 1.387 . S
C566 C567 1.387 . S
C566 H570 0.950 . S
C566 C575 1.390 . S
C567 C566 1.387 . S
C567 C569 1.387 . S
H568 C575 0.950 . S
C569 C567 1.387 . S
C569 C571 1.390 . S
C569 H573 0.950 . S
H570 C566 0.950 . S
C571 C569 1.390 . S
C571 C572 1.387 . S
C571 H574 0.950 . S
C572 C571 1.387 . S
C572 C575 1.387 . S
H573 C569 0.950 . S
H574 C571 0.950 . S
C575 C566 1.390 . S
C575 H568 0.950 . S
C575 C572 1.387 . S
C576 C577 1.387 . S
C576 H580 0.950 . S
C576 C585 1.390 . S
C577 C576 1.387 . S
C577 C579 1.387 . S
H578 C585 0.950 1_545 S
C579 C577 1.387 . S
C579 C581 1.390 . S
C579 H583 0.950 . S
H580 C576 0.950 . S
C581 C579 1.390 . S
C581 C582 1.387 . S
C581 H584 0.950 . S
C582 C581 1.387 . S
C582 C585 1.387 . S
H583 C579 0.950 . S
H584 C581 0.950 . S
C585 C576 1.390 . S
C585 H578 0.950 1_565 S
C585 C582 1.387 . S
C586 C587 1.387 . S
C586 H590 0.950 . S
C586 C595 1.390 . S
C587 C586 1.387 . S
C587 C589 1.387 . S
H588 C595 0.950 . S
C589 C587 1.387 . S
C589 C591 1.390 . S
C589 H593 0.950 . S
H590 C586 0.950 . S
C591 C589 1.390 . S
C591 C592 1.387 . S
C591 H594 0.950 . S
C592 C591 1.387 . S
C592 C595 1.387 . S
H593 C589 0.950 . S
H594 C591 0.950 . S
C595 C586 1.390 . S
C595 H588 0.950 . S
C595 C592 1.387 . S
C596 C597 1.387 . S
C596 H600 0.950 . S
C596 C605 1.390 . S
C597 C596 1.387 . S
C597 C599 1.387 . S
H598 C605 0.950 . S
C599 C597 1.387 . S
C599 C601 1.390 . S
C599 H603 0.947 . S
H600 C596 0.950 . S
C601 C599 1.390 . S
C601 C602 1.387 . S
C601 H604 0.950 1_655 S
C602 C601 1.387 . S
C602 C605 1.387 . S
H603 C599 0.947 . S
H604 C601 0.950 1_455 S
C605 C596 1.390 . S
C605 H598 0.950 . S
C605 C602 1.387 . S
C606 C607 1.387 . S
C606 H610 0.950 . S
C606 C615 1.390 . S
C607 C606 1.387 . S
C607 C609 1.412 . S
H608 C615 0.950 . S
C609 C607 1.412 . S
C609 C611 1.387 . S
C609 H613 0.937 1_565 S
H610 C606 0.950 . S
C611 C609 1.387 . S
C611 C612 1.397 . S
C611 H614 0.932 1_565 S
C612 C611 1.397 . S
C612 C615 1.387 . S
H613 C609 0.937 1_545 S
H614 C611 0.932 1_545 S
C615 C606 1.390 . S
C615 H608 0.950 . S
C615 C612 1.387 . S
C616 C617 1.387 . S
C616 H620 0.950 . S
C616 C625 1.390 . S
C617 C616 1.387 . S
C617 C619 1.387 . S
H618 C625 0.950 . S
C619 C617 1.387 . S
C619 C621 1.390 . S
C619 H623 0.950 . S
H620 C616 0.950 . S
C621 C619 1.390 . S
C621 C622 1.387 . S
C621 H624 0.950 . S
C622 C621 1.387 . S
C622 C625 1.387 . S
H623 C619 0.950 . S
H624 C621 0.950 . S
C625 C616 1.390 . S
C625 H618 0.950 . S
C625 C622 1.387 . S
C626 C627 1.387 . S
C626 H630 0.950 . S
C626 C635 1.390 . S
C627 C626 1.387 . S
C627 C629 1.387 . S
H628 C635 0.950 . S
C629 C627 1.387 . S
C629 C631 1.390 . S
C629 H633 0.950 . S
H630 C626 0.950 . S
C631 C629 1.390 . S
C631 C632 1.387 . S
C631 H634 0.950 . S
C632 C631 1.387 . S
C632 C635 1.387 . S
H633 C629 0.950 . S
H634 C631 0.950 . S
C635 C626 1.390 . S
C635 H628 0.950 . S
C635 C632 1.387 . S
C636 C637 1.387 . S
C636 H640 0.950 . S
C636 C645 1.390 . S
C637 C636 1.387 . S
C637 C639 1.387 . S
H638 C645 0.950 . S
C639 C637 1.387 . S
C639 C641 1.390 . S
C639 H643 0.950 . S
H640 C636 0.950 . S
C641 C639 1.390 . S
C641 C642 1.387 . S
C641 H644 0.950 . S
C642 C641 1.387 . S
C642 C645 1.387 . S
H643 C639 0.950 . S
H644 C641 0.950 . S
C645 C636 1.390 . S
C645 H638 0.950 . S
C645 C642 1.387 . S
C646 C647 1.387 . S
C646 H650 0.950 . S
C646 C655 1.390 . S
C647 C646 1.387 . S
C647 C649 1.387 . S
H648 C655 0.950 . S
C649 C647 1.387 . S
C649 C651 1.390 . S
C649 H653 0.950 . S
H650 C646 0.950 . S
C651 C649 1.390 . S
C651 C652 1.387 . S
C651 H654 0.950 . S
C652 C651 1.387 . S
C652 C655 1.387 . S
H653 C649 0.950 . S
H654 C651 0.950 . S
C655 C646 1.390 . S
C655 H648 0.950 . S
C655 C652 1.387 . S
C656 C657 1.387 . S
C656 H660 0.950 . S
C656 C665 1.390 . S
C657 C656 1.387 . S
C657 C659 1.387 1_554 S
H658 C665 0.950 . S
C659 C657 1.387 1_556 S
C659 C661 1.390 . S
C659 H663 0.950 . S
H660 C656 0.950 . S
C661 C659 1.390 . S
C661 C662 1.387 . S
C661 H664 0.950 . S
C662 C661 1.387 . S
C662 C665 1.387 1_556 S
H663 C659 0.950 . S
H664 C661 0.950 . S
C665 C656 1.390 . S
C665 H658 0.950 . S
C665 C662 1.387 1_554 S
C666 C667 1.387 . S
C666 H670 0.950 . S
C666 C675 1.390 . S
C667 C666 1.387 . S
C667 C669 1.387 . S
H668 C675 0.950 . S
C669 C667 1.387 . S
C669 C671 1.390 . S
C669 H673 0.950 . S
H670 C666 0.950 . S
C671 C669 1.390 . S
C671 C672 1.387 . S
C671 H674 0.950 . S
C672 C671 1.387 . S
C672 C675 1.387 . S
H673 C669 0.950 . S
H674 C671 0.950 . S
C675 C666 1.390 . S
C675 H668 0.950 . S
C675 C672 1.387 . S
C676 C677 1.387 . S
C676 H680 0.950 . S
C676 C685 1.390 . S
C677 C676 1.387 . S
C677 C679 1.387 . S
H678 C685 0.950 . S
C679 C677 1.387 . S
C679 C681 1.390 . S
C679 H683 0.950 . S
H680 C676 0.950 . S
C681 C679 1.390 . S
C681 C682 1.388 1_556 S
C681 H684 0.950 1_556 S
C682 C681 1.388 1_554 S
C682 C685 1.388 1_554 S
H683 C679 0.950 . S
H684 C681 0.950 1_554 S
C685 C676 1.390 . S
C685 H678 0.950 . S
C685 C682 1.388 1_556 S
C686 C687 1.387 . S
C686 H690 0.950 . S
C686 C695 1.390 . S
C687 C686 1.387 . S
C687 C689 1.387 . S
H688 C695 0.950 . S
C689 C687 1.387 . S
C689 C691 1.390 . S
C689 H693 0.950 . S
H690 C686 0.950 . S
C691 C689 1.390 . S
C691 C692 1.387 . S
C691 H694 0.950 . S
C692 C691 1.387 . S
C692 C695 1.387 . S
H693 C689 0.950 . S
H694 C691 0.950 . S
C695 C686 1.390 . S
C695 H688 0.950 . S
C695 C692 1.387 . S
C696 C697 1.387 . S
C696 H700 0.950 . S
C696 C705 1.390 . S
C697 C696 1.387 . S
C697 C699 1.387 . S
H698 C705 0.950 . S
C699 C697 1.387 . S
C699 C701 1.390 . S
C699 H703 0.950 . S
H700 C696 0.950 . S
C701 C699 1.390 . S
C701 C702 1.387 . S
C701 H704 0.950 . S
C702 C701 1.387 . S
C702 C705 1.387 . S
H703 C699 0.950 . S
H704 C701 0.950 . S
C705 C696 1.390 . S
C705 H698 0.950 . S
C705 C702 1.387 . S
C706 C707 1.387 . S
C706 H710 0.950 . S
C706 C715 1.390 . S
C707 C706 1.387 . S
C707 C709 1.387 . S
H708 C715 0.950 . S
C709 C707 1.387 . S
C709 C711 1.390 . S
C709 H713 0.950 . S
H710 C706 0.950 . S
C711 C709 1.390 . S
C711 C712 1.387 . S
C711 H714 0.950 . S
C712 C711 1.387 . S
C712 C715 1.387 . S
H713 C709 0.950 . S
H714 C711 0.950 . S
C715 C706 1.390 . S
C715 H708 0.950 . S
C715 C712 1.387 . S
C716 C717 1.387 . S
C716 H720 0.950 . S
C716 C725 1.390 . S
C717 C716 1.387 . S
C717 C719 1.387 . S
H718 C725 0.950 . S
C719 C717 1.387 . S
C719 C721 1.390 . S
C719 H723 0.950 . S
H720 C716 0.950 . S
C721 C719 1.390 . S
C721 C722 1.387 . S
C721 H724 0.950 . S
C722 C721 1.387 . S
C722 C725 1.387 . S
H723 C719 0.950 . S
H724 C721 0.950 . S
C725 C716 1.390 . S
C725 H718 0.950 . S
C725 C722 1.387 . S
C726 C727 1.387 . S
C726 H730 0.950 . S
C726 C735 1.390 . S
C727 C726 1.387 . S
C727 C729 1.387 . S
H728 C735 0.950 . S
C729 C727 1.387 . S
C729 C731 1.390 . S
C729 H733 0.950 . S
H730 C726 0.950 . S
C731 C729 1.390 . S
C731 C732 1.387 . S
C731 H734 0.950 . S
C732 C731 1.387 . S
C732 C735 1.387 . S
H733 C729 0.950 . S
H734 C731 0.950 . S
C735 C726 1.390 . S
C735 H728 0.950 . S
C735 C732 1.387 . S
C736 C737 1.387 . S
C736 H740 0.950 . S
C736 C745 1.390 . S
C737 C736 1.387 . S
C737 C739 1.387 . S
H738 C745 0.950 . S
C739 C737 1.387 . S
C739 C741 1.390 . S
C739 H743 0.950 . S
H740 C736 0.950 . S
C741 C739 1.390 . S
C741 C742 1.387 . S
C741 H744 0.950 . S
C742 C741 1.387 . S
C742 C745 1.387 . S
H743 C739 0.950 . S
H744 C741 0.950 . S
C745 C736 1.390 . S
C745 H738 0.950 . S
C745 C742 1.387 . S
C746 C747 1.387 . S
C746 H750 0.950 . S
C746 C755 1.390 . S
C747 C746 1.387 . S
C747 C749 1.387 . S
H748 C755 0.950 . S
C749 C747 1.387 . S
C749 C751 1.390 . S
C749 H753 0.950 . S
H750 C746 0.950 . S
C751 C749 1.390 . S
C751 C752 1.387 . S
C751 H754 0.950 . S
C752 C751 1.387 . S
C752 C755 1.387 . S
H753 C749 0.950 . S
H754 C751 0.950 . S
C755 C746 1.390 . S
C755 H748 0.950 . S
C755 C752 1.387 . S
C756 C757 1.387 . S
C756 H760 0.950 . S
C756 C765 1.390 . S
C757 C756 1.387 . S
C757 C759 1.387 . S
H758 C765 0.950 . S
C759 C757 1.387 . S
C759 C761 1.390 . S
C759 H763 0.950 . S
H760 C756 0.950 . S
C761 C759 1.390 . S
C761 C762 1.387 . S
C761 H764 0.950 . S
C762 C761 1.387 . S
C762 C765 1.387 . S
H763 C759 0.950 . S
H764 C761 0.950 . S
C765 C756 1.390 . S
C765 H758 0.950 . S
C765 C762 1.387 . S
C766 C767 1.387 . S
C766 H770 0.950 . S
C766 C775 1.390 . S
C767 C766 1.387 . S
C767 C769 1.387 . S
H768 C775 0.950 . S
C769 C767 1.387 . S
C769 C771 1.390 . S
C769 H773 0.950 . S
H770 C766 0.950 . S
C771 C769 1.390 . S
C771 C772 1.387 . S
C771 H774 0.950 . S
C772 C771 1.387 . S
C772 C775 1.387 . S
H773 C769 0.950 . S
H774 C771 0.950 . S
C775 C766 1.390 . S
C775 H768 0.950 . S
C775 C772 1.387 . S
C776 C777 1.387 . S
C776 H780 0.950 . S
C776 C785 1.390 . S
C777 C776 1.387 . S
C777 C779 1.387 . S
H778 C785 0.950 . S
C779 C777 1.387 . S
C779 C781 1.390 . S
C779 H783 0.950 . S
H780 C776 0.950 . S
C781 C779 1.390 . S
C781 C782 1.387 . S
C781 H784 0.950 . S
C782 C781 1.387 . S
C782 C785 1.387 . S
H783 C779 0.950 . S
H784 C781 0.950 . S
C785 C776 1.390 . S
C785 H778 0.950 . S
C785 C782 1.387 . S
C786 C787 1.387 . S
C786 H790 0.950 . S
C786 C795 1.390 . S
C787 C786 1.387 . S
C787 C789 1.387 . S
H788 C795 0.950 . S
C789 C787 1.387 . S
C789 C791 1.390 . S
C789 H793 0.950 . S
H790 C786 0.950 . S
C791 C789 1.390 . S
C791 C792 1.387 . S
C791 H794 0.950 . S
C792 C791 1.387 . S
C792 C795 1.387 . S
H793 C789 0.950 . S
H794 C791 0.950 . S
C795 C786 1.390 . S
C795 H788 0.950 . S
C795 C792 1.387 . S
C796 C797 1.387 . S
C796 H800 0.950 . S
C796 C805 1.390 . S
C797 C796 1.387 . S
C797 C799 1.387 . S
H798 C805 0.950 . S
C799 C797 1.387 . S
C799 C801 1.390 . S
C799 H803 0.950 . S
H800 C796 0.950 . S
C801 C799 1.390 . S
C801 C802 1.387 . S
C801 H804 0.950 . S
C802 C801 1.387 . S
C802 C805 1.387 . S
H803 C799 0.950 . S
H804 C801 0.950 . S
C805 C796 1.390 . S
C805 H798 0.950 . S
C805 C802 1.387 . S
C806 C807 1.387 . S
C806 H810 0.950 . S
C806 C815 1.390 . S
C807 C806 1.387 . S
C807 C809 1.387 . S
H808 C815 0.950 . S
C809 C807 1.387 . S
C809 C811 1.390 . S
C809 H813 0.950 . S
H810 C806 0.950 . S
C811 C809 1.390 . S
C811 C812 1.387 . S
C811 H814 0.950 . S
C812 C811 1.387 . S
C812 C815 1.387 . S
H813 C809 0.950 . S
H814 C811 0.950 . S
C815 C806 1.390 . S
C815 H808 0.950 . S
C815 C812 1.387 . S
C816 C817 1.387 . S
C816 H820 0.950 . S
C816 C825 1.390 . S
C817 C816 1.387 . S
C817 C819 1.387 . S
H818 C825 0.950 . S
C819 C817 1.387 . S
C819 C821 1.390 . S
C819 H823 0.950 . S
H820 C816 0.950 . S
C821 C819 1.390 . S
C821 C822 1.387 . S
C821 H824 0.950 . S
C822 C821 1.387 . S
C822 C825 1.387 . S
H823 C819 0.950 . S
H824 C821 0.950 . S
C825 C816 1.390 . S
C825 H818 0.950 . S
C825 C822 1.387 . S
C826 C827 1.387 . S
C826 H830 0.950 . S
C826 C835 1.390 . S
C827 C826 1.387 . S
C827 C829 1.387 . S
H828 C835 0.950 . S
C829 C827 1.387 . S
C829 C831 1.390 . S
C829 H833 0.950 . S
H830 C826 0.950 . S
C831 C829 1.390 . S
C831 C832 1.387 . S
C831 H834 0.950 . S
C832 C831 1.387 . S
C832 C835 1.387 . S
H833 C829 0.950 . S
H834 C831 0.950 . S
C835 C826 1.390 . S
C835 H828 0.950 . S
C835 C832 1.387 . S
C836 C837 1.387 . S
C836 H840 0.950 . S
C836 C845 1.390 . S
C837 C836 1.387 . S
C837 C839 1.387 . S
H838 C845 0.950 . S
C839 C837 1.387 . S
C839 C841 1.390 . S
C839 H843 0.950 1_565 S
H840 C836 0.950 . S
C841 C839 1.390 . S
C841 C842 1.387 . S
C841 H844 0.950 1_565 S
C842 C841 1.387 . S
C842 C845 1.387 . S
H843 C839 0.950 1_545 S
H844 C841 0.950 1_545 S
C845 C836 1.390 . S
C845 H838 0.950 . S
C845 C842 1.387 . S
C846 C847 1.387 . S
C846 H850 0.950 . S
C846 C855 1.390 . S
C847 C846 1.387 . S
C847 C849 1.387 . S
H848 C855 0.950 . S
C849 C847 1.387 . S
C849 C851 1.390 . S
C849 H853 0.950 . S
H850 C846 0.950 . S
C851 C849 1.390 . S
C851 C852 1.387 . S
C851 H854 0.950 . S
C852 C851 1.387 . S
C852 C855 1.387 . S
H853 C849 0.950 . S
H854 C851 0.950 . S
C855 C846 1.390 . S
C855 H848 0.950 . S
C855 C852 1.387 . S
C856 C857 1.387 . S
C856 H860 0.950 . S
C856 C865 1.390 . S
C857 C856 1.387 . S
C857 C859 1.387 . S
H858 C865 0.950 . S
C859 C857 1.387 . S
C859 C861 1.390 . S
C859 H863 0.950 . S
H860 C856 0.950 . S
C861 C859 1.390 . S
C861 C862 1.387 . S
C861 H864 0.950 . S
C862 C861 1.387 . S
C862 C865 1.387 . S
H863 C859 0.950 . S
H864 C861 0.950 . S
C865 C856 1.390 . S
C865 H858 0.950 . S
C865 C862 1.387 . S
C866 C867 1.387 . S
C866 H870 0.950 . S
C866 C875 1.390 . S
C867 C866 1.387 . S
C867 C869 1.387 . S
H868 C875 0.950 . S
C869 C867 1.387 . S
C869 C871 1.390 . S
C869 H873 0.950 . S
H870 C866 0.950 . S
C871 C869 1.390 . S
C871 C872 1.387 . S
C871 H874 0.950 . S
C872 C871 1.387 . S
C872 C875 1.387 . S
H873 C869 0.950 . S
H874 C871 0.950 . S
C875 C866 1.390 . S
C875 H868 0.950 . S
C875 C872 1.387 . S
C876 C877 1.387 . S
C876 H880 0.950 . S
C876 C885 1.390 . S
C877 C876 1.387 . S
C877 C879 1.387 . S
H878 C885 0.950 . S
C879 C877 1.387 . S
C879 C881 1.390 . S
C879 H883 0.950 . S
H880 C876 0.950 . S
C881 C879 1.390 . S
C881 C882 1.387 . S
C881 H884 0.950 . S
C882 C881 1.387 . S
C882 C885 1.387 . S
H883 C879 0.950 . S
H884 C881 0.950 . S
C885 C876 1.390 . S
C885 H878 0.950 . S
C885 C882 1.387 . S
C886 C887 1.387 . S
C886 H890 0.950 . S
C886 C895 1.390 . S
C887 C886 1.387 . S
C887 C889 1.387 . S
H888 C895 0.950 . S
C889 C887 1.387 . S
C889 C891 1.390 . S
C889 H893 0.950 . S
H890 C886 0.950 . S
C891 C889 1.390 . S
C891 C892 1.387 . S
C891 H894 0.950 . S
C892 C891 1.387 . S
C892 C895 1.387 . S
H893 C889 0.950 . S
H894 C891 0.950 . S
C895 C886 1.390 . S
C895 H888 0.950 . S
C895 C892 1.387 . S
C896 C897 1.387 . S
C896 H900 0.950 . S
C896 C905 1.390 . S
C897 C896 1.387 . S
C897 C899 1.387 . S
H898 C905 0.950 . S
C899 C897 1.387 . S
C899 C901 1.390 . S
C899 H903 0.950 . S
H900 C896 0.950 . S
C901 C899 1.390 . S
C901 C902 1.387 . S
C901 H904 0.950 . S
C902 C901 1.387 . S
C902 C905 1.387 . S
H903 C899 0.950 . S
H904 C901 0.950 . S
C905 C896 1.390 . S
C905 H898 0.950 . S
C905 C902 1.387 . S
C906 C907 1.387 . S
C906 H910 0.950 . S
C906 C915 1.390 . S
C907 C906 1.387 . S
C907 C909 1.387 . S
H908 C915 0.950 . S
C909 C907 1.387 . S
C909 C911 1.390 . S
C909 H913 0.950 . S
H910 C906 0.950 . S
C911 C909 1.390 . S
C911 C912 1.387 . S
C911 H914 0.950 . S
C912 C911 1.387 . S
C912 C915 1.387 . S
H913 C909 0.950 . S
H914 C911 0.950 . S
C915 C906 1.390 . S
C915 H908 0.950 . S
C915 C912 1.387 . S
C916 C917 1.387 . S
C916 H920 0.950 . S
C916 C925 1.390 . S
C917 C916 1.387 . S
C917 C919 1.387 . S
H918 C925 0.950 . S
C919 C917 1.387 . S
C919 C921 1.390 . S
C919 H923 0.950 . S
H920 C916 0.950 . S
C921 C919 1.390 . S
C921 C922 1.387 . S
C921 H924 0.950 . S
C922 C921 1.387 . S
C922 C925 1.387 . S
H923 C919 0.950 . S
H924 C921 0.950 . S
C925 C916 1.390 . S
C925 H918 0.950 . S
C925 C922 1.387 . S
C926 C927 1.387 . S
C926 H930 0.950 . S
C926 C935 1.390 . S
C927 C926 1.387 . S
C927 C929 1.387 . S
H928 C935 0.950 . S
C929 C927 1.387 . S
C929 C931 1.390 . S
C929 H933 0.950 . S
H930 C926 0.950 . S
C931 C929 1.390 . S
C931 C932 1.387 . S
C931 H934 0.950 . S
C932 C931 1.387 . S
C932 C935 1.387 . S
H933 C929 0.950 . S
H934 C931 0.950 . S
C935 C926 1.390 . S
C935 H928 0.950 . S
C935 C932 1.387 . S
C936 C937 1.387 . S
C936 H940 0.950 . S
C936 C945 1.390 . S
C937 C936 1.387 . S
C937 C939 1.387 . S
H938 C945 0.950 . S
C939 C937 1.387 . S
C939 C941 1.390 . S
C939 H943 0.950 . S
H940 C936 0.950 . S
C941 C939 1.390 . S
C941 C942 1.387 . S
C941 H944 0.950 . S
C942 C941 1.387 . S
C942 C945 1.387 . S
H943 C939 0.950 . S
H944 C941 0.950 . S
C945 C936 1.390 . S
C945 H938 0.950 . S
C945 C942 1.387 . S
C946 C947 1.387 . S
C946 H950 0.950 . S
C946 C955 1.390 . S
C947 C946 1.387 . S
C947 C949 1.387 . S
H948 C955 0.950 . S
C949 C947 1.387 . S
C949 C951 1.390 . S
C949 H953 0.950 . S
H950 C946 0.950 . S
C951 C949 1.390 . S
C951 C952 1.387 . S
C951 H954 0.950 . S
C952 C951 1.387 . S
C952 C955 1.387 . S
H953 C949 0.950 . S
H954 C951 0.950 . S
C955 C946 1.390 . S
C955 H948 0.950 . S
C955 C952 1.387 . S
C956 C957 1.387 . S
C956 H960 0.950 . S
C956 C965 1.390 . S
C957 C956 1.387 . S
C957 C959 1.387 . S
H958 C965 0.950 . S
C959 C957 1.387 . S
C959 C961 1.390 . S
C959 H963 0.950 . S
H960 C956 0.950 . S
C961 C959 1.390 . S
C961 C962 1.387 . S
C961 H964 0.950 . S
C962 C961 1.387 . S
C962 C965 1.387 . S
H963 C959 0.950 . S
H964 C961 0.950 . S
C965 C956 1.390 . S
C965 H958 0.950 . S
C965 C962 1.387 . S
C966 C967 1.387 . S
C966 H970 0.950 . S
C966 C975 1.390 . S
C967 C966 1.387 . S
C967 C969 1.387 . S
H968 C975 0.950 . S
C969 C967 1.387 . S
C969 C971 1.390 . S
C969 H973 0.950 . S
H970 C966 0.950 . S
C971 C969 1.390 . S
C971 C972 1.387 . S
C971 H974 0.950 . S
C972 C971 1.387 . S
C972 C975 1.387 . S
H973 C969 0.950 . S
H974 C971 0.950 . S
C975 C966 1.390 . S
C975 H968 0.950 . S
C975 C972 1.387 . S
C976 C977 1.387 . S
C976 H980 0.950 . S
C976 C985 1.390 . S
C977 C976 1.387 . S
C977 C979 1.387 . S
H978 C985 0.950 . S
C979 C977 1.387 . S
C979 C981 1.390 . S
C979 H983 0.950 . S
H980 C976 0.950 . S
C981 C979 1.390 . S
C981 C982 1.387 . S
C981 H984 0.950 . S
C982 C981 1.387 . S
C982 C985 1.387 . S
H983 C979 0.950 . S
H984 C981 0.950 . S
C985 C976 1.390 . S
C985 H978 0.950 . S
C985 C982 1.387 . S
C512 C331 2.767 . S
C507 C24 2.729 . S
C522 C321 3.171 . S
C517 C53 3.158 . S
C532 C322 1.180 . S
C527 C82 1.189 . S
C537 C137 0.617 . S
C542 C344 0.750 . S
C547 C184 3.050 . S
C552 C347 3.016 . S
C562 C330 1.187 . S
C557 C202 1.204 . S
C567 C266 0.710 . S
C572 C320 0.659 . S
C577 C293 2.739 . S
C582 C338 2.755 . S
C592 C351 2.875 . S
C587 C2 2.864 . S
C597 C57 1.075 . S
C602 C400 1.116 . S
C612 C378 0.915 . S
C607 C106 0.904 . S
C622 C392 0.782 . S
C617 C143 0.787 . S
C627 C162 0.896 . S
C632 C353 0.881 . S
C642 C406 1.038 1_556 S
C637 C226 1.037 . S
C647 C264 2.517 . S
C652 C362 2.437 . S
C657 C297 0.719 1_554 S
C662 C383 0.719 1_556 S
C667 C26 1.029 . S
C672 C409 0.945 . S
C677 C186 0.376 . S
C682 C393 0.617 . S
C692 C352 2.465 . S
C687 C224 2.473 . S
C702 C384 1.642 . S
C697 C242 1.770 . S
C707 C303 3.295 . S
C712 C375 3.206 . S
C717 C104 2.137 . S
C722 C382 2.127 . S
C732 C369 2.947 . S
C727 C133 2.963 . S
C737 C63 1.527 . S
C742 C361 1.600 . S
C747 C304 2.739 . S
C752 C424 2.755 . S
C757 C173 3.050 . S
C762 C414 3.016 . S
C772 C415 1.188 . S
C767 C223 1.202 . S
C782 C437 0.666 . S
C777 C257 0.720 . S
C787 C64 3.158 . S
C792 C440 3.171 . S
C802 C423 1.181 . S
C797 C103 1.188 . S
C807 C146 0.616 . S
C812 C413 0.751 . S
C817 C13 2.730 . S
C822 C431 2.769 . S
C827 C282 3.294 . S
C832 C444 3.207 . S
C842 C493 0.617 . S
C837 C177 0.377 . S
C847 C213 2.473 . S
C852 C471 2.466 . S
C857 C263 1.770 . S
C862 C485 1.637 . S
C872 C446 1.600 . S
C867 C42 1.527 . S
C877 C93 2.137 . S
C882 C499 2.129 . S
C892 C455 2.948 . S
C887 C144 2.964 . S
C902 C476 0.941 . S
C897 C17 1.021 . S
C912 C502 0.719 . S
C907 C306 0.719 . S
C917 C66 1.075 . S
C922 C486 1.117 . S
C927 C97 0.903 . S
C932 C445 0.915 . S
C942 C477 0.787 . S
C937 C122 0.787 . S
C947 C23 2.864 . S
C952 C468 2.875 . S
C957 C217 1.035 . S
C962 C475 1.043 . S
C972 C462 2.437 . S
C967 C253 2.517 . S
C982 C454 0.885 . S
C977 C183 0.898 . S
